9
q = -1.0

 20 20  0  0  0  0  0  0  0  0999 V2000
    1.1819    0.3344    1.7600 O   0  0  0  0  0  0  0  0  0  0  0  0
    0.6601    0.8116    2.9962 C   0  0  0  0  0  0  0  0  0  0  0  0
    2.5722    0.6705    1.5846 C   0  0  0  0  0  0  0  0  0  0  0  0
    3.1680   -0.2194    0.5028 C   0  0  0  0  0  0  0  0  0  0  0  0
    2.3360   -0.2044   -0.7510 C   0  0  0  0  0  0  0  0  0  0  0  0
    1.7941   -1.3386   -1.4137 C   0  0  0  0  0  0  0  0  0  0  0  0
    0.9728   -0.8819   -2.4835 C   0  0  0  0  0  0  0  0  0  0  0  0
    1.0387    0.5409   -2.5082 C   0  0  0  0  0  0  0  0  0  0  0  0
    1.8718    0.9624   -1.4381 C   0  0  0  0  0  3  0  0  0  0  0  0
   -0.4093    0.5416    3.0361 H   0  0  0  0  0  0  0  0  0  0  0  0
    0.7588    1.9168    3.0751 H   0  0  0  0  0  0  0  0  0  0  0  0
    1.1937    0.3363    3.8488 H   0  0  0  0  0  0  0  0  0  0  0  0
    2.6456    1.7495    1.3122 H   0  0  0  0  0  0  0  0  0  0  0  0
    3.0969    0.5295    2.5562 H   0  0  0  0  0  0  0  0  0  0  0  0
    3.2497   -1.2577    0.8844 H   0  0  0  0  0  0  0  0  0  0  0  0
    4.2059    0.1341    0.3120 H   0  0  0  0  0  0  0  0  0  0  0  0
    1.9664   -2.3826   -1.1275 H   0  0  0  0  0  0  0  0  0  0  0  0
    0.4291   -1.5124   -3.1985 H   0  0  0  0  0  0  0  0  0  0  0  0
    0.5393    1.1931   -3.2348 H   0  0  0  0  0  0  0  0  0  0  0  0
    2.1264    2.0000   -1.1878 H   0  0  0  0  0  0  0  0  0  0  0  0
  1  2  1  0  0  0  0
  2 10  1  0  0  0  0
  2 11  1  0  0  0  0
  2 12  1  0  0  0  0
  3  1  1  0  0  0  0
  3 14  1  0  0  0  0
  4 15  1  0  0  0  0
  4  3  1  0  0  0  0
  5  4  1  0  0  0  0
  6 17  1  0  0  0  0
  6  5  2  0  0  0  0
  7  6  1  0  0  0  0
  8  7  2  0  0  0  0
  8  9  1  0  0  0  0
  9 20  1  0  0  0  0
  9  5  1  0  0  0  0
 13  3  1  0  0  0  0
 16  4  1  0  0  0  0
 18  7  1  0  0  0  0
 19  8  1  0  0  0  0
M  END
