2
q = -1.0

 24 25  0  0  0  0  0  0  0  0999 V2000
    0.0769   -2.5500    0.5576 N   0  0  0  0  0  0  0  0  0  0  0  0
    1.6581   -0.4337    1.6949 C   0  0  0  0  0  3  0  0  0  0  0  0
    2.4793    0.5125    2.3307 C   0  0  0  0  0  0  0  0  0  0  0  0
    2.2271    1.5833    2.2808 H   0  0  0  0  0  0  0  0  0  0  0  0
    3.6190    0.1100    3.0505 C   0  0  0  0  0  0  0  0  0  0  0  0
    4.2472    0.8723    3.5385 H   0  0  0  0  0  0  0  0  0  0  0  0
    3.1473   -2.2077    2.5422 C   0  0  0  0  0  0  0  0  0  0  0  0
    3.3934   -3.2794    2.6184 H   0  0  0  0  0  0  0  0  0  0  0  0
    3.9626   -1.2504    3.1513 C   0  0  0  0  0  0  0  0  0  0  0  0
    4.8590   -1.5582    3.7104 H   0  0  0  0  0  0  0  0  0  0  0  0
    1.9934   -1.8145    1.8205 C   0  0  0  0  0  0  0  0  0  0  0  0
   -0.7305   -3.5379   -0.0082 C   0  0  0  0  0  0  0  0  0  0  0  0
   -1.3029   -3.2972   -1.2805 C   0  0  0  0  0  0  0  0  0  0  0  0
   -1.0660   -2.3484   -1.7832 H   0  0  0  0  0  0  0  0  0  0  0  0
   -2.1567   -4.2356   -1.8691 C   0  0  0  0  0  0  0  0  0  0  0  0
   -2.5888   -4.0317   -2.8608 H   0  0  0  0  0  0  0  0  0  0  0  0
   -2.4817   -5.4229   -1.1904 C   0  0  0  0  0  0  0  0  0  0  0  0
   -3.1682   -6.1522   -1.6456 H   0  0  0  0  0  0  0  0  0  0  0  0
   -1.9369   -5.6616    0.0821 C   0  0  0  0  0  0  0  0  0  0  0  0
   -2.1989   -6.5808    0.6288 H   0  0  0  0  0  0  0  0  0  0  0  0
   -1.0669   -4.7340    0.6717 C   0  0  0  0  0  0  0  0  0  0  0  0
   -0.6665   -4.9082    1.6816 H   0  0  0  0  0  0  0  0  0  0  0  0
    1.1703   -2.8362    1.1935 C   0  0  0  0  0  0  0  0  0  0  0  0
    1.5320   -3.8889    1.2564 H   0  0  0  0  0  0  0  0  0  0  0  0
  1 23  2  0  0  0  0
  2 11  2  0  0  0  0
  2  3  1  0  0  0  0
  3  5  2  0  0  0  0
  4  3  1  0  0  0  0
  5  9  1  0  0  0  0
  5  6  1  0  0  0  0
  7  8  1  0  0  0  0
  7  9  2  0  0  0  0
  9 10  1  0  0  0  0
 11  7  1  0  0  0  0
 12  1  1  0  0  0  0
 12 21  1  0  0  0  0
 13 12  2  0  0  0  0
 14 13  1  0  0  0  0
 15 13  1  0  0  0  0
 15 17  2  0  0  0  0
 16 15  1  0  0  0  0
 17 19  1  0  0  0  0
 18 17  1  0  0  0  0
 19 20  1  0  0  0  0
 19 21  2  0  0  0  0
 21 22  1  0  0  0  0
 23 24  1  0  0  0  0
 23 11  1  0  0  0  0
M  END
