1
q = 0.0, confidence = 0.974

 29 31  0  0  0  0  0  0  0  0999 V2000
    0.0969    0.1561   -0.9472 C   0  0  0  0  0  2  0  0  0  0  0  0
    1.4076    0.4516   -1.2127 N   0  0  0  0  0  0  0  0  0  0  0  0
    2.5158   -0.4456   -0.9046 C   0  0  0  0  0  0  0  0  0  0  0  0
    3.3989    0.1092    0.0907 N   0  0  0  0  0  0  0  0  0  0  0  0
    2.9738    0.2206    1.3655 N   0  0  0  0  0  0  0  0  0  0  0  0
    3.9725    0.8411    2.0025 C   0  0  0  0  0  0  0  0  0  0  0  0
    5.0546    1.1404    1.1288 C   0  0  0  0  0  0  0  0  0  0  0  0
    4.6440    0.6564   -0.1070 C   0  0  0  0  0  0  0  0  0  0  0  0
    1.5429    1.7353   -1.7349 C   0  0  0  0  0  0  0  0  0  0  0  0
    0.2818    2.2595   -1.8152 C   0  0  0  0  0  0  0  0  0  0  0  0
   -0.5827    1.2759   -1.3476 N   0  0  0  0  0  0  0  0  0  0  0  0
   -2.0218    1.4542   -1.1721 C   0  0  0  0  0  0  0  0  0  0  0  0
   -2.3290    2.2731   -0.0298 N   0  0  0  0  0  0  0  0  0  0  0  0
   -2.3037    3.6194   -0.1663 N   0  0  0  0  0  0  0  0  0  0  0  0
   -2.4704    4.0839    1.0779 C   0  0  0  0  0  0  0  0  0  0  0  0
   -2.5889    3.0299    2.0255 C   0  0  0  0  0  0  0  0  0  0  0  0
   -2.4810    1.8675    1.2718 C   0  0  0  0  0  0  0  0  0  0  0  0
    2.0621   -1.3855   -0.5326 H   0  0  0  0  0  0  0  0  0  0  0  0
    3.1049   -0.6472   -1.8201 H   0  0  0  0  0  0  0  0  0  0  0  0
    3.8844    1.0477    3.0767 H   0  0  0  0  0  0  0  0  0  0  0  0
    6.0050    1.6289    1.3672 H   0  0  0  0  0  0  0  0  0  0  0  0
    5.1330    0.6376   -1.0879 H   0  0  0  0  0  0  0  0  0  0  0  0
    2.5170    2.1666   -1.9837 H   0  0  0  0  0  0  0  0  0  0  0  0
   -0.0809    3.2433   -2.1275 H   0  0  0  0  0  0  0  0  0  0  0  0
   -2.4591    0.4460   -1.0443 H   0  0  0  0  0  0  0  0  0  0  0  0
   -2.4379    1.9490   -2.0688 H   0  0  0  0  0  0  0  0  0  0  0  0
   -2.5095    5.1668    1.2528 H   0  0  0  0  0  0  0  0  0  0  0  0
   -2.7412    3.1039    3.1071 H   0  0  0  0  0  0  0  0  0  0  0  0
   -2.4875    0.8043    1.5411 H   0  0  0  0  0  0  0  0  0  0  0  0
  2  1  1  0  0  0  0
  2  3  1  0  0  0  0
  3 18  1  0  0  0  0
  3  4  1  0  0  0  0
  4  5  1  0  0  0  0
  5  6  2  0  0  0  0
  6 20  1  0  0  0  0
  7 21  1  0  0  0  0
  7  6  1  0  0  0  0
  8  4  1  0  0  0  0
  8  7  2  0  0  0  0
  9  2  1  0  0  0  0
 10  9  2  0  0  0  0
 10 11  1  0  0  0  0
 11 12  1  0  0  0  0
 11  1  1  0  0  0  0
 12 25  1  0  0  0  0
 12 13  1  0  0  0  0
 13 17  1  0  0  0  0
 14 13  1  0  0  0  0
 14 15  2  0  0  0  0
 15 27  1  0  0  0  0
 15 16  1  0  0  0  0
 16 28  1  0  0  0  0
 17 29  1  0  0  0  0
 17 16  2  0  0  0  0
 19  3  1  0  0  0  0
 22  8  1  0  0  0  0
 23  9  1  0  0  0  0
 24 10  1  0  0  0  0
 26 12  1  0  0  0  0
M  END
