3
q = -1.0

 41 43  0  0  0  0  0  0  0  0999 V2000
    0.8818    1.7593    0.2740 C   0  0  0  0  0  3  0  0  0  0  0  0
    1.2514    2.2280    1.2074 H   0  0  0  0  0  0  0  0  0  0  0  0
   -0.4672    1.3369    0.1367 C   0  0  0  0  0  3  0  0  0  0  0  0
   -2.1664    3.1873    0.0359 C   0  0  0  0  0  0  0  0  0  0  0  0
   -2.7534    0.7349   -0.0263 C   0  0  0  0  0  0  0  0  0  0  0  0
   -1.7619    1.7557    0.0654 C   0  0  0  0  0  0  0  0  0  0  0  0
    1.7775    1.2992   -0.7470 C   0  0  0  0  0  3  0  0  0  0  0  0
    1.3715    1.2153   -1.7674 H   0  0  0  0  0  0  0  0  0  0  0  0
   -3.5073   -0.2305   -0.1577 C   0  0  0  0  0  0  0  0  0  0  0  0
   -3.5340    3.5303    0.1355 C   0  0  0  0  0  0  0  0  0  0  0  0
   -4.2773    2.7231    0.2200 H   0  0  0  0  0  0  0  0  0  0  0  0
    3.2460    1.3158   -0.6501 C   0  0  0  0  0  0  0  0  0  0  0  0
   -4.2093   -1.4494   -0.3773 C   0  0  0  0  0  0  0  0  0  0  0  0
   -1.2231    4.2330   -0.0892 C   0  0  0  0  0  0  0  0  0  0  0  0
   -0.1562    3.9919   -0.2009 H   0  0  0  0  0  0  0  0  0  0  0  0
    3.9999    0.8767   -1.7653 C   0  0  0  0  0  0  0  0  0  0  0  0
    3.4631    0.5640   -2.6742 H   0  0  0  0  0  0  0  0  0  0  0  0
    3.9520    1.7184    0.5095 C   0  0  0  0  0  0  0  0  0  0  0  0
    3.3994    2.0872    1.3868 H   0  0  0  0  0  0  0  0  0  0  0  0
    5.3520    1.6660    0.5557 C   0  0  0  0  0  0  0  0  0  0  0  0
    5.8791    1.9879    1.4670 H   0  0  0  0  0  0  0  0  0  0  0  0
   -2.9955    5.8998    0.0148 C   0  0  0  0  0  0  0  0  0  0  0  0
   -3.3155    6.9527    0.0053 H   0  0  0  0  0  0  0  0  0  0  0  0
   -1.6336    5.5714   -0.0978 C   0  0  0  0  0  0  0  0  0  0  0  0
   -0.8815    6.3686   -0.2025 H   0  0  0  0  0  0  0  0  0  0  0  0
   -3.9428    4.8706    0.1290 C   0  0  0  0  0  0  0  0  0  0  0  0
   -5.0137    5.1126    0.2107 H   0  0  0  0  0  0  0  0  0  0  0  0
   -3.5687   -2.4741   -1.1283 C   0  0  0  0  0  0  0  0  0  0  0  0
   -2.5714   -2.2674   -1.5494 H   0  0  0  0  0  0  0  0  0  0  0  0
   -5.5074   -1.6881    0.1410 C   0  0  0  0  0  0  0  0  0  0  0  0
   -6.0066   -0.8965    0.7189 H   0  0  0  0  0  0  0  0  0  0  0  0
    6.0833    1.2112   -0.5545 C   0  0  0  0  0  0  0  0  0  0  0  0
    7.1821    1.1687   -0.5152 H   0  0  0  0  0  0  0  0  0  0  0  0
    5.3984    0.8206   -1.7177 C   0  0  0  0  0  0  0  0  0  0  0  0
    5.9603    0.4698   -2.5968 H   0  0  0  0  0  0  0  0  0  0  0  0
   -4.2131   -3.6987   -1.3379 C   0  0  0  0  0  0  0  0  0  0  0  0
   -3.7103   -4.4830   -1.9246 H   0  0  0  0  0  0  0  0  0  0  0  0
   -5.4978   -3.9275   -0.8143 C   0  0  0  0  0  0  0  0  0  0  0  0
   -6.0004   -4.8919   -0.9835 H   0  0  0  0  0  0  0  0  0  0  0  0
   -6.1406   -2.9176   -0.0787 C   0  0  0  0  0  0  0  0  0  0  0  0
   -7.1483   -3.0910    0.3292 H   0  0  0  0  0  0  0  0  0  0  0  0
  1  2  1  0  0  0  0
  3  1  1  0  0  0  0
  4  6  1  0  0  0  0
  4 10  1  0  0  0  0
  5  6  1  0  0  0  0
  6  3  2  0  0  0  0
  7 12  1  0  0  0  0
  7  1  1  0  0  0  0
  8  7  1  0  0  0  0
  9  5  3  0  0  0  0
 10 11  1  0  0  0  0
 12 18  1  0  0  0  0
 13  9  1  0  0  0  0
 13 30  1  0  0  0  0
 14  4  2  0  0  0  0
 15 14  1  0  0  0  0
 16 34  1  0  0  0  0
 16 12  2  0  0  0  0
 17 16  1  0  0  0  0
 18 20  2  0  0  0  0
 18 19  1  0  0  0  0
 20 21  1  0  0  0  0
 22 26  1  0  0  0  0
 23 22  1  0  0  0  0
 24 14  1  0  0  0  0
 24 22  2  0  0  0  0
 25 24  1  0  0  0  0
 26 10  2  0  0  0  0
 26 27  1  0  0  0  0
 28 13  2  0  0  0  0
 29 28  1  0  0  0  0
 30 31  1  0  0  0  0
 32 33  1  0  0  0  0
 32 20  1  0  0  0  0
 34 32  2  0  0  0  0
 35 34  1  0  0  0  0
 36 28  1  0  0  0  0
 36 38  2  0  0  0  0
 37 36  1  0  0  0  0
 38 40  1  0  0  0  0
 39 38  1  0  0  0  0
 40 30  2  0  0  0  0
 40 41  1  0  0  0  0
M  END
