4
q = -1.0, confidence = 0.07

 50 51  0  0  1  0  0  0  0  0999 V2000
    0.4955    0.2215   -0.8864 C   0  0  0  0  0  0  0  0  0  0  0  0
    1.0147   -0.9204   -0.2195 C   0  0  0  0  0  0  0  0  0  0  0  0
    0.3499   -1.5079    0.4268 H   0  0  0  0  0  0  0  0  0  0  0  0
    2.3751   -1.3691   -0.3408 C   0  0  0  0  0  3  0  0  0  0  0  0
    2.6963   -2.3411    0.0573 H   0  0  0  0  0  0  0  0  0  0  0  0
    3.3184   -0.5266   -1.0162 C   0  0  2  0  0  3  0  0  0  0  0  0
    4.5726   -0.9671   -1.1023 O   0  0  0  0  0  0  0  0  0  0  0  0
    5.5873   -0.1074   -1.6400 C   0  0  0  0  0  0  0  0  0  0  0  0
    6.4965   -0.7281   -1.7180 H   0  0  0  0  0  0  0  0  0  0  0  0
    5.7853    0.7449   -0.9571 H   0  0  0  0  0  0  0  0  0  0  0  0
    5.3034    0.2673   -2.6446 H   0  0  0  0  0  0  0  0  0  0  0  0
    2.8338    0.7782   -1.3527 C   0  0  0  0  0  3  0  0  0  0  0  0
    3.5611    1.5401   -1.6692 H   0  0  0  0  0  0  0  0  0  0  0  0
    1.4179    0.8885   -1.8888 C   0  0  0  0  0  0  0  0  0  0  0  0
    1.2871    0.4078   -2.8876 H   0  0  0  0  0  0  0  0  0  0  0  0
    1.1572    1.9517   -2.0330 H   0  0  0  0  0  0  0  0  0  0  0  0
   -0.8812    0.6802   -0.7218 C   0  0  0  0  0  0  0  0  0  0  0  0
   -1.9986   -0.1660   -0.4350 C   0  0  0  0  0  0  0  0  0  0  0  0
   -3.2618    0.4093   -0.2260 C   0  0  0  0  0  0  0  0  0  0  0  0
   -4.0994   -0.2631   -0.0003 H   0  0  0  0  0  0  0  0  0  0  0  0
   -3.4782    1.7973   -0.2726 C   0  0  0  0  0  0  0  0  0  0  0  0
   -2.3769    2.6571   -0.6016 C   0  0  0  0  0  0  0  0  0  0  0  0
   -1.1282    2.0824   -0.8359 C   0  0  0  0  0  0  0  0  0  0  0  0
   -0.2893    2.7543   -1.0478 H   0  0  0  0  0  0  0  0  0  0  0  0
   -1.9955   -1.6796   -0.3831 C   0  0  0  0  0  0  0  0  0  0  0  0
   -3.0279   -2.0654   -0.4854 H   0  0  0  0  0  0  0  0  0  0  0  0
   -1.1725   -2.2280   -1.3897 O   0  0  0  0  0  0  0  0  0  0  0  0
   -2.3588   -4.1664   -1.2090 O   0  0  0  0  0  0  0  0  0  0  0  0
   -1.4646   -3.5476   -1.7335 C   0  0  0  0  0  0  0  0  0  0  0  0
   -0.5237   -4.0250   -2.8028 C   0  0  0  0  0  0  0  0  0  0  0  0
   -0.7675   -5.0665   -3.0723 H   0  0  0  0  0  0  0  0  0  0  0  0
    0.5228   -3.9631   -2.4428 H   0  0  0  0  0  0  0  0  0  0  0  0
   -0.6012   -3.3732   -3.6955 H   0  0  0  0  0  0  0  0  0  0  0  0
   -1.4977   -2.1698    0.8847 O   0  0  0  0  0  0  0  0  0  0  0  0
   -3.6191   -2.1241    1.7079 O   0  0  0  0  0  0  0  0  0  0  0  0
   -2.4512   -2.4075    1.8595 C   0  0  0  0  0  0  0  0  0  0  0  0
   -1.8193   -3.0324    3.0709 C   0  0  0  0  0  0  0  0  0  0  0  0
   -2.5756   -3.1422    3.8664 H   0  0  0  0  0  0  0  0  0  0  0  0
   -0.9750   -2.4100    3.4284 H   0  0  0  0  0  0  0  0  0  0  0  0
   -1.4091   -4.0272    2.8050 H   0  0  0  0  0  0  0  0  0  0  0  0
   -4.6454    2.4012   -0.0442 O   0  0  0  0  0  0  0  0  0  0  0  0
   -5.7800    1.6112    0.3189 C   0  0  0  0  0  0  0  0  0  0  0  0
   -6.6027    2.3258    0.4948 H   0  0  0  0  0  0  0  0  0  0  0  0
   -5.5844    1.0305    1.2447 H   0  0  0  0  0  0  0  0  0  0  0  0
   -6.0621    0.9178   -0.5013 H   0  0  0  0  0  0  0  0  0  0  0  0
   -2.6550    3.9711   -0.6369 O   0  0  0  0  0  0  0  0  0  0  0  0
   -1.6049    4.8826   -0.9324 C   0  0  0  0  0  0  0  0  0  0  0  0
   -2.0514    5.8918   -0.8910 H   0  0  0  0  0  0  0  0  0  0  0  0
   -1.1914    4.7089   -1.9503 H   0  0  0  0  0  0  0  0  0  0  0  0
   -0.7842    4.8136   -0.1850 H   0  0  0  0  0  0  0  0  0  0  0  0
  1 17  1  0  0  0  0
  1  2  2  0  0  0  0
  2  3  1  0  0  0  0
  4  2  1  0  0  0  0
  4  5  1  0  0  0  0
  6  7  1  1  0  0  0
  6  4  1  0  0  0  0
  8  7  1  0  0  0  0
  8 10  1  0  0  0  0
  9  8  1  0  0  0  0
 11  8  1  0  0  0  0
 12  6  1  0  0  0  0
 13 12  1  0  0  0  0
 14 12  1  0  0  0  0
 14  1  1  0  0  0  0
 15 14  1  0  0  0  0
 16 14  1  0  0  0  0
 17 18  1  0  0  0  0
 18 25  1  0  0  0  0
 18 19  2  0  0  0  0
 19 20  1  0  0  0  0
 21 19  1  0  0  0  0
 21 41  1  0  0  0  0
 22 21  2  0  0  0  0
 23 17  2  0  0  0  0
 23 22  1  0  0  0  0
 24 23  1  0  0  0  0
 25 34  1  0  0  0  0
 26 25  1  0  0  0  0
 27 25  1  0  0  0  0
 29 27  1  0  0  0  0
 29 28  2  0  0  0  0
 30 32  1  0  0  0  0
 30 29  1  0  0  0  0
 31 30  1  0  0  0  0
 33 30  1  0  0  0  0
 34 36  1  0  0  0  0
 35 36  2  0  0  0  0
 36 37  1  0  0  0  0
 37 39  1  0  0  0  0
 37 38  1  0  0  0  0
 40 37  1  0  0  0  0
 41 42  1  0  0  0  0
 42 43  1  0  0  0  0
 42 44  1  0  0  0  0
 45 42  1  0  0  0  0
 46 22  1  0  0  0  0
 47 48  1  0  0  0  0
 47 46  1  0  0  0  0
 47 50  1  0  0  0  0
 49 47  1  0  0  0  0
M  END
