4
q = 0.0, confidence = 0.996

 26 26  0  0  0  0  0  0  0  0999 V2000
    0.3140   -0.4216   -0.4009 O   0  0  0  0  0  0  0  0  0  0  0  0
    1.0417    1.7467   -0.3909 N   0  0  0  0  0  0  0  0  0  0  0  0
   -1.3037    1.4117    1.3429 C   0  0  0  0  0  3  0  0  0  0  0  0
   -1.4399    1.8872    0.0085 C   0  0  0  0  0  3  0  0  0  0  0  0
   -0.2590    2.1981   -0.8951 C   0  0  0  0  0  0  0  0  0  0  0  0
    1.2537    0.4059   -0.2766 C   0  0  0  0  0  0  0  0  0  0  0  0
    1.9221    2.7717    0.1575 C   0  0  0  0  0  0  0  0  0  0  0  0
    2.6250   -0.1298   -0.0322 C   0  0  0  0  0  0  0  0  0  0  0  0
    2.7455   -1.2686    0.7918 C   0  0  0  0  0  0  0  0  0  0  0  0
    4.0013   -1.8482    1.0089 C   0  0  0  0  0  0  0  0  0  0  0  0
    5.1409   -1.3146    0.3842 C   0  0  0  0  0  0  0  0  0  0  0  0
    5.0221   -0.2008   -0.4631 C   0  0  0  0  0  0  0  0  0  0  0  0
    3.7700    0.3936   -0.6696 C   0  0  0  0  0  0  0  0  0  0  0  0
   -2.0928    1.6128    2.0833 H   0  0  0  0  0  0  0  0  0  0  0  0
   -0.3031    1.2452    1.7787 H   0  0  0  0  0  0  0  0  0  0  0  0
   -2.3538    2.4335   -0.2824 H   0  0  0  0  0  0  0  0  0  0  0  0
   -0.4320    1.7478   -1.8970 H   0  0  0  0  0  0  0  0  0  0  0  0
   -0.1775    3.2945   -1.0494 H   0  0  0  0  0  0  0  0  0  0  0  0
    1.3449    3.4117    0.8574 H   0  0  0  0  0  0  0  0  0  0  0  0
    2.7517    2.3087    0.7185 H   0  0  0  0  0  0  0  0  0  0  0  0
    2.3444    3.4192   -0.6399 H   0  0  0  0  0  0  0  0  0  0  0  0
    1.8382   -1.6902    1.2484 H   0  0  0  0  0  0  0  0  0  0  0  0
    4.0911   -2.7294    1.6614 H   0  0  0  0  0  0  0  0  0  0  0  0
    6.1262   -1.7766    0.5486 H   0  0  0  0  0  0  0  0  0  0  0  0
    5.9095    0.2014   -0.9744 H   0  0  0  0  0  0  0  0  0  0  0  0
    3.6767    1.2482   -1.3560 H   0  0  0  0  0  0  0  0  0  0  0  0
  1  6  2  0  0  0  0
  2  6  1  0  0  0  0
  2  7  1  0  0  0  0
  3 15  1  0  0  0  0
  3 14  1  0  0  0  0
  4  3  1  0  0  0  0
  5  2  1  0  0  0  0
  5  4  1  0  0  0  0
  6  8  1  0  0  0  0
  7 20  1  0  0  0  0
  7 19  1  0  0  0  0
  8  9  1  0  0  0  0
  9 10  2  0  0  0  0
  9 22  1  0  0  0  0
 10 23  1  0  0  0  0
 11 24  1  0  0  0  0
 11 10  1  0  0  0  0
 12 11  2  0  0  0  0
 13 12  1  0  0  0  0
 13  8  2  0  0  0  0
 16  4  1  0  0  0  0
 17  5  1  0  0  0  0
 18  5  1  0  0  0  0
 21  7  1  0  0  0  0
 25 12  1  0  0  0  0
 26 13  1  0  0  0  0
M  END
