1
q = -1.0

 16 16  0  0  0  0  0  0  0  0999 V2000
   -3.0727   -0.2665   -0.1737 C   0  0  0  0  0  3  0  0  0  0  0  0
   -2.5384   -1.3311   -0.9601 C   0  0  0  0  0  0  0  0  0  0  0  0
   -1.4251   -1.2224   -1.8654 C   0  0  0  0  0  0  0  0  0  0  0  0
   -0.6775   -0.0704   -2.1803 C   0  0  0  0  0  3  0  0  0  0  0  0
   -1.1400    1.3449   -2.4103 C   0  0  0  0  0  0  0  0  0  0  0  0
   -2.4213    1.7271   -1.6719 C   0  0  0  0  0  0  0  0  0  0  0  0
   -2.6055    1.0680   -0.3020 C   0  0  0  0  0  3  0  0  0  0  0  0
   -3.7642   -0.5451    0.6376 H   0  0  0  0  0  0  0  0  0  0  0  0
   -2.9339   -2.3444   -0.7897 H   0  0  0  0  0  0  0  0  0  0  0  0
   -0.9994   -2.1909   -2.1778 H   0  0  0  0  0  0  0  0  0  0  0  0
    0.2860   -0.2969   -2.6719 H   0  0  0  0  0  0  0  0  0  0  0  0
   -0.3149    2.0332   -2.1316 H   0  0  0  0  0  0  0  0  0  0  0  0
   -1.2640    1.4862   -3.5089 H   0  0  0  0  0  0  0  0  0  0  0  0
   -2.4640    2.8273   -1.5540 H   0  0  0  0  0  0  0  0  0  0  0  0
   -3.3037    1.4584   -2.2907 H   0  0  0  0  0  0  0  0  0  0  0  0
   -2.9772    1.7456    0.4856 H   0  0  0  0  0  0  0  0  0  0  0  0
  1  8  1  0  0  0  0
  2  9  1  0  0  0  0
  2  1  1  0  0  0  0
  3  2  2  0  0  0  0
  4  3  1  0  0  0  0
  5  4  1  0  0  0  0
  5 12  1  0  0  0  0
  5  6  1  0  0  0  0
  6 14  1  0  0  0  0
  6  7  1  0  0  0  0
  7  1  1  0  0  0  0
  7 16  1  0  0  0  0
 10  3  1  0  0  0  0
 11  4  1  0  0  0  0
 13  5  1  0  0  0  0
 15  6  1  0  0  0  0
M  END
