3
q = 0.0, confidence = 0.992

 18 17  0  0  0  0  0  0  0  0999 V2000
    1.6699    2.6694   -0.9543 S   0  0  0  0  0  0  0  0  0  0  0  0
    1.6730    2.1244    1.5847 N   0  0  0  0  0  0  0  0  0  0  0  0
    1.4964    1.5525    0.3843 C   0  0  0  0  0  2  0  0  0  0  0  0
    1.5243    1.3529    2.8177 C   0  0  0  0  0  0  0  0  0  0  0  0
    1.2363    0.3172    2.5514 H   0  0  0  0  0  0  0  0  0  0  0  0
    0.7438    1.8102    3.4613 H   0  0  0  0  0  0  0  0  0  0  0  0
    2.4854    1.3298    3.3709 H   0  0  0  0  0  0  0  0  0  0  0  0
    2.0037    3.5402    1.7422 C   0  0  0  0  0  0  0  0  0  0  0  0
    2.8895    3.7989    1.1258 H   0  0  0  0  0  0  0  0  0  0  0  0
    2.2267    3.7521    2.8030 H   0  0  0  0  0  0  0  0  0  0  0  0
    1.1543    4.1764    1.4115 H   0  0  0  0  0  0  0  0  0  0  0  0
    1.5406    1.5857   -2.4256 C   0  0  0  0  0  0  0  0  0  0  0  0
    0.7783    0.8169   -2.1796 H   0  0  0  0  0  0  0  0  0  0  0  0
    1.1211    2.2584   -3.2017 H   0  0  0  0  0  0  0  0  0  0  0  0
    2.8624    0.9586   -2.8441 C   0  0  0  0  0  0  0  0  0  0  0  0
    2.7130    0.3605   -3.7672 H   0  0  0  0  0  0  0  0  0  0  0  0
    3.2420    0.2780   -2.0542 H   0  0  0  0  0  0  0  0  0  0  0  0
    3.6313    1.7286   -3.0536 H   0  0  0  0  0  0  0  0  0  0  0  0
  1  3  1  0  0  0  0
  2  8  1  0  0  0  0
  2  4  1  0  0  0  0
  3  2  1  0  0  0  0
  4  7  1  0  0  0  0
  4  6  1  0  0  0  0
  5  4  1  0  0  0  0
  8 10  1  0  0  0  0
  9  8  1  0  0  0  0
 11  8  1  0  0  0  0
 12 13  1  0  0  0  0
 12  1  1  0  0  0  0
 14 12  1  0  0  0  0
 15 12  1  0  0  0  0
 15 17  1  0  0  0  0
 16 15  1  0  0  0  0
 18 15  1  0  0  0  0
M  END
