2
q = -1.0

 11 10  0  0  1  0  0  0  0  0999 V2000
   -4.1534   -2.0088   -0.1446 O   0  0  0  0  0  0  0  0  0  0  0  0
   -3.1991   -1.3608   -0.4667 C   0  0  0  0  0  3  0  0  0  0  0  0
   -2.8009   -0.0860   -1.0382 C   0  0  2  0  0  3  0  0  0  0  0  0
   -1.7532   -0.2454   -1.9953 C   0  0  0  0  0  3  0  0  0  0  0  0
   -3.2891    1.2013   -0.5245 C   0  0  0  0  0  0  0  0  0  0  0  0
   -4.3581    1.3591    0.2854 C   0  0  0  0  0  0  0  0  0  0  0  0
   -1.2196    0.6639   -2.3220 H   0  0  0  0  0  0  0  0  0  0  0  0
   -1.8184   -1.0420   -2.7502 H   0  0  0  0  0  0  0  0  0  0  0  0
   -2.7311    2.0867   -0.8763 H   0  0  0  0  0  0  0  0  0  0  0  0
   -4.9391    0.4960    0.6474 H   0  0  0  0  0  0  0  0  0  0  0  0
   -4.6769    2.3610    0.6088 H   0  0  0  0  0  0  0  0  0  0  0  0
  2  1  2  0  0  0  0
  3  5  1  0  0  0  0
  3  2  1  1  0  0  0
  4  3  1  0  0  0  0
  5  6  2  0  0  0  0
  6 11  1  0  0  0  0
  6 10  1  0  0  0  0
  7  4  1  0  0  0  0
  8  4  1  0  0  0  0
  9  5  1  0  0  0  0
M  END
