19
q = -1.0, confidence = 0.112

 52 56  0  0  0  0  0  0  0  0999 V2000
   -1.6945    0.3961    0.1733 P   0  0  0  0  0  0  0  0  0  0  0  0
    2.0807    1.6375   -0.2476 N   0  0  0  0  0  2  0  0  0  0  0  0
    2.2018   -0.4835    0.8677 C   0  0  0  0  0  0  0  0  0  0  0  0
    2.8601    0.6610    0.3116 C   0  0  0  0  0  0  0  0  0  0  0  0
    4.2965    0.7604    0.3074 C   0  0  0  0  0  0  0  0  0  0  0  0
    4.9682    1.8770   -0.2635 C   0  0  0  0  0  0  0  0  0  0  0  0
    4.3490    2.6799   -0.6886 H   0  0  0  0  0  0  0  0  0  0  0  0
    6.3563    1.9391   -0.2776 C   0  0  0  0  0  0  0  0  0  0  0  0
    6.8634    2.8105   -0.7202 H   0  0  0  0  0  0  0  0  0  0  0  0
    7.1268    0.8830    0.2753 C   0  0  0  0  0  0  0  0  0  0  0  0
    8.2260    0.9385    0.2573 H   0  0  0  0  0  0  0  0  0  0  0  0
    6.4944   -0.2195    0.8381 C   0  0  0  0  0  0  0  0  0  0  0  0
    7.0873   -1.0411    1.2711 H   0  0  0  0  0  0  0  0  0  0  0  0
    5.0747   -0.3127    0.8713 C   0  0  0  0  0  0  0  0  0  0  0  0
    4.3950   -1.4248    1.4649 C   0  0  0  0  0  0  0  0  0  0  0  0
    4.9950   -2.2236    1.9290 H   0  0  0  0  0  0  0  0  0  0  0  0
    3.0137   -1.4883    1.4888 C   0  0  0  0  0  0  0  0  0  0  0  0
    2.5359   -2.3281    2.0149 H   0  0  0  0  0  0  0  0  0  0  0  0
    0.8136    1.2888   -0.3724 C   0  0  0  0  0  2  0  0  0  0  0  0
   -0.1418    2.2761   -0.9181 C   0  0  0  0  0  0  0  0  0  0  0  0
   -1.5110    1.9442   -0.8095 C   0  0  0  0  0  0  0  0  0  0  0  0
   -2.5056    2.7774   -1.3425 C   0  0  0  0  0  0  0  0  0  0  0  0
   -3.5683    2.4988   -1.2666 H   0  0  0  0  0  0  0  0  0  0  0  0
   -2.1297    3.9692   -1.9849 C   0  0  0  0  0  0  0  0  0  0  0  0
   -2.8996    4.6266   -2.4171 H   0  0  0  0  0  0  0  0  0  0  0  0
   -0.7689    4.3271   -2.0667 C   0  0  0  0  0  0  0  0  0  0  0  0
   -0.4836    5.2687   -2.5616 H   0  0  0  0  0  0  0  0  0  0  0  0
    0.2224    3.4945   -1.5324 C   0  0  0  0  0  0  0  0  0  0  0  0
    1.2903    3.7532   -1.5857 H   0  0  0  0  0  0  0  0  0  0  0  0
   -2.2851    1.0649    1.8052 C   0  0  0  0  0  0  0  0  0  0  0  0
   -1.4425    0.9282    2.9233 C   0  0  0  0  0  0  0  0  0  0  0  0
   -0.4819    0.4032    2.7957 H   0  0  0  0  0  0  0  0  0  0  0  0
   -1.8082    1.4704    4.1659 C   0  0  0  0  0  0  0  0  0  0  0  0
   -1.1367    1.3579    5.0308 H   0  0  0  0  0  0  0  0  0  0  0  0
   -3.0235    2.1576    4.3003 C   0  0  0  0  0  0  0  0  0  0  0  0
   -3.3134    2.5841    5.2729 H   0  0  0  0  0  0  0  0  0  0  0  0
   -3.8681    2.3070    3.1866 C   0  0  0  0  0  0  0  0  0  0  0  0
   -4.8180    2.8549    3.2845 H   0  0  0  0  0  0  0  0  0  0  0  0
   -3.5012    1.7672    1.9460 C   0  0  0  0  0  0  0  0  0  0  0  0
   -4.1668    1.8959    1.0793 H   0  0  0  0  0  0  0  0  0  0  0  0
   -3.2380   -0.3392   -0.5304 C   0  0  0  0  0  0  0  0  0  0  0  0
   -4.2668   -0.8817    0.2672 C   0  0  0  0  0  0  0  0  0  0  0  0
   -4.2121   -0.7941    1.3631 H   0  0  0  0  0  0  0  0  0  0  0  0
   -5.3644   -1.5285   -0.3226 C   0  0  0  0  0  0  0  0  0  0  0  0
   -6.1580   -1.9457    0.3161 H   0  0  0  0  0  0  0  0  0  0  0  0
   -5.4525   -1.6424   -1.7186 C   0  0  0  0  0  0  0  0  0  0  0  0
   -6.3135   -2.1492   -2.1801 H   0  0  0  0  0  0  0  0  0  0  0  0
   -4.4389   -1.0957   -2.5238 C   0  0  0  0  0  0  0  0  0  0  0  0
   -4.5049   -1.1678   -3.6204 H   0  0  0  0  0  0  0  0  0  0  0  0
   -3.3418   -0.4522   -1.9340 C   0  0  0  0  0  0  0  0  0  0  0  0
   -2.5565   -0.0152   -2.5699 H   0  0  0  0  0  0  0  0  0  0  0  0
    1.1903   -0.2223    1.4451 H   0  0  0  0  0  0  0  0  0  0  0  0
  1 30  1  0  0  0  0
  2  4  1  0  0  0  0
  3 52  1  0  0  0  0
  3 17  1  0  0  0  0
  4  3  2  0  0  0  0
  5  4  1  0  0  0  0
  5 14  1  0  0  0  0
  6  5  2  0  0  0  0
  7  6  1  0  0  0  0
  8  6  1  0  0  0  0
  8 10  2  0  0  0  0
  9  8  1  0  0  0  0
 10 12  1  0  0  0  0
 11 10  1  0  0  0  0
 12 14  2  0  0  0  0
 12 13  1  0  0  0  0
 14 15  1  0  0  0  0
 15 17  2  0  0  0  0
 15 16  1  0  0  0  0
 17 18  1  0  0  0  0
 19  2  1  0  0  0  0
 20 21  1  0  0  0  0
 20 19  1  0  0  0  0
 21  1  1  0  0  0  0
 22 23  1  0  0  0  0
 22 21  2  0  0  0  0
 24 22  1  0  0  0  0
 25 24  1  0  0  0  0
 26 24  2  0  0  0  0
 26 28  1  0  0  0  0
 27 26  1  0  0  0  0
 28 20  2  0  0  0  0
 29 28  1  0  0  0  0
 30 39  2  0  0  0  0
 30 31  1  0  0  0  0
 31 33  2  0  0  0  0
 32 31  1  0  0  0  0
 33 35  1  0  0  0  0
 33 34  1  0  0  0  0
 35 36  1  0  0  0  0
 37 38  1  0  0  0  0
 37 35  2  0  0  0  0
 39 37  1  0  0  0  0
 40 39  1  0  0  0  0
 41  1  1  0  0  0  0
 41 42  1  0  0  0  0
 42 43  1  0  0  0  0
 44 42  2  0  0  0  0
 44 45  1  0  0  0  0
 46 44  1  0  0  0  0
 47 46  1  0  0  0  0
 48 50  1  0  0  0  0
 48 46  2  0  0  0  0
 49 48  1  0  0  0  0
 50 41  2  0  0  0  0
 51 50  1  0  0  0  0
M  END
