3
q = -2.0, confidence = 0.804

 34 35  0  0  1  0  0  0  0  0999 V2000
    0.4151    1.7551    0.6178 O   0  0  0  0  0  0  0  0  0  0  0  0
   -1.0279   -0.2583   -1.9425 C   0  0  0  0  0  3  0  0  0  0  0  0
   -2.3621   -0.2495   -1.4824 C   0  0  0  0  0  3  0  0  0  0  0  0
   -2.6798    0.7001   -0.4569 C   0  0  0  0  0  3  0  0  0  0  0  0
   -2.1884    2.1256   -0.5791 C   0  0  0  0  0  0  0  0  0  0  0  0
   -1.0933    2.2311   -1.6476 C   0  0  0  0  0  0  0  0  0  0  0  0
   -0.1854    0.9865   -1.6685 C   0  0  1  0  0  0  0  0  0  0  0  0
    0.4088    0.6650   -0.2864 C   0  0  1  0  0  3  0  0  0  0  0  0
    1.7274   -0.0598   -0.2801 C   0  0  0  0  0  0  0  0  0  0  0  0
    2.3122   -0.6203   -1.4372 C   0  0  0  0  0  0  0  0  0  0  0  0
    3.5332   -1.3086   -1.3703 C   0  0  0  0  0  0  0  0  0  0  0  0
    4.2073   -1.4452   -0.1488 C   0  0  0  0  0  0  0  0  0  0  0  0
    3.6439   -0.8839    1.0103 C   0  0  0  0  0  0  0  0  0  0  0  0
    2.4244   -0.2027    0.9451 C   0  0  0  0  0  0  0  0  0  0  0  0
    1.4204    2.7517    0.3981 C   0  0  0  0  0  0  0  0  0  0  0  0
    1.0271    3.9906    1.1809 C   0  0  0  0  0  0  0  0  0  0  0  0
   -0.6984   -1.0144   -2.6714 H   0  0  0  0  0  0  0  0  0  0  0  0
   -3.0647   -1.0388   -1.7933 H   0  0  0  0  0  0  0  0  0  0  0  0
   -3.6482    0.5708    0.0537 H   0  0  0  0  0  0  0  0  0  0  0  0
   -3.0538    2.7673   -0.8592 H   0  0  0  0  0  0  0  0  0  0  0  0
   -1.8210    2.4963    0.3967 H   0  0  0  0  0  0  0  0  0  0  0  0
   -1.5559    2.3141   -2.6538 H   0  0  0  0  0  0  0  0  0  0  0  0
   -0.4921    3.1487   -1.4992 H   0  0  0  0  0  0  0  0  0  0  0  0
    0.5937    1.1256   -2.4495 H   0  0  0  0  0  0  0  0  0  0  0  0
    1.8054   -0.5397   -2.4096 H   0  0  0  0  0  0  0  0  0  0  0  0
    3.9608   -1.7423   -2.2874 H   0  0  0  0  0  0  0  0  0  0  0  0
    5.1633   -1.9874   -0.0977 H   0  0  0  0  0  0  0  0  0  0  0  0
    4.1598   -0.9838    1.9777 H   0  0  0  0  0  0  0  0  0  0  0  0
    1.9767    0.2223    1.8562 H   0  0  0  0  0  0  0  0  0  0  0  0
    1.5144    2.9779   -0.6896 H   0  0  0  0  0  0  0  0  0  0  0  0
    2.4151    2.3729    0.7274 H   0  0  0  0  0  0  0  0  0  0  0  0
    0.0748    4.4176    0.8063 H   0  0  0  0  0  0  0  0  0  0  0  0
    0.8896    3.7387    2.2514 H   0  0  0  0  0  0  0  0  0  0  0  0
    1.8132    4.7677    1.1029 H   0  0  0  0  0  0  0  0  0  0  0  0
  2  7  1  0  0  0  0
  2  3  1  0  0  0  0
  3  4  1  0  0  0  0
  4 19  1  0  0  0  0
  5  4  1  0  0  0  0
  5 21  1  0  0  0  0
  6 23  1  0  0  0  0
  6  5  1  0  0  0  0
  7 24  1  6  0  0  0
  7  6  1  0  0  0  0
  7  8  1  0  0  0  0
  8  9  1  0  0  0  0
  8  1  1  6  0  0  0
  9 14  1  0  0  0  0
 10 11  1  0  0  0  0
 10  9  2  0  0  0  0
 11 12  2  0  0  0  0
 12 27  1  0  0  0  0
 12 13  1  0  0  0  0
 13 28  1  0  0  0  0
 14 13  2  0  0  0  0
 14 29  1  0  0  0  0
 15  1  1  0  0  0  0
 15 31  1  0  0  0  0
 15 16  1  0  0  0  0
 16 33  1  0  0  0  0
 17  2  1  0  0  0  0
 18  3  1  0  0  0  0
 20  5  1  0  0  0  0
 22  6  1  0  0  0  0
 25 10  1  0  0  0  0
 26 11  1  0  0  0  0
 30 15  1  0  0  0  0
 32 16  1  0  0  0  0
 34 16  1  0  0  0  0
M  END
