7
q = 0.0, confidence = 0.908

 56 57  0  0  1  0  0  0  0  0999 V2000
    1.6202    1.5572   -0.1992 O   0  0  0  0  0  0  0  0  0  0  0  0
   -1.3688   -1.3414    0.6392 O   0  0  0  0  0  0  0  0  0  0  0  0
   -3.4546    0.3607    0.1256 O   0  0  0  0  0  0  0  0  0  0  0  0
   -2.7722   -0.4950   -1.8891 O   0  0  0  0  0  0  0  0  0  0  0  0
   -7.2674   -4.6980   -0.1682 O   0  0  0  0  0  0  0  0  0  0  0  0
   -4.5063    6.5763    0.0524 O   0  0  0  0  0  0  0  0  0  0  0  0
    1.9860    0.2851    0.0161 C   0  0  0  0  0  3  0  0  0  0  0  0
    2.5675    2.5814   -0.5426 C   0  0  0  0  0  0  0  0  0  0  0  0
    1.8913    3.9272   -0.3651 C   0  0  0  0  0  0  0  0  0  0  0  0
    0.8711   -0.5776    0.2864 C   0  0  0  0  0  0  0  0  0  0  0  0
   -0.5073   -0.3337    0.3786 C   0  0  0  0  0  0  0  0  0  0  0  0
   -0.8994   -2.6921    0.7776 C   0  0  0  0  0  0  0  0  0  0  0  0
   -2.0919   -3.5823    1.0648 C   0  0  0  0  0  0  0  0  0  0  0  0
   -1.1198    0.9652    0.2540 C   0  0  0  0  0  0  0  0  0  0  0  0
   -2.4493    1.3009    0.1827 C   0  0  2  0  0  3  0  0  0  0  0  0
   -3.4886   -0.5676   -0.9154 C   0  0  0  0  0  0  0  0  0  0  0  0
   -4.5245   -1.5941   -0.6694 C   0  0  0  0  0  0  0  0  0  0  0  0
   -4.7381   -2.5710   -1.6700 C   0  0  0  0  0  0  0  0  0  0  0  0
   -5.6602   -3.5940   -1.4757 C   0  0  0  0  0  0  0  0  0  0  0  0
   -6.3969   -3.6658   -0.2684 C   0  0  0  0  0  0  0  0  0  0  0  0
   -6.1932   -2.6918    0.7352 C   0  0  0  0  0  0  0  0  0  0  0  0
   -5.2627   -1.6669    0.5275 C   0  0  0  0  0  0  0  0  0  0  0  0
   -8.0352   -4.8317    1.0165 C   0  0  0  0  0  0  0  0  0  0  0  0
   -2.9461    2.6821    0.1748 C   0  0  0  0  0  0  0  0  0  0  0  0
   -4.3039    2.9515   -0.1383 C   0  0  0  0  0  0  0  0  0  0  0  0
   -4.7938    4.2539   -0.1729 C   0  0  0  0  0  0  0  0  0  0  0  0
   -3.9424    5.3453    0.1111 C   0  0  0  0  0  0  0  0  0  0  0  0
   -2.5898    5.0974    0.4391 C   0  0  0  0  0  0  0  0  0  0  0  0
   -2.1117    3.7850    0.4726 C   0  0  0  0  0  0  0  0  0  0  0  0
   -3.6978    7.7090    0.3218 C   0  0  0  0  0  0  0  0  0  0  0  0
    2.8865    2.4225   -1.5934 H   0  0  0  0  0  0  0  0  0  0  0  0
    3.4629    2.4790    0.1018 H   0  0  0  0  0  0  0  0  0  0  0  0
    2.5899    4.7376   -0.6520 H   0  0  0  0  0  0  0  0  0  0  0  0
    1.5963    4.0868    0.6918 H   0  0  0  0  0  0  0  0  0  0  0  0
    0.9872    4.0103   -1.0010 H   0  0  0  0  0  0  0  0  0  0  0  0
    1.1732   -1.6178    0.4421 H   0  0  0  0  0  0  0  0  0  0  0  0
   -0.1569   -2.7370    1.6053 H   0  0  0  0  0  0  0  0  0  0  0  0
   -0.3797   -2.9958   -0.1582 H   0  0  0  0  0  0  0  0  0  0  0  0
   -1.7453   -4.6216    1.2282 H   0  0  0  0  0  0  0  0  0  0  0  0
   -2.8105   -3.5806    0.2231 H   0  0  0  0  0  0  0  0  0  0  0  0
   -2.6254   -3.2449    1.9750 H   0  0  0  0  0  0  0  0  0  0  0  0
   -0.4015    1.7872    0.2090 H   0  0  0  0  0  0  0  0  0  0  0  0
   -4.1510   -2.5052   -2.5976 H   0  0  0  0  0  0  0  0  0  0  0  0
   -5.8391   -4.3634   -2.2403 H   0  0  0  0  0  0  0  0  0  0  0  0
   -6.7524   -2.7285    1.6792 H   0  0  0  0  0  0  0  0  0  0  0  0
   -5.0922   -0.9137    1.3089 H   0  0  0  0  0  0  0  0  0  0  0  0
   -8.6652   -5.7295    0.8791 H   0  0  0  0  0  0  0  0  0  0  0  0
   -8.6920   -3.9495    1.1837 H   0  0  0  0  0  0  0  0  0  0  0  0
   -7.3901   -4.9745    1.9116 H   0  0  0  0  0  0  0  0  0  0  0  0
   -4.9760    2.1118   -0.3617 H   0  0  0  0  0  0  0  0  0  0  0  0
   -5.8439    4.4636   -0.4215 H   0  0  0  0  0  0  0  0  0  0  0  0
   -1.9058    5.9219    0.6796 H   0  0  0  0  0  0  0  0  0  0  0  0
   -1.0612    3.6194    0.7504 H   0  0  0  0  0  0  0  0  0  0  0  0
   -4.3524    8.5927    0.2101 H   0  0  0  0  0  0  0  0  0  0  0  0
   -2.8514    7.7917   -0.3957 H   0  0  0  0  0  0  0  0  0  0  0  0
   -3.2902    7.6887    1.3569 H   0  0  0  0  0  0  0  0  0  0  0  0
  1  7  1  0  0  0  0
  2 12  1  0  0  0  0
  4 16  2  0  0  0  0
  5 23  1  0  0  0  0
  6 27  1  0  0  0  0
  6 30  1  0  0  0  0
  7 10  2  0  0  0  0
  8  9  1  0  0  0  0
  8  1  1  0  0  0  0
  8 32  1  0  0  0  0
  9 34  1  0  0  0  0
 10 11  1  0  0  0  0
 10 36  1  0  0  0  0
 11  2  1  0  0  0  0
 12 13  1  0  0  0  0
 12 37  1  0  0  0  0
 13 39  1  0  0  0  0
 13 41  1  0  0  0  0
 14 11  2  0  0  0  0
 15  3  1  1  0  0  0
 15 14  1  0  0  0  0
 16 17  1  0  0  0  0
 16  3  1  0  0  0  0
 17 22  1  0  0  0  0
 18 19  1  0  0  0  0
 18 17  2  0  0  0  0
 19 20  2  0  0  0  0
 20  5  1  0  0  0  0
 20 21  1  0  0  0  0
 21 45  1  0  0  0  0
 22 21  2  0  0  0  0
 22 46  1  0  0  0  0
 23 48  1  0  0  0  0
 23 49  1  0  0  0  0
 24 15  1  0  0  0  0
 24 29  1  0  0  0  0
 25 24  2  0  0  0  0
 26 25  1  0  0  0  0
 26 27  2  0  0  0  0
 27 28  1  0  0  0  0
 28 29  2  0  0  0  0
 28 52  1  0  0  0  0
 29 53  1  0  0  0  0
 30 56  1  0  0  0  0
 31  8  1  0  0  0  0
 33  9  1  0  0  0  0
 35  9  1  0  0  0  0
 38 12  1  0  0  0  0
 40 13  1  0  0  0  0
 42 14  1  0  0  0  0
 43 18  1  0  0  0  0
 44 19  1  0  0  0  0
 47 23  1  0  0  0  0
 50 25  1  0  0  0  0
 51 26  1  0  0  0  0
 54 30  1  0  0  0  0
 55 30  1  0  0  0  0
M  END
