4
q = -1.0

 17 18  0  0  0  0  0  0  0  0999 V2000
   -0.0649    3.4532    0.3660 C   0  0  0  0  0  0  0  0  0  0  0  0
    1.1970    2.9210    0.7889 C   0  0  0  0  0  3  0  0  0  0  0  0
    2.1867    3.1353    0.3710 H   0  0  0  0  0  0  0  0  0  0  0  0
    0.9032    2.0289    1.8988 C   0  0  0  0  0  3  0  0  0  0  0  0
    1.6436    1.4851    2.5001 H   0  0  0  0  0  0  0  0  0  0  0  0
   -0.5243    2.0221    2.1460 C   0  0  0  0  0  3  0  0  0  0  0  0
   -1.0234    1.5086    2.9765 H   0  0  0  0  0  0  0  0  0  0  0  0
   -1.1167    2.9265    1.1818 C   0  0  0  0  0  0  0  0  0  0  0  0
   -2.4296    3.5697    0.8237 C   0  0  0  0  0  0  0  0  0  0  0  0
   -2.6577    4.3880    1.5449 H   0  0  0  0  0  0  0  0  0  0  0  0
   -3.3016    2.8846    0.8356 H   0  0  0  0  0  0  0  0  0  0  0  0
   -2.1320    4.1324   -0.5952 C   0  0  0  0  0  0  0  0  0  0  0  0
   -2.3480    3.3445   -1.3458 H   0  0  0  0  0  0  0  0  0  0  0  0
   -2.7470    5.0199   -0.8418 H   0  0  0  0  0  0  0  0  0  0  0  0
   -0.6054    4.4155   -0.6495 C   0  0  0  0  0  0  0  0  0  0  0  0
   -0.1851    4.2524   -1.6611 H   0  0  0  0  0  0  0  0  0  0  0  0
   -0.3633    5.4548   -0.3332 H   0  0  0  0  0  0  0  0  0  0  0  0
  1  2  1  0  0  0  0
  1  8  2  0  0  0  0
  2  4  1  0  0  0  0
  3  2  1  0  0  0  0
  4  6  1  0  0  0  0
  4  5  1  0  0  0  0
  6  7  1  0  0  0  0
  8  6  1  0  0  0  0
  9 11  1  0  0  0  0
  9  8  1  0  0  0  0
  9 10  1  0  0  0  0
 12  9  1  0  0  0  0
 13 12  1  0  0  0  0
 14 12  1  0  0  0  0
 15 12  1  0  0  0  0
 15 17  1  0  0  0  0
 15  1  1  0  0  0  0
 16 15  1  0  0  0  0
M  END
