1
q = 0.0, confidence = 0.998

 31 33  0  0  0  0  0  0  0  0999 V2000
    0.1710    1.0040    0.1198 C   0  0  0  0  0  3  0  0  0  0  0  0
    1.4079    1.6746   -0.0021 C   0  0  0  0  0  0  0  0  0  0  0  0
    2.7570    1.0965    0.0074 C   0  0  0  0  0  0  0  0  0  0  0  0
    3.7685    1.5178   -0.8861 C   0  0  0  0  0  0  0  0  0  0  0  0
    3.5624    2.3070   -1.6242 H   0  0  0  0  0  0  0  0  0  0  0  0
    5.0264    0.8982   -0.8776 C   0  0  0  0  0  0  0  0  0  0  0  0
    5.8018    1.2291   -1.5850 H   0  0  0  0  0  0  0  0  0  0  0  0
    5.2878   -0.1527    0.0155 C   0  0  0  0  0  0  0  0  0  0  0  0
    6.2741   -0.6413    0.0173 H   0  0  0  0  0  0  0  0  0  0  0  0
    4.2852   -0.5804    0.9022 C   0  0  0  0  0  0  0  0  0  0  0  0
    4.4845   -1.4020    1.6067 H   0  0  0  0  0  0  0  0  0  0  0  0
    3.0271    0.0350    0.9046 C   0  0  0  0  0  0  0  0  0  0  0  0
    2.2372   -0.2897    1.6023 H   0  0  0  0  0  0  0  0  0  0  0  0
   -0.7346    2.0457    0.0172 N   0  0  0  0  0  0  0  0  0  0  0  0
   -2.1625    1.9342    0.0173 C   0  0  0  0  0  0  0  0  0  0  0  0
   -2.9129    2.7068   -0.8833 C   0  0  0  0  0  0  0  0  0  0  0  0
   -2.3985    3.4057   -1.5572 H   0  0  0  0  0  0  0  0  0  0  0  0
   -4.3072    2.5589   -0.9102 C   0  0  0  0  0  0  0  0  0  0  0  0
   -4.9028    3.1545   -1.6179 H   0  0  0  0  0  0  0  0  0  0  0  0
   -4.9369    1.6457   -0.0487 C   0  0  0  0  0  0  0  0  0  0  0  0
   -6.0304    1.5262   -0.0792 H   0  0  0  0  0  0  0  0  0  0  0  0
   -4.1715    0.8923    0.8566 C   0  0  0  0  0  0  0  0  0  0  0  0
   -4.6624    0.1904    1.5473 H   0  0  0  0  0  0  0  0  0  0  0  0
   -2.7767    1.0323    0.9023 C   0  0  0  0  0  0  0  0  0  0  0  0
   -2.1612    0.4672    1.6213 H   0  0  0  0  0  0  0  0  0  0  0  0
   -0.1889    3.2598   -0.1423 N   0  0  0  0  0  2  0  0  0  0  0  0
    1.1105    3.0144   -0.1522 N   0  0  0  0  0  0  0  0  0  0  0  0
    2.0175    4.1474   -0.2571 C   0  0  0  0  0  0  0  0  0  0  0  0
    2.2825    4.3437   -1.3144 H   0  0  0  0  0  0  0  0  0  0  0  0
    2.9364    3.9251    0.3143 H   0  0  0  0  0  0  0  0  0  0  0  0
    1.5078    5.0318    0.1637 H   0  0  0  0  0  0  0  0  0  0  0  0
  2  3  1  0  0  0  0
  2  1  2  0  0  0  0
  3 12  1  0  0  0  0
  4  6  1  0  0  0  0
  4  3  2  0  0  0  0
  5  4  1  0  0  0  0
  6  8  2  0  0  0  0
  7  6  1  0  0  0  0
  8  9  1  0  0  0  0
  8 10  1  0  0  0  0
 10 12  2  0  0  0  0
 10 11  1  0  0  0  0
 12 13  1  0  0  0  0
 14 15  1  0  0  0  0
 14  1  1  0  0  0  0
 15 24  1  0  0  0  0
 16 15  2  0  0  0  0
 17 16  1  0  0  0  0
 18 16  1  0  0  0  0
 18 20  2  0  0  0  0
 19 18  1  0  0  0  0
 20 22  1  0  0  0  0
 21 20  1  0  0  0  0
 22 24  2  0  0  0  0
 22 23  1  0  0  0  0
 24 25  1  0  0  0  0
 26 14  1  0  0  0  0
 27 26  1  0  0  0  0
 27  2  1  0  0  0  0
 28 27  1  0  0  0  0
 28 31  1  0  0  0  0
 28 30  1  0  0  0  0
 29 28  1  0  0  0  0
M  END
