1
q = 0.0, confidence = 0.994

 15 15  0  0  0  0  0  0  0  0999 V2000
   -0.9813   -0.9324    0.8471 C   0  0  0  0  0  1  0  0  0  0  0  0
   -1.9227   -1.5723    0.4673 N   0  0  0  0  0  2  0  0  0  0  0  0
   -3.1896   -1.9937    0.1636 C   0  0  0  0  0  0  0  0  0  0  0  0
   -4.2879   -1.2847    0.7540 C   0  0  0  0  0  0  0  0  0  0  0  0
   -5.5926   -1.6918    0.3844 C   0  0  0  0  0  0  0  0  0  0  0  0
   -6.4531   -1.1586    0.8175 H   0  0  0  0  0  0  0  0  0  0  0  0
   -5.7968   -2.7517   -0.5055 C   0  0  0  0  0  0  0  0  0  0  0  0
   -6.8264   -3.0407   -0.7662 H   0  0  0  0  0  0  0  0  0  0  0  0
   -4.7085   -3.4487   -1.0639 C   0  0  0  0  0  0  0  0  0  0  0  0
   -4.8761   -4.2844   -1.7583 H   0  0  0  0  0  0  0  0  0  0  0  0
   -3.4065   -3.0657   -0.7260 C   0  0  0  0  0  0  0  0  0  0  0  0
   -2.5253   -3.5759   -1.1415 H   0  0  0  0  0  0  0  0  0  0  0  0
   -4.0597   -0.2787    1.6548 N   0  0  0  0  0  0  0  0  0  0  0  0
   -3.1244    0.1284    1.7111 H   0  0  0  0  0  0  0  0  0  0  0  0
   -4.8159    0.3789    1.8358 H   0  0  0  0  0  0  0  0  0  0  0  0
  2  1  1  0  0  0  0
  3  2  1  0  0  0  0
  3  4  1  0  0  0  0
  4 13  1  0  0  0  0
  5  4  2  0  0  0  0
  5  6  1  0  0  0  0
  7  5  1  0  0  0  0
  8  7  1  0  0  0  0
  9 11  1  0  0  0  0
  9  7  2  0  0  0  0
 10  9  1  0  0  0  0
 11  3  2  0  0  0  0
 12 11  1  0  0  0  0
 13 14  1  0  0  0  0
 13 15  1  0  0  0  0
M  END
