5
q = 0.0, confidence = 0.96

 37 40  0  0  1  0  0  0  0  0999 V2000
   -4.7386    2.7821    0.8379 O   0  0  0  0  0  0  0  0  0  0  0  0
   -5.0951   -1.7382    1.6148 O   0  0  0  0  0  0  0  0  0  0  0  0
   -5.2070    0.5306    1.1587 N   0  0  0  0  0  0  0  0  0  0  0  0
   -0.7268   -0.5456    1.3015 C   0  0  0  0  0  3  0  0  0  0  0  0
   -0.6185    0.8905    1.0748 C   0  0  0  0  0  3  0  0  0  0  0  0
   -1.9203    1.4812    0.5158 C   0  0  2  0  0  0  0  0  0  0  0  0
   -1.8511    2.5680    0.3281 H   0  0  0  0  0  0  0  0  0  0  0  0
   -2.9962    1.2274    1.6348 C   0  0  2  0  0  0  0  0  0  0  0  0
   -2.7161    1.8022    2.5405 H   0  0  0  0  0  0  0  0  0  0  0  0
   -3.1137   -0.2909    1.8942 C   0  0  2  0  0  0  0  0  0  0  0  0
   -2.8965   -0.5701    2.9452 H   0  0  0  0  0  0  0  0  0  0  0  0
   -2.1281   -1.0638    0.9422 C   0  0  1  0  0  0  0  0  0  0  0  0
   -2.2516   -2.1483    1.1175 H   0  0  0  0  0  0  0  0  0  0  0  0
   -2.5347   -0.6702   -0.4571 C   0  0  0  0  0  0  0  0  0  0  0  0
   -3.0960   -1.5362   -1.4189 C   0  0  0  0  0  0  0  0  0  0  0  0
   -3.4974   -0.9623   -2.6409 C   0  0  0  0  0  0  0  0  0  0  0  0
   -3.9303   -1.6104   -3.4196 H   0  0  0  0  0  0  0  0  0  0  0  0
   -3.3755    0.4133   -2.8788 C   0  0  0  0  0  0  0  0  0  0  0  0
   -3.7093    0.8266   -3.8438 H   0  0  0  0  0  0  0  0  0  0  0  0
   -2.8485    1.2881   -1.9092 C   0  0  0  0  0  0  0  0  0  0  0  0
   -2.4171    0.7179   -0.6931 C   0  0  0  0  0  0  0  0  0  0  0  0
   -3.3231   -3.0006   -1.1330 C   0  0  0  0  0  0  0  0  0  0  0  0
   -2.3932   -3.5209   -0.8220 H   0  0  0  0  0  0  0  0  0  0  0  0
   -3.7165   -3.5252   -2.0252 H   0  0  0  0  0  0  0  0  0  0  0  0
   -4.0528   -3.1315   -0.3058 H   0  0  0  0  0  0  0  0  0  0  0  0
   -2.7789    2.7731   -2.1594 C   0  0  0  0  0  0  0  0  0  0  0  0
   -3.3274    3.3386   -1.3774 H   0  0  0  0  0  0  0  0  0  0  0  0
   -3.2186    3.0323   -3.1417 H   0  0  0  0  0  0  0  0  0  0  0  0
   -1.7305    3.1405   -2.1643 H   0  0  0  0  0  0  0  0  0  0  0  0
   -4.3816    1.6640    1.1745 C   0  0  0  0  0  0  0  0  0  0  0  0
   -4.5622   -0.6396    1.5714 C   0  0  0  0  0  0  0  0  0  0  0  0
   -6.5658    0.5471    0.6616 C   0  0  0  0  0  0  0  0  0  0  0  0
   -6.8888    1.6027    0.5985 H   0  0  0  0  0  0  0  0  0  0  0  0
   -7.2220   -0.0297    1.3407 H   0  0  0  0  0  0  0  0  0  0  0  0
   -6.6128    0.0869   -0.3468 H   0  0  0  0  0  0  0  0  0  0  0  0
   -0.4015   -0.9310    2.2867 H   0  0  0  0  0  0  0  0  0  0  0  0
   -0.1783    1.5100    1.8811 H   0  0  0  0  0  0  0  0  0  0  0  0
  1 30  2  0  0  0  0
  3 30  1  0  0  0  0
  3 31  1  0  0  0  0
  4 36  1  0  0  0  0
  5  4  1  0  0  0  0
  5 37  1  0  0  0  0
  6  7  1  6  0  0  0
  6  5  1  0  0  0  0
  6  8  1  0  0  0  0
  8 10  1  0  0  0  0
  8  9  1  1  0  0  0
 10 11  1  1  0  0  0
 12 13  1  1  0  0  0
 12  4  1  0  0  0  0
 12 10  1  0  0  0  0
 14 12  1  0  0  0  0
 15 22  1  0  0  0  0
 15 14  2  0  0  0  0
 16 15  1  0  0  0  0
 17 16  1  0  0  0  0
 18 16  2  0  0  0  0
 18 20  1  0  0  0  0
 19 18  1  0  0  0  0
 20 21  2  0  0  0  0
 21 14  1  0  0  0  0
 21  6  1  0  0  0  0
 22 23  1  0  0  0  0
 22 25  1  0  0  0  0
 24 22  1  0  0  0  0
 26 20  1  0  0  0  0
 26 27  1  0  0  0  0
 28 26  1  0  0  0  0
 29 26  1  0  0  0  0
 30  8  1  0  0  0  0
 31  2  2  0  0  0  0
 31 10  1  0  0  0  0
 32  3  1  0  0  0  0
 32 34  1  0  0  0  0
 33 32  1  0  0  0  0
 35 32  1  0  0  0  0
M  END
