3
q = 0.0, confidence = 0.994

 31 32  0  0  0  0  0  0  0  0999 V2000
    1.1935   -1.8556   -0.0800 N   0  0  0  0  0  0  0  0  0  0  0  0
   -0.6072   -1.0875   -0.9940 N   0  0  0  0  0  0  0  0  0  0  0  0
    0.6031   -0.6946   -0.4934 C   0  0  0  0  0  2  0  0  0  0  0  0
    0.3640   -2.9469   -0.3000 C   0  0  0  0  0  0  0  0  0  0  0  0
    0.6475   -3.9715   -0.0441 H   0  0  0  0  0  0  0  0  0  0  0  0
   -0.7798   -2.4586   -0.8786 C   0  0  0  0  0  0  0  0  0  0  0  0
   -1.6894   -2.9672   -1.2116 H   0  0  0  0  0  0  0  0  0  0  0  0
   -1.6264   -0.1617   -1.4968 C   0  0  0  0  0  0  0  0  0  0  0  0
   -2.0027   -0.5463   -2.4655 H   0  0  0  0  0  0  0  0  0  0  0  0
   -1.0991    0.7948   -1.6879 H   0  0  0  0  0  0  0  0  0  0  0  0
    2.5040   -1.8944    0.6004 C   0  0  0  0  0  0  0  0  0  0  0  0
    2.9676   -0.9199    0.3378 H   0  0  0  0  0  0  0  0  0  0  0  0
    3.3773   -3.0246    0.0581 C   0  0  0  0  0  0  0  0  0  0  0  0
    3.4676   -2.9688   -1.0444 H   0  0  0  0  0  0  0  0  0  0  0  0
    2.9801   -4.0243    0.3301 H   0  0  0  0  0  0  0  0  0  0  0  0
    4.3931   -2.9473    0.4917 H   0  0  0  0  0  0  0  0  0  0  0  0
    2.3089   -1.9478    2.1173 C   0  0  0  0  0  0  0  0  0  0  0  0
    1.6996   -1.0876    2.4582 H   0  0  0  0  0  0  0  0  0  0  0  0
    3.2895   -1.9022    2.6303 H   0  0  0  0  0  0  0  0  0  0  0  0
    1.8014   -2.8853    2.4251 H   0  0  0  0  0  0  0  0  0  0  0  0
   -2.7651    0.0311   -0.5173 C   0  0  0  0  0  0  0  0  0  0  0  0
   -4.0593   -0.4314   -0.8169 C   0  0  0  0  0  0  0  0  0  0  0  0
   -4.2506   -0.9244   -1.7839 H   0  0  0  0  0  0  0  0  0  0  0  0
   -5.1077   -0.2610    0.1017 C   0  0  0  0  0  0  0  0  0  0  0  0
   -6.1170   -0.6237   -0.1451 H   0  0  0  0  0  0  0  0  0  0  0  0
   -4.8664    0.3719    1.3299 C   0  0  0  0  0  0  0  0  0  0  0  0
   -5.6868    0.5078    2.0509 H   0  0  0  0  0  0  0  0  0  0  0  0
   -3.5758    0.8370    1.6357 C   0  0  0  0  0  0  0  0  0  0  0  0
   -3.3836    1.3416    2.5946 H   0  0  0  0  0  0  0  0  0  0  0  0
   -2.5306    0.6686    0.7180 C   0  0  0  0  0  0  0  0  0  0  0  0
   -1.5186    1.0363    0.9556 H   0  0  0  0  0  0  0  0  0  0  0  0
  1 11  1  0  0  0  0
  2  6  1  0  0  0  0
  2  3  1  0  0  0  0
  3  1  1  0  0  0  0
  4  1  1  0  0  0  0
  4  5  1  0  0  0  0
  6  4  2  0  0  0  0
  7  6  1  0  0  0  0
  8  2  1  0  0  0  0
  8 21  1  0  0  0  0
  9  8  1  0  0  0  0
 10  8  1  0  0  0  0
 11 17  1  0  0  0  0
 12 11  1  0  0  0  0
 13 15  1  0  0  0  0
 13 16  1  0  0  0  0
 13 11  1  0  0  0  0
 14 13  1  0  0  0  0
 17 20  1  0  0  0  0
 17 18  1  0  0  0  0
 17 19  1  0  0  0  0
 21 30  1  0  0  0  0
 22 21  2  0  0  0  0
 22 24  1  0  0  0  0
 23 22  1  0  0  0  0
 24 26  2  0  0  0  0
 25 24  1  0  0  0  0
 26 28  1  0  0  0  0
 26 27  1  0  0  0  0
 28 29  1  0  0  0  0
 30 31  1  0  0  0  0
 30 28  2  0  0  0  0
M  END
