69
q = -1.0

 72 77  0  0  0  0  0  0  0  0999 V2000
    1.6445    1.7320    1.2581 O   0  0  0  0  0  0  0  0  0  0  0  0
   -0.0447   -3.3622   -1.7292 O   0  0  0  0  0  0  0  0  0  0  0  0
   -2.6414    1.3869    3.3523 N   0  0  0  0  0  0  0  0  0  0  0  0
   -3.5003    0.8354    3.3071 H   0  0  0  0  0  0  0  0  0  0  0  0
    5.9177    2.5259   -0.7343 N   0  0  0  0  0  0  0  0  0  0  0  0
    6.5810    2.2003   -1.4368 H   0  0  0  0  0  0  0  0  0  0  0  0
    0.9065   -1.4391   -0.7573 N   0  0  0  0  0  0  0  0  0  0  0  0
    0.0413   -0.4809   -1.1206 N   0  0  0  0  0  0  0  0  0  0  0  0
    0.6478    0.8977    1.6997 C   0  0  0  0  0  0  0  0  0  0  0  0
   -0.4332    1.5343    2.3304 C   0  0  0  0  0  0  0  0  0  0  0  0
   -0.3902    2.6250    2.4395 H   0  0  0  0  0  0  0  0  0  0  0  0
   -1.5437    0.7837    2.7699 C   0  0  0  0  0  0  0  0  0  0  0  0
   -1.5282   -0.6422    2.6127 C   0  0  0  0  0  0  0  0  0  0  0  0
   -0.4280   -1.2300    1.9892 C   0  0  0  0  0  0  0  0  0  0  0  0
   -0.4437   -2.3187    1.8232 H   0  0  0  0  0  0  0  0  0  0  0  0
    0.6710   -0.4917    1.5010 C   0  0  0  0  0  0  0  0  0  0  0  0
    1.6616   -1.1150    0.5382 C   0  0  0  0  0  0  0  0  0  0  0  0
    2.7996   -0.1622    0.2500 C   0  0  0  0  0  0  0  0  0  0  0  0
    3.9518   -0.5811   -0.4485 C   0  0  0  0  0  0  0  0  0  0  0  0
    4.0296   -1.6428   -0.7328 H   0  0  0  0  0  0  0  0  0  0  0  0
    4.9931    0.2804   -0.7951 C   0  0  0  0  0  0  0  0  0  0  0  0
    4.8848    1.6631   -0.4279 C   0  0  0  0  0  0  0  0  0  0  0  0
    3.7363    2.1033    0.2609 C   0  0  0  0  0  0  0  0  0  0  0  0
    3.6033    3.1510    0.5574 H   0  0  0  0  0  0  0  0  0  0  0  0
    2.7146    1.1980    0.5916 C   0  0  0  0  0  0  0  0  0  0  0  0
   -2.8533    2.8202    3.3046 C   0  0  0  0  0  0  0  0  0  0  0  0
   -2.7935    3.2016    2.2536 H   0  0  0  0  0  0  0  0  0  0  0  0
   -2.0334    3.3266    3.8610 H   0  0  0  0  0  0  0  0  0  0  0  0
   -4.2008    3.1895    3.9131 C   0  0  0  0  0  0  0  0  0  0  0  0
   -5.0289    2.7321    3.3340 H   0  0  0  0  0  0  0  0  0  0  0  0
   -4.3481    4.2869    3.9052 H   0  0  0  0  0  0  0  0  0  0  0  0
   -4.2716    2.8381    4.9624 H   0  0  0  0  0  0  0  0  0  0  0  0
   -2.7044   -1.4594    3.0743 C   0  0  0  0  0  0  0  0  0  0  0  0
   -3.6348   -1.1862    2.5272 H   0  0  0  0  0  0  0  0  0  0  0  0
   -2.9104   -1.3121    4.1570 H   0  0  0  0  0  0  0  0  0  0  0  0
   -2.5349   -2.5378    2.8984 H   0  0  0  0  0  0  0  0  0  0  0  0
    6.2149   -0.2084   -1.5259 C   0  0  0  0  0  0  0  0  0  0  0  0
    6.1616   -1.2977   -1.7115 H   0  0  0  0  0  0  0  0  0  0  0  0
    7.1466   -0.0095   -0.9511 H   0  0  0  0  0  0  0  0  0  0  0  0
    6.3376    0.2854   -2.5173 H   0  0  0  0  0  0  0  0  0  0  0  0
    5.8467    3.9588   -0.5419 C   0  0  0  0  0  0  0  0  0  0  0  0
    5.6564    4.1713    0.5341 H   0  0  0  0  0  0  0  0  0  0  0  0
    4.9822    4.4017   -1.0969 H   0  0  0  0  0  0  0  0  0  0  0  0
    7.1445    4.6306   -0.9747 C   0  0  0  0  0  0  0  0  0  0  0  0
    7.3416    4.4644   -2.0549 H   0  0  0  0  0  0  0  0  0  0  0  0
    8.0075    4.2334   -0.4028 H   0  0  0  0  0  0  0  0  0  0  0  0
    7.0953    5.7243   -0.8107 H   0  0  0  0  0  0  0  0  0  0  0  0
    2.1231   -2.5009    0.9452 C   0  0  0  0  0  0  0  0  0  0  0  0
    2.9548   -2.8708    2.0063 C   0  0  0  0  0  0  0  0  0  0  0  0
    3.3865   -2.1078    2.6711 H   0  0  0  0  0  0  0  0  0  0  0  0
    3.2130   -4.2387    2.2016 C   0  0  0  0  0  0  0  0  0  0  0  0
    3.8597   -4.5545    3.0345 H   0  0  0  0  0  0  0  0  0  0  0  0
    2.6520   -5.2156    1.3520 C   0  0  0  0  0  0  0  0  0  0  0  0
    2.8693   -6.2795    1.5310 H   0  0  0  0  0  0  0  0  0  0  0  0
    1.8203   -4.8406    0.2869 C   0  0  0  0  0  0  0  0  0  0  0  0
    1.3637   -5.5799   -0.3881 H   0  0  0  0  0  0  0  0  0  0  0  0
    1.5749   -3.4732    0.0963 C   0  0  0  0  0  0  0  0  0  0  0  0
    0.7196   -2.8325   -0.9342 C   0  0  0  0  0  0  0  0  0  0  0  0
   -0.5693   -0.4153   -2.2641 C   0  0  0  0  0  0  0  0  0  0  0  0
   -0.3110   -1.2035   -3.5169 C   0  0  0  0  0  0  0  0  0  0  0  0
   -1.0290   -2.0387   -3.6325 H   0  0  0  0  0  0  0  0  0  0  0  0
    0.6986   -1.6507   -3.4897 H   0  0  0  0  0  0  0  0  0  0  0  0
   -0.3920   -0.5381   -4.4009 H   0  0  0  0  0  0  0  0  0  0  0  0
   -1.6178    0.6338   -2.2732 C   0  0  0  0  0  0  0  0  0  0  0  0
   -2.6145    0.8617   -3.2802 C   0  0  0  0  0  0  0  0  0  0  0  0
   -2.7394    0.2869   -4.2047 H   0  0  0  0  0  0  0  0  0  0  0  0
   -3.4220    1.9797   -2.8655 C   0  0  0  0  0  0  0  0  0  0  0  0
   -4.2633    2.4072   -3.4234 H   0  0  0  0  0  0  0  0  0  0  0  0
   -2.9258    2.4326   -1.6040 C   0  0  0  0  0  3  0  0  0  0  0  0
   -3.3259    3.2717   -1.0218 H   0  0  0  0  0  0  0  0  0  0  0  0
   -1.8272    1.5962   -1.2192 C   0  0  0  0  0  0  0  0  0  0  0  0
   -1.2301    1.6543   -0.3022 H   0  0  0  0  0  0  0  0  0  0  0  0
  1  9  1  0  0  0  0
  2 58  2  0  0  0  0
  4  3  1  0  0  0  0
  5 41  1  0  0  0  0
  5 22  1  0  0  0  0
  6  5  1  0  0  0  0
  7 17  1  0  0  0  0
  8  7  1  0  0  0  0
  9 10  1  0  0  0  0
 10 11  1  0  0  0  0
 10 12  2  0  0  0  0
 12  3  1  0  0  0  0
 13 12  1  0  0  0  0
 13 33  1  0  0  0  0
 14 13  2  0  0  0  0
 15 14  1  0  0  0  0
 16  9  2  0  0  0  0
 16 14  1  0  0  0  0
 17 48  1  0  0  0  0
 17 16  1  0  0  0  0
 18 17  1  0  0  0  0
 18 25  1  0  0  0  0
 19 18  2  0  0  0  0
 20 19  1  0  0  0  0
 21 19  1  0  0  0  0
 21 22  2  0  0  0  0
 22 23  1  0  0  0  0
 23 24  1  0  0  0  0
 23 25  2  0  0  0  0
 25  1  1  0  0  0  0
 26  3  1  0  0  0  0
 26 28  1  0  0  0  0
 26 29  1  0  0  0  0
 27 26  1  0  0  0  0
 29 32  1  0  0  0  0
 30 29  1  0  0  0  0
 31 29  1  0  0  0  0
 33 35  1  0  0  0  0
 34 33  1  0  0  0  0
 36 33  1  0  0  0  0
 37 39  1  0  0  0  0
 37 21  1  0  0  0  0
 38 37  1  0  0  0  0
 40 37  1  0  0  0  0
 41 42  1  0  0  0  0
 43 41  1  0  0  0  0
 44 47  1  0  0  0  0
 44 41  1  0  0  0  0
 44 46  1  0  0  0  0
 45 44  1  0  0  0  0
 48 49  1  0  0  0  0
 49 51  2  0  0  0  0
 49 50  1  0  0  0  0
 51 52  1  0  0  0  0
 53 54  1  0  0  0  0
 53 51  1  0  0  0  0
 55 53  2  0  0  0  0
 56 55  1  0  0  0  0
 57 55  1  0  0  0  0
 57 48  2  0  0  0  0
 58  7  1  0  0  0  0
 58 57  1  0  0  0  0
 59  8  2  0  0  0  0
 60 62  1  0  0  0  0
 60 59  1  0  0  0  0
 61 60  1  0  0  0  0
 63 60  1  0  0  0  0
 64 59  1  0  0  0  0
 64 71  2  0  0  0  0
 65 67  2  0  0  0  0
 65 64  1  0  0  0  0
 66 65  1  0  0  0  0
 67 69  1  0  0  0  0
 68 67  1  0  0  0  0
 69 71  1  0  0  0  0
 69 70  1  0  0  0  0
 71 72  1  0  0  0  0
M  END
