8
q = -1.0, confidence = 0.0

 37 38  0  0  0  0  0  0  0  0999 V2000
   -3.6880    3.5097   -0.0894 O   0  0  0  0  0  0  0  0  0  0  0  0
   -4.7921    1.0948   -0.2405 O   0  0  0  0  0  0  0  0  0  0  0  0
   -3.3029   -1.1696   -0.3460 O   0  0  0  0  0  0  0  0  0  0  0  0
    0.8338    1.5253   -0.5929 C   0  0  0  0  0  0  0  0  0  0  0  0
    1.3063    0.7304   -1.1943 H   0  0  0  0  0  0  0  0  0  0  0  0
    1.6194    2.4389    0.0432 C   0  0  0  0  0  0  0  0  0  0  0  0
    1.1405    3.1986    0.6870 H   0  0  0  0  0  0  0  0  0  0  0  0
   -1.2116    0.1317   -0.5195 C   0  0  0  0  0  3  0  0  0  0  0  0
   -0.6287    1.4264   -0.5231 C   0  0  0  0  0  0  0  0  0  0  0  0
   -1.4344    2.5818   -0.3739 C   0  0  0  0  0  0  0  0  0  0  0  0
   -0.9512    3.5676   -0.3915 H   0  0  0  0  0  0  0  0  0  0  0  0
   -2.8248    2.4636   -0.2331 C   0  0  0  0  0  0  0  0  0  0  0  0
   -3.4276    1.1769   -0.2710 C   0  0  0  0  0  0  0  0  0  0  0  0
   -2.6136    0.0227   -0.4033 C   0  0  0  0  0  0  0  0  0  0  0  0
   -3.1461    4.8126   -0.1035 C   0  0  0  0  0  0  0  0  0  0  0  0
   -2.4264    4.9770    0.7316 H   0  0  0  0  0  0  0  0  0  0  0  0
   -3.9974    5.5091    0.0150 H   0  0  0  0  0  0  0  0  0  0  0  0
   -2.6256    5.0383   -1.0621 H   0  0  0  0  0  0  0  0  0  0  0  0
   -5.3549    0.5989    0.9653 C   0  0  0  0  0  0  0  0  0  0  0  0
   -6.4550    0.6534    0.8516 H   0  0  0  0  0  0  0  0  0  0  0  0
   -5.0559    1.2230    1.8388 H   0  0  0  0  0  0  0  0  0  0  0  0
   -5.0622   -0.4573    1.1526 H   0  0  0  0  0  0  0  0  0  0  0  0
   -2.9021   -2.2123   -1.2282 C   0  0  0  0  0  0  0  0  0  0  0  0
   -3.7215   -2.9572   -1.2219 H   0  0  0  0  0  0  0  0  0  0  0  0
   -1.9509   -2.6933   -0.8973 H   0  0  0  0  0  0  0  0  0  0  0  0
   -2.7401   -1.8311   -2.2579 H   0  0  0  0  0  0  0  0  0  0  0  0
    3.0837    2.4739    0.0073 C   0  0  0  0  0  0  0  0  0  0  0  0
    3.8557    1.6002   -0.8032 C   0  0  0  0  0  0  0  0  0  0  0  0
    3.3477    0.8862   -1.4689 H   0  0  0  0  0  0  0  0  0  0  0  0
    5.2536    1.6432   -0.7795 C   0  0  0  0  0  0  0  0  0  0  0  0
    5.8280    0.9569   -1.4213 H   0  0  0  0  0  0  0  0  0  0  0  0
    5.9283    2.5610    0.0464 C   0  0  0  0  0  0  0  0  0  0  0  0
    7.0282    2.5940    0.0585 H   0  0  0  0  0  0  0  0  0  0  0  0
    5.1821    3.4397    0.8473 C   0  0  0  0  0  0  0  0  0  0  0  0
    5.6959    4.1679    1.4939 H   0  0  0  0  0  0  0  0  0  0  0  0
    3.7816    3.3956    0.8263 C   0  0  0  0  0  0  0  0  0  0  0  0
    3.2023    4.0871    1.4592 H   0  0  0  0  0  0  0  0  0  0  0  0
  2 19  1  0  0  0  0
  4  9  1  0  0  0  0
  4  6  2  0  0  0  0
  5  4  1  0  0  0  0
  6  7  1  0  0  0  0
  8 14  1  0  0  0  0
  9  8  2  0  0  0  0
  9 10  1  0  0  0  0
 10 12  2  0  0  0  0
 11 10  1  0  0  0  0
 12  1  1  0  0  0  0
 13  2  1  0  0  0  0
 13 12  1  0  0  0  0
 14  3  1  0  0  0  0
 14 13  2  0  0  0  0
 15  1  1  0  0  0  0
 15 17  1  0  0  0  0
 15 16  1  0  0  0  0
 18 15  1  0  0  0  0
 19 22  1  0  0  0  0
 19 21  1  0  0  0  0
 20 19  1  0  0  0  0
 23 24  1  0  0  0  0
 23 25  1  0  0  0  0
 23  3  1  0  0  0  0
 26 23  1  0  0  0  0
 27  6  1  0  0  0  0
 27 36  1  0  0  0  0
 28 30  1  0  0  0  0
 28 27  2  0  0  0  0
 29 28  1  0  0  0  0
 30 32  2  0  0  0  0
 31 30  1  0  0  0  0
 32 33  1  0  0  0  0
 32 34  1  0  0  0  0
 34 35  1  0  0  0  0
 36 34  2  0  0  0  0
 36 37  1  0  0  0  0
M  END
