3
q = -1.0

 29 30  0  0  1  0  0  0  0  0999 V2000
   -0.8961    1.4080   -0.0964 O   0  0  0  0  0  0  0  0  0  0  0  0
   -3.4749    2.0341   -0.4385 O   0  0  0  0  0  0  0  0  0  0  0  0
    1.3038   -1.3183    1.1457 C   0  0  0  0  0  3  0  0  0  0  0  0
    2.4399   -1.0775    1.9698 C   0  0  0  0  0  3  0  0  0  0  0  0
    2.5270    0.3413    2.2127 C   0  0  0  0  0  0  0  0  0  0  0  0
    1.4463    0.9701    1.5343 C   0  0  0  0  0  0  0  0  0  0  0  0
    0.6677   -0.0478    0.8719 C   0  0  1  0  0  3  0  0  0  0  0  0
   -0.5094    0.2402    0.0194 C   0  0  0  0  0  0  0  0  0  0  0  0
   -1.1724   -0.9187   -0.6975 C   0  0  0  0  0  0  0  0  0  0  0  0
   -2.4597   -0.5540   -1.4519 C   0  0  0  0  0  0  0  0  0  0  0  0
   -3.6915   -0.3906   -0.5849 C   0  0  0  0  0  0  0  0  0  0  0  0
   -4.4529   -1.5216   -0.2273 C   0  0  0  0  0  0  0  0  0  0  0  0
   -5.6343   -1.4166    0.5185 C   0  0  0  0  0  0  0  0  0  0  0  0
   -6.0818   -0.1434    0.9114 C   0  0  0  0  0  0  0  0  0  0  0  0
   -5.3412    0.9951    0.5799 C   0  0  0  0  0  0  0  0  0  0  0  0
   -4.1369    0.8898   -0.1518 C   0  0  0  0  0  0  0  0  0  0  0  0
    0.9679   -2.2991    0.7896 H   0  0  0  0  0  0  0  0  0  0  0  0
    3.1298   -1.8397    2.3510 H   0  0  0  0  0  0  0  0  0  0  0  0
   -2.5032    1.8385   -0.5208 H   0  0  0  0  0  0  0  0  0  0  0  0
    3.2972    0.8455    2.8079 H   0  0  0  0  0  0  0  0  0  0  0  0
    1.2103    2.0400    1.5038 H   0  0  0  0  0  0  0  0  0  0  0  0
   -0.4125   -1.3334   -1.3985 H   0  0  0  0  0  0  0  0  0  0  0  0
   -1.3658   -1.7303    0.0373 H   0  0  0  0  0  0  0  0  0  0  0  0
   -2.6550   -1.3595   -2.1879 H   0  0  0  0  0  0  0  0  0  0  0  0
   -2.2824    0.3701   -2.0404 H   0  0  0  0  0  0  0  0  0  0  0  0
   -4.1130   -2.5134   -0.5705 H   0  0  0  0  0  0  0  0  0  0  0  0
   -6.2101   -2.3177    0.7765 H   0  0  0  0  0  0  0  0  0  0  0  0
   -7.0147   -0.0369    1.4863 H   0  0  0  0  0  0  0  0  0  0  0  0
   -5.6646    2.0010    0.8855 H   0  0  0  0  0  0  0  0  0  0  0  0
  1  8  2  0  0  0  0
  2 16  1  0  0  0  0
  3  4  1  0  0  0  0
  4  5  1  0  0  0  0
  4 18  1  0  0  0  0
  5 20  1  0  0  0  0
  6  5  2  0  0  0  0
  7  8  1  6  0  0  0
  7  3  1  0  0  0  0
  7  6  1  0  0  0  0
  9  8  1  0  0  0  0
  9 23  1  0  0  0  0
 10  9  1  0  0  0  0
 10 11  1  0  0  0  0
 11 12  2  0  0  0  0
 11 16  1  0  0  0  0
 12 13  1  0  0  0  0
 13 27  1  0  0  0  0
 13 14  2  0  0  0  0
 14 28  1  0  0  0  0
 15 29  1  0  0  0  0
 15 14  1  0  0  0  0
 16 15  2  0  0  0  0
 17  3  1  0  0  0  0
 19  2  1  0  0  0  0
 21  6  1  0  0  0  0
 22  9  1  0  0  0  0
 24 10  1  0  0  0  0
 25 10  1  0  0  0  0
 26 12  1  0  0  0  0
M  END
