3
q = -1.0, confidence = 0.0

 43 44  0  0  1  0  0  0  0  0999 V2000
   -0.5025    2.4492   -0.6028 S   0  0  0  0  0  0  0  0  0  0  0  0
   -0.9831    0.7625    1.6001 C   0  0  0  0  0  3  0  0  0  0  0  0
   -0.5502    0.8324    0.2303 C   0  0  1  0  0  3  0  0  0  0  0  0
   -0.1709   -0.3888   -0.4486 C   0  0  1  0  0  3  0  0  0  0  0  0
    0.0966   -0.3490   -1.9395 C   0  0  0  0  0  0  0  0  0  0  0  0
    0.5835   -1.4775    0.3122 C   0  0  0  0  0  0  0  0  0  0  0  0
    2.1258   -1.3027    0.3802 C   0  0  2  0  0  0  0  0  0  0  0  0
    2.6960   -2.4514    1.2908 C   0  0  0  0  0  0  0  0  0  0  0  0
    3.7626   -1.8535    2.2083 C   0  0  0  0  0  0  0  0  0  0  0  0
    3.9970   -0.4296    1.6927 C   0  0  0  0  0  0  0  0  0  0  0  0
    2.6499   -0.0294    1.0619 C   0  0  0  0  0  0  0  0  0  0  0  0
    2.7962   -1.4729   -0.9879 C   0  0  0  0  0  0  0  0  0  0  0  0
    2.9259   -2.8429   -2.9008 C   0  0  0  0  0  0  0  0  0  0  0  0
    1.2045    2.9048   -0.2720 C   0  0  0  0  0  0  0  0  0  0  0  0
    2.1621    2.8132   -1.3004 C   0  0  0  0  0  0  0  0  0  0  0  0
    3.5028    3.1363   -1.0403 C   0  0  0  0  0  0  0  0  0  0  0  0
    3.8901    3.5526    0.2432 C   0  0  0  0  0  0  0  0  0  0  0  0
    2.9316    3.6609    1.2654 C   0  0  0  0  0  0  0  0  0  0  0  0
    1.5894    3.3458    1.0094 C   0  0  0  0  0  0  0  0  0  0  0  0
    2.3079   -3.5986    1.2819 O   0  0  0  0  0  0  0  0  0  0  0  0
    3.6378   -0.7272   -1.4617 O   0  0  0  0  0  0  0  0  0  0  0  0
    2.3588   -2.5897   -1.6116 O   0  0  0  0  0  0  0  0  0  0  0  0
   -1.3485    1.6974    2.0538 H   0  0  0  0  0  0  0  0  0  0  0  0
   -0.4919    0.0785    2.3085 H   0  0  0  0  0  0  0  0  0  0  0  0
   -0.5855    0.3483   -2.4582 H   0  0  0  0  0  0  0  0  0  0  0  0
    1.1324   -0.0046   -2.1476 H   0  0  0  0  0  0  0  0  0  0  0  0
   -0.0136   -1.3615   -2.3734 H   0  0  0  0  0  0  0  0  0  0  0  0
    0.2131   -1.5430    1.3521 H   0  0  0  0  0  0  0  0  0  0  0  0
    0.3965   -2.4682   -0.1438 H   0  0  0  0  0  0  0  0  0  0  0  0
    4.6514   -2.5143    2.2464 H   0  0  0  0  0  0  0  0  0  0  0  0
    3.3278   -1.8560    3.2331 H   0  0  0  0  0  0  0  0  0  0  0  0
    4.7787   -0.4262    0.9067 H   0  0  0  0  0  0  0  0  0  0  0  0
    4.3177    0.2757    2.4838 H   0  0  0  0  0  0  0  0  0  0  0  0
    1.9308    0.2796    1.8481 H   0  0  0  0  0  0  0  0  0  0  0  0
    2.7533    0.8080    0.3521 H   0  0  0  0  0  0  0  0  0  0  0  0
    2.5364   -3.8262   -3.2179 H   0  0  0  0  0  0  0  0  0  0  0  0
    2.6200   -2.0574   -3.6223 H   0  0  0  0  0  0  0  0  0  0  0  0
    4.0328   -2.8563   -2.8503 H   0  0  0  0  0  0  0  0  0  0  0  0
    1.8521    2.4673   -2.2971 H   0  0  0  0  0  0  0  0  0  0  0  0
    4.2510    3.0413   -1.8412 H   0  0  0  0  0  0  0  0  0  0  0  0
    4.9437    3.7946    0.4487 H   0  0  0  0  0  0  0  0  0  0  0  0
    3.2323    3.9952    2.2702 H   0  0  0  0  0  0  0  0  0  0  0  0
    0.8315    3.4257    1.8025 H   0  0  0  0  0  0  0  0  0  0  0  0
  1 14  1  0  0  0  0
  2 23  1  0  0  0  0
  2 24  1  0  0  0  0
  3  1  1  6  0  0  0
  3  2  1  0  0  0  0
  4  5  1  6  0  0  0
  4  3  1  0  0  0  0
  4  6  1  0  0  0  0
  6  7  1  0  0  0  0
  6 28  1  0  0  0  0
  7 12  1  6  0  0  0
  7 11  1  0  0  0  0
  7  8  1  0  0  0  0
  8  9  1  0  0  0  0
  9 30  1  0  0  0  0
  9 31  1  0  0  0  0
 10  9  1  0  0  0  0
 10 33  1  0  0  0  0
 11 10  1  0  0  0  0
 11 34  1  0  0  0  0
 13 38  1  0  0  0  0
 13 22  1  0  0  0  0
 14 19  1  0  0  0  0
 15 16  1  0  0  0  0
 15 14  2  0  0  0  0
 16 17  2  0  0  0  0
 17 41  1  0  0  0  0
 17 18  1  0  0  0  0
 18 42  1  0  0  0  0
 19 18  2  0  0  0  0
 19 43  1  0  0  0  0
 20  8  2  0  0  0  0
 21 12  2  0  0  0  0
 22 12  1  0  0  0  0
 25  5  1  0  0  0  0
 26  5  1  0  0  0  0
 27  5  1  0  0  0  0
 29  6  1  0  0  0  0
 32 10  1  0  0  0  0
 35 11  1  0  0  0  0
 36 13  1  0  0  0  0
 37 13  1  0  0  0  0
 39 15  1  0  0  0  0
 40 16  1  0  0  0  0
M  END
