3
q = -1.0

 49 51  0  0  0  0  0  0  0  0999 V2000
    1.8405   -0.0237    0.1686 Si  0  0  0  0  0  0  0  0  0  0  0  0
    0.2772   -0.1397   -0.6666 N   0  0  0  0  0  2  0  0  0  0  0  0
   -0.2502    0.1462   -1.8062 C   0  0  0  0  0  2  0  0  0  0  0  0
    0.3625    0.2500   -3.1554 C   0  0  0  0  0  0  0  0  0  0  0  0
    0.0030    1.1717   -3.6548 H   0  0  0  0  0  0  0  0  0  0  0  0
   -0.0076   -0.5966   -3.7719 H   0  0  0  0  0  0  0  0  0  0  0  0
    1.4709    0.2198   -3.1354 H   0  0  0  0  0  0  0  0  0  0  0  0
    1.6001   -0.8199    1.8524 C   0  0  0  0  0  0  0  0  0  0  0  0
    2.1786   -2.0555    2.2068 C   0  0  0  0  0  0  0  0  0  0  0  0
    2.8497   -2.5686    1.4991 H   0  0  0  0  0  0  0  0  0  0  0  0
    1.9033   -2.6524    3.4472 C   0  0  0  0  0  0  0  0  0  0  0  0
    2.3613   -3.6221    3.7004 H   0  0  0  0  0  0  0  0  0  0  0  0
    1.0472   -2.0317    4.3780 C   0  0  0  0  0  0  0  0  0  0  0  0
    0.4810   -0.7853    4.0298 C   0  0  0  0  0  0  0  0  0  0  0  0
   -0.1845   -0.2752    4.7450 H   0  0  0  0  0  0  0  0  0  0  0  0
    0.7520   -0.1876    2.7926 C   0  0  0  0  0  0  0  0  0  0  0  0
    0.2863    0.7809    2.5500 H   0  0  0  0  0  0  0  0  0  0  0  0
    0.7527   -2.6604    5.7162 C   0  0  0  0  0  0  0  0  0  0  0  0
   -0.3386   -2.7026    5.9117 H   0  0  0  0  0  0  0  0  0  0  0  0
    1.2017   -2.0692    6.5424 H   0  0  0  0  0  0  0  0  0  0  0  0
    1.1542   -3.6899    5.7833 H   0  0  0  0  0  0  0  0  0  0  0  0
    2.2489    1.8000    0.3626 C   0  0  0  0  0  0  0  0  0  0  0  0
    3.2500    2.2041    1.2745 C   0  0  0  0  0  0  0  0  0  0  0  0
    3.7722    1.4503    1.8869 H   0  0  0  0  0  0  0  0  0  0  0  0
    3.5887    3.5564    1.4219 C   0  0  0  0  0  0  0  0  0  0  0  0
    4.3770    3.8469    2.1350 H   0  0  0  0  0  0  0  0  0  0  0  0
    2.9273    4.5557    0.6791 C   0  0  0  0  0  0  0  0  0  0  0  0
    1.9211    4.1532   -0.2231 C   0  0  0  0  0  0  0  0  0  0  0  0
    1.3809    4.9157   -0.8068 H   0  0  0  0  0  0  0  0  0  0  0  0
    1.5873    2.8019   -0.3810 C   0  0  0  0  0  0  0  0  0  0  0  0
    0.7777    2.5305   -1.0765 H   0  0  0  0  0  0  0  0  0  0  0  0
    3.2550    6.0148    0.8689 C   0  0  0  0  0  0  0  0  0  0  0  0
    3.2314    6.5664   -0.0923 H   0  0  0  0  0  0  0  0  0  0  0  0
    4.2536    6.1553    1.3266 H   0  0  0  0  0  0  0  0  0  0  0  0
    2.5128    6.5017    1.5376 H   0  0  0  0  0  0  0  0  0  0  0  0
    3.1078   -0.9395   -0.8818 C   0  0  0  0  0  0  0  0  0  0  0  0
    4.3442   -0.3583   -1.2343 C   0  0  0  0  0  0  0  0  0  0  0  0
    4.5888    0.6567   -0.8818 H   0  0  0  0  0  0  0  0  0  0  0  0
    5.2652   -1.0490   -2.0371 C   0  0  0  0  0  0  0  0  0  0  0  0
    6.2225   -0.5715   -2.3011 H   0  0  0  0  0  0  0  0  0  0  0  0
    4.9863   -2.3430   -2.5186 C   0  0  0  0  0  0  0  0  0  0  0  0
    3.7473   -2.9250   -2.1717 C   0  0  0  0  0  0  0  0  0  0  0  0
    3.5023   -3.9340   -2.5416 H   0  0  0  0  0  0  0  0  0  0  0  0
    2.8271   -2.2377   -1.3711 C   0  0  0  0  0  0  0  0  0  0  0  0
    1.8642   -2.7175   -1.1283 H   0  0  0  0  0  0  0  0  0  0  0  0
    5.9763   -3.0953   -3.3710 C   0  0  0  0  0  0  0  0  0  0  0  0
    6.3907   -3.9691   -2.8246 H   0  0  0  0  0  0  0  0  0  0  0  0
    6.8272   -2.4546   -3.6728 H   0  0  0  0  0  0  0  0  0  0  0  0
    5.5001   -3.4912   -4.2914 H   0  0  0  0  0  0  0  0  0  0  0  0
  1 22  1  0  0  0  0
  1  8  1  0  0  0  0
  2  1  1  0  0  0  0
  3  2  1  0  0  0  0
  4  7  1  0  0  0  0
  4  3  1  0  0  0  0
  5  4  1  0  0  0  0
  6  4  1  0  0  0  0
  8  9  2  0  0  0  0
  8 16  1  0  0  0  0
  9 11  1  0  0  0  0
 10  9  1  0  0  0  0
 11 12  1  0  0  0  0
 11 13  2  0  0  0  0
 13 18  1  0  0  0  0
 14 13  1  0  0  0  0
 14 15  1  0  0  0  0
 16 14  2  0  0  0  0
 17 16  1  0  0  0  0
 18 21  1  0  0  0  0
 18 19  1  0  0  0  0
 18 20  1  0  0  0  0
 22 23  1  0  0  0  0
 23 25  2  0  0  0  0
 23 24  1  0  0  0  0
 25 26  1  0  0  0  0
 27 32  1  0  0  0  0
 27 25  1  0  0  0  0
 28 27  2  0  0  0  0
 29 28  1  0  0  0  0
 30 28  1  0  0  0  0
 30 22  2  0  0  0  0
 31 30  1  0  0  0  0
 32 34  1  0  0  0  0
 32 35  1  0  0  0  0
 33 32  1  0  0  0  0
 36  1  1  0  0  0  0
 37 38  1  0  0  0  0
 37 36  1  0  0  0  0
 39 37  2  0  0  0  0
 40 39  1  0  0  0  0
 41 42  2  0  0  0  0
 41 39  1  0  0  0  0
 42 44  1  0  0  0  0
 43 42  1  0  0  0  0
 44 45  1  0  0  0  0
 44 36  2  0  0  0  0
 46 47  1  0  0  0  0
 46 41  1  0  0  0  0
 48 46  1  0  0  0  0
 49 46  1  0  0  0  0
M  END
