1
q = 0.0, confidence = 0.968

 17 16  0  0  0  0  0  0  0  0999 V2000
    0.5548    0.5104    2.5197 C   0  0  0  0  0  3  0  0  0  0  0  0
    1.8729   -0.0309    3.0376 C   0  0  0  0  0  0  0  0  0  0  0  0
    1.9193    0.0766    4.1474 H   0  0  0  0  0  0  0  0  0  0  0  0
    2.7273    0.5470    2.6275 H   0  0  0  0  0  0  0  0  0  0  0  0
    1.9942   -1.1016    2.7953 H   0  0  0  0  0  0  0  0  0  0  0  0
    0.3616    1.9778    2.8666 C   0  0  0  0  0  0  0  0  0  0  0  0
    0.4034    2.1442    3.9696 H   0  0  0  0  0  0  0  0  0  0  0  0
   -0.6090    2.3771    2.5061 H   0  0  0  0  0  0  0  0  0  0  0  0
    1.1678    2.5996    2.4222 H   0  0  0  0  0  0  0  0  0  0  0  0
    0.3624   -2.4171    1.8633 O   0  0  0  0  0  0  0  0  0  0  0  0
   -0.6477   -1.7266    2.1660 C   0  0  0  0  0  0  0  0  0  0  0  0
   -2.0117   -2.4213    2.1502 C   0  0  0  0  0  0  0  0  0  0  0  0
   -1.9177   -3.3872    2.6846 H   0  0  0  0  0  0  0  0  0  0  0  0
   -2.3074   -2.6525    1.1067 H   0  0  0  0  0  0  0  0  0  0  0  0
   -2.8178   -1.8236    2.6189 H   0  0  0  0  0  0  0  0  0  0  0  0
   -0.6339   -0.3122    2.5160 C   0  0  0  0  0  3  0  0  0  0  0  0
   -1.6024    0.1300    2.8085 H   0  0  0  0  0  0  0  0  0  0  0  0
  1  6  1  0  0  0  0
  1  2  1  0  0  0  0
  2  3  1  0  0  0  0
  4  2  1  0  0  0  0
  5  2  1  0  0  0  0
  6  7  1  0  0  0  0
  8  6  1  0  0  0  0
  9  6  1  0  0  0  0
 10 11  2  0  0  0  0
 11 16  1  0  0  0  0
 12 11  1  0  0  0  0
 12 15  1  0  0  0  0
 12 13  1  0  0  0  0
 14 12  1  0  0  0  0
 16  1  1  0  0  0  0
 16 17  1  0  0  0  0
M  END
