3
q = -1.0, confidence = 0.0

 22 21  0  0  0  0  0  0  0  0999 V2000
    2.7087   -0.7476   -1.4893 O   0  0  0  0  0  0  0  0  0  0  0  0
    2.9363    0.9075    0.0718 O   0  0  0  0  0  0  0  0  0  0  0  0
    1.0174    0.9723   -1.2911 C   0  0  0  0  0  3  0  0  0  0  0  0
    0.7580    0.6592   -2.3200 H   0  0  0  0  0  0  0  0  0  0  0  0
    1.1196    2.4872   -1.1807 C   0  0  0  0  0  0  0  0  0  0  0  0
    1.9650    2.8543   -1.8044 H   0  0  0  0  0  0  0  0  0  0  0  0
    1.3175    2.8146   -0.1431 H   0  0  0  0  0  0  0  0  0  0  0  0
    0.2059    2.9897   -1.5502 H   0  0  0  0  0  0  0  0  0  0  0  0
    2.2879    0.2648   -0.9372 C   0  0  0  0  0  0  0  0  0  0  0  0
    4.2627    0.4956    0.5421 C   0  0  0  0  0  0  0  0  0  0  0  0
    4.5491    1.5039    1.6580 C   0  0  0  0  0  0  0  0  0  0  0  0
    3.7734    1.4313    2.4455 H   0  0  0  0  0  0  0  0  0  0  0  0
    4.5404    2.5372    1.2585 H   0  0  0  0  0  0  0  0  0  0  0  0
    5.5402    1.3075    2.1128 H   0  0  0  0  0  0  0  0  0  0  0  0
    5.2769    0.6337   -0.5992 C   0  0  0  0  0  0  0  0  0  0  0  0
    5.2657    1.6666   -1.0017 H   0  0  0  0  0  0  0  0  0  0  0  0
    5.0417   -0.0716   -1.4173 H   0  0  0  0  0  0  0  0  0  0  0  0
    6.2979    0.4198   -0.2242 H   0  0  0  0  0  0  0  0  0  0  0  0
    4.2193   -0.9294    1.1035 C   0  0  0  0  0  0  0  0  0  0  0  0
    4.0339   -1.6580    0.2941 H   0  0  0  0  0  0  0  0  0  0  0  0
    3.4099   -1.0097    1.8544 H   0  0  0  0  0  0  0  0  0  0  0  0
    5.1854   -1.1682    1.5922 H   0  0  0  0  0  0  0  0  0  0  0  0
  1  9  2  0  0  0  0
  2 10  1  0  0  0  0
  3  5  1  0  0  0  0
  3  9  1  0  0  0  0
  4  3  1  0  0  0  0
  5  7  1  0  0  0  0
  6  5  1  0  0  0  0
  8  5  1  0  0  0  0
  9  2  1  0  0  0  0
 10 19  1  0  0  0  0
 10 11  1  0  0  0  0
 11 14  1  0  0  0  0
 11 12  1  0  0  0  0
 13 11  1  0  0  0  0
 15 18  1  0  0  0  0
 15 10  1  0  0  0  0
 16 15  1  0  0  0  0
 17 15  1  0  0  0  0
 19 22  1  0  0  0  0
 19 21  1  0  0  0  0
 20 19  1  0  0  0  0
M  END
