6
q = -1.0

 32 34  0  0  0  0  0  0  0  0999 V2000
    1.1842    2.1980    3.3723 Cl  0  0  0  0  0  0  0  0  0  0  0  0
    2.2688    1.2988   -4.4852 O   0  0  0  0  0  0  0  0  0  0  0  0
    2.8631    1.8991   -2.3611 N   0  0  0  0  0  0  0  0  0  0  0  0
    2.5014   -1.0208   -1.8830 N   0  0  0  0  0  0  0  0  0  0  0  0
    2.2588    1.0164   -3.2921 C   0  0  0  0  0  0  0  0  0  0  0  0
    1.6720   -0.2683   -2.7676 C   0  0  0  0  0  3  0  0  0  0  0  0
    2.9082   -0.5653   -0.7357 C   0  0  0  0  0  0  0  0  0  0  0  0
    2.0849    0.8581    1.1605 C   0  0  0  0  0  0  0  0  0  0  0  0
    1.7250    2.0908    1.7113 C   0  0  0  0  0  0  0  0  0  0  0  0
    1.7873    3.2616    0.9382 C   0  0  0  0  0  0  0  0  0  0  0  0
    2.1585    3.1720   -0.4043 C   0  0  0  0  0  0  0  0  0  0  0  0
    2.4970    1.9316   -1.0007 C   0  0  0  0  0  0  0  0  0  0  0  0
    2.5017    0.7593   -0.1887 C   0  0  0  0  0  0  0  0  0  0  0  0
    3.7182   -1.4842    0.1166 C   0  0  0  0  0  0  0  0  0  0  0  0
    3.6949   -2.8726   -0.1549 C   0  0  0  0  0  0  0  0  0  0  0  0
    4.4141   -3.7722    0.6384 C   0  0  0  0  0  0  0  0  0  0  0  0
    5.1841   -3.3064    1.7203 C   0  0  0  0  0  0  0  0  0  0  0  0
    5.2384   -1.9292    1.9843 C   0  0  0  0  0  0  0  0  0  0  0  0
    4.5169   -1.0259    1.1882 C   0  0  0  0  0  0  0  0  0  0  0  0
    3.4712    3.0878   -2.9491 C   0  0  0  0  0  0  0  0  0  0  0  0
    4.2184    3.5036   -2.2472 H   0  0  0  0  0  0  0  0  0  0  0  0
    3.9572    2.7912   -3.8955 H   0  0  0  0  0  0  0  0  0  0  0  0
    2.7263    3.8747   -3.2021 H   0  0  0  0  0  0  0  0  0  0  0  0
    1.4494   -0.8670   -3.6718 H   0  0  0  0  0  0  0  0  0  0  0  0
    2.0430   -0.0482    1.7789 H   0  0  0  0  0  0  0  0  0  0  0  0
    1.5227    4.2302    1.3853 H   0  0  0  0  0  0  0  0  0  0  0  0
    2.1722    4.0860   -1.0118 H   0  0  0  0  0  0  0  0  0  0  0  0
    3.0889   -3.2105   -1.0083 H   0  0  0  0  0  0  0  0  0  0  0  0
    4.3748   -4.8498    0.4151 H   0  0  0  0  0  0  0  0  0  0  0  0
    5.7479   -4.0144    2.3469 H   0  0  0  0  0  0  0  0  0  0  0  0
    5.8556   -1.5500    2.8134 H   0  0  0  0  0  0  0  0  0  0  0  0
    4.5828    0.0518    1.3970 H   0  0  0  0  0  0  0  0  0  0  0  0
  2  5  2  0  0  0  0
  3 12  1  0  0  0  0
  4  7  2  0  0  0  0
  5  6  1  0  0  0  0
  5  3  1  0  0  0  0
  6  4  1  0  0  0  0
  7 13  1  0  0  0  0
  7 14  1  0  0  0  0
  8  9  1  0  0  0  0
  8 25  1  0  0  0  0
  9  1  1  0  0  0  0
 10 26  1  0  0  0  0
 10  9  2  0  0  0  0
 11 10  1  0  0  0  0
 12 11  2  0  0  0  0
 12 13  1  0  0  0  0
 13  8  2  0  0  0  0
 14 19  1  0  0  0  0
 15 14  2  0  0  0  0
 15 16  1  0  0  0  0
 16 17  2  0  0  0  0
 17 18  1  0  0  0  0
 17 30  1  0  0  0  0
 18 31  1  0  0  0  0
 19 32  1  0  0  0  0
 19 18  2  0  0  0  0
 20  3  1  0  0  0  0
 20 21  1  0  0  0  0
 22 20  1  0  0  0  0
 23 20  1  0  0  0  0
 24  6  1  0  0  0  0
 27 11  1  0  0  0  0
 28 15  1  0  0  0  0
 29 16  1  0  0  0  0
M  END
