17
q = 0.0, confidence = 0.966

 51 55  0  0  0  0  0  0  0  0999 V2000
    1.5098   -0.6004   -0.0400 P   0  0  0  0  0  4  0  0  0  0  0  0
   -0.4720    2.7933   -0.0665 N   0  0  0  0  0  0  0  0  0  0  0  0
    0.4316   -2.0412   -0.3461 C   0  0  0  0  0  0  0  0  0  0  0  0
    2.9356   -2.2520    3.4567 C   0  0  0  0  0  0  0  0  0  0  0  0
    3.2501   -3.2430    3.8172 H   0  0  0  0  0  0  0  0  0  0  0  0
    2.0979   -0.8256    1.6740 C   0  0  0  0  0  0  0  0  0  0  0  0
    0.8146    3.2997   -0.2349 C   0  0  0  0  0  0  0  0  0  0  0  0
    4.1487   -1.3843   -0.7677 C   0  0  0  0  0  0  0  0  0  0  0  0
    4.2776   -1.7329    0.2672 H   0  0  0  0  0  0  0  0  0  0  0  0
    0.6111   -2.8411   -1.4917 C   0  0  0  0  0  0  0  0  0  0  0  0
    1.3414   -2.5554   -2.2623 H   0  0  0  0  0  0  0  0  0  0  0  0
    2.7894   -0.3101   -2.4874 C   0  0  0  0  0  0  0  0  0  0  0  0
    1.8528    0.1895   -2.7801 H   0  0  0  0  0  0  0  0  0  0  0  0
    3.5342    3.7879   -0.5307 C   0  0  0  0  0  0  0  0  0  0  0  0
    4.6097    3.9947   -0.6393 H   0  0  0  0  0  0  0  0  0  0  0  0
    1.7116    2.1947   -0.3693 C   0  0  0  0  0  0  0  0  0  0  0  0
   -0.4873    1.4100   -0.0794 C   0  0  0  0  0  3  0  0  0  0  0  0
    5.2005   -1.5115   -1.6879 C   0  0  0  0  0  0  0  0  0  0  0  0
    6.1485   -1.9711   -1.3704 H   0  0  0  0  0  0  0  0  0  0  0  0
    0.8632    1.0080   -0.2918 C   0  0  0  0  0  0  0  0  0  0  0  0
    3.0911    2.4564   -0.5076 C   0  0  0  0  0  0  0  0  0  0  0  0
    3.8173    1.6359   -0.5907 H   0  0  0  0  0  0  0  0  0  0  0  0
   -0.4966   -2.4163    0.6505 C   0  0  0  0  0  0  0  0  0  0  0  0
   -0.6398   -1.7874    1.5450 H   0  0  0  0  0  0  0  0  0  0  0  0
    2.9385   -0.7874   -1.1679 C   0  0  0  0  0  0  0  0  0  0  0  0
   -1.6205    3.6379    0.1985 C   0  0  0  0  0  0  0  0  0  0  0  0
   -2.4910    2.9746    0.3660 H   0  0  0  0  0  0  0  0  0  0  0  0
   -1.8238    4.3186   -0.6549 H   0  0  0  0  0  0  0  0  0  0  0  0
   -1.4498    4.2477    1.1097 H   0  0  0  0  0  0  0  0  0  0  0  0
    5.0477   -1.0480   -3.0041 C   0  0  0  0  0  0  0  0  0  0  0  0
    5.8765   -1.1464   -3.7214 H   0  0  0  0  0  0  0  0  0  0  0  0
    3.8422   -0.4471   -3.4024 C   0  0  0  0  0  0  0  0  0  0  0  0
    3.7248   -0.0693   -4.4291 H   0  0  0  0  0  0  0  0  0  0  0  0
    2.6294    4.8640   -0.4144 C   0  0  0  0  0  0  0  0  0  0  0  0
    3.0052    5.8979   -0.4370 H   0  0  0  0  0  0  0  0  0  0  0  0
    1.2537    4.6315   -0.2604 C   0  0  0  0  0  0  0  0  0  0  0  0
    0.5452    5.4660   -0.1563 H   0  0  0  0  0  0  0  0  0  0  0  0
    2.0886    0.2762    2.5488 C   0  0  0  0  0  0  0  0  0  0  0  0
    1.7252    1.2506    2.1929 H   0  0  0  0  0  0  0  0  0  0  0  0
   -0.1304   -4.0249   -1.6369 C   0  0  0  0  0  0  0  0  0  0  0  0
    0.0125   -4.6499   -2.5309 H   0  0  0  0  0  0  0  0  0  0  0  0
   -1.0389   -4.4128   -0.6386 C   0  0  0  0  0  0  0  0  0  0  0  0
   -1.6093   -5.3477   -0.7491 H   0  0  0  0  0  0  0  0  0  0  0  0
    2.5174    0.1098    3.8737 C   0  0  0  0  0  0  0  0  0  0  0  0
    2.5001    0.9687    4.5607 H   0  0  0  0  0  0  0  0  0  0  0  0
    2.9440   -1.1480    4.3261 C   0  0  0  0  0  0  0  0  0  0  0  0
    3.2711   -1.2749    5.3693 H   0  0  0  0  0  0  0  0  0  0  0  0
    2.5072   -2.0964    2.1314 C   0  0  0  0  0  0  0  0  0  0  0  0
    2.4658   -2.9681    1.4601 H   0  0  0  0  0  0  0  0  0  0  0  0
   -1.2220   -3.6081    0.4970 C   0  0  0  0  0  0  0  0  0  0  0  0
   -1.9371   -3.9056    1.2784 H   0  0  0  0  0  0  0  0  0  0  0  0
  1  6  1  0  0  0  0
  2 26  1  0  0  0  0
  3  1  1  0  0  0  0
  3 23  1  0  0  0  0
  4  5  1  0  0  0  0
  4 46  1  0  0  0  0
  6 48  1  0  0  0  0
  6 38  2  0  0  0  0
  7  2  1  0  0  0  0
  8  9  1  0  0  0  0
 10  3  2  0  0  0  0
 11 10  1  0  0  0  0
 12 25  2  0  0  0  0
 13 12  1  0  0  0  0
 14 21  2  0  0  0  0
 14 34  1  0  0  0  0
 15 14  1  0  0  0  0
 16 20  1  0  0  0  0
 16  7  2  0  0  0  0
 17  2  1  0  0  0  0
 18 19  1  0  0  0  0
 18  8  2  0  0  0  0
 20 17  2  0  0  0  0
 20  1  1  0  0  0  0
 21 16  1  0  0  0  0
 22 21  1  0  0  0  0
 23 24  1  0  0  0  0
 25  8  1  0  0  0  0
 25  1  1  0  0  0  0
 26 27  1  0  0  0  0
 26 29  1  0  0  0  0
 28 26  1  0  0  0  0
 30 18  1  0  0  0  0
 31 30  1  0  0  0  0
 32 30  2  0  0  0  0
 32 12  1  0  0  0  0
 33 32  1  0  0  0  0
 34 36  2  0  0  0  0
 35 34  1  0  0  0  0
 36  7  1  0  0  0  0
 36 37  1  0  0  0  0
 38 44  1  0  0  0  0
 39 38  1  0  0  0  0
 40 10  1  0  0  0  0
 40 42  2  0  0  0  0
 41 40  1  0  0  0  0
 42 50  1  0  0  0  0
 43 42  1  0  0  0  0
 44 46  2  0  0  0  0
 44 45  1  0  0  0  0
 46 47  1  0  0  0  0
 48  4  2  0  0  0  0
 49 48  1  0  0  0  0
 50 23  2  0  0  0  0
 50 51  1  0  0  0  0
M  END
