6
q = -1.0, confidence = 0.0

 35 35  0  0  0  0  0  0  0  0999 V2000
    0.4913    0.4637   -0.2482 C   0  0  0  0  0  0  0  0  0  0  0  0
    0.0430    0.1499   -1.5747 C   0  0  0  0  0  0  0  0  0  0  0  0
   -0.0665    0.8648   -2.3962 H   0  0  0  0  0  0  0  0  0  0  0  0
   -0.2739   -1.2290   -1.6396 C   0  0  0  0  0  0  0  0  0  0  0  0
   -0.6633   -1.7565   -2.5148 H   0  0  0  0  0  0  0  0  0  0  0  0
   -0.0872   -1.7853   -0.3437 C   0  0  0  0  0  3  0  0  0  0  0  0
   -0.2554   -2.8311   -0.0625 H   0  0  0  0  0  0  0  0  0  0  0  0
    0.3955   -0.7405    0.5075 C   0  0  0  0  0  0  0  0  0  0  0  0
    0.6858   -0.8572    1.5575 H   0  0  0  0  0  0  0  0  0  0  0  0
    1.1644    1.7488    0.2219 C   0  0  0  0  0  0  0  0  0  0  0  0
    1.0710    2.8502   -0.8474 C   0  0  0  0  0  0  0  0  0  0  0  0
    1.5405    2.5424   -1.8023 H   0  0  0  0  0  0  0  0  0  0  0  0
    1.5931    3.7626   -0.4949 H   0  0  0  0  0  0  0  0  0  0  0  0
    0.0135    3.1054   -1.0513 H   0  0  0  0  0  0  0  0  0  0  0  0
    0.5431    2.2656    1.5344 C   0  0  0  0  0  0  0  0  0  0  0  0
   -0.5274    2.5071    1.3893 H   0  0  0  0  0  0  0  0  0  0  0  0
    1.0699    3.1823    1.8687 H   0  0  0  0  0  0  0  0  0  0  0  0
    0.6360    1.5191    2.3498 H   0  0  0  0  0  0  0  0  0  0  0  0
    2.6566    1.3929    0.5067 C   0  0  0  0  0  0  0  0  0  0  0  0
    3.1653    2.3105    0.8761 H   0  0  0  0  0  0  0  0  0  0  0  0
    2.6913    0.6684    1.3488 H   0  0  0  0  0  0  0  0  0  0  0  0
    3.4470    0.7989   -0.6736 C   0  0  0  0  0  0  0  0  0  0  0  0
    2.8652   -0.0367   -1.1141 H   0  0  0  0  0  0  0  0  0  0  0  0
    3.5430    1.5611   -1.4757 H   0  0  0  0  0  0  0  0  0  0  0  0
    4.8174    0.3291   -0.2684 C   0  0  0  0  0  0  0  0  0  0  0  0
    5.5965    1.1101   -0.1946 H   0  0  0  0  0  0  0  0  0  0  0  0
    5.1759   -0.9360    0.0598 C   0  0  0  0  0  0  0  0  0  0  0  0
    4.2291   -2.1095    0.0435 C   0  0  0  0  0  0  0  0  0  0  0  0
    3.2013   -1.8422   -0.2662 H   0  0  0  0  0  0  0  0  0  0  0  0
    4.1683   -2.5743    1.0522 H   0  0  0  0  0  0  0  0  0  0  0  0
    4.5979   -2.9070   -0.6382 H   0  0  0  0  0  0  0  0  0  0  0  0
    6.5867   -1.2634    0.4780 C   0  0  0  0  0  0  0  0  0  0  0  0
    7.2397   -0.3690    0.4756 H   0  0  0  0  0  0  0  0  0  0  0  0
    7.0387   -2.0230   -0.1975 H   0  0  0  0  0  0  0  0  0  0  0  0
    6.6107   -1.7066    1.4981 H   0  0  0  0  0  0  0  0  0  0  0  0
  1 10  1  0  0  0  0
  1  8  2  0  0  0  0
  2  1  1  0  0  0  0
  3  2  1  0  0  0  0
  4  2  2  0  0  0  0
  4  6  1  0  0  0  0
  5  4  1  0  0  0  0
  6  7  1  0  0  0  0
  6  8  1  0  0  0  0
  8  9  1  0  0  0  0
 10 19  1  0  0  0  0
 10 15  1  0  0  0  0
 11 13  1  0  0  0  0
 11 10  1  0  0  0  0
 12 11  1  0  0  0  0
 14 11  1  0  0  0  0
 15 17  1  0  0  0  0
 15 18  1  0  0  0  0
 16 15  1  0  0  0  0
 19 20  1  0  0  0  0
 19 21  1  0  0  0  0
 22 25  1  0  0  0  0
 22 19  1  0  0  0  0
 23 22  1  0  0  0  0
 24 22  1  0  0  0  0
 25 26  1  0  0  0  0
 25 27  2  0  0  0  0
 27 32  1  0  0  0  0
 28 27  1  0  0  0  0
 28 30  1  0  0  0  0
 29 28  1  0  0  0  0
 31 28  1  0  0  0  0
 32 35  1  0  0  0  0
 33 32  1  0  0  0  0
 34 32  1  0  0  0  0
M  END
