6
q = -1.0, confidence = 0.0

 42 43  0  0  1  0  0  0  0  0999 V2000
   -0.1844    0.5164    0.3857 C   0  0  0  0  0  0  0  0  0  0  0  0
   -0.4789   -0.3347    1.5029 C   0  0  0  0  0  0  0  0  0  0  0  0
   -0.0260   -1.3107    1.7024 H   0  0  0  0  0  0  0  0  0  0  0  0
   -1.4892    0.2751    2.2867 C   0  0  0  0  0  0  0  0  0  0  0  0
   -1.9387   -0.1449    3.1908 H   0  0  0  0  0  0  0  0  0  0  0  0
   -1.8820    1.4800    1.6405 C   0  0  0  0  0  3  0  0  0  0  0  0
   -2.6472    2.1796    1.9957 H   0  0  0  0  0  0  0  0  0  0  0  0
   -1.0664    1.6301    0.4756 C   0  0  0  0  0  0  0  0  0  0  0  0
   -1.0720    2.4876   -0.2064 H   0  0  0  0  0  0  0  0  0  0  0  0
    0.9856    0.4041   -0.5940 C   0  0  1  0  0  0  0  0  0  0  0  0
    0.4878    0.5011   -2.0468 C   0  0  0  0  0  0  0  0  0  0  0  0
   -0.2147   -0.3290   -2.2486 H   0  0  0  0  0  0  0  0  0  0  0  0
    1.3256    0.4298   -2.7660 H   0  0  0  0  0  0  0  0  0  0  0  0
   -0.0299    1.4616   -2.2390 H   0  0  0  0  0  0  0  0  0  0  0  0
    1.9473    1.5606   -0.2325 C   0  0  0  0  0  0  0  0  0  0  0  0
    2.4355    2.4758   -1.1848 C   0  0  0  0  0  0  0  0  0  0  0  0
    2.1150    2.4059   -2.2332 H   0  0  0  0  0  0  0  0  0  0  0  0
    3.3454    3.4839   -0.8217 C   0  0  0  0  0  0  0  0  0  0  0  0
    3.7139    4.1828   -1.5883 H   0  0  0  0  0  0  0  0  0  0  0  0
    3.7853    3.5985    0.5036 C   0  0  0  0  0  0  0  0  0  0  0  0
    4.4991    4.3866    0.7873 H   0  0  0  0  0  0  0  0  0  0  0  0
    3.3018    2.6973    1.4668 C   0  0  0  0  0  0  0  0  0  0  0  0
    3.6326    2.7772    2.5137 H   0  0  0  0  0  0  0  0  0  0  0  0
    2.3939    1.6955    1.1009 C   0  0  0  0  0  0  0  0  0  0  0  0
    2.0159    1.0042    1.8697 H   0  0  0  0  0  0  0  0  0  0  0  0
    1.7352   -0.9407   -0.3729 C   0  0  0  0  0  0  0  0  0  0  0  0
    2.0526   -0.9950    0.6887 H   0  0  0  0  0  0  0  0  0  0  0  0
    1.0172   -1.7721   -0.5293 H   0  0  0  0  0  0  0  0  0  0  0  0
    2.9863   -1.1391   -1.2474 C   0  0  0  0  0  0  0  0  0  0  0  0
    2.6856   -1.2616   -2.3091 H   0  0  0  0  0  0  0  0  0  0  0  0
    3.6077   -0.2203   -1.2056 H   0  0  0  0  0  0  0  0  0  0  0  0
    3.7900   -2.3388   -0.8220 C   0  0  0  0  0  0  0  0  0  0  0  0
    3.4664   -3.3130   -1.2316 H   0  0  0  0  0  0  0  0  0  0  0  0
    4.8276   -2.3437    0.0496 C   0  0  0  0  0  0  0  0  0  0  0  0
    5.3628   -1.1056    0.7236 C   0  0  0  0  0  0  0  0  0  0  0  0
    4.8245   -0.1810    0.4429 H   0  0  0  0  0  0  0  0  0  0  0  0
    6.4410   -0.9621    0.4913 H   0  0  0  0  0  0  0  0  0  0  0  0
    5.2999   -1.2074    1.8293 H   0  0  0  0  0  0  0  0  0  0  0  0
    5.5306   -3.6252    0.4182 C   0  0  0  0  0  0  0  0  0  0  0  0
    5.0979   -4.5018   -0.1020 H   0  0  0  0  0  0  0  0  0  0  0  0
    5.4764   -3.8118    1.5136 H   0  0  0  0  0  0  0  0  0  0  0  0
    6.6136   -3.5744    0.1687 H   0  0  0  0  0  0  0  0  0  0  0  0
  1  8  2  0  0  0  0
  1  2  1  0  0  0  0
  2  3  1  0  0  0  0
  2  4  2  0  0  0  0
  4  5  1  0  0  0  0
  6  7  1  0  0  0  0
  6  4  1  0  0  0  0
  8  6  1  0  0  0  0
  9  8  1  0  0  0  0
 10 11  1  6  0  0  0
 10 26  1  0  0  0  0
 10 15  1  0  0  0  0
 10  1  1  0  0  0  0
 12 11  1  0  0  0  0
 13 11  1  0  0  0  0
 14 11  1  0  0  0  0
 15 24  1  0  0  0  0
 16 18  1  0  0  0  0
 16 15  2  0  0  0  0
 17 16  1  0  0  0  0
 18 20  2  0  0  0  0
 19 18  1  0  0  0  0
 20 21  1  0  0  0  0
 20 22  1  0  0  0  0
 22 23  1  0  0  0  0
 24 22  2  0  0  0  0
 24 25  1  0  0  0  0
 26 27  1  0  0  0  0
 28 26  1  0  0  0  0
 29 31  1  0  0  0  0
 29 32  1  0  0  0  0
 29 26  1  0  0  0  0
 30 29  1  0  0  0  0
 32 34  2  0  0  0  0
 33 32  1  0  0  0  0
 34 39  1  0  0  0  0
 34 35  1  0  0  0  0
 35 38  1  0  0  0  0
 36 35  1  0  0  0  0
 37 35  1  0  0  0  0
 39 41  1  0  0  0  0
 40 39  1  0  0  0  0
 42 39  1  0  0  0  0
M  END
