2
q = -1.0

 24 23  0  0  1  0  0  0  0  0999 V2000
    1.8753   -1.9507   -1.4095 S   0  0  0  0  0  0  0  0  0  0  0  0
   -1.1702   -2.1328   -0.7097 C   0  0  0  0  0  3  0  0  0  0  0  0
   -1.8837   -0.4101   -2.1901 C   0  0  0  0  0  3  0  0  0  0  0  0
   -0.7562   -1.1462   -1.6621 C   0  0  1  0  0  3  0  0  0  0  0  0
    0.6341   -0.7711   -2.0190 C   0  0  0  0  0  0  0  0  0  0  0  0
    0.9260    0.2060   -2.6982 O   0  0  0  0  0  0  0  0  0  0  0  0
    4.9067   -1.4745   -0.1416 C   0  0  0  0  0  0  0  0  0  0  0  0
    4.3175   -0.5359   -1.1983 C   0  0  0  0  0  0  0  0  0  0  0  0
    3.3629   -1.2109   -2.1816 C   0  0  0  0  0  0  0  0  0  0  0  0
    5.9337   -0.7998    0.7673 C   0  0  0  0  0  0  0  0  0  0  0  0
   -1.0144   -3.4430   -0.4692 C   0  0  0  0  0  0  0  0  0  0  0  0
   -2.7478   -0.9947   -2.5398 H   0  0  0  0  0  0  0  0  0  0  0  0
   -1.6474    0.4838   -2.7917 H   0  0  0  0  0  0  0  0  0  0  0  0
    5.3754   -2.3467   -0.6495 H   0  0  0  0  0  0  0  0  0  0  0  0
    4.0739   -1.8922    0.4662 H   0  0  0  0  0  0  0  0  0  0  0  0
    5.1443   -0.0804   -1.7898 H   0  0  0  0  0  0  0  0  0  0  0  0
    3.7937    0.3099   -0.7033 H   0  0  0  0  0  0  0  0  0  0  0  0
    3.8678   -2.0358   -2.7252 H   0  0  0  0  0  0  0  0  0  0  0  0
    2.9662   -0.4826   -2.9192 H   0  0  0  0  0  0  0  0  0  0  0  0
    6.3193   -1.4940    1.5411 H   0  0  0  0  0  0  0  0  0  0  0  0
    5.4969    0.0767    1.2896 H   0  0  0  0  0  0  0  0  0  0  0  0
    6.8050   -0.4285    0.1883 H   0  0  0  0  0  0  0  0  0  0  0  0
   -0.4772   -4.0844   -1.1879 H   0  0  0  0  0  0  0  0  0  0  0  0
   -1.4419   -3.9254    0.4252 H   0  0  0  0  0  0  0  0  0  0  0  0
  2 11  2  0  0  0  0
  3  4  1  0  0  0  0
  4  2  1  1  0  0  0
  5  4  1  0  0  0  0
  5  1  1  0  0  0  0
  6  5  2  0  0  0  0
  7 15  1  0  0  0  0
  7 10  1  0  0  0  0
  8 17  1  0  0  0  0
  8  7  1  0  0  0  0
  9  1  1  0  0  0  0
  9  8  1  0  0  0  0
 10 21  1  0  0  0  0
 10 20  1  0  0  0  0
 11 24  1  0  0  0  0
 12  3  1  0  0  0  0
 13  3  1  0  0  0  0
 14  7  1  0  0  0  0
 16  8  1  0  0  0  0
 18  9  1  0  0  0  0
 19  9  1  0  0  0  0
 22 10  1  0  0  0  0
 23 11  1  0  0  0  0
M  END
