8
q = -1.0, confidence = 0.0

 26 27  0  0  1  0  0  0  0  0999 V2000
   -1.0288   -0.1341   -2.1401 C   0  0  0  0  0  0  0  0  0  0  0  0
   -0.1971   -1.2214   -2.5903 C   0  0  0  0  0  0  0  0  0  0  0  0
    1.1457   -0.9021   -2.2538 C   0  0  0  0  0  0  0  0  0  0  0  0
   -0.6636   -2.4203   -3.3553 C   0  0  0  0  0  0  0  0  0  0  0  0
    0.1338   -3.1839   -3.4285 H   0  0  0  0  0  0  0  0  0  0  0  0
   -1.5426   -2.8878   -2.8685 H   0  0  0  0  0  0  0  0  0  0  0  0
   -0.9601   -2.1319   -4.3863 H   0  0  0  0  0  0  0  0  0  0  0  0
    1.1839    0.3690   -1.5912 C   0  0  2  0  0  3  0  0  0  0  0  0
   -0.1783    0.8290   -1.5264 C   0  0  0  0  0  0  0  0  0  0  0  0
   -2.5030   -0.0096   -2.3738 C   0  0  0  0  0  0  0  0  0  0  0  0
   -2.7074    0.1099   -3.4592 H   0  0  0  0  0  0  0  0  0  0  0  0
   -3.0454   -0.9133   -2.0315 H   0  0  0  0  0  0  0  0  0  0  0  0
   -2.9251    0.8666   -1.8479 H   0  0  0  0  0  0  0  0  0  0  0  0
    2.3882    1.0725   -1.1153 C   0  0  0  0  0  0  0  0  0  0  0  0
    3.6108    0.3837   -0.9307 C   0  0  0  0  0  0  0  0  0  0  0  0
    4.7577    1.0477   -0.4821 C   0  0  0  0  0  0  0  0  0  0  0  0
    4.6870    2.4183   -0.2016 C   0  0  0  0  0  0  0  0  0  0  0  0
    5.7853    3.0614    0.2347 F   0  0  0  0  0  0  0  0  0  0  0  0
    3.4950    3.1338   -0.3716 C   0  0  0  0  0  0  0  0  0  0  0  0
    2.3578    2.4585   -0.8324 C   0  0  0  0  0  0  0  0  0  0  0  0
    1.4307    3.0273   -0.9968 H   0  0  0  0  0  0  0  0  0  0  0  0
    3.4774    4.2116   -0.1556 H   0  0  0  0  0  0  0  0  0  0  0  0
    5.7070    0.5144   -0.3310 H   0  0  0  0  0  0  0  0  0  0  0  0
    3.6545   -0.7007   -1.1046 H   0  0  0  0  0  0  0  0  0  0  0  0
   -0.5294    1.7793   -1.1085 H   0  0  0  0  0  0  0  0  0  0  0  0
    2.0113   -1.5353   -2.4756 H   0  0  0  0  0  0  0  0  0  0  0  0
  1  9  2  0  0  0  0
  2  3  2  0  0  0  0
  2  1  1  0  0  0  0
  3  8  1  0  0  0  0
  4  6  1  0  0  0  0
  4  2  1  0  0  0  0
  5  4  1  0  0  0  0
  7  4  1  0  0  0  0
  8  9  1  0  0  0  0
  8 14  1  6  0  0  0
  9 25  1  0  0  0  0
 10  1  1  0  0  0  0
 10 12  1  0  0  0  0
 10 13  1  0  0  0  0
 11 10  1  0  0  0  0
 14 15  2  0  0  0  0
 14 20  1  0  0  0  0
 15 16  1  0  0  0  0
 16 23  1  0  0  0  0
 16 17  2  0  0  0  0
 17 18  1  0  0  0  0
 19 17  1  0  0  0  0
 19 22  1  0  0  0  0
 20 19  2  0  0  0  0
 21 20  1  0  0  0  0
 24 15  1  0  0  0  0
 26  3  1  0  0  0  0
M  END
