2
q = 0.0, confidence = 0.966

 50 53  0  0  0  0  0  0  0  0999 V2000
   -2.3146   -1.3475   -0.0346 P   0  0  0  0  0  4  0  0  0  0  0  0
    0.2827   -0.5569    0.1241 C   0  0  0  0  0  3  0  0  0  0  0  0
   -1.0015   -0.0826    0.0184 C   0  0  0  0  0  0  0  0  0  0  0  0
   -1.4497    1.2572    0.0768 C   0  0  0  0  0  0  0  0  0  0  0  0
   -1.9183    2.4000    0.0671 C   0  0  0  0  0  0  0  0  0  0  0  0
   -2.4675    3.7133    0.0431 C   0  0  0  0  0  0  0  0  0  0  0  0
   -3.6451    3.9754   -0.7059 C   0  0  0  0  0  0  0  0  0  0  0  0
   -4.1911    5.2630   -0.7283 C   0  0  0  0  0  0  0  0  0  0  0  0
   -3.5767    6.3062   -0.0149 C   0  0  0  0  0  0  0  0  0  0  0  0
   -2.4087    6.0570    0.7254 C   0  0  0  0  0  0  0  0  0  0  0  0
   -1.8538    4.7732    0.7596 C   0  0  0  0  0  0  0  0  0  0  0  0
   -1.6977   -2.7738   -0.9719 C   0  0  0  0  0  0  0  0  0  0  0  0
   -1.0358   -2.5553   -2.2015 C   0  0  0  0  0  0  0  0  0  0  0  0
   -0.5631   -3.6510   -2.9351 C   0  0  0  0  0  0  0  0  0  0  0  0
   -0.7459   -4.9572   -2.4490 C   0  0  0  0  0  0  0  0  0  0  0  0
   -1.4014   -5.1715   -1.2266 C   0  0  0  0  0  0  0  0  0  0  0  0
   -1.8795   -4.0824   -0.4822 C   0  0  0  0  0  0  0  0  0  0  0  0
   -3.8273   -0.7072   -0.8000 C   0  0  0  0  0  0  0  0  0  0  0  0
   -4.2280   -1.1253   -2.0852 C   0  0  0  0  0  0  0  0  0  0  0  0
   -5.3814   -0.5747   -2.6631 C   0  0  0  0  0  0  0  0  0  0  0  0
   -6.1318    0.3844   -1.9646 C   0  0  0  0  0  0  0  0  0  0  0  0
   -5.7346    0.7957   -0.6810 C   0  0  0  0  0  0  0  0  0  0  0  0
   -4.5835    0.2546   -0.0933 C   0  0  0  0  0  0  0  0  0  0  0  0
   -2.7056   -1.8671    1.6592 C   0  0  0  0  0  0  0  0  0  0  0  0
   -3.9833   -2.3942    1.9510 C   0  0  0  0  0  0  0  0  0  0  0  0
   -4.2572   -2.8614    3.2438 C   0  0  0  0  0  0  0  0  0  0  0  0
   -3.2666   -2.8030    4.2387 C   0  0  0  0  0  0  0  0  0  0  0  0
   -1.9983   -2.2782    3.9435 C   0  0  0  0  0  0  0  0  0  0  0  0
   -1.7076   -1.8074    2.6549 C   0  0  0  0  0  0  0  0  0  0  0  0
    0.3967   -1.6499    0.0044 H   0  0  0  0  0  0  0  0  0  0  0  0
   -4.1171    3.1555   -1.2666 H   0  0  0  0  0  0  0  0  0  0  0  0
   -5.1036    5.4580   -1.3116 H   0  0  0  0  0  0  0  0  0  0  0  0
   -4.0090    7.3177   -0.0370 H   0  0  0  0  0  0  0  0  0  0  0  0
   -1.9266    6.8728    1.2844 H   0  0  0  0  0  0  0  0  0  0  0  0
   -0.9427    4.5733    1.3407 H   0  0  0  0  0  0  0  0  0  0  0  0
   -0.8735   -1.5311   -2.5707 H   0  0  0  0  0  0  0  0  0  0  0  0
   -0.0436   -3.4841   -3.8902 H   0  0  0  0  0  0  0  0  0  0  0  0
   -0.3697   -5.8144   -3.0271 H   0  0  0  0  0  0  0  0  0  0  0  0
   -1.5391   -6.1937   -0.8444 H   0  0  0  0  0  0  0  0  0  0  0  0
   -2.3837   -4.2482    0.4814 H   0  0  0  0  0  0  0  0  0  0  0  0
   -3.6477   -1.8843   -2.6300 H   0  0  0  0  0  0  0  0  0  0  0  0
   -5.6984   -0.9036   -3.6637 H   0  0  0  0  0  0  0  0  0  0  0  0
   -7.0386    0.8093   -2.4206 H   0  0  0  0  0  0  0  0  0  0  0  0
   -6.3254    1.5425   -0.1302 H   0  0  0  0  0  0  0  0  0  0  0  0
   -4.2769    0.5759    0.9129 H   0  0  0  0  0  0  0  0  0  0  0  0
   -4.7616   -2.4327    1.1740 H   0  0  0  0  0  0  0  0  0  0  0  0
   -5.2521   -3.2694    3.4763 H   0  0  0  0  0  0  0  0  0  0  0  0
   -3.4885   -3.1659    5.2535 H   0  0  0  0  0  0  0  0  0  0  0  0
   -1.2212   -2.2251    4.7203 H   0  0  0  0  0  0  0  0  0  0  0  0
   -0.7065   -1.3950    2.4445 H   0  0  0  0  0  0  0  0  0  0  0  0
  1  3  1  0  0  0  0
  1 24  1  0  0  0  0
  3  4  1  0  0  0  0
  3  2  2  0  0  0  0
  5  4  3  0  0  0  0
  6  5  1  0  0  0  0
  6 11  1  0  0  0  0
  7  6  2  0  0  0  0
  8  7  1  0  0  0  0
  8  9  2  0  0  0  0
  9 10  1  0  0  0  0
 10 11  2  0  0  0  0
 10 34  1  0  0  0  0
 11 35  1  0  0  0  0
 12 17  1  0  0  0  0
 12  1  1  0  0  0  0
 13 12  2  0  0  0  0
 14 15  2  0  0  0  0
 14 13  1  0  0  0  0
 15 16  1  0  0  0  0
 16 39  1  0  0  0  0
 16 17  2  0  0  0  0
 17 40  1  0  0  0  0
 18 23  1  0  0  0  0
 18  1  1  0  0  0  0
 19 18  2  0  0  0  0
 20 19  1  0  0  0  0
 20 21  2  0  0  0  0
 21 22  1  0  0  0  0
 22 44  1  0  0  0  0
 22 23  2  0  0  0  0
 23 45  1  0  0  0  0
 24 25  2  0  0  0  0
 24 29  1  0  0  0  0
 25 26  1  0  0  0  0
 26 47  1  0  0  0  0
 26 27  2  0  0  0  0
 27 48  1  0  0  0  0
 28 27  1  0  0  0  0
 28 49  1  0  0  0  0
 29 28  2  0  0  0  0
 30  2  1  0  0  0  0
 31  7  1  0  0  0  0
 32  8  1  0  0  0  0
 33  9  1  0  0  0  0
 36 13  1  0  0  0  0
 37 14  1  0  0  0  0
 38 15  1  0  0  0  0
 41 19  1  0  0  0  0
 42 20  1  0  0  0  0
 43 21  1  0  0  0  0
 46 25  1  0  0  0  0
 50 29  1  0  0  0  0
M  END
