5
q = 0.0, confidence = 0.998

 43 46  0  0  1  0  0  0  0  0999 V2000
    0.1669   -0.9225    2.3643 N   0  0  0  0  0  0  0  0  0  0  0  0
    1.4158   -0.5638    2.8053 N   0  0  0  0  0  0  0  0  0  0  0  0
    1.0652    0.0661    0.7072 N   0  0  0  0  0  0  0  0  0  0  0  0
    1.2976    0.5197   -0.5827 N   0  0  1  0  0  0  0  0  0  0  0  0
   -0.1062   -0.5572    1.0862 C   0  0  0  0  0  2  0  0  0  0  0  0
    1.9593    0.0211    1.7674 C   0  0  0  0  0  0  0  0  0  0  0  0
    2.9765    0.4226    1.7334 H   0  0  0  0  0  0  0  0  0  0  0  0
   -0.7018   -1.6864    3.2381 C   0  0  0  0  0  0  0  0  0  0  0  0
   -1.5951   -1.9708    2.6520 H   0  0  0  0  0  0  0  0  0  0  0  0
   -0.9926   -1.0822    4.1197 H   0  0  0  0  0  0  0  0  0  0  0  0
   -0.1726   -2.5972    3.5772 H   0  0  0  0  0  0  0  0  0  0  0  0
    2.0595    1.7793   -0.6808 C   0  0  1  0  0  0  0  0  0  0  0  0
    3.0348    1.7026   -0.1403 H   0  0  0  0  0  0  0  0  0  0  0  0
    2.3478    1.8480   -2.2013 C   0  0  0  0  0  0  0  0  0  0  0  0
    1.6435    2.5475   -2.6891 H   0  0  0  0  0  0  0  0  0  0  0  0
    3.3657    2.2477   -2.3759 H   0  0  0  0  0  0  0  0  0  0  0  0
    2.1614    0.4043   -2.7394 C   0  0  0  0  0  0  0  0  0  0  0  0
    1.2705    0.3533   -3.3935 H   0  0  0  0  0  0  0  0  0  0  0  0
    3.0255    0.0471   -3.3301 H   0  0  0  0  0  0  0  0  0  0  0  0
    1.9222   -0.4833   -1.5079 C   0  0  1  0  0  0  0  0  0  0  0  0
    1.1591   -1.2670   -1.6891 H   0  0  0  0  0  0  0  0  0  0  0  0
    1.2945    2.9488   -0.0985 C   0  0  0  0  0  0  0  0  0  0  0  0
    0.0450    3.3218   -0.6331 C   0  0  0  0  0  0  0  0  0  0  0  0
   -0.3744    2.7451   -1.4718 H   0  0  0  0  0  0  0  0  0  0  0  0
   -0.6669    4.4016   -0.0946 C   0  0  0  0  0  0  0  0  0  0  0  0
   -1.6433    4.6801   -0.5203 H   0  0  0  0  0  0  0  0  0  0  0  0
   -0.1412    5.1225    0.9914 C   0  0  0  0  0  0  0  0  0  0  0  0
   -0.7019    5.9692    1.4155 H   0  0  0  0  0  0  0  0  0  0  0  0
    1.0999    4.7572    1.5329 C   0  0  0  0  0  0  0  0  0  0  0  0
    1.5173    5.3148    2.3849 H   0  0  0  0  0  0  0  0  0  0  0  0
    1.8110    3.6749    0.9890 C   0  0  0  0  0  0  0  0  0  0  0  0
    2.7857    3.3874    1.4153 H   0  0  0  0  0  0  0  0  0  0  0  0
    3.1509   -1.1335   -0.8964 C   0  0  0  0  0  0  0  0  0  0  0  0
    4.4322   -0.5414   -0.9327 C   0  0  0  0  0  0  0  0  0  0  0  0
    4.6018    0.3793   -1.5113 H   0  0  0  0  0  0  0  0  0  0  0  0
    5.5113   -1.1254   -0.2503 C   0  0  0  0  0  0  0  0  0  0  0  0
    6.5046   -0.6525   -0.2917 H   0  0  0  0  0  0  0  0  0  0  0  0
    5.3275   -2.3138    0.4748 C   0  0  0  0  0  0  0  0  0  0  0  0
    6.1743   -2.7710    1.0091 H   0  0  0  0  0  0  0  0  0  0  0  0
    4.0617   -2.9200    0.5038 C   0  0  0  0  0  0  0  0  0  0  0  0
    3.9115   -3.8578    1.0603 H   0  0  0  0  0  0  0  0  0  0  0  0
    2.9825   -2.3361   -0.1760 C   0  0  0  0  0  0  0  0  0  0  0  0
    1.9834   -2.8051   -0.1592 H   0  0  0  0  0  0  0  0  0  0  0  0
  1  2  1  0  0  0  0
  1  8  1  0  0  0  0
  3  5  1  0  0  0  0
  3  6  1  0  0  0  0
  4  3  1  1  0  0  0
  5  1  1  0  0  0  0
  6  2  2  0  0  0  0
  7  6  1  0  0  0  0
  8 11  1  0  0  0  0
  8 10  1  0  0  0  0
  9  8  1  0  0  0  0
 12  4  1  0  0  0  0
 12 13  1  1  0  0  0
 12 22  1  0  0  0  0
 14 12  1  0  0  0  0
 15 14  1  0  0  0  0
 16 14  1  0  0  0  0
 17 14  1  0  0  0  0
 17 20  1  0  0  0  0
 18 17  1  0  0  0  0
 19 17  1  0  0  0  0
 20 21  1  6  0  0  0
 20 33  1  0  0  0  0
 20  4  1  0  0  0  0
 22 31  1  0  0  0  0
 23 22  2  0  0  0  0
 23 25  1  0  0  0  0
 24 23  1  0  0  0  0
 25 27  2  0  0  0  0
 26 25  1  0  0  0  0
 27 28  1  0  0  0  0
 27 29  1  0  0  0  0
 29 30  1  0  0  0  0
 31 32  1  0  0  0  0
 31 29  2  0  0  0  0
 33 42  1  0  0  0  0
 34 33  2  0  0  0  0
 34 36  1  0  0  0  0
 35 34  1  0  0  0  0
 36 38  2  0  0  0  0
 37 36  1  0  0  0  0
 38 40  1  0  0  0  0
 38 39  1  0  0  0  0
 40 41  1  0  0  0  0
 42 43  1  0  0  0  0
 42 40  2  0  0  0  0
M  END
