6
q = 0.0, confidence = 0.968

 33 34  0  0  1  0  0  0  0  0999 V2000
    2.9549   -0.8351   -1.6921 O   0  0  0  0  0  0  0  0  0  0  0  0
    2.0070    3.5952   -0.5825 O   0  0  0  0  0  0  0  0  0  0  0  0
    3.7255   -1.3674    2.2828 O   0  0  0  0  0  0  0  0  0  0  0  0
    2.5426    1.4292   -1.2190 N   0  0  0  0  0  0  0  0  0  0  0  0
    2.6846    0.1028   -0.6588 C   0  0  1  0  0  0  0  0  0  0  0  0
    1.4561   -0.3416    0.1449 C   0  0  0  0  0  3  0  0  0  0  0  0
    1.1364    0.6526    1.1646 C   0  0  0  0  0  3  0  0  0  0  0  0
    2.0970    1.8506    1.1004 C   0  0  2  0  0  0  0  0  0  0  0  0
    1.8281    2.6905    1.7697 H   0  0  0  0  0  0  0  0  0  0  0  0
    2.2084    2.2900   -0.3247 C   0  0  0  0  0  0  0  0  0  0  0  0
    3.8777    0.1768    0.4315 C   0  0  1  0  0  0  0  0  0  0  0  0
    4.7962    0.4283   -0.1382 H   0  0  0  0  0  0  0  0  0  0  0  0
    3.5162    1.2935    1.4353 C   0  0  0  0  0  0  0  0  0  0  0  0
    3.5033    0.8619    2.4552 H   0  0  0  0  0  0  0  0  0  0  0  0
    4.2605    2.1144    1.4079 H   0  0  0  0  0  0  0  0  0  0  0  0
    4.0911   -1.1707    1.1283 C   0  0  0  0  0  0  0  0  0  0  0  0
    4.7489   -2.2719    0.3172 C   0  0  0  0  0  0  0  0  0  0  0  0
    5.6962   -1.8689   -0.1067 H   0  0  0  0  0  0  0  0  0  0  0  0
    4.0920   -2.4232   -0.5686 H   0  0  0  0  0  0  0  0  0  0  0  0
    4.9730   -3.5619    1.0954 C   0  0  0  0  0  0  0  0  0  0  0  0
    5.4349   -4.3399    0.4562 H   0  0  0  0  0  0  0  0  0  0  0  0
    4.0140   -3.9548    1.4862 H   0  0  0  0  0  0  0  0  0  0  0  0
    5.6296   -3.3939    1.9720 H   0  0  0  0  0  0  0  0  0  0  0  0
    2.1754    3.9973   -1.9503 C   0  0  0  0  0  0  0  0  0  0  0  0
    1.9902    5.0867   -1.9694 H   0  0  0  0  0  0  0  0  0  0  0  0
    1.4511    3.4621   -2.5942 H   0  0  0  0  0  0  0  0  0  0  0  0
    3.2060    3.7728   -2.2941 H   0  0  0  0  0  0  0  0  0  0  0  0
    3.9485   -0.4608   -2.6325 C   0  0  0  0  0  0  0  0  0  0  0  0
    3.9029   -1.2021   -3.4537 H   0  0  0  0  0  0  0  0  0  0  0  0
    4.9738   -0.4872   -2.1937 H   0  0  0  0  0  0  0  0  0  0  0  0
    3.7569    0.5571   -3.0290 H   0  0  0  0  0  0  0  0  0  0  0  0
    1.5251   -1.3991    0.4606 H   0  0  0  0  0  0  0  0  0  0  0  0
    1.0378    0.2889    2.2031 H   0  0  0  0  0  0  0  0  0  0  0  0
  2 10  1  0  0  0  0
  4  5  1  0  0  0  0
  4 10  2  0  0  0  0
  5  1  1  6  0  0  0
  5  6  1  0  0  0  0
  5 11  1  0  0  0  0
  6 32  1  0  0  0  0
  6  7  1  0  0  0  0
  7 33  1  0  0  0  0
  8  7  1  0  0  0  0
  8 13  1  0  0  0  0
  8  9  1  1  0  0  0
 10  8  1  0  0  0  0
 11 12  1  6  0  0  0
 11 16  1  0  0  0  0
 11 13  1  0  0  0  0
 13 14  1  0  0  0  0
 15 13  1  0  0  0  0
 16  3  2  0  0  0  0
 17 20  1  0  0  0  0
 17 16  1  0  0  0  0
 18 17  1  0  0  0  0
 19 17  1  0  0  0  0
 20 22  1  0  0  0  0
 20 23  1  0  0  0  0
 21 20  1  0  0  0  0
 24  2  1  0  0  0  0
 25 24  1  0  0  0  0
 26 24  1  0  0  0  0
 27 24  1  0  0  0  0
 28 30  1  0  0  0  0
 28  1  1  0  0  0  0
 29 28  1  0  0  0  0
 31 28  1  0  0  0  0
M  END
