9
q = 0.0, confidence = 0.97

 37 38  0  0  1  0  0  0  0  0999 V2000
    2.0470    1.6318    2.1699 O   0  0  0  0  0  0  0  0  0  0  0  0
    1.5803   -3.0229    2.0929 O   0  0  0  0  0  0  0  0  0  0  0  0
    3.4393    1.5934   -1.3087 O   0  0  0  0  0  0  0  0  0  0  0  0
    4.5307    2.3180    0.5375 O   0  0  0  0  0  0  0  0  0  0  0  0
    3.1981   -1.5154   -2.4802 O   0  0  0  0  0  0  0  0  0  0  0  0
    5.1279   -0.6910   -1.6247 O   0  0  0  0  0  0  0  0  0  0  0  0
    1.8424   -0.7229    2.2647 N   0  0  0  0  0  0  0  0  0  0  0  0
    2.0486    0.4361    1.4203 C   0  0  1  0  0  0  0  0  0  0  0  0
    1.0223    0.5407    0.2922 C   0  0  0  0  0  3  0  0  0  0  0  0
    1.0048   -0.6862   -0.4940 C   0  0  0  0  0  3  0  0  0  0  0  0
    1.9672   -1.7314    0.0813 C   0  0  2  0  0  0  0  0  0  0  0  0
    1.7692   -1.8002    1.5662 C   0  0  0  0  0  0  0  0  0  0  0  0
    3.4840    0.2074    0.6969 C   0  0  1  0  0  0  0  0  0  0  0  0
    4.2376    0.1467    1.5027 H   0  0  0  0  0  0  0  0  0  0  0  0
    3.4091   -1.1498   -0.0681 C   0  0  2  0  0  0  0  0  0  0  0  0
    4.1261   -1.8430    0.4220 H   0  0  0  0  0  0  0  0  0  0  0  0
    2.8928    1.6654    3.3088 C   0  0  0  0  0  0  0  0  0  0  0  0
    2.7950    0.7343    3.9057 H   0  0  0  0  0  0  0  0  0  0  0  0
    2.5667    2.5289    3.9212 H   0  0  0  0  0  0  0  0  0  0  0  0
    3.9582    1.8194    3.0254 H   0  0  0  0  0  0  0  0  0  0  0  0
    1.4274   -3.0738    3.5196 C   0  0  0  0  0  0  0  0  0  0  0  0
    2.3259   -2.6571    4.0193 H   0  0  0  0  0  0  0  0  0  0  0  0
    1.3038   -4.1427    3.7712 H   0  0  0  0  0  0  0  0  0  0  0  0
    0.5363   -2.4919    3.8241 H   0  0  0  0  0  0  0  0  0  0  0  0
    3.8062    1.4066   -0.1594 C   0  0  0  0  0  0  0  0  0  0  0  0
    4.7695    3.5545   -0.1408 C   0  0  0  0  0  0  0  0  0  0  0  0
    5.2987    3.3844   -1.1002 H   0  0  0  0  0  0  0  0  0  0  0  0
    5.3886    4.1650    0.5404 H   0  0  0  0  0  0  0  0  0  0  0  0
    3.8131    4.0717   -0.3595 H   0  0  0  0  0  0  0  0  0  0  0  0
    3.8481   -1.1247   -1.5260 C   0  0  0  0  0  0  0  0  0  0  0  0
    5.6102   -0.5002   -2.9586 C   0  0  0  0  0  0  0  0  0  0  0  0
    5.4731   -1.4162   -3.5668 H   0  0  0  0  0  0  0  0  0  0  0  0
    6.6821   -0.2495   -2.8667 H   0  0  0  0  0  0  0  0  0  0  0  0
    5.0600    0.3341   -3.4398 H   0  0  0  0  0  0  0  0  0  0  0  0
    1.1032    1.4970   -0.2536 H   0  0  0  0  0  0  0  0  0  0  0  0
    1.1402   -0.5938   -1.5818 H   0  0  0  0  0  0  0  0  0  0  0  0
    1.9047   -2.7253   -0.3976 H   0  0  0  0  0  0  0  0  0  0  0  0
  1 17  1  0  0  0  0
  2 21  1  0  0  0  0
  3 25  2  0  0  0  0
  5 30  2  0  0  0  0
  6 30  1  0  0  0  0
  8  1  1  1  0  0  0
  8  7  1  0  0  0  0
  9  8  1  0  0  0  0
 10 11  1  0  0  0  0
 10  9  1  0  0  0  0
 11 37  1  6  0  0  0
 11 12  1  0  0  0  0
 12  2  1  0  0  0  0
 12  7  2  0  0  0  0
 13  8  1  0  0  0  0
 13 14  1  1  0  0  0
 15 11  1  0  0  0  0
 15 16  1  1  0  0  0
 15 13  1  0  0  0  0
 17 18  1  0  0  0  0
 17 19  1  0  0  0  0
 20 17  1  0  0  0  0
 21 23  1  0  0  0  0
 21 24  1  0  0  0  0
 21 22  1  0  0  0  0
 25  4  1  0  0  0  0
 25 13  1  0  0  0  0
 26  4  1  0  0  0  0
 26 28  1  0  0  0  0
 27 26  1  0  0  0  0
 29 26  1  0  0  0  0
 30 15  1  0  0  0  0
 31 33  1  0  0  0  0
 31  6  1  0  0  0  0
 32 31  1  0  0  0  0
 34 31  1  0  0  0  0
 35  9  1  0  0  0  0
 36 10  1  0  0  0  0
M  END
