9
q = 0.0, confidence = 0.924

 74 75  0  0  1  0  0  0  0  0999 V2000
    3.4210   -1.4525   -1.4784 O   0  0  0  0  0  0  0  0  0  0  0  0
    3.6740   -0.0646    0.3421 O   0  0  0  0  0  0  0  0  0  0  0  0
   -3.7677    0.1253    0.0924 O   0  0  0  0  0  0  0  0  0  0  0  0
   -3.3486   -1.5778   -1.4013 O   0  0  0  0  0  0  0  0  0  0  0  0
    2.8241   -0.5209   -0.6515 B   0  0  0  0  0  0  0  0  0  0  0  0
   -2.8457   -0.4664   -0.7519 B   0  0  0  0  0  0  0  0  0  0  0  0
    1.3445   -0.0980   -0.8503 C   0  0  0  0  0  3  0  0  0  0  0  0
    0.9025   -0.5144   -1.7699 H   0  0  0  0  0  0  0  0  0  0  0  0
    0.7187    1.0796   -0.2840 C   0  0  1  0  0  3  0  0  0  0  0  0
   -0.7263    1.1146   -0.3273 C   0  0  1  0  0  3  0  0  0  0  0  0
   -1.3671   -0.0356   -0.9298 C   0  0  0  0  0  3  0  0  0  0  0  0
   -0.8863   -0.4881   -1.8118 H   0  0  0  0  0  0  0  0  0  0  0  0
    4.8365   -1.4864   -1.1395 C   0  0  0  0  0  0  0  0  0  0  0  0
    4.8389   -0.9413    0.3431 C   0  0  0  0  0  0  0  0  0  0  0  0
    5.3463   -2.9150   -1.2987 C   0  0  0  0  0  0  0  0  0  0  0  0
    5.3016   -3.2115   -2.3650 H   0  0  0  0  0  0  0  0  0  0  0  0
    4.7341   -3.6313   -0.7212 H   0  0  0  0  0  0  0  0  0  0  0  0
    6.3999   -2.9955   -0.9634 H   0  0  0  0  0  0  0  0  0  0  0  0
    5.5501   -0.5478   -2.1201 C   0  0  0  0  0  0  0  0  0  0  0  0
    5.3127   -0.8632   -3.1546 H   0  0  0  0  0  0  0  0  0  0  0  0
    6.6495   -0.5752   -1.9895 H   0  0  0  0  0  0  0  0  0  0  0  0
    5.2059    0.4979   -1.9935 H   0  0  0  0  0  0  0  0  0  0  0  0
    4.5727   -2.0357    1.3830 C   0  0  0  0  0  0  0  0  0  0  0  0
    4.3528   -1.5597    2.3575 H   0  0  0  0  0  0  0  0  0  0  0  0
    5.4465   -2.7052    1.5042 H   0  0  0  0  0  0  0  0  0  0  0  0
    3.6944   -2.6497    1.1021 H   0  0  0  0  0  0  0  0  0  0  0  0
    6.0678   -0.1254    0.7290 C   0  0  0  0  0  0  0  0  0  0  0  0
    5.9706    0.2221    1.7763 H   0  0  0  0  0  0  0  0  0  0  0  0
    6.1872    0.7652    0.0857 H   0  0  0  0  0  0  0  0  0  0  0  0
    6.9857   -0.7427    0.6570 H   0  0  0  0  0  0  0  0  0  0  0  0
    1.5595    2.1828    0.3157 C   0  0  0  0  0  0  0  0  0  0  0  0
    2.3974    1.7220    0.8723 H   0  0  0  0  0  0  0  0  0  0  0  0
    0.9768    2.7814    1.0434 H   0  0  0  0  0  0  0  0  0  0  0  0
    2.1282    3.1086   -0.7758 C   0  0  0  0  0  0  0  0  0  0  0  0
    2.6148    2.4841   -1.5582 H   0  0  0  0  0  0  0  0  0  0  0  0
    1.2892    3.6312   -1.2841 H   0  0  0  0  0  0  0  0  0  0  0  0
    3.1378    4.1374   -0.2485 C   0  0  0  0  0  0  0  0  0  0  0  0
    3.3272    4.8915   -1.0426 H   0  0  0  0  0  0  0  0  0  0  0  0
    2.6786    4.6996    0.5953 H   0  0  0  0  0  0  0  0  0  0  0  0
    4.4710    3.5318    0.1983 C   0  0  0  0  0  0  0  0  0  0  0  0
    5.1636    4.3098    0.5780 H   0  0  0  0  0  0  0  0  0  0  0  0
    4.9746    3.0178   -0.6476 H   0  0  0  0  0  0  0  0  0  0  0  0
    4.3399    2.7779    1.0002 H   0  0  0  0  0  0  0  0  0  0  0  0
   -1.5388    2.2537    0.2427 C   0  0  0  0  0  0  0  0  0  0  0  0
   -0.9784    2.7812    1.0401 H   0  0  0  0  0  0  0  0  0  0  0  0
   -2.4507    1.8358    0.7085 H   0  0  0  0  0  0  0  0  0  0  0  0
   -1.9466    3.2580   -0.8504 C   0  0  0  0  0  0  0  0  0  0  0  0
   -2.4698    2.7086   -1.6645 H   0  0  0  0  0  0  0  0  0  0  0  0
   -1.0308    3.6869   -1.3120 H   0  0  0  0  0  0  0  0  0  0  0  0
   -2.8442    4.3933   -0.3396 C   0  0  0  0  0  0  0  0  0  0  0  0
   -2.3371    4.9028    0.5103 H   0  0  0  0  0  0  0  0  0  0  0  0
   -2.9359    5.1615   -1.1375 H   0  0  0  0  0  0  0  0  0  0  0  0
   -4.2438    3.9448    0.0891 C   0  0  0  0  0  0  0  0  0  0  0  0
   -4.8507    4.8000    0.4489 H   0  0  0  0  0  0  0  0  0  0  0  0
   -4.2101    3.1930    0.9035 H   0  0  0  0  0  0  0  0  0  0  0  0
   -4.7874    3.4797   -0.7597 H   0  0  0  0  0  0  0  0  0  0  0  0
   -5.0404   -0.5586   -0.0957 C   0  0  0  0  0  0  0  0  0  0  0  0
   -4.5887   -1.9360   -0.7295 C   0  0  0  0  0  0  0  0  0  0  0  0
   -5.8701    0.3011   -1.0551 C   0  0  0  0  0  0  0  0  0  0  0  0
   -5.3801    0.3828   -2.0452 H   0  0  0  0  0  0  0  0  0  0  0  0
   -5.9627    1.3207   -0.6335 H   0  0  0  0  0  0  0  0  0  0  0  0
   -6.8883   -0.1107   -1.1981 H   0  0  0  0  0  0  0  0  0  0  0  0
   -5.7317   -0.6711    1.2597 C   0  0  0  0  0  0  0  0  0  0  0  0
   -6.0187    0.3374    1.6171 H   0  0  0  0  0  0  0  0  0  0  0  0
   -5.0635   -1.1198    2.0168 H   0  0  0  0  0  0  0  0  0  0  0  0
   -6.6530   -1.2827    1.1830 H   0  0  0  0  0  0  0  0  0  0  0  0
   -4.2281   -2.9897    0.3258 C   0  0  0  0  0  0  0  0  0  0  0  0
   -3.5497   -2.5728    1.0954 H   0  0  0  0  0  0  0  0  0  0  0  0
   -3.7013   -3.8265   -0.1724 H   0  0  0  0  0  0  0  0  0  0  0  0
   -5.1280   -3.3903    0.8318 H   0  0  0  0  0  0  0  0  0  0  0  0
   -5.5551   -2.5183   -1.7557 C   0  0  0  0  0  0  0  0  0  0  0  0
   -5.1509   -3.4719   -2.1481 H   0  0  0  0  0  0  0  0  0  0  0  0
   -5.7030   -1.8341   -2.6111 H   0  0  0  0  0  0  0  0  0  0  0  0
   -6.5403   -2.7276   -1.2929 H   0  0  0  0  0  0  0  0  0  0  0  0
  1 13  1  0  0  0  0
  1  5  1  0  0  0  0
  2 14  1  0  0  0  0
  4  6  1  0  0  0  0
  4 58  1  0  0  0  0
  5  2  1  0  0  0  0
  6  3  1  0  0  0  0
  7  5  1  0  0  0  0
  8  7  1  0  0  0  0
  9  7  1  1  0  0  0
  9 31  1  0  0  0  0
 10 11  1  1  0  0  0
 10  9  1  0  0  0  0
 10 44  1  0  0  0  0
 11  6  1  0  0  0  0
 12 11  1  0  0  0  0
 13 14  1  0  0  0  0
 14 27  1  0  0  0  0
 14 23  1  0  0  0  0
 15 13  1  0  0  0  0
 15 18  1  0  0  0  0
 15 17  1  0  0  0  0
 16 15  1  0  0  0  0
 19 22  1  0  0  0  0
 19 21  1  0  0  0  0
 19 13  1  0  0  0  0
 20 19  1  0  0  0  0
 23 25  1  0  0  0  0
 23 24  1  0  0  0  0
 26 23  1  0  0  0  0
 27 28  1  0  0  0  0
 29 27  1  0  0  0  0
 30 27  1  0  0  0  0
 31 32  1  0  0  0  0
 31 33  1  0  0  0  0
 34 37  1  0  0  0  0
 34 31  1  0  0  0  0
 35 34  1  0  0  0  0
 36 34  1  0  0  0  0
 37 40  1  0  0  0  0
 37 39  1  0  0  0  0
 38 37  1  0  0  0  0
 40 41  1  0  0  0  0
 40 43  1  0  0  0  0
 42 40  1  0  0  0  0
 44 46  1  0  0  0  0
 44 45  1  0  0  0  0
 47 50  1  0  0  0  0
 47 44  1  0  0  0  0
 48 47  1  0  0  0  0
 49 47  1  0  0  0  0
 50 53  1  0  0  0  0
 50 51  1  0  0  0  0
 52 50  1  0  0  0  0
 53 54  1  0  0  0  0
 53 55  1  0  0  0  0
 56 53  1  0  0  0  0
 57  3  1  0  0  0  0
 57 63  1  0  0  0  0
 58 57  1  0  0  0  0
 58 67  1  0  0  0  0
 59 61  1  0  0  0  0
 59 57  1  0  0  0  0
 60 59  1  0  0  0  0
 62 59  1  0  0  0  0
 63 64  1  0  0  0  0
 63 65  1  0  0  0  0
 66 63  1  0  0  0  0
 67 70  1  0  0  0  0
 67 68  1  0  0  0  0
 69 67  1  0  0  0  0
 71 74  1  0  0  0  0
 71 58  1  0  0  0  0
 72 71  1  0  0  0  0
 73 71  1  0  0  0  0
M  END
