8
q = -1.0

  8  7  0  0  0  0  0  0  0  0999 V2000
    4.1391    1.5200    0.1366 O   0  0  0  0  0  0  0  0  0  0  0  0
    4.4220   -0.7379   -0.0626 N   0  0  0  0  0  0  0  0  0  0  0  0
    3.9305   -1.6283   -0.1423 H   0  0  0  0  0  0  0  0  0  0  0  0
    5.8717   -0.7128   -0.0623 C   0  0  0  0  0  0  0  0  0  0  0  0
    6.2974   -1.1218   -1.0045 H   0  0  0  0  0  0  0  0  0  0  0  0
    6.2996   -1.2844    0.7900 H   0  0  0  0  0  0  0  0  0  0  0  0
    6.1749    0.3472    0.0333 H   0  0  0  0  0  0  0  0  0  0  0  0
    3.6457    0.3964    0.0380 C   0  0  0  0  0  3  0  0  0  0  0  0
  2  4  1  0  0  0  0
  2  8  1  0  0  0  0
  3  2  1  0  0  0  0
  4  7  1  0  0  0  0
  4  6  1  0  0  0  0
  5  4  1  0  0  0  0
  8  1  2  0  0  0  0
M  END
