2
q = -1.0

 31 34  0  0  1  0  0  0  0  0999 V2000
   -0.4251    1.2791   -0.9823 C   0  0  2  0  0  3  0  0  0  0  0  0
    0.0456    0.4666   -2.0838 C   0  0  0  0  0  3  0  0  0  0  0  0
   -0.5890   -0.0116   -2.8390 H   0  0  0  0  0  0  0  0  0  0  0  0
    1.4771    0.4327   -2.0200 C   0  0  0  0  0  3  0  0  0  0  0  0
    2.1384   -0.0489   -2.7499 H   0  0  0  0  0  0  0  0  0  0  0  0
    1.9021    1.3410   -0.9585 C   0  0  0  0  0  0  0  0  0  0  0  0
    0.7116    1.8768   -0.3232 C   0  0  0  0  0  0  0  0  0  0  0  0
    0.8087    2.8399    0.7186 C   0  0  0  0  0  0  0  0  0  0  0  0
   -0.1008    3.2395    1.1899 H   0  0  0  0  0  0  0  0  0  0  0  0
    2.0721    3.2754    1.0859 C   0  0  0  0  0  0  0  0  0  0  0  0
    2.1792    4.0423    1.8670 H   0  0  0  0  0  0  0  0  0  0  0  0
    3.2497    2.7530    0.4631 C   0  0  0  0  0  0  0  0  0  0  0  0
    4.2308    3.1348    0.7826 H   0  0  0  0  0  0  0  0  0  0  0  0
    3.1877    1.7913   -0.5323 C   0  0  0  0  0  0  0  0  0  0  0  0
    4.1001    1.4051   -1.0090 H   0  0  0  0  0  0  0  0  0  0  0  0
   -1.8367    1.4375   -0.5818 C   0  0  0  0  0  0  0  0  0  0  0  0
   -2.4515    0.2771   -0.0374 C   0  0  0  0  0  0  0  0  0  0  0  0
   -2.2637   -1.9726    0.5451 C   0  0  0  0  0  0  0  0  0  0  0  0
   -1.6373   -2.8712    0.6254 H   0  0  0  0  0  0  0  0  0  0  0  0
   -3.6437   -2.0587    0.8386 C   0  0  0  0  0  0  0  0  0  0  0  0
   -4.0585   -3.0256    1.1555 H   0  0  0  0  0  0  0  0  0  0  0  0
   -4.4375   -0.9279    0.7306 C   0  0  0  0  0  0  0  0  0  0  0  0
   -5.5098   -0.9587    0.9765 H   0  0  0  0  0  0  0  0  0  0  0  0
   -3.8527    0.2841    0.2717 C   0  0  0  0  0  0  0  0  0  0  0  0
   -4.5813    1.4965    0.0971 C   0  0  0  0  0  0  0  0  0  0  0  0
   -5.6523    1.5110    0.3484 H   0  0  0  0  0  0  0  0  0  0  0  0
   -3.9522    2.6351   -0.3855 C   0  0  0  0  0  0  0  0  0  0  0  0
   -4.5230    3.5658   -0.5167 H   0  0  0  0  0  0  0  0  0  0  0  0
   -2.5781    2.6056   -0.7404 C   0  0  0  0  0  0  0  0  0  0  0  0
   -2.1003    3.5005   -1.1660 H   0  0  0  0  0  0  0  0  0  0  0  0
   -1.6558   -0.8410    0.1609 N   0  0  0  0  0  0  0  0  0  0  0  0
  1 16  1  1  0  0  0
  1  7  1  0  0  0  0
  2  4  1  0  0  0  0
  2  1  1  0  0  0  0
  3  2  1  0  0  0  0
  4  6  1  0  0  0  0
  5  4  1  0  0  0  0
  6 14  2  0  0  0  0
  6  7  1  0  0  0  0
  7  8  2  0  0  0  0
  8 10  1  0  0  0  0
  8  9  1  0  0  0  0
 10 11  1  0  0  0  0
 12 13  1  0  0  0  0
 12 10  2  0  0  0  0
 14 12  1  0  0  0  0
 15 14  1  0  0  0  0
 16 17  1  0  0  0  0
 17 31  2  0  0  0  0
 17 24  1  0  0  0  0
 18 19  1  0  0  0  0
 18 20  2  0  0  0  0
 20 21  1  0  0  0  0
 22 20  1  0  0  0  0
 22 23  1  0  0  0  0
 24 22  2  0  0  0  0
 25 24  1  0  0  0  0
 25 26  1  0  0  0  0
 27 25  2  0  0  0  0
 28 27  1  0  0  0  0
 29 16  2  0  0  0  0
 29 27  1  0  0  0  0
 30 29  1  0  0  0  0
 31 18  1  0  0  0  0
M  END
