3
q = 0.0, confidence = 0.958

 13 12  0  0  1  0  0  0  0  0999 V2000
   -4.0169    2.6779    1.0544 O   0  0  0  0  0  0  0  0  0  0  0  0
   -1.3939    1.0072    1.4753 C   0  0  0  0  0  3  0  0  0  0  0  0
   -2.7073    0.6658    1.0200 C   0  0  0  0  0  3  0  0  0  0  0  0
   -3.5481    1.6446    0.1996 C   0  0  1  0  0  0  0  0  0  0  0  0
   -4.6850    0.9692   -0.5624 C   0  0  0  0  0  0  0  0  0  0  0  0
   -0.9692    1.9903    1.2170 H   0  0  0  0  0  0  0  0  0  0  0  0
   -1.0481    0.6421    2.4567 H   0  0  0  0  0  0  0  0  0  0  0  0
   -3.3190    0.0416    1.6981 H   0  0  0  0  0  0  0  0  0  0  0  0
   -2.8771    2.1596   -0.5225 H   0  0  0  0  0  0  0  0  0  0  0  0
   -5.2894    1.7253   -1.0989 H   0  0  0  0  0  0  0  0  0  0  0  0
   -4.3081    0.2347   -1.3016 H   0  0  0  0  0  0  0  0  0  0  0  0
   -5.3560    0.4275    0.1395 H   0  0  0  0  0  0  0  0  0  0  0  0
   -4.7719    2.3259    1.5643 H   0  0  0  0  0  0  0  0  0  0  0  0
  1 13  1  0  0  0  0
  2  7  1  0  0  0  0
  3  2  1  0  0  0  0
  3  8  1  0  0  0  0
  4  9  1  6  0  0  0
  4  3  1  0  0  0  0
  4  1  1  0  0  0  0
  5 12  1  0  0  0  0
  5  4  1  0  0  0  0
  6  2  1  0  0  0  0
 10  5  1  0  0  0  0
 11  5  1  0  0  0  0
M  END
