1
q = 0.0, confidence = 0.988

 71 74  0  0  0  0  0  0  0  0999 V2000
    0.1108    0.1640    0.0060 C   0  0  0  0  0  2  0  0  0  0  0  0
    1.2794   -0.4518    0.3444 N   0  0  0  0  0  0  0  0  0  0  0  0
   -0.7942   -0.8074   -0.3075 N   0  0  0  0  0  0  0  0  0  0  0  0
    1.1315   -1.8386    0.2542 C   0  0  0  0  0  0  0  0  0  0  0  0
   -0.2028   -2.0682   -0.1810 C   0  0  0  0  0  0  0  0  0  0  0  0
   -0.6847   -3.3714   -0.3915 C   0  0  0  0  0  0  0  0  0  0  0  0
   -1.7148   -3.5523   -0.7205 H   0  0  0  0  0  0  0  0  0  0  0  0
    0.2015   -4.4304   -0.1508 C   0  0  0  0  0  0  0  0  0  0  0  0
   -0.1472   -5.4622   -0.3057 H   0  0  0  0  0  0  0  0  0  0  0  0
    1.5239   -4.2023    0.2866 C   0  0  0  0  0  0  0  0  0  0  0  0
    2.1909   -5.0587    0.4648 H   0  0  0  0  0  0  0  0  0  0  0  0
    2.0133   -2.9056    0.4956 C   0  0  0  0  0  0  0  0  0  0  0  0
    3.0457   -2.7295    0.8205 H   0  0  0  0  0  0  0  0  0  0  0  0
    2.4605    0.2985    0.8035 C   0  0  0  0  0  0  0  0  0  0  0  0
    2.3755    0.4150    1.8983 H   0  0  0  0  0  0  0  0  0  0  0  0
    2.3379    1.3190    0.3842 H   0  0  0  0  0  0  0  0  0  0  0  0
    3.7775   -0.3184    0.3866 C   0  0  0  0  0  0  0  0  0  0  0  0
    4.0718   -0.4471   -0.9886 C   0  0  0  0  0  0  0  0  0  0  0  0
    5.2637   -1.1066   -1.3935 C   0  0  0  0  0  0  0  0  0  0  0  0
    6.1822   -1.5540   -0.4142 C   0  0  0  0  0  0  0  0  0  0  0  0
    5.8990   -1.3822    0.9728 C   0  0  0  0  0  0  0  0  0  0  0  0
    4.6807   -0.7862    1.3802 C   0  0  0  0  0  0  0  0  0  0  0  0
    3.1240    0.0809   -2.0382 C   0  0  0  0  0  0  0  0  0  0  0  0
    3.6695    0.5248   -2.8928 H   0  0  0  0  0  0  0  0  0  0  0  0
    2.4311    0.8556   -1.6642 H   0  0  0  0  0  0  0  0  0  0  0  0
    2.4856   -0.7275   -2.4581 H   0  0  0  0  0  0  0  0  0  0  0  0
    5.4945   -1.3029   -2.8747 C   0  0  0  0  0  0  0  0  0  0  0  0
    4.5876   -1.7069   -3.3676 H   0  0  0  0  0  0  0  0  0  0  0  0
    6.3224   -1.9973   -3.0980 H   0  0  0  0  0  0  0  0  0  0  0  0
    5.7243   -0.3424   -3.3849 H   0  0  0  0  0  0  0  0  0  0  0  0
    7.4921   -2.2106   -0.7839 C   0  0  0  0  0  0  0  0  0  0  0  0
    7.5693   -3.2352   -0.3622 H   0  0  0  0  0  0  0  0  0  0  0  0
    8.3532   -1.6453   -0.3694 H   0  0  0  0  0  0  0  0  0  0  0  0
    7.6506   -2.2880   -1.8723 H   0  0  0  0  0  0  0  0  0  0  0  0
    6.9382   -1.8633    1.9596 C   0  0  0  0  0  0  0  0  0  0  0  0
    6.6712   -1.6672    3.0113 H   0  0  0  0  0  0  0  0  0  0  0  0
    7.9183   -1.3745    1.7781 H   0  0  0  0  0  0  0  0  0  0  0  0
    7.1198   -2.9549    1.8632 H   0  0  0  0  0  0  0  0  0  0  0  0
    4.3000   -0.6512    2.8407 C   0  0  0  0  0  0  0  0  0  0  0  0
    5.0357   -1.1135    3.5196 H   0  0  0  0  0  0  0  0  0  0  0  0
    3.3245   -1.1364    3.0522 H   0  0  0  0  0  0  0  0  0  0  0  0
    4.1995    0.4106    3.1479 H   0  0  0  0  0  0  0  0  0  0  0  0
   -2.1549   -0.4927   -0.7737 C   0  0  0  0  0  0  0  0  0  0  0  0
   -2.1063   -0.3349   -1.8658 H   0  0  0  0  0  0  0  0  0  0  0  0
   -2.3844    0.5040   -0.3437 H   0  0  0  0  0  0  0  0  0  0  0  0
   -3.1972   -1.5141   -0.3795 C   0  0  0  0  0  0  0  0  0  0  0  0
   -3.4687   -1.7337    0.9949 C   0  0  0  0  0  0  0  0  0  0  0  0
   -4.3912   -2.7449    1.3567 C   0  0  0  0  0  0  0  0  0  0  0  0
   -5.0974   -3.4616    0.3543 C   0  0  0  0  0  0  0  0  0  0  0  0
   -4.8800   -3.1788   -1.0183 C   0  0  0  0  0  0  0  0  0  0  0  0
   -3.8805   -2.2400   -1.3867 C   0  0  0  0  0  0  0  0  0  0  0  0
   -2.7529   -0.9238    2.0508 C   0  0  0  0  0  0  0  0  0  0  0  0
   -2.3839    0.0506    1.6825 H   0  0  0  0  0  0  0  0  0  0  0  0
   -1.8600   -1.4562    2.4447 H   0  0  0  0  0  0  0  0  0  0  0  0
   -3.4054   -0.7069    2.9173 H   0  0  0  0  0  0  0  0  0  0  0  0
   -4.6472   -3.0923    2.8043 C   0  0  0  0  0  0  0  0  0  0  0  0
   -5.7095   -2.9296    3.0861 H   0  0  0  0  0  0  0  0  0  0  0  0
   -4.0224   -2.5097    3.5018 H   0  0  0  0  0  0  0  0  0  0  0  0
   -4.4407   -4.1658    2.9994 H   0  0  0  0  0  0  0  0  0  0  0  0
   -6.0665   -4.5308    0.8031 C   0  0  0  0  0  0  0  0  0  0  0  0
   -5.5657   -5.2655    1.4674 H   0  0  0  0  0  0  0  0  0  0  0  0
   -6.5083   -5.0994   -0.0325 H   0  0  0  0  0  0  0  0  0  0  0  0
   -6.9020   -4.1035    1.3983 H   0  0  0  0  0  0  0  0  0  0  0  0
   -5.6924   -3.8687   -2.0950 C   0  0  0  0  0  0  0  0  0  0  0  0
   -6.6725   -4.2134   -1.7195 H   0  0  0  0  0  0  0  0  0  0  0  0
   -5.1737   -4.7596   -2.5131 H   0  0  0  0  0  0  0  0  0  0  0  0
   -5.9001   -3.1904   -2.9439 H   0  0  0  0  0  0  0  0  0  0  0  0
   -3.5287   -2.0342   -2.8466 C   0  0  0  0  0  0  0  0  0  0  0  0
   -2.4326   -1.9879   -3.0002 H   0  0  0  0  0  0  0  0  0  0  0  0
   -3.9459   -1.0876   -3.2533 H   0  0  0  0  0  0  0  0  0  0  0  0
   -3.9030   -2.8542   -3.4837 H   0  0  0  0  0  0  0  0  0  0  0  0
  1  2  1  0  0  0  0
  2 14  1  0  0  0  0
  3  5  1  0  0  0  0
  3  1  1  0  0  0  0
  4  2  1  0  0  0  0
  4 12  1  0  0  0  0
  5  4  2  0  0  0  0
  6  5  1  0  0  0  0
  6  8  2  0  0  0  0
  7  6  1  0  0  0  0
  8 10  1  0  0  0  0
  9  8  1  0  0  0  0
 10 11  1  0  0  0  0
 10 12  2  0  0  0  0
 12 13  1  0  0  0  0
 14 15  1  0  0  0  0
 16 14  1  0  0  0  0
 17 14  1  0  0  0  0
 17 22  1  0  0  0  0
 18 17  2  0  0  0  0
 19 18  1  0  0  0  0
 19 20  2  0  0  0  0
 20 21  1  0  0  0  0
 21 22  2  0  0  0  0
 21 35  1  0  0  0  0
 22 39  1  0  0  0  0
 23 25  1  0  0  0  0
 23 18  1  0  0  0  0
 24 23  1  0  0  0  0
 26 23  1  0  0  0  0
 27 19  1  0  0  0  0
 28 27  1  0  0  0  0
 29 27  1  0  0  0  0
 30 27  1  0  0  0  0
 31 20  1  0  0  0  0
 31 33  1  0  0  0  0
 31 32  1  0  0  0  0
 34 31  1  0  0  0  0
 35 36  1  0  0  0  0
 37 35  1  0  0  0  0
 38 35  1  0  0  0  0
 39 41  1  0  0  0  0
 39 42  1  0  0  0  0
 39 40  1  0  0  0  0
 43 46  1  0  0  0  0
 43 45  1  0  0  0  0
 43  3  1  0  0  0  0
 44 43  1  0  0  0  0
 46 47  1  0  0  0  0
 47 48  2  0  0  0  0
 47 52  1  0  0  0  0
 48 56  1  0  0  0  0
 49 60  1  0  0  0  0
 49 48  1  0  0  0  0
 50 49  2  0  0  0  0
 51 50  1  0  0  0  0
 51 46  2  0  0  0  0
 52 54  1  0  0  0  0
 52 55  1  0  0  0  0
 53 52  1  0  0  0  0
 56 59  1  0  0  0  0
 56 57  1  0  0  0  0
 56 58  1  0  0  0  0
 60 63  1  0  0  0  0
 60 61  1  0  0  0  0
 62 60  1  0  0  0  0
 64 65  1  0  0  0  0
 64 50  1  0  0  0  0
 66 64  1  0  0  0  0
 67 64  1  0  0  0  0
 68 51  1  0  0  0  0
 69 68  1  0  0  0  0
 70 68  1  0  0  0  0
 71 68  1  0  0  0  0
M  END
