6
q = -1.0

 26 28  0  0  0  0  0  0  0  0999 V2000
   -1.0201   -1.1958   -0.3233 N   0  0  0  0  0  0  0  0  0  0  0  0
   -1.5580   -2.0725    0.5808 N   0  0  0  0  0  0  0  0  0  0  0  0
   -2.7983   -1.7392    0.7479 N   0  0  0  0  0  0  0  0  0  0  0  0
    0.9469   -0.7387   -1.8547 C   0  0  0  0  0  3  0  0  0  0  0  0
    0.4524   -0.1450   -2.6303 H   0  0  0  0  0  0  0  0  0  0  0  0
    2.3189   -1.1849   -1.8558 C   0  0  0  0  0  3  0  0  0  0  0  0
    3.0620   -0.9450   -2.6253 H   0  0  0  0  0  0  0  0  0  0  0  0
    2.5320   -2.0077   -0.7076 C   0  0  0  0  0  3  0  0  0  0  0  0
    3.4672   -2.5129   -0.4407 H   0  0  0  0  0  0  0  0  0  0  0  0
    1.2969   -2.0808    0.0356 C   0  0  0  0  0  0  0  0  0  0  0  0
    1.0871   -2.6547    0.9433 H   0  0  0  0  0  0  0  0  0  0  0  0
    0.3310   -1.3098   -0.6883 C   0  0  0  0  0  0  0  0  0  0  0  0
   -1.9571   -0.2841   -0.7274 C   0  0  0  0  0  0  0  0  0  0  0  0
   -1.7265    0.5257   -1.4242 H   0  0  0  0  0  0  0  0  0  0  0  0
   -3.1093   -0.6410   -0.0297 C   0  0  0  0  0  0  0  0  0  0  0  0
   -4.4496   -0.0445   -0.0336 C   0  0  0  0  0  0  0  0  0  0  0  0
   -5.4686   -0.6148    0.7616 C   0  0  0  0  0  0  0  0  0  0  0  0
   -5.2265   -1.4994    1.3678 H   0  0  0  0  0  0  0  0  0  0  0  0
   -6.7536   -0.0586    0.7715 C   0  0  0  0  0  0  0  0  0  0  0  0
   -7.5383   -0.5126    1.3958 H   0  0  0  0  0  0  0  0  0  0  0  0
   -7.0434    1.0728   -0.0087 C   0  0  0  0  0  0  0  0  0  0  0  0
   -8.0538    1.5088    0.0010 H   0  0  0  0  0  0  0  0  0  0  0  0
   -6.0356    1.6467   -0.8013 C   0  0  0  0  0  0  0  0  0  0  0  0
   -6.2536    2.5347   -1.4139 H   0  0  0  0  0  0  0  0  0  0  0  0
   -4.7490    1.0937   -0.8144 C   0  0  0  0  0  0  0  0  0  0  0  0
   -3.9681    1.5557   -1.4375 H   0  0  0  0  0  0  0  0  0  0  0  0
  1  2  1  0  0  0  0
  2  3  2  0  0  0  0
  4 12  1  0  0  0  0
  5  4  1  0  0  0  0
  6  4  1  0  0  0  0
  6  8  1  0  0  0  0
  7  6  1  0  0  0  0
  8  9  1  0  0  0  0
  8 10  1  0  0  0  0
 10 11  1  0  0  0  0
 12  1  1  0  0  0  0
 12 10  2  0  0  0  0
 13  1  1  0  0  0  0
 13 15  2  0  0  0  0
 14 13  1  0  0  0  0
 15  3  1  0  0  0  0
 16 15  1  0  0  0  0
 16 17  1  0  0  0  0
 17 19  2  0  0  0  0
 17 18  1  0  0  0  0
 19 20  1  0  0  0  0
 21 22  1  0  0  0  0
 21 19  1  0  0  0  0
 23 21  2  0  0  0  0
 24 23  1  0  0  0  0
 25 23  1  0  0  0  0
 25 16  2  0  0  0  0
 26 25  1  0  0  0  0
M  END
