4
q = -1.0

 31 31  0  0  0  0  0  0  0  0999 V2000
    1.7546   -1.0641   -0.7476 Si  0  0  0  0  0  0  0  0  0  0  0  0
    0.3694    2.3635   -0.6321 N   0  0  0  0  0  0  0  0  0  0  0  0
    0.5344    0.0173   -0.0962 N   0  0  0  0  0  2  0  0  0  0  0  0
   -0.0807    1.1229   -0.4098 C   0  0  0  0  0  2  0  0  0  0  0  0
    1.7824    2.7086   -0.5597 C   0  0  0  0  0  0  0  0  0  0  0  0
   -0.5583    3.4120   -1.0141 C   0  0  0  0  0  0  0  0  0  0  0  0
    1.7872   -0.9725   -2.6323 C   0  0  0  0  0  0  0  0  0  0  0  0
    1.3364   -2.7990   -0.1552 C   0  0  0  0  0  0  0  0  0  0  0  0
    3.4344   -0.5267   -0.0409 C   0  0  0  0  0  0  0  0  0  0  0  0
    4.5722   -0.3327   -0.8556 C   0  0  0  0  0  0  0  0  0  0  0  0
    5.7977    0.0821   -0.3082 C   0  0  0  0  0  0  0  0  0  0  0  0
    5.9083    0.3125    1.0718 C   0  0  0  0  0  0  0  0  0  0  0  0
    4.7892    0.1267    1.9009 C   0  0  0  0  0  0  0  0  0  0  0  0
    3.5684   -0.2864    1.3470 C   0  0  0  0  0  0  0  0  0  0  0  0
    2.3497    1.8642   -0.1279 H   0  0  0  0  0  0  0  0  0  0  0  0
    1.9266    3.6025    0.0837 H   0  0  0  0  0  0  0  0  0  0  0  0
    2.1933    2.9390   -1.5673 H   0  0  0  0  0  0  0  0  0  0  0  0
   -0.5688    4.2333   -0.2636 H   0  0  0  0  0  0  0  0  0  0  0  0
   -0.2769    3.8474   -1.9976 H   0  0  0  0  0  0  0  0  0  0  0  0
   -1.5669    2.9672   -1.0918 H   0  0  0  0  0  0  0  0  0  0  0  0
    2.5155   -1.6902   -3.0631 H   0  0  0  0  0  0  0  0  0  0  0  0
    2.0589    0.0455   -2.9792 H   0  0  0  0  0  0  0  0  0  0  0  0
    0.7847   -1.2122   -3.0393 H   0  0  0  0  0  0  0  0  0  0  0  0
    2.0823   -3.5350   -0.5176 H   0  0  0  0  0  0  0  0  0  0  0  0
    1.3186   -2.8406    0.9521 H   0  0  0  0  0  0  0  0  0  0  0  0
    0.3338   -3.0874   -0.5301 H   0  0  0  0  0  0  0  0  0  0  0  0
    4.5033   -0.5052   -1.9418 H   0  0  0  0  0  0  0  0  0  0  0  0
    6.6713    0.2278   -0.9627 H   0  0  0  0  0  0  0  0  0  0  0  0
    6.8674    0.6388    1.5029 H   0  0  0  0  0  0  0  0  0  0  0  0
    4.8703    0.3070    2.9842 H   0  0  0  0  0  0  0  0  0  0  0  0
    2.6933   -0.4154    2.0058 H   0  0  0  0  0  0  0  0  0  0  0  0
  1  8  1  0  0  0  0
  1  3  1  0  0  0  0
  1  9  1  0  0  0  0
  2  5  1  0  0  0  0
  2  4  1  0  0  0  0
  4  3  1  0  0  0  0
  5 15  1  0  0  0  0
  5 16  1  0  0  0  0
  6  2  1  0  0  0  0
  6 18  1  0  0  0  0
  7  1  1  0  0  0  0
  8 25  1  0  0  0  0
  9 14  1  0  0  0  0
 10 11  1  0  0  0  0
 10  9  2  0  0  0  0
 11 12  2  0  0  0  0
 12 29  1  0  0  0  0
 12 13  1  0  0  0  0
 13 30  1  0  0  0  0
 14 13  2  0  0  0  0
 14 31  1  0  0  0  0
 17  5  1  0  0  0  0
 19  6  1  0  0  0  0
 20  6  1  0  0  0  0
 21  7  1  0  0  0  0
 22  7  1  0  0  0  0
 23  7  1  0  0  0  0
 24  8  1  0  0  0  0
 26  8  1  0  0  0  0
 27 10  1  0  0  0  0
 28 11  1  0  0  0  0
M  END
