2
q = -1.0

 29 30  0  0  0  0  0  0  0  0999 V2000
   -1.5011   -0.7124   -0.6242 C   0  0  0  0  0  0  0  0  0  0  0  0
   -0.7848   -0.3160   -1.7927 C   0  0  0  0  0  3  0  0  0  0  0  0
   -1.2550    0.9727   -2.1773 C   0  0  0  0  0  0  0  0  0  0  0  0
   -2.2531    1.3669   -1.2391 C   0  0  0  0  0  0  0  0  0  0  0  0
   -2.4285    0.3187   -0.2826 C   0  0  0  0  0  0  0  0  0  0  0  0
   -3.5260    0.1895    0.7741 C   0  0  0  0  0  0  0  0  0  0  0  0
   -4.2961    1.5177    0.9433 C   0  0  0  0  0  0  0  0  0  0  0  0
   -2.9171   -0.2071    2.1326 C   0  0  0  0  0  0  0  0  0  0  0  0
   -4.5267   -0.8743    0.2640 C   0  0  0  0  0  0  0  0  0  0  0  0
   -4.9701   -0.8273   -1.0759 C   0  0  0  0  0  0  0  0  0  0  0  0
   -5.9100   -1.7444   -1.5633 C   0  0  0  0  0  0  0  0  0  0  0  0
   -6.4304   -2.7397   -0.7198 C   0  0  0  0  0  0  0  0  0  0  0  0
   -5.9978   -2.8020    0.6115 C   0  0  0  0  0  0  0  0  0  0  0  0
   -5.0558   -1.8790    1.0971 C   0  0  0  0  0  0  0  0  0  0  0  0
   -1.3981   -1.6730   -0.1054 H   0  0  0  0  0  0  0  0  0  0  0  0
   -0.0136   -0.9034   -2.3045 H   0  0  0  0  0  0  0  0  0  0  0  0
   -0.9107    1.5583   -3.0365 H   0  0  0  0  0  0  0  0  0  0  0  0
   -2.7990    2.3169   -1.2537 H   0  0  0  0  0  0  0  0  0  0  0  0
   -5.0998    1.3918    1.6953 H   0  0  0  0  0  0  0  0  0  0  0  0
   -3.6216    2.3281    1.2809 H   0  0  0  0  0  0  0  0  0  0  0  0
   -4.7763    1.8300   -0.0042 H   0  0  0  0  0  0  0  0  0  0  0  0
   -3.6905   -0.2440    2.9248 H   0  0  0  0  0  0  0  0  0  0  0  0
   -2.1609    0.5411    2.4352 H   0  0  0  0  0  0  0  0  0  0  0  0
   -2.4273   -1.1999    2.0900 H   0  0  0  0  0  0  0  0  0  0  0  0
   -4.5590   -0.0624   -1.7525 H   0  0  0  0  0  0  0  0  0  0  0  0
   -6.2349   -1.6850   -2.6135 H   0  0  0  0  0  0  0  0  0  0  0  0
   -7.1663   -3.4640   -1.1008 H   0  0  0  0  0  0  0  0  0  0  0  0
   -6.3934   -3.5778    1.2852 H   0  0  0  0  0  0  0  0  0  0  0  0
   -4.7376   -1.9535    2.1460 H   0  0  0  0  0  0  0  0  0  0  0  0
  1  5  2  0  0  0  0
  1 15  1  0  0  0  0
  2  1  1  0  0  0  0
  3  2  1  0  0  0  0
  3  4  2  0  0  0  0
  4  5  1  0  0  0  0
  5  6  1  0  0  0  0
  6  7  1  0  0  0  0
  6  8  1  0  0  0  0
  7 20  1  0  0  0  0
  7 19  1  0  0  0  0
  8 23  1  0  0  0  0
  8 22  1  0  0  0  0
  9  6  1  0  0  0  0
  9 14  1  0  0  0  0
 10  9  2  0  0  0  0
 11 10  1  0  0  0  0
 11 12  2  0  0  0  0
 12 13  1  0  0  0  0
 13 14  2  0  0  0  0
 13 28  1  0  0  0  0
 14 29  1  0  0  0  0
 16  2  1  0  0  0  0
 17  3  1  0  0  0  0
 18  4  1  0  0  0  0
 21  7  1  0  0  0  0
 24  8  1  0  0  0  0
 25 10  1  0  0  0  0
 26 11  1  0  0  0  0
 27 12  1  0  0  0  0
M  END
