3
q = -1.0

 78 78  0  0  0  0  0  0  0  0999 V2000
    2.3480   -0.3539   -0.0490 P   0  0  0  0  0  0  0  0  0  0  0  0
   -2.3480   -0.3539   -0.0490 P   0  0  0  0  0  0  0  0  0  0  0  0
    0.0000    0.1239   -1.9772 C   0  0  0  0  0  3  0  0  0  0  0  0
    0.0000    1.3917   -1.2341 C   0  0  0  0  0  0  0  0  0  0  0  0
    1.2587    2.0431   -0.9416 C   0  0  0  0  0  0  0  0  0  0  0  0
    1.2504    3.4008   -0.5656 C   0  0  0  0  0  0  0  0  0  0  0  0
    0.0001    4.0396   -0.4208 C   0  0  0  0  0  0  0  0  0  0  0  0
   -1.2503    3.4008   -0.5655 C   0  0  0  0  0  0  0  0  0  0  0  0
   -1.2586    2.0431   -0.9416 C   0  0  0  0  0  0  0  0  0  0  0  0
    2.5196    4.1880   -0.3527 C   0  0  0  0  0  0  0  0  0  0  0  0
   -2.5194    4.1880   -0.3524 C   0  0  0  0  0  0  0  0  0  0  0  0
    2.5351    1.2383   -1.0378 C   0  0  0  0  0  0  0  0  0  0  0  0
    3.4777   -1.6079   -0.9351 C   0  0  0  0  0  0  0  0  0  0  0  0
    2.9326    0.0571    1.7199 C   0  0  0  0  0  0  0  0  0  0  0  0
    2.7144   -2.0727   -2.1913 C   0  0  0  0  0  0  0  0  0  0  0  0
    4.8218   -0.9864   -1.3529 C   0  0  0  0  0  0  0  0  0  0  0  0
    3.7062   -2.8260   -0.0216 C   0  0  0  0  0  0  0  0  0  0  0  0
    2.1448    1.3046    2.1626 C   0  0  0  0  0  0  0  0  0  0  0  0
    2.5396   -1.1081    2.6495 C   0  0  0  0  0  0  0  0  0  0  0  0
    4.4389    0.3402    1.8096 C   0  0  0  0  0  0  0  0  0  0  0  0
   -2.5350    1.2383   -1.0378 C   0  0  0  0  0  0  0  0  0  0  0  0
   -2.9326    0.0571    1.7199 C   0  0  0  0  0  0  0  0  0  0  0  0
   -3.4778   -1.6078   -0.9352 C   0  0  0  0  0  0  0  0  0  0  0  0
   -2.1446    1.3044    2.1627 C   0  0  0  0  0  0  0  0  0  0  0  0
   -4.4389    0.3406    1.8096 C   0  0  0  0  0  0  0  0  0  0  0  0
   -2.5398   -1.1082    2.6494 C   0  0  0  0  0  0  0  0  0  0  0  0
   -4.8219   -0.9862   -1.3529 C   0  0  0  0  0  0  0  0  0  0  0  0
   -2.7145   -2.0725   -2.1913 C   0  0  0  0  0  0  0  0  0  0  0  0
   -3.7064   -2.8259   -0.0217 C   0  0  0  0  0  0  0  0  0  0  0  0
    0.9071   -0.1208   -2.5507 H   0  0  0  0  0  0  0  0  0  0  0  0
   -0.9071   -0.1207   -2.5507 H   0  0  0  0  0  0  0  0  0  0  0  0
    0.0001    5.1075   -0.1487 H   0  0  0  0  0  0  0  0  0  0  0  0
    2.2973    5.2486   -0.1332 H   0  0  0  0  0  0  0  0  0  0  0  0
    3.1717    4.1599   -1.2489 H   0  0  0  0  0  0  0  0  0  0  0  0
    3.1201    3.7962    0.4952 H   0  0  0  0  0  0  0  0  0  0  0  0
   -2.2971    5.2485   -0.1323 H   0  0  0  0  0  0  0  0  0  0  0  0
   -3.1202    3.7959    0.4951 H   0  0  0  0  0  0  0  0  0  0  0  0
   -3.1713    4.1604   -1.2488 H   0  0  0  0  0  0  0  0  0  0  0  0
    3.4179    1.8116   -0.7019 H   0  0  0  0  0  0  0  0  0  0  0  0
    2.7408    0.9444   -2.0892 H   0  0  0  0  0  0  0  0  0  0  0  0
    1.7248   -2.4980   -1.9345 H   0  0  0  0  0  0  0  0  0  0  0  0
    3.3096   -2.8608   -2.6968 H   0  0  0  0  0  0  0  0  0  0  0  0
    2.5792   -1.2576   -2.9316 H   0  0  0  0  0  0  0  0  0  0  0  0
    4.6995   -0.1389   -2.0561 H   0  0  0  0  0  0  0  0  0  0  0  0
    5.4175   -1.7588   -1.8832 H   0  0  0  0  0  0  0  0  0  0  0  0
    5.4230   -0.6415   -0.4925 H   0  0  0  0  0  0  0  0  0  0  0  0
    2.7502   -3.2508    0.3421 H   0  0  0  0  0  0  0  0  0  0  0  0
    4.3503   -2.5858    0.8455 H   0  0  0  0  0  0  0  0  0  0  0  0
    4.2277   -3.6115   -0.6068 H   0  0  0  0  0  0  0  0  0  0  0  0
    1.0507    1.1638    2.0467 H   0  0  0  0  0  0  0  0  0  0  0  0
    2.4352    2.2132    1.6047 H   0  0  0  0  0  0  0  0  0  0  0  0
    2.3505    1.4948    3.2361 H   0  0  0  0  0  0  0  0  0  0  0  0
    3.0936   -2.0381    2.4336 H   0  0  0  0  0  0  0  0  0  0  0  0
    1.4588   -1.3421    2.5838 H   0  0  0  0  0  0  0  0  0  0  0  0
    2.7667   -0.8166    3.6958 H   0  0  0  0  0  0  0  0  0  0  0  0
    5.0488   -0.5613    1.6117 H   0  0  0  0  0  0  0  0  0  0  0  0
    4.6807    0.6787    2.8390 H   0  0  0  0  0  0  0  0  0  0  0  0
    4.7642    1.1432    1.1173 H   0  0  0  0  0  0  0  0  0  0  0  0
   -2.7407    0.9445   -2.0892 H   0  0  0  0  0  0  0  0  0  0  0  0
   -3.4178    1.8118   -0.7019 H   0  0  0  0  0  0  0  0  0  0  0  0
   -1.0505    1.1634    2.0469 H   0  0  0  0  0  0  0  0  0  0  0  0
   -2.3502    1.4946    3.2363 H   0  0  0  0  0  0  0  0  0  0  0  0
   -2.4347    2.2131    1.6049 H   0  0  0  0  0  0  0  0  0  0  0  0
   -4.7639    1.1437    1.1174 H   0  0  0  0  0  0  0  0  0  0  0  0
   -4.6806    0.6790    2.8390 H   0  0  0  0  0  0  0  0  0  0  0  0
   -5.0489   -0.5608    1.6117 H   0  0  0  0  0  0  0  0  0  0  0  0
   -2.7668   -0.8167    3.6958 H   0  0  0  0  0  0  0  0  0  0  0  0
   -1.4592   -1.3426    2.5837 H   0  0  0  0  0  0  0  0  0  0  0  0
   -3.0942   -2.0381    2.4335 H   0  0  0  0  0  0  0  0  0  0  0  0
   -5.4231   -0.6412   -0.4925 H   0  0  0  0  0  0  0  0  0  0  0  0
   -5.4176   -1.7585   -1.8833 H   0  0  0  0  0  0  0  0  0  0  0  0
   -4.6995   -0.1387   -2.0562 H   0  0  0  0  0  0  0  0  0  0  0  0
   -2.5792   -1.2574   -2.9316 H   0  0  0  0  0  0  0  0  0  0  0  0
   -3.3098   -2.8606   -2.6969 H   0  0  0  0  0  0  0  0  0  0  0  0
   -1.7249   -2.4979   -1.9346 H   0  0  0  0  0  0  0  0  0  0  0  0
   -4.3505   -2.5858    0.8453 H   0  0  0  0  0  0  0  0  0  0  0  0
   -2.7504   -3.2508    0.3419 H   0  0  0  0  0  0  0  0  0  0  0  0
   -4.2279   -3.6114   -0.6071 H   0  0  0  0  0  0  0  0  0  0  0  0
  1 14  1  0  0  0  0
  2 22  1  0  0  0  0
  3  4  1  0  0  0  0
  4  5  2  0  0  0  0
  4  9  1  0  0  0  0
  5  6  1  0  0  0  0
  6  7  2  0  0  0  0
  6 10  1  0  0  0  0
  7 32  1  0  0  0  0
  8  7  1  0  0  0  0
  8 11  1  0  0  0  0
  9  8  2  0  0  0  0
 10 33  1  0  0  0  0
 10 35  1  0  0  0  0
 11 36  1  0  0  0  0
 11 37  1  0  0  0  0
 12  5  1  0  0  0  0
 12 39  1  0  0  0  0
 12  1  1  0  0  0  0
 13  1  1  0  0  0  0
 13 17  1  0  0  0  0
 14 20  1  0  0  0  0
 14 18  1  0  0  0  0
 14 19  1  0  0  0  0
 15 41  1  0  0  0  0
 15 13  1  0  0  0  0
 16 13  1  0  0  0  0
 16 46  1  0  0  0  0
 17 47  1  0  0  0  0
 17 48  1  0  0  0  0
 18 52  1  0  0  0  0
 19 55  1  0  0  0  0
 20 57  1  0  0  0  0
 21  9  1  0  0  0  0
 21 60  1  0  0  0  0
 21  2  1  0  0  0  0
 22 25  1  0  0  0  0
 22 24  1  0  0  0  0
 22 26  1  0  0  0  0
 23  2  1  0  0  0  0
 23 29  1  0  0  0  0
 24 62  1  0  0  0  0
 25 65  1  0  0  0  0
 26 67  1  0  0  0  0
 27 23  1  0  0  0  0
 27 70  1  0  0  0  0
 28 75  1  0  0  0  0
 28 23  1  0  0  0  0
 29 77  1  0  0  0  0
 29 76  1  0  0  0  0
 30  3  1  0  0  0  0
 31  3  1  0  0  0  0
 34 10  1  0  0  0  0
 38 11  1  0  0  0  0
 40 12  1  0  0  0  0
 42 15  1  0  0  0  0
 43 15  1  0  0  0  0
 44 16  1  0  0  0  0
 45 16  1  0  0  0  0
 49 17  1  0  0  0  0
 50 18  1  0  0  0  0
 51 18  1  0  0  0  0
 53 19  1  0  0  0  0
 54 19  1  0  0  0  0
 56 20  1  0  0  0  0
 58 20  1  0  0  0  0
 59 21  1  0  0  0  0
 61 24  1  0  0  0  0
 63 24  1  0  0  0  0
 64 25  1  0  0  0  0
 66 25  1  0  0  0  0
 68 26  1  0  0  0  0
 69 26  1  0  0  0  0
 71 27  1  0  0  0  0
 72 27  1  0  0  0  0
 73 28  1  0  0  0  0
 74 28  1  0  0  0  0
 78 29  1  0  0  0  0
M  END
