2
q = 0.0, confidence = 0.962

 10  9  0  0  0  0  0  0  0  0999 V2000
    1.4338    0.8024   -2.4399 O   0  0  0  0  0  0  0  0  0  0  0  0
    0.2749    0.2050   -2.1328 C   0  0  0  0  0  2  0  0  0  0  0  0
   -0.5394   -0.2774   -3.3018 C   0  0  0  0  0  0  0  0  0  0  0  0
   -0.7693    0.5504   -4.0068 H   0  0  0  0  0  0  0  0  0  0  0  0
   -1.4867   -0.7306   -2.9689 H   0  0  0  0  0  0  0  0  0  0  0  0
    0.0280   -1.0332   -3.8886 H   0  0  0  0  0  0  0  0  0  0  0  0
    1.8975    0.9937   -3.7892 C   0  0  0  0  0  0  0  0  0  0  0  0
    2.0278    0.0237   -4.3099 H   0  0  0  0  0  0  0  0  0  0  0  0
    2.8748    1.4997   -3.6990 H   0  0  0  0  0  0  0  0  0  0  0  0
    1.2000    1.6329   -4.3664 H   0  0  0  0  0  0  0  0  0  0  0  0
  1  2  1  0  0  0  0
  3  5  1  0  0  0  0
  3  2  1  0  0  0  0
  4  3  1  0  0  0  0
  6  3  1  0  0  0  0
  7  9  1  0  0  0  0
  7  1  1  0  0  0  0
  8  7  1  0  0  0  0
 10  7  1  0  0  0  0
M  END
