3
q = 0.0, confidence = 1.0

 23 24  0  0  0  0  0  0  0  0999 V2000
   -1.8953    0.1114   -1.9099 S   0  0  0  0  0  0  0  0  0  0  0  0
   -2.0673   -0.0331    0.6323 N   0  0  0  0  0  0  0  0  0  0  0  0
   -1.1427    0.0192   -0.3515 C   0  0  0  0  0  2  0  0  0  0  0  0
   -3.4071   -0.0013    0.2059 C   0  0  0  0  0  0  0  0  0  0  0  0
   -4.5805   -0.0392    0.9837 C   0  0  0  0  0  0  0  0  0  0  0  0
   -4.5352   -0.1017    2.0770 H   0  0  0  0  0  0  0  0  0  0  0  0
   -5.8191    0.0045    0.3322 C   0  0  0  0  0  0  0  0  0  0  0  0
   -6.7394   -0.0247    0.9338 H   0  0  0  0  0  0  0  0  0  0  0  0
   -5.9064    0.0849   -1.0724 C   0  0  0  0  0  0  0  0  0  0  0  0
   -6.8923    0.1179   -1.5587 H   0  0  0  0  0  0  0  0  0  0  0  0
   -4.7470    0.1235   -1.8559 C   0  0  0  0  0  0  0  0  0  0  0  0
   -4.8035    0.1863   -2.9521 H   0  0  0  0  0  0  0  0  0  0  0  0
   -3.5039    0.0800   -1.2067 C   0  0  0  0  0  0  0  0  0  0  0  0
   -1.6291   -0.1159    2.0557 C   0  0  0  0  0  0  0  0  0  0  0  0
   -0.5223   -0.1182    1.9599 H   0  0  0  0  0  0  0  0  0  0  0  0
   -2.0384   -1.4468    2.6871 C   0  0  0  0  0  0  0  0  0  0  0  0
   -3.1333   -1.5532    2.8129 H   0  0  0  0  0  0  0  0  0  0  0  0
   -1.5755   -1.5237    3.6907 H   0  0  0  0  0  0  0  0  0  0  0  0
   -1.6652   -2.2894    2.0717 H   0  0  0  0  0  0  0  0  0  0  0  0
   -2.0211    1.1412    2.8323 C   0  0  0  0  0  0  0  0  0  0  0  0
   -1.6369    2.0426    2.3147 H   0  0  0  0  0  0  0  0  0  0  0  0
   -1.5569    1.1001    3.8373 H   0  0  0  0  0  0  0  0  0  0  0  0
   -3.1146    1.2468    2.9706 H   0  0  0  0  0  0  0  0  0  0  0  0
  1 13  1  0  0  0  0
  1  3  1  0  0  0  0
  2 14  1  0  0  0  0
  3  2  1  0  0  0  0
  4  2  1  0  0  0  0
  4  5  1  0  0  0  0
  5  6  1  0  0  0  0
  7  8  1  0  0  0  0
  7  5  2  0  0  0  0
  9  7  1  0  0  0  0
 10  9  1  0  0  0  0
 11 13  1  0  0  0  0
 11  9  2  0  0  0  0
 12 11  1  0  0  0  0
 13  4  2  0  0  0  0
 14 16  1  0  0  0  0
 14 20  1  0  0  0  0
 15 14  1  0  0  0  0
 16 17  1  0  0  0  0
 16 18  1  0  0  0  0
 19 16  1  0  0  0  0
 20 23  1  0  0  0  0
 20 22  1  0  0  0  0
 21 20  1  0  0  0  0
M  END
