2
q = -1.0

 17 17  0  0  0  0  0  0  0  0999 V2000
   -1.2383   -3.6668    1.2572 O   0  0  0  0  0  0  0  0  0  0  0  0
   -1.5390   -1.2904    0.4989 C   0  0  0  0  0  3  0  0  0  0  0  0
   -1.1172   -2.5105    0.9199 C   0  0  0  0  0  0  0  0  0  0  0  0
   -2.8164   -0.6524    0.2639 C   0  0  0  0  0  0  0  0  0  0  0  0
   -4.0143   -1.4151    0.2424 C   0  0  0  0  0  0  0  0  0  0  0  0
   -3.9520   -2.5001    0.4185 H   0  0  0  0  0  0  0  0  0  0  0  0
   -5.2468   -0.8067   -0.0079 C   0  0  0  0  0  0  0  0  0  0  0  0
   -6.1614   -1.4214   -0.0312 H   0  0  0  0  0  0  0  0  0  0  0  0
   -5.3448    0.5862   -0.2264 C   0  0  0  0  0  0  0  0  0  0  0  0
   -4.1564    1.3459   -0.1859 C   0  0  0  0  0  0  0  0  0  0  0  0
   -4.2086    2.4343   -0.3500 H   0  0  0  0  0  0  0  0  0  0  0  0
   -2.9156    0.7456    0.0508 C   0  0  0  0  0  0  0  0  0  0  0  0
   -1.9993    1.3511    0.0747 H   0  0  0  0  0  0  0  0  0  0  0  0
   -6.6833    1.2382   -0.4617 C   0  0  0  0  0  0  0  0  0  0  0  0
   -7.3230    0.6285   -1.1316 H   0  0  0  0  0  0  0  0  0  0  0  0
   -6.5751    2.2456   -0.9093 H   0  0  0  0  0  0  0  0  0  0  0  0
   -7.2426    1.3593    0.4915 H   0  0  0  0  0  0  0  0  0  0  0  0
  2  3  2  0  0  0  0
  3  1  2  0  0  0  0
  4  2  1  0  0  0  0
  5  4  1  0  0  0  0
  5  6  1  0  0  0  0
  7  5  2  0  0  0  0
  8  7  1  0  0  0  0
  9 10  2  0  0  0  0
  9  7  1  0  0  0  0
 10 12  1  0  0  0  0
 11 10  1  0  0  0  0
 12 13  1  0  0  0  0
 12  4  2  0  0  0  0
 14  9  1  0  0  0  0
 14 17  1  0  0  0  0
 15 14  1  0  0  0  0
 16 14  1  0  0  0  0
M  END
