5
q = 0.0, confidence = 0.928

 18 18  0  0  0  0  0  0  0  0999 V2000
   -1.5637   -1.8269   -0.4677 C   0  0  0  0  0  3  0  0  0  0  0  0
   -0.5746   -2.0617   -1.4854 C   0  0  0  0  0  3  0  0  0  0  0  0
   -0.0770   -1.2316   -2.5570 C   0  0  0  0  0  0  0  0  0  0  0  0
   -0.2400    0.1443   -2.8980 C   0  0  0  0  0  0  0  0  0  0  0  0
   -1.1305    1.0703   -2.2478 C   0  0  0  0  0  3  0  0  0  0  0  0
   -2.2296    0.6435   -1.4554 C   0  0  0  0  0  3  0  0  0  0  0  0
   -3.1365   -0.5128   -1.8280 C   0  0  0  0  0  0  0  0  0  0  0  0
   -3.0314   -1.5373   -0.7135 C   0  0  0  0  0  0  0  0  0  0  0  0
   -1.4047   -2.4846    0.4085 H   0  0  0  0  0  0  0  0  0  0  0  0
    0.1312   -2.8879   -1.2792 H   0  0  0  0  0  0  0  0  0  0  0  0
    0.8146   -1.6737   -3.0388 H   0  0  0  0  0  0  0  0  0  0  0  0
    0.5105    0.5486   -3.5968 H   0  0  0  0  0  0  0  0  0  0  0  0
   -0.8774    2.1404   -2.3459 H   0  0  0  0  0  0  0  0  0  0  0  0
   -2.7018    1.4165   -0.8257 H   0  0  0  0  0  0  0  0  0  0  0  0
   -2.8161   -0.9651   -2.7894 H   0  0  0  0  0  0  0  0  0  0  0  0
   -4.1789   -0.1580   -1.9687 H   0  0  0  0  0  0  0  0  0  0  0  0
   -3.5685   -2.4871   -0.9421 H   0  0  0  0  0  0  0  0  0  0  0  0
   -3.4821   -1.1355    0.2173 H   0  0  0  0  0  0  0  0  0  0  0  0
  1  9  1  0  0  0  0
  2 10  1  0  0  0  0
  2  1  1  0  0  0  0
  3  2  1  0  0  0  0
  4  3  2  0  0  0  0
  4  5  1  0  0  0  0
  5  6  1  0  0  0  0
  6 14  1  0  0  0  0
  7  6  1  0  0  0  0
  7  8  1  0  0  0  0
  8  1  1  0  0  0  0
  8 18  1  0  0  0  0
 11  3  1  0  0  0  0
 12  4  1  0  0  0  0
 13  5  1  0  0  0  0
 15  7  1  0  0  0  0
 16  7  1  0  0  0  0
 17  8  1  0  0  0  0
M  END
