24
q = -1.0

 27 28  0  0  0  0  0  0  0  0999 V2000
    1.0215    0.0830   -0.2047 P   0  0  0  0  0  0  0  0  0  0  0  0
    2.2432   -1.2615   -0.1181 C   0  0  0  0  0  0  0  0  0  0  0  0
    1.8873    1.6726   -0.0018 C   0  0  0  0  0  0  0  0  0  0  0  0
    3.4990   -1.1558   -0.7526 C   0  0  0  0  0  0  0  0  0  0  0  0
    3.7757   -0.2282   -1.2770 H   0  0  0  0  0  0  0  0  0  0  0  0
    4.3911   -2.2359   -0.7085 C   0  0  0  0  0  0  0  0  0  0  0  0
    5.3697   -2.1572   -1.2063 H   0  0  0  0  0  0  0  0  0  0  0  0
    4.0352   -3.4174   -0.0352 C   0  0  0  0  0  0  0  0  0  0  0  0
    4.7384   -4.2636   -0.0044 H   0  0  0  0  0  0  0  0  0  0  0  0
    2.7884   -3.5180    0.6019 C   0  0  0  0  0  0  0  0  0  0  0  0
    2.5131   -4.4394    1.1367 H   0  0  0  0  0  0  0  0  0  0  0  0
    1.8894   -2.4414    0.5676 C   0  0  0  0  0  0  0  0  0  0  0  0
    0.9159   -2.4975    1.0787 H   0  0  0  0  0  0  0  0  0  0  0  0
    2.8699    1.8075    1.0022 C   0  0  0  0  0  0  0  0  0  0  0  0
    3.1504    0.9389    1.6175 H   0  0  0  0  0  0  0  0  0  0  0  0
    3.1264    4.1612    0.4373 C   0  0  0  0  0  0  0  0  0  0  0  0
    3.6125    5.1336    0.6077 H   0  0  0  0  0  0  0  0  0  0  0  0
    3.4881    3.0481    1.2137 C   0  0  0  0  0  0  0  0  0  0  0  0
    4.2556    3.1466    1.9964 H   0  0  0  0  0  0  0  0  0  0  0  0
    2.1436    4.0298   -0.5574 C   0  0  0  0  0  0  0  0  0  0  0  0
    1.8612    4.8981   -1.1722 H   0  0  0  0  0  0  0  0  0  0  0  0
    1.5243    2.7915   -0.7800 C   0  0  0  0  0  0  0  0  0  0  0  0
    0.7619    2.6789   -1.5660 H   0  0  0  0  0  0  0  0  0  0  0  0
   -0.0817    0.0855   -1.6017 C   0  0  0  0  0  3  0  0  0  0  0  0
    0.0568    0.1871   -2.9379 C   0  0  0  0  0  0  0  0  0  0  0  0
    1.0443    0.2805   -3.4238 H   0  0  0  0  0  0  0  0  0  0  0  0
   -0.8207    0.1613   -3.6103 H   0  0  0  0  0  0  0  0  0  0  0  0
  1  2  1  0  0  0  0
  1  3  1  0  0  0  0
  2 12  1  0  0  0  0
  3 14  1  0  0  0  0
  4  6  1  0  0  0  0
  4  2  2  0  0  0  0
  5  4  1  0  0  0  0
  6  8  2  0  0  0  0
  7  6  1  0  0  0  0
  8  9  1  0  0  0  0
  8 10  1  0  0  0  0
 10 11  1  0  0  0  0
 12 10  2  0  0  0  0
 12 13  1  0  0  0  0
 14 18  2  0  0  0  0
 14 15  1  0  0  0  0
 16 17  1  0  0  0  0
 16 18  1  0  0  0  0
 18 19  1  0  0  0  0
 20 16  2  0  0  0  0
 21 20  1  0  0  0  0
 22 20  1  0  0  0  0
 22  3  2  0  0  0  0
 23 22  1  0  0  0  0
 24  1  1  0  0  0  0
 25 24  2  0  0  0  0
 26 25  1  0  0  0  0
 27 25  1  0  0  0  0
M  END
