2
q = -1.0

 31 30  0  0  0  0  0  0  0  0999 V2000
    1.4272   -0.0828    0.1826 P   0  0  0  0  0  0  0  0  0  0  0  0
    0.3447    0.0146    1.5877 C   0  0  0  0  0  3  0  0  0  0  0  0
    0.4598   -0.0413    2.9304 C   0  0  0  0  0  0  0  0  0  0  0  0
    1.4354   -0.1395    3.4391 H   0  0  0  0  0  0  0  0  0  0  0  0
   -0.4257    0.0267    3.5897 H   0  0  0  0  0  0  0  0  0  0  0  0
    2.2091   -1.8038   -0.0287 C   0  0  0  0  0  0  0  0  0  0  0  0
    1.0361   -2.7990   -0.0111 C   0  0  0  0  0  0  0  0  0  0  0  0
    0.3311   -2.5934   -0.8408 H   0  0  0  0  0  0  0  0  0  0  0  0
    0.4843   -2.7643    0.9491 H   0  0  0  0  0  0  0  0  0  0  0  0
    1.4348   -3.8276   -0.1390 H   0  0  0  0  0  0  0  0  0  0  0  0
    2.8812   -1.8594   -1.4125 C   0  0  0  0  0  0  0  0  0  0  0  0
    2.1633   -1.5781   -2.2092 H   0  0  0  0  0  0  0  0  0  0  0  0
    3.2283   -2.8964   -1.6088 H   0  0  0  0  0  0  0  0  0  0  0  0
    3.7657   -1.1975   -1.4846 H   0  0  0  0  0  0  0  0  0  0  0  0
    3.1817   -2.1449    1.1110 C   0  0  0  0  0  0  0  0  0  0  0  0
    4.0720   -1.4910    1.1255 H   0  0  0  0  0  0  0  0  0  0  0  0
    3.5381   -3.1905    0.9888 H   0  0  0  0  0  0  0  0  0  0  0  0
    2.6793   -2.0737    2.0966 H   0  0  0  0  0  0  0  0  0  0  0  0
    2.6228    1.3862   -0.0417 C   0  0  0  0  0  0  0  0  0  0  0  0
    2.1175    2.5447    0.8350 C   0  0  0  0  0  0  0  0  0  0  0  0
    1.1083    2.8891    0.5511 H   0  0  0  0  0  0  0  0  0  0  0  0
    2.8111    3.4027    0.7068 H   0  0  0  0  0  0  0  0  0  0  0  0
    2.1013    2.2722    1.9080 H   0  0  0  0  0  0  0  0  0  0  0  0
    2.5661    1.7813   -1.5291 C   0  0  0  0  0  0  0  0  0  0  0  0
    1.5285    2.0061   -1.8437 H   0  0  0  0  0  0  0  0  0  0  0  0
    2.9497    0.9785   -2.1888 H   0  0  0  0  0  0  0  0  0  0  0  0
    3.1904    2.6854   -1.6936 H   0  0  0  0  0  0  0  0  0  0  0  0
    4.0606    1.0453    0.3816 C   0  0  0  0  0  0  0  0  0  0  0  0
    4.5094    0.2346   -0.2229 H   0  0  0  0  0  0  0  0  0  0  0  0
    4.1221    0.7659    1.4520 H   0  0  0  0  0  0  0  0  0  0  0  0
    4.6915    1.9481    0.2369 H   0  0  0  0  0  0  0  0  0  0  0  0
  1  2  1  0  0  0  0
  2  3  2  0  0  0  0
  3  4  1  0  0  0  0
  3  5  1  0  0  0  0
  6  7  1  0  0  0  0
  6  1  1  0  0  0  0
  6 15  1  0  0  0  0
  7  9  1  0  0  0  0
  8  7  1  0  0  0  0
 10  7  1  0  0  0  0
 11  6  1  0  0  0  0
 12 11  1  0  0  0  0
 13 11  1  0  0  0  0
 14 11  1  0  0  0  0
 15 16  1  0  0  0  0
 15 18  1  0  0  0  0
 17 15  1  0  0  0  0
 19  1  1  0  0  0  0
 19 28  1  0  0  0  0
 19 20  1  0  0  0  0
 20 23  1  0  0  0  0
 21 20  1  0  0  0  0
 22 20  1  0  0  0  0
 24 19  1  0  0  0  0
 25 24  1  0  0  0  0
 26 24  1  0  0  0  0
 27 24  1  0  0  0  0
 28 30  1  0  0  0  0
 29 28  1  0  0  0  0
 31 28  1  0  0  0  0
M  END
