1
q = 0.0, confidence = 0.988

  9  8  0  0  0  0  0  0  0  0999 V2000
   -0.2701   -1.0219   -0.8552 C   0  0  0  0  0  1  0  0  0  0  0  0
    0.7735   -1.2190   -1.3965 N   0  0  0  0  0  2  0  0  0  0  0  0
    2.1064   -1.2510   -1.8308 C   0  0  0  0  0  0  0  0  0  0  0  0
    2.6164   -0.2993   -1.5704 H   0  0  0  0  0  0  0  0  0  0  0  0
    2.1629   -1.3850   -2.9318 H   0  0  0  0  0  0  0  0  0  0  0  0
    2.9043   -2.3954   -1.1925 C   0  0  0  0  0  0  0  0  0  0  0  0
    4.1787   -2.3420   -1.6409 F   0  0  0  0  0  0  0  0  0  0  0  0
    2.9228   -2.2963    0.1497 F   0  0  0  0  0  0  0  0  0  0  0  0
    2.3909   -3.5966   -1.5188 F   0  0  0  0  0  0  0  0  0  0  0  0
  2  1  1  0  0  0  0
  3  4  1  0  0  0  0
  3  2  1  0  0  0  0
  3  6  1  0  0  0  0
  5  3  1  0  0  0  0
  6  8  1  0  0  0  0
  7  6  1  0  0  0  0
  9  6  1  0  0  0  0
M  END
