15
q = 0.0, confidence = 0.522

 25 26  0  0  1  0  0  0  0  0999 V2000
    0.6655    0.2129    1.5292 S   0  0  0  0  0  0  0  0  0  0  0  0
    0.9140   -0.9868   -1.3993 S   0  0  0  0  0  0  0  0  0  0  0  0
   -1.8472   -1.3601    2.0179 S   0  0  0  0  0  0  0  0  0  0  0  0
   -1.7442   -2.1982   -1.2695 S   0  0  0  0  0  0  0  0  0  0  0  0
   -0.6020   -0.8745    0.8975 C   0  0  2  0  0  3  0  0  0  0  0  0
   -0.4774   -1.2983   -0.4214 C   0  0  0  0  0  0  0  0  0  0  0  0
   -3.1038    0.0377    1.8815 C   0  0  0  0  0  0  0  0  0  0  0  0
   -3.2964   -1.2674   -0.8238 C   0  0  0  0  0  0  0  0  0  0  0  0
   -2.9749    0.8237    0.6065 C   0  0  0  0  0  0  0  0  0  0  0  0
   -3.0687    0.2119   -0.6721 C   0  0  0  0  0  0  0  0  0  0  0  0
   -2.8873    0.9997   -1.8256 C   0  0  0  0  0  0  0  0  0  0  0  0
   -2.6327    2.3742   -1.7371 C   0  0  0  0  0  0  0  0  0  0  0  0
   -2.5488    2.9832   -0.4758 C   0  0  0  0  0  0  0  0  0  0  0  0
   -2.7110    2.2066    0.6794 C   0  0  0  0  0  0  0  0  0  0  0  0
    0.8667    1.4837    0.2826 C   0  0  0  0  0  3  0  0  0  0  0  0
   -4.0886   -0.4688    1.9666 H   0  0  0  0  0  0  0  0  0  0  0  0
   -2.9883    0.7023    2.7592 H   0  0  0  0  0  0  0  0  0  0  0  0
   -3.9593   -1.4786   -1.6872 H   0  0  0  0  0  0  0  0  0  0  0  0
   -3.7332   -1.7280    0.0801 H   0  0  0  0  0  0  0  0  0  0  0  0
   -2.9314    0.5107   -2.8112 H   0  0  0  0  0  0  0  0  0  0  0  0
   -2.4949    2.9683   -2.6530 H   0  0  0  0  0  0  0  0  0  0  0  0
   -2.3455    4.0613   -0.3897 H   0  0  0  0  0  0  0  0  0  0  0  0
   -2.6262    2.6774    1.6714 H   0  0  0  0  0  0  0  0  0  0  0  0
    1.1832    2.4472    0.7252 H   0  0  0  0  0  0  0  0  0  0  0  0
    0.0059    1.5701   -0.4052 H   0  0  0  0  0  0  0  0  0  0  0  0
  2  6  2  0  0  0  0
  4  8  1  0  0  0  0
  4  6  1  0  0  0  0
  5  1  1  1  0  0  0
  5  3  1  0  0  0  0
  6  5  1  0  0  0  0
  7 16  1  0  0  0  0
  7  3  1  0  0  0  0
  7 17  1  0  0  0  0
  8 10  1  0  0  0  0
  8 19  1  0  0  0  0
  9 14  1  0  0  0  0
  9  7  1  0  0  0  0
 10  9  2  0  0  0  0
 11 12  2  0  0  0  0
 11 10  1  0  0  0  0
 12 13  1  0  0  0  0
 13 22  1  0  0  0  0
 13 14  2  0  0  0  0
 14 23  1  0  0  0  0
 15 24  1  0  0  0  0
 15  1  1  0  0  0  0
 18  8  1  0  0  0  0
 20 11  1  0  0  0  0
 21 12  1  0  0  0  0
 25 15  1  0  0  0  0
M  END
