1
q = -1.0

 58 61  0  0  1  0  0  0  0  0999 V2000
   -0.7314   -0.6973   -0.5650 C   0  0  2  0  0  3  0  0  0  0  0  0
   -0.5541    0.7451   -0.5616 C   0  0  0  0  0  0  0  0  0  0  0  0
    0.8596    1.0039   -0.6045 C   0  0  0  0  0  0  0  0  0  0  0  0
    1.3203    1.9974   -0.6298 H   0  0  0  0  0  0  0  0  0  0  0  0
    1.5675   -0.2392   -0.6459 C   0  0  0  0  0  0  0  0  0  0  0  0
    0.5831   -1.2853   -0.5853 C   0  0  0  0  0  0  0  0  0  0  0  0
    0.8017   -2.3602   -0.6143 H   0  0  0  0  0  0  0  0  0  0  0  0
   -2.0365   -1.4380   -0.7319 C   0  0  0  0  0  0  0  0  0  0  0  0
   -2.8585   -0.7292   -0.4854 H   0  0  0  0  0  0  0  0  0  0  0  0
   -2.2143   -1.8573   -2.2123 C   0  0  0  0  0  0  0  0  0  0  0  0
   -2.1220   -0.9683   -2.8702 H   0  0  0  0  0  0  0  0  0  0  0  0
   -1.3733   -2.5330   -2.4867 H   0  0  0  0  0  0  0  0  0  0  0  0
   -3.5487   -2.5729   -2.4516 C   0  0  0  0  0  0  0  0  0  0  0  0
   -4.3830   -1.8593   -2.2659 H   0  0  0  0  0  0  0  0  0  0  0  0
   -3.6308   -2.8776   -3.5160 H   0  0  0  0  0  0  0  0  0  0  0  0
   -3.7061   -3.7859   -1.5271 C   0  0  0  0  0  0  0  0  0  0  0  0
   -4.6925   -4.2700   -1.6848 H   0  0  0  0  0  0  0  0  0  0  0  0
   -2.9377   -4.5470   -1.7919 H   0  0  0  0  0  0  0  0  0  0  0  0
   -3.5325   -3.3850   -0.0573 C   0  0  0  0  0  0  0  0  0  0  0  0
   -3.6061   -4.2748    0.6019 H   0  0  0  0  0  0  0  0  0  0  0  0
   -4.3676   -2.7103    0.2379 H   0  0  0  0  0  0  0  0  0  0  0  0
   -2.2014   -2.6633    0.1864 C   0  0  0  0  0  0  0  0  0  0  0  0
   -2.1233   -2.3447    1.2445 H   0  0  0  0  0  0  0  0  0  0  0  0
   -1.3598   -3.3701    0.0095 H   0  0  0  0  0  0  0  0  0  0  0  0
   -1.6455    1.7821   -0.6818 C   0  0  0  0  0  0  0  0  0  0  0  0
   -2.5755    1.3446   -0.2545 H   0  0  0  0  0  0  0  0  0  0  0  0
   -1.3611    3.0857    0.0867 C   0  0  0  0  0  0  0  0  0  0  0  0
   -0.4191    3.5381   -0.2969 H   0  0  0  0  0  0  0  0  0  0  0  0
   -1.1852    2.8574    1.1571 H   0  0  0  0  0  0  0  0  0  0  0  0
   -2.5034    4.0963   -0.0708 C   0  0  0  0  0  0  0  0  0  0  0  0
   -3.4198    3.6826    0.4071 H   0  0  0  0  0  0  0  0  0  0  0  0
   -2.2623    5.0301    0.4784 H   0  0  0  0  0  0  0  0  0  0  0  0
   -2.7940    4.3985   -1.5461 C   0  0  0  0  0  0  0  0  0  0  0  0
   -3.6494    5.1000   -1.6389 H   0  0  0  0  0  0  0  0  0  0  0  0
   -1.9149    4.9161   -1.9925 H   0  0  0  0  0  0  0  0  0  0  0  0
   -3.0689    3.1105   -2.3316 C   0  0  0  0  0  0  0  0  0  0  0  0
   -3.2296    3.3343   -3.4071 H   0  0  0  0  0  0  0  0  0  0  0  0
   -4.0147    2.6525   -1.9634 H   0  0  0  0  0  0  0  0  0  0  0  0
   -1.9289    2.0976   -2.1702 C   0  0  0  0  0  0  0  0  0  0  0  0
   -2.1605    1.1603   -2.7170 H   0  0  0  0  0  0  0  0  0  0  0  0
   -0.9973    2.5019   -2.6262 H   0  0  0  0  0  0  0  0  0  0  0  0
    3.0480   -0.4298   -0.8522 C   0  0  0  0  0  0  0  0  0  0  0  0
    3.4150   -1.1497   -0.0868 H   0  0  0  0  0  0  0  0  0  0  0  0
    3.3238   -1.0670   -2.2358 C   0  0  0  0  0  0  0  0  0  0  0  0
    2.7577   -2.0165   -2.3346 H   0  0  0  0  0  0  0  0  0  0  0  0
    2.9320   -0.3858   -3.0241 H   0  0  0  0  0  0  0  0  0  0  0  0
    4.8224   -1.3099   -2.4539 C   0  0  0  0  0  0  0  0  0  0  0  0
    4.9947   -1.7392   -3.4632 H   0  0  0  0  0  0  0  0  0  0  0  0
    5.1745   -2.0743   -1.7251 H   0  0  0  0  0  0  0  0  0  0  0  0
    5.6388   -0.0246   -2.2685 C   0  0  0  0  0  0  0  0  0  0  0  0
    6.7227   -0.2340   -2.3844 H   0  0  0  0  0  0  0  0  0  0  0  0
    5.3715    0.6959   -3.0743 H   0  0  0  0  0  0  0  0  0  0  0  0
    5.3588    0.6220   -0.9058 C   0  0  0  0  0  0  0  0  0  0  0  0
    5.9190    1.5748   -0.8046 H   0  0  0  0  0  0  0  0  0  0  0  0
    5.7310   -0.0461   -0.0970 H   0  0  0  0  0  0  0  0  0  0  0  0
    3.8592    0.8676   -0.7013 C   0  0  0  0  0  0  0  0  0  0  0  0
    3.6668    1.3247    0.2917 H   0  0  0  0  0  0  0  0  0  0  0  0
    3.5049    1.6023   -1.4590 H   0  0  0  0  0  0  0  0  0  0  0  0
  1  8  1  6  0  0  0
  1  2  1  0  0  0  0
  3  2  2  0  0  0  0
  4  3  1  0  0  0  0
  5  3  1  0  0  0  0
  5  6  2  0  0  0  0
  6  1  1  0  0  0  0
  7  6  1  0  0  0  0
  8  9  1  0  0  0  0
  8 22  1  0  0  0  0
 10  8  1  0  0  0  0
 11 10  1  0  0  0  0
 12 10  1  0  0  0  0
 13 14  1  0  0  0  0
 13 10  1  0  0  0  0
 13 16  1  0  0  0  0
 15 13  1  0  0  0  0
 16 19  1  0  0  0  0
 17 16  1  0  0  0  0
 18 16  1  0  0  0  0
 19 22  1  0  0  0  0
 19 21  1  0  0  0  0
 19 20  1  0  0  0  0
 22 23  1  0  0  0  0
 24 22  1  0  0  0  0
 25  2  1  0  0  0  0
 25 26  1  0  0  0  0
 25 27  1  0  0  0  0
 27 29  1  0  0  0  0
 28 27  1  0  0  0  0
 30 27  1  0  0  0  0
 30 31  1  0  0  0  0
 30 32  1  0  0  0  0
 33 30  1  0  0  0  0
 34 33  1  0  0  0  0
 35 33  1  0  0  0  0
 36 39  1  0  0  0  0
 36 38  1  0  0  0  0
 36 33  1  0  0  0  0
 37 36  1  0  0  0  0
 39 25  1  0  0  0  0
 40 39  1  0  0  0  0
 41 39  1  0  0  0  0
 42 56  1  0  0  0  0
 42  5  1  0  0  0  0
 42 43  1  0  0  0  0
 44 42  1  0  0  0  0
 45 44  1  0  0  0  0
 46 44  1  0  0  0  0
 47 50  1  0  0  0  0
 47 44  1  0  0  0  0
 47 49  1  0  0  0  0
 48 47  1  0  0  0  0
 50 53  1  0  0  0  0
 51 50  1  0  0  0  0
 52 50  1  0  0  0  0
 53 54  1  0  0  0  0
 53 56  1  0  0  0  0
 53 55  1  0  0  0  0
 56 57  1  0  0  0  0
 58 56  1  0  0  0  0
M  END
