7
q = -2.0, confidence = 0.624

 48 49  0  0  1  0  0  0  0  0999 V2000
   -1.1918    0.3099   -0.9150 P   0  0  0  0  0  2  0  0  0  0  0  0
   -0.5030    2.2863   -0.0843 Si  0  0  0  0  0  0  0  0  0  0  0  0
    1.3169    1.7544   -0.1605 C   0  0  1  0  0  3  0  0  0  0  0  0
    2.1458    1.3621    0.9469 C   0  0  1  0  0  3  0  0  0  0  0  0
    3.1334    0.4398    0.4667 C   0  0  0  0  0  0  0  0  0  0  0  0
    2.9664    0.3026   -0.9535 C   0  0  0  0  0  0  0  0  0  0  0  0
    1.8653    1.1189   -1.3470 C   0  0  2  0  0  3  0  0  0  0  0  0
    1.4378    1.3766   -2.7658 C   0  0  0  0  0  0  0  0  0  0  0  0
    3.8895   -0.4797   -1.8383 C   0  0  0  0  0  0  0  0  0  0  0  0
    4.2721   -0.1827    1.2229 C   0  0  0  0  0  0  0  0  0  0  0  0
    2.0437    1.8957    2.3488 C   0  0  0  0  0  0  0  0  0  0  0  0
   -1.1111    2.6051    1.6860 C   0  0  0  0  0  0  0  0  0  0  0  0
   -0.8918    3.8213   -1.1263 C   0  0  0  0  0  0  0  0  0  0  0  0
   -2.7830   -0.1937   -0.0157 C   0  0  0  0  0  0  0  0  0  0  0  0
   -3.2360   -1.5841   -0.4971 C   0  0  0  0  0  0  0  0  0  0  0  0
   -4.5448   -2.0234    0.1744 C   0  0  0  0  0  0  0  0  0  0  0  0
   -5.6581   -0.9906   -0.0433 C   0  0  0  0  0  0  0  0  0  0  0  0
   -5.2199    0.4054    0.4172 C   0  0  0  0  0  0  0  0  0  0  0  0
   -3.9047    0.8341   -0.2514 C   0  0  0  0  0  0  0  0  0  0  0  0
    1.8912    2.3241   -3.1300 H   0  0  0  0  0  0  0  0  0  0  0  0
    0.3382    1.4661   -2.8611 H   0  0  0  0  0  0  0  0  0  0  0  0
    1.7659    0.5706   -3.4498 H   0  0  0  0  0  0  0  0  0  0  0  0
    3.4707   -0.6200   -2.8523 H   0  0  0  0  0  0  0  0  0  0  0  0
    4.1023   -1.4842   -1.4213 H   0  0  0  0  0  0  0  0  0  0  0  0
    4.8652    0.0414   -1.9536 H   0  0  0  0  0  0  0  0  0  0  0  0
    4.3112    0.1579    2.2750 H   0  0  0  0  0  0  0  0  0  0  0  0
    5.2438    0.0847    0.7560 H   0  0  0  0  0  0  0  0  0  0  0  0
    4.2149   -1.2909    1.2323 H   0  0  0  0  0  0  0  0  0  0  0  0
    1.1708    1.5043    2.9050 H   0  0  0  0  0  0  0  0  0  0  0  0
    1.9492    2.9995    2.3301 H   0  0  0  0  0  0  0  0  0  0  0  0
    2.9478    1.6523    2.9397 H   0  0  0  0  0  0  0  0  0  0  0  0
   -0.5908    3.4612    2.1613 H   0  0  0  0  0  0  0  0  0  0  0  0
   -0.9759    1.7080    2.3209 H   0  0  0  0  0  0  0  0  0  0  0  0
   -2.1942    2.8435    1.6615 H   0  0  0  0  0  0  0  0  0  0  0  0
   -0.4063    4.7238   -0.6981 H   0  0  0  0  0  0  0  0  0  0  0  0
   -1.9871    3.9974   -1.1569 H   0  0  0  0  0  0  0  0  0  0  0  0
   -0.5375    3.6992   -2.1685 H   0  0  0  0  0  0  0  0  0  0  0  0
   -2.5851   -0.2455    1.0786 H   0  0  0  0  0  0  0  0  0  0  0  0
   -2.4386   -2.3379   -0.3248 H   0  0  0  0  0  0  0  0  0  0  0  0
   -3.3772   -1.5431   -1.6010 H   0  0  0  0  0  0  0  0  0  0  0  0
   -4.8568   -3.0187   -0.2075 H   0  0  0  0  0  0  0  0  0  0  0  0
   -4.3694   -2.1487    1.2672 H   0  0  0  0  0  0  0  0  0  0  0  0
   -6.5863   -1.3006    0.4817 H   0  0  0  0  0  0  0  0  0  0  0  0
   -5.9089   -0.9526   -1.1275 H   0  0  0  0  0  0  0  0  0  0  0  0
   -5.0802    0.3987    1.5222 H   0  0  0  0  0  0  0  0  0  0  0  0
   -6.0158    1.1517    0.2085 H   0  0  0  0  0  0  0  0  0  0  0  0
   -3.5946    1.8338    0.1186 H   0  0  0  0  0  0  0  0  0  0  0  0
   -4.0582    0.9457   -1.3485 H   0  0  0  0  0  0  0  0  0  0  0  0
  1  2  1  0  0  0  0
  1 14  1  0  0  0  0
  2 12  1  0  0  0  0
  3  2  1  1  0  0  0
  3  4  1  0  0  0  0
  4 11  1  6  0  0  0
  5  4  1  0  0  0  0
  5 10  1  0  0  0  0
  6  5  2  0  0  0  0
  7  8  1  6  0  0  0
  7  6  1  0  0  0  0
  7  3  1  0  0  0  0
  9 24  1  0  0  0  0
  9  6  1  0  0  0  0
 10 28  1  0  0  0  0
 10 26  1  0  0  0  0
 11 29  1  0  0  0  0
 11 31  1  0  0  0  0
 12 32  1  0  0  0  0
 12 33  1  0  0  0  0
 13 35  1  0  0  0  0
 13  2  1  0  0  0  0
 14 38  1  0  0  0  0
 15 39  1  0  0  0  0
 15 14  1  0  0  0  0
 15 16  1  0  0  0  0
 16 42  1  0  0  0  0
 17 16  1  0  0  0  0
 17 18  1  0  0  0  0
 17 43  1  0  0  0  0
 18 45  1  0  0  0  0
 19 14  1  0  0  0  0
 19 47  1  0  0  0  0
 19 18  1  0  0  0  0
 20  8  1  0  0  0  0
 21  8  1  0  0  0  0
 22  8  1  0  0  0  0
 23  9  1  0  0  0  0
 25  9  1  0  0  0  0
 27 10  1  0  0  0  0
 30 11  1  0  0  0  0
 34 12  1  0  0  0  0
 36 13  1  0  0  0  0
 37 13  1  0  0  0  0
 40 15  1  0  0  0  0
 41 16  1  0  0  0  0
 44 17  1  0  0  0  0
 46 18  1  0  0  0  0
 48 19  1  0  0  0  0
M  END
