1
q = -1.0, confidence = 0.0

 15 15  0  0  0  0  0  0  0  0999 V2000
    2.2949   -0.0677   -0.0000 C   0  0  0  0  0  3  0  0  0  0  0  0
    3.5395   -0.1040   -0.0000 C   0  0  0  0  0  0  0  0  0  0  0  0
    4.9604   -0.1443    0.0000 C   0  0  0  0  0  0  0  0  0  0  0  0
    5.7258    1.0540   -0.0001 C   0  0  0  0  0  0  0  0  0  0  0  0
    5.2022    2.0211   -0.0003 H   0  0  0  0  0  0  0  0  0  0  0  0
    7.1183    1.0160   -0.0001 C   0  0  0  0  0  0  0  0  0  0  0  0
    7.6990    1.9494   -0.0002 H   0  0  0  0  0  0  0  0  0  0  0  0
    7.8088   -0.2244    0.0001 C   0  0  0  0  0  0  0  0  0  0  0  0
    7.0497   -1.4239    0.0003 C   0  0  0  0  0  0  0  0  0  0  0  0
    7.5770   -2.3885    0.0004 H   0  0  0  0  0  0  0  0  0  0  0  0
    5.6572   -1.3837    0.0002 C   0  0  0  0  0  0  0  0  0  0  0  0
    5.0802   -2.3198    0.0003 H   0  0  0  0  0  0  0  0  0  0  0  0
    9.2338   -0.2644    0.0002 C   0  0  0  0  0  0  0  0  0  0  0  0
   10.4595   -0.2989    0.0002 C   0  0  0  0  0  0  0  0  0  0  0  0
   11.5407   -0.3293    0.0002 H   0  0  0  0  0  0  0  0  0  0  0  0
  1  2  3  0  0  0  0
  2  3  1  0  0  0  0
  3 11  1  0  0  0  0
  4  6  1  0  0  0  0
  4  3  2  0  0  0  0
  5  4  1  0  0  0  0
  6  8  2  0  0  0  0
  7  6  1  0  0  0  0
  8 13  1  0  0  0  0
  8  9  1  0  0  0  0
  9 10  1  0  0  0  0
 11  9  2  0  0  0  0
 11 12  1  0  0  0  0
 13 14  3  0  0  0  0
 14 15  1  0  0  0  0
M  END
