4
q = -1.0

 33 34  0  0  0  0  0  0  0  0999 V2000
    3.1007    1.6327    0.2583 O   0  0  0  0  0  0  0  0  0  0  0  0
    0.3352    0.6397    0.8600 C   0  0  0  0  0  0  0  0  0  0  0  0
   -0.7415    1.2350    1.5783 C   0  0  0  0  0  0  0  0  0  0  0  0
   -1.3907    2.1905    0.7336 C   0  0  0  0  0  3  0  0  0  0  0  0
   -0.6988    2.1994   -0.5104 C   0  0  0  0  0  0  0  0  0  0  0  0
    0.3229    1.2226   -0.4502 C   0  0  0  0  0  0  0  0  0  0  0  0
    1.3822   -0.3078    1.4592 C   0  0  0  0  0  0  0  0  0  0  0  0
    2.0442    0.4108    2.6724 C   0  0  0  0  0  0  0  0  0  0  0  0
    0.7034   -1.5718    2.0272 C   0  0  0  0  0  0  0  0  0  0  0  0
    3.3106    0.3422   -0.1452 C   0  0  0  0  0  0  0  0  0  0  0  0
    4.3009    0.0030   -1.0881 C   0  0  0  0  0  0  0  0  0  0  0  0
    4.4731   -1.3305   -1.4872 C   0  0  0  0  0  0  0  0  0  0  0  0
    3.6534   -2.3271   -0.9506 C   0  0  0  0  0  0  0  0  0  0  0  0
    2.6660   -1.9798   -0.0151 C   0  0  0  0  0  0  0  0  0  0  0  0
    2.4628   -0.6582    0.4180 C   0  0  0  0  0  0  0  0  0  0  0  0
    3.8233    2.6768   -0.3621 C   0  0  0  0  0  0  0  0  0  0  0  0
   -1.0074    1.0251    2.6204 H   0  0  0  0  0  0  0  0  0  0  0  0
   -2.2410    2.8274    1.0033 H   0  0  0  0  0  0  0  0  0  0  0  0
   -0.9605    2.7992   -1.3864 H   0  0  0  0  0  0  0  0  0  0  0  0
    0.9777    0.9265   -1.2755 H   0  0  0  0  0  0  0  0  0  0  0  0
    2.8322   -0.2417    3.0992 H   0  0  0  0  0  0  0  0  0  0  0  0
    2.5011    1.3711    2.3803 H   0  0  0  0  0  0  0  0  0  0  0  0
    1.2925    0.6006    3.4646 H   0  0  0  0  0  0  0  0  0  0  0  0
    1.4546   -2.2416    2.4903 H   0  0  0  0  0  0  0  0  0  0  0  0
   -0.0088   -1.2836    2.8247 H   0  0  0  0  0  0  0  0  0  0  0  0
    0.1504   -2.1260    1.2470 H   0  0  0  0  0  0  0  0  0  0  0  0
    4.9462    0.7814   -1.5155 H   0  0  0  0  0  0  0  0  0  0  0  0
    5.2514   -1.5795   -2.2245 H   0  0  0  0  0  0  0  0  0  0  0  0
    3.7680   -3.3757   -1.2616 H   0  0  0  0  0  0  0  0  0  0  0  0
    2.0186   -2.7735    0.3769 H   0  0  0  0  0  0  0  0  0  0  0  0
    3.6516    2.7015   -1.4615 H   0  0  0  0  0  0  0  0  0  0  0  0
    3.4499    3.6183    0.0819 H   0  0  0  0  0  0  0  0  0  0  0  0
    4.9175    2.5977   -0.1740 H   0  0  0  0  0  0  0  0  0  0  0  0
  2  7  1  0  0  0  0
  2  3  2  0  0  0  0
  3 17  1  0  0  0  0
  4 18  1  0  0  0  0
  4  3  1  0  0  0  0
  5  6  2  0  0  0  0
  5  4  1  0  0  0  0
  6  2  1  0  0  0  0
  7  9  1  0  0  0  0
  7  8  1  0  0  0  0
  8 21  1  0  0  0  0
  8 23  1  0  0  0  0
  9 24  1  0  0  0  0
  9 25  1  0  0  0  0
 10  1  1  0  0  0  0
 10 15  1  0  0  0  0
 11 10  2  0  0  0  0
 12 11  1  0  0  0  0
 12 13  2  0  0  0  0
 13 14  1  0  0  0  0
 14 30  1  0  0  0  0
 14 15  2  0  0  0  0
 15  7  1  0  0  0  0
 16 33  1  0  0  0  0
 16 32  1  0  0  0  0
 16  1  1  0  0  0  0
 19  5  1  0  0  0  0
 20  6  1  0  0  0  0
 22  8  1  0  0  0  0
 26  9  1  0  0  0  0
 27 11  1  0  0  0  0
 28 12  1  0  0  0  0
 29 13  1  0  0  0  0
 31 16  1  0  0  0  0
M  END
