2
q = 0.0, confidence = 0.956

 16 16  0  0  0  0  0  0  0  0999 V2000
   -1.9124   -1.7272   -0.0106 N   0  0  0  0  0  2  0  0  0  0  0  0
   -0.8453   -1.1731   -0.0115 C   0  0  0  0  0  1  0  0  0  0  0  0
   -3.3032   -1.9499   -0.0174 C   0  0  0  0  0  0  0  0  0  0  0  0
   -3.5774   -2.5800    0.8601 H   0  0  0  0  0  0  0  0  0  0  0  0
   -3.5714   -2.5598   -0.9113 H   0  0  0  0  0  0  0  0  0  0  0  0
   -4.1631   -0.6891   -0.0061 C   0  0  0  0  0  0  0  0  0  0  0  0
   -3.6105    0.6013   -0.0233 C   0  0  0  0  0  0  0  0  0  0  0  0
   -2.5192    0.7342   -0.0417 H   0  0  0  0  0  0  0  0  0  0  0  0
   -4.4461    1.7302   -0.0175 C   0  0  0  0  0  0  0  0  0  0  0  0
   -3.9932    2.7332   -0.0330 H   0  0  0  0  0  0  0  0  0  0  0  0
   -5.8400    1.5814    0.0067 C   0  0  0  0  0  0  0  0  0  0  0  0
   -6.4936    2.4670    0.0116 H   0  0  0  0  0  0  0  0  0  0  0  0
   -6.3983    0.2919    0.0251 C   0  0  0  0  0  0  0  0  0  0  0  0
   -7.4914    0.1630    0.0447 H   0  0  0  0  0  0  0  0  0  0  0  0
   -5.5648   -0.8345    0.0187 C   0  0  0  0  0  0  0  0  0  0  0  0
   -6.0087   -1.8436    0.0333 H   0  0  0  0  0  0  0  0  0  0  0  0
  2  1  1  0  0  0  0
  3  1  1  0  0  0  0
  3  6  1  0  0  0  0
  3  4  1  0  0  0  0
  5  3  1  0  0  0  0
  6 15  1  0  0  0  0
  7  9  1  0  0  0  0
  7  6  2  0  0  0  0
  8  7  1  0  0  0  0
  9 11  2  0  0  0  0
 10  9  1  0  0  0  0
 11 12  1  0  0  0  0
 11 13  1  0  0  0  0
 13 14  1  0  0  0  0
 15 13  2  0  0  0  0
 15 16  1  0  0  0  0
M  END
