4
q = 0.0, confidence = 0.988

 14 14  0  0  0  0  0  0  0  0999 V2000
    1.2345    2.7316    0.1155 N   0  0  0  0  0  0  0  0  0  0  0  0
    2.4145    1.2896   -0.9308 N   0  0  0  0  0  0  0  0  0  0  0  0
    2.3966    3.3791   -0.1835 N   0  0  0  0  0  0  0  0  0  0  0  0
    1.1745    1.4398   -0.3231 C   0  0  0  0  0  2  0  0  0  0  0  0
    3.0984    2.4783   -0.8217 C   0  0  0  0  0  0  0  0  0  0  0  0
    2.9968    0.1126   -1.5707 C   0  0  0  0  0  0  0  0  0  0  0  0
    0.2153    3.4808    0.8188 C   0  0  0  0  0  0  0  0  0  0  0  0
    4.1036    2.6400   -1.2286 H   0  0  0  0  0  0  0  0  0  0  0  0
    3.5047   -0.5316   -0.8265 H   0  0  0  0  0  0  0  0  0  0  0  0
    3.7435    0.4543   -2.3102 H   0  0  0  0  0  0  0  0  0  0  0  0
    2.2010   -0.4417   -2.0979 H   0  0  0  0  0  0  0  0  0  0  0  0
   -0.2124    2.8593    1.6229 H   0  0  0  0  0  0  0  0  0  0  0  0
   -0.5862    3.7919    0.1247 H   0  0  0  0  0  0  0  0  0  0  0  0
    0.7002    4.3754    1.2450 H   0  0  0  0  0  0  0  0  0  0  0  0
  1  7  1  0  0  0  0
  2  5  1  0  0  0  0
  2  4  1  0  0  0  0
  3  1  1  0  0  0  0
  4  1  1  0  0  0  0
  5  3  2  0  0  0  0
  6  2  1  0  0  0  0
  6  9  1  0  0  0  0
  7 14  1  0  0  0  0
  7 12  1  0  0  0  0
  8  5  1  0  0  0  0
 10  6  1  0  0  0  0
 11  6  1  0  0  0  0
 13  7  1  0  0  0  0
M  END
