6
q = 0.0, confidence = 1.0

 40 40  0  0  1  0  0  0  0  0999 V2000
    2.4512    0.4136   -1.5640 O   0  0  0  0  0  0  0  0  0  0  0  0
    1.3306   -0.1848    0.3005 N   0  0  0  0  0  0  0  0  0  0  0  0
    0.1501    0.1565   -0.4503 C   0  0  2  0  0  3  0  0  0  0  0  0
   -0.4001   -0.8010   -1.3681 C   0  0  0  0  0  0  0  0  0  0  0  0
   -1.5500   -0.4469   -2.1290 C   0  0  0  0  0  0  0  0  0  0  0  0
   -2.1628    0.8231   -1.9530 C   0  0  0  0  0  3  0  0  0  0  0  0
   -1.6064    1.7737   -1.0609 C   0  0  0  0  0  0  0  0  0  0  0  0
   -0.4531    1.4451   -0.2868 C   0  0  0  0  0  0  0  0  0  0  0  0
    0.2693   -2.1308   -1.5696 C   0  0  0  0  0  0  0  0  0  0  0  0
    0.1685    2.4883    0.6094 C   0  0  0  0  0  0  0  0  0  0  0  0
    1.1413    3.3798   -0.1786 C   0  0  0  0  0  0  0  0  0  0  0  0
    1.1360   -0.7276    1.6418 C   0  0  0  0  0  0  0  0  0  0  0  0
    2.5142   -0.0331   -0.4149 C   0  0  0  0  0  0  0  0  0  0  0  0
    3.8901   -0.3984    0.2100 C   0  0  0  0  0  0  0  0  0  0  0  0
    4.2177    0.5404    1.3936 C   0  0  0  0  0  0  0  0  0  0  0  0
    4.9492   -0.1617   -0.8846 C   0  0  0  0  0  0  0  0  0  0  0  0
    3.9549   -1.8876    0.6159 C   0  0  0  0  0  0  0  0  0  0  0  0
   -1.9985   -1.1870   -2.8052 H   0  0  0  0  0  0  0  0  0  0  0  0
   -3.0855    1.0628   -2.5002 H   0  0  0  0  0  0  0  0  0  0  0  0
   -2.0954    2.7461   -0.9118 H   0  0  0  0  0  0  0  0  0  0  0  0
   -0.4197   -2.8584   -2.0368 H   0  0  0  0  0  0  0  0  0  0  0  0
    1.1458   -1.9893   -2.2356 H   0  0  0  0  0  0  0  0  0  0  0  0
    0.6374   -2.5596   -0.6194 H   0  0  0  0  0  0  0  0  0  0  0  0
    0.6094    3.9470   -0.9692 H   0  0  0  0  0  0  0  0  0  0  0  0
    1.6342    4.1114    0.4921 H   0  0  0  0  0  0  0  0  0  0  0  0
    1.9206    2.7724   -0.6795 H   0  0  0  0  0  0  0  0  0  0  0  0
   -0.6374    3.0992    1.0647 H   0  0  0  0  0  0  0  0  0  0  0  0
    0.7026    1.9982    1.4456 H   0  0  0  0  0  0  0  0  0  0  0  0
    0.7177   -1.7561    1.6124 H   0  0  0  0  0  0  0  0  0  0  0  0
    2.0852   -0.7464    2.1971 H   0  0  0  0  0  0  0  0  0  0  0  0
    0.4219   -0.0965    2.2042 H   0  0  0  0  0  0  0  0  0  0  0  0
    3.5528    0.4110    2.2687 H   0  0  0  0  0  0  0  0  0  0  0  0
    5.2551    0.3544    1.7395 H   0  0  0  0  0  0  0  0  0  0  0  0
    4.1540    1.6014    1.0775 H   0  0  0  0  0  0  0  0  0  0  0  0
    4.9415    0.8889   -1.2299 H   0  0  0  0  0  0  0  0  0  0  0  0
    5.9551   -0.4002   -0.4841 H   0  0  0  0  0  0  0  0  0  0  0  0
    4.7596   -0.7976   -1.7700 H   0  0  0  0  0  0  0  0  0  0  0  0
    3.6918   -2.5384   -0.2427 H   0  0  0  0  0  0  0  0  0  0  0  0
    4.9902   -2.1425    0.9215 H   0  0  0  0  0  0  0  0  0  0  0  0
    3.2899   -2.1545    1.4574 H   0  0  0  0  0  0  0  0  0  0  0  0
  1 13  2  0  0  0  0
  2 12  1  0  0  0  0
  3  8  1  0  0  0  0
  3  2  1  6  0  0  0
  4  3  1  0  0  0  0
  5  6  1  0  0  0  0
  5  4  2  0  0  0  0
  6  7  1  0  0  0  0
  7 20  1  0  0  0  0
  7  8  2  0  0  0  0
  8 10  1  0  0  0  0
  9  4  1  0  0  0  0
  9 23  1  0  0  0  0
 10 27  1  0  0  0  0
 10 28  1  0  0  0  0
 11 25  1  0  0  0  0
 11 10  1  0  0  0  0
 12 30  1  0  0  0  0
 12 31  1  0  0  0  0
 13 14  1  0  0  0  0
 13  2  1  0  0  0  0
 14 17  1  0  0  0  0
 14 15  1  0  0  0  0
 15 33  1  0  0  0  0
 15 32  1  0  0  0  0
 16 36  1  0  0  0  0
 16 14  1  0  0  0  0
 17 39  1  0  0  0  0
 17 40  1  0  0  0  0
 18  5  1  0  0  0  0
 19  6  1  0  0  0  0
 21  9  1  0  0  0  0
 22  9  1  0  0  0  0
 24 11  1  0  0  0  0
 26 11  1  0  0  0  0
 29 12  1  0  0  0  0
 34 15  1  0  0  0  0
 35 16  1  0  0  0  0
 37 16  1  0  0  0  0
 38 17  1  0  0  0  0
M  END
