3
q = 0.0, confidence = 0.994

 55 57  0  0  1  0  0  0  0  0999 V2000
   -2.1980    0.3881    0.8111 N   0  0  0  0  0  0  0  0  0  0  0  0
   -0.6931    1.9648    0.5346 N   0  0  0  0  0  0  0  0  0  0  0  0
   -0.8879    0.6092    0.4784 C   0  0  0  0  0  2  0  0  0  0  0  0
   -2.8751    1.5916    1.2942 C   0  0  0  0  0  0  0  0  0  0  0  0
   -1.9381    2.7002    0.8062 C   0  0  0  0  0  0  0  0  0  0  0  0
   -2.8462   -0.9225    0.9139 C   0  0  2  0  0  0  0  0  0  0  0  0
   -4.1504   -0.8945    0.1119 C   0  0  0  0  0  0  0  0  0  0  0  0
   -5.4046   -1.1638    0.6900 C   0  0  0  0  0  0  0  0  0  0  0  0
   -6.5781   -1.0981   -0.0807 C   0  0  0  0  0  0  0  0  0  0  0  0
   -6.5115   -0.7645   -1.4406 C   0  0  0  0  0  0  0  0  0  0  0  0
   -5.2621   -0.5007   -2.0278 C   0  0  0  0  0  0  0  0  0  0  0  0
   -4.0927   -0.5633   -1.2594 C   0  0  0  0  0  0  0  0  0  0  0  0
   -2.9857   -1.3835    2.3664 C   0  0  0  0  0  0  0  0  0  0  0  0
    0.4606    2.7009    0.1285 C   0  0  0  0  0  0  0  0  0  0  0  0
    1.4079    3.0802    1.1135 C   0  0  0  0  0  0  0  0  0  0  0  0
    2.5138    3.8484    0.7030 C   0  0  0  0  0  0  0  0  0  0  0  0
    2.6748    4.2236   -0.6368 C   0  0  0  0  0  0  0  0  0  0  0  0
    1.7346    3.8254   -1.5962 C   0  0  0  0  0  0  0  0  0  0  0  0
    0.6128    3.0542   -1.2380 C   0  0  0  0  0  0  0  0  0  0  0  0
    1.2730    2.6383    2.5633 C   0  0  0  0  0  0  0  0  0  0  0  0
    1.0110    3.8369    3.4912 C   0  0  0  0  0  0  0  0  0  0  0  0
    2.4954    1.8240    3.0173 C   0  0  0  0  0  0  0  0  0  0  0  0
   -0.3627    2.5822   -2.3084 C   0  0  0  0  0  0  0  0  0  0  0  0
   -1.1403    3.7620   -2.9178 C   0  0  0  0  0  0  0  0  0  0  0  0
    0.3490    1.7573   -3.3936 C   0  0  0  0  0  0  0  0  0  0  0  0
   -2.9555    1.5749    2.4048 H   0  0  0  0  0  0  0  0  0  0  0  0
   -3.8982    1.6661    0.8746 H   0  0  0  0  0  0  0  0  0  0  0  0
   -2.3059    3.1862   -0.1258 H   0  0  0  0  0  0  0  0  0  0  0  0
   -1.7666    3.4939    1.5602 H   0  0  0  0  0  0  0  0  0  0  0  0
   -2.1670   -1.6259    0.3793 H   0  0  0  0  0  0  0  0  0  0  0  0
   -5.4775   -1.4282    1.7544 H   0  0  0  0  0  0  0  0  0  0  0  0
   -7.5508   -1.3097    0.3896 H   0  0  0  0  0  0  0  0  0  0  0  0
   -7.4306   -0.7134   -2.0442 H   0  0  0  0  0  0  0  0  0  0  0  0
   -5.1975   -0.2495   -3.0978 H   0  0  0  0  0  0  0  0  0  0  0  0
   -3.1094   -0.3770   -1.7199 H   0  0  0  0  0  0  0  0  0  0  0  0
   -1.9865   -1.3946    2.8423 H   0  0  0  0  0  0  0  0  0  0  0  0
   -3.4089   -2.4062    2.4087 H   0  0  0  0  0  0  0  0  0  0  0  0
   -3.6522   -0.7175    2.9508 H   0  0  0  0  0  0  0  0  0  0  0  0
    3.2672    4.1490    1.4472 H   0  0  0  0  0  0  0  0  0  0  0  0
    3.5459    4.8254   -0.9383 H   0  0  0  0  0  0  0  0  0  0  0  0
    1.8795    4.1084   -2.6501 H   0  0  0  0  0  0  0  0  0  0  0  0
    0.3992    1.9590    2.6186 H   0  0  0  0  0  0  0  0  0  0  0  0
    1.8647    4.5469    3.4863 H   0  0  0  0  0  0  0  0  0  0  0  0
    0.8638    3.4973    4.5368 H   0  0  0  0  0  0  0  0  0  0  0  0
    0.1079    4.4033    3.1839 H   0  0  0  0  0  0  0  0  0  0  0  0
    2.6495    0.9463    2.3600 H   0  0  0  0  0  0  0  0  0  0  0  0
    2.3419    1.4437    4.0471 H   0  0  0  0  0  0  0  0  0  0  0  0
    3.4214    2.4364    3.0159 H   0  0  0  0  0  0  0  0  0  0  0  0
   -1.0906    1.9013   -1.8238 H   0  0  0  0  0  0  0  0  0  0  0  0
   -1.6785    4.3452   -2.1427 H   0  0  0  0  0  0  0  0  0  0  0  0
   -1.8858    3.3994   -3.6547 H   0  0  0  0  0  0  0  0  0  0  0  0
   -0.4600    4.4625   -3.4457 H   0  0  0  0  0  0  0  0  0  0  0  0
    1.0825    2.3697   -3.9582 H   0  0  0  0  0  0  0  0  0  0  0  0
   -0.3898    1.3598   -4.1180 H   0  0  0  0  0  0  0  0  0  0  0  0
    0.8750    0.8895   -2.9511 H   0  0  0  0  0  0  0  0  0  0  0  0
  1  6  1  0  0  0  0
  1  4  1  0  0  0  0
  2  5  1  0  0  0  0
  3  2  1  0  0  0  0
  3  1  1  0  0  0  0
  4 26  1  0  0  0  0
  5  4  1  0  0  0  0
  5 29  1  0  0  0  0
  6 30  1  6  0  0  0
  6 13  1  0  0  0  0
  7  8  1  0  0  0  0
  7  6  1  0  0  0  0
  8 31  1  0  0  0  0
  9 32  1  0  0  0  0
  9  8  2  0  0  0  0
 10  9  1  0  0  0  0
 11 10  2  0  0  0  0
 11 12  1  0  0  0  0
 12  7  2  0  0  0  0
 13 37  1  0  0  0  0
 13 36  1  0  0  0  0
 13 38  1  0  0  0  0
 14  2  1  0  0  0  0
 14 15  1  0  0  0  0
 15 20  1  0  0  0  0
 16 15  2  0  0  0  0
 16 39  1  0  0  0  0
 17 16  1  0  0  0  0
 18 19  1  0  0  0  0
 18 17  2  0  0  0  0
 19 14  2  0  0  0  0
 20 42  1  0  0  0  0
 20 22  1  0  0  0  0
 20 21  1  0  0  0  0
 21 44  1  0  0  0  0
 22 47  1  0  0  0  0
 23 49  1  0  0  0  0
 23 19  1  0  0  0  0
 24 23  1  0  0  0  0
 24 50  1  0  0  0  0
 25 55  1  0  0  0  0
 25 23  1  0  0  0  0
 27  4  1  0  0  0  0
 28  5  1  0  0  0  0
 33 10  1  0  0  0  0
 34 11  1  0  0  0  0
 35 12  1  0  0  0  0
 40 17  1  0  0  0  0
 41 18  1  0  0  0  0
 43 21  1  0  0  0  0
 45 21  1  0  0  0  0
 46 22  1  0  0  0  0
 48 22  1  0  0  0  0
 51 24  1  0  0  0  0
 52 24  1  0  0  0  0
 53 25  1  0  0  0  0
 54 25  1  0  0  0  0
M  END
