2
q = -1.0

 10  9  0  0  0  0  0  0  0  0999 V2000
    0.0012    1.7491   -2.1759 S   0  0  0  0  0  0  0  0  0  0  0  0
    0.0005    1.6569   -0.4786 C   0  0  0  0  0  3  0  0  0  0  0  0
    0.0003    2.8191    0.4013 C   0  0  0  0  0  0  0  0  0  0  0  0
    0.0008    2.6058    1.4829 H   0  0  0  0  0  0  0  0  0  0  0  0
   -0.0008    4.1111   -0.0158 C   0  0  0  0  0  0  0  0  0  0  0  0
   -0.0014    4.2918   -1.1066 H   0  0  0  0  0  0  0  0  0  0  0  0
   -0.0012    5.2944    0.8887 C   0  0  0  0  0  0  0  0  0  0  0  0
   -0.8908    5.9349    0.7003 H   0  0  0  0  0  0  0  0  0  0  0  0
    0.8871    5.9363    0.6992 H   0  0  0  0  0  0  0  0  0  0  0  0
   -0.0003    5.0017    1.9570 H   0  0  0  0  0  0  0  0  0  0  0  0
  1  2  2  0  0  0  0
  2  3  1  0  0  0  0
  3  4  1  0  0  0  0
  5  3  2  0  0  0  0
  5  7  1  0  0  0  0
  6  5  1  0  0  0  0
  7 10  1  0  0  0  0
  8  7  1  0  0  0  0
  9  7  1  0  0  0  0
M  END
