31
q = -1.0, confidence = 0.002

 37 38  0  0  0  0  0  0  0  0999 V2000
    1.1452    0.0192    0.6583 P   0  0  0  0  0  0  0  0  0  0  0  0
    2.1639    1.5007    0.2616 C   0  0  0  0  0  0  0  0  0  0  0  0
    3.5712    1.4416    0.3624 C   0  0  0  0  0  0  0  0  0  0  0  0
    4.0696    0.4909    0.6040 H   0  0  0  0  0  0  0  0  0  0  0  0
    4.3402    2.5944    0.1462 C   0  0  0  0  0  0  0  0  0  0  0  0
    5.4362    2.5385    0.2239 H   0  0  0  0  0  0  0  0  0  0  0  0
    3.7178    3.8133   -0.1690 C   0  0  0  0  0  0  0  0  0  0  0  0
    4.3257    4.7140   -0.3410 H   0  0  0  0  0  0  0  0  0  0  0  0
    2.3191    3.8795   -0.2639 C   0  0  0  0  0  0  0  0  0  0  0  0
    1.8262    4.8322   -0.5098 H   0  0  0  0  0  0  0  0  0  0  0  0
    1.5465    2.7283   -0.0482 C   0  0  0  0  0  0  0  0  0  0  0  0
    0.4520    2.7748   -0.1254 H   0  0  0  0  0  0  0  0  0  0  0  0
    2.1810   -1.3778    0.0963 C   0  0  0  0  0  0  0  0  0  0  0  0
    2.7591   -1.3065   -1.1904 C   0  0  0  0  0  0  0  0  0  0  0  0
    2.6558   -0.3912   -1.7926 H   0  0  0  0  0  0  0  0  0  0  0  0
    3.4950   -2.3879   -1.6943 C   0  0  0  0  0  0  0  0  0  0  0  0
    3.9488   -2.3204   -2.6943 H   0  0  0  0  0  0  0  0  0  0  0  0
    3.6605   -3.5477   -0.9200 C   0  0  0  0  0  0  0  0  0  0  0  0
    4.2407   -4.3952   -1.3142 H   0  0  0  0  0  0  0  0  0  0  0  0
    3.0891   -3.6220    0.3595 C   0  0  0  0  0  0  0  0  0  0  0  0
    3.2168   -4.5282    0.9697 H   0  0  0  0  0  0  0  0  0  0  0  0
    2.3455   -2.5461    0.8664 C   0  0  0  0  0  0  0  0  0  0  0  0
    1.8843   -2.6319    1.8599 H   0  0  0  0  0  0  0  0  0  0  0  0
    1.1396    0.0471    2.5367 C   0  0  0  0  0  0  0  0  0  0  0  0
    1.8874   -0.6648    2.9353 H   0  0  0  0  0  0  0  0  0  0  0  0
    1.4801    1.0585    2.8325 H   0  0  0  0  0  0  0  0  0  0  0  0
   -0.2438   -0.2776    3.0949 C   0  0  0  0  0  0  0  0  0  0  0  0
   -0.4000   -1.3726    3.1318 H   0  0  0  0  0  0  0  0  0  0  0  0
   -0.3609    0.1306    4.1220 H   0  0  0  0  0  0  0  0  0  0  0  0
   -1.3671    0.2513    2.2645 N   0  0  0  0  0  0  0  0  0  0  0  0
   -1.2190    1.4936    1.6053 C   0  0  0  0  0  3  0  0  0  0  0  0
   -0.3357    2.0908    1.8890 H   0  0  0  0  0  0  0  0  0  0  0  0
   -2.1436    2.0909    1.5470 H   0  0  0  0  0  0  0  0  0  0  0  0
   -2.6779   -0.1525    2.7998 C   0  0  0  0  0  0  0  0  0  0  0  0
   -2.7480   -1.2556    2.7527 H   0  0  0  0  0  0  0  0  0  0  0  0
   -3.4786    0.2891    2.1842 H   0  0  0  0  0  0  0  0  0  0  0  0
   -2.7831    0.1890    3.8513 H   0  0  0  0  0  0  0  0  0  0  0  0
  1 24  1  0  0  0  0
  2  3  1  0  0  0  0
  2  1  1  0  0  0  0
  3  4  1  0  0  0  0
  5  6  1  0  0  0  0
  5  3  2  0  0  0  0
  7  5  1  0  0  0  0
  8  7  1  0  0  0  0
  9  7  2  0  0  0  0
  9 11  1  0  0  0  0
 10  9  1  0  0  0  0
 11  2  2  0  0  0  0
 12 11  1  0  0  0  0
 13  1  1  0  0  0  0
 13 22  1  0  0  0  0
 14 13  2  0  0  0  0
 15 14  1  0  0  0  0
 16 14  1  0  0  0  0
 16 18  2  0  0  0  0
 17 16  1  0  0  0  0
 18 20  1  0  0  0  0
 19 18  1  0  0  0  0
 20 22  2  0  0  0  0
 20 21  1  0  0  0  0
 22 23  1  0  0  0  0
 24 26  1  0  0  0  0
 24 25  1  0  0  0  0
 24 27  1  0  0  0  0
 27 28  1  0  0  0  0
 27 29  1  0  0  0  0
 30 34  1  0  0  0  0
 30 27  1  0  0  0  0
 31 32  1  0  0  0  0
 31 30  1  0  0  0  0
 33 31  1  0  0  0  0
 34 37  1  0  0  0  0
 35 34  1  0  0  0  0
 36 34  1  0  0  0  0
M  END
