8
q = -2.0, confidence = 0.912

 52 60  0  0  1  0  0  0  0  0999 V2000
    1.4787    2.2233   -0.1163 Si  0  0  0  0  0  0  0  0  0  0  0  0
    1.2903   -0.8251    0.0458 C   0  0  1  0  0  0  0  0  0  0  0  0
    2.3363    0.5015   -0.0216 C   0  0  0  0  0  0  0  0  0  0  0  0
   -0.3756    1.8536   -0.0908 C   0  0  0  0  0  0  0  0  0  0  0  0
   -1.2331    1.7922    1.0724 C   0  0  0  0  0  0  0  0  0  0  0  0
   -2.5460    1.4239    0.6417 C   0  0  0  0  0  0  0  0  0  0  0  0
   -2.5306    1.2984   -0.7940 C   0  0  0  0  0  0  0  0  0  0  0  0
   -1.2110    1.5905   -1.2479 C   0  0  1  0  0  3  0  0  0  0  0  0
   -0.8468    2.1413    2.4832 C   0  0  0  0  0  0  0  0  0  0  0  0
   -3.8042    1.3410    1.4583 C   0  0  0  0  0  0  0  0  0  0  0  0
   -3.7424    1.0146   -1.6327 C   0  0  0  0  0  0  0  0  0  0  0  0
   -0.8144    1.6985   -2.6940 C   0  0  0  0  0  0  0  0  0  0  0  0
    2.0573    3.2648    1.3446 C   0  0  0  0  0  0  0  0  0  0  0  0
    2.0356    3.0999   -1.6912 C   0  0  0  0  0  0  0  0  0  0  0  0
    2.1781   -0.5078   -1.3806 B   0  0  1  0  0  0  0  0  0  0  0  0
    2.0165   -2.1552   -0.7547 B   0  0  2  0  0  0  0  0  0  0  0  0
    2.0078   -2.0493    1.0058 B   0  0  1  0  0  0  0  0  0  0  0  0
    2.1525   -0.3415    1.4439 B   0  0  2  0  0  0  0  0  0  0  0  0
    3.7655    0.1275   -0.8777 B   0  0  1  0  0  0  0  0  0  0  0  0
    3.5992   -1.5832   -1.3452 B   0  0  1  0  0  0  0  0  0  0  0  0
    3.4978   -2.5450    0.1615 B   0  0  2  0  0  0  0  0  0  0  0  0
    3.5780   -1.4134    1.5482 B   0  0  2  0  0  0  0  0  0  0  0  0
    3.7522    0.2291    0.8910 B   0  0  2  0  0  0  0  0  0  0  0  0
    4.5777   -1.1295    0.0873 B   0  0  2  0  0  0  0  0  0  0  0  0
    1.6075   -0.0993   -2.3623 H   0  0  0  0  0  0  0  0  0  0  0  0
    1.2891   -2.9228   -1.3398 H   0  0  0  0  0  0  0  0  0  0  0  0
    1.2944   -2.7526    1.6757 H   0  0  0  0  0  0  0  0  0  0  0  0
    1.5573    0.1728    2.3589 H   0  0  0  0  0  0  0  0  0  0  0  0
    4.2670    0.9990   -1.5463 H   0  0  0  0  0  0  0  0  0  0  0  0
    4.0731   -1.9970   -2.3782 H   0  0  0  0  0  0  0  0  0  0  0  0
   -0.0154    1.5197    2.8695 H   0  0  0  0  0  0  0  0  0  0  0  0
   -0.5216    3.1989    2.5482 H   0  0  0  0  0  0  0  0  0  0  0  0
   -1.7004    2.0258    3.1767 H   0  0  0  0  0  0  0  0  0  0  0  0
    3.9046   -3.6826    0.2316 H   0  0  0  0  0  0  0  0  0  0  0  0
   -3.6165    1.4915    2.5369 H   0  0  0  0  0  0  0  0  0  0  0  0
   -4.5233    2.1239    1.1365 H   0  0  0  0  0  0  0  0  0  0  0  0
   -4.3170    0.3643    1.3447 H   0  0  0  0  0  0  0  0  0  0  0  0
    4.0367   -1.7087    2.6276 H   0  0  0  0  0  0  0  0  0  0  0  0
   -4.3585    1.9309   -1.7638 H   0  0  0  0  0  0  0  0  0  0  0  0
   -3.4735    0.6481   -2.6413 H   0  0  0  0  0  0  0  0  0  0  0  0
   -4.3959    0.2514   -1.1653 H   0  0  0  0  0  0  0  0  0  0  0  0
    4.2487    1.1712    1.4599 H   0  0  0  0  0  0  0  0  0  0  0  0
   -0.7241    2.7659   -2.9856 H   0  0  0  0  0  0  0  0  0  0  0  0
    0.1597    1.2232   -2.9119 H   0  0  0  0  0  0  0  0  0  0  0  0
   -1.5696    1.2391   -3.3580 H   0  0  0  0  0  0  0  0  0  0  0  0
    5.7844   -1.2177    0.1009 H   0  0  0  0  0  0  0  0  0  0  0  0
    1.4761    4.2073    1.4065 H   0  0  0  0  0  0  0  0  0  0  0  0
    1.9797    2.7361    2.3121 H   0  0  0  0  0  0  0  0  0  0  0  0
    3.1222    3.5301    1.1886 H   0  0  0  0  0  0  0  0  0  0  0  0
    1.9957    2.4538   -2.5871 H   0  0  0  0  0  0  0  0  0  0  0  0
    1.4125    3.9984   -1.8766 H   0  0  0  0  0  0  0  0  0  0  0  0
    3.0855    3.4316   -1.5623 H   0  0  0  0  0  0  0  0  0  0  0  0
  1  4  1  0  0  0  0
  1 13  1  0  0  0  0
  1  3  1  0  0  0  0
  2  3  1  1  0  0  0
  2 17  1  0  0  0  0
  2 18  1  0  0  0  0
  3 23  1  0  0  0  0
  3 18  1  0  0  0  0
  4  5  2  0  0  0  0
  5  9  1  0  0  0  0
  6  5  1  0  0  0  0
  6 10  1  0  0  0  0
  7  6  2  0  0  0  0
  8 12  1  6  0  0  0
  8  7  1  0  0  0  0
  8  4  1  0  0  0  0
  9 32  1  0  0  0  0
  9 31  1  0  0  0  0
  9 33  1  0  0  0  0
 10 35  1  0  0  0  0
 11 41  1  0  0  0  0
 11  7  1  0  0  0  0
 13 47  1  0  0  0  0
 13 48  1  0  0  0  0
 14 52  1  0  0  0  0
 14  1  1  0  0  0  0
 15 25  1  6  0  0  0
 15 16  1  0  0  0  0
 15  3  1  0  0  0  0
 15  2  1  0  0  0  0
 16 26  1  6  0  0  0
 16 17  1  0  0  0  0
 17 18  1  0  0  0  0
 17 27  1  1  0  0  0
 18 28  1  1  0  0  0
 19 29  1  6  0  0  0
 19 24  1  0  0  0  0
 19 23  1  0  0  0  0
 20 30  1  6  0  0  0
 20 19  1  0  0  0  0
 20 16  1  0  0  0  0
 20 21  1  0  0  0  0
 21 34  1  1  0  0  0
 21 22  1  0  0  0  0
 22 38  1  1  0  0  0
 23 42  1  1  0  0  0
 23 22  1  0  0  0  0
 24 46  1  1  0  0  0
 24 21  1  0  0  0  0
 24 22  1  0  0  0  0
 36 10  1  0  0  0  0
 37 10  1  0  0  0  0
 39 11  1  0  0  0  0
 40 11  1  0  0  0  0
 43 12  1  0  0  0  0
 44 12  1  0  0  0  0
 45 12  1  0  0  0  0
 49 13  1  0  0  0  0
 50 14  1  0  0  0  0
 51 14  1  0  0  0  0
M  HYD  1   8   0
M  ZBO  1   3   0
M  END
