3
q = -1.0

 36 38  0  0  1  0  0  0  0  0999 V2000
    3.7918   -0.0029    0.3060 Si  0  0  0  0  0  0  0  0  0  0  0  0
    2.1589    0.9393    0.4479 C   0  0  2  0  0  3  0  0  0  0  0  0
    1.1666    1.0157   -0.5811 C   0  0  0  0  0  3  0  0  0  0  0  0
    0.1542    1.9419   -0.1886 C   0  0  0  0  0  3  0  0  0  0  0  0
    0.5275    2.4718    1.0822 C   0  0  0  0  0  0  0  0  0  0  0  0
    1.7414    1.8519    1.4792 C   0  0  0  0  0  0  0  0  0  0  0  0
    4.7252   -0.0009    1.9399 C   0  0  0  0  0  0  0  0  0  0  0  0
    4.8033    0.8976   -1.0215 C   0  0  0  0  0  0  0  0  0  0  0  0
    4.4764    2.2016   -1.4549 C   0  0  0  0  0  0  0  0  0  0  0  0
    5.2641    2.8665   -2.4087 C   0  0  0  0  0  0  0  0  0  0  0  0
    6.3958    2.2359   -2.9486 C   0  0  0  0  0  0  0  0  0  0  0  0
    6.7368    0.9385   -2.5315 C   0  0  0  0  0  0  0  0  0  0  0  0
    5.9468    0.2786   -1.5782 C   0  0  0  0  0  0  0  0  0  0  0  0
    3.4455   -1.7557   -0.3258 C   0  0  0  0  0  0  0  0  0  0  0  0
    3.2683   -2.8440    0.5585 C   0  0  0  0  0  0  0  0  0  0  0  0
    2.9226   -4.1170    0.0779 C   0  0  0  0  0  0  0  0  0  0  0  0
    2.7464   -4.3270   -1.2996 C   0  0  0  0  0  0  0  0  0  0  0  0
    2.9286   -3.2609   -2.1956 C   0  0  0  0  0  0  0  0  0  0  0  0
    3.2800   -1.9902   -1.7112 C   0  0  0  0  0  0  0  0  0  0  0  0
    1.1937    0.4569   -1.5250 H   0  0  0  0  0  0  0  0  0  0  0  0
   -0.7430    2.2115   -0.7593 H   0  0  0  0  0  0  0  0  0  0  0  0
   -0.0555    3.1917    1.6672 H   0  0  0  0  0  0  0  0  0  0  0  0
    2.2621    2.0155    2.4307 H   0  0  0  0  0  0  0  0  0  0  0  0
    5.6855   -0.5442    1.8324 H   0  0  0  0  0  0  0  0  0  0  0  0
    4.1264   -0.4726    2.7433 H   0  0  0  0  0  0  0  0  0  0  0  0
    4.9562    1.0411    2.2409 H   0  0  0  0  0  0  0  0  0  0  0  0
    3.5879    2.7059   -1.0418 H   0  0  0  0  0  0  0  0  0  0  0  0
    4.9915    3.8825   -2.7340 H   0  0  0  0  0  0  0  0  0  0  0  0
    7.0132    2.7549   -3.6980 H   0  0  0  0  0  0  0  0  0  0  0  0
    7.6220    0.4382   -2.9540 H   0  0  0  0  0  0  0  0  0  0  0  0
    6.2212   -0.7435   -1.2680 H   0  0  0  0  0  0  0  0  0  0  0  0
    3.3747   -2.6901    1.6428 H   0  0  0  0  0  0  0  0  0  0  0  0
    2.7863   -4.9508    0.7840 H   0  0  0  0  0  0  0  0  0  0  0  0
    2.4699   -5.3239   -1.6760 H   0  0  0  0  0  0  0  0  0  0  0  0
    2.7997   -3.4210   -3.2773 H   0  0  0  0  0  0  0  0  0  0  0  0
    3.4340   -1.1645   -2.4250 H   0  0  0  0  0  0  0  0  0  0  0  0
  1  7  1  0  0  0  0
  2  1  1  6  0  0  0
  2  6  1  0  0  0  0
  3  4  1  0  0  0  0
  3  2  1  0  0  0  0
  4  5  1  0  0  0  0
  5  6  2  0  0  0  0
  5 22  1  0  0  0  0
  6 23  1  0  0  0  0
  7 26  1  0  0  0  0
  7 25  1  0  0  0  0
  8  1  1  0  0  0  0
  9 27  1  0  0  0  0
  9  8  1  0  0  0  0
 10  9  2  0  0  0  0
 11 12  2  0  0  0  0
 11 10  1  0  0  0  0
 12 13  1  0  0  0  0
 13 31  1  0  0  0  0
 13  8  2  0  0  0  0
 14  1  1  0  0  0  0
 14 15  1  0  0  0  0
 15 32  1  0  0  0  0
 16 15  2  0  0  0  0
 16 33  1  0  0  0  0
 17 16  1  0  0  0  0
 18 19  1  0  0  0  0
 18 17  2  0  0  0  0
 19 14  2  0  0  0  0
 20  3  1  0  0  0  0
 21  4  1  0  0  0  0
 24  7  1  0  0  0  0
 28 10  1  0  0  0  0
 29 11  1  0  0  0  0
 30 12  1  0  0  0  0
 34 17  1  0  0  0  0
 35 18  1  0  0  0  0
 36 19  1  0  0  0  0
M  END
