1
q = -1.0

 11 10  0  0  0  0  0  0  0  0999 V2000
   -1.3027    0.8458   -1.6659 C   0  0  0  0  0  3  0  0  0  0  0  0
   -2.3249    1.7389   -1.6251 C   0  0  0  0  0  0  0  0  0  0  0  0
   -2.7841    2.5394   -2.8253 C   0  0  0  0  0  0  0  0  0  0  0  0
   -3.1078    2.0177   -0.3604 C   0  0  0  0  0  0  0  0  0  0  0  0
   -0.8128    0.7510   -2.6599 H   0  0  0  0  0  0  0  0  0  0  0  0
   -2.1824    2.3115   -3.7270 H   0  0  0  0  0  0  0  0  0  0  0  0
   -2.7194    3.6349   -2.6341 H   0  0  0  0  0  0  0  0  0  0  0  0
   -3.8532    2.3362   -3.0622 H   0  0  0  0  0  0  0  0  0  0  0  0
   -2.7795    1.3640    0.4735 H   0  0  0  0  0  0  0  0  0  0  0  0
   -3.0019    3.0800   -0.0408 H   0  0  0  0  0  0  0  0  0  0  0  0
   -4.1987    1.8539   -0.5111 H   0  0  0  0  0  0  0  0  0  0  0  0
  1  2  2  0  0  0  0
  2  4  1  0  0  0  0
  3  7  1  0  0  0  0
  3  2  1  0  0  0  0
  4 10  1  0  0  0  0
  4  9  1  0  0  0  0
  5  1  1  0  0  0  0
  6  3  1  0  0  0  0
  8  3  1  0  0  0  0
 11  4  1  0  0  0  0
M  END
