1
q = -1.0

  8  7  0  0  0  0  0  0  0  0999 V2000
   -2.1944   -0.0005   -1.7168 C   0  0  0  0  0  3  0  0  0  0  0  0
   -3.5456    0.0002   -1.7484 C   0  0  0  0  0  0  0  0  0  0  0  0
   -1.4112   -0.0012   -3.0076 C   0  0  0  0  0  0  0  0  0  0  0  0
   -4.1146    0.0003   -2.7041 H   0  0  0  0  0  0  0  0  0  0  0  0
   -4.1593    0.0007   -0.8300 H   0  0  0  0  0  0  0  0  0  0  0  0
   -0.7384   -0.8860   -3.0724 H   0  0  0  0  0  0  0  0  0  0  0  0
   -0.7370    0.8825   -3.0726 H   0  0  0  0  0  0  0  0  0  0  0  0
   -2.0580   -0.0009   -3.9162 H   0  0  0  0  0  0  0  0  0  0  0  0
  2  1  2  0  0  0  0
  2  5  1  0  0  0  0
  3  1  1  0  0  0  0
  4  2  1  0  0  0  0
  6  3  1  0  0  0  0
  7  3  1  0  0  0  0
  8  3  1  0  0  0  0
M  END
