1
q = -1.0

 13 13  0  0  0  0  0  0  0  0999 V2000
    1.6739   -0.3787    2.3207 C   0  0  0  0  0  3  0  0  0  0  0  0
    2.3200   -1.1800    2.7234 H   0  0  0  0  0  0  0  0  0  0  0  0
    1.9762    0.6003    2.7409 H   0  0  0  0  0  0  0  0  0  0  0  0
    0.2446   -0.6675    2.5909 C   0  0  0  0  0  0  0  0  0  0  0  0
   -0.1586   -1.9639    2.5484 N   0  0  0  0  0  0  0  0  0  0  0  0
   -1.4553   -2.2411    2.7257 C   0  0  0  0  0  0  0  0  0  0  0  0
   -1.7346   -3.3104    2.6767 H   0  0  0  0  0  0  0  0  0  0  0  0
   -2.4463   -1.2704    2.9554 C   0  0  0  0  0  0  0  0  0  0  0  0
   -3.4979   -1.5630    3.0951 H   0  0  0  0  0  0  0  0  0  0  0  0
   -2.0397    0.0715    3.0143 C   0  0  0  0  0  0  0  0  0  0  0  0
   -2.7708    0.8741    3.2010 H   0  0  0  0  0  0  0  0  0  0  0  0
   -0.6868    0.3758    2.8326 C   0  0  0  0  0  0  0  0  0  0  0  0
   -0.3352    1.4179    2.8722 H   0  0  0  0  0  0  0  0  0  0  0  0
  1  4  1  0  0  0  0
  1  2  1  0  0  0  0
  1  3  1  0  0  0  0
  4 12  1  0  0  0  0
  5  4  2  0  0  0  0
  5  6  1  0  0  0  0
  6  8  2  0  0  0  0
  7  6  1  0  0  0  0
  8 10  1  0  0  0  0
  8  9  1  0  0  0  0
 10 11  1  0  0  0  0
 12 13  1  0  0  0  0
 12 10  2  0  0  0  0
M  END
