1
q = -1.0

 15 15  0  0  0  0  0  0  0  0999 V2000
    1.7864    0.0202   -2.3185 C   0  0  0  0  0  3  0  0  0  0  0  0
    1.6856    1.0850   -2.6095 H   0  0  0  0  0  0  0  0  0  0  0  0
    2.6737   -0.4116   -2.8179 H   0  0  0  0  0  0  0  0  0  0  0  0
    0.5532   -0.7530   -2.6015 C   0  0  0  0  0  0  0  0  0  0  0  0
   -0.7192   -0.1532   -2.4809 C   0  0  0  0  0  0  0  0  0  0  0  0
   -0.7957    0.9265   -2.2919 H   0  0  0  0  0  0  0  0  0  0  0  0
   -1.8983   -0.9284   -2.5238 C   0  0  0  0  0  0  0  0  0  0  0  0
   -1.8347   -2.3153   -2.7944 C   0  0  0  0  0  0  0  0  0  0  0  0
   -2.7566   -2.9117   -2.8342 H   0  0  0  0  0  0  0  0  0  0  0  0
   -0.5790   -2.9018   -2.9996 C   0  0  0  0  0  0  0  0  0  0  0  0
   -0.5128   -3.9764   -3.2280 H   0  0  0  0  0  0  0  0  0  0  0  0
    0.5926   -2.1408   -2.8882 C   0  0  0  0  0  0  0  0  0  0  0  0
    1.5727   -2.6268   -3.0122 H   0  0  0  0  0  0  0  0  0  0  0  0
   -3.1399   -0.3140   -2.1569 C   0  0  0  0  0  0  0  0  0  0  0  0
   -4.1230    0.1937   -1.7592 N   0  0  0  0  0  0  0  0  0  0  0  0
  2  1  1  0  0  0  0
  3  1  1  0  0  0  0
  4  5  1  0  0  0  0
  4  1  1  0  0  0  0
  5  6  1  0  0  0  0
  7  5  2  0  0  0  0
  7 14  1  0  0  0  0
  8  7  1  0  0  0  0
  9  8  1  0  0  0  0
 10 12  1  0  0  0  0
 10  8  2  0  0  0  0
 11 10  1  0  0  0  0
 12  4  2  0  0  0  0
 13 12  1  0  0  0  0
 14 15  3  0  0  0  0
M  END
