4
q = -1.0

 19 20  0  0  0  0  0  0  0  0999 V2000
    1.7215   -1.2887    0.7409 C   0  0  0  0  0  0  0  0  0  0  0  0
    0.9541   -1.0776    1.9270 C   0  0  0  0  0  0  0  0  0  0  0  0
    0.6753   -1.8550    2.6496 H   0  0  0  0  0  0  0  0  0  0  0  0
    0.5260    0.2922    1.9452 C   0  0  0  0  0  3  0  0  0  0  0  0
   -0.0751    0.7653    2.7324 H   0  0  0  0  0  0  0  0  0  0  0  0
    1.2456    1.0121    0.8872 C   0  0  0  0  0  0  0  0  0  0  0  0
    1.2701    2.3662    0.4963 C   0  0  0  0  0  0  0  0  0  0  0  0
    0.7251    3.1276    1.0758 H   0  0  0  0  0  0  0  0  0  0  0  0
    2.0154    2.7255   -0.6382 C   0  0  0  0  0  0  0  0  0  0  0  0
    2.0600    3.7816   -0.9455 H   0  0  0  0  0  0  0  0  0  0  0  0
    2.7114    1.7546   -1.3908 C   0  0  0  0  0  0  0  0  0  0  0  0
    3.2793    2.0660   -2.2804 H   0  0  0  0  0  0  0  0  0  0  0  0
    2.6889    0.4004   -1.0222 C   0  0  0  0  0  0  0  0  0  0  0  0
    3.2119   -0.3569   -1.6246 H   0  0  0  0  0  0  0  0  0  0  0  0
    1.9764    0.0257    0.1310 C   0  0  0  0  0  0  0  0  0  0  0  0
    2.3010   -2.5751    0.2532 C   0  0  0  0  0  0  0  0  0  0  0  0
    1.9764   -3.4272    0.8799 H   0  0  0  0  0  0  0  0  0  0  0  0
    3.4109   -2.5362    0.2581 H   0  0  0  0  0  0  0  0  0  0  0  0
    1.9639   -2.7707   -0.7862 H   0  0  0  0  0  0  0  0  0  0  0  0
  1  2  2  0  0  0  0
  2  4  1  0  0  0  0
  2  3  1  0  0  0  0
  4  5  1  0  0  0  0
  6  4  1  0  0  0  0
  7  6  1  0  0  0  0
  7  8  1  0  0  0  0
  9  7  2  0  0  0  0
 10  9  1  0  0  0  0
 11 13  2  0  0  0  0
 11  9  1  0  0  0  0
 12 11  1  0  0  0  0
 13 15  1  0  0  0  0
 14 13  1  0  0  0  0
 15  1  1  0  0  0  0
 15  6  2  0  0  0  0
 16 18  1  0  0  0  0
 16  1  1  0  0  0  0
 16 17  1  0  0  0  0
 19 16  1  0  0  0  0
M  END
