4
q = -1.0, confidence = 0.0

 35 35  0  0  0  0  0  0  0  0999 V2000
    6.5172    0.0507   -0.1653 I   0  0  0  0  0  0  0  0  0  0  0  0
    3.4718    3.6853    0.0226 N   0  0  0  0  0  0  0  0  0  0  0  0
    5.1359   -2.9955    0.6433 N   0  0  0  0  0  0  0  0  0  0  0  0
   -1.1266   -0.1340   -0.0578 C   0  0  0  0  0  3  0  0  0  0  0  0
    0.1209   -0.1181   -0.0846 C   0  0  0  0  0  0  0  0  0  0  0  0
    1.5449   -0.0810   -0.1117 C   0  0  0  0  0  0  0  0  0  0  0  0
    2.2513    1.1291    0.0893 C   0  0  0  0  0  0  0  0  0  0  0  0
    3.6537    1.1979    0.0589 C   0  0  0  0  0  0  0  0  0  0  0  0
    4.3731    0.0018   -0.1562 C   0  0  0  0  0  0  0  0  0  0  0  0
    3.7164   -1.2347   -0.3558 C   0  0  0  0  0  0  0  0  0  0  0  0
    2.3134   -1.2510   -0.3367 C   0  0  0  0  0  0  0  0  0  0  0  0
    4.3271    2.5402    0.2982 C   0  0  0  0  0  0  0  0  0  0  0  0
    3.2773    3.8953   -1.4018 C   0  0  0  0  0  0  0  0  0  0  0  0
    3.9173    4.8893    0.6956 C   0  0  0  0  0  0  0  0  0  0  0  0
    4.4659   -2.5348   -0.5641 C   0  0  0  0  0  0  0  0  0  0  0  0
    4.2205   -3.3892    1.6929 C   0  0  0  0  0  0  0  0  0  0  0  0
    6.1555   -3.9856    0.3767 C   0  0  0  0  0  0  0  0  0  0  0  0
    1.7052    2.0663    0.2732 H   0  0  0  0  0  0  0  0  0  0  0  0
    1.7944   -2.2088   -0.4963 H   0  0  0  0  0  0  0  0  0  0  0  0
    4.6362    2.5860    1.3663 H   0  0  0  0  0  0  0  0  0  0  0  0
    5.2831    2.5794   -0.2865 H   0  0  0  0  0  0  0  0  0  0  0  0
    4.2252    4.1748   -1.9357 H   0  0  0  0  0  0  0  0  0  0  0  0
    2.5398    4.7067   -1.5698 H   0  0  0  0  0  0  0  0  0  0  0  0
    2.8840    2.9724   -1.8725 H   0  0  0  0  0  0  0  0  0  0  0  0
    4.9238    5.2521    0.3505 H   0  0  0  0  0  0  0  0  0  0  0  0
    3.9790    4.7164    1.7894 H   0  0  0  0  0  0  0  0  0  0  0  0
    3.1919    5.7102    0.5197 H   0  0  0  0  0  0  0  0  0  0  0  0
    3.7494   -3.3004   -0.9700 H   0  0  0  0  0  0  0  0  0  0  0  0
    5.2453   -2.3837   -1.3411 H   0  0  0  0  0  0  0  0  0  0  0  0
    3.6112   -4.2997    1.4338 H   0  0  0  0  0  0  0  0  0  0  0  0
    3.5128   -2.5650    1.9121 H   0  0  0  0  0  0  0  0  0  0  0  0
    4.7836   -3.6137    2.6218 H   0  0  0  0  0  0  0  0  0  0  0  0
    5.7530   -4.9465   -0.0482 H   0  0  0  0  0  0  0  0  0  0  0  0
    6.6937   -4.2364    1.3139 H   0  0  0  0  0  0  0  0  0  0  0  0
    6.8968   -3.5799   -0.3426 H   0  0  0  0  0  0  0  0  0  0  0  0
  1  9  1  0  0  0  0
  2 12  1  0  0  0  0
  2 14  1  0  0  0  0
  3 16  1  0  0  0  0
  5  4  3  0  0  0  0
  6  5  1  0  0  0  0
  6  7  1  0  0  0  0
  7 18  1  0  0  0  0
  8  7  2  0  0  0  0
  8 12  1  0  0  0  0
  9  8  1  0  0  0  0
 10 11  1  0  0  0  0
 10  9  2  0  0  0  0
 11  6  2  0  0  0  0
 12 20  1  0  0  0  0
 13  2  1  0  0  0  0
 14 26  1  0  0  0  0
 15 10  1  0  0  0  0
 15  3  1  0  0  0  0
 16 31  1  0  0  0  0
 16 32  1  0  0  0  0
 17  3  1  0  0  0  0
 17 34  1  0  0  0  0
 19 11  1  0  0  0  0
 21 12  1  0  0  0  0
 22 13  1  0  0  0  0
 23 13  1  0  0  0  0
 24 13  1  0  0  0  0
 25 14  1  0  0  0  0
 27 14  1  0  0  0  0
 28 15  1  0  0  0  0
 29 15  1  0  0  0  0
 30 16  1  0  0  0  0
 33 17  1  0  0  0  0
 35 17  1  0  0  0  0
M  END
