3
q = -1.0, confidence = 0.0

 42 45  0  0  0  0  0  0  0  0999 V2000
   -3.1469   -0.6644   -1.2958 S   0  0  0  0  0  0  0  0  0  0  0  0
    1.4204   -1.8225   -0.7283 C   0  0  0  0  0  0  0  0  0  0  0  0
    1.5270   -1.0017   -1.9055 C   0  0  0  0  0  3  0  0  0  0  0  0
    2.1971   -1.1741   -2.7542 H   0  0  0  0  0  0  0  0  0  0  0  0
    0.5867    0.0560   -1.7773 C   0  0  0  0  0  0  0  0  0  0  0  0
    0.4443    0.8544   -2.5125 H   0  0  0  0  0  0  0  0  0  0  0  0
   -0.0647   -0.0198   -0.5077 C   0  0  0  0  0  0  0  0  0  0  0  0
    0.4126   -1.2302    0.1328 C   0  0  0  0  0  0  0  0  0  0  0  0
    0.0879   -1.8688    1.3655 C   0  0  0  0  0  0  0  0  0  0  0  0
   -0.7034   -1.4629    2.0065 H   0  0  0  0  0  0  0  0  0  0  0  0
    0.7825   -3.0094    1.7311 C   0  0  0  0  0  0  0  0  0  0  0  0
    0.5367   -3.5109    2.6791 H   0  0  0  0  0  0  0  0  0  0  0  0
    1.8219   -3.5480    0.9136 C   0  0  0  0  0  0  0  0  0  0  0  0
    2.3641   -4.4420    1.2560 H   0  0  0  0  0  0  0  0  0  0  0  0
    2.1526   -2.9674   -0.2998 C   0  0  0  0  0  0  0  0  0  0  0  0
    2.9501   -3.3779   -0.9354 H   0  0  0  0  0  0  0  0  0  0  0  0
   -1.1762    0.9037   -0.0038 C   0  0  0  0  0  0  0  0  0  0  0  0
   -0.7895    1.5621    1.3531 C   0  0  0  0  0  0  0  0  0  0  0  0
   -0.6345    0.7865    2.1290 H   0  0  0  0  0  0  0  0  0  0  0  0
    0.2014    2.0381    1.2068 H   0  0  0  0  0  0  0  0  0  0  0  0
   -1.7818    2.6289    1.8351 C   0  0  0  0  0  0  0  0  0  0  0  0
   -2.7522    2.1611    2.1030 H   0  0  0  0  0  0  0  0  0  0  0  0
   -1.3875    3.0882    2.7656 H   0  0  0  0  0  0  0  0  0  0  0  0
   -2.0251    3.7002    0.7674 C   0  0  0  0  0  0  0  0  0  0  0  0
   -2.7824    4.4316    1.1186 H   0  0  0  0  0  0  0  0  0  0  0  0
   -1.0854    4.2724    0.5985 H   0  0  0  0  0  0  0  0  0  0  0  0
   -2.4651    3.0579   -0.5522 C   0  0  0  0  0  0  0  0  0  0  0  0
   -2.6124    3.8316   -1.3340 H   0  0  0  0  0  0  0  0  0  0  0  0
   -3.4473    2.5541   -0.4160 H   0  0  0  0  0  0  0  0  0  0  0  0
   -1.4323    2.0377   -1.0362 C   0  0  0  0  0  0  0  0  0  0  0  0
   -0.4663    2.5538   -1.2200 H   0  0  0  0  0  0  0  0  0  0  0  0
   -1.7527    1.5931   -2.0019 H   0  0  0  0  0  0  0  0  0  0  0  0
   -2.4182    0.0310    0.1394 C   0  0  0  0  0  0  0  0  0  0  0  0
   -3.0947   -0.4032    1.2659 C   0  0  0  0  0  0  0  0  0  0  0  0
   -2.8184   -0.1013    2.2848 H   0  0  0  0  0  0  0  0  0  0  0  0
   -4.1881   -1.2775    0.9756 C   0  0  0  0  0  0  0  0  0  0  0  0
   -4.8445   -1.7139    1.7421 H   0  0  0  0  0  0  0  0  0  0  0  0
   -4.3553   -1.5255   -0.3748 C   0  0  0  0  0  0  0  0  0  0  0  0
   -5.3847   -2.3740   -1.0541 C   0  0  0  0  0  0  0  0  0  0  0  0
   -6.0453   -2.8395   -0.2973 H   0  0  0  0  0  0  0  0  0  0  0  0
   -4.9251   -3.1896   -1.6507 H   0  0  0  0  0  0  0  0  0  0  0  0
   -6.0234   -1.7836   -1.7442 H   0  0  0  0  0  0  0  0  0  0  0  0
  1 38  1  0  0  0  0
  1 33  1  0  0  0  0
  2 15  2  0  0  0  0
  2  8  1  0  0  0  0
  3  5  1  0  0  0  0
  3  2  1  0  0  0  0
  4  3  1  0  0  0  0
  5  7  2  0  0  0  0
  6  5  1  0  0  0  0
  7 17  1  0  0  0  0
  7  8  1  0  0  0  0
  8  9  2  0  0  0  0
  9 11  1  0  0  0  0
  9 10  1  0  0  0  0
 11 12  1  0  0  0  0
 13 14  1  0  0  0  0
 13 11  2  0  0  0  0
 15 13  1  0  0  0  0
 16 15  1  0  0  0  0
 17 33  1  0  0  0  0
 17 18  1  0  0  0  0
 18 21  1  0  0  0  0
 18 19  1  0  0  0  0
 20 18  1  0  0  0  0
 21 22  1  0  0  0  0
 21 23  1  0  0  0  0
 24 25  1  0  0  0  0
 24 21  1  0  0  0  0
 26 24  1  0  0  0  0
 27 29  1  0  0  0  0
 27 24  1  0  0  0  0
 28 27  1  0  0  0  0
 30 27  1  0  0  0  0
 30 17  1  0  0  0  0
 31 30  1  0  0  0  0
 32 30  1  0  0  0  0
 33 34  2  0  0  0  0
 34 35  1  0  0  0  0
 36 34  1  0  0  0  0
 36 37  1  0  0  0  0
 38 36  2  0  0  0  0
 39 38  1  0  0  0  0
 39 40  1  0  0  0  0
 41 39  1  0  0  0  0
 42 39  1  0  0  0  0
M  END
