9
q = 0.0, confidence = 0.96

 16 15  0  0  0  0  0  0  0  0999 V2000
   -1.7212   -1.0020    0.3646 S   0  0  0  0  0  0  0  0  0  0  0  0
   -3.4665   -0.4791    0.6496 C   0  0  0  0  0  0  0  0  0  0  0  0
   -3.9615   -1.4223    0.9635 H   0  0  0  0  0  0  0  0  0  0  0  0
   -3.5038    0.2064    1.5220 H   0  0  0  0  0  0  0  0  0  0  0  0
   -5.6216    0.4375   -0.3337 C   0  0  0  0  0  0  0  0  0  0  0  0
   -6.1928   -0.4709   -0.0514 H   0  0  0  0  0  0  0  0  0  0  0  0
   -6.0967    0.8637   -1.2395 H   0  0  0  0  0  0  0  0  0  0  0  0
   -5.7419    1.1754    0.4865 H   0  0  0  0  0  0  0  0  0  0  0  0
   -0.6782    0.3447    0.3633 C   0  0  0  0  0  2  0  0  0  0  0  0
   -1.2470    1.7062    0.6340 C   0  0  0  0  0  0  0  0  0  0  0  0
   -2.2363    1.7255    1.1342 H   0  0  0  0  0  0  0  0  0  0  0  0
   -1.3527    2.2352   -0.3392 H   0  0  0  0  0  0  0  0  0  0  0  0
   -0.5321    2.3118    1.2243 H   0  0  0  0  0  0  0  0  0  0  0  0
   -4.1471    0.1149   -0.5850 C   0  0  0  0  0  0  0  0  0  0  0  0
   -4.0470   -0.5997   -1.4295 H   0  0  0  0  0  0  0  0  0  0  0  0
   -3.6057    1.0323   -0.8983 H   0  0  0  0  0  0  0  0  0  0  0  0
  1  2  1  0  0  0  0
  2  3  1  0  0  0  0
  2  4  1  0  0  0  0
  5  6  1  0  0  0  0
  5  8  1  0  0  0  0
  7  5  1  0  0  0  0
  9  1  1  0  0  0  0
  9 10  1  0  0  0  0
 10 11  1  0  0  0  0
 10 13  1  0  0  0  0
 12 10  1  0  0  0  0
 14  5  1  0  0  0  0
 14  2  1  0  0  0  0
 15 14  1  0  0  0  0
 16 14  1  0  0  0  0
M  END
