1
q = 0.0, confidence = 0.83

 29 30  0  0  0  0  0  0  0  0999 V2000
   -0.1093    0.0555   -0.0120 C   0  0  0  0  0  2  0  0  0  0  0  0
    0.8822    1.1531   -0.0045 C   0  0  0  0  0  0  0  0  0  0  0  0
    1.9365    1.2333    0.9369 C   0  0  0  0  0  0  0  0  0  0  0  0
    1.9954    0.4787    1.7337 H   0  0  0  0  0  0  0  0  0  0  0  0
    2.8636    2.2819    0.8972 C   0  0  0  0  0  0  0  0  0  0  0  0
    3.6542    2.3321    1.6630 H   0  0  0  0  0  0  0  0  0  0  0  0
    2.8058    3.2772   -0.0998 C   0  0  0  0  0  0  0  0  0  0  0  0
    1.7509    3.2055   -1.0354 C   0  0  0  0  0  0  0  0  0  0  0  0
    1.6706    3.9766   -1.8186 H   0  0  0  0  0  0  0  0  0  0  0  0
    0.7954    2.1870   -0.9748 C   0  0  0  0  0  0  0  0  0  0  0  0
   -0.0308    2.1651   -1.7016 H   0  0  0  0  0  0  0  0  0  0  0  0
    3.8357    4.3744   -0.1752 C   0  0  0  0  0  0  0  0  0  0  0  0
    4.5905    4.1586   -0.9623 H   0  0  0  0  0  0  0  0  0  0  0  0
    4.3816    4.4907    0.7812 H   0  0  0  0  0  0  0  0  0  0  0  0
    3.3750    5.3495   -0.4326 H   0  0  0  0  0  0  0  0  0  0  0  0
   -1.5005    0.5412   -0.0473 C   0  0  0  0  0  0  0  0  0  0  0  0
   -1.8993    1.6339    0.7688 C   0  0  0  0  0  0  0  0  0  0  0  0
   -1.1551    2.1051    1.4283 H   0  0  0  0  0  0  0  0  0  0  0  0
   -3.2198    2.0907    0.7712 C   0  0  0  0  0  0  0  0  0  0  0  0
   -3.5057    2.9191    1.4392 H   0  0  0  0  0  0  0  0  0  0  0  0
   -4.1923    1.5201   -0.0779 C   0  0  0  0  0  0  0  0  0  0  0  0
   -3.7874    0.4678   -0.9259 C   0  0  0  0  0  0  0  0  0  0  0  0
   -4.5183    0.0215   -1.6188 H   0  0  0  0  0  0  0  0  0  0  0  0
   -2.4795   -0.0248   -0.9002 C   0  0  0  0  0  0  0  0  0  0  0  0
   -2.1858   -0.8401   -1.5750 H   0  0  0  0  0  0  0  0  0  0  0  0
   -5.6188    2.0032   -0.0616 C   0  0  0  0  0  0  0  0  0  0  0  0
   -6.1168    1.8436   -1.0382 H   0  0  0  0  0  0  0  0  0  0  0  0
   -5.6844    3.0796    0.1929 H   0  0  0  0  0  0  0  0  0  0  0  0
   -6.2126    1.4527    0.7004 H   0  0  0  0  0  0  0  0  0  0  0  0
  1  2  1  0  0  0  0
  2  3  1  0  0  0  0
  3  4  1  0  0  0  0
  5  3  2  0  0  0  0
  5  6  1  0  0  0  0
  7  5  1  0  0  0  0
  8 10  1  0  0  0  0
  8  7  2  0  0  0  0
  9  8  1  0  0  0  0
 10  2  2  0  0  0  0
 11 10  1  0  0  0  0
 12  7  1  0  0  0  0
 12 14  1  0  0  0  0
 13 12  1  0  0  0  0
 15 12  1  0  0  0  0
 16  1  1  0  0  0  0
 16 17  1  0  0  0  0
 17 19  2  0  0  0  0
 17 18  1  0  0  0  0
 19 20  1  0  0  0  0
 21 26  1  0  0  0  0
 21 19  1  0  0  0  0
 22 24  1  0  0  0  0
 22 21  2  0  0  0  0
 23 22  1  0  0  0  0
 24 16  2  0  0  0  0
 25 24  1  0  0  0  0
 26 28  1  0  0  0  0
 26 29  1  0  0  0  0
 27 26  1  0  0  0  0
M  END
