55
q = 0.0, confidence = 0.97

 78 84  0  0  1  0  0  0  0  0999 V2000
    1.7695    0.1459    0.0045 P   0  0  0  0  0  0  0  0  0  0  0  0
   -1.7707    0.1754   -0.0367 P   0  0  0  0  0  0  0  0  0  0  0  0
   -1.9765    4.2112    0.8220 C   0  0  0  0  0  0  0  0  0  0  0  0
   -2.2545    4.8295    1.6886 H   0  0  0  0  0  0  0  0  0  0  0  0
    1.2835   -3.2010   -0.9396 C   0  0  0  0  0  0  0  0  0  0  0  0
    2.2506   -3.2558   -1.4573 H   0  0  0  0  0  0  0  0  0  0  0  0
    2.3733    3.7375   -1.9561 C   0  0  0  0  0  0  0  0  0  0  0  0
    2.7341    4.0702   -2.9407 H   0  0  0  0  0  0  0  0  0  0  0  0
    2.0325    4.6795   -0.9736 C   0  0  0  0  0  0  0  0  0  0  0  0
    2.1259    5.7552   -1.1852 H   0  0  0  0  0  0  0  0  0  0  0  0
    2.0563    0.1032    1.8175 C   0  0  0  0  0  0  0  0  0  0  0  0
    1.5689    4.2471    0.2788 C   0  0  0  0  0  0  0  0  0  0  0  0
    1.2876    4.9795    1.0494 H   0  0  0  0  0  0  0  0  0  0  0  0
    5.5624   -1.7553   -1.9594 C   0  0  0  0  0  0  0  0  0  0  0  0
    6.4480   -2.2093   -2.4285 H   0  0  0  0  0  0  0  0  0  0  0  0
   -3.3749    0.2917   -2.3840 C   0  0  0  0  0  0  0  0  0  0  0  0
   -2.6939    1.0739   -2.7391 H   0  0  0  0  0  0  0  0  0  0  0  0
    3.3400   -0.7781   -2.1542 C   0  0  0  0  0  0  0  0  0  0  0  0
    2.4672   -0.5183   -2.7732 H   0  0  0  0  0  0  0  0  0  0  0  0
    1.8271    1.9283   -0.4215 C   0  0  0  0  0  0  0  0  0  0  0  0
   -1.9736   -1.1096    3.8607 C   0  0  0  0  0  0  0  0  0  0  0  0
   -1.3492   -1.6749    4.5691 H   0  0  0  0  0  0  0  0  0  0  0  0
    3.2947   -0.5796   -0.7549 C   0  0  0  0  0  0  0  0  0  0  0  0
   -5.3073   -1.1346   -2.7870 C   0  0  0  0  0  0  0  0  0  0  0  0
   -6.1271   -1.4650   -3.4420 H   0  0  0  0  0  0  0  0  0  0  0  0
   -1.9603    2.8142    0.9498 C   0  0  0  0  0  0  0  0  0  0  0  0
   -2.2211    2.3601    1.9151 H   0  0  0  0  0  0  0  0  0  0  0  0
    4.4723   -1.3524   -2.7486 C   0  0  0  0  0  0  0  0  0  0  0  0
    4.4971   -1.4939   -3.8397 H   0  0  0  0  0  0  0  0  0  0  0  0
   -3.2058   -0.2789   -1.1060 C   0  0  0  0  0  0  0  0  0  0  0  0
   -1.2245   -2.9169    0.3740 C   0  0  0  0  0  0  0  0  0  0  0  0
   -2.1961   -2.7560    0.8622 H   0  0  0  0  0  0  0  0  0  0  0  0
   -1.1948   -3.2380   -1.0092 C   0  0  0  0  0  0  0  0  0  0  0  0
   -2.1305   -3.3188   -1.5798 H   0  0  0  0  0  0  0  0  0  0  0  0
    2.5840   -0.0355    4.5654 C   0  0  0  0  0  0  0  0  0  0  0  0
    2.7888   -0.1014    5.6445 H   0  0  0  0  0  0  0  0  0  0  0  0
   -1.2620    4.0144   -1.4879 C   0  0  0  0  0  0  0  0  0  0  0  0
   -0.9661    4.4796   -2.4395 H   0  0  0  0  0  0  0  0  0  0  0  0
   -4.1074   -1.2792   -0.6762 C   0  0  0  0  0  0  0  0  0  0  0  0
   -4.0194   -1.7147    0.3295 H   0  0  0  0  0  0  0  0  0  0  0  0
   -4.4210   -0.1350   -3.2150 C   0  0  0  0  0  0  0  0  0  0  0  0
   -4.5422    0.3233   -4.2077 H   0  0  0  0  0  0  0  0  0  0  0  0
   -3.2341   -0.6630    4.2805 C   0  0  0  0  0  0  0  0  0  0  0  0
   -3.5746   -0.8725    5.3057 H   0  0  0  0  0  0  0  0  0  0  0  0
    1.2061   -0.6846    2.6345 C   0  0  0  0  0  0  0  0  0  0  0  0
   -2.3588   -0.1544    1.6708 C   0  0  0  0  0  0  0  0  0  0  0  0
    2.2733    2.3655   -1.6857 C   0  0  0  0  0  0  0  0  0  0  0  0
    2.5627    1.6415   -2.4575 H   0  0  0  0  0  0  0  0  0  0  0  0
    1.4997   -0.7337    4.0185 C   0  0  0  0  0  0  0  0  0  0  0  0
    0.8651   -1.3322    4.6891 H   0  0  0  0  0  0  0  0  0  0  0  0
   -5.1501   -1.7025   -1.5128 C   0  0  0  0  0  0  0  0  0  0  0  0
   -5.8511   -2.4734   -1.1590 H   0  0  0  0  0  0  0  0  0  0  0  0
    4.3853   -0.9998    0.0348 C   0  0  0  0  0  0  0  0  0  0  0  0
    4.3642   -0.8800    1.1268 H   0  0  0  0  0  0  0  0  0  0  0  0
   -0.0212   -2.6505    1.1366 C   0  0  1  0  0  3  0  0  0  0  0  0
   -1.5061   -0.8701    2.5473 C   0  0  0  0  0  0  0  0  0  0  0  0
    1.4568    2.8786    0.5548 C   0  0  0  0  0  0  0  0  0  0  0  0
    1.0911    2.5506    1.5378 H   0  0  0  0  0  0  0  0  0  0  0  0
   -1.6195    2.0044   -0.1559 C   0  0  0  0  0  0  0  0  0  0  0  0
    5.5106   -1.5855   -0.5686 C   0  0  0  0  0  0  0  0  0  0  0  0
    6.3528   -1.9101    0.0607 H   0  0  0  0  0  0  0  0  0  0  0  0
    0.0675   -3.3046   -1.6693 C   0  0  0  0  0  0  0  0  0  0  0  0
    0.1008   -3.4132   -2.7634 H   0  0  0  0  0  0  0  0  0  0  0  0
    3.1321    0.8346    2.3707 C   0  0  0  0  0  0  0  0  0  0  0  0
    3.7578    1.4684    1.7242 H   0  0  0  0  0  0  0  0  0  0  0  0
   -1.6483    4.8137   -0.4007 C   0  0  0  0  0  0  0  0  0  0  0  0
   -1.6752    5.9091   -0.5017 H   0  0  0  0  0  0  0  0  0  0  0  0
   -1.2340    2.6193   -1.3689 C   0  0  0  0  0  0  0  0  0  0  0  0
   -0.8848    2.0032   -2.2087 H   0  0  0  0  0  0  0  0  0  0  0  0
    1.2304   -2.8508    0.4407 C   0  0  0  0  0  3  0  0  0  0  0  0
    2.1717   -2.6321    0.9684 H   0  0  0  0  0  0  0  0  0  0  0  0
    3.3967    0.7628    3.7430 C   0  0  0  0  0  0  0  0  0  0  0  0
    4.2341    1.3327    4.1719 H   0  0  0  0  0  0  0  0  0  0  0  0
   -4.0662    0.0427    3.3949 C   0  0  0  0  0  0  0  0  0  0  0  0
   -5.0564    0.3929    3.7218 H   0  0  0  0  0  0  0  0  0  0  0  0
   -3.6312    0.2956    2.0886 C   0  0  0  0  0  0  0  0  0  0  0  0
   -4.2818    0.8403    1.3878 H   0  0  0  0  0  0  0  0  0  0  0  0
   -0.0902   -1.3999    2.0663 B   0  0  0  0  0  0  0  0  0  0  0  0
  1 11  1  0  0  0  0
  2 46  1  0  0  0  0
  3 26  1  0  0  0  0
  3  4  1  0  0  0  0
  5 70  1  0  0  0  0
  6  5  1  0  0  0  0
  7 47  2  0  0  0  0
  7  9  1  0  0  0  0
  8  7  1  0  0  0  0
  9 12  2  0  0  0  0
 10  9  1  0  0  0  0
 11 64  2  0  0  0  0
 11 45  1  0  0  0  0
 12 57  1  0  0  0  0
 12 13  1  0  0  0  0
 14 60  1  0  0  0  0
 15 14  1  0  0  0  0
 16 30  1  0  0  0  0
 17 16  1  0  0  0  0
 18 23  2  0  0  0  0
 19 18  1  0  0  0  0
 20  1  1  0  0  0  0
 20 57  2  0  0  0  0
 21 43  1  0  0  0  0
 21 22  1  0  0  0  0
 23  1  1  0  0  0  0
 23 53  1  0  0  0  0
 24 51  2  0  0  0  0
 25 24  1  0  0  0  0
 26 27  1  0  0  0  0
 28 18  1  0  0  0  0
 28 14  2  0  0  0  0
 29 28  1  0  0  0  0
 30 39  2  0  0  0  0
 30  2  1  0  0  0  0
 31 32  1  0  0  0  0
 31 55  1  0  0  0  0
 33 31  2  0  0  0  0
 34 33  1  0  0  0  0
 35 36  1  0  0  0  0
 37 68  2  0  0  0  0
 37 66  1  0  0  0  0
 38 37  1  0  0  0  0
 39 40  1  0  0  0  0
 41 24  1  0  0  0  0
 41 16  2  0  0  0  0
 42 41  1  0  0  0  0
 43 44  1  0  0  0  0
 45 49  2  0  0  0  0
 46 76  2  0  0  0  0
 46 56  1  0  0  0  0
 47 20  1  0  0  0  0
 48 47  1  0  0  0  0
 49 35  1  0  0  0  0
 49 50  1  0  0  0  0
 51 52  1  0  0  0  0
 51 39  1  0  0  0  0
 53 54  1  0  0  0  0
 55 78  1  6  0  0  0
 56 21  2  0  0  0  0
 57 58  1  0  0  0  0
 59  2  1  0  0  0  0
 59 26  2  0  0  0  0
 60 53  2  0  0  0  0
 60 61  1  0  0  0  0
 62 33  1  0  0  0  0
 62  5  2  0  0  0  0
 63 62  1  0  0  0  0
 64 72  1  0  0  0  0
 65 64  1  0  0  0  0
 66  3  2  0  0  0  0
 67 66  1  0  0  0  0
 68 59  1  0  0  0  0
 69 68  1  0  0  0  0
 70 71  1  0  0  0  0
 70 55  1  0  0  0  0
 72 73  1  0  0  0  0
 72 35  2  0  0  0  0
 74 75  1  0  0  0  0
 74 43  2  0  0  0  0
 76 74  1  0  0  0  0
 77 76  1  0  0  0  0
 78 56  1  0  0  0  0
 78 45  1  0  0  0  0
M  END
