4
q = -1.0

 79 85  0  0  1  0  0  0  0  0999 V2000
    0.1099   -4.7192    0.2052 Cl  0  0  0  0  0  0  0  0  0  0  0  0
   -1.6972    0.2026    0.0882 P   0  0  0  0  0  0  0  0  0  0  0  0
    1.6719    0.3271    0.0683 P   0  0  0  0  0  0  0  0  0  0  0  0
    0.0997   -2.3012   -1.1060 C   0  0  1  0  0  3  0  0  0  0  0  0
   -1.1455   -2.0207   -1.7645 C   0  0  0  0  0  3  0  0  0  0  0  0
   -2.0826   -2.2923   -1.2540 H   0  0  0  0  0  0  0  0  0  0  0  0
   -1.2249   -1.3254   -3.0142 C   0  0  0  0  0  0  0  0  0  0  0  0
   -2.2040   -1.0629   -3.4365 H   0  0  0  0  0  0  0  0  0  0  0  0
   -0.0251   -0.8553   -3.6210 C   0  0  0  0  0  0  0  0  0  0  0  0
   -0.0800   -0.2028   -4.5046 H   0  0  0  0  0  0  0  0  0  0  0  0
    1.2432   -1.1933   -3.0666 C   0  0  0  0  0  0  0  0  0  0  0  0
    2.1737   -0.8253   -3.5204 H   0  0  0  0  0  0  0  0  0  0  0  0
    1.2803   -1.9054   -1.8269 C   0  0  0  0  0  0  0  0  0  0  0  0
    2.2596   -2.0888   -1.3615 H   0  0  0  0  0  0  0  0  0  0  0  0
   -1.1000   -2.3296    1.3833 C   0  0  0  0  0  0  0  0  0  0  0  0
   -1.8428   -1.1108    1.3761 C   0  0  0  0  0  0  0  0  0  0  0  0
   -3.3194    0.1398   -0.8260 C   0  0  0  0  0  0  0  0  0  0  0  0
   -4.3733   -0.7096   -0.4346 C   0  0  0  0  0  0  0  0  0  0  0  0
   -4.2646   -1.3556    0.4479 H   0  0  0  0  0  0  0  0  0  0  0  0
   -5.5646   -0.7500   -1.1785 C   0  0  0  0  0  0  0  0  0  0  0  0
   -6.3750   -1.4249   -0.8636 H   0  0  0  0  0  0  0  0  0  0  0  0
   -5.7202    0.0573   -2.3142 C   0  0  0  0  0  0  0  0  0  0  0  0
   -6.6563    0.0258   -2.8922 H   0  0  0  0  0  0  0  0  0  0  0  0
   -4.6669    0.8948   -2.7177 C   0  0  0  0  0  0  0  0  0  0  0  0
   -4.7708    1.5209   -3.6172 H   0  0  0  0  0  0  0  0  0  0  0  0
   -3.4692    0.9286   -1.9893 C   0  0  0  0  0  0  0  0  0  0  0  0
   -2.6248    1.5450   -2.3407 H   0  0  0  0  0  0  0  0  0  0  0  0
   -1.8245    1.7923    1.0206 C   0  0  0  0  0  0  0  0  0  0  0  0
   -1.4225    1.8669    2.3707 C   0  0  0  0  0  0  0  0  0  0  0  0
   -1.0152    0.9797    2.8739 H   0  0  0  0  0  0  0  0  0  0  0  0
   -1.5551    3.0659    3.0830 C   0  0  0  0  0  0  0  0  0  0  0  0
   -1.2436    3.1044    4.1372 H   0  0  0  0  0  0  0  0  0  0  0  0
   -2.0696    4.2098    2.4542 C   0  0  0  0  0  0  0  0  0  0  0  0
   -2.1745    5.1501    3.0166 H   0  0  0  0  0  0  0  0  0  0  0  0
   -2.4398    4.1507    1.1027 C   0  0  0  0  0  0  0  0  0  0  0  0
   -2.8341    5.0446    0.5961 H   0  0  0  0  0  0  0  0  0  0  0  0
   -2.3197    2.9506    0.3872 C   0  0  0  0  0  0  0  0  0  0  0  0
   -2.6176    2.9216   -0.6676 H   0  0  0  0  0  0  0  0  0  0  0  0
   -2.8421   -0.8579    2.3549 C   0  0  0  0  0  0  0  0  0  0  0  0
   -3.4157    0.0801    2.3170 H   0  0  0  0  0  0  0  0  0  0  0  0
   -3.1166   -1.7765    3.3695 C   0  0  0  0  0  0  0  0  0  0  0  0
   -3.8918   -1.5570    4.1193 H   0  0  0  0  0  0  0  0  0  0  0  0
   -2.3900   -2.9767    3.4056 C   0  0  0  0  0  0  0  0  0  0  0  0
   -2.5845   -3.7210    4.1937 H   0  0  0  0  0  0  0  0  0  0  0  0
   -1.4208   -3.2321    2.4322 C   0  0  0  0  0  0  0  0  0  0  0  0
   -0.8837   -4.1916    2.4547 H   0  0  0  0  0  0  0  0  0  0  0  0
    1.5490   -2.3578    1.1901 C   0  0  0  0  0  0  0  0  0  0  0  0
    2.2116   -1.0962    1.1176 C   0  0  0  0  0  0  0  0  0  0  0  0
    1.5716    1.7650    1.2322 C   0  0  0  0  0  0  0  0  0  0  0  0
    1.2405    3.0382    0.7173 C   0  0  0  0  0  0  0  0  0  0  0  0
    0.9151    3.1365   -0.3289 H   0  0  0  0  0  0  0  0  0  0  0  0
    1.2668    4.1649    1.5493 C   0  0  0  0  0  0  0  0  0  0  0  0
    1.0044    5.1483    1.1315 H   0  0  0  0  0  0  0  0  0  0  0  0
    1.6032    4.0404    2.9060 C   0  0  0  0  0  0  0  0  0  0  0  0
    1.6291    4.9293    3.5547 H   0  0  0  0  0  0  0  0  0  0  0  0
    1.8692    2.7706    3.4371 C   0  0  0  0  0  0  0  0  0  0  0  0
    2.0952    2.6527    4.5080 H   0  0  0  0  0  0  0  0  0  0  0  0
    1.8443    1.6370    2.6109 C   0  0  0  0  0  0  0  0  0  0  0  0
    2.0379    0.6490    3.0486 H   0  0  0  0  0  0  0  0  0  0  0  0
    3.1797    0.7022   -0.9600 C   0  0  0  0  0  0  0  0  0  0  0  0
    3.2250    1.8906   -1.7202 C   0  0  0  0  0  0  0  0  0  0  0  0
    2.3948    2.6065   -1.6758 H   0  0  0  0  0  0  0  0  0  0  0  0
    4.3009    2.1409   -2.5829 C   0  0  0  0  0  0  0  0  0  0  0  0
    4.3176    3.0740   -3.1664 H   0  0  0  0  0  0  0  0  0  0  0  0
    5.3414    1.2072   -2.7141 C   0  0  0  0  0  0  0  0  0  0  0  0
    6.1832    1.4058   -3.3948 H   0  0  0  0  0  0  0  0  0  0  0  0
    5.2961    0.0167   -1.9743 C   0  0  0  0  0  0  0  0  0  0  0  0
    6.1024   -0.7266   -2.0685 H   0  0  0  0  0  0  0  0  0  0  0  0
    4.2255   -0.2355   -1.1014 C   0  0  0  0  0  0  0  0  0  0  0  0
    4.2150   -1.1690   -0.5209 H   0  0  0  0  0  0  0  0  0  0  0  0
    3.4135   -0.8634    1.8385 C   0  0  0  0  0  0  0  0  0  0  0  0
    3.9378    0.0978    1.7280 H   0  0  0  0  0  0  0  0  0  0  0  0
    3.9580   -1.8376    2.6787 C   0  0  0  0  0  0  0  0  0  0  0  0
    4.8881   -1.6336    3.2305 H   0  0  0  0  0  0  0  0  0  0  0  0
    3.3033   -3.0735    2.7914 C   0  0  0  0  0  0  0  0  0  0  0  0
    3.7116   -3.8607    3.4445 H   0  0  0  0  0  0  0  0  0  0  0  0
    2.1411   -3.3155    2.0525 C   0  0  0  0  0  0  0  0  0  0  0  0
    1.6667   -4.3067    2.1069 H   0  0  0  0  0  0  0  0  0  0  0  0
    0.1597   -2.7935    0.4209 B   0  0  0  0  0  0  0  0  0  0  0  0
  1 79  1  0  0  0  0
  2 28  1  0  0  0  0
  2 16  1  0  0  0  0
  3 48  1  0  0  0  0
  3 49  1  0  0  0  0
  4 79  1  1  0  0  0
  5  6  1  0  0  0  0
  5  4  1  0  0  0  0
  7  5  1  0  0  0  0
  8  7  1  0  0  0  0
  9 11  1  0  0  0  0
  9  7  2  0  0  0  0
 10  9  1  0  0  0  0
 11 13  2  0  0  0  0
 12 11  1  0  0  0  0
 13 14  1  0  0  0  0
 13  4  1  0  0  0  0
 15 45  1  0  0  0  0
 16 15  2  0  0  0  0
 16 39  1  0  0  0  0
 17 18  1  0  0  0  0
 17  2  1  0  0  0  0
 18 19  1  0  0  0  0
 20 21  1  0  0  0  0
 20 18  2  0  0  0  0
 22 20  1  0  0  0  0
 23 22  1  0  0  0  0
 24 22  2  0  0  0  0
 24 26  1  0  0  0  0
 25 24  1  0  0  0  0
 26 17  2  0  0  0  0
 27 26  1  0  0  0  0
 28 29  1  0  0  0  0
 29 30  1  0  0  0  0
 29 31  2  0  0  0  0
 31 32  1  0  0  0  0
 33 34  1  0  0  0  0
 33 31  1  0  0  0  0
 35 33  2  0  0  0  0
 36 35  1  0  0  0  0
 37 28  2  0  0  0  0
 37 35  1  0  0  0  0
 38 37  1  0  0  0  0
 39 41  2  0  0  0  0
 40 39  1  0  0  0  0
 41 43  1  0  0  0  0
 41 42  1  0  0  0  0
 43 44  1  0  0  0  0
 45 46  1  0  0  0  0
 45 43  2  0  0  0  0
 47 77  1  0  0  0  0
 48 47  2  0  0  0  0
 48 71  1  0  0  0  0
 49 58  1  0  0  0  0
 50 49  2  0  0  0  0
 50 52  1  0  0  0  0
 51 50  1  0  0  0  0
 52 54  2  0  0  0  0
 53 52  1  0  0  0  0
 54 56  1  0  0  0  0
 54 55  1  0  0  0  0
 56 57  1  0  0  0  0
 58 59  1  0  0  0  0
 58 56  2  0  0  0  0
 60  3  1  0  0  0  0
 61 62  1  0  0  0  0
 61 60  2  0  0  0  0
 63 61  1  0  0  0  0
 64 63  1  0  0  0  0
 65 63  2  0  0  0  0
 65 67  1  0  0  0  0
 66 65  1  0  0  0  0
 67 69  2  0  0  0  0
 68 67  1  0  0  0  0
 69 60  1  0  0  0  0
 69 70  1  0  0  0  0
 71 73  2  0  0  0  0
 72 71  1  0  0  0  0
 73 75  1  0  0  0  0
 73 74  1  0  0  0  0
 75 76  1  0  0  0  0
 77 78  1  0  0  0  0
 77 75  2  0  0  0  0
 79 47  1  0  0  0  0
 79 15  1  0  0  0  0
M  END
