1
q = -1.0

 21 22  0  0  0  0  0  0  0  0999 V2000
   -0.8179   -1.9586    0.0210 C   0  0  0  0  0  3  0  0  0  0  0  0
   -0.3294   -3.2776   -0.0022 C   0  0  0  0  0  0  0  0  0  0  0  0
    0.7471   -3.4711   -0.0748 H   0  0  0  0  0  0  0  0  0  0  0  0
   -1.2101   -4.3677    0.0652 C   0  0  0  0  0  0  0  0  0  0  0  0
   -0.7998   -5.3885    0.0459 H   0  0  0  0  0  0  0  0  0  0  0  0
   -2.5891   -4.1460    0.1521 C   0  0  0  0  0  0  0  0  0  0  0  0
   -3.2925   -4.9899    0.2074 H   0  0  0  0  0  0  0  0  0  0  0  0
   -3.0701   -2.8348    0.1606 C   0  0  0  0  0  0  0  0  0  0  0  0
   -4.1530   -2.6454    0.2190 H   0  0  0  0  0  0  0  0  0  0  0  0
   -2.2118   -1.7032    0.0939 C   0  0  0  0  0  0  0  0  0  0  0  0
   -2.9394   -0.3902    0.0687 C   0  0  0  0  0  0  0  0  0  0  0  0
   -3.5284    0.0548   -1.1345 C   0  0  0  0  0  0  0  0  0  0  0  0
   -3.4048   -0.5517   -2.0433 H   0  0  0  0  0  0  0  0  0  0  0  0
   -4.2825    1.2363   -1.1790 C   0  0  0  0  0  0  0  0  0  0  0  0
   -4.7268    1.5637   -2.1314 H   0  0  0  0  0  0  0  0  0  0  0  0
   -4.4920    1.9849   -0.0099 C   0  0  0  0  0  0  0  0  0  0  0  0
   -5.0913    2.9071   -0.0409 H   0  0  0  0  0  0  0  0  0  0  0  0
   -3.9697    1.5191    1.2060 C   0  0  0  0  0  0  0  0  0  0  0  0
   -4.1723    2.0650    2.1400 H   0  0  0  0  0  0  0  0  0  0  0  0
   -3.2136    0.3372    1.2442 C   0  0  0  0  0  0  0  0  0  0  0  0
   -2.8631   -0.0501    2.2096 H   0  0  0  0  0  0  0  0  0  0  0  0
  1 10  1  0  0  0  0
  2  1  2  0  0  0  0
  2  4  1  0  0  0  0
  3  2  1  0  0  0  0
  4  6  2  0  0  0  0
  5  4  1  0  0  0  0
  6  8  1  0  0  0  0
  6  7  1  0  0  0  0
  8  9  1  0  0  0  0
 10  8  2  0  0  0  0
 11 10  1  0  0  0  0
 11 20  1  0  0  0  0
 12 11  2  0  0  0  0
 13 12  1  0  0  0  0
 14 12  1  0  0  0  0
 14 16  2  0  0  0  0
 15 14  1  0  0  0  0
 16 18  1  0  0  0  0
 17 16  1  0  0  0  0
 18 20  2  0  0  0  0
 18 19  1  0  0  0  0
 20 21  1  0  0  0  0
M  END
