6
q = -1.0

 15 14  0  0  0  0  0  0  0  0999 V2000
    5.3708   -0.8580   -0.8813 C   0  0  0  0  0  0  0  0  0  0  0  0
    5.3410   -0.8183   -1.9790 H   0  0  0  0  0  0  0  0  0  0  0  0
    6.3516   -1.0566   -0.4219 H   0  0  0  0  0  0  0  0  0  0  0  0
    4.2641   -0.6788   -0.1100 C   0  0  0  0  0  0  0  0  0  0  0  0
    2.9244   -0.4093   -0.6960 C   0  0  0  0  0  0  0  0  0  0  0  0
    1.8386   -0.2276    0.1255 C   0  0  0  0  0  3  0  0  0  0  0  0
    2.0982   -0.3206    1.1926 H   0  0  0  0  0  0  0  0  0  0  0  0
    4.4102   -0.7578    1.3953 C   0  0  0  0  0  0  0  0  0  0  0  0
    5.4597   -0.9659    1.6782 H   0  0  0  0  0  0  0  0  0  0  0  0
    3.7747   -1.5584    1.8287 H   0  0  0  0  0  0  0  0  0  0  0  0
    4.1063    0.1882    1.8920 H   0  0  0  0  0  0  0  0  0  0  0  0
    2.8524   -0.3598   -2.2030 C   0  0  0  0  0  0  0  0  0  0  0  0
    1.8143   -0.1824   -2.5373 H   0  0  0  0  0  0  0  0  0  0  0  0
    3.2053   -1.3100   -2.6588 H   0  0  0  0  0  0  0  0  0  0  0  0
    3.5032    0.4396   -2.6209 H   0  0  0  0  0  0  0  0  0  0  0  0
  1  3  1  0  0  0  0
  1  4  2  0  0  0  0
  2  1  1  0  0  0  0
  4  8  1  0  0  0  0
  5  4  1  0  0  0  0
  5  6  2  0  0  0  0
  6  7  1  0  0  0  0
  8  9  1  0  0  0  0
  8 10  1  0  0  0  0
  8 11  1  0  0  0  0
 12  5  1  0  0  0  0
 13 12  1  0  0  0  0
 14 12  1  0  0  0  0
 15 12  1  0  0  0  0
M  END
