15
q = 0.0, confidence = 0.996

 52 54  0  0  0  0  0  0  0  0999 V2000
    2.1288   -2.4373   -0.4794 O   0  0  0  0  0  0  0  0  0  0  0  0
   -0.0122   -1.4660   -0.2326 N   0  0  0  0  0  0  0  0  0  0  0  0
    0.3106   -3.7082   -0.7161 O   0  0  0  0  0  0  0  0  0  0  0  0
   -1.4329   -1.7306   -0.0385 C   0  0  0  0  0  0  0  0  0  0  0  0
    6.1390    0.1123    0.0789 N   0  0  0  0  0  0  0  0  0  0  0  0
    2.7122   -1.2225   -0.2204 C   0  0  0  0  0  0  0  0  0  0  0  0
   -2.3362   -1.5411   -1.1097 C   0  0  0  0  0  0  0  0  0  0  0  0
    4.7687    0.0463    0.0419 C   0  0  0  0  0  0  0  0  0  0  0  0
    1.9022   -0.0791   -0.0267 C   0  0  0  0  0  0  0  0  0  0  0  0
   -1.8452   -2.1595    1.2480 C   0  0  0  0  0  0  0  0  0  0  0  0
    3.9651    1.2204    0.2290 C   0  0  0  0  0  0  0  0  0  0  0  0
    4.4405    2.1942    0.3952 H   0  0  0  0  0  0  0  0  0  0  0  0
   -3.2260   -2.3313    1.4633 C   0  0  0  0  0  0  0  0  0  0  0  0
   -3.5805   -2.6561    2.4529 H   0  0  0  0  0  0  0  0  0  0  0  0
    0.4686   -0.1794   -0.0775 C   0  0  0  0  0  2  0  0  0  0  0  0
    2.5834    1.1492    0.1883 C   0  0  0  0  0  0  0  0  0  0  0  0
    1.9640    2.0512    0.3074 H   0  0  0  0  0  0  0  0  0  0  0  0
    4.1032   -1.1893   -0.1905 C   0  0  0  0  0  0  0  0  0  0  0  0
    4.6417   -2.1276   -0.3632 H   0  0  0  0  0  0  0  0  0  0  0  0
   -1.8599   -1.2632   -2.5269 C   0  0  0  0  0  0  0  0  0  0  0  0
   -0.8669   -0.7746   -2.4653 H   0  0  0  0  0  0  0  0  0  0  0  0
   -3.7064   -1.7141   -0.8332 C   0  0  0  0  0  0  0  0  0  0  0  0
   -4.4370   -1.5595   -1.6401 H   0  0  0  0  0  0  0  0  0  0  0  0
    0.7715   -2.6114   -0.4967 C   0  0  0  0  0  0  0  0  0  0  0  0
   -2.7679   -0.2934   -3.2925 C   0  0  0  0  0  0  0  0  0  0  0  0
   -3.7505   -0.7461   -3.5422 H   0  0  0  0  0  0  0  0  0  0  0  0
   -2.2841    0.0014   -4.2441 H   0  0  0  0  0  0  0  0  0  0  0  0
   -2.9430    0.6315   -2.7104 H   0  0  0  0  0  0  0  0  0  0  0  0
   -4.1504   -2.0908    0.4403 C   0  0  0  0  0  0  0  0  0  0  0  0
   -5.2269   -2.2179    0.6318 H   0  0  0  0  0  0  0  0  0  0  0  0
   -1.7008   -2.5946   -3.2889 C   0  0  0  0  0  0  0  0  0  0  0  0
   -1.0327   -3.2955   -2.7522 H   0  0  0  0  0  0  0  0  0  0  0  0
   -1.2825   -2.4109   -4.2999 H   0  0  0  0  0  0  0  0  0  0  0  0
   -2.6840   -3.0959   -3.4121 H   0  0  0  0  0  0  0  0  0  0  0  0
   -0.8526   -2.4984    2.3580 C   0  0  0  0  0  0  0  0  0  0  0  0
    0.1312   -2.0674    2.0789 H   0  0  0  0  0  0  0  0  0  0  0  0
    6.9281   -1.0881   -0.1328 C   0  0  0  0  0  0  0  0  0  0  0  0
    6.6987   -1.8699    0.6241 H   0  0  0  0  0  0  0  0  0  0  0  0
    8.0012   -0.8404   -0.0514 H   0  0  0  0  0  0  0  0  0  0  0  0
    6.7522   -1.5293   -1.1390 H   0  0  0  0  0  0  0  0  0  0  0  0
    6.8071    1.3857    0.2859 C   0  0  0  0  0  0  0  0  0  0  0  0
    6.5708    2.1168   -0.5183 H   0  0  0  0  0  0  0  0  0  0  0  0
    7.8998    1.2260    0.2899 H   0  0  0  0  0  0  0  0  0  0  0  0
    6.5269    1.8469    1.2581 H   0  0  0  0  0  0  0  0  0  0  0  0
   -1.2270   -1.8985    3.7229 C   0  0  0  0  0  0  0  0  0  0  0  0
   -1.3389   -0.7973    3.6750 H   0  0  0  0  0  0  0  0  0  0  0  0
   -0.4406   -2.1313    4.4691 H   0  0  0  0  0  0  0  0  0  0  0  0
   -2.1770   -2.3203    4.1104 H   0  0  0  0  0  0  0  0  0  0  0  0
   -0.6852   -4.0281    2.4598 C   0  0  0  0  0  0  0  0  0  0  0  0
   -1.6388   -4.5006    2.7745 H   0  0  0  0  0  0  0  0  0  0  0  0
    0.0871   -4.2880    3.2130 H   0  0  0  0  0  0  0  0  0  0  0  0
   -0.3931   -4.4668    1.4868 H   0  0  0  0  0  0  0  0  0  0  0  0
  1  6  1  0  0  0  0
  2 15  1  0  0  0  0
  2  4  1  0  0  0  0
  3 24  2  0  0  0  0
  4 10  1  0  0  0  0
  5 41  1  0  0  0  0
  6 18  2  0  0  0  0
  6  9  1  0  0  0  0
  7 22  1  0  0  0  0
  7  4  2  0  0  0  0
  8  5  1  0  0  0  0
  8 11  2  0  0  0  0
  9 16  2  0  0  0  0
 10 13  2  0  0  0  0
 10 35  1  0  0  0  0
 11 12  1  0  0  0  0
 13 14  1  0  0  0  0
 15  9  1  0  0  0  0
 16 11  1  0  0  0  0
 16 17  1  0  0  0  0
 18  8  1  0  0  0  0
 19 18  1  0  0  0  0
 20 21  1  0  0  0  0
 20  7  1  0  0  0  0
 22 29  2  0  0  0  0
 23 22  1  0  0  0  0
 24  1  1  0  0  0  0
 24  2  1  0  0  0  0
 25 28  1  0  0  0  0
 25 20  1  0  0  0  0
 26 25  1  0  0  0  0
 27 25  1  0  0  0  0
 29 30  1  0  0  0  0
 29 13  1  0  0  0  0
 31 32  1  0  0  0  0
 31 20  1  0  0  0  0
 33 31  1  0  0  0  0
 34 31  1  0  0  0  0
 35 49  1  0  0  0  0
 35 45  1  0  0  0  0
 36 35  1  0  0  0  0
 37 39  1  0  0  0  0
 37  5  1  0  0  0  0
 37 38  1  0  0  0  0
 40 37  1  0  0  0  0
 41 43  1  0  0  0  0
 41 44  1  0  0  0  0
 42 41  1  0  0  0  0
 45 48  1  0  0  0  0
 45 47  1  0  0  0  0
 46 45  1  0  0  0  0
 49 50  1  0  0  0  0
 49 51  1  0  0  0  0
 52 49  1  0  0  0  0
M  END
