5
q = 0.0, confidence = 0.824

 12 12  0  0  0  0  0  0  0  0999 V2000
    2.6911   -3.5815   -1.1302 O   0  0  0  0  0  0  0  0  0  0  0  0
   -2.6936   -3.5797   -1.1303 O   0  0  0  0  0  0  0  0  0  0  0  0
    0.7166   -2.3656   -1.7248 C   0  0  0  0  0  3  0  0  0  0  0  0
    1.2622   -1.9007   -2.5615 H   0  0  0  0  0  0  0  0  0  0  0  0
   -0.7182   -2.3651   -1.7248 C   0  0  0  0  0  3  0  0  0  0  0  0
   -1.2635   -1.8999   -2.5615 H   0  0  0  0  0  0  0  0  0  0  0  0
   -1.4696   -3.4075   -1.0053 C   0  0  0  0  0  0  0  0  0  0  0  0
   -0.6797   -4.2987   -0.1075 C   0  0  0  0  0  0  0  0  0  0  0  0
   -1.2707   -5.0007    0.5027 H   0  0  0  0  0  0  0  0  0  0  0  0
    0.6767   -4.2991   -0.1075 C   0  0  0  0  0  0  0  0  0  0  0  0
    1.2673   -5.0015    0.5028 H   0  0  0  0  0  0  0  0  0  0  0  0
    1.4673   -3.4085   -1.0053 C   0  0  0  0  0  0  0  0  0  0  0  0
  1 12  2  0  0  0  0
  2  7  2  0  0  0  0
  3  5  1  0  0  0  0
  3 12  1  0  0  0  0
  4  3  1  0  0  0  0
  5  7  1  0  0  0  0
  6  5  1  0  0  0  0
  7  8  1  0  0  0  0
  8 10  2  0  0  0  0
  8  9  1  0  0  0  0
 10 11  1  0  0  0  0
 12 10  1  0  0  0  0
M  END
