16
q = 0.0, confidence = 0.958

 17 18  0  0  0  0  0  0  0  0999 V2000
   -1.6525   -2.2953   -0.6532 S   0  0  0  0  0  0  0  0  0  0  0  0
   -1.0286   -0.0560   -1.9202 C   0  0  0  0  0  3  0  0  0  0  0  0
   -0.6782    0.5093   -2.8033 H   0  0  0  0  0  0  0  0  0  0  0  0
   -1.3833   -2.2773    0.8250 O   0  0  0  0  0  0  0  0  0  0  0  0
   -1.9242   -3.6139   -1.2800 O   0  0  0  0  0  0  0  0  0  0  0  0
   -4.3192   -1.2548   -0.5837 C   0  0  0  0  0  0  0  0  0  0  0  0
   -4.6608   -2.1625   -0.0631 H   0  0  0  0  0  0  0  0  0  0  0  0
   -2.9836   -1.1136   -0.9529 C   0  0  0  0  0  0  0  0  0  0  0  0
   -5.2128   -0.2234   -0.9298 C   0  0  0  0  0  0  0  0  0  0  0  0
   -6.2798   -0.3101   -0.6763 H   0  0  0  0  0  0  0  0  0  0  0  0
   -2.4698    0.0191   -1.6220 C   0  0  0  0  0  0  0  0  0  0  0  0
   -3.3801    1.0452   -1.9520 C   0  0  0  0  0  0  0  0  0  0  0  0
   -3.0229    1.9415   -2.4833 H   0  0  0  0  0  0  0  0  0  0  0  0
   -4.7378    0.9117   -1.6145 C   0  0  0  0  0  0  0  0  0  0  0  0
   -5.4430    1.7112   -1.8900 H   0  0  0  0  0  0  0  0  0  0  0  0
   -0.4276   -1.3395   -1.5921 C   0  0  0  0  0  3  0  0  0  0  0  0
    0.1341   -1.9837   -2.2900 H   0  0  0  0  0  0  0  0  0  0  0  0
  1  4  2  0  0  0  0
  2 11  1  0  0  0  0
  2 16  1  0  0  0  0
  3  2  1  0  0  0  0
  5  1  2  0  0  0  0
  6  7  1  0  0  0  0
  8  1  1  0  0  0  0
  8  6  2  0  0  0  0
  9 10  1  0  0  0  0
  9  6  1  0  0  0  0
 11  8  1  0  0  0  0
 12 11  2  0  0  0  0
 12 14  1  0  0  0  0
 13 12  1  0  0  0  0
 14  9  2  0  0  0  0
 15 14  1  0  0  0  0
 16  1  1  0  0  0  0
 17 16  1  0  0  0  0
M  END
