5
q = -1.0

 12 11  0  0  1  0  0  0  0  0999 V2000
   -1.8853    1.2084    1.7861 O   0  0  0  0  0  0  0  0  0  0  0  0
   -1.6437    1.2808    2.7276 H   0  0  0  0  0  0  0  0  0  0  0  0
   -1.6129   -0.0726    1.3340 C   0  0  0  0  0  3  0  0  0  0  0  0
   -1.4712   -0.8366    2.1194 H   0  0  0  0  0  0  0  0  0  0  0  0
   -2.1672   -0.4420    0.0585 C   0  0  1  0  0  3  0  0  0  0  0  0
   -1.6917   -1.7365   -0.3740 C   0  0  0  0  0  3  0  0  0  0  0  0
   -1.9836   -2.0737   -1.3803 H   0  0  0  0  0  0  0  0  0  0  0  0
   -1.5975   -2.5460    0.3691 H   0  0  0  0  0  0  0  0  0  0  0  0
   -3.1403    0.4083   -0.7098 C   0  0  0  0  0  0  0  0  0  0  0  0
   -4.1727    0.1577   -0.3866 H   0  0  0  0  0  0  0  0  0  0  0  0
   -3.0667    0.2104   -1.7959 H   0  0  0  0  0  0  0  0  0  0  0  0
   -3.0044    1.4910   -0.5278 H   0  0  0  0  0  0  0  0  0  0  0  0
  1  2  1  0  0  0  0
  3  1  1  0  0  0  0
  3  4  1  0  0  0  0
  5  6  1  1  0  0  0
  5  3  1  0  0  0  0
  6  8  1  0  0  0  0
  7  6  1  0  0  0  0
  9 12  1  0  0  0  0
  9 10  1  0  0  0  0
  9  5  1  0  0  0  0
 11  9  1  0  0  0  0
M  END
