4
q = -1.0

 20 20  0  0  0  0  0  0  0  0999 V2000
   -2.5583   -0.7017   -0.0781 C   0  0  0  0  0  0  0  0  0  0  0  0
   -2.1515   -1.5696   -1.1484 C   0  0  0  0  0  0  0  0  0  0  0  0
   -2.2572   -1.3408   -2.2153 H   0  0  0  0  0  0  0  0  0  0  0  0
   -1.5686   -2.7409   -0.5964 C   0  0  0  0  0  3  0  0  0  0  0  0
   -1.1901   -3.6014   -1.1596 H   0  0  0  0  0  0  0  0  0  0  0  0
   -1.6069   -2.6150    0.8299 C   0  0  0  0  0  0  0  0  0  0  0  0
   -1.2608   -3.3594    1.5566 H   0  0  0  0  0  0  0  0  0  0  0  0
   -2.2178   -1.3714    1.1437 C   0  0  0  0  0  0  0  0  0  0  0  0
   -2.3752   -0.9780    2.1534 H   0  0  0  0  0  0  0  0  0  0  0  0
   -3.1327    0.6303   -0.2528 C   0  0  0  0  0  0  0  0  0  0  0  0
   -3.2493    0.9495   -1.3001 H   0  0  0  0  0  0  0  0  0  0  0  0
   -3.4665    1.4790    0.7463 C   0  0  0  0  0  0  0  0  0  0  0  0
   -3.3164    1.1541    1.7908 H   0  0  0  0  0  0  0  0  0  0  0  0
   -3.9918    2.8742    0.5743 C   0  0  0  0  0  0  0  0  0  0  0  0
   -3.3109    3.5599    1.1305 H   0  0  0  0  0  0  0  0  0  0  0  0
   -4.9622    2.9582    1.1175 H   0  0  0  0  0  0  0  0  0  0  0  0
   -4.1508    3.3595   -0.8645 C   0  0  0  0  0  0  0  0  0  0  0  0
   -3.1831    3.3333   -1.4059 H   0  0  0  0  0  0  0  0  0  0  0  0
   -4.5262    4.4014   -0.8928 H   0  0  0  0  0  0  0  0  0  0  0  0
   -4.8679    2.7296   -1.4299 H   0  0  0  0  0  0  0  0  0  0  0  0
  1  8  1  0  0  0  0
  2  4  1  0  0  0  0
  2  1  2  0  0  0  0
  3  2  1  0  0  0  0
  4  6  1  0  0  0  0
  5  4  1  0  0  0  0
  6  8  2  0  0  0  0
  6  7  1  0  0  0  0
  8  9  1  0  0  0  0
 10  1  1  0  0  0  0
 10 12  2  0  0  0  0
 11 10  1  0  0  0  0
 12 13  1  0  0  0  0
 14 12  1  0  0  0  0
 14 16  1  0  0  0  0
 14 15  1  0  0  0  0
 17 14  1  0  0  0  0
 18 17  1  0  0  0  0
 19 17  1  0  0  0  0
 20 17  1  0  0  0  0
M  END
