2
q = -1.0

  9  8  0  0  0  0  0  0  0  0999 V2000
    2.4855   -1.4911    0.0834 O   0  0  0  0  0  0  0  0  0  0  0  0
    2.6338   -0.1304    0.0168 C   0  0  0  0  0  3  0  0  0  0  0  0
    3.8373    0.4971   -0.0116 C   0  0  0  0  0  0  0  0  0  0  0  0
    4.7959   -0.0419    0.0174 H   0  0  0  0  0  0  0  0  0  0  0  0
    3.8801    1.5920   -0.0666 H   0  0  0  0  0  0  0  0  0  0  0  0
    3.6521   -2.2909    0.1231 C   0  0  0  0  0  0  0  0  0  0  0  0
    4.2769   -2.0608    1.0164 H   0  0  0  0  0  0  0  0  0  0  0  0
    4.2788   -2.1471   -0.7867 H   0  0  0  0  0  0  0  0  0  0  0  0
    3.3129   -3.3424    0.1732 H   0  0  0  0  0  0  0  0  0  0  0  0
  1  6  1  0  0  0  0
  2  1  1  0  0  0  0
  3  2  2  0  0  0  0
  3  4  1  0  0  0  0
  5  3  1  0  0  0  0
  6  9  1  0  0  0  0
  6  7  1  0  0  0  0
  8  6  1  0  0  0  0
M  END
