1
q = -1.0

 12 12  0  0  0  0  0  0  0  0999 V2000
    1.5914   -1.1640    0.2117 C   0  0  0  0  0  3  0  0  0  0  0  0
    2.5475   -0.9424   -0.7980 C   0  0  0  0  0  0  0  0  0  0  0  0
    2.2580   -0.4894   -1.7585 H   0  0  0  0  0  0  0  0  0  0  0  0
    3.9092   -1.2924   -0.6168 C   0  0  0  0  0  0  0  0  0  0  0  0
    4.3310   -1.9020    0.5869 C   0  0  0  0  0  0  0  0  0  0  0  0
    5.3882   -2.1687    0.7254 H   0  0  0  0  0  0  0  0  0  0  0  0
    3.3778   -2.1703    1.5772 C   0  0  0  0  0  0  0  0  0  0  0  0
    3.6869   -2.6702    2.5083 H   0  0  0  0  0  0  0  0  0  0  0  0
    2.0314   -1.8149    1.3891 C   0  0  0  0  0  0  0  0  0  0  0  0
    1.3041   -2.0633    2.1789 H   0  0  0  0  0  0  0  0  0  0  0  0
    4.8559   -1.0052   -1.6554 C   0  0  0  0  0  0  0  0  0  0  0  0
    5.6216   -0.7479   -2.5088 N   0  0  0  0  0  0  0  0  0  0  0  0
  1  9  1  0  0  0  0
  2  4  1  0  0  0  0
  2  1  2  0  0  0  0
  3  2  1  0  0  0  0
  4  5  2  0  0  0  0
  5  6  1  0  0  0  0
  5  7  1  0  0  0  0
  7  8  1  0  0  0  0
  9  7  2  0  0  0  0
  9 10  1  0  0  0  0
 11  4  1  0  0  0  0
 12 11  3  0  0  0  0
M  END
