2
q = -1.0

 27 27  0  0  1  0  0  0  0  0999 V2000
   -1.2663   -0.9244    1.5933 C   0  0  1  0  0  3  0  0  0  0  0  0
   -1.2296   -1.9639    0.6077 C   0  0  0  0  0  3  0  0  0  0  0  0
   -0.8580   -2.9527    0.9268 H   0  0  0  0  0  0  0  0  0  0  0  0
   -1.2994   -1.6950   -0.8084 C   0  0  0  0  0  3  0  0  0  0  0  0
   -0.9829   -2.5539   -1.4225 H   0  0  0  0  0  0  0  0  0  0  0  0
   -2.2843   -0.7620   -1.5121 C   0  0  0  0  0  0  0  0  0  0  0  0
   -2.0580    0.3056   -1.3275 H   0  0  0  0  0  0  0  0  0  0  0  0
   -2.1408   -0.8917   -2.6046 H   0  0  0  0  0  0  0  0  0  0  0  0
   -3.7784   -1.0135   -1.1702 C   0  0  2  0  0  0  0  0  0  0  0  0
   -4.3382   -0.1682   -1.6319 H   0  0  0  0  0  0  0  0  0  0  0  0
   -4.0888   -1.0080    0.3389 C   0  0  0  0  0  0  0  0  0  0  0  0
   -5.1935   -1.0562    0.4502 H   0  0  0  0  0  0  0  0  0  0  0  0
   -3.7167   -1.9564    0.7839 H   0  0  0  0  0  0  0  0  0  0  0  0
   -3.5890    0.1722    1.1815 C   0  0  0  0  0  0  0  0  0  0  0  0
   -4.0155    0.0578    2.2012 H   0  0  0  0  0  0  0  0  0  0  0  0
   -4.0002    1.1264    0.7865 H   0  0  0  0  0  0  0  0  0  0  0  0
   -2.0536    0.3507    1.3313 C   0  0  0  0  0  0  0  0  0  0  0  0
   -1.8502    1.0635    2.1541 H   0  0  0  0  0  0  0  0  0  0  0  0
   -1.6682    0.8752    0.4267 H   0  0  0  0  0  0  0  0  0  0  0  0
   -1.0188   -1.2763    3.0375 C   0  0  0  0  0  0  0  0  0  0  0  0
   -1.9843   -1.4572    3.5601 H   0  0  0  0  0  0  0  0  0  0  0  0
   -0.5073   -0.4493    3.5683 H   0  0  0  0  0  0  0  0  0  0  0  0
   -0.3953   -2.1844    3.1398 H   0  0  0  0  0  0  0  0  0  0  0  0
   -4.2805   -2.3178   -1.8020 C   0  0  0  0  0  0  0  0  0  0  0  0
   -4.1467   -2.3143   -2.9027 H   0  0  0  0  0  0  0  0  0  0  0  0
   -5.3570   -2.4814   -1.5915 H   0  0  0  0  0  0  0  0  0  0  0  0
   -3.7273   -3.1917   -1.3982 H   0  0  0  0  0  0  0  0  0  0  0  0
  1 20  1  1  0  0  0
  2  3  1  0  0  0  0
  2  1  1  0  0  0  0
  4  2  1  0  0  0  0
  5  4  1  0  0  0  0
  6  7  1  0  0  0  0
  6  9  1  0  0  0  0
  6  4  1  0  0  0  0
  8  6  1  0  0  0  0
  9 10  1  6  0  0  0
  9 11  1  0  0  0  0
 11 12  1  0  0  0  0
 11 13  1  0  0  0  0
 11 14  1  0  0  0  0
 14 17  1  0  0  0  0
 14 15  1  0  0  0  0
 16 14  1  0  0  0  0
 17  1  1  0  0  0  0
 17 18  1  0  0  0  0
 19 17  1  0  0  0  0
 20 23  1  0  0  0  0
 20 21  1  0  0  0  0
 20 22  1  0  0  0  0
 24 26  1  0  0  0  0
 24 27  1  0  0  0  0
 24  9  1  0  0  0  0
 25 24  1  0  0  0  0
M  END
