4
q = -1.0

 42 45  0  0  1  0  0  0  0  0999 V2000
   -0.9869    1.3272    1.2968 P   0  0  0  0  0  2  0  0  0  0  0  0
    1.3565    0.3348    1.0405 C   0  0  0  0  0  3  0  0  0  0  0  0
    2.1362   -0.1458    1.6553 H   0  0  0  0  0  0  0  0  0  0  0  0
    1.3127   -0.0519   -0.3462 C   0  0  2  0  0  3  0  0  0  0  0  0
   -2.3043    0.9807   -1.1984 C   0  0  0  0  0  0  0  0  0  0  0  0
    0.1277    0.2967   -1.0787 C   0  0  0  0  0  0  0  0  0  0  0  0
    0.0676    0.0253   -2.1424 H   0  0  0  0  0  0  0  0  0  0  0  0
    2.4056   -0.8203   -0.9972 C   0  0  0  0  0  0  0  0  0  0  0  0
   -1.0210    0.8713   -0.4524 C   0  0  0  0  0  0  0  0  0  0  0  0
    4.5357   -2.2592   -2.2188 C   0  0  0  0  0  0  0  0  0  0  0  0
    5.3581   -2.8172   -2.6912 H   0  0  0  0  0  0  0  0  0  0  0  0
    3.2601   -2.2393   -2.8077 C   0  0  0  0  0  0  0  0  0  0  0  0
    3.0772   -2.7873   -3.7448 H   0  0  0  0  0  0  0  0  0  0  0  0
    3.7009   -0.8358   -0.4300 C   0  0  0  0  0  0  0  0  0  0  0  0
    3.8927   -0.2589    0.4863 H   0  0  0  0  0  0  0  0  0  0  0  0
    2.2125   -1.5341   -2.2039 C   0  0  0  0  0  0  0  0  0  0  0  0
    1.2166   -1.5577   -2.6695 H   0  0  0  0  0  0  0  0  0  0  0  0
   -2.5614    0.2326   -2.3732 C   0  0  0  0  0  0  0  0  0  0  0  0
   -1.7983   -0.4576   -2.7592 H   0  0  0  0  0  0  0  0  0  0  0  0
    1.3842    2.9593    0.8932 C   0  0  0  0  0  0  0  0  0  0  0  0
    2.3207    2.9759   -0.1592 C   0  0  0  0  0  0  0  0  0  0  0  0
    2.7122    2.0285   -0.5553 H   0  0  0  0  0  0  0  0  0  0  0  0
    0.8613    1.6834    1.5081 C   0  0  1  0  0  0  0  0  0  0  0  0
    0.9777    1.7397    2.6115 H   0  0  0  0  0  0  0  0  0  0  0  0
    0.9068    4.1964    1.3821 C   0  0  0  0  0  0  0  0  0  0  0  0
    0.1692    4.2000    2.2013 H   0  0  0  0  0  0  0  0  0  0  0  0
    4.7492   -1.5519   -1.0266 C   0  0  0  0  0  0  0  0  0  0  0  0
    5.7462   -1.5447   -0.5598 H   0  0  0  0  0  0  0  0  0  0  0  0
    2.7663    4.1911   -0.7048 C   0  0  0  0  0  0  0  0  0  0  0  0
    3.5009    4.1795   -1.5249 H   0  0  0  0  0  0  0  0  0  0  0  0
   -3.7847    0.3339   -3.0474 C   0  0  0  0  0  0  0  0  0  0  0  0
   -3.9539   -0.2622   -3.9576 H   0  0  0  0  0  0  0  0  0  0  0  0
   -3.3261    1.8444   -0.7406 C   0  0  0  0  0  0  0  0  0  0  0  0
   -3.1362    2.4552    0.1555 H   0  0  0  0  0  0  0  0  0  0  0  0
   -4.7952    1.1821   -2.5637 C   0  0  0  0  0  0  0  0  0  0  0  0
   -5.7580    1.2578   -3.0912 H   0  0  0  0  0  0  0  0  0  0  0  0
    1.3480    5.4086    0.8374 C   0  0  0  0  0  0  0  0  0  0  0  0
    0.9611    6.3598    1.2347 H   0  0  0  0  0  0  0  0  0  0  0  0
   -4.5565    1.9378   -1.4061 C   0  0  0  0  0  0  0  0  0  0  0  0
   -5.3318    2.6178   -1.0208 H   0  0  0  0  0  0  0  0  0  0  0  0
    2.2820    5.4117   -0.2129 C   0  0  0  0  0  0  0  0  0  0  0  0
    2.6297    6.3628   -0.6442 H   0  0  0  0  0  0  0  0  0  0  0  0
  1 23  1  0  0  0  0
  2 23  1  0  0  0  0
  2  3  1  0  0  0  0
  4  8  1  1  0  0  0
  4  2  1  0  0  0  0
  5 33  1  0  0  0  0
  5  9  1  0  0  0  0
  6  9  2  0  0  0  0
  6  4  1  0  0  0  0
  7  6  1  0  0  0  0
  8 14  1  0  0  0  0
  9  1  1  0  0  0  0
 10 27  1  0  0  0  0
 11 10  1  0  0  0  0
 12 10  2  0  0  0  0
 12 16  1  0  0  0  0
 13 12  1  0  0  0  0
 14 15  1  0  0  0  0
 16  8  2  0  0  0  0
 17 16  1  0  0  0  0
 18  5  2  0  0  0  0
 19 18  1  0  0  0  0
 20 25  1  0  0  0  0
 20 23  1  0  0  0  0
 21 20  2  0  0  0  0
 22 21  1  0  0  0  0
 23 24  1  1  0  0  0
 25 26  1  0  0  0  0
 27 28  1  0  0  0  0
 27 14  2  0  0  0  0
 29 41  2  0  0  0  0
 29 21  1  0  0  0  0
 30 29  1  0  0  0  0
 31 35  2  0  0  0  0
 31 18  1  0  0  0  0
 32 31  1  0  0  0  0
 33 34  1  0  0  0  0
 35 39  1  0  0  0  0
 36 35  1  0  0  0  0
 37 38  1  0  0  0  0
 37 25  2  0  0  0  0
 39 40  1  0  0  0  0
 39 33  2  0  0  0  0
 41 37  1  0  0  0  0
 42 41  1  0  0  0  0
M  END
