9
q = -1.0

 45 48  0  0  1  0  0  0  0  0999 V2000
    1.8579    0.1667    0.0608 B   0  0  0  0  0  0  0  0  0  0  0  0
    0.4955   -0.4981   -0.5981 C   0  0  1  0  0  3  0  0  0  0  0  0
   -0.2524    0.1670   -1.6254 C   0  0  0  0  0  0  0  0  0  0  0  0
   -0.0162    1.2094   -1.8807 H   0  0  0  0  0  0  0  0  0  0  0  0
   -1.2426   -0.5223   -2.3674 C   0  0  0  0  0  0  0  0  0  0  0  0
   -1.5607   -1.8930   -2.1273 C   0  0  0  0  0  0  0  0  0  0  0  0
   -2.2786   -2.4367   -2.7523 H   0  0  0  0  0  0  0  0  0  0  0  0
   -0.8725   -2.5354   -1.0687 C   0  0  0  0  0  0  0  0  0  0  0  0
    0.1219   -1.8471   -0.3062 C   0  0  0  0  0  3  0  0  0  0  0  0
    0.6354   -2.3901    0.4984 H   0  0  0  0  0  0  0  0  0  0  0  0
    3.0925   -0.5313   -0.7806 C   0  0  0  0  0  0  0  0  0  0  0  0
    2.9566   -0.9831   -2.1110 C   0  0  0  0  0  0  0  0  0  0  0  0
    1.9901   -0.9347   -2.6335 H   0  0  0  0  0  0  0  0  0  0  0  0
    4.0559   -1.5007   -2.8136 C   0  0  0  0  0  0  0  0  0  0  0  0
    5.3282   -1.5854   -2.2323 C   0  0  0  0  0  0  0  0  0  0  0  0
    6.1837   -1.9929   -2.7853 H   0  0  0  0  0  0  0  0  0  0  0  0
    5.4644   -1.1282   -0.9117 C   0  0  0  0  0  0  0  0  0  0  0  0
    4.3758   -0.6133   -0.1928 C   0  0  0  0  0  0  0  0  0  0  0  0
    4.5356   -0.2713    0.8397 H   0  0  0  0  0  0  0  0  0  0  0  0
    1.8814    1.7897   -0.1623 C   0  0  0  0  0  0  0  0  0  0  0  0
    2.9853    2.4466   -0.7471 C   0  0  0  0  0  0  0  0  0  0  0  0
    3.8511    1.8693   -1.1001 H   0  0  0  0  0  0  0  0  0  0  0  0
    3.0053    3.8430   -0.8874 C   0  0  0  0  0  0  0  0  0  0  0  0
    1.9398    4.6451   -0.4522 C   0  0  0  0  0  0  0  0  0  0  0  0
    1.9664    5.7369   -0.5568 H   0  0  0  0  0  0  0  0  0  0  0  0
    0.8415    3.9926    0.1245 C   0  0  0  0  0  0  0  0  0  0  0  0
    0.7978    2.5977    0.2610 C   0  0  0  0  0  0  0  0  0  0  0  0
   -0.0909    2.1394    0.7148 H   0  0  0  0  0  0  0  0  0  0  0  0
    1.9488   -0.2393    1.6545 C   0  0  0  0  0  0  0  0  0  0  0  0
    2.2862   -1.5601    2.0376 C   0  0  0  0  0  0  0  0  0  0  0  0
    2.6177   -2.2919    1.2863 H   0  0  0  0  0  0  0  0  0  0  0  0
    2.2424   -1.9616    3.3809 C   0  0  0  0  0  0  0  0  0  0  0  0
    1.8903   -1.0702    4.4054 C   0  0  0  0  0  0  0  0  0  0  0  0
    1.8575   -1.3890    5.4547 H   0  0  0  0  0  0  0  0  0  0  0  0
    1.6005    0.2498    4.0312 C   0  0  0  0  0  0  0  0  0  0  0  0
    1.6343    0.6661    2.6912 C   0  0  0  0  0  0  0  0  0  0  0  0
    1.4005    1.7153    2.4648 H   0  0  0  0  0  0  0  0  0  0  0  0
   -2.0230    0.2788   -3.7079 Cl  0  0  0  0  0  0  0  0  0  0  0  0
   -1.2085   -4.2123   -0.7396 Cl  0  0  0  0  0  0  0  0  0  0  0  0
    3.8356   -2.0601   -4.4599 Cl  0  0  0  0  0  0  0  0  0  0  0  0
    7.0386   -1.2094   -0.1514 Cl  0  0  0  0  0  0  0  0  0  0  0  0
    4.3923    4.6161   -1.6222 Cl  0  0  0  0  0  0  0  0  0  0  0  0
   -0.4998    4.9685    0.7077 Cl  0  0  0  0  0  0  0  0  0  0  0  0
    2.6298   -3.6190    3.7950 Cl  0  0  0  0  0  0  0  0  0  0  0  0
    1.1607    1.4030    5.2750 Cl  0  0  0  0  0  0  0  0  0  0  0  0
  1 29  1  0  0  0  0
  2  9  1  0  0  0  0
  2  1  1  6  0  0  0
  3  2  1  0  0  0  0
  4  3  1  0  0  0  0
  5  6  1  0  0  0  0
  5  3  2  0  0  0  0
  6  8  2  0  0  0  0
  7  6  1  0  0  0  0
  8 39  1  0  0  0  0
  8  9  1  0  0  0  0
  9 10  1  0  0  0  0
 11 18  1  0  0  0  0
 11  1  1  0  0  0  0
 12 11  2  0  0  0  0
 13 12  1  0  0  0  0
 14 15  2  0  0  0  0
 14 12  1  0  0  0  0
 15 17  1  0  0  0  0
 16 15  1  0  0  0  0
 17 18  2  0  0  0  0
 17 41  1  0  0  0  0
 18 19  1  0  0  0  0
 20  1  1  0  0  0  0
 20 27  1  0  0  0  0
 21 20  2  0  0  0  0
 22 21  1  0  0  0  0
 23 21  1  0  0  0  0
 23 24  2  0  0  0  0
 24 26  1  0  0  0  0
 25 24  1  0  0  0  0
 26 27  2  0  0  0  0
 26 43  1  0  0  0  0
 27 28  1  0  0  0  0
 29 30  2  0  0  0  0
 29 36  1  0  0  0  0
 30 32  1  0  0  0  0
 31 30  1  0  0  0  0
 32 44  1  0  0  0  0
 32 33  2  0  0  0  0
 33 34  1  0  0  0  0
 35 33  1  0  0  0  0
 35 45  1  0  0  0  0
 36 35  2  0  0  0  0
 37 36  1  0  0  0  0
 38  5  1  0  0  0  0
 40 14  1  0  0  0  0
 42 23  1  0  0  0  0
M  END
