4
q = -1.0, confidence = 0.0

 24 24  0  0  0  0  0  0  0  0999 V2000
   -0.6275   -2.7031    1.6815 N   0  0  0  0  0  0  0  0  0  0  0  0
    0.6936   -3.3915   -1.4849 C   0  0  0  0  0  0  0  0  0  0  0  0
    0.6176   -2.3822   -2.4912 C   0  0  0  0  0  3  0  0  0  0  0  0
   -0.7530   -2.0574   -2.6716 C   0  0  0  0  0  3  0  0  0  0  0  0
   -1.5156   -2.8498   -1.7687 C   0  0  0  0  0  3  0  0  0  0  0  0
   -0.6210   -3.6834   -1.0351 C   0  0  0  0  0  0  0  0  0  0  0  0
   -0.9514   -4.6275    0.0867 C   0  0  0  0  0  0  0  0  0  0  0  0
   -1.4470   -3.8852    1.3311 C   0  0  0  0  0  0  0  0  0  0  0  0
    0.7342   -3.0958    2.0834 C   0  0  0  0  0  0  0  0  0  0  0  0
   -1.2680   -2.0106    2.8091 C   0  0  0  0  0  0  0  0  0  0  0  0
    1.5919   -3.9145   -1.1348 H   0  0  0  0  0  0  0  0  0  0  0  0
    1.4603   -1.9444   -3.0407 H   0  0  0  0  0  0  0  0  0  0  0  0
   -1.1525   -1.3022   -3.3584 H   0  0  0  0  0  0  0  0  0  0  0  0
   -2.6075   -2.8293   -1.6714 H   0  0  0  0  0  0  0  0  0  0  0  0
   -0.0551   -5.2334    0.3315 H   0  0  0  0  0  0  0  0  0  0  0  0
   -1.7373   -5.3536   -0.2118 H   0  0  0  0  0  0  0  0  0  0  0  0
   -2.4792   -3.5187    1.1543 H   0  0  0  0  0  0  0  0  0  0  0  0
   -1.5073   -4.5791    2.2076 H   0  0  0  0  0  0  0  0  0  0  0  0
    0.7127   -3.7962    2.9544 H   0  0  0  0  0  0  0  0  0  0  0  0
    1.3050   -2.1892    2.3571 H   0  0  0  0  0  0  0  0  0  0  0  0
    1.2631   -3.5839    1.2453 H   0  0  0  0  0  0  0  0  0  0  0  0
   -1.3847   -2.6933    3.6854 H   0  0  0  0  0  0  0  0  0  0  0  0
   -2.2708   -1.6471    2.5135 H   0  0  0  0  0  0  0  0  0  0  0  0
   -0.6506   -1.1464    3.1089 H   0  0  0  0  0  0  0  0  0  0  0  0
  1  9  1  0  0  0  0
  1 10  1  0  0  0  0
  2 11  1  0  0  0  0
  2  6  2  0  0  0  0
  3  2  1  0  0  0  0
  4  3  1  0  0  0  0
  4  5  1  0  0  0  0
  5 14  1  0  0  0  0
  5  6  1  0  0  0  0
  6  7  1  0  0  0  0
  7 15  1  0  0  0  0
  7  8  1  0  0  0  0
  8  1  1  0  0  0  0
  8 18  1  0  0  0  0
  9 20  1  0  0  0  0
  9 19  1  0  0  0  0
 10 24  1  0  0  0  0
 10 22  1  0  0  0  0
 12  3  1  0  0  0  0
 13  4  1  0  0  0  0
 16  7  1  0  0  0  0
 17  8  1  0  0  0  0
 21  9  1  0  0  0  0
 23 10  1  0  0  0  0
M  END
