7
q = 0.0, confidence = 0.998

 30 31  0  0  0  0  0  0  0  0999 V2000
    5.6416    1.5090    2.2421 O   0  0  0  0  0  0  0  0  0  0  0  0
    6.8633   -0.2792    1.5363 O   0  0  0  0  0  0  0  0  0  0  0  0
    6.4730    0.5379   -1.1235 O   0  0  0  0  0  0  0  0  0  0  0  0
    5.9895   -1.4612   -2.0859 O   0  0  0  0  0  0  0  0  0  0  0  0
    0.8929   -0.8195    1.5207 N   0  0  0  0  0  0  0  0  0  0  0  0
    0.9537   -1.5724   -0.5260 N   0  0  0  0  0  0  0  0  0  0  0  0
    0.0951   -1.2364    0.4881 C   0  0  0  0  0  2  0  0  0  0  0  0
    0.5451   -2.0361   -1.8397 C   0  0  0  0  0  0  0  0  0  0  0  0
    2.2331   -0.7786    1.1487 C   0  0  0  0  0  0  0  0  0  0  0  0
    2.2722   -1.2797   -0.1734 C   0  0  0  0  0  0  0  0  0  0  0  0
    3.4559   -1.2986   -0.9135 C   0  0  0  0  0  0  0  0  0  0  0  0
    4.6012   -0.7371   -0.3187 C   0  0  0  0  0  0  0  0  0  0  0  0
    4.5611   -0.2340    1.0125 C   0  0  0  0  0  0  0  0  0  0  0  0
    3.3742   -0.2611    1.7632 C   0  0  0  0  0  0  0  0  0  0  0  0
    5.7991   -0.4757   -1.1837 C   0  0  0  0  0  0  0  0  0  0  0  0
    7.0754   -1.2516   -3.0048 C   0  0  0  0  0  0  0  0  0  0  0  0
    5.7398    0.4474    1.6527 C   0  0  0  0  0  0  0  0  0  0  0  0
    8.0705    0.3602    1.9830 C   0  0  0  0  0  0  0  0  0  0  0  0
    0.5074   -0.4626    2.3950 H   0  0  0  0  0  0  0  0  0  0  0  0
    3.4953   -1.6585   -1.9496 H   0  0  0  0  0  0  0  0  0  0  0  0
    3.3586    0.1704    2.7737 H   0  0  0  0  0  0  0  0  0  0  0  0
    0.9355   -3.0546   -2.0350 H   0  0  0  0  0  0  0  0  0  0  0  0
    0.9219   -1.3421   -2.6167 H   0  0  0  0  0  0  0  0  0  0  0  0
   -0.5621   -2.0465   -1.8609 H   0  0  0  0  0  0  0  0  0  0  0  0
    6.9143   -0.3292   -3.5977 H   0  0  0  0  0  0  0  0  0  0  0  0
    7.0956   -2.1391   -3.6605 H   0  0  0  0  0  0  0  0  0  0  0  0
    8.0326   -1.1515   -2.4563 H   0  0  0  0  0  0  0  0  0  0  0  0
    8.3483    1.1611    1.2687 H   0  0  0  0  0  0  0  0  0  0  0  0
    8.8459   -0.4251    1.9995 H   0  0  0  0  0  0  0  0  0  0  0  0
    7.9330    0.8025    2.9885 H   0  0  0  0  0  0  0  0  0  0  0  0
  2 17  1  0  0  0  0
  2 18  1  0  0  0  0
  4 15  1  0  0  0  0
  5 19  1  0  0  0  0
  6 10  1  0  0  0  0
  6  7  1  0  0  0  0
  7  5  1  0  0  0  0
  8  6  1  0  0  0  0
  9  5  1  0  0  0  0
  9 14  1  0  0  0  0
 10  9  2  0  0  0  0
 11 12  2  0  0  0  0
 11 10  1  0  0  0  0
 12 13  1  0  0  0  0
 13 17  1  0  0  0  0
 13 14  2  0  0  0  0
 14 21  1  0  0  0  0
 15  3  2  0  0  0  0
 15 12  1  0  0  0  0
 16 27  1  0  0  0  0
 16  4  1  0  0  0  0
 17  1  2  0  0  0  0
 18 29  1  0  0  0  0
 18 30  1  0  0  0  0
 20 11  1  0  0  0  0
 22  8  1  0  0  0  0
 23  8  1  0  0  0  0
 24  8  1  0  0  0  0
 25 16  1  0  0  0  0
 26 16  1  0  0  0  0
 28 18  1  0  0  0  0
M  END
