14
q = 0.0, confidence = 0.954

 36 36  0  0  1  0  0  0  0  0999 V2000
   -4.9418    2.3486    0.8413 O   0  0  0  0  0  0  0  0  0  0  0  0
   -3.9991   -2.3874   -0.8258 O   0  0  0  0  0  0  0  0  0  0  0  0
   -5.5092   -1.7472    0.7518 O   0  0  0  0  0  0  0  0  0  0  0  0
   -2.9034    2.0650   -0.1564 N   0  0  0  0  0  0  0  0  0  0  0  0
   -3.3744    0.4053   -3.1643 N   0  0  0  0  0  0  0  0  0  0  0  0
   -5.0393   -2.8295   -1.7073 C   0  0  0  0  0  0  0  0  0  0  0  0
   -6.0219   -2.7572   -1.2028 H   0  0  0  0  0  0  0  0  0  0  0  0
   -4.8254   -3.8778   -1.9926 H   0  0  0  0  0  0  0  0  0  0  0  0
   -5.0192   -2.1872   -2.6107 H   0  0  0  0  0  0  0  0  0  0  0  0
   -1.4912    2.3964   -0.3462 C   0  0  0  0  0  0  0  0  0  0  0  0
   -1.3410    3.4785   -0.1833 H   0  0  0  0  0  0  0  0  0  0  0  0
   -1.2513    2.1955   -1.4115 H   0  0  0  0  0  0  0  0  0  0  0  0
   -0.6397    1.5510    0.5907 C   0  0  0  0  0  3  0  0  0  0  0  0
   -1.0227    0.1514    0.6976 C   0  0  0  0  0  3  0  0  0  0  0  0
   -2.3047   -0.4086    0.0848 C   0  0  2  0  0  0  0  0  0  0  0  0
   -2.0615   -1.0938   -0.7458 H   0  0  0  0  0  0  0  0  0  0  0  0
   -3.2455    0.7020   -0.5395 C   0  0  2  0  0  0  0  0  0  0  0  0
   -4.2873    0.5715   -0.1672 H   0  0  0  0  0  0  0  0  0  0  0  0
   -3.8169    2.7855    0.5881 C   0  0  0  0  0  0  0  0  0  0  0  0
   -3.3679    4.1535    1.0812 C   0  0  0  0  0  0  0  0  0  0  0  0
   -4.2187    4.6057    1.6193 H   0  0  0  0  0  0  0  0  0  0  0  0
   -3.0715    4.8195    0.2460 H   0  0  0  0  0  0  0  0  0  0  0  0
   -2.5051    4.0721    1.7736 H   0  0  0  0  0  0  0  0  0  0  0  0
   -3.3067    0.5629   -2.0049 C   0  0  0  0  0  0  0  0  0  0  0  0
   -3.1241   -1.2838    1.1020 C   0  0  0  0  0  0  0  0  0  0  0  0
   -4.3612   -1.8187    0.3589 C   0  0  0  0  0  0  0  0  0  0  0  0
   -2.3012   -2.5098    1.5552 C   0  0  0  0  0  0  0  0  0  0  0  0
   -2.9012   -3.1364    2.2451 H   0  0  0  0  0  0  0  0  0  0  0  0
   -1.3869   -2.1944    2.0958 H   0  0  0  0  0  0  0  0  0  0  0  0
   -1.9927   -3.1317    0.6948 H   0  0  0  0  0  0  0  0  0  0  0  0
   -3.5918   -0.4765    2.3206 C   0  0  0  0  0  0  0  0  0  0  0  0
   -4.2401    0.3740    2.0324 H   0  0  0  0  0  0  0  0  0  0  0  0
   -2.7168   -0.0855    2.8764 H   0  0  0  0  0  0  0  0  0  0  0  0
   -4.1810   -1.1192    3.0024 H   0  0  0  0  0  0  0  0  0  0  0  0
   -0.4107    2.0643    1.5447 H   0  0  0  0  0  0  0  0  0  0  0  0
   -0.8302   -0.2767    1.6973 H   0  0  0  0  0  0  0  0  0  0  0  0
  2 26  1  0  0  0  0
  4 19  1  0  0  0  0
  5 24  3  0  0  0  0
  6  7  1  0  0  0  0
  6  2  1  0  0  0  0
  8  6  1  0  0  0  0
  9  6  1  0  0  0  0
 10 11  1  0  0  0  0
 10  4  1  0  0  0  0
 10 13  1  0  0  0  0
 12 10  1  0  0  0  0
 13 14  1  0  0  0  0
 13 35  1  0  0  0  0
 14 36  1  0  0  0  0
 15 16  1  6  0  0  0
 15 14  1  0  0  0  0
 15 25  1  0  0  0  0
 17 18  1  1  0  0  0
 17  4  1  0  0  0  0
 17 15  1  0  0  0  0
 19  1  2  0  0  0  0
 19 20  1  0  0  0  0
 20 21  1  0  0  0  0
 20 23  1  0  0  0  0
 22 20  1  0  0  0  0
 24 17  1  0  0  0  0
 25 27  1  0  0  0  0
 25 31  1  0  0  0  0
 26  3  2  0  0  0  0
 26 25  1  0  0  0  0
 27 29  1  0  0  0  0
 27 28  1  0  0  0  0
 30 27  1  0  0  0  0
 31 33  1  0  0  0  0
 31 34  1  0  0  0  0
 32 31  1  0  0  0  0
M  END
