16
q = -1.0

 18 17  0  0  1  0  0  0  0  0999 V2000
   -3.3531    1.6258   -0.7193 Cl  0  0  0  0  0  0  0  0  0  0  0  0
   -1.9298    0.8870    1.4854 C   0  0  0  0  0  3  0  0  0  0  0  0
   -1.8856    0.4354    2.4894 H   0  0  0  0  0  0  0  0  0  0  0  0
   -1.2994    1.7672    1.2958 H   0  0  0  0  0  0  0  0  0  0  0  0
   -3.0380    0.6125    0.6906 C   0  0  1  0  0  3  0  0  0  0  0  0
   -4.2240   -0.2669    1.0763 C   0  0  0  0  0  0  0  0  0  0  0  0
   -5.1208    0.3756    1.2072 H   0  0  0  0  0  0  0  0  0  0  0  0
   -3.9986   -0.7197    2.0645 H   0  0  0  0  0  0  0  0  0  0  0  0
   -4.4425   -1.3642    0.0279 C   0  0  0  0  0  0  0  0  0  0  0  0
   -5.2497   -2.0595    0.3398 H   0  0  0  0  0  0  0  0  0  0  0  0
   -4.7463   -0.9108   -0.9372 H   0  0  0  0  0  0  0  0  0  0  0  0
   -3.1222   -2.0854   -0.1185 C   0  0  0  0  0  3  0  0  0  0  0  0
   -2.8179   -2.7270    0.7317 H   0  0  0  0  0  0  0  0  0  0  0  0
   -2.3537   -2.1487   -1.3014 C   0  0  0  0  0  3  0  0  0  0  0  0
   -2.7476   -1.6990   -2.2301 H   0  0  0  0  0  0  0  0  0  0  0  0
   -0.9645   -2.4678   -1.1912 C   0  0  0  0  0  3  0  0  0  0  0  0
   -0.3075   -2.3461   -2.0656 H   0  0  0  0  0  0  0  0  0  0  0  0
   -0.6321   -3.2123   -0.4459 H   0  0  0  0  0  0  0  0  0  0  0  0
  2  3  1  0  0  0  0
  4  2  1  0  0  0  0
  5  1  1  1  0  0  0
  5  6  1  0  0  0  0
  5  2  1  0  0  0  0
  6  7  1  0  0  0  0
  6  8  1  0  0  0  0
  9 10  1  0  0  0  0
  9  6  1  0  0  0  0
 11  9  1  0  0  0  0
 12  9  1  0  0  0  0
 12 13  1  0  0  0  0
 14 16  1  0  0  0  0
 14 12  1  0  0  0  0
 15 14  1  0  0  0  0
 16 18  1  0  0  0  0
 17 16  1  0  0  0  0
M  END
