1
q = -1.0

 13 13  0  0  0  0  0  0  0  0999 V2000
   -1.3135    1.4552   -0.0001 C   0  0  0  0  0  3  0  0  0  0  0  0
   -2.2596    2.2592   -0.0002 C   0  0  0  0  0  0  0  0  0  0  0  0
   -3.3514    3.1669   -0.0002 C   0  0  0  0  0  0  0  0  0  0  0  0
   -4.6912    2.6990    0.0005 C   0  0  0  0  0  0  0  0  0  0  0  0
   -3.1726    4.5767   -0.0010 C   0  0  0  0  0  0  0  0  0  0  0  0
   -2.1428    4.9617   -0.0016 H   0  0  0  0  0  0  0  0  0  0  0  0
   -5.7914    3.5575    0.0006 C   0  0  0  0  0  0  0  0  0  0  0  0
   -6.8037    3.1287    0.0012 H   0  0  0  0  0  0  0  0  0  0  0  0
   -5.5765    4.9453   -0.0002 C   0  0  0  0  0  0  0  0  0  0  0  0
   -6.4383    5.6293   -0.0002 H   0  0  0  0  0  0  0  0  0  0  0  0
   -4.9118    1.3630    0.0012 F   0  0  0  0  0  0  0  0  0  0  0  0
   -4.2652    5.4507   -0.0010 C   0  0  0  0  0  0  0  0  0  0  0  0
   -4.0936    6.5375   -0.0016 H   0  0  0  0  0  0  0  0  0  0  0  0
  2  1  3  0  0  0  0
  3  2  1  0  0  0  0
  3  4  1  0  0  0  0
  4  7  2  0  0  0  0
  4 11  1  0  0  0  0
  5  3  2  0  0  0  0
  6  5  1  0  0  0  0
  7  8  1  0  0  0  0
  9 10  1  0  0  0  0
  9  7  1  0  0  0  0
 12  5  1  0  0  0  0
 12  9  2  0  0  0  0
 13 12  1  0  0  0  0
M  END
