2
q = -1.0, confidence = 0.0

 13 13  0  0  0  0  0  0  0  0999 V2000
    7.2665    2.2742    0.0001 F   0  0  0  0  0  0  0  0  0  0  0  0
    1.4023    1.4748    0.0000 C   0  0  0  0  0  3  0  0  0  0  0  0
    2.4360    2.1642    0.0001 C   0  0  0  0  0  0  0  0  0  0  0  0
    3.6547    2.9007    0.0000 C   0  0  0  0  0  0  0  0  0  0  0  0
    4.9004    2.2159    0.0001 C   0  0  0  0  0  0  0  0  0  0  0  0
    4.9445    1.1175    0.0002 H   0  0  0  0  0  0  0  0  0  0  0  0
    6.0855    2.9480    0.0000 C   0  0  0  0  0  0  0  0  0  0  0  0
    6.1088    4.3472   -0.0001 C   0  0  0  0  0  0  0  0  0  0  0  0
    7.0710    4.8779   -0.0002 H   0  0  0  0  0  0  0  0  0  0  0  0
    4.8773    5.0247   -0.0002 C   0  0  0  0  0  0  0  0  0  0  0  0
    4.8684    6.1253   -0.0003 H   0  0  0  0  0  0  0  0  0  0  0  0
    3.6670    4.3221   -0.0001 C   0  0  0  0  0  0  0  0  0  0  0  0
    2.7076    4.8577   -0.0002 H   0  0  0  0  0  0  0  0  0  0  0  0
  2  3  3  0  0  0  0
  4  3  1  0  0  0  0
  4  5  1  0  0  0  0
  5  6  1  0  0  0  0
  7  1  1  0  0  0  0
  7  5  2  0  0  0  0
  8  7  1  0  0  0  0
  9  8  1  0  0  0  0
 10  8  2  0  0  0  0
 10 12  1  0  0  0  0
 11 10  1  0  0  0  0
 12  4  2  0  0  0  0
 13 12  1  0  0  0  0
M  END
