2
q = -1.0

 13 13  0  0  0  0  0  0  0  0999 V2000
    6.6879    5.5700   -0.0009 F   0  0  0  0  0  0  0  0  0  0  0  0
    1.3753    1.2724   -0.0000 C   0  0  0  0  0  3  0  0  0  0  0  0
    2.3472    2.0470   -0.0002 C   0  0  0  0  0  0  0  0  0  0  0  0
    3.4542    2.9428   -0.0003 C   0  0  0  0  0  0  0  0  0  0  0  0
    4.7922    2.4610   -0.0008 C   0  0  0  0  0  0  0  0  0  0  0  0
    4.9710    1.3751   -0.0009 H   0  0  0  0  0  0  0  0  0  0  0  0
    5.8801    3.3400   -0.0009 C   0  0  0  0  0  0  0  0  0  0  0  0
    6.9162    2.9721   -0.0013 H   0  0  0  0  0  0  0  0  0  0  0  0
    5.6409    4.7202   -0.0007 C   0  0  0  0  0  0  0  0  0  0  0  0
    4.3382    5.2356   -0.0003 C   0  0  0  0  0  0  0  0  0  0  0  0
    4.1907    6.3252   -0.0002 H   0  0  0  0  0  0  0  0  0  0  0  0
    3.2555    4.3505   -0.0001 C   0  0  0  0  0  0  0  0  0  0  0  0
    2.2267    4.7380    0.0002 H   0  0  0  0  0  0  0  0  0  0  0  0
  1  9  1  0  0  0  0
  3  2  3  0  0  0  0
  4  3  1  0  0  0  0
  4 12  1  0  0  0  0
  5  4  2  0  0  0  0
  6  5  1  0  0  0  0
  7  5  1  0  0  0  0
  7  9  2  0  0  0  0
  8  7  1  0  0  0  0
  9 10  1  0  0  0  0
 10 11  1  0  0  0  0
 10 12  2  0  0  0  0
 12 13  1  0  0  0  0
M  END
