3
q = 0.0, confidence = 0.978

 34 36  0  0  1  0  0  0  0  0999 V2000
    4.2422    0.0491    2.1160 O   0  0  0  0  0  0  0  0  0  0  0  0
    1.8956    4.0054   -0.1349 O   0  0  0  0  0  0  0  0  0  0  0  0
    0.9515    0.7446    1.2312 C   0  0  0  0  0  3  0  0  0  0  0  0
    1.4898   -0.5454    0.8419 C   0  0  1  0  0  3  0  0  0  0  0  0
    2.8437   -0.2623    0.0862 C   0  0  1  0  0  0  0  0  0  0  0  0
    2.7962    1.2569   -0.2310 C   0  0  0  0  0  0  0  0  0  0  0  0
    1.9812    1.8366    0.9182 C   0  0  1  0  0  0  0  0  0  0  0  0
    4.0396   -0.5114    1.0509 C   0  0  0  0  0  0  0  0  0  0  0  0
    4.9432   -1.5428    0.3771 C   0  0  1  0  0  0  0  0  0  0  0  0
    3.9062   -2.3937   -0.3837 C   0  0  0  0  0  0  0  0  0  0  0  0
    3.2547   -1.1848   -1.0977 C   0  0  2  0  0  0  0  0  0  0  0  0
    4.4859   -0.5941   -1.8264 C   0  0  0  0  0  0  0  0  0  0  0  0
    5.6350   -0.7713   -0.7890 C   0  0  0  0  0  0  0  0  0  0  0  0
    1.5524    3.2824    0.8001 C   0  0  0  0  0  0  0  0  0  0  0  0
    0.7170    3.8226    1.9491 C   0  0  0  0  0  0  0  0  0  0  0  0
    1.4475   -1.6890    1.8455 C   0  0  0  0  0  0  0  0  0  0  0  0
    0.4937    0.8223    2.2316 H   0  0  0  0  0  0  0  0  0  0  0  0
    3.8026    1.7147   -0.2893 H   0  0  0  0  0  0  0  0  0  0  0  0
    2.3045    1.4343   -1.2061 H   0  0  0  0  0  0  0  0  0  0  0  0
    2.6482    1.8372    1.8172 H   0  0  0  0  0  0  0  0  0  0  0  0
    5.6344   -2.0385    1.0826 H   0  0  0  0  0  0  0  0  0  0  0  0
    4.3756   -3.1110   -1.0885 H   0  0  0  0  0  0  0  0  0  0  0  0
    3.2234   -2.9486    0.2863 H   0  0  0  0  0  0  0  0  0  0  0  0
    2.4172   -1.3893   -1.7870 H   0  0  0  0  0  0  0  0  0  0  0  0
    4.6873   -1.1787   -2.7464 H   0  0  0  0  0  0  0  0  0  0  0  0
    4.3349    0.4546   -2.1418 H   0  0  0  0  0  0  0  0  0  0  0  0
    6.4699   -1.3790   -1.1931 H   0  0  0  0  0  0  0  0  0  0  0  0
    6.0690    0.1892   -0.4458 H   0  0  0  0  0  0  0  0  0  0  0  0
    1.1516    3.5319    2.9268 H   0  0  0  0  0  0  0  0  0  0  0  0
    0.6379    4.9233    1.8817 H   0  0  0  0  0  0  0  0  0  0  0  0
   -0.2995    3.3780    1.9088 H   0  0  0  0  0  0  0  0  0  0  0  0
    1.5050   -2.6908    1.3762 H   0  0  0  0  0  0  0  0  0  0  0  0
    2.2792   -1.6100    2.5787 H   0  0  0  0  0  0  0  0  0  0  0  0
    0.4988   -1.6633    2.4151 H   0  0  0  0  0  0  0  0  0  0  0  0
  2 14  2  0  0  0  0
  3 17  1  0  0  0  0
  4  3  1  0  0  0  0
  4 16  1  1  0  0  0
  5  4  1  0  0  0  0
  5  8  1  1  0  0  0
  6  5  1  0  0  0  0
  6  7  1  0  0  0  0
  7  3  1  0  0  0  0
  7 20  1  1  0  0  0
  8  1  2  0  0  0  0
  9  8  1  0  0  0  0
  9 21  1  1  0  0  0
 10 23  1  0  0  0  0
 10  9  1  0  0  0  0
 11 24  1  6  0  0  0
 11 10  1  0  0  0  0
 11  5  1  0  0  0  0
 12 11  1  0  0  0  0
 12 13  1  0  0  0  0
 13 28  1  0  0  0  0
 13  9  1  0  0  0  0
 14  7  1  0  0  0  0
 14 15  1  0  0  0  0
 15 29  1  0  0  0  0
 16 34  1  0  0  0  0
 16 33  1  0  0  0  0
 18  6  1  0  0  0  0
 19  6  1  0  0  0  0
 22 10  1  0  0  0  0
 25 12  1  0  0  0  0
 26 12  1  0  0  0  0
 27 13  1  0  0  0  0
 30 15  1  0  0  0  0
 31 15  1  0  0  0  0
 32 16  1  0  0  0  0
M  END
