14
q = -1.0

 41 43  0  0  0  0  0  0  0  0999 V2000
    0.3633    1.0746   -0.0265 P   0  0  0  0  0  0  0  0  0  0  0  0
    5.6093   -1.6177    0.2552 O   0  0  0  0  0  0  0  0  0  0  0  0
    4.5342    0.3592    0.4338 O   0  0  0  0  0  0  0  0  0  0  0  0
    1.8989    0.3790    0.2311 N   0  0  0  0  0  0  0  0  0  0  0  0
    2.8060    0.8625    0.3660 H   0  0  0  0  0  0  0  0  0  0  0  0
    1.9871   -0.9961    0.0563 C   0  0  0  0  0  0  0  0  0  0  0  0
    3.2513   -1.6554    0.0701 C   0  0  0  0  0  0  0  0  0  0  0  0
    3.2962   -3.0589   -0.1322 C   0  0  0  0  0  0  0  0  0  0  0  0
    4.2726   -3.5609   -0.1160 H   0  0  0  0  0  0  0  0  0  0  0  0
    2.1229   -3.7678   -0.3696 C   0  0  0  0  0  0  0  0  0  0  0  0
    2.1591   -4.8518   -0.5558 H   0  0  0  0  0  0  0  0  0  0  0  0
    0.8800   -3.0929   -0.3913 C   0  0  0  0  0  0  0  0  0  0  0  0
   -0.0271   -3.6676   -0.6312 H   0  0  0  0  0  0  0  0  0  0  0  0
    0.7700   -1.7182   -0.1468 C   0  0  0  0  0  3  0  0  0  0  0  0
    4.4793   -0.8671    0.2681 C   0  0  0  0  0  0  0  0  0  0  0  0
    6.8291   -0.8968    0.4346 C   0  0  0  0  0  0  0  0  0  0  0  0
    7.6367   -1.6500    0.4014 H   0  0  0  0  0  0  0  0  0  0  0  0
    6.8382   -0.3633    1.4069 H   0  0  0  0  0  0  0  0  0  0  0  0
    6.9699   -0.1452   -0.3688 H   0  0  0  0  0  0  0  0  0  0  0  0
    0.5053    2.2046   -1.4652 C   0  0  0  0  0  0  0  0  0  0  0  0
   -0.6587    2.5443   -2.1825 C   0  0  0  0  0  0  0  0  0  0  0  0
   -1.6135    2.0642   -1.9201 H   0  0  0  0  0  0  0  0  0  0  0  0
   -0.5846    3.4584   -3.2436 C   0  0  0  0  0  0  0  0  0  0  0  0
   -1.4946    3.7193   -3.8049 H   0  0  0  0  0  0  0  0  0  0  0  0
    0.6514    4.0176   -3.6056 C   0  0  0  0  0  0  0  0  0  0  0  0
    0.7098    4.7268   -4.4454 H   0  0  0  0  0  0  0  0  0  0  0  0
    1.8162    3.6589   -2.9080 C   0  0  0  0  0  0  0  0  0  0  0  0
    2.7887    4.0825   -3.2013 H   0  0  0  0  0  0  0  0  0  0  0  0
    1.7460    2.7548   -1.8377 C   0  0  0  0  0  0  0  0  0  0  0  0
    2.6644    2.4628   -1.3057 H   0  0  0  0  0  0  0  0  0  0  0  0
    0.2058    2.2480    1.3790 C   0  0  0  0  0  0  0  0  0  0  0  0
    0.8159    1.9301    2.6095 C   0  0  0  0  0  0  0  0  0  0  0  0
    1.4215    1.0146    2.6881 H   0  0  0  0  0  0  0  0  0  0  0  0
    0.6542    2.7768    3.7158 C   0  0  0  0  0  0  0  0  0  0  0  0
    1.1404    2.5255    4.6708 H   0  0  0  0  0  0  0  0  0  0  0  0
   -0.1253    3.9400    3.6069 C   0  0  0  0  0  0  0  0  0  0  0  0
   -0.2536    4.6020    4.4766 H   0  0  0  0  0  0  0  0  0  0  0  0
   -0.7315    4.2626    2.3817 C   0  0  0  0  0  0  0  0  0  0  0  0
   -1.3318    5.1804    2.2875 H   0  0  0  0  0  0  0  0  0  0  0  0
   -0.5627    3.4250    1.2686 C   0  0  0  0  0  0  0  0  0  0  0  0
   -1.0170    3.6949    0.3031 H   0  0  0  0  0  0  0  0  0  0  0  0
  1  4  1  0  0  0  0
  1 31  1  0  0  0  0
  2 15  1  0  0  0  0
  2 16  1  0  0  0  0
  4  5  1  0  0  0  0
  6  7  1  0  0  0  0
  6  4  1  0  0  0  0
  7 15  1  0  0  0  0
  8  9  1  0  0  0  0
  8  7  2  0  0  0  0
 10  8  1  0  0  0  0
 11 10  1  0  0  0  0
 12 10  2  0  0  0  0
 12 14  1  0  0  0  0
 13 12  1  0  0  0  0
 14  6  2  0  0  0  0
 15  3  2  0  0  0  0
 16 18  1  0  0  0  0
 17 16  1  0  0  0  0
 19 16  1  0  0  0  0
 20  1  1  0  0  0  0
 21 22  1  0  0  0  0
 21 20  2  0  0  0  0
 23 21  1  0  0  0  0
 24 23  1  0  0  0  0
 25 23  2  0  0  0  0
 25 27  1  0  0  0  0
 26 25  1  0  0  0  0
 27 29  2  0  0  0  0
 28 27  1  0  0  0  0
 29 20  1  0  0  0  0
 29 30  1  0  0  0  0
 31 32  1  0  0  0  0
 32 33  1  0  0  0  0
 32 34  2  0  0  0  0
 34 35  1  0  0  0  0
 36 34  1  0  0  0  0
 36 37  1  0  0  0  0
 38 36  2  0  0  0  0
 39 38  1  0  0  0  0
 40 31  2  0  0  0  0
 40 38  1  0  0  0  0
 41 40  1  0  0  0  0
M  END
