1
q = -1.0

 26 27  0  0  0  0  0  0  0  0999 V2000
    1.9602   -0.8940   -1.5628 C   0  0  0  0  0  3  0  0  0  0  0  0
    2.4155   -2.0064   -1.6471 O   0  0  0  0  0  0  0  0  0  0  0  0
    2.7892    0.3311   -2.0246 C   0  0  0  0  0  0  0  0  0  0  0  0
    3.7469   -0.0871   -2.3876 H   0  0  0  0  0  0  0  0  0  0  0  0
    2.2532    0.7704   -2.8892 H   0  0  0  0  0  0  0  0  0  0  0  0
    2.9979    1.3866   -0.9655 C   0  0  0  0  0  0  0  0  0  0  0  0
    2.2592    2.5866   -1.0113 C   0  0  0  0  0  0  0  0  0  0  0  0
    1.5826    2.7634   -1.8606 H   0  0  0  0  0  0  0  0  0  0  0  0
    2.3608    3.5477    0.0039 C   0  0  0  0  0  0  0  0  0  0  0  0
    1.7812    4.4811   -0.0658 H   0  0  0  0  0  0  0  0  0  0  0  0
    3.2021    3.3124    1.1014 C   0  0  0  0  0  0  0  0  0  0  0  0
    3.2849    4.0537    1.9106 H   0  0  0  0  0  0  0  0  0  0  0  0
    3.9518    2.1300    1.1553 C   0  0  0  0  0  0  0  0  0  0  0  0
    4.6269    1.9429    2.0041 H   0  0  0  0  0  0  0  0  0  0  0  0
    3.8767    1.1640    0.1303 C   0  0  0  0  0  0  0  0  0  0  0  0
    4.7087   -0.0695    0.2426 C   0  0  0  0  0  0  0  0  0  0  0  0
    4.5314   -0.9538    1.3277 C   0  0  0  0  0  0  0  0  0  0  0  0
    3.7476   -0.7396    2.0686 H   0  0  0  0  0  0  0  0  0  0  0  0
    5.3213   -2.1070    1.4461 C   0  0  0  0  0  0  0  0  0  0  0  0
    5.1608   -2.7922    2.2926 H   0  0  0  0  0  0  0  0  0  0  0  0
    6.3057   -2.3915    0.4879 C   0  0  0  0  0  0  0  0  0  0  0  0
    6.9223   -3.2985    0.5793 H   0  0  0  0  0  0  0  0  0  0  0  0
    6.5015   -1.5109   -0.5879 C   0  0  0  0  0  0  0  0  0  0  0  0
    7.2799   -1.7195   -1.3377 H   0  0  0  0  0  0  0  0  0  0  0  0
    5.7106   -0.3601   -0.7088 C   0  0  0  0  0  0  0  0  0  0  0  0
    5.8812    0.3387   -1.5425 H   0  0  0  0  0  0  0  0  0  0  0  0
  2  1  2  0  0  0  0
  3  1  1  0  0  0  0
  3  6  1  0  0  0  0
  4  3  1  0  0  0  0
  5  3  1  0  0  0  0
  6 15  1  0  0  0  0
  7  6  2  0  0  0  0
  7  9  1  0  0  0  0
  8  7  1  0  0  0  0
  9 11  2  0  0  0  0
 10  9  1  0  0  0  0
 11 13  1  0  0  0  0
 11 12  1  0  0  0  0
 13 14  1  0  0  0  0
 15 16  1  0  0  0  0
 15 13  2  0  0  0  0
 16 17  1  0  0  0  0
 17 19  2  0  0  0  0
 17 18  1  0  0  0  0
 19 20  1  0  0  0  0
 21 22  1  0  0  0  0
 21 19  1  0  0  0  0
 23 21  2  0  0  0  0
 24 23  1  0  0  0  0
 25 23  1  0  0  0  0
 25 16  2  0  0  0  0
 26 25  1  0  0  0  0
M  END
