2
q = -1.0

 19 19  0  0  0  0  0  0  0  0999 V2000
    2.2558   -3.4691   -0.2844 O   0  0  0  0  0  0  0  0  0  0  0  0
    2.1909   -2.3108   -0.6195 C   0  0  0  0  0  3  0  0  0  0  0  0
    3.4148   -1.6216   -1.2745 C   0  0  0  0  0  0  0  0  0  0  0  0
    4.2426   -2.3567   -1.1980 H   0  0  0  0  0  0  0  0  0  0  0  0
    3.1565   -1.5221   -2.3491 H   0  0  0  0  0  0  0  0  0  0  0  0
    3.8151   -0.2784   -0.7195 C   0  0  0  0  0  0  0  0  0  0  0  0
    3.6010    0.8979   -1.4650 C   0  0  0  0  0  0  0  0  0  0  0  0
    3.1461    0.8233   -2.4639 H   0  0  0  0  0  0  0  0  0  0  0  0
    3.9551    2.1565   -0.9585 C   0  0  0  0  0  0  0  0  0  0  0  0
    3.7870    3.0589   -1.5662 H   0  0  0  0  0  0  0  0  0  0  0  0
    4.5265    2.2520    0.3185 C   0  0  0  0  0  0  0  0  0  0  0  0
    4.8038    3.2329    0.7340 H   0  0  0  0  0  0  0  0  0  0  0  0
    4.7568    1.0855    1.0623 C   0  0  0  0  0  0  0  0  0  0  0  0
    5.2140    1.1577    2.0618 H   0  0  0  0  0  0  0  0  0  0  0  0
    4.4212   -0.1876    0.5630 C   0  0  0  0  0  0  0  0  0  0  0  0
    4.7137   -1.4241    1.3737 C   0  0  0  0  0  0  0  0  0  0  0  0
    3.8064   -2.0357    1.5488 H   0  0  0  0  0  0  0  0  0  0  0  0
    5.1421   -1.1636    2.3599 H   0  0  0  0  0  0  0  0  0  0  0  0
    5.4374   -2.0863    0.8520 H   0  0  0  0  0  0  0  0  0  0  0  0
  2  1  2  0  0  0  0
  3  4  1  0  0  0  0
  3  6  1  0  0  0  0
  3  2  1  0  0  0  0
  5  3  1  0  0  0  0
  6 15  1  0  0  0  0
  7  9  1  0  0  0  0
  7  6  2  0  0  0  0
  8  7  1  0  0  0  0
  9 11  2  0  0  0  0
 10  9  1  0  0  0  0
 11 12  1  0  0  0  0
 11 13  1  0  0  0  0
 13 14  1  0  0  0  0
 15 13  2  0  0  0  0
 15 16  1  0  0  0  0
 16 17  1  0  0  0  0
 16 18  1  0  0  0  0
 19 16  1  0  0  0  0
M  END
