1
q = 0.0, confidence = 0.986

 42 44  0  0  1  0  0  0  0  0999 V2000
    0.4223   -0.3117    1.1002 C   0  0  0  0  0  3  0  0  0  0  0  0
   -0.8793   -0.2142    1.6122 C   0  0  0  0  0  0  0  0  0  0  0  0
    1.0217    0.7990    1.6659 N   0  0  0  0  0  0  0  0  0  0  0  0
    0.2287    1.5308    2.4449 N   0  0  0  0  0  2  0  0  0  0  0  0
   -0.9345    0.9049    2.4014 N   0  0  0  0  0  0  0  0  0  0  0  0
    2.4005    1.2642    1.3737 C   0  0  2  0  0  0  0  0  0  0  0  0
    2.9390    0.3247    1.1413 H   0  0  0  0  0  0  0  0  0  0  0  0
    3.0270    1.9402    2.5903 C   0  0  0  0  0  0  0  0  0  0  0  0
    2.4982    2.8732    2.8613 H   0  0  0  0  0  0  0  0  0  0  0  0
    4.0773    2.1945    2.3526 H   0  0  0  0  0  0  0  0  0  0  0  0
    3.0168    1.2643    3.4677 H   0  0  0  0  0  0  0  0  0  0  0  0
    2.3791    2.1203    0.1141 C   0  0  0  0  0  0  0  0  0  0  0  0
    1.7659    3.3883    0.1139 C   0  0  0  0  0  0  0  0  0  0  0  0
    1.2945    3.7707    1.0328 H   0  0  0  0  0  0  0  0  0  0  0  0
    1.7370    4.1592   -1.0567 C   0  0  0  0  0  0  0  0  0  0  0  0
    1.2557    5.1490   -1.0482 H   0  0  0  0  0  0  0  0  0  0  0  0
    2.3189    3.6690   -2.2378 C   0  0  0  0  0  0  0  0  0  0  0  0
    2.2951    4.2746   -3.1565 H   0  0  0  0  0  0  0  0  0  0  0  0
    2.9239    2.4033   -2.2448 C   0  0  0  0  0  0  0  0  0  0  0  0
    3.3716    2.0070   -3.1684 H   0  0  0  0  0  0  0  0  0  0  0  0
    2.9509    1.6296   -1.0741 C   0  0  0  0  0  0  0  0  0  0  0  0
    3.4041    0.6259   -1.0879 H   0  0  0  0  0  0  0  0  0  0  0  0
   -2.0888    1.4495    3.1067 C   0  0  0  0  0  0  0  0  0  0  0  0
   -2.7303    0.5967    3.4026 H   0  0  0  0  0  0  0  0  0  0  0  0
   -2.6563    2.1117    2.4236 H   0  0  0  0  0  0  0  0  0  0  0  0
   -1.7244    2.0233    3.9762 H   0  0  0  0  0  0  0  0  0  0  0  0
   -2.2384   -1.3873    1.3371 S   0  0  1  0  0  0  0  0  0  0  0  0
   -3.1801   -1.3008    2.5326 O   0  0  0  0  0  0  0  0  0  0  0  0
   -3.0167   -0.4141   -0.0148 C   0  0  0  0  0  0  0  0  0  0  0  0
   -4.3057    0.0731    0.2135 C   0  0  0  0  0  0  0  0  0  0  0  0
   -4.7810   -0.1092    1.1902 H   0  0  0  0  0  0  0  0  0  0  0  0
   -4.9524    0.7739   -0.8175 C   0  0  0  0  0  0  0  0  0  0  0  0
   -5.9679    1.1668   -0.6507 H   0  0  0  0  0  0  0  0  0  0  0  0
   -4.3299    0.9755   -2.0653 C   0  0  0  0  0  0  0  0  0  0  0  0
   -3.0300    0.4538   -2.2603 C   0  0  0  0  0  0  0  0  0  0  0  0
   -2.5270    0.5980   -3.2294 H   0  0  0  0  0  0  0  0  0  0  0  0
   -2.3666   -0.2482   -1.2479 C   0  0  0  0  0  0  0  0  0  0  0  0
   -1.3506   -0.6465   -1.4095 H   0  0  0  0  0  0  0  0  0  0  0  0
   -5.0282    1.7137   -3.1784 C   0  0  0  0  0  0  0  0  0  0  0  0
   -5.9997    2.1294   -2.8491 H   0  0  0  0  0  0  0  0  0  0  0  0
   -5.2220    1.0423   -4.0411 H   0  0  0  0  0  0  0  0  0  0  0  0
   -4.4067    2.5504   -3.5588 H   0  0  0  0  0  0  0  0  0  0  0  0
  1  2  2  0  0  0  0
  1  3  1  0  0  0  0
  2  5  1  0  0  0  0
  3  4  1  0  0  0  0
  5  4  1  0  0  0  0
  5 23  1  0  0  0  0
  6  7  1  6  0  0  0
  6  3  1  0  0  0  0
  6  8  1  0  0  0  0
  8  9  1  0  0  0  0
  8 11  1  0  0  0  0
 10  8  1  0  0  0  0
 12  6  1  0  0  0  0
 13 12  1  0  0  0  0
 13 14  1  0  0  0  0
 15 16  1  0  0  0  0
 15 13  2  0  0  0  0
 17 15  1  0  0  0  0
 18 17  1  0  0  0  0
 19 17  2  0  0  0  0
 19 21  1  0  0  0  0
 20 19  1  0  0  0  0
 21 12  2  0  0  0  0
 22 21  1  0  0  0  0
 23 24  1  0  0  0  0
 23 26  1  0  0  0  0
 25 23  1  0  0  0  0
 27  2  1  0  0  0  0
 27 28  2  1  0  0  0
 29 30  1  0  0  0  0
 29 27  1  0  0  0  0
 30 31  1  0  0  0  0
 32 33  1  0  0  0  0
 32 30  2  0  0  0  0
 34 32  1  0  0  0  0
 35 34  2  0  0  0  0
 35 37  1  0  0  0  0
 36 35  1  0  0  0  0
 37 29  2  0  0  0  0
 38 37  1  0  0  0  0
 39 40  1  0  0  0  0
 39 34  1  0  0  0  0
 41 39  1  0  0  0  0
 42 39  1  0  0  0  0
M  END
