4
q = -1.0

 53 55  0  0  1  0  0  0  0  0999 V2000
    1.2397    0.1102    0.0894 P   0  0  0  0  0  0  0  0  0  0  0  0
   -1.0457    1.3283    1.7188 N   0  0  0  0  0  0  0  0  0  0  0  0
   -1.5559    0.5261    2.1165 H   0  0  0  0  0  0  0  0  0  0  0  0
   -0.7577   -1.5129    1.2421 C   0  0  0  0  0  3  0  0  0  0  0  0
   -1.4959   -2.6918    1.5099 C   0  0  0  0  0  0  0  0  0  0  0  0
   -2.2759   -3.0227    0.8066 H   0  0  0  0  0  0  0  0  0  0  0  0
   -1.2759   -3.4806    2.6506 C   0  0  0  0  0  0  0  0  0  0  0  0
   -1.8783   -4.3893    2.8095 H   0  0  0  0  0  0  0  0  0  0  0  0
   -0.2931   -3.1199    3.5858 C   0  0  0  0  0  0  0  0  0  0  0  0
   -0.1159   -3.7368    4.4801 H   0  0  0  0  0  0  0  0  0  0  0  0
    0.4661   -1.9628    3.3613 C   0  0  0  0  0  0  0  0  0  0  0  0
    1.2525   -1.6705    4.0767 H   0  0  0  0  0  0  0  0  0  0  0  0
    0.2426   -1.1757    2.2131 C   0  0  0  0  0  0  0  0  0  0  0  0
    0.2851    1.3617    2.3606 C   0  0  2  0  0  0  0  0  0  0  0  0
    0.8333    2.2317    1.9407 H   0  0  0  0  0  0  0  0  0  0  0  0
    1.0590    0.0723    1.9541 C   0  0  2  0  0  0  0  0  0  0  0  0
    2.0369    0.0574    2.4781 H   0  0  0  0  0  0  0  0  0  0  0  0
    0.2350    1.5059    3.8869 C   0  0  0  0  0  0  0  0  0  0  0  0
   -0.2860    2.4342    4.1941 H   0  0  0  0  0  0  0  0  0  0  0  0
    1.2598    1.5478    4.3074 H   0  0  0  0  0  0  0  0  0  0  0  0
   -0.2885    0.6431    4.3476 H   0  0  0  0  0  0  0  0  0  0  0  0
   -1.8953    2.5268    1.8712 C   0  0  0  0  0  0  0  0  0  0  0  0
   -1.9476    2.8067    2.9527 H   0  0  0  0  0  0  0  0  0  0  0  0
   -3.3118    2.1823    1.4160 C   0  0  0  0  0  0  0  0  0  0  0  0
   -3.3072    1.8990    0.3461 H   0  0  0  0  0  0  0  0  0  0  0  0
   -3.9912    3.0451    1.5601 H   0  0  0  0  0  0  0  0  0  0  0  0
   -3.7211    1.3240    1.9875 H   0  0  0  0  0  0  0  0  0  0  0  0
   -1.3408    3.7318    1.1120 C   0  0  0  0  0  0  0  0  0  0  0  0
   -0.3037    3.9816    1.4101 H   0  0  0  0  0  0  0  0  0  0  0  0
   -1.9694    4.6231    1.3067 H   0  0  0  0  0  0  0  0  0  0  0  0
   -1.3471    3.5379    0.0216 H   0  0  0  0  0  0  0  0  0  0  0  0
    2.2339    1.6349   -0.2256 C   0  0  0  0  0  0  0  0  0  0  0  0
    3.6113    1.6901    0.0785 C   0  0  0  0  0  0  0  0  0  0  0  0
    4.1241    0.7897    0.4511 H   0  0  0  0  0  0  0  0  0  0  0  0
    4.3274    2.8821   -0.1001 C   0  0  0  0  0  0  0  0  0  0  0  0
    5.4006    2.9169    0.1429 H   0  0  0  0  0  0  0  0  0  0  0  0
    3.6795    4.0293   -0.5904 C   0  0  0  0  0  0  0  0  0  0  0  0
    4.2454    4.9624   -0.7338 H   0  0  0  0  0  0  0  0  0  0  0  0
    2.3121    3.9805   -0.9010 C   0  0  0  0  0  0  0  0  0  0  0  0
    1.7999    4.8740   -1.2894 H   0  0  0  0  0  0  0  0  0  0  0  0
    1.5934    2.7880   -0.7193 C   0  0  0  0  0  0  0  0  0  0  0  0
    0.5203    2.7428   -0.9524 H   0  0  0  0  0  0  0  0  0  0  0  0
    2.4316   -1.2050   -0.3820 C   0  0  0  0  0  0  0  0  0  0  0  0
    2.7249   -2.3190    0.4313 C   0  0  0  0  0  0  0  0  0  0  0  0
    2.2763   -2.4076    1.4304 H   0  0  0  0  0  0  0  0  0  0  0  0
    3.5736   -3.3331   -0.0401 C   0  0  0  0  0  0  0  0  0  0  0  0
    3.7942   -4.1961    0.6068 H   0  0  0  0  0  0  0  0  0  0  0  0
    4.1356   -3.2539   -1.3232 C   0  0  0  0  0  0  0  0  0  0  0  0
    4.7990   -4.0525   -1.6882 H   0  0  0  0  0  0  0  0  0  0  0  0
    3.8446   -2.1484   -2.1403 C   0  0  0  0  0  0  0  0  0  0  0  0
    4.2795   -2.0761   -3.1490 H   0  0  0  0  0  0  0  0  0  0  0  0
    2.9986   -1.1332   -1.6753 C   0  0  0  0  0  0  0  0  0  0  0  0
    2.7791   -0.2685   -2.3214 H   0  0  0  0  0  0  0  0  0  0  0  0
  1 16  1  0  0  0  0
  2 22  1  0  0  0  0
  2  3  1  0  0  0  0
  2 14  1  0  0  0  0
  4  5  2  0  0  0  0
  4 13  1  0  0  0  0
  5  7  1  0  0  0  0
  6  5  1  0  0  0  0
  7  8  1  0  0  0  0
  7  9  2  0  0  0  0
  9 10  1  0  0  0  0
 11  9  1  0  0  0  0
 11 12  1  0  0  0  0
 13 11  2  0  0  0  0
 14 15  1  6  0  0  0
 14 18  1  0  0  0  0
 16 13  1  0  0  0  0
 16 14  1  0  0  0  0
 16 17  1  1  0  0  0
 18 19  1  0  0  0  0
 18 20  1  0  0  0  0
 18 21  1  0  0  0  0
 22 23  1  0  0  0  0
 24 26  1  0  0  0  0
 24 22  1  0  0  0  0
 24 27  1  0  0  0  0
 25 24  1  0  0  0  0
 28 30  1  0  0  0  0
 28 29  1  0  0  0  0
 28 22  1  0  0  0  0
 31 28  1  0  0  0  0
 32 33  1  0  0  0  0
 32  1  1  0  0  0  0
 33 34  1  0  0  0  0
 35 33  2  0  0  0  0
 35 36  1  0  0  0  0
 37 35  1  0  0  0  0
 38 37  1  0  0  0  0
 39 41  1  0  0  0  0
 39 37  2  0  0  0  0
 40 39  1  0  0  0  0
 41 32  2  0  0  0  0
 42 41  1  0  0  0  0
 43  1  1  0  0  0  0
 43 44  1  0  0  0  0
 44 45  1  0  0  0  0
 46 44  2  0  0  0  0
 46 47  1  0  0  0  0
 48 46  1  0  0  0  0
 49 48  1  0  0  0  0
 50 52  1  0  0  0  0
 50 48  2  0  0  0  0
 51 50  1  0  0  0  0
 52 43  2  0  0  0  0
 53 52  1  0  0  0  0
M  END
