3
q = -1.0

 63 66  0  0  0  0  0  0  0  0999 V2000
   -1.1759    0.8865   -0.1804 P   0  0  0  0  0  4  0  0  0  0  0  0
   -0.1137   -0.3346    0.1127 N   0  0  0  0  0  2  0  0  0  0  0  0
    1.1232    1.8185   -1.2977 C   0  0  0  0  0  3  0  0  0  0  0  0
    1.8208    2.7691   -2.0880 C   0  0  0  0  0  0  0  0  0  0  0  0
    1.1996    3.8962   -2.6457 C   0  0  0  0  0  0  0  0  0  0  0  0
   -0.1642    4.1558   -2.4168 C   0  0  0  0  0  0  0  0  0  0  0  0
   -0.9030    3.2525   -1.6453 C   0  0  0  0  0  0  0  0  0  0  0  0
   -0.2669    2.0973   -1.1416 C   0  0  0  0  0  0  0  0  0  0  0  0
   -1.7388    1.7548    1.3338 C   0  0  0  0  0  0  0  0  0  0  0  0
   -3.0820    2.0942    1.5826 C   0  0  0  0  0  0  0  0  0  0  0  0
   -3.4241    2.7705    2.7652 C   0  0  0  0  0  0  0  0  0  0  0  0
   -2.4302    3.1105    3.6951 C   0  0  0  0  0  0  0  0  0  0  0  0
   -1.0857    2.7864    3.4393 C   0  0  0  0  0  0  0  0  0  0  0  0
   -0.7372    2.1143    2.2614 C   0  0  0  0  0  0  0  0  0  0  0  0
   -2.6859    0.3272   -1.0441 C   0  0  0  0  0  0  0  0  0  0  0  0
   -2.9525    0.7134   -2.3744 C   0  0  0  0  0  0  0  0  0  0  0  0
   -4.0650    0.1892   -3.0484 C   0  0  0  0  0  0  0  0  0  0  0  0
   -4.9082   -0.7344   -2.4101 C   0  0  0  0  0  0  0  0  0  0  0  0
   -4.6347   -1.1387   -1.0938 C   0  0  0  0  0  0  0  0  0  0  0  0
   -3.5298   -0.6120   -0.4099 C   0  0  0  0  0  0  0  0  0  0  0  0
   -0.5559   -1.6792    0.2883 C   0  0  0  0  0  0  0  0  0  0  0  0
   -0.8371   -2.2176    1.5800 C   0  0  0  0  0  0  0  0  0  0  0  0
   -1.2248   -3.5681    1.6860 C   0  0  0  0  0  0  0  0  0  0  0  0
   -1.3433   -4.3845    0.5573 C   0  0  0  0  0  0  0  0  0  0  0  0
   -1.0811   -3.8483   -0.7096 C   0  0  0  0  0  0  0  0  0  0  0  0
   -0.6960   -2.5062   -0.8719 C   0  0  0  0  0  0  0  0  0  0  0  0
   -0.7646   -1.3729    2.8467 C   0  0  0  0  0  0  0  0  0  0  0  0
    0.0753   -2.0324    3.9539 C   0  0  0  0  0  0  0  0  0  0  0  0
   -2.1664   -1.0321    3.3821 C   0  0  0  0  0  0  0  0  0  0  0  0
   -0.4153   -1.9624   -2.2678 C   0  0  0  0  0  0  0  0  0  0  0  0
   -1.3955   -2.4808   -3.3279 C   0  0  0  0  0  0  0  0  0  0  0  0
    1.0469   -2.2166   -2.6675 C   0  0  0  0  0  0  0  0  0  0  0  0
    2.8998    2.6403   -2.2710 H   0  0  0  0  0  0  0  0  0  0  0  0
    1.7915    4.5974   -3.2559 H   0  0  0  0  0  0  0  0  0  0  0  0
   -0.6424    5.0554   -2.8324 H   0  0  0  0  0  0  0  0  0  0  0  0
   -1.9676    3.4453   -1.4335 H   0  0  0  0  0  0  0  0  0  0  0  0
   -3.8630    1.8239    0.8563 H   0  0  0  0  0  0  0  0  0  0  0  0
   -4.4756    3.0301    2.9608 H   0  0  0  0  0  0  0  0  0  0  0  0
   -2.7019    3.6364    4.6230 H   0  0  0  0  0  0  0  0  0  0  0  0
   -0.3038    3.0621    4.1630 H   0  0  0  0  0  0  0  0  0  0  0  0
    0.3150    1.8613    2.0453 H   0  0  0  0  0  0  0  0  0  0  0  0
   -2.2815    1.4186   -2.8859 H   0  0  0  0  0  0  0  0  0  0  0  0
   -4.2685    0.4995   -4.0843 H   0  0  0  0  0  0  0  0  0  0  0  0
   -5.7769   -1.1482   -2.9442 H   0  0  0  0  0  0  0  0  0  0  0  0
   -5.2814   -1.8751   -0.5937 H   0  0  0  0  0  0  0  0  0  0  0  0
   -3.3181   -0.9451    0.6163 H   0  0  0  0  0  0  0  0  0  0  0  0
   -1.4401   -3.9863    2.6816 H   0  0  0  0  0  0  0  0  0  0  0  0
   -1.6442   -5.4380    0.6628 H   0  0  0  0  0  0  0  0  0  0  0  0
   -1.1837   -4.4883   -1.5988 H   0  0  0  0  0  0  0  0  0  0  0  0
   -0.2758   -0.4200    2.5617 H   0  0  0  0  0  0  0  0  0  0  0  0
    1.0756   -2.3346    3.5863 H   0  0  0  0  0  0  0  0  0  0  0  0
   -0.4205   -2.9389    4.3582 H   0  0  0  0  0  0  0  0  0  0  0  0
    0.2163   -1.3309    4.8018 H   0  0  0  0  0  0  0  0  0  0  0  0
   -2.7793   -0.5015    2.6285 H   0  0  0  0  0  0  0  0  0  0  0  0
   -2.0986   -0.3700    4.2699 H   0  0  0  0  0  0  0  0  0  0  0  0
   -2.7123   -1.9517    3.6799 H   0  0  0  0  0  0  0  0  0  0  0  0
   -0.5308   -0.8619   -2.2143 H   0  0  0  0  0  0  0  0  0  0  0  0
   -2.4482   -2.3359   -3.0137 H   0  0  0  0  0  0  0  0  0  0  0  0
   -1.2476   -3.5596   -3.5435 H   0  0  0  0  0  0  0  0  0  0  0  0
   -1.2452   -1.9375   -4.2831 H   0  0  0  0  0  0  0  0  0  0  0  0
    1.7248   -1.6837   -1.9669 H   0  0  0  0  0  0  0  0  0  0  0  0
    1.2487   -1.8333   -3.6892 H   0  0  0  0  0  0  0  0  0  0  0  0
    1.2887   -3.2998   -2.6458 H   0  0  0  0  0  0  0  0  0  0  0  0
  1  2  1  0  0  0  0
  1  9  1  0  0  0  0
  2 21  1  0  0  0  0
  3  8  1  0  0  0  0
  4  3  2  0  0  0  0
  5  6  2  0  0  0  0
  5  4  1  0  0  0  0
  6  7  1  0  0  0  0
  7 36  1  0  0  0  0
  7  8  2  0  0  0  0
  8  1  1  0  0  0  0
  9 10  2  0  0  0  0
  9 14  1  0  0  0  0
 10 11  1  0  0  0  0
 11 38  1  0  0  0  0
 11 12  2  0  0  0  0
 12 39  1  0  0  0  0
 13 12  1  0  0  0  0
 13 40  1  0  0  0  0
 14 13  2  0  0  0  0
 15 20  1  0  0  0  0
 15  1  1  0  0  0  0
 16 15  2  0  0  0  0
 17 18  2  0  0  0  0
 17 16  1  0  0  0  0
 18 19  1  0  0  0  0
 19 45  1  0  0  0  0
 19 20  2  0  0  0  0
 20 46  1  0  0  0  0
 21 22  1  0  0  0  0
 22 23  2  0  0  0  0
 22 27  1  0  0  0  0
 23 47  1  0  0  0  0
 24 48  1  0  0  0  0
 24 23  1  0  0  0  0
 25 24  2  0  0  0  0
 26 25  1  0  0  0  0
 26 21  2  0  0  0  0
 27 29  1  0  0  0  0
 27 28  1  0  0  0  0
 28 52  1  0  0  0  0
 28 53  1  0  0  0  0
 29 56  1  0  0  0  0
 29 55  1  0  0  0  0
 30 57  1  0  0  0  0
 30 26  1  0  0  0  0
 31 58  1  0  0  0  0
 31 30  1  0  0  0  0
 32 63  1  0  0  0  0
 32 30  1  0  0  0  0
 32 61  1  0  0  0  0
 33  4  1  0  0  0  0
 34  5  1  0  0  0  0
 35  6  1  0  0  0  0
 37 10  1  0  0  0  0
 41 14  1  0  0  0  0
 42 16  1  0  0  0  0
 43 17  1  0  0  0  0
 44 18  1  0  0  0  0
 49 25  1  0  0  0  0
 50 27  1  0  0  0  0
 51 28  1  0  0  0  0
 54 29  1  0  0  0  0
 59 31  1  0  0  0  0
 60 31  1  0  0  0  0
 62 32  1  0  0  0  0
M  END
