1
q = 0.0, confidence = 0.94

 51 53  0  0  1  0  0  0  0  0999 V2000
    0.6431   -0.2577    0.2686 C   0  0  0  0  0  2  0  0  0  0  0  0
   -0.5683    0.2020    0.5657 N   0  0  0  0  0  0  0  0  0  0  0  0
   -1.9097   -0.1301    0.2740 C   0  0  0  0  0  0  0  0  0  0  0  0
   -2.3247   -0.2798   -1.0804 C   0  0  0  0  0  0  0  0  0  0  0  0
   -3.6819   -0.5488   -1.3427 C   0  0  0  0  0  0  0  0  0  0  0  0
   -3.9986   -0.6596   -2.3932 H   0  0  0  0  0  0  0  0  0  0  0  0
   -4.6411   -0.6721   -0.3233 C   0  0  0  0  0  0  0  0  0  0  0  0
   -4.2042   -0.5059    1.0034 C   0  0  0  0  0  0  0  0  0  0  0  0
   -4.9325   -0.5937    1.8265 H   0  0  0  0  0  0  0  0  0  0  0  0
   -2.8630   -0.2360    1.3229 C   0  0  0  0  0  0  0  0  0  0  0  0
   -1.3654   -0.1556   -2.2353 C   0  0  0  0  0  0  0  0  0  0  0  0
   -0.7907   -1.0916   -2.3854 H   0  0  0  0  0  0  0  0  0  0  0  0
   -0.6007    0.6270   -2.0739 H   0  0  0  0  0  0  0  0  0  0  0  0
   -1.9070    0.0671   -3.1749 H   0  0  0  0  0  0  0  0  0  0  0  0
   -6.0809   -0.9960   -0.6339 C   0  0  0  0  0  0  0  0  0  0  0  0
   -6.7773   -0.4443    0.0295 H   0  0  0  0  0  0  0  0  0  0  0  0
   -6.2882   -2.0784   -0.4885 H   0  0  0  0  0  0  0  0  0  0  0  0
   -6.3382   -0.7520   -1.6833 H   0  0  0  0  0  0  0  0  0  0  0  0
   -2.4476   -0.0840    2.7609 C   0  0  0  0  0  0  0  0  0  0  0  0
   -3.3125   -0.1997    3.4410 H   0  0  0  0  0  0  0  0  0  0  0  0
   -1.9839    0.9043    2.9539 H   0  0  0  0  0  0  0  0  0  0  0  0
   -1.6829   -0.8365    3.0435 H   0  0  0  0  0  0  0  0  0  0  0  0
    0.5663    1.2733    0.7211 B   0  0  1  0  0  0  0  0  0  0  0  0
    1.1017    1.8275    2.1670 C   0  0  0  0  0  0  0  0  0  0  0  0
    2.5270    2.3946    1.9970 C   0  0  0  0  0  0  0  0  0  0  0  0
    2.9132    2.7861    2.9647 H   0  0  0  0  0  0  0  0  0  0  0  0
    2.5589    3.2403    1.2762 H   0  0  0  0  0  0  0  0  0  0  0  0
    3.2362    1.6153    1.6524 H   0  0  0  0  0  0  0  0  0  0  0  0
    1.1748    0.6722    3.1795 C   0  0  0  0  0  0  0  0  0  0  0  0
    1.5671    1.0225    4.1599 H   0  0  0  0  0  0  0  0  0  0  0  0
    1.8406   -0.1346    2.8128 H   0  0  0  0  0  0  0  0  0  0  0  0
    0.1823    0.2188    3.3603 H   0  0  0  0  0  0  0  0  0  0  0  0
    0.2053    2.9510    2.7225 C   0  0  0  0  0  0  0  0  0  0  0  0
    0.5875    3.3374    3.6946 H   0  0  0  0  0  0  0  0  0  0  0  0
   -0.8348    2.6038    2.9006 H   0  0  0  0  0  0  0  0  0  0  0  0
    0.1545    3.8186    2.0291 H   0  0  0  0  0  0  0  0  0  0  0  0
    0.5835    2.3320   -0.4927 C   0  0  2  0  0  3  0  0  0  0  0  0
   -0.4472    3.1311   -0.9031 N   0  0  0  0  0  0  0  0  0  0  0  0
   -0.0879    3.8538   -2.0301 C   0  0  0  0  0  0  0  0  0  0  0  0
   -0.7755    4.5451   -2.5258 H   0  0  0  0  0  0  0  0  0  0  0  0
    1.2064    3.5069   -2.3225 C   0  0  0  0  0  0  0  0  0  0  0  0
    1.8746    3.8368   -3.1232 H   0  0  0  0  0  0  0  0  0  0  0  0
    1.5971    2.5783   -1.3721 N   0  0  0  0  0  0  0  0  0  0  0  0
   -1.7693    3.1719   -0.2908 C   0  0  0  0  0  0  0  0  0  0  0  0
   -2.4974    2.6029   -0.9007 H   0  0  0  0  0  0  0  0  0  0  0  0
   -2.0989    4.2233   -0.1911 H   0  0  0  0  0  0  0  0  0  0  0  0
   -1.7117    2.7079    0.7072 H   0  0  0  0  0  0  0  0  0  0  0  0
    2.9042    1.9317   -1.3480 C   0  0  0  0  0  0  0  0  0  0  0  0
    3.1058    1.4743   -2.3338 H   0  0  0  0  0  0  0  0  0  0  0  0
    2.8843    1.1343   -0.5881 H   0  0  0  0  0  0  0  0  0  0  0  0
    3.6901    2.6671   -1.0905 H   0  0  0  0  0  0  0  0  0  0  0  0
  1  2  1  0  0  0  0
  1 23  1  0  0  0  0
  2 23  1  0  0  0  0
  3  2  1  0  0  0  0
  3 10  1  0  0  0  0
  4  3  2  0  0  0  0
  5  4  1  0  0  0  0
  5  7  2  0  0  0  0
  6  5  1  0  0  0  0
  7  8  1  0  0  0  0
  8 10  2  0  0  0  0
  8  9  1  0  0  0  0
 10 19  1  0  0  0  0
 11 13  1  0  0  0  0
 11  4  1  0  0  0  0
 12 11  1  0  0  0  0
 14 11  1  0  0  0  0
 15 17  1  0  0  0  0
 15  7  1  0  0  0  0
 15 16  1  0  0  0  0
 18 15  1  0  0  0  0
 19 21  1  0  0  0  0
 19 22  1  0  0  0  0
 19 20  1  0  0  0  0
 23 24  1  1  0  0  0
 24 33  1  0  0  0  0
 24 29  1  0  0  0  0
 25 24  1  0  0  0  0
 25 26  1  0  0  0  0
 27 25  1  0  0  0  0
 28 25  1  0  0  0  0
 29 32  1  0  0  0  0
 29 30  1  0  0  0  0
 31 29  1  0  0  0  0
 33 35  1  0  0  0  0
 33 34  1  0  0  0  0
 36 33  1  0  0  0  0
 37 43  1  6  0  0  0
 37 23  1  0  0  0  0
 38 37  1  0  0  0  0
 38 44  1  0  0  0  0
 39 38  1  0  0  0  0
 40 39  1  0  0  0  0
 41 39  2  0  0  0  0
 41 43  1  0  0  0  0
 42 41  1  0  0  0  0
 43 48  1  0  0  0  0
 44 46  1  0  0  0  0
 44 47  1  0  0  0  0
 45 44  1  0  0  0  0
 48 51  1  0  0  0  0
 48 50  1  0  0  0  0
 49 48  1  0  0  0  0
M  END
