1
q = -1.0, confidence = 0.0

  9  9  0  0  0  0  0  0  0  0999 V2000
   -1.1075    0.5100    0.0005 C   0  0  0  0  0  2  0  0  0  0  0  0
   -2.0461    1.4095    0.0009 N   0  0  0  0  0  0  0  0  0  0  0  0
   -2.1876    2.8432    0.0018 C   0  0  0  0  0  0  0  0  0  0  0  0
   -2.7558    3.1637   -0.8952 H   0  0  0  0  0  0  0  0  0  0  0  0
   -1.1923    3.3325    0.0013 H   0  0  0  0  0  0  0  0  0  0  0  0
   -2.7545    3.1628    0.8999 H   0  0  0  0  0  0  0  0  0  0  0  0
   -2.6096   -0.0084    0.0000 B   0  0  0  0  0  0  0  0  0  0  0  0
   -3.3701   -0.6401   -1.5517 Cl  0  0  0  0  0  0  0  0  0  0  0  0
   -3.3707   -0.6418    1.5507 Cl  0  0  0  0  0  0  0  0  0  0  0  0
  1  2  1  0  0  0  0
  2  3  1  0  0  0  0
  3  6  1  0  0  0  0
  4  3  1  0  0  0  0
  5  3  1  0  0  0  0
  7  1  1  0  0  0  0
  7  2  1  0  0  0  0
  7  9  1  0  0  0  0
  8  7  1  0  0  0  0
M  END
