1
q = -1.0

 28 29  0  0  0  0  0  0  0  0999 V2000
   -0.1532    1.0031   -0.2258 C   0  0  0  0  0  2  0  0  0  0  0  0
    0.3424    2.0189    0.4029 N   0  0  0  0  0  0  0  0  0  0  0  0
   -0.1383    3.1077    1.2175 C   0  0  0  0  0  0  0  0  0  0  0  0
    0.4711    3.2080    2.1380 H   0  0  0  0  0  0  0  0  0  0  0  0
   -1.2021    2.9518    1.4879 H   0  0  0  0  0  0  0  0  0  0  0  0
   -0.0457    4.0535    0.6443 H   0  0  0  0  0  0  0  0  0  0  0  0
    1.3350    1.4126   -0.6455 B   0  0  2  0  0  0  0  0  0  0  0  0
    1.4913    2.4561   -2.1784 Cl  0  0  0  0  0  0  0  0  0  0  0  0
    2.5871    0.5180   -0.2440 C   0  0  0  0  0  0  0  0  0  0  0  0
    3.3722    0.7412    0.9168 C   0  0  0  0  0  0  0  0  0  0  0  0
    4.3880   -0.1691    1.2741 C   0  0  0  0  0  0  0  0  0  0  0  0
    4.9848    0.0241    2.1818 H   0  0  0  0  0  0  0  0  0  0  0  0
    4.6639   -1.3125    0.5072 C   0  0  0  0  0  0  0  0  0  0  0  0
    3.8999   -1.5163   -0.6576 C   0  0  0  0  0  0  0  0  0  0  0  0
    4.1059   -2.3977   -1.2888 H   0  0  0  0  0  0  0  0  0  0  0  0
    2.8857   -0.6231   -1.0471 C   0  0  0  0  0  0  0  0  0  0  0  0
    3.1311    1.9403    1.8050 C   0  0  0  0  0  0  0  0  0  0  0  0
    3.9997    2.1340    2.4646 H   0  0  0  0  0  0  0  0  0  0  0  0
    2.2499    1.7860    2.4654 H   0  0  0  0  0  0  0  0  0  0  0  0
    2.9359    2.8554    1.2116 H   0  0  0  0  0  0  0  0  0  0  0  0
    5.7629   -2.2726    0.8905 C   0  0  0  0  0  0  0  0  0  0  0  0
    5.4297   -3.3280    0.8108 H   0  0  0  0  0  0  0  0  0  0  0  0
    6.1135   -2.1010    1.9272 H   0  0  0  0  0  0  0  0  0  0  0  0
    6.6434   -2.1654    0.2208 H   0  0  0  0  0  0  0  0  0  0  0  0
    2.1334   -0.8725   -2.3322 C   0  0  0  0  0  0  0  0  0  0  0  0
    2.3777   -1.8627   -2.7642 H   0  0  0  0  0  0  0  0  0  0  0  0
    2.3707   -0.0902   -3.0819 H   0  0  0  0  0  0  0  0  0  0  0  0
    1.0372   -0.8115   -2.1827 H   0  0  0  0  0  0  0  0  0  0  0  0
  1  2  1  0  0  0  0
  2  3  1  0  0  0  0
  3  5  1  0  0  0  0
  3  4  1  0  0  0  0
  6  3  1  0  0  0  0
  7  8  1  6  0  0  0
  7  9  1  0  0  0  0
  7  1  1  0  0  0  0
  7  2  1  0  0  0  0
  9 10  1  0  0  0  0
 10 11  2  0  0  0  0
 10 17  1  0  0  0  0
 11 12  1  0  0  0  0
 13 21  1  0  0  0  0
 13 11  1  0  0  0  0
 14 13  2  0  0  0  0
 15 14  1  0  0  0  0
 16 14  1  0  0  0  0
 16  9  2  0  0  0  0
 17 18  1  0  0  0  0
 17 19  1  0  0  0  0
 20 17  1  0  0  0  0
 21 23  1  0  0  0  0
 22 21  1  0  0  0  0
 24 21  1  0  0  0  0
 25 28  1  0  0  0  0
 25 16  1  0  0  0  0
 26 25  1  0  0  0  0
 27 25  1  0  0  0  0
M  END
