1
q = -1.0, confidence = 0.002

 22 23  0  0  1  0  0  0  0  0999 V2000
   -0.2936    0.5384    0.0002 C   0  0  0  0  0  2  0  0  0  0  0  0
   -1.5857    0.4087   -0.0003 N   0  0  1  0  0  0  0  0  0  0  0  0
   -2.5912   -0.6371   -0.0010 C   0  0  0  0  0  0  0  0  0  0  0  0
   -2.0500   -1.6122   -0.0031 H   0  0  0  0  0  0  0  0  0  0  0  0
   -3.4512   -0.5427   -1.2726 C   0  0  0  0  0  0  0  0  0  0  0  0
   -2.7989   -0.6493   -2.1636 H   0  0  0  0  0  0  0  0  0  0  0  0
   -3.8882    0.4782   -1.3203 H   0  0  0  0  0  0  0  0  0  0  0  0
   -4.5614   -1.5999   -1.2670 C   0  0  0  0  0  0  0  0  0  0  0  0
   -5.1893   -1.4906   -2.1755 H   0  0  0  0  0  0  0  0  0  0  0  0
   -4.1028   -2.6128   -1.3261 H   0  0  0  0  0  0  0  0  0  0  0  0
   -5.4219   -1.5087    0.0003 C   0  0  0  0  0  0  0  0  0  0  0  0
   -6.1972   -2.3031   -0.0002 H   0  0  0  0  0  0  0  0  0  0  0  0
   -5.9662   -0.5378    0.0024 H   0  0  0  0  0  0  0  0  0  0  0  0
   -4.5590   -1.6040    1.2657 C   0  0  0  0  0  0  0  0  0  0  0  0
   -4.1002   -2.6172    1.3206 H   0  0  0  0  0  0  0  0  0  0  0  0
   -5.1851   -1.4977    2.1757 H   0  0  0  0  0  0  0  0  0  0  0  0
   -3.4487   -0.5469    1.2725 C   0  0  0  0  0  0  0  0  0  0  0  0
   -2.7947   -0.6565    2.1619 H   0  0  0  0  0  0  0  0  0  0  0  0
   -3.8856    0.4739    1.3245 H   0  0  0  0  0  0  0  0  0  0  0  0
   -1.1581    1.8719    0.0005 B   0  0  0  0  0  0  0  0  0  0  0  0
   -1.3719    2.8396    1.5525 Cl  0  0  0  0  0  0  0  0  0  0  0  0
   -1.3707    2.8411   -1.5506 Cl  0  0  0  0  0  0  0  0  0  0  0  0
  1 20  1  0  0  0  0
  2  3  1  1  0  0  0
  2  1  1  0  0  0  0
  2 20  1  0  0  0  0
  3 17  1  0  0  0  0
  4  3  1  0  0  0  0
  5  8  1  0  0  0  0
  5  3  1  0  0  0  0
  6  5  1  0  0  0  0
  7  5  1  0  0  0  0
  8 11  1  0  0  0  0
  9  8  1  0  0  0  0
 10  8  1  0  0  0  0
 11 13  1  0  0  0  0
 11 14  1  0  0  0  0
 12 11  1  0  0  0  0
 14 17  1  0  0  0  0
 14 15  1  0  0  0  0
 14 16  1  0  0  0  0
 17 19  1  0  0  0  0
 17 18  1  0  0  0  0
 20 21  1  0  0  0  0
 22 20  1  0  0  0  0
M  END
