1
q = -1.0, confidence = 0.0

 20 19  0  0  0  0  0  0  0  0999 V2000
    0.4809   -0.1727   -0.3583 C   0  0  0  0  0  2  0  0  0  0  0  0
    0.5740   -1.2701   -0.4345 H   0  0  0  0  0  0  0  0  0  0  0  0
    1.6709    0.3471   -0.2191 N   0  0  0  0  0  0  0  0  0  0  0  0
    1.8733    1.8689   -0.1604 C   0  0  0  0  0  0  0  0  0  0  0  0
    3.3304    2.3387    0.0141 C   0  0  0  0  0  0  0  0  0  0  0  0
    3.2963    3.4445    0.0822 H   0  0  0  0  0  0  0  0  0  0  0  0
    3.9695    2.0609   -0.8399 H   0  0  0  0  0  0  0  0  0  0  0  0
    3.7917    1.9482    0.9371 H   0  0  0  0  0  0  0  0  0  0  0  0
    1.0986    2.3891    1.0639 C   0  0  0  0  0  0  0  0  0  0  0  0
    1.0783    3.4963    1.0610 H   0  0  0  0  0  0  0  0  0  0  0  0
    1.6092    2.0468    1.9859 H   0  0  0  0  0  0  0  0  0  0  0  0
    0.0614    2.0183    1.0863 H   0  0  0  0  0  0  0  0  0  0  0  0
    1.3961    2.4269   -1.5140 C   0  0  0  0  0  0  0  0  0  0  0  0
    1.4169    3.5341   -1.4974 H   0  0  0  0  0  0  0  0  0  0  0  0
    0.3768    2.1036   -1.7817 H   0  0  0  0  0  0  0  0  0  0  0  0
    2.0808    2.0739   -2.3102 H   0  0  0  0  0  0  0  0  0  0  0  0
    2.9118   -0.6693   -0.0123 B   0  0  0  0  0  0  0  0  0  0  0  0
    3.5177   -0.4099    1.7334 Cl  0  0  0  0  0  0  0  0  0  0  0  0
    4.1813   -0.3947   -1.3238 Cl  0  0  0  0  0  0  0  0  0  0  0  0
    2.3862   -2.4804   -0.1422 Cl  0  0  0  0  0  0  0  0  0  0  0  0
  1  3  1  0  0  0  0
  2  1  1  0  0  0  0
  3  4  1  0  0  0  0
  3 17  1  0  0  0  0
  4  5  1  0  0  0  0
  4  9  1  0  0  0  0
  5  6  1  0  0  0  0
  5  8  1  0  0  0  0
  7  5  1  0  0  0  0
  9 12  1  0  0  0  0
  9 11  1  0  0  0  0
 10  9  1  0  0  0  0
 13 14  1  0  0  0  0
 13  4  1  0  0  0  0
 15 13  1  0  0  0  0
 16 13  1  0  0  0  0
 17 18  1  0  0  0  0
 19 17  1  0  0  0  0
 20 17  1  0  0  0  0
M  END
