3
q = 0.0, confidence = 1.0

 52 54  0  0  0  0  0  0  0  0999 V2000
   -0.7570    2.0820   -0.1536 N   0  0  0  0  0  0  0  0  0  0  0  0
   -2.1225    2.0957   -0.0474 N   0  0  0  0  0  0  0  0  0  0  0  0
   -0.2700    0.7957   -0.0268 C   0  0  0  0  0  2  0  0  0  0  0  0
   -1.4020   -0.0486    0.1391 C   0  0  0  0  0  0  0  0  0  0  0  0
   -2.5465    0.7732    0.1545 C   0  0  0  0  0  0  0  0  0  0  0  0
   -3.9370    0.5480    0.3306 C   0  0  0  0  0  0  0  0  0  0  0  0
   -4.2668   -0.4822    0.5214 H   0  0  0  0  0  0  0  0  0  0  0  0
   -4.8234    1.6097    0.2670 C   0  0  0  0  0  0  0  0  0  0  0  0
   -5.9009    1.4409    0.4053 H   0  0  0  0  0  0  0  0  0  0  0  0
   -4.3397    2.9281    0.0251 C   0  0  0  0  0  0  0  0  0  0  0  0
   -5.0253    3.7834   -0.0348 H   0  0  0  0  0  0  0  0  0  0  0  0
   -2.9860    3.1558   -0.1283 C   0  0  0  0  0  0  0  0  0  0  0  0
   -2.5512    4.1442   -0.3027 H   0  0  0  0  0  0  0  0  0  0  0  0
    0.0643    3.2880   -0.3629 C   0  0  0  0  0  0  0  0  0  0  0  0
    1.0813    2.8360   -0.3267 H   0  0  0  0  0  0  0  0  0  0  0  0
   -0.1400    3.8871   -1.7581 C   0  0  0  0  0  0  0  0  0  0  0  0
   -0.0156    3.1095   -2.5372 H   0  0  0  0  0  0  0  0  0  0  0  0
    0.6246    4.6698   -1.9308 H   0  0  0  0  0  0  0  0  0  0  0  0
   -1.1320    4.3621   -1.8988 H   0  0  0  0  0  0  0  0  0  0  0  0
   -0.0221    4.2789    0.8000 C   0  0  0  0  0  0  0  0  0  0  0  0
    0.1971    3.7449    1.7448 H   0  0  0  0  0  0  0  0  0  0  0  0
   -0.9966    4.8011    0.8804 H   0  0  0  0  0  0  0  0  0  0  0  0
    0.7558    5.0551    0.6599 H   0  0  0  0  0  0  0  0  0  0  0  0
   -1.3983   -1.5306    0.2593 C   0  0  0  0  0  0  0  0  0  0  0  0
   -0.9039   -2.1361    1.4508 C   0  0  0  0  0  0  0  0  0  0  0  0
   -0.8511   -3.5399    1.5220 C   0  0  0  0  0  0  0  0  0  0  0  0
   -0.4656   -4.0189    2.4339 H   0  0  0  0  0  0  0  0  0  0  0  0
   -1.2852   -4.3366    0.4545 C   0  0  0  0  0  0  0  0  0  0  0  0
   -1.2351   -5.4340    0.5291 H   0  0  0  0  0  0  0  0  0  0  0  0
   -1.7845   -3.7355   -0.7054 C   0  0  0  0  0  0  0  0  0  0  0  0
   -2.1227   -4.3675   -1.5413 H   0  0  0  0  0  0  0  0  0  0  0  0
   -1.8467   -2.3331   -0.8284 C   0  0  0  0  0  0  0  0  0  0  0  0
   -0.5139   -1.2840    2.6510 C   0  0  0  0  0  0  0  0  0  0  0  0
   -0.1587   -0.3056    2.2726 H   0  0  0  0  0  0  0  0  0  0  0  0
   -1.7508   -1.0135    3.5277 C   0  0  0  0  0  0  0  0  0  0  0  0
   -2.5604   -0.5276    2.9454 H   0  0  0  0  0  0  0  0  0  0  0  0
   -1.4902   -0.3427    4.3720 H   0  0  0  0  0  0  0  0  0  0  0  0
   -2.1583   -1.9572    3.9485 H   0  0  0  0  0  0  0  0  0  0  0  0
    0.6425   -1.8590    3.4755 C   0  0  0  0  0  0  0  0  0  0  0  0
    1.5086   -2.0993    2.8269 H   0  0  0  0  0  0  0  0  0  0  0  0
    0.3582   -2.7762    4.0333 H   0  0  0  0  0  0  0  0  0  0  0  0
    0.9830   -1.1062    4.2135 H   0  0  0  0  0  0  0  0  0  0  0  0
   -2.3718   -1.7301   -2.1306 C   0  0  0  0  0  0  0  0  0  0  0  0
   -2.2691   -0.6286   -2.0511 H   0  0  0  0  0  0  0  0  0  0  0  0
   -1.5486   -2.1742   -3.3527 C   0  0  0  0  0  0  0  0  0  0  0  0
   -0.4782   -1.9131   -3.2375 H   0  0  0  0  0  0  0  0  0  0  0  0
   -1.9246   -1.6832   -4.2739 H   0  0  0  0  0  0  0  0  0  0  0  0
   -1.6135   -3.2704   -3.5113 H   0  0  0  0  0  0  0  0  0  0  0  0
   -3.8632   -2.0484   -2.3378 C   0  0  0  0  0  0  0  0  0  0  0  0
   -4.4797   -1.7014   -1.4853 H   0  0  0  0  0  0  0  0  0  0  0  0
   -4.0284   -3.1406   -2.4450 H   0  0  0  0  0  0  0  0  0  0  0  0
   -4.2470   -1.5598   -3.2572 H   0  0  0  0  0  0  0  0  0  0  0  0
  1  2  1  0  0  0  0
  1  3  1  0  0  0  0
  2  5  1  0  0  0  0
  3  4  1  0  0  0  0
  4  5  2  0  0  0  0
  4 24  1  0  0  0  0
  5  6  1  0  0  0  0
  6  7  1  0  0  0  0
  8  6  2  0  0  0  0
  8  9  1  0  0  0  0
 10  8  1  0  0  0  0
 11 10  1  0  0  0  0
 12  2  1  0  0  0  0
 12 10  2  0  0  0  0
 13 12  1  0  0  0  0
 14 15  1  0  0  0  0
 14  1  1  0  0  0  0
 14 20  1  0  0  0  0
 16 14  1  0  0  0  0
 17 16  1  0  0  0  0
 18 16  1  0  0  0  0
 19 16  1  0  0  0  0
 20 22  1  0  0  0  0
 20 21  1  0  0  0  0
 23 20  1  0  0  0  0
 24 25  1  0  0  0  0
 25 26  2  0  0  0  0
 25 33  1  0  0  0  0
 26 27  1  0  0  0  0
 28 29  1  0  0  0  0
 28 26  1  0  0  0  0
 30 28  2  0  0  0  0
 31 30  1  0  0  0  0
 32 30  1  0  0  0  0
 32 24  2  0  0  0  0
 33 39  1  0  0  0  0
 33 35  1  0  0  0  0
 34 33  1  0  0  0  0
 35 38  1  0  0  0  0
 35 37  1  0  0  0  0
 36 35  1  0  0  0  0
 39 41  1  0  0  0  0
 39 42  1  0  0  0  0
 40 39  1  0  0  0  0
 43 44  1  0  0  0  0
 43 32  1  0  0  0  0
 45 46  1  0  0  0  0
 45 43  1  0  0  0  0
 47 45  1  0  0  0  0
 48 45  1  0  0  0  0
 49 43  1  0  0  0  0
 49 50  1  0  0  0  0
 51 49  1  0  0  0  0
 52 49  1  0  0  0  0
M  END
