10
q = 0.0, confidence = 1.0

 43 45  0  0  1  0  0  0  0  0999 V2000
    0.4758   -2.8718   -0.1277 S   0  0  0  0  0  0  0  0  0  0  0  0
   -1.6984   -2.2061   -1.8883 O   0  0  0  0  0  0  0  0  0  0  0  0
   -1.9627    1.8833   -0.6369 O   0  0  0  0  0  0  0  0  0  0  0  0
   -1.0877   -0.2885   -0.6919 N   0  0  0  0  0  0  0  0  0  0  0  0
   -3.2181   -1.0068   -0.5688 N   0  0  0  0  0  0  0  0  0  0  0  0
    1.1161   -1.4064   -0.9067 C   0  0  1  0  0  3  0  0  0  0  0  0
    0.2579   -0.2502   -1.0960 C   0  0  0  0  0  0  0  0  0  0  0  0
    0.7829    0.9339   -1.6833 C   0  0  0  0  0  0  0  0  0  0  0  0
    0.1029    1.7890   -1.7874 H   0  0  0  0  0  0  0  0  0  0  0  0
    2.1518    1.0103   -2.0725 C   0  0  0  0  0  3  0  0  0  0  0  0
    2.5543    1.9503   -2.4740 H   0  0  0  0  0  0  0  0  0  0  0  0
    2.9910   -0.1140   -1.9093 C   0  0  0  0  0  0  0  0  0  0  0  0
    4.0546   -0.0588   -2.1781 H   0  0  0  0  0  0  0  0  0  0  0  0
    2.4713   -1.3107   -1.3288 C   0  0  0  0  0  0  0  0  0  0  0  0
    3.1444   -2.1638   -1.1750 H   0  0  0  0  0  0  0  0  0  0  0  0
    1.9002   -3.3648    0.8974 C   0  0  0  0  0  0  0  0  0  0  0  0
    1.5130   -4.1487    1.5762 H   0  0  0  0  0  0  0  0  0  0  0  0
    2.2674   -2.5050    1.4915 H   0  0  0  0  0  0  0  0  0  0  0  0
    2.7264   -3.7988    0.3010 H   0  0  0  0  0  0  0  0  0  0  0  0
   -1.9851   -1.2782   -1.1484 C   0  0  0  0  0  0  0  0  0  0  0  0
   -4.0490   -2.1257   -0.1118 C   0  0  0  0  0  0  0  0  0  0  0  0
   -3.5740   -3.0679   -0.4520 H   0  0  0  0  0  0  0  0  0  0  0  0
   -5.0624   -2.0794   -0.5607 H   0  0  0  0  0  0  0  0  0  0  0  0
   -4.1010   -1.9685    1.4382 C   0  0  0  0  0  0  0  0  0  0  0  0
   -3.9043   -2.9248    1.9600 H   0  0  0  0  0  0  0  0  0  0  0  0
   -5.1080   -1.6264    1.7532 H   0  0  0  0  0  0  0  0  0  0  0  0
   -3.0453   -0.8925    1.7679 C   0  0  0  0  0  0  0  0  0  0  0  0
   -3.2690   -0.3265    2.6933 H   0  0  0  0  0  0  0  0  0  0  0  0
   -2.0372   -1.3449    1.8801 H   0  0  0  0  0  0  0  0  0  0  0  0
   -3.0497   -0.0209    0.5018 C   0  0  1  0  0  0  0  0  0  0  0  0
   -3.8873    0.7095    0.5083 H   0  0  0  0  0  0  0  0  0  0  0  0
   -1.7365    0.7054    0.1255 C   0  0  2  0  0  0  0  0  0  0  0  0
   -1.1189    0.9371    1.0193 H   0  0  0  0  0  0  0  0  0  0  0  0
   -2.2881    3.0507    0.1416 C   0  0  0  0  0  0  0  0  0  0  0  0
   -2.9981    2.7533    0.9524 H   0  0  0  0  0  0  0  0  0  0  0  0
   -3.0068    4.0046   -0.8035 C   0  0  0  0  0  0  0  0  0  0  0  0
   -3.9013    3.5201   -1.2407 H   0  0  0  0  0  0  0  0  0  0  0  0
   -2.3332    4.2975   -1.6345 H   0  0  0  0  0  0  0  0  0  0  0  0
   -3.3214    4.9239   -0.2715 H   0  0  0  0  0  0  0  0  0  0  0  0
   -1.0435    3.6696    0.7771 C   0  0  0  0  0  0  0  0  0  0  0  0
   -0.5131    2.9596    1.4411 H   0  0  0  0  0  0  0  0  0  0  0  0
   -1.3192    4.5518    1.3891 H   0  0  0  0  0  0  0  0  0  0  0  0
   -0.3272    4.0002   -0.0012 H   0  0  0  0  0  0  0  0  0  0  0  0
  1 16  1  0  0  0  0
  2 20  2  0  0  0  0
  3 32  1  0  0  0  0
  3 34  1  0  0  0  0
  4 32  1  0  0  0  0
  5 21  1  0  0  0  0
  5 30  1  0  0  0  0
  6  1  1  1  0  0  0
  7  6  1  0  0  0  0
  7  4  1  0  0  0  0
  8  7  2  0  0  0  0
  9  8  1  0  0  0  0
 10 12  1  0  0  0  0
 10  8  1  0  0  0  0
 11 10  1  0  0  0  0
 12 14  2  0  0  0  0
 13 12  1  0  0  0  0
 14 15  1  0  0  0  0
 14  6  1  0  0  0  0
 16 18  1  0  0  0  0
 16 17  1  0  0  0  0
 19 16  1  0  0  0  0
 20  4  1  0  0  0  0
 20  5  1  0  0  0  0
 21 24  1  0  0  0  0
 22 21  1  0  0  0  0
 23 21  1  0  0  0  0
 24 26  1  0  0  0  0
 24 27  1  0  0  0  0
 24 25  1  0  0  0  0
 27 29  1  0  0  0  0
 27 28  1  0  0  0  0
 30 31  1  1  0  0  0
 30 27  1  0  0  0  0
 32 30  1  0  0  0  0
 32 33  1  1  0  0  0
 34 40  1  0  0  0  0
 34 35  1  0  0  0  0
 36 39  1  0  0  0  0
 36 34  1  0  0  0  0
 37 36  1  0  0  0  0
 38 36  1  0  0  0  0
 40 42  1  0  0  0  0
 40 41  1  0  0  0  0
 43 40  1  0  0  0  0
M  END
