5
q = -1.0, confidence = 0.0

 33 33  0  0  0  0  0  0  0  0999 V2000
    1.1259    3.9130    0.5146 O   0  0  0  0  0  0  0  0  0  0  0  0
    0.2976    2.9304    2.3939 O   0  0  0  0  0  0  0  0  0  0  0  0
    3.6541   -2.6457   -0.8235 O   0  0  0  0  0  0  0  0  0  0  0  0
    5.4223   -1.0991   -0.8265 O   0  0  0  0  0  0  0  0  0  0  0  0
    1.0241    0.4470   -0.0118 C   0  0  0  0  0  3  0  0  0  0  0  0
    1.4539    1.5823    0.7045 C   0  0  0  0  0  0  0  0  0  0  0  0
    2.7812    1.6447    1.1789 C   0  0  0  0  0  0  0  0  0  0  0  0
    3.0932    2.5342    1.7471 H   0  0  0  0  0  0  0  0  0  0  0  0
    3.6839    0.6101    0.9192 C   0  0  0  0  0  0  0  0  0  0  0  0
    4.7253    0.6748    1.2712 H   0  0  0  0  0  0  0  0  0  0  0  0
    3.2698   -0.5152    0.1781 C   0  0  0  0  0  0  0  0  0  0  0  0
    1.9437   -0.5885   -0.2830 C   0  0  0  0  0  0  0  0  0  0  0  0
    1.6440   -1.4749   -0.8605 H   0  0  0  0  0  0  0  0  0  0  0  0
    0.5296    2.7501    0.9895 C   0  0  0  0  0  0  0  0  0  0  0  0
   -0.4579    2.5667    0.4906 H   0  0  0  0  0  0  0  0  0  0  0  0
    0.2207    4.9952    0.3846 C   0  0  0  0  0  0  0  0  0  0  0  0
   -0.5623    4.7694   -0.3768 H   0  0  0  0  0  0  0  0  0  0  0  0
    0.8047    5.8727    0.0468 H   0  0  0  0  0  0  0  0  0  0  0  0
   -0.2720    5.2374    1.3521 H   0  0  0  0  0  0  0  0  0  0  0  0
   -0.5307    1.9450    2.9543 C   0  0  0  0  0  0  0  0  0  0  0  0
   -1.4972    1.8393    2.4002 H   0  0  0  0  0  0  0  0  0  0  0  0
   -0.7492    2.2424    3.9992 H   0  0  0  0  0  0  0  0  0  0  0  0
   -0.0484    0.9372    2.9690 H   0  0  0  0  0  0  0  0  0  0  0  0
    4.2911   -1.5978   -0.1317 C   0  0  0  0  0  0  0  0  0  0  0  0
    4.7359   -1.9863    0.8182 H   0  0  0  0  0  0  0  0  0  0  0  0
    4.4692   -3.7894   -0.9853 C   0  0  0  0  0  0  0  0  0  0  0  0
    5.4106   -3.5536   -1.5282 H   0  0  0  0  0  0  0  0  0  0  0  0
    3.8873   -4.5307   -1.5659 H   0  0  0  0  0  0  0  0  0  0  0  0
    4.7450   -4.2387   -0.0004 H   0  0  0  0  0  0  0  0  0  0  0  0
    5.1162   -0.4315   -2.0464 C   0  0  0  0  0  0  0  0  0  0  0  0
    4.5093   -1.0708   -2.7244 H   0  0  0  0  0  0  0  0  0  0  0  0
    6.0835   -0.2026   -2.5329 H   0  0  0  0  0  0  0  0  0  0  0  0
    4.5620    0.5177   -1.8734 H   0  0  0  0  0  0  0  0  0  0  0  0
  1 14  1  0  0  0  0
  2 20  1  0  0  0  0
  3 24  1  0  0  0  0
  4 24  1  0  0  0  0
  5  6  1  0  0  0  0
  6 14  1  0  0  0  0
  6  7  2  0  0  0  0
  7  8  1  0  0  0  0
  9  7  1  0  0  0  0
  9 10  1  0  0  0  0
 11  9  2  0  0  0  0
 12  5  2  0  0  0  0
 12 11  1  0  0  0  0
 13 12  1  0  0  0  0
 14  2  1  0  0  0  0
 15 14  1  0  0  0  0
 16  1  1  0  0  0  0
 16 19  1  0  0  0  0
 17 16  1  0  0  0  0
 18 16  1  0  0  0  0
 20 23  1  0  0  0  0
 20 22  1  0  0  0  0
 21 20  1  0  0  0  0
 24 11  1  0  0  0  0
 24 25  1  0  0  0  0
 26  3  1  0  0  0  0
 26 29  1  0  0  0  0
 27 26  1  0  0  0  0
 28 26  1  0  0  0  0
 30 33  1  0  0  0  0
 30  4  1  0  0  0  0
 31 30  1  0  0  0  0
 32 30  1  0  0  0  0
M  END
