2
q = -1.0, confidence = 0.0

 12 12  0  0  0  0  0  0  0  0999 V2000
    1.3098   -2.3760    2.5549 N   0  0  0  0  0  0  0  0  0  0  0  0
    1.9867   -0.9489   -0.5931 C   0  0  0  0  0  3  0  0  0  0  0  0
    2.6346   -1.7494    0.3938 C   0  0  0  0  0  0  0  0  0  0  0  0
    3.9865   -2.1501    0.2632 C   0  0  0  0  0  0  0  0  0  0  0  0
    4.4454   -2.7674    1.0498 H   0  0  0  0  0  0  0  0  0  0  0  0
    4.7207   -1.7594   -0.8606 C   0  0  0  0  0  0  0  0  0  0  0  0
    5.7705   -2.0700   -0.9693 H   0  0  0  0  0  0  0  0  0  0  0  0
    4.1023   -0.9756   -1.8494 C   0  0  0  0  0  0  0  0  0  0  0  0
    4.6714   -0.6719   -2.7424 H   0  0  0  0  0  0  0  0  0  0  0  0
    2.7602   -0.5827   -1.7143 C   0  0  0  0  0  0  0  0  0  0  0  0
    2.2999    0.0164   -2.5154 H   0  0  0  0  0  0  0  0  0  0  0  0
    1.9018   -2.1200    1.5713 C   0  0  0  0  0  0  0  0  0  0  0  0
  2  3  1  0  0  0  0
  3 12  1  0  0  0  0
  4  3  2  0  0  0  0
  4  5  1  0  0  0  0
  6  4  1  0  0  0  0
  7  6  1  0  0  0  0
  8 10  1  0  0  0  0
  8  6  2  0  0  0  0
  9  8  1  0  0  0  0
 10  2  2  0  0  0  0
 11 10  1  0  0  0  0
 12  1  3  0  0  0  0
M  END
