5
q = -1.0

 50 53  0  0  1  0  0  0  0  0999 V2000
    1.1797   -0.2186   -0.4998 P   0  0  0  0  0  0  0  0  0  0  0  0
   -2.7461    1.3228    0.0612 C   0  0  0  0  0  0  0  0  0  0  0  0
   -1.7377    1.6385   -0.9086 C   0  0  0  0  0  0  0  0  0  0  0  0
   -1.2438    2.6095   -1.0314 H   0  0  0  0  0  0  0  0  0  0  0  0
   -1.4409    0.4636   -1.6960 C   0  0  2  0  0  3  0  0  0  0  0  0
   -2.3777   -0.5749   -1.3012 C   0  0  0  0  0  0  0  0  0  0  0  0
   -3.1726   -0.0528   -0.1938 C   0  0  0  0  0  0  0  0  0  0  0  0
   -2.6065   -1.8961   -1.7828 C   0  0  0  0  0  0  0  0  0  0  0  0
   -2.0386   -2.2885   -2.6390 H   0  0  0  0  0  0  0  0  0  0  0  0
   -3.5816   -2.6624   -1.1630 C   0  0  0  0  0  0  0  0  0  0  0  0
   -3.7857   -3.6796   -1.5287 H   0  0  0  0  0  0  0  0  0  0  0  0
   -4.3506   -2.1572   -0.0685 C   0  0  0  0  0  0  0  0  0  0  0  0
   -5.1188   -2.8019    0.3831 H   0  0  0  0  0  0  0  0  0  0  0  0
   -4.1654   -0.8702    0.4152 C   0  0  0  0  0  0  0  0  0  0  0  0
   -4.7760   -0.4829    1.2435 H   0  0  0  0  0  0  0  0  0  0  0  0
   -3.3770    2.2617    1.0473 C   0  0  0  0  0  0  0  0  0  0  0  0
   -3.7510    1.6771    1.9128 H   0  0  0  0  0  0  0  0  0  0  0  0
   -4.2881    2.6761    0.5581 H   0  0  0  0  0  0  0  0  0  0  0  0
   -2.4845    3.4067    1.5255 C   0  0  0  0  0  0  0  0  0  0  0  0
   -3.0344    4.0623    2.2272 H   0  0  0  0  0  0  0  0  0  0  0  0
   -2.1404    4.0434    0.6858 H   0  0  0  0  0  0  0  0  0  0  0  0
   -1.5887    3.0240    2.0562 H   0  0  0  0  0  0  0  0  0  0  0  0
   -0.3391    0.3495   -2.7258 C   0  0  0  0  0  0  0  0  0  0  0  0
    0.0981    1.3532   -2.8975 H   0  0  0  0  0  0  0  0  0  0  0  0
   -0.7569    0.0119   -3.6976 H   0  0  0  0  0  0  0  0  0  0  0  0
    0.7587   -0.6269   -2.2684 C   0  0  0  0  0  0  0  0  0  0  0  0
    1.6628   -0.6050   -2.9113 H   0  0  0  0  0  0  0  0  0  0  0  0
    0.3731   -1.6672   -2.2617 H   0  0  0  0  0  0  0  0  0  0  0  0
    2.1254    1.3456   -0.5506 C   0  0  0  0  0  0  0  0  0  0  0  0
    1.6476    2.5191    0.0645 C   0  0  0  0  0  0  0  0  0  0  0  0
    0.6907    2.5012    0.6065 H   0  0  0  0  0  0  0  0  0  0  0  0
    2.3972    3.7035   -0.0092 C   0  0  0  0  0  0  0  0  0  0  0  0
    2.0249    4.6164    0.4788 H   0  0  0  0  0  0  0  0  0  0  0  0
    3.6190    3.7207   -0.6987 C   0  0  0  0  0  0  0  0  0  0  0  0
    4.2051    4.6500   -0.7560 H   0  0  0  0  0  0  0  0  0  0  0  0
    4.1006    2.5500   -1.3097 C   0  0  0  0  0  0  0  0  0  0  0  0
    5.0627    2.5607   -1.8431 H   0  0  0  0  0  0  0  0  0  0  0  0
    3.3619    1.3621   -1.2340 C   0  0  0  0  0  0  0  0  0  0  0  0
    3.7566    0.4433   -1.6957 H   0  0  0  0  0  0  0  0  0  0  0  0
    2.3499   -1.4672    0.1098 C   0  0  0  0  0  0  0  0  0  0  0  0
    3.1230   -1.1501    1.2493 C   0  0  0  0  0  0  0  0  0  0  0  0
    3.0558   -0.1490    1.7032 H   0  0  0  0  0  0  0  0  0  0  0  0
    3.9854   -2.1083    1.7966 C   0  0  0  0  0  0  0  0  0  0  0  0
    4.5880   -1.8570    2.6819 H   0  0  0  0  0  0  0  0  0  0  0  0
    4.0838   -3.3832    1.2139 C   0  0  0  0  0  0  0  0  0  0  0  0
    4.7643   -4.1330    1.6441 H   0  0  0  0  0  0  0  0  0  0  0  0
    3.3163   -3.7011    0.0827 C   0  0  0  0  0  0  0  0  0  0  0  0
    3.3954   -4.6974   -0.3767 H   0  0  0  0  0  0  0  0  0  0  0  0
    2.4441   -2.7504   -0.4682 C   0  0  0  0  0  0  0  0  0  0  0  0
    1.8475   -3.0178   -1.3524 H   0  0  0  0  0  0  0  0  0  0  0  0
  1 40  1  0  0  0  0
  2 16  1  0  0  0  0
  3  2  2  0  0  0  0
  4  3  1  0  0  0  0
  5 23  1  1  0  0  0
  5  6  1  0  0  0  0
  5  3  1  0  0  0  0
  6  7  1  0  0  0  0
  7  2  1  0  0  0  0
  7 14  2  0  0  0  0
  8  6  2  0  0  0  0
  8 10  1  0  0  0  0
  9  8  1  0  0  0  0
 10 12  2  0  0  0  0
 11 10  1  0  0  0  0
 12 13  1  0  0  0  0
 12 14  1  0  0  0  0
 14 15  1  0  0  0  0
 16 19  1  0  0  0  0
 16 17  1  0  0  0  0
 18 16  1  0  0  0  0
 19 22  1  0  0  0  0
 19 20  1  0  0  0  0
 21 19  1  0  0  0  0
 23 26  1  0  0  0  0
 24 23  1  0  0  0  0
 25 23  1  0  0  0  0
 26 28  1  0  0  0  0
 26  1  1  0  0  0  0
 27 26  1  0  0  0  0
 29  1  1  0  0  0  0
 29 30  1  0  0  0  0
 30 31  1  0  0  0  0
 32 30  2  0  0  0  0
 32 33  1  0  0  0  0
 34 32  1  0  0  0  0
 35 34  1  0  0  0  0
 36 38  1  0  0  0  0
 36 34  2  0  0  0  0
 37 36  1  0  0  0  0
 38 29  2  0  0  0  0
 39 38  1  0  0  0  0
 40 41  1  0  0  0  0
 41 42  1  0  0  0  0
 41 43  2  0  0  0  0
 43 44  1  0  0  0  0
 45 46  1  0  0  0  0
 45 43  1  0  0  0  0
 47 45  2  0  0  0  0
 48 47  1  0  0  0  0
 49 47  1  0  0  0  0
 49 40  2  0  0  0  0
 50 49  1  0  0  0  0
M  END
