1
q = -1.0

 40 40  0  0  0  0  0  0  0  0999 V2000
   -2.2010   -0.4269   -0.1022 C   0  0  0  0  0  3  0  0  0  0  0  0
   -2.5256    0.9498    0.3892 C   0  0  0  0  0  0  0  0  0  0  0  0
   -1.5027    1.6348    0.9699 N   0  0  0  0  0  0  0  0  0  0  0  0
   -1.6684    2.8948    1.4239 C   0  0  0  0  0  0  0  0  0  0  0  0
   -0.4613    3.5559    2.0342 C   0  0  0  0  0  0  0  0  0  0  0  0
   -2.9086    3.5516    1.3166 C   0  0  0  0  0  0  0  0  0  0  0  0
   -3.9861    2.8628    0.7383 C   0  0  0  0  0  0  0  0  0  0  0  0
   -3.8031    1.5563    0.2761 C   0  0  0  0  0  0  0  0  0  0  0  0
   -2.7047   -0.7734   -1.8965 Si  0  0  0  0  0  0  0  0  0  0  0  0
   -1.6300   -2.1396   -2.6616 C   0  0  0  0  0  0  0  0  0  0  0  0
   -2.4144    0.7998   -2.9188 C   0  0  0  0  0  0  0  0  0  0  0  0
   -4.5159   -1.3163   -2.1235 C   0  0  0  0  0  0  0  0  0  0  0  0
   -2.7076   -1.7094    1.2045 Si  0  0  0  0  0  0  0  0  0  0  0  0
   -2.2715   -3.4730    0.6585 C   0  0  0  0  0  0  0  0  0  0  0  0
   -1.8182   -1.3513    2.8455 C   0  0  0  0  0  0  0  0  0  0  0  0
   -4.5707   -1.6373    1.5770 C   0  0  0  0  0  0  0  0  0  0  0  0
   -0.6502    4.6196    2.2713 H   0  0  0  0  0  0  0  0  0  0  0  0
   -0.1640    3.0333    2.9663 H   0  0  0  0  0  0  0  0  0  0  0  0
    0.4046    3.4840    1.3453 H   0  0  0  0  0  0  0  0  0  0  0  0
   -3.0222    4.5831    1.6805 H   0  0  0  0  0  0  0  0  0  0  0  0
   -4.9698    3.3495    0.6464 H   0  0  0  0  0  0  0  0  0  0  0  0
   -4.6333    0.9968   -0.1763 H   0  0  0  0  0  0  0  0  0  0  0  0
   -0.5667   -1.8307   -2.7281 H   0  0  0  0  0  0  0  0  0  0  0  0
   -1.6734   -3.0853   -2.0873 H   0  0  0  0  0  0  0  0  0  0  0  0
   -1.9775   -2.3538   -3.6939 H   0  0  0  0  0  0  0  0  0  0  0  0
   -3.0070    1.6571   -2.5404 H   0  0  0  0  0  0  0  0  0  0  0  0
   -1.3434    1.0869   -2.8763 H   0  0  0  0  0  0  0  0  0  0  0  0
   -2.6845    0.6357   -3.9823 H   0  0  0  0  0  0  0  0  0  0  0  0
   -4.7096   -2.2889   -1.6263 H   0  0  0  0  0  0  0  0  0  0  0  0
   -5.2357   -0.5794   -1.7125 H   0  0  0  0  0  0  0  0  0  0  0  0
   -4.7441   -1.4407   -3.2028 H   0  0  0  0  0  0  0  0  0  0  0  0
   -2.8656   -3.7948   -0.2207 H   0  0  0  0  0  0  0  0  0  0  0  0
   -1.1967   -3.5711    0.4018 H   0  0  0  0  0  0  0  0  0  0  0  0
   -2.4876   -4.1809    1.4853 H   0  0  0  0  0  0  0  0  0  0  0  0
   -0.7263   -1.5369    2.7777 H   0  0  0  0  0  0  0  0  0  0  0  0
   -1.9593   -0.2941    3.1497 H   0  0  0  0  0  0  0  0  0  0  0  0
   -2.2172   -1.9971    3.6552 H   0  0  0  0  0  0  0  0  0  0  0  0
   -4.8593   -0.6370    1.9599 H   0  0  0  0  0  0  0  0  0  0  0  0
   -5.1840   -1.8480    0.6785 H   0  0  0  0  0  0  0  0  0  0  0  0
   -4.8354   -2.3838    2.3548 H   0  0  0  0  0  0  0  0  0  0  0  0
  1  2  1  0  0  0  0
  1 13  1  0  0  0  0
  2  3  1  0  0  0  0
  3  4  2  0  0  0  0
  4  5  1  0  0  0  0
  5 17  1  0  0  0  0
  5 18  1  0  0  0  0
  6  4  1  0  0  0  0
  6 20  1  0  0  0  0
  7  6  2  0  0  0  0
  8  2  2  0  0  0  0
  8  7  1  0  0  0  0
  9  1  1  0  0  0  0
 10 24  1  0  0  0  0
 10  9  1  0  0  0  0
 11 27  1  0  0  0  0
 11 26  1  0  0  0  0
 11  9  1  0  0  0  0
 12  9  1  0  0  0  0
 12 30  1  0  0  0  0
 12 29  1  0  0  0  0
 13 16  1  0  0  0  0
 13 15  1  0  0  0  0
 14 13  1  0  0  0  0
 14 34  1  0  0  0  0
 15 36  1  0  0  0  0
 15 37  1  0  0  0  0
 16 38  1  0  0  0  0
 16 40  1  0  0  0  0
 19  5  1  0  0  0  0
 21  7  1  0  0  0  0
 22  8  1  0  0  0  0
 23 10  1  0  0  0  0
 25 10  1  0  0  0  0
 28 11  1  0  0  0  0
 31 12  1  0  0  0  0
 32 14  1  0  0  0  0
 33 14  1  0  0  0  0
 35 15  1  0  0  0  0
 39 16  1  0  0  0  0
M  END
