1
q = -1.0

 28 28  0  0  0  0  0  0  0  0999 V2000
   -1.6503   -1.4020    0.1196 C   0  0  0  0  0  3  0  0  0  0  0  0
   -2.8299   -0.5970   -0.2840 C   0  0  0  0  0  0  0  0  0  0  0  0
   -2.6278    0.4411   -1.1385 N   0  0  0  0  0  0  0  0  0  0  0  0
   -3.6663    1.1883   -1.5625 C   0  0  0  0  0  0  0  0  0  0  0  0
   -3.3457    2.2876   -2.5440 C   0  0  0  0  0  0  0  0  0  0  0  0
   -4.9837    0.9627   -1.1168 C   0  0  0  0  0  0  0  0  0  0  0  0
   -5.2135   -0.0992   -0.2275 C   0  0  0  0  0  0  0  0  0  0  0  0
   -4.1407   -0.8927    0.1832 C   0  0  0  0  0  0  0  0  0  0  0  0
   -1.1301   -2.6321   -1.2340 Si  0  0  0  0  0  0  0  0  0  0  0  0
   -0.5042   -1.7711   -2.7904 C   0  0  0  0  0  0  0  0  0  0  0  0
   -2.6182   -3.7299   -1.6794 C   0  0  0  0  0  0  0  0  0  0  0  0
    0.2482   -3.7594   -0.5661 C   0  0  0  0  0  0  0  0  0  0  0  0
   -1.8953   -2.0180    1.0115 H   0  0  0  0  0  0  0  0  0  0  0  0
   -2.9012    1.8596   -3.4659 H   0  0  0  0  0  0  0  0  0  0  0  0
   -2.5866    2.9771   -2.1241 H   0  0  0  0  0  0  0  0  0  0  0  0
   -4.2445    2.8700   -2.8217 H   0  0  0  0  0  0  0  0  0  0  0  0
   -5.8068    1.6042   -1.4642 H   0  0  0  0  0  0  0  0  0  0  0  0
   -6.2321   -0.3103    0.1351 H   0  0  0  0  0  0  0  0  0  0  0  0
   -4.2965   -1.7471    0.8592 H   0  0  0  0  0  0  0  0  0  0  0  0
   -1.2562   -1.0532   -3.1733 H   0  0  0  0  0  0  0  0  0  0  0  0
    0.4237   -1.2097   -2.5594 H   0  0  0  0  0  0  0  0  0  0  0  0
   -0.2829   -2.5118   -3.5869 H   0  0  0  0  0  0  0  0  0  0  0  0
   -2.9891   -4.2861   -0.7930 H   0  0  0  0  0  0  0  0  0  0  0  0
   -3.4580   -3.1144   -2.0633 H   0  0  0  0  0  0  0  0  0  0  0  0
   -2.3549   -4.4723   -2.4615 H   0  0  0  0  0  0  0  0  0  0  0  0
    1.1309   -3.1617   -0.2579 H   0  0  0  0  0  0  0  0  0  0  0  0
   -0.0942   -4.3604    0.3013 H   0  0  0  0  0  0  0  0  0  0  0  0
    0.5785   -4.4697   -1.3524 H   0  0  0  0  0  0  0  0  0  0  0  0
  1 13  1  0  0  0  0
  2  1  1  0  0  0  0
  2  8  1  0  0  0  0
  3  2  2  0  0  0  0
  4  3  1  0  0  0  0
  4  6  2  0  0  0  0
  5 15  1  0  0  0  0
  5  4  1  0  0  0  0
  6  7  1  0  0  0  0
  7 18  1  0  0  0  0
  7  8  2  0  0  0  0
  8 19  1  0  0  0  0
  9 12  1  0  0  0  0
  9  1  1  0  0  0  0
 10 21  1  0  0  0  0
 10  9  1  0  0  0  0
 11  9  1  0  0  0  0
 11 23  1  0  0  0  0
 12 26  1  0  0  0  0
 12 27  1  0  0  0  0
 14  5  1  0  0  0  0
 16  5  1  0  0  0  0
 17  6  1  0  0  0  0
 20 10  1  0  0  0  0
 22 10  1  0  0  0  0
 24 11  1  0  0  0  0
 25 11  1  0  0  0  0
 28 12  1  0  0  0  0
M  END
