7
q = -1.0

 31 31  0  0  0  0  0  0  0  0999 V2000
    2.1798   -0.3955    0.4863 Si  0  0  0  0  0  0  0  0  0  0  0  0
    0.7339    0.6888   -0.0964 C   0  0  0  0  0  0  0  0  0  0  0  0
    0.0860    1.7060    0.6920 C   0  0  0  0  0  0  0  0  0  0  0  0
    0.2419    1.8694    1.7643 H   0  0  0  0  0  0  0  0  0  0  0  0
   -0.8261    2.4186   -0.1200 C   0  0  0  0  0  0  0  0  0  0  0  0
   -1.4908    3.2228    0.2096 H   0  0  0  0  0  0  0  0  0  0  0  0
   -0.8025    1.8373   -1.4200 C   0  0  0  0  0  3  0  0  0  0  0  0
   -1.4141    2.1511   -2.2745 H   0  0  0  0  0  0  0  0  0  0  0  0
    0.1795    0.7993   -1.4077 C   0  0  0  0  0  0  0  0  0  0  0  0
    0.4580    0.1820   -2.2691 H   0  0  0  0  0  0  0  0  0  0  0  0
    2.4300   -0.1078    2.3346 C   0  0  0  0  0  0  0  0  0  0  0  0
    2.7039    0.9439    2.5544 H   0  0  0  0  0  0  0  0  0  0  0  0
    3.2355   -0.7600    2.7284 H   0  0  0  0  0  0  0  0  0  0  0  0
    1.4928   -0.3450    2.8758 H   0  0  0  0  0  0  0  0  0  0  0  0
    1.8485   -2.2272    0.1507 C   0  0  0  0  0  0  0  0  0  0  0  0
    1.7110   -2.4456   -0.9274 H   0  0  0  0  0  0  0  0  0  0  0  0
    0.9349   -2.5343    0.6973 H   0  0  0  0  0  0  0  0  0  0  0  0
    2.6940   -2.8469    0.5128 H   0  0  0  0  0  0  0  0  0  0  0  0
    3.7481    0.1900   -0.4879 C   0  0  0  0  0  0  0  0  0  0  0  0
    3.9300    1.7062   -0.2915 C   0  0  0  0  0  0  0  0  0  0  0  0
    4.0596    1.9746    0.7773 H   0  0  0  0  0  0  0  0  0  0  0  0
    3.0614    2.2783   -0.6781 H   0  0  0  0  0  0  0  0  0  0  0  0
    4.8347    2.0641   -0.8321 H   0  0  0  0  0  0  0  0  0  0  0  0
    3.6037   -0.1170   -1.9889 C   0  0  0  0  0  0  0  0  0  0  0  0
    3.4539   -1.1993   -2.1835 H   0  0  0  0  0  0  0  0  0  0  0  0
    4.5222    0.1906   -2.5374 H   0  0  0  0  0  0  0  0  0  0  0  0
    2.7563    0.4349   -2.4444 H   0  0  0  0  0  0  0  0  0  0  0  0
    4.9755   -0.5570    0.0687 C   0  0  0  0  0  0  0  0  0  0  0  0
    5.1365   -0.3489    1.1463 H   0  0  0  0  0  0  0  0  0  0  0  0
    5.8977   -0.2417   -0.4691 H   0  0  0  0  0  0  0  0  0  0  0  0
    4.8856   -1.6566   -0.0534 H   0  0  0  0  0  0  0  0  0  0  0  0
  1 11  1  0  0  0  0
  2  1  1  0  0  0  0
  2  3  1  0  0  0  0
  3  4  1  0  0  0  0
  5  6  1  0  0  0  0
  5  3  2  0  0  0  0
  7  9  1  0  0  0  0
  7  5  1  0  0  0  0
  8  7  1  0  0  0  0
  9  2  2  0  0  0  0
 10  9  1  0  0  0  0
 11 12  1  0  0  0  0
 11 13  1  0  0  0  0
 11 14  1  0  0  0  0
 15  1  1  0  0  0  0
 15 18  1  0  0  0  0
 15 17  1  0  0  0  0
 16 15  1  0  0  0  0
 19 20  1  0  0  0  0
 19 28  1  0  0  0  0
 19  1  1  0  0  0  0
 20 21  1  0  0  0  0
 22 20  1  0  0  0  0
 23 20  1  0  0  0  0
 24 19  1  0  0  0  0
 25 24  1  0  0  0  0
 26 24  1  0  0  0  0
 27 24  1  0  0  0  0
 28 29  1  0  0  0  0
 30 28  1  0  0  0  0
 31 28  1  0  0  0  0
M  END
