7
q = -1.0

 18 19  0  0  0  0  0  0  0  0999 V2000
   -2.8664    0.3022   -0.3259 C   0  0  0  0  0  0  0  0  0  0  0  0
   -3.7277   -0.1884    0.6819 C   0  0  0  0  0  0  0  0  0  0  0  0
   -4.6214    0.6639    1.3461 C   0  0  0  0  0  0  0  0  0  0  0  0
   -4.6747    2.0285    1.0178 C   0  0  0  0  0  0  0  0  0  0  0  0
   -3.8258    2.5311    0.0178 C   0  0  0  0  0  0  0  0  0  0  0  0
   -2.9326    1.6778   -0.6454 C   0  0  0  0  0  0  0  0  0  0  0  0
   -1.8846   -0.5965   -1.0045 C   0  0  0  0  0  3  0  0  0  0  0  0
   -1.8962   -0.7090   -2.5174 C   0  0  0  0  0  0  0  0  0  0  0  0
   -2.3708   -1.8684   -1.6715 C   0  0  0  0  0  0  0  0  0  0  0  0
   -3.6904   -1.2588    0.9399 H   0  0  0  0  0  0  0  0  0  0  0  0
   -5.2856    0.2588    2.1254 H   0  0  0  0  0  0  0  0  0  0  0  0
   -5.3769    2.6975    1.5378 H   0  0  0  0  0  0  0  0  0  0  0  0
   -3.8624    3.5984   -0.2503 H   0  0  0  0  0  0  0  0  0  0  0  0
   -2.2697    2.0745   -1.4308 H   0  0  0  0  0  0  0  0  0  0  0  0
   -2.6623   -0.1255   -3.0556 H   0  0  0  0  0  0  0  0  0  0  0  0
   -0.9456   -0.8056   -3.0663 H   0  0  0  0  0  0  0  0  0  0  0  0
   -3.4560   -2.0651   -1.6429 H   0  0  0  0  0  0  0  0  0  0  0  0
   -1.7536   -2.7803   -1.6269 H   0  0  0  0  0  0  0  0  0  0  0  0
  1  2  1  0  0  0  0
  2 10  1  0  0  0  0
  2  3  2  0  0  0  0
  3 11  1  0  0  0  0
  4  3  1  0  0  0  0
  4 12  1  0  0  0  0
  5  4  2  0  0  0  0
  6  1  2  0  0  0  0
  6  5  1  0  0  0  0
  7  1  1  0  0  0  0
  8  9  1  0  0  0  0
  8  7  1  0  0  0  0
  9 17  1  0  0  0  0
  9 18  1  0  0  0  0
  9  7  1  0  0  0  0
 13  5  1  0  0  0  0
 14  6  1  0  0  0  0
 15  8  1  0  0  0  0
 16  8  1  0  0  0  0
M  END
