2
q = -1.0, confidence = 0.0

 11 11  0  0  0  0  0  0  0  0999 V2000
   -0.1936    1.4367   -2.4086 Cl  0  0  0  0  0  0  0  0  0  0  0  0
   -0.0002    2.0707    0.1789 C   0  0  0  0  0  3  0  0  0  0  0  0
    0.1100    2.9781    1.2553 C   0  0  0  0  0  0  0  0  0  0  0  0
    0.0708    4.3684    1.0378 C   0  0  0  0  0  0  0  0  0  0  0  0
   -0.0767    4.8948   -0.2567 C   0  0  0  0  0  0  0  0  0  0  0  0
   -0.1756    4.0284   -1.3613 C   0  0  0  0  0  0  0  0  0  0  0  0
   -0.1276    2.6625   -1.0889 C   0  0  0  0  0  0  0  0  0  0  0  0
    0.2346    2.5976    2.2817 H   0  0  0  0  0  0  0  0  0  0  0  0
    0.1583    5.0537    1.8945 H   0  0  0  0  0  0  0  0  0  0  0  0
   -0.1094    5.9824   -0.4160 H   0  0  0  0  0  0  0  0  0  0  0  0
   -0.2794    4.4067   -2.3883 H   0  0  0  0  0  0  0  0  0  0  0  0
  1  7  1  0  0  0  0
  2  3  1  0  0  0  0
  3  8  1  0  0  0  0
  4  3  2  0  0  0  0
  4  9  1  0  0  0  0
  5  4  1  0  0  0  0
  6  7  1  0  0  0  0
  6  5  2  0  0  0  0
  7  2  2  0  0  0  0
 10  5  1  0  0  0  0
 11  6  1  0  0  0  0
M  END
