6
q = -1.0

 41 44  0  0  0  0  0  0  0  0999 V2000
    0.4410   -0.2493    0.3549 N   0  0  0  0  0  0  0  0  0  0  0  0
   -4.5588    0.8257   -0.0808 N   0  0  0  0  0  0  0  0  0  0  0  0
   -3.9135    1.6247    1.9713 O   0  0  0  0  0  0  0  0  0  0  0  0
   -6.6269   -0.2640   -1.6634 O   0  0  0  0  0  0  0  0  0  0  0  0
   -3.6382    1.0517    0.9168 C   0  0  0  0  0  0  0  0  0  0  0  0
    2.5909    1.6014   -0.1098 C   0  0  0  0  0  3  0  0  0  0  0  0
    1.2597    2.0274    0.1561 C   0  0  0  0  0  0  0  0  0  0  0  0
    1.0101    3.4180    0.2397 C   0  0  0  0  0  0  0  0  0  0  0  0
   -0.0014    3.7852    0.4610 H   0  0  0  0  0  0  0  0  0  0  0  0
    2.0308    4.3591    0.0601 C   0  0  0  0  0  0  0  0  0  0  0  0
    1.8012    5.4324    0.1355 H   0  0  0  0  0  0  0  0  0  0  0  0
    3.3369    3.9300   -0.2104 C   0  0  0  0  0  0  0  0  0  0  0  0
    4.1466    4.6615   -0.3551 H   0  0  0  0  0  0  0  0  0  0  0  0
    3.6092    2.5539   -0.2917 C   0  0  0  0  0  0  0  0  0  0  0  0
    4.6390    2.2268   -0.5000 H   0  0  0  0  0  0  0  0  0  0  0  0
    0.1420    1.0498    0.3497 C   0  0  0  0  0  0  0  0  0  0  0  0
   -1.2124    1.4793    0.5135 C   0  0  0  0  0  0  0  0  0  0  0  0
   -1.4714    2.5453    0.5065 H   0  0  0  0  0  0  0  0  0  0  0  0
   -2.2298    0.5518    0.6768 C   0  0  0  0  0  0  0  0  0  0  0  0
   -1.9076   -0.8432    0.7195 C   0  0  0  0  0  0  0  0  0  0  0  0
   -2.8644   -1.8768    0.9267 C   0  0  0  0  0  0  0  0  0  0  0  0
   -3.9189   -1.6074    1.0864 H   0  0  0  0  0  0  0  0  0  0  0  0
   -2.4681   -3.2072    0.9382 C   0  0  0  0  0  0  0  0  0  0  0  0
   -3.2134   -3.9993    1.1049 H   0  0  0  0  0  0  0  0  0  0  0  0
   -1.1042   -3.5534    0.7401 C   0  0  0  0  0  0  0  0  0  0  0  0
   -0.8059   -4.6126    0.7466 H   0  0  0  0  0  0  0  0  0  0  0  0
   -0.1440   -2.5717    0.5451 C   0  0  0  0  0  0  0  0  0  0  0  0
    0.9167   -2.8264    0.3919 H   0  0  0  0  0  0  0  0  0  0  0  0
   -0.5213   -1.1952    0.5369 C   0  0  0  0  0  0  0  0  0  0  0  0
   -5.9369    1.2726    0.0998 C   0  0  0  0  0  0  0  0  0  0  0  0
   -6.1191    2.1801   -0.5205 H   0  0  0  0  0  0  0  0  0  0  0  0
   -6.0656    1.5459    1.1646 H   0  0  0  0  0  0  0  0  0  0  0  0
   -6.8904    0.1592   -0.3340 C   0  0  0  0  0  0  0  0  0  0  0  0
   -6.7975   -0.7024    0.3740 H   0  0  0  0  0  0  0  0  0  0  0  0
   -7.9393    0.5160   -0.3118 H   0  0  0  0  0  0  0  0  0  0  0  0
   -5.3041   -0.7560   -1.7901 C   0  0  0  0  0  0  0  0  0  0  0  0
   -5.1722   -1.0639   -2.8464 H   0  0  0  0  0  0  0  0  0  0  0  0
   -5.1559   -1.6558   -1.1421 H   0  0  0  0  0  0  0  0  0  0  0  0
   -4.2680    0.3080   -1.4138 C   0  0  0  0  0  0  0  0  0  0  0  0
   -3.2466   -0.1146   -1.4436 H   0  0  0  0  0  0  0  0  0  0  0  0
   -4.3174    1.1419   -2.1522 H   0  0  0  0  0  0  0  0  0  0  0  0
  1 29  1  0  0  0  0
  2 30  1  0  0  0  0
  2  5  1  0  0  0  0
  4 33  1  0  0  0  0
  5  3  2  0  0  0  0
  6  7  1  0  0  0  0
  7  8  2  0  0  0  0
  7 16  1  0  0  0  0
  8  9  1  0  0  0  0
 10 11  1  0  0  0  0
 10  8  1  0  0  0  0
 12 10  2  0  0  0  0
 13 12  1  0  0  0  0
 14 12  1  0  0  0  0
 14  6  2  0  0  0  0
 15 14  1  0  0  0  0
 16  1  2  0  0  0  0
 16 17  1  0  0  0  0
 17 19  2  0  0  0  0
 18 17  1  0  0  0  0
 19 20  1  0  0  0  0
 19  5  1  0  0  0  0
 20 21  1  0  0  0  0
 21 23  2  0  0  0  0
 21 22  1  0  0  0  0
 23 24  1  0  0  0  0
 25 26  1  0  0  0  0
 25 23  1  0  0  0  0
 27 25  2  0  0  0  0
 28 27  1  0  0  0  0
 29 27  1  0  0  0  0
 29 20  2  0  0  0  0
 30 32  1  0  0  0  0
 31 30  1  0  0  0  0
 33 35  1  0  0  0  0
 33 30  1  0  0  0  0
 33 34  1  0  0  0  0
 36  4  1  0  0  0  0
 36 39  1  0  0  0  0
 36 38  1  0  0  0  0
 37 36  1  0  0  0  0
 39  2  1  0  0  0  0
 40 39  1  0  0  0  0
 41 39  1  0  0  0  0
M  END
