6
q = -1.0, confidence = 0.0

 27 27  0  0  0  0  0  0  0  0999 V2000
   -0.4911    0.8860   -1.0419 S   0  0  0  0  0  0  0  0  0  0  0  0
   -0.5735    2.8634    1.1113 N   0  0  0  0  0  2  0  0  0  0  0  0
    1.0687    1.5916   -1.7910 C   0  0  0  0  0  0  0  0  0  0  0  0
    1.7527    0.5006   -2.6125 C   0  0  0  0  0  0  0  0  0  0  0  0
    0.6774    2.8064   -2.6335 C   0  0  0  0  0  0  0  0  0  0  0  0
   -0.4791    1.6564    0.8079 C   0  0  0  0  0  2  0  0  0  0  0  0
   -0.9780    3.9683    0.3659 C   0  0  0  0  0  0  0  0  0  0  0  0
   -2.1031    3.8988   -0.4895 C   0  0  0  0  0  0  0  0  0  0  0  0
   -2.4763    5.0169   -1.2436 C   0  0  0  0  0  0  0  0  0  0  0  0
   -1.7575    6.2289   -1.1774 C   0  0  0  0  0  0  0  0  0  0  0  0
   -0.6478    6.2864   -0.3074 C   0  0  0  0  0  0  0  0  0  0  0  0
   -0.2674    5.1836    0.4655 C   0  0  0  0  0  0  0  0  0  0  0  0
   -2.1878    7.4337   -1.9756 C   0  0  0  0  0  0  0  0  0  0  0  0
    1.7083    1.9134   -0.9455 H   0  0  0  0  0  0  0  0  0  0  0  0
   -2.6797    2.9655   -0.5465 H   0  0  0  0  0  0  0  0  0  0  0  0
   -3.3546    4.9457   -1.9051 H   0  0  0  0  0  0  0  0  0  0  0  0
   -0.0696    7.2214   -0.2329 H   0  0  0  0  0  0  0  0  0  0  0  0
    0.5986    5.2372    1.1413 H   0  0  0  0  0  0  0  0  0  0  0  0
    2.7058    0.8857   -3.0323 H   0  0  0  0  0  0  0  0  0  0  0  0
    1.1091    0.1883   -3.4603 H   0  0  0  0  0  0  0  0  0  0  0  0
    1.9726   -0.4027   -2.0155 H   0  0  0  0  0  0  0  0  0  0  0  0
    1.5812    3.2064   -3.1397 H   0  0  0  0  0  0  0  0  0  0  0  0
    0.2327    3.6139   -2.0225 H   0  0  0  0  0  0  0  0  0  0  0  0
   -0.0518    2.5264   -3.4212 H   0  0  0  0  0  0  0  0  0  0  0  0
   -1.3395    8.1187   -2.1723 H   0  0  0  0  0  0  0  0  0  0  0  0
   -2.9614    8.0197   -1.4331 H   0  0  0  0  0  0  0  0  0  0  0  0
   -2.6287    7.1419   -2.9497 H   0  0  0  0  0  0  0  0  0  0  0  0
  1  6  1  0  0  0  0
  3  1  1  0  0  0  0
  3 14  1  0  0  0  0
  4 21  1  0  0  0  0
  4  3  1  0  0  0  0
  5 23  1  0  0  0  0
  5  3  1  0  0  0  0
  6  2  1  0  0  0  0
  7 12  1  0  0  0  0
  7  2  1  0  0  0  0
  8  7  2  0  0  0  0
  9 10  2  0  0  0  0
  9  8  1  0  0  0  0
 10 11  1  0  0  0  0
 11 17  1  0  0  0  0
 11 12  2  0  0  0  0
 12 18  1  0  0  0  0
 13 26  1  0  0  0  0
 13 10  1  0  0  0  0
 15  8  1  0  0  0  0
 16  9  1  0  0  0  0
 19  4  1  0  0  0  0
 20  4  1  0  0  0  0
 22  5  1  0  0  0  0
 24  5  1  0  0  0  0
 25 13  1  0  0  0  0
 27 13  1  0  0  0  0
M  END
