2
q = -1.0

 11 10  0  0  0  0  0  0  0  0999 V2000
   -6.4968   -0.0541   -0.8733 N   0  0  0  0  0  0  0  0  0  0  0  0
   -1.8547    1.1050    0.3712 C   0  0  0  0  0  3  0  0  0  0  0  0
   -3.0656    0.3869   -0.1987 C   0  0  0  0  0  0  0  0  0  0  0  0
   -4.3613    1.2069    0.0131 C   0  0  0  0  0  0  0  0  0  0  0  0
   -5.5583    0.5248   -0.4762 C   0  0  0  0  0  0  0  0  0  0  0  0
   -1.7523    2.1097   -0.0909 H   0  0  0  0  0  0  0  0  0  0  0  0
   -1.9706    1.2471    1.4668 H   0  0  0  0  0  0  0  0  0  0  0  0
   -3.2034   -0.6028    0.2840 H   0  0  0  0  0  0  0  0  0  0  0  0
   -2.9405    0.1938   -1.2840 H   0  0  0  0  0  0  0  0  0  0  0  0
   -4.2810    2.1909   -0.4978 H   0  0  0  0  0  0  0  0  0  0  0  0
   -4.5009    1.4296    1.0934 H   0  0  0  0  0  0  0  0  0  0  0  0
  1  5  3  0  0  0  0
  2  7  1  0  0  0  0
  3  4  1  0  0  0  0
  3  8  1  0  0  0  0
  3  2  1  0  0  0  0
  4 11  1  0  0  0  0
  5  4  1  0  0  0  0
  6  2  1  0  0  0  0
  9  3  1  0  0  0  0
 10  4  1  0  0  0  0
M  END
