12
q = -2.0, confidence = 0.854

 40 46  0  0  1  0  0  0  0  0999 V2000
    2.3887    0.5279   -0.0002 C   0  0  1  0  0  0  0  0  0  0  0  0
    0.6800    0.7151   -0.0008 C   0  0  2  0  0  0  0  0  0  0  0  0
    2.9070   -0.9494    0.0008 C   0  0  0  0  0  0  0  0  0  0  0  0
    3.7735   -1.2428   -1.2410 C   0  0  0  0  0  0  0  0  0  0  0  0
    4.0202   -2.3222   -1.2689 H   0  0  0  0  0  0  0  0  0  0  0  0
    4.7186   -0.6711   -1.1987 H   0  0  0  0  0  0  0  0  0  0  0  0
    3.2604   -0.9762   -2.1823 H   0  0  0  0  0  0  0  0  0  0  0  0
    3.7719   -1.2418    1.2440 C   0  0  0  0  0  0  0  0  0  0  0  0
    4.0187   -2.3212    1.2729 H   0  0  0  0  0  0  0  0  0  0  0  0
    3.2575   -0.9747    2.1844 H   0  0  0  0  0  0  0  0  0  0  0  0
    4.7169   -0.6699    1.2026 H   0  0  0  0  0  0  0  0  0  0  0  0
    1.6917   -1.8880    0.0003 C   0  0  1  0  0  3  0  0  0  0  0  0
    1.0180   -2.3953    1.1739 C   0  0  0  0  0  3  0  0  0  0  0  0
    1.3319   -2.2491    2.2127 H   0  0  0  0  0  0  0  0  0  0  0  0
   -0.0982   -3.1943    0.7164 C   0  0  0  0  0  0  0  0  0  0  0  0
   -0.8198   -3.7149    1.3590 H   0  0  0  0  0  0  0  0  0  0  0  0
   -0.0979   -3.1937   -0.7177 C   0  0  0  0  0  0  0  0  0  0  0  0
   -0.8193   -3.7136   -1.3611 H   0  0  0  0  0  0  0  0  0  0  0  0
    1.0185   -2.3943   -1.1741 C   0  0  0  0  0  3  0  0  0  0  0  0
    1.3329   -2.2474   -2.2126 H   0  0  0  0  0  0  0  0  0  0  0  0
    1.5903    1.0755    1.4145 B   0  0  2  0  0  0  0  0  0  0  0  0
    1.5005    0.3479    2.3705 H   0  0  0  0  0  0  0  0  0  0  0  0
    3.1377    1.7865    0.8856 B   0  0  1  0  0  0  0  0  0  0  0  0
    4.1377    1.5294    1.5073 H   0  0  0  0  0  0  0  0  0  0  0  0
    3.1382    1.7856   -0.8868 B   0  0  2  0  0  0  0  0  0  0  0  0
    4.1386    1.5279   -1.5076 H   0  0  0  0  0  0  0  0  0  0  0  0
    1.5911    1.0740   -1.4158 B   0  0  2  0  0  0  0  0  0  0  0  0
    1.5019    0.3455   -2.3712 H   0  0  0  0  0  0  0  0  0  0  0  0
    0.2857    2.1349    0.8804 B   0  0  1  0  0  0  0  0  0  0  0  0
   -0.7398    2.1619    1.5141 H   0  0  0  0  0  0  0  0  0  0  0  0
    1.8214    2.8391    1.4427 B   0  0  0  0  0  0  0  0  0  0  0  0
    1.8950    3.4188    2.5023 H   0  0  0  0  0  0  0  0  0  0  0  0
    2.7762    3.2853   -0.0015 B   0  0  0  0  0  0  0  0  0  0  0  0
    3.5612    4.2062   -0.0017 H   0  0  0  0  0  0  0  0  0  0  0  0
    1.8222    2.8376   -1.4458 B   0  0  0  0  0  0  0  0  0  0  0  0
    1.8964    3.4162   -2.5059 H   0  0  0  0  0  0  0  0  0  0  0  0
    0.2862    2.1339   -0.8836 B   0  0  2  0  0  0  0  0  0  0  0  0
   -0.7389    2.1602   -1.5180 H   0  0  0  0  0  0  0  0  0  0  0  0
    1.0085    3.5036   -0.0021 B   0  0  0  0  0  0  0  0  0  0  0  0
    0.4752    4.5904   -0.0028 H   0  0  0  0  0  0  0  0  0  0  0  0
  1  3  1  1  0  0  0
  1 23  1  0  0  0  0
  1 21  1  0  0  0  0
  2 29  1  0  0  0  0
  2 21  1  0  0  0  0
  3  8  1  0  0  0  0
  4  6  1  0  0  0  0
  4  3  1  0  0  0  0
  5  4  1  0  0  0  0
  7  4  1  0  0  0  0
  8  9  1  0  0  0  0
  8 10  1  0  0  0  0
 11  8  1  0  0  0  0
 12  3  1  0  0  0  0
 12 13  1  0  0  0  0
 13 14  1  0  0  0  0
 15 13  1  0  0  0  0
 15 16  1  0  0  0  0
 17 15  2  0  0  0  0
 18 17  1  0  0  0  0
 19 17  1  0  0  0  0
 19 12  1  0  0  0  0
 20 19  1  0  0  0  0
 21 22  1  0  0  0  0
 23 31  1  0  0  0  0
 23 24  1  0  0  0  0
 25  1  1  0  0  0  0
 25 23  1  0  0  0  0
 26 25  1  0  0  0  0
 27 37  1  0  0  0  0
 27  2  1  0  0  0  0
 28 27  1  0  0  0  0
 29 21  1  0  0  0  0
 29 30  1  0  0  0  0
 31 32  1  0  0  0  0
 33 31  1  0  0  0  0
 34 33  1  0  0  0  0
 35 27  1  0  0  0  0
 35 25  1  0  0  0  0
 36 35  1  0  0  0  0
 37  2  1  0  0  0  0
 37 29  1  0  0  0  0
 38 37  1  0  0  0  0
 39 33  1  0  0  0  0
 39 31  1  0  0  0  0
 40 39  1  0  0  0  0
M  END
