2
q = -1.0

 33 35  0  0  0  0  0  0  0  0999 V2000
    1.1512    0.2103    0.1387 P   0  0  0  0  0  0  0  0  0  0  0  0
   -0.3444   -1.1061    1.6127 C   0  0  0  0  0  3  0  0  0  0  0  0
   -0.8984   -1.7535    2.7414 C   0  0  0  0  0  0  0  0  0  0  0  0
   -1.8320   -2.3345    2.6561 H   0  0  0  0  0  0  0  0  0  0  0  0
   -0.2507   -1.6793    3.9868 C   0  0  0  0  0  0  0  0  0  0  0  0
   -0.6908   -2.1923    4.8572 H   0  0  0  0  0  0  0  0  0  0  0  0
    0.9588   -0.9717    4.1477 C   0  0  0  0  0  0  0  0  0  0  0  0
    1.4473   -0.9377    5.1335 H   0  0  0  0  0  0  0  0  0  0  0  0
    1.5405   -0.3201    3.0489 C   0  0  0  0  0  0  0  0  0  0  0  0
    2.4903    0.2288    3.1488 H   0  0  0  0  0  0  0  0  0  0  0  0
    0.8686   -0.3949    1.8191 C   0  0  0  0  0  0  0  0  0  0  0  0
    2.8176   -0.2586   -0.4649 C   0  0  0  0  0  0  0  0  0  0  0  0
    2.9663   -1.4327   -1.2290 C   0  0  0  0  0  0  0  0  0  0  0  0
    2.0802   -2.0272   -1.4926 H   0  0  0  0  0  0  0  0  0  0  0  0
    4.2448   -1.8433   -1.6373 C   0  0  0  0  0  0  0  0  0  0  0  0
    4.3548   -2.7613   -2.2341 H   0  0  0  0  0  0  0  0  0  0  0  0
    5.3752   -1.0887   -1.2877 C   0  0  0  0  0  0  0  0  0  0  0  0
    6.3762   -1.4127   -1.6113 H   0  0  0  0  0  0  0  0  0  0  0  0
    5.2294    0.0820   -0.5245 C   0  0  0  0  0  0  0  0  0  0  0  0
    6.1143    0.6754   -0.2479 H   0  0  0  0  0  0  0  0  0  0  0  0
    3.9557    0.4991   -0.1136 C   0  0  0  0  0  0  0  0  0  0  0  0
    3.8425    1.4215    0.4768 H   0  0  0  0  0  0  0  0  0  0  0  0
    1.1763    2.0437    0.1495 C   0  0  0  0  0  0  0  0  0  0  0  0
    0.6673    2.7596    1.2521 C   0  0  0  0  0  0  0  0  0  0  0  0
    0.3302    2.2115    2.1455 H   0  0  0  0  0  0  0  0  0  0  0  0
    0.6011    4.1614    1.2112 C   0  0  0  0  0  0  0  0  0  0  0  0
    0.2064    4.7134    2.0779 H   0  0  0  0  0  0  0  0  0  0  0  0
    1.0415    4.8571    0.0743 C   0  0  0  0  0  0  0  0  0  0  0  0
    0.9914    5.9561    0.0459 H   0  0  0  0  0  0  0  0  0  0  0  0
    1.5508    4.1469   -1.0261 C   0  0  0  0  0  0  0  0  0  0  0  0
    1.8982    4.6881   -1.9193 H   0  0  0  0  0  0  0  0  0  0  0  0
    1.6150    2.7472   -0.9932 C   0  0  0  0  0  0  0  0  0  0  0  0
    2.0116    2.1936   -1.8584 H   0  0  0  0  0  0  0  0  0  0  0  0
  1 23  1  0  0  0  0
  1 11  1  0  0  0  0
  2 11  2  0  0  0  0
  2  3  1  0  0  0  0
  3  5  2  0  0  0  0
  4  3  1  0  0  0  0
  5  7  1  0  0  0  0
  5  6  1  0  0  0  0
  7  8  1  0  0  0  0
  9 10  1  0  0  0  0
  9  7  2  0  0  0  0
 11  9  1  0  0  0  0
 12 21  1  0  0  0  0
 12  1  1  0  0  0  0
 13 12  2  0  0  0  0
 14 13  1  0  0  0  0
 15 17  2  0  0  0  0
 15 13  1  0  0  0  0
 16 15  1  0  0  0  0
 17 19  1  0  0  0  0
 18 17  1  0  0  0  0
 19 20  1  0  0  0  0
 19 21  2  0  0  0  0
 21 22  1  0  0  0  0
 23 24  1  0  0  0  0
 24 25  1  0  0  0  0
 26 24  2  0  0  0  0
 26 27  1  0  0  0  0
 28 26  1  0  0  0  0
 29 28  1  0  0  0  0
 30 32  1  0  0  0  0
 30 28  2  0  0  0  0
 31 30  1  0  0  0  0
 32 23  2  0  0  0  0
 33 32  1  0  0  0  0
M  END
