4
q = -1.0

 31 31  0  0  0  0  0  0  0  0999 V2000
    5.5789    0.2554    1.1952 Si  0  0  0  0  0  0  0  0  0  0  0  0
    0.6882    1.2512    0.9421 N   0  0  0  0  0  2  0  0  0  0  0  0
   -0.0606   -0.3446    2.5615 C   0  0  0  0  0  0  0  0  0  0  0  0
   -0.1315    0.2926    1.1903 C   0  0  0  0  0  2  0  0  0  0  0  0
    0.7721    1.9908   -0.2282 C   0  0  0  0  0  0  0  0  0  0  0  0
   -0.3538    2.5822   -0.8427 C   0  0  0  0  0  0  0  0  0  0  0  0
   -0.2256    3.3722   -1.9903 C   0  0  0  0  0  0  0  0  0  0  0  0
    1.0403    3.5910   -2.5627 C   0  0  0  0  0  0  0  0  0  0  0  0
    2.1724    3.0213   -1.9698 C   0  0  0  0  0  0  0  0  0  0  0  0
    2.0649    2.2280   -0.8018 C   0  0  0  0  0  0  0  0  0  0  0  0
    3.2186    1.6454   -0.2038 C   0  0  0  0  0  0  0  0  0  0  0  0
    4.2093    1.1167    0.3145 C   0  0  0  0  0  0  0  0  0  0  0  0
    4.7998   -1.0336    2.3422 C   0  0  0  0  0  0  0  0  0  0  0  0
    6.5615    1.5182    2.2020 C   0  0  0  0  0  0  0  0  0  0  0  0
    6.7064   -0.5834   -0.0722 C   0  0  0  0  0  0  0  0  0  0  0  0
    0.1375   -1.4327    2.4675 H   0  0  0  0  0  0  0  0  0  0  0  0
    0.7358    0.1244    3.1745 H   0  0  0  0  0  0  0  0  0  0  0  0
   -1.0320   -0.2625    3.0899 H   0  0  0  0  0  0  0  0  0  0  0  0
   -1.3389    2.3992   -0.3979 H   0  0  0  0  0  0  0  0  0  0  0  0
   -1.1245    3.8155   -2.4464 H   0  0  0  0  0  0  0  0  0  0  0  0
    1.1442    4.2091   -3.4666 H   0  0  0  0  0  0  0  0  0  0  0  0
    3.1710    3.1820   -2.4015 H   0  0  0  0  0  0  0  0  0  0  0  0
    4.2468   -1.7988    1.7609 H   0  0  0  0  0  0  0  0  0  0  0  0
    5.5750   -1.5507    2.9447 H   0  0  0  0  0  0  0  0  0  0  0  0
    4.0819   -0.5506    3.0356 H   0  0  0  0  0  0  0  0  0  0  0  0
    5.9088    2.0273    2.9394 H   0  0  0  0  0  0  0  0  0  0  0  0
    7.3880    1.0230    2.7529 H   0  0  0  0  0  0  0  0  0  0  0  0
    7.0013    2.2936    1.5427 H   0  0  0  0  0  0  0  0  0  0  0  0
    7.1551    0.1640   -0.7574 H   0  0  0  0  0  0  0  0  0  0  0  0
    7.5314   -1.1249    0.4355 H   0  0  0  0  0  0  0  0  0  0  0  0
    6.1429   -1.3131   -0.6882 H   0  0  0  0  0  0  0  0  0  0  0  0
  1 14  1  0  0  0  0
  1 13  1  0  0  0  0
  2  4  1  0  0  0  0
  3 18  1  0  0  0  0
  3 17  1  0  0  0  0
  4  3  1  0  0  0  0
  5  2  1  0  0  0  0
  6 19  1  0  0  0  0
  6  5  2  0  0  0  0
  7  6  1  0  0  0  0
  8  7  2  0  0  0  0
  8  9  1  0  0  0  0
  9 10  2  0  0  0  0
 10  5  1  0  0  0  0
 10 11  1  0  0  0  0
 11 12  3  0  0  0  0
 12  1  1  0  0  0  0
 13 24  1  0  0  0  0
 13 25  1  0  0  0  0
 14 27  1  0  0  0  0
 14 26  1  0  0  0  0
 15 30  1  0  0  0  0
 15  1  1  0  0  0  0
 16  3  1  0  0  0  0
 20  7  1  0  0  0  0
 21  8  1  0  0  0  0
 22  9  1  0  0  0  0
 23 13  1  0  0  0  0
 28 14  1  0  0  0  0
 29 15  1  0  0  0  0
 31 15  1  0  0  0  0
M  END
