12
q = -1.0

 42 42  0  0  1  0  0  0  0  0999 V2000
    1.6535    0.7559    0.0477 P   0  0  0  0  0  0  0  0  0  0  0  0
    1.6254    2.5068   -0.5914 C   0  0  0  0  0  0  0  0  0  0  0  0
    1.3253    3.1355    0.2708 H   0  0  0  0  0  0  0  0  0  0  0  0
    2.6216    2.8614   -0.9291 H   0  0  0  0  0  0  0  0  0  0  0  0
    0.5566    2.5433   -1.6987 C   0  0  0  0  0  0  0  0  0  0  0  0
    0.2640    3.5922   -1.9237 H   0  0  0  0  0  0  0  0  0  0  0  0
    0.9671    2.1261   -2.6401 H   0  0  0  0  0  0  0  0  0  0  0  0
   -0.6509    1.7419   -1.2728 C   0  0  0  0  0  0  0  0  0  0  0  0
   -1.1779    0.5582   -1.8847 C   0  0  0  0  0  0  0  0  0  0  0  0
   -2.2470    0.0798   -1.0267 C   0  0  0  0  0  0  0  0  0  0  0  0
   -2.4147    1.0007    0.0650 C   0  0  0  0  0  0  0  0  0  0  0  0
   -1.4220    2.0399   -0.0745 C   0  0  2  0  0  3  0  0  0  0  0  0
   -0.7378   -0.1050   -3.1513 C   0  0  0  0  0  0  0  0  0  0  0  0
   -1.5464   -0.0951   -3.9129 H   0  0  0  0  0  0  0  0  0  0  0  0
   -0.4612   -1.1656   -2.9691 H   0  0  0  0  0  0  0  0  0  0  0  0
    0.1400    0.4022   -3.5969 H   0  0  0  0  0  0  0  0  0  0  0  0
   -3.1138   -1.1019   -1.3217 C   0  0  0  0  0  0  0  0  0  0  0  0
   -3.9344   -0.8105   -2.0134 H   0  0  0  0  0  0  0  0  0  0  0  0
   -3.5762   -1.5119   -0.4037 H   0  0  0  0  0  0  0  0  0  0  0  0
   -2.5371   -1.9200   -1.7936 H   0  0  0  0  0  0  0  0  0  0  0  0
   -3.5059    0.9799    1.0898 C   0  0  0  0  0  0  0  0  0  0  0  0
   -4.3586    1.6155    0.7657 H   0  0  0  0  0  0  0  0  0  0  0  0
   -3.1577    1.3637    2.0681 H   0  0  0  0  0  0  0  0  0  0  0  0
   -3.9019   -0.0412    1.2481 H   0  0  0  0  0  0  0  0  0  0  0  0
   -1.3161    3.2668    0.7793 C   0  0  0  0  0  0  0  0  0  0  0  0
   -2.3198    3.6032    1.1079 H   0  0  0  0  0  0  0  0  0  0  0  0
   -0.8486    4.1071    0.2292 H   0  0  0  0  0  0  0  0  0  0  0  0
   -0.7194    3.0646    1.6944 H   0  0  0  0  0  0  0  0  0  0  0  0
    2.7075    0.8363    1.5623 C   0  0  0  0  0  0  0  0  0  0  0  0
    3.6241    1.4116    1.3105 H   0  0  0  0  0  0  0  0  0  0  0  0
    2.1143    1.4365    2.2813 H   0  0  0  0  0  0  0  0  0  0  0  0
    3.0407   -0.5369    2.1460 C   0  0  0  0  0  0  0  0  0  0  0  0
    3.5839   -0.4314    3.1065 H   0  0  0  0  0  0  0  0  0  0  0  0
    3.6762   -1.1373    1.4639 H   0  0  0  0  0  0  0  0  0  0  0  0
    2.1212   -1.1261    2.3337 H   0  0  0  0  0  0  0  0  0  0  0  0
    2.6894   -0.1445   -1.2035 C   0  0  0  0  0  0  0  0  0  0  0  0
    2.6764   -1.2077   -0.8875 H   0  0  0  0  0  0  0  0  0  0  0  0
    2.1011   -0.1241   -2.1443 H   0  0  0  0  0  0  0  0  0  0  0  0
    4.1109    0.3750   -1.4103 C   0  0  0  0  0  0  0  0  0  0  0  0
    4.6229   -0.2090   -2.2021 H   0  0  0  0  0  0  0  0  0  0  0  0
    4.7230    0.2831   -0.4906 H   0  0  0  0  0  0  0  0  0  0  0  0
    4.1347    1.4390   -1.7236 H   0  0  0  0  0  0  0  0  0  0  0  0
  1 29  1  0  0  0  0
  2  1  1  0  0  0  0
  2  3  1  0  0  0  0
  4  2  1  0  0  0  0
  5  8  1  0  0  0  0
  5  2  1  0  0  0  0
  6  5  1  0  0  0  0
  7  5  1  0  0  0  0
  8 12  1  0  0  0  0
  9  8  2  0  0  0  0
  9 10  1  0  0  0  0
 10 11  2  0  0  0  0
 11 21  1  0  0  0  0
 12 11  1  0  0  0  0
 12 25  1  6  0  0  0
 13 15  1  0  0  0  0
 13  9  1  0  0  0  0
 14 13  1  0  0  0  0
 16 13  1  0  0  0  0
 17 10  1  0  0  0  0
 17 19  1  0  0  0  0
 18 17  1  0  0  0  0
 20 17  1  0  0  0  0
 21 24  1  0  0  0  0
 21 23  1  0  0  0  0
 22 21  1  0  0  0  0
 25 26  1  0  0  0  0
 25 28  1  0  0  0  0
 27 25  1  0  0  0  0
 29 32  1  0  0  0  0
 29 31  1  0  0  0  0
 30 29  1  0  0  0  0
 32 35  1  0  0  0  0
 32 33  1  0  0  0  0
 34 32  1  0  0  0  0
 36 37  1  0  0  0  0
 36  1  1  0  0  0  0
 38 36  1  0  0  0  0
 39 36  1  0  0  0  0
 39 41  1  0  0  0  0
 40 39  1  0  0  0  0
 42 39  1  0  0  0  0
M  END
