1
q = 0.0, confidence = 0.932

 20 20  0  0  1  0  0  0  0  0999 V2000
   -0.4101   -0.9006   -1.8532 C   0  0  0  0  0  3  0  0  0  0  0  0
   -1.1920   -1.2248   -2.5560 H   0  0  0  0  0  0  0  0  0  0  0  0
    0.0250    0.4507   -1.8167 C   0  0  0  0  0  3  0  0  0  0  0  0
   -0.3634    1.2286   -2.4904 H   0  0  0  0  0  0  0  0  0  0  0  0
    0.9658    0.8209   -0.7836 C   0  0  1  0  0  3  0  0  0  0  0  0
    1.9968   -0.1583   -0.3084 C   0  0  0  0  0  0  0  0  0  0  0  0
    1.6381   -1.6327   -0.5327 C   0  0  2  0  0  0  0  0  0  0  0  0
    2.2178   -1.9361   -1.4400 H   0  0  0  0  0  0  0  0  0  0  0  0
    0.1577   -1.7465   -0.8397 C   0  0  0  0  0  3  0  0  0  0  0  0
   -0.2859   -2.7473   -0.7106 H   0  0  0  0  0  0  0  0  0  0  0  0
    1.1935    2.1560   -0.6889 O   0  0  0  0  0  0  0  0  0  0  0  0
    1.6237    2.6859    0.5673 C   0  0  0  0  0  0  0  0  0  0  0  0
    1.5777    3.7860    0.4651 H   0  0  0  0  0  0  0  0  0  0  0  0
    2.6492    2.3575    0.8183 H   0  0  0  0  0  0  0  0  0  0  0  0
    0.9278    2.3647    1.3750 H   0  0  0  0  0  0  0  0  0  0  0  0
    3.0455    0.1915    0.2202 O   0  0  0  0  0  0  0  0  0  0  0  0
    2.1134   -2.5099    0.6271 C   0  0  0  0  0  0  0  0  0  0  0  0
    1.5352   -2.3049    1.5490 H   0  0  0  0  0  0  0  0  0  0  0  0
    3.1788   -2.3010    0.8399 H   0  0  0  0  0  0  0  0  0  0  0  0
    2.0018   -3.5836    0.3790 H   0  0  0  0  0  0  0  0  0  0  0  0
  1  3  1  0  0  0  0
  1  9  1  0  0  0  0
  2  1  1  0  0  0  0
  3  5  1  0  0  0  0
  4  3  1  0  0  0  0
  5 11  1  6  0  0  0
  5  6  1  0  0  0  0
  6 16  2  0  0  0  0
  7  8  1  6  0  0  0
  7  6  1  0  0  0  0
  7 17  1  0  0  0  0
  9 10  1  0  0  0  0
  9  7  1  0  0  0  0
 11 12  1  0  0  0  0
 12 14  1  0  0  0  0
 12 15  1  0  0  0  0
 13 12  1  0  0  0  0
 17 19  1  0  0  0  0
 17 18  1  0  0  0  0
 20 17  1  0  0  0  0
M  END
