4
q = -1.0

  5  4  0  0  0  0  0  0  0  0999 V2000
    3.0660   -0.4499    1.3861 Cl  0  0  0  0  0  0  0  0  0  0  0  0
    2.8556   -1.1202   -1.4612 Cl  0  0  0  0  0  0  0  0  0  0  0  0
    3.1097    2.3929   -0.7569 N   0  0  0  0  0  0  0  0  0  0  0  0
    2.2167   -0.0077   -0.1648 C   0  0  0  0  0  0  0  0  0  0  0  0
    2.7256    1.3126   -0.5031 C   0  0  0  0  0  0  0  0  0  0  0  0
  2  4  1  0  0  0  0
  3  5  3  0  0  0  0
  4  1  1  0  0  0  0
  5  4  1  0  0  0  0
M  END
