1
q = 0.0, confidence = 0.902

 16 16  0  0  0  0  0  0  0  0999 V2000
    0.4311   -2.0103   -0.7033 C   0  0  0  0  0  2  0  0  0  0  0  0
   -0.5576   -3.1074   -0.9461 C   0  0  0  0  0  0  0  0  0  0  0  0
   -0.2520   -3.8307   -1.7260 H   0  0  0  0  0  0  0  0  0  0  0  0
   -1.5484   -2.6763   -1.1913 H   0  0  0  0  0  0  0  0  0  0  0  0
   -0.7136   -3.6596    0.0100 H   0  0  0  0  0  0  0  0  0  0  0  0
    1.8204   -2.2938   -1.1136 C   0  0  0  0  0  0  0  0  0  0  0  0
    2.2820   -3.6399   -1.1761 C   0  0  0  0  0  0  0  0  0  0  0  0
    1.5937   -4.4613   -0.9339 H   0  0  0  0  0  0  0  0  0  0  0  0
    3.6112   -3.9426   -1.4858 C   0  0  0  0  0  0  0  0  0  0  0  0
    3.9429   -4.9919   -1.4990 H   0  0  0  0  0  0  0  0  0  0  0  0
    4.5188   -2.9112   -1.7820 C   0  0  0  0  0  0  0  0  0  0  0  0
    5.5629   -3.1488   -2.0368 H   0  0  0  0  0  0  0  0  0  0  0  0
    4.0821   -1.5773   -1.7532 C   0  0  0  0  0  0  0  0  0  0  0  0
    4.7804   -0.7614   -1.9925 H   0  0  0  0  0  0  0  0  0  0  0  0
    2.7606   -1.2713   -1.4127 C   0  0  0  0  0  0  0  0  0  0  0  0
    2.4348   -0.2269   -1.3981 H   0  0  0  0  0  0  0  0  0  0  0  0
  2  1  1  0  0  0  0
  2  5  1  0  0  0  0
  3  2  1  0  0  0  0
  4  2  1  0  0  0  0
  6  1  1  0  0  0  0
  7  6  1  0  0  0  0
  7  8  1  0  0  0  0
  9  7  2  0  0  0  0
 10  9  1  0  0  0  0
 11 13  2  0  0  0  0
 11  9  1  0  0  0  0
 12 11  1  0  0  0  0
 13 15  1  0  0  0  0
 14 13  1  0  0  0  0
 15 16  1  0  0  0  0
 15  6  2  0  0  0  0
M  END
