4
q = -1.0, confidence = 0.012

 17 16  0  0  0  0  0  0  0  0999 V2000
    1.2029    1.0871    1.7183 C   0  0  0  0  0  3  0  0  0  0  0  0
    2.0998    0.8256    2.2993 H   0  0  0  0  0  0  0  0  0  0  0  0
    0.3308    1.3384    2.3386 H   0  0  0  0  0  0  0  0  0  0  0  0
    1.3733    1.7253    0.4481 C   0  0  0  0  0  3  0  0  0  0  0  0
    0.6167    2.4103    0.0351 H   0  0  0  0  0  0  0  0  0  0  0  0
    2.4666    1.3048   -0.3477 C   0  0  0  0  0  3  0  0  0  0  0  0
    3.3465    0.9203    0.1940 H   0  0  0  0  0  0  0  0  0  0  0  0
    2.7622    1.8527   -1.7112 C   0  0  0  0  0  0  0  0  0  0  0  0
    1.8380    2.2540   -2.1704 H   0  0  0  0  0  0  0  0  0  0  0  0
    3.1088    1.0346   -2.3754 H   0  0  0  0  0  0  0  0  0  0  0  0
    3.8510    2.9476   -1.6463 C   0  0  0  0  0  0  0  0  0  0  0  0
    4.7814    2.5202   -1.2103 H   0  0  0  0  0  0  0  0  0  0  0  0
    4.1086    3.2242   -2.6902 H   0  0  0  0  0  0  0  0  0  0  0  0
    3.4350    4.1959   -0.8676 C   0  0  0  0  0  0  0  0  0  0  0  0
    4.2249    4.9717   -0.9028 H   0  0  0  0  0  0  0  0  0  0  0  0
    3.2387    3.9742    0.2020 H   0  0  0  0  0  0  0  0  0  0  0  0
    2.5104    4.6422   -1.2896 H   0  0  0  0  0  0  0  0  0  0  0  0
  1  2  1  0  0  0  0
  1  3  1  0  0  0  0
  4  1  1  0  0  0  0
  5  4  1  0  0  0  0
  6  7  1  0  0  0  0
  6  4  1  0  0  0  0
  8 11  1  0  0  0  0
  8  6  1  0  0  0  0
  9  8  1  0  0  0  0
 10  8  1  0  0  0  0
 11 12  1  0  0  0  0
 11 14  1  0  0  0  0
 13 11  1  0  0  0  0
 14 16  1  0  0  0  0
 15 14  1  0  0  0  0
 17 14  1  0  0  0  0
M  END
