7
q = 0.0, confidence = 0.996

 31 33  0  0  0  0  0  0  0  0999 V2000
    2.1450   -0.6566    1.7251 F   0  0  0  0  0  0  0  0  0  0  0  0
    4.4896    0.5771   -2.2131 F   0  0  0  0  0  0  0  0  0  0  0  0
    0.3547    2.8949    2.2399 F   0  0  0  0  0  0  0  0  0  0  0  0
   -1.6962    3.0784   -2.0050 F   0  0  0  0  0  0  0  0  0  0  0  0
    2.3604    1.0982   -0.4515 N   0  0  0  0  0  0  0  0  0  0  0  0
    0.5371    2.3564   -0.4486 N   0  0  0  0  0  0  0  0  0  0  0  0
    0.9857    1.0565   -0.2600 C   0  0  0  0  0  2  0  0  0  0  0  0
    2.8029    2.3940   -1.0004 C   0  0  0  0  0  0  0  0  0  0  0  0
    1.6427    3.3119   -0.6265 C   0  0  0  0  0  0  0  0  0  0  0  0
    3.2739    0.0531   -0.2380 C   0  0  0  0  0  0  0  0  0  0  0  0
    3.1918   -0.8063    0.8820 C   0  0  0  0  0  0  0  0  0  0  0  0
    4.1115   -1.8214    1.1347 C   0  0  0  0  0  0  0  0  0  0  0  0
    5.1933   -1.9966    0.2596 C   0  0  0  0  0  0  0  0  0  0  0  0
    5.3263   -1.1669   -0.8618 C   0  0  0  0  0  0  0  0  0  0  0  0
    4.3716   -0.1761   -1.0990 C   0  0  0  0  0  0  0  0  0  0  0  0
   -0.6620    2.8654    0.1163 C   0  0  0  0  0  0  0  0  0  0  0  0
   -0.7399    3.1229    1.5014 C   0  0  0  0  0  0  0  0  0  0  0  0
   -1.8914    3.6433    2.0977 C   0  0  0  0  0  0  0  0  0  0  0  0
   -2.9908    3.9501    1.2841 C   0  0  0  0  0  0  0  0  0  0  0  0
   -2.9373    3.7599   -0.1056 C   0  0  0  0  0  0  0  0  0  0  0  0
   -1.7685    3.2407   -0.6686 C   0  0  0  0  0  0  0  0  0  0  0  0
    2.9338    2.3198   -2.0985 H   0  0  0  0  0  0  0  0  0  0  0  0
    3.7674    2.7015   -0.5531 H   0  0  0  0  0  0  0  0  0  0  0  0
    1.8255    3.8564    0.3264 H   0  0  0  0  0  0  0  0  0  0  0  0
    1.4050    4.0486   -1.4182 H   0  0  0  0  0  0  0  0  0  0  0  0
    3.9624   -2.4574    2.0178 H   0  0  0  0  0  0  0  0  0  0  0  0
    5.9308   -2.7895    0.4479 H   0  0  0  0  0  0  0  0  0  0  0  0
    6.1472   -1.2844   -1.5824 H   0  0  0  0  0  0  0  0  0  0  0  0
   -1.9070    3.7952    3.1852 H   0  0  0  0  0  0  0  0  0  0  0  0
   -3.9071    4.3530    1.7398 H   0  0  0  0  0  0  0  0  0  0  0  0
   -3.7818    4.0095   -0.7622 H   0  0  0  0  0  0  0  0  0  0  0  0
  2 15  1  0  0  0  0
  4 21  1  0  0  0  0
  5  7  1  0  0  0  0
  5 10  1  0  0  0  0
  6  7  1  0  0  0  0
  6 16  1  0  0  0  0
  8  9  1  0  0  0  0
  8 23  1  0  0  0  0
  8  5  1  0  0  0  0
  9  6  1  0  0  0  0
  9 24  1  0  0  0  0
 10 11  1  0  0  0  0
 11 12  2  0  0  0  0
 11  1  1  0  0  0  0
 12 26  1  0  0  0  0
 13 27  1  0  0  0  0
 13 12  1  0  0  0  0
 14 13  2  0  0  0  0
 15 14  1  0  0  0  0
 15 10  2  0  0  0  0
 16 17  1  0  0  0  0
 17 18  2  0  0  0  0
 17  3  1  0  0  0  0
 18 29  1  0  0  0  0
 19 30  1  0  0  0  0
 19 18  1  0  0  0  0
 20 19  2  0  0  0  0
 21 20  1  0  0  0  0
 21 16  2  0  0  0  0
 22  8  1  0  0  0  0
 25  9  1  0  0  0  0
 28 14  1  0  0  0  0
 31 20  1  0  0  0  0
M  END
