9
q = 0.0, confidence = 0.972

 37 38  0  0  1  0  0  0  0  0999 V2000
   -3.8206    1.6696   -0.8895 O   0  0  0  0  0  0  0  0  0  0  0  0
   -3.1624    2.2872    1.1974 O   0  0  0  0  0  0  0  0  0  0  0  0
    3.0871    0.1405   -2.6321 O   0  0  0  0  0  0  0  0  0  0  0  0
    2.8330    2.5404    1.2782 O   0  0  0  0  0  0  0  0  0  0  0  0
    2.9973    1.6331   -0.8522 N   0  0  0  0  0  0  0  0  0  0  0  0
   -4.4657    2.8419    1.4045 C   0  0  0  0  0  0  0  0  0  0  0  0
   -2.9680    1.7093   -0.0158 C   0  0  0  0  0  0  0  0  0  0  0  0
   -1.6008    1.1403   -0.1152 C   0  0  0  0  0  3  0  0  0  0  0  0
   -1.1272    0.7269   -1.4081 C   0  0  0  0  0  3  0  0  0  0  0  0
    0.0661   -0.0462   -1.4492 C   0  0  0  0  0  3  0  0  0  0  0  0
    0.6829   -0.3788   -0.1958 C   0  0  0  0  0  3  0  0  0  0  0  0
    1.8482   -1.3538   -0.1120 C   0  0  1  0  0  0  0  0  0  0  0  0
    3.2303   -0.6434   -0.2926 C   0  0  2  0  0  0  0  0  0  0  0  0
    3.6226    0.2169    0.9249 C   0  0  2  0  0  0  0  0  0  0  0  0
    3.2085   -0.2796    2.3232 C   0  0  0  0  0  0  0  0  0  0  0  0
    2.4081   -1.5525    2.3169 C   0  0  0  0  0  0  0  0  0  0  0  0
    1.8178   -2.0653    1.2212 C   0  0  0  0  0  0  0  0  0  0  0  0
    3.1344    0.3653   -1.4347 C   0  0  0  0  0  0  0  0  0  0  0  0
    3.0979    1.6047    0.5453 C   0  0  0  0  0  0  0  0  0  0  0  0
    2.6297    2.8168   -1.6008 C   0  0  0  0  0  0  0  0  0  0  0  0
   -4.6721    3.6507    0.6745 H   0  0  0  0  0  0  0  0  0  0  0  0
   -5.2482    2.0650    1.2863 H   0  0  0  0  0  0  0  0  0  0  0  0
   -4.4695    3.2417    2.4339 H   0  0  0  0  0  0  0  0  0  0  0  0
   -0.9003    1.4919    0.6576 H   0  0  0  0  0  0  0  0  0  0  0  0
   -1.7320    0.9138   -2.3083 H   0  0  0  0  0  0  0  0  0  0  0  0
    0.4268   -0.4732   -2.3977 H   0  0  0  0  0  0  0  0  0  0  0  0
    0.6971    0.3886    0.5961 H   0  0  0  0  0  0  0  0  0  0  0  0
    1.7517   -2.0882   -0.9375 H   0  0  0  0  0  0  0  0  0  0  0  0
    3.9802   -1.4198   -0.5353 H   0  0  0  0  0  0  0  0  0  0  0  0
    4.7282    0.3351    0.9045 H   0  0  0  0  0  0  0  0  0  0  0  0
    2.6382    0.5330    2.8293 H   0  0  0  0  0  0  0  0  0  0  0  0
    4.1071   -0.4220    2.9585 H   0  0  0  0  0  0  0  0  0  0  0  0
    2.3042   -2.0756    3.2820 H   0  0  0  0  0  0  0  0  0  0  0  0
    1.2293   -2.9939    1.2873 H   0  0  0  0  0  0  0  0  0  0  0  0
    1.5565    3.0551   -1.4498 H   0  0  0  0  0  0  0  0  0  0  0  0
    2.8115    2.6075   -2.6711 H   0  0  0  0  0  0  0  0  0  0  0  0
    3.2308    3.6817   -1.2622 H   0  0  0  0  0  0  0  0  0  0  0  0
  1  7  2  0  0  0  0
  2  6  1  0  0  0  0
  3 18  2  0  0  0  0
  5 19  1  0  0  0  0
  6 23  1  0  0  0  0
  7  2  1  0  0  0  0
  8  7  1  0  0  0  0
  8 24  1  0  0  0  0
  9  8  1  0  0  0  0
 10  9  1  0  0  0  0
 10 11  1  0  0  0  0
 11 12  1  0  0  0  0
 11 27  1  0  0  0  0
 12 28  1  6  0  0  0
 12 17  1  0  0  0  0
 13 29  1  6  0  0  0
 13 12  1  0  0  0  0
 13 14  1  0  0  0  0
 14 30  1  1  0  0  0
 14 15  1  0  0  0  0
 15 31  1  0  0  0  0
 15 32  1  0  0  0  0
 16 15  1  0  0  0  0
 16 33  1  0  0  0  0
 17 34  1  0  0  0  0
 17 16  2  0  0  0  0
 18  5  1  0  0  0  0
 18 13  1  0  0  0  0
 19 14  1  0  0  0  0
 19  4  2  0  0  0  0
 20 35  1  0  0  0  0
 20 37  1  0  0  0  0
 20  5  1  0  0  0  0
 21  6  1  0  0  0  0
 22  6  1  0  0  0  0
 25  9  1  0  0  0  0
 26 10  1  0  0  0  0
 36 20  1  0  0  0  0
M  END
