4
q = -1.0, confidence = 0.0

 42 44  0  0  1  0  0  0  0  0999 V2000
    0.2777    0.9001    3.0768 O   0  0  0  0  0  0  0  0  0  0  0  0
    0.2541   -1.2212    3.9138 O   0  0  0  0  0  0  0  0  0  0  0  0
   -3.2845    2.3879    0.0463 O   0  0  0  0  0  0  0  0  0  0  0  0
   -1.2181    0.1931    0.7928 C   0  0  0  0  0  3  0  0  0  0  0  0
   -1.0134    1.2674    0.7912 H   0  0  0  0  0  0  0  0  0  0  0  0
   -0.7818   -0.7491    1.8034 C   0  0  2  0  0  3  0  0  0  0  0  0
   -1.4280   -2.0324    1.5130 C   0  0  0  0  0  0  0  0  0  0  0  0
   -2.1467   -1.8837    0.2669 C   0  0  0  0  0  0  0  0  0  0  0  0
   -1.9827   -0.4977   -0.2018 C   0  0  1  0  0  3  0  0  0  0  0  0
   -1.3682   -3.2853    2.1638 C   0  0  0  0  0  0  0  0  0  0  0  0
   -0.8049   -3.3784    3.1012 H   0  0  0  0  0  0  0  0  0  0  0  0
   -0.0398   -0.4249    3.0352 C   0  0  0  0  0  0  0  0  0  0  0  0
   -2.0226   -4.3618    1.5698 C   0  0  0  0  0  0  0  0  0  0  0  0
   -1.9919   -5.3475    2.0584 H   0  0  0  0  0  0  0  0  0  0  0  0
   -4.3774    1.6555   -0.3232 C   0  0  0  0  0  0  0  0  0  0  0  0
    0.9876    1.3476    4.2482 C   0  0  0  0  0  0  0  0  0  0  0  0
    1.7601    0.5969    4.5097 H   0  0  0  0  0  0  0  0  0  0  0  0
    0.2711    1.3880    5.0977 H   0  0  0  0  0  0  0  0  0  0  0  0
   -2.7813   -3.0031   -0.3234 C   0  0  0  0  0  0  0  0  0  0  0  0
   -3.3024   -2.9022   -1.2850 H   0  0  0  0  0  0  0  0  0  0  0  0
   -4.1020    0.4852   -1.0800 C   0  0  0  0  0  0  0  0  0  0  0  0
   -2.7169   -4.2266    0.3374 C   0  0  0  0  0  0  0  0  0  0  0  0
   -3.2043   -5.1086   -0.1039 H   0  0  0  0  0  0  0  0  0  0  0  0
   -2.6668    0.1151   -1.3908 C   0  0  0  0  0  0  0  0  0  0  0  0
   -2.6166   -0.5949   -2.2389 H   0  0  0  0  0  0  0  0  0  0  0  0
   -2.1016    1.0199   -1.6835 H   0  0  0  0  0  0  0  0  0  0  0  0
   -5.1820   -0.3044   -1.5008 C   0  0  0  0  0  0  0  0  0  0  0  0
   -4.9728   -1.2062   -2.0974 H   0  0  0  0  0  0  0  0  0  0  0  0
   -3.4768    3.5626    0.8089 C   0  0  0  0  0  0  0  0  0  0  0  0
   -3.9685    3.3473    1.7838 H   0  0  0  0  0  0  0  0  0  0  0  0
   -4.0850    4.3170    0.2610 H   0  0  0  0  0  0  0  0  0  0  0  0
   -2.4691    3.9786    0.9937 H   0  0  0  0  0  0  0  0  0  0  0  0
    1.5885    2.7048    3.9463 C   0  0  0  0  0  0  0  0  0  0  0  0
    2.0915    3.1052    4.8487 H   0  0  0  0  0  0  0  0  0  0  0  0
    0.8074    3.4286    3.6379 H   0  0  0  0  0  0  0  0  0  0  0  0
    2.3449    2.6296    3.1402 H   0  0  0  0  0  0  0  0  0  0  0  0
   -5.7031    2.0054   -0.0052 C   0  0  0  0  0  0  0  0  0  0  0  0
   -5.9192    2.9097    0.5789 H   0  0  0  0  0  0  0  0  0  0  0  0
   -6.7625    1.1896   -0.4377 C   0  0  0  0  0  0  0  0  0  0  0  0
   -7.7956    1.4700   -0.1819 H   0  0  0  0  0  0  0  0  0  0  0  0
   -6.5093    0.0350   -1.1881 C   0  0  0  0  0  0  0  0  0  0  0  0
   -7.3384   -0.6005   -1.5319 H   0  0  0  0  0  0  0  0  0  0  0  0
  1 16  1  0  0  0  0
  3 29  1  0  0  0  0
  4  6  1  0  0  0  0
  5  4  1  0  0  0  0
  6 12  1  1  0  0  0
  7  6  1  0  0  0  0
  7 10  1  0  0  0  0
  8  7  2  0  0  0  0
  9 24  1  1  0  0  0
  9  8  1  0  0  0  0
  9  4  1  0  0  0  0
 10 11  1  0  0  0  0
 12  1  1  0  0  0  0
 12  2  2  0  0  0  0
 13 14  1  0  0  0  0
 13 10  2  0  0  0  0
 15 37  1  0  0  0  0
 15  3  1  0  0  0  0
 16 17  1  0  0  0  0
 16 18  1  0  0  0  0
 19  8  1  0  0  0  0
 19 22  2  0  0  0  0
 20 19  1  0  0  0  0
 21 15  2  0  0  0  0
 22 13  1  0  0  0  0
 23 22  1  0  0  0  0
 24 21  1  0  0  0  0
 25 24  1  0  0  0  0
 26 24  1  0  0  0  0
 27 41  2  0  0  0  0
 27 21  1  0  0  0  0
 28 27  1  0  0  0  0
 29 32  1  0  0  0  0
 29 30  1  0  0  0  0
 31 29  1  0  0  0  0
 33 16  1  0  0  0  0
 33 34  1  0  0  0  0
 35 33  1  0  0  0  0
 36 33  1  0  0  0  0
 37 38  1  0  0  0  0
 39 40  1  0  0  0  0
 39 37  2  0  0  0  0
 41 39  1  0  0  0  0
 42 41  1  0  0  0  0
M  END
