9
q = -1.0, confidence = 0.0

 38 40  0  0  1  0  0  0  0  0999 V2000
   -0.0116   -1.2609    2.9848 O   0  0  0  0  0  0  0  0  0  0  0  0
   -0.1306   -3.4161    2.2483 O   0  0  0  0  0  0  0  0  0  0  0  0
   -2.1555   -0.0861   -0.4508 C   0  0  2  0  0  3  0  0  0  0  0  0
   -1.7488   -2.3937   -0.1193 C   0  0  0  0  0  0  0  0  0  0  0  0
   -2.7644    1.1925   -0.9512 C   0  0  0  0  0  0  0  0  0  0  0  0
   -2.9570    1.1042   -2.0378 H   0  0  0  0  0  0  0  0  0  0  0  0
   -2.0236    2.0045   -0.8270 H   0  0  0  0  0  0  0  0  0  0  0  0
   -2.4061   -1.4362   -0.9808 C   0  0  0  0  0  0  0  0  0  0  0  0
   -1.4108   -0.2447    0.7632 C   0  0  0  0  0  3  0  0  0  0  0  0
   -1.1558    0.5581    1.4630 H   0  0  0  0  0  0  0  0  0  0  0  0
   -3.0649   -1.8727   -2.1550 C   0  0  0  0  0  0  0  0  0  0  0  0
   -3.5366   -1.1455   -2.8309 H   0  0  0  0  0  0  0  0  0  0  0  0
   -1.0632   -1.6400    0.9344 C   0  0  1  0  0  3  0  0  0  0  0  0
   -4.0283    1.5291   -0.1826 C   0  0  0  0  0  0  0  0  0  0  0  0
   -1.7717   -3.7723   -0.4282 C   0  0  0  0  0  0  0  0  0  0  0  0
   -1.2531   -4.4799    0.2313 H   0  0  0  0  0  0  0  0  0  0  0  0
   -2.4480   -4.1734   -1.5781 C   0  0  0  0  0  0  0  0  0  0  0  0
   -2.4817   -5.2421   -1.8385 H   0  0  0  0  0  0  0  0  0  0  0  0
   -3.0838   -3.2362   -2.4364 C   0  0  0  0  0  0  0  0  0  0  0  0
   -3.5907   -3.5969   -3.3436 H   0  0  0  0  0  0  0  0  0  0  0  0
   -0.3636   -2.2273    2.0921 C   0  0  0  0  0  0  0  0  0  0  0  0
   -3.9740    2.4058    0.9197 C   0  0  0  0  0  0  0  0  0  0  0  0
   -3.0130    2.8737    1.1881 H   0  0  0  0  0  0  0  0  0  0  0  0
   -5.2632    0.9396   -0.5181 C   0  0  0  0  0  0  0  0  0  0  0  0
   -5.3192    0.2487   -1.3741 H   0  0  0  0  0  0  0  0  0  0  0  0
   -5.1274    2.6899    1.6664 C   0  0  0  0  0  0  0  0  0  0  0  0
   -5.0692    3.3812    2.5212 H   0  0  0  0  0  0  0  0  0  0  0  0
   -6.4174    1.2216    0.2276 C   0  0  0  0  0  0  0  0  0  0  0  0
   -7.3749    0.7546   -0.0495 H   0  0  0  0  0  0  0  0  0  0  0  0
    0.6591   -1.7097    4.1791 C   0  0  0  0  0  0  0  0  0  0  0  0
    1.4221   -2.4642    3.9009 H   0  0  0  0  0  0  0  0  0  0  0  0
   -0.0851   -2.2211    4.8277 H   0  0  0  0  0  0  0  0  0  0  0  0
   -6.3530    2.0978    1.3229 C   0  0  0  0  0  0  0  0  0  0  0  0
   -7.2588    2.3205    1.9071 H   0  0  0  0  0  0  0  0  0  0  0  0
    1.2698   -0.5001    4.8555 C   0  0  0  0  0  0  0  0  0  0  0  0
    2.0418   -0.0375    4.2094 H   0  0  0  0  0  0  0  0  0  0  0  0
    1.7554   -0.8018    5.8047 H   0  0  0  0  0  0  0  0  0  0  0  0
    0.4970    0.2593    5.0902 H   0  0  0  0  0  0  0  0  0  0  0  0
  1 30  1  0  0  0  0
  3  5  1  1  0  0  0
  3  9  1  0  0  0  0
  4 13  1  0  0  0  0
  5  7  1  0  0  0  0
  5 14  1  0  0  0  0
  6  5  1  0  0  0  0
  8  3  1  0  0  0  0
  8  4  2  0  0  0  0
  9 13  1  0  0  0  0
  9 10  1  0  0  0  0
 11  8  1  0  0  0  0
 12 11  1  0  0  0  0
 13 21  1  1  0  0  0
 14 22  1  0  0  0  0
 15  4  1  0  0  0  0
 15 16  1  0  0  0  0
 17 15  2  0  0  0  0
 18 17  1  0  0  0  0
 19 11  2  0  0  0  0
 19 17  1  0  0  0  0
 20 19  1  0  0  0  0
 21  2  2  0  0  0  0
 21  1  1  0  0  0  0
 22 23  1  0  0  0  0
 22 26  2  0  0  0  0
 24 14  2  0  0  0  0
 24 28  1  0  0  0  0
 25 24  1  0  0  0  0
 26 27  1  0  0  0  0
 28 33  2  0  0  0  0
 29 28  1  0  0  0  0
 30 32  1  0  0  0  0
 30 35  1  0  0  0  0
 31 30  1  0  0  0  0
 33 26  1  0  0  0  0
 33 34  1  0  0  0  0
 35 38  1  0  0  0  0
 35 37  1  0  0  0  0
 36 35  1  0  0  0  0
M  END
