1
q = -1.0

 31 30  0  0  0  0  0  0  0  0999 V2000
    1.6688   -0.0617   -0.2733 C   0  0  0  0  0  0  0  0  0  0  0  0
    0.9930   -1.4105    0.1372 C   0  0  0  0  0  0  0  0  0  0  0  0
   -0.4912   -1.6786   -0.3352 C   0  0  0  0  0  0  0  0  0  0  0  0
   -1.5720   -0.6138    0.0547 C   0  0  0  0  0  0  0  0  0  0  0  0
   -3.0392   -1.1697   -0.0587 C   0  0  0  0  0  0  0  0  0  0  0  0
   -4.1097   -0.0209   -0.1175 C   0  0  0  0  0  0  0  0  0  0  0  0
   -5.5571   -0.5268    0.2210 C   0  0  0  0  0  0  0  0  0  0  0  0
   -6.6701    0.4729   -0.2526 C   0  0  0  0  0  0  0  0  0  0  0  0
   -8.0479    0.2229    0.4485 C   0  0  0  0  0  0  0  0  0  0  0  0
   -9.2552    0.9021   -0.2798 C   0  0  0  0  0  0  0  0  0  0  0  0
    1.3394    0.1092   -1.6148 F   0  0  0  0  0  0  0  0  0  0  0  0
    0.9138    0.9039    0.3986 F   0  0  0  0  0  0  0  0  0  0  0  0
    1.7016   -2.4518   -0.3765 F   0  0  0  0  0  0  0  0  0  0  0  0
    1.0219   -1.5352    1.4953 F   0  0  0  0  0  0  0  0  0  0  0  0
   -0.8417   -2.8624    0.2322 F   0  0  0  0  0  0  0  0  0  0  0  0
   -0.4819   -1.8236   -1.6783 F   0  0  0  0  0  0  0  0  0  0  0  0
   -1.4413    0.4536   -0.7706 F   0  0  0  0  0  0  0  0  0  0  0  0
   -1.3697   -0.2244    1.3383 F   0  0  0  0  0  0  0  0  0  0  0  0
   -3.1419   -1.9113   -1.1845 F   0  0  0  0  0  0  0  0  0  0  0  0
   -3.2794   -1.9478    1.0207 F   0  0  0  0  0  0  0  0  0  0  0  0
   -3.7683    0.9386    0.7765 F   0  0  0  0  0  0  0  0  0  0  0  0
   -4.0990    0.5029   -1.3649 F   0  0  0  0  0  0  0  0  0  0  0  0
   -5.6441   -0.6872    1.5617 F   0  0  0  0  0  0  0  0  0  0  0  0
   -5.7572   -1.7165   -0.3911 F   0  0  0  0  0  0  0  0  0  0  0  0
   -6.2717    1.7376    0.0251 F   0  0  0  0  0  0  0  0  0  0  0  0
   -6.8219    0.3356   -1.5907 F   0  0  0  0  0  0  0  0  0  0  0  0
   -8.2874   -1.1098    0.4983 F   0  0  0  0  0  0  0  0  0  0  0  0
   -7.9860    0.7157    1.7051 F   0  0  0  0  0  0  0  0  0  0  0  0
  -10.3250    0.8583    0.5247 F   0  0  0  0  0  0  0  0  0  0  0  0
   -9.5385    0.2586   -1.4190 F   0  0  0  0  0  0  0  0  0  0  0  0
   -8.9657    2.1855   -0.5544 F   0  0  0  0  0  0  0  0  0  0  0  0
  1  2  1  0  0  0  0
  1 12  1  0  0  0  0
  2 14  1  0  0  0  0
  3  4  1  0  0  0  0
  3  2  1  0  0  0  0
  3 15  1  0  0  0  0
  4 18  1  0  0  0  0
  5  4  1  0  0  0  0
  5 20  1  0  0  0  0
  6  5  1  0  0  0  0
  6  7  1  0  0  0  0
  6 21  1  0  0  0  0
  7 23  1  0  0  0  0
  8 25  1  0  0  0  0
  8  7  1  0  0  0  0
  8  9  1  0  0  0  0
  9 27  1  0  0  0  0
  9 28  1  0  0  0  0
 10  9  1  0  0  0  0
 10 29  1  0  0  0  0
 11  1  1  0  0  0  0
 13  2  1  0  0  0  0
 16  3  1  0  0  0  0
 17  4  1  0  0  0  0
 19  5  1  0  0  0  0
 22  6  1  0  0  0  0
 24  7  1  0  0  0  0
 26  8  1  0  0  0  0
 30 10  1  0  0  0  0
 31 10  1  0  0  0  0
M  END
