2
q = -1.0

 14 14  0  0  0  0  0  0  0  0999 V2000
    3.2617   -1.8148   -0.0735 Br  0  0  0  0  0  0  0  0  0  0  0  0
    1.0418    0.1276    1.3089 C   0  0  0  0  0  3  0  0  0  0  0  0
    0.8044    0.6667    2.2443 H   0  0  0  0  0  0  0  0  0  0  0  0
    1.2581   -0.9340    1.5241 H   0  0  0  0  0  0  0  0  0  0  0  0
    2.1474    0.7896    0.5869 C   0  0  0  0  0  0  0  0  0  0  0  0
    3.1708    0.0982   -0.1117 C   0  0  0  0  0  0  0  0  0  0  0  0
    4.1816    0.7699   -0.8179 C   0  0  0  0  0  0  0  0  0  0  0  0
    4.9556    0.1877   -1.3378 H   0  0  0  0  0  0  0  0  0  0  0  0
    4.2011    2.1710   -0.8424 C   0  0  0  0  0  0  0  0  0  0  0  0
    4.9934    2.6953   -1.3978 H   0  0  0  0  0  0  0  0  0  0  0  0
    3.2173    2.8907   -0.1440 C   0  0  0  0  0  0  0  0  0  0  0  0
    3.2277    3.9910   -0.1466 H   0  0  0  0  0  0  0  0  0  0  0  0
    2.2190    2.2073    0.5540 C   0  0  0  0  0  0  0  0  0  0  0  0
    1.4384    2.7705    1.0884 H   0  0  0  0  0  0  0  0  0  0  0  0
  2  4  1  0  0  0  0
  2  3  1  0  0  0  0
  5  2  1  0  0  0  0
  6  1  1  0  0  0  0
  6  5  2  0  0  0  0
  7  6  1  0  0  0  0
  8  7  1  0  0  0  0
  9  7  2  0  0  0  0
  9 11  1  0  0  0  0
 10  9  1  0  0  0  0
 11 13  2  0  0  0  0
 12 11  1  0  0  0  0
 13  5  1  0  0  0  0
 13 14  1  0  0  0  0
M  END
