3
q = -1.0

 33 35  0  0  1  0  0  0  0  0999 V2000
   -2.3500   -0.0821    0.9218 C   0  0  0  0  0  0  0  0  0  0  0  0
   -1.6483   -0.9357    1.8327 C   0  0  0  0  0  3  0  0  0  0  0  0
   -1.3789   -2.1657    1.1790 C   0  0  0  0  0  3  0  0  0  0  0  0
   -1.9081   -2.0860   -0.1516 C   0  0  0  0  0  3  0  0  0  0  0  0
   -2.5181   -0.8151   -0.2980 C   0  0  0  0  0  0  0  0  0  0  0  0
   -3.4567   -0.2752   -1.3298 C   0  0  1  0  0  0  0  0  0  0  0  0
   -4.8249   -0.0613   -0.5511 C   0  0  0  0  0  0  0  0  0  0  0  0
   -4.1638    1.2869   -0.0531 C   0  0  1  0  0  0  0  0  0  0  0  0
   -3.1950    1.1741    1.1681 C   0  0  0  0  0  0  0  0  0  0  0  0
   -3.3329    1.2693   -1.3661 C   0  0  0  0  0  0  0  0  0  0  0  0
   -5.9911    0.2277   -1.5080 C   0  0  0  0  0  0  0  0  0  0  0  0
   -5.2769   -1.1567    0.4170 C   0  0  0  0  0  0  0  0  0  0  0  0
   -3.9779    1.0302    2.4919 C   0  0  0  0  0  0  0  0  0  0  0  0
   -2.3906    2.4886    1.2615 C   0  0  0  0  0  0  0  0  0  0  0  0
   -1.3848   -0.7001    2.8705 H   0  0  0  0  0  0  0  0  0  0  0  0
   -0.8251   -3.0125    1.5981 H   0  0  0  0  0  0  0  0  0  0  0  0
   -1.8417   -2.8627   -0.9204 H   0  0  0  0  0  0  0  0  0  0  0  0
   -3.4601   -0.8549   -2.2728 H   0  0  0  0  0  0  0  0  0  0  0  0
   -4.8609    2.1357    0.1137 H   0  0  0  0  0  0  0  0  0  0  0  0
   -2.3058    1.6720   -1.3448 H   0  0  0  0  0  0  0  0  0  0  0  0
   -3.8681    1.7150   -2.2228 H   0  0  0  0  0  0  0  0  0  0  0  0
   -5.7598    1.0038   -2.2615 H   0  0  0  0  0  0  0  0  0  0  0  0
   -6.8775    0.5710   -0.9349 H   0  0  0  0  0  0  0  0  0  0  0  0
   -6.2818   -0.6946   -2.0520 H   0  0  0  0  0  0  0  0  0  0  0  0
   -4.4904   -1.4797    1.1228 H   0  0  0  0  0  0  0  0  0  0  0  0
   -5.5875   -2.0535   -0.1593 H   0  0  0  0  0  0  0  0  0  0  0  0
   -6.1576   -0.8246    1.0047 H   0  0  0  0  0  0  0  0  0  0  0  0
   -4.5902    0.1124    2.5281 H   0  0  0  0  0  0  0  0  0  0  0  0
   -4.6528    1.9005    2.6261 H   0  0  0  0  0  0  0  0  0  0  0  0
   -3.2857    1.0107    3.3583 H   0  0  0  0  0  0  0  0  0  0  0  0
   -1.7164    2.6307    0.3976 H   0  0  0  0  0  0  0  0  0  0  0  0
   -1.7828    2.5289    2.1867 H   0  0  0  0  0  0  0  0  0  0  0  0
   -3.0890    3.3500    1.2969 H   0  0  0  0  0  0  0  0  0  0  0  0
  1  9  1  0  0  0  0
  1  2  1  0  0  0  0
  2 15  1  0  0  0  0
  3 16  1  0  0  0  0
  3  2  1  0  0  0  0
  4  3  1  0  0  0  0
  5  4  1  0  0  0  0
  5  1  2  0  0  0  0
  6 18  1  6  0  0  0
  6  7  1  0  0  0  0
  6  5  1  0  0  0  0
  7  8  1  0  0  0  0
  7 12  1  0  0  0  0
  8 19  1  1  0  0  0
  8  9  1  0  0  0  0
  9 14  1  0  0  0  0
  9 13  1  0  0  0  0
 10 20  1  0  0  0  0
 10  6  1  0  0  0  0
 10  8  1  0  0  0  0
 11 23  1  0  0  0  0
 11  7  1  0  0  0  0
 12 27  1  0  0  0  0
 12 25  1  0  0  0  0
 13 28  1  0  0  0  0
 13 29  1  0  0  0  0
 13 30  1  0  0  0  0
 14 33  1  0  0  0  0
 14 32  1  0  0  0  0
 17  4  1  0  0  0  0
 21 10  1  0  0  0  0
 22 11  1  0  0  0  0
 24 11  1  0  0  0  0
 26 12  1  0  0  0  0
 31 14  1  0  0  0  0
M  END
