21
q = -1.0, confidence = 0.0

 33 33  0  0  0  0  0  0  0  0999 V2000
   -4.5694   -1.9686   -1.0983 C   0  0  0  0  0  0  0  0  0  0  0  0
   -4.9976   -1.3046   -1.8740 H   0  0  0  0  0  0  0  0  0  0  0  0
   -5.2682   -2.8173   -0.9521 H   0  0  0  0  0  0  0  0  0  0  0  0
   -3.6230   -2.3890   -1.4956 H   0  0  0  0  0  0  0  0  0  0  0  0
   -2.3486   -0.0735   -0.6968 C   0  0  0  0  0  0  0  0  0  0  0  0
   -2.5190    0.1406   -1.7825 H   0  0  0  0  0  0  0  0  0  0  0  0
   -1.9595   -1.1109   -0.6520 H   0  0  0  0  0  0  0  0  0  0  0  0
   -3.5432    0.0092    0.1236 N   0  0  0  0  0  0  0  0  0  0  0  0
   -0.8169    0.9157    1.1640 C   0  0  0  0  0  0  0  0  0  0  0  0
   -1.2371    0.3331    1.9899 H   0  0  0  0  0  0  0  0  0  0  0  0
   -4.3393   -1.2240    0.2318 C   0  0  0  0  0  0  0  0  0  0  0  0
   -5.3368   -0.9084    0.6047 H   0  0  0  0  0  0  0  0  0  0  0  0
   -0.4545    1.7344   -0.9506 C   0  0  0  0  0  0  0  0  0  0  0  0
   -0.5256    1.8838   -2.0334 H   0  0  0  0  0  0  0  0  0  0  0  0
   -4.2566    1.2882    0.0320 C   0  0  0  0  0  0  0  0  0  0  0  0
   -3.4523    2.0512   -0.0669 H   0  0  0  0  0  0  0  0  0  0  0  0
   -3.7298   -2.1561    1.2893 C   0  0  0  0  0  0  0  0  0  0  0  0
   -4.3233   -3.0874    1.3975 H   0  0  0  0  0  0  0  0  0  0  0  0
   -3.6878   -1.6469    2.2723 H   0  0  0  0  0  0  0  0  0  0  0  0
   -2.6919   -2.4409    1.0193 H   0  0  0  0  0  0  0  0  0  0  0  0
    0.4935    2.3381   -0.0870 C   0  0  0  0  0  3  0  0  0  0  0  0
    1.2326    3.0909   -0.3794 H   0  0  0  0  0  0  0  0  0  0  0  0
   -5.1753    1.4347   -1.1972 C   0  0  0  0  0  0  0  0  0  0  0  0
   -4.6338    1.2058   -2.1376 H   0  0  0  0  0  0  0  0  0  0  0  0
   -5.5662    2.4697   -1.2795 H   0  0  0  0  0  0  0  0  0  0  0  0
   -6.0499    0.7548   -1.1308 H   0  0  0  0  0  0  0  0  0  0  0  0
   -5.0042    1.6094    1.3320 C   0  0  0  0  0  0  0  0  0  0  0  0
   -5.8479    0.9096    1.5067 H   0  0  0  0  0  0  0  0  0  0  0  0
   -5.4314    2.6321    1.2975 H   0  0  0  0  0  0  0  0  0  0  0  0
   -4.3180    1.5394    2.1987 H   0  0  0  0  0  0  0  0  0  0  0  0
   -1.2571    0.8334   -0.1914 C   0  0  0  0  0  0  0  0  0  0  0  0
    0.2633    1.8291    1.2361 C   0  0  0  0  0  0  0  0  0  0  0  0
    0.7944    2.1217    2.1472 H   0  0  0  0  0  0  0  0  0  0  0  0
  1  3  1  0  0  0  0
  1 11  1  0  0  0  0
  2  1  1  0  0  0  0
  4  1  1  0  0  0  0
  5  7  1  0  0  0  0
  5 31  1  0  0  0  0
  5  8  1  0  0  0  0
  6  5  1  0  0  0  0
  8 11  1  0  0  0  0
  9 32  2  0  0  0  0
  9 10  1  0  0  0  0
 11 12  1  0  0  0  0
 11 17  1  0  0  0  0
 13 31  2  0  0  0  0
 13 21  1  0  0  0  0
 14 13  1  0  0  0  0
 15  8  1  0  0  0  0
 15 27  1  0  0  0  0
 16 15  1  0  0  0  0
 17 18  1  0  0  0  0
 17 19  1  0  0  0  0
 20 17  1  0  0  0  0
 21 32  1  0  0  0  0
 22 21  1  0  0  0  0
 23 26  1  0  0  0  0
 23 15  1  0  0  0  0
 24 23  1  0  0  0  0
 25 23  1  0  0  0  0
 27 28  1  0  0  0  0
 27 30  1  0  0  0  0
 29 27  1  0  0  0  0
 31  9  1  0  0  0  0
 32 33  1  0  0  0  0
M  END
