6
q = -1.0, confidence = 0.014

 25 25  0  0  1  0  0  0  0  0999 V2000
    4.2490   -1.1249    0.0678 Cl  0  0  0  0  0  0  0  0  0  0  0  0
    1.6996   -0.2410    0.1433 C   0  0  2  0  0  3  0  0  0  0  0  0
    1.6806    1.2009    0.0316 C   0  0  0  0  0  0  0  0  0  0  0  0
    0.8363    1.7010    1.0739 C   0  0  0  0  0  0  0  0  0  0  0  0
    0.2985    0.5773    1.8191 C   0  0  1  0  0  3  0  0  0  0  0  0
    0.8981   -0.6376    1.3014 C   0  0  2  0  0  3  0  0  0  0  0  0
    2.5812   -1.1282   -0.6654 C   0  0  0  0  0  0  0  0  0  0  0  0
    2.4368    1.9828   -0.9836 C   0  0  0  0  0  0  0  0  0  0  0  0
    0.5621    3.1270    1.3907 C   0  0  0  0  0  0  0  0  0  0  0  0
   -0.5851    0.7215    3.0176 C   0  0  0  0  0  0  0  0  0  0  0  0
    0.9039   -1.9998    1.9145 C   0  0  0  0  0  0  0  0  0  0  0  0
    2.2165   -2.1687   -0.6789 H   0  0  0  0  0  0  0  0  0  0  0  0
    2.6650   -0.7684   -1.7067 H   0  0  0  0  0  0  0  0  0  0  0  0
    1.9729    1.8140   -1.9825 H   0  0  0  0  0  0  0  0  0  0  0  0
    3.4910    1.6430   -1.0202 H   0  0  0  0  0  0  0  0  0  0  0  0
    2.4111    3.0672   -0.7723 H   0  0  0  0  0  0  0  0  0  0  0  0
    1.1996    3.8095    0.8002 H   0  0  0  0  0  0  0  0  0  0  0  0
    0.7266    3.3193    2.4704 H   0  0  0  0  0  0  0  0  0  0  0  0
   -0.4999    3.3613    1.1556 H   0  0  0  0  0  0  0  0  0  0  0  0
   -1.0159   -0.2481    3.3304 H   0  0  0  0  0  0  0  0  0  0  0  0
   -1.4218    1.4143    2.7987 H   0  0  0  0  0  0  0  0  0  0  0  0
   -0.0172    1.1323    3.8792 H   0  0  0  0  0  0  0  0  0  0  0  0
    0.6004   -2.7592    1.1654 H   0  0  0  0  0  0  0  0  0  0  0  0
    0.2266   -2.0632    2.7863 H   0  0  0  0  0  0  0  0  0  0  0  0
    1.9309   -2.2458    2.2560 H   0  0  0  0  0  0  0  0  0  0  0  0
  2  7  1  1  0  0  0
  2  6  1  0  0  0  0
  3  2  1  0  0  0  0
  3  4  2  0  0  0  0
  4  9  1  0  0  0  0
  4  5  1  0  0  0  0
  5 10  1  1  0  0  0
  6  5  1  0  0  0  0
  6 11  1  1  0  0  0
  7  1  1  0  0  0  0
  8 16  1  0  0  0  0
  8  3  1  0  0  0  0
  9 18  1  0  0  0  0
 10 20  1  0  0  0  0
 10 22  1  0  0  0  0
 11 25  1  0  0  0  0
 11 24  1  0  0  0  0
 12  7  1  0  0  0  0
 13  7  1  0  0  0  0
 14  8  1  0  0  0  0
 15  8  1  0  0  0  0
 17  9  1  0  0  0  0
 19  9  1  0  0  0  0
 21 10  1  0  0  0  0
 23 11  1  0  0  0  0
M  END
