2
q = -1.0, confidence = 0.0

 21 21  0  0  0  0  0  0  0  0999 V2000
    1.9905   -0.6189   -0.2912 O   0  0  0  0  0  0  0  0  0  0  0  0
    0.5281    1.2347   -0.0727 C   0  0  0  0  0  3  0  0  0  0  0  0
    1.8605    0.7519   -0.1935 C   0  0  0  0  0  0  0  0  0  0  0  0
    2.9792    1.6117   -0.2396 C   0  0  0  0  0  0  0  0  0  0  0  0
    3.9993    1.2094   -0.3347 H   0  0  0  0  0  0  0  0  0  0  0  0
    2.7973    3.0042   -0.1707 C   0  0  0  0  0  0  0  0  0  0  0  0
    3.6746    3.6708   -0.2060 H   0  0  0  0  0  0  0  0  0  0  0  0
    1.5029    3.5239   -0.0546 C   0  0  0  0  0  0  0  0  0  0  0  0
    1.3414    4.6131    0.0049 H   0  0  0  0  0  0  0  0  0  0  0  0
    0.4049    2.6411   -0.0088 C   0  0  0  0  0  0  0  0  0  0  0  0
   -0.6030    3.0801    0.0859 H   0  0  0  0  0  0  0  0  0  0  0  0
    3.2564   -1.2616   -0.1989 C   0  0  0  0  0  0  0  0  0  0  0  0
    3.9902   -0.7500   -0.8693 H   0  0  0  0  0  0  0  0  0  0  0  0
    3.7773   -1.2421    1.2415 C   0  0  0  0  0  0  0  0  0  0  0  0
    3.0523   -1.7582    1.9023 H   0  0  0  0  0  0  0  0  0  0  0  0
    3.8955   -0.2036    1.6075 H   0  0  0  0  0  0  0  0  0  0  0  0
    4.7597   -1.7532    1.3146 H   0  0  0  0  0  0  0  0  0  0  0  0
    3.0312   -2.6802   -0.7173 C   0  0  0  0  0  0  0  0  0  0  0  0
    2.6101   -2.6520   -1.7410 H   0  0  0  0  0  0  0  0  0  0  0  0
    2.3041   -3.2065   -0.0665 H   0  0  0  0  0  0  0  0  0  0  0  0
    3.9810   -3.2523   -0.7278 H   0  0  0  0  0  0  0  0  0  0  0  0
  1 12  1  0  0  0  0
  1  3  1  0  0  0  0
  2 10  1  0  0  0  0
  3  2  2  0  0  0  0
  4  3  1  0  0  0  0
  4  6  2  0  0  0  0
  5  4  1  0  0  0  0
  6  8  1  0  0  0  0
  7  6  1  0  0  0  0
  8 10  2  0  0  0  0
  8  9  1  0  0  0  0
 10 11  1  0  0  0  0
 12 14  1  0  0  0  0
 13 12  1  0  0  0  0
 14 17  1  0  0  0  0
 14 16  1  0  0  0  0
 14 15  1  0  0  0  0
 18 12  1  0  0  0  0
 18 20  1  0  0  0  0
 19 18  1  0  0  0  0
 21 18  1  0  0  0  0
M  END
