1
q = 0.0, confidence = 0.99

 28 29  0  0  0  0  0  0  0  0999 V2000
   -0.5189    2.2372   -0.4789 C   0  0  0  0  0  2  0  0  0  0  0  0
   -1.8674    2.4224   -0.2299 N   0  0  0  0  0  0  0  0  0  0  0  0
   -0.0929    3.5123   -0.8017 N   0  0  0  0  0  0  0  0  0  0  0  0
   -3.8885    0.2775    2.0506 C   0  0  0  0  0  0  0  0  0  0  0  0
   -3.9627    0.0699    3.1285 H   0  0  0  0  0  0  0  0  0  0  0  0
   -1.1330    4.4316   -0.7648 C   0  0  0  0  0  0  0  0  0  0  0  0
   -0.9785    5.4894   -0.9968 H   0  0  0  0  0  0  0  0  0  0  0  0
   -3.6292    1.1684   -2.1880 C   0  0  0  0  0  0  0  0  0  0  0  0
   -4.2951    2.0278   -2.4186 H   0  0  0  0  0  0  0  0  0  0  0  0
   -3.9639    0.3134   -2.8054 H   0  0  0  0  0  0  0  0  0  0  0  0
   -2.6098    1.4489   -2.5118 H   0  0  0  0  0  0  0  0  0  0  0  0
   -2.2571    3.7460   -0.4062 C   0  0  0  0  0  0  0  0  0  0  0  0
   -3.2913    4.0668   -0.2542 H   0  0  0  0  0  0  0  0  0  0  0  0
    1.2703    3.9452   -1.0929 C   0  0  0  0  0  0  0  0  0  0  0  0
    1.6888    4.4991   -0.2287 H   0  0  0  0  0  0  0  0  0  0  0  0
    1.2551    4.6106   -1.9772 H   0  0  0  0  0  0  0  0  0  0  0  0
    1.8863    3.0610   -1.3443 H   0  0  0  0  0  0  0  0  0  0  0  0
   -2.8176    1.4393    0.2104 C   0  0  0  0  0  0  0  0  0  0  0  0
   -2.9343    1.1850    1.5861 C   0  0  0  0  0  0  0  0  0  0  0  0
   -2.2558    1.6969    2.2820 H   0  0  0  0  0  0  0  0  0  0  0  0
   -4.6201   -0.0953   -0.2231 C   0  0  0  0  0  0  0  0  0  0  0  0
   -5.2835   -0.6046   -0.9406 H   0  0  0  0  0  0  0  0  0  0  0  0
   -3.6803    0.8285   -0.7222 C   0  0  0  0  0  0  0  0  0  0  0  0
   -4.7380   -0.3939    1.1459 C   0  0  0  0  0  0  0  0  0  0  0  0
   -5.7072   -1.4394    1.6327 C   0  0  0  0  0  0  0  0  0  0  0  0
   -5.1881   -2.4165    1.7312 H   0  0  0  0  0  0  0  0  0  0  0  0
   -6.5507   -1.5802    0.9291 H   0  0  0  0  0  0  0  0  0  0  0  0
   -6.1207   -1.1834    2.6282 H   0  0  0  0  0  0  0  0  0  0  0  0
  1  2  1  0  0  0  0
  2 18  1  0  0  0  0
  3  6  1  0  0  0  0
  3  1  1  0  0  0  0
  4  5  1  0  0  0  0
  6 12  2  0  0  0  0
  7  6  1  0  0  0  0
  8 23  1  0  0  0  0
  9  8  1  0  0  0  0
 10  8  1  0  0  0  0
 11  8  1  0  0  0  0
 12 13  1  0  0  0  0
 12  2  1  0  0  0  0
 14  3  1  0  0  0  0
 14 15  1  0  0  0  0
 16 14  1  0  0  0  0
 17 14  1  0  0  0  0
 18 19  2  0  0  0  0
 19  4  1  0  0  0  0
 19 20  1  0  0  0  0
 21 24  1  0  0  0  0
 22 21  1  0  0  0  0
 23 21  2  0  0  0  0
 23 18  1  0  0  0  0
 24 25  1  0  0  0  0
 24  4  2  0  0  0  0
 25 26  1  0  0  0  0
 25 28  1  0  0  0  0
 27 25  1  0  0  0  0
M  END
