3
q = 0.0, confidence = 0.818

 21 23  0  0  0  0  0  0  0  0999 V2000
   -6.1865   -1.5555    0.0507 N   0  0  0  0  0  0  0  0  0  0  0  0
   -6.1861    1.5561   -0.0507 N   0  0  0  0  0  0  0  0  0  0  0  0
   -0.2487   -0.0002   -0.0001 C   0  0  0  0  0  3  0  0  0  0  0  0
   -1.5291   -0.0002   -0.0001 C   0  0  0  0  0  0  0  0  0  0  0  0
   -2.8874   -0.0001    0.0000 C   0  0  0  0  0  0  0  0  0  0  0  0
   -3.7722   -1.1766    0.0383 C   0  0  0  0  0  0  0  0  0  0  0  0
   -5.1329   -0.7434    0.0243 C   0  0  0  0  0  0  0  0  0  0  0  0
   -5.1327    0.7438   -0.0243 C   0  0  0  0  0  0  0  0  0  0  0  0
   -3.7719    1.1766   -0.0383 C   0  0  0  0  0  0  0  0  0  0  0  0
   -3.5006    2.5485   -0.0831 C   0  0  0  0  0  3  0  0  0  0  0  0
   -2.4655    2.9255   -0.0961 H   0  0  0  0  0  0  0  0  0  0  0  0
   -4.6054    3.4160   -0.1114 C   0  0  0  0  0  0  0  0  0  0  0  0
   -4.4687    4.5065   -0.1471 H   0  0  0  0  0  0  0  0  0  0  0  0
   -5.9084    2.8759   -0.0938 C   0  0  0  0  0  0  0  0  0  0  0  0
   -6.7798    3.5531   -0.1159 H   0  0  0  0  0  0  0  0  0  0  0  0
   -3.5012   -2.5485    0.0830 C   0  0  0  0  0  0  0  0  0  0  0  0
   -2.4661   -2.9257    0.0960 H   0  0  0  0  0  0  0  0  0  0  0  0
   -4.6062   -3.4157    0.1113 C   0  0  0  0  0  0  0  0  0  0  0  0
   -4.4697   -4.5063    0.1469 H   0  0  0  0  0  0  0  0  0  0  0  0
   -5.9090   -2.8754    0.0937 C   0  0  0  0  0  0  0  0  0  0  0  0
   -6.7806   -3.5524    0.1158 H   0  0  0  0  0  0  0  0  0  0  0  0
  1 20  1  0  0  0  0
  2  8  2  0  0  0  0
  4  3  3  0  0  0  0
  4  5  1  0  0  0  0
  5  6  1  0  0  0  0
  6 16  2  0  0  0  0
  7  6  1  0  0  0  0
  7  1  2  0  0  0  0
  8  7  1  0  0  0  0
  9  8  1  0  0  0  0
  9  5  2  0  0  0  0
 10  9  1  0  0  0  0
 11 10  1  0  0  0  0
 12 14  2  0  0  0  0
 12 10  1  0  0  0  0
 13 12  1  0  0  0  0
 14  2  1  0  0  0  0
 15 14  1  0  0  0  0
 16 17  1  0  0  0  0
 16 18  1  0  0  0  0
 18 19  1  0  0  0  0
 20 18  2  0  0  0  0
 20 21  1  0  0  0  0
M  END
