2
q = -1.0

 12 12  0  0  1  0  0  0  0  0999 V2000
    1.7354    1.5320    1.7568 S   0  0  0  0  0  1  0  0  0  0  0  0
    2.7787    0.7639    0.5793 C   0  0  1  0  0  3  0  0  0  0  0  0
    2.5053    1.0368   -0.8081 C   0  0  0  0  0  3  0  0  0  0  0  0
    1.8606    1.8791   -1.0828 H   0  0  0  0  0  0  0  0  0  0  0  0
    3.3511    0.4767   -1.8062 C   0  0  0  0  0  0  0  0  0  0  0  0
    3.1622    0.7202   -2.8630 H   0  0  0  0  0  0  0  0  0  0  0  0
    4.4492   -0.2973   -1.4503 C   0  0  0  0  0  0  0  0  0  0  0  0
    5.1261   -0.6873   -2.2254 H   0  0  0  0  0  0  0  0  0  0  0  0
    4.7056   -0.5876   -0.0827 C   0  0  0  0  0  0  0  0  0  0  0  0
    5.5709   -1.2119    0.1883 H   0  0  0  0  0  0  0  0  0  0  0  0
    3.8715   -0.0975    0.9155 C   0  0  0  0  0  0  0  0  0  0  0  0
    4.0595   -0.3156    1.9770 H   0  0  0  0  0  0  0  0  0  0  0  0
  2 11  1  0  0  0  0
  2  1  1  1  0  0  0
  3  2  1  0  0  0  0
  4  3  1  0  0  0  0
  5  7  2  0  0  0  0
  5  3  1  0  0  0  0
  6  5  1  0  0  0  0
  7  9  1  0  0  0  0
  8  7  1  0  0  0  0
  9 10  1  0  0  0  0
  9 11  2  0  0  0  0
 11 12  1  0  0  0  0
M  END
