1
q = -1.0

 12 12  0  0  0  0  0  0  0  0999 V2000
    1.1034    0.0258   -0.2589 C   0  0  0  0  0  0  0  0  0  0  0  0
    1.8735    1.1985   -0.3500 C   0  0  0  0  0  0  0  0  0  0  0  0
    3.2645    1.2033   -0.1777 C   0  0  0  0  0  0  0  0  0  0  0  0
    3.9551    0.0023    0.1046 C   0  0  0  0  0  0  0  0  0  0  0  0
    3.1951   -1.1852    0.2102 C   0  0  0  0  0  0  0  0  0  0  0  0
    1.8063   -1.1560    0.0313 C   0  0  0  0  0  0  0  0  0  0  0  0
    1.2851    2.3904   -0.5883 F   0  0  0  0  0  0  0  0  0  0  0  0
    3.9446    2.3492   -0.2736 F   0  0  0  0  0  0  0  0  0  0  0  0
    3.8076   -2.3391    0.4914 F   0  0  0  0  0  0  0  0  0  0  0  0
    1.1472   -2.3247    0.1824 F   0  0  0  0  0  0  0  0  0  0  0  0
    6.5318   -0.0185    0.4435 N   0  0  0  0  0  0  0  0  0  0  0  0
    5.3682   -0.0090    0.2887 C   0  0  0  0  0  0  0  0  0  0  0  0
  1  6  1  0  0  0  0
  2  1  2  0  0  0  0
  2  3  1  0  0  0  0
  3  4  2  0  0  0  0
  4  5  1  0  0  0  0
  4 12  1  0  0  0  0
  5  9  1  0  0  0  0
  6 10  1  0  0  0  0
  6  5  2  0  0  0  0
  7  2  1  0  0  0  0
  8  3  1  0  0  0  0
 12 11  3  0  0  0  0
M  END
