1
q = -1.0

  4  3  0  0  0  0  0  0  0  0999 V2000
   -0.9255   -1.5480   -1.5825 C   0  0  0  0  0  3  0  0  0  0  0  0
   -1.6525   -2.5248   -1.4810 O   0  0  0  0  0  0  0  0  0  0  0  0
   -0.0200   -1.4626   -2.5963 O   0  0  0  0  0  0  0  0  0  0  0  0
   -0.1225   -2.3008   -3.1047 H   0  0  0  0  0  0  0  0  0  0  0  0
  1  2  2  0  0  0  0
  3  1  1  0  0  0  0
  4  3  1  0  0  0  0
M  END
