1
q = 0.0, confidence = 0.984

 43 45  0  0  0  0  0  0  0  0999 V2000
   -1.7851    0.0541   -0.2644 C   0  0  0  0  0  3  0  0  0  0  0  0
   -3.1467    0.2482   -0.0916 C   0  0  0  0  0  0  0  0  0  0  0  0
   -3.6867    1.0339    0.4450 H   0  0  0  0  0  0  0  0  0  0  0  0
   -5.3126   -0.9252   -0.7414 C   0  0  0  0  0  0  0  0  0  0  0  0
   -5.7061    0.1122   -0.7664 H   0  0  0  0  0  0  0  0  0  0  0  0
   -5.8019   -1.6625   -1.9848 C   0  0  0  0  0  0  0  0  0  0  0  0
   -5.4422   -1.1832   -2.9162 H   0  0  0  0  0  0  0  0  0  0  0  0
   -6.9082   -1.6497   -2.0014 H   0  0  0  0  0  0  0  0  0  0  0  0
   -5.4929   -2.7278   -1.9818 H   0  0  0  0  0  0  0  0  0  0  0  0
   -5.7465   -1.5969    0.5645 C   0  0  0  0  0  0  0  0  0  0  0  0
   -5.3568   -2.6334    0.6222 H   0  0  0  0  0  0  0  0  0  0  0  0
   -6.8516   -1.6412    0.6148 H   0  0  0  0  0  0  0  0  0  0  0  0
   -5.3850   -1.0378    1.4494 H   0  0  0  0  0  0  0  0  0  0  0  0
   -2.9418   -1.5830   -1.3305 C   0  0  0  0  0  3  0  0  0  0  0  0
   -3.1731   -2.4658   -1.9324 H   0  0  0  0  0  0  0  0  0  0  0  0
   -0.4417   -1.6666   -1.5210 C   0  0  0  0  0  0  0  0  0  0  0  0
   -0.2016   -1.2331   -2.5118 H   0  0  0  0  0  0  0  0  0  0  0  0
   -0.4855   -2.7709   -1.5655 H   0  0  0  0  0  0  0  0  0  0  0  0
    0.8970   -2.3637    0.9715 C   0  0  0  0  0  0  0  0  0  0  0  0
    1.1978   -3.6881    0.5778 C   0  0  0  0  0  0  0  0  0  0  0  0
    1.4241   -3.9185   -0.4754 H   0  0  0  0  0  0  0  0  0  0  0  0
    1.2360   -4.7141    1.5305 C   0  0  0  0  0  0  0  0  0  0  0  0
    1.4701   -5.7421    1.2164 H   0  0  0  0  0  0  0  0  0  0  0  0
    0.9849   -4.4288    2.8838 C   0  0  0  0  0  0  0  0  0  0  0  0
    1.0197   -5.2355    3.6311 H   0  0  0  0  0  0  0  0  0  0  0  0
    0.6957   -3.1152    3.2810 C   0  0  0  0  0  0  0  0  0  0  0  0
    0.5038   -2.8872    4.3399 H   0  0  0  0  0  0  0  0  0  0  0  0
    0.6502   -2.0850    2.3282 C   0  0  0  0  0  0  0  0  0  0  0  0
    0.4177   -1.0548    2.6376 H   0  0  0  0  0  0  0  0  0  0  0  0
    2.4841   -1.1563   -1.1289 C   0  0  0  0  0  0  0  0  0  0  0  0
    3.5918   -1.6090   -0.3760 C   0  0  0  0  0  0  0  0  0  0  0  0
    3.4559   -1.9650    0.6559 H   0  0  0  0  0  0  0  0  0  0  0  0
    4.8715   -1.6155   -0.9482 C   0  0  0  0  0  0  0  0  0  0  0  0
    5.7289   -1.9703   -0.3572 H   0  0  0  0  0  0  0  0  0  0  0  0
    5.0559   -1.1778   -2.2691 C   0  0  0  0  0  0  0  0  0  0  0  0
    6.0604   -1.1903   -2.7178 H   0  0  0  0  0  0  0  0  0  0  0  0
    3.9583   -0.7192   -3.0148 C   0  0  0  0  0  0  0  0  0  0  0  0
    4.1004   -0.3661   -4.0471 H   0  0  0  0  0  0  0  0  0  0  0  0
    2.6749   -0.6963   -2.4509 C   0  0  0  0  0  0  0  0  0  0  0  0
    1.8312   -0.2780   -3.0178 H   0  0  0  0  0  0  0  0  0  0  0  0
   -3.8368   -0.7575   -0.7580 N   0  0  0  0  0  0  0  0  0  0  0  0
   -1.7078   -1.1184   -1.0440 N   0  0  0  0  0  0  0  0  0  0  0  0
    0.8564   -1.0522   -0.3119 P   0  0  0  0  0  0  0  0  0  0  0  0
  1  2  2  0  0  0  0
  2  3  1  0  0  0  0
  4 10  1  0  0  0  0
  5  4  1  0  0  0  0
  6  9  1  0  0  0  0
  6  4  1  0  0  0  0
  7  6  1  0  0  0  0
  8  6  1  0  0  0  0
 10 12  1  0  0  0  0
 10 11  1  0  0  0  0
 10 13  1  0  0  0  0
 14 42  1  0  0  0  0
 14 41  1  0  0  0  0
 15 14  1  0  0  0  0
 16 42  1  0  0  0  0
 16 43  1  0  0  0  0
 17 16  1  0  0  0  0
 18 16  1  0  0  0  0
 19 28  1  0  0  0  0
 20 19  2  0  0  0  0
 20 22  1  0  0  0  0
 21 20  1  0  0  0  0
 22 24  2  0  0  0  0
 23 22  1  0  0  0  0
 24 26  1  0  0  0  0
 24 25  1  0  0  0  0
 26 27  1  0  0  0  0
 28 29  1  0  0  0  0
 28 26  2  0  0  0  0
 30 31  1  0  0  0  0
 30 43  1  0  0  0  0
 31 32  1  0  0  0  0
 33 31  2  0  0  0  0
 33 34  1  0  0  0  0
 35 33  1  0  0  0  0
 36 35  1  0  0  0  0
 37 39  1  0  0  0  0
 37 35  2  0  0  0  0
 38 37  1  0  0  0  0
 39 30  2  0  0  0  0
 40 39  1  0  0  0  0
 41  4  1  0  0  0  0
 41  2  1  0  0  0  0
 42  1  1  0  0  0  0
 43 19  1  0  0  0  0
M  END
