2
q = -2.0, confidence = 0.76

 13 12  0  0  0  0  0  0  0  0999 V2000
    0.3548    0.3132   -2.3173 S   0  0  0  0  0  1  0  0  0  0  0  0
    1.5697   -0.4497    0.5837 C   0  0  0  0  0  3  0  0  0  0  0  0
    1.5882   -0.6108    1.6770 H   0  0  0  0  0  0  0  0  0  0  0  0
    2.7274   -0.6417   -0.1166 C   0  0  0  0  0  0  0  0  0  0  0  0
    2.9399   -0.4774   -1.5483 C   0  0  0  0  0  0  0  0  0  0  0  0
    3.9675   -0.6979   -1.8790 H   0  0  0  0  0  0  0  0  0  0  0  0
    2.0313   -0.1109   -2.4983 C   0  0  0  0  0  0  0  0  0  0  0  0
    2.3707   -0.0515   -3.5479 H   0  0  0  0  0  0  0  0  0  0  0  0
    3.9259   -1.0437    0.4708 O   0  0  0  0  0  0  0  0  0  0  0  0
    3.9375   -1.2871    1.8519 C   0  0  0  0  0  0  0  0  0  0  0  0
    4.9686   -1.5936    2.1146 H   0  0  0  0  0  0  0  0  0  0  0  0
    3.2324   -2.1016    2.1452 H   0  0  0  0  0  0  0  0  0  0  0  0
    3.6676   -0.3806    2.4462 H   0  0  0  0  0  0  0  0  0  0  0  0
  2  3  1  0  0  0  0
  4  9  1  0  0  0  0
  4  2  2  0  0  0  0
  5  4  1  0  0  0  0
  6  5  1  0  0  0  0
  7  1  1  0  0  0  0
  7  5  2  0  0  0  0
  8  7  1  0  0  0  0
  9 10  1  0  0  0  0
 10 11  1  0  0  0  0
 10 12  1  0  0  0  0
 10 13  1  0  0  0  0
M  END
