3
q = -1.0

 18 18  0  0  1  0  0  0  0  0999 V2000
   -1.5692   -2.0091    1.6525 Cl  0  0  0  0  0  0  0  0  0  0  0  0
    1.3958   -2.9642    1.5769 Cl  0  0  0  0  0  0  0  0  0  0  0  0
   -0.3741   -1.0710    0.7315 C   0  0  0  0  0  2  0  0  0  0  0  0
    0.9224   -1.4987    0.7054 C   0  0  1  0  0  3  0  0  0  0  0  0
    2.0093   -0.7643    0.0311 C   0  0  0  0  0  0  0  0  0  0  0  0
    3.3729   -1.0457    0.2839 C   0  0  0  0  0  0  0  0  0  0  0  0
    4.3940   -0.2956   -0.3139 C   0  0  0  0  0  0  0  0  0  0  0  0
    4.1151    0.7667   -1.1950 C   0  0  0  0  0  0  0  0  0  0  0  0
    2.7560    1.0410   -1.4613 C   0  0  0  0  0  0  0  0  0  0  0  0
    1.7313    0.2955   -0.8733 C   0  0  0  0  0  0  0  0  0  0  0  0
    5.2127    1.5650   -1.8508 C   0  0  0  0  0  0  0  0  0  0  0  0
    3.6260   -1.8654    0.9705 H   0  0  0  0  0  0  0  0  0  0  0  0
    5.4429   -0.5428   -0.0839 H   0  0  0  0  0  0  0  0  0  0  0  0
    2.4902    1.8553   -2.1553 H   0  0  0  0  0  0  0  0  0  0  0  0
    0.6786    0.5355   -1.1217 H   0  0  0  0  0  0  0  0  0  0  0  0
    6.2028    1.3358   -1.4111 H   0  0  0  0  0  0  0  0  0  0  0  0
    5.0379    2.6562   -1.7518 H   0  0  0  0  0  0  0  0  0  0  0  0
    5.2732    1.3495   -2.9392 H   0  0  0  0  0  0  0  0  0  0  0  0
  3  1  1  0  0  0  0
  4  3  1  0  0  0  0
  4  2  1  1  0  0  0
  5  6  1  0  0  0  0
  5  4  1  0  0  0  0
  6 12  1  0  0  0  0
  7 13  1  0  0  0  0
  7  6  2  0  0  0  0
  8  7  1  0  0  0  0
  9  8  2  0  0  0  0
  9 10  1  0  0  0  0
 10  5  2  0  0  0  0
 11 17  1  0  0  0  0
 11 16  1  0  0  0  0
 11  8  1  0  0  0  0
 14  9  1  0  0  0  0
 15 10  1  0  0  0  0
 18 11  1  0  0  0  0
M  END
