1
q = -1.0

 18 19  0  0  1  0  0  0  0  0999 V2000
    1.8556   -0.7093   -0.2354 C   0  0  0  0  0  3  0  0  0  0  0  0
    2.2728   -1.5166    1.0334 C   0  0  2  0  0  0  0  0  0  0  0  0
    3.8208   -1.5641    1.0511 C   0  0  0  0  0  0  0  0  0  0  0  0
    4.1533   -2.4877   -0.1639 C   0  0  0  0  0  0  0  0  0  0  0  0
    2.7571   -2.9367   -0.6599 C   0  0  2  0  0  0  0  0  0  0  0  0
    2.0795   -1.7513   -1.3835 C   0  0  0  0  0  0  0  0  0  0  0  0
    1.9566   -2.9817    0.6590 C   0  0  0  0  0  0  0  0  0  0  0  0
    2.5897    0.1017   -0.3727 H   0  0  0  0  0  0  0  0  0  0  0  0
    1.8391   -1.1477    1.9839 H   0  0  0  0  0  0  0  0  0  0  0  0
    4.2672   -0.5538    0.9649 H   0  0  0  0  0  0  0  0  0  0  0  0
    4.1868   -2.0053    2.0022 H   0  0  0  0  0  0  0  0  0  0  0  0
    4.7192   -1.9623   -0.9601 H   0  0  0  0  0  0  0  0  0  0  0  0
    4.7636   -3.3605    0.1457 H   0  0  0  0  0  0  0  0  0  0  0  0
    2.7715   -3.8730   -1.2531 H   0  0  0  0  0  0  0  0  0  0  0  0
    1.1374   -2.0908   -1.8629 H   0  0  0  0  0  0  0  0  0  0  0  0
    2.7095   -1.3391   -2.1987 H   0  0  0  0  0  0  0  0  0  0  0  0
    2.3604   -3.7116    1.3917 H   0  0  0  0  0  0  0  0  0  0  0  0
    0.8804   -3.1954    0.5128 H   0  0  0  0  0  0  0  0  0  0  0  0
  1  2  1  0  0  0  0
  2  3  1  0  0  0  0
  2  9  1  1  0  0  0
  3 11  1  0  0  0  0
  4 13  1  0  0  0  0
  4  3  1  0  0  0  0
  5 14  1  6  0  0  0
  5  4  1  0  0  0  0
  5  7  1  0  0  0  0
  6  5  1  0  0  0  0
  6  1  1  0  0  0  0
  7  2  1  0  0  0  0
  7 17  1  0  0  0  0
  8  1  1  0  0  0  0
 10  3  1  0  0  0  0
 12  4  1  0  0  0  0
 15  6  1  0  0  0  0
 16  6  1  0  0  0  0
 18  7  1  0  0  0  0
M  END
