4
q = 0.0, confidence = 0.978

 45 47  0  0  1  0  0  0  0  0999 V2000
    1.3363    0.2425    0.3514 P   0  0  0  0  0  0  0  0  0  0  0  0
    1.4983   -0.2808    1.9327 O   0  0  0  0  0  0  0  0  0  0  0  0
   -0.7924   -1.7168    2.9806 O   0  0  0  0  0  0  0  0  0  0  0  0
   -1.7862   -1.9861    0.5089 C   0  0  0  0  0  3  0  0  0  0  0  0
   -2.3876   -1.6740    1.3717 H   0  0  0  0  0  0  0  0  0  0  0  0
   -2.3572   -2.0158   -0.8130 C   0  0  0  0  0  0  0  0  0  0  0  0
   -3.4005   -1.6991   -0.9556 H   0  0  0  0  0  0  0  0  0  0  0  0
   -1.5472   -2.2994   -1.9253 C   0  0  0  0  0  0  0  0  0  0  0  0
   -1.9457   -2.2072   -2.9453 H   0  0  0  0  0  0  0  0  0  0  0  0
   -0.1509   -2.6039   -1.7237 C   0  0  0  0  0  0  0  0  0  0  0  0
    0.5054   -2.7599   -2.5912 H   0  0  0  0  0  0  0  0  0  0  0  0
    0.3876   -2.6968   -0.4129 C   0  0  0  0  0  0  0  0  0  0  0  0
    1.4546   -2.9358   -0.2970 H   0  0  0  0  0  0  0  0  0  0  0  0
   -0.4270   -2.3635    0.7350 C   0  0  1  0  0  3  0  0  0  0  0  0
    0.1478   -2.3447    2.1392 C   0  0  1  0  0  0  0  0  0  0  0  0
    0.3006   -3.4124    2.4465 H   0  0  0  0  0  0  0  0  0  0  0  0
    1.5372   -1.6729    2.2210 C   0  0  0  0  0  0  0  0  0  0  0  0
    1.9128   -1.7515    3.2597 H   0  0  0  0  0  0  0  0  0  0  0  0
    2.2727   -2.2022    1.5744 H   0  0  0  0  0  0  0  0  0  0  0  0
   -0.6267   -1.9659    4.3674 C   0  0  0  0  0  0  0  0  0  0  0  0
   -1.5008   -1.5231    4.8800 H   0  0  0  0  0  0  0  0  0  0  0  0
    0.2941   -1.4956    4.7799 H   0  0  0  0  0  0  0  0  0  0  0  0
   -0.5979   -3.0584    4.5855 H   0  0  0  0  0  0  0  0  0  0  0  0
    1.2291    2.0272    0.6838 C   0  0  0  0  0  0  0  0  0  0  0  0
    1.5550    2.9373   -0.3442 C   0  0  0  0  0  0  0  0  0  0  0  0
    1.9453    2.5692   -1.3045 H   0  0  0  0  0  0  0  0  0  0  0  0
    1.3687    4.3112   -0.1338 C   0  0  0  0  0  0  0  0  0  0  0  0
    1.6302    5.0232   -0.9307 H   0  0  0  0  0  0  0  0  0  0  0  0
    0.8555    4.7783    1.0878 C   0  0  0  0  0  0  0  0  0  0  0  0
    0.7128    5.8576    1.2465 H   0  0  0  0  0  0  0  0  0  0  0  0
    0.5297    3.8709    2.1090 C   0  0  0  0  0  0  0  0  0  0  0  0
    0.1387    4.2379    3.0697 H   0  0  0  0  0  0  0  0  0  0  0  0
    0.7116    2.4927    1.9130 C   0  0  0  0  0  0  0  0  0  0  0  0
    0.4781    1.7757    2.7142 H   0  0  0  0  0  0  0  0  0  0  0  0
    2.9873   -0.0768   -0.3530 C   0  0  0  0  0  0  0  0  0  0  0  0
    3.1606   -0.6486   -1.6290 C   0  0  0  0  0  0  0  0  0  0  0  0
    2.2812   -0.8595   -2.2544 H   0  0  0  0  0  0  0  0  0  0  0  0
    4.4565   -0.8948   -2.1075 C   0  0  0  0  0  0  0  0  0  0  0  0
    4.5944   -1.3311   -3.1079 H   0  0  0  0  0  0  0  0  0  0  0  0
    5.5725   -0.5786   -1.3171 C   0  0  0  0  0  0  0  0  0  0  0  0
    6.5868   -0.7734   -1.6964 H   0  0  0  0  0  0  0  0  0  0  0  0
    5.3992   -0.0079   -0.0440 C   0  0  0  0  0  0  0  0  0  0  0  0
    6.2750    0.2433    0.5727 H   0  0  0  0  0  0  0  0  0  0  0  0
    4.1107    0.2472    0.4417 C   0  0  0  0  0  0  0  0  0  0  0  0
    3.9711    0.6945    1.4376 H   0  0  0  0  0  0  0  0  0  0  0  0
  1 24  1  0  0  0  0
  1  2  1  0  0  0  0
  2 17  1  0  0  0  0
  3 20  1  0  0  0  0
  4 14  1  0  0  0  0
  4  5  1  0  0  0  0
  6  4  1  0  0  0  0
  7  6  1  0  0  0  0
  8 10  1  0  0  0  0
  8  6  2  0  0  0  0
  9  8  1  0  0  0  0
 10 12  2  0  0  0  0
 11 10  1  0  0  0  0
 12 13  1  0  0  0  0
 12 14  1  0  0  0  0
 14 15  1  6  0  0  0
 15 17  1  0  0  0  0
 15 16  1  1  0  0  0
 15  3  1  0  0  0  0
 17 18  1  0  0  0  0
 19 17  1  0  0  0  0
 20 23  1  0  0  0  0
 20 22  1  0  0  0  0
 20 21  1  0  0  0  0
 24 33  1  0  0  0  0
 25 27  1  0  0  0  0
 25 24  2  0  0  0  0
 26 25  1  0  0  0  0
 27 29  2  0  0  0  0
 28 27  1  0  0  0  0
 29 30  1  0  0  0  0
 29 31  1  0  0  0  0
 31 32  1  0  0  0  0
 33 31  2  0  0  0  0
 33 34  1  0  0  0  0
 35  1  1  0  0  0  0
 35 44  1  0  0  0  0
 36 35  2  0  0  0  0
 37 36  1  0  0  0  0
 38 36  1  0  0  0  0
 38 40  2  0  0  0  0
 39 38  1  0  0  0  0
 40 42  1  0  0  0  0
 41 40  1  0  0  0  0
 42 44  2  0  0  0  0
 42 43  1  0  0  0  0
 44 45  1  0  0  0  0
M  END
