5
q = 0.0, confidence = 0.98

 16 17  0  0  0  0  0  0  0  0999 V2000
   -1.6252   -0.4099   -0.7112 C   0  0  0  0  0  0  0  0  0  0  0  0
   -1.6255   -0.3971    0.7204 C   0  0  0  0  0  0  0  0  0  0  0  0
   -0.7526   -1.1986    1.4785 C   0  0  0  0  0  0  0  0  0  0  0  0
    0.1023   -2.0855    0.7292 C   0  0  0  0  0  3  0  0  0  0  0  0
    0.1021   -2.0955   -0.6921 C   0  0  0  0  0  3  0  0  0  0  0  0
   -0.7567   -1.2268   -1.4579 C   0  0  0  0  0  0  0  0  0  0  0  0
   -2.7242    0.6385   -0.7942 C   0  0  0  0  0  0  0  0  0  0  0  0
   -2.7228    0.6544    0.7848 C   0  0  0  0  0  0  0  0  0  0  0  0
   -0.6996   -1.1596    2.5752 H   0  0  0  0  0  0  0  0  0  0  0  0
    0.8200   -2.7227    1.2645 H   0  0  0  0  0  0  0  0  0  0  0  0
    0.8196   -2.7418   -1.2170 H   0  0  0  0  0  0  0  0  0  0  0  0
   -0.7062   -1.2087   -2.5551 H   0  0  0  0  0  0  0  0  0  0  0  0
   -3.6664    0.2653   -1.2431 H   0  0  0  0  0  0  0  0  0  0  0  0
   -2.4445    1.5940   -1.2782 H   0  0  0  0  0  0  0  0  0  0  0  0
   -3.6653    0.2938    1.2432 H   0  0  0  0  0  0  0  0  0  0  0  0
   -2.4393    1.6191    1.2480 H   0  0  0  0  0  0  0  0  0  0  0  0
  1  2  1  0  0  0  0
  2  8  1  0  0  0  0
  2  3  2  0  0  0  0
  3  9  1  0  0  0  0
  4 10  1  0  0  0  0
  4  3  1  0  0  0  0
  5  4  1  0  0  0  0
  6  1  2  0  0  0  0
  6  5  1  0  0  0  0
  7  1  1  0  0  0  0
  7  8  1  0  0  0  0
  8 15  1  0  0  0  0
  8 16  1  0  0  0  0
 11  5  1  0  0  0  0
 12  6  1  0  0  0  0
 13  7  1  0  0  0  0
 14  7  1  0  0  0  0
M  END
