2
q = -1.0

 51 53  0  0  1  0  0  0  0  0999 V2000
   -0.3851   -2.3189   -2.1376 C   0  0  0  0  0  0  0  0  0  0  0  0
   -0.6596   -1.0276   -1.4096 C   0  0  0  0  0  3  0  0  0  0  0  0
    0.0150   -0.6171   -0.2082 C   0  0  2  0  0  3  0  0  0  0  0  0
    0.9933   -1.5706    0.4571 C   0  0  0  0  0  0  0  0  0  0  0  0
    2.2917   -1.8046   -0.3002 C   0  0  0  0  0  0  0  0  0  0  0  0
    3.1520   -2.8338    0.1391 C   0  0  0  0  0  0  0  0  0  0  0  0
    4.3557   -3.1047   -0.5241 C   0  0  0  0  0  0  0  0  0  0  0  0
    4.7235   -2.3526   -1.6525 C   0  0  0  0  0  0  0  0  0  0  0  0
    3.8790   -1.3263   -2.0969 C   0  0  0  0  0  0  0  0  0  0  0  0
    2.6777   -1.0539   -1.4236 C   0  0  0  0  0  0  0  0  0  0  0  0
   -0.3432    0.6754    0.3461 C   0  0  2  0  0  3  0  0  0  0  0  0
   -0.6037    1.8738   -0.5241 C   0  0  0  0  0  0  0  0  0  0  0  0
   -1.3525    2.9676   -0.0209 C   0  0  0  0  0  0  0  0  0  0  0  0
   -1.5560    4.1279   -0.7762 C   0  0  0  0  0  0  0  0  0  0  0  0
   -1.0054    4.2425   -2.0650 C   0  0  0  0  0  0  0  0  0  0  0  0
   -0.2313    3.1868   -2.5685 C   0  0  0  0  0  0  0  0  0  0  0  0
   -0.0216    2.0280   -1.8044 C   0  0  0  0  0  0  0  0  0  0  0  0
    0.1229    1.0791    1.7433 C   0  0  0  0  0  0  0  0  0  0  0  0
    1.2892    2.0836    1.8336 C   0  0  2  0  0  0  0  0  0  0  0  0
    2.6004    1.6113    1.2308 C   0  0  0  0  0  0  0  0  0  0  0  0
    3.3749    0.6402    1.8969 C   0  0  0  0  0  0  0  0  0  0  0  0
    4.6074    0.2276    1.3725 C   0  0  0  0  0  0  0  0  0  0  0  0
    5.0915    0.7947    0.1826 C   0  0  0  0  0  0  0  0  0  0  0  0
    4.3325    1.7692   -0.4826 C   0  0  0  0  0  0  0  0  0  0  0  0
    3.0920    2.1708    0.0360 C   0  0  0  0  0  0  0  0  0  0  0  0
    1.4253    2.3352    3.2331 O   0  0  0  0  0  0  0  0  0  0  0  0
    2.2264    2.8801    3.3429 H   0  0  0  0  0  0  0  0  0  0  0  0
    0.4709   -2.2057   -2.8384 H   0  0  0  0  0  0  0  0  0  0  0  0
   -0.1399   -3.1559   -1.4579 H   0  0  0  0  0  0  0  0  0  0  0  0
   -1.2673   -2.6223   -2.7360 H   0  0  0  0  0  0  0  0  0  0  0  0
   -0.9989   -0.2151   -2.0717 H   0  0  0  0  0  0  0  0  0  0  0  0
    1.2430   -1.2103    1.4730 H   0  0  0  0  0  0  0  0  0  0  0  0
    0.5146   -2.5581    0.6113 H   0  0  0  0  0  0  0  0  0  0  0  0
    2.8655   -3.4339    1.0181 H   0  0  0  0  0  0  0  0  0  0  0  0
    5.0089   -3.9138   -0.1625 H   0  0  0  0  0  0  0  0  0  0  0  0
    5.6650   -2.5671   -2.1808 H   0  0  0  0  0  0  0  0  0  0  0  0
    4.1595   -0.7207   -2.9723 H   0  0  0  0  0  0  0  0  0  0  0  0
    2.0353   -0.2337   -1.7717 H   0  0  0  0  0  0  0  0  0  0  0  0
   -1.8009    2.8908    0.9807 H   0  0  0  0  0  0  0  0  0  0  0  0
   -2.1522    4.9522   -0.3556 H   0  0  0  0  0  0  0  0  0  0  0  0
   -1.1669    5.1521   -2.6625 H   0  0  0  0  0  0  0  0  0  0  0  0
    0.2341    3.2692   -3.5629 H   0  0  0  0  0  0  0  0  0  0  0  0
    0.6264    1.2349   -2.2007 H   0  0  0  0  0  0  0  0  0  0  0  0
    0.3888    0.1946    2.3504 H   0  0  0  0  0  0  0  0  0  0  0  0
   -0.7108    1.5578    2.2951 H   0  0  0  0  0  0  0  0  0  0  0  0
    0.9872    3.0133    1.2955 H   0  0  0  0  0  0  0  0  0  0  0  0
    3.0043    0.2241    2.8467 H   0  0  0  0  0  0  0  0  0  0  0  0
    5.1956   -0.5429    1.8931 H   0  0  0  0  0  0  0  0  0  0  0  0
    6.0577    0.4684   -0.2298 H   0  0  0  0  0  0  0  0  0  0  0  0
    4.7077    2.2182   -1.4152 H   0  0  0  0  0  0  0  0  0  0  0  0
    2.4950    2.9375   -0.4835 H   0  0  0  0  0  0  0  0  0  0  0  0
  1 29  1  0  0  0  0
  1  2  1  0  0  0  0
  3  2  1  1  0  0  0
  3 11  1  0  0  0  0
  3  4  1  0  0  0  0
  4 33  1  0  0  0  0
  4 32  1  0  0  0  0
  5  6  1  0  0  0  0
  5  4  1  0  0  0  0
  6 34  1  0  0  0  0
  7 35  1  0  0  0  0
  7  6  2  0  0  0  0
  8  7  1  0  0  0  0
  9  8  2  0  0  0  0
  9 10  1  0  0  0  0
 10  5  2  0  0  0  0
 11 18  1  1  0  0  0
 12 13  1  0  0  0  0
 12 11  1  0  0  0  0
 13 39  1  0  0  0  0
 14 40  1  0  0  0  0
 14 13  2  0  0  0  0
 15 14  1  0  0  0  0
 16 15  2  0  0  0  0
 16 17  1  0  0  0  0
 17 12  2  0  0  0  0
 18 19  1  0  0  0  0
 18 45  1  0  0  0  0
 18 44  1  0  0  0  0
 19 46  1  6  0  0  0
 19 26  1  0  0  0  0
 20 19  1  0  0  0  0
 20 21  1  0  0  0  0
 21 47  1  0  0  0  0
 22 48  1  0  0  0  0
 22 21  2  0  0  0  0
 23 22  1  0  0  0  0
 24 25  1  0  0  0  0
 24 23  2  0  0  0  0
 25 20  2  0  0  0  0
 26 27  1  0  0  0  0
 28  1  1  0  0  0  0
 30  1  1  0  0  0  0
 31  2  1  0  0  0  0
 36  8  1  0  0  0  0
 37  9  1  0  0  0  0
 38 10  1  0  0  0  0
 41 15  1  0  0  0  0
 42 16  1  0  0  0  0
 43 17  1  0  0  0  0
 49 23  1  0  0  0  0
 50 24  1  0  0  0  0
 51 25  1  0  0  0  0
M  END
