11
q = -1.0, confidence = 0.0

 23 24  0  0  0  0  0  0  0  0999 V2000
    5.7447   -0.1040    1.4131 O   0  0  0  0  0  0  0  0  0  0  0  0
    3.7001    0.0652   -2.7498 O   0  0  0  0  0  0  0  0  0  0  0  0
    4.7107   -0.0353   -0.6487 N   0  0  0  0  0  0  0  0  0  0  0  0
    3.4507   -0.0894    1.3824 N   0  0  0  0  0  0  0  0  0  0  0  0
    1.0140   -0.0120   -1.1714 N   0  0  0  0  0  0  0  0  0  0  0  0
    1.0171   -0.0628    1.0773 N   0  0  0  0  0  0  0  0  0  0  0  0
    4.7048   -0.0798    0.7597 C   0  0  0  0  0  0  0  0  0  0  0  0
    2.2996   -0.0690    0.6223 C   0  0  0  0  0  0  0  0  0  0  0  0
    2.3526   -0.0419   -0.7723 C   0  0  0  0  0  0  0  0  0  0  0  0
    3.5739    0.0012   -1.5210 C   0  0  0  0  0  0  0  0  0  0  0  0
    0.2350   -0.0284   -0.0329 C   0  0  0  0  0  3  0  0  0  0  0  0
    6.0342   -0.0110   -1.2616 C   0  0  0  0  0  0  0  0  0  0  0  0
    6.6055    0.8725   -0.9150 H   0  0  0  0  0  0  0  0  0  0  0  0
    5.8836    0.0278   -2.3546 H   0  0  0  0  0  0  0  0  0  0  0  0
    6.6086   -0.9143   -0.9770 H   0  0  0  0  0  0  0  0  0  0  0  0
    3.4064   -0.1237    2.8367 C   0  0  0  0  0  0  0  0  0  0  0  0
    2.3457   -0.0693    3.1396 H   0  0  0  0  0  0  0  0  0  0  0  0
    3.9743    0.7283    3.2589 H   0  0  0  0  0  0  0  0  0  0  0  0
    3.8662   -1.0567    3.2199 H   0  0  0  0  0  0  0  0  0  0  0  0
    0.5403   -0.0254   -2.5428 C   0  0  0  0  0  0  0  0  0  0  0  0
   -0.3450    0.6341   -2.6348 H   0  0  0  0  0  0  0  0  0  0  0  0
    0.2409   -1.0486   -2.8555 H   0  0  0  0  0  0  0  0  0  0  0  0
    1.3591    0.3159   -3.2025 H   0  0  0  0  0  0  0  0  0  0  0  0
  2 10  2  0  0  0  0
  3  7  1  0  0  0  0
  4 16  1  0  0  0  0
  5  9  1  0  0  0  0
  5 11  1  0  0  0  0
  7  4  1  0  0  0  0
  7  1  2  0  0  0  0
  8  6  1  0  0  0  0
  8  4  1  0  0  0  0
  9  8  2  0  0  0  0
 10  9  1  0  0  0  0
 10  3  1  0  0  0  0
 11  6  2  0  0  0  0
 12 15  1  0  0  0  0
 12 13  1  0  0  0  0
 12  3  1  0  0  0  0
 14 12  1  0  0  0  0
 16 17  1  0  0  0  0
 16 19  1  0  0  0  0
 16 18  1  0  0  0  0
 20  5  1  0  0  0  0
 21 20  1  0  0  0  0
 22 20  1  0  0  0  0
 23 20  1  0  0  0  0
M  END
