1
q = -1.0

 24 23  0  0  1  0  0  0  0  0999 V2000
    1.3403    1.6527   -1.1258 C   0  0  0  0  0  3  0  0  0  0  0  0
    0.0932    2.2906   -1.4251 C   0  0  2  0  0  3  0  0  0  0  0  0
   -0.9273    2.4203   -0.4577 C   0  0  1  0  0  3  0  0  0  0  0  0
   -0.7008    2.2281    0.9983 C   0  0  0  0  0  0  0  0  0  0  0  0
   -1.5563    1.3763    1.6805 C   0  0  0  0  0  0  0  0  0  0  0  0
   -1.7257    1.2663    3.1630 C   0  0  0  0  0  0  0  0  0  0  0  0
   -0.2098    2.6472   -2.8595 C   0  0  0  0  0  0  0  0  0  0  0  0
   -2.2981    2.9253   -0.8627 C   0  0  0  0  0  0  0  0  0  0  0  0
    0.3068    3.1090    1.7035 C   0  0  0  0  0  0  0  0  0  0  0  0
    1.7935    1.8750   -0.1446 H   0  0  0  0  0  0  0  0  0  0  0  0
    2.0833    1.5773   -1.9317 H   0  0  0  0  0  0  0  0  0  0  0  0
   -2.3473    0.8941    1.0784 H   0  0  0  0  0  0  0  0  0  0  0  0
   -2.6773    1.7621    3.4574 H   0  0  0  0  0  0  0  0  0  0  0  0
   -1.8143    0.2141    3.5013 H   0  0  0  0  0  0  0  0  0  0  0  0
   -0.9165    1.7563    3.7357 H   0  0  0  0  0  0  0  0  0  0  0  0
   -0.3858    3.7409   -2.9353 H   0  0  0  0  0  0  0  0  0  0  0  0
    0.6318    2.3934   -3.5293 H   0  0  0  0  0  0  0  0  0  0  0  0
   -1.1281    2.1631   -3.2479 H   0  0  0  0  0  0  0  0  0  0  0  0
   -2.2538    4.0293   -0.9945 H   0  0  0  0  0  0  0  0  0  0  0  0
   -2.6641    2.5148   -1.8231 H   0  0  0  0  0  0  0  0  0  0  0  0
   -3.0597    2.7276   -0.0879 H   0  0  0  0  0  0  0  0  0  0  0  0
   -0.2230    4.0375    2.0085 H   0  0  0  0  0  0  0  0  0  0  0  0
    0.7306    2.6610    2.6207 H   0  0  0  0  0  0  0  0  0  0  0  0
    1.1299    3.4241    1.0369 H   0  0  0  0  0  0  0  0  0  0  0  0
  1 10  1  0  0  0  0
  2  1  1  6  0  0  0
  2  3  1  0  0  0  0
  3  4  1  1  0  0  0
  4  5  2  0  0  0  0
  4  9  1  0  0  0  0
  5  6  1  0  0  0  0
  6 13  1  0  0  0  0
  6 14  1  0  0  0  0
  6 15  1  0  0  0  0
  7  2  1  0  0  0  0
  8  3  1  0  0  0  0
  8 21  1  0  0  0  0
  9 22  1  0  0  0  0
  9 23  1  0  0  0  0
 11  1  1  0  0  0  0
 12  5  1  0  0  0  0
 16  7  1  0  0  0  0
 17  7  1  0  0  0  0
 18  7  1  0  0  0  0
 19  8  1  0  0  0  0
 20  8  1  0  0  0  0
 24  9  1  0  0  0  0
M  END
