10
q = 0.0, confidence = 1.0

 56 59  0  0  1  0  0  0  0  0999 V2000
    2.6356    0.1141    0.5295 P   0  0  0  0  0  0  0  0  0  0  0  0
   -4.0268   -0.8439   -0.6311 N   0  0  0  0  0  0  0  0  0  0  0  0
   -3.1503    0.1642   -0.6456 N   0  0  0  0  0  0  0  0  0  0  0  0
   -6.8011   -1.6602   -1.2968 F   0  0  0  0  0  0  0  0  0  0  0  0
   -7.4502   -0.3952    0.3638 F   0  0  0  0  0  0  0  0  0  0  0  0
   -6.2434   -2.1799    0.7424 F   0  0  0  0  0  0  0  0  0  0  0  0
   -1.9759    2.6133    0.7545 F   0  0  0  0  0  0  0  0  0  0  0  0
   -2.3984    2.9846   -1.3518 F   0  0  0  0  0  0  0  0  0  0  0  0
   -3.8137    3.6464    0.1800 F   0  0  0  0  0  0  0  0  0  0  0  0
    0.4369   -1.0336    2.0688 C   0  0  1  0  0  3  0  0  0  0  0  0
   -0.4039   -0.2815    1.1606 C   0  0  0  0  0  0  0  0  0  0  0  0
   -1.0642   -0.9338    0.0751 C   0  0  0  0  0  0  0  0  0  0  0  0
   -1.0554   -2.3821   -0.0091 C   0  0  0  0  0  0  0  0  0  0  0  0
   -0.2742   -3.1218    0.8973 C   0  0  0  0  0  0  0  0  0  0  0  0
    0.5040   -2.4548    1.9157 C   0  0  0  0  0  3  0  0  0  0  0  0
    1.3981   -0.2895    2.9897 C   0  0  0  0  0  0  0  0  0  0  0  0
    2.8066   -0.1727    2.3631 C   0  0  0  0  0  0  0  0  0  0  0  0
   -1.7534   -0.1102   -0.9869 C   0  0  0  0  0  0  0  0  0  0  0  0
   -3.7186    1.3525   -0.2533 C   0  0  0  0  0  0  0  0  0  0  0  0
   -5.0582    1.0866    0.0251 C   0  0  0  0  0  0  0  0  0  0  0  0
   -5.1853   -0.2992   -0.2284 C   0  0  0  0  0  0  0  0  0  0  0  0
   -6.4234   -1.1444   -0.1064 C   0  0  0  0  0  0  0  0  0  0  0  0
   -2.9787    2.6514   -0.1687 C   0  0  0  0  0  0  0  0  0  0  0  0
    2.0130    1.8374    0.3464 C   0  0  0  0  0  0  0  0  0  0  0  0
    2.0863    2.7871    1.3847 C   0  0  0  0  0  0  0  0  0  0  0  0
    1.5484    4.0719    1.2039 C   0  0  0  0  0  0  0  0  0  0  0  0
    0.9430    4.4175   -0.0133 C   0  0  0  0  0  0  0  0  0  0  0  0
    0.8840    3.4782   -1.0564 C   0  0  0  0  0  0  0  0  0  0  0  0
    1.4131    2.1921   -0.8821 C   0  0  0  0  0  0  0  0  0  0  0  0
    4.3188    0.1676   -0.1796 C   0  0  0  0  0  0  0  0  0  0  0  0
    5.3590    0.8148    0.5178 C   0  0  0  0  0  0  0  0  0  0  0  0
    6.6368    0.8984   -0.0539 C   0  0  0  0  0  0  0  0  0  0  0  0
    6.8740    0.3480   -1.3238 C   0  0  0  0  0  0  0  0  0  0  0  0
    5.8326   -0.2844   -2.0214 C   0  0  0  0  0  0  0  0  0  0  0  0
    4.5530   -0.3819   -1.4557 C   0  0  0  0  0  0  0  0  0  0  0  0
   -0.4223    0.8165    1.2188 H   0  0  0  0  0  0  0  0  0  0  0  0
   -1.5557   -2.8779   -0.8521 H   0  0  0  0  0  0  0  0  0  0  0  0
   -0.1505   -4.2049    0.7544 H   0  0  0  0  0  0  0  0  0  0  0  0
    1.2032   -3.0391    2.5306 H   0  0  0  0  0  0  0  0  0  0  0  0
    1.4667   -0.8103    3.9662 H   0  0  0  0  0  0  0  0  0  0  0  0
    0.9874    0.7200    3.1913 H   0  0  0  0  0  0  0  0  0  0  0  0
    3.3417   -1.1444    2.4105 H   0  0  0  0  0  0  0  0  0  0  0  0
    3.4351    0.5810    2.8805 H   0  0  0  0  0  0  0  0  0  0  0  0
   -1.2306    0.8512   -1.1266 H   0  0  0  0  0  0  0  0  0  0  0  0
   -1.7217   -0.6427   -1.9557 H   0  0  0  0  0  0  0  0  0  0  0  0
   -5.8240    1.7942    0.3539 H   0  0  0  0  0  0  0  0  0  0  0  0
    2.5607    2.5338    2.3448 H   0  0  0  0  0  0  0  0  0  0  0  0
    1.6017    4.8050    2.0231 H   0  0  0  0  0  0  0  0  0  0  0  0
    0.5147    5.4220   -0.1496 H   0  0  0  0  0  0  0  0  0  0  0  0
    0.4071    3.7446   -2.0114 H   0  0  0  0  0  0  0  0  0  0  0  0
    1.3473    1.4374   -1.6851 H   0  0  0  0  0  0  0  0  0  0  0  0
    5.1790    1.2627    1.5073 H   0  0  0  0  0  0  0  0  0  0  0  0
    7.4493    1.3984    0.4947 H   0  0  0  0  0  0  0  0  0  0  0  0
    7.8772    0.4146   -1.7718 H   0  0  0  0  0  0  0  0  0  0  0  0
    6.0169   -0.7158   -3.0168 H   0  0  0  0  0  0  0  0  0  0  0  0
    3.7291   -0.8795   -1.9893 H   0  0  0  0  0  0  0  0  0  0  0  0
  1 17  1  0  0  0  0
  2 21  2  0  0  0  0
  3  2  1  0  0  0  0
  3 19  1  0  0  0  0
  4 22  1  0  0  0  0
  8 23  1  0  0  0  0
 10 16  1  6  0  0  0
 11 36  1  0  0  0  0
 11 10  1  0  0  0  0
 12 11  2  0  0  0  0
 13 12  1  0  0  0  0
 13 14  2  0  0  0  0
 14 15  1  0  0  0  0
 15 10  1  0  0  0  0
 15 39  1  0  0  0  0
 16 41  1  0  0  0  0
 16 40  1  0  0  0  0
 17 42  1  0  0  0  0
 17 43  1  0  0  0  0
 17 16  1  0  0  0  0
 18  3  1  0  0  0  0
 18 12  1  0  0  0  0
 19 23  1  0  0  0  0
 19 20  2  0  0  0  0
 20 46  1  0  0  0  0
 21 22  1  0  0  0  0
 21 20  1  0  0  0  0
 22  5  1  0  0  0  0
 22  6  1  0  0  0  0
 23  9  1  0  0  0  0
 23  7  1  0  0  0  0
 24  1  1  0  0  0  0
 24 25  1  0  0  0  0
 25 47  1  0  0  0  0
 26 25  2  0  0  0  0
 26 48  1  0  0  0  0
 27 26  1  0  0  0  0
 28 29  1  0  0  0  0
 28 27  2  0  0  0  0
 29 24  2  0  0  0  0
 30 31  1  0  0  0  0
 30  1  1  0  0  0  0
 31 52  1  0  0  0  0
 32 53  1  0  0  0  0
 32 31  2  0  0  0  0
 33 32  1  0  0  0  0
 34 35  1  0  0  0  0
 34 33  2  0  0  0  0
 35 30  2  0  0  0  0
 37 13  1  0  0  0  0
 38 14  1  0  0  0  0
 44 18  1  0  0  0  0
 45 18  1  0  0  0  0
 49 27  1  0  0  0  0
 50 28  1  0  0  0  0
 51 29  1  0  0  0  0
 54 33  1  0  0  0  0
 55 34  1  0  0  0  0
 56 35  1  0  0  0  0
M  END
