12
q = -2.0, confidence = 0.81

 43 46  0  0  1  0  0  0  0  0999 V2000
    1.2913   -0.7428    2.0497 O   0  0  0  0  0  0  0  0  0  0  0  0
    1.0455   -2.0954    2.4863 C   0  0  0  0  0  0  0  0  0  0  0  0
    1.3874   -3.0269    1.3200 C   0  0  0  0  0  0  0  0  0  0  0  0
    0.7217   -2.5980    0.0396 C   0  0  1  0  0  3  0  0  0  0  0  0
   -0.6998   -2.5582   -0.1973 C   0  0  0  0  0  0  0  0  0  0  0  0
   -1.8131   -3.0069    0.5661 C   0  0  0  0  0  0  0  0  0  0  0  0
   -3.0971   -2.8391    0.0593 C   0  0  0  0  0  0  0  0  0  0  0  0
   -3.3109   -2.2258   -1.2085 C   0  0  0  0  0  0  0  0  0  0  0  0
   -2.2445   -1.7831   -1.9838 C   0  0  0  0  0  0  0  0  0  0  0  0
   -0.9160   -1.9422   -1.5000 C   0  0  0  0  0  0  0  0  0  0  0  0
    0.3721   -1.6087   -2.0440 C   0  0  0  0  0  3  0  0  0  0  0  0
    1.3564   -2.0582   -1.1155 C   0  0  0  0  0  3  0  0  0  0  0  0
    1.3991    0.2661    3.0776 C   0  0  0  0  0  0  0  0  0  0  0  0
    2.2769    1.4000    2.5304 C   0  0  0  0  0  0  0  0  0  0  0  0
    1.9418    1.7480    1.1031 C   0  0  0  0  0  0  0  0  0  0  0  0
    2.6374    1.2544   -0.0596 C   0  0  0  0  0  0  0  0  0  0  0  0
    3.8032    0.4502   -0.2158 C   0  0  0  0  0  0  0  0  0  0  0  0
    4.2571    0.1511   -1.4954 C   0  0  0  0  0  0  0  0  0  0  0  0
    3.5592    0.6118   -2.6515 C   0  0  0  0  0  0  0  0  0  0  0  0
    2.4066    1.3798   -2.5366 C   0  0  0  0  0  0  0  0  0  0  0  0
    1.9245    1.7273   -1.2409 C   0  0  0  0  0  0  0  0  0  0  0  0
    0.7990    2.4948   -0.7854 C   0  0  0  0  0  0  0  0  0  0  0  0
    0.8483    2.5326    0.6368 C   0  0  0  0  0  3  0  0  0  0  0  0
    1.6804   -2.3028    3.3758 H   0  0  0  0  0  0  0  0  0  0  0  0
   -0.0213   -2.1916    2.7899 H   0  0  0  0  0  0  0  0  0  0  0  0
    2.4874   -3.0399    1.1805 H   0  0  0  0  0  0  0  0  0  0  0  0
    1.0864   -4.0571    1.6130 H   0  0  0  0  0  0  0  0  0  0  0  0
   -1.6617   -3.4964    1.5408 H   0  0  0  0  0  0  0  0  0  0  0  0
   -3.9640   -3.1877    0.6405 H   0  0  0  0  0  0  0  0  0  0  0  0
   -4.3398   -2.1100   -1.5818 H   0  0  0  0  0  0  0  0  0  0  0  0
   -2.4183   -1.3324   -2.9727 H   0  0  0  0  0  0  0  0  0  0  0  0
    0.5710   -1.1782   -3.0333 H   0  0  0  0  0  0  0  0  0  0  0  0
    2.4417   -1.9441   -1.2422 H   0  0  0  0  0  0  0  0  0  0  0  0
    0.3779    0.6285    3.3325 H   0  0  0  0  0  0  0  0  0  0  0  0
    1.8416   -0.1951    3.9875 H   0  0  0  0  0  0  0  0  0  0  0  0
    3.3415    1.0965    2.5962 H   0  0  0  0  0  0  0  0  0  0  0  0
    2.1538    2.2791    3.1973 H   0  0  0  0  0  0  0  0  0  0  0  0
    4.3490    0.0868    0.6689 H   0  0  0  0  0  0  0  0  0  0  0  0
    5.1690   -0.4517   -1.6235 H   0  0  0  0  0  0  0  0  0  0  0  0
    3.9453    0.3543   -3.6493 H   0  0  0  0  0  0  0  0  0  0  0  0
    1.8777    1.7377   -3.4337 H   0  0  0  0  0  0  0  0  0  0  0  0
    0.0816    3.0301   -1.4195 H   0  0  0  0  0  0  0  0  0  0  0  0
    0.1293    3.0567    1.2790 H   0  0  0  0  0  0  0  0  0  0  0  0
  1  2  1  0  0  0  0
  1 13  1  0  0  0  0
  2 25  1  0  0  0  0
  2 24  1  0  0  0  0
  3 27  1  0  0  0  0
  3  2  1  0  0  0  0
  4  3  1  1  0  0  0
  5  4  1  0  0  0  0
  5  6  1  0  0  0  0
  6 28  1  0  0  0  0
  7  6  2  0  0  0  0
  7 29  1  0  0  0  0
  8  7  1  0  0  0  0
  9 10  1  0  0  0  0
  9  8  2  0  0  0  0
 10  5  2  0  0  0  0
 11 10  1  0  0  0  0
 11 12  1  0  0  0  0
 12  4  1  0  0  0  0
 13 34  1  0  0  0  0
 13 35  1  0  0  0  0
 14 36  1  0  0  0  0
 14 13  1  0  0  0  0
 14 37  1  0  0  0  0
 15 14  1  0  0  0  0
 16 15  2  0  0  0  0
 17 16  1  0  0  0  0
 17 38  1  0  0  0  0
 18 17  2  0  0  0  0
 19 20  2  0  0  0  0
 19 18  1  0  0  0  0
 20 21  1  0  0  0  0
 21 22  2  0  0  0  0
 21 16  1  0  0  0  0
 22 23  1  0  0  0  0
 23 15  1  0  0  0  0
 23 43  1  0  0  0  0
 26  3  1  0  0  0  0
 30  8  1  0  0  0  0
 31  9  1  0  0  0  0
 32 11  1  0  0  0  0
 33 12  1  0  0  0  0
 39 18  1  0  0  0  0
 40 19  1  0  0  0  0
 41 20  1  0  0  0  0
 42 22  1  0  0  0  0
M  END
