3
q = -1.0

 56 59  0  0  0  0  0  0  0  0999 V2000
    3.5275   -1.4964    0.5026 N   0  0  0  0  0  0  0  0  0  0  0  0
   -1.0868    0.3146    0.9165 C   0  0  0  0  0  3  0  0  0  0  0  0
    0.1866   -0.1113    1.4198 C   0  0  0  0  0  3  0  0  0  0  0  0
    1.2432   -0.5860    0.5884 C   0  0  0  0  0  3  0  0  0  0  0  0
    2.5612   -0.8550    1.2487 C   0  0  0  0  0  0  0  0  0  0  0  0
    3.4393   -1.9309   -0.8878 C   0  0  0  0  0  0  0  0  0  0  0  0
    4.6269   -1.3739   -1.6801 C   0  0  0  0  0  0  0  0  0  0  0  0
    5.9433   -1.2272    0.2427 C   0  0  0  0  0  0  0  0  0  0  0  0
    4.8195   -1.7873    1.1158 C   0  0  0  0  0  0  0  0  0  0  0  0
   -2.0787   -0.5393    0.0799 C   0  0  0  0  0  0  0  0  0  0  0  0
   -3.1329    0.3650   -0.6029 C   0  0  0  0  0  0  0  0  0  0  0  0
   -3.6528    1.4868    0.0758 C   0  0  0  0  0  0  0  0  0  0  0  0
   -4.6468    2.2897   -0.4984 C   0  0  0  0  0  0  0  0  0  0  0  0
   -5.1608    1.9831   -1.7674 C   0  0  0  0  0  0  0  0  0  0  0  0
   -4.6771    0.8547   -2.4427 C   0  0  0  0  0  0  0  0  0  0  0  0
   -3.6792    0.0548   -1.8642 C   0  0  0  0  0  0  0  0  0  0  0  0
   -2.8813   -1.4403    1.0745 C   0  0  0  0  0  0  0  0  0  0  0  0
   -4.0714   -2.0616    0.6356 C   0  0  0  0  0  0  0  0  0  0  0  0
   -4.7990   -2.9160    1.4732 C   0  0  0  0  0  0  0  0  0  0  0  0
   -4.3606   -3.1684    2.7832 C   0  0  0  0  0  0  0  0  0  0  0  0
   -3.1830   -2.5595    3.2348 C   0  0  0  0  0  0  0  0  0  0  0  0
   -2.4518   -1.7074    2.3893 C   0  0  0  0  0  0  0  0  0  0  0  0
   -1.3242   -1.4442   -0.9154 C   0  0  0  0  0  0  0  0  0  0  0  0
   -1.0395   -2.7899   -0.6027 C   0  0  0  0  0  0  0  0  0  0  0  0
   -0.2520   -3.5835   -1.4518 C   0  0  0  0  0  0  0  0  0  0  0  0
    0.2665   -3.0491   -2.6405 C   0  0  0  0  0  0  0  0  0  0  0  0
   -0.0231   -1.7166   -2.9759 C   0  0  0  0  0  0  0  0  0  0  0  0
   -0.8118   -0.9268   -2.1259 C   0  0  0  0  0  0  0  0  0  0  0  0
    2.7768   -0.5284    2.4289 O   0  0  0  0  0  0  0  0  0  0  0  0
    5.8671   -1.7196   -1.0852 O   0  0  0  0  0  0  0  0  0  0  0  0
   -1.6479    0.8721    1.6854 H   0  0  0  0  0  0  0  0  0  0  0  0
    0.4580    0.0709    2.4742 H   0  0  0  0  0  0  0  0  0  0  0  0
    0.9961   -1.1392   -0.3211 H   0  0  0  0  0  0  0  0  0  0  0  0
    2.4964   -1.6004   -1.3539 H   0  0  0  0  0  0  0  0  0  0  0  0
    3.4630   -3.0446   -0.9249 H   0  0  0  0  0  0  0  0  0  0  0  0
    4.6300   -1.7928   -2.7062 H   0  0  0  0  0  0  0  0  0  0  0  0
    4.5204   -0.2643   -1.7573 H   0  0  0  0  0  0  0  0  0  0  0  0
    5.8865   -0.1091    0.2475 H   0  0  0  0  0  0  0  0  0  0  0  0
    6.9326   -1.5276    0.6429 H   0  0  0  0  0  0  0  0  0  0  0  0
    4.9424   -2.8907    1.2092 H   0  0  0  0  0  0  0  0  0  0  0  0
    4.8177   -1.3417    2.1283 H   0  0  0  0  0  0  0  0  0  0  0  0
   -3.2806    1.7488    1.0757 H   0  0  0  0  0  0  0  0  0  0  0  0
   -5.0239    3.1641    0.0539 H   0  0  0  0  0  0  0  0  0  0  0  0
   -5.9370    2.6164   -2.2228 H   0  0  0  0  0  0  0  0  0  0  0  0
   -5.0757    0.5895   -3.4338 H   0  0  0  0  0  0  0  0  0  0  0  0
   -3.3182   -0.8264   -2.4125 H   0  0  0  0  0  0  0  0  0  0  0  0
   -4.4367   -1.8711   -0.3831 H   0  0  0  0  0  0  0  0  0  0  0  0
   -5.7215   -3.3854    1.0984 H   0  0  0  0  0  0  0  0  0  0  0  0
   -4.9342   -3.8346    3.4454 H   0  0  0  0  0  0  0  0  0  0  0  0
   -2.8192   -2.7472    4.2568 H   0  0  0  0  0  0  0  0  0  0  0  0
   -1.5227   -1.2639    2.7684 H   0  0  0  0  0  0  0  0  0  0  0  0
   -1.4253   -3.2223    0.3304 H   0  0  0  0  0  0  0  0  0  0  0  0
   -0.0418   -4.6282   -1.1761 H   0  0  0  0  0  0  0  0  0  0  0  0
    0.8868   -3.6684   -3.3064 H   0  0  0  0  0  0  0  0  0  0  0  0
    0.3723   -1.2786   -3.9046 H   0  0  0  0  0  0  0  0  0  0  0  0
   -1.0305    0.1075   -2.4147 H   0  0  0  0  0  0  0  0  0  0  0  0
  1  9  1  0  0  0  0
  1  5  1  0  0  0  0
  2  3  1  0  0  0  0
  2 31  1  0  0  0  0
  3 32  1  0  0  0  0
  4  5  1  0  0  0  0
  4  3  1  0  0  0  0
  5 29  2  0  0  0  0
  6  1  1  0  0  0  0
  7 30  1  0  0  0  0
  7  6  1  0  0  0  0
  8 38  1  0  0  0  0
  8 39  1  0  0  0  0
  8  9  1  0  0  0  0
  9 40  1  0  0  0  0
  9 41  1  0  0  0  0
 10  2  1  0  0  0  0
 10 17  1  0  0  0  0
 11 12  1  0  0  0  0
 11 10  1  0  0  0  0
 12 42  1  0  0  0  0
 13 43  1  0  0  0  0
 13 12  2  0  0  0  0
 14 13  1  0  0  0  0
 15 16  1  0  0  0  0
 15 14  2  0  0  0  0
 16 11  2  0  0  0  0
 17 22  1  0  0  0  0
 18 17  2  0  0  0  0
 18 19  1  0  0  0  0
 19 20  2  0  0  0  0
 20 21  1  0  0  0  0
 20 49  1  0  0  0  0
 21 50  1  0  0  0  0
 22 51  1  0  0  0  0
 22 21  2  0  0  0  0
 23 24  1  0  0  0  0
 23 10  1  0  0  0  0
 24 52  1  0  0  0  0
 25 53  1  0  0  0  0
 25 24  2  0  0  0  0
 26 25  1  0  0  0  0
 27 26  2  0  0  0  0
 27 28  1  0  0  0  0
 28 23  2  0  0  0  0
 30  8  1  0  0  0  0
 33  4  1  0  0  0  0
 34  6  1  0  0  0  0
 35  6  1  0  0  0  0
 36  7  1  0  0  0  0
 37  7  1  0  0  0  0
 44 14  1  0  0  0  0
 45 15  1  0  0  0  0
 46 16  1  0  0  0  0
 47 18  1  0  0  0  0
 48 19  1  0  0  0  0
 54 26  1  0  0  0  0
 55 27  1  0  0  0  0
 56 28  1  0  0  0  0
M  END
