11
q = 0.0, confidence = 0.918

 31 32  0  0  0  0  0  0  0  0999 V2000
    1.6906    0.6099   -0.2242 O   0  0  0  0  0  0  0  0  0  0  0  0
    1.9739   -1.1065   -1.7080 O   0  0  0  0  0  0  0  0  0  0  0  0
    7.9450   -0.2808    0.4243 O   0  0  0  0  0  0  0  0  0  0  0  0
   -0.6930    1.3629   -0.4061 C   0  0  0  0  0  3  0  0  0  0  0  0
    0.2714    3.5669   -1.0269 C   0  0  0  0  0  0  0  0  0  0  0  0
    0.1222    4.9163   -1.3661 C   0  0  0  0  0  0  0  0  0  0  0  0
    6.6164   -0.2286    0.1726 C   0  0  0  0  0  0  0  0  0  0  0  0
   -1.1624    5.4812   -1.4551 C   0  0  0  0  0  0  0  0  0  0  0  0
   -2.2967    4.6893   -1.2062 C   0  0  0  0  0  0  0  0  0  0  0  0
   -2.1563    3.3373   -0.8691 C   0  0  0  0  0  0  0  0  0  0  0  0
    0.3369    0.5109   -0.2086 C   0  0  0  0  0  3  0  0  0  0  0  0
   -0.8671    2.7571   -0.7730 C   0  0  0  0  0  0  0  0  0  0  0  0
    2.4558   -0.3539   -0.8836 C   0  0  0  0  0  0  0  0  0  0  0  0
    5.7107    0.6305    0.8358 C   0  0  0  0  0  0  0  0  0  0  0  0
    8.4872    0.5719    1.4196 C   0  0  0  0  0  0  0  0  0  0  0  0
    3.8770   -0.2741   -0.4997 C   0  0  0  0  0  0  0  0  0  0  0  0
    4.7920   -1.1305   -1.1577 C   0  0  0  0  0  0  0  0  0  0  0  0
    4.3540    0.6015    0.4963 C   0  0  0  0  0  0  0  0  0  0  0  0
    6.1423   -1.1104   -0.8289 C   0  0  0  0  0  0  0  0  0  0  0  0
    1.2730    3.1174   -0.9522 H   0  0  0  0  0  0  0  0  0  0  0  0
    1.0114    5.5350   -1.5623 H   0  0  0  0  0  0  0  0  0  0  0  0
   -1.2785    6.5433   -1.7210 H   0  0  0  0  0  0  0  0  0  0  0  0
   -3.3020    5.1318   -1.2797 H   0  0  0  0  0  0  0  0  0  0  0  0
   -3.0269    2.6881   -0.6859 H   0  0  0  0  0  0  0  0  0  0  0  0
    6.0558    1.3206    1.6166 H   0  0  0  0  0  0  0  0  0  0  0  0
    9.5712    0.3591    1.4541 H   0  0  0  0  0  0  0  0  0  0  0  0
    8.3357    1.6452    1.1694 H   0  0  0  0  0  0  0  0  0  0  0  0
    8.0453    0.3694    2.4202 H   0  0  0  0  0  0  0  0  0  0  0  0
    4.4081   -1.8122   -1.9303 H   0  0  0  0  0  0  0  0  0  0  0  0
    3.6478    1.2664    1.0125 H   0  0  0  0  0  0  0  0  0  0  0  0
    6.8677   -1.7691   -1.3272 H   0  0  0  0  0  0  0  0  0  0  0  0
  1 11  1  0  0  0  0
  2 13  2  0  0  0  0
  3 15  1  0  0  0  0
  4 11  2  0  0  0  0
  5 20  1  0  0  0  0
  5 12  1  0  0  0  0
  6  5  2  0  0  0  0
  7  3  1  0  0  0  0
  7 14  1  0  0  0  0
  8  6  1  0  0  0  0
  8  9  2  0  0  0  0
  9 10  1  0  0  0  0
 10 12  2  0  0  0  0
 10 24  1  0  0  0  0
 12  4  1  0  0  0  0
 13 16  1  0  0  0  0
 13  1  1  0  0  0  0
 14 25  1  0  0  0  0
 15 26  1  0  0  0  0
 15 28  1  0  0  0  0
 16 18  1  0  0  0  0
 17 19  1  0  0  0  0
 17 16  2  0  0  0  0
 18 14  2  0  0  0  0
 18 30  1  0  0  0  0
 19  7  2  0  0  0  0
 21  6  1  0  0  0  0
 22  8  1  0  0  0  0
 23  9  1  0  0  0  0
 27 15  1  0  0  0  0
 29 17  1  0  0  0  0
 31 19  1  0  0  0  0
M  END
