5
q = 0.0, confidence = 0.904

 70 73  0  0  0  0  0  0  0  0999 V2000
    2.3322   -1.0228    0.1117 P   0  0  0  0  0  0  0  0  0  0  0  0
   -2.3323   -1.0227    0.1112 P   0  0  0  0  0  0  0  0  0  0  0  0
    1.5842    3.2185   -0.3599 S   0  0  0  0  0  0  0  0  0  0  0  0
   -1.5837    3.2187   -0.3583 S   0  0  0  0  0  0  0  0  0  0  0  0
    0.0000    0.8245   -0.5860 C   0  0  0  0  0  3  0  0  0  0  0  0
   -0.0001    0.1239   -1.7055 O   0  0  0  0  0  1  0  0  0  0  0  0
    3.1926   -1.5744    1.6740 C   0  0  0  0  0  0  0  0  0  0  0  0
    4.2765   -1.3918    1.5096 H   0  0  0  0  0  0  0  0  0  0  0  0
    5.0068    1.3543    0.4095 C   0  0  0  0  0  0  0  0  0  0  0  0
    5.3133    0.3094    0.5569 H   0  0  0  0  0  0  0  0  0  0  0  0
    1.3227    1.4879   -0.2467 C   0  0  0  0  0  0  0  0  0  0  0  0
    5.5735    3.7308    0.3209 C   0  0  0  0  0  0  0  0  0  0  0  0
    6.3311    4.5248    0.3970 H   0  0  0  0  0  0  0  0  0  0  0  0
   -3.6534    1.6598    0.1245 C   0  0  0  0  0  0  0  0  0  0  0  0
   -3.2982    3.0348   -0.0460 C   0  0  0  0  0  0  0  0  0  0  0  0
    2.5016    0.7950    0.0058 C   0  0  0  0  0  0  0  0  0  0  0  0
   -3.2289   -1.7981   -1.3383 C   0  0  0  0  0  0  0  0  0  0  0  0
   -2.6801   -2.7645   -1.4208 H   0  0  0  0  0  0  0  0  0  0  0  0
    3.2985    3.0346   -0.0470 C   0  0  0  0  0  0  0  0  0  0  0  0
   -5.5731    3.7312    0.3217 C   0  0  0  0  0  0  0  0  0  0  0  0
   -6.3307    4.5252    0.3982 H   0  0  0  0  0  0  0  0  0  0  0  0
    4.2442    4.0698    0.0484 C   0  0  0  0  0  0  0  0  0  0  0  0
    3.9448    5.1192   -0.0890 H   0  0  0  0  0  0  0  0  0  0  0  0
   -2.5016    0.7951    0.0055 C   0  0  0  0  0  0  0  0  0  0  0  0
    3.2291   -1.7984   -1.3375 C   0  0  0  0  0  0  0  0  0  0  0  0
    2.6804   -2.7648   -1.4199 H   0  0  0  0  0  0  0  0  0  0  0  0
    2.7284   -0.7476    2.8761 C   0  0  0  0  0  0  0  0  0  0  0  0
    2.9227    0.3340    2.7354 H   0  0  0  0  0  0  0  0  0  0  0  0
    3.2626   -1.0777    3.7908 H   0  0  0  0  0  0  0  0  0  0  0  0
    1.6414   -0.8803    3.0494 H   0  0  0  0  0  0  0  0  0  0  0  0
   -4.7256   -2.0576   -1.1527 C   0  0  0  0  0  0  0  0  0  0  0  0
   -4.9560   -2.6798   -0.2655 H   0  0  0  0  0  0  0  0  0  0  0  0
   -5.1131   -2.6001   -2.0404 H   0  0  0  0  0  0  0  0  0  0  0  0
   -5.2999   -1.1120   -1.0773 H   0  0  0  0  0  0  0  0  0  0  0  0
    2.9600   -3.0772    1.8742 C   0  0  0  0  0  0  0  0  0  0  0  0
    3.3038   -3.6802    1.0106 H   0  0  0  0  0  0  0  0  0  0  0  0
    1.8807   -3.2897    2.0125 H   0  0  0  0  0  0  0  0  0  0  0  0
    3.5025   -3.4303    2.7753 H   0  0  0  0  0  0  0  0  0  0  0  0
    3.6535    1.6597    0.1246 C   0  0  0  0  0  0  0  0  0  0  0  0
   -1.3225    1.4880   -0.2465 C   0  0  0  0  0  0  0  0  0  0  0  0
    2.9341   -0.9834   -2.6030 C   0  0  0  0  0  0  0  0  0  0  0  0
    1.8565   -0.7490   -2.6959 H   0  0  0  0  0  0  0  0  0  0  0  0
    3.2533   -1.5573   -3.4969 H   0  0  0  0  0  0  0  0  0  0  0  0
    3.4916   -0.0237   -2.5941 H   0  0  0  0  0  0  0  0  0  0  0  0
    5.9494    2.3805    0.5023 C   0  0  0  0  0  0  0  0  0  0  0  0
    6.9991    2.1344    0.7210 H   0  0  0  0  0  0  0  0  0  0  0  0
   -4.2437    4.0702    0.0499 C   0  0  0  0  0  0  0  0  0  0  0  0
   -3.9441    5.1196   -0.0867 H   0  0  0  0  0  0  0  0  0  0  0  0
   -5.0069    1.3545    0.4088 C   0  0  0  0  0  0  0  0  0  0  0  0
   -5.3136    0.3096    0.5553 H   0  0  0  0  0  0  0  0  0  0  0  0
   -5.9492    2.3808    0.5021 C   0  0  0  0  0  0  0  0  0  0  0  0
   -6.9991    2.1347    0.7203 H   0  0  0  0  0  0  0  0  0  0  0  0
   -3.1932   -1.5744    1.6733 C   0  0  0  0  0  0  0  0  0  0  0  0
   -4.2770   -1.3917    1.5086 H   0  0  0  0  0  0  0  0  0  0  0  0
    4.7257   -2.0577   -1.1517 C   0  0  0  0  0  0  0  0  0  0  0  0
    4.9561   -2.6795   -0.2643 H   0  0  0  0  0  0  0  0  0  0  0  0
    5.2999   -1.1120   -1.0765 H   0  0  0  0  0  0  0  0  0  0  0  0
    5.1134   -2.6003   -2.0392 H   0  0  0  0  0  0  0  0  0  0  0  0
   -2.7292   -0.7476    2.8755 C   0  0  0  0  0  0  0  0  0  0  0  0
   -2.9239    0.3339    2.7351 H   0  0  0  0  0  0  0  0  0  0  0  0
   -1.6422   -0.8800    3.0489 H   0  0  0  0  0  0  0  0  0  0  0  0
   -3.2633   -1.0782    3.7902 H   0  0  0  0  0  0  0  0  0  0  0  0
   -2.9606   -3.0772    1.8734 C   0  0  0  0  0  0  0  0  0  0  0  0
   -3.3039   -3.6801    1.0096 H   0  0  0  0  0  0  0  0  0  0  0  0
   -3.5036   -3.4303    2.7742 H   0  0  0  0  0  0  0  0  0  0  0  0
   -1.8814   -3.2896    2.0123 H   0  0  0  0  0  0  0  0  0  0  0  0
   -2.9339   -0.9829   -2.6036 C   0  0  0  0  0  0  0  0  0  0  0  0
   -1.8563   -0.7485   -2.6964 H   0  0  0  0  0  0  0  0  0  0  0  0
   -3.4914   -0.0231   -2.5945 H   0  0  0  0  0  0  0  0  0  0  0  0
   -3.2531   -1.5566   -3.4976 H   0  0  0  0  0  0  0  0  0  0  0  0
  1  7  1  0  0  0  0
  2 53  1  0  0  0  0
  3 11  1  0  0  0  0
  3 19  1  0  0  0  0
  4 40  1  0  0  0  0
  4 15  1  0  0  0  0
  5 11  1  0  0  0  0
  5 40  1  0  0  0  0
  6  5  1  0  0  0  0
  7 35  1  0  0  0  0
  7 27  1  0  0  0  0
  8  7  1  0  0  0  0
  9 45  1  0  0  0  0
  9 10  1  0  0  0  0
 11 16  2  0  0  0  0
 12 13  1  0  0  0  0
 12 45  2  0  0  0  0
 14 49  1  0  0  0  0
 15 47  1  0  0  0  0
 15 14  2  0  0  0  0
 16  1  1  0  0  0  0
 16 39  1  0  0  0  0
 17 31  1  0  0  0  0
 17  2  1  0  0  0  0
 18 17  1  0  0  0  0
 19 22  2  0  0  0  0
 19 39  1  0  0  0  0
 20 21  1  0  0  0  0
 20 51  1  0  0  0  0
 22 12  1  0  0  0  0
 23 22  1  0  0  0  0
 24  2  1  0  0  0  0
 24 14  1  0  0  0  0
 25 55  1  0  0  0  0
 25  1  1  0  0  0  0
 26 25  1  0  0  0  0
 27 30  1  0  0  0  0
 27 29  1  0  0  0  0
 28 27  1  0  0  0  0
 31 34  1  0  0  0  0
 31 32  1  0  0  0  0
 33 31  1  0  0  0  0
 35 37  1  0  0  0  0
 35 38  1  0  0  0  0
 36 35  1  0  0  0  0
 39  9  2  0  0  0  0
 40 24  2  0  0  0  0
 41 44  1  0  0  0  0
 41 25  1  0  0  0  0
 42 41  1  0  0  0  0
 43 41  1  0  0  0  0
 45 46  1  0  0  0  0
 47 20  2  0  0  0  0
 48 47  1  0  0  0  0
 49 51  2  0  0  0  0
 49 50  1  0  0  0  0
 51 52  1  0  0  0  0
 53 63  1  0  0  0  0
 53 59  1  0  0  0  0
 54 53  1  0  0  0  0
 55 57  1  0  0  0  0
 55 56  1  0  0  0  0
 58 55  1  0  0  0  0
 59 61  1  0  0  0  0
 59 62  1  0  0  0  0
 60 59  1  0  0  0  0
 63 66  1  0  0  0  0
 63 65  1  0  0  0  0
 64 63  1  0  0  0  0
 67 69  1  0  0  0  0
 67 17  1  0  0  0  0
 68 67  1  0  0  0  0
 70 67  1  0  0  0  0
M  END
