1
q = -1.0

 22 23  0  0  0  0  0  0  0  0999 V2000
   -0.4165   -0.2798   -1.6836 C   0  0  0  0  0  3  0  0  0  0  0  0
    0.4628   -0.4587   -2.3169 H   0  0  0  0  0  0  0  0  0  0  0  0
   -2.6446   -0.5493   -0.9539 C   0  0  0  0  0  0  0  0  0  0  0  0
   -3.9334   -1.0355   -0.6785 C   0  0  0  0  0  0  0  0  0  0  0  0
   -2.3478    0.8466   -0.9318 C   0  0  0  0  0  0  0  0  0  0  0  0
   -4.9194   -0.0617   -0.3978 C   0  0  0  0  0  0  0  0  0  0  0  0
   -5.9489   -0.3946   -0.1910 H   0  0  0  0  0  0  0  0  0  0  0  0
   -4.2437   -2.5102   -0.6858 C   0  0  0  0  0  0  0  0  0  0  0  0
   -3.9721   -2.9813   -1.6540 H   0  0  0  0  0  0  0  0  0  0  0  0
   -5.3209   -2.6964   -0.5110 H   0  0  0  0  0  0  0  0  0  0  0  0
   -3.6781   -3.0431    0.1067 H   0  0  0  0  0  0  0  0  0  0  0  0
   -1.3791   -1.2519   -1.2495 C   0  0  0  0  0  3  0  0  0  0  0  0
   -1.3065   -2.3272   -1.4622 H   0  0  0  0  0  0  0  0  0  0  0  0
   -3.0080    3.2793   -0.6024 C   0  0  0  0  0  0  0  0  0  0  0  0
   -2.2360    3.5063    0.1617 H   0  0  0  0  0  0  0  0  0  0  0  0
   -3.9053    3.8824   -0.3646 H   0  0  0  0  0  0  0  0  0  0  0  0
   -2.6114    3.6324   -1.5778 H   0  0  0  0  0  0  0  0  0  0  0  0
   -0.9036    0.9869   -1.2090 C   0  0  0  0  0  3  0  0  0  0  0  0
   -0.3998    1.9469   -1.3847 H   0  0  0  0  0  0  0  0  0  0  0  0
   -3.3282    1.8073   -0.6351 C   0  0  0  0  0  0  0  0  0  0  0  0
   -4.6270    1.3116   -0.3767 C   0  0  0  0  0  0  0  0  0  0  0  0
   -5.4330    2.0285   -0.1532 H   0  0  0  0  0  0  0  0  0  0  0  0
  1 12  1  0  0  0  0
  1 18  1  0  0  0  0
  2  1  1  0  0  0  0
  3  5  2  0  0  0  0
  3  4  1  0  0  0  0
  4  6  2  0  0  0  0
  5 20  1  0  0  0  0
  6 21  1  0  0  0  0
  6  7  1  0  0  0  0
  8  4  1  0  0  0  0
  8 10  1  0  0  0  0
  8 11  1  0  0  0  0
  9  8  1  0  0  0  0
 12  3  1  0  0  0  0
 13 12  1  0  0  0  0
 14 16  1  0  0  0  0
 14 15  1  0  0  0  0
 17 14  1  0  0  0  0
 18  5  1  0  0  0  0
 19 18  1  0  0  0  0
 20 14  1  0  0  0  0
 20 21  2  0  0  0  0
 21 22  1  0  0  0  0
M  END
