6
q = -1.0

 21 21  0  0  0  0  0  0  0  0999 V2000
    5.5339   -0.1636    0.3022 O   0  0  0  0  0  0  0  0  0  0  0  0
    4.1741    1.6492    0.3180 O   0  0  0  0  0  0  0  0  0  0  0  0
    3.1165   -0.4621    0.1161 C   0  0  0  0  0  0  0  0  0  0  0  0
    2.5448   -0.2561   -1.3114 C   0  0  0  0  0  0  0  0  0  0  0  0
    1.4226   -1.2228   -1.6350 C   0  0  0  0  0  3  0  0  0  0  0  0
    1.5079   -2.5745   -1.2022 C   0  0  0  0  0  3  0  0  0  0  0  0
    2.1590   -2.8240    0.0381 C   0  0  0  0  0  3  0  0  0  0  0  0
    3.3044   -1.9430    0.4896 C   0  0  0  0  0  0  0  0  0  0  0  0
    4.4148    0.3124    0.2645 C   0  0  0  0  0  0  0  0  0  0  0  0
    5.3373    2.4806    0.3930 C   0  0  0  0  0  0  0  0  0  0  0  0
    2.3826   -0.0071    0.8169 H   0  0  0  0  0  0  0  0  0  0  0  0
    3.3545   -0.4016   -2.0648 H   0  0  0  0  0  0  0  0  0  0  0  0
    2.2045    0.7919   -1.4191 H   0  0  0  0  0  0  0  0  0  0  0  0
    0.8364   -0.9986   -2.5415 H   0  0  0  0  0  0  0  0  0  0  0  0
    0.9117   -3.3645   -1.6895 H   0  0  0  0  0  0  0  0  0  0  0  0
    2.1223   -3.8423    0.4543 H   0  0  0  0  0  0  0  0  0  0  0  0
    3.4431   -2.0328    1.5854 H   0  0  0  0  0  0  0  0  0  0  0  0
    4.2507   -2.3133    0.0331 H   0  0  0  0  0  0  0  0  0  0  0  0
    4.9699    3.5226    0.3990 H   0  0  0  0  0  0  0  0  0  0  0  0
    5.9155    2.2701    1.3153 H   0  0  0  0  0  0  0  0  0  0  0  0
    6.0031    2.3108   -0.4772 H   0  0  0  0  0  0  0  0  0  0  0  0
  2 10  1  0  0  0  0
  3  9  1  0  0  0  0
  3  8  1  0  0  0  0
  3 11  1  0  0  0  0
  4  3  1  0  0  0  0
  5  4  1  0  0  0  0
  5  6  1  0  0  0  0
  6  7  1  0  0  0  0
  7 16  1  0  0  0  0
  7  8  1  0  0  0  0
  8 17  1  0  0  0  0
  9  1  2  0  0  0  0
  9  2  1  0  0  0  0
 10 19  1  0  0  0  0
 10 20  1  0  0  0  0
 12  4  1  0  0  0  0
 13  4  1  0  0  0  0
 14  5  1  0  0  0  0
 15  6  1  0  0  0  0
 18  8  1  0  0  0  0
 21 10  1  0  0  0  0
M  END
