4
q = -1.0

 25 25  0  0  1  0  0  0  0  0999 V2000
   -2.9859   -0.3657    0.7343 C   0  0  0  0  0  0  0  0  0  0  0  0
   -1.6679   -0.5189    1.4977 C   0  0  0  0  0  3  0  0  0  0  0  0
   -1.5021    0.0961    2.3973 H   0  0  0  0  0  0  0  0  0  0  0  0
   -0.9459   -1.7492    1.3950 C   0  0  2  0  0  3  0  0  0  0  0  0
   -1.0742   -2.4830    0.1486 C   0  0  0  0  0  0  0  0  0  0  0  0
   -0.5361   -3.4321    0.0118 H   0  0  0  0  0  0  0  0  0  0  0  0
   -1.8382   -1.9223   -0.9240 C   0  0  0  0  0  0  0  0  0  0  0  0
   -2.4992   -0.6801   -0.6833 C   0  0  0  0  0  3  0  0  0  0  0  0
   -2.9966   -0.1977   -1.5397 H   0  0  0  0  0  0  0  0  0  0  0  0
   -4.0628   -1.3533    1.2322 C   0  0  0  0  0  0  0  0  0  0  0  0
   -3.7028   -2.3996    1.1784 H   0  0  0  0  0  0  0  0  0  0  0  0
   -4.9825   -1.2724    0.6154 H   0  0  0  0  0  0  0  0  0  0  0  0
   -4.3389   -1.1366    2.2859 H   0  0  0  0  0  0  0  0  0  0  0  0
   -3.5447    1.0588    0.8268 C   0  0  0  0  0  0  0  0  0  0  0  0
   -2.8220    1.8123    0.4674 H   0  0  0  0  0  0  0  0  0  0  0  0
   -3.7979    1.3118    1.8766 H   0  0  0  0  0  0  0  0  0  0  0  0
   -4.4727    1.1462    0.2252 H   0  0  0  0  0  0  0  0  0  0  0  0
   -0.1409   -2.3178    2.5328 C   0  0  0  0  0  0  0  0  0  0  0  0
   -0.7883   -3.0065    3.1169 H   0  0  0  0  0  0  0  0  0  0  0  0
    0.2075   -1.5210    3.2154 H   0  0  0  0  0  0  0  0  0  0  0  0
    0.7426   -2.8815    2.1782 H   0  0  0  0  0  0  0  0  0  0  0  0
   -1.8551   -2.5781   -2.2756 C   0  0  0  0  0  0  0  0  0  0  0  0
   -2.8326   -3.0811   -2.4310 H   0  0  0  0  0  0  0  0  0  0  0  0
   -1.0507   -3.3314   -2.3779 H   0  0  0  0  0  0  0  0  0  0  0  0
   -1.7139   -1.8232   -3.0730 H   0  0  0  0  0  0  0  0  0  0  0  0
  1 14  1  0  0  0  0
  1 10  1  0  0  0  0
  1  2  1  0  0  0  0
  2  3  1  0  0  0  0
  4  2  1  0  0  0  0
  4 18  1  1  0  0  0
  5  4  1  0  0  0  0
  6  5  1  0  0  0  0
  7  8  1  0  0  0  0
  7  5  2  0  0  0  0
  8  1  1  0  0  0  0
  9  8  1  0  0  0  0
 10 13  1  0  0  0  0
 11 10  1  0  0  0  0
 12 10  1  0  0  0  0
 14 16  1  0  0  0  0
 15 14  1  0  0  0  0
 17 14  1  0  0  0  0
 18 19  1  0  0  0  0
 18 20  1  0  0  0  0
 21 18  1  0  0  0  0
 22  7  1  0  0  0  0
 23 22  1  0  0  0  0
 24 22  1  0  0  0  0
 25 22  1  0  0  0  0
M  END
