2
q = -1.0, confidence = 0.0

 23 24  0  0  1  0  0  0  0  0999 V2000
    1.7327   -0.0042   -1.7464 C   0  0  0  0  0  3  0  0  0  0  0  0
    0.7611   -0.1620   -2.7549 C   0  0  0  0  0  3  0  0  0  0  0  0
   -0.2991   -1.1160   -2.5907 C   0  0  0  0  0  0  0  0  0  0  0  0
   -0.3722   -1.8164   -1.3558 C   0  0  0  0  0  0  0  0  0  0  0  0
    0.6155   -1.5643   -0.3655 C   0  0  0  0  0  3  0  0  0  0  0  0
    2.0178   -1.1474   -0.7912 C   0  0  1  0  0  0  0  0  0  0  0  0
    2.9140   -2.2716   -1.2951 C   0  0  0  0  0  0  0  0  0  0  0  0
    2.8484   -2.7698   -2.6109 C   0  0  0  0  0  0  0  0  0  0  0  0
    3.6706   -3.8332   -3.0129 C   0  0  0  0  0  0  0  0  0  0  0  0
    4.5682   -4.4159   -2.1044 C   0  0  0  0  0  0  0  0  0  0  0  0
    4.6445   -3.9250   -0.7914 C   0  0  0  0  0  0  0  0  0  0  0  0
    3.8258   -2.8586   -0.3935 C   0  0  0  0  0  0  0  0  0  0  0  0
    2.4734    0.8040   -1.8520 H   0  0  0  0  0  0  0  0  0  0  0  0
    0.7221    0.5344   -3.6072 H   0  0  0  0  0  0  0  0  0  0  0  0
   -1.0687   -1.2448   -3.3640 H   0  0  0  0  0  0  0  0  0  0  0  0
   -1.2388   -2.4600   -1.1499 H   0  0  0  0  0  0  0  0  0  0  0  0
    0.4737   -2.0160    0.6286 H   0  0  0  0  0  0  0  0  0  0  0  0
    2.5195   -0.7305    0.0984 H   0  0  0  0  0  0  0  0  0  0  0  0
    2.1550   -2.3202   -3.3364 H   0  0  0  0  0  0  0  0  0  0  0  0
    3.6126   -4.2078   -4.0461 H   0  0  0  0  0  0  0  0  0  0  0  0
    5.2130   -5.2489   -2.4219 H   0  0  0  0  0  0  0  0  0  0  0  0
    5.3517   -4.3708   -0.0758 H   0  0  0  0  0  0  0  0  0  0  0  0
    3.8926   -2.4669    0.6349 H   0  0  0  0  0  0  0  0  0  0  0  0
  1  6  1  0  0  0  0
  2  3  1  0  0  0  0
  2  1  1  0  0  0  0
  3  4  2  0  0  0  0
  4 16  1  0  0  0  0
  4  5  1  0  0  0  0
  5 17  1  0  0  0  0
  6  5  1  0  0  0  0
  6 18  1  1  0  0  0
  7  6  1  0  0  0  0
  7 12  1  0  0  0  0
  8  7  2  0  0  0  0
  9  8  1  0  0  0  0
  9 10  2  0  0  0  0
 10 11  1  0  0  0  0
 11 12  2  0  0  0  0
 11 22  1  0  0  0  0
 12 23  1  0  0  0  0
 13  1  1  0  0  0  0
 14  2  1  0  0  0  0
 15  3  1  0  0  0  0
 19  8  1  0  0  0  0
 20  9  1  0  0  0  0
 21 10  1  0  0  0  0
M  END
