1
q = 0.0, confidence = 0.946

 44 44  0  0  1  0  0  0  0  0999 V2000
   -0.7323    0.3853   -0.1052 C   0  0  0  0  0  3  0  0  0  0  0  0
   -0.2918    1.6368   -0.2527 O   0  0  0  0  0  0  0  0  0  0  0  0
   -1.1099    2.8089   -0.1335 C   0  0  0  0  0  0  0  0  0  0  0  0
   -0.4022    3.9509   -0.8350 C   0  0  0  0  0  0  0  0  0  0  0  0
    0.3440   -0.5603   -0.0825 C   0  0  0  0  0  0  0  0  0  0  0  0
    1.7272   -0.3383   -0.0256 C   0  0  2  0  0  3  0  0  0  0  0  0
    2.6442   -1.3528   -0.0481 N   0  0  0  0  0  0  0  0  0  0  0  0
    4.0887   -1.0916    0.1734 C   0  0  0  0  0  0  0  0  0  0  0  0
    4.9168   -1.3715   -1.0861 C   0  0  0  0  0  0  0  0  0  0  0  0
    4.6210   -1.8237    1.4115 C   0  0  0  0  0  0  0  0  0  0  0  0
    2.2928   -2.7783   -0.2862 C   0  0  0  0  0  0  0  0  0  0  0  0
    1.5556   -3.4397    0.8898 C   0  0  0  0  0  0  0  0  0  0  0  0
    1.6409   -3.0188   -1.6556 C   0  0  0  0  0  0  0  0  0  0  0  0
    2.2807    1.0509    0.0882 C   0  0  0  0  0  0  0  0  0  0  0  0
    2.7812    1.7139   -1.0497 C   0  0  0  0  0  0  0  0  0  0  0  0
    3.3102    3.0072   -0.9379 C   0  0  0  0  0  0  0  0  0  0  0  0
    3.3436    3.6506    0.3102 C   0  0  0  0  0  0  0  0  0  0  0  0
    2.8404    2.9953    1.4464 C   0  0  0  0  0  0  0  0  0  0  0  0
    2.3097    1.7021    1.3371 C   0  0  0  0  0  0  0  0  0  0  0  0
   -1.2500    3.0201    0.9476 H   0  0  0  0  0  0  0  0  0  0  0  0
   -2.1065    2.6097   -0.5702 H   0  0  0  0  0  0  0  0  0  0  0  0
   -0.9974    4.8794   -0.7299 H   0  0  0  0  0  0  0  0  0  0  0  0
    0.6022    4.1244   -0.4017 H   0  0  0  0  0  0  0  0  0  0  0  0
   -0.2822    3.7356   -1.9153 H   0  0  0  0  0  0  0  0  0  0  0  0
    0.0158   -1.6005   -0.0745 H   0  0  0  0  0  0  0  0  0  0  0  0
    4.1681   -0.0103    0.3826 H   0  0  0  0  0  0  0  0  0  0  0  0
    4.5439   -0.7772   -1.9431 H   0  0  0  0  0  0  0  0  0  0  0  0
    5.9751   -1.0941   -0.9098 H   0  0  0  0  0  0  0  0  0  0  0  0
    4.9001   -2.4427   -1.3740 H   0  0  0  0  0  0  0  0  0  0  0  0
    5.6696   -1.5182    1.5989 H   0  0  0  0  0  0  0  0  0  0  0  0
    4.0239   -1.5692    2.3091 H   0  0  0  0  0  0  0  0  0  0  0  0
    4.6167   -2.9262    1.2912 H   0  0  0  0  0  0  0  0  0  0  0  0
    3.2785   -3.2808   -0.3373 H   0  0  0  0  0  0  0  0  0  0  0  0
    2.1107   -3.2893    1.8358 H   0  0  0  0  0  0  0  0  0  0  0  0
    0.5284   -3.0626    1.0447 H   0  0  0  0  0  0  0  0  0  0  0  0
    1.4863   -4.5304    0.7060 H   0  0  0  0  0  0  0  0  0  0  0  0
    2.2398   -2.5447   -2.4580 H   0  0  0  0  0  0  0  0  0  0  0  0
    1.6084   -4.1087   -1.8529 H   0  0  0  0  0  0  0  0  0  0  0  0
    0.6061   -2.6388   -1.7304 H   0  0  0  0  0  0  0  0  0  0  0  0
    2.7394    1.2130   -2.0287 H   0  0  0  0  0  0  0  0  0  0  0  0
    3.6935    3.5198   -1.8331 H   0  0  0  0  0  0  0  0  0  0  0  0
    3.7592    4.6658    0.3972 H   0  0  0  0  0  0  0  0  0  0  0  0
    2.8593    3.4966    2.4260 H   0  0  0  0  0  0  0  0  0  0  0  0
    1.9034    1.1877    2.2211 H   0  0  0  0  0  0  0  0  0  0  0  0
  1  5  2  0  0  0  0
  2  3  1  0  0  0  0
  2  1  1  0  0  0  0
  3 20  1  0  0  0  0
  4 22  1  0  0  0  0
  4 23  1  0  0  0  0
  4  3  1  0  0  0  0
  5 25  1  0  0  0  0
  6  5  1  1  0  0  0
  6 14  1  0  0  0  0
  7  6  1  0  0  0  0
  7  8  1  0  0  0  0
  8 26  1  0  0  0  0
  8 10  1  0  0  0  0
  9 28  1  0  0  0  0
  9  8  1  0  0  0  0
 10 30  1  0  0  0  0
 10 31  1  0  0  0  0
 11  7  1  0  0  0  0
 11 12  1  0  0  0  0
 12 35  1  0  0  0  0
 12 34  1  0  0  0  0
 13 11  1  0  0  0  0
 14 19  1  0  0  0  0
 15 16  1  0  0  0  0
 15 14  2  0  0  0  0
 16 17  2  0  0  0  0
 17 42  1  0  0  0  0
 17 18  1  0  0  0  0
 18 43  1  0  0  0  0
 19 18  2  0  0  0  0
 19 44  1  0  0  0  0
 21  3  1  0  0  0  0
 24  4  1  0  0  0  0
 27  9  1  0  0  0  0
 29  9  1  0  0  0  0
 32 10  1  0  0  0  0
 33 11  1  0  0  0  0
 36 12  1  0  0  0  0
 37 13  1  0  0  0  0
 38 13  1  0  0  0  0
 39 13  1  0  0  0  0
 40 15  1  0  0  0  0
 41 16  1  0  0  0  0
M  END
