8
q = -1.0, confidence = 0.076

 10  9  0  0  0  0  0  0  0  0999 V2000
   -4.4204    0.4715   -0.4129 I   0  0  0  0  0  0  0  0  0  0  0  0
   -0.1741   -0.4282    1.9642 F   0  0  0  0  0  0  0  0  0  0  0  0
   -0.3812   -2.2219    0.7105 F   0  0  0  0  0  0  0  0  0  0  0  0
   -1.0874    1.0514   -0.4363 F   0  0  0  0  0  0  0  0  0  0  0  0
   -1.6677   -0.9453   -1.1801 F   0  0  0  0  0  0  0  0  0  0  0  0
   -2.5086    0.7457    1.7955 F   0  0  0  0  0  0  0  0  0  0  0  0
   -2.9302   -1.3539    1.3552 F   0  0  0  0  0  0  0  0  0  0  0  0
   -0.1403   -0.8737    0.6425 C   0  0  0  0  0  0  0  0  0  0  0  0
   -1.3830   -0.2295   -0.0661 C   0  0  0  0  0  0  0  0  0  0  0  0
   -2.6672   -0.1558    0.8156 C   0  0  0  0  0  0  0  0  0  0  0  0
  1 10  1  0  0  0  0
  4  9  1  0  0  0  0
  5  9  1  0  0  0  0
  8  3  1  0  0  0  0
  8  2  1  0  0  0  0
  9  8  1  0  0  0  0
  9 10  1  0  0  0  0
 10  7  1  0  0  0  0
 10  6  1  0  0  0  0
M  END
