1
q = -1.0

 35 35  0  0  0  0  0  0  0  0999 V2000
    1.8022   -0.0001   -0.7327 C   0  0  0  0  0  3  0  0  0  0  0  0
    2.6462   -1.6084   -0.2205 Si  0  0  0  0  0  0  0  0  0  0  0  0
    2.3712   -1.9465    1.6302 C   0  0  0  0  0  0  0  0  0  0  0  0
    1.8656   -3.0511   -1.1770 C   0  0  0  0  0  0  0  0  0  0  0  0
    4.5063   -1.5444   -0.6012 C   0  0  0  0  0  0  0  0  0  0  0  0
    5.4483   -0.0000   -0.0267 Si  0  0  0  0  0  0  0  0  0  0  0  0
    1.7199   -0.0002   -1.8452 H   0  0  0  0  0  0  0  0  0  0  0  0
    2.8818   -2.8821    1.9391 H   0  0  0  0  0  0  0  0  0  0  0  0
    2.7546   -1.1298    2.2731 H   0  0  0  0  0  0  0  0  0  0  0  0
    1.2902   -2.0696    1.8562 H   0  0  0  0  0  0  0  0  0  0  0  0
    2.3675   -4.0119   -0.9391 H   0  0  0  0  0  0  0  0  0  0  0  0
    0.7887   -3.1647   -0.9311 H   0  0  0  0  0  0  0  0  0  0  0  0
    1.9447   -2.8910   -2.2724 H   0  0  0  0  0  0  0  0  0  0  0  0
    5.0034   -2.4547   -0.1986 H   0  0  0  0  0  0  0  0  0  0  0  0
    4.6114   -1.5971   -1.7090 H   0  0  0  0  0  0  0  0  0  0  0  0
    6.2248   -0.8946    2.1867 H   0  0  0  0  0  0  0  0  0  0  0  0
    4.6887   -0.0009    2.3959 H   0  0  0  0  0  0  0  0  0  0  0  0
    6.2222    0.8972    2.1866 H   0  0  0  0  0  0  0  0  0  0  0  0
    5.6568    0.0005    1.8584 C   0  0  0  0  0  0  0  0  0  0  0  0
    7.1819   -0.0002   -0.7975 C   0  0  0  0  0  0  0  0  0  0  0  0
    4.5063    1.5441   -0.6020 C   0  0  0  0  0  0  0  0  0  0  0  0
    2.6463    1.6083   -0.2209 Si  0  0  0  0  0  0  0  0  0  0  0  0
    2.3717    1.9467    1.6298 C   0  0  0  0  0  0  0  0  0  0  0  0
    1.8657    3.0510   -1.1775 C   0  0  0  0  0  0  0  0  0  0  0  0
    7.1254   -0.0002   -1.9057 H   0  0  0  0  0  0  0  0  0  0  0  0
    7.7574   -0.8973   -0.4877 H   0  0  0  0  0  0  0  0  0  0  0  0
    7.7576    0.8967   -0.4877 H   0  0  0  0  0  0  0  0  0  0  0  0
    4.6112    1.5962   -1.7098 H   0  0  0  0  0  0  0  0  0  0  0  0
    5.0036    2.4545   -0.1999 H   0  0  0  0  0  0  0  0  0  0  0  0
    0.7888    3.1646   -0.9316 H   0  0  0  0  0  0  0  0  0  0  0  0
    1.9447    2.8907   -2.2729 H   0  0  0  0  0  0  0  0  0  0  0  0
    2.3676    4.0118   -0.9397 H   0  0  0  0  0  0  0  0  0  0  0  0
    2.7550    1.1300    2.2727 H   0  0  0  0  0  0  0  0  0  0  0  0
    2.8825    2.8823    1.9385 H   0  0  0  0  0  0  0  0  0  0  0  0
    1.2907    2.0701    1.8559 H   0  0  0  0  0  0  0  0  0  0  0  0
  1 22  1  0  0  0  0
  1  2  1  0  0  0  0
  2  3  1  0  0  0  0
  3 10  1  0  0  0  0
  3  8  1  0  0  0  0
  3  9  1  0  0  0  0
  4 11  1  0  0  0  0
  4 12  1  0  0  0  0
  4  2  1  0  0  0  0
  5  2  1  0  0  0  0
  5 14  1  0  0  0  0
  5  6  1  0  0  0  0
  6 19  1  0  0  0  0
  7  1  1  0  0  0  0
 13  4  1  0  0  0  0
 15  5  1  0  0  0  0
 19 18  1  0  0  0  0
 19 16  1  0  0  0  0
 19 17  1  0  0  0  0
 20 26  1  0  0  0  0
 20 27  1  0  0  0  0
 20  6  1  0  0  0  0
 21 22  1  0  0  0  0
 21 29  1  0  0  0  0
 21  6  1  0  0  0  0
 22 23  1  0  0  0  0
 23 35  1  0  0  0  0
 23 34  1  0  0  0  0
 23 33  1  0  0  0  0
 24 32  1  0  0  0  0
 24 30  1  0  0  0  0
 24 22  1  0  0  0  0
 25 20  1  0  0  0  0
 28 21  1  0  0  0  0
 31 24  1  0  0  0  0
M  END
