2
q = 0.0, confidence = 0.912

 15 14  0  0  0  0  0  0  0  0999 V2000
    1.4983    2.2081   -0.0483 N   0  0  0  0  0  0  0  0  0  0  0  0
    1.4256    0.8701   -0.0028 C   0  0  0  0  0  2  0  0  0  0  0  0
    2.7246    0.2030    0.1046 C   0  0  0  0  0  0  0  0  0  0  0  0
    2.9327   -1.1228   -0.1076 C   0  0  0  0  0  0  0  0  0  0  0  0
    4.2463   -1.8154   -0.0006 C   0  0  0  0  0  0  0  0  0  0  0  0
    2.6785    3.0696   -0.0574 C   0  0  0  0  0  0  0  0  0  0  0  0
    3.6133    0.8069    0.3691 H   0  0  0  0  0  0  0  0  0  0  0  0
    2.0672   -1.7434   -0.3928 H   0  0  0  0  0  0  0  0  0  0  0  0
    4.1848   -2.6392    0.7437 H   0  0  0  0  0  0  0  0  0  0  0  0
    5.0679   -1.1331    0.2919 H   0  0  0  0  0  0  0  0  0  0  0  0
    4.5135   -2.3032   -0.9632 H   0  0  0  0  0  0  0  0  0  0  0  0
    2.3534    4.1133   -0.2192 H   0  0  0  0  0  0  0  0  0  0  0  0
    3.3755    2.7910   -0.8728 H   0  0  0  0  0  0  0  0  0  0  0  0
    3.2286    3.0251    0.9058 H   0  0  0  0  0  0  0  0  0  0  0  0
    0.5989    2.6941   -0.0953 H   0  0  0  0  0  0  0  0  0  0  0  0
  1  2  1  0  0  0  0
  2  3  1  0  0  0  0
  3  7  1  0  0  0  0
  4  5  1  0  0  0  0
  4  3  2  0  0  0  0
  5 10  1  0  0  0  0
  5  9  1  0  0  0  0
  6  1  1  0  0  0  0
  6 14  1  0  0  0  0
  8  4  1  0  0  0  0
 11  5  1  0  0  0  0
 12  6  1  0  0  0  0
 13  6  1  0  0  0  0
 15  1  1  0  0  0  0
M  END
