2
q = -1.0, confidence = 0.002

 13 12  0  0  0  0  0  0  0  0999 V2000
   -3.6688   -2.1419   -0.4148 O   0  0  0  0  0  0  0  0  0  0  0  0
   -2.9633   -1.1552   -0.5215 C   0  0  0  0  0  3  0  0  0  0  0  0
   -3.5719    0.1362   -1.1080 C   0  0  0  0  0  0  0  0  0  0  0  0
   -4.8830    0.4852   -0.4672 C   0  0  0  0  0  0  0  0  0  0  0  0
   -5.1352    1.6464    0.1676 C   0  0  0  0  0  0  0  0  0  0  0  0
   -6.4256    2.0034    0.8406 C   0  0  0  0  0  0  0  0  0  0  0  0
   -3.7187   -0.1002   -2.1879 H   0  0  0  0  0  0  0  0  0  0  0  0
   -2.8527    0.9739   -1.0568 H   0  0  0  0  0  0  0  0  0  0  0  0
   -5.6584   -0.3009   -0.5016 H   0  0  0  0  0  0  0  0  0  0  0  0
   -4.3294    2.4036    0.2127 H   0  0  0  0  0  0  0  0  0  0  0  0
   -6.2698    2.2163    1.9208 H   0  0  0  0  0  0  0  0  0  0  0  0
   -6.8725    2.9243    0.4060 H   0  0  0  0  0  0  0  0  0  0  0  0
   -7.1716    1.1880    0.7565 H   0  0  0  0  0  0  0  0  0  0  0  0
  2  1  2  0  0  0  0
  3  8  1  0  0  0  0
  3  2  1  0  0  0  0
  3  4  1  0  0  0  0
  4  5  2  0  0  0  0
  5 10  1  0  0  0  0
  5  6  1  0  0  0  0
  6 11  1  0  0  0  0
  7  3  1  0  0  0  0
  9  4  1  0  0  0  0
 12  6  1  0  0  0  0
 13  6  1  0  0  0  0
M  END
