12
q = -1.0

 31 31  0  0  0  0  0  0  0  0999 V2000
    4.8382    0.2085   -2.4975 O   0  0  0  0  0  0  0  0  0  0  0  0
    2.7985   -0.1432   -1.1967 C   0  0  0  0  0  0  0  0  0  0  0  0
    2.9703   -1.2255   -1.1202 H   0  0  0  0  0  0  0  0  0  0  0  0
   -0.5886    1.4102    0.3903 O   0  0  0  0  0  0  0  0  0  0  0  0
    3.7203    0.6675   -1.8988 C   0  0  0  0  0  0  0  0  0  0  0  0
    1.4419    1.8242   -0.7308 C   0  0  0  0  0  0  0  0  0  0  0  0
    3.4979    2.0651   -2.0137 C   0  0  0  0  0  0  0  0  0  0  0  0
    4.2305    2.6680   -2.5675 H   0  0  0  0  0  0  0  0  0  0  0  0
   -1.3773    4.1993    0.4670 C   0  0  0  0  0  0  0  0  0  0  0  0
   -0.1512    3.5902   -0.1161 N   0  0  0  0  0  0  0  0  0  0  0  0
    0.5245    4.2383   -0.5238 H   0  0  0  0  0  0  0  0  0  0  0  0
    1.6625    0.4208   -0.5871 C   0  0  0  0  0  3  0  0  0  0  0  0
    2.3664    2.6290   -1.4404 C   0  0  0  0  0  0  0  0  0  0  0  0
    2.2060    3.7136   -1.5596 H   0  0  0  0  0  0  0  0  0  0  0  0
    0.1922    2.2911   -0.1262 C   0  0  0  0  0  0  0  0  0  0  0  0
   -1.2614    5.7093    0.2119 C   0  0  0  0  0  0  0  0  0  0  0  0
   -2.1462    6.2322    0.6212 H   0  0  0  0  0  0  0  0  0  0  0  0
   -1.2116    5.9310   -0.8740 H   0  0  0  0  0  0  0  0  0  0  0  0
   -0.3627    6.1332    0.7056 H   0  0  0  0  0  0  0  0  0  0  0  0
   -1.4297    3.9201    1.9803 C   0  0  0  0  0  0  0  0  0  0  0  0
   -2.3120    4.4209    2.4245 H   0  0  0  0  0  0  0  0  0  0  0  0
   -0.5221    4.3081    2.4840 H   0  0  0  0  0  0  0  0  0  0  0  0
   -1.5086    2.8343    2.1771 H   0  0  0  0  0  0  0  0  0  0  0  0
   -2.6258    3.6380   -0.2370 C   0  0  0  0  0  0  0  0  0  0  0  0
   -3.5338    4.1338    0.1583 H   0  0  0  0  0  0  0  0  0  0  0  0
   -2.7192    2.5498   -0.0640 H   0  0  0  0  0  0  0  0  0  0  0  0
   -2.5795    3.8253   -1.3285 H   0  0  0  0  0  0  0  0  0  0  0  0
    5.1462   -1.1762   -2.4259 C   0  0  0  0  0  0  0  0  0  0  0  0
    6.0984   -1.3103   -2.9697 H   0  0  0  0  0  0  0  0  0  0  0  0
    4.3602   -1.7962   -2.9099 H   0  0  0  0  0  0  0  0  0  0  0  0
    5.2775   -1.5109   -1.3735 H   0  0  0  0  0  0  0  0  0  0  0  0
  1 28  1  0  0  0  0
  1  5  1  0  0  0  0
  2  3  1  0  0  0  0
  2 12  1  0  0  0  0
  5  2  2  0  0  0  0
  6 12  2  0  0  0  0
  6 15  1  0  0  0  0
  7  5  1  0  0  0  0
  7 13  2  0  0  0  0
  8  7  1  0  0  0  0
  9 20  1  0  0  0  0
 10  9  1  0  0  0  0
 11 10  1  0  0  0  0
 13  6  1  0  0  0  0
 14 13  1  0  0  0  0
 15 10  1  0  0  0  0
 15  4  2  0  0  0  0
 16  9  1  0  0  0  0
 16 17  1  0  0  0  0
 16 19  1  0  0  0  0
 18 16  1  0  0  0  0
 20 23  1  0  0  0  0
 20 21  1  0  0  0  0
 20 22  1  0  0  0  0
 24 26  1  0  0  0  0
 24 25  1  0  0  0  0
 24  9  1  0  0  0  0
 27 24  1  0  0  0  0
 28 31  1  0  0  0  0
 29 28  1  0  0  0  0
 30 28  1  0  0  0  0
M  END
