9
q = -1.0, confidence = 0.0

 37 38  0  0  0  0  0  0  0  0999 V2000
   -2.7739   -0.8165    1.8056 S   0  0  2  0  0  0  0  0  0  0  0  0
   -3.1705   -3.1250   -1.1599 F   0  0  0  0  0  0  0  0  0  0  0  0
   -0.2275   -2.7354   -0.7124 O   0  0  0  0  0  0  0  0  0  0  0  0
   -2.2637   -0.1151    3.0576 O   0  0  0  0  0  0  0  0  0  0  0  0
   -2.3959   -3.3906   -0.0233 C   0  0  0  0  0  0  0  0  0  0  0  0
   -1.2750   -2.3996    0.0863 C   0  0  0  0  0  0  0  0  0  0  0  0
   -1.3106   -1.2593    0.8263 C   0  0  0  0  0  0  0  0  0  0  0  0
   -0.1621   -0.3016    0.9172 C   0  0  0  0  0  0  0  0  0  0  0  0
    1.0854   -0.9673    0.3320 C   0  0  0  0  0  3  0  0  0  0  0  0
    0.7723   -1.6938   -0.9937 C   0  0  0  0  0  0  0  0  0  0  0  0
    1.9702   -2.4741   -1.5286 C   0  0  0  0  0  0  0  0  0  0  0  0
    0.1749   -0.7704   -2.0621 C   0  0  0  0  0  0  0  0  0  0  0  0
   -3.3231    0.5160    0.6622 C   0  0  0  0  0  0  0  0  0  0  0  0
   -3.7567    0.2199   -0.6396 C   0  0  0  0  0  0  0  0  0  0  0  0
   -4.1906    1.2713   -1.4564 C   0  0  0  0  0  0  0  0  0  0  0  0
   -4.2049    2.6068   -0.9910 C   0  0  0  0  0  0  0  0  0  0  0  0
   -3.7693    2.8609    0.3245 C   0  0  0  0  0  0  0  0  0  0  0  0
   -3.3324    1.8203    1.1606 C   0  0  0  0  0  0  0  0  0  0  0  0
   -4.6876    3.7206   -1.8852 C   0  0  0  0  0  0  0  0  0  0  0  0
   -3.0512   -3.3391    0.8700 H   0  0  0  0  0  0  0  0  0  0  0  0
   -1.9742   -4.4125   -0.1291 H   0  0  0  0  0  0  0  0  0  0  0  0
   -0.4269    0.6450    0.3939 H   0  0  0  0  0  0  0  0  0  0  0  0
   -0.0255   -0.0262    1.9851 H   0  0  0  0  0  0  0  0  0  0  0  0
    1.4625   -1.7315    1.0439 H   0  0  0  0  0  0  0  0  0  0  0  0
    2.7537   -1.7865   -1.9043 H   0  0  0  0  0  0  0  0  0  0  0  0
    1.6520   -3.1250   -2.3659 H   0  0  0  0  0  0  0  0  0  0  0  0
    2.4081   -3.1134   -0.7369 H   0  0  0  0  0  0  0  0  0  0  0  0
    0.8925    0.0318   -2.3294 H   0  0  0  0  0  0  0  0  0  0  0  0
   -0.7626   -0.2951   -1.7133 H   0  0  0  0  0  0  0  0  0  0  0  0
   -0.0564   -1.3513   -2.9757 H   0  0  0  0  0  0  0  0  0  0  0  0
   -3.7373   -0.8162   -1.0141 H   0  0  0  0  0  0  0  0  0  0  0  0
   -4.5270    1.0532   -2.4828 H   0  0  0  0  0  0  0  0  0  0  0  0
   -3.7730    3.8955    0.7031 H   0  0  0  0  0  0  0  0  0  0  0  0
   -2.9873    1.9919    2.1927 H   0  0  0  0  0  0  0  0  0  0  0  0
   -4.5384    4.7134   -1.4190 H   0  0  0  0  0  0  0  0  0  0  0  0
   -5.7698    3.6129   -2.1099 H   0  0  0  0  0  0  0  0  0  0  0  0
   -4.1572    3.7160   -2.8597 H   0  0  0  0  0  0  0  0  0  0  0  0
  1  4  2  1  0  0  0
  2  5  1  0  0  0  0
  3  6  1  0  0  0  0
  5  6  1  0  0  0  0
  5 20  1  0  0  0  0
  6  7  2  0  0  0  0
  7  8  1  0  0  0  0
  7  1  1  0  0  0  0
  8 23  1  0  0  0  0
  9  8  1  0  0  0  0
  9 24  1  0  0  0  0
 10  3  1  0  0  0  0
 10  9  1  0  0  0  0
 11 10  1  0  0  0  0
 11 27  1  0  0  0  0
 12 29  1  0  0  0  0
 12 10  1  0  0  0  0
 13 18  1  0  0  0  0
 13  1  1  0  0  0  0
 14 13  2  0  0  0  0
 15 16  2  0  0  0  0
 15 14  1  0  0  0  0
 16 17  1  0  0  0  0
 17 33  1  0  0  0  0
 17 18  2  0  0  0  0
 18 34  1  0  0  0  0
 19 35  1  0  0  0  0
 19 16  1  0  0  0  0
 21  5  1  0  0  0  0
 22  8  1  0  0  0  0
 25 11  1  0  0  0  0
 26 11  1  0  0  0  0
 28 12  1  0  0  0  0
 30 12  1  0  0  0  0
 31 14  1  0  0  0  0
 32 15  1  0  0  0  0
 36 19  1  0  0  0  0
 37 19  1  0  0  0  0
M  END
