2
q = -1.0

 48 51  0  0  1  0  0  0  0  0999 V2000
   -0.2036    0.1018   -0.0392 P   0  0  0  0  0  0  0  0  0  0  0  0
    0.8899   -1.4701   -2.2592 C   0  0  2  0  0  3  0  0  0  0  0  0
    1.7008   -2.4837   -1.6285 C   0  0  0  0  0  3  0  0  0  0  0  0
    1.3253   -3.4151   -1.1873 H   0  0  0  0  0  0  0  0  0  0  0  0
    3.0916   -2.0952   -1.7628 C   0  0  0  0  0  0  0  0  0  0  0  0
    3.9576   -2.6568   -1.3924 H   0  0  0  0  0  0  0  0  0  0  0  0
    3.1348   -0.8489   -2.4488 C   0  0  0  0  0  0  0  0  0  0  0  0
    4.0421   -0.2803   -2.6884 H   0  0  0  0  0  0  0  0  0  0  0  0
    1.7800   -0.4405   -2.7556 C   0  0  0  0  0  3  0  0  0  0  0  0
    1.4905    0.4469   -3.3310 H   0  0  0  0  0  0  0  0  0  0  0  0
   -0.6187   -1.4329   -2.2885 C   0  0  0  0  0  0  0  0  0  0  0  0
   -1.0000   -2.3132   -1.7349 H   0  0  0  0  0  0  0  0  0  0  0  0
   -0.9860   -1.5286   -3.3320 H   0  0  0  0  0  0  0  0  0  0  0  0
   -1.1710   -0.1326   -1.6730 C   0  0  1  0  0  0  0  0  0  0  0  0
   -0.8267    0.7204   -2.2938 H   0  0  0  0  0  0  0  0  0  0  0  0
   -2.6670   -0.0414   -1.5044 C   0  0  0  0  0  0  0  0  0  0  0  0
   -3.4476   -1.1681   -1.1695 C   0  0  0  0  0  0  0  0  0  0  0  0
   -2.9768   -2.1556   -1.0578 H   0  0  0  0  0  0  0  0  0  0  0  0
   -4.8283   -1.0475   -0.9578 C   0  0  0  0  0  0  0  0  0  0  0  0
   -5.4186   -1.9400   -0.7019 H   0  0  0  0  0  0  0  0  0  0  0  0
   -5.4539    0.2038   -1.0659 C   0  0  0  0  0  0  0  0  0  0  0  0
   -6.5373    0.2980   -0.8989 H   0  0  0  0  0  0  0  0  0  0  0  0
   -4.6897    1.3337   -1.3982 C   0  0  0  0  0  0  0  0  0  0  0  0
   -5.1717    2.3179   -1.4959 H   0  0  0  0  0  0  0  0  0  0  0  0
   -3.3109    1.2097   -1.6192 C   0  0  0  0  0  0  0  0  0  0  0  0
   -2.7229    2.1009   -1.8861 H   0  0  0  0  0  0  0  0  0  0  0  0
   -0.3971    1.8555    0.4545 C   0  0  0  0  0  0  0  0  0  0  0  0
   -0.4091    2.2087    1.8213 C   0  0  0  0  0  0  0  0  0  0  0  0
   -0.4360    1.4232    2.5913 H   0  0  0  0  0  0  0  0  0  0  0  0
   -0.3942    3.5578    2.2067 C   0  0  0  0  0  0  0  0  0  0  0  0
   -0.4185    3.8184    3.2756 H   0  0  0  0  0  0  0  0  0  0  0  0
   -0.3589    4.5715    1.2350 C   0  0  0  0  0  0  0  0  0  0  0  0
   -0.3632    5.6292    1.5385 H   0  0  0  0  0  0  0  0  0  0  0  0
   -0.3210    4.2280   -0.1269 C   0  0  0  0  0  0  0  0  0  0  0  0
   -0.2882    5.0155   -0.8949 H   0  0  0  0  0  0  0  0  0  0  0  0
   -0.3278    2.8800   -0.5141 C   0  0  0  0  0  0  0  0  0  0  0  0
   -0.2714    2.6313   -1.5844 H   0  0  0  0  0  0  0  0  0  0  0  0
   -1.1720   -0.8721    1.1742 C   0  0  0  0  0  0  0  0  0  0  0  0
   -2.3705   -0.3749    1.7316 C   0  0  0  0  0  0  0  0  0  0  0  0
   -2.7093    0.6450    1.4980 H   0  0  0  0  0  0  0  0  0  0  0  0
   -3.1473   -1.1905    2.5663 C   0  0  0  0  0  0  0  0  0  0  0  0
   -4.0812   -0.7964    2.9938 H   0  0  0  0  0  0  0  0  0  0  0  0
   -2.7474   -2.5087    2.8396 C   0  0  0  0  0  0  0  0  0  0  0  0
   -3.3632   -3.1467    3.4912 H   0  0  0  0  0  0  0  0  0  0  0  0
   -1.5661   -3.0146    2.2736 C   0  0  0  0  0  0  0  0  0  0  0  0
   -1.2567   -4.0512    2.4765 H   0  0  0  0  0  0  0  0  0  0  0  0
   -0.7793   -2.1996    1.4452 C   0  0  0  0  0  0  0  0  0  0  0  0
    0.1460   -2.5884    0.9945 H   0  0  0  0  0  0  0  0  0  0  0  0
  1 27  1  0  0  0  0
  1 38  1  0  0  0  0
  2 11  1  1  0  0  0
  2  3  1  0  0  0  0
  3  4  1  0  0  0  0
  5  3  1  0  0  0  0
  5  6  1  0  0  0  0
  7  5  2  0  0  0  0
  8  7  1  0  0  0  0
  9  7  1  0  0  0  0
  9  2  1  0  0  0  0
 10  9  1  0  0  0  0
 11 12  1  0  0  0  0
 11 14  1  0  0  0  0
 13 11  1  0  0  0  0
 14 15  1  6  0  0  0
 14 16  1  0  0  0  0
 14  1  1  0  0  0  0
 16 17  1  0  0  0  0
 17 18  1  0  0  0  0
 17 19  2  0  0  0  0
 19 20  1  0  0  0  0
 21 19  1  0  0  0  0
 21 22  1  0  0  0  0
 23 21  2  0  0  0  0
 24 23  1  0  0  0  0
 25 16  2  0  0  0  0
 25 23  1  0  0  0  0
 26 25  1  0  0  0  0
 27 28  1  0  0  0  0
 28 30  2  0  0  0  0
 28 29  1  0  0  0  0
 30 31  1  0  0  0  0
 32 33  1  0  0  0  0
 32 30  1  0  0  0  0
 34 32  2  0  0  0  0
 35 34  1  0  0  0  0
 36 34  1  0  0  0  0
 36 27  2  0  0  0  0
 37 36  1  0  0  0  0
 38 47  2  0  0  0  0
 38 39  1  0  0  0  0
 39 41  2  0  0  0  0
 40 39  1  0  0  0  0
 41 43  1  0  0  0  0
 41 42  1  0  0  0  0
 43 44  1  0  0  0  0
 45 46  1  0  0  0  0
 45 43  2  0  0  0  0
 47 45  1  0  0  0  0
 48 47  1  0  0  0  0
M  END
