11
q = -1.0, confidence = 0.002

 16 16  0  0  0  0  0  0  0  0999 V2000
    5.0526    1.3556    0.7576 F   0  0  0  0  0  0  0  0  0  0  0  0
    5.5229   -0.7709    0.5640 F   0  0  0  0  0  0  0  0  0  0  0  0
    5.3201    0.4695   -1.2168 F   0  0  0  0  0  0  0  0  0  0  0  0
   -1.1212   -2.1210   -0.9859 O   0  0  0  0  0  0  0  0  0  0  0  0
    0.5903   -0.6710   -0.2675 C   0  0  0  0  0  0  0  0  0  0  0  0
    1.5595   -1.6892   -0.4112 C   0  0  0  0  0  0  0  0  0  0  0  0
    2.9206   -1.4008   -0.2876 C   0  0  0  0  0  0  0  0  0  0  0  0
    3.3365   -0.0780   -0.0455 C   0  0  0  0  0  0  0  0  0  0  0  0
    2.3835    0.9458    0.0819 C   0  0  0  0  0  0  0  0  0  0  0  0
    1.0196    0.6461   -0.0207 C   0  0  0  0  0  0  0  0  0  0  0  0
   -0.8628   -1.0643   -0.4344 C   0  0  0  0  0  3  0  0  0  0  0  0
    4.8112    0.2452    0.0215 C   0  0  0  0  0  0  0  0  0  0  0  0
    1.2100   -2.7111   -0.6187 H   0  0  0  0  0  0  0  0  0  0  0  0
    3.6702   -2.2006   -0.3757 H   0  0  0  0  0  0  0  0  0  0  0  0
    2.7135    1.9765    0.2741 H   0  0  0  0  0  0  0  0  0  0  0  0
    0.2767    1.4467    0.0875 H   0  0  0  0  0  0  0  0  0  0  0  0
  3 12  1  0  0  0  0
  4 11  2  0  0  0  0
  5 10  1  0  0  0  0
  6  7  1  0  0  0  0
  6  5  2  0  0  0  0
  7  8  2  0  0  0  0
  8 12  1  0  0  0  0
  8  9  1  0  0  0  0
  9 15  1  0  0  0  0
 10  9  2  0  0  0  0
 10 16  1  0  0  0  0
 11  5  1  0  0  0  0
 12  2  1  0  0  0  0
 12  1  1  0  0  0  0
 13  6  1  0  0  0  0
 14  7  1  0  0  0  0
M  END
