3
q = -1.0, confidence = 0.044

 19 18  0  0  0  0  0  0  0  0999 V2000
   -4.7522   -0.2307    0.0120 Si  0  0  0  0  0  0  0  0  0  0  0  0
    0.1188    0.6373   -1.8896 O   0  0  0  0  0  0  0  0  0  0  0  0
   -0.6243    0.2790   -0.9435 C   0  0  0  0  0  3  0  0  0  0  0  0
   -2.0875    0.2533   -1.0562 C   0  0  0  0  0  0  0  0  0  0  0  0
   -2.8625   -0.1392   -0.0119 C   0  0  0  0  0  0  0  0  0  0  0  0
   -5.3664    0.9095    1.3925 C   0  0  0  0  0  0  0  0  0  0  0  0
   -5.2374   -2.0204    0.3915 C   0  0  0  0  0  0  0  0  0  0  0  0
   -5.4296    0.3126   -1.6641 C   0  0  0  0  0  0  0  0  0  0  0  0
   -2.5215    0.5671   -2.0262 H   0  0  0  0  0  0  0  0  0  0  0  0
   -2.3070   -0.4285    0.9043 H   0  0  0  0  0  0  0  0  0  0  0  0
   -4.9444    0.6144    2.3749 H   0  0  0  0  0  0  0  0  0  0  0  0
   -5.0808    1.9634    1.1995 H   0  0  0  0  0  0  0  0  0  0  0  0
   -6.4724    0.8637    1.4709 H   0  0  0  0  0  0  0  0  0  0  0  0
   -4.8736   -2.7105   -0.3965 H   0  0  0  0  0  0  0  0  0  0  0  0
   -4.8147   -2.3543    1.3610 H   0  0  0  0  0  0  0  0  0  0  0  0
   -6.3411   -2.1195    0.4504 H   0  0  0  0  0  0  0  0  0  0  0  0
   -5.1337    1.3549   -1.9010 H   0  0  0  0  0  0  0  0  0  0  0  0
   -5.0617   -0.3423   -2.4802 H   0  0  0  0  0  0  0  0  0  0  0  0
   -6.5380    0.2673   -1.6691 H   0  0  0  0  0  0  0  0  0  0  0  0
  1  7  1  0  0  0  0
  1  6  1  0  0  0  0
  2  3  2  0  0  0  0
  4  3  1  0  0  0  0
  4  5  2  0  0  0  0
  5  1  1  0  0  0  0
  5 10  1  0  0  0  0
  6 13  1  0  0  0  0
  6 11  1  0  0  0  0
  7 16  1  0  0  0  0
  7 15  1  0  0  0  0
  8  1  1  0  0  0  0
  9  4  1  0  0  0  0
 12  6  1  0  0  0  0
 14  7  1  0  0  0  0
 17  8  1  0  0  0  0
 18  8  1  0  0  0  0
 19  8  1  0  0  0  0
M  END
