6
q = 0.0, confidence = 0.916

 39 40  0  0  1  0  0  0  0  0999 V2000
   -0.2343   -0.4229   -0.8025 C   0  0  2  0  0  3  0  0  0  0  0  0
    1.1982    0.0278   -1.1380 C   0  0  1  0  0  0  0  0  0  0  0  0
    1.1091    1.4529   -0.5827 C   0  0  0  0  0  0  0  0  0  0  0  0
    1.0812    1.3309    0.8162 C   0  0  0  0  0  0  0  0  0  0  0  0
    1.1487   -0.1794    1.1068 C   0  0  1  0  0  0  0  0  0  0  0  0
   -0.2814   -0.5439    0.6450 C   0  0  2  0  0  3  0  0  0  0  0  0
    2.0324   -0.7051   -0.0550 C   0  0  2  0  0  0  0  0  0  0  0  0
   -1.0270   -1.1136   -1.8419 C   0  0  0  0  0  0  0  0  0  0  0  0
   -2.9291   -2.4409   -2.2732 C   0  0  0  0  0  0  0  0  0  0  0  0
   -1.0525   -1.5477    1.4315 C   0  0  0  0  0  0  0  0  0  0  0  0
   -3.1651   -2.3018    2.1381 C   0  0  0  0  0  0  0  0  0  0  0  0
    4.5821   -1.3035    1.5435 C   0  0  0  0  0  0  0  0  0  0  0  0
    4.3909    1.4206    0.0904 C   0  0  0  0  0  0  0  0  0  0  0  0
    4.6572   -1.1771   -1.5603 C   0  0  0  0  0  0  0  0  0  0  0  0
   -0.7735   -1.0795   -3.0359 O   0  0  0  0  0  0  0  0  0  0  0  0
   -2.0675   -1.8156   -1.3184 O   0  0  0  0  0  0  0  0  0  0  0  0
   -0.5193   -2.5139    1.9530 O   0  0  0  0  0  0  0  0  0  0  0  0
   -2.3732   -1.2817    1.5228 O   0  0  0  0  0  0  0  0  0  0  0  0
    3.9236   -0.4140    0.0085 Si  0  0  0  0  0  0  0  0  0  0  0  0
    1.4655   -0.0784   -2.2025 H   0  0  0  0  0  0  0  0  0  0  0  0
    1.3305    2.3633   -1.1536 H   0  0  0  0  0  0  0  0  0  0  0  0
    1.2856    2.1283    1.5417 H   0  0  0  0  0  0  0  0  0  0  0  0
    1.3974   -0.4817    2.1381 H   0  0  0  0  0  0  0  0  0  0  0  0
    1.8885   -1.8062   -0.1490 H   0  0  0  0  0  0  0  0  0  0  0  0
    4.3115   -2.3792    1.5298 H   0  0  0  0  0  0  0  0  0  0  0  0
    4.1669   -0.8632    2.4734 H   0  0  0  0  0  0  0  0  0  0  0  0
    5.6877   -1.2313    1.6016 H   0  0  0  0  0  0  0  0  0  0  0  0
    4.0172    1.9782   -0.7923 H   0  0  0  0  0  0  0  0  0  0  0  0
    5.4956    1.5279    0.1133 H   0  0  0  0  0  0  0  0  0  0  0  0
    3.9853    1.9107    0.9983 H   0  0  0  0  0  0  0  0  0  0  0  0
    4.2659   -0.6782   -2.4708 H   0  0  0  0  0  0  0  0  0  0  0  0
    4.4110   -2.2561   -1.6340 H   0  0  0  0  0  0  0  0  0  0  0  0
    5.7624   -1.0795   -1.5712 H   0  0  0  0  0  0  0  0  0  0  0  0
   -3.6914   -2.9841   -1.6867 H   0  0  0  0  0  0  0  0  0  0  0  0
   -2.3641   -3.1406   -2.9210 H   0  0  0  0  0  0  0  0  0  0  0  0
   -3.4146   -1.6816   -2.9194 H   0  0  0  0  0  0  0  0  0  0  0  0
   -4.1993   -1.9148    2.1565 H   0  0  0  0  0  0  0  0  0  0  0  0
   -2.8082   -2.5149    3.1655 H   0  0  0  0  0  0  0  0  0  0  0  0
   -3.1145   -3.2402    1.5490 H   0  0  0  0  0  0  0  0  0  0  0  0
  1  8  1  6  0  0  0
  1  6  1  0  0  0  0
  2 20  1  6  0  0  0
  2  1  1  0  0  0  0
  2  3  1  0  0  0  0
  2  7  1  0  0  0  0
  3  4  2  0  0  0  0
  4  5  1  0  0  0  0
  4 22  1  0  0  0  0
  5 23  1  1  0  0  0
  6  5  1  0  0  0  0
  6 10  1  6  0  0  0
  7 24  1  6  0  0  0
  7 19  1  0  0  0  0
  7  5  1  0  0  0  0
  8 16  1  0  0  0  0
  9 34  1  0  0  0  0
  9 16  1  0  0  0  0
 10 18  1  0  0  0  0
 10 17  2  0  0  0  0
 11 37  1  0  0  0  0
 11 38  1  0  0  0  0
 12 27  1  0  0  0  0
 12 26  1  0  0  0  0
 13 29  1  0  0  0  0
 13 30  1  0  0  0  0
 14 19  1  0  0  0  0
 15  8  2  0  0  0  0
 18 11  1  0  0  0  0
 19 13  1  0  0  0  0
 19 12  1  0  0  0  0
 21  3  1  0  0  0  0
 25 12  1  0  0  0  0
 28 13  1  0  0  0  0
 31 14  1  0  0  0  0
 32 14  1  0  0  0  0
 33 14  1  0  0  0  0
 35  9  1  0  0  0  0
 36  9  1  0  0  0  0
 39 11  1  0  0  0  0
M  END
