3
q = 0.0, confidence = 1.0

 37 39  0  0  1  0  0  0  0  0999 V2000
    1.6002    1.3758   -0.1057 O   0  0  0  0  0  0  0  0  0  0  0  0
    1.1384   -0.7420    0.1140 N   0  0  0  0  0  0  0  0  0  0  0  0
   -0.1130   -0.0965    0.0799 C   0  0  0  0  0  3  0  0  0  0  0  0
    0.2146    1.2456   -0.0600 C   0  0  0  0  0  0  0  0  0  0  0  0
    2.1356    0.1605   -0.0105 C   0  0  2  0  0  3  0  0  0  0  0  0
    1.3706   -2.2016    0.3070 C   0  0  0  0  0  0  0  0  0  0  0  0
    2.4289   -2.2661    0.6303 H   0  0  0  0  0  0  0  0  0  0  0  0
    1.1855   -2.9508   -1.0138 C   0  0  0  0  0  0  0  0  0  0  0  0
    0.1480   -2.8298   -1.3873 H   0  0  0  0  0  0  0  0  0  0  0  0
    1.4018   -4.0262   -0.8598 H   0  0  0  0  0  0  0  0  0  0  0  0
    1.8641   -2.5669   -1.8022 H   0  0  0  0  0  0  0  0  0  0  0  0
    0.5046   -2.7638    1.4308 C   0  0  0  0  0  0  0  0  0  0  0  0
    0.6146   -2.1787    2.3650 H   0  0  0  0  0  0  0  0  0  0  0  0
    0.8179   -3.8072    1.6303 H   0  0  0  0  0  0  0  0  0  0  0  0
   -0.5688   -2.7619    1.1423 H   0  0  0  0  0  0  0  0  0  0  0  0
    3.5883    0.0358   -0.0032 C   0  0  0  0  0  0  0  0  0  0  0  0
    4.3424    1.1029    0.5480 C   0  0  0  0  0  0  0  0  0  0  0  0
    3.8164    1.9700    0.9717 H   0  0  0  0  0  0  0  0  0  0  0  0
    5.7391    1.0461    0.5663 C   0  0  0  0  0  0  0  0  0  0  0  0
    6.3103    1.8779    1.0047 H   0  0  0  0  0  0  0  0  0  0  0  0
    6.4101   -0.0683    0.0350 C   0  0  0  0  0  0  0  0  0  0  0  0
    7.5092   -0.1118    0.0531 H   0  0  0  0  0  0  0  0  0  0  0  0
    5.6727   -1.1208   -0.5291 C   0  0  0  0  0  0  0  0  0  0  0  0
    6.1917   -1.9854   -0.9686 H   0  0  0  0  0  0  0  0  0  0  0  0
    4.2734   -1.0734   -0.5568 C   0  0  0  0  0  0  0  0  0  0  0  0
    3.7165   -1.8810   -1.0492 H   0  0  0  0  0  0  0  0  0  0  0  0
   -0.5576    2.4754   -0.1685 C   0  0  0  0  0  0  0  0  0  0  0  0
   -1.9560    2.4255   -0.3782 C   0  0  0  0  0  0  0  0  0  0  0  0
   -2.4459    1.4398   -0.4729 H   0  0  0  0  0  0  0  0  0  0  0  0
   -2.6977    3.6080   -0.4699 C   0  0  0  0  0  0  0  0  0  0  0  0
   -3.7843    3.5520   -0.6340 H   0  0  0  0  0  0  0  0  0  0  0  0
   -2.0625    4.8567   -0.3661 C   0  0  0  0  0  0  0  0  0  0  0  0
   -2.6492    5.7847   -0.4422 H   0  0  0  0  0  0  0  0  0  0  0  0
   -0.6725    4.9150   -0.1713 C   0  0  0  0  0  0  0  0  0  0  0  0
   -0.1668    5.8893   -0.0929 H   0  0  0  0  0  0  0  0  0  0  0  0
    0.0772    3.7374   -0.0731 C   0  0  0  0  0  0  0  0  0  0  0  0
    1.1645    3.7891    0.0813 H   0  0  0  0  0  0  0  0  0  0  0  0
  1  4  1  0  0  0  0
  1  5  1  0  0  0  0
  2  6  1  0  0  0  0
  3  2  1  0  0  0  0
  4  3  2  0  0  0  0
  5 16  1  1  0  0  0
  5  2  1  0  0  0  0
  6  7  1  0  0  0  0
  6 12  1  0  0  0  0
  8 10  1  0  0  0  0
  8  6  1  0  0  0  0
  9  8  1  0  0  0  0
 11  8  1  0  0  0  0
 12 14  1  0  0  0  0
 12 13  1  0  0  0  0
 15 12  1  0  0  0  0
 16 17  1  0  0  0  0
 17 19  2  0  0  0  0
 17 18  1  0  0  0  0
 19 20  1  0  0  0  0
 21 22  1  0  0  0  0
 21 19  1  0  0  0  0
 23 21  2  0  0  0  0
 24 23  1  0  0  0  0
 25 23  1  0  0  0  0
 25 16  2  0  0  0  0
 26 25  1  0  0  0  0
 27 36  1  0  0  0  0
 27  4  1  0  0  0  0
 28 27  2  0  0  0  0
 29 28  1  0  0  0  0
 30 28  1  0  0  0  0
 30 32  2  0  0  0  0
 31 30  1  0  0  0  0
 32 34  1  0  0  0  0
 33 32  1  0  0  0  0
 34 35  1  0  0  0  0
 34 36  2  0  0  0  0
 36 37  1  0  0  0  0
M  END
