3
q = -1.0

 19 18  0  0  0  0  0  0  0  0999 V2000
    3.6660   -0.9587    1.4532 O   0  0  0  0  0  0  0  0  0  0  0  0
    3.2160    0.8409    0.1241 O   0  0  0  0  0  0  0  0  0  0  0  0
    1.4004   -0.1337    1.2794 C   0  0  0  0  0  3  0  0  0  0  0  0
    2.8511   -0.1629    0.9863 C   0  0  0  0  0  0  0  0  0  0  0  0
    4.6225    1.1972   -0.0932 C   0  0  0  0  0  0  0  0  0  0  0  0
    5.2648    1.5922    1.2428 C   0  0  0  0  0  0  0  0  0  0  0  0
    4.5307    2.4111   -1.0228 C   0  0  0  0  0  0  0  0  0  0  0  0
    5.3917    0.0619   -0.7785 C   0  0  0  0  0  0  0  0  0  0  0  0
    1.2215   -0.6725    2.2296 H   0  0  0  0  0  0  0  0  0  0  0  0
    1.0900    0.9226    1.3961 H   0  0  0  0  0  0  0  0  0  0  0  0
    6.2921    1.9710    1.0700 H   0  0  0  0  0  0  0  0  0  0  0  0
    4.6760    2.3960    1.7284 H   0  0  0  0  0  0  0  0  0  0  0  0
    5.3161    0.7241    1.9247 H   0  0  0  0  0  0  0  0  0  0  0  0
    5.5425    2.8072   -1.2385 H   0  0  0  0  0  0  0  0  0  0  0  0
    4.0553    2.1285   -1.9835 H   0  0  0  0  0  0  0  0  0  0  0  0
    3.9270    3.2136   -0.5556 H   0  0  0  0  0  0  0  0  0  0  0  0
    6.4102    0.4118   -1.0429 H   0  0  0  0  0  0  0  0  0  0  0  0
    5.4737   -0.8154   -0.1133 H   0  0  0  0  0  0  0  0  0  0  0  0
    4.8802   -0.2430   -1.7124 H   0  0  0  0  0  0  0  0  0  0  0  0
  2  4  1  0  0  0  0
  3 10  1  0  0  0  0
  3  9  1  0  0  0  0
  4  3  1  0  0  0  0
  4  1  2  0  0  0  0
  5  2  1  0  0  0  0
  5  6  1  0  0  0  0
  6 12  1  0  0  0  0
  6 13  1  0  0  0  0
  7 16  1  0  0  0  0
  7  5  1  0  0  0  0
  8 18  1  0  0  0  0
  8  5  1  0  0  0  0
 11  6  1  0  0  0  0
 14  7  1  0  0  0  0
 15  7  1  0  0  0  0
 17  8  1  0  0  0  0
 19  8  1  0  0  0  0
M  END
