1
q = -1.0, confidence = 0.0

 17 17  0  0  0  0  0  0  0  0999 V2000
   -1.1811    1.2474   -0.1748 C   0  0  0  0  0  3  0  0  0  0  0  0
   -2.3233    1.6869    0.5311 C   0  0  0  0  0  0  0  0  0  0  0  0
   -2.9517    2.9182    0.2547 C   0  0  0  0  0  0  0  0  0  0  0  0
   -2.4207    3.7299   -0.7671 C   0  0  0  0  0  0  0  0  0  0  0  0
   -1.2900    3.3264   -1.4986 C   0  0  0  0  0  0  0  0  0  0  0  0
   -0.6849    2.0883   -1.1907 C   0  0  0  0  0  0  0  0  0  0  0  0
   -4.1607    3.3655    1.0411 C   0  0  0  0  0  0  0  0  0  0  0  0
   -0.7136    4.1935   -2.5919 C   0  0  0  0  0  0  0  0  0  0  0  0
   -2.7688    1.0520    1.3137 H   0  0  0  0  0  0  0  0  0  0  0  0
   -2.9007    4.6951   -0.9996 H   0  0  0  0  0  0  0  0  0  0  0  0
    0.2022    1.7801   -1.7663 H   0  0  0  0  0  0  0  0  0  0  0  0
   -4.5513    2.5541    1.6870 H   0  0  0  0  0  0  0  0  0  0  0  0
   -4.9833    3.6954    0.3733 H   0  0  0  0  0  0  0  0  0  0  0  0
   -3.9199    4.2281    1.6989 H   0  0  0  0  0  0  0  0  0  0  0  0
   -0.6297    3.6374   -3.5490 H   0  0  0  0  0  0  0  0  0  0  0  0
    0.3114    4.5335   -2.3328 H   0  0  0  0  0  0  0  0  0  0  0  0
   -1.3330    5.0935   -2.7739 H   0  0  0  0  0  0  0  0  0  0  0  0
  1  2  1  0  0  0  0
  2  9  1  0  0  0  0
  3  2  2  0  0  0  0
  3  7  1  0  0  0  0
  4  3  1  0  0  0  0
  5  6  1  0  0  0  0
  5  4  2  0  0  0  0
  6  1  2  0  0  0  0
  7 12  1  0  0  0  0
  7 14  1  0  0  0  0
  8 16  1  0  0  0  0
  8  5  1  0  0  0  0
 10  4  1  0  0  0  0
 11  6  1  0  0  0  0
 13  7  1  0  0  0  0
 15  8  1  0  0  0  0
 17  8  1  0  0  0  0
M  END
