1
q = 0.0, confidence = 0.988

 41 41  0  0  1  0  0  0  0  0999 V2000
   -0.7422   -0.0054    0.3556 C   0  0  0  0  0  2  0  0  0  0  0  0
   -1.7196   -0.8997    0.0233 N   0  0  0  0  0  0  0  0  0  0  0  0
   -1.3260    1.1396    0.7923 N   0  0  0  0  0  0  0  0  0  0  0  0
   -2.7616    0.9734    1.0038 C   0  0  0  0  0  0  0  0  0  0  0  0
   -2.9730    0.8545    2.0917 H   0  0  0  0  0  0  0  0  0  0  0  0
   -3.3337    1.8521    0.6438 H   0  0  0  0  0  0  0  0  0  0  0  0
   -3.0695   -0.2943    0.1907 C   0  0  1  0  0  0  0  0  0  0  0  0
   -3.7139   -0.9795    0.7777 H   0  0  0  0  0  0  0  0  0  0  0  0
   -1.5652   -2.3929    0.0576 C   0  0  0  0  0  0  0  0  0  0  0  0
   -2.7105   -3.0717   -0.7156 C   0  0  0  0  0  0  0  0  0  0  0  0
   -2.5653   -4.1678   -0.6604 H   0  0  0  0  0  0  0  0  0  0  0  0
   -2.7069   -2.7865   -1.7862 H   0  0  0  0  0  0  0  0  0  0  0  0
   -3.7101   -2.8563   -0.2899 H   0  0  0  0  0  0  0  0  0  0  0  0
   -0.2495   -2.8319   -0.5950 C   0  0  0  0  0  0  0  0  0  0  0  0
    0.6277   -2.3434   -0.1136 H   0  0  0  0  0  0  0  0  0  0  0  0
   -0.2322   -2.5795   -1.6730 H   0  0  0  0  0  0  0  0  0  0  0  0
   -0.1435   -3.9294   -0.4885 H   0  0  0  0  0  0  0  0  0  0  0  0
   -1.5958   -2.8383    1.5341 C   0  0  0  0  0  0  0  0  0  0  0  0
   -0.7534   -2.3764    2.0889 H   0  0  0  0  0  0  0  0  0  0  0  0
   -1.5149   -3.9416    1.6071 H   0  0  0  0  0  0  0  0  0  0  0  0
   -2.5480   -2.5397    2.0200 H   0  0  0  0  0  0  0  0  0  0  0  0
   -3.7704   -0.0133   -1.1657 C   0  0  0  0  0  0  0  0  0  0  0  0
   -3.8271   -0.9893   -1.6873 H   0  0  0  0  0  0  0  0  0  0  0  0
   -2.9820    0.9407   -2.0675 C   0  0  0  0  0  0  0  0  0  0  0  0
   -3.4483    1.0009   -3.0712 H   0  0  0  0  0  0  0  0  0  0  0  0
   -1.9354    0.6004   -2.1981 H   0  0  0  0  0  0  0  0  0  0  0  0
   -2.9586    1.9715   -1.6576 H   0  0  0  0  0  0  0  0  0  0  0  0
   -5.2089    0.4663   -0.9383 C   0  0  0  0  0  0  0  0  0  0  0  0
   -5.2389    1.4505   -0.4247 H   0  0  0  0  0  0  0  0  0  0  0  0
   -5.7878   -0.2518   -0.3212 H   0  0  0  0  0  0  0  0  0  0  0  0
   -5.7409    0.5873   -1.9031 H   0  0  0  0  0  0  0  0  0  0  0  0
   -0.6070    2.2012    1.4899 C   0  0  0  0  0  0  0  0  0  0  0  0
   -0.6743    2.0068    2.5850 H   0  0  0  0  0  0  0  0  0  0  0  0
    0.4633    2.0764    1.2211 H   0  0  0  0  0  0  0  0  0  0  0  0
   -1.1093    3.6124    1.1759 C   0  0  0  0  0  0  0  0  0  0  0  0
   -0.5509    4.3076    1.8381 H   0  0  0  0  0  0  0  0  0  0  0  0
   -2.1737    3.7114    1.4853 H   0  0  0  0  0  0  0  0  0  0  0  0
   -0.9474    4.0376   -0.2829 C   0  0  0  0  0  0  0  0  0  0  0  0
    0.1197    4.0401   -0.5851 H   0  0  0  0  0  0  0  0  0  0  0  0
   -1.3485    5.0560   -0.4562 H   0  0  0  0  0  0  0  0  0  0  0  0
   -1.4785    3.3447   -0.9664 H   0  0  0  0  0  0  0  0  0  0  0  0
  1  3  1  0  0  0  0
  2  9  1  0  0  0  0
  2  7  1  0  0  0  0
  2  1  1  0  0  0  0
  3  4  1  0  0  0  0
  3 32  1  0  0  0  0
  4  5  1  0  0  0  0
  6  4  1  0  0  0  0
  7  8  1  1  0  0  0
  7  4  1  0  0  0  0
  9 18  1  0  0  0  0
 10 11  1  0  0  0  0
 10 13  1  0  0  0  0
 10  9  1  0  0  0  0
 12 10  1  0  0  0  0
 14 17  1  0  0  0  0
 14 15  1  0  0  0  0
 14  9  1  0  0  0  0
 16 14  1  0  0  0  0
 18 20  1  0  0  0  0
 18 21  1  0  0  0  0
 18 19  1  0  0  0  0
 22 28  1  0  0  0  0
 22  7  1  0  0  0  0
 23 22  1  0  0  0  0
 24 27  1  0  0  0  0
 24 22  1  0  0  0  0
 25 24  1  0  0  0  0
 26 24  1  0  0  0  0
 28 29  1  0  0  0  0
 28 30  1  0  0  0  0
 31 28  1  0  0  0  0
 32 33  1  0  0  0  0
 34 32  1  0  0  0  0
 35 37  1  0  0  0  0
 35 32  1  0  0  0  0
 35 36  1  0  0  0  0
 38 35  1  0  0  0  0
 39 38  1  0  0  0  0
 40 38  1  0  0  0  0
 41 38  1  0  0  0  0
M  END
