2
q = -1

 17 16  0  0  0  0  0  0  0  0999 V2000
   -3.8748   -0.0275   -0.0134 Si  0  0  0  0  0  0  0  0  0  0  0  0
   -0.9887   -0.1836    0.1549 C   0  0  0  0  0  3  0  0  0  0  0  0
   -2.0786    0.3707   -0.4334 C   0  0  0  0  0  0  0  0  0  0  0  0
   -4.7561   -0.6690   -1.5677 C   0  0  0  0  0  0  0  0  0  0  0  0
   -3.9407   -1.3364    1.3519 C   0  0  0  0  0  0  0  0  0  0  0  0
   -4.7410    1.5579    0.5669 C   0  0  0  0  0  0  0  0  0  0  0  0
   -1.2065   -0.9578    0.9320 H   0  0  0  0  0  0  0  0  0  0  0  0
   -1.9212    1.1292   -1.2319 H   0  0  0  0  0  0  0  0  0  0  0  0
   -4.7062    0.0751   -2.3894 H   0  0  0  0  0  0  0  0  0  0  0  0
   -4.2899   -1.6074   -1.9322 H   0  0  0  0  0  0  0  0  0  0  0  0
   -5.8273   -0.8759   -1.3637 H   0  0  0  0  0  0  0  0  0  0  0  0
   -3.4553   -2.2809    1.0310 H   0  0  0  0  0  0  0  0  0  0  0  0
   -3.4272   -0.9852    2.2703 H   0  0  0  0  0  0  0  0  0  0  0  0
   -4.9917   -1.5704    1.6189 H   0  0  0  0  0  0  0  0  0  0  0  0
   -4.2643    1.9554    1.4862 H   0  0  0  0  0  0  0  0  0  0  0  0
   -4.6896    2.3479   -0.2106 H   0  0  0  0  0  0  0  0  0  0  0  0
   -5.8124    1.3713    0.7888 H   0  0  0  0  0  0  0  0  0  0  0  0
  1  6  1  0  0  0  0
  1  5  1  0  0  0  0
  2  7  1  0  0  0  0
  3  1  1  0  0  0  0
  3  2  2  0  0  0  0
  4 11  1  0  0  0  0
  4  1  1  0  0  0  0
  5 14  1  0  0  0  0
  5 13  1  0  0  0  0
  6 17  1  0  0  0  0
  6 15  1  0  0  0  0
  8  3  1  0  0  0  0
  9  4  1  0  0  0  0
 10  4  1  0  0  0  0
 12  5  1  0  0  0  0
 16  6  1  0  0  0  0
M  END
