3
q = -1.0, confidence = 0.0

 24 24  0  0  0  0  0  0  0  0999 V2000
   -0.3577   -1.6254    1.7397 O   0  0  0  0  0  0  0  0  0  0  0  0
   -2.3893   -1.2260    0.9385 O   0  0  0  0  0  0  0  0  0  0  0  0
   -0.5105    0.1283    0.1229 C   0  0  0  0  0  3  0  0  0  0  0  0
   -1.3945    0.9919   -0.4374 C   0  0  0  0  0  0  0  0  0  0  0  0
   -2.9008    0.8693   -0.2660 C   0  0  0  0  0  0  0  0  0  0  0  0
   -3.2402   -0.6506   -0.1074 C   0  0  0  0  0  0  0  0  0  0  0  0
   -1.0514   -0.9648    0.9757 C   0  0  0  0  0  0  0  0  0  0  0  0
   -3.6037    1.4835   -1.4910 C   0  0  0  0  0  0  0  0  0  0  0  0
   -3.2921    1.6729    0.9964 C   0  0  0  0  0  0  0  0  0  0  0  0
   -2.9931   -1.4519   -1.3951 C   0  0  0  0  0  0  0  0  0  0  0  0
   -4.6588   -0.9115    0.4001 C   0  0  0  0  0  0  0  0  0  0  0  0
   -1.0383    1.8716   -1.0035 H   0  0  0  0  0  0  0  0  0  0  0  0
   -3.3799    2.5684   -1.5427 H   0  0  0  0  0  0  0  0  0  0  0  0
   -3.2623    1.0293   -2.4413 H   0  0  0  0  0  0  0  0  0  0  0  0
   -4.7050    1.3745   -1.4280 H   0  0  0  0  0  0  0  0  0  0  0  0
   -2.8693    2.6959    0.9391 H   0  0  0  0  0  0  0  0  0  0  0  0
   -4.3925    1.7695    1.0939 H   0  0  0  0  0  0  0  0  0  0  0  0
   -2.8947    1.1929    1.9116 H   0  0  0  0  0  0  0  0  0  0  0  0
   -3.7648   -1.2326   -2.1577 H   0  0  0  0  0  0  0  0  0  0  0  0
   -2.0001   -1.2282   -1.8313 H   0  0  0  0  0  0  0  0  0  0  0  0
   -3.0420   -2.5326   -1.1592 H   0  0  0  0  0  0  0  0  0  0  0  0
   -4.8309   -2.0029    0.4725 H   0  0  0  0  0  0  0  0  0  0  0  0
   -4.8090   -0.4794    1.4063 H   0  0  0  0  0  0  0  0  0  0  0  0
   -5.4124   -0.4857   -0.2903 H   0  0  0  0  0  0  0  0  0  0  0  0
  2  7  1  0  0  0  0
  3  7  1  0  0  0  0
  4  5  1  0  0  0  0
  4  3  2  0  0  0  0
  5  6  1  0  0  0  0
  5  9  1  0  0  0  0
  6 11  1  0  0  0  0
  6  2  1  0  0  0  0
  7  1  2  0  0  0  0
  8 15  1  0  0  0  0
  8  5  1  0  0  0  0
  9 17  1  0  0  0  0
  9 18  1  0  0  0  0
 10 21  1  0  0  0  0
 10  6  1  0  0  0  0
 11 22  1  0  0  0  0
 11 23  1  0  0  0  0
 12  4  1  0  0  0  0
 13  8  1  0  0  0  0
 14  8  1  0  0  0  0
 16  9  1  0  0  0  0
 19 10  1  0  0  0  0
 20 10  1  0  0  0  0
 24 11  1  0  0  0  0
M  END
