5
q = -1.0, confidence = 0.0

 21 20  0  0  0  0  0  0  0  0999 V2000
   -0.4483   -1.7457   -1.3289 S   0  0  0  0  0  0  0  0  0  0  0  0
   -2.1352   -1.4786   -2.0051 C   0  0  0  0  0  0  0  0  0  0  0  0
   -3.0684   -0.8144   -0.9989 C   0  0  0  0  0  0  0  0  0  0  0  0
   -2.4927    0.4282   -0.3506 C   0  0  0  0  0  3  0  0  0  0  0  0
   -1.6374    1.3450   -1.0551 C   0  0  0  0  0  3  0  0  0  0  0  0
   -1.1339    2.4282   -0.2789 C   0  0  0  0  0  3  0  0  0  0  0  0
   -0.2090    3.4762   -0.8362 C   0  0  0  0  0  0  0  0  0  0  0  0
   -0.7380   -3.1507   -0.2058 C   0  0  0  0  0  0  0  0  0  0  0  0
   -1.9691   -0.8387   -2.8947 H   0  0  0  0  0  0  0  0  0  0  0  0
   -2.5231   -2.4503   -2.3711 H   0  0  0  0  0  0  0  0  0  0  0  0
   -4.0216   -0.5626   -1.5202 H   0  0  0  0  0  0  0  0  0  0  0  0
   -3.3527   -1.5352   -0.2024 H   0  0  0  0  0  0  0  0  0  0  0  0
   -3.1636    0.8761    0.4033 H   0  0  0  0  0  0  0  0  0  0  0  0
   -1.3204    1.2015   -2.1018 H   0  0  0  0  0  0  0  0  0  0  0  0
   -1.7924    2.7767    0.5364 H   0  0  0  0  0  0  0  0  0  0  0  0
   -0.7985    4.2963   -1.3021 H   0  0  0  0  0  0  0  0  0  0  0  0
    0.4746    3.0525   -1.5942 H   0  0  0  0  0  0  0  0  0  0  0  0
    0.4045    3.9321   -0.0331 H   0  0  0  0  0  0  0  0  0  0  0  0
   -0.8321   -4.0888   -0.7855 H   0  0  0  0  0  0  0  0  0  0  0  0
   -1.6332   -2.9752    0.4191 H   0  0  0  0  0  0  0  0  0  0  0  0
    0.1435   -3.1927    0.4601 H   0  0  0  0  0  0  0  0  0  0  0  0
  1  8  1  0  0  0  0
  2  1  1  0  0  0  0
  2  3  1  0  0  0  0
  3  4  1  0  0  0  0
  3 12  1  0  0  0  0
  4 13  1  0  0  0  0
  5  4  1  0  0  0  0
  5  6  1  0  0  0  0
  6 15  1  0  0  0  0
  7  6  1  0  0  0  0
  7 18  1  0  0  0  0
  8 20  1  0  0  0  0
  8 21  1  0  0  0  0
  9  2  1  0  0  0  0
 10  2  1  0  0  0  0
 11  3  1  0  0  0  0
 14  5  1  0  0  0  0
 16  7  1  0  0  0  0
 17  7  1  0  0  0  0
 19  8  1  0  0  0  0
M  END
