2
q = -1.0

 13 12  0  0  0  0  0  0  0  0999 V2000
   -4.2301   -1.5296   -0.5401 O   0  0  0  0  0  0  0  0  0  0  0  0
   -1.3225   -1.7440   -1.8438 C   0  0  0  0  0  1  0  0  0  0  0  0
   -2.1561   -2.4655   -2.4170 C   0  0  0  0  0  2  0  0  0  0  0  0
   -3.2160   -3.2933   -2.9978 C   0  0  0  0  0  0  0  0  0  0  0  0
   -4.6381   -2.8494   -2.5849 C   0  0  0  0  0  0  0  0  0  0  0  0
   -4.8227   -2.7007   -1.0685 C   0  0  0  0  0  0  0  0  0  0  0  0
   -3.3051   -1.5036   -0.8914 H   0  0  0  0  0  0  0  0  0  0  0  0
   -3.1382   -3.2984   -4.1084 H   0  0  0  0  0  0  0  0  0  0  0  0
   -3.0672   -4.3528   -2.6840 H   0  0  0  0  0  0  0  0  0  0  0  0
   -4.8787   -1.8719   -3.0553 H   0  0  0  0  0  0  0  0  0  0  0  0
   -5.3686   -3.5902   -2.9768 H   0  0  0  0  0  0  0  0  0  0  0  0
   -5.9077   -2.6442   -0.8324 H   0  0  0  0  0  0  0  0  0  0  0  0
   -4.4397   -3.6271   -0.5645 H   0  0  0  0  0  0  0  0  0  0  0  0
  3  2  1  0  0  0  0
  4  9  1  0  0  0  0
  4  5  1  0  0  0  0
  4  3  1  0  0  0  0
  5  6  1  0  0  0  0
  6 12  1  0  0  0  0
  6 13  1  0  0  0  0
  6  1  1  0  0  0  0
  7  1  1  0  0  0  0
  8  4  1  0  0  0  0
 10  5  1  0  0  0  0
 11  5  1  0  0  0  0
M  END
