6
q = -1.0, confidence = 0.026

 23 25  0  0  1  0  0  0  0  0999 V2000
   -4.4723   -2.5950    1.0122 C   0  0  0  0  0  0  0  0  0  0  0  0
   -4.9378   -1.2735    1.5746 C   0  0  0  0  0  0  0  0  0  0  0  0
   -4.8702   -0.2703    0.6754 C   0  0  0  0  0  0  0  0  0  0  0  0
   -4.2997   -0.7224   -0.6434 C   0  0  1  0  0  0  0  0  0  0  0  0
   -2.9155   -0.1154   -1.0905 C   0  0  1  0  0  0  0  0  0  0  0  0
   -2.0326   -0.0732    0.1540 C   0  0  0  0  0  3  0  0  0  0  0  0
   -1.7112   -1.5133    0.4272 C   0  0  0  0  0  0  0  0  0  0  0  0
   -2.4383   -2.2990   -0.6871 C   0  0  1  0  0  0  0  0  0  0  0  0
   -3.9658   -2.2434   -0.4095 C   0  0  1  0  0  0  0  0  0  0  0  0
   -2.3249   -1.3111   -1.8666 C   0  0  0  0  0  0  0  0  0  0  0  0
   -3.7002   -3.0837    1.6475 H   0  0  0  0  0  0  0  0  0  0  0  0
   -5.3129   -3.3213    0.9742 H   0  0  0  0  0  0  0  0  0  0  0  0
   -5.3242   -1.1699    2.6006 H   0  0  0  0  0  0  0  0  0  0  0  0
   -5.1990    0.7632    0.8651 H   0  0  0  0  0  0  0  0  0  0  0  0
   -5.0218   -0.5703   -1.4749 H   0  0  0  0  0  0  0  0  0  0  0  0
   -3.0164    0.8335   -1.6474 H   0  0  0  0  0  0  0  0  0  0  0  0
   -2.4061    0.5267    0.9981 H   0  0  0  0  0  0  0  0  0  0  0  0
   -0.5407   -1.7820    0.2777 H   0  0  0  0  0  0  0  0  0  0  0  0
   -1.8654   -1.8569    1.4682 H   0  0  0  0  0  0  0  0  0  0  0  0
   -2.0445   -3.3199   -0.8568 H   0  0  0  0  0  0  0  0  0  0  0  0
   -4.4617   -2.8770   -1.1697 H   0  0  0  0  0  0  0  0  0  0  0  0
   -2.9353   -1.6144   -2.7398 H   0  0  0  0  0  0  0  0  0  0  0  0
   -1.2803   -1.1430   -2.2075 H   0  0  0  0  0  0  0  0  0  0  0  0
  1  2  1  0  0  0  0
  1 11  1  0  0  0  0
  2 13  1  0  0  0  0
  3 14  1  0  0  0  0
  3  2  2  0  0  0  0
  4 15  1  6  0  0  0
  4  9  1  0  0  0  0
  4  3  1  0  0  0  0
  5 16  1  6  0  0  0
  5  4  1  0  0  0  0
  5  6  1  0  0  0  0
  6  7  1  0  0  0  0
  6 17  1  0  0  0  0
  7 19  1  0  0  0  0
  8 20  1  6  0  0  0
  8  9  1  0  0  0  0
  8  7  1  0  0  0  0
  9 21  1  6  0  0  0
  9  1  1  0  0  0  0
 10  5  1  0  0  0  0
 10  8  1  0  0  0  0
 12  1  1  0  0  0  0
 18  7  1  0  0  0  0
 22 10  1  0  0  0  0
 23 10  1  0  0  0  0
M  END
