3
q = 0.0, confidence = 1.0

 49 51  0  0  0  0  0  0  0  0999 V2000
    2.0589    0.0564    0.1968 N   0  0  0  0  0  0  0  0  0  0  0  0
    0.8309    1.7686    0.6770 N   0  0  0  0  0  0  0  0  0  0  0  0
    0.7152    0.4425    0.3148 C   0  0  0  0  0  2  0  0  0  0  0  0
    4.8588   -0.3612    0.0885 C   0  0  0  0  0  0  0  0  0  0  0  0
    2.5685   -1.1719   -0.1521 C   0  0  0  0  0  0  0  0  0  0  0  0
    2.1517    2.1869    0.8185 C   0  0  0  0  0  0  0  0  0  0  0  0
    2.4012    3.2085    1.1125 H   0  0  0  0  0  0  0  0  0  0  0  0
    4.3652    0.8787    0.4434 C   0  0  0  0  0  0  0  0  0  0  0  0
    5.0280    1.7177    0.6861 H   0  0  0  0  0  0  0  0  0  0  0  0
    2.9585    1.1132    0.5073 C   0  0  0  0  0  0  0  0  0  0  0  0
    3.9088   -1.4118   -0.2159 C   0  0  0  0  0  0  0  0  0  0  0  0
    4.2278   -2.4204   -0.5056 H   0  0  0  0  0  0  0  0  0  0  0  0
   -0.2729    2.6312    0.9926 C   0  0  0  0  0  0  0  0  0  0  0  0
   -0.9377    3.4277    0.0270 C   0  0  0  0  0  0  0  0  0  0  0  0
   -2.0419    4.1681    0.5203 C   0  0  0  0  0  0  0  0  0  0  0  0
   -2.6147    4.7872   -0.1843 H   0  0  0  0  0  0  0  0  0  0  0  0
    1.6538   -2.1038   -0.4278 F   0  0  0  0  0  0  0  0  0  0  0  0
   -0.6689    2.6017    2.3455 C   0  0  0  0  0  0  0  0  0  0  0  0
   -0.1182    1.9379    3.0273 H   0  0  0  0  0  0  0  0  0  0  0  0
   -1.7594    3.3515    2.7885 C   0  0  0  0  0  0  0  0  0  0  0  0
   -2.0719    3.3100    3.8420 H   0  0  0  0  0  0  0  0  0  0  0  0
    6.3552   -0.6816   -0.0003 C   0  0  0  0  0  0  0  0  0  0  0  0
    6.6915   -1.1262   -1.4427 C   0  0  0  0  0  0  0  0  0  0  0  0
    7.7701   -1.3720   -1.5256 H   0  0  0  0  0  0  0  0  0  0  0  0
    6.4633   -0.3206   -2.1691 H   0  0  0  0  0  0  0  0  0  0  0  0
    6.1193   -2.0256   -1.7450 H   0  0  0  0  0  0  0  0  0  0  0  0
    7.2236    0.5368    0.3525 C   0  0  0  0  0  0  0  0  0  0  0  0
    7.0390    0.8869    1.3881 H   0  0  0  0  0  0  0  0  0  0  0  0
    7.0431    1.3841   -0.3393 H   0  0  0  0  0  0  0  0  0  0  0  0
    8.2960    0.2678    0.2777 H   0  0  0  0  0  0  0  0  0  0  0  0
    6.6859   -1.8257    0.9860 C   0  0  0  0  0  0  0  0  0  0  0  0
    6.4539   -1.5295    2.0287 H   0  0  0  0  0  0  0  0  0  0  0  0
    7.7642   -2.0798    0.9297 H   0  0  0  0  0  0  0  0  0  0  0  0
    6.1130   -2.7471    0.7613 H   0  0  0  0  0  0  0  0  0  0  0  0
   -2.4537    4.1380    1.8567 C   0  0  0  0  0  0  0  0  0  0  0  0
   -3.3252    4.7327    2.1699 H   0  0  0  0  0  0  0  0  0  0  0  0
   -0.6533    3.5182   -1.4925 C   0  0  0  0  0  0  0  0  0  0  0  0
    0.6484    2.8525   -1.9813 C   0  0  0  0  0  0  0  0  0  0  0  0
    1.5457    3.2522   -1.4707 H   0  0  0  0  0  0  0  0  0  0  0  0
    0.7594    3.0709   -3.0625 H   0  0  0  0  0  0  0  0  0  0  0  0
    0.6237    1.7517   -1.8835 H   0  0  0  0  0  0  0  0  0  0  0  0
   -0.5712    5.0121   -1.8933 C   0  0  0  0  0  0  0  0  0  0  0  0
    0.2539    5.5237   -1.3567 H   0  0  0  0  0  0  0  0  0  0  0  0
   -1.5060    5.5691   -1.6889 H   0  0  0  0  0  0  0  0  0  0  0  0
   -0.3726    5.0923   -2.9810 H   0  0  0  0  0  0  0  0  0  0  0  0
   -1.8325    2.8408   -2.2345 C   0  0  0  0  0  0  0  0  0  0  0  0
   -1.6991    2.9542   -3.3300 H   0  0  0  0  0  0  0  0  0  0  0  0
   -2.8083    3.2898   -1.9609 H   0  0  0  0  0  0  0  0  0  0  0  0
   -1.8646    1.7554   -2.0134 H   0  0  0  0  0  0  0  0  0  0  0  0
  1  3  1  0  0  0  0
  1 10  1  0  0  0  0
  2  6  1  0  0  0  0
  2 13  1  0  0  0  0
  3  2  1  0  0  0  0
  4  8  2  0  0  0  0
  5  1  1  0  0  0  0
  6  7  1  0  0  0  0
  8 10  1  0  0  0  0
  8  9  1  0  0  0  0
 10  6  2  0  0  0  0
 11  5  2  0  0  0  0
 11  4  1  0  0  0  0
 12 11  1  0  0  0  0
 13 18  1  0  0  0  0
 14 15  1  0  0  0  0
 14 13  2  0  0  0  0
 15 35  2  0  0  0  0
 16 15  1  0  0  0  0
 17  5  1  0  0  0  0
 18 20  2  0  0  0  0
 18 19  1  0  0  0  0
 20 21  1  0  0  0  0
 22  4  1  0  0  0  0
 22 27  1  0  0  0  0
 22 31  1  0  0  0  0
 23 22  1  0  0  0  0
 24 23  1  0  0  0  0
 25 23  1  0  0  0  0
 26 23  1  0  0  0  0
 27 28  1  0  0  0  0
 29 27  1  0  0  0  0
 30 27  1  0  0  0  0
 31 32  1  0  0  0  0
 33 31  1  0  0  0  0
 34 31  1  0  0  0  0
 35 36  1  0  0  0  0
 35 20  1  0  0  0  0
 37 14  1  0  0  0  0
 38 41  1  0  0  0  0
 38 37  1  0  0  0  0
 38 39  1  0  0  0  0
 40 38  1  0  0  0  0
 42 44  1  0  0  0  0
 42 37  1  0  0  0  0
 42 43  1  0  0  0  0
 45 42  1  0  0  0  0
 46 49  1  0  0  0  0
 46 48  1  0  0  0  0
 46 37  1  0  0  0  0
 47 46  1  0  0  0  0
M  END
