3
q = -1.0

 30 31  0  0  0  0  0  0  0  0999 V2000
   -1.2613   -0.4297   -1.0346 N   0  0  0  0  0  0  0  0  0  0  0  0
   -1.9772   -1.0264    1.5959 N   0  0  0  0  0  0  0  0  0  0  0  0
   -0.3889   -0.2937   -0.0609 C   0  0  0  0  0  3  0  0  0  0  0  0
   -2.5440   -0.8224   -0.7562 C   0  0  0  0  0  0  0  0  0  0  0  0
   -3.5100   -0.9185   -1.8074 C   0  0  0  0  0  0  0  0  0  0  0  0
   -4.8323   -1.2445   -1.4689 C   0  0  0  0  0  0  0  0  0  0  0  0
   -5.2142   -1.4785   -0.1019 C   0  0  0  0  0  0  0  0  0  0  0  0
   -4.2721   -1.4103    0.9346 C   0  0  0  0  0  0  0  0  0  0  0  0
   -2.9158   -1.0892    0.6046 C   0  0  0  0  0  0  0  0  0  0  0  0
   -0.7437   -0.6521    1.3012 C   0  0  0  0  0  0  0  0  0  0  0  0
   -3.0729   -0.6481   -3.2256 C   0  0  0  0  0  0  0  0  0  0  0  0
   -5.8940   -1.3522   -2.5363 C   0  0  0  0  0  0  0  0  0  0  0  0
   -6.6592   -1.8011    0.1924 C   0  0  0  0  0  0  0  0  0  0  0  0
   -4.6293   -1.6399    2.3813 C   0  0  0  0  0  0  0  0  0  0  0  0
    0.2781   -0.6034    2.4005 C   0  0  0  0  0  0  0  0  0  0  0  0
   -3.6445    0.1854   -3.6847 H   0  0  0  0  0  0  0  0  0  0  0  0
   -2.0007   -0.3796   -3.2373 H   0  0  0  0  0  0  0  0  0  0  0  0
   -3.2180   -1.5345   -3.8784 H   0  0  0  0  0  0  0  0  0  0  0  0
   -6.7203   -0.6299   -2.3641 H   0  0  0  0  0  0  0  0  0  0  0  0
   -6.3651   -2.3580   -2.5389 H   0  0  0  0  0  0  0  0  0  0  0  0
   -5.4960   -1.1681   -3.5490 H   0  0  0  0  0  0  0  0  0  0  0  0
   -7.3368   -0.9961   -0.1634 H   0  0  0  0  0  0  0  0  0  0  0  0
   -6.9848   -2.7261   -0.3297 H   0  0  0  0  0  0  0  0  0  0  0  0
   -6.8482   -1.9432    1.2703 H   0  0  0  0  0  0  0  0  0  0  0  0
   -5.3514   -0.8801    2.7489 H   0  0  0  0  0  0  0  0  0  0  0  0
   -3.7147   -1.5723    2.9974 H   0  0  0  0  0  0  0  0  0  0  0  0
   -5.0942   -2.6343    2.5430 H   0  0  0  0  0  0  0  0  0  0  0  0
    0.7584    0.3967    2.4454 H   0  0  0  0  0  0  0  0  0  0  0  0
   -0.1983   -0.8315    3.3714 H   0  0  0  0  0  0  0  0  0  0  0  0
    1.1007   -1.3261    2.2147 H   0  0  0  0  0  0  0  0  0  0  0  0
  1  4  2  0  0  0  0
  1  3  1  0  0  0  0
  3 10  2  0  0  0  0
  4  9  1  0  0  0  0
  5  6  2  0  0  0  0
  5  4  1  0  0  0  0
  6  7  1  0  0  0  0
  7 13  1  0  0  0  0
  7  8  2  0  0  0  0
  8 14  1  0  0  0  0
  9  8  1  0  0  0  0
  9  2  2  0  0  0  0
 10  2  1  0  0  0  0
 10 15  1  0  0  0  0
 11  5  1  0  0  0  0
 12 19  1  0  0  0  0
 12  6  1  0  0  0  0
 13 24  1  0  0  0  0
 14 27  1  0  0  0  0
 14 25  1  0  0  0  0
 14 26  1  0  0  0  0
 15 28  1  0  0  0  0
 15 29  1  0  0  0  0
 16 11  1  0  0  0  0
 17 11  1  0  0  0  0
 18 11  1  0  0  0  0
 20 12  1  0  0  0  0
 21 12  1  0  0  0  0
 22 13  1  0  0  0  0
 23 13  1  0  0  0  0
 30 15  1  0  0  0  0
M  END
