2
q = -1.0

 31 31  0  0  1  0  0  0  0  0999 V2000
    1.2286   -1.9908   -2.6116 O   0  0  0  0  0  0  0  0  0  0  0  0
    0.6734   -1.3149   -1.7814 C   0  0  0  0  0  3  0  0  0  0  0  0
   -0.5488   -0.8966   -1.0029 B   0  0  0  0  0  0  0  0  0  0  0  0
   -0.8167    0.4820   -0.1732 C   0  0  1  0  0  3  0  0  0  0  0  0
   -1.2878    2.3276   -0.1395 Si  0  0  0  0  0  0  0  0  0  0  0  0
    0.1557    3.5323   -0.3027 C   0  0  0  0  0  0  0  0  0  0  0  0
    0.9324    3.3403    0.4631 H   0  0  0  0  0  0  0  0  0  0  0  0
   -0.2202    4.5668   -0.1575 H   0  0  0  0  0  0  0  0  0  0  0  0
    0.6425    3.4787   -1.2950 H   0  0  0  0  0  0  0  0  0  0  0  0
   -2.1816    2.7142    1.4878 C   0  0  0  0  0  0  0  0  0  0  0  0
   -2.9635    1.9674    1.7211 H   0  0  0  0  0  0  0  0  0  0  0  0
   -2.6701    3.7084    1.4159 H   0  0  0  0  0  0  0  0  0  0  0  0
   -1.4736    2.7496    2.3389 H   0  0  0  0  0  0  0  0  0  0  0  0
   -2.4804    2.5687   -1.5947 C   0  0  0  0  0  0  0  0  0  0  0  0
   -3.3735    1.9201   -1.4869 H   0  0  0  0  0  0  0  0  0  0  0  0
   -1.9855    2.3068   -2.5523 H   0  0  0  0  0  0  0  0  0  0  0  0
   -2.8228    3.6221   -1.6611 H   0  0  0  0  0  0  0  0  0  0  0  0
   -1.7313   -0.5748   -0.1651 C   0  0  1  0  0  3  0  0  0  0  0  0
   -3.5007   -1.1678   -0.0077 Si  0  0  0  0  0  0  0  0  0  0  0  0
   -4.1468   -1.3693   -1.7746 C   0  0  0  0  0  0  0  0  0  0  0  0
   -4.2052   -0.3910   -2.2932 H   0  0  0  0  0  0  0  0  0  0  0  0
   -5.1597   -1.8223   -1.7745 H   0  0  0  0  0  0  0  0  0  0  0  0
   -3.4711   -2.0244   -2.3607 H   0  0  0  0  0  0  0  0  0  0  0  0
   -3.4317   -2.8538    0.8499 C   0  0  0  0  0  0  0  0  0  0  0  0
   -3.0687   -2.7645    1.8940 H   0  0  0  0  0  0  0  0  0  0  0  0
   -2.7473   -3.5369    0.3074 H   0  0  0  0  0  0  0  0  0  0  0  0
   -4.4380   -3.3205    0.8778 H   0  0  0  0  0  0  0  0  0  0  0  0
   -4.6435   -0.0219    0.9742 C   0  0  0  0  0  0  0  0  0  0  0  0
   -4.2873    0.1177    2.0151 H   0  0  0  0  0  0  0  0  0  0  0  0
   -5.6591   -0.4669    1.0249 H   0  0  0  0  0  0  0  0  0  0  0  0
   -4.7367    0.9772    0.5037 H   0  0  0  0  0  0  0  0  0  0  0  0
  1  2  2  0  0  0  0
  2  3  1  0  0  0  0
  3  4  1  0  0  0  0
  3 18  1  0  0  0  0
  4 18  1  0  0  0  0
  4  5  1  6  0  0  0
  5 10  1  0  0  0  0
  6  8  1  0  0  0  0
  6  5  1  0  0  0  0
  6  7  1  0  0  0  0
  9  6  1  0  0  0  0
 10 11  1  0  0  0  0
 10 13  1  0  0  0  0
 12 10  1  0  0  0  0
 14 15  1  0  0  0  0
 14  5  1  0  0  0  0
 16 14  1  0  0  0  0
 17 14  1  0  0  0  0
 18 19  1  6  0  0  0
 19 24  1  0  0  0  0
 19 28  1  0  0  0  0
 20 22  1  0  0  0  0
 20 19  1  0  0  0  0
 21 20  1  0  0  0  0
 23 20  1  0  0  0  0
 24 27  1  0  0  0  0
 24 25  1  0  0  0  0
 26 24  1  0  0  0  0
 28 30  1  0  0  0  0
 28 29  1  0  0  0  0
 31 28  1  0  0  0  0
M  END
