2
q = -1.0

 29 29  0  0  0  0  0  0  0  0999 V2000
   -0.6350    1.4242    0.9452 N   0  0  0  0  0  0  0  0  0  0  0  0
   -1.7583    1.0065    0.4843 C   0  0  0  0  0  3  0  0  0  0  0  0
   -0.2224    2.6534    1.6719 C   0  0  0  0  0  0  0  0  0  0  0  0
   -0.6850    3.9306    0.9473 C   0  0  0  0  0  0  0  0  0  0  0  0
    1.3101    2.6384    1.7832 C   0  0  0  0  0  0  0  0  0  0  0  0
   -0.8411    2.5884    3.0831 C   0  0  0  0  0  0  0  0  0  0  0  0
   -3.0947    1.7119    0.4342 C   0  0  0  0  0  0  0  0  0  0  0  0
   -4.2177    0.8596   -0.1080 C   0  0  0  0  0  0  0  0  0  0  0  0
   -4.7574    1.1010   -1.3853 C   0  0  0  0  0  0  0  0  0  0  0  0
   -5.7467    0.2607   -1.9204 C   0  0  0  0  0  0  0  0  0  0  0  0
   -6.2136   -0.8361   -1.1798 C   0  0  0  0  0  0  0  0  0  0  0  0
   -5.6935   -1.0786    0.1027 C   0  0  0  0  0  0  0  0  0  0  0  0
   -4.7061   -0.2357    0.6327 C   0  0  0  0  0  0  0  0  0  0  0  0
   -0.3473    3.9312   -0.1068 H   0  0  0  0  0  0  0  0  0  0  0  0
   -1.7848    4.0522    0.9681 H   0  0  0  0  0  0  0  0  0  0  0  0
   -0.2450    4.8184    1.4443 H   0  0  0  0  0  0  0  0  0  0  0  0
    1.6591    1.7002    2.2545 H   0  0  0  0  0  0  0  0  0  0  0  0
    1.6565    3.4938    2.3967 H   0  0  0  0  0  0  0  0  0  0  0  0
    1.7920    2.7027    0.7900 H   0  0  0  0  0  0  0  0  0  0  0  0
   -0.5225    3.4706    3.6738 H   0  0  0  0  0  0  0  0  0  0  0  0
   -1.9489    2.5871    3.0489 H   0  0  0  0  0  0  0  0  0  0  0  0
   -0.5088    1.6789    3.6198 H   0  0  0  0  0  0  0  0  0  0  0  0
   -3.3446    2.0746    1.4565 H   0  0  0  0  0  0  0  0  0  0  0  0
   -2.9810    2.6262   -0.1864 H   0  0  0  0  0  0  0  0  0  0  0  0
   -4.3846    1.9530   -1.9761 H   0  0  0  0  0  0  0  0  0  0  0  0
   -6.1505    0.4612   -2.9243 H   0  0  0  0  0  0  0  0  0  0  0  0
   -6.9854   -1.4991   -1.5987 H   0  0  0  0  0  0  0  0  0  0  0  0
   -6.0608   -1.9311    0.6944 H   0  0  0  0  0  0  0  0  0  0  0  0
   -4.2998   -0.4352    1.6361 H   0  0  0  0  0  0  0  0  0  0  0  0
  1  3  1  0  0  0  0
  2  1  2  0  0  0  0
  3  5  1  0  0  0  0
  3  6  1  0  0  0  0
  4 15  1  0  0  0  0
  4 16  1  0  0  0  0
  4  3  1  0  0  0  0
  5 17  1  0  0  0  0
  5 18  1  0  0  0  0
  6 22  1  0  0  0  0
  6 20  1  0  0  0  0
  7  2  1  0  0  0  0
  7 23  1  0  0  0  0
  8  7  1  0  0  0  0
  8 13  1  0  0  0  0
  9  8  2  0  0  0  0
 10  9  1  0  0  0  0
 10 11  2  0  0  0  0
 11 12  1  0  0  0  0
 12 13  2  0  0  0  0
 12 28  1  0  0  0  0
 13 29  1  0  0  0  0
 14  4  1  0  0  0  0
 19  5  1  0  0  0  0
 21  6  1  0  0  0  0
 24  7  1  0  0  0  0
 25  9  1  0  0  0  0
 26 10  1  0  0  0  0
 27 11  1  0  0  0  0
M  END
