3
q = 0.0, confidence = 1.0

 46 48  0  0  1  0  0  0  0  0999 V2000
    1.7116   -2.0617   -0.0151 N   0  0  2  0  0  0  0  0  0  0  0  0
   -0.4348   -2.5163    0.1219 N   0  0  0  0  0  0  0  0  0  0  0  0
    0.4688   -1.4963    0.0162 C   0  0  0  0  0  2  0  0  0  0  0  0
    1.6897   -3.5003    0.2450 C   0  0  0  0  0  0  0  0  0  0  0  0
    2.0316   -3.7171    1.2824 H   0  0  0  0  0  0  0  0  0  0  0  0
    2.3491   -4.0541   -0.4535 H   0  0  0  0  0  0  0  0  0  0  0  0
    0.2030   -3.8387    0.0512 C   0  0  0  0  0  0  0  0  0  0  0  0
    0.0033   -4.3137   -0.9362 H   0  0  0  0  0  0  0  0  0  0  0  0
   -0.1950   -4.5123    0.8364 H   0  0  0  0  0  0  0  0  0  0  0  0
   -1.8551   -2.3921    0.1047 C   0  0  0  0  0  0  0  0  0  0  0  0
   -2.5347   -2.3412   -1.1349 C   0  0  0  0  0  0  0  0  0  0  0  0
   -3.9323   -2.1847   -1.1124 C   0  0  0  0  0  0  0  0  0  0  0  0
   -4.4742   -2.1276   -2.0704 H   0  0  0  0  0  0  0  0  0  0  0  0
   -4.6502   -2.0756    0.0942 C   0  0  0  0  0  0  0  0  0  0  0  0
   -3.9353   -2.1245    1.3066 C   0  0  0  0  0  0  0  0  0  0  0  0
   -4.4794   -2.0216    2.2594 H   0  0  0  0  0  0  0  0  0  0  0  0
   -2.5384   -2.2826    1.3377 C   0  0  0  0  0  0  0  0  0  0  0  0
   -1.7690   -2.3600   -2.4315 C   0  0  0  0  0  0  0  0  0  0  0  0
   -2.4550   -2.3266   -3.2988 H   0  0  0  0  0  0  0  0  0  0  0  0
   -1.1420   -3.2702   -2.5315 H   0  0  0  0  0  0  0  0  0  0  0  0
   -1.0778   -1.4916   -2.4986 H   0  0  0  0  0  0  0  0  0  0  0  0
   -6.1518   -1.9311    0.0888 C   0  0  0  0  0  0  0  0  0  0  0  0
   -6.5105   -1.4243   -0.8287 H   0  0  0  0  0  0  0  0  0  0  0  0
   -6.5104   -1.3571    0.9660 H   0  0  0  0  0  0  0  0  0  0  0  0
   -6.6467   -2.9257    0.1262 H   0  0  0  0  0  0  0  0  0  0  0  0
   -1.7692   -2.2596    2.6319 C   0  0  0  0  0  0  0  0  0  0  0  0
   -1.1403   -3.1664    2.7519 H   0  0  0  0  0  0  0  0  0  0  0  0
   -2.4512   -2.1993    3.5010 H   0  0  0  0  0  0  0  0  0  0  0  0
   -1.0758   -1.3915    2.6658 H   0  0  0  0  0  0  0  0  0  0  0  0
    2.9458   -1.2874   -0.0769 C   0  0  0  0  0  0  0  0  0  0  0  0
    2.6298   -0.2204   -0.1507 H   0  0  0  0  0  0  0  0  0  0  0  0
    3.7976   -1.4116    1.1943 C   0  0  0  0  0  0  0  0  0  0  0  0
    3.1692   -1.1388    2.0666 H   0  0  0  0  0  0  0  0  0  0  0  0
    4.1192   -2.4699    1.3220 H   0  0  0  0  0  0  0  0  0  0  0  0
    5.0361   -0.5108    1.1029 C   0  0  0  0  0  0  0  0  0  0  0  0
    5.6632   -0.6329    2.0104 H   0  0  0  0  0  0  0  0  0  0  0  0
    4.7043    0.5518    1.0966 H   0  0  0  0  0  0  0  0  0  0  0  0
    5.8541   -0.7939   -0.1641 C   0  0  0  0  0  0  0  0  0  0  0  0
    6.7228   -0.1053   -0.2251 H   0  0  0  0  0  0  0  0  0  0  0  0
    6.2756   -1.8231   -0.1036 H   0  0  0  0  0  0  0  0  0  0  0  0
    4.9893   -0.6774   -1.4263 C   0  0  0  0  0  0  0  0  0  0  0  0
    5.5831   -0.9183   -2.3324 H   0  0  0  0  0  0  0  0  0  0  0  0
    4.6524    0.3767   -1.5470 H   0  0  0  0  0  0  0  0  0  0  0  0
    3.7504   -1.5784   -1.3523 C   0  0  0  0  0  0  0  0  0  0  0  0
    3.0864   -1.4148   -2.2248 H   0  0  0  0  0  0  0  0  0  0  0  0
    4.0633   -2.6471   -1.3564 H   0  0  0  0  0  0  0  0  0  0  0  0
  1 30  1  1  0  0  0
  1  3  1  0  0  0  0
  1  4  1  0  0  0  0
  3  2  1  0  0  0  0
  4  5  1  0  0  0  0
  6  4  1  0  0  0  0
  7  2  1  0  0  0  0
  7  4  1  0  0  0  0
  7  9  1  0  0  0  0
  8  7  1  0  0  0  0
 10  2  1  0  0  0  0
 10 17  1  0  0  0  0
 11 12  1  0  0  0  0
 11 10  2  0  0  0  0
 12 14  2  0  0  0  0
 13 12  1  0  0  0  0
 14 15  1  0  0  0  0
 15 17  2  0  0  0  0
 15 16  1  0  0  0  0
 17 26  1  0  0  0  0
 18 11  1  0  0  0  0
 19 18  1  0  0  0  0
 20 18  1  0  0  0  0
 21 18  1  0  0  0  0
 22 14  1  0  0  0  0
 22 25  1  0  0  0  0
 22 24  1  0  0  0  0
 23 22  1  0  0  0  0
 26 29  1  0  0  0  0
 26 27  1  0  0  0  0
 26 28  1  0  0  0  0
 30 32  1  0  0  0  0
 31 30  1  0  0  0  0
 32 34  1  0  0  0  0
 32 33  1  0  0  0  0
 35 32  1  0  0  0  0
 35 36  1  0  0  0  0
 37 35  1  0  0  0  0
 38 40  1  0  0  0  0
 38 35  1  0  0  0  0
 39 38  1  0  0  0  0
 41 44  1  0  0  0  0
 41 38  1  0  0  0  0
 42 41  1  0  0  0  0
 43 41  1  0  0  0  0
 44 30  1  0  0  0  0
 45 44  1  0  0  0  0
 46 44  1  0  0  0  0
M  END
