3
q = 0.0, confidence = 0.966

 43 45  0  0  1  0  0  0  0  0999 V2000
   -2.2375    1.2834   -0.6969 N   0  0  2  0  0  0  0  0  0  0  0  0
   -0.3487    2.4297   -0.5452 N   0  0  1  0  0  0  0  0  0  0  0  0
   -0.8861    1.1704   -0.4984 C   0  0  0  0  0  2  0  0  0  0  0  0
   -2.6688    2.6824   -0.7410 C   0  0  0  0  0  0  0  0  0  0  0  0
   -3.1462    2.9772    0.2219 H   0  0  0  0  0  0  0  0  0  0  0  0
   -3.4010    2.8583   -1.5534 H   0  0  0  0  0  0  0  0  0  0  0  0
   -1.3429    3.4181   -0.9751 C   0  0  0  0  0  0  0  0  0  0  0  0
   -1.1980    3.6715   -2.0495 H   0  0  0  0  0  0  0  0  0  0  0  0
   -1.2634    4.3551   -0.3908 H   0  0  0  0  0  0  0  0  0  0  0  0
    0.9273    2.8374    0.0358 C   0  0  0  0  0  0  0  0  0  0  0  0
    1.4420    1.8922    0.2947 H   0  0  0  0  0  0  0  0  0  0  0  0
    0.7475    3.6012    1.3617 C   0  0  0  0  0  0  0  0  0  0  0  0
    0.1400    2.9728    2.0439 H   0  0  0  0  0  0  0  0  0  0  0  0
    0.1942    4.5517    1.1865 H   0  0  0  0  0  0  0  0  0  0  0  0
    2.1136    3.9184    1.9839 C   0  0  0  0  0  0  0  0  0  0  0  0
    1.9807    4.4873    2.9275 H   0  0  0  0  0  0  0  0  0  0  0  0
    2.6060    2.9607    2.2644 H   0  0  0  0  0  0  0  0  0  0  0  0
    3.0141    4.6908    1.0109 C   0  0  0  0  0  0  0  0  0  0  0  0
    2.5689    5.6934    0.8181 H   0  0  0  0  0  0  0  0  0  0  0  0
    4.0097    4.8747    1.4661 H   0  0  0  0  0  0  0  0  0  0  0  0
    3.1676    3.9468   -0.3226 C   0  0  0  0  0  0  0  0  0  0  0  0
    3.7147    2.9928   -0.1479 H   0  0  0  0  0  0  0  0  0  0  0  0
    3.7858    4.5369   -1.0308 H   0  0  0  0  0  0  0  0  0  0  0  0
    1.8039    3.6248   -0.9484 C   0  0  0  0  0  0  0  0  0  0  0  0
    1.2900    4.5727   -1.2279 H   0  0  0  0  0  0  0  0  0  0  0  0
    1.9256    3.0443   -1.8877 H   0  0  0  0  0  0  0  0  0  0  0  0
   -3.1732    0.2155   -0.3510 C   0  0  0  0  0  0  0  0  0  0  0  0
   -2.5706   -0.7167   -0.3856 H   0  0  0  0  0  0  0  0  0  0  0  0
   -4.2814    0.0374   -1.3951 C   0  0  0  0  0  0  0  0  0  0  0  0
   -3.8105   -0.0964   -2.3902 H   0  0  0  0  0  0  0  0  0  0  0  0
   -4.9113    0.9551   -1.4404 H   0  0  0  0  0  0  0  0  0  0  0  0
   -5.1589   -1.1703   -1.0395 C   0  0  0  0  0  0  0  0  0  0  0  0
   -5.9792   -1.2789   -1.7792 H   0  0  0  0  0  0  0  0  0  0  0  0
   -4.5391   -2.0908   -1.1217 H   0  0  0  0  0  0  0  0  0  0  0  0
   -5.7256   -1.0624    0.3827 C   0  0  0  0  0  0  0  0  0  0  0  0
   -6.4288   -0.2000    0.4318 H   0  0  0  0  0  0  0  0  0  0  0  0
   -6.3228   -1.9651    0.6299 H   0  0  0  0  0  0  0  0  0  0  0  0
   -4.6109   -0.8588    1.4179 C   0  0  0  0  0  0  0  0  0  0  0  0
   -3.9674   -1.7671    1.4465 H   0  0  0  0  0  0  0  0  0  0  0  0
   -5.0375   -0.7479    2.4366 H   0  0  0  0  0  0  0  0  0  0  0  0
   -3.7365    0.3544    1.0745 C   0  0  0  0  0  0  0  0  0  0  0  0
   -4.3477    1.2815    1.1558 H   0  0  0  0  0  0  0  0  0  0  0  0
   -2.8901    0.4494    1.7868 H   0  0  0  0  0  0  0  0  0  0  0  0
  1  3  1  1  0  0  0
  1 27  1  0  0  0  0
  2  3  1  1  0  0  0
  2 10  1  0  0  0  0
  4  1  1  0  0  0  0
  4  5  1  0  0  0  0
  6  4  1  0  0  0  0
  7  4  1  0  0  0  0
  7  2  1  0  0  0  0
  7  9  1  0  0  0  0
  8  7  1  0  0  0  0
 10 11  1  0  0  0  0
 10 12  1  0  0  0  0
 12 15  1  0  0  0  0
 12 13  1  0  0  0  0
 14 12  1  0  0  0  0
 15 17  1  0  0  0  0
 15 16  1  0  0  0  0
 18 20  1  0  0  0  0
 18 15  1  0  0  0  0
 19 18  1  0  0  0  0
 21 22  1  0  0  0  0
 21 18  1  0  0  0  0
 23 21  1  0  0  0  0
 24 21  1  0  0  0  0
 24 10  1  0  0  0  0
 25 24  1  0  0  0  0
 26 24  1  0  0  0  0
 27 41  1  0  0  0  0
 28 27  1  0  0  0  0
 29 32  1  0  0  0  0
 29 27  1  0  0  0  0
 30 29  1  0  0  0  0
 31 29  1  0  0  0  0
 32 35  1  0  0  0  0
 33 32  1  0  0  0  0
 34 32  1  0  0  0  0
 35 36  1  0  0  0  0
 35 37  1  0  0  0  0
 35 38  1  0  0  0  0
 38 39  1  0  0  0  0
 38 40  1  0  0  0  0
 41 42  1  0  0  0  0
 41 38  1  0  0  0  0
 41 43  1  0  0  0  0
M  END
