2
q = -1.0, confidence = 0.0

 16 16  0  0  1  0  0  0  0  0999 V2000
    1.0375   -1.0973   -0.1755 C   0  0  2  0  0  3  0  0  0  0  0  0
    0.0776   -1.8359    0.5928 C   0  0  0  0  0  3  0  0  0  0  0  0
    0.2099   -2.1203    1.6429 H   0  0  0  0  0  0  0  0  0  0  0  0
   -1.0511   -2.1138   -0.2408 C   0  0  0  0  0  3  0  0  0  0  0  0
   -1.9545   -2.6589    0.0551 H   0  0  0  0  0  0  0  0  0  0  0  0
   -0.7927   -1.5330   -1.5314 C   0  0  0  0  0  0  0  0  0  0  0  0
   -1.4680   -1.5566   -2.3949 H   0  0  0  0  0  0  0  0  0  0  0  0
    0.4905   -0.9109   -1.4955 C   0  0  0  0  0  0  0  0  0  0  0  0
    0.9793   -0.3728   -2.3166 H   0  0  0  0  0  0  0  0  0  0  0  0
    2.4003   -0.6746    0.3315 C   0  0  1  0  0  0  0  0  0  0  0  0
    3.0638   -1.5701    0.2836 H   0  0  0  0  0  0  0  0  0  0  0  0
    3.0110    0.3319   -0.5735 C   0  0  0  0  0  0  0  0  0  0  0  0
    2.3244   -0.2620    1.7267 N   0  0  0  0  0  0  0  0  0  0  0  0
    1.7516    0.5899    1.8001 H   0  0  0  0  0  0  0  0  0  0  0  0
    3.2592   -0.0406    2.0898 H   0  0  0  0  0  0  0  0  0  0  0  0
    3.5216    1.1602   -1.2263 N   0  0  0  0  0  0  0  0  0  0  0  0
  1 10  1  6  0  0  0
  1  2  1  0  0  0  0
  2  3  1  0  0  0  0
  4  5  1  0  0  0  0
  4  2  1  0  0  0  0
  6  8  2  0  0  0  0
  6  4  1  0  0  0  0
  7  6  1  0  0  0  0
  8  1  1  0  0  0  0
  9  8  1  0  0  0  0
 10 11  1  6  0  0  0
 10 13  1  0  0  0  0
 12 10  1  0  0  0  0
 13 14  1  0  0  0  0
 13 15  1  0  0  0  0
 16 12  3  0  0  0  0
M  END
