9
q = -1.0

 12 12  0  0  1  0  0  0  0  0999 V2000
    2.0045    3.0443    0.2152 O   0  0  0  0  0  0  0  0  0  0  0  0
    2.2883    1.9373    0.6632 C   0  0  0  0  0  0  0  0  0  0  0  0
    2.6951    1.8148    1.7106 H   0  0  0  0  0  0  0  0  0  0  0  0
    2.1479    0.6799   -0.0745 C   0  0  1  0  0  3  0  0  0  0  0  0
    2.1057   -1.5879   -0.6259 C   0  0  0  0  0  3  0  0  0  0  0  0
    2.2367   -2.6752   -0.5840 H   0  0  0  0  0  0  0  0  0  0  0  0
    1.6200   -0.8355   -1.7635 C   0  0  0  0  0  0  0  0  0  0  0  0
    1.3019   -1.2615   -2.7225 H   0  0  0  0  0  0  0  0  0  0  0  0
    2.4210   -0.6600    0.4138 C   0  0  0  0  0  3  0  0  0  0  0  0
    2.8403   -0.9063    1.3969 H   0  0  0  0  0  0  0  0  0  0  0  0
    1.6226    0.5441   -1.4187 C   0  0  0  0  0  0  0  0  0  0  0  0
    1.3377    1.3888   -2.0566 H   0  0  0  0  0  0  0  0  0  0  0  0
  1  2  2  0  0  0  0
  2  3  1  0  0  0  0
  4  9  1  0  0  0  0
  4  2  1  1  0  0  0
  5  6  1  0  0  0  0
  5  9  1  0  0  0  0
  7 11  2  0  0  0  0
  7  5  1  0  0  0  0
  8  7  1  0  0  0  0
  9 10  1  0  0  0  0
 11  4  1  0  0  0  0
 12 11  1  0  0  0  0
M  END
