4
q = 0.0, confidence = 0.992

 33 35  0  0  0  0  0  0  0  0999 V2000
    2.8353    2.5876    0.9742 O   0  0  0  0  0  0  0  0  0  0  0  0
    1.2907    0.8932    0.6984 N   0  0  0  0  0  0  0  0  0  0  0  0
    1.9037   -1.1868   -0.1696 N   0  0  0  0  0  0  0  0  0  0  0  0
    0.9091   -0.3584    0.2821 C   0  0  0  0  0  2  0  0  0  0  0  0
    2.6002    1.4424    0.6024 C   0  0  0  0  0  0  0  0  0  0  0  0
    3.6009    0.5334    0.0329 C   0  0  0  0  0  0  0  0  0  0  0  0
    3.2377   -0.7861   -0.3267 C   0  0  0  0  0  0  0  0  0  0  0  0
    4.2307   -1.6535   -0.8407 C   0  0  0  0  0  0  0  0  0  0  0  0
    3.9823   -2.6821   -1.1274 H   0  0  0  0  0  0  0  0  0  0  0  0
    5.5427   -1.1951   -0.9916 C   0  0  0  0  0  0  0  0  0  0  0  0
    6.3027   -1.8807   -1.3956 H   0  0  0  0  0  0  0  0  0  0  0  0
    5.9019    0.1200   -0.6362 C   0  0  0  0  0  0  0  0  0  0  0  0
    6.9391    0.4636   -0.7592 H   0  0  0  0  0  0  0  0  0  0  0  0
    4.9286    0.9775   -0.1238 C   0  0  0  0  0  0  0  0  0  0  0  0
    5.1540    2.0108    0.1774 H   0  0  0  0  0  0  0  0  0  0  0  0
    0.3003    1.7405    1.3905 C   0  0  0  0  0  0  0  0  0  0  0  0
    0.8950    2.3934    2.0610 H   0  0  0  0  0  0  0  0  0  0  0  0
   -0.3246    1.0634    2.0046 H   0  0  0  0  0  0  0  0  0  0  0  0
    1.5724   -2.5898   -0.4328 C   0  0  0  0  0  0  0  0  0  0  0  0
    0.5038   -2.7281   -0.1687 H   0  0  0  0  0  0  0  0  0  0  0  0
    2.1942   -3.2455    0.2075 H   0  0  0  0  0  0  0  0  0  0  0  0
    1.7340   -2.8452   -1.4987 H   0  0  0  0  0  0  0  0  0  0  0  0
   -0.5538    2.6059    0.4929 C   0  0  0  0  0  0  0  0  0  0  0  0
   -1.8922    2.8455    0.8550 C   0  0  0  0  0  0  0  0  0  0  0  0
   -2.2949    2.3668    1.7612 H   0  0  0  0  0  0  0  0  0  0  0  0
   -2.7107    3.6723    0.0712 C   0  0  0  0  0  0  0  0  0  0  0  0
   -3.7568    3.8448    0.3673 H   0  0  0  0  0  0  0  0  0  0  0  0
   -2.2020    4.2627   -1.0965 C   0  0  0  0  0  0  0  0  0  0  0  0
   -2.8446    4.9035   -1.7191 H   0  0  0  0  0  0  0  0  0  0  0  0
   -0.8657    4.0332   -1.4621 C   0  0  0  0  0  0  0  0  0  0  0  0
   -0.4555    4.4987   -2.3713 H   0  0  0  0  0  0  0  0  0  0  0  0
   -0.0445    3.2176   -0.6687 C   0  0  0  0  0  0  0  0  0  0  0  0
    1.0055    3.0594   -0.9546 H   0  0  0  0  0  0  0  0  0  0  0  0
  2 16  1  0  0  0  0
  3  4  1  0  0  0  0
  4  2  1  0  0  0  0
  5  2  1  0  0  0  0
  5  1  2  0  0  0  0
  6  5  1  0  0  0  0
  7  3  1  0  0  0  0
  7  6  2  0  0  0  0
  8  7  1  0  0  0  0
  9  8  1  0  0  0  0
 10  8  2  0  0  0  0
 10 12  1  0  0  0  0
 11 10  1  0  0  0  0
 12 14  2  0  0  0  0
 13 12  1  0  0  0  0
 14  6  1  0  0  0  0
 14 15  1  0  0  0  0
 16 18  1  0  0  0  0
 16 17  1  0  0  0  0
 19  3  1  0  0  0  0
 19 20  1  0  0  0  0
 19 21  1  0  0  0  0
 22 19  1  0  0  0  0
 23 24  1  0  0  0  0
 23 16  1  0  0  0  0
 24 25  1  0  0  0  0
 26 27  1  0  0  0  0
 26 24  2  0  0  0  0
 28 26  1  0  0  0  0
 29 28  1  0  0  0  0
 30 28  2  0  0  0  0
 30 32  1  0  0  0  0
 31 30  1  0  0  0  0
 32 23  2  0  0  0  0
 33 32  1  0  0  0  0
M  END
