22
q = 0.0, confidence = 0.996

 50 52  0  0  1  0  0  0  0  0999 V2000
   -8.2669   -1.5611   -1.8660 Cl  0  0  0  0  0  0  0  0  0  0  0  0
   -2.3144    2.0491    2.2831 O   0  0  0  0  0  0  0  0  0  0  0  0
   -0.2019   -0.4954    0.9627 O   0  0  0  0  0  0  0  0  0  0  0  0
    1.8247    2.0120   -0.3394 O   0  0  0  0  0  0  0  0  0  0  0  0
   -3.5797    1.0553    0.7361 N   0  0  0  0  0  0  0  0  0  0  0  0
   -4.4376    1.4195    2.9140 O   0  0  0  0  0  0  0  0  0  0  0  0
   -4.6992    0.4454    0.1203 C   0  0  0  0  0  0  0  0  0  0  0  0
   -0.1226    2.2507    1.0882 C   0  0  2  0  0  0  0  0  0  0  0  0
   -0.0051    3.3116    0.7666 H   0  0  0  0  0  0  0  0  0  0  0  0
   -0.3445    1.3755   -1.3244 C   0  0  0  0  0  0  0  0  0  0  0  0
   -0.4365    2.4195   -1.6861 H   0  0  0  0  0  0  0  0  0  0  0  0
    0.1813    0.8063   -2.1159 H   0  0  0  0  0  0  0  0  0  0  0  0
   -1.7599    0.8101   -1.1184 C   0  0  0  0  0  0  0  0  0  0  0  0
   -2.3734    1.0619   -2.0076 H   0  0  0  0  0  0  0  0  0  0  0  0
   -1.7461   -0.3021   -1.0726 H   0  0  0  0  0  0  0  0  0  0  0  0
   -2.3283    1.3437    0.1520 C   0  0  0  0  0  0  0  0  0  0  0  0
   -1.5801    1.9294    1.1202 C   0  0  0  0  0  0  0  0  0  0  0  0
    0.5635    1.4184   -0.0562 C   0  0  1  0  0  0  0  0  0  0  0  0
   -3.5696    1.4861    2.0737 C   0  0  0  0  0  0  0  0  0  0  0  0
   -5.0536    0.7744   -1.2034 C   0  0  0  0  0  0  0  0  0  0  0  0
   -4.4875    1.5419   -1.7487 H   0  0  0  0  0  0  0  0  0  0  0  0
    0.8778   -0.0422    0.3553 C   0  0  0  0  0  2  0  0  0  0  0  0
   -0.3444   -1.8413    1.4719 C   0  0  0  0  0  0  0  0  0  0  0  0
    0.3730   -1.9634    2.3074 H   0  0  0  0  0  0  0  0  0  0  0  0
   -0.0618   -2.5521    0.6702 H   0  0  0  0  0  0  0  0  0  0  0  0
   -5.4751   -0.4904    0.8353 C   0  0  0  0  0  0  0  0  0  0  0  0
   -5.2203   -0.7221    1.8775 H   0  0  0  0  0  0  0  0  0  0  0  0
   -1.7806   -2.0069    1.9248 C   0  0  0  0  0  0  0  0  0  0  0  0
   -2.0392   -1.2665    2.7078 H   0  0  0  0  0  0  0  0  0  0  0  0
   -1.9209   -3.0206    2.3483 H   0  0  0  0  0  0  0  0  0  0  0  0
   -2.4888   -1.8850    1.0814 H   0  0  0  0  0  0  0  0  0  0  0  0
    0.5762    2.1111    2.4468 C   0  0  0  0  0  0  0  0  0  0  0  0
    0.1592    2.8354    3.1718 H   0  0  0  0  0  0  0  0  0  0  0  0
    1.6584    2.3101    2.3296 H   0  0  0  0  0  0  0  0  0  0  0  0
    0.4471    1.0987    2.8744 H   0  0  0  0  0  0  0  0  0  0  0  0
   -6.5770   -1.1008    0.2269 C   0  0  0  0  0  0  0  0  0  0  0  0
   -7.1859   -1.8293    0.7799 H   0  0  0  0  0  0  0  0  0  0  0  0
    1.9012    3.2068   -1.1046 C   0  0  0  0  0  0  0  0  0  0  0  0
    1.7015    2.9986   -2.1821 H   0  0  0  0  0  0  0  0  0  0  0  0
    1.1448    3.9556   -0.7642 H   0  0  0  0  0  0  0  0  0  0  0  0
   -6.9034   -0.7876   -1.1035 C   0  0  0  0  0  0  0  0  0  0  0  0
   -6.1449    0.1513   -1.8208 C   0  0  0  0  0  0  0  0  0  0  0  0
   -6.4228    0.4039   -2.8534 H   0  0  0  0  0  0  0  0  0  0  0  0
    3.5081    5.0578   -1.7538 C   0  0  0  0  0  0  0  0  0  0  0  0
    3.3509    4.8827   -2.8384 H   0  0  0  0  0  0  0  0  0  0  0  0
    4.5354    5.4518   -1.6271 H   0  0  0  0  0  0  0  0  0  0  0  0
    2.8047    5.8573   -1.4401 H   0  0  0  0  0  0  0  0  0  0  0  0
    3.3046    3.7781   -0.9443 C   0  0  0  0  0  0  0  0  0  0  0  0
    4.0329    3.0012   -1.2584 H   0  0  0  0  0  0  0  0  0  0  0  0
    3.4927    3.9581    0.1351 H   0  0  0  0  0  0  0  0  0  0  0  0
  1 41  1  0  0  0  0
  3 23  1  0  0  0  0
  4 18  1  0  0  0  0
  5 19  1  0  0  0  0
  7  5  1  0  0  0  0
  7 26  1  0  0  0  0
  8  9  1  6  0  0  0
  8 17  1  0  0  0  0
  8 32  1  0  0  0  0
 10 13  1  0  0  0  0
 10 18  1  0  0  0  0
 11 10  1  0  0  0  0
 12 10  1  0  0  0  0
 13 15  1  0  0  0  0
 13 16  1  0  0  0  0
 14 13  1  0  0  0  0
 16  5  1  0  0  0  0
 16 17  2  0  0  0  0
 17  2  1  0  0  0  0
 18 22  1  1  0  0  0
 18  8  1  0  0  0  0
 19  2  1  0  0  0  0
 19  6  2  0  0  0  0
 20  7  2  0  0  0  0
 21 20  1  0  0  0  0
 22  3  1  0  0  0  0
 23 28  1  0  0  0  0
 23 24  1  0  0  0  0
 25 23  1  0  0  0  0
 26 27  1  0  0  0  0
 28 30  1  0  0  0  0
 28 29  1  0  0  0  0
 31 28  1  0  0  0  0
 32 35  1  0  0  0  0
 32 33  1  0  0  0  0
 34 32  1  0  0  0  0
 36 37  1  0  0  0  0
 36 26  2  0  0  0  0
 38 48  1  0  0  0  0
 38 40  1  0  0  0  0
 38  4  1  0  0  0  0
 39 38  1  0  0  0  0
 41 36  1  0  0  0  0
 42 20  1  0  0  0  0
 42 41  2  0  0  0  0
 43 42  1  0  0  0  0
 44 46  1  0  0  0  0
 44 47  1  0  0  0  0
 44 48  1  0  0  0  0
 45 44  1  0  0  0  0
 48 50  1  0  0  0  0
 49 48  1  0  0  0  0
M  END
