4
q = -1.0

  7  6  0  0  0  0  0  0  0  0999 V2000
    4.2250    1.8849   -0.3139 O   0  0  0  0  0  0  0  0  0  0  0  0
    1.4735    0.6572   -2.1303 C   0  0  0  0  0  3  0  0  0  0  0  0
    1.9409    1.7512   -1.3474 C   0  0  0  0  0  3  0  0  0  0  0  0
    3.1227    1.4629   -0.5745 C   0  0  0  0  0  3  0  0  0  0  0  0
    2.2059    0.0571   -2.6951 H   0  0  0  0  0  0  0  0  0  0  0  0
    0.4866    0.7570   -2.6100 H   0  0  0  0  0  0  0  0  0  0  0  0
    1.3308    2.6546   -1.1705 H   0  0  0  0  0  0  0  0  0  0  0  0
  2  3  1  0  0  0  0
  3  7  1  0  0  0  0
  3  4  1  0  0  0  0
  4  1  2  0  0  0  0
  5  2  1  0  0  0  0
  6  2  1  0  0  0  0
M  END
