17
q = 0.0, confidence = 0.988

 35 35  0  0  0  0  0  0  0  0999 V2000
    4.9430   -1.2716    0.0635 F   0  0  0  0  0  0  0  0  0  0  0  0
    2.9425   -1.2698   -0.7989 F   0  0  0  0  0  0  0  0  0  0  0  0
    3.6535   -3.0188    0.2943 F   0  0  0  0  0  0  0  0  0  0  0  0
    5.1752   -0.7233    2.6899 F   0  0  0  0  0  0  0  0  0  0  0  0
    3.3978   -0.9185    3.9293 F   0  0  0  0  0  0  0  0  0  0  0  0
    4.2182   -2.6714    2.9225 F   0  0  0  0  0  0  0  0  0  0  0  0
   -3.6533    3.0186    0.2942 F   0  0  0  0  0  0  0  0  0  0  0  0
   -2.9425    1.2694   -0.7988 F   0  0  0  0  0  0  0  0  0  0  0  0
   -4.9429    1.2714    0.0639 F   0  0  0  0  0  0  0  0  0  0  0  0
   -5.1748    0.7231    2.6904 F   0  0  0  0  0  0  0  0  0  0  0  0
   -3.3973    0.9190    3.9295 F   0  0  0  0  0  0  0  0  0  0  0  0
   -4.2182    2.6715    2.9223 F   0  0  0  0  0  0  0  0  0  0  0  0
    3.0043    0.3218    1.4809 O   0  0  0  0  0  0  0  0  0  0  0  0
   -3.0041   -0.3219    1.4813 O   0  0  0  0  0  0  0  0  0  0  0  0
    0.6979   -0.8220    2.3332 N   0  0  0  0  0  0  0  0  0  0  0  0
   -0.6978    0.8220    2.3333 N   0  0  0  0  0  0  0  0  0  0  0  0
    0.0000    0.0000    1.5051 C   0  0  0  0  0  2  0  0  0  0  0  0
   -0.4514    0.5144    3.6677 C   0  0  0  0  0  0  0  0  0  0  0  0
   -0.9456    1.0370    4.4898 H   0  0  0  0  0  0  0  0  0  0  0  0
    0.4520   -0.5141    3.6677 C   0  0  0  0  0  0  0  0  0  0  0  0
    0.9462   -1.0366    4.4897 H   0  0  0  0  0  0  0  0  0  0  0  0
    1.6742   -1.7569    1.8164 C   0  0  0  0  0  0  0  0  0  0  0  0
    1.2714   -2.1442    0.8626 H   0  0  0  0  0  0  0  0  0  0  0  0
    1.7811   -2.6125    2.5081 H   0  0  0  0  0  0  0  0  0  0  0  0
    3.0689   -1.0518    1.5714 C   0  0  0  0  0  0  0  0  0  0  0  0
    3.6807   -1.6676    0.2752 C   0  0  0  0  0  0  0  0  0  0  0  0
    3.9940   -1.3413    2.7870 C   0  0  0  0  0  0  0  0  0  0  0  0
   -1.6741    1.7570    1.8165 C   0  0  0  0  0  0  0  0  0  0  0  0
   -1.2713    2.1443    0.8628 H   0  0  0  0  0  0  0  0  0  0  0  0
   -1.7809    2.6126    2.5082 H   0  0  0  0  0  0  0  0  0  0  0  0
   -3.0687    1.0518    1.5716 C   0  0  0  0  0  0  0  0  0  0  0  0
   -3.6806    1.6674    0.2754 C   0  0  0  0  0  0  0  0  0  0  0  0
   -3.9937    1.3414    2.7873 C   0  0  0  0  0  0  0  0  0  0  0  0
    2.3914    0.6400    0.7370 H   0  0  0  0  0  0  0  0  0  0  0  0
   -2.3912   -0.6401    0.7374 H   0  0  0  0  0  0  0  0  0  0  0  0
  1 26  1  0  0  0  0
  2 26  1  0  0  0  0
  4 27  1  0  0  0  0
  8 32  1  0  0  0  0
  9 32  1  0  0  0  0
 10 33  1  0  0  0  0
 13 25  1  0  0  0  0
 14 31  1  0  0  0  0
 15 20  1  0  0  0  0
 16 18  1  0  0  0  0
 17 15  1  0  0  0  0
 17 16  1  0  0  0  0
 18 19  1  0  0  0  0
 20 18  2  0  0  0  0
 20 21  1  0  0  0  0
 22 15  1  0  0  0  0
 22 24  1  0  0  0  0
 23 22  1  0  0  0  0
 25 22  1  0  0  0  0
 25 27  1  0  0  0  0
 26  3  1  0  0  0  0
 26 25  1  0  0  0  0
 27  6  1  0  0  0  0
 27  5  1  0  0  0  0
 28 16  1  0  0  0  0
 28 30  1  0  0  0  0
 29 28  1  0  0  0  0
 31 28  1  0  0  0  0
 31 33  1  0  0  0  0
 32  7  1  0  0  0  0
 32 31  1  0  0  0  0
 33 12  1  0  0  0  0
 33 11  1  0  0  0  0
 34 13  1  0  0  0  0
 35 14  1  0  0  0  0
M  END
