3
q = -1.0

 18 18  0  0  1  0  0  0  0  0999 V2000
    0.1530    2.6539    1.8485 C   0  0  0  0  0  0  0  0  0  0  0  0
    0.1548    1.1562    1.6829 C   0  0  0  0  0  3  0  0  0  0  0  0
    1.2227    0.4559    1.0649 C   0  0  2  0  0  3  0  0  0  0  0  0
    2.4787    0.9622    0.4115 C   0  0  0  0  0  0  0  0  0  0  0  0
    3.0972   -0.3068   -0.1808 C   0  0  0  0  0  0  0  0  0  0  0  0
    1.1757   -0.9692    0.9103 C   0  0  2  0  0  3  0  0  0  0  0  0
    0.8371   -1.9792    1.9755 C   0  0  0  0  0  0  0  0  0  0  0  0
    4.1017   -0.4254   -0.8335 O   0  0  0  0  0  0  0  0  0  0  0  0
    2.3112   -1.3896    0.1685 O   0  0  0  0  0  0  0  0  0  0  0  0
    0.6752    2.9493    2.7857 H   0  0  0  0  0  0  0  0  0  0  0  0
   -0.8799    3.0496    1.9131 H   0  0  0  0  0  0  0  0  0  0  0  0
    0.6546    3.1685    1.0068 H   0  0  0  0  0  0  0  0  0  0  0  0
   -0.3762    0.6053    2.4798 H   0  0  0  0  0  0  0  0  0  0  0  0
    2.3485    1.7272   -0.3774 H   0  0  0  0  0  0  0  0  0  0  0  0
    3.1843    1.3837    1.1620 H   0  0  0  0  0  0  0  0  0  0  0  0
    1.7506   -2.1935    2.5727 H   0  0  0  0  0  0  0  0  0  0  0  0
    0.4929   -2.9365    1.5392 H   0  0  0  0  0  0  0  0  0  0  0  0
    0.0544   -1.5973    2.6560 H   0  0  0  0  0  0  0  0  0  0  0  0
  1 11  1  0  0  0  0
  1 10  1  0  0  0  0
  2  1  1  0  0  0  0
  2 13  1  0  0  0  0
  3  2  1  6  0  0  0
  4  3  1  0  0  0  0
  4 15  1  0  0  0  0
  5  9  1  0  0  0  0
  5  4  1  0  0  0  0
  6  3  1  0  0  0  0
  6  7  1  1  0  0  0
  7 16  1  0  0  0  0
  7 18  1  0  0  0  0
  8  5  2  0  0  0  0
  9  6  1  0  0  0  0
 12  1  1  0  0  0  0
 14  4  1  0  0  0  0
 17  7  1  0  0  0  0
M  END
