1
q = -1.0, confidence = 0.018

  9  8  0  0  0  0  0  0  0  0999 V2000
   -0.0171    1.5425    0.7661 C   0  0  0  0  0  3  0  0  0  0  0  0
    0.1913    1.8415    1.9233 O   0  0  0  0  0  0  0  0  0  0  0  0
   -0.4135    2.6218   -0.2829 C   0  0  0  0  0  0  0  0  0  0  0  0
   -0.7214    2.3406   -1.4307 O   0  0  0  0  0  0  0  0  0  0  0  0
   -0.3829    3.8474    0.2327 O   0  0  0  0  0  0  0  0  0  0  0  0
   -0.7554    4.9134   -0.6601 C   0  0  0  0  0  0  0  0  0  0  0  0
   -0.0612    4.9489   -1.5231 H   0  0  0  0  0  0  0  0  0  0  0  0
   -0.6887    5.8419   -0.0681 H   0  0  0  0  0  0  0  0  0  0  0  0
   -1.7868    4.7561   -1.0319 H   0  0  0  0  0  0  0  0  0  0  0  0
  1  2  2  0  0  0  0
  3  5  1  0  0  0  0
  3  1  1  0  0  0  0
  4  3  2  0  0  0  0
  6  8  1  0  0  0  0
  6  5  1  0  0  0  0
  7  6  1  0  0  0  0
  9  6  1  0  0  0  0
M  END
