11
q = 0.0, confidence = 0.9

 56 58  0  0  1  0  0  0  0  0999 V2000
    2.8939   -1.1803   -2.0594 S   0  0  0  0  0  0  0  0  0  0  0  0
   -3.0749   -2.5364    0.2151 Si  0  0  0  0  0  0  0  0  0  0  0  0
   -1.7923    3.1650   -0.8646 Si  0  0  0  0  0  0  0  0  0  0  0  0
    1.2440   -0.8360   -2.0472 N   0  0  0  0  0  0  0  0  0  0  0  0
   -3.8903    0.6475   -0.2902 O   0  0  0  0  0  0  0  0  0  0  0  0
    2.9791   -2.6541   -2.0380 O   0  0  0  0  0  0  0  0  0  0  0  0
    3.4792   -0.3435   -3.1238 O   0  0  0  0  0  0  0  0  0  0  0  0
   -1.5554    1.2889   -0.7478 C   0  0  2  0  0  3  0  0  0  0  0  0
   -2.0716   -1.0159   -0.3080 C   0  0  1  0  0  3  0  0  0  0  0  0
   -0.4771    0.4582   -1.1975 C   0  0  1  0  0  3  0  0  0  0  0  0
   -0.7836   -0.9198   -0.9316 C   0  0  2  0  0  3  0  0  0  0  0  0
   -2.7115    0.3490   -0.4692 C   0  0  0  0  0  0  0  0  0  0  0  0
    0.7862    0.5637   -2.0063 C   0  0  0  0  0  0  0  0  0  0  0  0
    0.5632    0.9539   -3.0256 H   0  0  0  0  0  0  0  0  0  0  0  0
    1.5534    1.2321   -1.5622 H   0  0  0  0  0  0  0  0  0  0  0  0
    0.2616   -1.8118   -1.5399 C   0  0  0  0  0  0  0  0  0  0  0  0
    0.7265   -2.5369   -0.8433 H   0  0  0  0  0  0  0  0  0  0  0  0
   -0.1820   -2.4085   -2.3700 H   0  0  0  0  0  0  0  0  0  0  0  0
   -3.8588   -2.1878    1.8943 C   0  0  0  0  0  0  0  0  0  0  0  0
   -4.4104   -1.2270    1.8529 H   0  0  0  0  0  0  0  0  0  0  0  0
   -3.0943   -2.1187    2.6940 H   0  0  0  0  0  0  0  0  0  0  0  0
   -4.5739   -2.9894    2.1710 H   0  0  0  0  0  0  0  0  0  0  0  0
   -4.4101   -2.7703   -1.1004 C   0  0  0  0  0  0  0  0  0  0  0  0
   -5.0877   -3.6081   -0.8360 H   0  0  0  0  0  0  0  0  0  0  0  0
   -3.9683   -2.9862   -2.0945 H   0  0  0  0  0  0  0  0  0  0  0  0
   -5.0105   -1.8417   -1.1807 H   0  0  0  0  0  0  0  0  0  0  0  0
   -1.9269   -4.0387    0.2895 C   0  0  0  0  0  0  0  0  0  0  0  0
   -1.1130   -3.9032    1.0295 H   0  0  0  0  0  0  0  0  0  0  0  0
   -1.4669   -4.2512   -0.6974 H   0  0  0  0  0  0  0  0  0  0  0  0
   -2.5018   -4.9403    0.5865 H   0  0  0  0  0  0  0  0  0  0  0  0
   -2.5079    3.7801    0.7682 C   0  0  0  0  0  0  0  0  0  0  0  0
   -2.8020    4.8471    0.6951 H   0  0  0  0  0  0  0  0  0  0  0  0
   -1.7772    3.6810    1.5960 H   0  0  0  0  0  0  0  0  0  0  0  0
   -3.4088    3.1866    1.0234 H   0  0  0  0  0  0  0  0  0  0  0  0
   -3.0128    3.4643   -2.2746 C   0  0  0  0  0  0  0  0  0  0  0  0
   -3.9483    2.9050   -2.0714 H   0  0  0  0  0  0  0  0  0  0  0  0
   -2.6048    3.1185   -3.2461 H   0  0  0  0  0  0  0  0  0  0  0  0
   -3.2583    4.5422   -2.3685 H   0  0  0  0  0  0  0  0  0  0  0  0
   -0.1205    3.9738   -1.2309 C   0  0  0  0  0  0  0  0  0  0  0  0
   -0.2386    5.0750   -1.3000 H   0  0  0  0  0  0  0  0  0  0  0  0
    0.2982    3.6255   -2.1975 H   0  0  0  0  0  0  0  0  0  0  0  0
    0.6230    3.7667   -0.4353 H   0  0  0  0  0  0  0  0  0  0  0  0
    3.5113   -0.5490   -0.4953 C   0  0  0  0  0  0  0  0  0  0  0  0
    4.3385    0.5077    1.9783 C   0  0  0  0  0  0  0  0  0  0  0  0
    4.0951    0.7275   -0.4492 C   0  0  0  0  0  0  0  0  0  0  0  0
    4.2367    1.2883   -1.3843 H   0  0  0  0  0  0  0  0  0  0  0  0
    3.3680   -1.3216    0.6680 C   0  0  0  0  0  0  0  0  0  0  0  0
    2.9535   -2.3377    0.6063 H   0  0  0  0  0  0  0  0  0  0  0  0
    4.5054    1.2432    0.7859 C   0  0  0  0  0  0  0  0  0  0  0  0
    4.9609    2.2449    0.8282 H   0  0  0  0  0  0  0  0  0  0  0  0
    3.7760   -0.7840    1.8949 C   0  0  0  0  0  0  0  0  0  0  0  0
    3.6565   -1.3835    2.8107 H   0  0  0  0  0  0  0  0  0  0  0  0
    4.7174    1.1055    3.3071 C   0  0  0  0  0  0  0  0  0  0  0  0
    3.9136    1.7855    3.6635 H   0  0  0  0  0  0  0  0  0  0  0  0
    5.6436    1.7094    3.2354 H   0  0  0  0  0  0  0  0  0  0  0  0
    4.8643    0.3291    4.0823 H   0  0  0  0  0  0  0  0  0  0  0  0
  1  4  1  0  0  0  0
  1  6  2  0  0  0  0
  1 43  1  0  0  0  0
  2 27  1  0  0  0  0
  2 19  1  0  0  0  0
  3 31  1  0  0  0  0
  4 13  1  0  0  0  0
  4 16  1  0  0  0  0
  7  1  2  0  0  0  0
  8  3  1  6  0  0  0
  8 12  1  0  0  0  0
  9  2  1  6  0  0  0
 10 13  1  6  0  0  0
 10 11  1  0  0  0  0
 10  8  1  0  0  0  0
 11 16  1  6  0  0  0
 11  9  1  0  0  0  0
 12  9  1  0  0  0  0
 12  5  2  0  0  0  0
 13 15  1  0  0  0  0
 14 13  1  0  0  0  0
 16 17  1  0  0  0  0
 18 16  1  0  0  0  0
 19 22  1  0  0  0  0
 19 21  1  0  0  0  0
 20 19  1  0  0  0  0
 23 24  1  0  0  0  0
 23  2  1  0  0  0  0
 25 23  1  0  0  0  0
 26 23  1  0  0  0  0
 27 30  1  0  0  0  0
 27 28  1  0  0  0  0
 29 27  1  0  0  0  0
 31 34  1  0  0  0  0
 31 33  1  0  0  0  0
 32 31  1  0  0  0  0
 35 36  1  0  0  0  0
 35  3  1  0  0  0  0
 37 35  1  0  0  0  0
 38 35  1  0  0  0  0
 39  3  1  0  0  0  0
 39 42  1  0  0  0  0
 40 39  1  0  0  0  0
 41 39  1  0  0  0  0
 43 45  2  0  0  0  0
 43 47  1  0  0  0  0
 44 53  1  0  0  0  0
 45 49  1  0  0  0  0
 46 45  1  0  0  0  0
 47 51  2  0  0  0  0
 48 47  1  0  0  0  0
 49 50  1  0  0  0  0
 49 44  2  0  0  0  0
 51 44  1  0  0  0  0
 51 52  1  0  0  0  0
 53 54  1  0  0  0  0
 53 56  1  0  0  0  0
 55 53  1  0  0  0  0
M  END
