1
q = -1.0, confidence = 0.0

 21 22  0  0  0  0  0  0  0  0999 V2000
    0.5388    0.6765   -0.0146 C   0  0  0  0  0  3  0  0  0  0  0  0
    0.5393    1.7577   -0.2520 H   0  0  0  0  0  0  0  0  0  0  0  0
   -0.7166    0.1886    0.1905 C   0  0  0  0  0  0  0  0  0  0  0  0
   -1.1014   -1.2297    0.5481 C   0  0  0  0  0  0  0  0  0  0  0  0
   -1.3694   -1.2744    1.6287 H   0  0  0  0  0  0  0  0  0  0  0  0
   -0.2488   -1.9215    0.4144 H   0  0  0  0  0  0  0  0  0  0  0  0
   -2.3012   -1.7162   -0.2727 C   0  0  0  0  0  0  0  0  0  0  0  0
   -1.9997   -1.7864   -1.3430 H   0  0  0  0  0  0  0  0  0  0  0  0
   -2.6014   -2.7391    0.0339 H   0  0  0  0  0  0  0  0  0  0  0  0
   -3.4722   -0.7732   -0.1457 C   0  0  0  0  0  0  0  0  0  0  0  0
   -4.8023   -1.2294   -0.2075 C   0  0  0  0  0  0  0  0  0  0  0  0
   -4.9957   -2.3070   -0.3319 H   0  0  0  0  0  0  0  0  0  0  0  0
   -5.8760   -0.3329   -0.1104 C   0  0  0  0  0  0  0  0  0  0  0  0
   -6.9092   -0.7109   -0.1545 H   0  0  0  0  0  0  0  0  0  0  0  0
   -5.6355    1.0445    0.0453 C   0  0  0  0  0  0  0  0  0  0  0  0
   -6.4787    1.7481    0.1200 H   0  0  0  0  0  0  0  0  0  0  0  0
   -4.3195    1.5114    0.1044 C   0  0  0  0  0  0  0  0  0  0  0  0
   -4.0831    2.5804    0.2144 H   0  0  0  0  0  0  0  0  0  0  0  0
   -3.2348    0.6144    0.0190 C   0  0  0  0  0  0  0  0  0  0  0  0
   -1.8411    1.1749    0.0567 C   0  0  0  0  0  0  0  0  0  0  0  0
   -1.6605    2.3941   -0.0320 O   0  0  0  0  0  0  0  0  0  0  0  0
  1  3  2  0  0  0  0
  2  1  1  0  0  0  0
  3  4  1  0  0  0  0
  4  5  1  0  0  0  0
  6  4  1  0  0  0  0
  7 10  1  0  0  0  0
  7  9  1  0  0  0  0
  7  4  1  0  0  0  0
  8  7  1  0  0  0  0
 10 19  1  0  0  0  0
 11 10  2  0  0  0  0
 11 13  1  0  0  0  0
 12 11  1  0  0  0  0
 13 15  2  0  0  0  0
 14 13  1  0  0  0  0
 15 17  1  0  0  0  0
 15 16  1  0  0  0  0
 17 18  1  0  0  0  0
 19 20  1  0  0  0  0
 19 17  2  0  0  0  0
 20  3  1  0  0  0  0
 21 20  2  0  0  0  0
M  END
