1
q = -1.0

 20 21  0  0  0  0  0  0  0  0999 V2000
   -0.6644    0.0108    0.1190 C   0  0  0  0  0  3  0  0  0  0  0  0
    0.0772   -1.1763    0.1986 C   0  0  0  0  0  0  0  0  0  0  0  0
   -0.5456   -2.3711    0.3397 F   0  0  0  0  0  0  0  0  0  0  0  0
    1.4794   -1.1924    0.1475 C   0  0  0  0  0  0  0  0  0  0  0  0
    2.1066   -2.3798    0.2636 F   0  0  0  0  0  0  0  0  0  0  0  0
    2.2291   -0.0090   -0.0141 C   0  0  0  0  0  0  0  0  0  0  0  0
    1.4887    1.1884   -0.1262 C   0  0  0  0  0  0  0  0  0  0  0  0
    2.1058    2.3561   -0.3388 F   0  0  0  0  0  0  0  0  0  0  0  0
    0.0846    1.1806   -0.0752 C   0  0  0  0  0  0  0  0  0  0  0  0
   -0.5375    2.3733   -0.2337 F   0  0  0  0  0  0  0  0  0  0  0  0
    3.7161   -0.0129   -0.0392 C   0  0  0  0  0  0  0  0  0  0  0  0
    4.3359    0.9795    0.6327 N   0  0  0  0  0  0  0  0  0  0  0  0
    5.6741    1.0094    0.6297 C   0  0  0  0  0  0  0  0  0  0  0  0
    6.1428    1.8380    1.1913 H   0  0  0  0  0  0  0  0  0  0  0  0
    6.4753    0.0621   -0.0292 C   0  0  0  0  0  0  0  0  0  0  0  0
    7.5725    0.1351    0.0060 H   0  0  0  0  0  0  0  0  0  0  0  0
    5.8323   -0.9706   -0.7261 C   0  0  0  0  0  0  0  0  0  0  0  0
    6.4139   -1.7364   -1.2619 H   0  0  0  0  0  0  0  0  0  0  0  0
    4.4335   -1.0119   -0.7369 C   0  0  0  0  0  0  0  0  0  0  0  0
    3.8973   -1.8051   -1.2748 H   0  0  0  0  0  0  0  0  0  0  0  0
  1  2  1  0  0  0  0
  2  3  1  0  0  0  0
  4  2  2  0  0  0  0
  4  5  1  0  0  0  0
  6  4  1  0  0  0  0
  7  9  1  0  0  0  0
  7  6  2  0  0  0  0
  8  7  1  0  0  0  0
  9  1  2  0  0  0  0
 10  9  1  0  0  0  0
 11  6  1  0  0  0  0
 11 12  1  0  0  0  0
 13 12  2  0  0  0  0
 13 14  1  0  0  0  0
 15 16  1  0  0  0  0
 15 13  1  0  0  0  0
 17 15  2  0  0  0  0
 18 17  1  0  0  0  0
 19 17  1  0  0  0  0
 19 11  2  0  0  0  0
 20 19  1  0  0  0  0
M  END
