2
q = -1.0, confidence = 0.0

 19 20  0  0  0  0  0  0  0  0999 V2000
   -1.1279    1.7864   -1.3127 O   0  0  0  0  0  0  0  0  0  0  0  0
   -1.0108    0.9815   -0.3972 C   0  0  0  0  0  3  0  0  0  0  0  0
   -2.1330    0.4437    0.4262 C   0  0  0  0  0  0  0  0  0  0  0  0
   -1.8568    0.1201    1.7594 C   0  0  0  0  0  0  0  0  0  0  0  0
   -2.8587   -0.3843    2.6197 C   0  0  0  0  0  0  0  0  0  0  0  0
   -4.1373   -0.6029    2.1253 C   0  0  0  0  0  0  0  0  0  0  0  0
   -4.4674   -0.3048    0.7712 C   0  0  0  0  0  0  0  0  0  0  0  0
   -5.7817   -0.5353    0.2681 C   0  0  0  0  0  0  0  0  0  0  0  0
   -6.1022   -0.2317   -1.0453 C   0  0  0  0  0  0  0  0  0  0  0  0
   -5.1160    0.3174   -1.9057 C   0  0  0  0  0  0  0  0  0  0  0  0
   -3.8257    0.5554   -1.4510 C   0  0  0  0  0  0  0  0  0  0  0  0
   -3.4606    0.2508   -0.1076 C   0  0  0  0  0  0  0  0  0  0  0  0
   -0.8343    0.2900    2.1372 H   0  0  0  0  0  0  0  0  0  0  0  0
   -2.6232   -0.6015    3.6718 H   0  0  0  0  0  0  0  0  0  0  0  0
   -4.9241   -1.0079    2.7804 H   0  0  0  0  0  0  0  0  0  0  0  0
   -6.5388   -0.9578    0.9463 H   0  0  0  0  0  0  0  0  0  0  0  0
   -7.1198   -0.4112   -1.4225 H   0  0  0  0  0  0  0  0  0  0  0  0
   -5.3789    0.5638   -2.9454 H   0  0  0  0  0  0  0  0  0  0  0  0
   -3.0783    1.0016   -2.1196 H   0  0  0  0  0  0  0  0  0  0  0  0
  1  2  2  0  0  0  0
  2  3  1  0  0  0  0
  3  4  1  0  0  0  0
  4 13  1  0  0  0  0
  4  5  2  0  0  0  0
  5 14  1  0  0  0  0
  6  5  1  0  0  0  0
  6 15  1  0  0  0  0
  7  6  2  0  0  0  0
  8  7  1  0  0  0  0
  8 16  1  0  0  0  0
  9  8  2  0  0  0  0
 10 11  2  0  0  0  0
 10  9  1  0  0  0  0
 11 12  1  0  0  0  0
 12  3  2  0  0  0  0
 12  7  1  0  0  0  0
 17  9  1  0  0  0  0
 18 10  1  0  0  0  0
 19 11  1  0  0  0  0
M  END
