12
q = 0.0, confidence = 1.0

 24 26  0  0  0  0  0  0  0  0999 V2000
    1.6333    2.6087   -0.1800 C   0  0  0  0  0  0  0  0  0  0  0  0
    1.5773    3.6894   -0.3266 H   0  0  0  0  0  0  0  0  0  0  0  0
   -1.2489    3.4416    0.2655 C   0  0  0  0  0  0  0  0  0  0  0  0
   -0.5602    4.0228    0.8943 H   0  0  0  0  0  0  0  0  0  0  0  0
   -2.5883    3.8187    0.1013 C   0  0  0  0  0  0  0  0  0  0  0  0
   -2.9660    4.7333    0.5818 H   0  0  0  0  0  0  0  0  0  0  0  0
   -3.4408    3.0015   -0.6551 C   0  0  0  0  0  0  0  0  0  0  0  0
   -4.5015    3.2568   -0.7910 H   0  0  0  0  0  0  0  0  0  0  0  0
    2.1986    0.4566    0.0539 N   0  0  0  0  0  0  0  0  0  0  0  0
    0.5130    1.7933   -0.2159 N   0  0  0  0  0  0  0  0  0  0  0  0
   -0.8401    2.2560   -0.3630 C   0  0  0  0  0  0  0  0  0  0  0  0
    0.8382    0.4781   -0.0655 C   0  0  0  0  0  2  0  0  0  0  0  0
   -1.6280    1.4776   -1.1002 N   0  0  0  0  0  0  0  0  0  0  0  0
    4.1372    1.9551    0.0907 C   0  0  0  0  0  0  0  0  0  0  0  0
    4.5465    2.9731    0.0369 H   0  0  0  0  0  0  0  0  0  0  0  0
    2.7278    1.7741   -0.0118 C   0  0  0  0  0  0  0  0  0  0  0  0
    4.9435    0.8503    0.2563 C   0  0  0  0  0  0  0  0  0  0  0  0
    6.0329    0.9704    0.3403 H   0  0  0  0  0  0  0  0  0  0  0  0
   -2.9122    1.8347   -1.2311 C   0  0  0  0  0  0  0  0  0  0  0  0
   -3.5462    1.1554   -1.8252 H   0  0  0  0  0  0  0  0  0  0  0  0
    3.0190   -0.6530    0.2122 C   0  0  0  0  0  0  0  0  0  0  0  0
    2.5049   -1.6232    0.1995 H   0  0  0  0  0  0  0  0  0  0  0  0
    4.3714   -0.4656    0.3143 C   0  0  0  0  0  0  0  0  0  0  0  0
    5.0152   -1.3473    0.4333 H   0  0  0  0  0  0  0  0  0  0  0  0
  1 16  2  0  0  0  0
  2  1  1  0  0  0  0
  3  4  1  0  0  0  0
  5  3  1  0  0  0  0
  5  6  1  0  0  0  0
  7  5  2  0  0  0  0
  8  7  1  0  0  0  0
  9 21  1  0  0  0  0
 10  1  1  0  0  0  0
 10 12  1  0  0  0  0
 11 10  1  0  0  0  0
 11  3  2  0  0  0  0
 12  9  1  0  0  0  0
 13 11  1  0  0  0  0
 14 17  2  0  0  0  0
 15 14  1  0  0  0  0
 16  9  1  0  0  0  0
 16 14  1  0  0  0  0
 17 23  1  0  0  0  0
 17 18  1  0  0  0  0
 19 13  2  0  0  0  0
 19  7  1  0  0  0  0
 20 19  1  0  0  0  0
 21 23  2  0  0  0  0
 22 21  1  0  0  0  0
 23 24  1  0  0  0  0
M  END
