3
q = -1.0

 12 12  0  0  0  0  0  0  0  0999 V2000
    2.7587    1.5697    0.2286 O   0  0  0  0  0  0  0  0  0  0  0  0
    4.7936   -2.6582    0.8618 N   0  0  0  0  0  0  0  0  0  0  0  0
    2.6198    0.3692   -0.0171 C   0  0  0  0  0  3  0  0  0  0  0  0
    3.5515   -0.5735    0.7133 C   0  0  0  0  0  0  0  0  0  0  0  0
    4.0894   -0.1602    1.9505 C   0  0  0  0  0  0  0  0  0  0  0  0
    4.9462   -1.0221    2.6415 C   0  0  0  0  0  0  0  0  0  0  0  0
    5.2659   -2.2591    2.0534 C   0  0  0  0  0  0  0  0  0  0  0  0
    3.9488   -1.8342    0.2235 C   0  0  0  0  0  0  0  0  0  0  0  0
    3.8107    0.8311    2.3391 H   0  0  0  0  0  0  0  0  0  0  0  0
    5.3693   -0.7444    3.6191 H   0  0  0  0  0  0  0  0  0  0  0  0
    5.9411   -2.9629    2.5735 H   0  0  0  0  0  0  0  0  0  0  0  0
    3.5660   -2.1819   -0.7499 H   0  0  0  0  0  0  0  0  0  0  0  0
  2  7  1  0  0  0  0
  3  1  2  0  0  0  0
  3  4  1  0  0  0  0
  4  5  2  0  0  0  0
  5  9  1  0  0  0  0
  5  6  1  0  0  0  0
  6 10  1  0  0  0  0
  7 11  1  0  0  0  0
  7  6  2  0  0  0  0
  8  4  1  0  0  0  0
  8  2  2  0  0  0  0
 12  8  1  0  0  0  0
M  END
