4
q = -1.0

 21 20  0  0  0  0  0  0  0  0999 V2000
   -4.0215   -0.4954   -0.4267 Si  0  0  0  0  0  0  0  0  0  0  0  0
   -2.4024   -0.9333    0.0633 O   0  0  0  0  0  0  0  0  0  0  0  0
   -1.1862    2.2567   -0.5464 O   0  0  0  0  0  0  0  0  0  0  0  0
   -1.2598   -0.2464   -0.1478 C   0  0  0  0  0  3  0  0  0  0  0  0
   -0.7981    1.0029   -0.3993 C   0  0  0  0  0  3  0  0  0  0  0  0
   -4.9125    0.3740    0.9709 C   0  0  0  0  0  0  0  0  0  0  0  0
   -3.8914    0.5179   -1.9983 C   0  0  0  0  0  0  0  0  0  0  0  0
   -4.7851   -2.1945   -0.7342 C   0  0  0  0  0  0  0  0  0  0  0  0
   -2.1486    2.9163    0.4344 B   0  0  0  0  0  0  0  0  0  0  0  0
   -1.5404    4.1136    0.8134 F   0  0  0  0  0  0  0  0  0  0  0  0
   -3.3823    3.1235   -0.1827 F   0  0  0  0  0  0  0  0  0  0  0  0
   -2.2912    2.0564    1.5579 F   0  0  0  0  0  0  0  0  0  0  0  0
   -4.8251   -0.2024    1.9142 H   0  0  0  0  0  0  0  0  0  0  0  0
   -4.4855    1.3822    1.1259 H   0  0  0  0  0  0  0  0  0  0  0  0
   -5.9906    0.4726    0.7254 H   0  0  0  0  0  0  0  0  0  0  0  0
   -4.8977    0.6790   -2.4373 H   0  0  0  0  0  0  0  0  0  0  0  0
   -3.4566    1.5096   -1.7645 H   0  0  0  0  0  0  0  0  0  0  0  0
   -3.2606    0.0069   -2.7540 H   0  0  0  0  0  0  0  0  0  0  0  0
   -5.8582   -2.0949   -0.9984 H   0  0  0  0  0  0  0  0  0  0  0  0
   -4.2812   -2.7329   -1.5623 H   0  0  0  0  0  0  0  0  0  0  0  0
   -4.7207   -2.8261    0.1759 H   0  0  0  0  0  0  0  0  0  0  0  0
  1  2  1  0  0  0  0
  1  6  1  0  0  0  0
  3  5  1  0  0  0  0
  3  9  1  0  0  0  0
  4  2  1  0  0  0  0
  5  4  2  0  0  0  0
  6 14  1  0  0  0  0
  6 13  1  0  0  0  0
  7 17  1  0  0  0  0
  7  1  1  0  0  0  0
  8  1  1  0  0  0  0
  8 21  1  0  0  0  0
  9 10  1  0  0  0  0
  9 12  1  0  0  0  0
 11  9  1  0  0  0  0
 15  6  1  0  0  0  0
 16  7  1  0  0  0  0
 18  7  1  0  0  0  0
 19  8  1  0  0  0  0
 20  8  1  0  0  0  0
M  END
