13
q = 0.0, confidence = 0.998

 37 39  0  0  1  0  0  0  0  0999 V2000
    4.0423   -1.6591   -0.0188 O   0  0  0  0  0  0  0  0  0  0  0  0
    3.9204    1.7191   -0.8756 O   0  0  0  0  0  0  0  0  0  0  0  0
    1.7587    0.9834   -0.6926 N   0  0  0  0  0  0  0  0  0  0  0  0
    3.1172    0.6521   -0.6628 C   0  0  0  0  0  0  0  0  0  0  0  0
    1.5947    2.4293   -0.8262 C   0  0  2  0  0  0  0  0  0  0  0  0
    0.8829    2.6550   -1.6462 H   0  0  0  0  0  0  0  0  0  0  0  0
    1.8390   -1.0614   -0.1397 N   0  0  0  0  0  0  0  0  0  0  0  0
    3.0427    2.8062   -1.2691 C   0  0  0  0  0  0  0  0  0  0  0  0
    3.1018    2.9251   -2.3723 H   0  0  0  0  0  0  0  0  0  0  0  0
    3.4135    3.7312   -0.7876 H   0  0  0  0  0  0  0  0  0  0  0  0
    0.6357   -3.2608   -0.0856 C   0  0  0  0  0  0  0  0  0  0  0  0
   -0.2728   -2.6351    0.0969 H   0  0  0  0  0  0  0  0  0  0  0  0
    0.9424   -0.0463   -0.3086 C   0  0  0  0  0  2  0  0  0  0  0  0
    1.9467    2.7674    1.6887 C   0  0  0  0  0  0  0  0  0  0  0  0
    1.9769    1.6801    1.8997 H   0  0  0  0  0  0  0  0  0  0  0  0
    1.5291    3.2541    2.5923 H   0  0  0  0  0  0  0  0  0  0  0  0
    2.9855    3.1377    1.5574 H   0  0  0  0  0  0  0  0  0  0  0  0
    1.7829   -2.3944    0.4606 C   0  0  1  0  0  0  0  0  0  0  0  0
    1.6158   -2.2498    1.5504 H   0  0  0  0  0  0  0  0  0  0  0  0
    1.0659    3.0710    0.4745 C   0  0  0  0  0  0  0  0  0  0  0  0
    0.0821    2.5678    0.6391 H   0  0  0  0  0  0  0  0  0  0  0  0
    3.2378   -2.8587    0.1691 C   0  0  0  0  0  0  0  0  0  0  0  0
    3.6837   -3.4351    1.0000 H   0  0  0  0  0  0  0  0  0  0  0  0
    3.2886   -3.4612   -0.7635 H   0  0  0  0  0  0  0  0  0  0  0  0
    3.1667   -0.6736   -0.3206 C   0  0  0  0  0  0  0  0  0  0  0  0
    0.7255   -3.5278   -1.5904 C   0  0  0  0  0  0  0  0  0  0  0  0
    0.9018   -2.5928   -2.1593 H   0  0  0  0  0  0  0  0  0  0  0  0
   -0.2225   -3.9687   -1.9583 H   0  0  0  0  0  0  0  0  0  0  0  0
    1.5365   -4.2423   -1.8450 H   0  0  0  0  0  0  0  0  0  0  0  0
    0.8203    4.5683    0.2723 C   0  0  0  0  0  0  0  0  0  0  0  0
    1.7673    5.1264    0.1073 H   0  0  0  0  0  0  0  0  0  0  0  0
    0.3380    5.0071    1.1682 H   0  0  0  0  0  0  0  0  0  0  0  0
    0.1570    4.7631   -0.5962 H   0  0  0  0  0  0  0  0  0  0  0  0
    0.5033   -4.5481    0.7327 C   0  0  0  0  0  0  0  0  0  0  0  0
    1.3982   -5.1985    0.6240 H   0  0  0  0  0  0  0  0  0  0  0  0
   -0.3729   -5.1380    0.3972 H   0  0  0  0  0  0  0  0  0  0  0  0
    0.3685   -4.3260    1.8106 H   0  0  0  0  0  0  0  0  0  0  0  0
  1 22  1  0  0  0  0
  2  4  1  0  0  0  0
  3  4  1  0  0  0  0
  3 13  1  0  0  0  0
  4 25  2  0  0  0  0
  5  6  1  6  0  0  0
  5  3  1  0  0  0  0
  5 20  1  0  0  0  0
  7 18  1  0  0  0  0
  8  2  1  0  0  0  0
  8  5  1  0  0  0  0
  8 10  1  0  0  0  0
  9  8  1  0  0  0  0
 11 12  1  0  0  0  0
 11 18  1  0  0  0  0
 11 34  1  0  0  0  0
 13  7  1  0  0  0  0
 14 15  1  0  0  0  0
 14 16  1  0  0  0  0
 17 14  1  0  0  0  0
 18 19  1  1  0  0  0
 20 21  1  0  0  0  0
 20 14  1  0  0  0  0
 22 18  1  0  0  0  0
 22 23  1  0  0  0  0
 24 22  1  0  0  0  0
 25  7  1  0  0  0  0
 25  1  1  0  0  0  0
 26 11  1  0  0  0  0
 27 26  1  0  0  0  0
 28 26  1  0  0  0  0
 29 26  1  0  0  0  0
 30 20  1  0  0  0  0
 30 32  1  0  0  0  0
 31 30  1  0  0  0  0
 33 30  1  0  0  0  0
 34 37  1  0  0  0  0
 35 34  1  0  0  0  0
 36 34  1  0  0  0  0
M  END
