7
q = -1.0

 26 26  0  0  1  0  0  0  0  0999 V2000
   -1.7446   -1.9628    0.7213 C   0  0  0  0  0  0  0  0  0  0  0  0
   -1.6553   -2.2538    1.7741 H   0  0  0  0  0  0  0  0  0  0  0  0
   -2.9359   -1.6682   -0.0025 C   0  0  0  0  0  0  0  0  0  0  0  0
   -3.9551   -1.6834    0.4017 H   0  0  0  0  0  0  0  0  0  0  0  0
   -2.5743   -1.3631   -1.3670 C   0  0  0  0  0  3  0  0  0  0  0  0
   -3.2658   -1.1283   -2.1842 H   0  0  0  0  0  0  0  0  0  0  0  0
   -1.1490   -1.4562   -1.4679 C   0  0  0  0  0  3  0  0  0  0  0  0
   -0.5660   -1.3041   -2.3846 H   0  0  0  0  0  0  0  0  0  0  0  0
   -0.6222   -1.8342   -0.1788 C   0  0  2  0  0  3  0  0  0  0  0  0
    0.7883   -2.0963    0.2454 C   0  0  0  0  0  0  0  0  0  0  0  0
    3.1348   -1.5936   -0.2070 C   0  0  0  0  0  0  0  0  0  0  0  0
    3.7823   -2.3003   -0.7742 H   0  0  0  0  0  0  0  0  0  0  0  0
    3.1965   -1.8992    0.8590 H   0  0  0  0  0  0  0  0  0  0  0  0
    3.6786   -0.1851   -0.3984 C   0  0  0  0  0  0  0  0  0  0  0  0
    5.5571    1.2233   -0.0849 C   0  0  0  0  0  0  0  0  0  0  0  0
    4.9217    1.9781    0.4241 H   0  0  0  0  0  0  0  0  0  0  0  0
    5.5700    1.4888   -1.1630 H   0  0  0  0  0  0  0  0  0  0  0  0
    6.9474    1.1436    0.5080 C   0  0  0  0  0  0  0  0  0  0  0  0
    6.9072    0.8781    1.5829 H   0  0  0  0  0  0  0  0  0  0  0  0
    7.4537    2.1244    0.4125 H   0  0  0  0  0  0  0  0  0  0  0  0
    7.5619    0.3842   -0.0148 H   0  0  0  0  0  0  0  0  0  0  0  0
    1.7546   -1.6394   -0.6225 N   0  0  0  0  0  0  0  0  0  0  0  0
    1.4954   -0.8891   -1.2729 H   0  0  0  0  0  0  0  0  0  0  0  0
    1.0421   -2.6890    1.2932 O   0  0  0  0  0  0  0  0  0  0  0  0
    3.0520    0.7178   -0.9271 O   0  0  0  0  0  0  0  0  0  0  0  0
    4.9345   -0.0776    0.0629 O   0  0  0  0  0  0  0  0  0  0  0  0
  1  2  1  0  0  0  0
  3  4  1  0  0  0  0
  3  1  2  0  0  0  0
  5  3  1  0  0  0  0
  6  5  1  0  0  0  0
  7  5  1  0  0  0  0
  7  9  1  0  0  0  0
  8  7  1  0  0  0  0
  9 10  1  6  0  0  0
  9  1  1  0  0  0  0
 10 24  2  0  0  0  0
 11 13  1  0  0  0  0
 12 11  1  0  0  0  0
 14 11  1  0  0  0  0
 14 26  1  0  0  0  0
 15 26  1  0  0  0  0
 15 16  1  0  0  0  0
 15 18  1  0  0  0  0
 17 15  1  0  0  0  0
 18 19  1  0  0  0  0
 20 18  1  0  0  0  0
 21 18  1  0  0  0  0
 22 11  1  0  0  0  0
 22 10  1  0  0  0  0
 23 22  1  0  0  0  0
 25 14  2  0  0  0  0
M  END
