5
q = -1.0

 28 27  0  0  0  0  0  0  0  0999 V2000
   -2.2883   -1.9429    1.2671 O   0  0  0  0  0  0  0  0  0  0  0  0
   -2.3359   -1.5377   -0.9694 O   0  0  0  0  0  0  0  0  0  0  0  0
   -3.6374    1.9314   -0.8356 O   0  0  0  0  0  0  0  0  0  0  0  0
   -4.5691    0.1018    0.1171 O   0  0  0  0  0  0  0  0  0  0  0  0
   -1.0527    0.9675   -0.3786 C   0  0  0  0  0  3  0  0  0  0  0  0
   -2.2112    0.3682    0.4369 C   0  0  0  0  0  0  0  0  0  0  0  0
   -2.2474    0.8007    1.9152 C   0  0  0  0  0  0  0  0  0  0  0  0
   -2.2732   -1.1601    0.3349 C   0  0  0  0  0  0  0  0  0  0  0  0
   -3.5221    0.9060   -0.1954 C   0  0  0  0  0  0  0  0  0  0  0  0
   -2.5653   -2.9345   -1.2321 C   0  0  0  0  0  0  0  0  0  0  0  0
   -4.0532   -3.2468   -1.2405 C   0  0  0  0  0  0  0  0  0  0  0  0
   -5.8598    0.5157   -0.3766 C   0  0  0  0  0  0  0  0  0  0  0  0
   -6.8815   -0.5047    0.0807 C   0  0  0  0  0  0  0  0  0  0  0  0
   -1.2147    2.0621   -0.4028 H   0  0  0  0  0  0  0  0  0  0  0  0
   -1.1179    0.5948   -1.4188 H   0  0  0  0  0  0  0  0  0  0  0  0
   -3.1936    0.4769    2.3887 H   0  0  0  0  0  0  0  0  0  0  0  0
   -1.4132    0.3480    2.4770 H   0  0  0  0  0  0  0  0  0  0  0  0
   -2.1620    1.9021    1.9850 H   0  0  0  0  0  0  0  0  0  0  0  0
   -2.0985   -3.1199   -2.2193 H   0  0  0  0  0  0  0  0  0  0  0  0
   -2.0408   -3.5353   -0.4623 H   0  0  0  0  0  0  0  0  0  0  0  0
   -4.2208   -4.3097   -1.5081 H   0  0  0  0  0  0  0  0  0  0  0  0
   -4.4905   -3.0667   -0.2392 H   0  0  0  0  0  0  0  0  0  0  0  0
   -4.5862   -2.6133   -1.9773 H   0  0  0  0  0  0  0  0  0  0  0  0
   -6.0802    1.5345    0.0071 H   0  0  0  0  0  0  0  0  0  0  0  0
   -5.8092    0.5961   -1.4835 H   0  0  0  0  0  0  0  0  0  0  0  0
   -7.8916   -0.2161   -0.2717 H   0  0  0  0  0  0  0  0  0  0  0  0
   -6.6475   -1.5100   -0.3221 H   0  0  0  0  0  0  0  0  0  0  0  0
   -6.9055   -0.5735    1.1864 H   0  0  0  0  0  0  0  0  0  0  0  0
  2  8  1  0  0  0  0
  3  9  2  0  0  0  0
  5  6  1  0  0  0  0
  6  7  1  0  0  0  0
  7 18  1  0  0  0  0
  7 16  1  0  0  0  0
  7 17  1  0  0  0  0
  8  6  1  0  0  0  0
  8  1  2  0  0  0  0
  9  4  1  0  0  0  0
  9  6  1  0  0  0  0
 10  2  1  0  0  0  0
 10 20  1  0  0  0  0
 11 10  1  0  0  0  0
 11 22  1  0  0  0  0
 12 24  1  0  0  0  0
 12 13  1  0  0  0  0
 12  4  1  0  0  0  0
 13 28  1  0  0  0  0
 14  5  1  0  0  0  0
 15  5  1  0  0  0  0
 19 10  1  0  0  0  0
 21 11  1  0  0  0  0
 23 11  1  0  0  0  0
 25 12  1  0  0  0  0
 26 13  1  0  0  0  0
 27 13  1  0  0  0  0
M  END
