6
q = 0.0, confidence = 1.0

 31 33  0  0  0  0  0  0  0  0999 V2000
   -7.9753    0.0000    0.2291 O   0  0  0  0  0  0  0  0  0  0  0  0
   -0.8870   -1.0972   -0.2978 N   0  0  0  0  0  0  0  0  0  0  0  0
   -0.8869    1.0971   -0.2978 N   0  0  0  0  0  0  0  0  0  0  0  0
   -5.9048   -1.1180    0.0748 N   0  0  0  0  0  0  0  0  0  0  0  0
   -5.9048    1.1180    0.0748 N   0  0  0  0  0  0  0  0  0  0  0  0
   -0.0478   -0.0000   -0.3480 C   0  0  0  0  0  2  0  0  0  0  0  0
   -2.2203   -0.7066   -0.2010 C   0  0  0  0  0  0  0  0  0  0  0  0
   -2.2203    0.7066   -0.2010 C   0  0  0  0  0  0  0  0  0  0  0  0
   -3.4026    1.4660   -0.1108 C   0  0  0  0  0  0  0  0  0  0  0  0
   -3.4028    2.5632   -0.1071 H   0  0  0  0  0  0  0  0  0  0  0  0
   -4.5801    0.7162   -0.0250 C   0  0  0  0  0  0  0  0  0  0  0  0
   -4.5801   -0.7162   -0.0250 C   0  0  0  0  0  0  0  0  0  0  0  0
   -3.4026   -1.4660   -0.1108 C   0  0  0  0  0  0  0  0  0  0  0  0
   -3.4028   -2.5632   -0.1071 H   0  0  0  0  0  0  0  0  0  0  0  0
   -6.7557    0.0000    0.1381 C   0  0  0  0  0  0  0  0  0  0  0  0
   -0.4987   -2.4957   -0.2869 C   0  0  0  0  0  0  0  0  0  0  0  0
    0.5467   -2.5781   -0.6399 H   0  0  0  0  0  0  0  0  0  0  0  0
   -1.1446   -3.0566   -0.9908 H   0  0  0  0  0  0  0  0  0  0  0  0
   -0.6200   -2.9253    0.7295 H   0  0  0  0  0  0  0  0  0  0  0  0
   -0.4987    2.4956   -0.2870 C   0  0  0  0  0  0  0  0  0  0  0  0
    0.5468    2.5781   -0.6396 H   0  0  0  0  0  0  0  0  0  0  0  0
   -0.6205    2.9255    0.7293 H   0  0  0  0  0  0  0  0  0  0  0  0
   -1.1443    3.0564   -0.9913 H   0  0  0  0  0  0  0  0  0  0  0  0
   -6.3945   -2.4740    0.1049 C   0  0  0  0  0  0  0  0  0  0  0  0
   -7.4969   -2.4232    0.1838 H   0  0  0  0  0  0  0  0  0  0  0  0
   -5.9917   -3.0280    0.9790 H   0  0  0  0  0  0  0  0  0  0  0  0
   -6.1199   -3.0208   -0.8217 H   0  0  0  0  0  0  0  0  0  0  0  0
   -6.3945    2.4741    0.1049 C   0  0  0  0  0  0  0  0  0  0  0  0
   -7.4969    2.4232    0.1838 H   0  0  0  0  0  0  0  0  0  0  0  0
   -6.1199    3.0208   -0.8218 H   0  0  0  0  0  0  0  0  0  0  0  0
   -5.9916    3.0280    0.9790 H   0  0  0  0  0  0  0  0  0  0  0  0
  2 16  1  0  0  0  0
  2  7  1  0  0  0  0
  3 20  1  0  0  0  0
  3  8  1  0  0  0  0
  4 24  1  0  0  0  0
  4 15  1  0  0  0  0
  5 28  1  0  0  0  0
  5 15  1  0  0  0  0
  6  2  1  0  0  0  0
  6  3  1  0  0  0  0
  7  8  2  0  0  0  0
  7 13  1  0  0  0  0
  8  9  1  0  0  0  0
  9 10  1  0  0  0  0
  9 11  2  0  0  0  0
 11 12  1  0  0  0  0
 11  5  1  0  0  0  0
 12  4  1  0  0  0  0
 13 14  1  0  0  0  0
 13 12  2  0  0  0  0
 15  1  2  0  0  0  0
 16 19  1  0  0  0  0
 17 16  1  0  0  0  0
 18 16  1  0  0  0  0
 20 22  1  0  0  0  0
 21 20  1  0  0  0  0
 23 20  1  0  0  0  0
 24 25  1  0  0  0  0
 24 26  1  0  0  0  0
 27 24  1  0  0  0  0
 28 29  1  0  0  0  0
 28 31  1  0  0  0  0
 30 28  1  0  0  0  0
M  END
