47
q = 0.0, confidence = 0.998

 55 56  0  0  0  0  0  0  0  0999 V2000
    9.0938   -2.3372   -0.0352 C   0  0  0  0  0  0  0  0  0  0  0  0
    9.3927   -3.0489    0.7595 H   0  0  0  0  0  0  0  0  0  0  0  0
    9.5438   -1.3471    0.1950 H   0  0  0  0  0  0  0  0  0  0  0  0
    9.5584   -2.6694   -0.9894 H   0  0  0  0  0  0  0  0  0  0  0  0
    7.6087   -2.2340   -0.1663 C   0  0  0  0  0  0  0  0  0  0  0  0
    7.2306   -1.5320   -0.9327 H   0  0  0  0  0  0  0  0  0  0  0  0
    6.7075   -2.9079    0.5899 C   0  0  0  0  0  0  0  0  0  0  0  0
    7.0899   -3.5622    1.3943 H   0  0  0  0  0  0  0  0  0  0  0  0
    5.2512   -2.8099    0.4781 C   0  0  0  0  0  0  0  0  0  0  0  0
    4.6831   -3.0638    1.3925 H   0  0  0  0  0  0  0  0  0  0  0  0
    4.5440   -2.4480   -0.6187 C   0  0  0  0  0  0  0  0  0  0  0  0
    5.0621   -2.2215   -1.5665 H   0  0  0  0  0  0  0  0  0  0  0  0
    3.0586   -2.2745   -0.6228 C   0  0  0  0  0  0  0  0  0  0  0  0
    2.5764   -2.8717   -1.4339 H   0  0  0  0  0  0  0  0  0  0  0  0
    2.6188   -2.5999    0.3483 H   0  0  0  0  0  0  0  0  0  0  0  0
    8.7763    1.4626    1.2039 C   0  0  0  0  0  0  0  0  0  0  0  0
    9.1229    1.2552    0.1692 H   0  0  0  0  0  0  0  0  0  0  0  0
    9.2632    0.7255    1.8743 H   0  0  0  0  0  0  0  0  0  0  0  0
    9.1588    2.4676    1.4798 H   0  0  0  0  0  0  0  0  0  0  0  0
    7.2520    1.3963    1.3010 C   0  0  0  0  0  0  0  0  0  0  0  0
    6.9063    0.3681    1.0535 H   0  0  0  0  0  0  0  0  0  0  0  0
    6.9360    1.5713    2.3536 H   0  0  0  0  0  0  0  0  0  0  0  0
    6.5358    2.3973    0.3886 C   0  0  0  0  0  0  0  0  0  0  0  0
    6.8623    2.2297   -0.6635 H   0  0  0  0  0  0  0  0  0  0  0  0
    6.8638    3.4318    0.6407 H   0  0  0  0  0  0  0  0  0  0  0  0
    5.0107    2.2995    0.4593 C   0  0  0  0  0  0  0  0  0  0  0  0
    4.6982    1.2611    0.2189 H   0  0  0  0  0  0  0  0  0  0  0  0
    4.6718    2.4878    1.5034 H   0  0  0  0  0  0  0  0  0  0  0  0
    4.2788    3.2522   -0.4927 C   0  0  0  0  0  0  0  0  0  0  0  0
    4.6850    3.1369   -1.5213 H   0  0  0  0  0  0  0  0  0  0  0  0
    4.4481    4.3126   -0.2061 H   0  0  0  0  0  0  0  0  0  0  0  0
    2.7769    2.9991   -0.5433 C   0  0  0  0  0  0  0  0  0  0  0  0
    2.3106    3.1376    0.4605 H   0  0  0  0  0  0  0  0  0  0  0  0
    2.2732    3.6970   -1.2520 H   0  0  0  0  0  0  0  0  0  0  0  0
    1.5277   -0.4218   -0.7210 C   0  0  0  0  0  0  0  0  0  0  0  0
    0.3897   -1.2222   -0.5395 C   0  0  0  0  0  0  0  0  0  0  0  0
    0.4558   -2.3163   -0.5051 H   0  0  0  0  0  0  0  0  0  0  0  0
   -0.8427   -0.5605   -0.3881 C   0  0  0  0  0  0  0  0  0  0  0  0
   -0.9405    0.8433   -0.4110 C   0  0  0  0  0  0  0  0  0  0  0  0
    0.1896    1.6599   -0.5969 C   0  0  0  0  0  0  0  0  0  0  0  0
    0.1121    2.7540   -0.6227 H   0  0  0  0  0  0  0  0  0  0  0  0
    1.4240    1.0168   -0.7641 C   0  0  0  0  0  0  0  0  0  0  0  0
   -2.4821   -2.4447   -0.1001 C   0  0  0  0  0  0  0  0  0  0  0  0
   -3.5740   -2.5211    0.0573 H   0  0  0  0  0  0  0  0  0  0  0  0
   -1.9545   -2.9206    0.7515 H   0  0  0  0  0  0  0  0  0  0  0  0
   -2.2081   -2.9711   -1.0368 H   0  0  0  0  0  0  0  0  0  0  0  0
   -3.0300   -0.0020   -0.0875 C   0  0  0  0  0  2  0  0  0  0  0  0
   -2.8256    2.4913   -0.1824 C   0  0  0  0  0  0  0  0  0  0  0  0
   -2.6286    3.0166   -1.1389 H   0  0  0  0  0  0  0  0  0  0  0  0
   -2.3676    3.0657    0.6483 H   0  0  0  0  0  0  0  0  0  0  0  0
   -3.9173    2.4212   -0.0211 H   0  0  0  0  0  0  0  0  0  0  0  0
   -2.1360   -1.0395   -0.1890 N   0  0  0  0  0  0  0  0  0  0  0  0
   -2.2880    1.1452   -0.2236 N   0  0  0  0  0  0  0  0  0  0  0  0
    2.7952   -0.8833   -0.8420 O   0  0  0  0  0  0  0  0  0  0  0  0
    2.6021    1.6483   -0.9648 O   0  0  0  0  0  0  0  0  0  0  0  0
  1  3  1  0  0  0  0
  1  2  1  0  0  0  0
  4  1  1  0  0  0  0
  5  1  1  0  0  0  0
  5  7  2  0  0  0  0
  6  5  1  0  0  0  0
  7  8  1  0  0  0  0
  9  7  1  0  0  0  0
  9 10  1  0  0  0  0
 11  9  2  0  0  0  0
 12 11  1  0  0  0  0
 13 11  1  0  0  0  0
 13 15  1  0  0  0  0
 14 13  1  0  0  0  0
 16 20  1  0  0  0  0
 16 19  1  0  0  0  0
 16 18  1  0  0  0  0
 17 16  1  0  0  0  0
 20 22  1  0  0  0  0
 21 20  1  0  0  0  0
 23 26  1  0  0  0  0
 23 25  1  0  0  0  0
 23 20  1  0  0  0  0
 24 23  1  0  0  0  0
 26 28  1  0  0  0  0
 27 26  1  0  0  0  0
 29 31  1  0  0  0  0
 29 26  1  0  0  0  0
 30 29  1  0  0  0  0
 32 29  1  0  0  0  0
 32 33  1  0  0  0  0
 34 32  1  0  0  0  0
 35 36  1  0  0  0  0
 36 37  1  0  0  0  0
 36 38  2  0  0  0  0
 38 52  1  0  0  0  0
 39 38  1  0  0  0  0
 39 53  1  0  0  0  0
 40 39  2  0  0  0  0
 41 40  1  0  0  0  0
 42 35  2  0  0  0  0
 42 40  1  0  0  0  0
 43 44  1  0  0  0  0
 43 45  1  0  0  0  0
 46 43  1  0  0  0  0
 48 51  1  0  0  0  0
 48 50  1  0  0  0  0
 49 48  1  0  0  0  0
 52 43  1  0  0  0  0
 52 47  1  0  0  0  0
 53 48  1  0  0  0  0
 53 47  1  0  0  0  0
 54 35  1  0  0  0  0
 54 13  1  0  0  0  0
 55 42  1  0  0  0  0
 55 32  1  0  0  0  0
M  END
