3
q = -1.0, confidence = 0.0

 30 31  0  0  0  0  0  0  0  0999 V2000
    1.7542    0.0196   -1.7359 C   0  0  0  0  0  0  0  0  0  0  0  0
    0.9702   -1.1057   -1.3232 C   0  0  0  0  0  0  0  0  0  0  0  0
   -0.3728   -0.9186   -1.7801 C   0  0  0  0  0  3  0  0  0  0  0  0
   -0.4305    0.3290   -2.4628 C   0  0  0  0  0  0  0  0  0  0  0  0
    0.8586    0.9215   -2.4067 C   0  0  0  0  0  0  0  0  0  0  0  0
    3.1994    0.2161   -1.5107 C   0  0  0  0  0  0  0  0  0  0  0  0
    1.3471   -1.9946   -0.8062 H   0  0  0  0  0  0  0  0  0  0  0  0
   -1.1992   -1.6301   -1.6661 H   0  0  0  0  0  0  0  0  0  0  0  0
   -1.3271    0.7837   -2.8981 H   0  0  0  0  0  0  0  0  0  0  0  0
    1.1245    1.9156   -2.7844 H   0  0  0  0  0  0  0  0  0  0  0  0
    3.9080    1.0394   -2.3166 C   0  0  0  0  0  0  0  0  0  0  0  0
    3.8358   -0.5629   -0.3690 C   0  0  0  0  0  0  0  0  0  0  0  0
    4.9825    1.2124   -2.1601 H   0  0  0  0  0  0  0  0  0  0  0  0
    3.4383    1.5603   -3.1637 H   0  0  0  0  0  0  0  0  0  0  0  0
    4.9400    0.2037    0.3793 C   0  0  0  0  0  0  0  0  0  0  0  0
    4.3653   -1.9412   -0.8297 C   0  0  0  0  0  0  0  0  0  0  0  0
    3.0332   -0.7549    0.3790 H   0  0  0  0  0  0  0  0  0  0  0  0
    5.4696   -0.6083    1.5676 C   0  0  0  0  0  0  0  0  0  0  0  0
    5.7819    0.4157   -0.3162 H   0  0  0  0  0  0  0  0  0  0  0  0
    4.5413    1.1841    0.7105 H   0  0  0  0  0  0  0  0  0  0  0  0
    4.9048   -2.7595    0.3503 C   0  0  0  0  0  0  0  0  0  0  0  0
    5.1745   -1.7682   -1.5735 H   0  0  0  0  0  0  0  0  0  0  0  0
    3.5734   -2.5035   -1.3674 H   0  0  0  0  0  0  0  0  0  0  0  0
    5.9783   -1.9876    1.1283 C   0  0  0  0  0  0  0  0  0  0  0  0
    4.6510   -0.7388    2.3120 H   0  0  0  0  0  0  0  0  0  0  0  0
    6.2728   -0.0462    2.0883 H   0  0  0  0  0  0  0  0  0  0  0  0
    4.0623   -3.0057    1.0371 H   0  0  0  0  0  0  0  0  0  0  0  0
    5.3054   -3.7311   -0.0081 H   0  0  0  0  0  0  0  0  0  0  0  0
    6.8708   -1.8539    0.4762 H   0  0  0  0  0  0  0  0  0  0  0  0
    6.3194   -2.5760    2.0060 H   0  0  0  0  0  0  0  0  0  0  0  0
  1  6  1  0  0  0  0
  1  2  2  0  0  0  0
  2  7  1  0  0  0  0
  3  8  1  0  0  0  0
  3  2  1  0  0  0  0
  4  5  2  0  0  0  0
  4  3  1  0  0  0  0
  5  1  1  0  0  0  0
  6 12  1  0  0  0  0
  9  4  1  0  0  0  0
 10  5  1  0  0  0  0
 11 13  1  0  0  0  0
 11  6  2  0  0  0  0
 12 17  1  0  0  0  0
 12 15  1  0  0  0  0
 14 11  1  0  0  0  0
 15 20  1  0  0  0  0
 15 18  1  0  0  0  0
 16 12  1  0  0  0  0
 16 21  1  0  0  0  0
 18 26  1  0  0  0  0
 18 25  1  0  0  0  0
 19 15  1  0  0  0  0
 21 27  1  0  0  0  0
 21 24  1  0  0  0  0
 22 16  1  0  0  0  0
 23 16  1  0  0  0  0
 24 18  1  0  0  0  0
 24 30  1  0  0  0  0
 28 21  1  0  0  0  0
 29 24  1  0  0  0  0
M  END
