1
q = -2.0, confidence = 0.908

 34 36  0  0  1  0  0  0  0  0999 V2000
   -0.7362    0.2471    1.4928 C   0  0  1  0  0  3  0  0  0  0  0  0
   -1.4263    1.4696    1.8012 C   0  0  0  0  0  3  0  0  0  0  0  0
   -1.0722    2.4740    1.5420 H   0  0  0  0  0  0  0  0  0  0  0  0
   -2.6712    1.1606    2.4236 C   0  0  0  0  0  0  0  0  0  0  0  0
   -3.4151    1.8819    2.7828 H   0  0  0  0  0  0  0  0  0  0  0  0
   -2.7776   -0.2561    2.4975 C   0  0  0  0  0  0  0  0  0  0  0  0
   -3.6311   -0.8238    2.8895 H   0  0  0  0  0  0  0  0  0  0  0  0
   -1.5818   -0.8078    1.9507 C   0  0  0  0  0  3  0  0  0  0  0  0
   -1.3928   -1.8766    1.8072 H   0  0  0  0  0  0  0  0  0  0  0  0
    0.2555    0.1111    0.2047 B   0  0  0  0  0  0  0  0  0  0  0  0
   -0.8745    0.3941   -0.8290 O   0  0  0  0  0  0  0  0  0  0  0  0
   -0.7380   -0.0082   -1.7115 H   0  0  0  0  0  0  0  0  0  0  0  0
    0.7762   -1.4170   -0.0350 C   0  0  0  0  0  0  0  0  0  0  0  0
    1.2290   -2.2306    1.0158 C   0  0  0  0  0  0  0  0  0  0  0  0
    1.6321   -3.5639    0.8371 C   0  0  0  0  0  0  0  0  0  0  0  0
    1.5943   -4.1265   -0.4501 C   0  0  0  0  0  0  0  0  0  0  0  0
    1.1559   -3.3507   -1.5348 C   0  0  0  0  0  0  0  0  0  0  0  0
    0.7680   -2.0237   -1.2958 C   0  0  0  0  0  0  0  0  0  0  0  0
    1.3010   -1.7358    2.2653 F   0  0  0  0  0  0  0  0  0  0  0  0
    2.0551   -4.2996    1.8707 F   0  0  0  0  0  0  0  0  0  0  0  0
    1.9749   -5.3923   -0.6411 F   0  0  0  0  0  0  0  0  0  0  0  0
    1.1185   -3.8739   -2.7650 F   0  0  0  0  0  0  0  0  0  0  0  0
    0.3645   -1.3117   -2.3950 F   0  0  0  0  0  0  0  0  0  0  0  0
    1.4154    1.2614    0.0644 C   0  0  0  0  0  0  0  0  0  0  0  0
    2.7750    1.0151    0.3374 C   0  0  0  0  0  0  0  0  0  0  0  0
    3.7847    1.9856    0.2070 C   0  0  0  0  0  0  0  0  0  0  0  0
    3.4465    3.2824   -0.2069 C   0  0  0  0  0  0  0  0  0  0  0  0
    2.1041    3.5852   -0.4794 C   0  0  0  0  0  0  0  0  0  0  0  0
    1.1322    2.5822   -0.3310 C   0  0  0  0  0  0  0  0  0  0  0  0
    3.1892   -0.1950    0.7534 F   0  0  0  0  0  0  0  0  0  0  0  0
    5.0593    1.6850    0.4782 F   0  0  0  0  0  0  0  0  0  0  0  0
    4.3893    4.2195   -0.3341 F   0  0  0  0  0  0  0  0  0  0  0  0
    1.7605    4.8214   -0.8634 F   0  0  0  0  0  0  0  0  0  0  0  0
   -0.1417    2.9810   -0.5861 F   0  0  0  0  0  0  0  0  0  0  0  0
  1 10  1  6  0  0  0
  1  2  1  0  0  0  0
  1  8  1  0  0  0  0
  2  4  1  0  0  0  0
  3  2  1  0  0  0  0
  4  6  2  0  0  0  0
  4  5  1  0  0  0  0
  6  7  1  0  0  0  0
  8  6  1  0  0  0  0
  9  8  1  0  0  0  0
 11 10  1  0  0  0  0
 12 11  1  0  0  0  0
 13 10  1  0  0  0  0
 13 14  1  0  0  0  0
 14 19  1  0  0  0  0
 15 14  2  0  0  0  0
 15 20  1  0  0  0  0
 16 15  1  0  0  0  0
 17 18  1  0  0  0  0
 17 16  2  0  0  0  0
 18 13  2  0  0  0  0
 21 16  1  0  0  0  0
 22 17  1  0  0  0  0
 23 18  1  0  0  0  0
 24 10  1  0  0  0  0
 24 25  1  0  0  0  0
 25 30  1  0  0  0  0
 26 25  2  0  0  0  0
 26 31  1  0  0  0  0
 27 26  1  0  0  0  0
 28 29  1  0  0  0  0
 28 27  2  0  0  0  0
 29 24  2  0  0  0  0
 32 27  1  0  0  0  0
 33 28  1  0  0  0  0
 34 29  1  0  0  0  0
M  END
