2
q = -1.0

 22 22  0  0  0  0  0  0  0  0999 V2000
    0.5541    1.3438    0.9277 N   0  0  0  0  0  0  0  0  0  0  0  0
    1.6994    0.4356    0.9759 C   0  0  0  0  0  3  0  0  0  0  0  0
    3.0595    0.7721    0.4797 C   0  0  0  0  0  0  0  0  0  0  0  0
    3.9583   -0.3051    0.2681 C   0  0  0  0  0  0  0  0  0  0  0  0
    5.2690   -0.0930   -0.1717 C   0  0  0  0  0  0  0  0  0  0  0  0
    5.7265    1.2103   -0.4345 C   0  0  0  0  0  0  0  0  0  0  0  0
    4.8580    2.2900   -0.2226 C   0  0  0  0  0  0  0  0  0  0  0  0
    3.5483    2.0784    0.2394 C   0  0  0  0  0  0  0  0  0  0  0  0
    0.4566    2.4346   -0.0521 C   0  0  0  0  0  0  0  0  0  0  0  0
   -0.0523    1.7796    2.1917 C   0  0  0  0  0  0  0  0  0  0  0  0
    1.7713    0.0380    2.0031 H   0  0  0  0  0  0  0  0  0  0  0  0
    3.5998   -1.3306    0.4509 H   0  0  0  0  0  0  0  0  0  0  0  0
    5.9388   -0.9538   -0.3225 H   0  0  0  0  0  0  0  0  0  0  0  0
    6.7518    1.3803   -0.7954 H   0  0  0  0  0  0  0  0  0  0  0  0
    5.2052    3.3192   -0.4036 H   0  0  0  0  0  0  0  0  0  0  0  0
    2.9122    2.9507    0.4372 H   0  0  0  0  0  0  0  0  0  0  0  0
    1.0585    2.2217   -0.9487 H   0  0  0  0  0  0  0  0  0  0  0  0
    0.8095    3.3953    0.3858 H   0  0  0  0  0  0  0  0  0  0  0  0
   -0.6078    2.5501   -0.3383 H   0  0  0  0  0  0  0  0  0  0  0  0
    0.0561    0.9959    2.9601 H   0  0  0  0  0  0  0  0  0  0  0  0
   -1.1317    1.9704    2.0283 H   0  0  0  0  0  0  0  0  0  0  0  0
    0.4342    2.7103    2.5644 H   0  0  0  0  0  0  0  0  0  0  0  0
  1  2  1  0  0  0  0
  1 10  1  0  0  0  0
  2 11  1  0  0  0  0
  3  2  1  0  0  0  0
  4 12  1  0  0  0  0
  4  3  1  0  0  0  0
  5  4  2  0  0  0  0
  6  7  2  0  0  0  0
  6  5  1  0  0  0  0
  7  8  1  0  0  0  0
  8 16  1  0  0  0  0
  8  3  2  0  0  0  0
  9 18  1  0  0  0  0
  9  1  1  0  0  0  0
 10 22  1  0  0  0  0
 10 20  1  0  0  0  0
 13  5  1  0  0  0  0
 14  6  1  0  0  0  0
 15  7  1  0  0  0  0
 17  9  1  0  0  0  0
 19  9  1  0  0  0  0
 21 10  1  0  0  0  0
M  END
