6
q = -1.0, confidence = 0.024

 32 33  0  0  1  0  0  0  0  0999 V2000
   -4.6777    1.6257   -0.7889 O   0  0  0  0  0  0  0  0  0  0  0  0
   -5.5827   -0.1160    0.3597 O   0  0  0  0  0  0  0  0  0  0  0  0
   -2.9743   -3.4715    0.7174 O   0  0  0  0  0  0  0  0  0  0  0  0
   -2.0559   -1.9698    2.1469 O   0  0  0  0  0  0  0  0  0  0  0  0
   -3.8437   -1.8274   -2.2634 N   0  0  0  0  0  0  0  0  0  0  0  0
   -1.3895   -0.3327   -0.3012 C   0  0  0  0  0  3  0  0  0  0  0  0
   -1.9751    0.8404    0.1120 C   0  0  0  0  0  0  0  0  0  0  0  0
   -1.6139    2.2566    0.1320 C   0  0  0  0  0  0  0  0  0  0  0  0
   -1.9217    3.0604    1.2538 C   0  0  0  0  0  0  0  0  0  0  0  0
   -1.5916    4.4206    1.2746 C   0  0  0  0  0  0  0  0  0  0  0  0
   -0.9687    5.0156    0.1647 C   0  0  0  0  0  0  0  0  0  0  0  0
   -0.6910    4.2380   -0.9709 C   0  0  0  0  0  0  0  0  0  0  0  0
   -1.0075    2.8721   -0.9858 C   0  0  0  0  0  0  0  0  0  0  0  0
   -3.2620    0.2078    0.5961 C   0  0  1  0  0  0  0  0  0  0  0  0
   -4.5605    0.6861   -0.0280 C   0  0  0  0  0  0  0  0  0  0  0  0
   -6.8364    0.1316   -0.2895 C   0  0  0  0  0  0  0  0  0  0  0  0
   -2.6989   -1.1566    0.0088 C   0  0  2  0  0  0  0  0  0  0  0  0
   -2.6142   -2.3401    0.9668 C   0  0  0  0  0  0  0  0  0  0  0  0
   -1.8555   -3.0384    3.0848 C   0  0  0  0  0  0  0  0  0  0  0  0
   -3.3620   -1.5694   -1.2262 C   0  0  0  0  0  0  0  0  0  0  0  0
   -2.4093    2.6012    2.1263 H   0  0  0  0  0  0  0  0  0  0  0  0
   -1.8239    5.0250    2.1648 H   0  0  0  0  0  0  0  0  0  0  0  0
   -0.7191    6.0874    0.1774 H   0  0  0  0  0  0  0  0  0  0  0  0
   -0.2336    4.7033   -1.8584 H   0  0  0  0  0  0  0  0  0  0  0  0
   -0.8225    2.2644   -1.8819 H   0  0  0  0  0  0  0  0  0  0  0  0
   -3.3790    0.1246    1.6975 H   0  0  0  0  0  0  0  0  0  0  0  0
   -7.5665   -0.5507    0.1807 H   0  0  0  0  0  0  0  0  0  0  0  0
   -6.7534   -0.0841   -1.3740 H   0  0  0  0  0  0  0  0  0  0  0  0
   -7.1475    1.1877   -0.1616 H   0  0  0  0  0  0  0  0  0  0  0  0
   -1.4185   -2.5727    3.9862 H   0  0  0  0  0  0  0  0  0  0  0  0
   -1.1619   -3.7905    2.6601 H   0  0  0  0  0  0  0  0  0  0  0  0
   -2.8174   -3.5322    3.3263 H   0  0  0  0  0  0  0  0  0  0  0  0
  1 15  2  0  0  0  0
  3 18  2  0  0  0  0
  4 19  1  0  0  0  0
  5 20  3  0  0  0  0
  6 17  1  0  0  0  0
  6  7  2  0  0  0  0
  7  8  1  0  0  0  0
  7 14  1  0  0  0  0
  8  9  1  0  0  0  0
  9 10  2  0  0  0  0
  9 21  1  0  0  0  0
 10 22  1  0  0  0  0
 11 23  1  0  0  0  0
 11 10  1  0  0  0  0
 12 11  2  0  0  0  0
 13 12  1  0  0  0  0
 13  8  2  0  0  0  0
 14 26  1  1  0  0  0
 15  2  1  0  0  0  0
 15 14  1  0  0  0  0
 16 29  1  0  0  0  0
 16 27  1  0  0  0  0
 16  2  1  0  0  0  0
 17 20  1  6  0  0  0
 17 14  1  0  0  0  0
 17 18  1  0  0  0  0
 18  4  1  0  0  0  0
 19 32  1  0  0  0  0
 19 30  1  0  0  0  0
 24 12  1  0  0  0  0
 25 13  1  0  0  0  0
 28 16  1  0  0  0  0
 31 19  1  0  0  0  0
M  END
