6
q = -1.0

 32 32  0  0  1  0  0  0  0  0999 V2000
    0.7978    2.4772   -1.4456 O   0  0  0  0  0  0  0  0  0  0  0  0
    1.8497    1.3218   -3.0953 O   0  0  0  0  0  0  0  0  0  0  0  0
   -2.6299    2.8644    2.1520 O   0  0  0  0  0  0  0  0  0  0  0  0
   -2.6075    1.9206    0.0825 O   0  0  0  0  0  0  0  0  0  0  0  0
    0.3066    1.4774    3.8829 N   0  0  0  0  0  0  0  0  0  0  0  0
   -0.2741    0.5682    0.6149 C   0  0  0  0  0  2  0  0  0  0  0  0
   -0.5291   -0.0660   -0.6418 C   0  0  2  0  0  3  0  0  0  0  0  0
   -1.6646   -1.0152   -0.8142 C   0  0  0  0  0  0  0  0  0  0  0  0
   -2.4398   -1.4338    0.2916 C   0  0  0  0  0  0  0  0  0  0  0  0
   -3.5203   -2.3055    0.1185 C   0  0  0  0  0  0  0  0  0  0  0  0
   -3.8551   -2.7745   -1.1639 C   0  0  0  0  0  0  0  0  0  0  0  0
   -3.1018   -2.3552   -2.2705 C   0  0  0  0  0  0  0  0  0  0  0  0
   -2.0180   -1.4814   -2.0987 C   0  0  0  0  0  0  0  0  0  0  0  0
    0.5297    0.0769   -1.6208 C   0  0  0  0  0  3  0  0  0  0  0  0
    1.0427    1.4204   -2.0026 C   0  0  0  0  0  0  0  0  0  0  0  0
    2.4384    2.5562   -3.5198 C   0  0  0  0  0  0  0  0  0  0  0  0
   -0.8552    1.3602    1.5534 C   0  0  1  0  0  3  0  0  0  0  0  0
   -2.1100    2.1391    1.3236 C   0  0  0  0  0  0  0  0  0  0  0  0
   -3.8158    2.6214   -0.2217 C   0  0  0  0  0  0  0  0  0  0  0  0
   -0.2385    1.4606    2.8426 C   0  0  0  0  0  0  0  0  0  0  0  0
   -2.1825   -1.0700    1.2974 H   0  0  0  0  0  0  0  0  0  0  0  0
   -4.1100   -2.6211    0.9926 H   0  0  0  0  0  0  0  0  0  0  0  0
   -4.7064   -3.4584   -1.2992 H   0  0  0  0  0  0  0  0  0  0  0  0
   -3.3641   -2.7029   -3.2812 H   0  0  0  0  0  0  0  0  0  0  0  0
   -1.4527   -1.1388   -2.9773 H   0  0  0  0  0  0  0  0  0  0  0  0
    0.5710   -0.6637   -2.4339 H   0  0  0  0  0  0  0  0  0  0  0  0
    3.0719    2.3112   -4.3908 H   0  0  0  0  0  0  0  0  0  0  0  0
    3.0490    3.0000   -2.7074 H   0  0  0  0  0  0  0  0  0  0  0  0
    1.6580    3.2912   -3.8032 H   0  0  0  0  0  0  0  0  0  0  0  0
   -4.0957    2.3147   -1.2450 H   0  0  0  0  0  0  0  0  0  0  0  0
   -3.6574    3.7178   -0.1759 H   0  0  0  0  0  0  0  0  0  0  0  0
   -4.6186    2.3567    0.4960 H   0  0  0  0  0  0  0  0  0  0  0  0
  2 15  1  0  0  0  0
  4 18  1  0  0  0  0
  7  6  1  1  0  0  0
  8  7  1  0  0  0  0
  8  9  1  0  0  0  0
  9 21  1  0  0  0  0
 10  9  2  0  0  0  0
 10 22  1  0  0  0  0
 11 10  1  0  0  0  0
 12 13  1  0  0  0  0
 12 11  2  0  0  0  0
 13  8  2  0  0  0  0
 14  7  1  0  0  0  0
 15 14  1  0  0  0  0
 15  1  2  0  0  0  0
 16  2  1  0  0  0  0
 16 28  1  0  0  0  0
 17  6  1  1  0  0  0
 17 20  1  0  0  0  0
 18 17  1  0  0  0  0
 18  3  2  0  0  0  0
 19 31  1  0  0  0  0
 19  4  1  0  0  0  0
 19 32  1  0  0  0  0
 20  5  3  0  0  0  0
 23 11  1  0  0  0  0
 24 12  1  0  0  0  0
 25 13  1  0  0  0  0
 26 14  1  0  0  0  0
 27 16  1  0  0  0  0
 29 16  1  0  0  0  0
 30 19  1  0  0  0  0
M  END
