2
q = 0.0, confidence = 0.99

 58 60  0  0  1  0  0  0  0  0999 V2000
    0.2120   -0.7022   -0.1502 P   0  0  0  0  0  0  0  0  0  0  0  0
   -1.6318    1.5706   -0.0975 C   0  0  2  0  0  3  0  0  0  0  0  0
   -2.4252    1.3876    1.1004 C   0  0  1  0  0  3  0  0  0  0  0  0
   -3.7047    0.7278    0.9628 C   0  0  0  0  0  0  0  0  0  0  0  0
   -4.2418    0.4637    1.8870 H   0  0  0  0  0  0  0  0  0  0  0  0
   -4.2062    0.2461   -0.2715 C   0  0  0  0  0  0  0  0  0  0  0  0
   -3.3778    0.4618   -1.4369 C   0  0  0  0  0  0  0  0  0  0  0  0
   -3.6870    0.0050   -2.3899 H   0  0  0  0  0  0  0  0  0  0  0  0
   -2.1517    1.1887   -1.4099 C   0  0  0  0  0  0  0  0  0  0  0  0
   -1.9256    1.7426    2.4733 C   0  0  0  0  0  0  0  0  0  0  0  0
   -0.8511    2.0020    2.4585 H   0  0  0  0  0  0  0  0  0  0  0  0
   -2.0598    0.8700    3.1449 H   0  0  0  0  0  0  0  0  0  0  0  0
   -2.4841    2.6064    2.8911 H   0  0  0  0  0  0  0  0  0  0  0  0
   -5.4467   -0.5938   -0.3763 C   0  0  0  0  0  0  0  0  0  0  0  0
   -5.8486   -0.8383    0.6248 H   0  0  0  0  0  0  0  0  0  0  0  0
   -5.2036   -1.5468   -0.8909 H   0  0  0  0  0  0  0  0  0  0  0  0
   -6.2389   -0.0768   -0.9571 H   0  0  0  0  0  0  0  0  0  0  0  0
   -1.4096    1.4687   -2.6885 C   0  0  0  0  0  0  0  0  0  0  0  0
   -1.6089    0.6785   -3.4376 H   0  0  0  0  0  0  0  0  0  0  0  0
   -0.3176    1.5451   -2.5311 H   0  0  0  0  0  0  0  0  0  0  0  0
   -1.7441    2.4373   -3.1180 H   0  0  0  0  0  0  0  0  0  0  0  0
   -0.2094    2.0327   -0.0023 C   0  0  0  0  0  0  0  0  0  0  0  0
    0.0919    3.4029    0.0716 C   0  0  0  0  0  0  0  0  0  0  0  0
   -0.7292    4.1357    0.0762 H   0  0  0  0  0  0  0  0  0  0  0  0
    1.4263    3.8226    0.1466 C   0  0  0  0  0  0  0  0  0  0  0  0
    1.6666    4.8944    0.2127 H   0  0  0  0  0  0  0  0  0  0  0  0
    2.4552    2.8718    0.1367 C   0  0  0  0  0  0  0  0  0  0  0  0
    3.5066    3.1935    0.1937 H   0  0  0  0  0  0  0  0  0  0  0  0
    2.1810    1.4901    0.0509 C   0  0  0  0  0  0  0  0  0  0  0  0
    0.8287    1.0615   -0.0135 C   0  0  0  0  0  0  0  0  0  0  0  0
    1.0622   -1.7747    1.0628 C   0  0  0  0  0  0  0  0  0  0  0  0
    0.6138   -2.7775    0.9195 H   0  0  0  0  0  0  0  0  0  0  0  0
    0.8064   -1.4492    2.0865 H   0  0  0  0  0  0  0  0  0  0  0  0
    2.1540   -1.8022    0.8940 H   0  0  0  0  0  0  0  0  0  0  0  0
    0.8049   -1.3677   -1.7563 C   0  0  0  0  0  0  0  0  0  0  0  0
    1.9004   -1.5223   -1.7549 H   0  0  0  0  0  0  0  0  0  0  0  0
    0.5082   -0.6933   -2.5797 H   0  0  0  0  0  0  0  0  0  0  0  0
    0.2593   -2.3241   -1.8868 H   0  0  0  0  0  0  0  0  0  0  0  0
    3.3345    0.5390    0.0324 C   0  0  0  0  0  0  0  0  0  0  0  0
    3.9292    0.1738   -1.2004 C   0  0  0  0  0  0  0  0  0  0  0  0
    4.9976   -0.7432   -1.1929 C   0  0  0  0  0  0  0  0  0  0  0  0
    5.4506   -1.0380   -2.1535 H   0  0  0  0  0  0  0  0  0  0  0  0
    5.5080   -1.2816    0.0014 C   0  0  0  0  0  0  0  0  0  0  0  0
    4.9372   -0.8550    1.2158 C   0  0  0  0  0  0  0  0  0  0  0  0
    5.3394   -1.2419    2.1662 H   0  0  0  0  0  0  0  0  0  0  0  0
    3.8641    0.0519    1.2554 C   0  0  0  0  0  0  0  0  0  0  0  0
    3.4694    0.7974   -2.4959 C   0  0  0  0  0  0  0  0  0  0  0  0
    3.8281    1.8458   -2.5743 H   0  0  0  0  0  0  0  0  0  0  0  0
    2.3660    0.8428   -2.5710 H   0  0  0  0  0  0  0  0  0  0  0  0
    3.8570    0.2430   -3.3721 H   0  0  0  0  0  0  0  0  0  0  0  0
    6.6242   -2.2954   -0.0127 C   0  0  0  0  0  0  0  0  0  0  0  0
    7.1933   -2.2653   -0.9622 H   0  0  0  0  0  0  0  0  0  0  0  0
    6.2255   -3.3265    0.1005 H   0  0  0  0  0  0  0  0  0  0  0  0
    7.3341   -2.1317    0.8226 H   0  0  0  0  0  0  0  0  0  0  0  0
    3.2921    0.5097    2.5739 C   0  0  0  0  0  0  0  0  0  0  0  0
    2.1958    0.3549    2.6227 H   0  0  0  0  0  0  0  0  0  0  0  0
    3.4559    1.5971    2.7244 H   0  0  0  0  0  0  0  0  0  0  0  0
    3.7551   -0.0276    3.4232 H   0  0  0  0  0  0  0  0  0  0  0  0
  1 30  1  0  0  0  0
  1 31  1  0  0  0  0
  2 22  1  1  0  0  0
  2  3  1  0  0  0  0
  3 10  1  1  0  0  0
  4  3  1  0  0  0  0
  4  5  1  0  0  0  0
  6  4  2  0  0  0  0
  7  9  2  0  0  0  0
  7  6  1  0  0  0  0
  8  7  1  0  0  0  0
  9  2  1  0  0  0  0
 10 13  1  0  0  0  0
 10 12  1  0  0  0  0
 11 10  1  0  0  0  0
 14  6  1  0  0  0  0
 14 15  1  0  0  0  0
 16 14  1  0  0  0  0
 17 14  1  0  0  0  0
 18 20  1  0  0  0  0
 18  9  1  0  0  0  0
 19 18  1  0  0  0  0
 21 18  1  0  0  0  0
 22 23  1  0  0  0  0
 23 24  1  0  0  0  0
 23 25  2  0  0  0  0
 25 26  1  0  0  0  0
 27 25  1  0  0  0  0
 27 28  1  0  0  0  0
 29 27  2  0  0  0  0
 30 22  2  0  0  0  0
 30 29  1  0  0  0  0
 31 33  1  0  0  0  0
 32 31  1  0  0  0  0
 34 31  1  0  0  0  0
 35 36  1  0  0  0  0
 35  1  1  0  0  0  0
 37 35  1  0  0  0  0
 38 35  1  0  0  0  0
 39 29  1  0  0  0  0
 39 46  1  0  0  0  0
 40 41  1  0  0  0  0
 40 39  2  0  0  0  0
 41 43  2  0  0  0  0
 42 41  1  0  0  0  0
 43 44  1  0  0  0  0
 44 46  2  0  0  0  0
 44 45  1  0  0  0  0
 46 55  1  0  0  0  0
 47 40  1  0  0  0  0
 48 47  1  0  0  0  0
 49 47  1  0  0  0  0
 50 47  1  0  0  0  0
 51 43  1  0  0  0  0
 51 53  1  0  0  0  0
 51 54  1  0  0  0  0
 52 51  1  0  0  0  0
 55 56  1  0  0  0  0
 55 57  1  0  0  0  0
 55 58  1  0  0  0  0
M  END
