2
q = 0.0, confidence = 0.976

 20 20  0  0  0  0  0  0  0  0999 V2000
    1.3584    0.7586   -0.7163 N   0  0  0  0  0  0  0  0  0  0  0  0
    0.0050    1.1511   -1.0703 C   0  0  0  0  0  3  0  0  0  0  0  0
   -0.2427    2.6435   -0.9371 C   0  0  0  0  0  0  0  0  0  0  0  0
    2.0352    1.3564    0.3076 C   0  0  0  0  0  3  0  0  0  0  0  0
    3.2857    0.9047    0.7189 C   0  0  0  0  0  0  0  0  0  0  0  0
    3.9161   -0.1793    0.0818 C   0  0  0  0  0  0  0  0  0  0  0  0
    3.2082   -0.7571   -0.9962 C   0  0  0  0  0  0  0  0  0  0  0  0
    1.9649   -0.2782   -1.3747 C   0  0  0  0  0  0  0  0  0  0  0  0
    5.2387   -0.7216    0.5377 C   0  0  0  0  0  0  0  0  0  0  0  0
   -0.1363    0.8325   -2.1175 H   0  0  0  0  0  0  0  0  0  0  0  0
    1.5146    2.1792    0.8106 H   0  0  0  0  0  0  0  0  0  0  0  0
    3.7698    1.4184    1.5622 H   0  0  0  0  0  0  0  0  0  0  0  0
    3.6326   -1.6013   -1.5589 H   0  0  0  0  0  0  0  0  0  0  0  0
    1.3808   -0.7230   -2.1914 H   0  0  0  0  0  0  0  0  0  0  0  0
    0.5444    3.2513   -1.4426 H   0  0  0  0  0  0  0  0  0  0  0  0
   -0.3288    2.9975    0.1097 H   0  0  0  0  0  0  0  0  0  0  0  0
   -1.2095    2.8812   -1.4193 H   0  0  0  0  0  0  0  0  0  0  0  0
    5.7922    0.0109    1.1554 H   0  0  0  0  0  0  0  0  0  0  0  0
    5.8760   -1.0152   -0.3200 H   0  0  0  0  0  0  0  0  0  0  0  0
    5.0877   -1.6330    1.1557 H   0  0  0  0  0  0  0  0  0  0  0  0
  1  4  1  0  0  0  0
  2  3  1  0  0  0  0
  2  1  1  0  0  0  0
  3 16  1  0  0  0  0
  4  5  1  0  0  0  0
  4 11  1  0  0  0  0
  5 12  1  0  0  0  0
  6  9  1  0  0  0  0
  6  5  2  0  0  0  0
  7  6  1  0  0  0  0
  8  7  2  0  0  0  0
  8  1  1  0  0  0  0
  9 18  1  0  0  0  0
  9 20  1  0  0  0  0
 10  2  1  0  0  0  0
 13  7  1  0  0  0  0
 14  8  1  0  0  0  0
 15  3  1  0  0  0  0
 17  3  1  0  0  0  0
 19  9  1  0  0  0  0
M  END
