4
q = -1.0

 34 36  0  0  0  0  0  0  0  0999 V2000
    1.1836   -0.1145   -0.5021 P   0  0  0  0  0  4  0  0  0  0  0  0
    0.3005   -0.1695   -2.2780 S   0  0  0  0  0  1  0  0  0  0  0  0
    0.6920    1.3429    0.5135 C   0  0  0  0  0  0  0  0  0  0  0  0
   -0.6883    1.5946    0.6877 C   0  0  0  0  0  3  0  0  0  0  0  0
   -1.0819    2.6963    1.4687 C   0  0  0  0  0  0  0  0  0  0  0  0
   -2.1496    2.9121    1.6276 H   0  0  0  0  0  0  0  0  0  0  0  0
   -0.1198    3.5413    2.0523 C   0  0  0  0  0  0  0  0  0  0  0  0
   -0.4454    4.4040    2.6537 H   0  0  0  0  0  0  0  0  0  0  0  0
    1.2463    3.2891    1.8663 C   0  0  0  0  0  0  0  0  0  0  0  0
    2.0003    3.9518    2.3171 H   0  0  0  0  0  0  0  0  0  0  0  0
    1.6554    2.1866    1.0987 C   0  0  0  0  0  0  0  0  0  0  0  0
    2.7268    1.9837    0.9510 H   0  0  0  0  0  0  0  0  0  0  0  0
    0.7541   -1.5525    0.5591 C   0  0  0  0  0  0  0  0  0  0  0  0
    0.7806   -1.4592    1.9662 C   0  0  0  0  0  0  0  0  0  0  0  0
    1.0398   -0.5061    2.4525 H   0  0  0  0  0  0  0  0  0  0  0  0
    0.4510   -2.5798    2.7435 C   0  0  0  0  0  0  0  0  0  0  0  0
    0.4641   -2.5060    3.8414 H   0  0  0  0  0  0  0  0  0  0  0  0
    0.0907   -3.7866    2.1220 C   0  0  0  0  0  0  0  0  0  0  0  0
   -0.1763   -4.6609    2.7348 H   0  0  0  0  0  0  0  0  0  0  0  0
    0.0536   -3.8742    0.7207 C   0  0  0  0  0  0  0  0  0  0  0  0
   -0.2449   -4.8145    0.2335 H   0  0  0  0  0  0  0  0  0  0  0  0
    0.3817   -2.7591   -0.0633 C   0  0  0  0  0  0  0  0  0  0  0  0
    0.3276   -2.7955   -1.1630 H   0  0  0  0  0  0  0  0  0  0  0  0
    3.0144   -0.0652   -0.6037 C   0  0  0  0  0  0  0  0  0  0  0  0
    3.8298   -0.6122    0.4069 C   0  0  0  0  0  0  0  0  0  0  0  0
    3.3763   -1.1187    1.2720 H   0  0  0  0  0  0  0  0  0  0  0  0
    5.2261   -0.5204    0.3006 C   0  0  0  0  0  0  0  0  0  0  0  0
    5.8623   -0.9536    1.0873 H   0  0  0  0  0  0  0  0  0  0  0  0
    5.8090    0.1132   -0.8085 C   0  0  0  0  0  0  0  0  0  0  0  0
    6.9045    0.1805   -0.8899 H   0  0  0  0  0  0  0  0  0  0  0  0
    4.9950    0.6509   -1.8193 C   0  0  0  0  0  0  0  0  0  0  0  0
    5.4503    1.1387   -2.6944 H   0  0  0  0  0  0  0  0  0  0  0  0
    3.5995    0.5595   -1.7223 C   0  0  0  0  0  0  0  0  0  0  0  0
    2.9452    0.9531   -2.5162 H   0  0  0  0  0  0  0  0  0  0  0  0
  1  3  1  0  0  0  0
  1 13  1  0  0  0  0
  2  1  1  0  0  0  0
  3  4  2  0  0  0  0
  3 11  1  0  0  0  0
  4  5  1  0  0  0  0
  5  6  1  0  0  0  0
  5  7  2  0  0  0  0
  7  8  1  0  0  0  0
  9  7  1  0  0  0  0
  9 10  1  0  0  0  0
 11  9  2  0  0  0  0
 12 11  1  0  0  0  0
 13 14  1  0  0  0  0
 14 15  1  0  0  0  0
 14 16  2  0  0  0  0
 16 17  1  0  0  0  0
 18 19  1  0  0  0  0
 18 16  1  0  0  0  0
 20 18  2  0  0  0  0
 21 20  1  0  0  0  0
 22 13  2  0  0  0  0
 22 20  1  0  0  0  0
 23 22  1  0  0  0  0
 24  1  1  0  0  0  0
 24 25  1  0  0  0  0
 25 26  1  0  0  0  0
 27 25  2  0  0  0  0
 27 28  1  0  0  0  0
 29 27  1  0  0  0  0
 30 29  1  0  0  0  0
 31 33  1  0  0  0  0
 31 29  2  0  0  0  0
 32 31  1  0  0  0  0
 33 24  2  0  0  0  0
 34 33  1  0  0  0  0
M  END
