1
q = 0.0, confidence = 1.0

 19 18  0  0  0  0  0  0  0  0999 V2000
    2.6636    1.6040    0.0046 C   0  0  0  0  0  2  0  0  0  0  0  0
    2.9740    0.3899    0.0045 C   0  0  0  0  0  2  0  0  0  0  0  0
    2.6333    3.0692    0.0063 C   0  0  0  0  0  0  0  0  0  0  0  0
    3.6747    3.4517    0.0247 H   0  0  0  0  0  0  0  0  0  0  0  0
    2.1046    3.4657    0.8958 H   0  0  0  0  0  0  0  0  0  0  0  0
    2.1359    3.4678   -0.9002 H   0  0  0  0  0  0  0  0  0  0  0  0
    3.6749   -0.9205    0.0018 C   0  0  0  0  0  0  0  0  0  0  0  0
    5.1893   -0.6066    0.0686 C   0  0  0  0  0  0  0  0  0  0  0  0
    5.5146   -0.0068   -0.8036 H   0  0  0  0  0  0  0  0  0  0  0  0
    5.7570   -1.5585    0.0652 H   0  0  0  0  0  0  0  0  0  0  0  0
    5.4450   -0.0543    0.9937 H   0  0  0  0  0  0  0  0  0  0  0  0
    3.3466   -1.6866   -1.2989 C   0  0  0  0  0  0  0  0  0  0  0  0
    2.2649   -1.9216   -1.3622 H   0  0  0  0  0  0  0  0  0  0  0  0
    3.9065   -2.6424   -1.3168 H   0  0  0  0  0  0  0  0  0  0  0  0
    3.6297   -1.1011   -2.1952 H   0  0  0  0  0  0  0  0  0  0  0  0
    3.2479   -1.7511    1.2320 C   0  0  0  0  0  0  0  0  0  0  0  0
    3.4550   -1.2105    2.1761 H   0  0  0  0  0  0  0  0  0  0  0  0
    3.8107   -2.7053    1.2478 H   0  0  0  0  0  0  0  0  0  0  0  0
    2.1659   -1.9908    1.1967 H   0  0  0  0  0  0  0  0  0  0  0  0
  1  3  1  0  0  0  0
  2  1  1  0  0  0  0
  3  4  1  0  0  0  0
  3  5  1  0  0  0  0
  6  3  1  0  0  0  0
  7  2  1  0  0  0  0
  7  8  1  0  0  0  0
  7 16  1  0  0  0  0
  8 11  1  0  0  0  0
  9  8  1  0  0  0  0
 10  8  1  0  0  0  0
 12  7  1  0  0  0  0
 13 12  1  0  0  0  0
 14 12  1  0  0  0  0
 15 12  1  0  0  0  0
 16 18  1  0  0  0  0
 16 17  1  0  0  0  0
 19 16  1  0  0  0  0
M  END
