1
q = 0.0, confidence = 0.834

 12 11  0  0  0  0  0  0  0  0999 V2000
    1.5420    1.8556   -0.3354 C   0  0  0  0  0  3  0  0  0  0  0  0
    2.6669    2.2885   -0.1397 O   0  0  0  0  0  0  0  0  0  0  0  0
    0.2674    2.5042   -0.6902 C   0  0  0  0  0  0  0  0  0  0  0  0
   -0.4946    1.8348   -1.6721 C   0  0  0  0  0  0  0  0  0  0  0  0
   -0.0172    0.6692   -2.3337 C   0  0  0  0  0  3  0  0  0  0  0  0
   -0.2272    3.7268    0.0328 C   0  0  0  0  0  0  0  0  0  0  0  0
   -1.3307    3.7216    0.1385 H   0  0  0  0  0  0  0  0  0  0  0  0
    0.0643    4.6339   -0.5380 H   0  0  0  0  0  0  0  0  0  0  0  0
   -1.5575    2.1123   -1.7667 H   0  0  0  0  0  0  0  0  0  0  0  0
    0.2272    3.8140    1.0378 H   0  0  0  0  0  0  0  0  0  0  0  0
   -0.7447    0.0841   -2.9166 H   0  0  0  0  0  0  0  0  0  0  0  0
    1.0275    0.6331   -2.6772 H   0  0  0  0  0  0  0  0  0  0  0  0
  1  2  2  0  0  0  0
  3  1  1  0  0  0  0
  3  6  1  0  0  0  0
  4  3  2  0  0  0  0
  5  4  1  0  0  0  0
  6  7  1  0  0  0  0
  6 10  1  0  0  0  0
  8  6  1  0  0  0  0
  9  4  1  0  0  0  0
 11  5  1  0  0  0  0
 12  5  1  0  0  0  0
M  END
