1
q = -1.0

 22 22  0  0  1  0  0  0  0  0999 V2000
   -1.3671   -0.8497    1.2025 C   0  0  0  0  0  3  0  0  0  0  0  0
   -0.8747   -0.9790    2.1908 H   0  0  0  0  0  0  0  0  0  0  0  0
   -1.6141    0.2345    1.1242 H   0  0  0  0  0  0  0  0  0  0  0  0
   -2.5587   -1.6954    1.1904 N   0  0  0  0  0  0  0  0  0  0  0  0
   -3.0397   -1.6730    2.1001 H   0  0  0  0  0  0  0  0  0  0  0  0
   -3.5157   -1.4384    0.1206 C   0  0  1  0  0  0  0  0  0  0  0  0
   -2.9743   -1.6180   -0.8334 H   0  0  0  0  0  0  0  0  0  0  0  0
   -4.6702   -2.4440    0.2145 C   0  0  0  0  0  0  0  0  0  0  0  0
   -4.2746   -3.4793    0.2076 H   0  0  0  0  0  0  0  0  0  0  0  0
   -5.3785   -2.3199   -0.6278 H   0  0  0  0  0  0  0  0  0  0  0  0
   -5.2444   -2.2985    1.1546 H   0  0  0  0  0  0  0  0  0  0  0  0
   -4.0576   -0.0058    0.0542 C   0  0  0  0  0  0  0  0  0  0  0  0
   -4.1286    0.6805   -1.1735 C   0  0  0  0  0  0  0  0  0  0  0  0
   -3.7239    0.2015   -2.0787 H   0  0  0  0  0  0  0  0  0  0  0  0
   -4.6812    1.9694   -1.2482 C   0  0  0  0  0  0  0  0  0  0  0  0
   -4.7291    2.4877   -2.2187 H   0  0  0  0  0  0  0  0  0  0  0  0
   -5.1635    2.5984   -0.0892 C   0  0  0  0  0  0  0  0  0  0  0  0
   -5.5983    3.6084   -0.1450 H   0  0  0  0  0  0  0  0  0  0  0  0
   -5.0745    1.9342    1.1456 C   0  0  0  0  0  0  0  0  0  0  0  0
   -5.4354    2.4252    2.0627 H   0  0  0  0  0  0  0  0  0  0  0  0
   -4.5261    0.6455    1.2123 C   0  0  0  0  0  0  0  0  0  0  0  0
   -4.4539    0.1349    2.1869 H   0  0  0  0  0  0  0  0  0  0  0  0
  1  2  1  0  0  0  0
  3  1  1  0  0  0  0
  4  1  1  0  0  0  0
  4  5  1  0  0  0  0
  6  7  1  6  0  0  0
  6  8  1  0  0  0  0
  6  4  1  0  0  0  0
  8 11  1  0  0  0  0
  9  8  1  0  0  0  0
 10  8  1  0  0  0  0
 12  6  1  0  0  0  0
 12 21  1  0  0  0  0
 13 12  2  0  0  0  0
 14 13  1  0  0  0  0
 15 13  1  0  0  0  0
 15 17  2  0  0  0  0
 16 15  1  0  0  0  0
 17 19  1  0  0  0  0
 18 17  1  0  0  0  0
 19 21  2  0  0  0  0
 19 20  1  0  0  0  0
 21 22  1  0  0  0  0
M  END
