2
q = -1.0

 32 33  0  0  0  0  0  0  0  0999 V2000
   -2.3927   -0.2472    0.8347 N   0  0  0  0  0  0  0  0  0  0  0  0
   -0.9720    0.0814    0.8946 C   0  0  0  0  0  3  0  0  0  0  0  0
   -0.4738   -0.4882    1.7168 H   0  0  0  0  0  0  0  0  0  0  0  0
   -0.8842    1.1497    1.1771 H   0  0  0  0  0  0  0  0  0  0  0  0
   -3.2299    0.5816    1.7021 C   0  0  0  0  0  0  0  0  0  0  0  0
   -2.8612    0.5861    2.7625 H   0  0  0  0  0  0  0  0  0  0  0  0
   -4.2447    0.1316    1.7184 H   0  0  0  0  0  0  0  0  0  0  0  0
   -3.3354    2.0006    1.1883 C   0  0  0  0  0  0  0  0  0  0  0  0
   -4.0768    2.2621    0.0176 C   0  0  0  0  0  0  0  0  0  0  0  0
   -4.6022    1.4277   -0.4738 H   0  0  0  0  0  0  0  0  0  0  0  0
   -4.1384    3.5553   -0.5186 C   0  0  0  0  0  0  0  0  0  0  0  0
   -4.7228    3.7439   -1.4324 H   0  0  0  0  0  0  0  0  0  0  0  0
   -3.4487    4.6108    0.1041 C   0  0  0  0  0  0  0  0  0  0  0  0
   -3.4897    5.6252   -0.3211 H   0  0  0  0  0  0  0  0  0  0  0  0
   -2.7114    4.3646    1.2724 C   0  0  0  0  0  0  0  0  0  0  0  0
   -2.1716    5.1864    1.7677 H   0  0  0  0  0  0  0  0  0  0  0  0
   -2.6604    3.0671    1.8108 C   0  0  0  0  0  0  0  0  0  0  0  0
   -2.0834    2.8723    2.7293 H   0  0  0  0  0  0  0  0  0  0  0  0
   -2.6675   -1.6701    0.9811 C   0  0  0  0  0  0  0  0  0  0  0  0
   -2.5387   -2.0205    2.0405 H   0  0  0  0  0  0  0  0  0  0  0  0
   -1.9084   -2.2126    0.3826 H   0  0  0  0  0  0  0  0  0  0  0  0
   -4.0458   -2.0477    0.4828 C   0  0  0  0  0  0  0  0  0  0  0  0
   -4.9829   -2.6945    1.3082 C   0  0  0  0  0  0  0  0  0  0  0  0
   -4.7069   -2.9327    2.3482 H   0  0  0  0  0  0  0  0  0  0  0  0
   -6.2582   -3.0321    0.8240 C   0  0  0  0  0  0  0  0  0  0  0  0
   -6.9802   -3.5354    1.4854 H   0  0  0  0  0  0  0  0  0  0  0  0
   -6.6126   -2.7218   -0.4971 C   0  0  0  0  0  0  0  0  0  0  0  0
   -7.6117   -2.9828   -0.8784 H   0  0  0  0  0  0  0  0  0  0  0  0
   -5.6838   -2.0754   -1.3320 C   0  0  0  0  0  0  0  0  0  0  0  0
   -5.9535   -1.8354   -2.3723 H   0  0  0  0  0  0  0  0  0  0  0  0
   -4.4134   -1.7414   -0.8444 C   0  0  0  0  0  0  0  0  0  0  0  0
   -3.6772   -1.2371   -1.4887 H   0  0  0  0  0  0  0  0  0  0  0  0
  1  2  1  0  0  0  0
  1 19  1  0  0  0  0
  1  5  1  0  0  0  0
  2  4  1  0  0  0  0
  2  3  1  0  0  0  0
  5  7  1  0  0  0  0
  5  6  1  0  0  0  0
  8  5  1  0  0  0  0
  8 17  1  0  0  0  0
  9  8  2  0  0  0  0
 10  9  1  0  0  0  0
 11  9  1  0  0  0  0
 11 13  2  0  0  0  0
 12 11  1  0  0  0  0
 13 15  1  0  0  0  0
 14 13  1  0  0  0  0
 15 16  1  0  0  0  0
 15 17  2  0  0  0  0
 17 18  1  0  0  0  0
 19 20  1  0  0  0  0
 21 19  1  0  0  0  0
 22 19  1  0  0  0  0
 22 23  1  0  0  0  0
 23 24  1  0  0  0  0
 25 23  2  0  0  0  0
 25 26  1  0  0  0  0
 27 25  1  0  0  0  0
 28 27  1  0  0  0  0
 29 31  1  0  0  0  0
 29 27  2  0  0  0  0
 30 29  1  0  0  0  0
 31 22  2  0  0  0  0
 32 31  1  0  0  0  0
M  END
