4
q = -1.0

 45 46  0  0  0  0  0  0  0  0999 V2000
   -2.7257   -0.4696    1.1581 Si  0  0  0  0  0  0  0  0  0  0  0  0
   -1.9429   -1.6410    0.2235 O   0  0  0  0  0  0  0  0  0  0  0  0
   -4.2133    0.0600    0.3062 N   0  0  0  0  0  0  0  0  0  0  0  0
    2.2386   -1.1205   -0.9086 C   0  0  0  0  0  3  0  0  0  0  0  0
    0.7621   -0.7800   -0.7652 C   0  0  0  0  0  0  0  0  0  0  0  0
   -0.1837   -1.7816   -1.4397 C   0  0  0  0  0  0  0  0  0  0  0  0
   -1.6545   -1.4825   -1.1631 C   0  0  0  0  0  0  0  0  0  0  0  0
   -1.6406    1.0419    1.3931 C   0  0  0  0  0  0  0  0  0  0  0  0
   -3.1314   -1.3350    2.7687 C   0  0  0  0  0  0  0  0  0  0  0  0
   -4.3915    1.4548    0.0382 C   0  0  0  0  0  0  0  0  0  0  0  0
   -4.7603    2.3430    1.0673 C   0  0  0  0  0  0  0  0  0  0  0  0
   -4.8936    3.7158    0.8072 C   0  0  0  0  0  0  0  0  0  0  0  0
   -4.6757    4.2122   -0.4874 C   0  0  0  0  0  0  0  0  0  0  0  0
   -4.3248    3.3286   -1.5222 C   0  0  0  0  0  0  0  0  0  0  0  0
   -4.1828    1.9585   -1.2617 C   0  0  0  0  0  0  0  0  0  0  0  0
   -5.2462   -0.8223   -0.0797 C   0  0  0  0  0  0  0  0  0  0  0  0
   -6.5271   -0.3358   -0.4437 C   0  0  0  0  0  0  0  0  0  0  0  0
   -7.5520   -1.2192   -0.8070 C   0  0  0  0  0  0  0  0  0  0  0  0
   -7.3419   -2.6068   -0.8142 C   0  0  0  0  0  0  0  0  0  0  0  0
   -6.0750   -3.0966   -0.4581 C   0  0  0  0  0  0  0  0  0  0  0  0
   -5.0368   -2.2263   -0.1032 C   0  0  0  0  0  0  0  0  0  0  0  0
    2.5184   -1.1695   -1.9834 H   0  0  0  0  0  0  0  0  0  0  0  0
    2.4285   -2.1219   -0.4663 H   0  0  0  0  0  0  0  0  0  0  0  0
    0.4870   -0.7355    0.3085 H   0  0  0  0  0  0  0  0  0  0  0  0
    0.5515    0.2348   -1.1718 H   0  0  0  0  0  0  0  0  0  0  0  0
   -0.0225   -1.7892   -2.5407 H   0  0  0  0  0  0  0  0  0  0  0  0
    0.0377   -2.8109   -1.0805 H   0  0  0  0  0  0  0  0  0  0  0  0
   -2.3091   -2.1748   -1.7407 H   0  0  0  0  0  0  0  0  0  0  0  0
   -1.9000   -0.4500   -1.5101 H   0  0  0  0  0  0  0  0  0  0  0  0
   -1.3870    1.5177    0.4249 H   0  0  0  0  0  0  0  0  0  0  0  0
   -2.1292    1.8086    2.0256 H   0  0  0  0  0  0  0  0  0  0  0  0
   -0.6949    0.7340    1.8840 H   0  0  0  0  0  0  0  0  0  0  0  0
   -2.2303   -1.8416    3.1694 H   0  0  0  0  0  0  0  0  0  0  0  0
   -3.4833   -0.6013    3.5217 H   0  0  0  0  0  0  0  0  0  0  0  0
   -3.9246   -2.0950    2.6285 H   0  0  0  0  0  0  0  0  0  0  0  0
   -4.9430    1.9390    2.0746 H   0  0  0  0  0  0  0  0  0  0  0  0
   -5.1743    4.4014    1.6213 H   0  0  0  0  0  0  0  0  0  0  0  0
   -4.7799    5.2885   -0.6916 H   0  0  0  0  0  0  0  0  0  0  0  0
   -4.1517    3.7119   -2.5394 H   0  0  0  0  0  0  0  0  0  0  0  0
   -3.9049    1.2560   -2.0618 H   0  0  0  0  0  0  0  0  0  0  0  0
   -6.7176    0.7462   -0.4343 H   0  0  0  0  0  0  0  0  0  0  0  0
   -8.5360   -0.8094   -1.0837 H   0  0  0  0  0  0  0  0  0  0  0  0
   -8.1509   -3.2958   -1.0980 H   0  0  0  0  0  0  0  0  0  0  0  0
   -5.8804   -4.1806   -0.4673 H   0  0  0  0  0  0  0  0  0  0  0  0
   -4.0431   -2.6319    0.1357 H   0  0  0  0  0  0  0  0  0  0  0  0
  1  8  1  0  0  0  0
  1  9  1  0  0  0  0
  2  1  1  0  0  0  0
  3  1  1  0  0  0  0
  4  5  1  0  0  0  0
  4 23  1  0  0  0  0
  5 24  1  0  0  0  0
  6  7  1  0  0  0  0
  6 27  1  0  0  0  0
  6  5  1  0  0  0  0
  7  2  1  0  0  0  0
  8 32  1  0  0  0  0
  8 31  1  0  0  0  0
  9 33  1  0  0  0  0
  9 34  1  0  0  0  0
 10  3  1  0  0  0  0
 10 11  1  0  0  0  0
 11 36  1  0  0  0  0
 12 11  2  0  0  0  0
 12 37  1  0  0  0  0
 13 12  1  0  0  0  0
 14 15  1  0  0  0  0
 14 13  2  0  0  0  0
 15 10  2  0  0  0  0
 16  3  1  0  0  0  0
 17 41  1  0  0  0  0
 17 16  2  0  0  0  0
 18 17  1  0  0  0  0
 19 18  2  0  0  0  0
 19 20  1  0  0  0  0
 20 21  2  0  0  0  0
 21 16  1  0  0  0  0
 21 45  1  0  0  0  0
 22  4  1  0  0  0  0
 25  5  1  0  0  0  0
 26  6  1  0  0  0  0
 28  7  1  0  0  0  0
 29  7  1  0  0  0  0
 30  8  1  0  0  0  0
 35  9  1  0  0  0  0
 38 13  1  0  0  0  0
 39 14  1  0  0  0  0
 40 15  1  0  0  0  0
 42 18  1  0  0  0  0
 43 19  1  0  0  0  0
 44 20  1  0  0  0  0
M  END
