2
q = -1.0

 40 43  0  0  0  0  0  0  0  0999 V2000
    0.3530    0.2702   -0.3012 C   0  0  0  0  0  0  0  0  0  0  0  0
    0.8526    1.3390    0.5321 C   0  0  0  0  0  3  0  0  0  0  0  0
    1.7330    2.1600   -0.2447 C   0  0  0  0  0  0  0  0  0  0  0  0
    1.7970    1.6017   -1.5574 C   0  0  0  0  0  0  0  0  0  0  0  0
    0.9705    0.4340   -1.5925 C   0  0  0  0  0  0  0  0  0  0  0  0
   -0.7691   -0.7084    0.0311 C   0  0  0  0  0  0  0  0  0  0  0  0
   -1.0915   -0.6816    1.5335 C   0  0  0  0  0  0  0  0  0  0  0  0
   -0.3674   -2.1373   -0.3759 C   0  0  0  0  0  0  0  0  0  0  0  0
   -2.0509   -0.2495   -0.8055 C   0  0  0  0  0  0  0  0  0  0  0  0
   -2.5102    1.1629   -0.4620 C   0  0  0  0  0  0  0  0  0  0  0  0
   -1.8830    2.3949   -0.6844 C   0  0  0  0  0  0  0  0  0  0  0  0
   -2.5037    3.5740   -0.2296 C   0  0  0  0  0  0  0  0  0  0  0  0
   -3.7403    3.5252    0.4379 C   0  0  0  0  0  0  0  0  0  0  0  0
   -4.3932    2.2980    0.6352 C   0  0  0  0  0  0  0  0  0  0  0  0
   -3.7799    1.1225    0.1734 C   0  0  0  0  0  0  0  0  0  0  0  0
   -4.2681   -0.2617    0.1496 C   0  0  0  0  0  0  0  0  0  0  0  0
   -5.4906   -0.8032    0.5774 C   0  0  0  0  0  0  0  0  0  0  0  0
   -5.7548   -2.1602    0.3331 C   0  0  0  0  0  0  0  0  0  0  0  0
   -4.8179   -2.9552   -0.3500 C   0  0  0  0  0  0  0  0  0  0  0  0
   -3.5879   -2.4148   -0.7716 C   0  0  0  0  0  0  0  0  0  0  0  0
   -3.2969   -1.0724   -0.4978 C   0  0  0  0  0  0  0  0  0  0  0  0
    0.5651    1.5231    1.5725 H   0  0  0  0  0  0  0  0  0  0  0  0
    2.2549    3.0599    0.1015 H   0  0  0  0  0  0  0  0  0  0  0  0
    2.3951    1.9870   -2.3910 H   0  0  0  0  0  0  0  0  0  0  0  0
    0.8056   -0.1992   -2.4725 H   0  0  0  0  0  0  0  0  0  0  0  0
   -1.8897   -1.4127    1.7652 H   0  0  0  0  0  0  0  0  0  0  0  0
   -1.4464    0.3150    1.8608 H   0  0  0  0  0  0  0  0  0  0  0  0
   -0.2003   -0.9519    2.1317 H   0  0  0  0  0  0  0  0  0  0  0  0
   -1.1595   -2.8597   -0.1076 H   0  0  0  0  0  0  0  0  0  0  0  0
    0.5544   -2.4358    0.1577 H   0  0  0  0  0  0  0  0  0  0  0  0
   -0.1721   -2.2234   -1.4639 H   0  0  0  0  0  0  0  0  0  0  0  0
   -1.7751   -0.3317   -1.8793 H   0  0  0  0  0  0  0  0  0  0  0  0
   -0.9271    2.4544   -1.2219 H   0  0  0  0  0  0  0  0  0  0  0  0
   -2.0162    4.5450   -0.4051 H   0  0  0  0  0  0  0  0  0  0  0  0
   -4.2080    4.4569    0.7907 H   0  0  0  0  0  0  0  0  0  0  0  0
   -5.3764    2.2615    1.1286 H   0  0  0  0  0  0  0  0  0  0  0  0
   -6.2382   -0.1709    1.0803 H   0  0  0  0  0  0  0  0  0  0  0  0
   -6.7094   -2.5998    0.6597 H   0  0  0  0  0  0  0  0  0  0  0  0
   -5.0497   -4.0092   -0.5656 H   0  0  0  0  0  0  0  0  0  0  0  0
   -2.8801   -3.0462   -1.3273 H   0  0  0  0  0  0  0  0  0  0  0  0
  1  6  1  0  0  0  0
  1  2  1  0  0  0  0
  2 22  1  0  0  0  0
  3 23  1  0  0  0  0
  3  2  1  0  0  0  0
  4  3  2  0  0  0  0
  5  4  1  0  0  0  0
  5  1  2  0  0  0  0
  6  7  1  0  0  0  0
  7 26  1  0  0  0  0
  7 27  1  0  0  0  0
  7 28  1  0  0  0  0
  8 29  1  0  0  0  0
  8  6  1  0  0  0  0
  8 30  1  0  0  0  0
  9 21  1  0  0  0  0
  9 10  1  0  0  0  0
  9  6  1  0  0  0  0
 10 15  1  0  0  0  0
 11 10  2  0  0  0  0
 11 12  1  0  0  0  0
 12 13  2  0  0  0  0
 13 14  1  0  0  0  0
 13 35  1  0  0  0  0
 14 36  1  0  0  0  0
 15 14  2  0  0  0  0
 16 15  1  0  0  0  0
 16 17  1  0  0  0  0
 17 37  1  0  0  0  0
 18 17  2  0  0  0  0
 18 38  1  0  0  0  0
 19 18  1  0  0  0  0
 20 21  1  0  0  0  0
 20 19  2  0  0  0  0
 21 16  2  0  0  0  0
 24  4  1  0  0  0  0
 25  5  1  0  0  0  0
 31  8  1  0  0  0  0
 32  9  1  0  0  0  0
 33 11  1  0  0  0  0
 34 12  1  0  0  0  0
 39 19  1  0  0  0  0
 40 20  1  0  0  0  0
M  END
