4
q = 0.0, confidence = 0.95

 24 25  0  0  0  0  0  0  0  0999 V2000
    6.0390    4.8091    0.1718 Br  0  0  0  0  0  0  0  0  0  0  0  0
   -5.9230    5.0365    0.4321 Br  0  0  0  0  0  0  0  0  0  0  0  0
   -0.6709    1.8068    0.0918 C   0  0  0  0  0  3  0  0  0  0  0  0
    0.6522    1.7927    0.1264 C   0  0  0  0  0  3  0  0  0  0  0  0
    1.9009    2.5168    0.1634 C   0  0  0  0  0  0  0  0  0  0  0  0
    3.1200    1.8300    0.3901 C   0  0  0  0  0  0  0  0  0  0  0  0
    3.0867    0.7436    0.5527 H   0  0  0  0  0  0  0  0  0  0  0  0
    4.3469    2.4994    0.3992 C   0  0  0  0  0  0  0  0  0  0  0  0
    5.2815    1.9469    0.5709 H   0  0  0  0  0  0  0  0  0  0  0  0
    4.3725    3.8859    0.1735 C   0  0  0  0  0  0  0  0  0  0  0  0
    3.1841    4.6001   -0.0577 C   0  0  0  0  0  0  0  0  0  0  0  0
    3.2195    5.6837   -0.2394 H   0  0  0  0  0  0  0  0  0  0  0  0
    1.9632    3.9174   -0.0602 C   0  0  0  0  0  0  0  0  0  0  0  0
    1.0358    4.4726   -0.2629 H   0  0  0  0  0  0  0  0  0  0  0  0
   -1.8908    2.5745    0.1784 C   0  0  0  0  0  0  0  0  0  0  0  0
   -3.1483    1.9435    0.0055 C   0  0  0  0  0  0  0  0  0  0  0  0
   -3.1674    0.8628   -0.1947 H   0  0  0  0  0  0  0  0  0  0  0  0
   -4.3448    2.6634    0.0743 C   0  0  0  0  0  0  0  0  0  0  0  0
   -5.3097    2.1577   -0.0728 H   0  0  0  0  0  0  0  0  0  0  0  0
   -4.3005    4.0434    0.3345 C   0  0  0  0  0  0  0  0  0  0  0  0
   -3.0725    4.7002    0.5272 C   0  0  0  0  0  0  0  0  0  0  0  0
   -3.0527    5.7787    0.7390 H   0  0  0  0  0  0  0  0  0  0  0  0
   -1.8832    3.9688    0.4468 C   0  0  0  0  0  0  0  0  0  0  0  0
   -0.9236    4.4808    0.6081 H   0  0  0  0  0  0  0  0  0  0  0  0
  1 10  1  0  0  0  0
  3  4  2  0  0  0  0
  3 15  1  0  0  0  0
  4  5  1  0  0  0  0
  5  6  1  0  0  0  0
  6  8  2  0  0  0  0
  6  7  1  0  0  0  0
  8  9  1  0  0  0  0
 10  8  1  0  0  0  0
 11 10  2  0  0  0  0
 12 11  1  0  0  0  0
 13 11  1  0  0  0  0
 13  5  2  0  0  0  0
 14 13  1  0  0  0  0
 15 23  1  0  0  0  0
 16 18  1  0  0  0  0
 16 15  2  0  0  0  0
 17 16  1  0  0  0  0
 18 20  2  0  0  0  0
 19 18  1  0  0  0  0
 20  2  1  0  0  0  0
 20 21  1  0  0  0  0
 21 22  1  0  0  0  0
 23 21  2  0  0  0  0
 23 24  1  0  0  0  0
M  END
