2
q = -1.0

 18 18  0  0  0  0  0  0  0  0999 V2000
   -2.8943   -2.3507    0.8771 O   0  0  0  0  0  0  0  0  0  0  0  0
   -1.3244    0.5833   -0.4711 C   0  0  0  0  0  3  0  0  0  0  0  0
   -2.2916    0.4897    0.5586 C   0  0  0  0  0  0  0  0  0  0  0  0
   -3.5607    1.0692    0.3437 C   0  0  0  0  0  0  0  0  0  0  0  0
   -3.8845    1.7040   -0.8632 C   0  0  0  0  0  0  0  0  0  0  0  0
   -2.9367    1.7498   -1.8973 C   0  0  0  0  0  0  0  0  0  0  0  0
   -1.6650    1.1837   -1.7006 C   0  0  0  0  0  0  0  0  0  0  0  0
   -2.0079   -0.2528    1.8478 C   0  0  0  0  0  0  0  0  0  0  0  0
   -2.8563   -1.5305    2.0136 C   0  0  0  0  0  0  0  0  0  0  0  0
   -1.9903   -2.4006    0.4890 H   0  0  0  0  0  0  0  0  0  0  0  0
   -4.3164    1.0073    1.1446 H   0  0  0  0  0  0  0  0  0  0  0  0
   -4.8827    2.1461   -1.0036 H   0  0  0  0  0  0  0  0  0  0  0  0
   -3.1863    2.2181   -2.8626 H   0  0  0  0  0  0  0  0  0  0  0  0
   -0.9317    1.2028   -2.5232 H   0  0  0  0  0  0  0  0  0  0  0  0
   -2.1892    0.4004    2.7315 H   0  0  0  0  0  0  0  0  0  0  0  0
   -0.9293   -0.5254    1.8614 H   0  0  0  0  0  0  0  0  0  0  0  0
   -2.4844   -2.0690    2.9261 H   0  0  0  0  0  0  0  0  0  0  0  0
   -3.9100   -1.2460    2.2357 H   0  0  0  0  0  0  0  0  0  0  0  0
  1  9  1  0  0  0  0
  2  3  1  0  0  0  0
  3  8  1  0  0  0  0
  4  3  2  0  0  0  0
  4 11  1  0  0  0  0
  5  4  1  0  0  0  0
  6  7  1  0  0  0  0
  6  5  2  0  0  0  0
  7  2  2  0  0  0  0
  8 16  1  0  0  0  0
  8  9  1  0  0  0  0
  8 15  1  0  0  0  0
  9 18  1  0  0  0  0
  9 17  1  0  0  0  0
 10  1  1  0  0  0  0
 12  5  1  0  0  0  0
 13  6  1  0  0  0  0
 14  7  1  0  0  0  0
M  END
