4
q = -1.0

 28 28  0  0  1  0  0  0  0  0999 V2000
    0.6719    0.2261    0.0005 C   0  0  0  0  0  0  0  0  0  0  0  0
   -0.2207   -0.0838   -1.1889 C   0  0  0  0  0  3  0  0  0  0  0  0
   -0.9585   -1.2891   -1.2222 C   0  0  0  0  0  3  0  0  0  0  0  0
   -1.3296   -1.9373   -0.0006 C   0  0  0  0  0  3  0  0  0  0  0  0
   -0.9589   -1.2901    1.2215 C   0  0  0  0  0  3  0  0  0  0  0  0
   -0.2211   -0.0846    1.1894 C   0  0  0  0  0  3  0  0  0  0  0  0
    2.0417   -0.4633    0.0003 C   0  0  1  0  0  3  0  0  0  0  0  0
    2.0659   -1.7654    0.0002 N   0  0  0  0  0  2  0  0  0  0  0  0
    2.0946   -2.9194    0.0003 N   0  0  0  0  0  1  0  0  0  0  0  0
    3.6690    0.4933    0.0000 Si  0  0  0  0  0  0  0  0  0  0  0  0
    5.0856   -0.7535   -0.0005 C   0  0  0  0  0  0  0  0  0  0  0  0
    3.7175    1.5876    1.5430 C   0  0  0  0  0  0  0  0  0  0  0  0
    3.7166    1.5879   -1.5428 C   0  0  0  0  0  0  0  0  0  0  0  0
    0.8826    1.3136    0.0009 H   0  0  0  0  0  0  0  0  0  0  0  0
   -0.0604    0.4577   -2.1335 H   0  0  0  0  0  0  0  0  0  0  0  0
   -1.3580   -1.6713   -2.1741 H   0  0  0  0  0  0  0  0  0  0  0  0
   -1.9192   -2.8628   -0.0011 H   0  0  0  0  0  0  0  0  0  0  0  0
   -1.3586   -1.6731    2.1730 H   0  0  0  0  0  0  0  0  0  0  0  0
   -0.0610    0.4560    2.1345 H   0  0  0  0  0  0  0  0  0  0  0  0
    6.0630   -0.2289   -0.0003 H   0  0  0  0  0  0  0  0  0  0  0  0
    5.0509   -1.4046   -0.8977 H   0  0  0  0  0  0  0  0  0  0  0  0
    5.0510   -1.4053    0.8963 H   0  0  0  0  0  0  0  0  0  0  0  0
    4.6321    2.2165    1.5517 H   0  0  0  0  0  0  0  0  0  0  0  0
    3.7099    0.9740    2.4664 H   0  0  0  0  0  0  0  0  0  0  0  0
    2.8431    2.2698    1.5791 H   0  0  0  0  0  0  0  0  0  0  0  0
    4.6313    2.2167   -1.5520 H   0  0  0  0  0  0  0  0  0  0  0  0
    2.8423    2.2701   -1.5784 H   0  0  0  0  0  0  0  0  0  0  0  0
    3.7085    0.9744   -2.4663 H   0  0  0  0  0  0  0  0  0  0  0  0
  1 14  1  0  0  0  0
  1  6  1  0  0  0  0
  2  1  1  0  0  0  0
  3  2  1  0  0  0  0
  3  4  1  0  0  0  0
  4  5  1  0  0  0  0
  5 18  1  0  0  0  0
  6  5  1  0  0  0  0
  6 19  1  0  0  0  0
  7  8  1  6  0  0  0
  7  1  1  0  0  0  0
  8  9  1  0  0  0  0
 10  7  1  0  0  0  0
 10 12  1  0  0  0  0
 11 20  1  0  0  0  0
 11 10  1  0  0  0  0
 11 22  1  0  0  0  0
 12 23  1  0  0  0  0
 12 25  1  0  0  0  0
 12 24  1  0  0  0  0
 13 10  1  0  0  0  0
 15  2  1  0  0  0  0
 16  3  1  0  0  0  0
 17  4  1  0  0  0  0
 21 11  1  0  0  0  0
 26 13  1  0  0  0  0
 27 13  1  0  0  0  0
 28 13  1  0  0  0  0
M  END
