6
q = 0.0, confidence = 0.964

 18 18  0  0  0  0  0  0  0  0999 V2000
    2.9553    1.5377   -0.7710 C   0  0  0  0  0  0  0  0  0  0  0  0
    2.3794    0.4533   -1.4783 C   0  0  0  0  0  0  0  0  0  0  0  0
    2.6116   -0.9004   -1.0710 C   0  0  0  0  0  3  0  0  0  0  0  0
    3.3778   -1.1970    0.0855 C   0  0  0  0  0  0  0  0  0  0  0  0
    3.8941   -0.1046    0.8518 C   0  0  0  0  0  0  0  0  0  0  0  0
    3.6775    1.2325    0.4330 C   0  0  0  0  0  3  0  0  0  0  0  0
    2.8215    2.9632   -1.2328 C   0  0  0  0  0  0  0  0  0  0  0  0
    3.6543   -2.6111    0.5211 C   0  0  0  0  0  0  0  0  0  0  0  0
    1.7611    0.6463   -2.3673 H   0  0  0  0  0  0  0  0  0  0  0  0
    2.1658   -1.7154   -1.6549 H   0  0  0  0  0  0  0  0  0  0  0  0
    4.4381   -0.3007    1.7865 H   0  0  0  0  0  0  0  0  0  0  0  0
    4.0644    2.0581    1.0481 H   0  0  0  0  0  0  0  0  0  0  0  0
    2.0140    3.0775   -1.9805 H   0  0  0  0  0  0  0  0  0  0  0  0
    3.7688    3.3017   -1.7044 H   0  0  0  0  0  0  0  0  0  0  0  0
    2.6133    3.6473   -0.3855 H   0  0  0  0  0  0  0  0  0  0  0  0
    3.0608   -3.3410   -0.0581 H   0  0  0  0  0  0  0  0  0  0  0  0
    3.4244   -2.7535    1.5957 H   0  0  0  0  0  0  0  0  0  0  0  0
    4.7283   -2.8507    0.3734 H   0  0  0  0  0  0  0  0  0  0  0  0
  1  6  1  0  0  0  0
  2  3  1  0  0  0  0
  2  1  2  0  0  0  0
  3  4  1  0  0  0  0
  4  8  1  0  0  0  0
  4  5  2  0  0  0  0
  5 11  1  0  0  0  0
  6  5  1  0  0  0  0
  6 12  1  0  0  0  0
  7  1  1  0  0  0  0
  7 15  1  0  0  0  0
  8 17  1  0  0  0  0
  9  2  1  0  0  0  0
 10  3  1  0  0  0  0
 13  7  1  0  0  0  0
 14  7  1  0  0  0  0
 16  8  1  0  0  0  0
 18  8  1  0  0  0  0
M  END
