19
q = -1.0

 23 24  0  0  0  0  0  0  0  0999 V2000
    0.3880   -2.4851   -1.1956 C   0  0  0  0  0  3  0  0  0  0  0  0
    0.8177   -3.1696   -1.9371 H   0  0  0  0  0  0  0  0  0  0  0  0
   -2.7348    0.6695   -0.1554 C   0  0  0  0  0  0  0  0  0  0  0  0
   -0.5981   -0.5994   -0.2408 C   0  0  0  0  0  0  0  0  0  0  0  0
   -1.2196    0.7621   -0.0821 C   0  0  0  0  0  0  0  0  0  0  0  0
   -0.8311    1.4367   -0.8717 H   0  0  0  0  0  0  0  0  0  0  0  0
   -0.9285    1.2000    0.8941 H   0  0  0  0  0  0  0  0  0  0  0  0
   -3.5154    0.7164    1.0148 C   0  0  0  0  0  0  0  0  0  0  0  0
   -3.0299    0.8648    1.9928 H   0  0  0  0  0  0  0  0  0  0  0  0
   -4.7758    0.3612   -1.4666 C   0  0  0  0  0  0  0  0  0  0  0  0
   -5.2753    0.2267   -2.4362 H   0  0  0  0  0  0  0  0  0  0  0  0
   -3.3831    0.4880   -1.3928 C   0  0  0  0  0  0  0  0  0  0  0  0
   -2.7933    0.4486   -2.3226 H   0  0  0  0  0  0  0  0  0  0  0  0
    0.0226   -1.1157   -1.4184 C   0  0  0  0  0  0  0  0  0  0  0  0
    0.1914   -0.5460   -2.3419 H   0  0  0  0  0  0  0  0  0  0  0  0
   -0.5944   -1.6545    0.7401 C   0  0  0  0  0  3  0  0  0  0  0  0
   -1.0558   -1.5995    1.7341 H   0  0  0  0  0  0  0  0  0  0  0  0
   -5.5359    0.4111   -0.2848 C   0  0  0  0  0  0  0  0  0  0  0  0
   -0.0130   -2.8298    0.1441 C   0  0  0  0  0  3  0  0  0  0  0  0
    0.0559   -3.8225    0.6050 H   0  0  0  0  0  0  0  0  0  0  0  0
   -4.9107    0.5907    0.9600 C   0  0  0  0  0  0  0  0  0  0  0  0
   -5.5136    0.6360    1.8777 H   0  0  0  0  0  0  0  0  0  0  0  0
   -7.4210    0.2399   -0.3737 Br  0  0  0  0  0  0  0  0  0  0  0  0
  1 19  1  0  0  0  0
  2  1  1  0  0  0  0
  3  5  1  0  0  0  0
  3  8  1  0  0  0  0
  4  5  1  0  0  0  0
  4 16  1  0  0  0  0
  5  7  1  0  0  0  0
  6  5  1  0  0  0  0
  8  9  1  0  0  0  0
 10 12  1  0  0  0  0
 10 18  2  0  0  0  0
 11 10  1  0  0  0  0
 12  3  2  0  0  0  0
 13 12  1  0  0  0  0
 14  1  1  0  0  0  0
 14  4  2  0  0  0  0
 15 14  1  0  0  0  0
 16 17  1  0  0  0  0
 18 21  1  0  0  0  0
 19 20  1  0  0  0  0
 19 16  1  0  0  0  0
 21  8  2  0  0  0  0
 21 22  1  0  0  0  0
 23 18  1  0  0  0  0
M  END
