2
q = -1.0

  5  4  0  0  0  0  0  0  0  0999 V2000
   -0.9732   -0.3136    4.1006 Cl  0  0  0  0  0  0  0  0  0  0  0  0
    0.0751   -0.0528    1.6081 C   0  0  0  0  0  3  0  0  0  0  0  0
    1.0805   -0.0095    2.0610 H   0  0  0  0  0  0  0  0  0  0  0  0
   -1.0359   -0.1823    2.3450 C   0  0  0  0  0  0  0  0  0  0  0  0
   -2.0621   -0.2322    1.9534 H   0  0  0  0  0  0  0  0  0  0  0  0
  2  3  1  0  0  0  0
  2  4  2  0  0  0  0
  4  1  1  0  0  0  0
  5  4  1  0  0  0  0
M  END
