4
q = -1.0, confidence = 0.0

 26 27  0  0  0  0  0  0  0  0999 V2000
   -2.8909   -0.7618   -0.9780 C   0  0  0  0  0  0  0  0  0  0  0  0
   -2.1089   -0.3570   -2.1055 C   0  0  0  0  0  0  0  0  0  0  0  0
   -2.3523    0.4561   -2.7995 H   0  0  0  0  0  0  0  0  0  0  0  0
   -0.8955   -1.1193   -2.0982 C   0  0  0  0  0  3  0  0  0  0  0  0
   -0.0790   -1.0404   -2.8264 H   0  0  0  0  0  0  0  0  0  0  0  0
   -1.0256   -2.1903   -1.1046 C   0  0  0  0  0  0  0  0  0  0  0  0
   -0.1781   -3.2527   -0.7319 C   0  0  0  0  0  0  0  0  0  0  0  0
    0.7670   -3.4264   -1.2667 H   0  0  0  0  0  0  0  0  0  0  0  0
   -0.5669   -4.0744    0.3377 C   0  0  0  0  0  0  0  0  0  0  0  0
    0.0768   -4.9159    0.6359 H   0  0  0  0  0  0  0  0  0  0  0  0
   -1.7662   -3.8358    1.0437 C   0  0  0  0  0  0  0  0  0  0  0  0
   -2.0389   -4.4926    1.8835 H   0  0  0  0  0  0  0  0  0  0  0  0
   -2.6178   -2.7761    0.6896 C   0  0  0  0  0  0  0  0  0  0  0  0
   -3.5410   -2.5820    1.2550 H   0  0  0  0  0  0  0  0  0  0  0  0
   -2.2625   -1.9626   -0.4012 C   0  0  0  0  0  0  0  0  0  0  0  0
   -4.1892   -0.1837   -0.5083 C   0  0  0  0  0  0  0  0  0  0  0  0
   -4.1931   -0.2088    0.6017 H   0  0  0  0  0  0  0  0  0  0  0  0
   -5.0225   -0.8441   -0.8422 H   0  0  0  0  0  0  0  0  0  0  0  0
   -4.4284    1.2680   -0.9576 C   0  0  0  0  0  0  0  0  0  0  0  0
   -3.5356    1.8569   -0.6631 H   0  0  0  0  0  0  0  0  0  0  0  0
   -4.5077    1.3055   -2.0668 H   0  0  0  0  0  0  0  0  0  0  0  0
   -5.6604    1.8671   -0.3393 C   0  0  0  0  0  0  0  0  0  0  0  0
   -6.6340    1.5107   -0.7263 H   0  0  0  0  0  0  0  0  0  0  0  0
   -5.6420    2.7577    0.6675 C   0  0  0  0  0  0  0  0  0  0  0  0
   -4.6859    3.1094    1.0908 H   0  0  0  0  0  0  0  0  0  0  0  0
   -6.5701    3.1516    1.1107 H   0  0  0  0  0  0  0  0  0  0  0  0
  1 16  1  0  0  0  0
  1 15  1  0  0  0  0
  2  4  1  0  0  0  0
  2  1  2  0  0  0  0
  3  2  1  0  0  0  0
  4  6  1  0  0  0  0
  5  4  1  0  0  0  0
  6  7  2  0  0  0  0
  6 15  1  0  0  0  0
  7  9  1  0  0  0  0
  8  7  1  0  0  0  0
  9 10  1  0  0  0  0
  9 11  2  0  0  0  0
 11 12  1  0  0  0  0
 13 11  1  0  0  0  0
 13 14  1  0  0  0  0
 15 13  2  0  0  0  0
 16 17  1  0  0  0  0
 18 16  1  0  0  0  0
 19 20  1  0  0  0  0
 19 16  1  0  0  0  0
 19 22  1  0  0  0  0
 21 19  1  0  0  0  0
 22 24  2  0  0  0  0
 23 22  1  0  0  0  0
 24 25  1  0  0  0  0
 24 26  1  0  0  0  0
M  END
