15
q = 0.0, confidence = 0.992

 49 53  0  0  1  0  0  0  0  0999 V2000
    1.2562    0.1332    0.2165 P   0  0  0  0  0  0  0  0  0  0  0  0
    2.7919    3.9579    0.3053 C   0  0  0  0  0  0  0  0  0  0  0  0
    1.5596    1.9034   -0.1139 C   0  0  0  0  0  0  0  0  0  0  0  0
    3.5809   -0.9348    1.4269 C   0  0  0  0  0  0  0  0  0  0  0  0
   -2.9833    0.1768    0.5583 C   0  0  0  0  0  0  0  0  0  0  0  0
    4.6949   -1.7271   -1.0272 C   0  0  0  0  0  0  0  0  0  0  0  0
   -0.7542   -1.1547    3.5365 C   0  0  0  0  0  0  0  0  0  0  0  0
    2.8808   -0.6990    0.2242 C   0  0  0  0  0  0  0  0  0  0  0  0
   -3.2366    1.5146    0.1771 C   0  0  0  0  0  0  0  0  0  0  0  0
    0.0168   -1.3978    2.2003 C   0  0  2  0  0  0  0  0  0  0  0  0
    2.6213    2.5825    0.5180 C   0  0  0  0  0  0  0  0  0  0  0  0
    3.4398   -1.1039   -1.0071 C   0  0  0  0  0  0  0  0  0  0  0  0
    5.3952   -1.9546    0.1690 C   0  0  0  0  0  0  0  0  0  0  0  0
    0.5682    0.0258    1.9249 C   0  0  2  0  0  0  0  0  0  0  0  0
   -1.0693   -1.5179    1.1313 C   0  0  0  0  0  3  0  0  0  0  0  0
    0.6858    2.5971   -0.9750 C   0  0  0  0  0  0  0  0  0  0  0  0
   -0.8249    0.6863    1.9302 C   0  0  2  0  0  0  0  0  0  0  0  0
   -1.3393    0.2761    3.3472 C   0  0  0  0  0  0  0  0  0  0  0  0
    4.8365   -1.5607    1.3948 C   0  0  0  0  0  0  0  0  0  0  0  0
   -1.6233   -0.2148    0.9731 C   0  0  2  0  0  3  0  0  0  0  0  0
   -5.5746    0.9898   -0.2149 C   0  0  0  0  0  0  0  0  0  0  0  0
    1.9127    4.6535   -0.5418 C   0  0  0  0  0  0  0  0  0  0  0  0
   -4.5198    1.9168   -0.2122 C   0  0  0  0  0  0  0  0  0  0  0  0
    0.8655    3.9731   -1.1831 C   0  0  0  0  0  0  0  0  0  0  0  0
   -4.0523   -0.7476    0.5463 C   0  0  0  0  0  0  0  0  0  0  0  0
   -5.3363   -0.3405    0.1681 C   0  0  0  0  0  0  0  0  0  0  0  0
   -1.6250   -2.4522    0.9647 H   0  0  0  0  0  0  0  0  0  0  0  0
    0.7539   -2.2213    2.2265 H   0  0  0  0  0  0  0  0  0  0  0  0
   -1.5324   -1.9264    3.6967 H   0  0  0  0  0  0  0  0  0  0  0  0
   -0.0586   -1.2030    4.3981 H   0  0  0  0  0  0  0  0  0  0  0  0
   -2.4448    0.3100    3.3951 H   0  0  0  0  0  0  0  0  0  0  0  0
   -0.9498    0.9818    4.1072 H   0  0  0  0  0  0  0  0  0  0  0  0
   -0.8600    1.7701    1.7222 H   0  0  0  0  0  0  0  0  0  0  0  0
    1.2391    0.4187    2.7141 H   0  0  0  0  0  0  0  0  0  0  0  0
   -3.8680   -1.7921    0.8299 H   0  0  0  0  0  0  0  0  0  0  0  0
   -6.1590   -1.0711    0.1632 H   0  0  0  0  0  0  0  0  0  0  0  0
   -6.5845    1.3039   -0.5192 H   0  0  0  0  0  0  0  0  0  0  0  0
   -4.6978    2.9581   -0.5204 H   0  0  0  0  0  0  0  0  0  0  0  0
   -2.4074    2.2379    0.1550 H   0  0  0  0  0  0  0  0  0  0  0  0
    3.1523   -0.6352    2.3947 H   0  0  0  0  0  0  0  0  0  0  0  0
    5.3787   -1.7435    2.3349 H   0  0  0  0  0  0  0  0  0  0  0  0
    6.3788   -2.4480    0.1473 H   0  0  0  0  0  0  0  0  0  0  0  0
    5.1255   -2.0456   -1.9885 H   0  0  0  0  0  0  0  0  0  0  0  0
    2.8663   -0.9419   -1.9351 H   0  0  0  0  0  0  0  0  0  0  0  0
    3.3211    2.0334    1.1675 H   0  0  0  0  0  0  0  0  0  0  0  0
    3.6205    4.4889    0.7980 H   0  0  0  0  0  0  0  0  0  0  0  0
    2.0529    5.7320   -0.7111 H   0  0  0  0  0  0  0  0  0  0  0  0
    0.1881    4.5135   -1.8613 H   0  0  0  0  0  0  0  0  0  0  0  0
   -0.1096    2.0439   -1.4982 H   0  0  0  0  0  0  0  0  0  0  0  0
  1  8  1  0  0  0  0
  1 14  1  0  0  0  0
  2 11  1  0  0  0  0
  2 46  1  0  0  0  0
  3  1  1  0  0  0  0
  3 11  2  0  0  0  0
  4 40  1  0  0  0  0
  6 12  2  0  0  0  0
  6 13  1  0  0  0  0
  7 29  1  0  0  0  0
  7 30  1  0  0  0  0
  8  4  2  0  0  0  0
  9  5  2  0  0  0  0
 10 28  1  1  0  0  0
 10  7  1  0  0  0  0
 11 45  1  0  0  0  0
 12  8  1  0  0  0  0
 13 19  2  0  0  0  0
 14 17  1  0  0  0  0
 14 10  1  0  0  0  0
 14 34  1  1  0  0  0
 15 10  1  0  0  0  0
 16  3  1  0  0  0  0
 17 33  1  6  0  0  0
 17 18  1  0  0  0  0
 18 31  1  0  0  0  0
 18  7  1  0  0  0  0
 18 32  1  0  0  0  0
 19  4  1  0  0  0  0
 19 41  1  0  0  0  0
 20  5  1  1  0  0  0
 20 15  1  0  0  0  0
 20 17  1  0  0  0  0
 21 23  2  0  0  0  0
 21 26  1  0  0  0  0
 22  2  2  0  0  0  0
 23  9  1  0  0  0  0
 24 16  2  0  0  0  0
 24 22  1  0  0  0  0
 25  5  1  0  0  0  0
 25 35  1  0  0  0  0
 26 25  2  0  0  0  0
 27 15  1  0  0  0  0
 36 26  1  0  0  0  0
 37 21  1  0  0  0  0
 38 23  1  0  0  0  0
 39  9  1  0  0  0  0
 42 13  1  0  0  0  0
 43  6  1  0  0  0  0
 44 12  1  0  0  0  0
 47 22  1  0  0  0  0
 48 24  1  0  0  0  0
 49 16  1  0  0  0  0
M  END
