2
q = 0.0, confidence = 0.93

 13 13  0  0  0  0  0  0  0  0999 V2000
    0.6419    1.1559   -1.9833 C   0  0  0  0  0  3  0  0  0  0  0  0
   -0.4058    1.7799   -1.2358 C   0  0  0  0  0  3  0  0  0  0  0  0
    1.8369    2.0676   -1.9201 C   0  0  0  0  0  0  0  0  0  0  0  0
    0.5065    0.5437   -2.8861 H   0  0  0  0  0  0  0  0  0  0  0  0
    0.1296    3.0518   -0.6597 C   0  0  0  0  0  0  0  0  0  0  0  0
   -1.4776    1.7264   -1.4741 H   0  0  0  0  0  0  0  0  0  0  0  0
    2.9250    1.9491   -2.4579 O   0  0  0  0  0  0  0  0  0  0  0  0
    1.4587    3.1553   -1.1004 N   0  0  0  0  0  0  0  0  0  0  0  0
   -0.4362    3.8646    0.0633 O   0  0  0  0  0  0  0  0  0  0  0  0
    2.3741    4.1879   -0.6715 C   0  0  0  0  0  0  0  0  0  0  0  0
    1.8753    5.1747   -0.7192 H   0  0  0  0  0  0  0  0  0  0  0  0
    2.7139    4.0091    0.3700 H   0  0  0  0  0  0  0  0  0  0  0  0
    3.2492    4.1620   -1.3473 H   0  0  0  0  0  0  0  0  0  0  0  0
  1  3  1  0  0  0  0
  1  2  1  0  0  0  0
  2  5  1  0  0  0  0
  3  8  1  0  0  0  0
  4  1  1  0  0  0  0
  5  9  2  0  0  0  0
  6  2  1  0  0  0  0
  7  3  2  0  0  0  0
  8 10  1  0  0  0  0
  8  5  1  0  0  0  0
 10 12  1  0  0  0  0
 11 10  1  0  0  0  0
 13 10  1  0  0  0  0
M  END
