1
q = 0.0, confidence = 0.988

 24 24  0  0  0  0  0  0  0  0999 V2000
   -1.1503    0.9696   -0.2383 C   0  0  0  0  0  1  0  0  0  0  0  0
   -1.7197    2.1930   -0.1474 C   0  0  0  0  0  0  0  0  0  0  0  0
   -3.1786    2.3650   -0.0118 C   0  0  0  0  0  0  0  0  0  0  0  0
   -0.8422    3.4253   -0.2656 C   0  0  0  0  0  0  0  0  0  0  0  0
   -3.7838    3.5853   -0.0681 C   0  0  0  0  0  3  0  0  0  0  0  0
   -5.0660    0.8572   -0.7463 C   0  0  0  0  0  0  0  0  0  0  0  0
   -5.8146   -0.3252   -0.6344 C   0  0  0  0  0  0  0  0  0  0  0  0
   -5.5358   -1.2729    0.3697 C   0  0  0  0  0  0  0  0  0  0  0  0
   -4.4878   -0.9843    1.2705 C   0  0  0  0  0  0  0  0  0  0  0  0
   -3.7413    0.1936    1.1624 C   0  0  0  0  0  0  0  0  0  0  0  0
   -4.0085    1.1335    0.1439 C   0  0  0  0  0  0  0  0  0  0  0  0
   -6.3342   -2.5465    0.4958 C   0  0  0  0  0  0  0  0  0  0  0  0
    0.2294    3.1598   -0.3272 H   0  0  0  0  0  0  0  0  0  0  0  0
   -1.0983    4.0165   -1.1719 H   0  0  0  0  0  0  0  0  0  0  0  0
   -0.9831    4.0926    0.6121 H   0  0  0  0  0  0  0  0  0  0  0  0
   -4.8748    3.6694    0.0451 H   0  0  0  0  0  0  0  0  0  0  0  0
   -3.2175    4.5167   -0.2105 H   0  0  0  0  0  0  0  0  0  0  0  0
   -5.2823    1.5733   -1.5539 H   0  0  0  0  0  0  0  0  0  0  0  0
   -6.6270   -0.5231   -1.3522 H   0  0  0  0  0  0  0  0  0  0  0  0
   -4.2433   -1.7011    2.0710 H   0  0  0  0  0  0  0  0  0  0  0  0
   -2.9322    0.3904    1.8790 H   0  0  0  0  0  0  0  0  0  0  0  0
   -5.6738   -3.4351    0.5728 H   0  0  0  0  0  0  0  0  0  0  0  0
   -6.9636   -2.5378    1.4113 H   0  0  0  0  0  0  0  0  0  0  0  0
   -7.0075   -2.6952   -0.3707 H   0  0  0  0  0  0  0  0  0  0  0  0
  1  2  1  0  0  0  0
  2  3  2  0  0  0  0
  3 11  1  0  0  0  0
  4  2  1  0  0  0  0
  4 15  1  0  0  0  0
  5  3  1  0  0  0  0
  5 16  1  0  0  0  0
  6  7  2  0  0  0  0
  6 11  1  0  0  0  0
  7  8  1  0  0  0  0
  8 12  1  0  0  0  0
  8  9  2  0  0  0  0
  9 20  1  0  0  0  0
 10  9  1  0  0  0  0
 10 21  1  0  0  0  0
 11 10  2  0  0  0  0
 12 22  1  0  0  0  0
 12 23  1  0  0  0  0
 13  4  1  0  0  0  0
 14  4  1  0  0  0  0
 17  5  1  0  0  0  0
 18  6  1  0  0  0  0
 19  7  1  0  0  0  0
 24 12  1  0  0  0  0
M  END
