4
q = -1.0

 29 31  0  0  1  0  0  0  0  0999 V2000
    2.8395    1.7182   -0.1205 N   0  0  0  0  0  0  0  0  0  0  0  0
    1.5812    1.8778    0.1769 N   0  0  0  0  0  0  0  0  0  0  0  0
    1.1543    0.7366    0.7707 N   0  0  0  0  0  0  0  0  0  0  0  0
   -1.0619    0.0578   -0.0331 C   0  0  1  0  0  3  0  0  0  0  0  0
   -1.5671    0.8366   -1.1249 C   0  0  0  0  0  0  0  0  0  0  0  0
   -1.4619    1.9241   -1.2218 H   0  0  0  0  0  0  0  0  0  0  0  0
   -2.2087   -0.0429   -2.0553 C   0  0  0  0  0  0  0  0  0  0  0  0
   -2.7010    0.2491   -2.9896 H   0  0  0  0  0  0  0  0  0  0  0  0
   -2.0985   -1.3768   -1.5353 C   0  0  0  0  0  0  0  0  0  0  0  0
   -2.4991   -2.2831   -2.0054 H   0  0  0  0  0  0  0  0  0  0  0  0
   -1.3826   -1.3246   -0.3020 C   0  0  0  0  0  0  0  0  0  0  0  0
   -1.1347   -2.1795    0.3387 H   0  0  0  0  0  0  0  0  0  0  0  0
   -0.2556    0.5939    1.1176 C   0  0  0  0  0  0  0  0  0  0  0  0
   -0.6110    1.6021    1.4002 H   0  0  0  0  0  0  0  0  0  0  0  0
   -0.3384   -0.0633    2.0040 H   0  0  0  0  0  0  0  0  0  0  0  0
    2.1592   -0.1813    0.8409 C   0  0  0  0  0  0  0  0  0  0  0  0
    2.0196   -1.1713    1.2841 H   0  0  0  0  0  0  0  0  0  0  0  0
    3.2566    0.4640    0.2648 C   0  0  0  0  0  0  0  0  0  0  0  0
    4.6354    0.0029    0.0612 C   0  0  0  0  0  0  0  0  0  0  0  0
    5.5753    0.8623   -0.5507 C   0  0  0  0  0  0  0  0  0  0  0  0
    5.2428    1.8642   -0.8578 H   0  0  0  0  0  0  0  0  0  0  0  0
    6.8943    0.4398   -0.7560 C   0  0  0  0  0  0  0  0  0  0  0  0
    7.6155    1.1204   -1.2339 H   0  0  0  0  0  0  0  0  0  0  0  0
    7.2997   -0.8442   -0.3554 C   0  0  0  0  0  0  0  0  0  0  0  0
    8.3370   -1.1741   -0.5172 H   0  0  0  0  0  0  0  0  0  0  0  0
    6.3724   -1.7051    0.2542 C   0  0  0  0  0  0  0  0  0  0  0  0
    6.6809   -2.7127    0.5720 H   0  0  0  0  0  0  0  0  0  0  0  0
    5.0517   -1.2862    0.4609 C   0  0  0  0  0  0  0  0  0  0  0  0
    4.3358   -1.9716    0.9401 H   0  0  0  0  0  0  0  0  0  0  0  0
  1  2  2  0  0  0  0
  1 18  1  0  0  0  0
  2  3  1  0  0  0  0
  3 16  1  0  0  0  0
  3 13  1  0  0  0  0
  4 13  1  6  0  0  0
  5  4  1  0  0  0  0
  6  5  1  0  0  0  0
  7  9  1  0  0  0  0
  7  5  2  0  0  0  0
  8  7  1  0  0  0  0
  9 11  2  0  0  0  0
 10  9  1  0  0  0  0
 11  4  1  0  0  0  0
 11 12  1  0  0  0  0
 13 14  1  0  0  0  0
 13 15  1  0  0  0  0
 16 17  1  0  0  0  0
 18 16  2  0  0  0  0
 19 18  1  0  0  0  0
 19 28  1  0  0  0  0
 20 19  2  0  0  0  0
 21 20  1  0  0  0  0
 22 20  1  0  0  0  0
 22 24  2  0  0  0  0
 23 22  1  0  0  0  0
 24 26  1  0  0  0  0
 25 24  1  0  0  0  0
 26 28  2  0  0  0  0
 26 27  1  0  0  0  0
 28 29  1  0  0  0  0
M  END
