6
q = -1.0

 41 43  0  0  1  0  0  0  0  0999 V2000
   -0.3969    1.8731   -0.0562 N   0  0  0  0  0  0  0  0  0  0  0  0
   -0.0887    0.5575   -0.2455 C   0  0  0  0  0  0  0  0  0  0  0  0
    0.3194   -0.3119    0.8201 C   0  0  0  0  0  3  0  0  0  0  0  0
    1.2871   -1.4558    0.5212 C   0  0  1  0  0  0  0  0  0  0  0  0
    0.5728   -2.2036   -0.5838 C   0  0  0  0  0  3  0  0  0  0  0  0
    0.0105   -1.4798   -1.6568 C   0  0  0  0  0  3  0  0  0  0  0  0
   -0.3449   -0.1025   -1.5117 C   0  0  0  0  0  0  0  0  0  0  0  0
   -0.9289    2.7447   -1.1234 C   0  0  1  0  0  0  0  0  0  0  0  0
   -1.3850    3.9927   -0.3446 C   0  0  0  0  0  0  0  0  0  0  0  0
   -0.4087    4.0415    0.8387 C   0  0  0  0  0  0  0  0  0  0  0  0
   -0.2901    2.5620    1.2468 C   0  0  1  0  0  0  0  0  0  0  0  0
    0.1310    3.0788   -2.1838 C   0  0  0  0  0  0  0  0  0  0  0  0
   -1.3748    2.1596    2.2577 C   0  0  0  0  0  0  0  0  0  0  0  0
    2.7219   -1.0061    0.2600 C   0  0  0  0  0  0  0  0  0  0  0  0
    3.2077   -0.7441   -1.0357 C   0  0  0  0  0  0  0  0  0  0  0  0
    4.5138   -0.2678   -1.2300 C   0  0  0  0  0  0  0  0  0  0  0  0
    5.3566   -0.0431   -0.1305 C   0  0  0  0  0  0  0  0  0  0  0  0
    4.8857   -0.3050    1.1665 C   0  0  0  0  0  0  0  0  0  0  0  0
    3.5819   -0.7850    1.3556 C   0  0  0  0  0  0  0  0  0  0  0  0
    0.3430    0.1001    1.8374 H   0  0  0  0  0  0  0  0  0  0  0  0
    1.3030   -2.1011    1.4228 H   0  0  0  0  0  0  0  0  0  0  0  0
    0.7365   -3.2842   -0.7101 H   0  0  0  0  0  0  0  0  0  0  0  0
   -0.2652   -1.9935   -2.5905 H   0  0  0  0  0  0  0  0  0  0  0  0
   -0.7882    0.4348   -2.3566 H   0  0  0  0  0  0  0  0  0  0  0  0
   -1.7986    2.2473   -1.6061 H   0  0  0  0  0  0  0  0  0  0  0  0
   -1.3643    4.9044   -0.9724 H   0  0  0  0  0  0  0  0  0  0  0  0
   -2.4243    3.8575    0.0166 H   0  0  0  0  0  0  0  0  0  0  0  0
    0.5775    4.4314    0.5133 H   0  0  0  0  0  0  0  0  0  0  0  0
   -0.7615    4.6769    1.6735 H   0  0  0  0  0  0  0  0  0  0  0  0
    0.7104    2.3419    1.6786 H   0  0  0  0  0  0  0  0  0  0  0  0
    0.5829    2.1681   -2.6211 H   0  0  0  0  0  0  0  0  0  0  0  0
    0.9536    3.6760   -1.7417 H   0  0  0  0  0  0  0  0  0  0  0  0
   -0.3222    3.6667   -3.0071 H   0  0  0  0  0  0  0  0  0  0  0  0
   -1.1965    2.6807    3.2198 H   0  0  0  0  0  0  0  0  0  0  0  0
   -2.3853    2.4282    1.8938 H   0  0  0  0  0  0  0  0  0  0  0  0
   -1.3815    1.0714    2.4547 H   0  0  0  0  0  0  0  0  0  0  0  0
    2.5551   -0.9205   -1.9033 H   0  0  0  0  0  0  0  0  0  0  0  0
    4.8774   -0.0734   -2.2509 H   0  0  0  0  0  0  0  0  0  0  0  0
    6.3809    0.3293   -0.2836 H   0  0  0  0  0  0  0  0  0  0  0  0
    5.5418   -0.1418    2.0354 H   0  0  0  0  0  0  0  0  0  0  0  0
    3.2187   -0.9961    2.3749 H   0  0  0  0  0  0  0  0  0  0  0  0
  1 11  1  0  0  0  0
  2  1  1  0  0  0  0
  2  3  1  0  0  0  0
  3 20  1  0  0  0  0
  4  3  1  0  0  0  0
  4 21  1  1  0  0  0
  5  4  1  0  0  0  0
  6  7  1  0  0  0  0
  6  5  1  0  0  0  0
  7  2  2  0  0  0  0
  8 25  1  6  0  0  0
  8  9  1  0  0  0  0
  8  1  1  0  0  0  0
  9 27  1  0  0  0  0
  9 10  1  0  0  0  0
 10 11  1  0  0  0  0
 10 29  1  0  0  0  0
 11 30  1  1  0  0  0
 11 13  1  0  0  0  0
 12 32  1  0  0  0  0
 12  8  1  0  0  0  0
 13 36  1  0  0  0  0
 13 34  1  0  0  0  0
 14  4  1  0  0  0  0
 14 19  1  0  0  0  0
 15 14  2  0  0  0  0
 16 15  1  0  0  0  0
 16 17  2  0  0  0  0
 17 18  1  0  0  0  0
 18 19  2  0  0  0  0
 18 40  1  0  0  0  0
 19 41  1  0  0  0  0
 22  5  1  0  0  0  0
 23  6  1  0  0  0  0
 24  7  1  0  0  0  0
 26  9  1  0  0  0  0
 28 10  1  0  0  0  0
 31 12  1  0  0  0  0
 33 12  1  0  0  0  0
 35 13  1  0  0  0  0
 37 15  1  0  0  0  0
 38 16  1  0  0  0  0
 39 17  1  0  0  0  0
M  END
