1
q = -1.0

 20 21  0  0  0  0  0  0  0  0999 V2000
    1.7437    0.5597   -0.8249 C   0  0  0  0  0  3  0  0  0  0  0  0
    1.9331    0.2417   -2.1807 C   0  0  0  0  0  0  0  0  0  0  0  0
    3.1815   -0.2826   -2.6301 C   0  0  0  0  0  0  0  0  0  0  0  0
    4.2316   -0.5142   -1.7575 C   0  0  0  0  0  0  0  0  0  0  0  0
    4.0820   -0.2282   -0.3702 C   0  0  0  0  0  0  0  0  0  0  0  0
    5.1252   -0.4784    0.5704 C   0  0  0  0  0  0  0  0  0  0  0  0
    4.9511   -0.2257    1.9234 C   0  0  0  0  0  0  0  0  0  0  0  0
    3.7143    0.2929    2.3923 C   0  0  0  0  0  0  0  0  0  0  0  0
    2.6871    0.5574    1.4974 C   0  0  0  0  0  0  0  0  0  0  0  0
    2.8243    0.3166    0.0956 C   0  0  0  0  0  0  0  0  0  0  0  0
    0.8047    0.3843   -3.1770 C   0  0  0  0  0  0  0  0  0  0  0  0
    3.3024   -0.5150   -3.7015 H   0  0  0  0  0  0  0  0  0  0  0  0
    5.1880   -0.9223   -2.1210 H   0  0  0  0  0  0  0  0  0  0  0  0
    6.0788   -0.8876    0.1990 H   0  0  0  0  0  0  0  0  0  0  0  0
    5.7662   -0.4309    2.6345 H   0  0  0  0  0  0  0  0  0  0  0  0
    3.5705    0.4818    3.4674 H   0  0  0  0  0  0  0  0  0  0  0  0
    1.7199    0.9500    1.8480 H   0  0  0  0  0  0  0  0  0  0  0  0
    0.0787    1.1572   -2.8424 H   0  0  0  0  0  0  0  0  0  0  0  0
    1.1694    0.6510   -4.1903 H   0  0  0  0  0  0  0  0  0  0  0  0
    0.2439   -0.5726   -3.2710 H   0  0  0  0  0  0  0  0  0  0  0  0
  1 10  1  0  0  0  0
  2  1  2  0  0  0  0
  3  2  1  0  0  0  0
  3  4  2  0  0  0  0
  4  5  1  0  0  0  0
  5 10  2  0  0  0  0
  5  6  1  0  0  0  0
  6  7  2  0  0  0  0
  7  8  1  0  0  0  0
  7 15  1  0  0  0  0
  8 16  1  0  0  0  0
  9 17  1  0  0  0  0
  9  8  2  0  0  0  0
 10  9  1  0  0  0  0
 11 18  1  0  0  0  0
 11  2  1  0  0  0  0
 12  3  1  0  0  0  0
 13  4  1  0  0  0  0
 14  6  1  0  0  0  0
 19 11  1  0  0  0  0
 20 11  1  0  0  0  0
M  END
