3
q = -1.0, confidence = 0.018

 42 43  0  0  0  0  0  0  0  0999 V2000
    1.3889    2.0587    0.5116 C   0  0  0  0  0  0  0  0  0  0  0  0
    1.3638    3.1282    0.2669 H   0  0  0  0  0  0  0  0  0  0  0  0
    0.3003    1.4963    1.2838 C   0  0  0  0  0  3  0  0  0  0  0  0
    0.5001    0.6159    1.9155 H   0  0  0  0  0  0  0  0  0  0  0  0
    2.5122    1.2937    0.0871 C   0  0  0  0  0  0  0  0  0  0  0  0
    3.4513    1.7816   -0.7638 N   0  0  0  0  0  0  0  0  0  0  0  0
    4.6605    1.0517   -1.1532 C   0  0  0  0  0  0  0  0  0  0  0  0
    4.7760    0.1910   -0.4675 H   0  0  0  0  0  0  0  0  0  0  0  0
    5.5306    1.7181   -0.9583 H   0  0  0  0  0  0  0  0  0  0  0  0
    4.6692    0.5851   -2.6106 C   0  0  0  0  0  0  0  0  0  0  0  0
    3.7768   -0.0263   -2.8362 H   0  0  0  0  0  0  0  0  0  0  0  0
    5.5816   -0.0149   -2.8008 H   0  0  0  0  0  0  0  0  0  0  0  0
    4.6790    1.4379   -3.3175 H   0  0  0  0  0  0  0  0  0  0  0  0
    3.2744    3.1073   -1.3655 C   0  0  0  0  0  0  0  0  0  0  0  0
    2.2027    3.2197   -1.6295 H   0  0  0  0  0  0  0  0  0  0  0  0
    3.8140    3.1028   -2.3314 H   0  0  0  0  0  0  0  0  0  0  0  0
    3.7868    4.2452   -0.4799 C   0  0  0  0  0  0  0  0  0  0  0  0
    3.2557    4.2853    0.4917 H   0  0  0  0  0  0  0  0  0  0  0  0
    3.6407    5.2182   -0.9897 H   0  0  0  0  0  0  0  0  0  0  0  0
    4.8696    4.1341   -0.2675 H   0  0  0  0  0  0  0  0  0  0  0  0
    2.7007   -0.0716    0.6809 C   0  0  0  0  0  0  0  0  0  0  0  0
    2.8860   -0.1918    2.0740 C   0  0  0  0  0  0  0  0  0  0  0  0
    2.9190   -1.4422    2.7125 C   0  0  0  0  0  0  0  0  0  0  0  0
    2.8024   -2.6141    1.9491 C   0  0  0  0  0  0  0  0  0  0  0  0
    2.6522   -2.5294    0.5540 C   0  0  0  0  0  0  0  0  0  0  0  0
    2.6025   -1.2685   -0.0619 C   0  0  0  0  0  0  0  0  0  0  0  0
    3.0071    0.9018    2.8347 F   0  0  0  0  0  0  0  0  0  0  0  0
    3.0367   -1.5254    4.0407 F   0  0  0  0  0  0  0  0  0  0  0  0
    2.8101   -3.8025    2.5527 F   0  0  0  0  0  0  0  0  0  0  0  0
    2.5260   -3.6402   -0.1721 F   0  0  0  0  0  0  0  0  0  0  0  0
    2.4120   -1.2389   -1.3805 F   0  0  0  0  0  0  0  0  0  0  0  0
   -0.8115    2.3300    1.7822 C   0  0  0  0  0  0  0  0  0  0  0  0
   -1.1975    3.5435    1.1586 C   0  0  0  0  0  0  0  0  0  0  0  0
   -0.6466    3.9040    0.2766 H   0  0  0  0  0  0  0  0  0  0  0  0
   -2.3054    4.2669    1.6169 C   0  0  0  0  0  0  0  0  0  0  0  0
   -2.5898    5.2023    1.1111 H   0  0  0  0  0  0  0  0  0  0  0  0
   -3.0628    3.7959    2.7042 C   0  0  0  0  0  0  0  0  0  0  0  0
   -3.9389    4.3610    3.0565 H   0  0  0  0  0  0  0  0  0  0  0  0
   -2.6899    2.5980    3.3350 C   0  0  0  0  0  0  0  0  0  0  0  0
   -3.2738    2.2165    4.1866 H   0  0  0  0  0  0  0  0  0  0  0  0
   -1.5752    1.8786    2.8851 C   0  0  0  0  0  0  0  0  0  0  0  0
   -1.2907    0.9395    3.3831 H   0  0  0  0  0  0  0  0  0  0  0  0
  1  3  1  0  0  0  0
  2  1  1  0  0  0  0
  3 32  1  0  0  0  0
  3  4  1  0  0  0  0
  5  1  2  0  0  0  0
  5 21  1  0  0  0  0
  6  5  1  0  0  0  0
  7  9  1  0  0  0  0
  7  6  1  0  0  0  0
  7  8  1  0  0  0  0
 10  7  1  0  0  0  0
 11 10  1  0  0  0  0
 12 10  1  0  0  0  0
 13 10  1  0  0  0  0
 14  6  1  0  0  0  0
 14 17  1  0  0  0  0
 15 14  1  0  0  0  0
 16 14  1  0  0  0  0
 17 20  1  0  0  0  0
 17 18  1  0  0  0  0
 19 17  1  0  0  0  0
 21 22  1  0  0  0  0
 22 23  2  0  0  0  0
 22 27  1  0  0  0  0
 23 28  1  0  0  0  0
 24 29  1  0  0  0  0
 24 23  1  0  0  0  0
 25 24  2  0  0  0  0
 26 25  1  0  0  0  0
 26 21  2  0  0  0  0
 30 25  1  0  0  0  0
 31 26  1  0  0  0  0
 32 41  1  0  0  0  0
 33 35  1  0  0  0  0
 33 32  2  0  0  0  0
 34 33  1  0  0  0  0
 35 37  2  0  0  0  0
 36 35  1  0  0  0  0
 37 38  1  0  0  0  0
 37 39  1  0  0  0  0
 39 40  1  0  0  0  0
 41 39  2  0  0  0  0
 41 42  1  0  0  0  0
M  END
