4
q = -1.0

 16 16  0  0  0  0  0  0  0  0999 V2000
    2.3090   -0.1521   -0.8626 C   0  0  0  0  0  0  0  0  0  0  0  0
    2.3372    0.8339    0.1910 C   0  0  0  0  0  0  0  0  0  0  0  0
    1.4927    1.9065   -0.2040 C   0  0  0  0  0  0  0  0  0  0  0  0
    0.9365    1.6024   -1.4871 C   0  0  0  0  0  3  0  0  0  0  0  0
    1.4674    0.3483   -1.8930 C   0  0  0  0  0  0  0  0  0  0  0  0
    3.0641   -1.4413   -0.8831 C   0  0  0  0  0  0  0  0  0  0  0  0
    3.1656    0.7626    1.4337 C   0  0  0  0  0  0  0  0  0  0  0  0
    1.3278    2.8241    0.3719 H   0  0  0  0  0  0  0  0  0  0  0  0
    0.2674    2.2370   -2.0785 H   0  0  0  0  0  0  0  0  0  0  0  0
    1.2253   -0.1793   -2.8209 H   0  0  0  0  0  0  0  0  0  0  0  0
    2.9728   -1.9624    0.0905 H   0  0  0  0  0  0  0  0  0  0  0  0
    4.1430   -1.2641   -1.0807 H   0  0  0  0  0  0  0  0  0  0  0  0
    2.6727   -2.1144   -1.6691 H   0  0  0  0  0  0  0  0  0  0  0  0
    3.0356   -0.2148    1.9391 H   0  0  0  0  0  0  0  0  0  0  0  0
    2.8929    1.5629    2.1484 H   0  0  0  0  0  0  0  0  0  0  0  0
    4.2422    0.8789    1.1860 H   0  0  0  0  0  0  0  0  0  0  0  0
  1  2  1  0  0  0  0
  2  7  1  0  0  0  0
  3  2  2  0  0  0  0
  3  8  1  0  0  0  0
  4  3  1  0  0  0  0
  5  4  1  0  0  0  0
  5  1  2  0  0  0  0
  6  1  1  0  0  0  0
  6 11  1  0  0  0  0
  7 14  1  0  0  0  0
  7 15  1  0  0  0  0
  9  4  1  0  0  0  0
 10  5  1  0  0  0  0
 12  6  1  0  0  0  0
 13  6  1  0  0  0  0
 16  7  1  0  0  0  0
M  END
