2
q = -1.0

 18 19  0  0  0  0  0  0  0  0999 V2000
   -2.4022   -0.2311   -1.0933 N   0  0  0  0  0  0  0  0  0  0  0  0
   -1.4705   -0.0987   -0.0318 C   0  0  0  0  0  3  0  0  0  0  0  0
   -2.2462    0.0921    1.1245 C   0  0  0  0  0  0  0  0  0  0  0  0
   -3.6419    0.0778    0.7942 C   0  0  0  0  0  0  0  0  0  0  0  0
   -4.8507    0.2168    1.5124 C   0  0  0  0  0  0  0  0  0  0  0  0
   -6.0694    0.1498    0.8240 C   0  0  0  0  0  0  0  0  0  0  0  0
   -6.1079   -0.0548   -0.5754 C   0  0  0  0  0  0  0  0  0  0  0  0
   -4.9239   -0.1972   -1.3164 C   0  0  0  0  0  0  0  0  0  0  0  0
   -3.7035   -0.1295   -0.6227 C   0  0  0  0  0  0  0  0  0  0  0  0
   -2.1422   -0.3826   -2.5039 C   0  0  0  0  0  0  0  0  0  0  0  0
   -1.8416    0.2480    2.1272 H   0  0  0  0  0  0  0  0  0  0  0  0
   -4.8339    0.3768    2.6024 H   0  0  0  0  0  0  0  0  0  0  0  0
   -7.0147    0.2580    1.3786 H   0  0  0  0  0  0  0  0  0  0  0  0
   -7.0790   -0.1025   -1.0918 H   0  0  0  0  0  0  0  0  0  0  0  0
   -4.9571   -0.3550   -2.4049 H   0  0  0  0  0  0  0  0  0  0  0  0
   -2.5458    0.4797   -3.0802 H   0  0  0  0  0  0  0  0  0  0  0  0
   -2.6161   -1.3055   -2.9047 H   0  0  0  0  0  0  0  0  0  0  0  0
   -1.0485   -0.4227   -2.6541 H   0  0  0  0  0  0  0  0  0  0  0  0
  1  9  1  0  0  0  0
  1  2  1  0  0  0  0
  2  3  2  0  0  0  0
  3 11  1  0  0  0  0
  4  3  1  0  0  0  0
  4  5  1  0  0  0  0
  5 12  1  0  0  0  0
  6 13  1  0  0  0  0
  6  5  2  0  0  0  0
  7  6  1  0  0  0  0
  8  9  1  0  0  0  0
  8  7  2  0  0  0  0
  9  4  2  0  0  0  0
 10  1  1  0  0  0  0
 14  7  1  0  0  0  0
 15  8  1  0  0  0  0
 16 10  1  0  0  0  0
 17 10  1  0  0  0  0
 18 10  1  0  0  0  0
M  END
