2
q = -1.0, confidence = 0.0

 24 23  0  0  0  0  0  0  0  0999 V2000
    2.3214   -0.4436    0.5566 P   0  0  0  0  0  0  0  0  0  0  0  0
    0.8628   -0.5077   -0.5675 C   0  0  0  0  0  3  0  0  0  0  0  0
    0.6771   -1.5972   -0.7575 H   0  0  0  0  0  0  0  0  0  0  0  0
    1.0816   -0.0373   -1.5518 H   0  0  0  0  0  0  0  0  0  0  0  0
    2.5719    1.4221    0.7625 C   0  0  0  0  0  0  0  0  0  0  0  0
    2.4174    1.9063   -0.2290 H   0  0  0  0  0  0  0  0  0  0  0  0
    1.5296    1.9620    1.7490 C   0  0  0  0  0  0  0  0  0  0  0  0
    0.4980    1.7000    1.4434 H   0  0  0  0  0  0  0  0  0  0  0  0
    1.5900    3.0685    1.8274 H   0  0  0  0  0  0  0  0  0  0  0  0
    1.6944    1.5426    2.7635 H   0  0  0  0  0  0  0  0  0  0  0  0
    3.9889    1.7363    1.2573 C   0  0  0  0  0  0  0  0  0  0  0  0
    4.2188    1.1665    2.1831 H   0  0  0  0  0  0  0  0  0  0  0  0
    4.0877    2.8158    1.4990 H   0  0  0  0  0  0  0  0  0  0  0  0
    4.7677    1.4917    0.5087 H   0  0  0  0  0  0  0  0  0  0  0  0
    3.7664   -0.8952   -0.5983 C   0  0  0  0  0  0  0  0  0  0  0  0
    4.6658   -0.7366    0.0378 H   0  0  0  0  0  0  0  0  0  0  0  0
    3.6790   -2.3918   -0.9226 C   0  0  0  0  0  0  0  0  0  0  0  0
    3.6036   -3.0056   -0.0019 H   0  0  0  0  0  0  0  0  0  0  0  0
    4.5719   -2.7296   -1.4900 H   0  0  0  0  0  0  0  0  0  0  0  0
    2.7884   -2.6130   -1.5486 H   0  0  0  0  0  0  0  0  0  0  0  0
    3.8998   -0.0509   -1.8671 C   0  0  0  0  0  0  0  0  0  0  0  0
    3.0068   -0.1615   -2.5173 H   0  0  0  0  0  0  0  0  0  0  0  0
    4.7789   -0.3724   -2.4659 H   0  0  0  0  0  0  0  0  0  0  0  0
    4.0250    1.0289   -1.6492 H   0  0  0  0  0  0  0  0  0  0  0  0
  1  5  1  0  0  0  0
  2  1  1  0  0  0  0
  3  2  1  0  0  0  0
  4  2  1  0  0  0  0
  5 11  1  0  0  0  0
  5  7  1  0  0  0  0
  6  5  1  0  0  0  0
  7  9  1  0  0  0  0
  7 10  1  0  0  0  0
  8  7  1  0  0  0  0
 11 13  1  0  0  0  0
 11 12  1  0  0  0  0
 14 11  1  0  0  0  0
 15 16  1  0  0  0  0
 15  1  1  0  0  0  0
 17 15  1  0  0  0  0
 17 18  1  0  0  0  0
 19 17  1  0  0  0  0
 20 17  1  0  0  0  0
 21 24  1  0  0  0  0
 21 15  1  0  0  0  0
 22 21  1  0  0  0  0
 23 21  1  0  0  0  0
M  END
