2
q = -1.0

 30 29  0  0  0  0  0  0  0  0999 V2000
    2.0760   -0.3079    0.4871 P   0  0  0  0  0  0  0  0  0  0  0  0
    0.5846   -0.2626   -0.5999 C   0  0  0  0  0  3  0  0  0  0  0  0
    0.4277   -1.3312   -0.9107 H   0  0  0  0  0  0  0  0  0  0  0  0
    0.7668    0.3052   -1.5382 H   0  0  0  0  0  0  0  0  0  0  0  0
    3.3970   -1.1265   -0.6721 C   0  0  0  0  0  0  0  0  0  0  0  0
    3.0273   -2.6239   -0.6113 C   0  0  0  0  0  0  0  0  0  0  0  0
    3.0577   -3.0072    0.4288 H   0  0  0  0  0  0  0  0  0  0  0  0
    3.7443   -3.2165   -1.2203 H   0  0  0  0  0  0  0  0  0  0  0  0
    2.0127   -2.8181   -1.0171 H   0  0  0  0  0  0  0  0  0  0  0  0
    4.8037   -0.9541   -0.0791 C   0  0  0  0  0  0  0  0  0  0  0  0
    5.2008    0.0667   -0.2417 H   0  0  0  0  0  0  0  0  0  0  0  0
    5.5093   -1.6605   -0.5686 H   0  0  0  0  0  0  0  0  0  0  0  0
    4.8201   -1.1632    1.0106 H   0  0  0  0  0  0  0  0  0  0  0  0
    3.3822   -0.6694   -2.1363 C   0  0  0  0  0  0  0  0  0  0  0  0
    2.3826   -0.7976   -2.5975 H   0  0  0  0  0  0  0  0  0  0  0  0
    4.0999   -1.2777   -2.7299 H   0  0  0  0  0  0  0  0  0  0  0  0
    3.6763    0.3912   -2.2504 H   0  0  0  0  0  0  0  0  0  0  0  0
    2.4630    1.5652    0.7117 C   0  0  0  0  0  0  0  0  0  0  0  0
    1.2578    2.1188    1.4998 C   0  0  0  0  0  0  0  0  0  0  0  0
    0.3063    1.9879    0.9511 H   0  0  0  0  0  0  0  0  0  0  0  0
    1.4014    3.2042    1.6918 H   0  0  0  0  0  0  0  0  0  0  0  0
    1.1545    1.6158    2.4828 H   0  0  0  0  0  0  0  0  0  0  0  0
    3.7044    1.7205    1.6101 C   0  0  0  0  0  0  0  0  0  0  0  0
    3.6321    1.0751    2.5096 H   0  0  0  0  0  0  0  0  0  0  0  0
    3.7887    2.7746    1.9530 H   0  0  0  0  0  0  0  0  0  0  0  0
    4.6441    1.4695    1.0851 H   0  0  0  0  0  0  0  0  0  0  0  0
    2.6498    2.3658   -0.5832 C   0  0  0  0  0  0  0  0  0  0  0  0
    3.5862    2.0889   -1.1055 H   0  0  0  0  0  0  0  0  0  0  0  0
    2.7090    3.4539   -0.3587 H   0  0  0  0  0  0  0  0  0  0  0  0
    1.8115    2.2178   -1.2935 H   0  0  0  0  0  0  0  0  0  0  0  0
  1 18  1  0  0  0  0
  2  1  1  0  0  0  0
  3  2  1  0  0  0  0
  4  2  1  0  0  0  0
  5  6  1  0  0  0  0
  5 10  1  0  0  0  0
  5  1  1  0  0  0  0
  6  7  1  0  0  0  0
  8  6  1  0  0  0  0
  9  6  1  0  0  0  0
 10 13  1  0  0  0  0
 11 10  1  0  0  0  0
 12 10  1  0  0  0  0
 14  5  1  0  0  0  0
 15 14  1  0  0  0  0
 16 14  1  0  0  0  0
 17 14  1  0  0  0  0
 18 19  1  0  0  0  0
 18 23  1  0  0  0  0
 19 21  1  0  0  0  0
 19 22  1  0  0  0  0
 20 19  1  0  0  0  0
 23 25  1  0  0  0  0
 23 24  1  0  0  0  0
 26 23  1  0  0  0  0
 27 29  1  0  0  0  0
 27 18  1  0  0  0  0
 28 27  1  0  0  0  0
 30 27  1  0  0  0  0
M  END
