4
q = 0.0, confidence = 1.0

 37 39  0  0  0  0  0  0  0  0999 V2000
   -1.8117    1.3548   -0.0803 N   0  0  0  0  0  0  0  0  0  0  0  0
   -2.0136    2.6652   -0.2657 N   0  0  0  0  0  2  0  0  0  0  0  0
   -0.8001    3.1709   -0.3281 N   0  0  0  0  0  0  0  0  0  0  0  0
   -0.4738    0.9712   -0.0104 C   0  0  0  0  0  3  0  0  0  0  0  0
    0.1829    2.2182   -0.1838 C   0  0  0  0  0  0  0  0  0  0  0  0
    1.6085    2.5880   -0.2788 C   0  0  0  0  0  0  0  0  0  0  0  0
    2.4259    1.9973   -1.2682 C   0  0  0  0  0  0  0  0  0  0  0  0
    3.7823    2.3402   -1.3479 C   0  0  0  0  0  0  0  0  0  0  0  0
    4.3379    3.2746   -0.4569 C   0  0  0  0  0  0  0  0  0  0  0  0
    3.5273    3.8740    0.5201 C   0  0  0  0  0  0  0  0  0  0  0  0
    2.1691    3.5341    0.6084 C   0  0  0  0  0  0  0  0  0  0  0  0
   -0.6546    4.5985   -0.5708 C   0  0  0  0  0  0  0  0  0  0  0  0
   -3.0363    0.5822   -0.0620 C   0  0  0  0  0  0  0  0  0  0  0  0
   -3.6205    0.2618   -1.3047 C   0  0  0  0  0  0  0  0  0  0  0  0
   -4.8442   -0.4289   -1.2721 C   0  0  0  0  0  0  0  0  0  0  0  0
   -5.4465   -0.7740   -0.0545 C   0  0  0  0  0  0  0  0  0  0  0  0
   -4.8359   -0.4349    1.1597 C   0  0  0  0  0  0  0  0  0  0  0  0
   -3.6120    0.2566    1.1788 C   0  0  0  0  0  0  0  0  0  0  0  0
   -2.9179    0.5849   -2.5930 C   0  0  0  0  0  0  0  0  0  0  0  0
   -2.8972    0.5690    2.4631 C   0  0  0  0  0  0  0  0  0  0  0  0
    1.9797    1.2419   -1.9386 H   0  0  0  0  0  0  0  0  0  0  0  0
    4.4139    1.8702   -2.1174 H   0  0  0  0  0  0  0  0  0  0  0  0
    5.4048    3.5368   -0.5235 H   0  0  0  0  0  0  0  0  0  0  0  0
    3.9559    4.6031    1.2243 H   0  0  0  0  0  0  0  0  0  0  0  0
    1.5438    3.9850    1.3947 H   0  0  0  0  0  0  0  0  0  0  0  0
   -0.4896    5.1443    0.3781 H   0  0  0  0  0  0  0  0  0  0  0  0
   -1.5852    4.9552   -1.0456 H   0  0  0  0  0  0  0  0  0  0  0  0
    0.2101    4.7649   -1.2381 H   0  0  0  0  0  0  0  0  0  0  0  0
   -5.3199   -0.7102   -2.2240 H   0  0  0  0  0  0  0  0  0  0  0  0
   -6.4027   -1.3190   -0.0524 H   0  0  0  0  0  0  0  0  0  0  0  0
   -5.3062   -0.7149    2.1148 H   0  0  0  0  0  0  0  0  0  0  0  0
   -1.9256    0.0820   -2.6255 H   0  0  0  0  0  0  0  0  0  0  0  0
   -2.7391    1.6753   -2.6979 H   0  0  0  0  0  0  0  0  0  0  0  0
   -3.5123    0.2484   -3.4629 H   0  0  0  0  0  0  0  0  0  0  0  0
   -2.5539    1.6229    2.5047 H   0  0  0  0  0  0  0  0  0  0  0  0
   -1.9950   -0.0729    2.5419 H   0  0  0  0  0  0  0  0  0  0  0  0
   -3.5418    0.3766    3.3411 H   0  0  0  0  0  0  0  0  0  0  0  0
  1 13  1  0  0  0  0
  1  4  1  0  0  0  0
  2  1  1  0  0  0  0
  3  2  1  0  0  0  0
  3  5  1  0  0  0  0
  5  4  2  0  0  0  0
  6  5  1  0  0  0  0
  6 11  1  0  0  0  0
  7  6  2  0  0  0  0
  8  7  1  0  0  0  0
  8  9  2  0  0  0  0
  9 10  1  0  0  0  0
 10 11  2  0  0  0  0
 10 24  1  0  0  0  0
 11 25  1  0  0  0  0
 12  3  1  0  0  0  0
 12 26  1  0  0  0  0
 13 18  1  0  0  0  0
 14 15  1  0  0  0  0
 14 13  2  0  0  0  0
 15 16  2  0  0  0  0
 16 30  1  0  0  0  0
 16 17  1  0  0  0  0
 17 18  2  0  0  0  0
 17 31  1  0  0  0  0
 18 20  1  0  0  0  0
 19 14  1  0  0  0  0
 20 35  1  0  0  0  0
 20 36  1  0  0  0  0
 20 37  1  0  0  0  0
 21  7  1  0  0  0  0
 22  8  1  0  0  0  0
 23  9  1  0  0  0  0
 27 12  1  0  0  0  0
 28 12  1  0  0  0  0
 29 15  1  0  0  0  0
 32 19  1  0  0  0  0
 33 19  1  0  0  0  0
 34 19  1  0  0  0  0
M  END
