4
q = 0.0, confidence = 0.956

 59 58  0  0  0  0  0  0  0  0999 V2000
   -2.3477    2.0644    1.7011 Si  0  0  0  0  0  0  0  0  0  0  0  0
   -1.3534    2.6384   -1.3160 Si  0  0  0  0  0  0  0  0  0  0  0  0
    0.0263    0.0000   -0.0001 N   0  0  0  0  0  2  0  0  0  0  0  0
    1.2173    0.0001   -0.0001 C   0  0  0  0  0  1  0  0  0  0  0  0
   -2.1399    1.3891   -0.0897 C   0  0  0  0  0  0  0  0  0  0  0  0
   -0.7146    2.0972    2.6535 C   0  0  0  0  0  0  0  0  0  0  0  0
   -3.5821    0.9441    2.6062 C   0  0  0  0  0  0  0  0  0  0  0  0
   -3.0930    3.8074    1.6802 C   0  0  0  0  0  0  0  0  0  0  0  0
   -0.6247    1.7713   -2.8380 C   0  0  0  0  0  0  0  0  0  0  0  0
   -2.7229    3.7921   -1.9369 C   0  0  0  0  0  0  0  0  0  0  0  0
    0.0498    3.6461   -0.5380 C   0  0  0  0  0  0  0  0  0  0  0  0
   -1.4363   -0.0000   -0.0000 B   0  0  0  0  0  0  0  0  0  0  0  0
   -3.1977    1.2297   -0.3988 H   0  0  0  0  0  0  0  0  0  0  0  0
   -0.8898    2.5073    3.6696 H   0  0  0  0  0  0  0  0  0  0  0  0
    0.0483    2.7302    2.1612 H   0  0  0  0  0  0  0  0  0  0  0  0
   -0.2868    1.0832    2.7727 H   0  0  0  0  0  0  0  0  0  0  0  0
   -3.7611    1.3187    3.6352 H   0  0  0  0  0  0  0  0  0  0  0  0
   -3.2184   -0.0994    2.6849 H   0  0  0  0  0  0  0  0  0  0  0  0
   -4.5592    0.9235    2.0805 H   0  0  0  0  0  0  0  0  0  0  0  0
   -3.2907    4.1304    2.7235 H   0  0  0  0  0  0  0  0  0  0  0  0
   -4.0565    3.8288    1.1317 H   0  0  0  0  0  0  0  0  0  0  0  0
   -2.4173    4.5548    1.2194 H   0  0  0  0  0  0  0  0  0  0  0  0
   -0.2589    2.5374   -3.5527 H   0  0  0  0  0  0  0  0  0  0  0  0
   -1.3729    1.1479   -3.3669 H   0  0  0  0  0  0  0  0  0  0  0  0
    0.2380    1.1282   -2.5766 H   0  0  0  0  0  0  0  0  0  0  0  0
   -2.3146    4.5046   -2.6832 H   0  0  0  0  0  0  0  0  0  0  0  0
   -3.1831    4.3803   -1.1193 H   0  0  0  0  0  0  0  0  0  0  0  0
   -3.5276    3.2110   -2.4336 H   0  0  0  0  0  0  0  0  0  0  0  0
    0.5136    4.2886   -1.3146 H   0  0  0  0  0  0  0  0  0  0  0  0
    0.8441    2.9862   -0.1370 H   0  0  0  0  0  0  0  0  0  0  0  0
   -0.2955    4.3041    0.2837 H   0  0  0  0  0  0  0  0  0  0  0  0
   -2.1397   -1.3893    0.0898 C   0  0  0  0  0  0  0  0  0  0  0  0
   -2.3476   -2.0646   -1.7010 Si  0  0  0  0  0  0  0  0  0  0  0  0
   -1.3530   -2.6384    1.3160 Si  0  0  0  0  0  0  0  0  0  0  0  0
   -3.1975   -1.2300    0.3989 H   0  0  0  0  0  0  0  0  0  0  0  0
   -0.7146   -2.0974   -2.6535 C   0  0  0  0  0  0  0  0  0  0  0  0
   -3.5822   -0.9444   -2.6060 C   0  0  0  0  0  0  0  0  0  0  0  0
   -3.0927   -3.8077   -1.6800 C   0  0  0  0  0  0  0  0  0  0  0  0
   -0.6243   -1.7712    2.8379 C   0  0  0  0  0  0  0  0  0  0  0  0
   -2.7223   -3.7924    1.9369 C   0  0  0  0  0  0  0  0  0  0  0  0
    0.0503   -3.6459    0.5379 C   0  0  0  0  0  0  0  0  0  0  0  0
   -0.8898   -2.5076   -3.6696 H   0  0  0  0  0  0  0  0  0  0  0  0
    0.0484   -2.7303   -2.1612 H   0  0  0  0  0  0  0  0  0  0  0  0
   -0.2868   -1.0833   -2.7728 H   0  0  0  0  0  0  0  0  0  0  0  0
   -3.7612   -1.3191   -3.6351 H   0  0  0  0  0  0  0  0  0  0  0  0
   -3.2185    0.0991   -2.6848 H   0  0  0  0  0  0  0  0  0  0  0  0
   -4.5592   -0.9240   -2.0803 H   0  0  0  0  0  0  0  0  0  0  0  0
   -3.2905   -4.1308   -2.7233 H   0  0  0  0  0  0  0  0  0  0  0  0
   -4.0563   -3.8291   -1.1313 H   0  0  0  0  0  0  0  0  0  0  0  0
   -2.4170   -4.5550   -1.2192 H   0  0  0  0  0  0  0  0  0  0  0  0
   -0.2582   -2.5373    3.5526 H   0  0  0  0  0  0  0  0  0  0  0  0
   -1.3726   -1.1480    3.3670 H   0  0  0  0  0  0  0  0  0  0  0  0
    0.2382   -1.1279    2.5765 H   0  0  0  0  0  0  0  0  0  0  0  0
   -2.3138   -4.5048    2.6833 H   0  0  0  0  0  0  0  0  0  0  0  0
   -3.1824   -4.3807    1.1194 H   0  0  0  0  0  0  0  0  0  0  0  0
   -3.5271   -3.2114    2.4337 H   0  0  0  0  0  0  0  0  0  0  0  0
    0.5143   -4.2883    1.3145 H   0  0  0  0  0  0  0  0  0  0  0  0
    0.8446   -2.9858    0.1369 H   0  0  0  0  0  0  0  0  0  0  0  0
   -0.2949   -4.3039   -0.2838 H   0  0  0  0  0  0  0  0  0  0  0  0
  1  7  1  0  0  0  0
  1  6  1  0  0  0  0
  2 11  1  0  0  0  0
  2  5  1  0  0  0  0
  3 12  1  0  0  0  0
  4  3  1  0  0  0  0
  5 12  1  0  0  0  0
  5  1  1  0  0  0  0
  6 16  1  0  0  0  0
  6 14  1  0  0  0  0
  7 18  1  0  0  0  0
  7 17  1  0  0  0  0
  8  1  1  0  0  0  0
  8 20  1  0  0  0  0
  9 25  1  0  0  0  0
  9  2  1  0  0  0  0
 10  2  1  0  0  0  0
 10 27  1  0  0  0  0
 11 30  1  0  0  0  0
 11 31  1  0  0  0  0
 12 32  1  0  0  0  0
 13  5  1  0  0  0  0
 15  6  1  0  0  0  0
 19  7  1  0  0  0  0
 21  8  1  0  0  0  0
 22  8  1  0  0  0  0
 23  9  1  0  0  0  0
 24  9  1  0  0  0  0
 26 10  1  0  0  0  0
 28 10  1  0  0  0  0
 29 11  1  0  0  0  0
 32 35  1  0  0  0  0
 32 34  1  0  0  0  0
 33 38  1  0  0  0  0
 33 32  1  0  0  0  0
 34 40  1  0  0  0  0
 34 39  1  0  0  0  0
 36 43  1  0  0  0  0
 36 33  1  0  0  0  0
 37 47  1  0  0  0  0
 37 33  1  0  0  0  0
 38 50  1  0  0  0  0
 38 49  1  0  0  0  0
 39 52  1  0  0  0  0
 39 51  1  0  0  0  0
 40 56  1  0  0  0  0
 40 54  1  0  0  0  0
 41 57  1  0  0  0  0
 41 34  1  0  0  0  0
 42 36  1  0  0  0  0
 44 36  1  0  0  0  0
 45 37  1  0  0  0  0
 46 37  1  0  0  0  0
 48 38  1  0  0  0  0
 53 39  1  0  0  0  0
 55 40  1  0  0  0  0
 58 41  1  0  0  0  0
 59 41  1  0  0  0  0
M  END
