11
q = -1.0, confidence = 0.0

 31 33  0  0  1  0  0  0  0  0999 V2000
    1.5153   -1.7087    0.8099 O   0  0  0  0  0  0  0  0  0  0  0  0
    1.5406    0.5863    0.5795 N   0  0  0  0  0  0  0  0  0  0  0  0
    3.4873    1.7763   -0.0897 N   0  0  0  0  0  0  0  0  0  0  0  0
   -0.7957    0.3454   -0.2202 C   0  0  2  0  0  3  0  0  0  0  0  0
   -1.0089   -0.9235   -0.8794 C   0  0  0  0  0  0  0  0  0  0  0  0
   -0.5437   -1.8659   -0.5692 H   0  0  0  0  0  0  0  0  0  0  0  0
   -1.9026   -0.7087   -1.9696 C   0  0  0  0  0  0  0  0  0  0  0  0
   -2.2703   -1.4803   -2.6569 H   0  0  0  0  0  0  0  0  0  0  0  0
   -2.2486    0.6846   -2.0128 C   0  0  0  0  0  3  0  0  0  0  0  0
   -2.9186    1.1660   -2.7338 H   0  0  0  0  0  0  0  0  0  0  0  0
   -1.5642    1.3282   -0.9301 C   0  0  0  0  0  3  0  0  0  0  0  0
   -1.6316    2.3934   -0.6758 H   0  0  0  0  0  0  0  0  0  0  0  0
    0.1151    0.5757    0.9569 C   0  0  0  0  0  0  0  0  0  0  0  0
   -0.1373    1.5217    1.4646 H   0  0  0  0  0  0  0  0  0  0  0  0
   -0.0004   -0.2543    1.6779 H   0  0  0  0  0  0  0  0  0  0  0  0
    2.1615   -0.6934    0.5453 C   0  0  0  0  0  0  0  0  0  0  0  0
    3.5791   -0.6612    0.1773 C   0  0  0  0  0  0  0  0  0  0  0  0
    4.3245   -1.8588    0.1230 C   0  0  0  0  0  0  0  0  0  0  0  0
    3.8114   -2.7999    0.3698 H   0  0  0  0  0  0  0  0  0  0  0  0
    5.6714   -1.8211   -0.2351 C   0  0  0  0  0  0  0  0  0  0  0  0
    6.2584   -2.7507   -0.2770 H   0  0  0  0  0  0  0  0  0  0  0  0
    6.2849   -0.5849   -0.5460 C   0  0  0  0  0  0  0  0  0  0  0  0
    7.3484   -0.5616   -0.8295 H   0  0  0  0  0  0  0  0  0  0  0  0
    5.5582    0.6036   -0.4977 C   0  0  0  0  0  0  0  0  0  0  0  0
    6.0139    1.5755   -0.7355 H   0  0  0  0  0  0  0  0  0  0  0  0
    4.1882    0.5873   -0.1323 C   0  0  0  0  0  0  0  0  0  0  0  0
    2.2274    1.7535    0.2515 C   0  0  0  0  0  0  0  0  0  0  0  0
    1.4817    3.0591    0.2968 C   0  0  0  0  0  0  0  0  0  0  0  0
    2.1846    3.8514   -0.0115 H   0  0  0  0  0  0  0  0  0  0  0  0
    1.1082    3.2902    1.3158 H   0  0  0  0  0  0  0  0  0  0  0  0
    0.6111    3.0599   -0.3886 H   0  0  0  0  0  0  0  0  0  0  0  0
  2 13  1  0  0  0  0
  3 27  2  0  0  0  0
  4 13  1  6  0  0  0
  5  6  1  0  0  0  0
  5  4  1  0  0  0  0
  7  5  2  0  0  0  0
  8  7  1  0  0  0  0
  9  7  1  0  0  0  0
  9 11  1  0  0  0  0
 10  9  1  0  0  0  0
 11 12  1  0  0  0  0
 11  4  1  0  0  0  0
 13 14  1  0  0  0  0
 13 15  1  0  0  0  0
 16  2  1  0  0  0  0
 16  1  2  0  0  0  0
 17 16  1  0  0  0  0
 18 17  1  0  0  0  0
 18 19  1  0  0  0  0
 20 18  2  0  0  0  0
 21 20  1  0  0  0  0
 22 24  2  0  0  0  0
 22 20  1  0  0  0  0
 23 22  1  0  0  0  0
 24 26  1  0  0  0  0
 25 24  1  0  0  0  0
 26  3  1  0  0  0  0
 26 17  2  0  0  0  0
 27 28  1  0  0  0  0
 27  2  1  0  0  0  0
 28 30  1  0  0  0  0
 29 28  1  0  0  0  0
 31 28  1  0  0  0  0
M  END
