1
q = 0.0, confidence = 0.92

 72 74  0  0  0  0  0  0  0  0999 V2000
   -0.7131   -0.9545    0.2257 C   0  0  0  0  0  2  0  0  0  0  0  0
   -1.0311    0.3951    0.3054 N   0  0  0  0  0  0  0  0  0  0  0  0
   -2.3298    0.9751    0.2598 C   0  0  0  0  0  0  0  0  0  0  0  0
   -2.7874    1.4952   -0.9793 C   0  0  0  0  0  0  0  0  0  0  0  0
   -4.0718    2.0555   -1.0262 C   0  0  0  0  0  0  0  0  0  0  0  0
   -4.4395    2.4497   -1.9872 H   0  0  0  0  0  0  0  0  0  0  0  0
   -4.9061    2.1111    0.1078 C   0  0  0  0  0  0  0  0  0  0  0  0
   -4.4145    1.5922    1.3155 C   0  0  0  0  0  0  0  0  0  0  0  0
   -5.0491    1.6303    2.2157 H   0  0  0  0  0  0  0  0  0  0  0  0
   -3.1352    1.0138    1.4207 C   0  0  0  0  0  0  0  0  0  0  0  0
   -1.9379    1.4053   -2.2197 C   0  0  0  0  0  0  0  0  0  0  0  0
   -0.9685    1.9265   -2.0888 H   0  0  0  0  0  0  0  0  0  0  0  0
   -2.4563    1.8544   -3.0871 H   0  0  0  0  0  0  0  0  0  0  0  0
   -1.7033    0.3513   -2.4724 H   0  0  0  0  0  0  0  0  0  0  0  0
   -6.2993    2.6769    0.0092 C   0  0  0  0  0  0  0  0  0  0  0  0
   -6.9929    1.9309   -0.4346 H   0  0  0  0  0  0  0  0  0  0  0  0
   -6.3312    3.5744   -0.6405 H   0  0  0  0  0  0  0  0  0  0  0  0
   -6.7020    2.9524    1.0031 H   0  0  0  0  0  0  0  0  0  0  0  0
   -2.6764    0.4593    2.7451 C   0  0  0  0  0  0  0  0  0  0  0  0
   -3.2510   -0.4496    3.0126 H   0  0  0  0  0  0  0  0  0  0  0  0
   -2.8398    1.1956    3.5577 H   0  0  0  0  0  0  0  0  0  0  0  0
   -1.6072    0.1808    2.7416 H   0  0  0  0  0  0  0  0  0  0  0  0
    0.7697   -0.6809    0.2445 C   0  0  0  0  0  0  0  0  0  0  0  0
    1.6865   -1.5692    0.3577 N   0  0  0  0  0  0  0  0  0  0  0  0
    3.0468   -1.3047    0.4987 C   0  0  0  0  0  0  0  0  0  0  0  0
    3.5724   -0.4264    1.4906 C   0  0  0  0  0  0  0  0  0  0  0  0
    4.9717   -0.3139    1.6043 C   0  0  0  0  0  0  0  0  0  0  0  0
    5.3809    0.3460    2.3870 H   0  0  0  0  0  0  0  0  0  0  0  0
    5.8596   -0.9997    0.7590 C   0  0  0  0  0  0  0  0  0  0  0  0
    5.3103   -1.8731   -0.2028 C   0  0  0  0  0  0  0  0  0  0  0  0
    5.9844   -2.4426   -0.8635 H   0  0  0  0  0  0  0  0  0  0  0  0
    3.9298   -2.0679   -0.3267 C   0  0  0  0  0  0  0  0  0  0  0  0
    2.6916    0.3499    2.4373 C   0  0  0  0  0  0  0  0  0  0  0  0
    2.3677    1.3140    1.9916 H   0  0  0  0  0  0  0  0  0  0  0  0
    3.2357    0.5829    3.3731 H   0  0  0  0  0  0  0  0  0  0  0  0
    1.7704   -0.2069    2.7014 H   0  0  0  0  0  0  0  0  0  0  0  0
    7.3521   -0.8243    0.8759 C   0  0  0  0  0  0  0  0  0  0  0  0
    7.8687   -1.8010    0.9801 H   0  0  0  0  0  0  0  0  0  0  0  0
    7.6241   -0.1995    1.7485 H   0  0  0  0  0  0  0  0  0  0  0  0
    7.7716   -0.3377   -0.0303 H   0  0  0  0  0  0  0  0  0  0  0  0
    3.3557   -3.0506   -1.3116 C   0  0  0  0  0  0  0  0  0  0  0  0
    2.7241   -2.5535   -2.0776 H   0  0  0  0  0  0  0  0  0  0  0  0
    2.6910   -3.7712   -0.7928 H   0  0  0  0  0  0  0  0  0  0  0  0
    4.1560   -3.6083   -1.8341 H   0  0  0  0  0  0  0  0  0  0  0  0
    0.3853    0.8763    0.1175 B   0  0  0  0  0  0  0  0  0  0  0  0
    0.9319    2.1365   -0.1945 N   0  0  0  0  0  0  0  0  0  0  0  0
    0.3222    3.6584    0.5718 Si  0  0  0  0  0  0  0  0  0  0  0  0
   -0.4138    3.2379    2.2548 C   0  0  0  0  0  0  0  0  0  0  0  0
   -1.3953    2.7382    2.1573 H   0  0  0  0  0  0  0  0  0  0  0  0
   -0.5726    4.1782    2.8222 H   0  0  0  0  0  0  0  0  0  0  0  0
    0.2585    2.5906    2.8531 H   0  0  0  0  0  0  0  0  0  0  0  0
   -0.9688    4.5410   -0.4812 C   0  0  0  0  0  0  0  0  0  0  0  0
   -0.5999    4.7629   -1.5013 H   0  0  0  0  0  0  0  0  0  0  0  0
   -1.2358    5.5045    0.0011 H   0  0  0  0  0  0  0  0  0  0  0  0
   -1.8937    3.9367   -0.5656 H   0  0  0  0  0  0  0  0  0  0  0  0
    1.8022    4.7958    0.8719 C   0  0  0  0  0  0  0  0  0  0  0  0
    2.5527    4.3075    1.5257 H   0  0  0  0  0  0  0  0  0  0  0  0
    1.4422    5.7069    1.3934 H   0  0  0  0  0  0  0  0  0  0  0  0
    2.3117    5.1233   -0.0550 H   0  0  0  0  0  0  0  0  0  0  0  0
    2.2343    2.1765   -1.4614 Si  0  0  0  0  0  0  0  0  0  0  0  0
    1.8172    3.5918   -2.6472 C   0  0  0  0  0  0  0  0  0  0  0  0
    0.8267    3.4371   -3.1210 H   0  0  0  0  0  0  0  0  0  0  0  0
    2.5771    3.6089   -3.4560 H   0  0  0  0  0  0  0  0  0  0  0  0
    1.8190    4.5907   -2.1692 H   0  0  0  0  0  0  0  0  0  0  0  0
    3.9519    2.4205   -0.7314 C   0  0  0  0  0  0  0  0  0  0  0  0
    4.0429    3.3617   -0.1563 H   0  0  0  0  0  0  0  0  0  0  0  0
    4.6926    2.4529   -1.5577 H   0  0  0  0  0  0  0  0  0  0  0  0
    4.2243    1.5731   -0.0714 H   0  0  0  0  0  0  0  0  0  0  0  0
    2.1951    0.5755   -2.4543 C   0  0  0  0  0  0  0  0  0  0  0  0
    2.6316   -0.2662   -1.8853 H   0  0  0  0  0  0  0  0  0  0  0  0
    2.8143    0.7162   -3.3647 H   0  0  0  0  0  0  0  0  0  0  0  0
    1.1760    0.2879   -2.7819 H   0  0  0  0  0  0  0  0  0  0  0  0
  1 23  1  0  0  0  0
  1  2  1  0  0  0  0
  3  2  1  0  0  0  0
  3 10  1  0  0  0  0
  4  3  2  0  0  0  0
  5  4  1  0  0  0  0
  5  7  2  0  0  0  0
  6  5  1  0  0  0  0
  7  8  1  0  0  0  0
  8 10  2  0  0  0  0
  8  9  1  0  0  0  0
 10 19  1  0  0  0  0
 11 12  1  0  0  0  0
 11  4  1  0  0  0  0
 13 11  1  0  0  0  0
 14 11  1  0  0  0  0
 15  7  1  0  0  0  0
 15 18  1  0  0  0  0
 16 15  1  0  0  0  0
 17 15  1  0  0  0  0
 19 20  1  0  0  0  0
 19 21  1  0  0  0  0
 22 19  1  0  0  0  0
 23 24  2  0  0  0  0
 24 25  1  0  0  0  0
 25 26  1  0  0  0  0
 26 27  2  0  0  0  0
 26 33  1  0  0  0  0
 27 28  1  0  0  0  0
 29 37  1  0  0  0  0
 29 27  1  0  0  0  0
 30 29  2  0  0  0  0
 31 30  1  0  0  0  0
 32 30  1  0  0  0  0
 32 25  2  0  0  0  0
 33 36  1  0  0  0  0
 33 35  1  0  0  0  0
 34 33  1  0  0  0  0
 37 38  1  0  0  0  0
 37 39  1  0  0  0  0
 40 37  1  0  0  0  0
 41 43  1  0  0  0  0
 41 32  1  0  0  0  0
 42 41  1  0  0  0  0
 44 41  1  0  0  0  0
 45 23  1  0  0  0  0
 45  2  1  0  0  0  0
 46 45  1  0  0  0  0
 46 47  1  0  0  0  0
 47 56  1  0  0  0  0
 47 48  1  0  0  0  0
 48 50  1  0  0  0  0
 48 51  1  0  0  0  0
 49 48  1  0  0  0  0
 52 54  1  0  0  0  0
 52 47  1  0  0  0  0
 53 52  1  0  0  0  0
 55 52  1  0  0  0  0
 56 58  1  0  0  0  0
 56 57  1  0  0  0  0
 59 56  1  0  0  0  0
 60 65  1  0  0  0  0
 60 46  1  0  0  0  0
 61 64  1  0  0  0  0
 61 60  1  0  0  0  0
 62 61  1  0  0  0  0
 63 61  1  0  0  0  0
 65 66  1  0  0  0  0
 65 68  1  0  0  0  0
 67 65  1  0  0  0  0
 69 70  1  0  0  0  0
 69 60  1  0  0  0  0
 71 69  1  0  0  0  0
 72 69  1  0  0  0  0
M  END
