6
q = -1.0, confidence = 0.024

 13 13  0  0  0  0  0  0  0  0999 V2000
   -3.8822   -1.3743   -2.2067 Br  0  0  0  0  0  0  0  0  0  0  0  0
   -1.8956   -0.8890    1.6909 S   0  0  0  0  0  0  0  0  0  0  0  0
   -1.5608   -0.6052   -0.8539 N   0  0  0  0  0  0  0  0  0  0  0  0
   -4.5098   -1.8325    2.5106 O   0  0  0  0  0  0  0  0  0  0  0  0
   -5.4883   -2.1133    0.4731 O   0  0  0  0  0  0  0  0  0  0  0  0
   -0.9297   -0.4352    0.2949 C   0  0  0  0  0  3  0  0  0  0  0  0
   -2.8199   -1.0896   -0.6782 C   0  0  0  0  0  0  0  0  0  0  0  0
   -3.2291   -1.3209    0.6346 C   0  0  0  0  0  0  0  0  0  0  0  0
   -4.5199   -1.7952    1.1423 C   0  0  0  0  0  0  0  0  0  0  0  0
   -5.7278   -2.2770    3.1100 C   0  0  0  0  0  0  0  0  0  0  0  0
   -6.5727   -1.6125    2.8354 H   0  0  0  0  0  0  0  0  0  0  0  0
   -5.5596   -2.2534    4.2016 H   0  0  0  0  0  0  0  0  0  0  0  0
   -5.9827   -3.3054    2.7812 H   0  0  0  0  0  0  0  0  0  0  0  0
  1  7  1  0  0  0  0
  3  7  1  0  0  0  0
  3  6  2  0  0  0  0
  4 10  1  0  0  0  0
  5  9  2  0  0  0  0
  6  2  1  0  0  0  0
  7  8  2  0  0  0  0
  8  9  1  0  0  0  0
  8  2  1  0  0  0  0
  9  4  1  0  0  0  0
 10 12  1  0  0  0  0
 11 10  1  0  0  0  0
 13 10  1  0  0  0  0
M  END
