5
q = -1.0

 14 14  0  0  0  0  0  0  0  0999 V2000
    0.0002    0.8913   -3.1063 Br  0  0  0  0  0  0  0  0  0  0  0  0
    0.0020    2.4494    1.0107 S   0  0  0  0  0  0  0  0  0  0  0  0
    0.0055    6.1353   -0.5042 O   0  0  0  0  0  0  0  0  0  0  0  0
    0.0051    5.3184    1.6230 O   0  0  0  0  0  0  0  0  0  0  0  0
    0.0009    1.2451   -0.2352 C   0  0  0  0  0  3  0  0  0  0  0  0
    0.0013    1.8799   -1.4773 C   0  0  0  0  0  0  0  0  0  0  0  0
    0.0026    3.2995   -1.4401 C   0  0  0  0  0  0  0  0  0  0  0  0
    0.0032    3.9618   -2.3153 H   0  0  0  0  0  0  0  0  0  0  0  0
    0.0031    3.7750   -0.1342 C   0  0  0  0  0  0  0  0  0  0  0  0
    0.0047    5.1849    0.2642 C   0  0  0  0  0  0  0  0  0  0  0  0
    0.0067    6.6638    2.0986 C   0  0  0  0  0  0  0  0  0  0  0  0
    0.9041    7.2117    1.7441 H   0  0  0  0  0  0  0  0  0  0  0  0
    0.0065    6.6012    3.2017 H   0  0  0  0  0  0  0  0  0  0  0  0
   -0.8894    7.2138    1.7440 H   0  0  0  0  0  0  0  0  0  0  0  0
  1  6  1  0  0  0  0
  3 10  2  0  0  0  0
  4 11  1  0  0  0  0
  5  2  1  0  0  0  0
  6  7  1  0  0  0  0
  6  5  2  0  0  0  0
  7  9  2  0  0  0  0
  8  7  1  0  0  0  0
  9 10  1  0  0  0  0
  9  2  1  0  0  0  0
 10  4  1  0  0  0  0
 11 13  1  0  0  0  0
 12 11  1  0  0  0  0
 14 11  1  0  0  0  0
M  END
