4
q = 0.0, confidence = 0.968

 12 11  0  0  0  0  0  0  0  0999 V2000
   -5.6135   -0.0578    0.0125 O   0  0  0  0  0  0  0  0  0  0  0  0
   -3.5665    0.9275   -0.0204 O   0  0  0  0  0  0  0  0  0  0  0  0
   -2.3591   -1.6405   -0.0197 N   0  0  0  0  0  2  0  0  0  0  0  0
   -1.2923   -1.0546   -0.0135 C   0  0  0  0  0  1  0  0  0  0  0  0
   -3.7601   -1.5171    0.0097 C   0  0  0  0  0  0  0  0  0  0  0  0
   -4.2570   -0.0669   -0.0018 C   0  0  0  0  0  0  0  0  0  0  0  0
   -6.2133    1.2441    0.0057 C   0  0  0  0  0  0  0  0  0  0  0  0
   -4.1935   -2.0104    0.9105 H   0  0  0  0  0  0  0  0  0  0  0  0
   -4.2330   -2.0390   -0.8537 H   0  0  0  0  0  0  0  0  0  0  0  0
   -7.3054    1.0798    0.0245 H   0  0  0  0  0  0  0  0  0  0  0  0
   -5.8945    1.8300    0.8915 H   0  0  0  0  0  0  0  0  0  0  0  0
   -5.9225    1.8076   -0.9039 H   0  0  0  0  0  0  0  0  0  0  0  0
  2  6  2  0  0  0  0
  3  4  1  0  0  0  0
  3  5  1  0  0  0  0
  5  8  1  0  0  0  0
  6  5  1  0  0  0  0
  6  1  1  0  0  0  0
  7  1  1  0  0  0  0
  7 10  1  0  0  0  0
  7 11  1  0  0  0  0
  9  5  1  0  0  0  0
 12  7  1  0  0  0  0
M  END
