4
q = 0.0, confidence = 1.0

 21 22  0  0  0  0  0  0  0  0999 V2000
    0.5010    1.4979   -0.0229 O   0  0  0  0  0  0  0  0  0  0  0  0
    3.9417   -1.5776   -0.0089 O   0  0  0  0  0  0  0  0  0  0  0  0
    1.0472   -0.6219   -0.0302 N   0  0  0  0  0  0  0  0  0  0  0  0
   -0.0211    0.2302   -0.0268 C   0  0  0  0  0  2  0  0  0  0  0  0
    0.9470   -2.0779   -0.0143 C   0  0  0  0  0  0  0  0  0  0  0  0
    2.2515    0.0989   -0.0163 C   0  0  0  0  0  0  0  0  0  0  0  0
    1.8733    1.4471   -0.0142 C   0  0  0  0  0  0  0  0  0  0  0  0
    2.7728    2.5143   -0.0051 C   0  0  0  0  0  0  0  0  0  0  0  0
    4.1277    2.1549    0.0053 C   0  0  0  0  0  0  0  0  0  0  0  0
    4.5472    0.8067    0.0052 C   0  0  0  0  0  0  0  0  0  0  0  0
    3.6214   -0.2570   -0.0064 C   0  0  0  0  0  0  0  0  0  0  0  0
    5.3144   -1.9389    0.0118 C   0  0  0  0  0  0  0  0  0  0  0  0
    0.1313   -2.3970   -0.6846 H   0  0  0  0  0  0  0  0  0  0  0  0
    1.9054   -2.4999   -0.3563 H   0  0  0  0  0  0  0  0  0  0  0  0
    0.7319   -2.4407    1.0092 H   0  0  0  0  0  0  0  0  0  0  0  0
    2.4302    3.5567   -0.0048 H   0  0  0  0  0  0  0  0  0  0  0  0
    4.8947    2.9430    0.0138 H   0  0  0  0  0  0  0  0  0  0  0  0
    5.6227    0.5886    0.0136 H   0  0  0  0  0  0  0  0  0  0  0  0
    5.3434   -3.0435    0.0123 H   0  0  0  0  0  0  0  0  0  0  0  0
    5.8506   -1.5596   -0.8855 H   0  0  0  0  0  0  0  0  0  0  0  0
    5.8223   -1.5596    0.9254 H   0  0  0  0  0  0  0  0  0  0  0  0
  1  7  1  0  0  0  0
  2 11  1  0  0  0  0
  2 12  1  0  0  0  0
  3  4  1  0  0  0  0
  3  6  1  0  0  0  0
  3  5  1  0  0  0  0
  4  1  1  0  0  0  0
  5 15  1  0  0  0  0
  6  7  2  0  0  0  0
  6 11  1  0  0  0  0
  7  8  1  0  0  0  0
  8 16  1  0  0  0  0
  8  9  2  0  0  0  0
  9 17  1  0  0  0  0
 10  9  1  0  0  0  0
 10 18  1  0  0  0  0
 11 10  2  0  0  0  0
 12 19  1  0  0  0  0
 12 21  1  0  0  0  0
 13  5  1  0  0  0  0
 14  5  1  0  0  0  0
 20 12  1  0  0  0  0
M  END
