1
q = -1.0

 20 21  0  0  0  0  0  0  0  0999 V2000
    2.0578   -2.1923    0.1183 C   0  0  0  0  0  3  0  0  0  0  0  0
    3.3706   -1.6776    0.1001 C   0  0  0  0  0  0  0  0  0  0  0  0
    3.9000   -0.3133    0.0702 C   0  0  0  0  0  0  0  0  0  0  0  0
    3.1800    0.7539    0.6581 C   0  0  0  0  0  0  0  0  0  0  0  0
    2.2263    0.5370    1.1629 H   0  0  0  0  0  0  0  0  0  0  0  0
    3.6652    2.0644    0.6081 C   0  0  0  0  0  0  0  0  0  0  0  0
    3.0766    2.8714    1.0738 H   0  0  0  0  0  0  0  0  0  0  0  0
    4.8939    2.3717   -0.0142 C   0  0  0  0  0  0  0  0  0  0  0  0
    5.6139    1.3079   -0.5942 C   0  0  0  0  0  0  0  0  0  0  0  0
    6.5703    1.5162   -1.1001 H   0  0  0  0  0  0  0  0  0  0  0  0
    5.1291   -0.0055   -0.5585 C   0  0  0  0  0  0  0  0  0  0  0  0
    5.7004   -0.8022   -1.0605 H   0  0  0  0  0  0  0  0  0  0  0  0
    5.4273    3.7820   -0.0298 C   0  0  0  0  0  0  0  0  0  0  0  0
    4.6120    4.5262   -0.1340 H   0  0  0  0  0  0  0  0  0  0  0  0
    6.1458    3.9394   -0.8582 H   0  0  0  0  0  0  0  0  0  0  0  0
    5.9607    4.0199    0.9163 H   0  0  0  0  0  0  0  0  0  0  0  0
    2.1602   -3.5686    0.1063 N   0  0  0  0  0  0  0  0  0  0  0  0
    3.4188   -3.9335    0.0879 N   0  0  0  0  0  0  0  0  0  0  0  0
    4.1554   -2.8007    0.0717 N   0  0  0  0  0  0  0  0  0  0  0  0
    5.1744   -2.8636    0.1048 H   0  0  0  0  0  0  0  0  0  0  0  0
  2  1  2  0  0  0  0
  3  2  1  0  0  0  0
  3  4  1  0  0  0  0
  4  5  1  0  0  0  0
  6  4  2  0  0  0  0
  6  7  1  0  0  0  0
  8  6  1  0  0  0  0
  9 11  1  0  0  0  0
  9  8  2  0  0  0  0
 10  9  1  0  0  0  0
 11  3  2  0  0  0  0
 12 11  1  0  0  0  0
 13  8  1  0  0  0  0
 13 16  1  0  0  0  0
 14 13  1  0  0  0  0
 15 13  1  0  0  0  0
 17  1  1  0  0  0  0
 18 17  2  0  0  0  0
 19 18  1  0  0  0  0
 19  2  1  0  0  0  0
 19 20  1  0  0  0  0
M  END
