2
q = -1.0

 15 14  0  0  0  0  0  0  0  0999 V2000
   -2.2153   -0.0585    1.1128 O   0  0  0  0  0  0  0  0  0  0  0  0
   -2.0079   -0.2703   -0.0798 C   0  0  0  0  0  3  0  0  0  0  0  0
   -2.9878    0.2900   -1.1152 C   0  0  0  0  0  0  0  0  0  0  0  0
   -4.2517    0.9256   -0.5341 C   0  0  0  0  0  0  0  0  0  0  0  0
   -5.2282   -0.0859    0.0755 C   0  0  0  0  0  0  0  0  0  0  0  0
   -6.4891    0.5602    0.6495 C   0  0  0  0  0  0  0  0  0  0  0  0
   -2.4029    1.0329   -1.7010 H   0  0  0  0  0  0  0  0  0  0  0  0
   -3.2238   -0.5194   -1.8396 H   0  0  0  0  0  0  0  0  0  0  0  0
   -4.7676    1.5015   -1.3338 H   0  0  0  0  0  0  0  0  0  0  0  0
   -3.9520    1.6602    0.2439 H   0  0  0  0  0  0  0  0  0  0  0  0
   -5.5092   -0.8341   -0.7002 H   0  0  0  0  0  0  0  0  0  0  0  0
   -4.6989   -0.6473    0.8744 H   0  0  0  0  0  0  0  0  0  0  0  0
   -6.2367    1.2830    1.4534 H   0  0  0  0  0  0  0  0  0  0  0  0
   -7.1790   -0.1925    1.0823 H   0  0  0  0  0  0  0  0  0  0  0  0
   -7.0499    1.1186   -0.1299 H   0  0  0  0  0  0  0  0  0  0  0  0
  2  1  2  0  0  0  0
  3  4  1  0  0  0  0
  3  2  1  0  0  0  0
  4  5  1  0  0  0  0
  4 10  1  0  0  0  0
  5  6  1  0  0  0  0
  5 12  1  0  0  0  0
  6 14  1  0  0  0  0
  6 13  1  0  0  0  0
  7  3  1  0  0  0  0
  8  3  1  0  0  0  0
  9  4  1  0  0  0  0
 11  5  1  0  0  0  0
 15  6  1  0  0  0  0
M  END
