7
q = -1.0

 32 33  0  0  1  0  0  0  0  0999 V2000
    1.1076    0.4648    1.9840 O   0  0  0  0  0  0  0  0  0  0  0  0
    2.8364    0.4850   -0.6899 C   0  0  0  0  0  0  0  0  0  0  0  0
    2.5488   -0.5181   -1.0695 H   0  0  0  0  0  0  0  0  0  0  0  0
    3.2958    1.0145   -1.5536 H   0  0  0  0  0  0  0  0  0  0  0  0
    4.5027   -1.8015   -0.7360 O   0  0  0  0  0  0  0  0  0  0  0  0
    4.8224   -0.9015    0.0368 C   0  0  0  0  0  0  0  0  0  0  0  0
   -0.7878   -1.6244    0.9480 C   0  0  0  0  0  3  0  0  0  0  0  0
   -0.6846   -1.8307    2.0188 H   0  0  0  0  0  0  0  0  0  0  0  0
   -0.4836   -0.6383   -1.1522 C   0  0  0  0  0  0  0  0  0  0  0  0
   -0.0929   -0.5810    0.2320 C   0  0  0  0  0  0  0  0  0  0  0  0
    0.1280    0.2756   -2.1697 C   0  0  0  0  0  0  0  0  0  0  0  0
   -0.6029    0.5380   -2.9605 H   0  0  0  0  0  0  0  0  0  0  0  0
    0.9467   -0.2819   -2.6756 H   0  0  0  0  0  0  0  0  0  0  0  0
    0.8537    0.4164    0.7834 C   0  0  0  0  0  0  0  0  0  0  0  0
    0.6787    1.5428   -1.4987 C   0  0  0  0  0  0  0  0  0  0  0  0
   -0.1721    2.1861   -1.1917 H   0  0  0  0  0  0  0  0  0  0  0  0
    1.2609    2.1315   -2.2382 H   0  0  0  0  0  0  0  0  0  0  0  0
    6.0387   -0.8729    0.6648 N   0  0  0  0  0  0  0  0  0  0  0  0
    6.6677   -1.6655    0.5338 H   0  0  0  0  0  0  0  0  0  0  0  0
    6.2802   -0.1595    1.3501 H   0  0  0  0  0  0  0  0  0  0  0  0
    1.5760    1.2937   -0.2594 C   0  0  2  0  0  0  0  0  0  0  0  0
    1.9641    2.6353    0.3739 C   0  0  0  0  0  0  0  0  0  0  0  0
    2.4814    2.4823    1.3390 H   0  0  0  0  0  0  0  0  0  0  0  0
    1.0626    3.2478    0.5769 H   0  0  0  0  0  0  0  0  0  0  0  0
    2.6258    3.2101   -0.3055 H   0  0  0  0  0  0  0  0  0  0  0  0
   -1.4157   -1.7166   -1.2955 C   0  0  0  0  0  0  0  0  0  0  0  0
   -1.9055   -2.0289   -2.2252 H   0  0  0  0  0  0  0  0  0  0  0  0
    3.8876    0.2586    0.3947 C   0  0  0  0  0  0  0  0  0  0  0  0
    4.4734    1.1781    0.6016 H   0  0  0  0  0  0  0  0  0  0  0  0
    3.3920   -0.0072    1.3551 H   0  0  0  0  0  0  0  0  0  0  0  0
   -1.5925   -2.3206    0.0011 C   0  0  0  0  0  0  0  0  0  0  0  0
   -2.2495   -3.1710    0.2211 H   0  0  0  0  0  0  0  0  0  0  0  0
  2 28  1  0  0  0  0
  3  2  1  0  0  0  0
  4  2  1  0  0  0  0
  5  6  2  0  0  0  0
  6 28  1  0  0  0  0
  6 18  1  0  0  0  0
  7  8  1  0  0  0  0
  9 10  2  0  0  0  0
 10 14  1  0  0  0  0
 10  7  1  0  0  0  0
 11 15  1  0  0  0  0
 11  9  1  0  0  0  0
 12 11  1  0  0  0  0
 13 11  1  0  0  0  0
 14  1  2  0  0  0  0
 15 16  1  0  0  0  0
 15 21  1  0  0  0  0
 17 15  1  0  0  0  0
 18 20  1  0  0  0  0
 19 18  1  0  0  0  0
 21  2  1  6  0  0  0
 21 22  1  0  0  0  0
 21 14  1  0  0  0  0
 22 24  1  0  0  0  0
 22 23  1  0  0  0  0
 25 22  1  0  0  0  0
 26  9  1  0  0  0  0
 26 31  2  0  0  0  0
 27 26  1  0  0  0  0
 28 29  1  0  0  0  0
 28 30  1  0  0  0  0
 31 32  1  0  0  0  0
 31  7  1  0  0  0  0
M  END
