1
q = -1.0

 54 55  0  0  0  0  0  0  0  0999 V2000
   -4.6145   -0.2054   -0.1589 C   0  0  0  0  0  3  0  0  0  0  0  0
   -5.1250   -0.8476   -0.8855 H   0  0  0  0  0  0  0  0  0  0  0  0
    2.3122   -1.3616   -1.5098 O   0  0  0  0  0  0  0  0  0  0  0  0
   -0.1759    2.1881   -0.2360 O   0  0  0  0  0  0  0  0  0  0  0  0
    2.4663    3.0962    0.0251 O   0  0  0  0  0  0  0  0  0  0  0  0
    3.7164   -3.2090   -0.1328 O   0  0  0  0  0  0  0  0  0  0  0  0
   -3.0799   -0.0739   -2.6801 O   0  0  0  0  0  0  0  0  0  0  0  0
    1.3632    1.1521   -1.5969 N   0  0  0  0  0  0  0  0  0  0  0  0
    1.4000    0.5494   -2.4234 H   0  0  0  0  0  0  0  0  0  0  0  0
    2.1110    5.2583    0.6911 O   0  0  0  0  0  0  0  0  0  0  0  0
    2.3305    0.8353   -0.6234 C   0  0  0  0  0  0  0  0  0  0  0  0
   -2.9278    0.8088   -1.8378 C   0  0  0  0  0  0  0  0  0  0  0  0
   -2.2051    2.1067   -2.1980 C   0  0  0  0  0  0  0  0  0  0  0  0
   -2.7504    2.5048   -3.0784 H   0  0  0  0  0  0  0  0  0  0  0  0
   -2.2695    2.8529   -1.3849 H   0  0  0  0  0  0  0  0  0  0  0  0
    3.7478   -0.8813    0.4189 C   0  0  0  0  0  0  0  0  0  0  0  0
    0.1527    1.7533   -1.3404 C   0  0  0  0  0  0  0  0  0  0  0  0
    4.3264   -2.2422    0.6045 C   0  0  0  0  0  0  0  0  0  0  0  0
   -3.5129    0.6764   -0.4784 C   0  0  0  0  0  0  0  0  0  0  0  0
    5.2512   -2.4896    1.3634 O   0  0  0  0  0  0  0  0  0  0  0  0
    2.8677    1.8283    0.2383 C   0  0  0  0  0  0  0  0  0  0  0  0
   -3.1302    1.3462    0.7400 C   0  0  0  0  0  0  0  0  0  0  0  0
   -2.2780    2.0328    0.8265 H   0  0  0  0  0  0  0  0  0  0  0  0
    3.8070    1.4404    1.2198 C   0  0  0  0  0  0  0  0  0  0  0  0
    4.2388    2.1817    1.9043 H   0  0  0  0  0  0  0  0  0  0  0  0
    2.7911   -0.4978   -0.5570 C   0  0  0  0  0  0  0  0  0  0  0  0
    2.8013    4.1132    0.9892 C   0  0  0  0  0  0  0  0  0  0  0  0
    2.5598    3.7151    2.0085 H   0  0  0  0  0  0  0  0  0  0  0  0
    3.8868    4.3477    0.9182 H   0  0  0  0  0  0  0  0  0  0  0  0
   -3.9966    0.9065    1.7833 C   0  0  0  0  0  0  0  0  0  0  0  0
   -3.9572    1.2242    2.8318 H   0  0  0  0  0  0  0  0  0  0  0  0
   -4.9216   -0.0479    1.2218 C   0  0  0  0  0  0  0  0  0  0  0  0
   -5.7170   -0.5692    1.7678 H   0  0  0  0  0  0  0  0  0  0  0  0
    4.2282    0.1135    1.2964 C   0  0  0  0  0  0  0  0  0  0  0  0
    4.9751   -0.1959    2.0414 H   0  0  0  0  0  0  0  0  0  0  0  0
   -0.7380    1.8956   -2.5754 C   0  0  0  0  0  0  0  0  0  0  0  0
   -0.3640    2.7727   -3.1462 H   0  0  0  0  0  0  0  0  0  0  0  0
   -0.6354    1.0182   -3.2473 H   0  0  0  0  0  0  0  0  0  0  0  0
    1.2090   -2.2086   -1.1348 C   0  0  0  0  0  0  0  0  0  0  0  0
    1.4180   -3.1946   -1.6049 H   0  0  0  0  0  0  0  0  0  0  0  0
    1.1730   -2.2963   -0.0328 H   0  0  0  0  0  0  0  0  0  0  0  0
    4.2555   -4.5235    0.0365 C   0  0  0  0  0  0  0  0  0  0  0  0
    3.6554   -5.1854   -0.6136 H   0  0  0  0  0  0  0  0  0  0  0  0
    4.1842   -4.8494    1.0940 H   0  0  0  0  0  0  0  0  0  0  0  0
    5.3232   -4.5555   -0.2605 H   0  0  0  0  0  0  0  0  0  0  0  0
   -0.0111   -1.6925   -1.5544 O   0  0  0  0  0  0  0  0  0  0  0  0
    0.7161    5.1839    0.9800 C   0  0  0  0  0  0  0  0  0  0  0  0
    0.2753    6.1539    0.6830 H   0  0  0  0  0  0  0  0  0  0  0  0
    0.5452    5.0298    2.0718 H   0  0  0  0  0  0  0  0  0  0  0  0
    0.2270    4.3552    0.4266 H   0  0  0  0  0  0  0  0  0  0  0  0
   -0.3202   -1.9398   -2.9196 C   0  0  0  0  0  0  0  0  0  0  0  0
   -1.3223   -1.5127   -3.1096 H   0  0  0  0  0  0  0  0  0  0  0  0
   -0.3426   -3.0327   -3.1343 H   0  0  0  0  0  0  0  0  0  0  0  0
    0.4209   -1.4659   -3.6044 H   0  0  0  0  0  0  0  0  0  0  0  0
  1 32  1  0  0  0  0
  2  1  1  0  0  0  0
  3 39  1  0  0  0  0
  3 26  1  0  0  0  0
  5 21  1  0  0  0  0
  5 27  1  0  0  0  0
  6 42  1  0  0  0  0
  6 18  1  0  0  0  0
  7 12  2  0  0  0  0
  8 17  1  0  0  0  0
  8 11  1  0  0  0  0
  9  8  1  0  0  0  0
 10 47  1  0  0  0  0
 10 27  1  0  0  0  0
 11 26  2  0  0  0  0
 11 21  1  0  0  0  0
 12 19  1  0  0  0  0
 13 12  1  0  0  0  0
 13 15  1  0  0  0  0
 14 13  1  0  0  0  0
 16 18  1  0  0  0  0
 16 34  2  0  0  0  0
 17  4  2  0  0  0  0
 18 20  2  0  0  0  0
 19  1  1  0  0  0  0
 19 22  2  0  0  0  0
 21 24  2  0  0  0  0
 22 23  1  0  0  0  0
 22 30  1  0  0  0  0
 24 34  1  0  0  0  0
 24 25  1  0  0  0  0
 26 16  1  0  0  0  0
 27 28  1  0  0  0  0
 29 27  1  0  0  0  0
 30 31  1  0  0  0  0
 32 33  1  0  0  0  0
 32 30  2  0  0  0  0
 34 35  1  0  0  0  0
 36 13  1  0  0  0  0
 36 17  1  0  0  0  0
 37 36  1  0  0  0  0
 38 36  1  0  0  0  0
 39 41  1  0  0  0  0
 40 39  1  0  0  0  0
 42 44  1  0  0  0  0
 43 42  1  0  0  0  0
 45 42  1  0  0  0  0
 46 39  1  0  0  0  0
 47 49  1  0  0  0  0
 48 47  1  0  0  0  0
 50 47  1  0  0  0  0
 51 46  1  0  0  0  0
 52 51  1  0  0  0  0
 53 51  1  0  0  0  0
 54 51  1  0  0  0  0
M  END
