12
q = 0.0, confidence = 0.922

 53 54  0  0  1  0  0  0  0  0999 V2000
    1.4982   -1.0942    1.0923 O   0  0  0  0  0  0  0  0  0  0  0  0
    0.9252    2.4509    0.4803 O   0  0  0  0  0  0  0  0  0  0  0  0
    2.2072    3.6518    1.9339 O   0  0  0  0  0  0  0  0  0  0  0  0
    3.7508    2.0053   -0.2726 O   0  0  0  0  0  0  0  0  0  0  0  0
    2.7440    3.3212   -1.8381 O   0  0  0  0  0  0  0  0  0  0  0  0
    4.1795   -0.6249   -1.3393 O   0  0  0  0  0  0  0  0  0  0  0  0
    6.0881   -0.3336   -0.1232 O   0  0  0  0  0  0  0  0  0  0  0  0
    3.9233   -2.8238    1.2085 O   0  0  0  0  0  0  0  0  0  0  0  0
    5.4543   -3.5801   -0.3023 O   0  0  0  0  0  0  0  0  0  0  0  0
   -2.2316    0.0809    2.7912 N   0  0  0  0  0  0  0  0  0  0  0  0
   -0.3195    0.1697    1.7794 N   0  0  0  0  0  0  0  0  0  0  0  0
   -1.6565   -0.1163    1.5589 C   0  0  0  0  0  2  0  0  0  0  0  0
   -1.2862    0.4597    3.7384 C   0  0  0  0  0  0  0  0  0  0  0  0
   -0.0791    0.5098    3.1052 C   0  0  0  0  0  0  0  0  0  0  0  0
   -3.6519   -0.0076    3.1005 C   0  0  0  0  0  0  0  0  0  0  0  0
    0.7237    0.0491    0.7911 C   0  0  1  0  0  0  0  0  0  0  0  0
    1.6727    1.2579    0.7552 C   0  0  1  0  0  0  0  0  0  0  0  0
    2.7118    1.0202   -0.3529 C   0  0  2  0  0  0  0  0  0  0  0  0
    3.3762   -0.3467   -0.1861 C   0  0  1  0  0  0  0  0  0  0  0  0
    2.3198   -1.4493   -0.0214 C   0  0  1  0  0  0  0  0  0  0  0  0
    2.8983   -2.8351    0.2003 C   0  0  0  0  0  0  0  0  0  0  0  0
    1.3471    3.6148    1.0786 C   0  0  0  0  0  0  0  0  0  0  0  0
    0.6366    4.7967    0.4772 C   0  0  0  0  0  0  0  0  0  0  0  0
    3.6517    3.1197   -1.0530 C   0  0  0  0  0  0  0  0  0  0  0  0
    4.7917    4.0554   -0.7480 C   0  0  0  0  0  0  0  0  0  0  0  0
    5.5413   -0.6287   -1.1675 C   0  0  0  0  0  0  0  0  0  0  0  0
    6.2279   -1.1090   -2.4151 C   0  0  0  0  0  0  0  0  0  0  0  0
    5.1800   -3.1874    0.8179 C   0  0  0  0  0  0  0  0  0  0  0  0
    6.1704   -2.9801    1.9312 C   0  0  0  0  0  0  0  0  0  0  0  0
   -1.5571    0.6509    4.7805 H   0  0  0  0  0  0  0  0  0  0  0  0
    0.9217    0.7371    3.4805 H   0  0  0  0  0  0  0  0  0  0  0  0
   -4.1390    0.9809    2.9779 H   0  0  0  0  0  0  0  0  0  0  0  0
   -3.7667   -0.3370    4.1499 H   0  0  0  0  0  0  0  0  0  0  0  0
   -4.1126   -0.7591    2.4293 H   0  0  0  0  0  0  0  0  0  0  0  0
    0.2061   -0.0810   -0.1842 H   0  0  0  0  0  0  0  0  0  0  0  0
    2.2030    1.3796    1.7216 H   0  0  0  0  0  0  0  0  0  0  0  0
    2.2148    1.0970   -1.3431 H   0  0  0  0  0  0  0  0  0  0  0  0
    4.0285   -0.3221    0.7102 H   0  0  0  0  0  0  0  0  0  0  0  0
    1.6756   -1.5146   -0.9305 H   0  0  0  0  0  0  0  0  0  0  0  0
    2.0789   -3.4957    0.5448 H   0  0  0  0  0  0  0  0  0  0  0  0
    3.3261   -3.2238   -0.7439 H   0  0  0  0  0  0  0  0  0  0  0  0
    0.8278    5.6965    1.0865 H   0  0  0  0  0  0  0  0  0  0  0  0
   -0.4496    4.6119    0.3807 H   0  0  0  0  0  0  0  0  0  0  0  0
    1.0378    4.9420   -0.5474 H   0  0  0  0  0  0  0  0  0  0  0  0
    4.5963    4.5223    0.2397 H   0  0  0  0  0  0  0  0  0  0  0  0
    4.8548    4.8390   -1.5224 H   0  0  0  0  0  0  0  0  0  0  0  0
    5.7441    3.4988   -0.6623 H   0  0  0  0  0  0  0  0  0  0  0  0
    6.2982   -2.2136   -2.3282 H   0  0  0  0  0  0  0  0  0  0  0  0
    7.2502   -0.6942   -2.4631 H   0  0  0  0  0  0  0  0  0  0  0  0
    5.6502   -0.8638   -3.3246 H   0  0  0  0  0  0  0  0  0  0  0  0
    6.6067   -1.9699    1.7851 H   0  0  0  0  0  0  0  0  0  0  0  0
    6.9840   -3.7228    1.8488 H   0  0  0  0  0  0  0  0  0  0  0  0
    5.6889   -3.0208    2.9246 H   0  0  0  0  0  0  0  0  0  0  0  0
  2 17  1  0  0  0  0
  2 22  1  0  0  0  0
  5 24  2  0  0  0  0
  6 26  1  0  0  0  0
  6 19  1  0  0  0  0
  9 28  2  0  0  0  0
 10 15  1  0  0  0  0
 10 13  1  0  0  0  0
 11 14  1  0  0  0  0
 12 11  1  0  0  0  0
 12 10  1  0  0  0  0
 13 30  1  0  0  0  0
 14 31  1  0  0  0  0
 14 13  2  0  0  0  0
 15 33  1  0  0  0  0
 16 35  1  6  0  0  0
 16  1  1  0  0  0  0
 16 11  1  0  0  0  0
 17 16  1  0  0  0  0
 17 36  1  1  0  0  0
 18 37  1  6  0  0  0
 18  4  1  0  0  0  0
 18 19  1  0  0  0  0
 18 17  1  0  0  0  0
 19 20  1  0  0  0  0
 19 38  1  1  0  0  0
 20 39  1  6  0  0  0
 20 21  1  0  0  0  0
 20  1  1  0  0  0  0
 21 40  1  0  0  0  0
 21  8  1  0  0  0  0
 22  3  2  0  0  0  0
 23 22  1  0  0  0  0
 23 42  1  0  0  0  0
 24 25  1  0  0  0  0
 24  4  1  0  0  0  0
 25 47  1  0  0  0  0
 25 45  1  0  0  0  0
 26  7  2  0  0  0  0
 27 48  1  0  0  0  0
 27 26  1  0  0  0  0
 28  8  1  0  0  0  0
 28 29  1  0  0  0  0
 29 53  1  0  0  0  0
 32 15  1  0  0  0  0
 34 15  1  0  0  0  0
 41 21  1  0  0  0  0
 43 23  1  0  0  0  0
 44 23  1  0  0  0  0
 46 25  1  0  0  0  0
 49 27  1  0  0  0  0
 50 27  1  0  0  0  0
 51 29  1  0  0  0  0
 52 29  1  0  0  0  0
M  END
