12
q = -1.0, confidence = 0.042

 47 49  0  0  1  0  0  0  0  0999 V2000
    1.3747    1.3224    0.9222 C   0  0  2  0  0  0  0  0  0  0  0  0
   -5.4879    1.7026   -0.2735 O   0  0  0  0  0  0  0  0  0  0  0  0
   -6.3957    2.1570   -0.4187 H   0  0  0  0  0  0  0  0  0  0  0  0
   -6.2760   -2.3514    0.0952 C   0  0  0  0  0  0  0  0  0  0  0  0
   -6.4290   -3.4342    0.1999 H   0  0  0  0  0  0  0  0  0  0  0  0
    1.5631    1.3162   -1.5065 O   0  0  0  0  0  0  0  0  0  0  0  0
   -9.4132    0.3964   -0.5334 O   0  0  0  0  0  0  0  0  0  0  0  0
   -9.9916    1.1754   -0.6802 H   0  0  0  0  0  0  0  0  0  0  0  0
    3.2825   -0.9441    0.8441 C   0  0  0  0  0  0  0  0  0  0  0  0
   -3.9925   -2.8092    0.3791 O   0  0  0  0  0  0  0  0  0  0  0  0
   -3.0676   -2.3615    0.4306 H   0  0  0  0  0  0  0  0  0  0  0  0
    3.3257   -1.1186   -1.4896 C   0  0  0  0  0  3  0  0  0  0  0  0
    3.1220   -0.9150   -2.5464 H   0  0  0  0  0  0  0  0  0  0  0  0
   -1.8465   -1.4705    0.4634 O   0  0  0  0  0  0  0  0  0  0  0  0
   -5.7711    0.3946   -0.1581 C   0  0  0  0  0  0  0  0  0  0  0  0
    1.9141    0.8257   -0.4368 C   0  0  0  0  0  0  0  0  0  0  0  0
   -3.4275    0.1707    0.1063 N   0  0  0  0  0  0  0  0  0  0  0  0
   -3.5436    1.1820   -0.0285 H   0  0  0  0  0  0  0  0  0  0  0  0
    1.0947    2.8285    0.8468 C   0  0  0  0  0  0  0  0  0  0  0  0
    2.0435    3.3981    0.7838 H   0  0  0  0  0  0  0  0  0  0  0  0
    0.5473    3.1706    1.7485 H   0  0  0  0  0  0  0  0  0  0  0  0
    0.5034    3.0779   -0.0536 H   0  0  0  0  0  0  0  0  0  0  0  0
   -4.6816   -0.4911    0.0506 C   0  0  0  0  0  0  0  0  0  0  0  0
   -7.9546    2.1137   -0.5732 O   0  0  0  0  0  0  0  0  0  0  0  0
    2.3815    1.0368    2.0658 C   0  0  0  0  0  0  0  0  0  0  0  0
    1.9226    1.3575    3.0244 H   0  0  0  0  0  0  0  0  0  0  0  0
    3.2703    1.6842    1.9166 H   0  0  0  0  0  0  0  0  0  0  0  0
   -1.0807    0.7954    0.2024 C   0  0  0  0  0  0  0  0  0  0  0  0
   -1.5165    1.8019    0.3626 H   0  0  0  0  0  0  0  0  0  0  0  0
   -0.6927    0.7905   -0.8410 H   0  0  0  0  0  0  0  0  0  0  0  0
   -8.1606    0.8869   -0.4586 C   0  0  0  0  0  0  0  0  0  0  0  0
   -2.1581   -0.2740    0.2790 C   0  0  0  0  0  0  0  0  0  0  0  0
    0.0668    0.5145    1.1756 C   0  0  0  0  0  0  0  0  0  0  0  0
    0.2737   -0.5750    1.1327 H   0  0  0  0  0  0  0  0  0  0  0  0
   -0.2659    0.7268    2.2156 H   0  0  0  0  0  0  0  0  0  0  0  0
   -7.1079   -0.0913   -0.2416 C   0  0  0  0  0  0  0  0  0  0  0  0
    2.7954   -0.3622   -0.3797 C   0  0  0  0  0  0  0  0  0  0  0  0
   -7.3346   -1.4841   -0.1102 C   0  0  0  0  0  0  0  0  0  0  0  0
   -8.3644   -1.8616   -0.1742 H   0  0  0  0  0  0  0  0  0  0  0  0
   -4.9287   -1.8897    0.1812 C   0  0  0  0  0  0  0  0  0  0  0  0
    4.1086   -2.0607    0.4947 C   0  0  0  0  0  0  0  0  0  0  0  0
    4.6333   -2.7212    1.1948 H   0  0  0  0  0  0  0  0  0  0  0  0
    2.8445   -0.4234    2.1792 C   0  0  0  0  0  0  0  0  0  0  0  0
    3.6545   -0.5183    2.9296 H   0  0  0  0  0  0  0  0  0  0  0  0
    2.0126   -1.0686    2.5384 H   0  0  0  0  0  0  0  0  0  0  0  0
    4.1254   -2.1627   -0.9430 C   0  0  0  0  0  0  0  0  0  0  0  0
    4.6756   -2.9166   -1.5194 H   0  0  0  0  0  0  0  0  0  0  0  0
  1 19  1  6  0  0  0
  1 33  1  0  0  0  0
  1 25  1  0  0  0  0
  2 15  1  0  0  0  0
  3  2  1  0  0  0  0
  4 40  1  0  0  0  0
  4  5  1  0  0  0  0
  6 16  2  0  0  0  0
  7 31  1  0  0  0  0
  8  7  1  0  0  0  0
  9 43  1  0  0  0  0
 10 11  1  0  0  0  0
 12 46  1  0  0  0  0
 12 37  1  0  0  0  0
 13 12  1  0  0  0  0
 15 23  1  0  0  0  0
 16 37  1  0  0  0  0
 16  1  1  0  0  0  0
 17 32  1  0  0  0  0
 18 17  1  0  0  0  0
 19 21  1  0  0  0  0
 20 19  1  0  0  0  0
 22 19  1  0  0  0  0
 23 17  1  0  0  0  0
 23 40  2  0  0  0  0
 24 31  2  0  0  0  0
 25 43  1  0  0  0  0
 25 26  1  0  0  0  0
 27 25  1  0  0  0  0
 28 32  1  0  0  0  0
 28 29  1  0  0  0  0
 28 33  1  0  0  0  0
 30 28  1  0  0  0  0
 31 36  1  0  0  0  0
 32 14  2  0  0  0  0
 33 35  1  0  0  0  0
 34 33  1  0  0  0  0
 36 15  2  0  0  0  0
 36 38  1  0  0  0  0
 37  9  2  0  0  0  0
 38  4  2  0  0  0  0
 39 38  1  0  0  0  0
 40 10  1  0  0  0  0
 41  9  1  0  0  0  0
 41 42  1  0  0  0  0
 43 45  1  0  0  0  0
 43 44  1  0  0  0  0
 46 41  2  0  0  0  0
 47 46  1  0  0  0  0
M  END
