4
q = -1.0

 40 40  0  0  1  0  0  0  0  0999 V2000
   -0.5598   -0.0710   -0.5251 P   0  0  0  0  0  2  0  0  0  0  0  0
   -0.5373    1.6318   -0.1772 C   0  0  2  0  0  3  0  0  0  0  0  0
    0.7667    2.1232    0.1012 C   0  0  0  0  0  0  0  0  0  0  0  0
    1.8163    1.1489    0.2609 C   0  0  0  0  0  3  0  0  0  0  0  0
   -2.2270   -0.7195   -0.1518 C   0  0  0  0  0  0  0  0  0  0  0  0
   -2.7561   -0.6404    1.1652 C   0  0  0  0  0  0  0  0  0  0  0  0
   -4.0511   -1.1507    1.3879 C   0  0  0  0  0  0  0  0  0  0  0  0
   -4.4691   -1.0946    2.4062 H   0  0  0  0  0  0  0  0  0  0  0  0
   -4.8179   -1.7322    0.3651 C   0  0  0  0  0  0  0  0  0  0  0  0
   -4.2622   -1.7988   -0.9277 C   0  0  0  0  0  0  0  0  0  0  0  0
   -4.8496   -2.2467   -1.7459 H   0  0  0  0  0  0  0  0  0  0  0  0
   -2.9787   -1.3042   -1.2056 C   0  0  0  0  0  0  0  0  0  0  0  0
   -2.4271   -1.3628   -2.6086 C   0  0  0  0  0  0  0  0  0  0  0  0
   -2.2493   -0.3392   -3.0000 H   0  0  0  0  0  0  0  0  0  0  0  0
   -3.1213   -1.8854   -3.2948 H   0  0  0  0  0  0  0  0  0  0  0  0
   -1.4505   -1.8906   -2.6409 H   0  0  0  0  0  0  0  0  0  0  0  0
   -6.1859   -2.3014    0.6434 C   0  0  0  0  0  0  0  0  0  0  0  0
   -6.6068   -1.9129    1.5910 H   0  0  0  0  0  0  0  0  0  0  0  0
   -6.1439   -3.4086    0.7291 H   0  0  0  0  0  0  0  0  0  0  0  0
   -6.8980   -2.0697   -0.1742 H   0  0  0  0  0  0  0  0  0  0  0  0
   -1.9991   -0.0202    2.3126 C   0  0  0  0  0  0  0  0  0  0  0  0
   -2.3631   -0.4138    3.2809 H   0  0  0  0  0  0  0  0  0  0  0  0
   -2.1262    1.0826    2.3239 H   0  0  0  0  0  0  0  0  0  0  0  0
   -0.9099   -0.2089    2.2409 H   0  0  0  0  0  0  0  0  0  0  0  0
   -1.8096    2.3932   -0.0773 C   0  0  0  0  0  0  0  0  0  0  0  0
   -2.1547    3.0557    0.8874 O   0  0  0  0  0  0  0  0  0  0  0  0
   -2.6001    2.1756   -1.1607 O   0  0  0  0  0  0  0  0  0  0  0  0
   -3.9391    2.6689   -1.0431 C   0  0  0  0  0  0  0  0  0  0  0  0
   -4.4214    2.4810   -2.0186 H   0  0  0  0  0  0  0  0  0  0  0  0
   -3.9455    3.7511   -0.8042 H   0  0  0  0  0  0  0  0  0  0  0  0
   -4.4797    2.1272   -0.2395 H   0  0  0  0  0  0  0  0  0  0  0  0
    1.1324    3.5405    0.0816 C   0  0  0  0  0  0  0  0  0  0  0  0
    2.2752    3.9610    0.3590 O   0  0  0  0  0  0  0  0  0  0  0  0
    0.1533    4.3791   -0.2893 O   0  0  0  0  0  0  0  0  0  0  0  0
    0.4676    5.7754   -0.2612 C   0  0  0  0  0  0  0  0  0  0  0  0
   -0.4577    6.2978   -0.5610 H   0  0  0  0  0  0  0  0  0  0  0  0
    1.2928    6.0091   -0.9635 H   0  0  0  0  0  0  0  0  0  0  0  0
    0.7748    6.0882    0.7566 H   0  0  0  0  0  0  0  0  0  0  0  0
    3.0582    1.5875    0.4393 O   0  0  0  0  0  0  0  0  0  0  0  0
    3.0034    2.6186    0.4764 H   0  0  0  0  0  0  0  0  0  0  0  0
  1  5  1  0  0  0  0
  2  1  1  1  0  0  0
  2 25  1  0  0  0  0
  2  3  1  0  0  0  0
  3  4  2  0  0  0  0
  4 39  1  0  0  0  0
  5  6  1  0  0  0  0
  6  7  2  0  0  0  0
  6 21  1  0  0  0  0
  7  8  1  0  0  0  0
  9 17  1  0  0  0  0
  9  7  1  0  0  0  0
 10  9  2  0  0  0  0
 11 10  1  0  0  0  0
 12 10  1  0  0  0  0
 12  5  2  0  0  0  0
 13 12  1  0  0  0  0
 14 13  1  0  0  0  0
 15 13  1  0  0  0  0
 16 13  1  0  0  0  0
 17 19  1  0  0  0  0
 17 18  1  0  0  0  0
 20 17  1  0  0  0  0
 21 23  1  0  0  0  0
 21 22  1  0  0  0  0
 24 21  1  0  0  0  0
 25 26  2  0  0  0  0
 27 28  1  0  0  0  0
 27 25  1  0  0  0  0
 28 30  1  0  0  0  0
 28 31  1  0  0  0  0
 29 28  1  0  0  0  0
 32  3  1  0  0  0  0
 32 33  2  0  0  0  0
 34 35  1  0  0  0  0
 34 32  1  0  0  0  0
 35 38  1  0  0  0  0
 36 35  1  0  0  0  0
 37 35  1  0  0  0  0
 39 40  1  0  0  0  0
M  END
