1
q = -1.0

 19 20  0  0  0  0  0  0  0  0999 V2000
   -0.1919    1.8203    0.0231 C   0  0  0  0  0  3  0  0  0  0  0  0
   -1.4265    1.6868    0.0946 C   0  0  0  0  0  0  0  0  0  0  0  0
   -3.2801    0.1039   -0.1426 C   0  0  0  0  0  0  0  0  0  0  0  0
   -2.8208    1.4057    0.1186 C   0  0  0  0  0  0  0  0  0  0  0  0
   -3.7926    2.4277    0.3984 C   0  0  0  0  0  0  0  0  0  0  0  0
   -5.1451    2.1417    0.4090 C   0  0  0  0  0  0  0  0  0  0  0  0
   -5.6272    0.8247    0.1418 C   0  0  0  0  0  0  0  0  0  0  0  0
   -4.6634   -0.2135   -0.1403 C   0  0  0  0  0  0  0  0  0  0  0  0
   -7.0132    0.4983    0.1410 C   0  0  0  0  0  0  0  0  0  0  0  0
   -7.4423   -0.7947   -0.1276 C   0  0  0  0  0  0  0  0  0  0  0  0
   -6.4950   -1.8176   -0.4078 C   0  0  0  0  0  0  0  0  0  0  0  0
   -5.1376   -1.5331   -0.4135 C   0  0  0  0  0  0  0  0  0  0  0  0
   -2.5495   -0.6882   -0.3600 H   0  0  0  0  0  0  0  0  0  0  0  0
   -3.4348    3.4473    0.6038 H   0  0  0  0  0  0  0  0  0  0  0  0
   -5.8762    2.9370    0.6252 H   0  0  0  0  0  0  0  0  0  0  0  0
   -7.7434    1.2943    0.3578 H   0  0  0  0  0  0  0  0  0  0  0  0
   -8.5171   -1.0317   -0.1249 H   0  0  0  0  0  0  0  0  0  0  0  0
   -6.8448   -2.8396   -0.6206 H   0  0  0  0  0  0  0  0  0  0  0  0
   -4.3985   -2.3205   -0.6310 H   0  0  0  0  0  0  0  0  0  0  0  0
  1  2  3  0  0  0  0
  2  4  1  0  0  0  0
  3  8  2  0  0  0  0
  3  4  1  0  0  0  0
  4  5  2  0  0  0  0
  5  6  1  0  0  0  0
  5 14  1  0  0  0  0
  6 15  1  0  0  0  0
  7  6  2  0  0  0  0
  8  7  1  0  0  0  0
  9  7  1  0  0  0  0
  9 16  1  0  0  0  0
 10 17  1  0  0  0  0
 10  9  2  0  0  0  0
 11 10  1  0  0  0  0
 12 11  2  0  0  0  0
 12  8  1  0  0  0  0
 13  3  1  0  0  0  0
 18 11  1  0  0  0  0
 19 12  1  0  0  0  0
M  END
