3
q = 0.0, confidence = 0.998

 69 76  0  0  0  0  0  0  0  0999 V2000
    1.1056   -0.8097    0.0092 N   0  0  0  0  0  0  0  0  0  0  0  0
   -1.1059   -0.8094   -0.0085 N   0  0  0  0  0  0  0  0  0  0  0  0
   -0.0000   -0.0004    0.0002 C   0  0  0  0  0  2  0  0  0  0  0  0
    0.7050   -2.1573    0.0060 C   0  0  0  0  0  0  0  0  0  0  0  0
    1.4328   -3.3589    0.0115 C   0  0  0  0  0  0  0  0  0  0  0  0
    2.5264   -3.3721    0.0197 H   0  0  0  0  0  0  0  0  0  0  0  0
    0.7042   -4.5544    0.0060 C   0  0  0  0  0  0  0  0  0  0  0  0
    1.2490   -5.5100    0.0101 H   0  0  0  0  0  0  0  0  0  0  0  0
   -0.7056   -4.5542   -0.0045 C   0  0  0  0  0  0  0  0  0  0  0  0
   -1.2506   -5.5096   -0.0085 H   0  0  0  0  0  0  0  0  0  0  0  0
   -1.4338   -3.3585   -0.0103 C   0  0  0  0  0  0  0  0  0  0  0  0
   -2.5274   -3.3714   -0.0185 H   0  0  0  0  0  0  0  0  0  0  0  0
   -0.7057   -2.1571   -0.0050 C   0  0  0  0  0  0  0  0  0  0  0  0
    2.5530   -0.4457    0.0224 C   0  0  0  0  0  0  0  0  0  0  0  0
    3.2880   -1.0759   -1.1601 C   0  0  0  0  0  0  0  0  0  0  0  0
    3.0119   -0.9328   -2.5196 C   0  0  0  0  0  0  0  0  0  0  0  0
    2.1389   -0.3473   -2.8517 H   0  0  0  0  0  0  0  0  0  0  0  0
    3.8778   -1.5526   -3.4416 C   0  0  0  0  0  0  0  0  0  0  0  0
    3.6795   -1.4632   -4.5203 H   0  0  0  0  0  0  0  0  0  0  0  0
    4.9954   -2.2837   -2.9974 C   0  0  0  0  0  0  0  0  0  0  0  0
    5.6618   -2.7572   -3.7345 H   0  0  0  0  0  0  0  0  0  0  0  0
    5.2716   -2.4203   -1.6255 C   0  0  0  0  0  0  0  0  0  0  0  0
    6.1466   -2.9960   -1.2870 H   0  0  0  0  0  0  0  0  0  0  0  0
    4.4070   -1.8141   -0.7005 C   0  0  0  0  0  0  0  0  0  0  0  0
    4.3938   -1.8165    0.7738 C   0  0  0  0  0  0  0  0  0  0  0  0
    5.2418   -2.4255    1.7122 C   0  0  0  0  0  0  0  0  0  0  0  0
    6.1228   -3.0001    1.3876 H   0  0  0  0  0  0  0  0  0  0  0  0
    4.9412   -2.2932    3.0794 C   0  0  0  0  0  0  0  0  0  0  0  0
    5.5944   -2.7688    3.8268 H   0  0  0  0  0  0  0  0  0  0  0  0
    3.8157   -1.5636    3.5058 C   0  0  0  0  0  0  0  0  0  0  0  0
    3.5982   -1.4774    4.5811 H   0  0  0  0  0  0  0  0  0  0  0  0
    2.9664   -0.9411    2.5704 C   0  0  0  0  0  0  0  0  0  0  0  0
    2.0873   -0.3574    2.8892 H   0  0  0  0  0  0  0  0  0  0  0  0
    3.2667   -1.0798    1.2157 C   0  0  0  0  0  0  0  0  0  0  0  0
    2.8168    1.0827    0.0276 C   0  0  0  0  0  0  0  0  0  0  0  0
    2.3331    1.5126   -0.8732 H   0  0  0  0  0  0  0  0  0  0  0  0
    2.3113    1.5118    0.9170 H   0  0  0  0  0  0  0  0  0  0  0  0
    4.2969    1.4670    0.0459 C   0  0  0  0  0  0  0  0  0  0  0  0
    4.3835    2.5715    0.0475 H   0  0  0  0  0  0  0  0  0  0  0  0
    4.8376    1.0881   -0.8440 H   0  0  0  0  0  0  0  0  0  0  0  0
    4.8155    1.0882    0.9488 H   0  0  0  0  0  0  0  0  0  0  0  0
   -2.5532   -0.4451   -0.0222 C   0  0  0  0  0  0  0  0  0  0  0  0
   -3.2666   -1.0789   -1.2159 C   0  0  0  0  0  0  0  0  0  0  0  0
   -2.9657   -0.9401   -2.5705 C   0  0  0  0  0  0  0  0  0  0  0  0
   -2.0865   -0.3565   -2.8888 H   0  0  0  0  0  0  0  0  0  0  0  0
   -3.8148   -1.5623   -3.5062 C   0  0  0  0  0  0  0  0  0  0  0  0
   -3.5969   -1.4760   -4.5814 H   0  0  0  0  0  0  0  0  0  0  0  0
   -4.9406   -2.2918   -3.0803 C   0  0  0  0  0  0  0  0  0  0  0  0
   -5.5936   -2.7672   -3.8280 H   0  0  0  0  0  0  0  0  0  0  0  0
   -5.2418   -2.4242   -1.7132 C   0  0  0  0  0  0  0  0  0  0  0  0
   -6.1230   -2.9986   -1.3890 H   0  0  0  0  0  0  0  0  0  0  0  0
   -4.3940   -1.8154   -0.7744 C   0  0  0  0  0  0  0  0  0  0  0  0
   -4.4078   -1.8131    0.6998 C   0  0  0  0  0  0  0  0  0  0  0  0
   -5.2729   -2.4191    1.6244 C   0  0  0  0  0  0  0  0  0  0  0  0
   -6.1479   -2.9945    1.2856 H   0  0  0  0  0  0  0  0  0  0  0  0
   -4.9973   -2.2826    2.9965 C   0  0  0  0  0  0  0  0  0  0  0  0
   -5.6641   -2.7560    3.7333 H   0  0  0  0  0  0  0  0  0  0  0  0
   -3.8797   -1.5517    3.4412 C   0  0  0  0  0  0  0  0  0  0  0  0
   -3.6818   -1.4624    4.5200 H   0  0  0  0  0  0  0  0  0  0  0  0
   -3.0133   -0.9321    2.5196 C   0  0  0  0  0  0  0  0  0  0  0  0
   -2.1403   -0.3469    2.8521 H   0  0  0  0  0  0  0  0  0  0  0  0
   -3.2888   -1.0751    1.1600 C   0  0  0  0  0  0  0  0  0  0  0  0
   -2.8166    1.0835   -0.0274 C   0  0  0  0  0  0  0  0  0  0  0  0
   -2.3329    1.5132    0.8735 H   0  0  0  0  0  0  0  0  0  0  0  0
   -2.3109    1.5124   -0.9168 H   0  0  0  0  0  0  0  0  0  0  0  0
   -4.2966    1.4682   -0.0459 C   0  0  0  0  0  0  0  0  0  0  0  0
   -4.3829    2.5726   -0.0476 H   0  0  0  0  0  0  0  0  0  0  0  0
   -4.8375    1.0895    0.8440 H   0  0  0  0  0  0  0  0  0  0  0  0
   -4.8152    1.0894   -0.9488 H   0  0  0  0  0  0  0  0  0  0  0  0
  1 14  1  0  0  0  0
  2 13  1  0  0  0  0
  2  3  1  0  0  0  0
  3  1  1  0  0  0  0
  4  1  1  0  0  0  0
  4  5  1  0  0  0  0
  5  6  1  0  0  0  0
  7  8  1  0  0  0  0
  7  5  2  0  0  0  0
  9  7  1  0  0  0  0
 10  9  1  0  0  0  0
 11 13  1  0  0  0  0
 11  9  2  0  0  0  0
 12 11  1  0  0  0  0
 13  4  2  0  0  0  0
 14 35  1  0  0  0  0
 14 34  1  0  0  0  0
 15 24  1  0  0  0  0
 15 14  1  0  0  0  0
 16 15  2  0  0  0  0
 17 16  1  0  0  0  0
 18 20  2  0  0  0  0
 18 16  1  0  0  0  0
 19 18  1  0  0  0  0
 20 22  1  0  0  0  0
 21 20  1  0  0  0  0
 22 23  1  0  0  0  0
 22 24  2  0  0  0  0
 24 25  1  0  0  0  0
 25 34  2  0  0  0  0
 25 26  1  0  0  0  0
 26 28  2  0  0  0  0
 27 26  1  0  0  0  0
 28 30  1  0  0  0  0
 28 29  1  0  0  0  0
 30 31  1  0  0  0  0
 32 33  1  0  0  0  0
 32 30  2  0  0  0  0
 34 32  1  0  0  0  0
 35 38  1  0  0  0  0
 35 37  1  0  0  0  0
 36 35  1  0  0  0  0
 38 39  1  0  0  0  0
 38 41  1  0  0  0  0
 40 38  1  0  0  0  0
 42  2  1  0  0  0  0
 42 62  1  0  0  0  0
 43 52  1  0  0  0  0
 43 42  1  0  0  0  0
 44 43  2  0  0  0  0
 45 44  1  0  0  0  0
 46 48  2  0  0  0  0
 46 44  1  0  0  0  0
 47 46  1  0  0  0  0
 48 50  1  0  0  0  0
 49 48  1  0  0  0  0
 50 51  1  0  0  0  0
 50 52  2  0  0  0  0
 52 53  1  0  0  0  0
 53 62  2  0  0  0  0
 53 54  1  0  0  0  0
 54 56  2  0  0  0  0
 55 54  1  0  0  0  0
 56 58  1  0  0  0  0
 56 57  1  0  0  0  0
 58 59  1  0  0  0  0
 60 61  1  0  0  0  0
 60 58  2  0  0  0  0
 62 60  1  0  0  0  0
 63 42  1  0  0  0  0
 63 64  1  0  0  0  0
 65 63  1  0  0  0  0
 66 63  1  0  0  0  0
 66 68  1  0  0  0  0
 67 66  1  0  0  0  0
 69 66  1  0  0  0  0
M  END
