1
q = -1.0

 12 12  0  0  0  0  0  0  0  0999 V2000
    0.6324    1.3453   -0.1168 C   0  0  0  0  0  1  0  0  0  0  0  0
    0.5037    2.7616   -0.3567 C   0  0  0  0  0  0  0  0  0  0  0  0
    0.2832    3.1963   -1.7979 C   0  0  0  0  0  0  0  0  0  0  0  0
   -0.0998    3.5864    0.7843 C   0  0  0  0  0  0  0  0  0  0  0  0
    1.3815    3.6167    0.5738 C   0  0  0  0  0  0  0  0  0  0  0  0
    0.2085    4.2997   -1.8724 H   0  0  0  0  0  0  0  0  0  0  0  0
   -0.6526    2.7519   -2.1922 H   0  0  0  0  0  0  0  0  0  0  0  0
    1.1235    2.8650   -2.4417 H   0  0  0  0  0  0  0  0  0  0  0  0
   -0.4926    3.0287    1.6464 H   0  0  0  0  0  0  0  0  0  0  0  0
   -0.6990    4.4588    0.4791 H   0  0  0  0  0  0  0  0  0  0  0  0
    1.8393    4.5054    0.1114 H   0  0  0  0  0  0  0  0  0  0  0  0
    2.0246    3.0651    1.2772 H   0  0  0  0  0  0  0  0  0  0  0  0
  2  1  1  0  0  0  0
  2  5  1  0  0  0  0
  2  4  1  0  0  0  0
  3  2  1  0  0  0  0
  4  9  1  0  0  0  0
  5  4  1  0  0  0  0
  5 12  1  0  0  0  0
  6  3  1  0  0  0  0
  7  3  1  0  0  0  0
  8  3  1  0  0  0  0
 10  4  1  0  0  0  0
 11  5  1  0  0  0  0
M  END
