9
q = -1.0

 26 29  0  0  1  0  0  0  0  0999 V2000
    3.8153   -0.0000    0.1171 C   0  0  0  0  0  0  0  0  0  0  0  0
    5.1159   -0.0000   -0.4617 C   0  0  0  0  0  0  0  0  0  0  0  0
    5.6931    1.2815   -0.7140 C   0  0  0  0  0  0  0  0  0  0  0  0
    4.9882    2.4409   -0.3942 C   0  0  0  0  0  0  0  0  0  0  0  0
    3.6837    2.4082    0.1856 C   0  0  0  0  0  0  0  0  0  0  0  0
    3.0943    1.1771    0.4433 C   0  0  0  0  0  0  0  0  0  0  0  0
    1.7295    0.7900    0.9921 C   0  0  1  0  0  0  0  0  0  0  0  0
    0.5885    1.1316    0.0196 C   0  0  0  0  0  3  0  0  0  0  0  0
    0.3713   -0.0000   -0.8722 C   0  0  0  0  0  3  0  0  0  0  0  0
    6.6987    1.3492   -1.1581 H   0  0  0  0  0  0  0  0  0  0  0  0
    5.4531    3.4196   -0.5931 H   0  0  0  0  0  0  0  0  0  0  0  0
    3.1667    3.3522    0.4202 H   0  0  0  0  0  0  0  0  0  0  0  0
    1.5789    1.2343    1.9997 H   0  0  0  0  0  0  0  0  0  0  0  0
    0.5851    2.1650   -0.3727 H   0  0  0  0  0  0  0  0  0  0  0  0
    0.3313   -0.0001   -1.9707 H   0  0  0  0  0  0  0  0  0  0  0  0
    0.5884   -1.1317    0.0196 C   0  0  0  0  0  3  0  0  0  0  0  0
    1.7295   -0.7900    0.9922 C   0  0  1  0  0  0  0  0  0  0  0  0
    3.0943   -1.1771    0.4433 C   0  0  0  0  0  0  0  0  0  0  0  0
    5.6931   -1.2815   -0.7140 C   0  0  0  0  0  0  0  0  0  0  0  0
    0.5850   -2.1651   -0.3726 H   0  0  0  0  0  0  0  0  0  0  0  0
    1.5789   -1.2343    1.9997 H   0  0  0  0  0  0  0  0  0  0  0  0
    3.6837   -2.4082    0.1856 C   0  0  0  0  0  0  0  0  0  0  0  0
    4.9882   -2.4409   -0.3941 C   0  0  0  0  0  0  0  0  0  0  0  0
    6.6987   -1.3492   -1.1581 H   0  0  0  0  0  0  0  0  0  0  0  0
    3.1667   -3.3522    0.4202 H   0  0  0  0  0  0  0  0  0  0  0  0
    5.4532   -3.4196   -0.5931 H   0  0  0  0  0  0  0  0  0  0  0  0
  1  6  2  0  0  0  0
  1 18  1  0  0  0  0
  2  1  1  0  0  0  0
  3  2  2  0  0  0  0
  3  4  1  0  0  0  0
  4  5  2  0  0  0  0
  5 12  1  0  0  0  0
  5  6  1  0  0  0  0
  6  7  1  0  0  0  0
  7 17  1  0  0  0  0
  7 13  1  1  0  0  0
  8  7  1  0  0  0  0
  9  8  1  0  0  0  0
  9 16  1  0  0  0  0
 10  3  1  0  0  0  0
 11  4  1  0  0  0  0
 14  8  1  0  0  0  0
 15  9  1  0  0  0  0
 16 17  1  0  0  0  0
 17 21  1  1  0  0  0
 18 17  1  0  0  0  0
 19  2  1  0  0  0  0
 19 23  2  0  0  0  0
 20 16  1  0  0  0  0
 22 25  1  0  0  0  0
 22 18  2  0  0  0  0
 23 22  1  0  0  0  0
 24 19  1  0  0  0  0
 26 23  1  0  0  0  0
M  END
