9
q = -1.0, confidence = 0.002

 28 30  0  0  1  0  0  0  0  0999 V2000
    0.5478   -1.2969    0.7712 O   0  0  0  0  0  0  0  0  0  0  0  0
    2.1495    0.1086   -0.2642 N   0  0  0  0  0  0  0  0  0  0  0  0
    5.1599    3.8045    0.3054 N   0  0  0  0  0  0  0  0  0  0  0  0
    0.1761   -0.5676    1.9346 C   0  0  0  0  0  0  0  0  0  0  0  0
    1.0716   -0.0594    2.3725 H   0  0  0  0  0  0  0  0  0  0  0  0
   -0.1704   -1.3230    2.6663 H   0  0  0  0  0  0  0  0  0  0  0  0
   -0.8847    0.4861    1.6697 C   0  0  0  0  0  3  0  0  0  0  0  0
   -1.3038    0.9574    2.5746 H   0  0  0  0  0  0  0  0  0  0  0  0
   -0.7373    1.2929    0.4948 C   0  0  0  0  0  3  0  0  0  0  0  0
   -0.9900    2.3639    0.4580 H   0  0  0  0  0  0  0  0  0  0  0  0
   -0.2493    0.5519   -0.6372 C   0  0  0  0  0  3  0  0  0  0  0  0
   -0.1341    1.0744   -1.6012 H   0  0  0  0  0  0  0  0  0  0  0  0
    0.8119   -0.5052   -0.3663 C   0  0  2  0  0  0  0  0  0  0  0  0
    0.8683   -1.2295   -1.2036 H   0  0  0  0  0  0  0  0  0  0  0  0
    3.3274   -0.6408   -0.2885 C   0  0  0  0  0  0  0  0  0  0  0  0
    3.5098   -2.0284   -0.4193 C   0  0  0  0  0  0  0  0  0  0  0  0
    2.6552   -2.7150   -0.4922 H   0  0  0  0  0  0  0  0  0  0  0  0
    4.8266   -2.5020   -0.4208 C   0  0  0  0  0  0  0  0  0  0  0  0
    5.0080   -3.5826   -0.5206 H   0  0  0  0  0  0  0  0  0  0  0  0
    5.9289   -1.6226   -0.2848 C   0  0  0  0  0  0  0  0  0  0  0  0
    6.9489   -2.0353   -0.2874 H   0  0  0  0  0  0  0  0  0  0  0  0
    5.7430   -0.2448   -0.1388 C   0  0  0  0  0  0  0  0  0  0  0  0
    6.5974    0.4388   -0.0248 H   0  0  0  0  0  0  0  0  0  0  0  0
    4.4261    0.2572   -0.1378 C   0  0  0  0  0  0  0  0  0  0  0  0
    3.8541    1.5843   -0.0068 C   0  0  0  0  0  0  0  0  0  0  0  0
    2.4689    1.4368   -0.0860 C   0  0  0  0  0  0  0  0  0  0  0  0
    1.6952    2.2072   -0.0339 H   0  0  0  0  0  0  0  0  0  0  0  0
    4.5583    2.8037    0.1634 C   0  0  0  0  0  0  0  0  0  0  0  0
  1  4  1  0  0  0  0
  2 26  1  0  0  0  0
  4  5  1  0  0  0  0
  4  6  1  0  0  0  0
  7  4  1  0  0  0  0
  7  8  1  0  0  0  0
  9  7  1  0  0  0  0
 10  9  1  0  0  0  0
 11 13  1  0  0  0  0
 11  9  1  0  0  0  0
 12 11  1  0  0  0  0
 13 14  1  6  0  0  0
 13  2  1  0  0  0  0
 13  1  1  0  0  0  0
 15  2  1  0  0  0  0
 15 24  1  0  0  0  0
 16 15  2  0  0  0  0
 17 16  1  0  0  0  0
 18 16  1  0  0  0  0
 18 20  2  0  0  0  0
 19 18  1  0  0  0  0
 20 22  1  0  0  0  0
 21 20  1  0  0  0  0
 22 24  2  0  0  0  0
 22 23  1  0  0  0  0
 24 25  1  0  0  0  0
 25 28  1  0  0  0  0
 26 27  1  0  0  0  0
 26 25  2  0  0  0  0
 28  3  3  0  0  0  0
M  END
