3
q = 0.0, confidence = 0.998

 35 35  0  0  0  0  0  0  0  0999 V2000
    0.4265   -2.9503    0.0992 N   0  0  0  0  0  0  0  0  0  0  0  0
   -1.5853   -2.5491   -0.5767 N   0  0  0  0  0  0  0  0  0  0  0  0
   -0.4327   -1.9291   -0.1875 C   0  0  0  0  0  2  0  0  0  0  0  0
   -0.1711   -4.1853   -0.1140 C   0  0  0  0  0  0  0  0  0  0  0  0
    0.3589   -5.1278    0.0500 H   0  0  0  0  0  0  0  0  0  0  0  0
   -1.4507   -3.9305   -0.5338 C   0  0  0  0  0  0  0  0  0  0  0  0
   -2.2687   -4.6052   -0.8012 H   0  0  0  0  0  0  0  0  0  0  0  0
    1.8238   -2.7583    0.4792 C   0  0  0  0  0  0  0  0  0  0  0  0
    2.1781   -3.7113    0.9224 H   0  0  0  0  0  0  0  0  0  0  0  0
    1.8448   -1.9844    1.2747 H   0  0  0  0  0  0  0  0  0  0  0  0
    2.6822   -2.3489   -0.7178 C   0  0  0  0  0  0  0  0  0  0  0  0
    2.4764   -3.0335   -1.5682 H   0  0  0  0  0  0  0  0  0  0  0  0
    2.3435   -1.3444   -1.0500 H   0  0  0  0  0  0  0  0  0  0  0  0
    4.1751   -2.3476   -0.4036 C   0  0  0  0  0  0  0  0  0  0  0  0
    4.5132   -3.3809   -0.1561 H   0  0  0  0  0  0  0  0  0  0  0  0
    4.3692   -1.7698    0.5305 H   0  0  0  0  0  0  0  0  0  0  0  0
    5.0610   -1.7999   -1.4899 C   0  0  0  0  0  0  0  0  0  0  0  0
    6.1450   -1.8566   -1.2812 H   0  0  0  0  0  0  0  0  0  0  0  0
    4.6556   -1.2518   -2.6505 C   0  0  0  0  0  0  0  0  0  0  0  0
    3.5909   -1.1526   -2.9181 H   0  0  0  0  0  0  0  0  0  0  0  0
    5.3869   -0.8712   -3.3801 H   0  0  0  0  0  0  0  0  0  0  0  0
   -2.8234   -1.8425   -0.9087 C   0  0  0  0  0  0  0  0  0  0  0  0
   -3.4755   -2.5650   -1.4398 H   0  0  0  0  0  0  0  0  0  0  0  0
   -2.5628   -1.0350   -1.6213 H   0  0  0  0  0  0  0  0  0  0  0  0
   -3.5262   -1.2709    0.3236 C   0  0  0  0  0  0  0  0  0  0  0  0
   -2.8736   -0.4857    0.7617 H   0  0  0  0  0  0  0  0  0  0  0  0
   -4.4514   -0.7710   -0.0313 H   0  0  0  0  0  0  0  0  0  0  0  0
   -3.8537   -2.3096    1.3934 C   0  0  0  0  0  0  0  0  0  0  0  0
   -4.4304   -3.1532    0.9446 H   0  0  0  0  0  0  0  0  0  0  0  0
   -2.9076   -2.7740    1.7561 H   0  0  0  0  0  0  0  0  0  0  0  0
   -4.6054   -1.8029    2.5934 C   0  0  0  0  0  0  0  0  0  0  0  0
   -4.8675   -2.5770    3.3380 H   0  0  0  0  0  0  0  0  0  0  0  0
   -4.9632   -0.5320    2.8458 C   0  0  0  0  0  0  0  0  0  0  0  0
   -4.7240    0.2932    2.1564 H   0  0  0  0  0  0  0  0  0  0  0  0
   -5.5023   -0.2644    3.7672 H   0  0  0  0  0  0  0  0  0  0  0  0
  1  8  1  0  0  0  0
  2  6  1  0  0  0  0
  2  3  1  0  0  0  0
  3  1  1  0  0  0  0
  4  5  1  0  0  0  0
  4  1  1  0  0  0  0
  6  4  2  0  0  0  0
  7  6  1  0  0  0  0
  8  9  1  0  0  0  0
  8 10  1  0  0  0  0
 11 14  1  0  0  0  0
 11  8  1  0  0  0  0
 12 11  1  0  0  0  0
 13 11  1  0  0  0  0
 14 15  1  0  0  0  0
 14 16  1  0  0  0  0
 17 18  1  0  0  0  0
 17 14  1  0  0  0  0
 19 17  2  0  0  0  0
 20 19  1  0  0  0  0
 21 19  1  0  0  0  0
 22  2  1  0  0  0  0
 22 25  1  0  0  0  0
 23 22  1  0  0  0  0
 24 22  1  0  0  0  0
 25 26  1  0  0  0  0
 25 28  1  0  0  0  0
 27 25  1  0  0  0  0
 28 30  1  0  0  0  0
 28 31  1  0  0  0  0
 29 28  1  0  0  0  0
 31 33  2  0  0  0  0
 31 32  1  0  0  0  0
 33 35  1  0  0  0  0
 34 33  1  0  0  0  0
M  END
