4
q = 0.0, confidence = 0.976

 30 29  0  0  1  0  0  0  0  0999 V2000
   -2.7489   -0.9551    0.0716 N   0  0  0  0  0  4  0  0  0  0  0  0
   -1.6035   -1.0358   -0.6803 C   0  0  0  0  0  0  0  0  0  0  0  0
   -0.5898   -1.9881   -0.4101 C   0  0  2  0  0  3  0  0  0  0  0  0
    0.6273   -1.9802   -1.1927 C   0  0  0  0  0  3  0  0  0  0  0  0
    0.8614   -0.9987   -2.2000 C   0  0  0  0  0  3  0  0  0  0  0  0
    2.1524   -0.9328   -2.9711 C   0  0  0  0  0  0  0  0  0  0  0  0
   -0.7936   -3.0123    0.6792 C   0  0  0  0  0  0  0  0  0  0  0  0
   -3.7411    0.1366   -0.0215 C   0  0  0  0  0  0  0  0  0  0  0  0
   -5.0353   -0.4067    0.6057 C   0  0  0  0  0  0  0  0  0  0  0  0
   -3.9843    0.5062   -1.4924 C   0  0  0  0  0  0  0  0  0  0  0  0
   -3.2464    1.3758    0.7508 C   0  0  0  0  0  0  0  0  0  0  0  0
   -2.6913   -1.3608    1.0091 H   0  0  0  0  0  0  0  0  0  0  0  0
   -1.6535   -0.5345   -1.6544 H   0  0  0  0  0  0  0  0  0  0  0  0
    1.4060   -2.7157   -0.9232 H   0  0  0  0  0  0  0  0  0  0  0  0
   -0.0063   -0.6160   -2.7633 H   0  0  0  0  0  0  0  0  0  0  0  0
    2.4048    0.1191   -3.2162 H   0  0  0  0  0  0  0  0  0  0  0  0
    3.0000   -1.3697   -2.4092 H   0  0  0  0  0  0  0  0  0  0  0  0
    2.0726   -1.4803   -3.9367 H   0  0  0  0  0  0  0  0  0  0  0  0
   -1.0321   -2.5543    1.6623 H   0  0  0  0  0  0  0  0  0  0  0  0
   -1.6446   -3.6779    0.4182 H   0  0  0  0  0  0  0  0  0  0  0  0
    0.1037   -3.6415    0.8202 H   0  0  0  0  0  0  0  0  0  0  0  0
   -4.8685   -0.7099    1.6616 H   0  0  0  0  0  0  0  0  0  0  0  0
   -5.8253    0.3696    0.6045 H   0  0  0  0  0  0  0  0  0  0  0  0
   -5.4044   -1.2896    0.0465 H   0  0  0  0  0  0  0  0  0  0  0  0
   -4.2538   -0.3898   -2.0870 H   0  0  0  0  0  0  0  0  0  0  0  0
   -4.8207    1.2295   -1.5556 H   0  0  0  0  0  0  0  0  0  0  0  0
   -3.0896    0.9863   -1.9367 H   0  0  0  0  0  0  0  0  0  0  0  0
   -3.9863    2.1997    0.6911 H   0  0  0  0  0  0  0  0  0  0  0  0
   -3.0944    1.1331    1.8232 H   0  0  0  0  0  0  0  0  0  0  0  0
   -2.2888    1.7255    0.3173 H   0  0  0  0  0  0  0  0  0  0  0  0
  1 12  1  0  0  0  0
  2  3  1  0  0  0  0
  2  1  2  0  0  0  0
  3  4  1  6  0  0  0
  3  7  1  0  0  0  0
  4 14  1  0  0  0  0
  5  4  1  0  0  0  0
  6 17  1  0  0  0  0
  6  5  1  0  0  0  0
  7 21  1  0  0  0  0
  7 19  1  0  0  0  0
  8  1  1  0  0  0  0
  8  9  1  0  0  0  0
  8 11  1  0  0  0  0
  9 22  1  0  0  0  0
 10  8  1  0  0  0  0
 11 29  1  0  0  0  0
 13  2  1  0  0  0  0
 15  5  1  0  0  0  0
 16  6  1  0  0  0  0
 18  6  1  0  0  0  0
 20  7  1  0  0  0  0
 23  9  1  0  0  0  0
 24  9  1  0  0  0  0
 25 10  1  0  0  0  0
 26 10  1  0  0  0  0
 27 10  1  0  0  0  0
 28 11  1  0  0  0  0
 30 11  1  0  0  0  0
M  END
