3
q = -1.0, confidence = 0.0

 34 34  0  0  0  0  0  0  0  0999 V2000
    0.0000   -2.1623    1.1751 Cl  0  0  0  0  0  0  0  0  0  0  0  0
    3.0028   -0.8656   -0.2858 Si  0  0  0  0  0  0  0  0  0  0  0  0
    0.7132    0.3209   -1.8401 C   0  0  0  0  0  3  0  0  0  0  0  0
    1.1964   -0.5100   -0.7564 C   0  0  0  0  0  0  0  0  0  0  0  0
    0.0000   -1.0039   -0.1302 C   0  0  0  0  0  0  0  0  0  0  0  0
    3.2917   -0.4426    1.5298 C   0  0  0  0  0  0  0  0  0  0  0  0
    3.1836    0.6473    1.6989 H   0  0  0  0  0  0  0  0  0  0  0  0
    4.3151   -0.7407    1.8384 H   0  0  0  0  0  0  0  0  0  0  0  0
    2.5669   -0.9647    2.1852 H   0  0  0  0  0  0  0  0  0  0  0  0
    4.0821    0.2182   -1.3947 C   0  0  0  0  0  0  0  0  0  0  0  0
    3.8777    1.2943   -1.2226 H   0  0  0  0  0  0  0  0  0  0  0  0
    3.9201   -0.0030   -2.4695 H   0  0  0  0  0  0  0  0  0  0  0  0
    5.1549    0.0399   -1.1749 H   0  0  0  0  0  0  0  0  0  0  0  0
    3.3307   -2.6992   -0.6099 C   0  0  0  0  0  0  0  0  0  0  0  0
    3.1792   -2.9502   -1.6794 H   0  0  0  0  0  0  0  0  0  0  0  0
    2.6451   -3.3301   -0.0092 H   0  0  0  0  0  0  0  0  0  0  0  0
    4.3727   -2.9668   -0.3384 H   0  0  0  0  0  0  0  0  0  0  0  0
    1.3518    0.8677   -2.5453 H   0  0  0  0  0  0  0  0  0  0  0  0
   -0.7131    0.3209   -1.8401 C   0  0  0  0  0  0  0  0  0  0  0  0
   -1.1964   -0.5100   -0.7565 C   0  0  0  0  0  0  0  0  0  0  0  0
   -3.0027   -0.8657   -0.2859 Si  0  0  0  0  0  0  0  0  0  0  0  0
   -3.2917   -0.4427    1.5297 C   0  0  0  0  0  0  0  0  0  0  0  0
   -3.1837    0.6473    1.6988 H   0  0  0  0  0  0  0  0  0  0  0  0
   -4.3151   -0.7408    1.8383 H   0  0  0  0  0  0  0  0  0  0  0  0
   -2.5669   -0.9648    2.1851 H   0  0  0  0  0  0  0  0  0  0  0  0
   -4.0820    0.2182   -1.3948 C   0  0  0  0  0  0  0  0  0  0  0  0
   -3.8777    1.2942   -1.2227 H   0  0  0  0  0  0  0  0  0  0  0  0
   -3.9200   -0.0030   -2.4696 H   0  0  0  0  0  0  0  0  0  0  0  0
   -5.1548    0.0399   -1.1750 H   0  0  0  0  0  0  0  0  0  0  0  0
   -3.3306   -2.6992   -0.6100 C   0  0  0  0  0  0  0  0  0  0  0  0
   -3.1791   -2.9502   -1.6795 H   0  0  0  0  0  0  0  0  0  0  0  0
   -2.6450   -3.3302   -0.0093 H   0  0  0  0  0  0  0  0  0  0  0  0
   -4.3726   -2.9669   -0.3386 H   0  0  0  0  0  0  0  0  0  0  0  0
   -1.3517    0.8677   -2.5454 H   0  0  0  0  0  0  0  0  0  0  0  0
  2  6  1  0  0  0  0
  3  4  1  0  0  0  0
  4  2  1  0  0  0  0
  4  5  2  0  0  0  0
  5  1  1  0  0  0  0
  6  7  1  0  0  0  0
  6  8  1  0  0  0  0
  6  9  1  0  0  0  0
 10 11  1  0  0  0  0
 10 13  1  0  0  0  0
 10  2  1  0  0  0  0
 12 10  1  0  0  0  0
 14 17  1  0  0  0  0
 14  2  1  0  0  0  0
 14 16  1  0  0  0  0
 15 14  1  0  0  0  0
 18  3  1  0  0  0  0
 19  3  1  0  0  0  0
 19 20  2  0  0  0  0
 20 21  1  0  0  0  0
 20  5  1  0  0  0  0
 21 22  1  0  0  0  0
 22 23  1  0  0  0  0
 22 24  1  0  0  0  0
 22 25  1  0  0  0  0
 26 27  1  0  0  0  0
 26 29  1  0  0  0  0
 26 21  1  0  0  0  0
 28 26  1  0  0  0  0
 30 33  1  0  0  0  0
 30 21  1  0  0  0  0
 30 32  1  0  0  0  0
 31 30  1  0  0  0  0
 34 19  1  0  0  0  0
M  END
