9
q = 0.0, confidence = 0.974

 64 68  0  0  1  0  0  0  0  0999 V2000
    3.9806   -0.2709    2.0015 C   0  0  0  0  0  0  0  0  0  0  0  0
    4.2843    0.7378    1.6613 H   0  0  0  0  0  0  0  0  0  0  0  0
    4.8850   -0.9100    2.0276 H   0  0  0  0  0  0  0  0  0  0  0  0
    3.5760   -0.1975    3.0305 H   0  0  0  0  0  0  0  0  0  0  0  0
    2.9624   -0.8715    1.0572 C   0  0  0  0  0  0  0  0  0  0  0  0
    3.3541   -0.9556    0.0235 H   0  0  0  0  0  0  0  0  0  0  0  0
    2.6086   -1.8684    1.3871 H   0  0  0  0  0  0  0  0  0  0  0  0
    1.8258    0.0269    1.0103 O   0  0  0  0  0  0  0  0  0  0  0  0
    0.6630   -0.3355    0.4920 C   0  0  0  0  0  2  0  0  0  0  0  0
   -0.2451    0.8155    0.5799 C   0  0  0  0  0  0  0  0  0  0  0  0
   -0.6938    1.8403   -0.4790 C   0  0  2  0  0  0  0  0  0  0  0  0
    0.3974    2.7181   -0.8841 O   0  0  0  0  0  0  0  0  0  0  0  0
    1.3912    2.1458   -1.5950 C   0  0  0  0  0  0  0  0  0  0  0  0
    1.3799    0.9870   -1.9751 O   0  0  0  0  0  0  0  0  0  0  0  0
    2.5399    3.1135   -1.8433 C   0  0  0  0  0  0  0  0  0  0  0  0
    2.6341    3.2139   -2.9456 H   0  0  0  0  0  0  0  0  0  0  0  0
    2.2880    4.1068   -1.4295 H   0  0  0  0  0  0  0  0  0  0  0  0
    3.8419    2.5951   -1.2626 C   0  0  0  0  0  0  0  0  0  0  0  0
    4.4207    1.4032   -1.7470 C   0  0  0  0  0  0  0  0  0  0  0  0
    3.9086    0.8444   -2.5439 H   0  0  0  0  0  0  0  0  0  0  0  0
    5.6246    0.9263   -1.2087 C   0  0  0  0  0  0  0  0  0  0  0  0
    6.0653   -0.0036   -1.6001 H   0  0  0  0  0  0  0  0  0  0  0  0
    6.2711    1.6337   -0.1812 C   0  0  0  0  0  0  0  0  0  0  0  0
    7.2193    1.2618    0.2359 H   0  0  0  0  0  0  0  0  0  0  0  0
    5.6992    2.8168    0.3110 C   0  0  0  0  0  0  0  0  0  0  0  0
    6.1954    3.3770    1.1182 H   0  0  0  0  0  0  0  0  0  0  0  0
    4.4901    3.2903   -0.2241 C   0  0  0  0  0  0  0  0  0  0  0  0
    4.0436    4.2183    0.1664 H   0  0  0  0  0  0  0  0  0  0  0  0
   -1.0460    1.3641    1.5524 C   0  0  0  0  0  0  0  0  0  0  0  0
   -1.3569    0.9922    2.9101 C   0  0  0  0  0  0  0  0  0  0  0  0
   -0.7254   -0.1931    3.6207 C   0  0  0  0  0  0  0  0  0  0  0  0
    0.3701   -0.2575    3.4598 H   0  0  0  0  0  0  0  0  0  0  0  0
   -1.1545   -1.1356    3.2139 H   0  0  0  0  0  0  0  0  0  0  0  0
   -1.1156    0.0278    5.0991 C   0  0  0  0  0  0  0  0  0  0  0  0
   -1.2573   -0.9178    5.6577 H   0  0  0  0  0  0  0  0  0  0  0  0
   -0.3071    0.5919    5.6090 H   0  0  0  0  0  0  0  0  0  0  0  0
   -2.3897    0.9066    5.0514 C   0  0  0  0  0  0  0  0  0  0  0  0
   -2.4656    1.6148    5.9039 H   0  0  0  0  0  0  0  0  0  0  0  0
   -3.3191    0.2889    5.0888 H   0  0  0  0  0  0  0  0  0  0  0  0
   -2.2817    1.5900    3.7144 C   0  0  0  0  0  0  0  0  0  0  0  0
   -2.9190    2.4342    3.4104 H   0  0  0  0  0  0  0  0  0  0  0  0
   -1.5944    2.4693    0.6594 C   0  0  1  0  0  0  0  0  0  0  0  0
   -1.3766    3.9468    1.0067 C   0  0  0  0  0  0  0  0  0  0  0  0
   -0.3182    4.2469    0.8856 H   0  0  0  0  0  0  0  0  0  0  0  0
   -1.6529    4.1155    2.0695 H   0  0  0  0  0  0  0  0  0  0  0  0
   -2.3508    4.6852    0.0761 C   0  0  0  0  0  0  0  0  0  0  0  0
   -2.5413    5.7344    0.3790 H   0  0  0  0  0  0  0  0  0  0  0  0
   -1.9308    4.7059   -0.9522 H   0  0  0  0  0  0  0  0  0  0  0  0
   -3.6124    3.8065    0.1111 C   0  0  0  0  0  0  0  0  0  0  0  0
   -4.3022    3.9743   -0.7398 H   0  0  0  0  0  0  0  0  0  0  0  0
   -4.1853    4.0039    1.0415 H   0  0  0  0  0  0  0  0  0  0  0  0
   -3.0644    2.3567    0.1417 C   0  0  1  0  0  0  0  0  0  0  0  0
   -3.6882    1.6903    0.7728 H   0  0  0  0  0  0  0  0  0  0  0  0
   -2.9032    1.7185   -1.2172 C   0  0  0  0  0  0  0  0  0  0  0  0
   -1.6173    1.4474   -1.5782 C   0  0  0  0  0  0  0  0  0  0  0  0
   -1.2797    0.9653   -2.4998 H   0  0  0  0  0  0  0  0  0  0  0  0
   -4.0394    1.4589   -1.8843 O   0  0  0  0  0  0  0  0  0  0  0  0
   -3.9153    0.7771   -3.1401 C   0  0  0  0  0  0  0  0  0  0  0  0
   -3.3571   -0.1731   -2.9821 H   0  0  0  0  0  0  0  0  0  0  0  0
   -3.3088    1.4016   -3.8353 H   0  0  0  0  0  0  0  0  0  0  0  0
   -5.3057    0.5249   -3.6856 C   0  0  0  0  0  0  0  0  0  0  0  0
   -5.8938   -0.1015   -2.9863 H   0  0  0  0  0  0  0  0  0  0  0  0
   -5.2435   -0.0021   -4.6578 H   0  0  0  0  0  0  0  0  0  0  0  0
   -5.8495    1.4780   -3.8395 H   0  0  0  0  0  0  0  0  0  0  0  0
  1  3  1  0  0  0  0
  1  4  1  0  0  0  0
  2  1  1  0  0  0  0
  5  7  1  0  0  0  0
  5  1  1  0  0  0  0
  6  5  1  0  0  0  0
  8  5  1  0  0  0  0
  9 10  1  0  0  0  0
  9  8  1  0  0  0  0
 10 29  2  0  0  0  0
 11 12  1  6  0  0  0
 11 10  1  0  0  0  0
 11 42  1  0  0  0  0
 13 12  1  0  0  0  0
 14 13  2  0  0  0  0
 15 13  1  0  0  0  0
 15 17  1  0  0  0  0
 15 18  1  0  0  0  0
 16 15  1  0  0  0  0
 18 27  1  0  0  0  0
 19 18  2  0  0  0  0
 19 21  1  0  0  0  0
 20 19  1  0  0  0  0
 21 23  2  0  0  0  0
 22 21  1  0  0  0  0
 23 24  1  0  0  0  0
 23 25  1  0  0  0  0
 25 26  1  0  0  0  0
 27 28  1  0  0  0  0
 27 25  2  0  0  0  0
 29 30  1  0  0  0  0
 30 31  1  0  0  0  0
 30 40  2  0  0  0  0
 31 34  1  0  0  0  0
 32 31  1  0  0  0  0
 33 31  1  0  0  0  0
 34 36  1  0  0  0  0
 34 35  1  0  0  0  0
 37 39  1  0  0  0  0
 37 34  1  0  0  0  0
 37 38  1  0  0  0  0
 40 37  1  0  0  0  0
 41 40  1  0  0  0  0
 42 43  1  0  0  0  0
 42 29  1  1  0  0  0
 43 45  1  0  0  0  0
 44 43  1  0  0  0  0
 46 49  1  0  0  0  0
 46 47  1  0  0  0  0
 46 43  1  0  0  0  0
 48 46  1  0  0  0  0
 49 52  1  0  0  0  0
 49 51  1  0  0  0  0
 50 49  1  0  0  0  0
 52 42  1  0  0  0  0
 52 53  1  1  0  0  0
 54 52  1  0  0  0  0
 55 54  2  0  0  0  0
 55 11  1  0  0  0  0
 56 55  1  0  0  0  0
 57 54  1  0  0  0  0
 58 59  1  0  0  0  0
 58 57  1  0  0  0  0
 60 58  1  0  0  0  0
 61 58  1  0  0  0  0
 61 62  1  0  0  0  0
 63 61  1  0  0  0  0
 64 61  1  0  0  0  0
M  END
