7
q = -1.0

 46 46  0  0  0  0  0  0  0  0999 V2000
    3.0655    0.2880   -0.6944 Si  0  0  0  0  0  0  0  0  0  0  0  0
    0.0003    2.3402    0.6195 Si  0  0  0  0  0  0  0  0  0  0  0  0
   -3.0653    0.2884   -0.6944 Si  0  0  0  0  0  0  0  0  0  0  0  0
    1.1854    0.0171   -0.8763 C   0  0  0  0  0  0  0  0  0  0  0  0
    0.0001    0.6848   -0.3408 C   0  0  0  0  0  0  0  0  0  0  0  0
   -1.1853    0.0174   -0.8764 C   0  0  0  0  0  0  0  0  0  0  0  0
   -0.7086   -1.0540   -1.7237 C   0  0  0  0  0  3  0  0  0  0  0  0
   -1.3410   -1.7616   -2.2731 H   0  0  0  0  0  0  0  0  0  0  0  0
    0.7086   -1.0542   -1.7236 C   0  0  0  0  0  0  0  0  0  0  0  0
    1.3409   -1.7619   -2.2730 H   0  0  0  0  0  0  0  0  0  0  0  0
    3.8973   -0.9755   -1.8362 C   0  0  0  0  0  0  0  0  0  0  0  0
    3.5939   -0.8543   -2.8959 H   0  0  0  0  0  0  0  0  0  0  0  0
    3.6734   -2.0146   -1.5197 H   0  0  0  0  0  0  0  0  0  0  0  0
    4.9981   -0.8450   -1.7855 H   0  0  0  0  0  0  0  0  0  0  0  0
    3.7119   -0.0475    1.0506 C   0  0  0  0  0  0  0  0  0  0  0  0
    3.6897   -1.1384    1.2445 H   0  0  0  0  0  0  0  0  0  0  0  0
    3.1264    0.4500    1.8442 H   0  0  0  0  0  0  0  0  0  0  0  0
    4.7656    0.2912    1.1338 H   0  0  0  0  0  0  0  0  0  0  0  0
    3.5330    2.0128   -1.3289 C   0  0  0  0  0  0  0  0  0  0  0  0
    3.1688    2.1459   -2.3684 H   0  0  0  0  0  0  0  0  0  0  0  0
    4.6374    2.1213   -1.3414 H   0  0  0  0  0  0  0  0  0  0  0  0
    3.1204    2.8390   -0.7187 H   0  0  0  0  0  0  0  0  0  0  0  0
    1.4867    2.5731    1.7650 C   0  0  0  0  0  0  0  0  0  0  0  0
    2.4713    2.5538    1.2653 H   0  0  0  0  0  0  0  0  0  0  0  0
    1.4820    1.8126    2.5708 H   0  0  0  0  0  0  0  0  0  0  0  0
    1.3765    3.5680    2.2453 H   0  0  0  0  0  0  0  0  0  0  0  0
    0.0008    3.6763   -0.7238 C   0  0  0  0  0  0  0  0  0  0  0  0
    0.8952    3.5878   -1.3726 H   0  0  0  0  0  0  0  0  0  0  0  0
    0.0022    4.6891   -0.2708 H   0  0  0  0  0  0  0  0  0  0  0  0
   -0.8948    3.5898   -1.3712 H   0  0  0  0  0  0  0  0  0  0  0  0
   -1.4866    2.5740    1.7642 C   0  0  0  0  0  0  0  0  0  0  0  0
   -1.4824    1.8140    2.5705 H   0  0  0  0  0  0  0  0  0  0  0  0
   -2.4710    2.5545    1.2641 H   0  0  0  0  0  0  0  0  0  0  0  0
   -1.3764    3.5692    2.2439 H   0  0  0  0  0  0  0  0  0  0  0  0
   -3.5328    2.0132   -1.3291 C   0  0  0  0  0  0  0  0  0  0  0  0
   -3.1204    2.8394   -0.7189 H   0  0  0  0  0  0  0  0  0  0  0  0
   -4.6372    2.1216   -1.3419 H   0  0  0  0  0  0  0  0  0  0  0  0
   -3.1683    2.1462   -2.3686 H   0  0  0  0  0  0  0  0  0  0  0  0
   -3.7114   -0.0470    1.0507 C   0  0  0  0  0  0  0  0  0  0  0  0
   -3.1266    0.4514    1.8441 H   0  0  0  0  0  0  0  0  0  0  0  0
   -3.6882   -1.1378    1.2450 H   0  0  0  0  0  0  0  0  0  0  0  0
   -4.7655    0.2907    1.1337 H   0  0  0  0  0  0  0  0  0  0  0  0
   -3.8973   -0.9751   -1.8360 C   0  0  0  0  0  0  0  0  0  0  0  0
   -3.6735   -2.0142   -1.5194 H   0  0  0  0  0  0  0  0  0  0  0  0
   -3.5939   -0.8541   -2.8957 H   0  0  0  0  0  0  0  0  0  0  0  0
   -4.9981   -0.8445   -1.7853 H   0  0  0  0  0  0  0  0  0  0  0  0
  1 15  1  0  0  0  0
  2 31  1  0  0  0  0
  2 23  1  0  0  0  0
  3 39  1  0  0  0  0
  4  1  1  0  0  0  0
  4  5  1  0  0  0  0
  5  2  1  0  0  0  0
  6  3  1  0  0  0  0
  6  5  2  0  0  0  0
  7  9  1  0  0  0  0
  7  6  1  0  0  0  0
  8  7  1  0  0  0  0
  9  4  2  0  0  0  0
 10  9  1  0  0  0  0
 11 14  1  0  0  0  0
 11 13  1  0  0  0  0
 11  1  1  0  0  0  0
 12 11  1  0  0  0  0
 15 18  1  0  0  0  0
 15 16  1  0  0  0  0
 15 17  1  0  0  0  0
 19 22  1  0  0  0  0
 19  1  1  0  0  0  0
 20 19  1  0  0  0  0
 21 19  1  0  0  0  0
 23 26  1  0  0  0  0
 23 25  1  0  0  0  0
 24 23  1  0  0  0  0
 27 29  1  0  0  0  0
 27  2  1  0  0  0  0
 28 27  1  0  0  0  0
 30 27  1  0  0  0  0
 31 34  1  0  0  0  0
 31 32  1  0  0  0  0
 33 31  1  0  0  0  0
 35 36  1  0  0  0  0
 35  3  1  0  0  0  0
 37 35  1  0  0  0  0
 38 35  1  0  0  0  0
 39 42  1  0  0  0  0
 39 41  1  0  0  0  0
 39 40  1  0  0  0  0
 43 46  1  0  0  0  0
 43 44  1  0  0  0  0
 43  3  1  0  0  0  0
 45 43  1  0  0  0  0
M  END
