18
q = -1.0

 34 36  0  0  0  0  0  0  0  0999 V2000
    0.7352    4.0428   -0.8262 C   0  0  0  0  0  0  0  0  0  0  0  0
    1.1645    4.8815    0.2165 C   0  0  0  0  0  0  0  0  0  0  0  0
    2.2782    4.4765    0.9695 C   0  0  0  0  0  0  0  0  0  0  0  0
    2.9104    3.2711    0.6482 C   0  0  0  0  0  0  0  0  0  0  0  0
    2.4073    2.5005   -0.4236 C   0  0  0  0  0  0  0  0  0  0  0  0
    3.0652    1.2166   -0.8080 C   0  0  0  0  0  0  0  0  0  0  0  0
    2.5401    0.4716   -1.8826 C   0  0  0  0  0  0  0  0  0  0  0  0
    3.1650   -0.7453   -2.2167 C   0  0  0  0  0  0  0  0  0  0  0  0
    4.2923   -1.1442   -1.4723 C   0  0  0  0  0  0  0  0  0  0  0  0
    4.7420   -0.3209   -0.4271 C   0  0  0  0  0  0  0  0  0  0  0  0
    5.9367   -0.7263    0.3707 C   0  0  0  0  0  0  0  0  0  0  0  0
    6.4020    0.0878    1.4264 C   0  0  0  0  0  0  0  0  0  0  0  0
    7.5246   -0.3239    2.1519 C   0  0  0  0  0  0  0  0  0  0  0  0
    8.1503   -1.5318    1.8069 C   0  0  0  0  0  0  0  0  0  0  0  0
    7.6117   -2.2716    0.7403 C   0  0  0  0  0  0  0  0  0  0  0  0
    1.5672   -1.2546   -3.9440 C   0  0  0  0  0  0  0  0  0  0  0  0
    0.3703   -1.2367   -3.1137 C   0  0  0  0  0  2  0  0  0  0  0  0
   -0.5643   -1.1354   -2.3092 C   0  0  0  0  0  1  0  0  0  0  0  0
    2.7739   -1.5738   -3.2115 O   0  0  0  0  0  0  0  0  0  0  0  0
    1.3301    2.8864   -1.1405 N   0  0  0  0  0  0  0  0  0  0  0  0
    4.1389    0.8382   -0.0922 N   0  0  0  0  0  0  0  0  0  0  0  0
    6.5389   -1.8879    0.0388 N   0  0  0  0  0  0  0  0  0  0  0  0
   -0.1385    4.3247   -1.4421 H   0  0  0  0  0  0  0  0  0  0  0  0
    0.6359    5.8225    0.4295 H   0  0  0  0  0  0  0  0  0  0  0  0
    2.6517    5.0984    1.7980 H   0  0  0  0  0  0  0  0  0  0  0  0
    3.7885    2.8990    1.1928 H   0  0  0  0  0  0  0  0  0  0  0  0
    1.6461    0.8568   -2.3865 H   0  0  0  0  0  0  0  0  0  0  0  0
    4.8178   -2.0827   -1.6906 H   0  0  0  0  0  0  0  0  0  0  0  0
    5.8665    1.0215    1.6444 H   0  0  0  0  0  0  0  0  0  0  0  0
    7.9101    0.2915    2.9798 H   0  0  0  0  0  0  0  0  0  0  0  0
    9.0360   -1.8962    2.3484 H   0  0  0  0  0  0  0  0  0  0  0  0
    8.0767   -3.2278    0.4385 H   0  0  0  0  0  0  0  0  0  0  0  0
    1.7042   -0.2751   -4.4603 H   0  0  0  0  0  0  0  0  0  0  0  0
    1.5191   -2.0369   -4.7288 H   0  0  0  0  0  0  0  0  0  0  0  0
  1  2  1  0  0  0  0
  2 24  1  0  0  0  0
  2  3  2  0  0  0  0
  3 25  1  0  0  0  0
  4  3  1  0  0  0  0
  4 26  1  0  0  0  0
  5  4  2  0  0  0  0
  6  5  1  0  0  0  0
  6 21  1  0  0  0  0
  7  6  2  0  0  0  0
  8  7  1  0  0  0  0
  8  9  2  0  0  0  0
  9 10  1  0  0  0  0
 10 21  2  0  0  0  0
 10 11  1  0  0  0  0
 11 12  1  0  0  0  0
 12 29  1  0  0  0  0
 12 13  2  0  0  0  0
 13 30  1  0  0  0  0
 14 13  1  0  0  0  0
 14 31  1  0  0  0  0
 15 14  2  0  0  0  0
 16 19  1  0  0  0  0
 16 17  1  0  0  0  0
 17 18  1  0  0  0  0
 19  8  1  0  0  0  0
 20  1  2  0  0  0  0
 20  5  1  0  0  0  0
 22 11  2  0  0  0  0
 22 15  1  0  0  0  0
 23  1  1  0  0  0  0
 27  7  1  0  0  0  0
 28  9  1  0  0  0  0
 32 15  1  0  0  0  0
 33 16  1  0  0  0  0
 34 16  1  0  0  0  0
M  END
