3
q = 0.0, confidence = 1.0

 21 22  0  0  0  0  0  0  0  0999 V2000
   -1.3354   -1.5513   -0.1688 O   0  0  0  0  0  0  0  0  0  0  0  0
   -1.7966    0.5358    0.3110 N   0  0  0  0  0  0  0  0  0  0  0  0
   -0.7629   -0.3288    0.0745 C   0  0  0  0  0  2  0  0  0  0  0  0
   -2.7054   -1.4521   -0.0906 C   0  0  0  0  0  0  0  0  0  0  0  0
   -3.6656   -2.4469   -0.2610 C   0  0  0  0  0  0  0  0  0  0  0  0
   -5.0041   -2.0396   -0.1142 C   0  0  0  0  0  0  0  0  0  0  0  0
   -5.3418   -0.7025    0.1869 C   0  0  0  0  0  0  0  0  0  0  0  0
   -4.3606    0.2898    0.3557 C   0  0  0  0  0  0  0  0  0  0  0  0
   -3.0290   -0.1207    0.2105 C   0  0  0  0  0  0  0  0  0  0  0  0
   -1.6611    1.9608    0.6132 C   0  0  0  0  0  0  0  0  0  0  0  0
   -2.1111    2.8410   -0.5215 C   0  0  0  0  0  0  0  0  0  0  0  0
   -3.0359    3.8070   -0.4004 C   0  0  0  0  0  0  0  0  0  0  0  0
   -3.3849   -3.4826   -0.4947 H   0  0  0  0  0  0  0  0  0  0  0  0
   -5.8060   -2.7818   -0.2388 H   0  0  0  0  0  0  0  0  0  0  0  0
   -6.4018   -0.4276    0.2891 H   0  0  0  0  0  0  0  0  0  0  0  0
   -4.6252    1.3323    0.5748 H   0  0  0  0  0  0  0  0  0  0  0  0
   -0.5877    2.1239    0.8342 H   0  0  0  0  0  0  0  0  0  0  0  0
   -2.2347    2.1775    1.5382 H   0  0  0  0  0  0  0  0  0  0  0  0
   -1.6023    2.6725   -1.4862 H   0  0  0  0  0  0  0  0  0  0  0  0
   -3.3047    4.4536   -1.2493 H   0  0  0  0  0  0  0  0  0  0  0  0
   -3.5471    3.9993    0.5585 H   0  0  0  0  0  0  0  0  0  0  0  0
  1  4  1  0  0  0  0
  1  3  1  0  0  0  0
  2 10  1  0  0  0  0
  3  2  1  0  0  0  0
  4  9  1  0  0  0  0
  5  6  1  0  0  0  0
  5  4  2  0  0  0  0
  6  7  2  0  0  0  0
  7 15  1  0  0  0  0
  7  8  1  0  0  0  0
  8 16  1  0  0  0  0
  9  2  1  0  0  0  0
  9  8  2  0  0  0  0
 10 17  1  0  0  0  0
 10 18  1  0  0  0  0
 11 12  2  0  0  0  0
 11 10  1  0  0  0  0
 12 21  1  0  0  0  0
 13  5  1  0  0  0  0
 14  6  1  0  0  0  0
 19 11  1  0  0  0  0
 20 12  1  0  0  0  0
M  END
