4
q = -1.0

  9  8  0  0  0  0  0  0  0  0999 V2000
    2.2298   -0.8464    1.1052 F   0  0  0  0  0  0  0  0  0  0  0  0
    2.2302   -0.8464   -1.1052 F   0  0  0  0  0  0  0  0  0  0  0  0
    1.2287    2.1001   -0.0006 O   0  0  0  0  0  0  0  0  0  0  0  0
    1.0656    0.9022   -0.0003 C   0  0  0  0  0  3  0  0  0  0  0  0
    2.3252   -0.0303    0.0000 C   0  0  0  0  0  0  0  0  0  0  0  0
    3.6454    0.6968    0.0002 C   0  0  0  0  0  0  0  0  0  0  0  0
    3.7192    1.3392   -0.8960 H   0  0  0  0  0  0  0  0  0  0  0  0
    4.4670   -0.0439   -0.0002 H   0  0  0  0  0  0  0  0  0  0  0  0
    3.7194    1.3383    0.8971 H   0  0  0  0  0  0  0  0  0  0  0  0
  2  5  1  0  0  0  0
  3  4  2  0  0  0  0
  4  5  1  0  0  0  0
  5  6  1  0  0  0  0
  5  1  1  0  0  0  0
  6  9  1  0  0  0  0
  7  6  1  0  0  0  0
  8  6  1  0  0  0  0
M  END
