2
q = -1.0, confidence = 0.0

 29 31  0  0  0  0  0  0  0  0999 V2000
   -2.3330    5.9043    0.1373 F   0  0  0  0  0  0  0  0  0  0  0  0
   -1.9044   -1.4180    1.8560 C   0  0  0  0  0  3  0  0  0  0  0  0
   -1.3435   -1.5380    2.7906 H   0  0  0  0  0  0  0  0  0  0  0  0
   -2.4980   -0.2060    1.3842 C   0  0  0  0  0  0  0  0  0  0  0  0
   -2.4407    0.7670    1.8841 H   0  0  0  0  0  0  0  0  0  0  0  0
   -3.1466   -0.4430    0.1395 C   0  0  0  0  0  0  0  0  0  0  0  0
   -3.0471   -1.8649   -0.1229 C   0  0  0  0  0  0  0  0  0  0  0  0
   -2.3109   -2.4748    0.9649 C   0  0  0  0  0  0  0  0  0  0  0  0
   -2.1064   -3.8817    0.9845 C   0  0  0  0  0  0  0  0  0  0  0  0
   -1.5446   -4.3460    1.8076 H   0  0  0  0  0  0  0  0  0  0  0  0
   -2.6199   -4.6427   -0.0538 C   0  0  0  0  0  0  0  0  0  0  0  0
   -2.4765   -5.7336   -0.0510 H   0  0  0  0  0  0  0  0  0  0  0  0
   -3.3206   -4.0397   -1.1412 C   0  0  0  0  0  0  0  0  0  0  0  0
   -3.6973   -4.6788   -1.9538 H   0  0  0  0  0  0  0  0  0  0  0  0
   -3.5337   -2.6703   -1.1919 C   0  0  0  0  0  0  0  0  0  0  0  0
   -4.0739   -2.2119   -2.0323 H   0  0  0  0  0  0  0  0  0  0  0  0
   -3.9572    0.5339   -0.6793 C   0  0  0  0  0  0  0  0  0  0  0  0
   -5.0289    0.3970   -0.4101 H   0  0  0  0  0  0  0  0  0  0  0  0
   -3.8654    0.2617   -1.7495 H   0  0  0  0  0  0  0  0  0  0  0  0
   -3.5649    1.9821   -0.4855 C   0  0  0  0  0  0  0  0  0  0  0  0
   -3.9582    2.6898    0.6694 C   0  0  0  0  0  0  0  0  0  0  0  0
   -4.6073    2.1988    1.4118 H   0  0  0  0  0  0  0  0  0  0  0  0
   -3.5435    4.0115    0.8915 C   0  0  0  0  0  0  0  0  0  0  0  0
   -3.8476    4.5712    1.7876 H   0  0  0  0  0  0  0  0  0  0  0  0
   -2.7323    4.6349   -0.0652 C   0  0  0  0  0  0  0  0  0  0  0  0
   -2.3387    3.9683   -1.2318 C   0  0  0  0  0  0  0  0  0  0  0  0
   -1.7106    4.4923   -1.9665 H   0  0  0  0  0  0  0  0  0  0  0  0
   -2.7564    2.6444   -1.4318 C   0  0  0  0  0  0  0  0  0  0  0  0
   -2.4335    2.1021   -2.3330 H   0  0  0  0  0  0  0  0  0  0  0  0
  2  3  1  0  0  0  0
  4  2  1  0  0  0  0
  4  5  1  0  0  0  0
  6  4  2  0  0  0  0
  7  6  1  0  0  0  0
  7  8  1  0  0  0  0
  8  9  2  0  0  0  0
  8  2  1  0  0  0  0
  9 10  1  0  0  0  0
 11 12  1  0  0  0  0
 11  9  1  0  0  0  0
 13 11  2  0  0  0  0
 14 13  1  0  0  0  0
 15 13  1  0  0  0  0
 15  7  2  0  0  0  0
 16 15  1  0  0  0  0
 17 20  1  0  0  0  0
 17 18  1  0  0  0  0
 17  6  1  0  0  0  0
 19 17  1  0  0  0  0
 20 21  1  0  0  0  0
 21 23  2  0  0  0  0
 21 22  1  0  0  0  0
 23 24  1  0  0  0  0
 25  1  1  0  0  0  0
 25 23  1  0  0  0  0
 26 25  2  0  0  0  0
 27 26  1  0  0  0  0
 28 26  1  0  0  0  0
 28 20  2  0  0  0  0
 29 28  1  0  0  0  0
M  END
