3
q = -1.0

 27 27  0  0  1  0  0  0  0  0999 V2000
    0.7173    1.8492   -1.2360 C   0  0  0  0  0  3  0  0  0  0  0  0
    2.6831   -1.3807   -0.2033 C   0  0  0  0  0  0  0  0  0  0  0  0
    1.6362   -0.3935   -0.7578 C   0  0  0  0  0  3  0  0  0  0  0  0
    1.8306    3.2331    0.3601 C   0  0  0  0  0  0  0  0  0  0  0  0
    1.1577    3.1666    1.2391 H   0  0  0  0  0  0  0  0  0  0  0  0
    2.4900    4.1115    0.5026 H   0  0  0  0  0  0  0  0  0  0  0  0
    1.7092    1.0317   -0.6325 C   0  0  2  0  0  3  0  0  0  0  0  0
    2.7499   -1.4150    1.3344 C   0  0  0  0  0  0  0  0  0  0  0  0
    1.7827   -1.7401    1.7634 H   0  0  0  0  0  0  0  0  0  0  0  0
    2.9858   -0.4285    1.7745 H   0  0  0  0  0  0  0  0  0  0  0  0
    3.5355   -2.1263    1.6643 H   0  0  0  0  0  0  0  0  0  0  0  0
    2.6106    1.9092    0.2255 C   0  0  0  0  0  0  0  0  0  0  0  0
    3.5564    2.0675   -0.3414 H   0  0  0  0  0  0  0  0  0  0  0  0
    2.8857    1.4653    1.2000 H   0  0  0  0  0  0  0  0  0  0  0  0
    2.3339   -2.8007   -0.6863 C   0  0  0  0  0  0  0  0  0  0  0  0
    3.1021   -3.5272   -0.3518 H   0  0  0  0  0  0  0  0  0  0  0  0
    2.2742   -2.8536   -1.7929 H   0  0  0  0  0  0  0  0  0  0  0  0
    1.3594   -3.1273   -0.2746 H   0  0  0  0  0  0  0  0  0  0  0  0
    0.9807    3.3091   -0.9231 C   0  0  0  0  0  0  0  0  0  0  0  0
    0.0609    3.9157   -0.8034 H   0  0  0  0  0  0  0  0  0  0  0  0
    1.5655    3.7623   -1.7576 H   0  0  0  0  0  0  0  0  0  0  0  0
    4.0720   -1.0129   -0.7768 C   0  0  0  0  0  0  0  0  0  0  0  0
    4.8308   -1.7675   -0.4807 H   0  0  0  0  0  0  0  0  0  0  0  0
    4.4191   -0.0279   -0.4093 H   0  0  0  0  0  0  0  0  0  0  0  0
    4.0467   -0.9728   -1.8853 H   0  0  0  0  0  0  0  0  0  0  0  0
    1.2591   -0.7157   -1.7486 H   0  0  0  0  0  0  0  0  0  0  0  0
    0.2176    1.5545   -2.1749 H   0  0  0  0  0  0  0  0  0  0  0  0
  1 19  1  0  0  0  0
  1  7  1  0  0  0  0
  2  8  1  0  0  0  0
  3  2  1  0  0  0  0
  4  6  1  0  0  0  0
  4  5  1  0  0  0  0
  7  3  1  1  0  0  0
  7 12  1  0  0  0  0
  8 11  1  0  0  0  0
  8  9  1  0  0  0  0
  8 10  1  0  0  0  0
 12  4  1  0  0  0  0
 12 14  1  0  0  0  0
 13 12  1  0  0  0  0
 15 16  1  0  0  0  0
 15 18  1  0  0  0  0
 15  2  1  0  0  0  0
 17 15  1  0  0  0  0
 19 20  1  0  0  0  0
 19  4  1  0  0  0  0
 21 19  1  0  0  0  0
 22 23  1  0  0  0  0
 22 24  1  0  0  0  0
 22  2  1  0  0  0  0
 25 22  1  0  0  0  0
 26  3  1  0  0  0  0
 27  1  1  0  0  0  0
M  END
