4
q = -1.0

 27 27  0  0  0  0  0  0  0  0999 V2000
    7.5066   -2.6745    0.3043 O   0  0  0  0  0  0  0  0  0  0  0  0
    8.6437   -0.8420   -0.0705 O   0  0  0  0  0  0  0  0  0  0  0  0
    7.5978   -1.4648    0.0985 N   0  0  0  0  0  0  0  0  0  0  0  0
   -1.5226    0.9588    0.0370 C   0  0  0  0  0  3  0  0  0  0  0  0
   -0.6936    1.8746   -0.1003 C   0  0  0  0  0  0  0  0  0  0  0  0
    0.4044    2.7956   -0.1949 C   0  0  0  0  0  0  0  0  0  0  0  0
    1.6789    2.1503   -0.1461 C   0  0  0  0  0  0  0  0  0  0  0  0
    2.7259    1.4981   -0.0977 C   0  0  0  0  0  0  0  0  0  0  0  0
    3.9426    0.7645   -0.0466 C   0  0  0  0  0  0  0  0  0  0  0  0
    5.1925    1.4149   -0.2346 C   0  0  0  0  0  0  0  0  0  0  0  0
    5.2115    2.4982   -0.4193 H   0  0  0  0  0  0  0  0  0  0  0  0
    6.3846    0.6902   -0.1869 C   0  0  0  0  0  0  0  0  0  0  0  0
    7.3639    1.1668   -0.3289 H   0  0  0  0  0  0  0  0  0  0  0  0
    6.3316   -0.6901    0.0492 C   0  0  0  0  0  0  0  0  0  0  0  0
    5.1185   -1.3651    0.2412 C   0  0  0  0  0  0  0  0  0  0  0  0
    5.1408   -2.4476    0.4251 H   0  0  0  0  0  0  0  0  0  0  0  0
    3.9296   -0.6372    0.1932 C   0  0  0  0  0  0  0  0  0  0  0  0
    2.9663   -1.1460    0.3455 H   0  0  0  0  0  0  0  0  0  0  0  0
    0.2572    4.1654   -0.3202 C   0  0  0  0  0  0  0  0  0  0  0  0
   -1.0985    4.7982   -0.3646 C   0  0  0  0  0  0  0  0  0  0  0  0
   -1.2287    5.3801   -1.3030 H   0  0  0  0  0  0  0  0  0  0  0  0
   -1.2149    5.5310    0.4635 H   0  0  0  0  0  0  0  0  0  0  0  0
   -1.9114    4.0508   -0.2929 H   0  0  0  0  0  0  0  0  0  0  0  0
    1.4388    5.0781   -0.4140 C   0  0  0  0  0  0  0  0  0  0  0  0
    2.3993    4.5322   -0.3770 H   0  0  0  0  0  0  0  0  0  0  0  0
    1.4225    5.8222    0.4119 H   0  0  0  0  0  0  0  0  0  0  0  0
    1.4016    5.6688   -1.3551 H   0  0  0  0  0  0  0  0  0  0  0  0
  2  3  2  0  0  0  0
  3  1  2  0  0  0  0
  5  4  3  0  0  0  0
  6  7  1  0  0  0  0
  6  5  1  0  0  0  0
  7  8  3  0  0  0  0
  8  9  1  0  0  0  0
  9 17  1  0  0  0  0
 10 12  1  0  0  0  0
 10  9  2  0  0  0  0
 11 10  1  0  0  0  0
 12 14  2  0  0  0  0
 13 12  1  0  0  0  0
 14  3  1  0  0  0  0
 14 15  1  0  0  0  0
 15 16  1  0  0  0  0
 17 15  2  0  0  0  0
 17 18  1  0  0  0  0
 19  6  2  0  0  0  0
 20 19  1  0  0  0  0
 20 23  1  0  0  0  0
 20 22  1  0  0  0  0
 21 20  1  0  0  0  0
 24 25  1  0  0  0  0
 24 19  1  0  0  0  0
 24 26  1  0  0  0  0
 27 24  1  0  0  0  0
M  END
