5
q = 0.0, confidence = 0.986

 17 18  0  0  1  0  0  0  0  0999 V2000
   -2.6232    2.0545    0.2515 O   0  0  0  0  0  0  0  0  0  0  0  0
   -2.0422    1.0805   -0.2191 C   0  0  0  0  0  0  0  0  0  0  0  0
   -0.6938    1.2676   -0.8324 C   0  0  0  0  0  3  0  0  0  0  0  0
   -0.0154    0.5046   -1.8555 C   0  0  0  0  0  3  0  0  0  0  0  0
    0.1348   -0.9053   -1.7601 C   0  0  0  0  0  3  0  0  0  0  0  0
   -0.4833   -1.5909   -0.6491 C   0  0  0  0  0  3  0  0  0  0  0  0
   -1.9602   -1.5491   -0.4150 C   0  0  2  0  0  0  0  0  0  0  0  0
   -2.7181   -0.2624   -0.2438 C   0  0  1  0  0  0  0  0  0  0  0  0
   -2.5912   -1.2352    0.9184 C   0  0  0  0  0  0  0  0  0  0  0  0
   -0.4531    2.3444   -0.8278 H   0  0  0  0  0  0  0  0  0  0  0  0
    0.5568    1.0445   -2.6277 H   0  0  0  0  0  0  0  0  0  0  0  0
    0.8342   -1.4112   -2.4458 H   0  0  0  0  0  0  0  0  0  0  0  0
   -0.0637   -2.5933   -0.4484 H   0  0  0  0  0  0  0  0  0  0  0  0
   -2.4804   -2.3262   -1.0071 H   0  0  0  0  0  0  0  0  0  0  0  0
   -3.7268   -0.1912   -0.6835 H   0  0  0  0  0  0  0  0  0  0  0  0
   -1.9391   -0.9630    1.7589 H   0  0  0  0  0  0  0  0  0  0  0  0
   -3.5010   -1.7827    1.2076 H   0  0  0  0  0  0  0  0  0  0  0  0
  2  1  2  0  0  0  0
  3 10  1  0  0  0  0
  3  2  1  0  0  0  0
  4  5  1  0  0  0  0
  4  3  1  0  0  0  0
  5  6  1  0  0  0  0
  6 13  1  0  0  0  0
  6  7  1  0  0  0  0
  7 14  1  6  0  0  0
  7  8  1  0  0  0  0
  7  9  1  0  0  0  0
  8 15  1  6  0  0  0
  8  2  1  0  0  0  0
  8  9  1  0  0  0  0
  9 17  1  0  0  0  0
  9 16  1  0  0  0  0
 11  4  1  0  0  0  0
 12  5  1  0  0  0  0
M  END
