8
q = 0.0, confidence = 0.996

 30 31  0  0  0  0  0  0  0  0999 V2000
   -0.3785    2.6566   -0.3582 N   0  0  0  0  0  0  0  0  0  0  0  0
    1.0041    1.2823    0.5931 N   0  0  0  0  0  0  0  0  0  0  0  0
    8.1022   -0.2646    0.4786 O   0  0  0  0  0  0  0  0  0  0  0  0
   -1.5565    3.2622   -0.9637 C   0  0  0  0  0  0  0  0  0  0  0  0
   -2.0405    2.5152   -1.6234 H   0  0  0  0  0  0  0  0  0  0  0  0
   -1.2391    4.1333   -1.5667 H   0  0  0  0  0  0  0  0  0  0  0  0
   -2.2632    3.6046   -0.1807 H   0  0  0  0  0  0  0  0  0  0  0  0
   -0.2259    1.3286   -0.0272 C   0  0  0  0  0  2  0  0  0  0  0  0
    0.7223    3.4026    0.0416 C   0  0  0  0  0  0  0  0  0  0  0  0
    0.7929    4.4774   -0.1483 H   0  0  0  0  0  0  0  0  0  0  0  0
    1.5955    2.5376    0.6377 C   0  0  0  0  0  0  0  0  0  0  0  0
    2.5920    2.6910    1.0612 H   0  0  0  0  0  0  0  0  0  0  0  0
    1.6295    0.1064    1.2078 C   0  0  0  0  0  0  0  0  0  0  0  0
    1.0437   -0.7703    0.8640 H   0  0  0  0  0  0  0  0  0  0  0  0
    1.5508    0.2008    2.3112 H   0  0  0  0  0  0  0  0  0  0  0  0
    3.0750   -0.0441    0.7954 C   0  0  0  0  0  0  0  0  0  0  0  0
    3.3917   -0.3558   -0.5431 C   0  0  0  0  0  0  0  0  0  0  0  0
    2.5696   -0.5173   -1.2587 H   0  0  0  0  0  0  0  0  0  0  0  0
    4.7278   -0.4877   -0.9367 C   0  0  0  0  0  0  0  0  0  0  0  0
    4.9513   -0.7380   -1.9841 H   0  0  0  0  0  0  0  0  0  0  0  0
    5.7757   -0.3112   -0.0060 C   0  0  0  0  0  0  0  0  0  0  0  0
    5.4537   -0.0047    1.3322 C   0  0  0  0  0  0  0  0  0  0  0  0
    6.2851    0.1255    2.0410 H   0  0  0  0  0  0  0  0  0  0  0  0
    4.1188    0.1278    1.7270 C   0  0  0  0  0  0  0  0  0  0  0  0
    3.8759    0.3658    2.7756 H   0  0  0  0  0  0  0  0  0  0  0  0
    7.2308   -0.4367   -0.3676 C   0  0  0  0  0  0  0  0  0  0  0  0
    7.5896   -0.7813   -1.8025 C   0  0  0  0  0  0  0  0  0  0  0  0
    8.6889   -0.8353   -1.8927 H   0  0  0  0  0  0  0  0  0  0  0  0
    7.1971   -0.0182   -2.5057 H   0  0  0  0  0  0  0  0  0  0  0  0
    7.1450   -1.7530   -2.1011 H   0  0  0  0  0  0  0  0  0  0  0  0
  1  8  1  0  0  0  0
  1  9  1  0  0  0  0
  2 11  1  0  0  0  0
  2 13  1  0  0  0  0
  4  1  1  0  0  0  0
  4  7  1  0  0  0  0
  5  4  1  0  0  0  0
  6  4  1  0  0  0  0
  8  2  1  0  0  0  0
  9 11  2  0  0  0  0
 10  9  1  0  0  0  0
 11 12  1  0  0  0  0
 13 15  1  0  0  0  0
 14 13  1  0  0  0  0
 16 13  1  0  0  0  0
 16 24  1  0  0  0  0
 17 16  2  0  0  0  0
 18 17  1  0  0  0  0
 19 17  1  0  0  0  0
 19 21  2  0  0  0  0
 20 19  1  0  0  0  0
 21 22  1  0  0  0  0
 22 24  2  0  0  0  0
 22 23  1  0  0  0  0
 24 25  1  0  0  0  0
 26 21  1  0  0  0  0
 26  3  2  0  0  0  0
 27 26  1  0  0  0  0
 28 27  1  0  0  0  0
 29 27  1  0  0  0  0
 30 27  1  0  0  0  0
M  END
