5
q = -1.0, confidence = 0.0

 36 38  0  0  0  0  0  0  0  0999 V2000
    1.4766   -1.8906    1.4344 C   0  0  0  0  0  0  0  0  0  0  0  0
    2.3022   -1.2167    0.4645 C   0  0  0  0  0  0  0  0  0  0  0  0
    2.5890    0.1079    0.9632 C   0  0  0  0  0  0  0  0  0  0  0  0
    1.9032    0.2670    2.2182 C   0  0  0  0  0  0  0  0  0  0  0  0
    1.2347   -0.9684    2.4929 C   0  0  0  0  0  3  0  0  0  0  0  0
    0.6758   -1.1903    3.4097 H   0  0  0  0  0  0  0  0  0  0  0  0
    1.0076   -3.3153    1.3910 C   0  0  0  0  0  0  0  0  0  0  0  0
    1.7631   -3.9881    1.8496 H   0  0  0  0  0  0  0  0  0  0  0  0
    0.8305   -3.6528    0.3531 H   0  0  0  0  0  0  0  0  0  0  0  0
    0.0684   -3.4473    1.9641 H   0  0  0  0  0  0  0  0  0  0  0  0
    2.8270   -1.8074   -0.7878 C   0  0  0  0  0  0  0  0  0  0  0  0
    3.4079   -3.0946   -0.7755 C   0  0  0  0  0  0  0  0  0  0  0  0
    3.4706   -3.6530    0.1696 H   0  0  0  0  0  0  0  0  0  0  0  0
    3.9361   -3.6554   -1.9481 C   0  0  0  0  0  0  0  0  0  0  0  0
    4.3888   -4.6584   -1.9170 H   0  0  0  0  0  0  0  0  0  0  0  0
    3.8926   -2.9384   -3.1529 C   0  0  0  0  0  0  0  0  0  0  0  0
    4.3042   -3.3781   -4.0742 H   0  0  0  0  0  0  0  0  0  0  0  0
    3.3199   -1.6555   -3.1754 C   0  0  0  0  0  0  0  0  0  0  0  0
    3.2771   -1.0866   -4.1166 H   0  0  0  0  0  0  0  0  0  0  0  0
    2.7924   -1.0936   -2.0072 C   0  0  0  0  0  0  0  0  0  0  0  0
    2.3344   -0.0941   -2.0318 H   0  0  0  0  0  0  0  0  0  0  0  0
    3.6045    1.0438    0.4324 C   0  0  0  0  0  0  0  0  0  0  0  0
    4.8382    0.5370   -0.0393 C   0  0  0  0  0  0  0  0  0  0  0  0
    5.0070   -0.5488   -0.0495 H   0  0  0  0  0  0  0  0  0  0  0  0
    5.8493    1.4006   -0.4797 C   0  0  0  0  0  0  0  0  0  0  0  0
    6.8009    0.9819   -0.8410 H   0  0  0  0  0  0  0  0  0  0  0  0
    5.6531    2.7906   -0.4574 C   0  0  0  0  0  0  0  0  0  0  0  0
    6.4464    3.4689   -0.8069 H   0  0  0  0  0  0  0  0  0  0  0  0
    4.4373    3.3080    0.0147 C   0  0  0  0  0  0  0  0  0  0  0  0
    4.2689    4.3955    0.0318 H   0  0  0  0  0  0  0  0  0  0  0  0
    3.4240    2.4451    0.4542 C   0  0  0  0  0  0  0  0  0  0  0  0
    2.4650    2.8635    0.7854 H   0  0  0  0  0  0  0  0  0  0  0  0
    2.0604    1.4099    3.1830 C   0  0  0  0  0  0  0  0  0  0  0  0
    3.1329    1.6695    3.2952 H   0  0  0  0  0  0  0  0  0  0  0  0
    1.6671    1.1359    4.1810 H   0  0  0  0  0  0  0  0  0  0  0  0
    1.5476    2.3390    2.8637 H   0  0  0  0  0  0  0  0  0  0  0  0
  1  5  1  0  0  0  0
  2  3  1  0  0  0  0
  2  1  2  0  0  0  0
  3  4  2  0  0  0  0
  4  5  1  0  0  0  0
  4 33  1  0  0  0  0
  5  6  1  0  0  0  0
  7  1  1  0  0  0  0
  7  8  1  0  0  0  0
  7 10  1  0  0  0  0
  9  7  1  0  0  0  0
 11 12  1  0  0  0  0
 11  2  1  0  0  0  0
 12 13  1  0  0  0  0
 14 15  1  0  0  0  0
 14 12  2  0  0  0  0
 16 14  1  0  0  0  0
 17 16  1  0  0  0  0
 18 16  2  0  0  0  0
 18 20  1  0  0  0  0
 19 18  1  0  0  0  0
 20 11  2  0  0  0  0
 21 20  1  0  0  0  0
 22 31  1  0  0  0  0
 22  3  1  0  0  0  0
 23 22  2  0  0  0  0
 24 23  1  0  0  0  0
 25 27  2  0  0  0  0
 25 23  1  0  0  0  0
 26 25  1  0  0  0  0
 27 29  1  0  0  0  0
 28 27  1  0  0  0  0
 29 30  1  0  0  0  0
 29 31  2  0  0  0  0
 31 32  1  0  0  0  0
 33 34  1  0  0  0  0
 33 35  1  0  0  0  0
 36 33  1  0  0  0  0
M  END
