4
q = 0.0, confidence = 0.946

 51 50  0  0  1  0  0  0  0  0999 V2000
   -2.1197    2.3541    0.8163 S   0  0  0  0  0  0  0  0  0  0  0  0
   -0.4704   -3.4803   -2.0805 C   0  0  0  0  0  0  0  0  0  0  0  0
   -0.5103   -2.0991   -1.7082 C   0  0  0  0  0  3  0  0  0  0  0  0
   -1.6205   -1.2646   -2.1214 C   0  0  0  0  0  3  0  0  0  0  0  0
   -1.6723    0.0448   -1.5602 C   0  0  0  0  0  3  0  0  0  0  0  0
   -0.6487    0.3839   -0.6270 C   0  0  0  0  0  3  0  0  0  0  0  0
   -0.5560    1.7056    0.0937 C   0  0  1  0  0  0  0  0  0  0  0  0
    0.1254    2.7687   -0.8191 C   0  0  1  0  0  0  0  0  0  0  0  0
    1.5722    2.3720   -1.2284 C   0  0  1  0  0  0  0  0  0  0  0  0
    2.2975    3.5563   -1.8701 C   0  0  0  0  0  0  0  0  0  0  0  0
   -1.8876    1.8444    2.5672 C   0  0  0  0  0  0  0  0  0  0  0  0
   -3.1370    2.1811    3.3719 C   0  0  0  0  0  0  0  0  0  0  0  0
   -1.6755    3.8105   -2.0387 C   0  0  0  0  0  0  0  0  0  0  0  0
    2.8418    0.5245   -0.1634 C   0  0  0  0  0  0  0  0  0  0  0  0
    4.4587   -0.9144    1.0154 C   0  0  0  0  0  0  0  0  0  0  0  0
    5.3486   -0.6237    2.2255 C   0  0  0  0  0  0  0  0  0  0  0  0
    5.3012   -1.2162   -0.2275 C   0  0  0  0  0  0  0  0  0  0  0  0
    3.4630   -2.0341    1.3280 C   0  0  0  0  0  0  0  0  0  0  0  0
   -0.5368    2.9730   -2.0530 O   0  0  0  0  0  0  0  0  0  0  0  0
    2.4875   -0.3345   -0.9699 O   0  0  0  0  0  0  0  0  0  0  0  0
    3.7473    0.3680    0.8273 O   0  0  0  0  0  0  0  0  0  0  0  0
   -0.4215   -4.6150   -2.3826 N   0  0  0  0  0  0  0  0  0  0  0  0
    2.3451    1.8086   -0.1324 N   0  0  0  0  0  0  0  0  0  0  0  0
    0.4932   -1.6510   -1.5923 H   0  0  0  0  0  0  0  0  0  0  0  0
   -2.4204   -1.6419   -2.7748 H   0  0  0  0  0  0  0  0  0  0  0  0
   -2.5409    0.6974   -1.7365 H   0  0  0  0  0  0  0  0  0  0  0  0
    0.3577   -0.0097   -0.8409 H   0  0  0  0  0  0  0  0  0  0  0  0
    0.1332    1.5844    0.9539 H   0  0  0  0  0  0  0  0  0  0  0  0
    0.1519    3.7227   -0.2343 H   0  0  0  0  0  0  0  0  0  0  0  0
    1.4721    1.5587   -1.9755 H   0  0  0  0  0  0  0  0  0  0  0  0
    3.2771    3.2435   -2.2808 H   0  0  0  0  0  0  0  0  0  0  0  0
    2.4709    4.3661   -1.1294 H   0  0  0  0  0  0  0  0  0  0  0  0
    1.6827    3.9694   -2.6914 H   0  0  0  0  0  0  0  0  0  0  0  0
   -1.6751    0.7561    2.5960 H   0  0  0  0  0  0  0  0  0  0  0  0
   -0.9971    2.3758    2.9645 H   0  0  0  0  0  0  0  0  0  0  0  0
   -2.9906    1.9079    4.4363 H   0  0  0  0  0  0  0  0  0  0  0  0
   -4.0159    1.6237    2.9928 H   0  0  0  0  0  0  0  0  0  0  0  0
   -3.3661    3.2652    3.3269 H   0  0  0  0  0  0  0  0  0  0  0  0
   -1.9061    4.0600   -3.0933 H   0  0  0  0  0  0  0  0  0  0  0  0
   -1.4898    4.7539   -1.4749 H   0  0  0  0  0  0  0  0  0  0  0  0
   -2.5685    3.3174   -1.5896 H   0  0  0  0  0  0  0  0  0  0  0  0
    4.7322   -0.3671    3.1094 H   0  0  0  0  0  0  0  0  0  0  0  0
    6.0305    0.2236    2.0151 H   0  0  0  0  0  0  0  0  0  0  0  0
    5.9593   -1.5143    2.4703 H   0  0  0  0  0  0  0  0  0  0  0  0
    5.9889   -0.3743   -0.4440 H   0  0  0  0  0  0  0  0  0  0  0  0
    4.6556   -1.3906   -1.1074 H   0  0  0  0  0  0  0  0  0  0  0  0
    5.9126   -2.1234   -0.0515 H   0  0  0  0  0  0  0  0  0  0  0  0
    2.8099   -1.7513    2.1758 H   0  0  0  0  0  0  0  0  0  0  0  0
    4.0172   -2.9520    1.6075 H   0  0  0  0  0  0  0  0  0  0  0  0
    2.8266   -2.2596    0.4537 H   0  0  0  0  0  0  0  0  0  0  0  0
    2.7977    2.4451    0.5270 H   0  0  0  0  0  0  0  0  0  0  0  0
  1 11  1  0  0  0  0
  2  3  1  0  0  0  0
  3 24  1  0  0  0  0
  4  3  1  0  0  0  0
  4  5  1  0  0  0  0
  5  6  1  0  0  0  0
  6  7  1  0  0  0  0
  7  1  1  0  0  0  0
  7 28  1  1  0  0  0
  8 29  1  1  0  0  0
  8  7  1  0  0  0  0
  9 30  1  6  0  0  0
  9  8  1  0  0  0  0
  9 23  1  0  0  0  0
 10  9  1  0  0  0  0
 10 32  1  0  0  0  0
 11 34  1  0  0  0  0
 11 35  1  0  0  0  0
 11 12  1  0  0  0  0
 12 36  1  0  0  0  0
 13 41  1  0  0  0  0
 13 40  1  0  0  0  0
 14 23  1  0  0  0  0
 14 21  1  0  0  0  0
 15 18  1  0  0  0  0
 15 16  1  0  0  0  0
 16 44  1  0  0  0  0
 16 42  1  0  0  0  0
 17 47  1  0  0  0  0
 17 15  1  0  0  0  0
 18 49  1  0  0  0  0
 18 48  1  0  0  0  0
 19 13  1  0  0  0  0
 19  8  1  0  0  0  0
 20 14  2  0  0  0  0
 21 15  1  0  0  0  0
 22  2  3  0  0  0  0
 23 51  1  0  0  0  0
 25  4  1  0  0  0  0
 26  5  1  0  0  0  0
 27  6  1  0  0  0  0
 31 10  1  0  0  0  0
 33 10  1  0  0  0  0
 37 12  1  0  0  0  0
 38 12  1  0  0  0  0
 39 13  1  0  0  0  0
 43 16  1  0  0  0  0
 45 17  1  0  0  0  0
 46 17  1  0  0  0  0
 50 18  1  0  0  0  0
M  END
