24
q = 0.0, confidence = 0.842

 37 39  0  0  0  0  0  0  0  0999 V2000
    2.3164    0.5308    0.0006 N   0  0  0  0  0  0  0  0  0  0  0  0
    0.2777    2.1979    0.0013 C   0  0  0  0  0  0  0  0  0  0  0  0
    0.5712    3.5618    0.0017 C   0  0  0  0  0  0  0  0  0  0  0  0
    1.6155    3.9075    0.0023 H   0  0  0  0  0  0  0  0  0  0  0  0
   -0.4859    4.5126    0.0013 C   0  0  0  0  0  0  0  0  0  0  0  0
   -0.2497    5.5876    0.0015 H   0  0  0  0  0  0  0  0  0  0  0  0
   -1.8085    4.0941    0.0006 C   0  0  0  0  0  0  0  0  0  0  0  0
   -2.6205    4.8393    0.0003 H   0  0  0  0  0  0  0  0  0  0  0  0
   -2.1608    2.7055    0.0003 C   0  0  0  0  0  0  0  0  0  0  0  0
   -3.4954    2.2626   -0.0003 C   0  0  0  0  0  0  0  0  0  0  0  0
   -4.3169    2.9970   -0.0006 H   0  0  0  0  0  0  0  0  0  0  0  0
   -3.7925    0.8864   -0.0002 C   0  0  0  0  0  0  0  0  0  0  0  0
   -5.1514    0.4265   -0.0006 C   0  0  0  0  0  0  0  0  0  0  0  0
   -5.9567    1.1785   -0.0009 H   0  0  0  0  0  0  0  0  0  0  0  0
   -5.4530   -0.9208   -0.0005 C   0  0  0  0  0  0  0  0  0  0  0  0
   -6.5019   -1.2548   -0.0008 H   0  0  0  0  0  0  0  0  0  0  0  0
   -4.4011   -1.8858   -0.0001 C   0  0  0  0  0  0  0  0  0  0  0  0
   -4.6467   -2.9590   -0.0000 H   0  0  0  0  0  0  0  0  0  0  0  0
   -3.0808   -1.4766    0.0002 C   0  0  0  0  0  0  0  0  0  0  0  0
   -2.2754   -2.2244    0.0005 H   0  0  0  0  0  0  0  0  0  0  0  0
   -2.7044   -0.0900    0.0002 C   0  0  0  0  0  0  0  0  0  0  0  0
   -1.3334    0.3082    0.0005 C   0  0  0  0  0  3  0  0  0  0  0  0
   -1.0965    1.7188    0.0007 C   0  0  0  0  0  0  0  0  0  0  0  0
    1.1509    1.0513    0.0016 C   0  0  0  0  0  3  0  0  0  0  0  0
    3.6795    1.1183   -0.0008 C   0  0  0  0  0  0  0  0  0  0  0  0
    4.6936   -0.0323   -0.0011 C   0  0  0  0  0  0  0  0  0  0  0  0
    4.5654   -0.6720    0.8941 H   0  0  0  0  0  0  0  0  0  0  0  0
    5.7298    0.3598   -0.0023 H   0  0  0  0  0  0  0  0  0  0  0  0
    4.5637   -0.6730   -0.8953 H   0  0  0  0  0  0  0  0  0  0  0  0
    3.8427    1.9736    1.2675 C   0  0  0  0  0  0  0  0  0  0  0  0
    3.0911    2.7865    1.3016 H   0  0  0  0  0  0  0  0  0  0  0  0
    4.8518    2.4317    1.3011 H   0  0  0  0  0  0  0  0  0  0  0  0
    3.7136    1.3528    2.1766 H   0  0  0  0  0  0  0  0  0  0  0  0
    3.8406    1.9729   -1.2698 C   0  0  0  0  0  0  0  0  0  0  0  0
    3.7106    1.3515   -2.1783 H   0  0  0  0  0  0  0  0  0  0  0  0
    4.8495    2.4313   -1.3050 H   0  0  0  0  0  0  0  0  0  0  0  0
    3.0885    2.7853   -1.3033 H   0  0  0  0  0  0  0  0  0  0  0  0
  1 24  2  0  0  0  0
  2 24  1  0  0  0  0
  2  3  1  0  0  0  0
  3  4  1  0  0  0  0
  5  6  1  0  0  0  0
  5  3  2  0  0  0  0
  7  5  1  0  0  0  0
  8  7  1  0  0  0  0
  9  7  2  0  0  0  0
  9 23  1  0  0  0  0
 10 12  2  0  0  0  0
 10  9  1  0  0  0  0
 11 10  1  0  0  0  0
 12 21  1  0  0  0  0
 13 15  2  0  0  0  0
 13 12  1  0  0  0  0
 14 13  1  0  0  0  0
 15 17  1  0  0  0  0
 16 15  1  0  0  0  0
 17 18  1  0  0  0  0
 17 19  2  0  0  0  0
 19 20  1  0  0  0  0
 21 19  1  0  0  0  0
 21 22  2  0  0  0  0
 22 23  1  0  0  0  0
 23  2  2  0  0  0  0
 25  1  1  0  0  0  0
 25 30  1  0  0  0  0
 26 25  1  0  0  0  0
 26 27  1  0  0  0  0
 28 26  1  0  0  0  0
 29 26  1  0  0  0  0
 30 32  1  0  0  0  0
 30 31  1  0  0  0  0
 30 33  1  0  0  0  0
 34 25  1  0  0  0  0
 35 34  1  0  0  0  0
 36 34  1  0  0  0  0
 37 34  1  0  0  0  0
M  END
