2
q = -1.0

 21 22  0  0  0  0  0  0  0  0999 V2000
   -2.9812   -0.1010   -1.8278 N   0  0  0  0  0  0  0  0  0  0  0  0
    0.1312   -2.0062   -1.4810 C   0  0  0  0  0  3  0  0  0  0  0  0
   -1.1967   -1.4449   -1.4087 C   0  0  0  0  0  0  0  0  0  0  0  0
   -1.7049   -0.3877   -2.2371 C   0  0  0  0  0  0  0  0  0  0  0  0
   -3.3422   -0.8684   -0.7231 C   0  0  0  0  0  0  0  0  0  0  0  0
   -4.5165   -0.8517    0.0441 C   0  0  0  0  0  0  0  0  0  0  0  0
   -4.5842   -1.7385    1.1272 C   0  0  0  0  0  0  0  0  0  0  0  0
   -3.5140   -2.6118    1.4311 C   0  0  0  0  0  0  0  0  0  0  0  0
   -2.3437   -2.6179    0.6620 C   0  0  0  0  0  0  0  0  0  0  0  0
   -2.2484   -1.7297   -0.4254 C   0  0  0  0  0  0  0  0  0  0  0  0
   -1.1338    0.2019   -3.4831 C   0  0  0  0  0  0  0  0  0  0  0  0
   -3.5704    0.6158   -2.2527 H   0  0  0  0  0  0  0  0  0  0  0  0
    0.3148   -2.9276   -0.9053 H   0  0  0  0  0  0  0  0  0  0  0  0
    0.6621   -1.9771   -2.4476 H   0  0  0  0  0  0  0  0  0  0  0  0
   -5.3527   -0.1787   -0.1954 H   0  0  0  0  0  0  0  0  0  0  0  0
   -5.4919   -1.7604    1.7478 H   0  0  0  0  0  0  0  0  0  0  0  0
   -3.6083   -3.3007    2.2831 H   0  0  0  0  0  0  0  0  0  0  0  0
   -1.5181   -3.3046    0.9007 H   0  0  0  0  0  0  0  0  0  0  0  0
   -1.5950   -0.2584   -4.3838 H   0  0  0  0  0  0  0  0  0  0  0  0
   -1.3116    1.2947   -3.5372 H   0  0  0  0  0  0  0  0  0  0  0  0
   -0.0433    0.0331   -3.5350 H   0  0  0  0  0  0  0  0  0  0  0  0
  1  5  1  0  0  0  0
  2  3  1  0  0  0  0
  2 13  1  0  0  0  0
  3 10  1  0  0  0  0
  4  1  1  0  0  0  0
  4  3  2  0  0  0  0
  5 10  2  0  0  0  0
  5  6  1  0  0  0  0
  6  7  2  0  0  0  0
  7  8  1  0  0  0  0
  7 16  1  0  0  0  0
  8 17  1  0  0  0  0
  9 18  1  0  0  0  0
  9  8  2  0  0  0  0
 10  9  1  0  0  0  0
 11  4  1  0  0  0  0
 12  1  1  0  0  0  0
 14  2  1  0  0  0  0
 15  6  1  0  0  0  0
 19 11  1  0  0  0  0
 20 11  1  0  0  0  0
 21 11  1  0  0  0  0
M  END
