1
q = -1.0

 12 11  0  0  0  0  0  0  0  0999 V2000
   -0.0445    1.4742   -0.5315 C   0  0  0  0  0  1  0  0  0  0  0  0
   -0.1077    2.7728   -1.0527 C   0  0  0  0  0  0  0  0  0  0  0  0
   -0.2680    2.8490   -2.1434 H   0  0  0  0  0  0  0  0  0  0  0  0
    0.0194    3.8840   -0.2543 C   0  0  0  0  0  0  0  0  0  0  0  0
    0.2766    3.7732    1.2148 C   0  0  0  0  0  0  0  0  0  0  0  0
    0.1841    2.7364    1.5976 H   0  0  0  0  0  0  0  0  0  0  0  0
   -0.4075    4.4387    1.7810 H   0  0  0  0  0  0  0  0  0  0  0  0
    1.3103    4.1268    1.4257 H   0  0  0  0  0  0  0  0  0  0  0  0
   -0.0496    5.2574   -0.8416 C   0  0  0  0  0  0  0  0  0  0  0  0
   -0.2139    5.2483   -1.9350 H   0  0  0  0  0  0  0  0  0  0  0  0
    0.8887    5.8113   -0.6197 H   0  0  0  0  0  0  0  0  0  0  0  0
   -0.8705    5.8333   -0.3630 H   0  0  0  0  0  0  0  0  0  0  0  0
  2  1  1  0  0  0  0
  2  4  2  0  0  0  0
  3  2  1  0  0  0  0
  4  5  1  0  0  0  0
  5  8  1  0  0  0  0
  5  6  1  0  0  0  0
  5  7  1  0  0  0  0
  9 11  1  0  0  0  0
  9 12  1  0  0  0  0
  9  4  1  0  0  0  0
 10  9  1  0  0  0  0
M  END
