23
q = 0.0, confidence = 0.938

 40 41  0  0  0  0  0  0  0  0999 V2000
   -0.1970   -0.0488   -2.2660 P   0  0  0  0  0  2  0  0  0  0  0  0
   -1.8830    1.9139   -0.9889 N   0  0  0  0  0  0  0  0  0  0  0  0
    1.5752    0.4738   -2.1174 C   0  0  0  0  0  0  0  0  0  0  0  0
    1.9787    1.8340   -2.1246 C   0  0  0  0  0  0  0  0  0  0  0  0
    3.3501    2.1357   -1.9972 C   0  0  0  0  0  0  0  0  0  0  0  0
    3.6589    3.1944   -1.9945 H   0  0  0  0  0  0  0  0  0  0  0  0
    4.3314    1.1388   -1.8707 C   0  0  0  0  0  0  0  0  0  0  0  0
    3.9120   -0.2036   -1.9270 C   0  0  0  0  0  0  0  0  0  0  0  0
    4.6653   -1.0061   -1.8606 H   0  0  0  0  0  0  0  0  0  0  0  0
    2.5599   -0.5556   -2.0649 C   0  0  0  0  0  0  0  0  0  0  0  0
    0.9850    2.9613   -2.2539 C   0  0  0  0  0  0  0  0  0  0  0  0
    0.1625    2.7117   -2.9535 H   0  0  0  0  0  0  0  0  0  0  0  0
    1.4809    3.8883   -2.6022 H   0  0  0  0  0  0  0  0  0  0  0  0
    0.4872    3.1863   -1.2877 H   0  0  0  0  0  0  0  0  0  0  0  0
    5.7838    1.4831   -1.6629 C   0  0  0  0  0  0  0  0  0  0  0  0
    5.9891    2.5478   -1.8886 H   0  0  0  0  0  0  0  0  0  0  0  0
    6.4470    0.8607   -2.2976 H   0  0  0  0  0  0  0  0  0  0  0  0
    6.0774    1.3012   -0.6068 H   0  0  0  0  0  0  0  0  0  0  0  0
    2.1680   -2.0098   -2.1360 C   0  0  0  0  0  0  0  0  0  0  0  0
    1.4868   -2.2746   -1.2979 H   0  0  0  0  0  0  0  0  0  0  0  0
    3.0569   -2.6693   -2.1088 H   0  0  0  0  0  0  0  0  0  0  0  0
    1.5985   -2.2323   -3.0635 H   0  0  0  0  0  0  0  0  0  0  0  0
   -1.1383    0.8901   -1.0209 C   0  0  0  0  0  3  0  0  0  0  0  0
   -2.7969    2.3222   -0.0122 C   0  0  0  0  0  0  0  0  0  0  0  0
   -4.1250    2.5701   -0.4715 C   0  0  0  0  0  0  0  0  0  0  0  0
   -5.0985    2.9833    0.4530 C   0  0  0  0  0  0  0  0  0  0  0  0
   -6.1282    3.1536    0.1005 H   0  0  0  0  0  0  0  0  0  0  0  0
   -4.7687    3.2065    1.7984 C   0  0  0  0  0  0  0  0  0  0  0  0
   -5.5377    3.5435    2.5096 H   0  0  0  0  0  0  0  0  0  0  0  0
   -3.4455    3.0280    2.2213 C   0  0  0  0  0  0  0  0  0  0  0  0
   -3.1721    3.2342    3.2688 H   0  0  0  0  0  0  0  0  0  0  0  0
   -2.4410    2.5835    1.3404 C   0  0  0  0  0  0  0  0  0  0  0  0
   -4.4471    2.4007   -1.9324 C   0  0  0  0  0  0  0  0  0  0  0  0
   -5.4708    2.7539   -2.1625 H   0  0  0  0  0  0  0  0  0  0  0  0
   -4.3638    1.3441   -2.2606 H   0  0  0  0  0  0  0  0  0  0  0  0
   -3.7184    2.9609   -2.5538 H   0  0  0  0  0  0  0  0  0  0  0  0
   -1.0322    2.4019    1.8331 C   0  0  0  0  0  0  0  0  0  0  0  0
   -0.8299    1.3416    2.0898 H   0  0  0  0  0  0  0  0  0  0  0  0
   -0.8441    3.0196    2.7330 H   0  0  0  0  0  0  0  0  0  0  0  0
   -0.2889    2.6692    1.0574 H   0  0  0  0  0  0  0  0  0  0  0  0
  1  3  1  0  0  0  0
  1 23  1  0  0  0  0
  2 24  1  0  0  0  0
  3 10  1  0  0  0  0
  4  3  2  0  0  0  0
  4  5  1  0  0  0  0
  5  6  1  0  0  0  0
  5  7  2  0  0  0  0
  7 15  1  0  0  0  0
  8  7  1  0  0  0  0
  8  9  1  0  0  0  0
 10  8  2  0  0  0  0
 11  4  1  0  0  0  0
 11 14  1  0  0  0  0
 12 11  1  0  0  0  0
 13 11  1  0  0  0  0
 15 18  1  0  0  0  0
 16 15  1  0  0  0  0
 17 15  1  0  0  0  0
 19 21  1  0  0  0  0
 19 10  1  0  0  0  0
 19 20  1  0  0  0  0
 22 19  1  0  0  0  0
 23  2  2  0  0  0  0
 24 32  1  0  0  0  0
 25 24  2  0  0  0  0
 25 26  1  0  0  0  0
 26 28  2  0  0  0  0
 27 26  1  0  0  0  0
 28 30  1  0  0  0  0
 28 29  1  0  0  0  0
 30 31  1  0  0  0  0
 32 37  1  0  0  0  0
 32 30  2  0  0  0  0
 33 25  1  0  0  0  0
 34 33  1  0  0  0  0
 35 33  1  0  0  0  0
 36 33  1  0  0  0  0
 37 38  1  0  0  0  0
 37 39  1  0  0  0  0
 40 37  1  0  0  0  0
M  END
