2
q = -1.0

 36 37  0  0  1  0  0  0  0  0999 V2000
   -1.2686    0.1794   -1.4865 O   0  0  0  0  0  0  0  0  0  0  0  0
   -1.6501   -1.5309    0.5995 C   0  0  2  0  0  3  0  0  0  0  0  0
   -1.1617   -1.0138    1.8452 C   0  0  0  0  0  0  0  0  0  0  0  0
    0.0920   -1.6506    2.1053 C   0  0  0  0  0  0  0  0  0  0  0  0
    0.3560   -2.5836    1.0429 C   0  0  0  0  0  0  0  0  0  0  0  0
   -0.7205   -2.5100    0.1077 C   0  0  0  0  0  0  0  0  0  0  0  0
   -1.8632   -0.0194    2.7222 C   0  0  0  0  0  0  0  0  0  0  0  0
   -2.3244   -0.5178    3.6022 H   0  0  0  0  0  0  0  0  0  0  0  0
   -2.6745    0.4970    2.1732 H   0  0  0  0  0  0  0  0  0  0  0  0
   -1.1743    0.7565    3.1128 H   0  0  0  0  0  0  0  0  0  0  0  0
    0.9474   -1.4432    3.3213 C   0  0  0  0  0  0  0  0  0  0  0  0
    2.0287   -1.4909    3.0814 H   0  0  0  0  0  0  0  0  0  0  0  0
    0.7517   -2.2212    4.0916 H   0  0  0  0  0  0  0  0  0  0  0  0
    0.7550   -0.4600    3.7933 H   0  0  0  0  0  0  0  0  0  0  0  0
    1.5058   -3.5449    0.9811 C   0  0  0  0  0  0  0  0  0  0  0  0
    1.7694   -3.8088   -0.0621 H   0  0  0  0  0  0  0  0  0  0  0  0
    1.2613   -4.4940    1.5069 H   0  0  0  0  0  0  0  0  0  0  0  0
    2.4153   -3.1343    1.4613 H   0  0  0  0  0  0  0  0  0  0  0  0
   -0.8675   -3.3093   -1.1538 C   0  0  0  0  0  0  0  0  0  0  0  0
    0.0766   -3.3474   -1.7350 H   0  0  0  0  0  0  0  0  0  0  0  0
   -1.6538   -2.8859   -1.8097 H   0  0  0  0  0  0  0  0  0  0  0  0
   -1.1569   -4.3600   -0.9355 H   0  0  0  0  0  0  0  0  0  0  0  0
   -2.8228   -1.0233   -0.1510 C   0  0  0  0  0  0  0  0  0  0  0  0
   -4.1522   -1.3522    0.1675 C   0  0  0  0  0  0  0  0  0  0  0  0
   -4.3301   -2.0292    1.0162 H   0  0  0  0  0  0  0  0  0  0  0  0
   -5.2284   -0.8391   -0.5754 C   0  0  0  0  0  0  0  0  0  0  0  0
   -6.2606   -1.1082   -0.3075 H   0  0  0  0  0  0  0  0  0  0  0  0
   -4.9816    0.0128   -1.6594 C   0  0  0  0  0  0  0  0  0  0  0  0
   -5.8170    0.4195   -2.2484 H   0  0  0  0  0  0  0  0  0  0  0  0
   -3.6650    0.3674   -2.0035 C   0  0  0  0  0  0  0  0  0  0  0  0
   -3.4870    1.0512   -2.8433 H   0  0  0  0  0  0  0  0  0  0  0  0
   -2.6084   -0.1493   -1.2432 C   0  0  0  0  0  0  0  0  0  0  0  0
   -0.9567    0.9535   -2.6534 C   0  0  0  0  0  0  0  0  0  0  0  0
   -1.3212    0.4361   -3.5637 H   0  0  0  0  0  0  0  0  0  0  0  0
    0.1450    1.0274   -2.6872 H   0  0  0  0  0  0  0  0  0  0  0  0
   -1.3974    1.9679   -2.5797 H   0  0  0  0  0  0  0  0  0  0  0  0
  1 32  1  0  0  0  0
  2 23  1  6  0  0  0
  2  3  1  0  0  0  0
  3  4  2  0  0  0  0
  3  7  1  0  0  0  0
  4 11  1  0  0  0  0
  5  4  1  0  0  0  0
  6  2  1  0  0  0  0
  6  5  2  0  0  0  0
  7 10  1  0  0  0  0
  7  8  1  0  0  0  0
  9  7  1  0  0  0  0
 11 14  1  0  0  0  0
 11 13  1  0  0  0  0
 12 11  1  0  0  0  0
 15  5  1  0  0  0  0
 15 18  1  0  0  0  0
 15 17  1  0  0  0  0
 16 15  1  0  0  0  0
 19 22  1  0  0  0  0
 19  6  1  0  0  0  0
 20 19  1  0  0  0  0
 21 19  1  0  0  0  0
 23 24  1  0  0  0  0
 24 25  1  0  0  0  0
 26 27  1  0  0  0  0
 26 24  2  0  0  0  0
 28 26  1  0  0  0  0
 29 28  1  0  0  0  0
 30 28  2  0  0  0  0
 30 32  1  0  0  0  0
 31 30  1  0  0  0  0
 32 23  2  0  0  0  0
 33 36  1  0  0  0  0
 33  1  1  0  0  0  0
 34 33  1  0  0  0  0
 35 33  1  0  0  0  0
M  END
