2
q = 0.0, confidence = 1.0

 31 31  0  0  0  0  0  0  0  0999 V2000
    2.4843    1.5672   -0.5733 N   0  0  0  0  0  0  0  0  0  0  0  0
    1.7429    0.6386    0.0966 C   0  0  0  0  0  2  0  0  0  0  0  0
    2.5011    0.2840    1.1771 N   0  0  0  0  0  0  0  0  0  0  0  0
    3.7091    0.9734    1.1705 C   0  0  0  0  0  0  0  0  0  0  0  0
    4.4639    0.8325    1.9493 H   0  0  0  0  0  0  0  0  0  0  0  0
    3.6975    1.7853    0.0664 C   0  0  0  0  0  0  0  0  0  0  0  0
    4.4428    2.4943   -0.3040 H   0  0  0  0  0  0  0  0  0  0  0  0
    1.3000   -2.6947    0.9414 O   0  0  0  0  0  0  0  0  0  0  0  0
    1.4023   -2.3828    0.0052 H   0  0  0  0  0  0  0  0  0  0  0  0
    3.7059   -2.3725    0.9948 C   0  0  0  0  0  0  0  0  0  0  0  0
    3.8808   -3.4453    0.7828 H   0  0  0  0  0  0  0  0  0  0  0  0
    4.5620   -1.9882    1.5871 H   0  0  0  0  0  0  0  0  0  0  0  0
    3.6767   -1.8364    0.0245 H   0  0  0  0  0  0  0  0  0  0  0  0
    2.3693   -2.2135    1.7337 C   0  0  0  0  0  0  0  0  0  0  0  0
    2.1319   -0.7275    2.1628 C   0  0  0  0  0  0  0  0  0  0  0  0
    1.0542   -0.6071    2.3874 H   0  0  0  0  0  0  0  0  0  0  0  0
    2.7138   -0.5020    3.0784 H   0  0  0  0  0  0  0  0  0  0  0  0
    2.3415   -3.0537    3.0181 C   0  0  0  0  0  0  0  0  0  0  0  0
    1.3855   -2.9000    3.5581 H   0  0  0  0  0  0  0  0  0  0  0  0
    3.1805   -2.7999    3.6964 H   0  0  0  0  0  0  0  0  0  0  0  0
    2.4079   -4.1251    2.7486 H   0  0  0  0  0  0  0  0  0  0  0  0
    2.0500    2.1931   -1.8365 C   0  0  0  0  0  0  0  0  0  0  0  0
    1.0123    1.8156   -1.9621 H   0  0  0  0  0  0  0  0  0  0  0  0
    2.9007    1.6858   -3.0011 C   0  0  0  0  0  0  0  0  0  0  0  0
    3.9620    1.9935   -2.8947 H   0  0  0  0  0  0  0  0  0  0  0  0
    2.5207    2.1026   -3.9547 H   0  0  0  0  0  0  0  0  0  0  0  0
    2.8436    0.5806   -3.0519 H   0  0  0  0  0  0  0  0  0  0  0  0
    2.0171    3.7154   -1.7015 C   0  0  0  0  0  0  0  0  0  0  0  0
    1.3797    4.0228   -0.8489 H   0  0  0  0  0  0  0  0  0  0  0  0
    1.6005    4.1644   -2.6243 H   0  0  0  0  0  0  0  0  0  0  0  0
    3.0320    4.1402   -1.5541 H   0  0  0  0  0  0  0  0  0  0  0  0
  1  6  1  0  0  0  0
  1  2  1  0  0  0  0
  2  3  1  0  0  0  0
  3 15  1  0  0  0  0
  4  3  1  0  0  0  0
  4  5  1  0  0  0  0
  6  4  2  0  0  0  0
  7  6  1  0  0  0  0
  8 14  1  0  0  0  0
  9  8  1  0  0  0  0
 10 12  1  0  0  0  0
 10 14  1  0  0  0  0
 11 10  1  0  0  0  0
 13 10  1  0  0  0  0
 14 15  1  0  0  0  0
 14 18  1  0  0  0  0
 15 16  1  0  0  0  0
 15 17  1  0  0  0  0
 18 19  1  0  0  0  0
 18 20  1  0  0  0  0
 21 18  1  0  0  0  0
 22 28  1  0  0  0  0
 22  1  1  0  0  0  0
 23 22  1  0  0  0  0
 24 25  1  0  0  0  0
 24 22  1  0  0  0  0
 26 24  1  0  0  0  0
 27 24  1  0  0  0  0
 28 31  1  0  0  0  0
 28 29  1  0  0  0  0
 30 28  1  0  0  0  0
M  END
