3
q = -1.0

 33 35  0  0  0  0  0  0  0  0999 V2000
   -0.9207   -0.2831   -0.6927 N   0  0  0  0  0  0  0  0  0  0  0  0
   -0.0686   -2.1105    0.5865 O   0  0  0  0  0  0  0  0  0  0  0  0
   -0.4016    0.5404   -1.7157 C   0  0  0  0  0  3  0  0  0  0  0  0
   -1.0572    1.0798   -2.4064 H   0  0  0  0  0  0  0  0  0  0  0  0
    0.9998    0.3539   -1.7464 C   0  0  0  0  0  0  0  0  0  0  0  0
    1.6726    0.8361   -2.4641 H   0  0  0  0  0  0  0  0  0  0  0  0
    1.3820   -0.5624   -0.7027 C   0  0  0  0  0  0  0  0  0  0  0  0
    0.1575   -1.1840   -0.1666 C   0  0  0  0  0  0  0  0  0  0  0  0
    2.7515   -1.0132   -0.3971 C   0  0  0  0  0  0  0  0  0  0  0  0
    3.8693   -0.3162   -0.9127 C   0  0  0  0  0  0  0  0  0  0  0  0
    3.7235    0.5870   -1.5236 H   0  0  0  0  0  0  0  0  0  0  0  0
    5.1721   -0.7423   -0.6301 C   0  0  0  0  0  0  0  0  0  0  0  0
    6.0273   -0.1815   -1.0368 H   0  0  0  0  0  0  0  0  0  0  0  0
    5.3881   -1.8729    0.1752 C   0  0  0  0  0  0  0  0  0  0  0  0
    6.4128   -2.2062    0.3986 H   0  0  0  0  0  0  0  0  0  0  0  0
    4.2865   -2.5681    0.6967 C   0  0  0  0  0  0  0  0  0  0  0  0
    4.4439   -3.4532    1.3319 H   0  0  0  0  0  0  0  0  0  0  0  0
    2.9792   -2.1469    0.4172 C   0  0  0  0  0  0  0  0  0  0  0  0
    2.1164   -2.6894    0.8269 H   0  0  0  0  0  0  0  0  0  0  0  0
   -2.3077   -0.5145   -0.4481 C   0  0  0  0  0  0  0  0  0  0  0  0
   -3.2148   -0.5736   -1.5179 C   0  0  0  0  0  0  0  0  0  0  0  0
   -2.8623   -0.4469   -2.5520 H   0  0  0  0  0  0  0  0  0  0  0  0
   -4.5726   -0.8135   -1.2643 C   0  0  0  0  0  0  0  0  0  0  0  0
   -5.2783   -0.8510   -2.1086 H   0  0  0  0  0  0  0  0  0  0  0  0
   -5.0471   -1.0195    0.0449 C   0  0  0  0  0  0  0  0  0  0  0  0
   -4.1106   -0.9736    1.1014 C   0  0  0  0  0  0  0  0  0  0  0  0
   -4.4542   -1.1315    2.1356 H   0  0  0  0  0  0  0  0  0  0  0  0
   -2.7566   -0.7199    0.8691 C   0  0  0  0  0  0  0  0  0  0  0  0
   -2.0415   -0.6765    1.7010 H   0  0  0  0  0  0  0  0  0  0  0  0
   -6.5057   -1.2765    0.3226 C   0  0  0  0  0  0  0  0  0  0  0  0
   -7.0964   -1.3381   -0.6113 H   0  0  0  0  0  0  0  0  0  0  0  0
   -6.9421   -0.4692    0.9475 H   0  0  0  0  0  0  0  0  0  0  0  0
   -6.6475   -2.2250    0.8808 H   0  0  0  0  0  0  0  0  0  0  0  0
  1 20  1  0  0  0  0
  1  8  1  0  0  0  0
  3  1  1  0  0  0  0
  4  3  1  0  0  0  0
  5  3  1  0  0  0  0
  5  7  2  0  0  0  0
  6  5  1  0  0  0  0
  7  9  1  0  0  0  0
  7  8  1  0  0  0  0
  8  2  2  0  0  0  0
  9 18  1  0  0  0  0
 10 12  1  0  0  0  0
 10  9  2  0  0  0  0
 11 10  1  0  0  0  0
 12 14  2  0  0  0  0
 13 12  1  0  0  0  0
 14 15  1  0  0  0  0
 14 16  1  0  0  0  0
 16 17  1  0  0  0  0
 18 16  2  0  0  0  0
 18 19  1  0  0  0  0
 20 28  1  0  0  0  0
 21 23  1  0  0  0  0
 21 20  2  0  0  0  0
 22 21  1  0  0  0  0
 23 25  2  0  0  0  0
 24 23  1  0  0  0  0
 25 30  1  0  0  0  0
 25 26  1  0  0  0  0
 26 27  1  0  0  0  0
 28 26  2  0  0  0  0
 28 29  1  0  0  0  0
 30 33  1  0  0  0  0
 30 32  1  0  0  0  0
 31 30  1  0  0  0  0
M  END
