1
q = -1.0, confidence = 0.0

 11 11  0  0  0  0  0  0  0  0999 V2000
   -2.1215   -0.3753   -0.2924 C   0  0  0  0  0  3  0  0  0  0  0  0
   -3.3093    0.1041   -0.8779 C   0  0  0  0  0  0  0  0  0  0  0  0
   -3.3397    1.3668   -1.4144 F   0  0  0  0  0  0  0  0  0  0  0  0
   -4.4942   -0.6339   -0.9726 C   0  0  0  0  0  0  0  0  0  0  0  0
   -5.3725   -0.1779   -1.4529 H   0  0  0  0  0  0  0  0  0  0  0  0
   -4.5391   -1.9406   -0.4629 C   0  0  0  0  0  0  0  0  0  0  0  0
   -5.4472   -2.5566   -0.5169 H   0  0  0  0  0  0  0  0  0  0  0  0
   -3.3747   -2.4493    0.1244 C   0  0  0  0  0  0  0  0  0  0  0  0
   -3.3875   -3.7076    0.6234 F   0  0  0  0  0  0  0  0  0  0  0  0
   -2.1968   -1.6977    0.2111 C   0  0  0  0  0  0  0  0  0  0  0  0
   -1.3160   -2.1709    0.6688 H   0  0  0  0  0  0  0  0  0  0  0  0
  1 10  1  0  0  0  0
  2  1  2  0  0  0  0
  3  2  1  0  0  0  0
  4  2  1  0  0  0  0
  4  6  2  0  0  0  0
  5  4  1  0  0  0  0
  6  8  1  0  0  0  0
  7  6  1  0  0  0  0
  8 10  2  0  0  0  0
  8  9  1  0  0  0  0
 10 11  1  0  0  0  0
M  END
