4
q = -1.0

 38 38  0  0  1  0  0  0  0  0999 V2000
    5.1519   -2.2690    0.6940 O   0  0  0  0  0  0  0  0  0  0  0  0
    1.2499    0.7326    0.1293 C   0  0  0  0  0  0  0  0  0  0  0  0
    0.4947    1.8306    0.6674 C   0  0  0  0  0  0  0  0  0  0  0  0
   -0.4606    1.2971    1.6367 C   0  0  1  0  0  3  0  0  0  0  0  0
   -0.2381   -0.1381    1.7183 C   0  0  0  0  0  0  0  0  0  0  0  0
    0.8058   -0.5030    0.7826 C   0  0  0  0  0  0  0  0  0  0  0  0
    0.6232    3.2739    0.3072 C   0  0  0  0  0  0  0  0  0  0  0  0
   -1.4258    2.1221    2.4258 C   0  0  0  0  0  0  0  0  0  0  0  0
   -0.9727   -1.0803    2.6177 C   0  0  0  0  0  0  0  0  0  0  0  0
    1.3617   -1.8641    0.5022 C   0  0  0  0  0  0  0  0  0  0  0  0
    2.3621    0.7833   -0.8693 C   0  0  0  0  0  0  0  0  0  0  0  0
    3.7370    0.6649   -0.1786 C   0  0  0  0  0  0  0  0  0  0  0  0
    4.8042    0.0370   -1.0768 C   0  0  0  0  0  0  0  0  0  0  0  0
    6.1344   -0.2591   -0.3718 C   0  0  0  0  0  0  0  0  0  0  0  0
    5.9930   -1.1378    0.8790 C   0  0  0  0  0  0  0  0  0  0  0  0
    5.4969   -2.7720   -0.0669 H   0  0  0  0  0  0  0  0  0  0  0  0
    1.3753    3.4253   -0.4889 H   0  0  0  0  0  0  0  0  0  0  0  0
    0.9253    3.8677    1.1951 H   0  0  0  0  0  0  0  0  0  0  0  0
   -0.3486    3.6588   -0.0662 H   0  0  0  0  0  0  0  0  0  0  0  0
   -1.9127    2.8686    1.7670 H   0  0  0  0  0  0  0  0  0  0  0  0
   -0.9169    2.6674    3.2497 H   0  0  0  0  0  0  0  0  0  0  0  0
   -2.2207    1.4977    2.8772 H   0  0  0  0  0  0  0  0  0  0  0  0
   -0.4519   -1.1623    3.5951 H   0  0  0  0  0  0  0  0  0  0  0  0
   -2.0054   -0.7341    2.8156 H   0  0  0  0  0  0  0  0  0  0  0  0
   -1.0319   -2.0958    2.1821 H   0  0  0  0  0  0  0  0  0  0  0  0
    0.8013   -2.6506    1.0427 H   0  0  0  0  0  0  0  0  0  0  0  0
    2.4328   -1.9460    0.7858 H   0  0  0  0  0  0  0  0  0  0  0  0
    1.2839   -2.0722   -0.5858 H   0  0  0  0  0  0  0  0  0  0  0  0
    2.2913    1.7049   -1.4802 H   0  0  0  0  0  0  0  0  0  0  0  0
    2.2128   -0.0550   -1.5813 H   0  0  0  0  0  0  0  0  0  0  0  0
    4.0681    1.6603    0.1910 H   0  0  0  0  0  0  0  0  0  0  0  0
    3.6206    0.0333    0.7260 H   0  0  0  0  0  0  0  0  0  0  0  0
    4.9867    0.6803   -1.9641 H   0  0  0  0  0  0  0  0  0  0  0  0
    4.3936   -0.9170   -1.4725 H   0  0  0  0  0  0  0  0  0  0  0  0
    6.8216   -0.7550   -1.0942 H   0  0  0  0  0  0  0  0  0  0  0  0
    6.6434    0.6847   -0.0746 H   0  0  0  0  0  0  0  0  0  0  0  0
    7.0076   -1.4340    1.2418 H   0  0  0  0  0  0  0  0  0  0  0  0
    5.5265   -0.5588    1.7032 H   0  0  0  0  0  0  0  0  0  0  0  0
  1 15  1  0  0  0  0
  2  3  2  0  0  0  0
  2  6  1  0  0  0  0
  3  4  1  0  0  0  0
  4  5  1  0  0  0  0
  4  8  1  1  0  0  0
  5  9  1  0  0  0  0
  6  5  2  0  0  0  0
  7  3  1  0  0  0  0
  7 18  1  0  0  0  0
  8 22  1  0  0  0  0
  8 21  1  0  0  0  0
  9 24  1  0  0  0  0
  9 23  1  0  0  0  0
 10  6  1  0  0  0  0
 10 27  1  0  0  0  0
 10 26  1  0  0  0  0
 11 12  1  0  0  0  0
 11  2  1  0  0  0  0
 12 31  1  0  0  0  0
 12 32  1  0  0  0  0
 13 14  1  0  0  0  0
 13 12  1  0  0  0  0
 14 36  1  0  0  0  0
 14 15  1  0  0  0  0
 15 37  1  0  0  0  0
 15 38  1  0  0  0  0
 16  1  1  0  0  0  0
 17  7  1  0  0  0  0
 19  7  1  0  0  0  0
 20  8  1  0  0  0  0
 25  9  1  0  0  0  0
 28 10  1  0  0  0  0
 29 11  1  0  0  0  0
 30 11  1  0  0  0  0
 33 13  1  0  0  0  0
 34 13  1  0  0  0  0
 35 14  1  0  0  0  0
M  END
