4
q = 0.0, confidence = 0.984

 23 24  0  0  0  0  0  0  0  0999 V2000
    1.3775   -1.4265    1.0547 N   0  0  0  0  0  0  0  0  0  0  0  0
    0.0185   -0.8748    2.6442 N   0  0  0  0  0  0  0  0  0  0  0  0
    4.1935    0.7283    1.1686 N   0  0  0  0  0  0  0  0  0  0  0  0
    0.1465   -0.8693    1.2904 C   0  0  0  0  0  2  0  0  0  0  0  0
    1.1459   -1.4217    3.2525 C   0  0  0  0  0  0  0  0  0  0  0  0
    1.2389   -1.5165    4.3385 H   0  0  0  0  0  0  0  0  0  0  0  0
    2.0097   -1.7687    2.2507 C   0  0  0  0  0  0  0  0  0  0  0  0
    3.0012   -2.2293    2.2803 H   0  0  0  0  0  0  0  0  0  0  0  0
   -1.1281   -0.3400    3.3667 C   0  0  0  0  0  0  0  0  0  0  0  0
   -1.8420    0.0649    2.6261 H   0  0  0  0  0  0  0  0  0  0  0  0
   -0.8062    0.4735    4.0452 H   0  0  0  0  0  0  0  0  0  0  0  0
   -1.6187   -1.1369    3.9588 H   0  0  0  0  0  0  0  0  0  0  0  0
    1.9364   -1.5703   -0.2525 C   0  0  0  0  0  0  0  0  0  0  0  0
    1.2780   -2.3466   -1.2145 C   0  0  0  0  0  0  0  0  0  0  0  0
    0.3504   -2.8659   -0.9365 H   0  0  0  0  0  0  0  0  0  0  0  0
    1.8130   -2.4574   -2.5069 C   0  0  0  0  0  0  0  0  0  0  0  0
    1.2956   -3.0713   -3.2585 H   0  0  0  0  0  0  0  0  0  0  0  0
    3.0098   -1.8007   -2.8371 C   0  0  0  0  0  0  0  0  0  0  0  0
    3.4311   -1.8957   -3.8483 H   0  0  0  0  0  0  0  0  0  0  0  0
    3.6711   -1.0189   -1.8828 C   0  0  0  0  0  0  0  0  0  0  0  0
    4.5988   -0.4864   -2.1344 H   0  0  0  0  0  0  0  0  0  0  0  0
    3.1353   -0.8860   -0.5817 C   0  0  0  0  0  0  0  0  0  0  0  0
    3.7421   -0.0118    0.3769 C   0  0  0  0  0  0  0  0  0  0  0  0
  1  4  1  0  0  0  0
  1  7  1  0  0  0  0
  2  5  1  0  0  0  0
  2  9  1  0  0  0  0
  4  2  1  0  0  0  0
  5  6  1  0  0  0  0
  7  8  1  0  0  0  0
  7  5  2  0  0  0  0
  9 12  1  0  0  0  0
  9 11  1  0  0  0  0
 10  9  1  0  0  0  0
 13  1  1  0  0  0  0
 14 15  1  0  0  0  0
 14 13  2  0  0  0  0
 16 14  1  0  0  0  0
 17 16  1  0  0  0  0
 18 16  2  0  0  0  0
 18 20  1  0  0  0  0
 19 18  1  0  0  0  0
 20 22  2  0  0  0  0
 21 20  1  0  0  0  0
 22 13  1  0  0  0  0
 22 23  1  0  0  0  0
 23  3  3  0  0  0  0
M  END
