11
q = -1.0, confidence = 0.002

 26 27  0  0  0  0  0  0  0  0999 V2000
   -0.9040    1.7228   -3.0386 F   0  0  0  0  0  0  0  0  0  0  0  0
   -1.8190    4.1947   -2.6740 F   0  0  0  0  0  0  0  0  0  0  0  0
   -1.2007    5.6011   -0.3919 F   0  0  0  0  0  0  0  0  0  0  0  0
    0.4357    4.4572    1.4980 F   0  0  0  0  0  0  0  0  0  0  0  0
    1.4568    2.0300    1.1181 F   0  0  0  0  0  0  0  0  0  0  0  0
    2.8563    0.2534   -2.7415 F   0  0  0  0  0  0  0  0  0  0  0  0
    5.4537   -0.2426   -2.2243 F   0  0  0  0  0  0  0  0  0  0  0  0
    6.2482   -0.9430    0.3108 F   0  0  0  0  0  0  0  0  0  0  0  0
    4.3793   -1.1310    2.3152 F   0  0  0  0  0  0  0  0  0  0  0  0
    1.8040   -0.6405    1.8296 F   0  0  0  0  0  0  0  0  0  0  0  0
    0.0821   -0.8698   -2.0188 C   0  0  0  0  0  3  0  0  0  0  0  0
    0.2426    1.6704   -0.9235 C   0  0  0  0  0  0  0  0  0  0  0  0
   -0.5573    2.3308   -1.8810 C   0  0  0  0  0  0  0  0  0  0  0  0
   -1.0502    3.6374   -1.7287 C   0  0  0  0  0  0  0  0  0  0  0  0
   -0.7229    4.3660   -0.5739 C   0  0  0  0  0  0  0  0  0  0  0  0
    0.1216    3.7806    0.3796 C   0  0  0  0  0  0  0  0  0  0  0  0
    0.6048    2.4787    0.1778 C   0  0  0  0  0  0  0  0  0  0  0  0
    2.1846   -0.1957   -0.4980 C   0  0  0  0  0  0  0  0  0  0  0  0
    3.1868   -0.1013   -1.4847 C   0  0  0  0  0  0  0  0  0  0  0  0
    4.5490   -0.3475   -1.2428 C   0  0  0  0  0  0  0  0  0  0  0  0
    4.9588   -0.7012    0.0521 C   0  0  0  0  0  0  0  0  0  0  0  0
    4.0011   -0.7977    1.0729 C   0  0  0  0  0  0  0  0  0  0  0  0
    2.6519   -0.5356    0.7810 C   0  0  0  0  0  0  0  0  0  0  0  0
    0.6912    0.1354   -1.0389 B   0  0  0  0  0  0  0  0  0  0  0  0
   -0.4785   -0.5064   -2.8892 H   0  0  0  0  0  0  0  0  0  0  0  0
    0.7276   -1.7127   -2.3180 H   0  0  0  0  0  0  0  0  0  0  0  0
  1 13  1  0  0  0  0
  2 14  1  0  0  0  0
  6 19  1  0  0  0  0
  7 20  1  0  0  0  0
 11 24  1  0  0  0  0
 12 17  1  0  0  0  0
 13 14  1  0  0  0  0
 13 12  2  0  0  0  0
 14 15  2  0  0  0  0
 15  3  1  0  0  0  0
 15 16  1  0  0  0  0
 16  4  1  0  0  0  0
 17 16  2  0  0  0  0
 17  5  1  0  0  0  0
 18 23  1  0  0  0  0
 19 20  1  0  0  0  0
 19 18  2  0  0  0  0
 20 21  2  0  0  0  0
 21  8  1  0  0  0  0
 21 22  1  0  0  0  0
 22  9  1  0  0  0  0
 23 22  2  0  0  0  0
 23 10  1  0  0  0  0
 24 12  1  0  0  0  0
 24 18  1  0  0  0  0
 25 11  1  0  0  0  0
 26 11  1  0  0  0  0
M  END
