2
q = -1.0

 10 10  0  0  0  0  0  0  0  0999 V2000
   -2.4445   -0.4634    0.8770 N   0  0  0  0  0  0  0  0  0  0  0  0
   -1.4868   -0.2673   -0.0654 C   0  0  0  0  0  0  0  0  0  0  0  0
   -1.8777   -0.2824   -1.4194 C   0  0  0  0  0  0  0  0  0  0  0  0
   -0.9711   -0.0852   -2.4081 F   0  0  0  0  0  0  0  0  0  0  0  0
   -3.2150   -0.4914   -1.7895 C   0  0  0  0  0  0  0  0  0  0  0  0
   -3.5871   -0.5020   -3.0709 F   0  0  0  0  0  0  0  0  0  0  0  0
   -4.1719   -0.6886   -0.7777 C   0  0  0  0  0  0  0  0  0  0  0  0
   -5.4594   -0.8911   -1.0844 F   0  0  0  0  0  0  0  0  0  0  0  0
   -3.7040   -0.6626    0.5470 C   0  0  0  0  0  0  0  0  0  0  0  0
   -4.5916   -0.8519    1.5363 F   0  0  0  0  0  0  0  0  0  0  0  0
  2  1  2  0  0  0  0
  3  2  1  0  0  0  0
  4  3  1  0  0  0  0
  5  3  2  0  0  0  0
  5  7  1  0  0  0  0
  6  5  1  0  0  0  0
  7  9  2  0  0  0  0
  8  7  1  0  0  0  0
  9  1  1  0  0  0  0
  9 10  1  0  0  0  0
M  END
