12
q = 0.0, confidence = 0.96

 25 26  0  0  0  0  0  0  0  0999 V2000
   -6.3703    0.7023   -0.7657 Br  0  0  0  0  0  0  0  0  0  0  0  0
   -1.8335    1.4366    0.4201 C   0  0  0  0  0  0  0  0  0  0  0  0
   -2.2441    1.3761   -0.9363 C   0  0  0  0  0  0  0  0  0  0  0  0
   -1.4940    1.4688   -1.7356 H   0  0  0  0  0  0  0  0  0  0  0  0
   -3.5816    1.1703   -1.2923 C   0  0  0  0  0  0  0  0  0  0  0  0
   -3.8742    1.1181   -2.3507 H   0  0  0  0  0  0  0  0  0  0  0  0
   -4.5514    1.0173   -0.2874 C   0  0  0  0  0  0  0  0  0  0  0  0
   -4.1882    1.0977    1.0656 C   0  0  0  0  0  0  0  0  0  0  0  0
   -4.9532    0.9988    1.8490 H   0  0  0  0  0  0  0  0  0  0  0  0
   -2.8455    1.3134    1.4037 C   0  0  0  0  0  0  0  0  0  0  0  0
   -2.5680    1.3910    2.4670 H   0  0  0  0  0  0  0  0  0  0  0  0
   -0.4191    1.5735    0.8289 C   0  0  0  0  0  3  0  0  0  0  0  0
   -0.2903    1.7647    1.9087 H   0  0  0  0  0  0  0  0  0  0  0  0
    0.6144    2.0710   -0.0731 C   0  0  0  0  0  3  0  0  0  0  0  0
    0.3003    2.4147   -1.0744 H   0  0  0  0  0  0  0  0  0  0  0  0
    1.8489    2.7182    0.4051 C   0  0  0  0  0  0  0  0  0  0  0  0
    2.3447    2.5939    1.7277 C   0  0  0  0  0  0  0  0  0  0  0  0
    1.7948    2.0064    2.4778 H   0  0  0  0  0  0  0  0  0  0  0  0
    3.5597    3.1967    2.0728 C   0  0  0  0  0  0  0  0  0  0  0  0
    3.9452    3.0902    3.1038 H   0  0  0  0  0  0  0  0  0  0  0  0
    4.3252    3.9092    1.2250 N   0  0  0  0  0  0  0  0  0  0  0  0
    3.8502    4.0467   -0.0251 C   0  0  0  0  0  0  0  0  0  0  0  0
    4.4702    4.6422   -0.7210 H   0  0  0  0  0  0  0  0  0  0  0  0
    2.6447    3.4919   -0.4747 C   0  0  0  0  0  0  0  0  0  0  0  0
    2.3156    3.6537   -1.5140 H   0  0  0  0  0  0  0  0  0  0  0  0
  1  7  1  0  0  0  0
  2 12  1  0  0  0  0
  2 10  1  0  0  0  0
  3  2  2  0  0  0  0
  4  3  1  0  0  0  0
  5  3  1  0  0  0  0
  5  7  2  0  0  0  0
  6  5  1  0  0  0  0
  7  8  1  0  0  0  0
  8 10  2  0  0  0  0
  8  9  1  0  0  0  0
 10 11  1  0  0  0  0
 12 13  1  0  0  0  0
 14 16  1  0  0  0  0
 14 12  1  0  0  0  0
 15 14  1  0  0  0  0
 16 17  1  0  0  0  0
 17 19  2  0  0  0  0
 17 18  1  0  0  0  0
 19 20  1  0  0  0  0
 21 19  1  0  0  0  0
 22 21  2  0  0  0  0
 23 22  1  0  0  0  0
 24 22  1  0  0  0  0
 24 16  2  0  0  0  0
 25 24  1  0  0  0  0
M  END
