5
q = -2.0, confidence = 0.812

 52 52  0  0  1  0  0  0  0  0999 V2000
    1.7877    0.8230    0.0539 P   0  0  0  0  0  0  0  0  0  0  0  0
   -0.8654   -1.4015    1.9195 C   0  0  0  0  0  3  0  0  0  0  0  0
   -1.8349   -1.8505    1.6578 H   0  0  0  0  0  0  0  0  0  0  0  0
   -0.2927   -1.9479    2.6844 H   0  0  0  0  0  0  0  0  0  0  0  0
   -0.7234    0.0231    1.8312 C   0  0  2  0  0  3  0  0  0  0  0  0
   -1.3593    0.6733    0.7210 C   0  0  0  0  0  3  0  0  0  0  0  0
   -1.0723    1.7306    0.5895 H   0  0  0  0  0  0  0  0  0  0  0  0
   -2.7834    0.4280    0.2625 C   0  0  0  0  0  0  0  0  0  0  0  0
   -2.9892   -0.6645    0.2289 H   0  0  0  0  0  0  0  0  0  0  0  0
   -3.0358    1.0111   -1.1391 C   0  0  0  0  0  0  0  0  0  0  0  0
   -2.8065    2.1010   -1.1088 H   0  0  0  0  0  0  0  0  0  0  0  0
   -2.3238    0.5721   -1.8691 H   0  0  0  0  0  0  0  0  0  0  0  0
   -4.4867    0.8131   -1.5928 C   0  0  0  0  0  0  0  0  0  0  0  0
   -4.6376    1.2619   -2.5960 H   0  0  0  0  0  0  0  0  0  0  0  0
   -4.6896   -0.2764   -1.7070 H   0  0  0  0  0  0  0  0  0  0  0  0
   -5.4732    1.4086   -0.5804 C   0  0  0  0  0  0  0  0  0  0  0  0
   -6.5181    1.2164   -0.8988 H   0  0  0  0  0  0  0  0  0  0  0  0
   -5.3515    2.5148   -0.5628 H   0  0  0  0  0  0  0  0  0  0  0  0
   -5.2322    0.8519    0.8278 C   0  0  0  0  0  0  0  0  0  0  0  0
   -5.4735   -0.2347    0.8403 H   0  0  0  0  0  0  0  0  0  0  0  0
   -5.9169    1.3291    1.5586 H   0  0  0  0  0  0  0  0  0  0  0  0
   -3.7772    1.0456    1.2756 C   0  0  0  0  0  0  0  0  0  0  0  0
   -3.5570    2.1327    1.3739 H   0  0  0  0  0  0  0  0  0  0  0  0
   -3.6115    0.5999    2.2788 H   0  0  0  0  0  0  0  0  0  0  0  0
    1.5959   -0.0217    1.6172 C   0  0  2  0  0  3  0  0  0  0  0  0
    0.5123    0.5881    2.5200 C   0  0  0  0  0  0  0  0  0  0  0  0
    0.5135    1.6953    2.5704 H   0  0  0  0  0  0  0  0  0  0  0  0
    0.5937    0.2192    3.5603 H   0  0  0  0  0  0  0  0  0  0  0  0
    2.6749   -0.8624    2.2569 C   0  0  0  0  0  0  0  0  0  0  0  0
    3.3041   -0.2577    2.9471 H   0  0  0  0  0  0  0  0  0  0  0  0
    3.3396   -1.3473    1.5177 H   0  0  0  0  0  0  0  0  0  0  0  0
    2.2145   -1.6704    2.8619 H   0  0  0  0  0  0  0  0  0  0  0  0
    1.3566    2.6390   -0.0314 C   0  0  0  0  0  0  0  0  0  0  0  0
    0.5903    2.7288    0.7670 H   0  0  0  0  0  0  0  0  0  0  0  0
    0.6857    2.9695   -1.3721 C   0  0  0  0  0  0  0  0  0  0  0  0
    0.2881    4.0041   -1.3444 H   0  0  0  0  0  0  0  0  0  0  0  0
   -0.1569    2.2835   -1.5892 H   0  0  0  0  0  0  0  0  0  0  0  0
    1.4015    2.9138   -2.2152 H   0  0  0  0  0  0  0  0  0  0  0  0
    2.5088    3.5861    0.3210 C   0  0  0  0  0  0  0  0  0  0  0  0
    3.2786    3.6154   -0.4742 H   0  0  0  0  0  0  0  0  0  0  0  0
    3.0010    3.3210    1.2769 H   0  0  0  0  0  0  0  0  0  0  0  0
    2.1100    4.6160    0.4228 H   0  0  0  0  0  0  0  0  0  0  0  0
    3.4385    0.4408   -0.7284 C   0  0  0  0  0  0  0  0  0  0  0  0
    3.4628   -0.6658   -0.6427 H   0  0  0  0  0  0  0  0  0  0  0  0
    3.4692    0.8272   -2.2133 C   0  0  0  0  0  0  0  0  0  0  0  0
    3.4949    1.9269   -2.3448 H   0  0  0  0  0  0  0  0  0  0  0  0
    2.5986    0.4395   -2.7780 H   0  0  0  0  0  0  0  0  0  0  0  0
    4.3885    0.4233   -2.6837 H   0  0  0  0  0  0  0  0  0  0  0  0
    4.6432    0.9995    0.0444 C   0  0  0  0  0  0  0  0  0  0  0  0
    5.5672    0.5287   -0.3493 H   0  0  0  0  0  0  0  0  0  0  0  0
    4.5945    0.7824    1.1278 H   0  0  0  0  0  0  0  0  0  0  0  0
    4.7519    2.0912   -0.0851 H   0  0  0  0  0  0  0  0  0  0  0  0
  2  4  1  0  0  0  0
  3  2  1  0  0  0  0
  5  6  1  6  0  0  0
  5  2  1  0  0  0  0
  5 26  1  0  0  0  0
  7  6  1  0  0  0  0
  8  6  1  0  0  0  0
  8 22  1  0  0  0  0
  9  8  1  0  0  0  0
 10 11  1  0  0  0  0
 10  8  1  0  0  0  0
 12 10  1  0  0  0  0
 13 10  1  0  0  0  0
 13 16  1  0  0  0  0
 14 13  1  0  0  0  0
 15 13  1  0  0  0  0
 16 18  1  0  0  0  0
 16 19  1  0  0  0  0
 17 16  1  0  0  0  0
 19 20  1  0  0  0  0
 19 22  1  0  0  0  0
 19 21  1  0  0  0  0
 22 23  1  0  0  0  0
 22 24  1  0  0  0  0
 25  1  1  1  0  0  0
 25 29  1  0  0  0  0
 25 26  1  0  0  0  0
 26 27  1  0  0  0  0
 26 28  1  0  0  0  0
 29 32  1  0  0  0  0
 29 30  1  0  0  0  0
 31 29  1  0  0  0  0
 33  1  1  0  0  0  0
 33 39  1  0  0  0  0
 33 34  1  0  0  0  0
 35 36  1  0  0  0  0
 35 33  1  0  0  0  0
 37 35  1  0  0  0  0
 38 35  1  0  0  0  0
 39 42  1  0  0  0  0
 39 41  1  0  0  0  0
 40 39  1  0  0  0  0
 43 44  1  0  0  0  0
 43 49  1  0  0  0  0
 43  1  1  0  0  0  0
 45 43  1  0  0  0  0
 46 45  1  0  0  0  0
 47 45  1  0  0  0  0
 48 45  1  0  0  0  0
 49 51  1  0  0  0  0
 50 49  1  0  0  0  0
 52 49  1  0  0  0  0
M  END
