3
q = -1.0

 14 14  0  0  1  0  0  0  0  0999 V2000
   -3.3957   -0.0016   -0.7330 O   0  0  0  0  0  0  0  0  0  0  0  0
   -2.5349    0.4339    0.0005 C   0  0  0  0  0  0  0  0  0  0  0  0
   -1.2686    1.2436   -0.1816 C   0  0  1  0  0  3  0  0  0  0  0  0
   -1.0186    1.2239    1.2472 C   0  0  0  0  0  3  0  0  0  0  0  0
   -2.3408    0.4915    1.5522 C   0  0  0  0  0  0  0  0  0  0  0  0
   -0.3942    1.6709   -1.2187 C   0  0  0  0  0  3  0  0  0  0  0  0
    0.2839    3.0204   -1.1853 C   0  0  0  0  0  0  0  0  0  0  0  0
   -0.5756    2.0187    1.8634 H   0  0  0  0  0  0  0  0  0  0  0  0
   -3.1182    1.1251    2.0331 H   0  0  0  0  0  0  0  0  0  0  0  0
   -2.2866   -0.4726    2.0960 H   0  0  0  0  0  0  0  0  0  0  0  0
   -0.6717    1.3166   -2.2292 H   0  0  0  0  0  0  0  0  0  0  0  0
    1.2150    3.0385   -1.7843 H   0  0  0  0  0  0  0  0  0  0  0  0
    0.5392    3.3229   -0.1512 H   0  0  0  0  0  0  0  0  0  0  0  0
   -0.3988    3.7888   -1.6092 H   0  0  0  0  0  0  0  0  0  0  0  0
  1  2  2  0  0  0  0
  2  5  1  0  0  0  0
  3  6  1  6  0  0  0
  3  2  1  0  0  0  0
  3  4  1  0  0  0  0
  4  5  1  0  0  0  0
  4  8  1  0  0  0  0
  5  9  1  0  0  0  0
  5 10  1  0  0  0  0
  6  7  1  0  0  0  0
  7 13  1  0  0  0  0
 11  6  1  0  0  0  0
 12  7  1  0  0  0  0
 14  7  1  0  0  0  0
M  END
