1
q = -1.0

 25 27  0  0  1  0  0  0  0  0999 V2000
    2.7560    1.0197    0.0980 C   0  0  0  0  0  3  0  0  0  0  0  0
    2.8162    2.1264    0.2121 H   0  0  0  0  0  0  0  0  0  0  0  0
    3.4920    0.6244   -1.2055 C   0  0  2  0  0  0  0  0  0  0  0  0
    2.9816    1.0837   -2.0788 H   0  0  0  0  0  0  0  0  0  0  0  0
    3.5021   -0.9095   -1.3658 C   0  0  0  0  0  0  0  0  0  0  0  0
    2.4565   -1.2834   -1.4303 H   0  0  0  0  0  0  0  0  0  0  0  0
    4.0159   -1.1959   -2.3100 H   0  0  0  0  0  0  0  0  0  0  0  0
    4.2200   -1.5548   -0.1636 C   0  0  1  0  0  0  0  0  0  0  0  0
    4.2185   -2.6607   -0.2775 H   0  0  0  0  0  0  0  0  0  0  0  0
    5.6743   -1.0445   -0.1076 C   0  0  0  0  0  0  0  0  0  0  0  0
    6.2123   -1.5174    0.7431 H   0  0  0  0  0  0  0  0  0  0  0  0
    6.2170   -1.3344   -1.0340 H   0  0  0  0  0  0  0  0  0  0  0  0
    5.6795    0.4894    0.0504 C   0  0  2  0  0  0  0  0  0  0  0  0
    6.7289    0.8547    0.0905 H   0  0  0  0  0  0  0  0  0  0  0  0
    4.9470    0.8714    1.3516 C   0  0  0  0  0  0  0  0  0  0  0  0
    4.9611    1.9745    1.4871 H   0  0  0  0  0  0  0  0  0  0  0  0
    5.4730    0.4311    2.2280 H   0  0  0  0  0  0  0  0  0  0  0  0
    3.4860    0.3666    1.2970 C   0  0  2  0  0  0  0  0  0  0  0  0
    2.9716    0.6389    2.2434 H   0  0  0  0  0  0  0  0  0  0  0  0
    4.9530    1.1287   -1.1491 C   0  0  0  0  0  0  0  0  0  0  0  0
    5.4832    0.8756   -2.0944 H   0  0  0  0  0  0  0  0  0  0  0  0
    4.9677    2.2363   -1.0572 H   0  0  0  0  0  0  0  0  0  0  0  0
    3.4962   -1.1677    1.1417 C   0  0  0  0  0  0  0  0  0  0  0  0
    4.0064   -1.6405    2.0100 H   0  0  0  0  0  0  0  0  0  0  0  0
    2.4508   -1.5477    1.1245 H   0  0  0  0  0  0  0  0  0  0  0  0
  1  2  1  0  0  0  0
  1 18  1  0  0  0  0
  3  4  1  6  0  0  0
  3 20  1  0  0  0  0
  3  1  1  0  0  0  0
  5  3  1  0  0  0  0
  5  8  1  0  0  0  0
  6  5  1  0  0  0  0
  7  5  1  0  0  0  0
  8  9  1  6  0  0  0
  8 10  1  0  0  0  0
  8 23  1  0  0  0  0
 10 13  1  0  0  0  0
 10 11  1  0  0  0  0
 12 10  1  0  0  0  0
 13 14  1  1  0  0  0
 13 15  1  0  0  0  0
 15 16  1  0  0  0  0
 15 17  1  0  0  0  0
 18 15  1  0  0  0  0
 18 19  1  1  0  0  0
 20 22  1  0  0  0  0
 20 13  1  0  0  0  0
 21 20  1  0  0  0  0
 23 18  1  0  0  0  0
 23 24  1  0  0  0  0
 25 23  1  0  0  0  0
M  END
