3
q = 0.0, confidence = 0.984

 49 51  0  0  0  0  0  0  0  0999 V2000
    2.8891    0.1554    0.0666 N   0  0  0  0  0  0  0  0  0  0  0  0
    2.2526    2.2537   -0.0522 N   0  0  0  0  0  0  0  0  0  0  0  0
    1.8159    0.9670   -0.0651 C   0  0  0  0  0  2  0  0  0  0  0  0
    4.1577    0.9140    0.0838 C   0  0  0  0  0  0  0  0  0  0  0  0
    4.6667    0.8260   -0.8995 H   0  0  0  0  0  0  0  0  0  0  0  0
    4.8390    0.5291    0.8653 H   0  0  0  0  0  0  0  0  0  0  0  0
    3.6673    2.3407    0.3529 C   0  0  0  0  0  0  0  0  0  0  0  0
    3.7371    2.6051    1.4315 H   0  0  0  0  0  0  0  0  0  0  0  0
    4.2024    3.1108   -0.2349 H   0  0  0  0  0  0  0  0  0  0  0  0
    2.8197   -1.2807    0.1378 C   0  0  0  0  0  0  0  0  0  0  0  0
    2.5706   -1.8887    1.3987 C   0  0  0  0  0  0  0  0  0  0  0  0
    2.4554   -3.2915    1.4400 C   0  0  0  0  0  0  0  0  0  0  0  0
    2.2544   -3.7841    2.4022 H   0  0  0  0  0  0  0  0  0  0  0  0
    2.5994   -4.0655    0.2829 C   0  0  0  0  0  0  0  0  0  0  0  0
    2.4998   -5.1607    0.3370 H   0  0  0  0  0  0  0  0  0  0  0  0
    2.8853   -3.4490   -0.9400 C   0  0  0  0  0  0  0  0  0  0  0  0
    3.0118   -4.0645   -1.8421 H   0  0  0  0  0  0  0  0  0  0  0  0
    3.0082   -2.0504   -1.0413 C   0  0  0  0  0  0  0  0  0  0  0  0
    2.5073   -1.0792    2.6872 C   0  0  0  0  0  0  0  0  0  0  0  0
    2.1878   -0.0506    2.4254 H   0  0  0  0  0  0  0  0  0  0  0  0
    1.4752   -1.6070    3.6908 C   0  0  0  0  0  0  0  0  0  0  0  0
    0.4735   -1.6764    3.2265 H   0  0  0  0  0  0  0  0  0  0  0  0
    1.3906   -0.9070    4.5453 H   0  0  0  0  0  0  0  0  0  0  0  0
    1.7545   -2.6003    4.1006 H   0  0  0  0  0  0  0  0  0  0  0  0
    3.9043   -1.0082    3.3351 C   0  0  0  0  0  0  0  0  0  0  0  0
    4.2523   -2.0184    3.6367 H   0  0  0  0  0  0  0  0  0  0  0  0
    3.8824   -0.3698    4.2421 H   0  0  0  0  0  0  0  0  0  0  0  0
    4.6664   -0.5942    2.6443 H   0  0  0  0  0  0  0  0  0  0  0  0
    3.4076   -1.4164   -2.3678 C   0  0  0  0  0  0  0  0  0  0  0  0
    3.0621   -0.3618   -2.3460 H   0  0  0  0  0  0  0  0  0  0  0  0
    2.7523   -2.0791   -3.5875 C   0  0  0  0  0  0  0  0  0  0  0  0
    3.1354   -3.1071   -3.7551 H   0  0  0  0  0  0  0  0  0  0  0  0
    2.9804   -1.4948   -4.5016 H   0  0  0  0  0  0  0  0  0  0  0  0
    1.6524   -2.1158   -3.4734 H   0  0  0  0  0  0  0  0  0  0  0  0
    4.9435   -1.4422   -2.5188 C   0  0  0  0  0  0  0  0  0  0  0  0
    5.4650   -0.9817   -1.6563 H   0  0  0  0  0  0  0  0  0  0  0  0
    5.2574   -0.9076   -3.4390 H   0  0  0  0  0  0  0  0  0  0  0  0
    5.3060   -2.4886   -2.5944 H   0  0  0  0  0  0  0  0  0  0  0  0
    1.4308    3.3979   -0.1954 C   0  0  0  0  0  0  0  0  0  0  0  0
    0.3721    3.3920   -1.1274 C   0  0  0  0  0  0  0  0  0  0  0  0
    0.2107    2.5046   -1.7579 H   0  0  0  0  0  0  0  0  0  0  0  0
   -0.4508    4.5188   -1.2477 C   0  0  0  0  0  0  0  0  0  0  0  0
   -1.2735    4.5041   -1.9790 H   0  0  0  0  0  0  0  0  0  0  0  0
   -0.2192    5.6637   -0.4668 C   0  0  0  0  0  0  0  0  0  0  0  0
   -0.8659    6.5478   -0.5700 H   0  0  0  0  0  0  0  0  0  0  0  0
    0.8562    5.6763    0.4340 C   0  0  0  0  0  0  0  0  0  0  0  0
    1.0526    6.5682    1.0481 H   0  0  0  0  0  0  0  0  0  0  0  0
    1.6819    4.5510    0.5726 C   0  0  0  0  0  0  0  0  0  0  0  0
    2.5043    4.5646    1.3015 H   0  0  0  0  0  0  0  0  0  0  0  0
  1  4  1  0  0  0  0
  1 10  1  0  0  0  0
  2  7  1  0  0  0  0
  3  2  1  0  0  0  0
  3  1  1  0  0  0  0
  4  7  1  0  0  0  0
  4  6  1  0  0  0  0
  5  4  1  0  0  0  0
  7  8  1  0  0  0  0
  9  7  1  0  0  0  0
 10 11  1  0  0  0  0
 11 12  2  0  0  0  0
 11 19  1  0  0  0  0
 12 13  1  0  0  0  0
 14 15  1  0  0  0  0
 14 12  1  0  0  0  0
 16 14  2  0  0  0  0
 17 16  1  0  0  0  0
 18 16  1  0  0  0  0
 18 10  2  0  0  0  0
 19 25  1  0  0  0  0
 19 21  1  0  0  0  0
 20 19  1  0  0  0  0
 21 24  1  0  0  0  0
 21 23  1  0  0  0  0
 22 21  1  0  0  0  0
 25 26  1  0  0  0  0
 25 27  1  0  0  0  0
 28 25  1  0  0  0  0
 29 30  1  0  0  0  0
 29 18  1  0  0  0  0
 31 34  1  0  0  0  0
 31 29  1  0  0  0  0
 32 31  1  0  0  0  0
 33 31  1  0  0  0  0
 35 29  1  0  0  0  0
 35 36  1  0  0  0  0
 37 35  1  0  0  0  0
 38 35  1  0  0  0  0
 39  2  1  0  0  0  0
 39 48  1  0  0  0  0
 40 39  2  0  0  0  0
 41 40  1  0  0  0  0
 42 40  1  0  0  0  0
 42 44  2  0  0  0  0
 43 42  1  0  0  0  0
 44 46  1  0  0  0  0
 45 44  1  0  0  0  0
 46 48  2  0  0  0  0
 46 47  1  0  0  0  0
 48 49  1  0  0  0  0
M  END
