24
q = -1.0, confidence = 0.0

 32 34  0  0  0  0  0  0  0  0999 V2000
    2.0663    4.6950   -0.1673 O   0  0  0  0  0  0  0  0  0  0  0  0
   -0.1763    4.9517   -0.2338 O   0  0  0  0  0  0  0  0  0  0  0  0
    0.8947    0.1605   -1.8066 N   0  0  0  0  0  0  0  0  0  0  0  0
    1.9936    0.7718   -1.3742 C   0  0  0  0  0  0  0  0  0  0  0  0
    2.0018    2.1554   -1.0311 C   0  0  0  0  0  0  0  0  0  0  0  0
    2.9231    2.6179   -0.6569 H   0  0  0  0  0  0  0  0  0  0  0  0
    0.8166    2.8846   -1.0353 C   0  0  0  0  0  0  0  0  0  0  0  0
   -1.6709    2.8663   -1.5862 C   0  0  0  0  0  0  0  0  0  0  0  0
   -1.7693    3.9099   -1.2646 H   0  0  0  0  0  0  0  0  0  0  0  0
   -2.7672    2.1561   -2.0603 C   0  0  0  0  0  0  0  0  0  0  0  0
   -3.7472    2.6540   -2.1229 H   0  0  0  0  0  0  0  0  0  0  0  0
   -2.6459    0.7990   -2.4610 C   0  0  0  0  0  0  0  0  0  0  0  0
   -3.5337    0.2503   -2.8099 H   0  0  0  0  0  0  0  0  0  0  0  0
   -1.4163    0.1650   -2.3859 C   0  0  0  0  0  0  0  0  0  0  0  0
   -1.2795   -0.8888   -2.6685 H   0  0  0  0  0  0  0  0  0  0  0  0
   -0.3885    2.2477   -1.5032 C   0  0  0  0  0  0  0  0  0  0  0  0
   -0.2673    0.8649   -1.9096 C   0  0  0  0  0  0  0  0  0  0  0  0
    0.8105    4.2678   -0.4594 C   0  0  0  0  0  0  0  0  0  0  0  0
    2.1431    5.9781    0.4581 C   0  0  0  0  0  0  0  0  0  0  0  0
    1.6766    6.7582   -0.1764 H   0  0  0  0  0  0  0  0  0  0  0  0
    3.2185    6.1852    0.6007 H   0  0  0  0  0  0  0  0  0  0  0  0
    1.6183    5.9697    1.4354 H   0  0  0  0  0  0  0  0  0  0  0  0
    3.1842   -0.0753   -1.0752 C   0  0  0  0  0  0  0  0  0  0  0  0
    3.0469   -1.2336   -0.2677 C   0  0  0  0  0  3  0  0  0  0  0  0
    4.1601   -2.0229    0.0466 C   0  0  0  0  0  0  0  0  0  0  0  0
    4.0356   -2.9318    0.6517 H   0  0  0  0  0  0  0  0  0  0  0  0
    5.4320   -1.6508   -0.4232 C   0  0  0  0  0  0  0  0  0  0  0  0
    6.3049   -2.2741   -0.1752 H   0  0  0  0  0  0  0  0  0  0  0  0
    5.5892   -0.4946   -1.2035 C   0  0  0  0  0  0  0  0  0  0  0  0
    6.5851   -0.2062   -1.5719 H   0  0  0  0  0  0  0  0  0  0  0  0
    4.4719    0.2887   -1.5227 C   0  0  0  0  0  0  0  0  0  0  0  0
    4.5858    1.1884   -2.1478 H   0  0  0  0  0  0  0  0  0  0  0  0
  1 19  1  0  0  0  0
  3  4  1  0  0  0  0
  4 23  1  0  0  0  0
  4  5  2  0  0  0  0
  5  6  1  0  0  0  0
  7  5  1  0  0  0  0
  7 18  1  0  0  0  0
  8 16  1  0  0  0  0
  8  9  1  0  0  0  0
 10  8  2  0  0  0  0
 11 10  1  0  0  0  0
 12 14  2  0  0  0  0
 12 10  1  0  0  0  0
 13 12  1  0  0  0  0
 14 17  1  0  0  0  0
 15 14  1  0  0  0  0
 16  7  2  0  0  0  0
 17  3  2  0  0  0  0
 17 16  1  0  0  0  0
 18  2  2  0  0  0  0
 18  1  1  0  0  0  0
 19 21  1  0  0  0  0
 19 22  1  0  0  0  0
 20 19  1  0  0  0  0
 23 24  1  0  0  0  0
 24 25  2  0  0  0  0
 25 26  1  0  0  0  0
 27 28  1  0  0  0  0
 27 25  1  0  0  0  0
 29 27  2  0  0  0  0
 30 29  1  0  0  0  0
 31 29  1  0  0  0  0
 31 23  2  0  0  0  0
 32 31  1  0  0  0  0
M  END
