8
q = -1.0, confidence = 0.0

 20 21  0  0  0  0  0  0  0  0999 V2000
   -2.1400   -2.0138   -0.2405 S   0  0  0  0  0  0  0  0  0  0  0  0
   -2.8804   -2.0642   -1.5100 O   0  0  0  0  0  1  0  0  0  0  0  0
   -0.8377   -3.0819   -0.3651 O   0  0  0  0  0  0  0  0  0  0  0  0
   -2.8482   -2.2721    1.0283 O   0  0  0  0  0  1  0  0  0  0  0  0
    0.4000   -2.4169   -0.1128 C   0  0  0  0  0  0  0  0  0  0  0  0
    1.1035   -2.6887   -0.9313 H   0  0  0  0  0  0  0  0  0  0  0  0
    0.8354   -2.7991    0.8390 H   0  0  0  0  0  0  0  0  0  0  0  0
    0.2159   -0.9158   -0.0361 C   0  0  0  0  0  3  0  0  0  0  0  0
   -1.0849   -0.5550   -0.1081 C   0  0  0  0  0  0  0  0  0  0  0  0
   -1.7890    0.7395   -0.0704 C   0  0  0  0  0  0  0  0  0  0  0  0
   -2.6994    1.0227    0.9719 C   0  0  0  0  0  0  0  0  0  0  0  0
   -2.8823    0.2594    1.7422 H   0  0  0  0  0  0  0  0  0  0  0  0
   -3.3556    2.2598    1.0195 C   0  0  0  0  0  0  0  0  0  0  0  0
   -4.0549    2.4725    1.8421 H   0  0  0  0  0  0  0  0  0  0  0  0
   -3.1234    3.2249    0.0263 C   0  0  0  0  0  0  0  0  0  0  0  0
   -3.6393    4.1961    0.0681 H   0  0  0  0  0  0  0  0  0  0  0  0
   -2.2434    2.9401   -1.0298 C   0  0  0  0  0  0  0  0  0  0  0  0
   -2.0792    3.6815   -1.8269 H   0  0  0  0  0  0  0  0  0  0  0  0
   -1.5863    1.7030   -1.0815 C   0  0  0  0  0  0  0  0  0  0  0  0
   -0.9293    1.4579   -1.9281 H   0  0  0  0  0  0  0  0  0  0  0  0
  1  9  1  0  0  0  0
  1  4  1  0  0  0  0
  2  1  1  0  0  0  0
  3  1  1  0  0  0  0
  3  5  1  0  0  0  0
  5  8  1  0  0  0  0
  5  7  1  0  0  0  0
  6  5  1  0  0  0  0
  9 10  1  0  0  0  0
  9  8  2  0  0  0  0
 10 11  1  0  0  0  0
 11 13  2  0  0  0  0
 11 12  1  0  0  0  0
 13 14  1  0  0  0  0
 15 16  1  0  0  0  0
 15 13  1  0  0  0  0
 17 15  2  0  0  0  0
 18 17  1  0  0  0  0
 19 17  1  0  0  0  0
 19 10  2  0  0  0  0
 20 19  1  0  0  0  0
M  END
