1
q = -1.0

 16 16  0  0  0  0  0  0  0  0999 V2000
   -2.7794    0.1002   -0.0998 C   0  0  0  0  0  3  0  0  0  0  0  0
   -3.5277    0.9576    0.7491 C   0  0  0  0  0  0  0  0  0  0  0  0
   -3.0016    1.6259    1.4496 H   0  0  0  0  0  0  0  0  0  0  0  0
   -4.9256    0.9796    0.7226 C   0  0  0  0  0  0  0  0  0  0  0  0
   -5.5072    1.6439    1.3804 H   0  0  0  0  0  0  0  0  0  0  0  0
   -5.6444    0.1418   -0.1579 C   0  0  0  0  0  0  0  0  0  0  0  0
   -4.9170   -0.7177   -1.0098 C   0  0  0  0  0  0  0  0  0  0  0  0
   -5.4461   -1.3838   -1.7085 H   0  0  0  0  0  0  0  0  0  0  0  0
   -3.5154   -0.7347   -0.9777 C   0  0  0  0  0  0  0  0  0  0  0  0
   -2.9820   -1.4191   -1.6568 H   0  0  0  0  0  0  0  0  0  0  0  0
   -7.1404    0.2105   -0.1401 C   0  0  0  0  0  0  0  0  0  0  0  0
   -7.9164   -0.6918   -1.0898 C   0  0  0  0  0  0  0  0  0  0  0  0
   -8.9969   -0.5135   -0.9452 H   0  0  0  0  0  0  0  0  0  0  0  0
   -7.6889   -1.7609   -0.9000 H   0  0  0  0  0  0  0  0  0  0  0  0
   -7.6454   -0.4868   -2.1459 H   0  0  0  0  0  0  0  0  0  0  0  0
   -7.7339    0.9731    0.6189 O   0  0  0  0  0  0  0  0  0  0  0  0
  1  2  1  0  0  0  0
  2  3  1  0  0  0  0
  4  2  2  0  0  0  0
  4  5  1  0  0  0  0
  6 11  1  0  0  0  0
  6  4  1  0  0  0  0
  7  9  1  0  0  0  0
  7  6  2  0  0  0  0
  8  7  1  0  0  0  0
  9  1  2  0  0  0  0
 10  9  1  0  0  0  0
 11 16  2  0  0  0  0
 12 13  1  0  0  0  0
 12 14  1  0  0  0  0
 12 11  1  0  0  0  0
 15 12  1  0  0  0  0
M  END
