1
q = -1.0, confidence = 0.0

 14 14  0  0  0  0  0  0  0  0999 V2000
   -3.1777    0.1383    0.5164 C   0  0  0  0  0  3  0  0  0  0  0  0
   -4.0660   -0.5707   -0.3286 C   0  0  0  0  0  0  0  0  0  0  0  0
   -3.6601   -1.1876   -1.1482 H   0  0  0  0  0  0  0  0  0  0  0  0
   -5.4661   -0.5268   -0.1700 C   0  0  0  0  0  0  0  0  0  0  0  0
   -5.9968    0.2551    0.8768 C   0  0  0  0  0  0  0  0  0  0  0  0
   -7.0887    0.3027    1.0221 H   0  0  0  0  0  0  0  0  0  0  0  0
   -5.1442    0.9684    1.7302 C   0  0  0  0  0  0  0  0  0  0  0  0
   -5.5700    1.5757    2.5455 H   0  0  0  0  0  0  0  0  0  0  0  0
   -3.7513    0.9124    1.5529 C   0  0  0  0  0  0  0  0  0  0  0  0
   -3.1041    1.4828    2.2384 H   0  0  0  0  0  0  0  0  0  0  0  0
   -6.3818   -1.2879   -1.0988 C   0  0  0  0  0  0  0  0  0  0  0  0
   -7.0046   -0.5992   -1.7090 H   0  0  0  0  0  0  0  0  0  0  0  0
   -7.0840   -1.9389   -0.5370 H   0  0  0  0  0  0  0  0  0  0  0  0
   -5.8101   -1.9293   -1.7981 H   0  0  0  0  0  0  0  0  0  0  0  0
  1  9  1  0  0  0  0
  2  4  1  0  0  0  0
  2  1  2  0  0  0  0
  3  2  1  0  0  0  0
  4  5  2  0  0  0  0
  5  6  1  0  0  0  0
  5  7  1  0  0  0  0
  7  8  1  0  0  0  0
  9  7  2  0  0  0  0
  9 10  1  0  0  0  0
 11 13  1  0  0  0  0
 11  4  1  0  0  0  0
 12 11  1  0  0  0  0
 14 11  1  0  0  0  0
M  END
