6
q = -1.0

 19 20  0  0  0  0  0  0  0  0999 V2000
   -2.8871    0.0000   -0.4485 S   0  0  0  0  0  0  0  0  0  0  0  0
   -1.9231    1.2894    0.1817 C   0  0  0  0  0  0  0  0  0  0  0  0
   -0.8506    0.7319    0.8996 C   0  0  0  0  0  0  0  0  0  0  0  0
    0.3356    1.1762    1.6146 C   0  0  0  0  0  3  0  0  0  0  0  0
    0.6182    2.2115    1.8332 H   0  0  0  0  0  0  0  0  0  0  0  0
    0.9855   -0.0000    2.1206 C   0  0  0  0  0  3  0  0  0  0  0  0
    1.8780   -0.0000    2.7594 H   0  0  0  0  0  0  0  0  0  0  0  0
   -2.2206    2.7274   -0.0926 C   0  0  0  0  0  0  0  0  0  0  0  0
   -2.2059    3.3246    0.8432 H   0  0  0  0  0  0  0  0  0  0  0  0
   -3.2129    2.8627   -0.5637 H   0  0  0  0  0  0  0  0  0  0  0  0
   -1.4599    3.1641   -0.7768 H   0  0  0  0  0  0  0  0  0  0  0  0
   -1.9232   -1.2893    0.1817 C   0  0  0  0  0  0  0  0  0  0  0  0
   -0.8507   -0.7319    0.8996 C   0  0  0  0  0  0  0  0  0  0  0  0
    0.3356   -1.1762    1.6146 C   0  0  0  0  0  3  0  0  0  0  0  0
    0.6181   -2.2115    1.8332 H   0  0  0  0  0  0  0  0  0  0  0  0
   -2.2207   -2.7274   -0.0925 C   0  0  0  0  0  0  0  0  0  0  0  0
   -2.2057   -3.3246    0.8433 H   0  0  0  0  0  0  0  0  0  0  0  0
   -3.2133   -2.8627   -0.5632 H   0  0  0  0  0  0  0  0  0  0  0  0
   -1.4604   -3.1639   -0.7771 H   0  0  0  0  0  0  0  0  0  0  0  0
  1  2  1  0  0  0  0
  1 12  1  0  0  0  0
  2  3  2  0  0  0  0
  3 13  1  0  0  0  0
  3  4  1  0  0  0  0
  4  5  1  0  0  0  0
  4  6  1  0  0  0  0
  6  7  1  0  0  0  0
  8  2  1  0  0  0  0
  8  9  1  0  0  0  0
 10  8  1  0  0  0  0
 11  8  1  0  0  0  0
 12 13  2  0  0  0  0
 13 14  1  0  0  0  0
 14 15  1  0  0  0  0
 14  6  1  0  0  0  0
 16 12  1  0  0  0  0
 16 17  1  0  0  0  0
 18 16  1  0  0  0  0
 19 16  1  0  0  0  0
M  END
