1
q = -1.0, confidence = 0.0

 14 14  0  0  0  0  0  0  0  0999 V2000
    1.8798    0.0689    2.0339 C   0  0  0  0  0  3  0  0  0  0  0  0
    2.4979   -0.6559    2.6003 H   0  0  0  0  0  0  0  0  0  0  0  0
    2.1782    1.0959    2.3137 H   0  0  0  0  0  0  0  0  0  0  0  0
    0.4380   -0.1267    2.2747 C   0  0  0  0  0  0  0  0  0  0  0  0
   -0.4910    0.8965    2.2690 C   0  0  0  0  0  0  0  0  0  0  0  0
   -0.1658    1.9377    2.1626 H   0  0  0  0  0  0  0  0  0  0  0  0
   -1.9124    0.6329    2.2673 C   0  0  0  0  0  0  0  0  0  0  0  0
   -2.8196    1.4607    2.1281 O   0  0  0  0  0  0  0  0  0  0  0  0
   -2.2331   -0.7423    2.3921 N   0  0  0  0  0  0  0  0  0  0  0  0
   -3.2286   -0.9786    2.3707 H   0  0  0  0  0  0  0  0  0  0  0  0
   -1.3566   -1.8181    2.4161 C   0  0  0  0  0  0  0  0  0  0  0  0
   -1.7107   -2.9929    2.4289 O   0  0  0  0  0  0  0  0  0  0  0  0
   -0.0177   -1.4294    2.4049 N   0  0  0  0  0  0  0  0  0  0  0  0
    0.6521   -2.2003    2.3670 H   0  0  0  0  0  0  0  0  0  0  0  0
  1  4  1  0  0  0  0
  1  3  1  0  0  0  0
  1  2  1  0  0  0  0
  4 13  1  0  0  0  0
  5  4  2  0  0  0  0
  6  5  1  0  0  0  0
  7  5  1  0  0  0  0
  7  9  1  0  0  0  0
  8  7  2  0  0  0  0
  9 11  1  0  0  0  0
 10  9  1  0  0  0  0
 11 12  2  0  0  0  0
 13 11  1  0  0  0  0
 14 13  1  0  0  0  0
M  END
