1
q = -1.0

  8  7  0  0  0  0  0  0  0  0999 V2000
    0.8410   -0.3187    0.0003 C   0  0  0  0  0  3  0  0  0  0  0  0
    1.9095    0.5132    0.0000 C   0  0  0  0  0  0  0  0  0  0  0  0
    1.7501    1.5991   -0.0006 H   0  0  0  0  0  0  0  0  0  0  0  0
    3.3348    0.0487    0.0000 C   0  0  0  0  0  0  0  0  0  0  0  0
    1.1110   -1.6522    0.0008 F   0  0  0  0  0  0  0  0  0  0  0  0
    3.6403   -0.7074    1.0871 F   0  0  0  0  0  0  0  0  0  0  0  0
    3.6417   -0.7030   -1.0897 F   0  0  0  0  0  0  0  0  0  0  0  0
    4.1741    1.1135    0.0026 F   0  0  0  0  0  0  0  0  0  0  0  0
  1  5  1  0  0  0  0
  2  1  2  0  0  0  0
  3  2  1  0  0  0  0
  4  2  1  0  0  0  0
  4  8  1  0  0  0  0
  4  6  1  0  0  0  0
  7  4  1  0  0  0  0
M  END
