7
q = -1.0, confidence = 0.08

 37 41  0  0  1  0  0  0  0  0999 V2000
    0.7902   -0.9640    0.6356 C   0  0  1  0  0  0  0  0  0  0  0  0
   -0.1194   -1.9431    1.3903 C   0  0  0  0  0  0  0  0  0  0  0  0
   -1.5833   -1.8812    1.0130 C   0  0  0  0  0  0  0  0  0  0  0  0
   -2.1044   -2.7167    0.0062 C   0  0  0  0  0  0  0  0  0  0  0  0
   -3.4586   -2.6542   -0.3650 C   0  0  0  0  0  0  0  0  0  0  0  0
   -4.3187   -1.7370    0.2509 C   0  0  0  0  0  0  0  0  0  0  0  0
   -3.8183   -0.8804    1.2646 C   0  0  0  0  0  3  0  0  0  0  0  0
   -2.4581   -0.9712    1.6556 C   0  0  0  0  0  3  0  0  0  0  0  0
    0.6792    0.7243    0.9513 B   0  0  0  0  0  0  0  0  0  0  0  0
    2.0486   -0.2244    1.5903 B   0  0  0  0  0  0  0  0  0  0  0  0
    2.4227   -1.5078    0.3862 B   0  0  2  0  0  0  0  0  0  0  0  0
    1.2777   -1.3454   -0.9893 B   0  0  0  0  0  0  0  0  0  0  0  0
    0.2296    0.0437   -0.6302 B   0  0  2  0  0  0  0  0  0  0  0  0
    2.3332    1.3765    0.8340 B   0  0  1  0  0  0  0  0  0  0  0  0
    3.4346   -0.0338    0.4791 B   0  0  0  0  0  0  0  0  0  0  0  0
    2.9528   -0.7332   -1.1395 B   0  0  0  0  0  0  0  0  0  0  0  0
    1.5613    0.2441   -1.7796 B   0  0  1  0  0  0  0  0  0  0  0  0
    1.1738    1.5401   -0.5552 B   0  0  0  0  0  0  0  0  0  0  0  0
    2.8918    1.0636   -0.8638 B   0  0  1  0  0  0  0  0  0  0  0  0
   -0.3172    1.1663    1.8118 F   0  0  0  0  0  0  0  0  0  0  0  0
    2.0692   -0.5215    2.9247 F   0  0  0  0  0  0  0  0  0  0  0  0
    2.7331   -2.7635    0.8271 F   0  0  0  0  0  0  0  0  0  0  0  0
    0.7359   -2.4696   -1.5605 F   0  0  0  0  0  0  0  0  0  0  0  0
   -1.1233    0.0085   -1.0334 F   0  0  0  0  0  0  0  0  0  0  0  0
    2.7317    2.4619    1.5694 F   0  0  0  0  0  0  0  0  0  0  0  0
    4.7299   -0.0670    0.9183 F   0  0  0  0  0  0  0  0  0  0  0  0
    3.8675   -1.3205   -1.9712 F   0  0  0  0  0  0  0  0  0  0  0  0
    1.3215    0.4336   -3.1171 F   0  0  0  0  0  0  0  0  0  0  0  0
    0.5863    2.7362   -0.9132 F   0  0  0  0  0  0  0  0  0  0  0  0
    3.7703    1.9062   -1.4885 F   0  0  0  0  0  0  0  0  0  0  0  0
    0.2694   -2.9645    1.2124 H   0  0  0  0  0  0  0  0  0  0  0  0
    0.0028   -1.7419    2.4731 H   0  0  0  0  0  0  0  0  0  0  0  0
   -1.4284   -3.4190   -0.5038 H   0  0  0  0  0  0  0  0  0  0  0  0
   -3.8402   -3.3262   -1.1478 H   0  0  0  0  0  0  0  0  0  0  0  0
   -5.3818   -1.6900   -0.0296 H   0  0  0  0  0  0  0  0  0  0  0  0
   -4.5106   -0.2381    1.8336 H   0  0  0  0  0  0  0  0  0  0  0  0
   -2.0810   -0.3613    2.4896 H   0  0  0  0  0  0  0  0  0  0  0  0
  1  9  1  0  0  0  0
  1  2  1  1  0  0  0
  2 32  1  0  0  0  0
  3  2  1  0  0  0  0
  3  8  1  0  0  0  0
  4  3  2  0  0  0  0
  5  4  1  0  0  0  0
  5  6  2  0  0  0  0
  6  7  1  0  0  0  0
  7  8  1  0  0  0  0
  7 36  1  0  0  0  0
  8 37  1  0  0  0  0
  9 20  1  0  0  0  0
 10 21  1  0  0  0  0
 11 15  1  0  0  0  0
 11  1  1  0  0  0  0
 11 22  1  1  0  0  0
 13 24  1  6  0  0  0
 13 18  1  0  0  0  0
 13  1  1  0  0  0  0
 14  9  1  0  0  0  0
 14 25  1  1  0  0  0
 14 10  1  0  0  0  0
 15 26  1  0  0  0  0
 15 10  1  0  0  0  0
 16 12  1  0  0  0  0
 16 11  1  0  0  0  0
 17 28  1  6  0  0  0
 17 12  1  0  0  0  0
 17 19  1  0  0  0  0
 17 13  1  0  0  0  0
 19 30  1  6  0  0  0
 19 18  1  0  0  0  0
 19 14  1  0  0  0  0
 23 12  1  0  0  0  0
 27 16  1  0  0  0  0
 29 18  1  0  0  0  0
 31  2  1  0  0  0  0
 33  4  1  0  0  0  0
 34  5  1  0  0  0  0
 35  6  1  0  0  0  0
M  END
