1
q = -1.0

 13 13  0  0  0  0  0  0  0  0999 V2000
   -2.0113    0.0068   -0.0599 C   0  0  0  0  0  3  0  0  0  0  0  0
   -3.2694    0.0102   -0.0567 C   0  0  0  0  0  0  0  0  0  0  0  0
   -4.6906    0.0049   -0.0687 C   0  0  0  0  0  0  0  0  0  0  0  0
   -5.4319   -1.2121   -0.1017 C   0  0  0  0  0  0  0  0  0  0  0  0
   -6.8296   -1.2230   -0.1148 C   0  0  0  0  0  0  0  0  0  0  0  0
   -7.5343   -0.0072   -0.0953 C   0  0  0  0  0  0  0  0  0  0  0  0
   -9.2846   -0.0147   -0.1117 Cl  0  0  0  0  0  0  0  0  0  0  0  0
   -6.8404    1.2146   -0.0627 C   0  0  0  0  0  0  0  0  0  0  0  0
   -5.4426    1.2156   -0.0498 C   0  0  0  0  0  0  0  0  0  0  0  0
   -4.9002    2.1727   -0.0241 H   0  0  0  0  0  0  0  0  0  0  0  0
   -7.4042    2.1585   -0.0476 H   0  0  0  0  0  0  0  0  0  0  0  0
   -7.3850   -2.1716   -0.1402 H   0  0  0  0  0  0  0  0  0  0  0  0
   -4.8810   -2.1647   -0.1167 H   0  0  0  0  0  0  0  0  0  0  0  0
  1  2  3  0  0  0  0
  3  2  1  0  0  0  0
  3  9  1  0  0  0  0
  4  3  2  0  0  0  0
  5  4  1  0  0  0  0
  5  6  2  0  0  0  0
  6  8  1  0  0  0  0
  7  6  1  0  0  0  0
  8  9  2  0  0  0  0
  8 11  1  0  0  0  0
  9 10  1  0  0  0  0
 12  5  1  0  0  0  0
 13  4  1  0  0  0  0
M  END
