2
q = -1.0, confidence = 0.0

 37 37  0  0  0  0  0  0  0  0999 V2000
    1.3123    0.2139   -1.6786 C   0  0  0  0  0  3  0  0  0  0  0  0
    0.4770   -0.9560   -1.7060 C   0  0  0  0  0  3  0  0  0  0  0  0
   -0.9296   -0.8160   -1.4222 C   0  0  0  0  0  3  0  0  0  0  0  0
   -1.7544   -2.0120   -1.2688 C   0  0  0  0  0  0  0  0  0  0  0  0
   -3.1065   -2.1611   -1.1404 C   0  0  0  0  0  0  0  0  0  0  0  0
   -3.6445   -3.5652   -1.0072 C   0  0  0  0  0  0  0  0  0  0  0  0
   -4.1175   -0.9908   -1.1128 C   0  0  0  0  0  0  0  0  0  0  0  0
   -3.7899   -0.0468    0.0662 C   0  0  0  0  0  0  0  0  0  0  0  0
   -4.0789   -0.2168   -2.4517 C   0  0  0  0  0  0  0  0  0  0  0  0
   -5.5686   -1.4830   -0.9196 C   0  0  0  0  0  0  0  0  0  0  0  0
    2.7851    0.1738   -1.7814 C   0  0  0  0  0  0  0  0  0  0  0  0
    3.5110    1.3804   -1.6371 C   0  0  0  0  0  0  0  0  0  0  0  0
    4.9098    1.3973   -1.6978 C   0  0  0  0  0  0  0  0  0  0  0  0
    5.6250    0.2066   -1.9139 C   0  0  0  0  0  0  0  0  0  0  0  0
    4.9203   -0.9975   -2.0710 C   0  0  0  0  0  0  0  0  0  0  0  0
    3.5192   -1.0149   -2.0034 C   0  0  0  0  0  0  0  0  0  0  0  0
    0.8586    1.1716   -1.9797 H   0  0  0  0  0  0  0  0  0  0  0  0
    0.9076   -1.9671   -1.8097 H   0  0  0  0  0  0  0  0  0  0  0  0
   -1.4113    0.1272   -1.7139 H   0  0  0  0  0  0  0  0  0  0  0  0
   -1.1665   -2.9490   -1.2358 H   0  0  0  0  0  0  0  0  0  0  0  0
   -4.3571   -3.8164   -1.8217 H   0  0  0  0  0  0  0  0  0  0  0  0
   -4.2057   -3.7110   -0.0594 H   0  0  0  0  0  0  0  0  0  0  0  0
   -2.8270   -4.3115   -1.0339 H   0  0  0  0  0  0  0  0  0  0  0  0
   -2.7741    0.3881    0.0093 H   0  0  0  0  0  0  0  0  0  0  0  0
   -3.8708   -0.5926    1.0293 H   0  0  0  0  0  0  0  0  0  0  0  0
   -4.5148    0.7933    0.0969 H   0  0  0  0  0  0  0  0  0  0  0  0
   -3.0895    0.2335   -2.6529 H   0  0  0  0  0  0  0  0  0  0  0  0
   -4.8252    0.6050   -2.4398 H   0  0  0  0  0  0  0  0  0  0  0  0
   -4.3226   -0.8872   -3.3010 H   0  0  0  0  0  0  0  0  0  0  0  0
   -6.2517   -0.6098   -0.8990 H   0  0  0  0  0  0  0  0  0  0  0  0
   -5.7023   -2.0269    0.0365 H   0  0  0  0  0  0  0  0  0  0  0  0
   -5.9039   -2.1452   -1.7423 H   0  0  0  0  0  0  0  0  0  0  0  0
    2.9516    2.3128   -1.4611 H   0  0  0  0  0  0  0  0  0  0  0  0
    5.4495    2.3495   -1.5785 H   0  0  0  0  0  0  0  0  0  0  0  0
    6.7241    0.2188   -1.9666 H   0  0  0  0  0  0  0  0  0  0  0  0
    5.4673   -1.9355   -2.2540 H   0  0  0  0  0  0  0  0  0  0  0  0
    2.9876   -1.9681   -2.1422 H   0  0  0  0  0  0  0  0  0  0  0  0
  2  1  1  0  0  0  0
  2  3  1  0  0  0  0
  3  4  1  0  0  0  0
  4 20  1  0  0  0  0
  4  5  2  0  0  0  0
  5  7  1  0  0  0  0
  5  6  1  0  0  0  0
  6 22  1  0  0  0  0
  7 10  1  0  0  0  0
  7  8  1  0  0  0  0
  8 26  1  0  0  0  0
  8 25  1  0  0  0  0
  9 28  1  0  0  0  0
  9  7  1  0  0  0  0
 10 30  1  0  0  0  0
 10 31  1  0  0  0  0
 11  1  1  0  0  0  0
 11 12  1  0  0  0  0
 12 33  1  0  0  0  0
 13 12  2  0  0  0  0
 13 34  1  0  0  0  0
 14 13  1  0  0  0  0
 15 16  1  0  0  0  0
 15 14  2  0  0  0  0
 16 11  2  0  0  0  0
 17  1  1  0  0  0  0
 18  2  1  0  0  0  0
 19  3  1  0  0  0  0
 21  6  1  0  0  0  0
 23  6  1  0  0  0  0
 24  8  1  0  0  0  0
 27  9  1  0  0  0  0
 29  9  1  0  0  0  0
 32 10  1  0  0  0  0
 35 14  1  0  0  0  0
 36 15  1  0  0  0  0
 37 16  1  0  0  0  0
M  END
