1
q = -1.0

 48 47  0  0  1  0  0  0  0  0999 V2000
   -1.7630    0.5390    1.0289 C   0  0  0  0  0  3  0  0  0  0  0  0
   -0.2912    0.0828    0.8297 C   0  0  1  0  0  0  0  0  0  0  0  0
   -0.3068   -0.9323    0.3808 H   0  0  0  0  0  0  0  0  0  0  0  0
    0.4755    1.0537   -0.0754 C   0  0  2  0  0  0  0  0  0  0  0  0
    0.0478    1.0537   -1.0952 H   0  0  0  0  0  0  0  0  0  0  0  0
    1.9718    0.7360   -0.1220 C   0  0  1  0  0  0  0  0  0  0  0  0
    2.4108    0.9616    0.8686 H   0  0  0  0  0  0  0  0  0  0  0  0
    2.3114   -0.7195   -0.4705 C   0  0  1  0  0  0  0  0  0  0  0  0
    1.8395   -1.3750    0.2874 H   0  0  0  0  0  0  0  0  0  0  0  0
    1.8914   -1.1330   -1.8736 C   0  0  0  0  0  0  0  0  0  0  0  0
    0.8564   -0.8021   -2.0841 H   0  0  0  0  0  0  0  0  0  0  0  0
    2.5770   -0.6929   -2.6199 H   0  0  0  0  0  0  0  0  0  0  0  0
   -2.0537    1.1648    2.0265 O   0  0  0  0  0  0  0  0  0  0  0  0
    0.4306    0.0709    2.0711 O   0  0  0  0  0  0  0  0  0  0  0  0
    0.3577    2.3852    0.4557 O   0  0  0  0  0  0  0  0  0  0  0  0
    2.5596    1.6100   -1.1049 O   0  0  0  0  0  0  0  0  0  0  0  0
    3.7416   -0.8812   -0.3853 O   0  0  0  0  0  0  0  0  0  0  0  0
    1.9862   -2.5594   -2.0468 O   0  0  0  0  0  0  0  0  0  0  0  0
    0.1865   -0.9618    2.9210 C   0  0  0  0  0  0  0  0  0  0  0  0
   -0.6312   -1.8351    2.6907 O   0  0  0  0  0  0  0  0  0  0  0  0
    1.0936   -0.8828    4.1178 C   0  0  0  0  0  0  0  0  0  0  0  0
    1.0823    0.1394    4.5421 H   0  0  0  0  0  0  0  0  0  0  0  0
    2.1285   -1.0925    3.7775 H   0  0  0  0  0  0  0  0  0  0  0  0
    0.7823   -1.6246    4.8728 H   0  0  0  0  0  0  0  0  0  0  0  0
   -0.4024    3.2699   -0.2588 C   0  0  0  0  0  0  0  0  0  0  0  0
   -0.8825    3.0230   -1.3474 O   0  0  0  0  0  0  0  0  0  0  0  0
   -0.5912    4.5414    0.5232 C   0  0  0  0  0  0  0  0  0  0  0  0
    0.3361    4.8292    1.0529 H   0  0  0  0  0  0  0  0  0  0  0  0
   -1.3673    4.3486    1.2925 H   0  0  0  0  0  0  0  0  0  0  0  0
   -0.9390    5.3463   -0.1469 H   0  0  0  0  0  0  0  0  0  0  0  0
    3.7374    2.2179   -0.7746 C   0  0  0  0  0  0  0  0  0  0  0  0
    4.3127    2.0585    0.2841 O   0  0  0  0  0  0  0  0  0  0  0  0
    4.2093    3.0849   -1.9143 C   0  0  0  0  0  0  0  0  0  0  0  0
    3.3793    3.7068   -2.3008 H   0  0  0  0  0  0  0  0  0  0  0  0
    4.5482    2.4382   -2.7491 H   0  0  0  0  0  0  0  0  0  0  0  0
    5.0495    3.7162   -1.5778 H   0  0  0  0  0  0  0  0  0  0  0  0
    4.2477   -1.1078    0.8628 C   0  0  0  0  0  0  0  0  0  0  0  0
    3.5497   -1.3330    1.8339 O   0  0  0  0  0  0  0  0  0  0  0  0
    5.7459   -0.9867    0.8559 C   0  0  0  0  0  0  0  0  0  0  0  0
    5.9818    0.0980    0.8715 H   0  0  0  0  0  0  0  0  0  0  0  0
    6.1801   -1.4133   -0.0675 H   0  0  0  0  0  0  0  0  0  0  0  0
    6.1686   -1.4669    1.7553 H   0  0  0  0  0  0  0  0  0  0  0  0
    0.9334   -3.2847   -1.5954 C   0  0  0  0  0  0  0  0  0  0  0  0
   -0.0553   -2.7862   -1.0807 O   0  0  0  0  0  0  0  0  0  0  0  0
    1.1644   -4.7615   -1.7824 C   0  0  0  0  0  0  0  0  0  0  0  0
    1.8023   -4.9634   -2.6620 H   0  0  0  0  0  0  0  0  0  0  0  0
    0.1930   -5.2800   -1.8679 H   0  0  0  0  0  0  0  0  0  0  0  0
    1.6856   -5.1536   -0.8845 H   0  0  0  0  0  0  0  0  0  0  0  0
  1 13  2  0  0  0  0
  2  3  1  6  0  0  0
  2  1  1  0  0  0  0
  2 14  1  0  0  0  0
  4  5  1  6  0  0  0
  4 15  1  0  0  0  0
  4  2  1  0  0  0  0
  6  4  1  0  0  0  0
  6  7  1  1  0  0  0
  8 17  1  0  0  0  0
  8  6  1  0  0  0  0
  8  9  1  1  0  0  0
 10  8  1  0  0  0  0
 11 10  1  0  0  0  0
 12 10  1  0  0  0  0
 14 19  1  0  0  0  0
 16 31  1  0  0  0  0
 16  6  1  0  0  0  0
 17 37  1  0  0  0  0
 18 10  1  0  0  0  0
 18 43  1  0  0  0  0
 19 21  1  0  0  0  0
 20 19  2  0  0  0  0
 21 22  1  0  0  0  0
 21 24  1  0  0  0  0
 23 21  1  0  0  0  0
 25 15  1  0  0  0  0
 25 27  1  0  0  0  0
 26 25  2  0  0  0  0
 27 28  1  0  0  0  0
 27 29  1  0  0  0  0
 30 27  1  0  0  0  0
 31 32  2  0  0  0  0
 33 36  1  0  0  0  0
 33 31  1  0  0  0  0
 34 33  1  0  0  0  0
 35 33  1  0  0  0  0
 37 38  2  0  0  0  0
 39 37  1  0  0  0  0
 39 40  1  0  0  0  0
 39 42  1  0  0  0  0
 41 39  1  0  0  0  0
 43 44  2  0  0  0  0
 45 43  1  0  0  0  0
 45 48  1  0  0  0  0
 46 45  1  0  0  0  0
 47 45  1  0  0  0  0
M  END
