2
q = -1.0

 20 20  0  0  0  0  0  0  0  0999 V2000
   -0.1855    1.5025    0.3872 N   0  0  0  0  0  0  0  0  0  0  0  0
   -1.3163    2.0996    0.2993 C   0  0  0  0  0  3  0  0  0  0  0  0
   -1.4182    3.2087    0.3436 H   0  0  0  0  0  0  0  0  0  0  0  0
    1.1598    1.9335    0.4055 C   0  0  0  0  0  0  0  0  0  0  0  0
    1.6535    2.7674   -0.6350 C   0  0  0  0  0  0  0  0  0  0  0  0
    3.0263    3.0786   -0.6404 C   0  0  0  0  0  0  0  0  0  0  0  0
    3.4214    3.7081   -1.4530 H   0  0  0  0  0  0  0  0  0  0  0  0
    3.8857    2.6045    0.3580 C   0  0  0  0  0  0  0  0  0  0  0  0
    4.9558    2.8590    0.3326 H   0  0  0  0  0  0  0  0  0  0  0  0
    3.3763    1.8003    1.3858 C   0  0  0  0  0  0  0  0  0  0  0  0
    4.0442    1.4282    2.1782 H   0  0  0  0  0  0  0  0  0  0  0  0
    2.0174    1.4419    1.4260 C   0  0  0  0  0  0  0  0  0  0  0  0
    0.7603    3.3058   -1.7251 C   0  0  0  0  0  0  0  0  0  0  0  0
    0.1576    4.1711   -1.3782 H   0  0  0  0  0  0  0  0  0  0  0  0
    0.0459    2.5431   -2.0895 H   0  0  0  0  0  0  0  0  0  0  0  0
    1.3623    3.6521   -2.5866 H   0  0  0  0  0  0  0  0  0  0  0  0
    1.4779    0.5841    2.5356 C   0  0  0  0  0  0  0  0  0  0  0  0
    0.7685    1.1514    3.1739 H   0  0  0  0  0  0  0  0  0  0  0  0
    2.2941    0.2156    3.1850 H   0  0  0  0  0  0  0  0  0  0  0  0
    0.9368   -0.2878    2.1147 H   0  0  0  0  0  0  0  0  0  0  0  0
  1  4  1  0  0  0  0
  2  3  1  0  0  0  0
  2  1  2  0  0  0  0
  4 12  1  0  0  0  0
  5  4  2  0  0  0  0
  6  5  1  0  0  0  0
  6  8  2  0  0  0  0
  7  6  1  0  0  0  0
  8 10  1  0  0  0  0
  9  8  1  0  0  0  0
 10 12  2  0  0  0  0
 10 11  1  0  0  0  0
 12 17  1  0  0  0  0
 13 14  1  0  0  0  0
 13  5  1  0  0  0  0
 15 13  1  0  0  0  0
 16 13  1  0  0  0  0
 17 18  1  0  0  0  0
 17 19  1  0  0  0  0
 20 17  1  0  0  0  0
M  END
