4
q = 0.0, confidence = 0.978

 68 73  0  0  0  0  0  0  0  0999 V2000
   -2.2840   -0.0415   -0.1299 P   0  0  0  0  0  0  0  0  0  0  0  0
    2.3157   -0.0701   -0.1520 P   0  0  0  0  0  0  0  0  0  0  0  0
   -1.9602    2.6225   -0.5553 C   0  0  0  0  0  0  0  0  0  0  0  0
   -0.5978    2.1649   -0.6171 C   0  0  0  0  0  3  0  0  0  0  0  0
    0.6786    2.1575   -0.6328 C   0  0  0  0  0  0  0  0  0  0  0  0
    2.0511    2.5880   -0.6036 C   0  0  0  0  0  0  0  0  0  0  0  0
    4.4016    1.9179   -0.3794 C   0  0  0  0  0  0  0  0  0  0  0  0
    4.7848    3.2589   -0.5475 C   0  0  0  0  0  3  0  0  0  0  0  0
    3.8104    4.2583   -0.7305 C   0  0  0  0  0  0  0  0  0  0  0  0
    2.4473    3.9368   -0.7567 C   0  0  0  0  0  0  0  0  0  0  0  0
    3.0397    1.5908   -0.4040 C   0  0  0  0  0  0  0  0  0  0  0  0
   -2.3220    3.9839   -0.6806 C   0  0  0  0  0  0  0  0  0  0  0  0
   -3.6730    4.3443   -0.6106 C   0  0  0  0  0  0  0  0  0  0  0  0
   -4.6683    3.3691   -0.4122 C   0  0  0  0  0  0  0  0  0  0  0  0
   -4.3180    2.0160   -0.2759 C   0  0  0  0  0  0  0  0  0  0  0  0
   -2.9678    1.6471   -0.3480 C   0  0  0  0  0  0  0  0  0  0  0  0
   -3.3160   -1.1504   -1.1477 C   0  0  0  0  0  0  0  0  0  0  0  0
   -3.8369   -0.6915   -2.3761 C   0  0  0  0  0  0  0  0  0  0  0  0
   -4.5531   -1.5700   -3.2012 C   0  0  0  0  0  0  0  0  0  0  0  0
   -4.7451   -2.9057   -2.8121 C   0  0  0  0  0  0  0  0  0  0  0  0
   -4.2177   -3.3660   -1.5949 C   0  0  0  0  0  0  0  0  0  0  0  0
   -3.5010   -2.4950   -0.7621 C   0  0  0  0  0  0  0  0  0  0  0  0
   -2.5775   -0.5096    1.6169 C   0  0  0  0  0  0  0  0  0  0  0  0
   -3.8846   -0.7575    2.0885 C   0  0  0  0  0  0  0  0  0  0  0  0
   -4.0883   -1.0664    3.4403 C   0  0  0  0  0  0  0  0  0  0  0  0
   -2.9968   -1.1296    4.3239 C   0  0  0  0  0  0  0  0  0  0  0  0
   -1.6965   -0.8873    3.8550 C   0  0  0  0  0  0  0  0  0  0  0  0
   -1.4837   -0.5772    2.5037 C   0  0  0  0  0  0  0  0  0  0  0  0
    3.3634   -1.2552   -1.0563 C   0  0  0  0  0  0  0  0  0  0  0  0
    3.0538   -1.5331   -2.4041 C   0  0  0  0  0  0  0  0  0  0  0  0
    3.8830   -2.3840   -3.1475 C   0  0  0  0  0  0  0  0  0  0  0  0
    5.0161   -2.9604   -2.5501 C   0  0  0  0  0  0  0  0  0  0  0  0
    5.3232   -2.6866   -1.2074 C   0  0  0  0  0  0  0  0  0  0  0  0
    4.5011   -1.8342   -0.4555 C   0  0  0  0  0  0  0  0  0  0  0  0
    2.4833   -0.4483    1.6314 C   0  0  0  0  0  0  0  0  0  0  0  0
    2.7604    0.5658    2.5699 C   0  0  0  0  0  0  0  0  0  0  0  0
    2.7610    0.2657    3.9413 C   0  0  0  0  0  0  0  0  0  0  0  0
    2.4892   -1.0395    4.3798 C   0  0  0  0  0  0  0  0  0  0  0  0
    2.2150   -2.0526    3.4440 C   0  0  0  0  0  0  0  0  0  0  0  0
    2.2047   -1.7609    2.0740 C   0  0  0  0  0  0  0  0  0  0  0  0
    4.1217    5.3051   -0.8628 H   0  0  0  0  0  0  0  0  0  0  0  0
    5.1595    1.1322   -0.2396 H   0  0  0  0  0  0  0  0  0  0  0  0
    4.7367   -1.6294    0.5999 H   0  0  0  0  0  0  0  0  0  0  0  0
   -1.5445    4.7447   -0.8399 H   0  0  0  0  0  0  0  0  0  0  0  0
    1.6884    4.7175   -0.9082 H   0  0  0  0  0  0  0  0  0  0  0  0
    3.6396   -2.6037   -4.1975 H   0  0  0  0  0  0  0  0  0  0  0  0
   -5.7261    3.6668   -0.3646 H   0  0  0  0  0  0  0  0  0  0  0  0
   -5.0974    1.2543   -0.1254 H   0  0  0  0  0  0  0  0  0  0  0  0
   -5.1069   -1.2633    3.8066 H   0  0  0  0  0  0  0  0  0  0  0  0
   -3.9582    5.4015   -0.7162 H   0  0  0  0  0  0  0  0  0  0  0  0
    2.1598   -1.0838   -2.8652 H   0  0  0  0  0  0  0  0  0  0  0  0
   -0.4656   -0.3955    2.1221 H   0  0  0  0  0  0  0  0  0  0  0  0
   -4.7424   -0.7262    1.3998 H   0  0  0  0  0  0  0  0  0  0  0  0
   -3.6859    0.3536   -2.6866 H   0  0  0  0  0  0  0  0  0  0  0  0
    2.9750    1.5903    2.2314 H   0  0  0  0  0  0  0  0  0  0  0  0
    5.8512    3.5278   -0.5396 H   0  0  0  0  0  0  0  0  0  0  0  0
   -3.0914   -2.8605    0.1917 H   0  0  0  0  0  0  0  0  0  0  0  0
    5.6619   -3.6331   -3.1340 H   0  0  0  0  0  0  0  0  0  0  0  0
   -3.1640   -1.3749    5.3834 H   0  0  0  0  0  0  0  0  0  0  0  0
    1.9794   -2.5562    1.3466 H   0  0  0  0  0  0  0  0  0  0  0  0
   -4.9644   -1.2078   -4.1552 H   0  0  0  0  0  0  0  0  0  0  0  0
   -0.8362   -0.9430    4.5387 H   0  0  0  0  0  0  0  0  0  0  0  0
   -4.3656   -4.4123   -1.2889 H   0  0  0  0  0  0  0  0  0  0  0  0
    2.4955   -1.2713    5.4554 H   0  0  0  0  0  0  0  0  0  0  0  0
    6.2079   -3.1430   -0.7390 H   0  0  0  0  0  0  0  0  0  0  0  0
   -5.3084   -3.5920   -3.4617 H   0  0  0  0  0  0  0  0  0  0  0  0
    2.0049   -3.0777    3.7838 H   0  0  0  0  0  0  0  0  0  0  0  0
    2.9805    1.0593    4.6709 H   0  0  0  0  0  0  0  0  0  0  0  0
  1 23  1  0  0  0  0
  2 35  1  0  0  0  0
  3 16  1  0  0  0  0
  4  3  1  0  0  0  0
  5  4  2  0  0  0  0
  5  6  2  0  0  0  0
  6 11  1  0  0  0  0
  7 42  1  0  0  0  0
  8 56  1  0  0  0  0
  8  7  1  0  0  0  0
  9  8  1  0  0  0  0
 10  9  2  0  0  0  0
 10  6  1  0  0  0  0
 11  7  2  0  0  0  0
 11  2  1  0  0  0  0
 12 13  1  0  0  0  0
 12  3  2  0  0  0  0
 13 14  2  0  0  0  0
 14 47  1  0  0  0  0
 14 15  1  0  0  0  0
 15 48  1  0  0  0  0
 16 15  2  0  0  0  0
 16  1  1  0  0  0  0
 17 22  1  0  0  0  0
 17  1  1  0  0  0  0
 18 17  2  0  0  0  0
 19 20  2  0  0  0  0
 19 18  1  0  0  0  0
 20 21  1  0  0  0  0
 21 63  1  0  0  0  0
 21 22  2  0  0  0  0
 22 57  1  0  0  0  0
 23 24  2  0  0  0  0
 23 28  1  0  0  0  0
 24 25  1  0  0  0  0
 25 49  1  0  0  0  0
 25 26  2  0  0  0  0
 26 59  1  0  0  0  0
 27 26  1  0  0  0  0
 27 62  1  0  0  0  0
 28 27  2  0  0  0  0
 29 34  1  0  0  0  0
 29  2  1  0  0  0  0
 30 29  2  0  0  0  0
 31 32  2  0  0  0  0
 31 30  1  0  0  0  0
 32 33  1  0  0  0  0
 33 65  1  0  0  0  0
 33 34  2  0  0  0  0
 34 43  1  0  0  0  0
 35 40  2  0  0  0  0
 35 36  1  0  0  0  0
 36 37  2  0  0  0  0
 37 38  1  0  0  0  0
 37 68  1  0  0  0  0
 38 64  1  0  0  0  0
 39 67  1  0  0  0  0
 39 38  2  0  0  0  0
 40 39  1  0  0  0  0
 41  9  1  0  0  0  0
 44 12  1  0  0  0  0
 45 10  1  0  0  0  0
 46 31  1  0  0  0  0
 50 13  1  0  0  0  0
 51 30  1  0  0  0  0
 52 28  1  0  0  0  0
 53 24  1  0  0  0  0
 54 18  1  0  0  0  0
 55 36  1  0  0  0  0
 58 32  1  0  0  0  0
 60 40  1  0  0  0  0
 61 19  1  0  0  0  0
 66 20  1  0  0  0  0
M  END
