4
q = 0.0, confidence = 0.986

 29 30  0  0  0  0  0  0  0  0999 V2000
    1.7218   -1.9179    0.0670 N   0  0  0  0  0  0  0  0  0  0  0  0
    1.2426   -2.8371   -0.8144 C   0  0  0  0  0  0  0  0  0  0  0  0
    1.9050   -3.3876   -1.5102 H   0  0  0  0  0  0  0  0  0  0  0  0
   -0.1742   -3.0122   -0.8254 C   0  0  0  0  0  3  0  0  0  0  0  0
   -0.6389   -3.6516   -1.5904 H   0  0  0  0  0  0  0  0  0  0  0  0
   -0.9192   -2.2731    0.1490 C   0  0  0  0  0  3  0  0  0  0  0  0
   -0.3990   -2.0978    1.1042 H   0  0  0  0  0  0  0  0  0  0  0  0
   -2.3861   -2.2354    0.2237 C   0  0  0  0  0  0  0  0  0  0  0  0
   -3.2304   -2.5592   -0.8674 C   0  0  0  0  0  0  0  0  0  0  0  0
   -2.7931   -2.8743   -1.8260 H   0  0  0  0  0  0  0  0  0  0  0  0
   -4.6228   -2.4510   -0.7569 C   0  0  0  0  0  0  0  0  0  0  0  0
   -5.2563   -2.7009   -1.6219 H   0  0  0  0  0  0  0  0  0  0  0  0
   -5.2111   -2.0183    0.4441 C   0  0  0  0  0  0  0  0  0  0  0  0
   -6.3048   -1.9266    0.5250 H   0  0  0  0  0  0  0  0  0  0  0  0
   -4.3889   -1.7112    1.5410 C   0  0  0  0  0  0  0  0  0  0  0  0
   -4.8355   -1.3776    2.4902 H   0  0  0  0  0  0  0  0  0  0  0  0
   -2.9975   -1.8240    1.4342 C   0  0  0  0  0  0  0  0  0  0  0  0
   -2.3590   -1.5776    2.2956 H   0  0  0  0  0  0  0  0  0  0  0  0
    3.0987   -1.7136    0.1816 C   0  0  0  0  0  0  0  0  0  0  0  0
    3.9984   -2.8097    0.2317 C   0  0  0  0  0  0  0  0  0  0  0  0
    3.6059   -3.8350    0.1535 H   0  0  0  0  0  0  0  0  0  0  0  0
    5.3699   -2.5963    0.4204 C   0  0  0  0  0  0  0  0  0  0  0  0
    6.0485   -3.4626    0.4607 H   0  0  0  0  0  0  0  0  0  0  0  0
    5.8809   -1.2959    0.5655 C   0  0  0  0  0  0  0  0  0  0  0  0
    6.9589   -1.1342    0.7136 H   0  0  0  0  0  0  0  0  0  0  0  0
    4.9950   -0.2064    0.5192 C   0  0  0  0  0  0  0  0  0  0  0  0
    5.3742    0.8222    0.6222 H   0  0  0  0  0  0  0  0  0  0  0  0
    3.6230   -0.4074    0.3302 C   0  0  0  0  0  0  0  0  0  0  0  0
    2.9404    0.4495    0.2728 H   0  0  0  0  0  0  0  0  0  0  0  0
  1 19  1  0  0  0  0
  2  1  2  0  0  0  0
  3  2  1  0  0  0  0
  4  2  1  0  0  0  0
  4  6  1  0  0  0  0
  5  4  1  0  0  0  0
  6  8  1  0  0  0  0
  6  7  1  0  0  0  0
  8 17  1  0  0  0  0
  9 11  1  0  0  0  0
  9  8  2  0  0  0  0
 10  9  1  0  0  0  0
 11 13  2  0  0  0  0
 12 11  1  0  0  0  0
 13 14  1  0  0  0  0
 13 15  1  0  0  0  0
 15 16  1  0  0  0  0
 17 15  2  0  0  0  0
 17 18  1  0  0  0  0
 19 20  2  0  0  0  0
 19 28  1  0  0  0  0
 20 22  1  0  0  0  0
 21 20  1  0  0  0  0
 22 23  1  0  0  0  0
 22 24  2  0  0  0  0
 24 25  1  0  0  0  0
 26 24  1  0  0  0  0
 26 27  1  0  0  0  0
 28 26  2  0  0  0  0
 29 28  1  0  0  0  0
M  END
