10
q = -1.0, confidence = 0.0

 26 28  0  0  0  0  0  0  0  0999 V2000
    1.9867    1.2230   -1.3862 F   0  0  0  0  0  0  0  0  0  0  0  0
    1.8457   -1.0838   -1.3670 F   0  0  0  0  0  0  0  0  0  0  0  0
    1.9857    0.0938    0.7729 N   0  0  0  0  0  0  0  0  0  0  0  0
    3.9620   -0.0485   -0.7816 N   0  0  0  0  0  0  0  0  0  0  0  0
    2.4025    0.0438   -0.7310 B   0  0  0  0  0  0  0  0  0  0  0  0
    2.1449    0.3317    3.0473 C   0  0  0  0  0  0  0  0  0  0  0  0
    2.5805    0.4300    4.0493 H   0  0  0  0  0  0  0  0  0  0  0  0
    0.7998    0.2884    2.6957 C   0  0  0  0  0  0  0  0  0  0  0  0
   -0.0685    0.3486    3.3620 H   0  0  0  0  0  0  0  0  0  0  0  0
    0.7132    0.1369    1.2621 C   0  0  0  0  0  3  0  0  0  0  0  0
    4.7298   -0.1700   -1.8982 C   0  0  0  0  0  0  0  0  0  0  0  0
    6.0978   -0.1713   -1.5176 C   0  0  0  0  0  0  0  0  0  0  0  0
    6.9442   -0.2583   -2.2094 H   0  0  0  0  0  0  0  0  0  0  0  0
    6.1635   -0.0409   -0.1215 C   0  0  0  0  0  0  0  0  0  0  0  0
    4.2723    0.1742    1.6163 C   0  0  0  0  0  3  0  0  0  0  0  0
    4.9538    0.2536    2.4756 H   0  0  0  0  0  0  0  0  0  0  0  0
    4.8065    0.0368    0.3269 C   0  0  0  0  0  0  0  0  0  0  0  0
    2.8956    0.2068    1.8374 C   0  0  0  0  0  0  0  0  0  0  0  0
    4.1436   -0.2684   -3.2655 C   0  0  0  0  0  0  0  0  0  0  0  0
    4.9384   -0.3404   -4.0299 H   0  0  0  0  0  0  0  0  0  0  0  0
    3.5095    0.6159   -3.4814 H   0  0  0  0  0  0  0  0  0  0  0  0
    3.4775   -1.1512   -3.3449 H   0  0  0  0  0  0  0  0  0  0  0  0
    7.3829   -0.0009    0.7452 C   0  0  0  0  0  0  0  0  0  0  0  0
    7.3992    0.8994    1.3945 H   0  0  0  0  0  0  0  0  0  0  0  0
    8.3051    0.0100    0.1336 H   0  0  0  0  0  0  0  0  0  0  0  0
    7.4391   -0.8832    1.4179 H   0  0  0  0  0  0  0  0  0  0  0  0
  1  5  1  0  0  0  0
  2  5  1  0  0  0  0
  3 10  1  0  0  0  0
  3 18  1  0  0  0  0
  4  5  1  0  0  0  0
  4 17  1  0  0  0  0
  5  3  1  0  0  0  0
  6  7  1  0  0  0  0
  8  6  1  0  0  0  0
  8  9  1  0  0  0  0
 10  8  2  0  0  0  0
 11 12  2  0  0  0  0
 11  4  1  0  0  0  0
 12 14  1  0  0  0  0
 13 12  1  0  0  0  0
 14 17  2  0  0  0  0
 14 23  1  0  0  0  0
 15 18  1  0  0  0  0
 15 16  1  0  0  0  0
 17 15  1  0  0  0  0
 18  6  2  0  0  0  0
 19 11  1  0  0  0  0
 20 19  1  0  0  0  0
 21 19  1  0  0  0  0
 22 19  1  0  0  0  0
 23 24  1  0  0  0  0
 23 26  1  0  0  0  0
 25 23  1  0  0  0  0
M  END
