4
q = -1.0

 38 39  0  0  1  0  0  0  0  0999 V2000
   -1.5343   -1.5884   -0.6331 C   0  0  0  0  0  0  0  0  0  0  0  0
   -0.5172   -2.1796    0.1621 C   0  0  0  0  0  0  0  0  0  0  0  0
   -0.6216   -1.6361    1.4983 C   0  0  0  0  0  3  0  0  0  0  0  0
   -1.7502   -0.7371    1.5034 C   0  0  0  0  0  3  0  0  0  0  0  0
   -2.3238   -0.6803    0.1802 C   0  0  2  0  0  3  0  0  0  0  0  0
   -3.5510    0.0759   -0.2582 C   0  0  2  0  0  0  0  0  0  0  0  0
   -3.4786    1.5688    0.1173 C   0  0  0  0  0  0  0  0  0  0  0  0
   -4.7117    2.3626   -0.3320 C   0  0  2  0  0  0  0  0  0  0  0  0
   -4.6039    3.8354    0.0681 C   0  0  0  0  0  0  0  0  0  0  0  0
   -5.9895    1.7048    0.2068 C   0  0  0  0  0  0  0  0  0  0  0  0
   -6.0764    0.2263   -0.1819 C   0  0  0  0  0  0  0  0  0  0  0  0
   -4.8527   -0.5762    0.2931 C   0  0  1  0  0  0  0  0  0  0  0  0
   -4.9515   -2.0987    0.0083 C   0  0  0  0  0  0  0  0  0  0  0  0
   -5.0719   -2.4414   -1.4831 C   0  0  0  0  0  0  0  0  0  0  0  0
   -6.0796   -2.7601    0.8114 C   0  0  0  0  0  0  0  0  0  0  0  0
   -1.6826   -1.7423   -1.7091 H   0  0  0  0  0  0  0  0  0  0  0  0
    0.2426   -2.8935   -0.1792 H   0  0  0  0  0  0  0  0  0  0  0  0
   -0.0022   -1.9163    2.3583 H   0  0  0  0  0  0  0  0  0  0  0  0
   -2.1135   -0.1839    2.3787 H   0  0  0  0  0  0  0  0  0  0  0  0
   -3.5803    0.0229   -1.3685 H   0  0  0  0  0  0  0  0  0  0  0  0
   -3.3712    1.6671    1.2221 H   0  0  0  0  0  0  0  0  0  0  0  0
   -2.5596    1.9952   -0.3344 H   0  0  0  0  0  0  0  0  0  0  0  0
   -4.7518    2.3071   -1.4454 H   0  0  0  0  0  0  0  0  0  0  0  0
   -5.4766    4.4193   -0.2901 H   0  0  0  0  0  0  0  0  0  0  0  0
   -3.6866    4.2998   -0.3473 H   0  0  0  0  0  0  0  0  0  0  0  0
   -4.5599    3.9415    1.1731 H   0  0  0  0  0  0  0  0  0  0  0  0
   -6.8853    2.2523   -0.1575 H   0  0  0  0  0  0  0  0  0  0  0  0
   -5.9982    1.7970    1.3174 H   0  0  0  0  0  0  0  0  0  0  0  0
   -7.0051   -0.2200    0.2301 H   0  0  0  0  0  0  0  0  0  0  0  0
   -6.1574    0.1482   -1.2887 H   0  0  0  0  0  0  0  0  0  0  0  0
   -4.8019   -0.4707    1.4032 H   0  0  0  0  0  0  0  0  0  0  0  0
   -3.9980   -2.5415    0.3726 H   0  0  0  0  0  0  0  0  0  0  0  0
   -5.0321   -3.5390   -1.6372 H   0  0  0  0  0  0  0  0  0  0  0  0
   -4.2564   -1.9926   -2.0851 H   0  0  0  0  0  0  0  0  0  0  0  0
   -6.0335   -2.0859   -1.9078 H   0  0  0  0  0  0  0  0  0  0  0  0
   -6.0520   -3.8632    0.6990 H   0  0  0  0  0  0  0  0  0  0  0  0
   -7.0813   -2.4234    0.4719 H   0  0  0  0  0  0  0  0  0  0  0  0
   -5.9967   -2.5288    1.8935 H   0  0  0  0  0  0  0  0  0  0  0  0
  1  2  2  0  0  0  0
  2  3  1  0  0  0  0
  3  4  1  0  0  0  0
  3 18  1  0  0  0  0
  4 19  1  0  0  0  0
  5  1  1  1  0  0  0
  5  4  1  0  0  0  0
  6 20  1  6  0  0  0
  6  7  1  0  0  0  0
  6  5  1  0  0  0  0
  6 12  1  0  0  0  0
  7 21  1  0  0  0  0
  8 23  1  6  0  0  0
  8  9  1  0  0  0  0
  8  7  1  0  0  0  0
  8 10  1  0  0  0  0
  9 26  1  0  0  0  0
 10 28  1  0  0  0  0
 11 10  1  0  0  0  0
 11 29  1  0  0  0  0
 11 12  1  0  0  0  0
 12 31  1  1  0  0  0
 13 12  1  0  0  0  0
 13 32  1  0  0  0  0
 13 15  1  0  0  0  0
 14 13  1  0  0  0  0
 15 38  1  0  0  0  0
 16  1  1  0  0  0  0
 17  2  1  0  0  0  0
 22  7  1  0  0  0  0
 24  9  1  0  0  0  0
 25  9  1  0  0  0  0
 27 10  1  0  0  0  0
 30 11  1  0  0  0  0
 33 14  1  0  0  0  0
 34 14  1  0  0  0  0
 35 14  1  0  0  0  0
 36 15  1  0  0  0  0
 37 15  1  0  0  0  0
M  END
