1
q = 0.0, confidence = 0.996

 72 76  0  0  0  0  0  0  0  0999 V2000
    1.0358   -0.7639    0.7623 C   0  0  0  0  0  2  0  0  0  0  0  0
    0.5585   -1.4482    1.8574 N   0  0  0  0  0  0  0  0  0  0  0  0
    1.4818   -1.5067    2.8880 C   0  0  0  0  0  0  0  0  0  0  0  0
    1.2674   -2.0052    3.8373 H   0  0  0  0  0  0  0  0  0  0  0  0
    2.5995   -0.8584    2.4460 C   0  0  0  0  0  0  0  0  0  0  0  0
    3.5695   -0.6787    2.9157 H   0  0  0  0  0  0  0  0  0  0  0  0
    2.3144   -0.4161    1.1542 N   0  0  0  0  0  0  0  0  0  0  0  0
    2.9256    2.7140    2.6086 C   0  0  0  0  0  0  0  0  0  0  0  0
    3.1324    1.7610    3.1327 H   0  0  0  0  0  0  0  0  0  0  0  0
    2.1907    3.2812    3.2160 H   0  0  0  0  0  0  0  0  0  0  0  0
    3.8693    3.2975    2.5784 H   0  0  0  0  0  0  0  0  0  0  0  0
    2.0120    3.8093    0.5229 C   0  0  0  0  0  0  0  0  0  0  0  0
    1.6188    3.6628   -0.5021 H   0  0  0  0  0  0  0  0  0  0  0  0
    2.8753    4.5039    0.4672 H   0  0  0  0  0  0  0  0  0  0  0  0
    1.2284    4.3203    1.1184 H   0  0  0  0  0  0  0  0  0  0  0  0
    2.3875    2.4770    1.1843 C   0  0  0  0  0  0  0  0  0  0  0  0
    1.4597    1.8726    1.2687 H   0  0  0  0  0  0  0  0  0  0  0  0
    3.3181    0.2389    0.3629 C   0  0  0  0  0  0  0  0  0  0  0  0
    3.3769    1.6524    0.3687 C   0  0  0  0  0  0  0  0  0  0  0  0
    4.4070    2.2607   -0.3740 C   0  0  0  0  0  0  0  0  0  0  0  0
    4.4823    3.3574   -0.4000 H   0  0  0  0  0  0  0  0  0  0  0  0
    5.3396    1.4874   -1.0773 C   0  0  0  0  0  0  0  0  0  0  0  0
    6.1405    1.9822   -1.6478 H   0  0  0  0  0  0  0  0  0  0  0  0
    5.2498    0.0894   -1.0716 C   0  0  0  0  0  0  0  0  0  0  0  0
    5.9724   -0.5034   -1.6506 H   0  0  0  0  0  0  0  0  0  0  0  0
    4.2288   -0.5698   -0.3616 C   0  0  0  0  0  0  0  0  0  0  0  0
    4.0785   -2.0869   -0.4119 C   0  0  0  0  0  0  0  0  0  0  0  0
    3.0067   -2.3199   -0.2352 H   0  0  0  0  0  0  0  0  0  0  0  0
    4.9118   -2.7700    0.6891 C   0  0  0  0  0  0  0  0  0  0  0  0
    4.7746   -3.8698    0.6491 H   0  0  0  0  0  0  0  0  0  0  0  0
    4.6203   -2.4332    1.7023 H   0  0  0  0  0  0  0  0  0  0  0  0
    5.9928   -2.5547    0.5554 H   0  0  0  0  0  0  0  0  0  0  0  0
    4.4342   -2.6768   -1.7852 C   0  0  0  0  0  0  0  0  0  0  0  0
    4.1204   -3.7386   -1.8255 H   0  0  0  0  0  0  0  0  0  0  0  0
    5.5257   -2.6447   -1.9853 H   0  0  0  0  0  0  0  0  0  0  0  0
    3.9172   -2.1436   -2.6061 H   0  0  0  0  0  0  0  0  0  0  0  0
   -0.7878   -2.0124    1.9662 C   0  0  0  0  0  0  0  0  0  0  0  0
   -0.7277   -2.8828    2.6469 H   0  0  0  0  0  0  0  0  0  0  0  0
   -1.0446   -2.4039    0.9577 H   0  0  0  0  0  0  0  0  0  0  0  0
   -1.8584    0.0255   -0.1131 P   0  0  0  0  0  0  0  0  0  0  0  0
   -2.1962    0.0958    1.7119 C   0  0  0  0  0  0  0  0  0  0  0  0
   -1.7389   -0.9761    2.5198 C   0  0  0  0  0  0  0  0  0  0  0  0
   -2.1040   -1.0168    3.8780 C   0  0  0  0  0  0  0  0  0  0  0  0
   -1.7509   -1.8549    4.5003 H   0  0  0  0  0  0  0  0  0  0  0  0
   -2.9006   -0.0130    4.4471 C   0  0  0  0  0  0  0  0  0  0  0  0
   -3.1781   -0.0654    5.5107 H   0  0  0  0  0  0  0  0  0  0  0  0
   -3.3332    1.0585    3.6528 C   0  0  0  0  0  0  0  0  0  0  0  0
   -3.9536    1.8573    4.0869 H   0  0  0  0  0  0  0  0  0  0  0  0
   -2.9848    1.1080    2.2948 C   0  0  0  0  0  0  0  0  0  0  0  0
   -3.3374    1.9467    1.6768 H   0  0  0  0  0  0  0  0  0  0  0  0
   -3.3536   -0.9362   -0.6364 C   0  0  0  0  0  0  0  0  0  0  0  0
   -3.1707   -2.1638   -1.3020 C   0  0  0  0  0  0  0  0  0  0  0  0
   -2.1473   -2.5385   -1.4888 H   0  0  0  0  0  0  0  0  0  0  0  0
   -4.2905   -2.9247   -1.6787 C   0  0  0  0  0  0  0  0  0  0  0  0
   -4.1398   -3.8863   -2.1930 H   0  0  0  0  0  0  0  0  0  0  0  0
   -5.5871   -2.4695   -1.3994 C   0  0  0  0  0  0  0  0  0  0  0  0
   -6.4611   -3.0678   -1.7003 H   0  0  0  0  0  0  0  0  0  0  0  0
   -5.7702   -1.2504   -0.7233 C   0  0  0  0  0  0  0  0  0  0  0  0
   -6.7854   -0.8926   -0.4921 H   0  0  0  0  0  0  0  0  0  0  0  0
   -4.6588   -0.4905   -0.3349 C   0  0  0  0  0  0  0  0  0  0  0  0
   -4.8091    0.4564    0.2059 H   0  0  0  0  0  0  0  0  0  0  0  0
   -2.2269    1.7547   -0.6329 C   0  0  0  0  0  0  0  0  0  0  0  0
   -3.1101    2.0576   -1.6888 C   0  0  0  0  0  0  0  0  0  0  0  0
   -3.7019    1.2560   -2.1549 H   0  0  0  0  0  0  0  0  0  0  0  0
   -3.2402    3.3788   -2.1494 C   0  0  0  0  0  0  0  0  0  0  0  0
   -3.9285    3.5986   -2.9797 H   0  0  0  0  0  0  0  0  0  0  0  0
   -2.5009    4.4122   -1.5557 C   0  0  0  0  0  0  0  0  0  0  0  0
   -2.6051    5.4464   -1.9171 H   0  0  0  0  0  0  0  0  0  0  0  0
   -1.6224    4.1183   -0.4975 C   0  0  0  0  0  0  0  0  0  0  0  0
   -1.0338    4.9216   -0.0290 H   0  0  0  0  0  0  0  0  0  0  0  0
   -1.4784    2.8002   -0.0478 C   0  0  0  0  0  0  0  0  0  0  0  0
   -0.7677    2.5700    0.7607 H   0  0  0  0  0  0  0  0  0  0  0  0
  1  7  1  0  0  0  0
  1  2  1  0  0  0  0
  2 37  1  0  0  0  0
  2  3  1  0  0  0  0
  3  4  1  0  0  0  0
  5  3  2  0  0  0  0
  5  6  1  0  0  0  0
  7  5  1  0  0  0  0
  8  9  1  0  0  0  0
  8 10  1  0  0  0  0
 11  8  1  0  0  0  0
 12 15  1  0  0  0  0
 12 16  1  0  0  0  0
 13 12  1  0  0  0  0
 14 12  1  0  0  0  0
 16 17  1  0  0  0  0
 16  8  1  0  0  0  0
 18 19  1  0  0  0  0
 18  7  1  0  0  0  0
 19 16  1  0  0  0  0
 20 19  2  0  0  0  0
 21 20  1  0  0  0  0
 22 24  2  0  0  0  0
 22 20  1  0  0  0  0
 23 22  1  0  0  0  0
 24 26  1  0  0  0  0
 25 24  1  0  0  0  0
 26 18  2  0  0  0  0
 27 26  1  0  0  0  0
 27 28  1  0  0  0  0
 27 29  1  0  0  0  0
 29 31  1  0  0  0  0
 30 29  1  0  0  0  0
 32 29  1  0  0  0  0
 33 27  1  0  0  0  0
 34 33  1  0  0  0  0
 35 33  1  0  0  0  0
 36 33  1  0  0  0  0
 37 42  1  0  0  0  0
 37 38  1  0  0  0  0
 39 37  1  0  0  0  0
 40 41  1  0  0  0  0
 41 49  2  0  0  0  0
 41 42  1  0  0  0  0
 42 43  2  0  0  0  0
 43 45  1  0  0  0  0
 43 44  1  0  0  0  0
 45 46  1  0  0  0  0
 47 48  1  0  0  0  0
 47 45  2  0  0  0  0
 49 47  1  0  0  0  0
 50 49  1  0  0  0  0
 51 60  1  0  0  0  0
 51 40  1  0  0  0  0
 52 51  2  0  0  0  0
 53 52  1  0  0  0  0
 54 56  2  0  0  0  0
 54 52  1  0  0  0  0
 55 54  1  0  0  0  0
 56 58  1  0  0  0  0
 57 56  1  0  0  0  0
 58 59  1  0  0  0  0
 58 60  2  0  0  0  0
 60 61  1  0  0  0  0
 62 40  1  0  0  0  0
 62 71  1  0  0  0  0
 63 62  2  0  0  0  0
 64 63  1  0  0  0  0
 65 63  1  0  0  0  0
 65 67  2  0  0  0  0
 66 65  1  0  0  0  0
 67 69  1  0  0  0  0
 68 67  1  0  0  0  0
 69 71  2  0  0  0  0
 69 70  1  0  0  0  0
 71 72  1  0  0  0  0
M  END
