1
q = -2.0, confidence = 0.756

 48 51  0  0  1  0  0  0  0  0999 V2000
    0.8229   -2.5088    1.9866 C   0  0  2  0  0  3  0  0  0  0  0  0
   -0.5625   -2.4135    2.3473 C   0  0  0  0  0  0  0  0  0  0  0  0
   -1.2824   -3.2388    2.3030 H   0  0  0  0  0  0  0  0  0  0  0  0
   -0.8729   -1.0867    2.7285 C   0  0  0  0  0  0  0  0  0  0  0  0
   -1.8625   -0.7120    3.0088 H   0  0  0  0  0  0  0  0  0  0  0  0
    0.3451   -0.3256    2.6923 C   0  0  0  0  0  0  0  0  0  0  0  0
    0.5769    1.0599    2.9780 C   0  0  0  0  0  0  0  0  0  0  0  0
    1.8974    1.4863    2.9324 C   0  0  0  0  0  0  0  0  0  0  0  0
    2.1295    2.5389    3.1567 H   0  0  0  0  0  0  0  0  0  0  0  0
    2.9630    0.6031    2.5996 C   0  0  0  0  0  0  0  0  0  0  0  0
    3.9904    1.0006    2.6029 H   0  0  0  0  0  0  0  0  0  0  0  0
    2.7738   -0.7303    2.2479 C   0  0  0  0  0  0  0  0  0  0  0  0
    1.4212   -1.2183    2.2774 C   0  0  0  0  0  0  0  0  0  0  0  0
    1.4556   -3.7431    1.3867 C   0  0  0  0  0  0  0  0  0  0  0  0
    1.6868   -4.4971    2.1718 H   0  0  0  0  0  0  0  0  0  0  0  0
    2.4254   -3.4689    0.9365 H   0  0  0  0  0  0  0  0  0  0  0  0
   -0.5734    1.9669    3.3016 C   0  0  0  0  0  0  0  0  0  0  0  0
   -0.2319    3.0011    3.4948 H   0  0  0  0  0  0  0  0  0  0  0  0
   -1.1336    1.6126    4.1929 H   0  0  0  0  0  0  0  0  0  0  0  0
   -1.2921    1.9923    2.4558 H   0  0  0  0  0  0  0  0  0  0  0  0
    3.9473   -1.6024    1.8903 C   0  0  0  0  0  0  0  0  0  0  0  0
    4.8993   -1.0790    2.1021 H   0  0  0  0  0  0  0  0  0  0  0  0
    3.9535   -1.8567    0.8107 H   0  0  0  0  0  0  0  0  0  0  0  0
    3.9455   -2.5539    2.4599 H   0  0  0  0  0  0  0  0  0  0  0  0
   -0.1118   -3.3731   -0.6075 C   0  0  0  0  0  0  0  0  0  0  0  0
   -1.5016   -3.0342   -0.5224 C   0  0  0  0  0  3  0  0  0  0  0  0
   -2.2169   -3.4976    0.1682 H   0  0  0  0  0  0  0  0  0  0  0  0
   -1.8055   -1.9873   -1.4270 C   0  0  0  0  0  0  0  0  0  0  0  0
   -2.7853   -1.5178   -1.5704 H   0  0  0  0  0  0  0  0  0  0  0  0
   -0.6101   -1.6913   -2.1660 C   0  0  0  0  0  0  0  0  0  0  0  0
   -0.3751   -0.7106   -3.1832 C   0  0  0  0  0  0  0  0  0  0  0  0
    0.8990   -0.6892   -3.7332 C   0  0  0  0  0  0  0  0  0  0  0  0
    1.1285    0.0399   -4.5258 H   0  0  0  0  0  0  0  0  0  0  0  0
    1.9186   -1.5895   -3.3142 C   0  0  0  0  0  0  0  0  0  0  0  0
    2.8999   -1.5360   -3.8107 H   0  0  0  0  0  0  0  0  0  0  0  0
    1.7422   -2.5295   -2.3046 C   0  0  0  0  0  0  0  0  0  0  0  0
    0.4481   -2.5735   -1.6831 C   0  0  0  0  0  0  0  0  0  0  0  0
    0.5525   -4.3851    0.3028 C   0  0  0  0  0  0  0  0  0  0  0  0
    1.1419   -5.1224   -0.2782 H   0  0  0  0  0  0  0  0  0  0  0  0
   -0.2532   -4.9684    0.7937 H   0  0  0  0  0  0  0  0  0  0  0  0
   -1.4636    0.2417   -3.5873 C   0  0  0  0  0  0  0  0  0  0  0  0
   -1.1605    0.8556   -4.4565 H   0  0  0  0  0  0  0  0  0  0  0  0
   -1.7105    0.9355   -2.7556 H   0  0  0  0  0  0  0  0  0  0  0  0
   -2.3997   -0.2931   -3.8525 H   0  0  0  0  0  0  0  0  0  0  0  0
    2.8570   -3.4623   -1.9202 C   0  0  0  0  0  0  0  0  0  0  0  0
    3.1798   -3.3108   -0.8697 H   0  0  0  0  0  0  0  0  0  0  0  0
    3.7442   -3.2983   -2.5601 H   0  0  0  0  0  0  0  0  0  0  0  0
    2.5589   -4.5265   -2.0179 H   0  0  0  0  0  0  0  0  0  0  0  0
  1 14  1  6  0  0  0
  1 13  1  0  0  0  0
  1  2  1  0  0  0  0
  2  4  2  0  0  0  0
  3  2  1  0  0  0  0
  4  5  1  0  0  0  0
  6  4  1  0  0  0  0
  6  7  1  0  0  0  0
  7 17  1  0  0  0  0
  8  7  2  0  0  0  0
  8  9  1  0  0  0  0
 10 11  1  0  0  0  0
 10  8  1  0  0  0  0
 12 13  1  0  0  0  0
 12 10  2  0  0  0  0
 13  6  2  0  0  0  0
 14 15  1  0  0  0  0
 16 14  1  0  0  0  0
 17 18  1  0  0  0  0
 17 19  1  0  0  0  0
 20 17  1  0  0  0  0
 21 22  1  0  0  0  0
 21 12  1  0  0  0  0
 21 24  1  0  0  0  0
 23 21  1  0  0  0  0
 25 26  1  0  0  0  0
 25 38  1  0  0  0  0
 26 27  1  0  0  0  0
 28 26  1  0  0  0  0
 29 28  1  0  0  0  0
 30 37  1  0  0  0  0
 30 28  2  0  0  0  0
 31 30  1  0  0  0  0
 32 34  1  0  0  0  0
 32 31  2  0  0  0  0
 33 32  1  0  0  0  0
 34 36  2  0  0  0  0
 35 34  1  0  0  0  0
 36 45  1  0  0  0  0
 36 37  1  0  0  0  0
 37 25  2  0  0  0  0
 38 40  1  0  0  0  0
 38 14  1  0  0  0  0
 39 38  1  0  0  0  0
 41 31  1  0  0  0  0
 41 43  1  0  0  0  0
 42 41  1  0  0  0  0
 44 41  1  0  0  0  0
 45 46  1  0  0  0  0
 47 45  1  0  0  0  0
 48 45  1  0  0  0  0
M  END
