1
q = 0.0, confidence = 0.992

 73 75  0  0  1  0  0  0  0  0999 V2000
    0.5140   -0.0701    0.9245 C   0  0  0  0  0  2  0  0  0  0  0  0
   -0.2871    0.0616    2.0005 N   0  0  2  0  0  0  0  0  0  0  0  0
    0.4745    0.2138    3.2479 C   0  0  0  0  0  0  0  0  0  0  0  0
    0.4003   -0.7151    3.8552 H   0  0  0  0  0  0  0  0  0  0  0  0
    0.0814    1.0504    3.8587 H   0  0  0  0  0  0  0  0  0  0  0  0
    1.9057    0.4678    2.7361 C   0  0  0  0  0  0  0  0  0  0  0  0
    2.2085    1.5353    2.8202 H   0  0  0  0  0  0  0  0  0  0  0  0
    2.6717   -0.1433    3.2541 H   0  0  0  0  0  0  0  0  0  0  0  0
    1.8023    0.0902    1.3158 N   0  0  0  0  0  0  0  0  0  0  0  0
   -1.7447   -0.0553    1.9572 C   0  0  0  0  0  0  0  0  0  0  0  0
   -1.9595   -0.1235    0.8726 H   0  0  0  0  0  0  0  0  0  0  0  0
   -2.2612   -1.3586    2.5977 C   0  0  0  0  0  0  0  0  0  0  0  0
   -1.5059   -2.1560    2.4263 H   0  0  0  0  0  0  0  0  0  0  0  0
   -2.3571   -1.2358    3.6989 H   0  0  0  0  0  0  0  0  0  0  0  0
   -3.6016   -1.7939    1.9823 C   0  0  0  0  0  0  0  0  0  0  0  0
   -4.3031   -0.9326    2.0206 H   0  0  0  0  0  0  0  0  0  0  0  0
   -4.0678   -2.5748    2.6190 H   0  0  0  0  0  0  0  0  0  0  0  0
   -3.4764   -2.3062    0.5332 C   0  0  0  0  0  0  0  0  0  0  0  0
   -2.6043   -1.8307    0.0323 H   0  0  0  0  0  0  0  0  0  0  0  0
   -3.2299   -3.3889    0.5518 H   0  0  0  0  0  0  0  0  0  0  0  0
   -4.7229   -2.0828   -0.3391 C   0  0  0  0  0  0  0  0  0  0  0  0
   -5.5968   -2.5829    0.1347 H   0  0  0  0  0  0  0  0  0  0  0  0
   -4.5674   -2.5952   -1.3131 H   0  0  0  0  0  0  0  0  0  0  0  0
   -5.0713   -0.6075   -0.6007 C   0  0  0  0  0  0  0  0  0  0  0  0
   -6.0538   -0.5538   -1.1188 H   0  0  0  0  0  0  0  0  0  0  0  0
   -5.2359   -0.0949    0.3736 H   0  0  0  0  0  0  0  0  0  0  0  0
   -4.0305    0.1654   -1.4219 C   0  0  0  0  0  0  0  0  0  0  0  0
   -4.0221   -0.2180   -2.4636 H   0  0  0  0  0  0  0  0  0  0  0  0
   -3.0048   -0.0551   -1.0561 H   0  0  0  0  0  0  0  0  0  0  0  0
   -4.2384    1.6883   -1.4276 C   0  0  0  0  0  0  0  0  0  0  0  0
   -3.6061    2.1392   -2.2229 H   0  0  0  0  0  0  0  0  0  0  0  0
   -5.2911    1.9139   -1.7075 H   0  0  0  0  0  0  0  0  0  0  0  0
   -3.9124    2.3641   -0.0839 C   0  0  0  0  0  0  0  0  0  0  0  0
   -4.3549    3.3829   -0.0535 H   0  0  0  0  0  0  0  0  0  0  0  0
   -4.4288    1.8042    0.7262 H   0  0  0  0  0  0  0  0  0  0  0  0
   -2.4063    2.4583    0.2216 C   0  0  0  0  0  0  0  0  0  0  0  0
   -1.8653    1.6123   -0.2584 H   0  0  0  0  0  0  0  0  0  0  0  0
   -1.9884    3.3633   -0.2688 H   0  0  0  0  0  0  0  0  0  0  0  0
   -2.0536    2.4954    1.7175 C   0  0  0  0  0  0  0  0  0  0  0  0
   -2.5598    3.3589    2.2019 H   0  0  0  0  0  0  0  0  0  0  0  0
   -0.9625    2.6863    1.8231 H   0  0  0  0  0  0  0  0  0  0  0  0
   -2.4134    1.2186    2.4962 C   0  0  0  0  0  0  0  0  0  0  0  0
   -3.5100    1.0531    2.4698 H   0  0  0  0  0  0  0  0  0  0  0  0
   -2.1667    1.3469    3.5736 H   0  0  0  0  0  0  0  0  0  0  0  0
    2.9052    0.2497    0.4128 C   0  0  0  0  0  0  0  0  0  0  0  0
    3.7777   -0.8474    0.2072 C   0  0  0  0  0  0  0  0  0  0  0  0
    4.8630   -0.6673   -0.6690 C   0  0  0  0  0  0  0  0  0  0  0  0
    5.5510   -1.5044   -0.8587 H   0  0  0  0  0  0  0  0  0  0  0  0
    5.0706    0.5585   -1.3145 C   0  0  0  0  0  0  0  0  0  0  0  0
    5.9227    0.6789   -2.0006 H   0  0  0  0  0  0  0  0  0  0  0  0
    4.1931    1.6273   -1.0987 C   0  0  0  0  0  0  0  0  0  0  0  0
    4.3596    2.5816   -1.6213 H   0  0  0  0  0  0  0  0  0  0  0  0
    3.0929    1.4992   -0.2301 C   0  0  0  0  0  0  0  0  0  0  0  0
    3.4953   -2.2021    0.8425 C   0  0  0  0  0  0  0  0  0  0  0  0
    2.8154   -2.0255    1.7023 H   0  0  0  0  0  0  0  0  0  0  0  0
    2.1398    2.6714   -0.0273 C   0  0  0  0  0  0  0  0  0  0  0  0
    1.3695    2.3604    0.7074 H   0  0  0  0  0  0  0  0  0  0  0  0
    4.7561   -2.8933    1.3802 C   0  0  0  0  0  0  0  0  0  0  0  0
    4.4850   -3.8239    1.9184 H   0  0  0  0  0  0  0  0  0  0  0  0
    5.3162   -2.2401    2.0796 H   0  0  0  0  0  0  0  0  0  0  0  0
    5.4477   -3.1837    0.5628 H   0  0  0  0  0  0  0  0  0  0  0  0
    2.7376   -3.0995   -0.1544 C   0  0  0  0  0  0  0  0  0  0  0  0
    2.4742   -4.0716    0.3108 H   0  0  0  0  0  0  0  0  0  0  0  0
    3.3605   -3.3036   -1.0496 H   0  0  0  0  0  0  0  0  0  0  0  0
    1.8030   -2.6135   -0.5035 H   0  0  0  0  0  0  0  0  0  0  0  0
    2.8632    3.8981    0.5538 C   0  0  0  0  0  0  0  0  0  0  0  0
    2.1423    4.7174    0.7525 H   0  0  0  0  0  0  0  0  0  0  0  0
    3.6259    4.2909   -0.1497 H   0  0  0  0  0  0  0  0  0  0  0  0
    3.3816    3.6556    1.5040 H   0  0  0  0  0  0  0  0  0  0  0  0
    1.3925    3.0124   -1.3279 C   0  0  0  0  0  0  0  0  0  0  0  0
    0.6625    3.8295   -1.1536 H   0  0  0  0  0  0  0  0  0  0  0  0
    0.8383    2.1294   -1.7068 H   0  0  0  0  0  0  0  0  0  0  0  0
    2.0918    3.3451   -2.1221 H   0  0  0  0  0  0  0  0  0  0  0  0
  1  9  1  0  0  0  0
  2  1  1  1  0  0  0
  2  3  1  0  0  0  0
  3  4  1  0  0  0  0
  3  5  1  0  0  0  0
  6  7  1  0  0  0  0
  6  3  1  0  0  0  0
  6  8  1  0  0  0  0
  9  6  1  0  0  0  0
 10  2  1  0  0  0  0
 10 42  1  0  0  0  0
 10 12  1  0  0  0  0
 11 10  1  0  0  0  0
 12 14  1  0  0  0  0
 13 12  1  0  0  0  0
 15 16  1  0  0  0  0
 15 12  1  0  0  0  0
 15 17  1  0  0  0  0
 18 20  1  0  0  0  0
 18 15  1  0  0  0  0
 19 18  1  0  0  0  0
 21 22  1  0  0  0  0
 21 18  1  0  0  0  0
 23 21  1  0  0  0  0
 24 21  1  0  0  0  0
 24 26  1  0  0  0  0
 25 24  1  0  0  0  0
 27 29  1  0  0  0  0
 27 24  1  0  0  0  0
 28 27  1  0  0  0  0
 30 27  1  0  0  0  0
 30 33  1  0  0  0  0
 31 30  1  0  0  0  0
 32 30  1  0  0  0  0
 33 34  1  0  0  0  0
 33 36  1  0  0  0  0
 33 35  1  0  0  0  0
 36 39  1  0  0  0  0
 37 36  1  0  0  0  0
 38 36  1  0  0  0  0
 39 41  1  0  0  0  0
 39 40  1  0  0  0  0
 39 42  1  0  0  0  0
 42 44  1  0  0  0  0
 43 42  1  0  0  0  0
 45  9  1  0  0  0  0
 46 45  1  0  0  0  0
 46 54  1  0  0  0  0
 47 46  2  0  0  0  0
 48 47  1  0  0  0  0
 49 51  2  0  0  0  0
 49 47  1  0  0  0  0
 50 49  1  0  0  0  0
 51 53  1  0  0  0  0
 52 51  1  0  0  0  0
 53 56  1  0  0  0  0
 53 45  2  0  0  0  0
 54 58  1  0  0  0  0
 54 55  1  0  0  0  0
 56 66  1  0  0  0  0
 56 57  1  0  0  0  0
 58 59  1  0  0  0  0
 58 60  1  0  0  0  0
 61 58  1  0  0  0  0
 62 63  1  0  0  0  0
 62 54  1  0  0  0  0
 64 62  1  0  0  0  0
 65 62  1  0  0  0  0
 66 67  1  0  0  0  0
 66 69  1  0  0  0  0
 68 66  1  0  0  0  0
 70 71  1  0  0  0  0
 70 56  1  0  0  0  0
 72 70  1  0  0  0  0
 73 70  1  0  0  0  0
M  END
