1
q = -1.0, confidence = 0.014

  9  8  0  0  0  0  0  0  0  0999 V2000
    1.3597    1.4513    0.1520 C   0  0  0  0  0  3  0  0  0  0  0  0
    2.5579    1.2402    0.4430 C   0  0  0  0  0  0  0  0  0  0  0  0
    3.8837    1.0244    0.8063 C   0  0  0  0  0  0  0  0  0  0  0  0
    4.2372    1.4230    1.7754 H   0  0  0  0  0  0  0  0  0  0  0  0
    4.8356    0.3414    0.0510 C   0  0  0  0  0  0  0  0  0  0  0  0
    6.1699    0.1673    0.5354 C   0  0  0  0  0  0  0  0  0  0  0  0
    7.2654    0.0262    0.9390 N   0  0  0  0  0  0  0  0  0  0  0  0
    4.5207   -0.1988   -1.2352 C   0  0  0  0  0  0  0  0  0  0  0  0
    4.2636   -0.6334   -2.2965 N   0  0  0  0  0  0  0  0  0  0  0  0
  1  2  3  0  0  0  0
  2  3  1  0  0  0  0
  3  4  1  0  0  0  0
  5  6  1  0  0  0  0
  5  3  2  0  0  0  0
  6  7  3  0  0  0  0
  8  5  1  0  0  0  0
  9  8  3  0  0  0  0
M  END
