9
q = -1.0

 37 38  0  0  1  0  0  0  0  0999 V2000
   -1.8250   -1.9144    0.2870 N   0  0  0  0  0  0  0  0  0  0  0  0
    1.3125   -3.2473   -0.9809 O   0  0  0  0  0  0  0  0  0  0  0  0
   -3.3802   -1.9534   -1.4107 O   0  0  0  0  0  0  0  0  0  0  0  0
   -3.7000   -0.6650    0.4558 O   0  0  0  0  0  0  0  0  0  0  0  0
   -6.0116   -0.5106    2.1007 O   0  0  0  0  0  0  0  0  0  0  0  0
   -6.7122    1.1074    0.6762 O   0  0  0  0  0  0  0  0  0  0  0  0
   -1.4882   -1.5894    1.6651 C   0  0  0  0  0  0  0  0  0  0  0  0
   -0.0136   -1.2503    1.8316 C   0  0  0  0  0  3  0  0  0  0  0  0
    0.9502   -2.0683    1.1269 C   0  0  0  0  0  3  0  0  0  0  0  0
    0.5302   -2.5081   -0.1482 C   0  0  2  0  0  3  0  0  0  0  0  0
   -0.9276   -2.7654   -0.4650 C   0  0  0  0  0  0  0  0  0  0  0  0
    2.6219   -3.5992   -0.5469 C   0  0  0  0  0  0  0  0  0  0  0  0
   -3.0009   -1.5522   -0.3200 C   0  0  0  0  0  0  0  0  0  0  0  0
   -4.9175   -0.1947   -0.0911 C   0  0  1  0  0  0  0  0  0  0  0  0
   -5.9083    0.0677    1.0485 C   0  0  0  0  0  0  0  0  0  0  0  0
   -6.3187    1.5911   -0.6253 C   0  0  0  0  0  0  0  0  0  0  0  0
   -4.8505    1.1571   -0.8374 C   0  0  0  0  0  0  0  0  0  0  0  0
   -3.8893    2.1173   -0.1191 C   0  0  0  0  0  0  0  0  0  0  0  0
   -4.4925    1.0343   -2.3200 C   0  0  0  0  0  0  0  0  0  0  0  0
   -1.7173   -2.4601    2.3281 H   0  0  0  0  0  0  0  0  0  0  0  0
   -2.1331   -0.7569    1.9958 H   0  0  0  0  0  0  0  0  0  0  0  0
    0.2373   -1.0166    2.8797 H   0  0  0  0  0  0  0  0  0  0  0  0
    1.9057   -2.3658    1.5796 H   0  0  0  0  0  0  0  0  0  0  0  0
   -1.1362   -2.6234   -1.5423 H   0  0  0  0  0  0  0  0  0  0  0  0
   -1.1099   -3.8474   -0.2453 H   0  0  0  0  0  0  0  0  0  0  0  0
    3.1099   -4.0961   -1.4047 H   0  0  0  0  0  0  0  0  0  0  0  0
    2.5773   -4.3026    0.3128 H   0  0  0  0  0  0  0  0  0  0  0  0
    3.2142   -2.7046   -0.2625 H   0  0  0  0  0  0  0  0  0  0  0  0
   -5.3378   -0.9736   -0.7676 H   0  0  0  0  0  0  0  0  0  0  0  0
   -6.4551    2.6904   -0.6372 H   0  0  0  0  0  0  0  0  0  0  0  0
   -6.9865    1.1398   -1.3924 H   0  0  0  0  0  0  0  0  0  0  0  0
   -2.8546    1.7293   -0.1546 H   0  0  0  0  0  0  0  0  0  0  0  0
   -4.1543    2.2548    0.9486 H   0  0  0  0  0  0  0  0  0  0  0  0
   -3.9073    3.1106   -0.6113 H   0  0  0  0  0  0  0  0  0  0  0  0
   -3.4493    0.6862   -2.4430 H   0  0  0  0  0  0  0  0  0  0  0  0
   -4.5907    2.0179   -2.8255 H   0  0  0  0  0  0  0  0  0  0  0  0
   -5.1520    0.3090   -2.8374 H   0  0  0  0  0  0  0  0  0  0  0  0
  1  7  1  0  0  0  0
  2 12  1  0  0  0  0
  3 13  2  0  0  0  0
  6 15  1  0  0  0  0
  7  8  1  0  0  0  0
  7 21  1  0  0  0  0
  7 20  1  0  0  0  0
  8 22  1  0  0  0  0
  9 23  1  0  0  0  0
  9  8  1  0  0  0  0
 10  2  1  1  0  0  0
 10  9  1  0  0  0  0
 11 25  1  0  0  0  0
 11 10  1  0  0  0  0
 11  1  1  0  0  0  0
 12 28  1  0  0  0  0
 12 27  1  0  0  0  0
 13  1  1  0  0  0  0
 13  4  1  0  0  0  0
 14 29  1  6  0  0  0
 14  4  1  0  0  0  0
 14 15  1  0  0  0  0
 15  5  2  0  0  0  0
 16  6  1  0  0  0  0
 17 16  1  0  0  0  0
 17 18  1  0  0  0  0
 17 14  1  0  0  0  0
 18 33  1  0  0  0  0
 19 17  1  0  0  0  0
 24 11  1  0  0  0  0
 26 12  1  0  0  0  0
 30 16  1  0  0  0  0
 31 16  1  0  0  0  0
 32 18  1  0  0  0  0
 34 18  1  0  0  0  0
 35 19  1  0  0  0  0
 36 19  1  0  0  0  0
 37 19  1  0  0  0  0
M  END
