8
q = -1.0

 33 34  0  0  1  0  0  0  0  0999 V2000
    2.6920    0.5227    0.3197 N   0  0  0  0  0  0  0  0  0  0  0  0
    3.7963    1.9935    1.7079 O   0  0  0  0  0  0  0  0  0  0  0  0
    3.7679    2.2964   -0.5609 O   0  0  0  0  0  0  0  0  0  0  0  0
    0.7166   -1.7369    2.3407 O   0  0  0  0  0  0  0  0  0  0  0  0
    2.7883   -3.7072   -0.8870 O   0  0  0  0  0  0  0  0  0  0  0  0
    2.6319   -0.2043   -0.9347 C   0  0  2  0  0  0  0  0  0  0  0  0
    1.1990   -0.7121   -1.1590 C   0  0  0  0  0  3  0  0  0  0  0  0
    0.6477   -1.5313   -0.0958 C   0  0  0  0  0  3  0  0  0  0  0  0
    1.0713   -1.1022    1.1881 C   0  0  2  0  0  3  0  0  0  0  0  0
    2.4679   -0.4898    1.3351 C   0  0  1  0  0  0  0  0  0  0  0  0
    3.5032   -1.5789    0.9249 C   0  0  0  0  0  0  0  0  0  0  0  0
    3.6241   -1.4238   -0.6215 C   0  0  2  0  0  0  0  0  0  0  0  0
    3.4576    1.6336    0.5919 C   0  0  0  0  0  0  0  0  0  0  0  0
    4.4867    3.5146   -0.3671 C   0  0  0  0  0  0  0  0  0  0  0  0
   -0.0608   -2.9274    2.2341 C   0  0  0  0  0  0  0  0  0  0  0  0
    5.0465   -1.0502   -1.0726 C   0  0  0  0  0  0  0  0  0  0  0  0
    3.2013   -2.6747   -1.3783 C   0  0  0  0  0  0  0  0  0  0  0  0
    2.9776    0.4274   -1.7705 H   0  0  0  0  0  0  0  0  0  0  0  0
    1.0296   -1.0663   -2.1889 H   0  0  0  0  0  0  0  0  0  0  0  0
    0.0795   -2.4512   -0.2864 H   0  0  0  0  0  0  0  0  0  0  0  0
    2.6158   -0.0652    2.3434 H   0  0  0  0  0  0  0  0  0  0  0  0
    4.4754   -1.3686    1.4124 H   0  0  0  0  0  0  0  0  0  0  0  0
    3.1857   -2.6024    1.2016 H   0  0  0  0  0  0  0  0  0  0  0  0
    4.6628    3.9273   -1.3768 H   0  0  0  0  0  0  0  0  0  0  0  0
    5.4516    3.3342    0.1496 H   0  0  0  0  0  0  0  0  0  0  0  0
    3.8972    4.2301    0.2411 H   0  0  0  0  0  0  0  0  0  0  0  0
   -0.2657   -3.2576    3.2687 H   0  0  0  0  0  0  0  0  0  0  0  0
    0.5060   -3.7157    1.6934 H   0  0  0  0  0  0  0  0  0  0  0  0
   -1.0251   -2.7436    1.7158 H   0  0  0  0  0  0  0  0  0  0  0  0
    5.7872   -1.7953   -0.7179 H   0  0  0  0  0  0  0  0  0  0  0  0
    5.3308   -0.0602   -0.6649 H   0  0  0  0  0  0  0  0  0  0  0  0
    5.1175   -0.9905   -2.1787 H   0  0  0  0  0  0  0  0  0  0  0  0
    3.3143   -2.5781   -2.5032 H   0  0  0  0  0  0  0  0  0  0  0  0
  1 13  1  0  0  0  0
  1 10  1  0  0  0  0
  3 14  1  0  0  0  0
  3 13  1  0  0  0  0
  6 18  1  6  0  0  0
  6 12  1  0  0  0  0
  6  1  1  0  0  0  0
  7  6  1  0  0  0  0
  7  8  1  0  0  0  0
  8  9  1  0  0  0  0
  9 10  1  0  0  0  0
  9  4  1  1  0  0  0
 10 21  1  1  0  0  0
 11 23  1  0  0  0  0
 11 10  1  0  0  0  0
 11 22  1  0  0  0  0
 12 17  1  6  0  0  0
 12 11  1  0  0  0  0
 13  2  2  0  0  0  0
 14 25  1  0  0  0  0
 14 26  1  0  0  0  0
 15  4  1  0  0  0  0
 15 27  1  0  0  0  0
 16 30  1  0  0  0  0
 16 31  1  0  0  0  0
 16 12  1  0  0  0  0
 17  5  2  0  0  0  0
 19  7  1  0  0  0  0
 20  8  1  0  0  0  0
 24 14  1  0  0  0  0
 28 15  1  0  0  0  0
 29 15  1  0  0  0  0
 32 16  1  0  0  0  0
 33 17  1  0  0  0  0
M  END
