11
q = -1.0

 41 42  0  0  1  0  0  0  0  0999 V2000
   -2.4959    2.4100   -2.2355 O   0  0  0  0  0  0  0  0  0  0  0  0
   -2.3427    3.3299   -0.1464 O   0  0  0  0  0  0  0  0  0  0  0  0
   -0.3673   -1.9469   -1.6957 O   0  0  0  0  0  0  0  0  0  0  0  0
   -4.5145    1.1415    2.3917 O   0  0  0  0  0  0  0  0  0  0  0  0
   -4.7645    1.1544    0.1360 O   0  0  0  0  0  0  0  0  0  0  0  0
   -5.0729   -1.9575    1.1045 O   0  0  0  0  0  0  0  0  0  0  0  0
   -5.3167   -3.3431   -0.6797 O   0  0  0  0  0  0  0  0  0  0  0  0
   -1.6132    1.2229   -0.4650 N   0  0  0  0  0  0  0  0  0  0  0  0
   -1.7083   -0.0694   -1.1142 C   0  0  1  0  0  0  0  0  0  0  0  0
   -0.4842   -0.9434   -0.7796 C   0  0  1  0  0  3  0  0  0  0  0  0
   -0.1257   -1.0831    0.5907 C   0  0  0  0  0  3  0  0  0  0  0  0
   -0.3946    0.1252    1.3474 C   0  0  0  0  0  3  0  0  0  0  0  0
   -1.6592    0.9059    0.9574 C   0  0  2  0  0  0  0  0  0  0  0  0
   -2.9102   -0.0540    1.0195 C   0  0  2  0  0  0  0  0  0  0  0  0
   -2.8542   -0.7251   -0.3457 C   0  0  0  0  0  0  0  0  0  0  0  0
   -2.1935    2.3281   -1.0580 C   0  0  0  0  0  0  0  0  0  0  0  0
   -2.8898    4.5366   -0.6769 C   0  0  0  0  0  0  0  0  0  0  0  0
    0.0874   -3.2184   -1.2414 C   0  0  0  0  0  0  0  0  0  0  0  0
   -4.1602    0.7793    1.2895 C   0  0  0  0  0  0  0  0  0  0  0  0
   -5.8893    2.0251    0.2886 C   0  0  0  0  0  0  0  0  0  0  0  0
   -3.6221   -1.7399   -0.8071 C   0  0  0  0  0  0  0  0  0  0  0  0
   -4.7144   -2.3206   -0.0097 C   0  0  0  0  0  0  0  0  0  0  0  0
   -6.4079   -3.9573    0.0094 C   0  0  0  0  0  0  0  0  0  0  0  0
   -1.8560    0.0340   -2.2031 H   0  0  0  0  0  0  0  0  0  0  0  0
    0.2122   -2.0196    1.0553 H   0  0  0  0  0  0  0  0  0  0  0  0
   -0.2638    0.0605    2.4393 H   0  0  0  0  0  0  0  0  0  0  0  0
   -1.7778    1.8185    1.5643 H   0  0  0  0  0  0  0  0  0  0  0  0
   -2.8494   -0.7795    1.8524 H   0  0  0  0  0  0  0  0  0  0  0  0
   -2.9167    5.2534    0.1634 H   0  0  0  0  0  0  0  0  0  0  0  0
   -3.9131    4.3696   -1.0720 H   0  0  0  0  0  0  0  0  0  0  0  0
   -2.2609    4.9310   -1.5001 H   0  0  0  0  0  0  0  0  0  0  0  0
    0.1624   -3.8598   -2.1384 H   0  0  0  0  0  0  0  0  0  0  0  0
   -0.6405   -3.6608   -0.5277 H   0  0  0  0  0  0  0  0  0  0  0  0
    1.0865   -3.1513   -0.7623 H   0  0  0  0  0  0  0  0  0  0  0  0
   -6.2229    2.2728   -0.7348 H   0  0  0  0  0  0  0  0  0  0  0  0
   -5.6012    2.9437    0.8389 H   0  0  0  0  0  0  0  0  0  0  0  0
   -6.7000    1.5200    0.8512 H   0  0  0  0  0  0  0  0  0  0  0  0
   -3.4641   -2.1397   -1.8195 H   0  0  0  0  0  0  0  0  0  0  0  0
   -6.7897   -4.7487   -0.6602 H   0  0  0  0  0  0  0  0  0  0  0  0
   -7.2058   -3.2186    0.2291 H   0  0  0  0  0  0  0  0  0  0  0  0
   -6.0754   -4.3939    0.9735 H   0  0  0  0  0  0  0  0  0  0  0  0
  1 16  2  0  0  0  0
  3 18  1  0  0  0  0
  5 20  1  0  0  0  0
  5 19  1  0  0  0  0
  7 22  1  0  0  0  0
  7 23  1  0  0  0  0
  8 13  1  0  0  0  0
  9 24  1  6  0  0  0
  9 10  1  0  0  0  0
  9  8  1  0  0  0  0
  9 15  1  0  0  0  0
 10  3  1  1  0  0  0
 10 11  1  0  0  0  0
 11 25  1  0  0  0  0
 11 12  1  0  0  0  0
 12 26  1  0  0  0  0
 13 14  1  0  0  0  0
 13 12  1  0  0  0  0
 13 27  1  1  0  0  0
 14 19  1  0  0  0  0
 14 28  1  1  0  0  0
 15 14  1  0  0  0  0
 16  8  1  0  0  0  0
 16  2  1  0  0  0  0
 17  2  1  0  0  0  0
 17 29  1  0  0  0  0
 18 34  1  0  0  0  0
 18 33  1  0  0  0  0
 19  4  2  0  0  0  0
 20 36  1  0  0  0  0
 20 37  1  0  0  0  0
 21 15  2  0  0  0  0
 21 22  1  0  0  0  0
 22  6  2  0  0  0  0
 23 40  1  0  0  0  0
 23 41  1  0  0  0  0
 30 17  1  0  0  0  0
 31 17  1  0  0  0  0
 32 18  1  0  0  0  0
 35 20  1  0  0  0  0
 38 21  1  0  0  0  0
 39 23  1  0  0  0  0
M  END
