8
q = -1.0, confidence = 0.0

 36 37  0  0  1  0  0  0  0  0999 V2000
   -2.4728    0.7499   -0.0167 N   0  0  0  0  0  0  0  0  0  0  0  0
   -3.5914    1.7621    1.6549 O   0  0  0  0  0  0  0  0  0  0  0  0
   -3.4077    2.8218   -0.3675 O   0  0  0  0  0  0  0  0  0  0  0  0
   -0.9055   -2.1470    1.4713 O   0  0  0  0  0  0  0  0  0  0  0  0
   -5.7145   -0.0332   -1.5843 O   0  0  0  0  0  0  0  0  0  0  0  0
   -2.4724   -0.5327    0.6665 C   0  0  2  0  0  0  0  0  0  0  0  0
   -1.1080   -1.2117    0.4979 C   0  0  2  0  0  3  0  0  0  0  0  0
   -0.5490   -1.3061   -0.8020 C   0  0  0  0  0  3  0  0  0  0  0  0
   -0.8954   -0.1698   -1.6382 C   0  0  0  0  0  3  0  0  0  0  0  0
   -2.2981    0.4171   -1.4172 C   0  0  1  0  0  0  0  0  0  0  0  0
   -3.3825   -0.7192   -1.5955 C   0  0  1  0  0  0  0  0  0  0  0  0
   -3.5660   -1.2995   -0.1642 C   0  0  1  0  0  0  0  0  0  0  0  0
   -3.1873    1.8655    0.3600 C   0  0  0  0  0  0  0  0  0  0  0  0
   -4.1848    2.9434    2.1940 C   0  0  0  0  0  0  0  0  0  0  0  0
   -0.1104   -3.2866    1.1579 C   0  0  0  0  0  0  0  0  0  0  0  0
   -4.6557   -0.1283   -2.1725 C   0  0  0  0  0  0  0  0  0  0  0  0
   -3.6035   -2.8262   -0.0888 C   0  0  0  0  0  0  0  0  0  0  0  0
   -3.9394   -3.3679    1.3018 C   0  0  0  0  0  0  0  0  0  0  0  0
   -2.7172   -0.4167    1.7353 H   0  0  0  0  0  0  0  0  0  0  0  0
    0.0008   -2.1795   -1.1793 H   0  0  0  0  0  0  0  0  0  0  0  0
   -0.6345   -0.2519   -2.7061 H   0  0  0  0  0  0  0  0  0  0  0  0
   -2.4727    1.3175   -2.0357 H   0  0  0  0  0  0  0  0  0  0  0  0
   -3.0095   -1.4717   -2.3247 H   0  0  0  0  0  0  0  0  0  0  0  0
   -4.5430   -0.9141    0.2011 H   0  0  0  0  0  0  0  0  0  0  0  0
   -4.6116    2.6535    3.1711 H   0  0  0  0  0  0  0  0  0  0  0  0
   -4.9754    3.3340    1.5231 H   0  0  0  0  0  0  0  0  0  0  0  0
   -3.4184    3.7327    2.3379 H   0  0  0  0  0  0  0  0  0  0  0  0
    0.0169   -3.8465    2.1019 H   0  0  0  0  0  0  0  0  0  0  0  0
    0.8879   -2.9965    0.7711 H   0  0  0  0  0  0  0  0  0  0  0  0
   -0.6240   -3.9314    0.4118 H   0  0  0  0  0  0  0  0  0  0  0  0
   -4.5448    0.2557   -3.2321 H   0  0  0  0  0  0  0  0  0  0  0  0
   -2.6366   -3.2435   -0.4479 H   0  0  0  0  0  0  0  0  0  0  0  0
   -4.3657   -3.1809   -0.8160 H   0  0  0  0  0  0  0  0  0  0  0  0
   -3.9979   -4.4751    1.3018 H   0  0  0  0  0  0  0  0  0  0  0  0
   -4.9191   -2.9814    1.6510 H   0  0  0  0  0  0  0  0  0  0  0  0
   -3.1735   -3.0689    2.0442 H   0  0  0  0  0  0  0  0  0  0  0  0
  1 13  1  0  0  0  0
  1  6  1  0  0  0  0
  2 14  1  0  0  0  0
  3 13  2  0  0  0  0
  6 19  1  1  0  0  0
  7  6  1  0  0  0  0
  7  4  1  6  0  0  0
  8  7  1  0  0  0  0
  9 10  1  0  0  0  0
  9  8  1  0  0  0  0
 10 22  1  6  0  0  0
 10  1  1  0  0  0  0
 11 23  1  6  0  0  0
 11 10  1  0  0  0  0
 11 12  1  0  0  0  0
 12 17  1  0  0  0  0
 12 24  1  1  0  0  0
 12  6  1  0  0  0  0
 13  2  1  0  0  0  0
 14 27  1  0  0  0  0
 14 25  1  0  0  0  0
 15  4  1  0  0  0  0
 15 28  1  0  0  0  0
 16 11  1  0  0  0  0
 16  5  2  0  0  0  0
 17 18  1  0  0  0  0
 18 34  1  0  0  0  0
 18 35  1  0  0  0  0
 18 36  1  0  0  0  0
 20  8  1  0  0  0  0
 21  9  1  0  0  0  0
 26 14  1  0  0  0  0
 29 15  1  0  0  0  0
 30 15  1  0  0  0  0
 31 16  1  0  0  0  0
 32 17  1  0  0  0  0
 33 17  1  0  0  0  0
M  END
