18
q = -1.0

 23 25  0  0  0  0  0  0  0  0999 V2000
   -1.1192    0.4956   -2.5510 Br  0  0  0  0  0  0  0  0  0  0  0  0
   -4.1954    0.1949   -1.8904 C   0  0  0  0  0  0  0  0  0  0  0  0
   -3.7292    0.4074   -2.8623 H   0  0  0  0  0  0  0  0  0  0  0  0
   -5.5782    0.1009   -1.7823 C   0  0  0  0  0  0  0  0  0  0  0  0
   -6.2074    0.2408   -2.6743 H   0  0  0  0  0  0  0  0  0  0  0  0
   -6.1702   -0.1743   -0.5305 C   0  0  0  0  0  0  0  0  0  0  0  0
   -7.2640   -0.2510   -0.4381 H   0  0  0  0  0  0  0  0  0  0  0  0
   -5.3644   -0.3493    0.5902 C   0  0  0  0  0  0  0  0  0  0  0  0
   -5.8430   -0.5632    1.5556 H   0  0  0  0  0  0  0  0  0  0  0  0
   -3.6199   -0.7031    2.9799 C   0  0  0  0  0  0  0  0  0  0  0  0
   -4.7071   -0.7801    3.1188 H   0  0  0  0  0  0  0  0  0  0  0  0
   -2.7941   -0.8681    4.0880 C   0  0  0  0  0  0  0  0  0  0  0  0
   -3.2370   -1.0719    5.0747 H   0  0  0  0  0  0  0  0  0  0  0  0
   -1.3919   -0.7716    3.9436 C   0  0  0  0  0  0  0  0  0  0  0  0
   -0.7332   -0.8980    4.8163 H   0  0  0  0  0  0  0  0  0  0  0  0
   -0.8486   -0.5136    2.6901 C   0  0  0  0  0  0  0  0  0  0  0  0
    0.2412   -0.4292    2.5436 H   0  0  0  0  0  0  0  0  0  0  0  0
   -1.0564   -0.0770    0.2415 C   0  0  0  0  0  3  0  0  0  0  0  0
   -1.9094    0.1014   -0.8304 C   0  0  0  0  0  0  0  0  0  0  0  0
   -3.3499    0.0191   -0.7604 C   0  0  0  0  0  0  0  0  0  0  0  0
   -3.9492   -0.2600    0.5182 C   0  0  0  0  0  0  0  0  0  0  0  0
   -3.0947   -0.4381    1.6859 C   0  0  0  0  0  0  0  0  0  0  0  0
   -1.6685   -0.3431    1.5368 C   0  0  0  0  0  0  0  0  0  0  0  0
  1 19  1  0  0  0  0
  2  4  2  0  0  0  0
  2 20  1  0  0  0  0
  3  2  1  0  0  0  0
  4  6  1  0  0  0  0
  5  4  1  0  0  0  0
  6  7  1  0  0  0  0
  6  8  2  0  0  0  0
  8  9  1  0  0  0  0
 10 11  1  0  0  0  0
 10 12  1  0  0  0  0
 12 13  1  0  0  0  0
 14 12  2  0  0  0  0
 14 15  1  0  0  0  0
 16 14  1  0  0  0  0
 17 16  1  0  0  0  0
 18 23  1  0  0  0  0
 19 20  1  0  0  0  0
 19 18  2  0  0  0  0
 20 21  2  0  0  0  0
 21  8  1  0  0  0  0
 21 22  1  0  0  0  0
 22 10  2  0  0  0  0
 23 22  1  0  0  0  0
 23 16  2  0  0  0  0
M  END
