2
q = -1.0, confidence = 0.006

 31 35  0  0  0  0  0  0  0  0999 V2000
    8.5396    0.0000   -1.1598 Br  0  0  0  0  0  0  0  0  0  0  0  0
   -0.5419   -0.0000   -0.2938 C   0  0  0  0  0  3  0  0  0  0  0  0
    0.0906   -0.0001   -1.5431 C   0  0  0  0  0  0  0  0  0  0  0  0
   -0.5173   -0.0001   -2.4612 H   0  0  0  0  0  0  0  0  0  0  0  0
    1.4941   -0.0001   -1.6666 C   0  0  0  0  0  0  0  0  0  0  0  0
    1.9200   -0.0001   -2.6801 H   0  0  0  0  0  0  0  0  0  0  0  0
    2.3445   -0.0001   -0.5508 C   0  0  0  0  0  0  0  0  0  0  0  0
    3.8094   -0.0000   -0.6797 C   0  0  0  0  0  0  0  0  0  0  0  0
    4.4457   -0.0000   -1.9295 C   0  0  0  0  0  0  0  0  0  0  0  0
    3.8498   -0.0001   -2.8518 H   0  0  0  0  0  0  0  0  0  0  0  0
    5.8469   -0.0000   -2.0581 C   0  0  0  0  0  0  0  0  0  0  0  0
    6.3090   -0.0000   -3.0552 H   0  0  0  0  0  0  0  0  0  0  0  0
    6.6456   -0.0000   -0.9234 C   0  0  0  0  0  0  0  0  0  0  0  0
    6.0743   -0.0000    0.3881 C   0  0  0  0  0  0  0  0  0  0  0  0
    6.8685   -0.0000    1.5678 C   0  0  0  0  0  0  0  0  0  0  0  0
    7.9625   -0.0000    1.4663 H   0  0  0  0  0  0  0  0  0  0  0  0
    6.2685   -0.0000    2.8176 C   0  0  0  0  0  0  0  0  0  0  0  0
    6.8899   -0.0001    3.7258 H   0  0  0  0  0  0  0  0  0  0  0  0
    4.8653   -0.0001    2.9368 C   0  0  0  0  0  0  0  0  0  0  0  0
    4.4295   -0.0001    3.9446 H   0  0  0  0  0  0  0  0  0  0  0  0
    4.0285   -0.0000    1.8112 C   0  0  0  0  0  0  0  0  0  0  0  0
    2.5568   -0.0000    1.9381 C   0  0  0  0  0  0  0  0  0  0  0  0
    1.9247    0.0000    3.1905 C   0  0  0  0  0  0  0  0  0  0  0  0
    2.5260    0.0000    4.1094 H   0  0  0  0  0  0  0  0  0  0  0  0
    0.5202   -0.0000    3.3129 C   0  0  0  0  0  0  0  0  0  0  0  0
    0.0617   -0.0000    4.3135 H   0  0  0  0  0  0  0  0  0  0  0  0
   -0.2769   -0.0000    2.1775 C   0  0  0  0  0  0  0  0  0  0  0  0
   -1.3759   -0.0001    2.2419 H   0  0  0  0  0  0  0  0  0  0  0  0
    0.2996   -0.0000    0.8746 C   0  0  0  0  0  0  0  0  0  0  0  0
    1.7417   -0.0000    0.7520 C   0  0  0  0  0  0  0  0  0  0  0  0
    4.6292   -0.0000    0.5026 C   0  0  0  0  0  0  0  0  0  0  0  0
  1 13  1  0  0  0  0
  2 29  1  0  0  0  0
  3  2  2  0  0  0  0
  4  3  1  0  0  0  0
  5  3  1  0  0  0  0
  5  7  2  0  0  0  0
  6  5  1  0  0  0  0
  7 30  1  0  0  0  0
  8  7  1  0  0  0  0
  8 31  1  0  0  0  0
  9  8  2  0  0  0  0
 10  9  1  0  0  0  0
 11  9  1  0  0  0  0
 11 13  2  0  0  0  0
 12 11  1  0  0  0  0
 13 14  1  0  0  0  0
 14 31  2  0  0  0  0
 14 15  1  0  0  0  0
 15 17  2  0  0  0  0
 16 15  1  0  0  0  0
 17 19  1  0  0  0  0
 17 18  1  0  0  0  0
 19 20  1  0  0  0  0
 21 22  1  0  0  0  0
 21 19  2  0  0  0  0
 22 23  1  0  0  0  0
 23 25  2  0  0  0  0
 23 24  1  0  0  0  0
 25 26  1  0  0  0  0
 27 28  1  0  0  0  0
 27 25  1  0  0  0  0
 29 27  2  0  0  0  0
 30 29  1  0  0  0  0
 30 22  2  0  0  0  0
 31 21  1  0  0  0  0
M  END
