2
q = -1.0

 17 18  0  0  0  0  0  0  0  0999 V2000
    5.9732    0.3867   -0.7129 Br  0  0  0  0  0  0  0  0  0  0  0  0
    1.2511   -0.0347   -0.1207 C   0  0  0  0  0  3  0  0  0  0  0  0
    1.8360    0.7746   -1.0958 C   0  0  0  0  0  0  0  0  0  0  0  0
    1.2055    1.3334   -1.7988 H   0  0  0  0  0  0  0  0  0  0  0  0
    3.2360    0.8976   -1.2620 C   0  0  0  0  0  0  0  0  0  0  0  0
    3.6364    1.5568   -2.0455 H   0  0  0  0  0  0  0  0  0  0  0  0
    4.0917    0.1817   -0.4456 C   0  0  0  0  0  0  0  0  0  0  0  0
    4.4432   -1.4663    1.3962 C   0  0  0  0  0  0  0  0  0  0  0  0
    5.5276   -1.3677    1.2458 H   0  0  0  0  0  0  0  0  0  0  0  0
    3.9430   -2.3213    2.3629 C   0  0  0  0  0  0  0  0  0  0  0  0
    4.6306   -2.9083    2.9901 H   0  0  0  0  0  0  0  0  0  0  0  0
    2.5417   -2.4305    2.5389 C   0  0  0  0  0  0  0  0  0  0  0  0
    2.1301   -3.1003    3.3093 H   0  0  0  0  0  0  0  0  0  0  0  0
    1.6811   -1.6862    1.7488 C   0  0  0  0  0  0  0  0  0  0  0  0
    0.6039   -1.7531    1.9228 H   0  0  0  0  0  0  0  0  0  0  0  0
    2.1353   -0.7939    0.7310 C   0  0  0  0  0  0  0  0  0  0  0  0
    3.5824   -0.6922    0.5629 C   0  0  0  0  0  0  0  0  0  0  0  0
  1  7  1  0  0  0  0
  2 16  1  0  0  0  0
  3  2  2  0  0  0  0
  4  3  1  0  0  0  0
  5  3  1  0  0  0  0
  5  7  2  0  0  0  0
  6  5  1  0  0  0  0
  7 17  1  0  0  0  0
  8 10  1  0  0  0  0
  9  8  1  0  0  0  0
 10 12  2  0  0  0  0
 10 11  1  0  0  0  0
 12 13  1  0  0  0  0
 14 15  1  0  0  0  0
 14 12  1  0  0  0  0
 16 14  2  0  0  0  0
 17 16  1  0  0  0  0
 17  8  2  0  0  0  0
M  END
