25
q = -1.0

 50 54  0  0  0  0  0  0  0  0999 V2000
   -2.2202   -3.5341    0.8376 F   0  0  0  0  0  0  0  0  0  0  0  0
   -4.7643   -4.3636    0.5013 F   0  0  0  0  0  0  0  0  0  0  0  0
   -6.4728   -2.9637   -1.1190 F   0  0  0  0  0  0  0  0  0  0  0  0
   -5.5892   -0.7157   -2.4139 F   0  0  0  0  0  0  0  0  0  0  0  0
   -3.0445    0.1131   -2.1204 F   0  0  0  0  0  0  0  0  0  0  0  0
   -3.0134    0.7881    1.6028 F   0  0  0  0  0  0  0  0  0  0  0  0
   -4.4342    3.0699    1.4387 F   0  0  0  0  0  0  0  0  0  0  0  0
   -3.8072    4.9597   -0.4428 F   0  0  0  0  0  0  0  0  0  0  0  0
   -1.7316    4.5221   -2.1784 F   0  0  0  0  0  0  0  0  0  0  0  0
   -0.3231    2.2200   -2.0573 F   0  0  0  0  0  0  0  0  0  0  0  0
    0.3350    2.4108    1.7872 F   0  0  0  0  0  0  0  0  0  0  0  0
    1.8745    4.6118    1.7906 F   0  0  0  0  0  0  0  0  0  0  0  0
    3.8874    4.9036   -0.0449 F   0  0  0  0  0  0  0  0  0  0  0  0
    4.3261    2.9433   -1.9096 F   0  0  0  0  0  0  0  0  0  0  0  0
    2.7723    0.7429   -1.9587 F   0  0  0  0  0  0  0  0  0  0  0  0
    3.3664   -0.3490    1.4263 F   0  0  0  0  0  0  0  0  0  0  0  0
    5.8795   -1.2603    1.0962 F   0  0  0  0  0  0  0  0  0  0  0  0
    6.4629   -3.0220   -0.9194 F   0  0  0  0  0  0  0  0  0  0  0  0
    4.4779   -3.8683   -2.6090 F   0  0  0  0  0  0  0  0  0  0  0  0
    1.9539   -2.9470   -2.3140 F   0  0  0  0  0  0  0  0  0  0  0  0
   -1.1695   -1.1484   -0.3545 C   0  0  0  0  0  0  0  0  0  0  0  0
   -0.7407    0.2218   -0.1311 C   0  0  0  0  0  0  0  0  0  0  0  0
    0.7066    0.2265   -0.0972 C   0  0  0  0  0  0  0  0  0  0  0  0
    1.1726   -1.1264   -0.3115 C   0  0  0  0  0  0  0  0  0  0  0  0
    0.0035   -1.9567   -0.4588 C   0  0  0  0  0  3  0  0  0  0  0  0
   -2.5532   -1.6260   -0.5564 C   0  0  0  0  0  0  0  0  0  0  0  0
   -3.0277   -2.8071    0.0556 C   0  0  0  0  0  0  0  0  0  0  0  0
   -4.3464   -3.2562   -0.1108 C   0  0  0  0  0  0  0  0  0  0  0  0
   -5.2234   -2.5407   -0.9436 C   0  0  0  0  0  0  0  0  0  0  0  0
   -4.7726   -1.3817   -1.5964 C   0  0  0  0  0  0  0  0  0  0  0  0
   -3.4479   -0.9536   -1.4164 C   0  0  0  0  0  0  0  0  0  0  0  0
   -1.5647    1.4459   -0.1726 C   0  0  0  0  0  0  0  0  0  0  0  0
   -2.6608    1.6860    0.6771 C   0  0  0  0  0  0  0  0  0  0  0  0
   -3.4142    2.8684    0.6037 C   0  0  0  0  0  0  0  0  0  0  0  0
   -3.0952    3.8379   -0.3611 C   0  0  0  0  0  0  0  0  0  0  0  0
   -2.0226    3.6178   -1.2417 C   0  0  0  0  0  0  0  0  0  0  0  0
   -1.2899    2.4258   -1.1515 C   0  0  0  0  0  0  0  0  0  0  0  0
    1.5430    1.4429   -0.0360 C   0  0  0  0  0  0  0  0  0  0  0  0
    1.3170    2.4915    0.8807 C   0  0  0  0  0  0  0  0  0  0  0  0
    2.1069    3.6517    0.8957 C   0  0  0  0  0  0  0  0  0  0  0  0
    3.1367    3.8049   -0.0468 C   0  0  0  0  0  0  0  0  0  0  0  0
    3.3687    2.7933   -0.9934 C   0  0  0  0  0  0  0  0  0  0  0  0
    2.5625    1.6458   -0.9914 C   0  0  0  0  0  0  0  0  0  0  0  0
    2.5580   -1.6162   -0.4296 C   0  0  0  0  0  0  0  0  0  0  0  0
    3.6046   -1.1998    0.4192 C   0  0  0  0  0  0  0  0  0  0  0  0
    4.9183   -1.6684    0.2670 C   0  0  0  0  0  0  0  0  0  0  0  0
    5.2190   -2.5733   -0.7651 C   0  0  0  0  0  0  0  0  0  0  0  0
    4.1989   -3.0112   -1.6260 C   0  0  0  0  0  0  0  0  0  0  0  0
    2.8941   -2.5245   -1.4564 C   0  0  0  0  0  0  0  0  0  0  0  0
    0.0115   -3.0343   -0.6485 H   0  0  0  0  0  0  0  0  0  0  0  0
  3 29  1  0  0  0  0
  4 30  1  0  0  0  0
  5 31  1  0  0  0  0
  8 35  1  0  0  0  0
  9 36  1  0  0  0  0
 10 37  1  0  0  0  0
 14 42  1  0  0  0  0
 15 43  1  0  0  0  0
 18 47  1  0  0  0  0
 19 48  1  0  0  0  0
 20 49  1  0  0  0  0
 21 22  2  0  0  0  0
 22 23  1  0  0  0  0
 23 38  1  0  0  0  0
 24 23  2  0  0  0  0
 25 21  1  0  0  0  0
 25 24  1  0  0  0  0
 26 21  1  0  0  0  0
 26 27  1  0  0  0  0
 27  1  1  0  0  0  0
 28 27  2  0  0  0  0
 28  2  1  0  0  0  0
 29 28  1  0  0  0  0
 30 31  1  0  0  0  0
 30 29  2  0  0  0  0
 31 26  2  0  0  0  0
 32 22  1  0  0  0  0
 32 33  1  0  0  0  0
 33  6  1  0  0  0  0
 34 33  2  0  0  0  0
 34  7  1  0  0  0  0
 35 34  1  0  0  0  0
 36 37  1  0  0  0  0
 36 35  2  0  0  0  0
 37 32  2  0  0  0  0
 38 39  1  0  0  0  0
 39 40  2  0  0  0  0
 39 11  1  0  0  0  0
 40 12  1  0  0  0  0
 41 13  1  0  0  0  0
 41 40  1  0  0  0  0
 42 43  1  0  0  0  0
 42 41  2  0  0  0  0
 43 38  2  0  0  0  0
 44 24  1  0  0  0  0
 44 45  1  0  0  0  0
 45 16  1  0  0  0  0
 46 45  2  0  0  0  0
 46 17  1  0  0  0  0
 47 46  1  0  0  0  0
 48 49  1  0  0  0  0
 48 47  2  0  0  0  0
 49 44  2  0  0  0  0
 50 25  1  0  0  0  0
M  END
