7
q = -1.0, confidence = 0.0

 22 22  0  0  0  0  0  0  0  0999 V2000
    3.3591   -2.9531    0.0980 N   0  0  0  0  0  0  0  0  0  0  0  0
    2.8943   -3.8590    0.0214 H   0  0  0  0  0  0  0  0  0  0  0  0
    3.9337    0.6182    0.3735 C   0  0  0  0  0  0  0  0  0  0  0  0
    4.9825    0.9301    0.5570 H   0  0  0  0  0  0  0  0  0  0  0  0
    3.3501    0.9269    1.2679 H   0  0  0  0  0  0  0  0  0  0  0  0
    3.9044   -0.8782    0.2681 C   0  0  0  0  0  0  0  0  0  0  0  0
    2.7765   -1.7163    0.1767 C   0  0  0  0  0  3  0  0  0  0  0  0
    5.0395   -1.6445    0.2375 N   0  0  0  0  0  0  0  0  0  0  0  0
    4.7116   -2.9097    0.1357 N   0  0  0  0  0  0  0  0  0  0  0  0
    1.9383    3.1522    0.2536 C   0  0  0  0  0  0  0  0  0  0  0  0
    2.1553    2.7593    1.2715 H   0  0  0  0  0  0  0  0  0  0  0  0
    1.0416    2.5982   -0.0991 H   0  0  0  0  0  0  0  0  0  0  0  0
    3.1096    2.8357   -0.6857 C   0  0  0  0  0  0  0  0  0  0  0  0
    4.0305    3.3441   -0.3187 H   0  0  0  0  0  0  0  0  0  0  0  0
    2.8915    3.2875   -1.6791 H   0  0  0  0  0  0  0  0  0  0  0  0
    3.3766    1.3367   -0.8708 C   0  0  0  0  0  0  0  0  0  0  0  0
    2.4231    0.8430   -1.1656 H   0  0  0  0  0  0  0  0  0  0  0  0
    4.0756    1.1728   -1.7182 H   0  0  0  0  0  0  0  0  0  0  0  0
    1.6086    4.6419    0.3450 C   0  0  0  0  0  0  0  0  0  0  0  0
    2.4715    5.2280    0.7253 H   0  0  0  0  0  0  0  0  0  0  0  0
    0.7495    4.8312    1.0208 H   0  0  0  0  0  0  0  0  0  0  0  0
    1.3428    5.0528   -0.6518 H   0  0  0  0  0  0  0  0  0  0  0  0
  1  9  1  0  0  0  0
  1  7  1  0  0  0  0
  2  1  1  0  0  0  0
  3  4  1  0  0  0  0
  3  5  1  0  0  0  0
  6  3  1  0  0  0  0
  7  6  2  0  0  0  0
  8  6  1  0  0  0  0
  9  8  2  0  0  0  0
 10 19  1  0  0  0  0
 10 11  1  0  0  0  0
 12 10  1  0  0  0  0
 13 14  1  0  0  0  0
 13 10  1  0  0  0  0
 15 13  1  0  0  0  0
 16 13  1  0  0  0  0
 16  3  1  0  0  0  0
 17 16  1  0  0  0  0
 18 16  1  0  0  0  0
 19 20  1  0  0  0  0
 19 21  1  0  0  0  0
 22 19  1  0  0  0  0
M  END
