10
q = -1.0

 25 24  0  0  0  0  0  0  0  0999 V2000
   -0.9514   -0.8033   -1.7157 N   0  0  0  0  0  0  0  0  0  0  0  0
   -3.9694   -2.3116   -0.7016 C   0  0  0  0  0  0  0  0  0  0  0  0
   -4.6996   -3.1004   -0.9812 H   0  0  0  0  0  0  0  0  0  0  0  0
   -4.2540   -1.3799   -1.2292 H   0  0  0  0  0  0  0  0  0  0  0  0
   -4.0827   -2.1126    0.3837 H   0  0  0  0  0  0  0  0  0  0  0  0
   -2.5250   -2.7314   -1.0311 C   0  0  0  0  0  0  0  0  0  0  0  0
   -2.3031   -3.6892   -0.5123 H   0  0  0  0  0  0  0  0  0  0  0  0
   -2.4530   -2.9729   -2.1145 H   0  0  0  0  0  0  0  0  0  0  0  0
   -1.4694   -1.7046   -0.6716 C   0  0  0  0  0  0  0  0  0  0  0  0
   -0.9276   -1.4452    0.5520 C   0  0  0  0  0  3  0  0  0  0  0  0
   -1.2754   -2.2371    1.7967 C   0  0  0  0  0  0  0  0  0  0  0  0
   -2.1548   -2.8893    1.5994 H   0  0  0  0  0  0  0  0  0  0  0  0
   -1.6008   -1.5409    2.6031 H   0  0  0  0  0  0  0  0  0  0  0  0
   -0.1261   -3.1046    2.3271 C   0  0  0  0  0  0  0  0  0  0  0  0
   -0.4242   -3.6635    3.2382 H   0  0  0  0  0  0  0  0  0  0  0  0
    0.7569   -2.4839    2.5789 H   0  0  0  0  0  0  0  0  0  0  0  0
    0.1929   -3.8439    1.5639 H   0  0  0  0  0  0  0  0  0  0  0  0
   -0.1262   -1.5019   -2.7060 C   0  0  0  0  0  0  0  0  0  0  0  0
   -0.7286   -2.1976   -3.3399 H   0  0  0  0  0  0  0  0  0  0  0  0
    0.6676   -2.0780   -2.1976 H   0  0  0  0  0  0  0  0  0  0  0  0
    0.3529   -0.7675   -3.3871 H   0  0  0  0  0  0  0  0  0  0  0  0
   -1.9897   -0.0113   -2.3802 C   0  0  0  0  0  0  0  0  0  0  0  0
   -2.6725   -0.6441   -2.9981 H   0  0  0  0  0  0  0  0  0  0  0  0
   -1.5199    0.7234   -3.0679 H   0  0  0  0  0  0  0  0  0  0  0  0
   -2.5911    0.5351   -1.6309 H   0  0  0  0  0  0  0  0  0  0  0  0
  1  9  1  0  0  0  0
  2  5  1  0  0  0  0
  3  2  1  0  0  0  0
  4  2  1  0  0  0  0
  6  2  1  0  0  0  0
  6  9  1  0  0  0  0
  6  7  1  0  0  0  0
  8  6  1  0  0  0  0
  9 10  2  0  0  0  0
 10 11  1  0  0  0  0
 11 14  1  0  0  0  0
 11 13  1  0  0  0  0
 12 11  1  0  0  0  0
 14 16  1  0  0  0  0
 14 15  1  0  0  0  0
 17 14  1  0  0  0  0
 18 20  1  0  0  0  0
 18  1  1  0  0  0  0
 19 18  1  0  0  0  0
 21 18  1  0  0  0  0
 22  1  1  0  0  0  0
 22 25  1  0  0  0  0
 23 22  1  0  0  0  0
 24 22  1  0  0  0  0
M  END
