1
q = -1.0

 21 22  0  0  0  0  0  0  0  0999 V2000
    1.6797   -2.4887    0.1167 C   0  0  0  0  0  3  0  0  0  0  0  0
    3.0520   -2.1534    0.0781 C   0  0  0  0  0  0  0  0  0  0  0  0
    2.9958   -4.3474    0.0740 N   0  0  0  0  0  0  0  0  0  0  0  0
    1.7340   -3.8571    0.1161 N   0  0  0  0  0  0  0  0  0  0  0  0
    0.9486   -4.5091    0.1368 H   0  0  0  0  0  0  0  0  0  0  0  0
    3.7921   -3.3137    0.0479 N   0  0  0  0  0  0  0  0  0  0  0  0
    3.7054   -0.8372    0.0458 C   0  0  0  0  0  0  0  0  0  0  0  0
    5.0720   -0.7363   -0.3163 C   0  0  0  0  0  0  0  0  0  0  0  0
    5.6141   -1.6632   -0.5531 H   0  0  0  0  0  0  0  0  0  0  0  0
    3.6608    1.6080    0.3060 C   0  0  0  0  0  0  0  0  0  0  0  0
    3.0874    2.5072    0.5690 H   0  0  0  0  0  0  0  0  0  0  0  0
    3.0288    0.3566    0.3661 C   0  0  0  0  0  0  0  0  0  0  0  0
    1.9748    0.3100    0.6849 H   0  0  0  0  0  0  0  0  0  0  0  0
    5.7160    0.4990   -0.3760 C   0  0  0  0  0  0  0  0  0  0  0  0
    6.7750    0.5780   -0.6629 H   0  0  0  0  0  0  0  0  0  0  0  0
    5.0158    1.6871   -0.0726 C   0  0  0  0  0  0  0  0  0  0  0  0
    5.7267    2.8506   -0.1676 O   0  0  0  0  0  0  0  0  0  0  0  0
    5.0622    4.0589    0.1279 C   0  0  0  0  0  0  0  0  0  0  0  0
    4.1951    4.2377   -0.5503 H   0  0  0  0  0  0  0  0  0  0  0  0
    5.8003    4.8704   -0.0155 H   0  0  0  0  0  0  0  0  0  0  0  0
    4.6928    4.0894    1.1787 H   0  0  0  0  0  0  0  0  0  0  0  0
  2  1  2  0  0  0  0
  3  4  1  0  0  0  0
  4  1  1  0  0  0  0
  4  5  1  0  0  0  0
  6  3  2  0  0  0  0
  6  2  1  0  0  0  0
  7  2  1  0  0  0  0
  7 12  1  0  0  0  0
  8  7  2  0  0  0  0
  9  8  1  0  0  0  0
 10 12  2  0  0  0  0
 10 11  1  0  0  0  0
 12 13  1  0  0  0  0
 14  8  1  0  0  0  0
 14 16  2  0  0  0  0
 15 14  1  0  0  0  0
 16 10  1  0  0  0  0
 17 16  1  0  0  0  0
 17 18  1  0  0  0  0
 18 21  1  0  0  0  0
 19 18  1  0  0  0  0
 20 18  1  0  0  0  0
M  END
