1
q = -1.0

 35 35  0  0  1  0  0  0  0  0999 V2000
    0.7280    0.2670    0.0001 C   0  0  1  0  0  3  0  0  0  0  0  0
    0.0813    0.8085    1.1638 C   0  0  0  0  0  0  0  0  0  0  0  0
   -1.0028    1.6341    0.7200 C   0  0  0  0  0  0  0  0  0  0  0  0
   -1.0028    1.6347   -0.7187 C   0  0  0  0  0  0  0  0  0  0  0  0
    0.0813    0.8095   -1.1631 C   0  0  0  0  0  0  0  0  0  0  0  0
    0.5139    0.6168    2.5833 C   0  0  0  0  0  0  0  0  0  0  0  0
    1.1728    1.4560    2.8943 H   0  0  0  0  0  0  0  0  0  0  0  0
    1.0765   -0.3258    2.7150 H   0  0  0  0  0  0  0  0  0  0  0  0
   -0.3475    0.5871    3.2772 H   0  0  0  0  0  0  0  0  0  0  0  0
   -1.9350    2.4116    1.5958 C   0  0  0  0  0  0  0  0  0  0  0  0
   -2.9496    2.4663    1.1577 H   0  0  0  0  0  0  0  0  0  0  0  0
   -1.5647    3.4508    1.7316 H   0  0  0  0  0  0  0  0  0  0  0  0
   -2.0263    1.9569    2.6006 H   0  0  0  0  0  0  0  0  0  0  0  0
   -1.9350    2.4128   -1.5939 C   0  0  0  0  0  0  0  0  0  0  0  0
   -1.5633    3.4513   -1.7309 H   0  0  0  0  0  0  0  0  0  0  0  0
   -2.9489    2.4693   -1.1546 H   0  0  0  0  0  0  0  0  0  0  0  0
   -2.0282    1.9576   -2.5983 H   0  0  0  0  0  0  0  0  0  0  0  0
    0.5138    0.6189   -2.5829 C   0  0  0  0  0  0  0  0  0  0  0  0
    1.1730    1.4581   -2.8931 H   0  0  0  0  0  0  0  0  0  0  0  0
   -0.3477    0.5902   -3.2767 H   0  0  0  0  0  0  0  0  0  0  0  0
    1.0760   -0.3238   -2.7155 H   0  0  0  0  0  0  0  0  0  0  0  0
    1.8989   -0.6718   -0.0003 C   0  0  0  0  0  0  0  0  0  0  0  0
    3.2499    0.0638    0.0001 C   0  0  0  0  0  0  0  0  0  0  0  0
    4.4412   -0.8924   -0.0004 C   0  0  0  0  0  0  0  0  0  0  0  0
    5.8045   -0.2563   -0.0001 C   0  0  0  0  0  0  0  0  0  0  0  0
    6.0782    1.0602    0.0004 C   0  0  0  0  0  0  0  0  0  0  0  0
    1.8336   -1.3404    0.8836 H   0  0  0  0  0  0  0  0  0  0  0  0
    1.8337   -1.3396   -0.8848 H   0  0  0  0  0  0  0  0  0  0  0  0
    3.3030    0.7309    0.8876 H   0  0  0  0  0  0  0  0  0  0  0  0
    3.3030    0.7317   -0.8869 H   0  0  0  0  0  0  0  0  0  0  0  0
    4.3691   -1.5757    0.8781 H   0  0  0  0  0  0  0  0  0  0  0  0
    4.3690   -1.5749   -0.8794 H   0  0  0  0  0  0  0  0  0  0  0  0
    6.6501   -0.9685   -0.0005 H   0  0  0  0  0  0  0  0  0  0  0  0
    7.1169    1.4244    0.0005 H   0  0  0  0  0  0  0  0  0  0  0  0
    5.2862    1.8259    0.0008 H   0  0  0  0  0  0  0  0  0  0  0  0
  1 22  1  1  0  0  0
  1  2  1  0  0  0  0
  2  6  1  0  0  0  0
  3  2  2  0  0  0  0
  3 10  1  0  0  0  0
  4  3  1  0  0  0  0
  5  4  2  0  0  0  0
  5  1  1  0  0  0  0
  6  8  1  0  0  0  0
  6  7  1  0  0  0  0
  6  9  1  0  0  0  0
 10 12  1  0  0  0  0
 10 13  1  0  0  0  0
 11 10  1  0  0  0  0
 14 16  1  0  0  0  0
 14  4  1  0  0  0  0
 15 14  1  0  0  0  0
 17 14  1  0  0  0  0
 18  5  1  0  0  0  0
 19 18  1  0  0  0  0
 20 18  1  0  0  0  0
 21 18  1  0  0  0  0
 22 23  1  0  0  0  0
 22 27  1  0  0  0  0
 23 29  1  0  0  0  0
 24 25  1  0  0  0  0
 24 23  1  0  0  0  0
 24 31  1  0  0  0  0
 25 26  2  0  0  0  0
 26 34  1  0  0  0  0
 26 35  1  0  0  0  0
 28 22  1  0  0  0  0
 30 23  1  0  0  0  0
 32 24  1  0  0  0  0
 33 25  1  0  0  0  0
M  END
