3
q = 0.0, confidence = 0.996

 22 23  0  0  1  0  0  0  0  0999 V2000
   -1.1881    1.1237   -0.3408 B   0  0  0  0  0  0  0  0  0  0  0  0
   -1.0638    0.4534    0.9777 N   0  0  2  0  0  0  0  0  0  0  0  0
    0.0157    0.6795    1.8346 C   0  0  0  0  0  3  0  0  0  0  0  0
    0.0015    0.1529    2.7997 H   0  0  0  0  0  0  0  0  0  0  0  0
    1.0388    1.5925    1.5065 C   0  0  0  0  0  0  0  0  0  0  0  0
    1.8641    1.7304    2.2174 H   0  0  0  0  0  0  0  0  0  0  0  0
    1.0675    2.2045    0.2131 C   0  0  0  0  0  0  0  0  0  0  0  0
    1.9497    2.8079   -0.0529 H   0  0  0  0  0  0  0  0  0  0  0  0
    0.0242    1.9848   -0.7096 C   0  0  0  0  0  0  0  0  0  0  0  0
    0.1290    2.4201   -1.7149 H   0  0  0  0  0  0  0  0  0  0  0  0
   -2.4659    0.8483   -1.2357 C   0  0  0  0  0  0  0  0  0  0  0  0
   -2.8924    1.8168   -1.5750 H   0  0  0  0  0  0  0  0  0  0  0  0
   -2.1154    0.3494   -2.1661 H   0  0  0  0  0  0  0  0  0  0  0  0
   -3.5368   -0.0151   -0.5487 C   0  0  0  0  0  0  0  0  0  0  0  0
   -4.1709    0.6176    0.1120 H   0  0  0  0  0  0  0  0  0  0  0  0
   -4.2266   -0.4665   -1.2914 H   0  0  0  0  0  0  0  0  0  0  0  0
   -2.8904   -1.1130    0.3020 C   0  0  0  0  0  0  0  0  0  0  0  0
   -3.6559   -1.7845    0.7425 H   0  0  0  0  0  0  0  0  0  0  0  0
   -2.2313   -1.7474   -0.3296 H   0  0  0  0  0  0  0  0  0  0  0  0
   -2.0725   -0.5254    1.4455 C   0  0  0  0  0  0  0  0  0  0  0  0
   -2.7420    0.0037    2.1601 H   0  0  0  0  0  0  0  0  0  0  0  0
   -1.5445   -1.3238    2.0055 H   0  0  0  0  0  0  0  0  0  0  0  0
  1  2  1  0  0  0  0
  2 20  1  0  0  0  0
  2  3  1  6  0  0  0
  3  4  1  0  0  0  0
  5  3  1  0  0  0  0
  5  6  1  0  0  0  0
  7  5  2  0  0  0  0
  8  7  1  0  0  0  0
  9  1  2  0  0  0  0
  9  7  1  0  0  0  0
 10  9  1  0  0  0  0
 11 14  1  0  0  0  0
 11  1  1  0  0  0  0
 12 11  1  0  0  0  0
 13 11  1  0  0  0  0
 14 15  1  0  0  0  0
 14 17  1  0  0  0  0
 16 14  1  0  0  0  0
 17 18  1  0  0  0  0
 17 20  1  0  0  0  0
 19 17  1  0  0  0  0
 20 22  1  0  0  0  0
 20 21  1  0  0  0  0
M  END
