2
q = -1.0

 27 27  0  0  1  0  0  0  0  0999 V2000
   -1.2375    1.8551   -1.7789 O   0  0  0  0  0  0  0  0  0  0  0  0
   -1.1031    1.1910   -0.7630 C   0  0  0  0  0  3  0  0  0  0  0  0
   -2.2781    1.2347    0.3080 C   0  0  1  0  0  0  0  0  0  0  0  0
   -3.5795    0.7665   -0.3452 C   0  0  0  0  0  0  0  0  0  0  0  0
   -4.0977   -0.2559    0.4078 C   0  0  0  0  0  0  0  0  0  0  0  0
   -3.2093   -0.5271    1.5570 C   0  0  0  0  0  0  0  0  0  0  0  0
   -2.1354    0.3244    1.5192 C   0  0  0  0  0  0  0  0  0  0  0  0
   -2.4093    2.7090    0.7565 C   0  0  0  0  0  0  0  0  0  0  0  0
   -3.3006    2.8267    1.4041 H   0  0  0  0  0  0  0  0  0  0  0  0
   -2.5090    3.3684   -0.1277 H   0  0  0  0  0  0  0  0  0  0  0  0
   -1.5188    3.0297    1.3350 H   0  0  0  0  0  0  0  0  0  0  0  0
   -4.1568    1.3957   -1.5686 C   0  0  0  0  0  0  0  0  0  0  0  0
   -5.0863    0.8868   -1.8896 H   0  0  0  0  0  0  0  0  0  0  0  0
   -3.4318    1.3883   -2.4084 H   0  0  0  0  0  0  0  0  0  0  0  0
   -4.4030    2.4671   -1.3988 H   0  0  0  0  0  0  0  0  0  0  0  0
   -5.3645   -1.0205    0.1714 C   0  0  0  0  0  0  0  0  0  0  0  0
   -5.9073   -0.6655   -0.7251 H   0  0  0  0  0  0  0  0  0  0  0  0
   -6.0562   -0.9417    1.0374 H   0  0  0  0  0  0  0  0  0  0  0  0
   -5.1630   -2.1057    0.0351 H   0  0  0  0  0  0  0  0  0  0  0  0
   -3.5233   -1.5709    2.5857 C   0  0  0  0  0  0  0  0  0  0  0  0
   -2.7493   -1.6281    3.3744 H   0  0  0  0  0  0  0  0  0  0  0  0
   -3.6124   -2.5815    2.1307 H   0  0  0  0  0  0  0  0  0  0  0  0
   -4.4978   -1.3726    3.0819 H   0  0  0  0  0  0  0  0  0  0  0  0
   -1.0300    0.4384    2.5181 C   0  0  0  0  0  0  0  0  0  0  0  0
   -1.2083   -0.1969    3.4068 H   0  0  0  0  0  0  0  0  0  0  0  0
   -0.9021    1.4843    2.8735 H   0  0  0  0  0  0  0  0  0  0  0  0
   -0.0526    0.1340    2.0712 H   0  0  0  0  0  0  0  0  0  0  0  0
  1  2  2  0  0  0  0
  3  2  1  6  0  0  0
  3  8  1  0  0  0  0
  3  7  1  0  0  0  0
  4  3  1  0  0  0  0
  4  5  2  0  0  0  0
  5  6  1  0  0  0  0
  6 20  1  0  0  0  0
  7  6  2  0  0  0  0
  7 24  1  0  0  0  0
  8 11  1  0  0  0  0
  8  9  1  0  0  0  0
 10  8  1  0  0  0  0
 12 15  1  0  0  0  0
 12  4  1  0  0  0  0
 13 12  1  0  0  0  0
 14 12  1  0  0  0  0
 16  5  1  0  0  0  0
 16 18  1  0  0  0  0
 17 16  1  0  0  0  0
 19 16  1  0  0  0  0
 20 23  1  0  0  0  0
 20 21  1  0  0  0  0
 22 20  1  0  0  0  0
 24 26  1  0  0  0  0
 24 25  1  0  0  0  0
 27 24  1  0  0  0  0
M  END
