4
q = -1.0

 28 28  0  0  1  0  0  0  0  0999 V2000
   -2.4077   -0.3359    0.4293 C   0  0  0  0  0  0  0  0  0  0  0  0
   -1.5419   -1.4688    0.4188 C   0  0  0  0  0  0  0  0  0  0  0  0
   -1.5538   -2.2743   -0.3232 H   0  0  0  0  0  0  0  0  0  0  0  0
   -0.6239   -1.3619    1.5064 C   0  0  0  0  0  3  0  0  0  0  0  0
    0.1554   -2.0887    1.7645 H   0  0  0  0  0  0  0  0  0  0  0  0
   -0.9323   -0.1612    2.2184 C   0  0  0  0  0  0  0  0  0  0  0  0
   -0.4325    0.2010    3.1240 H   0  0  0  0  0  0  0  0  0  0  0  0
   -2.0058    0.4779    1.5431 C   0  0  0  0  0  0  0  0  0  0  0  0
   -2.4586    1.4390    1.8144 H   0  0  0  0  0  0  0  0  0  0  0  0
   -3.5815   -0.0669   -0.4851 C   0  0  1  0  0  0  0  0  0  0  0  0
   -3.6850    1.0390   -0.5373 H   0  0  0  0  0  0  0  0  0  0  0  0
   -3.3174   -0.5671   -1.9121 C   0  0  0  0  0  0  0  0  0  0  0  0
   -2.3730   -0.1418   -2.3011 H   0  0  0  0  0  0  0  0  0  0  0  0
   -4.1285   -0.2655   -2.6007 H   0  0  0  0  0  0  0  0  0  0  0  0
   -3.2278   -1.6710   -1.9620 H   0  0  0  0  0  0  0  0  0  0  0  0
   -4.9358   -0.5964    0.1344 C   0  0  0  0  0  0  0  0  0  0  0  0
   -6.1023   -0.2033   -0.7933 C   0  0  0  0  0  0  0  0  0  0  0  0
   -7.0717   -0.4653   -0.3220 H   0  0  0  0  0  0  0  0  0  0  0  0
   -6.0578   -0.7265   -1.7682 H   0  0  0  0  0  0  0  0  0  0  0  0
   -6.1072    0.8889   -0.9911 H   0  0  0  0  0  0  0  0  0  0  0  0
   -5.1809    0.0581    1.5070 C   0  0  0  0  0  0  0  0  0  0  0  0
   -6.1747   -0.2382    1.9010 H   0  0  0  0  0  0  0  0  0  0  0  0
   -5.1652    1.1658    1.4343 H   0  0  0  0  0  0  0  0  0  0  0  0
   -4.4224   -0.2473    2.2543 H   0  0  0  0  0  0  0  0  0  0  0  0
   -4.9158   -2.1251    0.3100 C   0  0  0  0  0  0  0  0  0  0  0  0
   -4.1050   -2.4444    0.9959 H   0  0  0  0  0  0  0  0  0  0  0  0
   -4.7747   -2.6505   -0.6559 H   0  0  0  0  0  0  0  0  0  0  0  0
   -5.8764   -2.4761    0.7400 H   0  0  0  0  0  0  0  0  0  0  0  0
  1  8  1  0  0  0  0
  2  1  2  0  0  0  0
  2  4  1  0  0  0  0
  3  2  1  0  0  0  0
  4  5  1  0  0  0  0
  4  6  1  0  0  0  0
  6  7  1  0  0  0  0
  8  9  1  0  0  0  0
  8  6  2  0  0  0  0
 10 11  1  6  0  0  0
 10 16  1  0  0  0  0
 10  1  1  0  0  0  0
 12 10  1  0  0  0  0
 13 12  1  0  0  0  0
 14 12  1  0  0  0  0
 15 12  1  0  0  0  0
 16 25  1  0  0  0  0
 16 21  1  0  0  0  0
 17 18  1  0  0  0  0
 17 16  1  0  0  0  0
 19 17  1  0  0  0  0
 20 17  1  0  0  0  0
 21 22  1  0  0  0  0
 21 24  1  0  0  0  0
 23 21  1  0  0  0  0
 25 28  1  0  0  0  0
 25 26  1  0  0  0  0
 27 25  1  0  0  0  0
M  END
