4
q = -1.0

 28 28  0  0  1  0  0  0  0  0999 V2000
    2.5738    0.3197    0.1836 C   0  0  0  0  0  0  0  0  0  0  0  0
    2.0369    0.5169    1.4908 C   0  0  0  0  0  0  0  0  0  0  0  0
    2.0918   -0.2000    2.3181 H   0  0  0  0  0  0  0  0  0  0  0  0
    1.4478    1.8219    1.5553 C   0  0  0  0  0  3  0  0  0  0  0  0
    0.9724    2.2767    2.4331 H   0  0  0  0  0  0  0  0  0  0  0  0
    1.6288    2.4414    0.2862 C   0  0  0  0  0  0  0  0  0  0  0  0
    1.2697    3.4346   -0.0034 H   0  0  0  0  0  0  0  0  0  0  0  0
    2.2837    1.5111   -0.5636 C   0  0  0  0  0  0  0  0  0  0  0  0
    2.5223    1.6638   -1.6227 H   0  0  0  0  0  0  0  0  0  0  0  0
    3.3869   -0.8579   -0.3067 C   0  0  2  0  0  0  0  0  0  0  0  0
    3.2384   -0.9013   -1.4074 H   0  0  0  0  0  0  0  0  0  0  0  0
    2.8768   -2.1855    0.2714 C   0  0  0  0  0  0  0  0  0  0  0  0
    2.9321   -2.2138    1.3787 H   0  0  0  0  0  0  0  0  0  0  0  0
    3.4575   -3.0453   -0.1113 H   0  0  0  0  0  0  0  0  0  0  0  0
    1.8236   -2.3438   -0.0303 H   0  0  0  0  0  0  0  0  0  0  0  0
    4.9355   -0.6253   -0.0904 C   0  0  0  0  0  0  0  0  0  0  0  0
    5.2919   -0.5519    1.4047 C   0  0  0  0  0  0  0  0  0  0  0  0
    5.0327   -1.4882    1.9390 H   0  0  0  0  0  0  0  0  0  0  0  0
    4.7695    0.2879    1.9060 H   0  0  0  0  0  0  0  0  0  0  0  0
    6.3820   -0.3908    1.5326 H   0  0  0  0  0  0  0  0  0  0  0  0
    5.7153   -1.7821   -0.7465 C   0  0  0  0  0  0  0  0  0  0  0  0
    6.8053   -1.5819   -0.7021 H   0  0  0  0  0  0  0  0  0  0  0  0
    5.4372   -1.8987   -1.8145 H   0  0  0  0  0  0  0  0  0  0  0  0
    5.5395   -2.7511   -0.2397 H   0  0  0  0  0  0  0  0  0  0  0  0
    5.3720    0.6852   -0.7721 C   0  0  0  0  0  0  0  0  0  0  0  0
    4.9110    1.5739   -0.2986 H   0  0  0  0  0  0  0  0  0  0  0  0
    5.0986    0.6908   -1.8478 H   0  0  0  0  0  0  0  0  0  0  0  0
    6.4729    0.8025   -0.7050 H   0  0  0  0  0  0  0  0  0  0  0  0
  1  2  2  0  0  0  0
  2  4  1  0  0  0  0
  2  3  1  0  0  0  0
  4  5  1  0  0  0  0
  6  4  1  0  0  0  0
  7  6  1  0  0  0  0
  8  1  1  0  0  0  0
  8  6  2  0  0  0  0
  9  8  1  0  0  0  0
 10 11  1  6  0  0  0
 10 16  1  0  0  0  0
 10  1  1  0  0  0  0
 10 12  1  0  0  0  0
 12 13  1  0  0  0  0
 14 12  1  0  0  0  0
 15 12  1  0  0  0  0
 16 17  1  0  0  0  0
 17 20  1  0  0  0  0
 17 19  1  0  0  0  0
 17 18  1  0  0  0  0
 21 22  1  0  0  0  0
 21 24  1  0  0  0  0
 21 16  1  0  0  0  0
 23 21  1  0  0  0  0
 25 28  1  0  0  0  0
 25 26  1  0  0  0  0
 25 16  1  0  0  0  0
 27 25  1  0  0  0  0
M  END
