4
q = -1.0, confidence = 0.0

 26 27  0  0  0  0  0  0  0  0999 V2000
    4.6621   -1.7165   -0.9997 O   0  0  0  0  0  0  0  0  0  0  0  0
    1.1852   -0.5998   -0.7114 N   0  0  0  0  0  0  0  0  0  0  0  0
    0.8727   -1.4145   -1.2573 H   0  0  0  0  0  0  0  0  0  0  0  0
    0.4948   -0.3654    0.5119 C   0  0  0  0  0  3  0  0  0  0  0  0
    1.1333    0.1066    1.2834 H   0  0  0  0  0  0  0  0  0  0  0  0
   -0.5427   -1.2661    1.0303 C   0  0  0  0  0  0  0  0  0  0  0  0
   -1.1574   -0.9121    2.2577 C   0  0  0  0  0  0  0  0  0  0  0  0
   -0.8131   -0.0048    2.7783 H   0  0  0  0  0  0  0  0  0  0  0  0
   -2.1947   -1.6834    2.7916 C   0  0  0  0  0  0  0  0  0  0  0  0
   -2.6576   -1.3872    3.7456 H   0  0  0  0  0  0  0  0  0  0  0  0
   -2.6482   -2.8286    2.1154 C   0  0  0  0  0  0  0  0  0  0  0  0
   -3.4669   -3.4341    2.5320 H   0  0  0  0  0  0  0  0  0  0  0  0
   -2.0463   -3.1924    0.9001 C   0  0  0  0  0  0  0  0  0  0  0  0
   -2.3941   -4.0847    0.3581 H   0  0  0  0  0  0  0  0  0  0  0  0
   -1.0067   -2.4231    0.3629 C   0  0  0  0  0  0  0  0  0  0  0  0
   -0.5616   -2.7331   -0.5963 H   0  0  0  0  0  0  0  0  0  0  0  0
    2.6308   -0.3740   -0.8254 C   0  0  0  0  0  0  0  0  0  0  0  0
    2.8471   -0.0334   -1.8591 H   0  0  0  0  0  0  0  0  0  0  0  0
    2.8792    0.4821   -0.1619 H   0  0  0  0  0  0  0  0  0  0  0  0
    3.4043   -1.6041   -0.4783 C   0  0  0  0  0  0  0  0  0  0  0  0
    3.1171   -2.7042    0.3031 C   0  0  0  0  0  0  0  0  0  0  0  0
    2.1840   -2.8869    0.8484 H   0  0  0  0  0  0  0  0  0  0  0  0
    4.2818   -3.5448    0.2536 C   0  0  0  0  0  0  0  0  0  0  0  0
    4.4247   -4.5105    0.7504 H   0  0  0  0  0  0  0  0  0  0  0  0
    5.1884   -2.8935   -0.5474 C   0  0  0  0  0  0  0  0  0  0  0  0
    6.2033   -3.1229   -0.8866 H   0  0  0  0  0  0  0  0  0  0  0  0
  1 25  1  0  0  0  0
  1 20  1  0  0  0  0
  2  4  1  0  0  0  0
  3  2  1  0  0  0  0
  4  6  1  0  0  0  0
  4  5  1  0  0  0  0
  6  7  1  0  0  0  0
  7  8  1  0  0  0  0
  7  9  2  0  0  0  0
  9 10  1  0  0  0  0
 11 12  1  0  0  0  0
 11  9  1  0  0  0  0
 13 11  2  0  0  0  0
 14 13  1  0  0  0  0
 15 13  1  0  0  0  0
 15  6  2  0  0  0  0
 16 15  1  0  0  0  0
 17  2  1  0  0  0  0
 17 20  1  0  0  0  0
 17 19  1  0  0  0  0
 18 17  1  0  0  0  0
 20 21  2  0  0  0  0
 21 22  1  0  0  0  0
 23 21  1  0  0  0  0
 23 24  1  0  0  0  0
 25 23  2  0  0  0  0
 26 25  1  0  0  0  0
M  END
