17
q = -1.0, confidence = 0.002

 51 51  0  0  1  0  0  0  0  0999 V2000
    3.5582    0.3535    0.5678 O   0  0  0  0  0  0  0  0  0  0  0  0
    2.5811   -1.7127    0.4766 O   0  0  0  0  0  0  0  0  0  0  0  0
   -0.0410   -2.4403   -0.8477 O   0  0  0  0  0  0  0  0  0  0  0  0
   -0.2594   -2.4475    1.4305 O   0  0  0  0  0  0  0  0  0  0  0  0
    0.8530    2.9841    0.2943 N   0  0  0  0  0  0  0  0  0  0  0  0
    2.0540    2.1945   -1.5293 N   0  0  0  0  0  0  0  0  0  0  0  0
   -0.0579    3.1301    1.3951 C   0  0  0  0  0  0  0  0  0  0  0  0
    1.0203    4.1123   -0.6134 C   0  0  0  0  0  0  0  0  0  0  0  0
    2.1209    3.6512   -1.5836 C   0  0  0  0  0  0  0  0  0  0  0  0
    3.0183    1.4610   -2.3059 C   0  0  0  0  0  0  0  0  0  0  0  0
    5.7301    1.1376    0.9839 C   0  0  0  0  0  0  0  0  0  0  0  0
    4.8817   -0.8887    2.2231 C   0  0  0  0  0  0  0  0  0  0  0  0
    5.4168   -1.0338   -0.2597 C   0  0  0  0  0  0  0  0  0  0  0  0
    4.9040   -0.1469    0.8814 C   0  0  0  0  0  0  0  0  0  0  0  0
    2.5010   -0.4909    0.3979 C   0  0  0  0  0  0  0  0  0  0  0  0
    1.2597    0.2975    0.1514 C   0  0  2  0  0  3  0  0  0  0  0  0
    0.0672   -0.3701    0.2199 C   0  0  0  0  0  2  0  0  0  0  0  0
   -0.0502   -1.8568    0.3755 C   0  0  0  0  0  0  0  0  0  0  0  0
   -0.1749   -3.8995   -1.0072 C   0  0  0  0  0  0  0  0  0  0  0  0
    0.9693   -4.6075   -0.2749 C   0  0  0  0  0  0  0  0  0  0  0  0
   -1.5555   -4.3491   -0.5159 C   0  0  0  0  0  0  0  0  0  0  0  0
   -0.0499   -4.0868   -2.5212 C   0  0  0  0  0  0  0  0  0  0  0  0
    1.3937    1.8005   -0.3015 B   0  0  0  0  0  0  0  0  0  0  0  0
    3.1262    4.0107   -1.2456 H   0  0  0  0  0  0  0  0  0  0  0  0
    1.9685    4.0416   -2.6147 H   0  0  0  0  0  0  0  0  0  0  0  0
    1.2961    5.0459   -0.0743 H   0  0  0  0  0  0  0  0  0  0  0  0
    0.0646    4.3273   -1.1573 H   0  0  0  0  0  0  0  0  0  0  0  0
    0.2048    4.0118    2.0238 H   0  0  0  0  0  0  0  0  0  0  0  0
   -1.1178    3.2520    1.0628 H   0  0  0  0  0  0  0  0  0  0  0  0
   -0.0095    2.2282    2.0313 H   0  0  0  0  0  0  0  0  0  0  0  0
    4.0700    1.6658   -1.9868 H   0  0  0  0  0  0  0  0  0  0  0  0
    2.8449    0.3722   -2.2056 H   0  0  0  0  0  0  0  0  0  0  0  0
    2.9448    1.7168   -3.3875 H   0  0  0  0  0  0  0  0  0  0  0  0
    5.7124    1.6904    0.0237 H   0  0  0  0  0  0  0  0  0  0  0  0
    5.3209    1.7999    1.7719 H   0  0  0  0  0  0  0  0  0  0  0  0
    6.7826    0.8985    1.2333 H   0  0  0  0  0  0  0  0  0  0  0  0
    5.9142   -1.1684    2.5136 H   0  0  0  0  0  0  0  0  0  0  0  0
    4.2666   -1.8042    2.1565 H   0  0  0  0  0  0  0  0  0  0  0  0
    4.4654   -0.2344    3.0150 H   0  0  0  0  0  0  0  0  0  0  0  0
    6.4703   -1.3187   -0.0659 H   0  0  0  0  0  0  0  0  0  0  0  0
    4.8080   -1.9514   -0.3489 H   0  0  0  0  0  0  0  0  0  0  0  0
    5.3808   -0.4835   -1.2210 H   0  0  0  0  0  0  0  0  0  0  0  0
   -0.8500   -3.5345   -3.0537 H   0  0  0  0  0  0  0  0  0  0  0  0
   -0.1336   -5.1599   -2.7828 H   0  0  0  0  0  0  0  0  0  0  0  0
    0.9302   -3.7133   -2.8779 H   0  0  0  0  0  0  0  0  0  0  0  0
    0.8689   -4.4898    0.8187 H   0  0  0  0  0  0  0  0  0  0  0  0
    0.9618   -5.6867   -0.5278 H   0  0  0  0  0  0  0  0  0  0  0  0
    1.9405   -4.1709   -0.5770 H   0  0  0  0  0  0  0  0  0  0  0  0
   -1.6446   -4.2204    0.5776 H   0  0  0  0  0  0  0  0  0  0  0  0
   -2.3541   -3.7585   -1.0090 H   0  0  0  0  0  0  0  0  0  0  0  0
   -1.7122   -5.4180   -0.7645 H   0  0  0  0  0  0  0  0  0  0  0  0
  1 14  1  0  0  0  0
  3 18  1  0  0  0  0
  5  7  1  0  0  0  0
  6 23  1  0  0  0  0
  7 28  1  0  0  0  0
  7 30  1  0  0  0  0
  8 26  1  0  0  0  0
  8  5  1  0  0  0  0
  9  6  1  0  0  0  0
  9 24  1  0  0  0  0
  9  8  1  0  0  0  0
 10 32  1  0  0  0  0
 10 31  1  0  0  0  0
 10  6  1  0  0  0  0
 11 36  1  0  0  0  0
 11 35  1  0  0  0  0
 12 37  1  0  0  0  0
 12 39  1  0  0  0  0
 13 40  1  0  0  0  0
 13 14  1  0  0  0  0
 14 11  1  0  0  0  0
 14 12  1  0  0  0  0
 15  2  2  0  0  0  0
 15  1  1  0  0  0  0
 16 17  1  6  0  0  0
 16 15  1  0  0  0  0
 17 18  1  0  0  0  0
 18  4  2  0  0  0  0
 19  3  1  0  0  0  0
 19 21  1  0  0  0  0
 19 20  1  0  0  0  0
 20 46  1  0  0  0  0
 21 49  1  0  0  0  0
 22 19  1  0  0  0  0
 23 16  1  0  0  0  0
 23  5  1  0  0  0  0
 25  9  1  0  0  0  0
 27  8  1  0  0  0  0
 29  7  1  0  0  0  0
 33 10  1  0  0  0  0
 34 11  1  0  0  0  0
 38 12  1  0  0  0  0
 41 13  1  0  0  0  0
 42 13  1  0  0  0  0
 43 22  1  0  0  0  0
 44 22  1  0  0  0  0
 45 22  1  0  0  0  0
 47 20  1  0  0  0  0
 48 20  1  0  0  0  0
 50 21  1  0  0  0  0
 51 21  1  0  0  0  0
M  END
