4
q = 0.0, confidence = 0.978

 32 34  0  0  0  0  0  0  0  0999 V2000
   -3.0359   -2.3792   -0.6196 N   0  0  0  0  0  0  0  0  0  0  0  0
   -2.7916   -0.2100   -0.6950 N   0  0  0  0  0  0  0  0  0  0  0  0
   -0.8376   -0.3818    2.2928 N   0  0  0  0  0  0  0  0  0  0  0  0
   -2.0998   -1.3907   -0.6090 C   0  0  0  0  0  2  0  0  0  0  0  0
   -4.3249   -1.8479   -0.7106 C   0  0  0  0  0  0  0  0  0  0  0  0
   -5.5881   -2.4546   -0.7604 C   0  0  0  0  0  0  0  0  0  0  0  0
   -5.7088   -3.5459   -0.7192 H   0  0  0  0  0  0  0  0  0  0  0  0
   -6.6943   -1.6009   -0.8675 C   0  0  0  0  0  0  0  0  0  0  0  0
   -7.7045   -2.0330   -0.9095 H   0  0  0  0  0  0  0  0  0  0  0  0
   -6.5411   -0.1965   -0.9236 C   0  0  0  0  0  0  0  0  0  0  0  0
   -7.4356    0.4373   -1.0083 H   0  0  0  0  0  0  0  0  0  0  0  0
   -5.2782    0.4099   -0.8719 C   0  0  0  0  0  0  0  0  0  0  0  0
   -5.1696    1.5015   -0.9077 H   0  0  0  0  0  0  0  0  0  0  0  0
   -4.1695   -0.4430   -0.7618 C   0  0  0  0  0  0  0  0  0  0  0  0
   -2.7505   -3.8017   -0.5362 C   0  0  0  0  0  0  0  0  0  0  0  0
   -1.6542   -3.9393   -0.5119 H   0  0  0  0  0  0  0  0  0  0  0  0
   -3.1636   -4.3287   -1.4189 H   0  0  0  0  0  0  0  0  0  0  0  0
   -3.1942   -4.2316    0.3837 H   0  0  0  0  0  0  0  0  0  0  0  0
   -2.1660    1.1094   -0.7650 C   0  0  0  0  0  0  0  0  0  0  0  0
   -2.4350    1.5791   -1.7329 H   0  0  0  0  0  0  0  0  0  0  0  0
   -1.0708    0.9316   -0.7783 H   0  0  0  0  0  0  0  0  0  0  0  0
   -2.5390    2.0477    0.3671 C   0  0  0  0  0  0  0  0  0  0  0  0
   -3.1932    3.2584    0.0904 C   0  0  0  0  0  0  0  0  0  0  0  0
   -3.4347    3.5078   -0.9550 H   0  0  0  0  0  0  0  0  0  0  0  0
   -3.5396    4.1531    1.1153 C   0  0  0  0  0  0  0  0  0  0  0  0
   -4.0523    5.0943    0.8677 H   0  0  0  0  0  0  0  0  0  0  0  0
   -3.2376    3.8457    2.4505 C   0  0  0  0  0  0  0  0  0  0  0  0
   -3.5144    4.5397    3.2572 H   0  0  0  0  0  0  0  0  0  0  0  0
   -2.5749    2.6515    2.7565 C   0  0  0  0  0  0  0  0  0  0  0  0
   -2.3193    2.4013    3.7959 H   0  0  0  0  0  0  0  0  0  0  0  0
   -2.2173    1.7554    1.7228 C   0  0  0  0  0  0  0  0  0  0  0  0
   -1.4803    0.5724    2.0533 C   0  0  0  0  0  0  0  0  0  0  0  0
  1  4  1  0  0  0  0
  1 15  1  0  0  0  0
  2  4  1  0  0  0  0
  5  1  1  0  0  0  0
  6  7  1  0  0  0  0
  6  5  1  0  0  0  0
  8  6  2  0  0  0  0
  9  8  1  0  0  0  0
 10 12  2  0  0  0  0
 10  8  1  0  0  0  0
 11 10  1  0  0  0  0
 12 14  1  0  0  0  0
 13 12  1  0  0  0  0
 14  5  2  0  0  0  0
 14  2  1  0  0  0  0
 15 16  1  0  0  0  0
 15 18  1  0  0  0  0
 17 15  1  0  0  0  0
 19  2  1  0  0  0  0
 19 22  1  0  0  0  0
 20 19  1  0  0  0  0
 21 19  1  0  0  0  0
 22 31  1  0  0  0  0
 23 22  2  0  0  0  0
 23 25  1  0  0  0  0
 24 23  1  0  0  0  0
 25 27  2  0  0  0  0
 26 25  1  0  0  0  0
 27 29  1  0  0  0  0
 27 28  1  0  0  0  0
 29 30  1  0  0  0  0
 31 32  1  0  0  0  0
 31 29  2  0  0  0  0
 32  3  3  0  0  0  0
M  END
