1
q = -1.0

  9  8  0  0  0  0  0  0  0  0999 V2000
   -1.2251   -0.8305    1.3837 C   0  0  0  0  0  3  0  0  0  0  0  0
   -2.0792   -1.6930    1.8800 C   0  0  0  0  0  0  0  0  0  0  0  0
   -2.9698   -2.5812    2.3050 C   0  0  0  0  0  0  0  0  0  0  0  0
   -4.4655   -2.4071    2.2225 C   0  0  0  0  0  0  0  0  0  0  0  0
   -4.7312   -1.4317    1.7721 H   0  0  0  0  0  0  0  0  0  0  0  0
   -4.9402   -2.4667    3.2262 H   0  0  0  0  0  0  0  0  0  0  0  0
   -4.9286   -3.2094    1.6068 H   0  0  0  0  0  0  0  0  0  0  0  0
   -0.8122   -0.0312    2.0260 H   0  0  0  0  0  0  0  0  0  0  0  0
   -2.6028   -3.5256    2.7540 H   0  0  0  0  0  0  0  0  0  0  0  0
  1  2  2  0  0  0  0
  1  8  1  0  0  0  0
  2  3  2  0  0  0  0
  3  9  1  0  0  0  0
  4  3  1  0  0  0  0
  4  6  1  0  0  0  0
  5  4  1  0  0  0  0
  7  4  1  0  0  0  0
M  END
