15
q = -2.0, confidence = 0.718

 51 54  0  0  1  0  0  0  0  0999 V2000
    1.4129    0.5538    1.8307 C   0  0  0  0  0  0  0  0  0  0  0  0
    1.4190    1.8147    1.1532 C   0  0  0  0  0  3  0  0  0  0  0  0
    0.9788    2.7327    1.5603 H   0  0  0  0  0  0  0  0  0  0  0  0
    2.0131    1.6983   -0.1367 C   0  0  0  0  0  0  0  0  0  0  0  0
    2.4974    0.3409   -0.2366 C   0  0  0  0  0  0  0  0  0  0  0  0
    2.1499   -0.3634    0.9824 C   0  0  0  0  0  0  0  0  0  0  0  0
    2.6412   -1.6875    1.1877 C   0  0  0  0  0  0  0  0  0  0  0  0
    2.4396   -2.2170    2.1302 H   0  0  0  0  0  0  0  0  0  0  0  0
    3.4240   -2.2782    0.2065 C   0  0  0  0  0  0  0  0  0  0  0  0
    3.8259   -3.2897    0.3679 H   0  0  0  0  0  0  0  0  0  0  0  0
    3.7195   -1.5993   -1.0141 C   0  0  0  0  0  0  0  0  0  0  0  0
    4.3290   -2.1081   -1.7758 H   0  0  0  0  0  0  0  0  0  0  0  0
    3.2603   -0.3121   -1.2477 C   0  0  0  0  0  0  0  0  0  0  0  0
    3.4945    0.2136   -2.1839 H   0  0  0  0  0  0  0  0  0  0  0  0
   -1.3506   -1.0229    1.5479 C   0  0  1  0  0  3  0  0  0  0  0  0
   -0.6396   -1.9467    0.7068 C   0  0  0  0  0  0  0  0  0  0  0  0
    0.2135   -2.5590    1.0207 H   0  0  0  0  0  0  0  0  0  0  0  0
   -1.1855   -1.9480   -0.6087 C   0  0  0  0  0  0  0  0  0  0  0  0
   -2.3146   -1.0450   -0.5870 C   0  0  0  0  0  0  0  0  0  0  0  0
   -2.4511   -0.5208    0.7559 C   0  0  0  0  0  0  0  0  0  0  0  0
   -3.2364   -0.6566   -1.6017 C   0  0  0  0  0  0  0  0  0  0  0  0
   -3.1142   -1.0256   -2.6300 H   0  0  0  0  0  0  0  0  0  0  0  0
   -4.2876    0.1792   -1.2590 C   0  0  0  0  0  0  0  0  0  0  0  0
   -5.0140    0.4850   -2.0267 H   0  0  0  0  0  0  0  0  0  0  0  0
   -4.4544    0.6480    0.0796 C   0  0  0  0  0  0  0  0  0  0  0  0
   -5.3130    1.2951    0.3144 H   0  0  0  0  0  0  0  0  0  0  0  0
   -3.5545    0.3158    1.0799 C   0  0  0  0  0  0  0  0  0  0  0  0
   -3.6805    0.7018    2.1019 H   0  0  0  0  0  0  0  0  0  0  0  0
    1.0396    0.3444    3.2751 C   0  0  0  0  0  0  0  0  0  0  0  0
    0.5161    1.2552    3.6364 H   0  0  0  0  0  0  0  0  0  0  0  0
    1.9841    0.2868    3.8624 H   0  0  0  0  0  0  0  0  0  0  0  0
    0.1845   -0.8852    3.6190 C   0  0  0  0  0  0  0  0  0  0  0  0
    0.6977   -1.8169    3.3007 H   0  0  0  0  0  0  0  0  0  0  0  0
    0.1111   -0.9533    4.7243 H   0  0  0  0  0  0  0  0  0  0  0  0
   -1.2324   -0.8533    3.0394 C   0  0  0  0  0  0  0  0  0  0  0  0
   -1.8329   -1.6560    3.5245 H   0  0  0  0  0  0  0  0  0  0  0  0
   -1.7211    0.1007    3.3333 H   0  0  0  0  0  0  0  0  0  0  0  0
    2.2563    2.7828   -1.1535 C   0  0  0  0  0  0  0  0  0  0  0  0
    1.7783    2.4870   -2.1128 H   0  0  0  0  0  0  0  0  0  0  0  0
    3.3494    2.8055   -1.3648 H   0  0  0  0  0  0  0  0  0  0  0  0
    1.7782    4.1719   -0.7335 C   0  0  0  0  0  0  0  0  0  0  0  0
    0.6843    4.1774   -0.5575 H   0  0  0  0  0  0  0  0  0  0  0  0
    1.9992    4.9169   -1.5228 H   0  0  0  0  0  0  0  0  0  0  0  0
    2.2782    4.5108    0.1973 H   0  0  0  0  0  0  0  0  0  0  0  0
   -0.8209   -2.8359   -1.7651 C   0  0  0  0  0  0  0  0  0  0  0  0
   -0.9218   -2.2505   -2.7028 H   0  0  0  0  0  0  0  0  0  0  0  0
   -1.5910   -3.6393   -1.8219 H   0  0  0  0  0  0  0  0  0  0  0  0
    0.5748   -3.4494   -1.6980 C   0  0  0  0  0  0  0  0  0  0  0  0
    1.3507   -2.6587   -1.6951 H   0  0  0  0  0  0  0  0  0  0  0  0
    0.7597   -4.1031   -2.5729 H   0  0  0  0  0  0  0  0  0  0  0  0
    0.7174   -4.0659   -0.7869 H   0  0  0  0  0  0  0  0  0  0  0  0
  1 29  1  0  0  0  0
  2  3  1  0  0  0  0
  2  1  1  0  0  0  0
  4  2  1  0  0  0  0
  5  4  2  0  0  0  0
  5  6  1  0  0  0  0
  6  7  1  0  0  0  0
  6  1  2  0  0  0  0
  7  8  1  0  0  0  0
  9 10  1  0  0  0  0
  9  7  2  0  0  0  0
 11  9  1  0  0  0  0
 12 11  1  0  0  0  0
 13 11  2  0  0  0  0
 13  5  1  0  0  0  0
 14 13  1  0  0  0  0
 15 35  1  1  0  0  0
 16 17  1  0  0  0  0
 16 15  1  0  0  0  0
 18 19  1  0  0  0  0
 18 16  2  0  0  0  0
 19 20  1  0  0  0  0
 20 27  2  0  0  0  0
 20 15  1  0  0  0  0
 21 23  1  0  0  0  0
 21 19  2  0  0  0  0
 22 21  1  0  0  0  0
 23 25  2  0  0  0  0
 24 23  1  0  0  0  0
 25 26  1  0  0  0  0
 25 27  1  0  0  0  0
 27 28  1  0  0  0  0
 29 32  1  0  0  0  0
 29 30  1  0  0  0  0
 29 31  1  0  0  0  0
 32 34  1  0  0  0  0
 33 32  1  0  0  0  0
 35 37  1  0  0  0  0
 35 36  1  0  0  0  0
 35 32  1  0  0  0  0
 38 41  1  0  0  0  0
 38  4  1  0  0  0  0
 39 38  1  0  0  0  0
 40 38  1  0  0  0  0
 41 42  1  0  0  0  0
 41 44  1  0  0  0  0
 43 41  1  0  0  0  0
 45 48  1  0  0  0  0
 45 18  1  0  0  0  0
 46 45  1  0  0  0  0
 47 45  1  0  0  0  0
 48 49  1  0  0  0  0
 48 51  1  0  0  0  0
 50 48  1  0  0  0  0
M  END
