10
q = -1.0, confidence = 0.012

 30 33  0  0  0  0  0  0  0  0999 V2000
    1.2538    1.2439   -1.2784 C   0  0  0  0  0  0  0  0  0  0  0  0
    0.6706   -0.0208   -1.5848 C   0  0  0  0  0  0  0  0  0  0  0  0
    1.2720   -1.2367   -1.0492 C   0  0  0  0  0  0  0  0  0  0  0  0
   -0.4815   -0.4099   -2.3694 C   0  0  0  0  0  3  0  0  0  0  0  0
    2.4012    1.3006   -0.4896 C   0  0  0  0  0  0  0  0  0  0  0  0
    2.4156   -1.1347   -0.2030 C   0  0  0  0  0  0  0  0  0  0  0  0
    2.9779    0.1161    0.0498 C   0  0  0  0  0  0  0  0  0  0  0  0
    0.4833   -2.3603   -1.5124 C   0  0  0  0  0  3  0  0  0  0  0  0
    0.8076    2.6198   -1.7028 C   0  0  0  0  0  0  0  0  0  0  0  0
   -0.5503   -1.8426   -2.3578 C   0  0  0  0  0  3  0  0  0  0  0  0
    2.8431    2.7368   -0.3131 C   0  0  0  0  0  0  0  0  0  0  0  0
    3.1764   -2.2315    0.4984 C   0  0  0  0  0  0  0  0  0  0  0  0
    4.1896   -0.0281    0.9447 C   0  0  0  0  0  0  0  0  0  0  0  0
    1.5895    3.5430   -0.7364 C   0  0  0  0  0  0  0  0  0  0  0  0
    4.0200   -1.4495    1.5361 C   0  0  0  0  0  0  0  0  0  0  0  0
   -1.1224    0.2661   -2.9455 H   0  0  0  0  0  0  0  0  0  0  0  0
    0.6837   -3.4178   -1.3091 H   0  0  0  0  0  0  0  0  0  0  0  0
   -0.2907    2.7499   -1.6195 H   0  0  0  0  0  0  0  0  0  0  0  0
    1.0802    2.8039   -2.7681 H   0  0  0  0  0  0  0  0  0  0  0  0
   -1.2907   -2.4475   -2.8954 H   0  0  0  0  0  0  0  0  0  0  0  0
    3.7165    2.9533   -0.9708 H   0  0  0  0  0  0  0  0  0  0  0  0
    3.1749    2.9637    0.7219 H   0  0  0  0  0  0  0  0  0  0  0  0
    3.8194   -2.7844   -0.2249 H   0  0  0  0  0  0  0  0  0  0  0  0
    2.5078   -2.9832    0.9668 H   0  0  0  0  0  0  0  0  0  0  0  0
    4.2529    0.7606    1.7233 H   0  0  0  0  0  0  0  0  0  0  0  0
    5.1234    0.0568    0.3422 H   0  0  0  0  0  0  0  0  0  0  0  0
    0.9551    3.7180    0.1562 H   0  0  0  0  0  0  0  0  0  0  0  0
    1.8340    4.5299   -1.1754 H   0  0  0  0  0  0  0  0  0  0  0  0
    4.9829   -1.9411    1.7763 H   0  0  0  0  0  0  0  0  0  0  0  0
    3.4413   -1.3799    2.4811 H   0  0  0  0  0  0  0  0  0  0  0  0
  1  5  1  0  0  0  0
  2  1  2  0  0  0  0
  2  3  1  0  0  0  0
  3  6  2  0  0  0  0
  4 10  1  0  0  0  0
  4  2  1  0  0  0  0
  5 11  1  0  0  0  0
  5  7  2  0  0  0  0
  6  7  1  0  0  0  0
  6 12  1  0  0  0  0
  7 13  1  0  0  0  0
  8 17  1  0  0  0  0
  8  3  1  0  0  0  0
  9 18  1  0  0  0  0
  9  1  1  0  0  0  0
  9 14  1  0  0  0  0
 10  8  1  0  0  0  0
 11 22  1  0  0  0  0
 12 24  1  0  0  0  0
 12 15  1  0  0  0  0
 13 15  1  0  0  0  0
 13 25  1  0  0  0  0
 14 11  1  0  0  0  0
 14 27  1  0  0  0  0
 15 29  1  0  0  0  0
 15 30  1  0  0  0  0
 16  4  1  0  0  0  0
 19  9  1  0  0  0  0
 20 10  1  0  0  0  0
 21 11  1  0  0  0  0
 23 12  1  0  0  0  0
 26 13  1  0  0  0  0
 28 14  1  0  0  0  0
M  END
