36
q = -1.0, confidence = 0.0

 41 42  0  0  1  0  0  0  0  0999 V2000
    0.9388   -1.4210    0.1202 C   0  0  2  0  0  0  0  0  0  0  0  0
    2.0055   -1.7967   -0.9481 C   0  0  0  0  0  0  0  0  0  0  0  0
    2.5020   -2.7321   -0.6063 H   0  0  0  0  0  0  0  0  0  0  0  0
    1.5033   -2.0450   -1.9070 H   0  0  0  0  0  0  0  0  0  0  0  0
    3.0667   -0.7164   -1.1600 C   0  0  0  0  0  0  0  0  0  0  0  0
    2.5771    0.2142   -1.5217 H   0  0  0  0  0  0  0  0  0  0  0  0
    3.7572   -1.0402   -1.9645 H   0  0  0  0  0  0  0  0  0  0  0  0
    3.8406   -0.4263    0.1392 C   0  0  2  0  0  0  0  0  0  0  0  0
    4.2948   -1.3933    0.4650 H   0  0  0  0  0  0  0  0  0  0  0  0
    2.8362   -0.0102    1.2288 C   0  0  0  0  0  0  0  0  0  0  0  0
    3.3482    0.1029    2.2050 H   0  0  0  0  0  0  0  0  0  0  0  0
    2.4388    0.9941    0.9765 H   0  0  0  0  0  0  0  0  0  0  0  0
    1.6850   -1.0116    1.4137 C   0  0  0  0  0  0  0  0  0  0  0  0
    0.9496   -0.6311    2.1518 H   0  0  0  0  0  0  0  0  0  0  0  0
    2.1046   -1.9448    1.8493 H   0  0  0  0  0  0  0  0  0  0  0  0
    5.0431    0.5640   -0.0362 C   0  0  0  0  0  0  0  0  0  0  0  0
    6.0706   -0.0414   -1.0139 C   0  0  0  0  0  0  0  0  0  0  0  0
    6.4112   -1.0400   -0.6688 H   0  0  0  0  0  0  0  0  0  0  0  0
    6.9646    0.6109   -1.0913 H   0  0  0  0  0  0  0  0  0  0  0  0
    5.6602   -0.1568   -2.0366 H   0  0  0  0  0  0  0  0  0  0  0  0
    5.7505    0.7717    1.3181 C   0  0  0  0  0  0  0  0  0  0  0  0
    5.1154    1.3159    2.0445 H   0  0  0  0  0  0  0  0  0  0  0  0
    6.6779    1.3654    1.1833 H   0  0  0  0  0  0  0  0  0  0  0  0
    6.0361   -0.1991    1.7752 H   0  0  0  0  0  0  0  0  0  0  0  0
    4.5874    1.9333   -0.5766 C   0  0  0  0  0  0  0  0  0  0  0  0
    4.1315    1.8494   -1.5835 H   0  0  0  0  0  0  0  0  0  0  0  0
    5.4534    2.6215   -0.6622 H   0  0  0  0  0  0  0  0  0  0  0  0
    3.8470    2.4169    0.0922 H   0  0  0  0  0  0  0  0  0  0  0  0
    0.0772   -2.6672    0.4003 C   0  0  0  0  0  0  0  0  0  0  0  0
   -0.7102   -2.4421    1.1442 H   0  0  0  0  0  0  0  0  0  0  0  0
    0.7136   -3.4851    0.7949 H   0  0  0  0  0  0  0  0  0  0  0  0
   -0.4003   -3.0436   -0.5273 H   0  0  0  0  0  0  0  0  0  0  0  0
    0.0911   -0.2834   -0.4475 C   0  0  0  0  0  0  0  0  0  0  0  0
   -0.6638   -0.3551   -1.6545 C   0  0  0  0  0  0  0  0  0  0  0  0
   -0.8033   -1.2552   -2.2638 H   0  0  0  0  0  0  0  0  0  0  0  0
   -1.1701    0.9455   -1.9691 C   0  0  0  0  0  3  0  0  0  0  0  0
   -1.7708    1.2176   -2.8444 H   0  0  0  0  0  0  0  0  0  0  0  0
   -0.7124    1.8368   -0.9598 C   0  0  0  0  0  0  0  0  0  0  0  0
   -0.9450    2.9028   -0.8887 H   0  0  0  0  0  0  0  0  0  0  0  0
    0.0167    1.0825   -0.0084 C   0  0  0  0  0  0  0  0  0  0  0  0
    0.4178    1.4768    0.9293 H   0  0  0  0  0  0  0  0  0  0  0  0
  1 29  1  1  0  0  0
  1 13  1  0  0  0  0
  2  3  1  0  0  0  0
  2  1  1  0  0  0  0
  4  2  1  0  0  0  0
  5  2  1  0  0  0  0
  5  8  1  0  0  0  0
  6  5  1  0  0  0  0
  7  5  1  0  0  0  0
  8  9  1  1  0  0  0
  8 10  1  0  0  0  0
 10 13  1  0  0  0  0
 10 11  1  0  0  0  0
 12 10  1  0  0  0  0
 13 15  1  0  0  0  0
 13 14  1  0  0  0  0
 16  8  1  0  0  0  0
 16 21  1  0  0  0  0
 17 18  1  0  0  0  0
 17 16  1  0  0  0  0
 19 17  1  0  0  0  0
 20 17  1  0  0  0  0
 21 24  1  0  0  0  0
 21 22  1  0  0  0  0
 23 21  1  0  0  0  0
 25 16  1  0  0  0  0
 25 28  1  0  0  0  0
 26 25  1  0  0  0  0
 27 25  1  0  0  0  0
 29 31  1  0  0  0  0
 29 30  1  0  0  0  0
 32 29  1  0  0  0  0
 33 40  1  0  0  0  0
 33  1  1  0  0  0  0
 34 33  2  0  0  0  0
 35 34  1  0  0  0  0
 36 34  1  0  0  0  0
 36 38  1  0  0  0  0
 37 36  1  0  0  0  0
 38 39  1  0  0  0  0
 38 40  2  0  0  0  0
 40 41  1  0  0  0  0
M  END
