16
q = 0.0, confidence = 0.986

 71 73  0  0  1  0  0  0  0  0999 V2000
   -0.0056   -0.0702    0.0251 P   0  0  0  0  0  0  0  0  0  0  0  0
    2.8817    4.4388    1.2539 Cl  0  0  0  0  0  0  0  0  0  0  0  0
   -2.4990   -3.1448    4.4988 O   0  0  0  0  0  0  0  0  0  0  0  0
    5.7274   -1.8575   -0.6186 O   0  0  0  0  0  0  0  0  0  0  0  0
    0.2955    5.6873    1.7206 O   0  0  0  0  0  0  0  0  0  0  0  0
   -0.6406   -1.0262    1.4394 C   0  0  0  0  0  0  0  0  0  0  0  0
   -1.6231   -2.0077    1.1493 C   0  0  0  0  0  0  0  0  0  0  0  0
   -2.2261   -2.6829    2.2198 C   0  0  0  0  0  0  0  0  0  0  0  0
   -3.0016   -3.4424    2.0547 H   0  0  0  0  0  0  0  0  0  0  0  0
   -1.8492   -2.4205    3.5558 C   0  0  0  0  0  0  0  0  0  0  0  0
   -0.8618   -1.4503    3.8340 C   0  0  0  0  0  0  0  0  0  0  0  0
   -0.5651   -1.2155    4.8642 H   0  0  0  0  0  0  0  0  0  0  0  0
   -0.2741   -0.7569    2.7676 C   0  0  0  0  0  0  0  0  0  0  0  0
    0.4662    0.0311    2.9761 H   0  0  0  0  0  0  0  0  0  0  0  0
   -2.0086   -2.3358   -0.2719 C   0  0  1  0  0  3  0  0  0  0  0  0
   -0.9888   -2.7607   -1.1825 C   0  0  0  0  0  3  0  0  0  0  0  0
   -1.2807   -3.3510   -2.0663 H   0  0  0  0  0  0  0  0  0  0  0  0
    0.0470   -2.8963   -0.8283 H   0  0  0  0  0  0  0  0  0  0  0  0
   -3.4530   -2.7310   -0.4851 C   0  0  0  0  0  0  0  0  0  0  0  0
   -3.6781   -2.8155   -1.5635 H   0  0  0  0  0  0  0  0  0  0  0  0
   -4.1380   -1.9868   -0.0336 H   0  0  0  0  0  0  0  0  0  0  0  0
   -3.6477   -3.7121   -0.0007 H   0  0  0  0  0  0  0  0  0  0  0  0
    1.7509   -0.5894   -0.1678 C   0  0  0  0  0  0  0  0  0  0  0  0
    2.5762   -0.0948   -1.2173 C   0  0  0  0  0  0  0  0  0  0  0  0
    3.8967   -0.5600   -1.2800 C   0  0  0  0  0  0  0  0  0  0  0  0
    4.5793   -0.1892   -2.0585 H   0  0  0  0  0  0  0  0  0  0  0  0
    4.4402   -1.5070   -0.3868 C   0  0  0  0  0  0  0  0  0  0  0  0
    3.5814   -2.0246    0.6154 C   0  0  0  0  0  0  0  0  0  0  0  0
    2.2657   -1.5538    0.7199 C   0  0  0  0  0  0  0  0  0  0  0  0
    1.6357   -1.9769    1.5138 H   0  0  0  0  0  0  0  0  0  0  0  0
    2.0664    0.8657   -2.2787 C   0  0  0  0  0  0  0  0  0  0  0  0
    1.0867    1.2684   -1.9469 H   0  0  0  0  0  0  0  0  0  0  0  0
    1.7969    0.0979   -3.5854 C   0  0  0  0  0  0  0  0  0  0  0  0
    2.7380   -0.3054   -4.0143 H   0  0  0  0  0  0  0  0  0  0  0  0
    1.3208    0.7663   -4.3293 H   0  0  0  0  0  0  0  0  0  0  0  0
    1.0997   -0.7470   -3.4140 H   0  0  0  0  0  0  0  0  0  0  0  0
    2.9907    2.0705   -2.5065 C   0  0  0  0  0  0  0  0  0  0  0  0
    3.1786    2.6332   -1.5697 H   0  0  0  0  0  0  0  0  0  0  0  0
    2.5219    2.7672   -3.2297 H   0  0  0  0  0  0  0  0  0  0  0  0
    3.9722    1.7696   -2.9283 H   0  0  0  0  0  0  0  0  0  0  0  0
    0.0110    1.6745    0.5742 C   0  0  0  0  0  0  0  0  0  0  0  0
   -1.1914    2.3851    0.8316 C   0  0  0  0  0  0  0  0  0  0  0  0
   -1.0869    3.7323    1.2271 C   0  0  0  0  0  0  0  0  0  0  0  0
   -2.0133    4.2877    1.4247 H   0  0  0  0  0  0  0  0  0  0  0  0
    0.1486    4.3932    1.3626 C   0  0  0  0  0  0  0  0  0  0  0  0
    1.3334    3.6558    1.1099 C   0  0  0  0  0  0  0  0  0  0  0  0
    1.2570    2.3180    0.7286 C   0  0  0  0  0  0  0  0  0  0  0  0
    2.1934    1.7745    0.5458 H   0  0  0  0  0  0  0  0  0  0  0  0
   -2.5740    1.7488    0.7500 C   0  0  0  0  0  0  0  0  0  0  0  0
   -2.4604    0.7741    0.2266 H   0  0  0  0  0  0  0  0  0  0  0  0
   -3.5605    2.5732   -0.0889 C   0  0  0  0  0  0  0  0  0  0  0  0
   -3.7939    3.5501    0.3843 H   0  0  0  0  0  0  0  0  0  0  0  0
   -4.5170    2.0226   -0.1942 H   0  0  0  0  0  0  0  0  0  0  0  0
   -3.1548    2.7492   -1.1033 H   0  0  0  0  0  0  0  0  0  0  0  0
   -3.1301    1.4618    2.1564 C   0  0  0  0  0  0  0  0  0  0  0  0
   -2.4460    0.8214    2.7462 H   0  0  0  0  0  0  0  0  0  0  0  0
   -4.1081    0.9435    2.0842 H   0  0  0  0  0  0  0  0  0  0  0  0
   -3.2879    2.4042    2.7220 H   0  0  0  0  0  0  0  0  0  0  0  0
   -2.1828   -2.9249    5.8633 C   0  0  0  0  0  0  0  0  0  0  0  0
   -1.1149   -3.1491    6.0803 H   0  0  0  0  0  0  0  0  0  0  0  0
   -2.8211   -3.6144    6.4454 H   0  0  0  0  0  0  0  0  0  0  0  0
   -2.4013   -1.8791    6.1736 H   0  0  0  0  0  0  0  0  0  0  0  0
    6.6371   -2.1140    0.4509 C   0  0  0  0  0  0  0  0  0  0  0  0
    6.4325   -1.4603    1.3245 H   0  0  0  0  0  0  0  0  0  0  0  0
    7.6442   -1.8823    0.0534 H   0  0  0  0  0  0  0  0  0  0  0  0
    6.6072   -3.1720    0.7787 H   0  0  0  0  0  0  0  0  0  0  0  0
   -0.8681    6.4637    1.9525 C   0  0  0  0  0  0  0  0  0  0  0  0
   -1.5122    6.5196    1.0475 H   0  0  0  0  0  0  0  0  0  0  0  0
   -0.5151    7.4789    2.2097 H   0  0  0  0  0  0  0  0  0  0  0  0
   -1.4695    6.0627    2.7983 H   0  0  0  0  0  0  0  0  0  0  0  0
    4.0686   -3.3087    1.7028 Cl  0  0  0  0  0  0  0  0  0  0  0  0
  1 41  1  0  0  0  0
  1  6  1  0  0  0  0
  3 59  1  0  0  0  0
  4 27  1  0  0  0  0
  4 63  1  0  0  0  0
  5 67  1  0  0  0  0
  6 13  1  0  0  0  0
  7  6  2  0  0  0  0
  7  8  1  0  0  0  0
  8 10  2  0  0  0  0
  9  8  1  0  0  0  0
 10 11  1  0  0  0  0
 10  3  1  0  0  0  0
 11 12  1  0  0  0  0
 13 14  1  0  0  0  0
 13 11  2  0  0  0  0
 15 16  1  1  0  0  0
 15  7  1  0  0  0  0
 16 18  1  0  0  0  0
 17 16  1  0  0  0  0
 19 15  1  0  0  0  0
 19 21  1  0  0  0  0
 19 22  1  0  0  0  0
 20 19  1  0  0  0  0
 23  1  1  0  0  0  0
 23 29  1  0  0  0  0
 24 23  2  0  0  0  0
 25 24  1  0  0  0  0
 25 27  2  0  0  0  0
 26 25  1  0  0  0  0
 27 28  1  0  0  0  0
 28 29  2  0  0  0  0
 28 71  1  0  0  0  0
 29 30  1  0  0  0  0
 31 32  1  0  0  0  0
 31 24  1  0  0  0  0
 33 36  1  0  0  0  0
 33 31  1  0  0  0  0
 34 33  1  0  0  0  0
 35 33  1  0  0  0  0
 37 31  1  0  0  0  0
 37 38  1  0  0  0  0
 39 37  1  0  0  0  0
 40 37  1  0  0  0  0
 41 47  2  0  0  0  0
 41 42  1  0  0  0  0
 42 43  2  0  0  0  0
 43 45  1  0  0  0  0
 43 44  1  0  0  0  0
 45  5  1  0  0  0  0
 46  2  1  0  0  0  0
 46 45  2  0  0  0  0
 47 46  1  0  0  0  0
 48 47  1  0  0  0  0
 49 42  1  0  0  0  0
 49 55  1  0  0  0  0
 50 49  1  0  0  0  0
 51 52  1  0  0  0  0
 51 49  1  0  0  0  0
 53 51  1  0  0  0  0
 54 51  1  0  0  0  0
 55 58  1  0  0  0  0
 55 56  1  0  0  0  0
 57 55  1  0  0  0  0
 59 60  1  0  0  0  0
 59 62  1  0  0  0  0
 59 61  1  0  0  0  0
 63 66  1  0  0  0  0
 63 64  1  0  0  0  0
 65 63  1  0  0  0  0
 67 69  1  0  0  0  0
 67 70  1  0  0  0  0
 68 67  1  0  0  0  0
M  END
