5
q = -1.0

 21 21  0  0  1  0  0  0  0  0999 V2000
   -3.3210    0.1365    0.7541 O   0  0  0  0  0  0  0  0  0  0  0  0
   -3.9890   -1.6187   -0.6765 O   0  0  0  0  0  0  0  0  0  0  0  0
   -3.0323   -1.1590    0.2530 C   0  0  1  0  0  0  0  0  0  0  0  0
   -1.6952   -1.2646   -0.4631 C   0  0  0  0  0  3  0  0  0  0  0  0
   -1.3318   -0.1955   -1.3510 C   0  0  0  0  0  3  0  0  0  0  0  0
   -5.2581   -1.8702   -0.1070 C   0  0  0  0  0  0  0  0  0  0  0  0
   -3.0592   -1.8062    1.1606 H   0  0  0  0  0  0  0  0  0  0  0  0
   -1.4918   -2.3007   -0.7707 H   0  0  0  0  0  0  0  0  0  0  0  0
   -0.8366   -0.3357   -2.3226 H   0  0  0  0  0  0  0  0  0  0  0  0
   -5.9065   -2.2712   -0.9095 H   0  0  0  0  0  0  0  0  0  0  0  0
   -5.7228   -0.9456    0.3024 H   0  0  0  0  0  0  0  0  0  0  0  0
   -5.1997   -2.6205    0.7183 H   0  0  0  0  0  0  0  0  0  0  0  0
   -2.9569    1.2498   -0.0514 C   0  0  2  0  0  0  0  0  0  0  0  0
   -3.9147    1.5436   -1.0452 O   0  0  0  0  0  0  0  0  0  0  0  0
   -5.1316    2.0425   -0.5269 C   0  0  0  0  0  0  0  0  0  0  0  0
   -5.7877    2.2746   -1.3878 H   0  0  0  0  0  0  0  0  0  0  0  0
   -5.6432    1.3002    0.1259 H   0  0  0  0  0  0  0  0  0  0  0  0
   -4.9764    2.9742    0.0695 H   0  0  0  0  0  0  0  0  0  0  0  0
   -1.6425    1.0735   -0.7837 C   0  0  0  0  0  3  0  0  0  0  0  0
   -1.3526    1.9713   -1.3488 H   0  0  0  0  0  0  0  0  0  0  0  0
   -2.9110    2.0948    0.6749 H   0  0  0  0  0  0  0  0  0  0  0  0
  2  6  1  0  0  0  0
  2  3  1  0  0  0  0
  3  1  1  0  0  0  0
  3  7  1  1  0  0  0
  4  3  1  0  0  0  0
  5 19  1  0  0  0  0
  5  4  1  0  0  0  0
  6 11  1  0  0  0  0
  6 12  1  0  0  0  0
  8  4  1  0  0  0  0
  9  5  1  0  0  0  0
 10  6  1  0  0  0  0
 13 21  1  1  0  0  0
 13  1  1  0  0  0  0
 14 15  1  0  0  0  0
 14 13  1  0  0  0  0
 15 18  1  0  0  0  0
 15 17  1  0  0  0  0
 16 15  1  0  0  0  0
 19 13  1  0  0  0  0
 20 19  1  0  0  0  0
M  END
