4
q = -1.0

 61 65  0  0  1  0  0  0  0  0999 V2000
   -0.4754   -2.6485   -0.9299 N   0  0  0  0  0  0  0  0  0  0  0  0
    0.3434   -3.2552   -0.8181 H   0  0  0  0  0  0  0  0  0  0  0  0
   -0.4015    0.9942   -0.4694 C   0  0  0  0  0  0  0  0  0  0  0  0
    1.0054    0.6402   -0.4401 C   0  0  1  0  0  3  0  0  0  0  0  0
    1.1004   -0.8148   -0.5010 C   0  0  0  0  0  0  0  0  0  0  0  0
   -0.2411   -1.3451   -0.7052 C   0  0  0  0  0  0  0  0  0  0  0  0
   -1.1788   -0.2516   -0.5158 C   0  0  0  0  0  0  0  0  0  0  0  0
   -2.6626   -0.3068   -0.6052 C   0  0  0  0  0  0  0  0  0  0  0  0
   -3.3170    0.1949   -1.7507 C   0  0  0  0  0  0  0  0  0  0  0  0
   -2.7188    0.6230   -2.5691 H   0  0  0  0  0  0  0  0  0  0  0  0
   -4.7160    0.1579   -1.8428 C   0  0  0  0  0  0  0  0  0  0  0  0
   -5.2148    0.5556   -2.7397 H   0  0  0  0  0  0  0  0  0  0  0  0
   -5.4776   -0.3795   -0.7928 C   0  0  0  0  0  0  0  0  0  0  0  0
   -6.5755   -0.4066   -0.8653 H   0  0  0  0  0  0  0  0  0  0  0  0
   -4.8338   -0.8758    0.3529 C   0  0  0  0  0  0  0  0  0  0  0  0
   -5.4250   -1.2921    1.1826 H   0  0  0  0  0  0  0  0  0  0  0  0
   -3.4359   -0.8363    0.4510 C   0  0  0  0  0  0  0  0  0  0  0  0
   -2.9180   -1.2257    1.3421 H   0  0  0  0  0  0  0  0  0  0  0  0
    2.3387   -1.6171   -0.6489 C   0  0  0  0  0  0  0  0  0  0  0  0
    3.3607   -1.6102    0.3237 C   0  0  0  0  0  0  0  0  0  0  0  0
    3.2217   -1.0303    1.2454 H   0  0  0  0  0  0  0  0  0  0  0  0
    4.5411   -2.3380    0.1250 C   0  0  0  0  0  0  0  0  0  0  0  0
    5.3256   -2.3181    0.8964 H   0  0  0  0  0  0  0  0  0  0  0  0
    4.7201   -3.0979   -1.0422 C   0  0  0  0  0  0  0  0  0  0  0  0
    5.6451   -3.6750   -1.1912 H   0  0  0  0  0  0  0  0  0  0  0  0
    3.7107   -3.1182   -2.0167 C   0  0  0  0  0  0  0  0  0  0  0  0
    3.8434   -3.7043   -2.9390 H   0  0  0  0  0  0  0  0  0  0  0  0
    2.5328   -2.3804   -1.8251 C   0  0  0  0  0  0  0  0  0  0  0  0
    1.7571   -2.3767   -2.6064 H   0  0  0  0  0  0  0  0  0  0  0  0
    2.1470    1.5848   -0.5118 C   0  0  0  0  0  0  0  0  0  0  0  0
    3.1744    1.3768   -1.4567 C   0  0  0  0  0  0  0  0  0  0  0  0
    3.1406    0.4944   -2.1113 H   0  0  0  0  0  0  0  0  0  0  0  0
    4.2328    2.2910   -1.5687 C   0  0  0  0  0  0  0  0  0  0  0  0
    5.0282    2.1130   -2.3082 H   0  0  0  0  0  0  0  0  0  0  0  0
    4.2789    3.4237   -0.7425 C   0  0  0  0  0  0  0  0  0  0  0  0
    5.1123    4.1375   -0.8278 H   0  0  0  0  0  0  0  0  0  0  0  0
    3.2586    3.6387    0.1995 C   0  0  0  0  0  0  0  0  0  0  0  0
    3.2895    4.5211    0.8561 H   0  0  0  0  0  0  0  0  0  0  0  0
    2.2035    2.7267    0.3162 C   0  0  0  0  0  0  0  0  0  0  0  0
    1.4092    2.8847    1.0604 H   0  0  0  0  0  0  0  0  0  0  0  0
   -0.9655    2.3476   -0.6937 C   0  0  0  0  0  0  0  0  0  0  0  0
   -0.3793    3.1830   -1.6708 C   0  0  0  0  0  0  0  0  0  0  0  0
    0.5113    2.8375   -2.2147 H   0  0  0  0  0  0  0  0  0  0  0  0
   -0.9248    4.4427   -1.9554 C   0  0  0  0  0  0  0  0  0  0  0  0
   -0.4514    5.0798   -2.7178 H   0  0  0  0  0  0  0  0  0  0  0  0
   -2.0676    4.8875   -1.2735 C   0  0  0  0  0  0  0  0  0  0  0  0
   -2.4939    5.8780   -1.4939 H   0  0  0  0  0  0  0  0  0  0  0  0
   -2.6646    4.0599   -0.3090 C   0  0  0  0  0  0  0  0  0  0  0  0
   -3.5620    4.3978    0.2308 H   0  0  0  0  0  0  0  0  0  0  0  0
   -2.1217    2.8009   -0.0223 C   0  0  0  0  0  0  0  0  0  0  0  0
   -2.5981    2.1657    0.7356 H   0  0  0  0  0  0  0  0  0  0  0  0
   -1.7442   -3.3373   -1.1825 C   0  0  0  0  0  0  0  0  0  0  0  0
   -2.5134   -2.5515   -1.2974 H   0  0  0  0  0  0  0  0  0  0  0  0
   -1.6367   -4.1089   -2.5031 C   0  0  0  0  0  0  0  0  0  0  0  0
   -1.4034   -3.4290   -3.3465 H   0  0  0  0  0  0  0  0  0  0  0  0
   -2.5889   -4.6291   -2.7275 H   0  0  0  0  0  0  0  0  0  0  0  0
   -0.8393   -4.8806   -2.4484 H   0  0  0  0  0  0  0  0  0  0  0  0
   -2.1292   -4.2404   -0.0074 C   0  0  0  0  0  0  0  0  0  0  0  0
   -2.1607   -3.6627    0.9357 H   0  0  0  0  0  0  0  0  0  0  0  0
   -1.3822   -5.0517    0.1241 H   0  0  0  0  0  0  0  0  0  0  0  0
   -3.1156   -4.7114   -0.1908 H   0  0  0  0  0  0  0  0  0  0  0  0
  1  2  1  0  0  0  0
  1  6  1  0  0  0  0
  3  4  1  0  0  0  0
  4 30  1  6  0  0  0
  5  4  1  0  0  0  0
  6  7  1  0  0  0  0
  6  5  2  0  0  0  0
  7  3  2  0  0  0  0
  8  7  1  0  0  0  0
  8 17  1  0  0  0  0
  9  8  2  0  0  0  0
 10  9  1  0  0  0  0
 11  9  1  0  0  0  0
 11 13  2  0  0  0  0
 12 11  1  0  0  0  0
 13 15  1  0  0  0  0
 14 13  1  0  0  0  0
 15 17  2  0  0  0  0
 15 16  1  0  0  0  0
 17 18  1  0  0  0  0
 19  5  1  0  0  0  0
 19 20  1  0  0  0  0
 20 21  1  0  0  0  0
 22 20  2  0  0  0  0
 22 23  1  0  0  0  0
 24 22  1  0  0  0  0
 25 24  1  0  0  0  0
 26 28  1  0  0  0  0
 26 24  2  0  0  0  0
 27 26  1  0  0  0  0
 28 19  2  0  0  0  0
 29 28  1  0  0  0  0
 30 39  1  0  0  0  0
 31 30  2  0  0  0  0
 32 31  1  0  0  0  0
 33 31  1  0  0  0  0
 33 35  2  0  0  0  0
 34 33  1  0  0  0  0
 35 37  1  0  0  0  0
 36 35  1  0  0  0  0
 37 39  2  0  0  0  0
 37 38  1  0  0  0  0
 39 40  1  0  0  0  0
 41  3  1  0  0  0  0
 41 50  1  0  0  0  0
 42 41  2  0  0  0  0
 43 42  1  0  0  0  0
 44 42  1  0  0  0  0
 44 46  2  0  0  0  0
 45 44  1  0  0  0  0
 46 48  1  0  0  0  0
 47 46  1  0  0  0  0
 48 50  2  0  0  0  0
 48 49  1  0  0  0  0
 50 51  1  0  0  0  0
 52  1  1  0  0  0  0
 52 58  1  0  0  0  0
 53 52  1  0  0  0  0
 54 57  1  0  0  0  0
 54 52  1  0  0  0  0
 55 54  1  0  0  0  0
 56 54  1  0  0  0  0
 58 60  1  0  0  0  0
 58 59  1  0  0  0  0
 61 58  1  0  0  0  0
M  END
