6
q = -1.0, confidence = 0.002

 18 17  0  0  0  0  0  0  0  0999 V2000
   -0.4016    0.3305    3.0149 O   0  0  0  0  0  0  0  0  0  0  0  0
    2.2056   -1.8170   -0.2062 O   0  0  0  0  0  0  0  0  0  0  0  0
    3.3033   -0.2148    0.9600 O   0  0  0  0  0  0  0  0  0  0  0  0
    1.8514   -0.0731    3.5742 C   0  0  0  0  0  0  0  0  0  0  0  0
    0.8107   -0.0195    2.4985 C   0  0  0  0  0  0  0  0  0  0  0  0
    0.9358   -0.3199    1.1667 C   0  0  0  0  0  3  0  0  0  0  0  0
    2.1725   -0.8751    0.5889 C   0  0  0  0  0  0  0  0  0  0  0  0
    4.5589   -0.7503    0.4705 C   0  0  0  0  0  0  0  0  0  0  0  0
    5.0577   -1.9002    1.3285 C   0  0  0  0  0  0  0  0  0  0  0  0
   -1.0261    0.2295    2.2584 H   0  0  0  0  0  0  0  0  0  0  0  0
    1.5219   -0.7672    4.3747 H   0  0  0  0  0  0  0  0  0  0  0  0
    1.9452    0.9284    4.0432 H   0  0  0  0  0  0  0  0  0  0  0  0
    2.8372   -0.3755    3.1905 H   0  0  0  0  0  0  0  0  0  0  0  0
    4.4178   -1.0725   -0.5809 H   0  0  0  0  0  0  0  0  0  0  0  0
    5.2522    0.1127    0.4991 H   0  0  0  0  0  0  0  0  0  0  0  0
    4.3566   -2.7559    1.2827 H   0  0  0  0  0  0  0  0  0  0  0  0
    5.1810   -1.5909    2.3856 H   0  0  0  0  0  0  0  0  0  0  0  0
    6.0435   -2.2471    0.9588 H   0  0  0  0  0  0  0  0  0  0  0  0
  2  7  2  0  0  0  0
  4 12  1  0  0  0  0
  4 11  1  0  0  0  0
  5  1  1  0  0  0  0
  5  4  1  0  0  0  0
  6  5  2  0  0  0  0
  7  3  1  0  0  0  0
  7  6  1  0  0  0  0
  8 15  1  0  0  0  0
  8  3  1  0  0  0  0
  8  9  1  0  0  0  0
  9 17  1  0  0  0  0
 10  1  1  0  0  0  0
 13  4  1  0  0  0  0
 14  8  1  0  0  0  0
 16  9  1  0  0  0  0
 18  9  1  0  0  0  0
M  END
