2
q = -1.0, confidence = 0.0

 14 15  0  0  0  0  0  0  0  0999 V2000
    1.8086   -0.4135    0.6954 O   0  0  0  0  0  0  0  0  0  0  0  0
    1.2794    0.8125    0.1844 C   0  0  0  0  0  3  0  0  0  0  0  0
    3.1666   -0.3665    0.6362 C   0  0  0  0  0  0  0  0  0  0  0  0
    2.3773    1.5887   -0.1944 C   0  0  0  0  0  0  0  0  0  0  0  0
    4.0537   -1.3637    1.0537 C   0  0  0  0  0  0  0  0  0  0  0  0
    3.5897    0.8667    0.0661 C   0  0  0  0  0  0  0  0  0  0  0  0
    5.4239   -1.1096    0.8782 C   0  0  0  0  0  0  0  0  0  0  0  0
    4.9753    1.0982   -0.0968 C   0  0  0  0  0  0  0  0  0  0  0  0
    5.8759    0.1062    0.3111 C   0  0  0  0  0  0  0  0  0  0  0  0
    2.3098    2.5874   -0.6375 H   0  0  0  0  0  0  0  0  0  0  0  0
    3.6860   -2.3035    1.4907 H   0  0  0  0  0  0  0  0  0  0  0  0
    6.1584   -1.8696    1.1854 H   0  0  0  0  0  0  0  0  0  0  0  0
    5.3385    2.0418   -0.5323 H   0  0  0  0  0  0  0  0  0  0  0  0
    6.9575    0.2719    0.1910 H   0  0  0  0  0  0  0  0  0  0  0  0
  2  1  1  0  0  0  0
  3  1  1  0  0  0  0
  3  5  1  0  0  0  0
  4  6  1  0  0  0  0
  4  2  2  0  0  0  0
  5 11  1  0  0  0  0
  6  3  2  0  0  0  0
  7  5  2  0  0  0  0
  7 12  1  0  0  0  0
  8  6  1  0  0  0  0
  8  9  2  0  0  0  0
  9  7  1  0  0  0  0
 10  4  1  0  0  0  0
 13  8  1  0  0  0  0
 14  9  1  0  0  0  0
M  END
