21
q = 0.0, confidence = 0.988

 47 47  0  0  1  0  0  0  0  0999 V2000
   -0.6720   -0.2112   -0.5028 C   0  0  1  0  0  3  0  0  0  0  0  0
    0.4335    0.7754   -0.4617 C   0  0  0  0  0  0  0  0  0  0  0  0
    0.2778    1.9343   -1.1963 O   0  0  0  0  0  0  0  0  0  0  0  0
   -0.7671    2.8449   -0.8383 C   0  0  0  0  0  0  0  0  0  0  0  0
    1.6592    0.5817    0.1173 C   0  0  0  0  0  0  0  0  0  0  0  0
    2.0966   -0.7409    0.6585 C   0  0  0  0  0  0  0  0  0  0  0  0
    2.4812   -0.9472    1.9104 C   0  0  0  0  0  0  0  0  0  0  0  0
    2.8246   -1.2022    3.0102 O   0  0  0  0  0  0  0  0  0  0  0  0
    2.6107   -2.1650   -0.5116 Si  0  0  0  0  0  0  0  0  0  0  0  0
    3.5825   -1.3795   -1.9286 C   0  0  0  0  0  0  0  0  0  0  0  0
    3.6946   -3.3682    0.4646 C   0  0  0  0  0  0  0  0  0  0  0  0
    1.1299   -3.0983   -1.2241 C   0  0  0  0  0  0  0  0  0  0  0  0
    2.9285    2.0212    0.0721 Si  0  0  0  0  0  0  0  0  0  0  0  0
    3.4128    2.4756   -1.7008 C   0  0  0  0  0  0  0  0  0  0  0  0
    4.4769    1.4420    0.9977 C   0  0  0  0  0  0  0  0  0  0  0  0
    2.2361    3.5403    0.9700 C   0  0  0  0  0  0  0  0  0  0  0  0
   -1.5108   -0.3153   -1.6512 C   0  0  0  0  0  0  0  0  0  0  0  0
   -2.5120   -1.3297   -1.7445 C   0  0  0  0  0  0  0  0  0  0  0  0
   -2.7143   -2.2229   -0.6651 C   0  0  0  0  0  0  0  0  0  0  0  0
   -1.9132   -2.1087    0.5144 C   0  0  0  0  0  0  0  0  0  0  0  0
   -0.9317   -1.0960    0.6047 C   0  0  0  0  0  3  0  0  0  0  0  0
   -1.3639    0.3946   -2.4768 H   0  0  0  0  0  0  0  0  0  0  0  0
   -3.1575   -1.3804   -2.6318 H   0  0  0  0  0  0  0  0  0  0  0  0
   -3.5153   -2.9734   -0.7155 H   0  0  0  0  0  0  0  0  0  0  0  0
   -2.1063   -2.7619    1.3762 H   0  0  0  0  0  0  0  0  0  0  0  0
   -0.3551   -0.9725    1.5278 H   0  0  0  0  0  0  0  0  0  0  0  0
   -0.7948    3.0136    0.2579 H   0  0  0  0  0  0  0  0  0  0  0  0
   -0.5278    3.7976   -1.3482 H   0  0  0  0  0  0  0  0  0  0  0  0
   -1.7629    2.4954   -1.1736 H   0  0  0  0  0  0  0  0  0  0  0  0
    2.9615   -0.6307   -2.4602 H   0  0  0  0  0  0  0  0  0  0  0  0
    4.4943   -0.8694   -1.5585 H   0  0  0  0  0  0  0  0  0  0  0  0
    3.8914   -2.1537   -2.6610 H   0  0  0  0  0  0  0  0  0  0  0  0
    3.1475   -3.8184    1.3180 H   0  0  0  0  0  0  0  0  0  0  0  0
    4.0261   -4.1961   -0.1954 H   0  0  0  0  0  0  0  0  0  0  0  0
    4.5997   -2.8688    0.8657 H   0  0  0  0  0  0  0  0  0  0  0  0
    0.5210   -3.5666   -0.4259 H   0  0  0  0  0  0  0  0  0  0  0  0
    0.4671   -2.4374   -1.8158 H   0  0  0  0  0  0  0  0  0  0  0  0
    1.4997   -3.9033   -1.8939 H   0  0  0  0  0  0  0  0  0  0  0  0
    3.9410    1.6398   -2.2013 H   0  0  0  0  0  0  0  0  0  0  0  0
    2.5103    2.7220   -2.2929 H   0  0  0  0  0  0  0  0  0  0  0  0
    4.0895    3.3553   -1.7010 H   0  0  0  0  0  0  0  0  0  0  0  0
    4.9208    0.5411    0.5276 H   0  0  0  0  0  0  0  0  0  0  0  0
    5.2425    2.2454    0.9811 H   0  0  0  0  0  0  0  0  0  0  0  0
    4.2694    1.1991    2.0597 H   0  0  0  0  0  0  0  0  0  0  0  0
    1.8213    3.2641    1.9607 H   0  0  0  0  0  0  0  0  0  0  0  0
    3.0476    4.2792    1.1356 H   0  0  0  0  0  0  0  0  0  0  0  0
    1.4372    4.0406    0.3897 H   0  0  0  0  0  0  0  0  0  0  0  0
  1  2  1  6  0  0  0
  1 21  1  0  0  0  0
  2  5  2  0  0  0  0
  3  4  1  0  0  0  0
  3  2  1  0  0  0  0
  4 27  1  0  0  0  0
  5  6  1  0  0  0  0
  6  7  2  0  0  0  0
  7  8  2  0  0  0  0
  9 11  1  0  0  0  0
  9  6  1  0  0  0  0
 10 31  1  0  0  0  0
 10  9  1  0  0  0  0
 11 35  1  0  0  0  0
 11 33  1  0  0  0  0
 12  9  1  0  0  0  0
 12 36  1  0  0  0  0
 13  5  1  0  0  0  0
 13 16  1  0  0  0  0
 13 15  1  0  0  0  0
 14 13  1  0  0  0  0
 15 44  1  0  0  0  0
 16 46  1  0  0  0  0
 16 45  1  0  0  0  0
 17  1  1  0  0  0  0
 18 17  2  0  0  0  0
 18 19  1  0  0  0  0
 19 20  2  0  0  0  0
 20 21  1  0  0  0  0
 20 25  1  0  0  0  0
 21 26  1  0  0  0  0
 22 17  1  0  0  0  0
 23 18  1  0  0  0  0
 24 19  1  0  0  0  0
 28  4  1  0  0  0  0
 29  4  1  0  0  0  0
 30 10  1  0  0  0  0
 32 10  1  0  0  0  0
 34 11  1  0  0  0  0
 37 12  1  0  0  0  0
 38 12  1  0  0  0  0
 39 14  1  0  0  0  0
 40 14  1  0  0  0  0
 41 14  1  0  0  0  0
 42 15  1  0  0  0  0
 43 15  1  0  0  0  0
 47 16  1  0  0  0  0
M  END
