4
q = -1.0

 17 17  0  0  0  0  0  0  0  0999 V2000
    1.5420   -0.9968    0.1553 S   0  0  0  0  0  0  0  0  0  0  0  0
    1.6011   -2.4436   -0.2082 O   0  0  0  0  0  0  0  0  0  0  0  0
    1.0073   -0.6058    1.4914 O   0  0  0  0  0  0  0  0  0  0  0  0
    0.6071   -0.1366   -1.1334 C   0  0  0  0  0  3  0  0  0  0  0  0
    3.2111   -0.3209    0.0440 C   0  0  0  0  0  0  0  0  0  0  0  0
    4.2455   -1.1435   -0.4200 C   0  0  0  0  0  0  0  0  0  0  0  0
    5.5464   -0.6194   -0.4771 C   0  0  0  0  0  0  0  0  0  0  0  0
    5.7888    0.7059   -0.0809 C   0  0  0  0  0  0  0  0  0  0  0  0
    4.7351    1.5156    0.3794 C   0  0  0  0  0  0  0  0  0  0  0  0
    3.4318    1.0048    0.4531 C   0  0  0  0  0  0  0  0  0  0  0  0
    0.5205   -0.8393   -1.9844 H   0  0  0  0  0  0  0  0  0  0  0  0
    1.1384    0.7917   -1.4109 H   0  0  0  0  0  0  0  0  0  0  0  0
    4.0147   -2.1765   -0.7191 H   0  0  0  0  0  0  0  0  0  0  0  0
    6.3750   -1.2503   -0.8330 H   0  0  0  0  0  0  0  0  0  0  0  0
    6.8099    1.1137   -0.1308 H   0  0  0  0  0  0  0  0  0  0  0  0
    4.9309    2.5533    0.6887 H   0  0  0  0  0  0  0  0  0  0  0  0
    2.5906    1.6217    0.8065 H   0  0  0  0  0  0  0  0  0  0  0  0
  1  3  2  0  0  0  0
  2  1  2  0  0  0  0
  4  1  1  0  0  0  0
  5  1  1  0  0  0  0
  5 10  1  0  0  0  0
  6  5  2  0  0  0  0
  7  6  1  0  0  0  0
  7  8  2  0  0  0  0
  8  9  1  0  0  0  0
  9 10  2  0  0  0  0
  9 16  1  0  0  0  0
 10 17  1  0  0  0  0
 11  4  1  0  0  0  0
 12  4  1  0  0  0  0
 13  6  1  0  0  0  0
 14  7  1  0  0  0  0
 15  8  1  0  0  0  0
M  END
