3
q = -1.0, confidence = 0.0

 17 17  0  0  0  0  0  0  0  0999 V2000
    0.7200   -0.5326    2.0770 S   0  0  0  0  0  0  0  0  0  0  0  0
    3.4081   -0.8122    2.2385 O   0  0  0  0  0  0  0  0  0  0  0  0
    1.4634    0.8797   -0.3529 C   0  0  0  0  0  3  0  0  0  0  0  0
    2.6255    0.6077    0.4345 C   0  0  0  0  0  0  0  0  0  0  0  0
    3.9123    1.0838    0.0762 C   0  0  0  0  0  0  0  0  0  0  0  0
    4.7635    0.8193    0.7222 H   0  0  0  0  0  0  0  0  0  0  0  0
    4.0772    1.8546   -1.0706 C   0  0  0  0  0  0  0  0  0  0  0  0
    5.0700    2.2345   -1.3535 H   0  0  0  0  0  0  0  0  0  0  0  0
    2.9512    2.1169   -1.8797 C   0  0  0  0  0  0  0  0  0  0  0  0
    3.0709    2.6953   -2.8098 H   0  0  0  0  0  0  0  0  0  0  0  0
    1.6844    1.6342   -1.5320 C   0  0  0  0  0  0  0  0  0  0  0  0
    0.8453    1.8161   -2.2182 H   0  0  0  0  0  0  0  0  0  0  0  0
    2.5359   -0.2706    1.5960 C   0  0  0  0  0  0  0  0  0  0  0  0
    0.8053   -2.3212    2.4233 C   0  0  0  0  0  0  0  0  0  0  0  0
    0.7624   -2.8807    1.4680 H   0  0  0  0  0  0  0  0  0  0  0  0
   -0.0477   -2.5770    3.0773 H   0  0  0  0  0  0  0  0  0  0  0  0
    1.7656   -2.4871    2.9498 H   0  0  0  0  0  0  0  0  0  0  0  0
  1 14  1  0  0  0  0
  3  4  1  0  0  0  0
  4 13  1  0  0  0  0
  5  4  2  0  0  0  0
  5  6  1  0  0  0  0
  7  5  1  0  0  0  0
  8  7  1  0  0  0  0
  9 11  1  0  0  0  0
  9  7  2  0  0  0  0
 10  9  1  0  0  0  0
 11  3  2  0  0  0  0
 12 11  1  0  0  0  0
 13  1  1  0  0  0  0
 13  2  2  0  0  0  0
 14 17  1  0  0  0  0
 14 16  1  0  0  0  0
 15 14  1  0  0  0  0
M  END
