4
q = 0.0, confidence = 0.998

 47 49  0  0  0  0  0  0  0  0999 V2000
   -3.2257    3.5127    0.9600 O   0  0  0  0  0  0  0  0  0  0  0  0
   -1.4203   -1.5545   -0.6696 N   0  0  0  0  0  0  0  0  0  0  0  0
   -2.3437   -0.0242    0.6018 N   0  0  0  0  0  0  0  0  0  0  0  0
   -1.2167   -0.3177   -0.1213 C   0  0  0  0  0  2  0  0  0  0  0  0
   -2.6784   -2.0460   -0.3188 C   0  0  0  0  0  0  0  0  0  0  0  0
   -3.3496   -3.2400   -0.6181 C   0  0  0  0  0  0  0  0  0  0  0  0
   -2.8981   -4.0115   -1.2572 H   0  0  0  0  0  0  0  0  0  0  0  0
   -4.6329   -3.4106   -0.0754 C   0  0  0  0  0  0  0  0  0  0  0  0
   -5.1878   -4.3350   -0.2928 H   0  0  0  0  0  0  0  0  0  0  0  0
   -5.2286   -2.4203    0.7356 C   0  0  0  0  0  0  0  0  0  0  0  0
   -6.2385   -2.5877    1.1377 H   0  0  0  0  0  0  0  0  0  0  0  0
   -4.5605   -1.2231    1.0360 C   0  0  0  0  0  0  0  0  0  0  0  0
   -5.0265   -0.4485    1.6609 H   0  0  0  0  0  0  0  0  0  0  0  0
   -3.2774   -1.0546    0.4989 C   0  0  0  0  0  0  0  0  0  0  0  0
   -2.5622    1.2611    1.2479 C   0  0  0  0  0  0  0  0  0  0  0  0
   -1.5804    1.6212    1.6131 H   0  0  0  0  0  0  0  0  0  0  0  0
   -3.2303    1.1195    2.1206 H   0  0  0  0  0  0  0  0  0  0  0  0
   -3.1426    2.2847    0.2728 C   0  0  0  0  0  0  0  0  0  0  0  0
   -2.4740    2.3474   -0.6210 H   0  0  0  0  0  0  0  0  0  0  0  0
   -4.1497    1.9497   -0.0873 H   0  0  0  0  0  0  0  0  0  0  0  0
   -3.6586    4.5669    0.1332 C   0  0  0  0  0  0  0  0  0  0  0  0
   -3.6801    5.4889    0.7465 H   0  0  0  0  0  0  0  0  0  0  0  0
   -4.6842    4.3877   -0.2743 H   0  0  0  0  0  0  0  0  0  0  0  0
   -2.9739    4.7274   -0.7345 H   0  0  0  0  0  0  0  0  0  0  0  0
   -0.4760   -2.2305   -1.5705 C   0  0  0  0  0  0  0  0  0  0  0  0
   -0.5714   -1.7582   -2.5658 H   0  0  0  0  0  0  0  0  0  0  0  0
   -0.8301   -3.2777   -1.6615 H   0  0  0  0  0  0  0  0  0  0  0  0
    0.9590   -2.1916   -1.0904 C   0  0  0  0  0  0  0  0  0  0  0  0
    1.9720   -1.6472   -1.9218 C   0  0  0  0  0  0  0  0  0  0  0  0
    3.2851   -1.5689   -1.4183 C   0  0  0  0  0  0  0  0  0  0  0  0
    4.0727   -1.1457   -2.0639 H   0  0  0  0  0  0  0  0  0  0  0  0
    3.6214   -2.0078   -0.1262 C   0  0  0  0  0  0  0  0  0  0  0  0
    2.6113   -2.6030    0.6485 C   0  0  0  0  0  0  0  0  0  0  0  0
    2.8538   -2.9782    1.6557 H   0  0  0  0  0  0  0  0  0  0  0  0
    1.2922   -2.7212    0.1834 C   0  0  0  0  0  0  0  0  0  0  0  0
    1.6828   -1.1566   -3.3199 C   0  0  0  0  0  0  0  0  0  0  0  0
    1.2735   -1.9611   -3.9662 H   0  0  0  0  0  0  0  0  0  0  0  0
    2.6091   -0.7914   -3.8043 H   0  0  0  0  0  0  0  0  0  0  0  0
    0.9453   -0.3225   -3.3160 H   0  0  0  0  0  0  0  0  0  0  0  0
    5.0106   -1.8272    0.4296 C   0  0  0  0  0  0  0  0  0  0  0  0
    5.7363   -1.5431   -0.3573 H   0  0  0  0  0  0  0  0  0  0  0  0
    5.3785   -2.7502    0.9222 H   0  0  0  0  0  0  0  0  0  0  0  0
    5.0157   -1.0291    1.2034 H   0  0  0  0  0  0  0  0  0  0  0  0
    0.2584   -3.3803    1.0616 C   0  0  0  0  0  0  0  0  0  0  0  0
   -0.4023   -4.0689    0.4956 H   0  0  0  0  0  0  0  0  0  0  0  0
   -0.4020   -2.6326    1.5466 H   0  0  0  0  0  0  0  0  0  0  0  0
    0.7423   -3.9613    1.8696 H   0  0  0  0  0  0  0  0  0  0  0  0
  2  5  1  0  0  0  0
  2  4  1  0  0  0  0
  3 15  1  0  0  0  0
  4  3  1  0  0  0  0
  5 14  1  0  0  0  0
  6  5  2  0  0  0  0
  6  8  1  0  0  0  0
  7  6  1  0  0  0  0
  8 10  2  0  0  0  0
  9  8  1  0  0  0  0
 10 12  1  0  0  0  0
 10 11  1  0  0  0  0
 12 13  1  0  0  0  0
 14  3  1  0  0  0  0
 14 12  2  0  0  0  0
 15 16  1  0  0  0  0
 15 17  1  0  0  0  0
 18  1  1  0  0  0  0
 18 15  1  0  0  0  0
 19 18  1  0  0  0  0
 20 18  1  0  0  0  0
 21 22  1  0  0  0  0
 21  1  1  0  0  0  0
 23 21  1  0  0  0  0
 24 21  1  0  0  0  0
 25 28  1  0  0  0  0
 25  2  1  0  0  0  0
 26 25  1  0  0  0  0
 27 25  1  0  0  0  0
 28 35  1  0  0  0  0
 29 30  1  0  0  0  0
 29 28  2  0  0  0  0
 30 32  2  0  0  0  0
 31 30  1  0  0  0  0
 32 40  1  0  0  0  0
 32 33  1  0  0  0  0
 33 34  1  0  0  0  0
 35 33  2  0  0  0  0
 35 44  1  0  0  0  0
 36 39  1  0  0  0  0
 36 29  1  0  0  0  0
 37 36  1  0  0  0  0
 38 36  1  0  0  0  0
 40 42  1  0  0  0  0
 40 43  1  0  0  0  0
 41 40  1  0  0  0  0
 44 46  1  0  0  0  0
 44 47  1  0  0  0  0
 45 44  1  0  0  0  0
M  END
