2
q = -1.0

 25 26  0  0  1  0  0  0  0  0999 V2000
   -1.6029    0.4904   -1.7456 C   0  0  0  0  0  3  0  0  0  0  0  0
   -1.1035   -0.8184   -2.0279 C   0  0  0  0  0  3  0  0  0  0  0  0
   -1.5086   -1.6404   -0.9118 C   0  0  0  0  0  3  0  0  0  0  0  0
   -2.8518   -1.1159   -0.3925 C   0  0  1  0  0  0  0  0  0  0  0  0
   -2.9633   -0.9413    1.1436 C   0  0  2  0  0  0  0  0  0  0  0  0
   -2.4433    0.4878    1.3271 C   0  0  0  0  0  0  0  0  0  0  0  0
   -3.1403    1.2812    0.2205 C   0  0  2  0  0  0  0  0  0  0  0  0
   -2.9283    0.3474   -0.9897 C   0  0  1  0  0  0  0  0  0  0  0  0
   -2.2961   -2.0276    1.9793 C   0  0  0  0  0  0  0  0  0  0  0  0
   -2.7017    2.7261    0.0227 C   0  0  0  0  0  0  0  0  0  0  0  0
   -1.3917    1.3528   -2.3946 H   0  0  0  0  0  0  0  0  0  0  0  0
   -0.4598   -1.1138   -2.8667 H   0  0  0  0  0  0  0  0  0  0  0  0
   -1.2415   -2.7048   -0.8433 H   0  0  0  0  0  0  0  0  0  0  0  0
   -3.6635   -1.7717   -0.7749 H   0  0  0  0  0  0  0  0  0  0  0  0
   -4.0457   -0.9094    1.4026 H   0  0  0  0  0  0  0  0  0  0  0  0
   -2.5366    0.9018    2.3522 H   0  0  0  0  0  0  0  0  0  0  0  0
   -1.3157    0.5094    1.1239 H   0  0  0  0  0  0  0  0  0  0  0  0
   -4.2263    1.2723    0.4672 H   0  0  0  0  0  0  0  0  0  0  0  0
   -3.7536    0.4598   -1.7264 H   0  0  0  0  0  0  0  0  0  0  0  0
   -1.2165   -2.1075    1.7379 H   0  0  0  0  0  0  0  0  0  0  0  0
   -2.3958   -1.8196    3.0640 H   0  0  0  0  0  0  0  0  0  0  0  0
   -2.7549   -3.0185    1.7866 H   0  0  0  0  0  0  0  0  0  0  0  0
   -1.6268    2.7802   -0.2358 H   0  0  0  0  0  0  0  0  0  0  0  0
   -3.2700    3.2082   -0.7984 H   0  0  0  0  0  0  0  0  0  0  0  0
   -2.8629    3.3279    0.9399 H   0  0  0  0  0  0  0  0  0  0  0  0
  1  8  1  0  0  0  0
  2  1  1  0  0  0  0
  2  3  1  0  0  0  0
  3 13  1  0  0  0  0
  3  4  1  0  0  0  0
  4 14  1  6  0  0  0
  4  5  1  0  0  0  0
  5  6  1  0  0  0  0
  5 15  1  1  0  0  0
  5  9  1  0  0  0  0
  6 16  1  0  0  0  0
  7 18  1  1  0  0  0
  7  6  1  0  0  0  0
  8 19  1  6  0  0  0
  8  4  1  0  0  0  0
  8  7  1  0  0  0  0
  9 21  1  0  0  0  0
 10  7  1  0  0  0  0
 10 25  1  0  0  0  0
 11  1  1  0  0  0  0
 12  2  1  0  0  0  0
 17  6  1  0  0  0  0
 20  9  1  0  0  0  0
 22  9  1  0  0  0  0
 23 10  1  0  0  0  0
 24 10  1  0  0  0  0
M  END
