1
q = 0.0, confidence = 1.0

 66 67  0  0  0  0  0  0  0  0999 V2000
    0.6003   -1.1689   -1.3133 C   0  0  0  0  0  3  0  0  0  0  0  0
   -2.0736   -0.4225    0.2202 P   0  0  0  0  0  0  0  0  0  0  0  0
    0.1272   -0.3550   -2.3756 C   0  0  0  0  0  3  0  0  0  0  0  0
   -0.8617   -0.5430   -2.8182 H   0  0  0  0  0  0  0  0  0  0  0  0
    0.8589    0.1568   -3.0203 H   0  0  0  0  0  0  0  0  0  0  0  0
    1.7589    0.4112    0.9974 P   0  0  0  0  0  0  0  0  0  0  0  0
   -1.5262   -2.1461   -0.2146 C   0  0  0  0  0  0  0  0  0  0  0  0
   -0.2410   -2.3228   -0.8097 C   0  0  0  0  0  0  0  0  0  0  0  0
   -2.3106   -3.2784    0.0905 C   0  0  0  0  0  0  0  0  0  0  0  0
   -3.3234   -3.1417    0.4968 H   0  0  0  0  0  0  0  0  0  0  0  0
   -1.8266   -4.5805   -0.0938 C   0  0  0  0  0  0  0  0  0  0  0  0
   -2.4507   -5.4471    0.1726 H   0  0  0  0  0  0  0  0  0  0  0  0
   -0.5328   -4.7585   -0.6037 C   0  0  0  0  0  0  0  0  0  0  0  0
   -0.1217   -5.7710   -0.7378 H   0  0  0  0  0  0  0  0  0  0  0  0
    0.2373   -3.6452   -0.9631 C   0  0  0  0  0  0  0  0  0  0  0  0
    1.2408   -3.8047   -1.3812 H   0  0  0  0  0  0  0  0  0  0  0  0
    2.7770   -0.7227   -0.0644 C   0  0  0  0  0  0  0  0  0  0  0  0
    2.0985   -1.3150   -1.1556 C   0  0  0  0  0  0  0  0  0  0  0  0
    4.1546   -0.9524    0.1183 C   0  0  0  0  0  0  0  0  0  0  0  0
    4.6758   -0.5041    0.9793 H   0  0  0  0  0  0  0  0  0  0  0  0
    4.8805   -1.7193   -0.8057 C   0  0  0  0  0  0  0  0  0  0  0  0
    5.9602   -1.8797   -0.6631 H   0  0  0  0  0  0  0  0  0  0  0  0
    4.2267   -2.2554   -1.9262 C   0  0  0  0  0  0  0  0  0  0  0  0
    4.7932   -2.8316   -2.6738 H   0  0  0  0  0  0  0  0  0  0  0  0
    2.8471   -2.0588   -2.0938 C   0  0  0  0  0  0  0  0  0  0  0  0
    2.3335   -2.4796   -2.9720 H   0  0  0  0  0  0  0  0  0  0  0  0
   -2.4648   -0.5090    2.0843 C   0  0  0  0  0  0  0  0  0  0  0  0
   -1.5864   -1.0800    2.4563 H   0  0  0  0  0  0  0  0  0  0  0  0
   -3.7847   -0.3867   -0.5931 C   0  0  0  0  0  0  0  0  0  0  0  0
   -4.3724   -1.2302   -0.1671 H   0  0  0  0  0  0  0  0  0  0  0  0
   -2.3728    0.9090    2.6674 C   0  0  0  0  0  0  0  0  0  0  0  0
   -3.2460    1.5292    2.3770 H   0  0  0  0  0  0  0  0  0  0  0  0
   -1.4608    1.4241    2.3024 H   0  0  0  0  0  0  0  0  0  0  0  0
   -2.3478    0.8753    3.7772 H   0  0  0  0  0  0  0  0  0  0  0  0
   -3.7392   -1.2231    2.5415 C   0  0  0  0  0  0  0  0  0  0  0  0
   -3.8068   -1.2060    3.6505 H   0  0  0  0  0  0  0  0  0  0  0  0
   -3.7681   -2.2851    2.2332 H   0  0  0  0  0  0  0  0  0  0  0  0
   -4.6548   -0.7284    2.1575 H   0  0  0  0  0  0  0  0  0  0  0  0
   -4.5123    0.9257   -0.2831 C   0  0  0  0  0  0  0  0  0  0  0  0
   -5.4945    0.9586   -0.8007 H   0  0  0  0  0  0  0  0  0  0  0  0
   -3.9214    1.7983   -0.6303 H   0  0  0  0  0  0  0  0  0  0  0  0
   -4.7019    1.0626    0.7992 H   0  0  0  0  0  0  0  0  0  0  0  0
   -3.6469   -0.6020   -2.1034 C   0  0  0  0  0  0  0  0  0  0  0  0
   -4.6436   -0.5793   -2.5924 H   0  0  0  0  0  0  0  0  0  0  0  0
   -3.1722   -1.5749   -2.3391 H   0  0  0  0  0  0  0  0  0  0  0  0
   -3.0271    0.1967   -2.5600 H   0  0  0  0  0  0  0  0  0  0  0  0
    1.8807   -0.5686    2.6259 C   0  0  0  0  0  0  0  0  0  0  0  0
    2.9726   -0.6772    2.8175 H   0  0  0  0  0  0  0  0  0  0  0  0
    2.9399    1.8624    1.3097 C   0  0  0  0  0  0  0  0  0  0  0  0
    3.7342    1.5139    2.0078 H   0  0  0  0  0  0  0  0  0  0  0  0
    1.2382    0.1537    3.8130 C   0  0  0  0  0  0  0  0  0  0  0  0
    0.1851    0.4239    3.5969 H   0  0  0  0  0  0  0  0  0  0  0  0
    1.7774    1.0809    4.0873 H   0  0  0  0  0  0  0  0  0  0  0  0
    1.2398   -0.5034    4.7084 H   0  0  0  0  0  0  0  0  0  0  0  0
    1.2804   -1.9634    2.4255 C   0  0  0  0  0  0  0  0  0  0  0  0
    1.3494   -2.5519    3.3642 H   0  0  0  0  0  0  0  0  0  0  0  0
    1.7964   -2.5298    1.6264 H   0  0  0  0  0  0  0  0  0  0  0  0
    0.2105   -1.9046    2.1401 H   0  0  0  0  0  0  0  0  0  0  0  0
    3.5726    2.3217   -0.0096 C   0  0  0  0  0  0  0  0  0  0  0  0
    2.7878    2.4618   -0.7811 H   0  0  0  0  0  0  0  0  0  0  0  0
    4.2981    1.5890   -0.4089 H   0  0  0  0  0  0  0  0  0  0  0  0
    4.0985    3.2899    0.1281 H   0  0  0  0  0  0  0  0  0  0  0  0
    2.1630    3.0138    1.9622 C   0  0  0  0  0  0  0  0  0  0  0  0
    1.3174    3.3163    1.3119 H   0  0  0  0  0  0  0  0  0  0  0  0
    2.8226    3.8950    2.1090 H   0  0  0  0  0  0  0  0  0  0  0  0
    1.7340    2.7435    2.9454 H   0  0  0  0  0  0  0  0  0  0  0  0
  1 18  1  0  0  0  0
  1  8  1  0  0  0  0
  2 27  1  0  0  0  0
  3  1  1  0  0  0  0
  4  3  1  0  0  0  0
  5  3  1  0  0  0  0
  6 49  1  0  0  0  0
  6 47  1  0  0  0  0
  7  9  1  0  0  0  0
  7  2  1  0  0  0  0
  8  7  2  0  0  0  0
  9 10  1  0  0  0  0
 11  9  2  0  0  0  0
 11 12  1  0  0  0  0
 13 11  1  0  0  0  0
 14 13  1  0  0  0  0
 15  8  1  0  0  0  0
 15 13  2  0  0  0  0
 16 15  1  0  0  0  0
 17 19  1  0  0  0  0
 17  6  1  0  0  0  0
 18 17  2  0  0  0  0
 19 20  1  0  0  0  0
 21 22  1  0  0  0  0
 21 19  2  0  0  0  0
 23 21  1  0  0  0  0
 24 23  1  0  0  0  0
 25 23  2  0  0  0  0
 25 18  1  0  0  0  0
 26 25  1  0  0  0  0
 27 28  1  0  0  0  0
 27 35  1  0  0  0  0
 27 31  1  0  0  0  0
 29 39  1  0  0  0  0
 29 30  1  0  0  0  0
 29  2  1  0  0  0  0
 31 34  1  0  0  0  0
 32 31  1  0  0  0  0
 33 31  1  0  0  0  0
 35 36  1  0  0  0  0
 37 35  1  0  0  0  0
 38 35  1  0  0  0  0
 39 42  1  0  0  0  0
 40 39  1  0  0  0  0
 41 39  1  0  0  0  0
 43 29  1  0  0  0  0
 44 43  1  0  0  0  0
 45 43  1  0  0  0  0
 46 43  1  0  0  0  0
 47 48  1  0  0  0  0
 47 51  1  0  0  0  0
 49 63  1  0  0  0  0
 49 50  1  0  0  0  0
 51 53  1  0  0  0  0
 51 54  1  0  0  0  0
 52 51  1  0  0  0  0
 55 47  1  0  0  0  0
 55 56  1  0  0  0  0
 57 55  1  0  0  0  0
 58 55  1  0  0  0  0
 59 62  1  0  0  0  0
 59 49  1  0  0  0  0
 60 59  1  0  0  0  0
 61 59  1  0  0  0  0
 63 65  1  0  0  0  0
 63 66  1  0  0  0  0
 64 63  1  0  0  0  0
M  END
