4
q = -1.0

 16 16  0  0  0  0  0  0  0  0999 V2000
   -2.7619    0.4588   -0.1535 C   0  0  0  0  0  0  0  0  0  0  0  0
   -2.6739   -0.2103    1.1164 C   0  0  0  0  0  0  0  0  0  0  0  0
   -2.7282    0.2729    2.1004 H   0  0  0  0  0  0  0  0  0  0  0  0
   -2.5329   -1.6175    0.8802 C   0  0  0  0  0  3  0  0  0  0  0  0
   -2.4584   -2.3962    1.6494 H   0  0  0  0  0  0  0  0  0  0  0  0
   -2.5264   -1.8291   -0.5369 C   0  0  0  0  0  0  0  0  0  0  0  0
   -2.4470   -2.7978   -1.0451 H   0  0  0  0  0  0  0  0  0  0  0  0
   -2.6658   -0.5503   -1.1710 C   0  0  0  0  0  0  0  0  0  0  0  0
   -2.7112   -0.3645   -2.2519 H   0  0  0  0  0  0  0  0  0  0  0  0
   -2.9441    1.9379   -0.3779 C   0  0  0  0  0  0  0  0  0  0  0  0
   -2.9792    2.1295   -1.4712 H   0  0  0  0  0  0  0  0  0  0  0  0
   -3.9385    2.2501    0.0145 H   0  0  0  0  0  0  0  0  0  0  0  0
   -1.8571    2.8110    0.2615 C   0  0  0  0  0  0  0  0  0  0  0  0
   -1.8158    2.6625    1.3600 H   0  0  0  0  0  0  0  0  0  0  0  0
   -2.0342    3.8904    0.0736 H   0  0  0  0  0  0  0  0  0  0  0  0
   -0.8580    2.5428   -0.1411 H   0  0  0  0  0  0  0  0  0  0  0  0
  1  2  2  0  0  0  0
  2  3  1  0  0  0  0
  4  2  1  0  0  0  0
  4  5  1  0  0  0  0
  6  4  1  0  0  0  0
  7  6  1  0  0  0  0
  8  6  2  0  0  0  0
  8  1  1  0  0  0  0
  9  8  1  0  0  0  0
 10  1  1  0  0  0  0
 10 12  1  0  0  0  0
 10 13  1  0  0  0  0
 11 10  1  0  0  0  0
 13 14  1  0  0  0  0
 15 13  1  0  0  0  0
 16 13  1  0  0  0  0
M  END
