1
q = 0.0, confidence = 0.988

 19 19  0  0  0  0  0  0  0  0999 V2000
   -2.5524    1.4373   -0.5803 C   0  0  0  0  0  3  0  0  0  0  0  0
   -2.4132    2.3084    0.0820 H   0  0  0  0  0  0  0  0  0  0  0  0
   -2.5878    1.6404   -1.6639 H   0  0  0  0  0  0  0  0  0  0  0  0
   -3.0526    0.2330   -0.0751 C   0  0  0  0  0  3  0  0  0  0  0  0
   -3.6286   -0.8375   -0.9730 C   0  0  0  0  0  0  0  0  0  0  0  0
   -3.2170   -1.8259   -0.6736 H   0  0  0  0  0  0  0  0  0  0  0  0
   -3.3463   -0.6639   -2.0304 H   0  0  0  0  0  0  0  0  0  0  0  0
   -5.1667   -0.8692   -0.8062 C   0  0  0  0  0  0  0  0  0  0  0  0
   -5.5889    0.0818   -1.1972 H   0  0  0  0  0  0  0  0  0  0  0  0
   -5.5816   -1.6827   -1.4349 H   0  0  0  0  0  0  0  0  0  0  0  0
   -5.5659   -1.0475    0.6622 C   0  0  0  0  0  0  0  0  0  0  0  0
   -5.2379   -2.0503    1.0164 H   0  0  0  0  0  0  0  0  0  0  0  0
   -6.6702   -1.0290    0.7629 H   0  0  0  0  0  0  0  0  0  0  0  0
   -4.9373    0.0357    1.5447 C   0  0  0  0  0  0  0  0  0  0  0  0
   -5.1883   -0.1231    2.6129 H   0  0  0  0  0  0  0  0  0  0  0  0
   -5.3457    1.0313    1.2663 H   0  0  0  0  0  0  0  0  0  0  0  0
   -3.3980    0.0672    1.3880 C   0  0  0  0  0  0  0  0  0  0  0  0
   -2.9510    0.8783    1.9965 H   0  0  0  0  0  0  0  0  0  0  0  0
   -2.9851   -0.8969    1.7568 H   0  0  0  0  0  0  0  0  0  0  0  0
  1  4  1  0  0  0  0
  1  2  1  0  0  0  0
  3  1  1  0  0  0  0
  4 17  1  0  0  0  0
  5  8  1  0  0  0  0
  5  6  1  0  0  0  0
  5  4  1  0  0  0  0
  7  5  1  0  0  0  0
  8 11  1  0  0  0  0
  9  8  1  0  0  0  0
 10  8  1  0  0  0  0
 11 13  1  0  0  0  0
 11 12  1  0  0  0  0
 11 14  1  0  0  0  0
 14 15  1  0  0  0  0
 16 14  1  0  0  0  0
 17 14  1  0  0  0  0
 17 19  1  0  0  0  0
 17 18  1  0  0  0  0
M  END
