31
q = -1.0

 39 41  0  0  0  0  0  0  0  0999 V2000
    3.8487    1.7902   -0.8160 O   0  0  0  0  0  0  0  0  0  0  0  0
   -2.1914   -0.1385   -1.3509 O   0  0  0  0  0  0  0  0  0  0  0  0
    2.1214    0.0709    1.8976 C   0  0  0  0  0  0  0  0  0  0  0  0
    1.1381    0.1285    2.3864 H   0  0  0  0  0  0  0  0  0  0  0  0
    3.0951   -0.8322    2.3591 C   0  0  0  0  0  0  0  0  0  0  0  0
    2.8675   -1.5121    3.1934 H   0  0  0  0  0  0  0  0  0  0  0  0
    4.3585   -0.8354    1.7574 C   0  0  0  0  0  0  0  0  0  0  0  0
    5.1421   -1.5262    2.1039 H   0  0  0  0  0  0  0  0  0  0  0  0
    4.6391    0.0487    0.6999 C   0  0  0  0  0  0  0  0  0  0  0  0
    5.6297    0.0210    0.2274 H   0  0  0  0  0  0  0  0  0  0  0  0
    3.6561    0.9457    0.2382 C   0  0  0  0  0  0  0  0  0  0  0  0
    2.3628    0.9708    0.8388 C   0  0  0  0  0  0  0  0  0  0  0  0
    1.2588    1.8694    0.3946 C   0  0  0  0  0  0  0  0  0  0  0  0
    1.5068    3.2439    0.1831 C   0  0  0  0  0  0  0  0  0  0  0  0
    2.5292    3.6391    0.2722 H   0  0  0  0  0  0  0  0  0  0  0  0
    0.4467    4.1045   -0.1282 C   0  0  0  0  0  0  0  0  0  0  0  0
    0.6360    5.1746   -0.3047 H   0  0  0  0  0  0  0  0  0  0  0  0
   -0.8591    3.6026   -0.1902 C   0  0  0  0  0  0  0  0  0  0  0  0
   -1.6954    4.2838   -0.4158 H   0  0  0  0  0  0  0  0  0  0  0  0
   -1.1063    2.2230    0.0132 C   0  0  0  0  0  0  0  0  0  0  0  0
   -2.5316    1.7854    0.0740 C   0  0  0  0  0  0  0  0  0  0  0  0
   -3.4417    2.5403    0.8518 C   0  0  0  0  0  0  0  0  0  0  0  0
   -3.0485    3.4207    1.3815 H   0  0  0  0  0  0  0  0  0  0  0  0
   -4.7920    2.1940    0.9858 C   0  0  0  0  0  0  0  0  0  0  0  0
   -5.4579    2.8081    1.6101 H   0  0  0  0  0  0  0  0  0  0  0  0
   -5.2821    1.0580    0.3282 C   0  0  0  0  0  0  0  0  0  0  0  0
   -6.3374    0.7623    0.4233 H   0  0  0  0  0  0  0  0  0  0  0  0
   -4.4139    0.2842   -0.4545 C   0  0  0  0  0  0  0  0  0  0  0  0
   -4.7991   -0.6098   -0.9621 H   0  0  0  0  0  0  0  0  0  0  0  0
   -3.0599    0.6412   -0.5743 C   0  0  0  0  0  0  0  0  0  0  0  0
   -0.0466    1.3064    0.2655 C   0  0  0  0  0  3  0  0  0  0  0  0
    5.0836    1.7487   -1.5051 C   0  0  0  0  0  0  0  0  0  0  0  0
    5.0098    2.4933   -2.3191 H   0  0  0  0  0  0  0  0  0  0  0  0
    5.2749    0.7451   -1.9469 H   0  0  0  0  0  0  0  0  0  0  0  0
    5.9374    2.0187   -0.8441 H   0  0  0  0  0  0  0  0  0  0  0  0
   -2.7853   -0.8306   -2.4588 C   0  0  0  0  0  0  0  0  0  0  0  0
   -3.5056   -0.1649   -2.9743 H   0  0  0  0  0  0  0  0  0  0  0  0
   -3.3000   -1.7579   -2.1302 H   0  0  0  0  0  0  0  0  0  0  0  0
   -1.9641   -1.0973   -3.1433 H   0  0  0  0  0  0  0  0  0  0  0  0
  1 11  1  0  0  0  0
  2 30  1  0  0  0  0
  3  5  1  0  0  0  0
  3  4  1  0  0  0  0
  5  6  1  0  0  0  0
  7  8  1  0  0  0  0
  7  5  2  0  0  0  0
  9  7  1  0  0  0  0
 10  9  1  0  0  0  0
 11  9  2  0  0  0  0
 11 12  1  0  0  0  0
 12  3  2  0  0  0  0
 13 12  1  0  0  0  0
 14 15  1  0  0  0  0
 14 13  2  0  0  0  0
 16 14  1  0  0  0  0
 17 16  1  0  0  0  0
 18 16  2  0  0  0  0
 18 20  1  0  0  0  0
 19 18  1  0  0  0  0
 20 21  1  0  0  0  0
 20 31  2  0  0  0  0
 21 22  1  0  0  0  0
 22 24  2  0  0  0  0
 22 23  1  0  0  0  0
 24 25  1  0  0  0  0
 26 27  1  0  0  0  0
 26 24  1  0  0  0  0
 28 26  2  0  0  0  0
 29 28  1  0  0  0  0
 30 28  1  0  0  0  0
 30 21  2  0  0  0  0
 31 13  1  0  0  0  0
 32 35  1  0  0  0  0
 32  1  1  0  0  0  0
 33 32  1  0  0  0  0
 34 32  1  0  0  0  0
 36 38  1  0  0  0  0
 36  2  1  0  0  0  0
 37 36  1  0  0  0  0
 39 36  1  0  0  0  0
M  END
