6
q = 0.0, confidence = 0.982

 17 17  0  0  0  0  0  0  0  0999 V2000
   -2.7874    1.8552    0.0064 O   0  0  0  0  0  0  0  0  0  0  0  0
   -2.0430    0.9017   -0.2345 C   0  0  0  0  0  0  0  0  0  0  0  0
   -2.5337   -0.4905   -0.0674 C   0  0  0  0  0  0  0  0  0  0  0  0
   -1.7056   -1.5613   -0.2221 C   0  0  0  0  0  0  0  0  0  0  0  0
   -0.3057   -1.5963   -0.6689 C   0  0  0  0  0  3  0  0  0  0  0  0
    0.2578   -0.8273   -1.7597 C   0  0  0  0  0  3  0  0  0  0  0  0
    0.0677    0.5743   -1.7775 C   0  0  0  0  0  3  0  0  0  0  0  0
   -0.6415    1.2059   -0.6863 C   0  0  0  0  0  3  0  0  0  0  0  0
   -3.9628   -0.6267    0.3710 C   0  0  0  0  0  0  0  0  0  0  0  0
   -2.1246   -2.5551    0.0183 H   0  0  0  0  0  0  0  0  0  0  0  0
    0.1383   -2.6007   -0.5702 H   0  0  0  0  0  0  0  0  0  0  0  0
    0.9280   -1.2995   -2.4954 H   0  0  0  0  0  0  0  0  0  0  0  0
    0.5883    1.1836   -2.5337 H   0  0  0  0  0  0  0  0  0  0  0  0
   -0.4907    2.2958   -0.6111 H   0  0  0  0  0  0  0  0  0  0  0  0
   -4.2534   -1.6879    0.4883 H   0  0  0  0  0  0  0  0  0  0  0  0
   -4.1305   -0.0967    1.3313 H   0  0  0  0  0  0  0  0  0  0  0  0
   -4.6446   -0.1432   -0.3587 H   0  0  0  0  0  0  0  0  0  0  0  0
  2  3  1  0  0  0  0
  2  1  2  0  0  0  0
  3  9  1  0  0  0  0
  4  3  2  0  0  0  0
  4 10  1  0  0  0  0
  5 11  1  0  0  0  0
  5  4  1  0  0  0  0
  6  5  1  0  0  0  0
  7  6  1  0  0  0  0
  7  8  1  0  0  0  0
  8 14  1  0  0  0  0
  8  2  1  0  0  0  0
  9 15  1  0  0  0  0
  9 16  1  0  0  0  0
 12  6  1  0  0  0  0
 13  7  1  0  0  0  0
 17  9  1  0  0  0  0
M  END
