6
q = 0.0, confidence = 0.972

 31 31  0  0  1  0  0  0  0  0999 V2000
    0.1971    3.0320    0.5514 O   0  0  0  0  0  0  0  0  0  0  0  0
    0.2814    2.0461   -0.1753 C   0  0  0  0  0  0  0  0  0  0  0  0
    1.6231    1.3339   -0.4123 C   0  0  2  0  0  0  0  0  0  0  0  0
    1.5866   -0.0915    0.2156 C   0  0  1  0  0  0  0  0  0  0  0  0
    0.3784   -0.8866   -0.2778 C   0  0  0  0  0  3  0  0  0  0  0  0
   -0.3128   -0.7471   -1.5397 C   0  0  0  0  0  3  0  0  0  0  0  0
   -0.9602    0.4791   -1.8593 C   0  0  0  0  0  3  0  0  0  0  0  0
   -0.9143    1.5615   -0.9100 C   0  0  0  0  0  3  0  0  0  0  0  0
    2.9209   -0.9477    0.0296 C   0  0  0  0  0  0  0  0  0  0  0  0
    4.0019   -0.4803    1.0294 C   0  0  0  0  0  0  0  0  0  0  0  0
    3.4421   -0.8517   -1.4147 C   0  0  0  0  0  0  0  0  0  0  0  0
    2.6826   -2.4419    0.3533 C   0  0  0  0  0  0  0  0  0  0  0  0
    2.7465    2.2682    0.0448 C   0  0  0  0  0  0  0  0  0  0  0  0
    1.6969    1.1929   -1.5133 H   0  0  0  0  0  0  0  0  0  0  0  0
    1.4776    0.0354    1.3159 H   0  0  0  0  0  0  0  0  0  0  0  0
    0.4490   -1.9375    0.0342 H   0  0  0  0  0  0  0  0  0  0  0  0
   -0.5128   -1.6256   -2.1761 H   0  0  0  0  0  0  0  0  0  0  0  0
   -1.6166    0.5305   -2.7424 H   0  0  0  0  0  0  0  0  0  0  0  0
   -1.6686    2.3580   -1.0174 H   0  0  0  0  0  0  0  0  0  0  0  0
    4.3147    0.5661    0.8834 H   0  0  0  0  0  0  0  0  0  0  0  0
    3.6390   -0.5810    2.0731 H   0  0  0  0  0  0  0  0  0  0  0  0
    4.9061   -1.1151    0.9282 H   0  0  0  0  0  0  0  0  0  0  0  0
    4.3012   -1.5379   -1.5615 H   0  0  0  0  0  0  0  0  0  0  0  0
    2.6570   -1.1407   -2.1446 H   0  0  0  0  0  0  0  0  0  0  0  0
    3.7882    0.1682   -1.6730 H   0  0  0  0  0  0  0  0  0  0  0  0
    2.0911   -2.9663   -0.4226 H   0  0  0  0  0  0  0  0  0  0  0  0
    2.1741   -2.5767    1.3309 H   0  0  0  0  0  0  0  0  0  0  0  0
    3.6598   -2.9615    0.4171 H   0  0  0  0  0  0  0  0  0  0  0  0
    3.7312    1.9606   -0.3507 H   0  0  0  0  0  0  0  0  0  0  0  0
    2.5412    3.2946   -0.3140 H   0  0  0  0  0  0  0  0  0  0  0  0
    2.8031    2.3254    1.1487 H   0  0  0  0  0  0  0  0  0  0  0  0
  2  1  2  0  0  0  0
  3 14  1  6  0  0  0
  3  2  1  0  0  0  0
  3 13  1  0  0  0  0
  3  4  1  0  0  0  0
  4 15  1  1  0  0  0
  5 16  1  0  0  0  0
  5  4  1  0  0  0  0
  6  5  1  0  0  0  0
  7  6  1  0  0  0  0
  7  8  1  0  0  0  0
  8  2  1  0  0  0  0
  9  4  1  0  0  0  0
  9 12  1  0  0  0  0
  9 10  1  0  0  0  0
 10 21  1  0  0  0  0
 11  9  1  0  0  0  0
 12 28  1  0  0  0  0
 12 27  1  0  0  0  0
 13 31  1  0  0  0  0
 17  6  1  0  0  0  0
 18  7  1  0  0  0  0
 19  8  1  0  0  0  0
 20 10  1  0  0  0  0
 22 10  1  0  0  0  0
 23 11  1  0  0  0  0
 24 11  1  0  0  0  0
 25 11  1  0  0  0  0
 26 12  1  0  0  0  0
 29 13  1  0  0  0  0
 30 13  1  0  0  0  0
M  END
