6
q = 0.0, confidence = 0.988

 26 27  0  0  1  0  0  0  0  0999 V2000
    1.0522    1.0559    1.8752 O   0  0  0  0  0  0  0  0  0  0  0  0
    1.1551    0.0550    0.8505 C   0  0  1  0  0  0  0  0  0  0  0  0
    0.8494   -1.2868    1.4609 C   0  0  0  0  0  0  0  0  0  0  0  0
   -0.1770   -2.0953    1.1260 C   0  0  0  0  0  0  0  0  0  0  0  0
   -1.1559   -1.9117    0.0418 C   0  0  0  0  0  3  0  0  0  0  0  0
   -0.8892   -1.3998   -1.2843 C   0  0  0  0  0  3  0  0  0  0  0  0
   -0.1784   -0.1819   -1.4339 C   0  0  0  0  0  3  0  0  0  0  0  0
    0.2172    0.5452   -0.2524 C   0  0  0  0  0  3  0  0  0  0  0  0
    2.5691    0.0527    0.2302 C   0  0  0  0  0  0  0  0  0  0  0  0
    3.4110    1.1687    0.3888 C   0  0  0  0  0  0  0  0  0  0  0  0
    4.6828    1.1895   -0.2059 C   0  0  0  0  0  0  0  0  0  0  0  0
    5.1243    0.0976   -0.9682 C   0  0  0  0  0  0  0  0  0  0  0  0
    4.2854   -1.0177   -1.1339 C   0  0  0  0  0  0  0  0  0  0  0  0
    3.0164   -1.0399   -0.5391 C   0  0  0  0  0  0  0  0  0  0  0  0
    1.6154    0.7638    2.6173 H   0  0  0  0  0  0  0  0  0  0  0  0
    1.5189   -1.5809    2.2874 H   0  0  0  0  0  0  0  0  0  0  0  0
   -0.3262   -3.0069    1.7296 H   0  0  0  0  0  0  0  0  0  0  0  0
   -1.9548   -2.6712    0.0621 H   0  0  0  0  0  0  0  0  0  0  0  0
   -1.3513   -1.8698   -2.1671 H   0  0  0  0  0  0  0  0  0  0  0  0
   -0.0997    0.2732   -2.4342 H   0  0  0  0  0  0  0  0  0  0  0  0
    0.4527    1.6072   -0.4387 H   0  0  0  0  0  0  0  0  0  0  0  0
    3.0519    2.0204    0.9850 H   0  0  0  0  0  0  0  0  0  0  0  0
    5.3329    2.0681   -0.0724 H   0  0  0  0  0  0  0  0  0  0  0  0
    6.1220    0.1132   -1.4328 H   0  0  0  0  0  0  0  0  0  0  0  0
    4.6252   -1.8796   -1.7285 H   0  0  0  0  0  0  0  0  0  0  0  0
    2.3604   -1.9151   -0.6654 H   0  0  0  0  0  0  0  0  0  0  0  0
  1 15  1  0  0  0  0
  2  3  1  0  0  0  0
  2  1  1  1  0  0  0
  3 16  1  0  0  0  0
  4  3  2  0  0  0  0
  4 17  1  0  0  0  0
  5 18  1  0  0  0  0
  5  4  1  0  0  0  0
  6  5  1  0  0  0  0
  7  6  1  0  0  0  0
  7  8  1  0  0  0  0
  8  2  1  0  0  0  0
  9 10  1  0  0  0  0
  9  2  1  0  0  0  0
 10 22  1  0  0  0  0
 11 23  1  0  0  0  0
 11 10  2  0  0  0  0
 12 11  1  0  0  0  0
 13 12  2  0  0  0  0
 13 14  1  0  0  0  0
 14  9  2  0  0  0  0
 19  6  1  0  0  0  0
 20  7  1  0  0  0  0
 21  8  1  0  0  0  0
 24 12  1  0  0  0  0
 25 13  1  0  0  0  0
 26 14  1  0  0  0  0
M  END
