5
q = -1.0

 72 74  0  0  1  0  0  0  0  0999 V2000
    1.8831    0.8401    0.1399 P   0  0  0  0  0  0  0  0  0  0  0  0
   -1.8946    0.9455   -0.1705 P   0  0  0  0  0  0  0  0  0  0  0  0
    0.1954   -3.4154    1.5527 N   0  0  0  0  0  0  0  0  0  0  0  0
    0.2540   -4.0701    2.3369 H   0  0  0  0  0  0  0  0  0  0  0  0
    0.0234   -1.6464   -0.6254 C   0  0  0  0  0  3  0  0  0  0  0  0
   -0.0779   -1.3952   -1.6916 H   0  0  0  0  0  0  0  0  0  0  0  0
   -1.1519   -1.9456    0.1833 C   0  0  2  0  0  3  0  0  0  0  0  0
   -1.0017   -2.8650    1.2587 C   0  0  0  0  0  3  0  0  0  0  0  0
   -1.8604   -3.1857    1.8634 H   0  0  0  0  0  0  0  0  0  0  0  0
    1.3506   -3.0367    0.9253 C   0  0  0  0  0  0  0  0  0  0  0  0
    2.2918   -3.4454    1.3124 H   0  0  0  0  0  0  0  0  0  0  0  0
    1.2973   -2.1241   -0.1266 C   0  0  0  0  0  0  0  0  0  0  0  0
   -2.5516   -1.7291   -0.3084 C   0  0  0  0  0  0  0  0  0  0  0  0
   -3.0676   -0.4259   -0.5081 C   0  0  0  0  0  0  0  0  0  0  0  0
   -4.4004   -0.2592   -0.9322 C   0  0  0  0  0  0  0  0  0  0  0  0
   -4.8141    0.7517   -1.0609 H   0  0  0  0  0  0  0  0  0  0  0  0
   -5.2189   -1.3731   -1.1671 C   0  0  0  0  0  0  0  0  0  0  0  0
   -6.2615   -1.2315   -1.4885 H   0  0  0  0  0  0  0  0  0  0  0  0
   -4.7055   -2.6668   -0.9836 C   0  0  0  0  0  0  0  0  0  0  0  0
   -5.3401   -3.5451   -1.1734 H   0  0  0  0  0  0  0  0  0  0  0  0
   -3.3831   -2.8430   -0.5544 C   0  0  0  0  0  0  0  0  0  0  0  0
   -2.9828   -3.8596   -0.4205 H   0  0  0  0  0  0  0  0  0  0  0  0
    2.5704   -1.7160   -0.7783 C   0  0  0  0  0  0  0  0  0  0  0  0
    2.9807   -0.3578   -0.7347 C   0  0  0  0  0  0  0  0  0  0  0  0
    4.2261   -0.0028   -1.2907 C   0  0  0  0  0  0  0  0  0  0  0  0
    4.5763    1.0376   -1.2348 H   0  0  0  0  0  0  0  0  0  0  0  0
    5.0430   -0.9650   -1.9017 C   0  0  0  0  0  0  0  0  0  0  0  0
    6.0107   -0.6678   -2.3324 H   0  0  0  0  0  0  0  0  0  0  0  0
    4.6294   -2.3051   -1.9511 C   0  0  0  0  0  0  0  0  0  0  0  0
    5.2662   -3.0641   -2.4289 H   0  0  0  0  0  0  0  0  0  0  0  0
    3.4039   -2.6791   -1.3834 C   0  0  0  0  0  0  0  0  0  0  0  0
    3.0768   -3.7293   -1.4162 H   0  0  0  0  0  0  0  0  0  0  0  0
   -1.8478    1.9064   -1.8025 C   0  0  0  0  0  0  0  0  0  0  0  0
   -0.8916    2.4649   -1.7277 H   0  0  0  0  0  0  0  0  0  0  0  0
   -1.7431    0.9267   -2.9784 C   0  0  0  0  0  0  0  0  0  0  0  0
   -2.7068    0.4100   -3.1558 H   0  0  0  0  0  0  0  0  0  0  0  0
   -0.9765    0.1447   -2.8124 H   0  0  0  0  0  0  0  0  0  0  0  0
   -1.4713    1.4698   -3.9060 H   0  0  0  0  0  0  0  0  0  0  0  0
   -2.9707    2.9238   -2.0303 C   0  0  0  0  0  0  0  0  0  0  0  0
   -2.8088    3.4328   -3.0031 H   0  0  0  0  0  0  0  0  0  0  0  0
   -3.0065    3.7117   -1.2540 H   0  0  0  0  0  0  0  0  0  0  0  0
   -3.9677    2.4430   -2.0846 H   0  0  0  0  0  0  0  0  0  0  0  0
   -2.7865    2.0826    1.0228 C   0  0  0  0  0  0  0  0  0  0  0  0
   -3.6474    2.5009    0.4592 H   0  0  0  0  0  0  0  0  0  0  0  0
   -3.3294    1.3265    2.2377 C   0  0  0  0  0  0  0  0  0  0  0  0
   -2.5171    0.8961    2.8538 H   0  0  0  0  0  0  0  0  0  0  0  0
   -4.0125    0.5055    1.9441 H   0  0  0  0  0  0  0  0  0  0  0  0
   -3.8984    2.0242    2.8855 H   0  0  0  0  0  0  0  0  0  0  0  0
   -1.8379    3.2222    1.4157 C   0  0  0  0  0  0  0  0  0  0  0  0
   -2.3442    3.9272    2.1061 H   0  0  0  0  0  0  0  0  0  0  0  0
   -1.4913    3.8072    0.5393 H   0  0  0  0  0  0  0  0  0  0  0  0
   -0.9403    2.8260    1.9334 H   0  0  0  0  0  0  0  0  0  0  0  0
    1.8221    2.3608   -0.9823 C   0  0  0  0  0  0  0  0  0  0  0  0
    0.8864    2.8518   -0.6328 H   0  0  0  0  0  0  0  0  0  0  0  0
    1.6251    1.9124   -2.4360 C   0  0  0  0  0  0  0  0  0  0  0  0
    1.2808    2.7621   -3.0603 H   0  0  0  0  0  0  0  0  0  0  0  0
    0.8804    1.0996   -2.5246 H   0  0  0  0  0  0  0  0  0  0  0  0
    2.5729    1.5385   -2.8695 H   0  0  0  0  0  0  0  0  0  0  0  0
    2.9609    3.3796   -0.8590 C   0  0  0  0  0  0  0  0  0  0  0  0
    3.9363    2.9637   -1.1796 H   0  0  0  0  0  0  0  0  0  0  0  0
    3.0785    3.7810    0.1647 H   0  0  0  0  0  0  0  0  0  0  0  0
    2.7487    4.2411   -1.5255 H   0  0  0  0  0  0  0  0  0  0  0  0
    2.9432    1.3548    1.6031 C   0  0  0  0  0  0  0  0  0  0  0  0
    3.8503    1.8133    1.1523 H   0  0  0  0  0  0  0  0  0  0  0  0
    3.3721    0.1334    2.4223 C   0  0  0  0  0  0  0  0  0  0  0  0
    4.0253    0.4535    3.2596 H   0  0  0  0  0  0  0  0  0  0  0  0
    3.9391   -0.5969    1.8121 H   0  0  0  0  0  0  0  0  0  0  0  0
    2.4985   -0.3855    2.8646 H   0  0  0  0  0  0  0  0  0  0  0  0
    2.2241    2.4015    2.4623 C   0  0  0  0  0  0  0  0  0  0  0  0
    1.3483    1.9661    2.9814 H   0  0  0  0  0  0  0  0  0  0  0  0
    1.8701    3.2727    1.8764 H   0  0  0  0  0  0  0  0  0  0  0  0
    2.9114    2.7838    3.2444 H   0  0  0  0  0  0  0  0  0  0  0  0
  1 63  1  0  0  0  0
  2 43  1  0  0  0  0
  3  4  1  0  0  0  0
  5 12  1  0  0  0  0
  5  7  1  0  0  0  0
  6  5  1  0  0  0  0
  7 13  1  6  0  0  0
  7  8  1  0  0  0  0
  8  3  1  0  0  0  0
  8  9  1  0  0  0  0
 10 11  1  0  0  0  0
 10  3  1  0  0  0  0
 12 10  2  0  0  0  0
 14 13  1  0  0  0  0
 14  2  1  0  0  0  0
 15 14  2  0  0  0  0
 16 15  1  0  0  0  0
 17 19  2  0  0  0  0
 17 15  1  0  0  0  0
 18 17  1  0  0  0  0
 19 21  1  0  0  0  0
 20 19  1  0  0  0  0
 21 22  1  0  0  0  0
 21 13  2  0  0  0  0
 23 24  1  0  0  0  0
 23 12  1  0  0  0  0
 24  1  1  0  0  0  0
 25 26  1  0  0  0  0
 25 24  2  0  0  0  0
 27 25  1  0  0  0  0
 28 27  1  0  0  0  0
 29 27  2  0  0  0  0
 29 31  1  0  0  0  0
 30 29  1  0  0  0  0
 31 23  2  0  0  0  0
 32 31  1  0  0  0  0
 33 34  1  0  0  0  0
 33  2  1  0  0  0  0
 35 37  1  0  0  0  0
 35 33  1  0  0  0  0
 36 35  1  0  0  0  0
 38 35  1  0  0  0  0
 39 33  1  0  0  0  0
 39 41  1  0  0  0  0
 40 39  1  0  0  0  0
 42 39  1  0  0  0  0
 43 49  1  0  0  0  0
 43 45  1  0  0  0  0
 44 43  1  0  0  0  0
 45 46  1  0  0  0  0
 45 48  1  0  0  0  0
 47 45  1  0  0  0  0
 49 52  1  0  0  0  0
 49 50  1  0  0  0  0
 51 49  1  0  0  0  0
 53 59  1  0  0  0  0
 53 54  1  0  0  0  0
 53  1  1  0  0  0  0
 55 53  1  0  0  0  0
 56 55  1  0  0  0  0
 57 55  1  0  0  0  0
 58 55  1  0  0  0  0
 59 61  1  0  0  0  0
 60 59  1  0  0  0  0
 62 59  1  0  0  0  0
 63 65  1  0  0  0  0
 63 69  1  0  0  0  0
 64 63  1  0  0  0  0
 65 68  1  0  0  0  0
 65 66  1  0  0  0  0
 67 65  1  0  0  0  0
 69 70  1  0  0  0  0
 69 72  1  0  0  0  0
 71 69  1  0  0  0  0
M  END
