2
q = 0.0, confidence = 0.954

 36 38  0  0  0  0  0  0  0  0999 V2000
   -0.5663    0.4757    0.5676 C   0  0  0  0  0  2  0  0  0  0  0  0
    0.6918    0.3916    0.4689 C   0  0  0  0  0  1  0  0  0  0  0  0
   -2.1558    0.1358    0.1122 P   0  0  0  0  0  4  0  0  0  0  0  0
   -3.3040    1.4500    0.6407 C   0  0  0  0  0  0  0  0  0  0  0  0
   -2.9850    2.1784    1.8038 C   0  0  0  0  0  0  0  0  0  0  0  0
   -2.0415    1.9693    2.3320 H   0  0  0  0  0  0  0  0  0  0  0  0
   -3.8617    3.1722    2.2606 C   0  0  0  0  0  0  0  0  0  0  0  0
   -3.6121    3.7450    3.1663 H   0  0  0  0  0  0  0  0  0  0  0  0
   -5.0486    3.4423    1.5592 C   0  0  0  0  0  0  0  0  0  0  0  0
   -5.7319    4.2269    1.9179 H   0  0  0  0  0  0  0  0  0  0  0  0
   -5.3594    2.7226    0.3943 C   0  0  0  0  0  0  0  0  0  0  0  0
   -6.2819    2.9442   -0.1629 H   0  0  0  0  0  0  0  0  0  0  0  0
   -4.4884    1.7256   -0.0705 C   0  0  0  0  0  0  0  0  0  0  0  0
   -4.7227    1.1752   -0.9942 H   0  0  0  0  0  0  0  0  0  0  0  0
   -2.2825   -0.0638   -1.7001 C   0  0  0  0  0  0  0  0  0  0  0  0
   -1.2918    0.5205   -2.5119 C   0  0  0  0  0  0  0  0  0  0  0  0
   -0.4627    1.0734   -2.0464 H   0  0  0  0  0  0  0  0  0  0  0  0
   -1.3505    0.3586   -3.9028 C   0  0  0  0  0  0  0  0  0  0  0  0
   -0.5588    0.7957   -4.5292 H   0  0  0  0  0  0  0  0  0  0  0  0
   -2.3986   -0.3749   -4.4823 C   0  0  0  0  0  0  0  0  0  0  0  0
   -2.4399   -0.5051   -5.5744 H   0  0  0  0  0  0  0  0  0  0  0  0
   -3.3846   -0.9605   -3.6708 C   0  0  0  0  0  0  0  0  0  0  0  0
   -4.1956   -1.5498   -4.1246 H   0  0  0  0  0  0  0  0  0  0  0  0
   -3.3267   -0.8155   -2.2766 C   0  0  0  0  0  0  0  0  0  0  0  0
   -4.0770   -1.3078   -1.6386 H   0  0  0  0  0  0  0  0  0  0  0  0
   -2.7442   -1.4335    0.8415 C   0  0  0  0  0  0  0  0  0  0  0  0
   -4.0531   -1.5741    1.3405 C   0  0  0  0  0  0  0  0  0  0  0  0
   -4.7430   -0.7166    1.3377 H   0  0  0  0  0  0  0  0  0  0  0  0
   -4.4673   -2.8125    1.8564 C   0  0  0  0  0  0  0  0  0  0  0  0
   -5.4878   -2.9244    2.2524 H   0  0  0  0  0  0  0  0  0  0  0  0
   -3.5801   -3.8998    1.8746 C   0  0  0  0  0  0  0  0  0  0  0  0
   -3.9070   -4.8678    2.2837 H   0  0  0  0  0  0  0  0  0  0  0  0
   -2.2723   -3.7532    1.3808 C   0  0  0  0  0  0  0  0  0  0  0  0
   -1.5726   -4.6019    1.4024 H   0  0  0  0  0  0  0  0  0  0  0  0
   -1.8481   -2.5220    0.8644 C   0  0  0  0  0  0  0  0  0  0  0  0
   -0.8191   -2.3998    0.4915 H   0  0  0  0  0  0  0  0  0  0  0  0
  2  1  1  0  0  0  0
  3  1  1  0  0  0  0
  3  4  1  0  0  0  0
  3 26  1  0  0  0  0
  4  5  1  0  0  0  0
  5  7  2  0  0  0  0
  5  6  1  0  0  0  0
  7  8  1  0  0  0  0
  9 10  1  0  0  0  0
  9  7  1  0  0  0  0
 11  9  2  0  0  0  0
 12 11  1  0  0  0  0
 13 11  1  0  0  0  0
 13  4  2  0  0  0  0
 14 13  1  0  0  0  0
 15  3  1  0  0  0  0
 16 17  1  0  0  0  0
 16 15  2  0  0  0  0
 18 16  1  0  0  0  0
 19 18  1  0  0  0  0
 20 18  2  0  0  0  0
 20 22  1  0  0  0  0
 21 20  1  0  0  0  0
 22 24  2  0  0  0  0
 23 22  1  0  0  0  0
 24 15  1  0  0  0  0
 24 25  1  0  0  0  0
 26 35  2  0  0  0  0
 26 27  1  0  0  0  0
 27 29  2  0  0  0  0
 28 27  1  0  0  0  0
 29 31  1  0  0  0  0
 29 30  1  0  0  0  0
 31 32  1  0  0  0  0
 33 34  1  0  0  0  0
 33 31  2  0  0  0  0
 35 33  1  0  0  0  0
 36 35  1  0  0  0  0
M  END
