2
q = -1.0

 15 15  0  0  1  0  0  0  0  0999 V2000
   -0.0540   -0.3741    1.8300 O   0  0  0  0  0  1  0  0  0  0  0  0
   -0.6997   -0.9712    0.7701 C   0  0  0  0  0  2  0  0  0  0  0  0
   -3.8813   -1.8786   -0.2367 C   0  0  0  0  0  0  0  0  0  0  0  0
   -2.5739   -2.2676   -0.2831 C   0  0  0  0  0  0  0  0  0  0  0  0
   -1.8764   -1.8710    0.9925 C   0  0  2  0  0  0  0  0  0  0  0  0
   -2.9730   -1.1974    1.7932 C   0  0  0  0  0  0  0  0  0  0  0  0
   -4.1198   -1.2155    1.0621 C   0  0  0  0  0  0  0  0  0  0  0  0
   -4.9306   -2.0466   -1.2921 C   0  0  0  0  0  0  0  0  0  0  0  0
   -2.0635   -2.7573   -1.1234 H   0  0  0  0  0  0  0  0  0  0  0  0
   -1.5224   -2.7741    1.5551 H   0  0  0  0  0  0  0  0  0  0  0  0
   -2.8128   -0.7783    2.7948 H   0  0  0  0  0  0  0  0  0  0  0  0
   -5.0922   -0.8027    1.3720 H   0  0  0  0  0  0  0  0  0  0  0  0
   -5.7938   -2.6351   -0.9140 H   0  0  0  0  0  0  0  0  0  0  0  0
   -4.5305   -2.5593   -2.1878 H   0  0  0  0  0  0  0  0  0  0  0  0
   -5.3374   -1.0634   -1.6131 H   0  0  0  0  0  0  0  0  0  0  0  0
  2  5  1  0  0  0  0
  2  1  1  0  0  0  0
  3  7  1  0  0  0  0
  4  3  2  0  0  0  0
  4  5  1  0  0  0  0
  5 10  1  1  0  0  0
  5  6  1  0  0  0  0
  6 11  1  0  0  0  0
  7 12  1  0  0  0  0
  7  6  2  0  0  0  0
  8 13  1  0  0  0  0
  8  3  1  0  0  0  0
  9  4  1  0  0  0  0
 14  8  1  0  0  0  0
 15  8  1  0  0  0  0
M  END
