15
q = -1.0, confidence = 0.124

 35 40  0  0  1  0  0  0  0  0999 V2000
    0.2703    2.3097   -0.4974 N   0  0  0  0  0  0  0  0  0  0  0  0
    2.5090    0.8399    0.6980 C   0  0  1  0  0  0  0  0  0  0  0  0
    2.8228    0.0943   -0.6535 C   0  0  2  0  0  0  0  0  0  0  0  0
    2.9618    0.6982   -1.5593 H   0  0  0  0  0  0  0  0  0  0  0  0
    2.4306    2.3670    0.7503 C   0  0  0  0  0  0  0  0  0  0  0  0
    2.0429    2.6420    1.7498 H   0  0  0  0  0  0  0  0  0  0  0  0
    3.4424    2.8125    0.6866 H   0  0  0  0  0  0  0  0  0  0  0  0
    1.5745    2.9861   -0.3424 C   0  0  0  0  0  0  0  0  0  0  0  0
    1.4041    4.0667   -0.1278 H   0  0  0  0  0  0  0  0  0  0  0  0
    2.0846    2.9265   -1.3268 H   0  0  0  0  0  0  0  0  0  0  0  0
   -0.5743    3.0082   -1.4743 C   0  0  0  0  0  0  0  0  0  0  0  0
   -0.8345    4.0201   -1.0925 H   0  0  0  0  0  0  0  0  0  0  0  0
   -1.5049    2.4384   -1.6482 H   0  0  0  0  0  0  0  0  0  0  0  0
   -0.0387    3.1081   -2.4364 H   0  0  0  0  0  0  0  0  0  0  0  0
   -0.4006    1.8416    0.7103 C   0  0  0  0  0  3  0  0  0  0  0  0
   -1.4839    2.0412    0.6716 H   0  0  0  0  0  0  0  0  0  0  0  0
    0.0352    2.1904    1.6586 H   0  0  0  0  0  0  0  0  0  0  0  0
    2.1447   -1.4415   -0.6885 B   0  0  2  0  0  0  0  0  0  0  0  0
    1.8329   -1.9467   -1.7448 H   0  0  0  0  0  0  0  0  0  0  0  0
    1.3784   -1.6776    0.8981 B   0  0  2  0  0  0  0  0  0  0  0  0
    0.4628   -2.4424    1.1099 H   0  0  0  0  0  0  0  0  0  0  0  0
    1.6012   -0.1447    1.7403 B   0  0  1  0  0  0  0  0  0  0  0  0
    0.9145    0.3584    2.6002 H   0  0  0  0  0  0  0  0  0  0  0  0
    4.1339    0.2644    0.4313 B   0  0  2  0  0  0  0  0  0  0  0  0
    4.9842    1.0858    0.1885 H   0  0  0  0  0  0  0  0  0  0  0  0
    3.8903   -1.2304   -0.4644 B   0  0  1  0  0  0  0  0  0  0  0  0
    4.6496   -1.4902   -1.3671 H   0  0  0  0  0  0  0  0  0  0  0  0
    2.9905   -2.3632    0.5752 B   0  0  0  0  0  0  0  0  0  0  0  0
    3.1583   -3.5580    0.4732 H   0  0  0  0  0  0  0  0  0  0  0  0
    2.6615   -1.5302    2.1191 B   0  0  2  0  0  0  0  0  0  0  0  0
    2.5841   -2.0996    3.1849 H   0  0  0  0  0  0  0  0  0  0  0  0
    3.3413    0.1035    2.0048 B   0  0  1  0  0  0  0  0  0  0  0  0
    3.7177    0.8171    2.9057 H   0  0  0  0  0  0  0  0  0  0  0  0
    4.2197   -1.2787    1.2861 B   0  0  2  0  0  0  0  0  0  0  0  0
    5.2816   -1.6537    1.7268 H   0  0  0  0  0  0  0  0  0  0  0  0
  1  8  1  0  0  0  0
  1 15  1  0  0  0  0
  2  5  1  6  0  0  0
  2 22  1  0  0  0  0
  2 32  1  0  0  0  0
  3  4  1  6  0  0  0
  3 24  1  0  0  0  0
  3  2  1  0  0  0  0
  5  6  1  0  0  0  0
  7  5  1  0  0  0  0
  8  9  1  0  0  0  0
  8  5  1  0  0  0  0
 10  8  1  0  0  0  0
 11 12  1  0  0  0  0
 11  1  1  0  0  0  0
 13 11  1  0  0  0  0
 14 11  1  0  0  0  0
 15 17  1  0  0  0  0
 16 15  1  0  0  0  0
 18 19  1  6  0  0  0
 18  3  1  0  0  0  0
 18 26  1  0  0  0  0
 18 20  1  0  0  0  0
 20 21  1  1  0  0  0
 20 22  1  0  0  0  0
 20 30  1  0  0  0  0
 22 32  1  0  0  0  0
 22 23  1  1  0  0  0
 24 25  1  6  0  0  0
 24 34  1  0  0  0  0
 26 27  1  6  0  0  0
 26 24  1  0  0  0  0
 26 28  1  0  0  0  0
 28 34  1  0  0  0  0
 29 28  1  0  0  0  0
 30 31  1  1  0  0  0
 32 30  1  0  0  0  0
 32 33  1  1  0  0  0
 34 35  1  1  0  0  0
 34 30  1  0  0  0  0
M  END
