23
q = 0.0, confidence = 0.998

 37 39  0  0  1  0  0  0  0  0999 V2000
   -2.7617    3.0033    0.7559 O   0  0  0  0  0  0  0  0  0  0  0  0
   -0.5830    2.6564    1.2784 O   0  0  0  0  0  0  0  0  0  0  0  0
   -0.8494    0.2594   -2.2315 O   0  0  0  0  0  0  0  0  0  0  0  0
   -1.5849    1.6863   -0.6253 N   0  0  0  0  0  0  0  0  0  0  0  0
   -1.5255    2.4636    0.5436 C   0  0  0  0  0  0  0  0  0  0  0  0
   -3.6166    2.7392   -0.3700 C   0  0  0  0  0  0  0  0  0  0  0  0
   -3.6517    3.6472   -1.0088 H   0  0  0  0  0  0  0  0  0  0  0  0
   -4.6326    2.5142    0.0035 H   0  0  0  0  0  0  0  0  0  0  0  0
   -2.9714    1.5469   -1.1053 C   0  0  2  0  0  0  0  0  0  0  0  0
   -2.9915    1.6820   -2.2033 H   0  0  0  0  0  0  0  0  0  0  0  0
   -3.5448    0.1820   -0.7578 C   0  0  0  0  0  0  0  0  0  0  0  0
   -3.8001   -0.1674    0.5836 C   0  0  0  0  0  0  0  0  0  0  0  0
   -3.6132    0.5576    1.3909 H   0  0  0  0  0  0  0  0  0  0  0  0
   -4.2742   -1.4473    0.9054 C   0  0  0  0  0  0  0  0  0  0  0  0
   -4.4577   -1.7107    1.9579 H   0  0  0  0  0  0  0  0  0  0  0  0
   -4.5042   -2.3885   -0.1108 C   0  0  0  0  0  0  0  0  0  0  0  0
   -4.8729   -3.3942    0.1419 H   0  0  0  0  0  0  0  0  0  0  0  0
   -4.2558   -2.0451   -1.4487 C   0  0  0  0  0  0  0  0  0  0  0  0
   -4.4241   -2.7820   -2.2484 H   0  0  0  0  0  0  0  0  0  0  0  0
   -3.7743   -0.7676   -1.7694 C   0  0  0  0  0  0  0  0  0  0  0  0
   -3.5431   -0.5075   -2.8129 H   0  0  0  0  0  0  0  0  0  0  0  0
   -0.5739    0.8983   -1.2166 C   0  0  0  0  0  0  0  0  0  0  0  0
    0.7553    0.8846   -0.5606 C   0  0  0  0  0  3  0  0  0  0  0  0
    1.0045    1.7879    0.0126 H   0  0  0  0  0  0  0  0  0  0  0  0
    1.7679    0.0170   -1.0627 C   0  0  0  0  0  3  0  0  0  0  0  0
    1.4624   -0.6338   -1.8988 H   0  0  0  0  0  0  0  0  0  0  0  0
    3.2237    0.2608   -0.9803 C   0  0  0  0  0  0  0  0  0  0  0  0
    3.7747    1.4453   -0.4391 C   0  0  0  0  0  0  0  0  0  0  0  0
    3.1110    2.2390   -0.0655 H   0  0  0  0  0  0  0  0  0  0  0  0
    5.1625    1.6312   -0.3859 C   0  0  0  0  0  0  0  0  0  0  0  0
    5.5689    2.5626    0.0370 H   0  0  0  0  0  0  0  0  0  0  0  0
    6.0316    0.6430   -0.8753 C   0  0  0  0  0  0  0  0  0  0  0  0
    7.1210    0.7917   -0.8318 H   0  0  0  0  0  0  0  0  0  0  0  0
    5.4984   -0.5337   -1.4276 C   0  0  0  0  0  0  0  0  0  0  0  0
    6.1694   -1.3125   -1.8208 H   0  0  0  0  0  0  0  0  0  0  0  0
    4.1122   -0.7196   -1.4807 C   0  0  0  0  0  0  0  0  0  0  0  0
    3.6974   -1.6457   -1.9090 H   0  0  0  0  0  0  0  0  0  0  0  0
  3 22  2  0  0  0  0
  4  5  1  0  0  0  0
  5  1  1  0  0  0  0
  5  2  2  0  0  0  0
  6  8  1  0  0  0  0
  6  1  1  0  0  0  0
  7  6  1  0  0  0  0
  9 10  1  6  0  0  0
  9 11  1  0  0  0  0
  9  4  1  0  0  0  0
  9  6  1  0  0  0  0
 11 12  1  0  0  0  0
 12 14  2  0  0  0  0
 12 13  1  0  0  0  0
 14 15  1  0  0  0  0
 16 17  1  0  0  0  0
 16 14  1  0  0  0  0
 18 16  2  0  0  0  0
 19 18  1  0  0  0  0
 20 18  1  0  0  0  0
 20 11  2  0  0  0  0
 21 20  1  0  0  0  0
 22  4  1  0  0  0  0
 22 23  1  0  0  0  0
 23 24  1  0  0  0  0
 25 27  1  0  0  0  0
 25 23  1  0  0  0  0
 26 25  1  0  0  0  0
 27 28  1  0  0  0  0
 28 30  2  0  0  0  0
 28 29  1  0  0  0  0
 30 31  1  0  0  0  0
 32 33  1  0  0  0  0
 32 30  1  0  0  0  0
 34 32  2  0  0  0  0
 35 34  1  0  0  0  0
 36 34  1  0  0  0  0
 36 27  2  0  0  0  0
 37 36  1  0  0  0  0
M  END
