2
q = -2.0, confidence = 0.684

 40 44  0  0  1  0  0  0  0  0999 V2000
    1.0180    1.0671   -0.8128 C   0  0  0  0  0  0  0  0  0  0  0  0
   -0.4759    1.0820   -0.8941 C   0  0  2  0  0  3  0  0  0  0  0  0
   -0.4622   -0.3328   -1.2314 C   0  0  2  0  0  3  0  0  0  0  0  0
    1.0118   -0.3664   -1.0931 C   0  0  0  0  0  0  0  0  0  0  0  0
   -1.6609    1.9262   -0.9430 C   0  0  0  0  0  0  0  0  0  0  0  0
   -2.9084    1.1424   -1.2919 C   0  0  0  0  0  0  0  0  0  0  0  0
   -4.1393    1.8196   -1.2279 C   0  0  0  0  0  0  0  0  0  0  0  0
   -4.1200    2.8684   -0.8955 H   0  0  0  0  0  0  0  0  0  0  0  0
   -5.3302    1.1788   -1.5940 C   0  0  0  0  0  0  0  0  0  0  0  0
   -6.2859    1.7220   -1.5360 H   0  0  0  0  0  0  0  0  0  0  0  0
   -5.3035   -0.1522   -2.0487 C   0  0  0  0  0  0  0  0  0  0  0  0
   -6.2362   -0.6528   -2.3497 H   0  0  0  0  0  0  0  0  0  0  0  0
   -4.0854   -0.8383   -2.1195 C   0  0  0  0  0  0  0  0  0  0  0  0
   -4.0274   -1.8794   -2.4710 H   0  0  0  0  0  0  0  0  0  0  0  0
   -2.8838   -0.2132   -1.7330 C   0  0  0  0  0  0  0  0  0  0  0  0
   -1.6233   -1.0312   -1.7893 C   0  0  0  0  0  0  0  0  0  0  0  0
    1.9904    2.1503   -0.8075 C   0  0  0  0  0  0  0  0  0  0  0  0
    3.3648    1.9437   -1.0799 C   0  0  0  0  0  0  0  0  0  0  0  0
    3.7352    0.9349   -1.3000 H   0  0  0  0  0  0  0  0  0  0  0  0
    4.2558    3.0221   -1.1060 C   0  0  0  0  0  0  0  0  0  0  0  0
    5.3196    2.8427   -1.3246 H   0  0  0  0  0  0  0  0  0  0  0  0
    3.7953    4.3278   -0.8649 C   0  0  0  0  0  0  0  0  0  0  0  0
    4.4992    5.1741   -0.8828 H   0  0  0  0  0  0  0  0  0  0  0  0
    2.4305    4.5474   -0.6203 C   0  0  0  0  0  0  0  0  0  0  0  0
    2.0576    5.5689   -0.4509 H   0  0  0  0  0  0  0  0  0  0  0  0
    1.5301    3.4754   -0.5942 C   0  0  0  0  0  0  0  0  0  0  0  0
    0.4560    3.6486   -0.4306 H   0  0  0  0  0  0  0  0  0  0  0  0
    2.0118   -1.3958   -1.3823 C   0  0  0  0  0  0  0  0  0  0  0  0
    1.7037   -2.4131   -2.3159 C   0  0  0  0  0  0  0  0  0  0  0  0
    0.7040   -2.4319   -2.7753 H   0  0  0  0  0  0  0  0  0  0  0  0
    2.6493   -3.3996   -2.6271 C   0  0  0  0  0  0  0  0  0  0  0  0
    2.3951   -4.1821   -3.3582 H   0  0  0  0  0  0  0  0  0  0  0  0
    3.9110   -3.3957   -2.0108 C   0  0  0  0  0  0  0  0  0  0  0  0
    4.6518   -4.1709   -2.2585 H   0  0  0  0  0  0  0  0  0  0  0  0
    4.2191   -2.4006   -1.0674 C   0  0  0  0  0  0  0  0  0  0  0  0
    5.1986   -2.4001   -0.5653 H   0  0  0  0  0  0  0  0  0  0  0  0
    3.2780   -1.4124   -0.7512 C   0  0  0  0  0  0  0  0  0  0  0  0
    3.5065   -0.6579    0.0146 H   0  0  0  0  0  0  0  0  0  0  0  0
   -1.7012    3.1420   -0.7335 O   0  0  0  0  0  0  0  0  0  0  0  0
   -1.6030   -2.1725   -2.2696 O   0  0  0  0  0  0  0  0  0  0  0  0
  1 17  1  0  0  0  0
  2  5  1  6  0  0  0
  2  1  1  0  0  0  0
  3 16  1  6  0  0  0
  3  4  1  0  0  0  0
  3  2  1  0  0  0  0
  4  1  2  0  0  0  0
  5 39  2  0  0  0  0
  6  7  1  0  0  0  0
  6  5  1  0  0  0  0
  7  8  1  0  0  0  0
  9 10  1  0  0  0  0
  9  7  2  0  0  0  0
 11  9  1  0  0  0  0
 12 11  1  0  0  0  0
 13 11  2  0  0  0  0
 13 15  1  0  0  0  0
 14 13  1  0  0  0  0
 15  6  2  0  0  0  0
 16 15  1  0  0  0  0
 17 26  1  0  0  0  0
 18 17  2  0  0  0  0
 19 18  1  0  0  0  0
 20 18  1  0  0  0  0
 20 22  2  0  0  0  0
 21 20  1  0  0  0  0
 22 24  1  0  0  0  0
 23 22  1  0  0  0  0
 24 26  2  0  0  0  0
 24 25  1  0  0  0  0
 26 27  1  0  0  0  0
 28  4  1  0  0  0  0
 28 37  1  0  0  0  0
 29 28  2  0  0  0  0
 30 29  1  0  0  0  0
 31 29  1  0  0  0  0
 31 33  2  0  0  0  0
 32 31  1  0  0  0  0
 33 35  1  0  0  0  0
 34 33  1  0  0  0  0
 35 37  2  0  0  0  0
 35 36  1  0  0  0  0
 37 38  1  0  0  0  0
 40 16  2  0  0  0  0
M  END
