7
q = 0.0, confidence = 0.874

 47 49  0  0  1  0  0  0  0  0999 V2000
   -2.3824   -0.0015    0.0001 Si  0  0  0  0  0  0  0  0  0  0  0  0
   -1.2509    1.4728    0.0532 C   0  0  0  0  0  3  0  0  0  0  0  0
   -0.0825    1.9895    0.0707 C   0  0  0  0  0  0  0  0  0  0  0  0
    1.0845    2.8185    0.1007 C   0  0  0  0  0  0  0  0  0  0  0  0
    2.2966    2.0518    0.0732 C   0  0  0  0  0  0  0  0  0  0  0  0
    2.0555    0.6416    0.0224 C   0  0  0  0  0  0  0  0  0  0  0  0
    2.0563   -0.6391   -0.0230 C   0  0  0  0  0  3  0  0  0  0  0  0
    2.2991   -2.0490   -0.0738 C   0  0  1  0  0  3  0  0  0  0  0  0
    1.0879   -2.8171   -0.1029 C   0  0  0  0  0  0  0  0  0  0  0  0
   -0.0801   -1.9895   -0.0738 C   0  0  0  0  0  0  0  0  0  0  0  0
   -1.2491   -1.4742   -0.0571 C   0  0  0  0  0  3  0  0  0  0  0  0
    1.1377    4.2272    0.1516 C   0  0  0  0  0  0  0  0  0  0  0  0
    2.3858    4.8601    0.1746 C   0  0  0  0  0  0  0  0  0  0  0  0
    3.5808    4.1064    0.1476 C   0  0  0  0  0  0  0  0  0  0  0  0
    3.5467    2.7087    0.0973 C   0  0  0  0  0  0  0  0  0  0  0  0
    3.5500   -2.7044   -0.0964 C   0  0  0  0  0  0  0  0  0  0  0  0
    3.5858   -4.1021   -0.1471 C   0  0  0  0  0  0  0  0  0  0  0  0
    2.3917   -4.8572   -0.1757 C   0  0  0  0  0  0  0  0  0  0  0  0
    1.1429   -4.2258   -0.1540 C   0  0  0  0  0  0  0  0  0  0  0  0
   -3.4041   -0.0777    1.5981 C   0  0  0  0  0  0  0  0  0  0  0  0
   -3.4108    0.0735   -1.5937 C   0  0  0  0  0  0  0  0  0  0  0  0
   -4.3693   -1.2725    1.5681 C   0  0  0  0  0  0  0  0  0  0  0  0
   -2.4940   -0.0964    2.8339 C   0  0  0  0  0  0  0  0  0  0  0  0
   -4.3773    1.2670   -1.5599 C   0  0  0  0  0  0  0  0  0  0  0  0
   -2.5054    0.0934   -2.8330 C   0  0  0  0  0  0  0  0  0  0  0  0
    0.2055    4.8097    0.1724 H   0  0  0  0  0  0  0  0  0  0  0  0
    2.4378    5.9586    0.2141 H   0  0  0  0  0  0  0  0  0  0  0  0
    4.5505    4.6263    0.1664 H   0  0  0  0  0  0  0  0  0  0  0  0
    4.4749    2.1196    0.0762 H   0  0  0  0  0  0  0  0  0  0  0  0
    4.4775   -2.1143   -0.0741 H   0  0  0  0  0  0  0  0  0  0  0  0
    4.5561   -4.6208   -0.1649 H   0  0  0  0  0  0  0  0  0  0  0  0
    2.4450   -5.9555   -0.2154 H   0  0  0  0  0  0  0  0  0  0  0  0
    0.2114   -4.8094   -0.1760 H   0  0  0  0  0  0  0  0  0  0  0  0
   -3.9960    0.8665    1.6061 H   0  0  0  0  0  0  0  0  0  0  0  0
   -4.0014   -0.8715   -1.5994 H   0  0  0  0  0  0  0  0  0  0  0  0
   -5.0792   -1.2193    0.7172 H   0  0  0  0  0  0  0  0  0  0  0  0
   -4.9713   -1.3233    2.5006 H   0  0  0  0  0  0  0  0  0  0  0  0
   -3.8154   -2.2310    1.4805 H   0  0  0  0  0  0  0  0  0  0  0  0
   -1.8223    0.7853    2.8639 H   0  0  0  0  0  0  0  0  0  0  0  0
   -1.8515   -1.0021    2.8409 H   0  0  0  0  0  0  0  0  0  0  0  0
   -3.0910   -0.1031    3.7710 H   0  0  0  0  0  0  0  0  0  0  0  0
   -5.0839    1.2128   -0.7062 H   0  0  0  0  0  0  0  0  0  0  0  0
   -4.9830    1.3171   -2.4901 H   0  0  0  0  0  0  0  0  0  0  0  0
   -3.8243    2.2262   -1.4743 H   0  0  0  0  0  0  0  0  0  0  0  0
   -1.8326   -0.7874   -2.8654 H   0  0  0  0  0  0  0  0  0  0  0  0
   -1.8641    1.0000   -2.8424 H   0  0  0  0  0  0  0  0  0  0  0  0
   -3.1060    0.0993   -3.7678 H   0  0  0  0  0  0  0  0  0  0  0  0
  1  2  1  0  0  0  0
  1 20  1  0  0  0  0
  2  3  2  0  0  0  0
  3  4  2  0  0  0  0
  4 12  1  0  0  0  0
  5 15  1  0  0  0  0
  5  4  1  0  0  0  0
  6  5  2  0  0  0  0
  7  6  2  0  0  0  0
  8  7  1  6  0  0  0
  9  8  1  0  0  0  0
  9 10  2  0  0  0  0
 10 11  2  0  0  0  0
 11  1  1  0  0  0  0
 12 26  1  0  0  0  0
 12 13  2  0  0  0  0
 13 27  1  0  0  0  0
 14 28  1  0  0  0  0
 14 13  1  0  0  0  0
 15 14  2  0  0  0  0
 16 30  1  0  0  0  0
 16  8  1  0  0  0  0
 17 16  2  0  0  0  0
 18 19  2  0  0  0  0
 18 17  1  0  0  0  0
 19  9  1  0  0  0  0
 20 34  1  0  0  0  0
 20 23  1  0  0  0  0
 21 24  1  0  0  0  0
 21  1  1  0  0  0  0
 22 20  1  0  0  0  0
 22 37  1  0  0  0  0
 23 40  1  0  0  0  0
 23 39  1  0  0  0  0
 23 41  1  0  0  0  0
 24 44  1  0  0  0  0
 24 42  1  0  0  0  0
 25 21  1  0  0  0  0
 29 15  1  0  0  0  0
 31 17  1  0  0  0  0
 32 18  1  0  0  0  0
 33 19  1  0  0  0  0
 35 21  1  0  0  0  0
 36 22  1  0  0  0  0
 38 22  1  0  0  0  0
 43 24  1  0  0  0  0
 45 25  1  0  0  0  0
 46 25  1  0  0  0  0
 47 25  1  0  0  0  0
M  END
