3
q = 0.0, confidence = 0.992

 73 77  0  0  1  0  0  0  0  0999 V2000
   -0.3489    0.6880    0.0749 N   0  0  0  0  0  0  0  0  0  0  0  0
   -0.4952   -1.4105   -0.4187 N   0  0  0  0  0  0  0  0  0  0  0  0
    0.4070   -0.3988   -0.2844 C   0  0  0  0  0  2  0  0  0  0  0  0
   -0.1792   -2.8270   -0.6537 C   0  0  2  0  0  0  0  0  0  0  0  0
    0.8004   -2.8339   -1.1718 H   0  0  0  0  0  0  0  0  0  0  0  0
   -1.2764   -3.3785   -1.5776 C   0  0  0  0  0  0  0  0  0  0  0  0
   -1.1969   -2.8693   -2.5639 H   0  0  0  0  0  0  0  0  0  0  0  0
   -1.1049   -4.4573   -1.7594 H   0  0  0  0  0  0  0  0  0  0  0  0
   -2.6538   -3.1488   -0.9950 C   0  0  0  0  0  0  0  0  0  0  0  0
   -3.6853   -4.0933   -1.1136 C   0  0  0  0  0  0  0  0  0  0  0  0
   -3.4872   -5.0372   -1.6456 H   0  0  0  0  0  0  0  0  0  0  0  0
   -4.9535   -3.8515   -0.5641 C   0  0  0  0  0  0  0  0  0  0  0  0
   -5.7501   -4.6032   -0.6688 H   0  0  0  0  0  0  0  0  0  0  0  0
   -5.1957   -2.6563    0.1330 C   0  0  0  0  0  0  0  0  0  0  0  0
   -6.1817   -2.4679    0.5833 H   0  0  0  0  0  0  0  0  0  0  0  0
   -4.1782   -1.7054    0.2707 C   0  0  0  0  0  0  0  0  0  0  0  0
   -4.3618   -0.7810    0.8355 H   0  0  0  0  0  0  0  0  0  0  0  0
   -2.9067   -1.9318   -0.3010 C   0  0  0  0  0  0  0  0  0  0  0  0
   -1.8046   -0.9778   -0.1892 C   0  0  0  0  0  0  0  0  0  0  0  0
   -1.7187    0.3782    0.1115 C   0  0  0  0  0  0  0  0  0  0  0  0
   -2.7657    1.4026    0.2562 C   0  0  0  0  0  0  0  0  0  0  0  0
   -3.8134    1.4572   -0.6932 C   0  0  0  0  0  0  0  0  0  0  0  0
   -3.8385    0.7183   -1.5076 H   0  0  0  0  0  0  0  0  0  0  0  0
   -4.7984    2.4490   -0.6123 C   0  0  0  0  0  0  0  0  0  0  0  0
   -5.6029    2.4794   -1.3624 H   0  0  0  0  0  0  0  0  0  0  0  0
   -4.7490    3.4116    0.4099 C   0  0  0  0  0  0  0  0  0  0  0  0
   -5.5183    4.1962    0.4680 H   0  0  0  0  0  0  0  0  0  0  0  0
   -3.7111    3.3696    1.3536 C   0  0  0  0  0  0  0  0  0  0  0  0
   -3.6644    4.1193    2.1576 H   0  0  0  0  0  0  0  0  0  0  0  0
   -2.7274    2.3737    1.2813 C   0  0  0  0  0  0  0  0  0  0  0  0
   -1.9214    2.3486    2.0261 H   0  0  0  0  0  0  0  0  0  0  0  0
    0.2325    1.9697    0.3781 C   0  0  0  0  0  0  0  0  0  0  0  0
    0.2285    2.9712   -0.6180 C   0  0  0  0  0  0  0  0  0  0  0  0
    0.8118    4.2095   -0.2920 C   0  0  0  0  0  0  0  0  0  0  0  0
    0.8339    5.0098   -1.0467 H   0  0  0  0  0  0  0  0  0  0  0  0
    1.3753    4.4314    0.9700 C   0  0  0  0  0  0  0  0  0  0  0  0
    1.8342    5.4044    1.2020 H   0  0  0  0  0  0  0  0  0  0  0  0
    1.3632    3.4186    1.9374 C   0  0  0  0  0  0  0  0  0  0  0  0
    1.8139    3.6035    2.9240 H   0  0  0  0  0  0  0  0  0  0  0  0
    0.7866    2.1641    1.6674 C   0  0  0  0  0  0  0  0  0  0  0  0
    0.7856    1.0696    2.7295 C   0  0  0  0  0  0  0  0  0  0  0  0
    0.1451    0.2425    2.3591 H   0  0  0  0  0  0  0  0  0  0  0  0
    0.1831    1.5496    4.0605 C   0  0  0  0  0  0  0  0  0  0  0  0
   -0.8435    1.9491    3.9318 H   0  0  0  0  0  0  0  0  0  0  0  0
    0.7978    2.3473    4.5253 H   0  0  0  0  0  0  0  0  0  0  0  0
    0.1319    0.7105    4.7835 H   0  0  0  0  0  0  0  0  0  0  0  0
    2.1993    0.4961    2.9327 C   0  0  0  0  0  0  0  0  0  0  0  0
    2.6123    0.1081    1.9787 H   0  0  0  0  0  0  0  0  0  0  0  0
    2.1805   -0.3345    3.6680 H   0  0  0  0  0  0  0  0  0  0  0  0
    2.8948    1.2732    3.3113 H   0  0  0  0  0  0  0  0  0  0  0  0
   -0.3287    2.7172   -2.0110 C   0  0  0  0  0  0  0  0  0  0  0  0
   -0.8654    1.7475   -1.9877 H   0  0  0  0  0  0  0  0  0  0  0  0
    0.8226    2.5738   -3.0231 C   0  0  0  0  0  0  0  0  0  0  0  0
    1.5223    1.7689   -2.7173 H   0  0  0  0  0  0  0  0  0  0  0  0
    1.4051    3.5150   -3.1013 H   0  0  0  0  0  0  0  0  0  0  0  0
    0.4294    2.3314   -4.0316 H   0  0  0  0  0  0  0  0  0  0  0  0
   -1.3468    3.7880   -2.4324 C   0  0  0  0  0  0  0  0  0  0  0  0
   -1.7854    3.5348   -3.4190 H   0  0  0  0  0  0  0  0  0  0  0  0
   -0.8754    4.7877   -2.5297 H   0  0  0  0  0  0  0  0  0  0  0  0
   -2.1740    3.8685   -1.6988 H   0  0  0  0  0  0  0  0  0  0  0  0
   -0.0864   -3.5945    0.6786 C   0  0  0  0  0  0  0  0  0  0  0  0
    0.0414   -4.6721    0.4331 H   0  0  0  0  0  0  0  0  0  0  0  0
   -1.0692   -3.5131    1.1910 H   0  0  0  0  0  0  0  0  0  0  0  0
    1.0352   -3.1591    1.6385 C   0  0  0  0  0  0  0  0  0  0  0  0
    1.0075   -2.0485    1.7119 H   0  0  0  0  0  0  0  0  0  0  0  0
    0.7813   -3.7225    3.0421 C   0  0  0  0  0  0  0  0  0  0  0  0
   -0.1988   -3.3930    3.4449 H   0  0  0  0  0  0  0  0  0  0  0  0
    1.5685   -3.3948    3.7511 H   0  0  0  0  0  0  0  0  0  0  0  0
    0.7838   -4.8336    3.0334 H   0  0  0  0  0  0  0  0  0  0  0  0
    2.4246   -3.5538    1.1263 C   0  0  0  0  0  0  0  0  0  0  0  0
    3.2157   -3.2101    1.8223 H   0  0  0  0  0  0  0  0  0  0  0  0
    2.6551   -3.0963    0.1425 H   0  0  0  0  0  0  0  0  0  0  0  0
    2.5125   -4.6573    1.0297 H   0  0  0  0  0  0  0  0  0  0  0  0
  1 20  1  0  0  0  0
  1 32  1  0  0  0  0
  2  3  1  0  0  0  0
  2 19  1  0  0  0  0
  3  1  1  0  0  0  0
  4  5  1  6  0  0  0
  4  2  1  0  0  0  0
  4 61  1  0  0  0  0
  6  9  1  0  0  0  0
  6  4  1  0  0  0  0
  7  6  1  0  0  0  0
  8  6  1  0  0  0  0
  9 18  1  0  0  0  0
 10  9  2  0  0  0  0
 10 12  1  0  0  0  0
 11 10  1  0  0  0  0
 12 14  2  0  0  0  0
 13 12  1  0  0  0  0
 14 16  1  0  0  0  0
 14 15  1  0  0  0  0
 16 17  1  0  0  0  0
 18 19  1  0  0  0  0
 18 16  2  0  0  0  0
 19 20  2  0  0  0  0
 20 21  1  0  0  0  0
 21 30  1  0  0  0  0
 22 24  1  0  0  0  0
 22 21  2  0  0  0  0
 23 22  1  0  0  0  0
 24 26  2  0  0  0  0
 25 24  1  0  0  0  0
 26 27  1  0  0  0  0
 26 28  1  0  0  0  0
 28 29  1  0  0  0  0
 30 28  2  0  0  0  0
 30 31  1  0  0  0  0
 32 40  1  0  0  0  0
 33 34  1  0  0  0  0
 33 32  2  0  0  0  0
 34 36  2  0  0  0  0
 35 34  1  0  0  0  0
 36 37  1  0  0  0  0
 36 38  1  0  0  0  0
 38 39  1  0  0  0  0
 40 38  2  0  0  0  0
 40 41  1  0  0  0  0
 41 47  1  0  0  0  0
 41 43  1  0  0  0  0
 42 41  1  0  0  0  0
 43 45  1  0  0  0  0
 43 46  1  0  0  0  0
 44 43  1  0  0  0  0
 47 50  1  0  0  0  0
 47 49  1  0  0  0  0
 48 47  1  0  0  0  0
 51 52  1  0  0  0  0
 51 33  1  0  0  0  0
 53 54  1  0  0  0  0
 53 51  1  0  0  0  0
 55 53  1  0  0  0  0
 56 53  1  0  0  0  0
 57 51  1  0  0  0  0
 57 60  1  0  0  0  0
 58 57  1  0  0  0  0
 59 57  1  0  0  0  0
 61 63  1  0  0  0  0
 61 64  1  0  0  0  0
 62 61  1  0  0  0  0
 64 65  1  0  0  0  0
 64 66  1  0  0  0  0
 66 67  1  0  0  0  0
 66 68  1  0  0  0  0
 69 66  1  0  0  0  0
 70 64  1  0  0  0  0
 70 71  1  0  0  0  0
 72 70  1  0  0  0  0
 73 70  1  0  0  0  0
M  END
