10
q = -1.0

 26 27  0  0  1  0  0  0  0  0999 V2000
    3.2486   -1.2309    0.0803 N   0  0  0  0  0  0  0  0  0  0  0  0
    1.7677    2.2067    0.3211 C   0  0  2  0  0  0  0  0  0  0  0  0
    1.2201    2.4481    1.2619 H   0  0  0  0  0  0  0  0  0  0  0  0
    2.8181    1.1495    0.6090 C   0  0  0  0  0  0  0  0  0  0  0  0
    3.6335    1.3235    1.3215 H   0  0  0  0  0  0  0  0  0  0  0  0
    2.5661   -0.0448   -0.0411 C   0  0  0  0  0  0  0  0  0  0  0  0
    1.3732    0.1530   -0.8844 C   0  0  0  0  0  0  0  0  0  0  0  0
    0.5865   -0.4439   -1.9106 C   0  0  0  0  0  0  0  0  0  0  0  0
    0.6902   -1.4434   -2.3420 H   0  0  0  0  0  0  0  0  0  0  0  0
   -0.4201    0.5065   -2.2759 C   0  0  0  0  0  3  0  0  0  0  0  0
   -1.1764    0.3566   -3.0567 H   0  0  0  0  0  0  0  0  0  0  0  0
   -0.2400    1.6998   -1.4909 C   0  0  0  0  0  0  0  0  0  0  0  0
   -0.8306    2.6196   -1.5759 H   0  0  0  0  0  0  0  0  0  0  0  0
    0.8633    1.4688   -0.6343 C   0  0  0  0  0  0  0  0  0  0  0  0
    2.3163    3.5154   -0.2749 C   0  0  0  0  0  0  0  0  0  0  0  0
    3.0344    3.9889    0.4244 H   0  0  0  0  0  0  0  0  0  0  0  0
    1.5014    4.2434   -0.4687 H   0  0  0  0  0  0  0  0  0  0  0  0
    2.8457    3.3194   -1.2289 H   0  0  0  0  0  0  0  0  0  0  0  0
    4.4485   -1.2283    0.8850 C   0  0  0  0  0  0  0  0  0  0  0  0
    5.2451   -0.5676    0.4643 H   0  0  0  0  0  0  0  0  0  0  0  0
    4.8505   -2.2554    0.9621 H   0  0  0  0  0  0  0  0  0  0  0  0
    4.2272   -0.8650    1.9129 H   0  0  0  0  0  0  0  0  0  0  0  0
    2.9389   -2.3651   -0.7679 C   0  0  0  0  0  0  0  0  0  0  0  0
    1.8525   -2.5871   -0.7502 H   0  0  0  0  0  0  0  0  0  0  0  0
    3.4567   -3.2604   -0.3747 H   0  0  0  0  0  0  0  0  0  0  0  0
    3.2597   -2.2279   -1.8288 H   0  0  0  0  0  0  0  0  0  0  0  0
  1 19  1  0  0  0  0
  2  4  1  0  0  0  0
  2  3  1  1  0  0  0
  4  5  1  0  0  0  0
  6  1  1  0  0  0  0
  6  4  2  0  0  0  0
  7 14  1  0  0  0  0
  7  6  1  0  0  0  0
  8  7  2  0  0  0  0
  9  8  1  0  0  0  0
 10  8  1  0  0  0  0
 10 12  1  0  0  0  0
 11 10  1  0  0  0  0
 12 14  2  0  0  0  0
 13 12  1  0  0  0  0
 14  2  1  0  0  0  0
 15  2  1  0  0  0  0
 15 16  1  0  0  0  0
 17 15  1  0  0  0  0
 18 15  1  0  0  0  0
 19 21  1  0  0  0  0
 19 22  1  0  0  0  0
 20 19  1  0  0  0  0
 23 24  1  0  0  0  0
 23 25  1  0  0  0  0
 23  1  1  0  0  0  0
 26 23  1  0  0  0  0
M  END
