4
q = 0.0, confidence = 0.98

 36 36  0  0  0  0  0  0  0  0999 V2000
    4.3179   -0.5503    0.0261 Si  0  0  0  0  0  0  0  0  0  0  0  0
   -0.5894    4.0014    0.1602 Si  0  0  0  0  0  0  0  0  0  0  0  0
    0.6409    2.5635    0.0367 C   0  0  0  0  0  0  0  0  0  0  0  0
    1.5527    2.4757   -1.0740 C   0  0  0  0  0  3  0  0  0  0  0  0
    2.6379    1.5612   -1.0849 C   0  0  0  0  0  0  0  0  0  0  0  0
    2.8243    0.6351   -0.0072 C   0  0  0  0  0  0  0  0  0  0  0  0
    1.8918    0.6711    1.0729 C   0  0  0  0  0  3  0  0  0  0  0  0
    0.8117    1.6064    1.0782 C   0  0  0  0  0  0  0  0  0  0  0  0
   -1.8164    3.6891    1.5647 C   0  0  0  0  0  0  0  0  0  0  0  0
    0.4427    5.5331    0.5917 C   0  0  0  0  0  0  0  0  0  0  0  0
   -1.4309    4.3215   -1.5058 C   0  0  0  0  0  0  0  0  0  0  0  0
    5.5936    0.2460    1.1791 C   0  0  0  0  0  0  0  0  0  0  0  0
    5.0297   -0.7289   -1.7136 C   0  0  0  0  0  0  0  0  0  0  0  0
    3.8132   -2.2396    0.7037 C   0  0  0  0  0  0  0  0  0  0  0  0
    1.4156    3.1392   -1.9416 H   0  0  0  0  0  0  0  0  0  0  0  0
    3.2996    1.5274   -1.9618 H   0  0  0  0  0  0  0  0  0  0  0  0
    1.9682   -0.0538    1.8956 H   0  0  0  0  0  0  0  0  0  0  0  0
    0.1060    1.5863    1.9221 H   0  0  0  0  0  0  0  0  0  0  0  0
   -1.2861    3.6392    2.5380 H   0  0  0  0  0  0  0  0  0  0  0  0
   -2.3885    2.7512    1.4284 H   0  0  0  0  0  0  0  0  0  0  0  0
   -2.5439    4.5246    1.6257 H   0  0  0  0  0  0  0  0  0  0  0  0
    0.9675    5.3986    1.5595 H   0  0  0  0  0  0  0  0  0  0  0  0
   -0.1986    6.4356    0.6709 H   0  0  0  0  0  0  0  0  0  0  0  0
    1.2101    5.7276   -0.1853 H   0  0  0  0  0  0  0  0  0  0  0  0
   -1.9453    3.4339   -1.9217 H   0  0  0  0  0  0  0  0  0  0  0  0
   -0.6827    4.6464   -2.2580 H   0  0  0  0  0  0  0  0  0  0  0  0
   -2.1740    5.1395   -1.4056 H   0  0  0  0  0  0  0  0  0  0  0  0
    5.8921    1.2488    0.8110 H   0  0  0  0  0  0  0  0  0  0  0  0
    6.5079   -0.3788    1.2512 H   0  0  0  0  0  0  0  0  0  0  0  0
    5.1818    0.3694    2.2016 H   0  0  0  0  0  0  0  0  0  0  0  0
    5.9120   -1.4015   -1.6916 H   0  0  0  0  0  0  0  0  0  0  0  0
    5.3642    0.2434   -2.1292 H   0  0  0  0  0  0  0  0  0  0  0  0
    4.2799   -1.1697   -2.4001 H   0  0  0  0  0  0  0  0  0  0  0  0
    3.3461   -2.1584    1.7055 H   0  0  0  0  0  0  0  0  0  0  0  0
    4.7081   -2.8887    0.7995 H   0  0  0  0  0  0  0  0  0  0  0  0
    3.0996   -2.7359    0.0166 H   0  0  0  0  0  0  0  0  0  0  0  0
  1 14  1  0  0  0  0
  1 12  1  0  0  0  0
  2 10  1  0  0  0  0
  2  9  1  0  0  0  0
  3  2  1  0  0  0  0
  3  8  2  0  0  0  0
  4  3  1  0  0  0  0
  5  4  1  0  0  0  0
  5  6  2  0  0  0  0
  6  1  1  0  0  0  0
  6  7  1  0  0  0  0
  7  8  1  0  0  0  0
  7 17  1  0  0  0  0
  8 18  1  0  0  0  0
  9 21  1  0  0  0  0
  9 19  1  0  0  0  0
 10 23  1  0  0  0  0
 10 22  1  0  0  0  0
 11 27  1  0  0  0  0
 11  2  1  0  0  0  0
 12 29  1  0  0  0  0
 12 30  1  0  0  0  0
 13 31  1  0  0  0  0
 13  1  1  0  0  0  0
 14 35  1  0  0  0  0
 14 34  1  0  0  0  0
 15  4  1  0  0  0  0
 16  5  1  0  0  0  0
 20  9  1  0  0  0  0
 24 10  1  0  0  0  0
 25 11  1  0  0  0  0
 26 11  1  0  0  0  0
 28 12  1  0  0  0  0
 32 13  1  0  0  0  0
 33 13  1  0  0  0  0
 36 14  1  0  0  0  0
M  END
