2
q = -1.0

 16 16  0  0  0  0  0  0  0  0999 V2000
    4.5453    2.2006    0.1545 S   0  0  0  0  0  0  0  0  0  0  0  0
    1.9639    1.3933    0.6146 C   0  0  0  0  0  3  0  0  0  0  0  0
    2.9758    1.4644   -0.2685 C   0  0  0  0  0  0  0  0  0  0  0  0
    5.6311    0.7927    0.0433 C   0  0  0  0  0  0  0  0  0  0  0  0
    7.0229    1.0299   -0.0053 C   0  0  0  0  0  0  0  0  0  0  0  0
    7.9185   -0.0460   -0.0631 C   0  0  0  0  0  0  0  0  0  0  0  0
    7.4467   -1.3698   -0.0897 C   0  0  0  0  0  0  0  0  0  0  0  0
    6.0632   -1.6046   -0.0472 C   0  0  0  0  0  0  0  0  0  0  0  0
    5.1573   -0.5365    0.0274 C   0  0  0  0  0  0  0  0  0  0  0  0
    2.1012    1.7754    1.6447 H   0  0  0  0  0  0  0  0  0  0  0  0
    2.8959    1.0816   -1.3016 H   0  0  0  0  0  0  0  0  0  0  0  0
    7.3987    2.0649   -0.0031 H   0  0  0  0  0  0  0  0  0  0  0  0
    9.0007    0.1542   -0.0983 H   0  0  0  0  0  0  0  0  0  0  0  0
    8.1537   -2.2109   -0.1452 H   0  0  0  0  0  0  0  0  0  0  0  0
    5.6772   -2.6364   -0.0682 H   0  0  0  0  0  0  0  0  0  0  0  0
    4.0750   -0.7229    0.0802 H   0  0  0  0  0  0  0  0  0  0  0  0
  2 10  1  0  0  0  0
  3  1  1  0  0  0  0
  3  2  2  0  0  0  0
  4  1  1  0  0  0  0
  5 12  1  0  0  0  0
  5  4  2  0  0  0  0
  6  5  1  0  0  0  0
  7  6  2  0  0  0  0
  7  8  1  0  0  0  0
  8  9  2  0  0  0  0
  9  4  1  0  0  0  0
  9 16  1  0  0  0  0
 11  3  1  0  0  0  0
 13  6  1  0  0  0  0
 14  7  1  0  0  0  0
 15  8  1  0  0  0  0
M  END
