6
q = -1.0

 17 17  0  0  0  0  0  0  0  0999 V2000
    4.5987   -3.0430   -0.3130 Cl  0  0  0  0  0  0  0  0  0  0  0  0
    4.1896   -0.5937    1.7266 O   0  0  0  0  0  0  0  0  0  0  0  0
    2.1470    0.4065    1.8123 O   0  0  0  0  0  0  0  0  0  0  0  0
    1.1612   -1.9474   -1.4560 N   0  0  0  0  0  0  0  0  0  0  0  0
    2.2701   -2.7413   -1.5467 N   0  0  0  0  0  0  0  0  0  0  0  0
    1.2080   -1.0284   -0.4505 C   0  0  0  0  0  3  0  0  0  0  0  0
    3.0592   -2.3138   -0.5680 C   0  0  0  0  0  0  0  0  0  0  0  0
    2.4702   -1.2396    0.1732 C   0  0  0  0  0  0  0  0  0  0  0  0
    0.0731   -2.1875   -2.3843 C   0  0  0  0  0  0  0  0  0  0  0  0
    3.0599   -0.4939    1.2799 C   0  0  0  0  0  0  0  0  0  0  0  0
    2.6515    1.2210    2.8691 C   0  0  0  0  0  0  0  0  0  0  0  0
   -0.5748   -1.2942   -2.4085 H   0  0  0  0  0  0  0  0  0  0  0  0
    0.4960   -2.3891   -3.3862 H   0  0  0  0  0  0  0  0  0  0  0  0
   -0.5302   -3.0616   -2.0646 H   0  0  0  0  0  0  0  0  0  0  0  0
    2.9876    0.6045    3.7276 H   0  0  0  0  0  0  0  0  0  0  0  0
    3.5158    1.8280    2.5289 H   0  0  0  0  0  0  0  0  0  0  0  0
    1.8164    1.8792    3.1731 H   0  0  0  0  0  0  0  0  0  0  0  0
  3 11  1  0  0  0  0
  4  6  1  0  0  0  0
  5  4  1  0  0  0  0
  5  7  2  0  0  0  0
  6  8  2  0  0  0  0
  7  1  1  0  0  0  0
  7  8  1  0  0  0  0
  8 10  1  0  0  0  0
  9 14  1  0  0  0  0
  9  4  1  0  0  0  0
 10  2  2  0  0  0  0
 10  3  1  0  0  0  0
 11 17  1  0  0  0  0
 11 15  1  0  0  0  0
 12  9  1  0  0  0  0
 13  9  1  0  0  0  0
 16 11  1  0  0  0  0
M  END
