2
q = -1

 24 23  0  0  0  0  0  0  0  0999 V2000
    3.6820    0.0997    0.0715 Si  0  0  0  0  0  0  0  0  0  0  0  0
    0.6163   -0.0534   -0.0173 C   0  0  0  0  0  3  0  0  0  0  0  0
    1.8713   -0.0497   -0.0207 C   0  0  0  0  0  0  0  0  0  0  0  0
    4.3911   -1.2336    1.2386 C   0  0  0  0  0  0  0  0  0  0  0  0
    3.9132   -1.0866    2.2326 H   0  0  0  0  0  0  0  0  0  0  0  0
    4.0225   -2.2195    0.8786 H   0  0  0  0  0  0  0  0  0  0  0  0
    5.9197   -1.2424    1.3671 C   0  0  0  0  0  0  0  0  0  0  0  0
    6.4107   -1.4221    0.3876 H   0  0  0  0  0  0  0  0  0  0  0  0
    6.2820   -2.0300    2.0613 H   0  0  0  0  0  0  0  0  0  0  0  0
    6.3058   -0.2730    1.7461 H   0  0  0  0  0  0  0  0  0  0  0  0
    4.4626   -0.0987   -1.6591 C   0  0  0  0  0  0  0  0  0  0  0  0
    4.0486    0.7052   -2.3066 H   0  0  0  0  0  0  0  0  0  0  0  0
    5.5522    0.1130   -1.5740 H   0  0  0  0  0  0  0  0  0  0  0  0
    4.2292   -1.4706   -2.3028 C   0  0  0  0  0  0  0  0  0  0  0  0
    4.6712   -2.2881   -1.6953 H   0  0  0  0  0  0  0  0  0  0  0  0
    4.6689   -1.5444   -3.3199 H   0  0  0  0  0  0  0  0  0  0  0  0
    3.1449   -1.6892   -2.3942 H   0  0  0  0  0  0  0  0  0  0  0  0
    4.1365    1.8264    0.7516 C   0  0  0  0  0  0  0  0  0  0  0  0
    3.8038    1.8606    1.8133 H   0  0  0  0  0  0  0  0  0  0  0  0
    5.2454    1.9159    0.7797 H   0  0  0  0  0  0  0  0  0  0  0  0
    3.5228    2.9915   -0.0338 C   0  0  0  0  0  0  0  0  0  0  0  0
    3.8736    3.0061   -1.0869 H   0  0  0  0  0  0  0  0  0  0  0  0
    3.7692    3.9806    0.4071 H   0  0  0  0  0  0  0  0  0  0  0  0
    2.4161    2.9045   -0.0664 H   0  0  0  0  0  0  0  0  0  0  0  0
  1 18  1  0  0  0  0
  1  4  1  0  0  0  0
  3  2  3  0  0  0  0
  3  1  1  0  0  0  0
  4  7  1  0  0  0  0
  4  5  1  0  0  0  0
  6  4  1  0  0  0  0
  7 10  1  0  0  0  0
  7  9  1  0  0  0  0
  8  7  1  0  0  0  0
 11 13  1  0  0  0  0
 11  1  1  0  0  0  0
 12 11  1  0  0  0  0
 14 15  1  0  0  0  0
 14 11  1  0  0  0  0
 16 14  1  0  0  0  0
 17 14  1  0  0  0  0
 18 20  1  0  0  0  0
 18 19  1  0  0  0  0
 21 23  1  0  0  0  0
 21 18  1  0  0  0  0
 22 21  1  0  0  0  0
 24 21  1  0  0  0  0
M  END
