4
q = 0.0, confidence = 0.968

 26 26  0  0  1  0  0  0  0  0999 V2000
   -4.4197    0.6186   -0.3745 O   0  0  0  0  0  0  0  0  0  0  0  0
    0.5966    4.6053   -1.2126 O   0  0  0  0  0  0  0  0  0  0  0  0
   -0.1737    2.0385    0.7869 C   0  0  1  0  0  3  0  0  0  0  0  0
   -1.1785    1.0623    1.1777 C   0  0  0  0  0  3  0  0  0  0  0  0
   -2.5726    1.6107    0.8261 C   0  0  1  0  0  0  0  0  0  0  0  0
   -2.3062    2.5916   -0.3150 C   0  0  0  0  0  0  0  0  0  0  0  0
   -0.9372    3.2119    0.0526 C   0  0  2  0  0  0  0  0  0  0  0  0
   -3.7272    0.6426    0.6400 C   0  0  0  0  0  0  0  0  0  0  0  0
   -4.0138   -0.2792    1.8139 C   0  0  0  0  0  0  0  0  0  0  0  0
   -0.1623    3.6486   -1.1753 C   0  0  0  0  0  0  0  0  0  0  0  0
   -1.1160    4.4175    0.9931 C   0  0  0  0  0  0  0  0  0  0  0  0
    0.9412    2.4725    1.7225 C   0  0  0  0  0  0  0  0  0  0  0  0
   -1.1067    0.6286    2.1898 H   0  0  0  0  0  0  0  0  0  0  0  0
   -2.8822    2.1967    1.7287 H   0  0  0  0  0  0  0  0  0  0  0  0
   -3.0989    3.3592   -0.4107 H   0  0  0  0  0  0  0  0  0  0  0  0
   -2.2652    2.0508   -1.2797 H   0  0  0  0  0  0  0  0  0  0  0  0
   -4.0768    0.2931    2.7616 H   0  0  0  0  0  0  0  0  0  0  0  0
   -3.1781   -0.9998    1.9346 H   0  0  0  0  0  0  0  0  0  0  0  0
   -4.9562   -0.8325    1.6467 H   0  0  0  0  0  0  0  0  0  0  0  0
   -0.3008    2.9888   -2.0785 H   0  0  0  0  0  0  0  0  0  0  0  0
   -1.7737    5.1728    0.5172 H   0  0  0  0  0  0  0  0  0  0  0  0
   -1.5749    4.1177    1.9563 H   0  0  0  0  0  0  0  0  0  0  0  0
   -0.1481    4.9098    1.1983 H   0  0  0  0  0  0  0  0  0  0  0  0
    1.4607    1.6013    2.1625 H   0  0  0  0  0  0  0  0  0  0  0  0
    0.5567    3.0916    2.5617 H   0  0  0  0  0  0  0  0  0  0  0  0
    1.7033    3.0790    1.1928 H   0  0  0  0  0  0  0  0  0  0  0  0
  1  8  2  0  0  0  0
  2 10  2  0  0  0  0
  3  4  1  0  0  0  0
  3 12  1  1  0  0  0
  4 13  1  0  0  0  0
  5  4  1  0  0  0  0
  5 14  1  1  0  0  0
  6  7  1  0  0  0  0
  6  5  1  0  0  0  0
  7 10  1  6  0  0  0
  7  3  1  0  0  0  0
  7 11  1  0  0  0  0
  8  5  1  0  0  0  0
  8  9  1  0  0  0  0
  9 18  1  0  0  0  0
  9 17  1  0  0  0  0
 11 23  1  0  0  0  0
 11 22  1  0  0  0  0
 12 24  1  0  0  0  0
 12 25  1  0  0  0  0
 15  6  1  0  0  0  0
 16  6  1  0  0  0  0
 19  9  1  0  0  0  0
 20 10  1  0  0  0  0
 21 11  1  0  0  0  0
 26 12  1  0  0  0  0
M  END
