5
q = 0.0, confidence = 0.998

 57 57  0  0  0  0  0  0  0  0999 V2000
   -1.8262    0.2043   -0.5322 P   0  0  0  0  0  0  0  0  0  0  0  0
   -0.1397   -0.3954   -0.0951 N   0  0  0  0  0  0  0  0  0  0  0  0
   -2.5334   -1.3580   -0.6514 N   0  0  0  0  0  0  0  0  0  0  0  0
   -2.2358    0.9100    0.9714 N   0  0  0  0  0  0  0  0  0  0  0  0
    1.0415    0.2044   -0.1656 C   0  0  0  0  0  2  0  0  0  0  0  0
   -2.8201   -2.2702    0.4707 C   0  0  0  0  0  0  0  0  0  0  0  0
   -4.3314   -2.4425    0.6875 C   0  0  0  0  0  0  0  0  0  0  0  0
   -2.1044   -3.6251    0.3494 C   0  0  0  0  0  0  0  0  0  0  0  0
   -2.9169   -1.7970   -2.0160 C   0  0  0  0  0  0  0  0  0  0  0  0
   -1.6957   -1.9351   -2.9365 C   0  0  0  0  0  0  0  0  0  0  0  0
   -4.0065   -0.9112   -2.6360 C   0  0  0  0  0  0  0  0  0  0  0  0
   -3.0594    2.1448    0.8965 C   0  0  0  0  0  0  0  0  0  0  0  0
   -2.3666    3.2727    0.1206 C   0  0  0  0  0  0  0  0  0  0  0  0
   -4.4683    1.8553    0.3626 C   0  0  0  0  0  0  0  0  0  0  0  0
   -1.7455    0.5043    2.3065 C   0  0  0  0  0  0  0  0  0  0  0  0
   -0.8084    1.5512    2.9240 C   0  0  0  0  0  0  0  0  0  0  0  0
   -2.8867    0.1387    3.2674 C   0  0  0  0  0  0  0  0  0  0  0  0
    1.0191    1.6193   -0.6167 C   0  0  0  0  0  0  0  0  0  0  0  0
    1.5157    2.6641    0.1934 C   0  0  0  0  0  0  0  0  0  0  0  0
    1.5026    3.9874   -0.2662 C   0  0  0  0  0  0  0  0  0  0  0  0
    1.0314    4.2861   -1.5549 C   0  0  0  0  0  0  0  0  0  0  0  0
    0.5738    3.2491   -2.3832 C   0  0  0  0  0  0  0  0  0  0  0  0
    0.5566    1.9276   -1.9174 C   0  0  0  0  0  0  0  0  0  0  0  0
   -0.1134   -1.4050    0.0992 H   0  0  0  0  0  0  0  0  0  0  0  0
   -2.4202   -1.7717    1.3749 H   0  0  0  0  0  0  0  0  0  0  0  0
   -4.5337   -3.0507    1.5924 H   0  0  0  0  0  0  0  0  0  0  0  0
   -4.8086   -2.9585   -0.1711 H   0  0  0  0  0  0  0  0  0  0  0  0
   -4.8212   -1.4566    0.8093 H   0  0  0  0  0  0  0  0  0  0  0  0
   -2.3262   -4.2567    1.2332 H   0  0  0  0  0  0  0  0  0  0  0  0
   -1.0038   -3.5120    0.2923 H   0  0  0  0  0  0  0  0  0  0  0  0
   -2.4372   -4.1878   -0.5466 H   0  0  0  0  0  0  0  0  0  0  0  0
   -3.3502   -2.8112   -1.8892 H   0  0  0  0  0  0  0  0  0  0  0  0
   -1.2269   -0.9455   -3.1208 H   0  0  0  0  0  0  0  0  0  0  0  0
   -1.9818   -2.3566   -3.9216 H   0  0  0  0  0  0  0  0  0  0  0  0
   -0.9261   -2.5936   -2.4871 H   0  0  0  0  0  0  0  0  0  0  0  0
   -4.3289   -1.3107   -3.6190 H   0  0  0  0  0  0  0  0  0  0  0  0
   -3.6299    0.1199   -2.7958 H   0  0  0  0  0  0  0  0  0  0  0  0
   -4.8928   -0.8544   -1.9740 H   0  0  0  0  0  0  0  0  0  0  0  0
   -3.1692    2.4859    1.9468 H   0  0  0  0  0  0  0  0  0  0  0  0
   -2.9705    4.2021    0.1571 H   0  0  0  0  0  0  0  0  0  0  0  0
   -2.2289    2.9971   -0.9445 H   0  0  0  0  0  0  0  0  0  0  0  0
   -1.3643    3.4873    0.5389 H   0  0  0  0  0  0  0  0  0  0  0  0
   -5.0996    2.7668    0.3886 H   0  0  0  0  0  0  0  0  0  0  0  0
   -4.9650    1.0684    0.9643 H   0  0  0  0  0  0  0  0  0  0  0  0
   -4.4271    1.5041   -0.6893 H   0  0  0  0  0  0  0  0  0  0  0  0
   -1.1333   -0.4063    2.1411 H   0  0  0  0  0  0  0  0  0  0  0  0
   -0.3471    1.1614    3.8529 H   0  0  0  0  0  0  0  0  0  0  0  0
   -1.3501    2.4842    3.1825 H   0  0  0  0  0  0  0  0  0  0  0  0
    0.0040    1.8110    2.2218 H   0  0  0  0  0  0  0  0  0  0  0  0
   -3.5173    1.0214    3.4996 H   0  0  0  0  0  0  0  0  0  0  0  0
   -2.4780   -0.2337    4.2284 H   0  0  0  0  0  0  0  0  0  0  0  0
   -3.5454   -0.6432    2.8424 H   0  0  0  0  0  0  0  0  0  0  0  0
    1.9203    2.4322    1.1888 H   0  0  0  0  0  0  0  0  0  0  0  0
    1.8799    4.7909    0.3843 H   0  0  0  0  0  0  0  0  0  0  0  0
    1.0364    5.3242   -1.9192 H   0  0  0  0  0  0  0  0  0  0  0  0
    0.2253    3.4694   -3.4036 H   0  0  0  0  0  0  0  0  0  0  0  0
    0.2064    1.1174   -2.5733 H   0  0  0  0  0  0  0  0  0  0  0  0
  1  2  1  0  0  0  0
  1  4  1  0  0  0  0
  2 24  1  0  0  0  0
  3  1  1  0  0  0  0
  3  6  1  0  0  0  0
  4 15  1  0  0  0  0
  5  2  1  0  0  0  0
  6  7  1  0  0  0  0
  6 25  1  0  0  0  0
  7 28  1  0  0  0  0
  7 26  1  0  0  0  0
  8  6  1  0  0  0  0
  8 29  1  0  0  0  0
  9 32  1  0  0  0  0
  9  3  1  0  0  0  0
 10 35  1  0  0  0  0
 10  9  1  0  0  0  0
 11  9  1  0  0  0  0
 11 38  1  0  0  0  0
 12  4  1  0  0  0  0
 12 39  1  0  0  0  0
 13 40  1  0  0  0  0
 13 42  1  0  0  0  0
 13 12  1  0  0  0  0
 14 43  1  0  0  0  0
 14 12  1  0  0  0  0
 14 44  1  0  0  0  0
 15 16  1  0  0  0  0
 15 17  1  0  0  0  0
 16 48  1  0  0  0  0
 16 47  1  0  0  0  0
 17 50  1  0  0  0  0
 17 51  1  0  0  0  0
 18  5  1  0  0  0  0
 18 19  1  0  0  0  0
 19 53  1  0  0  0  0
 20 19  2  0  0  0  0
 20 54  1  0  0  0  0
 21 20  1  0  0  0  0
 22 23  1  0  0  0  0
 22 21  2  0  0  0  0
 23 18  2  0  0  0  0
 27  7  1  0  0  0  0
 30  8  1  0  0  0  0
 31  8  1  0  0  0  0
 33 10  1  0  0  0  0
 34 10  1  0  0  0  0
 36 11  1  0  0  0  0
 37 11  1  0  0  0  0
 41 13  1  0  0  0  0
 45 14  1  0  0  0  0
 46 15  1  0  0  0  0
 49 16  1  0  0  0  0
 52 17  1  0  0  0  0
 55 21  1  0  0  0  0
 56 22  1  0  0  0  0
 57 23  1  0  0  0  0
M  END
