4
q = -2.0, confidence = 0.892

 24 24  0  0  0  0  0  0  0  0999 V2000
   -1.0371   -0.6179   -1.0458 S   0  0  0  0  0  0  0  0  0  0  0  0
   -2.7172    0.0672    1.0588 N   0  0  0  0  0  2  0  0  0  0  0  0
   -0.4274   -0.3147    2.8649 C   0  0  0  0  0  0  0  0  0  0  0  0
   -0.3255   -0.2146    1.5215 C   0  0  0  0  0  3  0  0  0  0  0  0
   -1.5237   -0.2145    0.6575 C   0  0  0  0  0  0  0  0  0  0  0  0
   -3.8288    0.0355    0.1333 C   0  0  0  0  0  0  0  0  0  0  0  0
   -4.5070   -1.3496    0.1711 C   0  0  0  0  0  0  0  0  0  0  0  0
   -5.7460   -1.4008   -0.7300 C   0  0  0  0  0  0  0  0  0  0  0  0
   -6.7438   -0.2889   -0.3797 C   0  0  0  0  0  0  0  0  0  0  0  0
   -6.0743    1.0912   -0.4231 C   0  0  0  0  0  0  0  0  0  0  0  0
   -4.8372    1.1427    0.4807 C   0  0  0  0  0  0  0  0  0  0  0  0
    0.4443   -0.2784    3.5377 H   0  0  0  0  0  0  0  0  0  0  0  0
   -1.4235   -0.4130    3.3361 H   0  0  0  0  0  0  0  0  0  0  0  0
   -3.4681    0.1971   -0.9164 H   0  0  0  0  0  0  0  0  0  0  0  0
   -3.7655   -2.1191   -0.1293 H   0  0  0  0  0  0  0  0  0  0  0  0
   -4.7886   -1.5666    1.2254 H   0  0  0  0  0  0  0  0  0  0  0  0
   -5.4300   -1.2858   -1.7914 H   0  0  0  0  0  0  0  0  0  0  0  0
   -6.2314   -2.3971   -0.6561 H   0  0  0  0  0  0  0  0  0  0  0  0
   -7.6169   -0.3196   -1.0654 H   0  0  0  0  0  0  0  0  0  0  0  0
   -7.1423   -0.4671    0.6447 H   0  0  0  0  0  0  0  0  0  0  0  0
   -5.7726    1.3154   -1.4715 H   0  0  0  0  0  0  0  0  0  0  0  0
   -6.7959    1.8835   -0.1319 H   0  0  0  0  0  0  0  0  0  0  0  0
   -5.1310    1.0165    1.5462 H   0  0  0  0  0  0  0  0  0  0  0  0
   -4.3354    2.1314    0.4103 H   0  0  0  0  0  0  0  0  0  0  0  0
  1  5  2  0  0  0  0
  3 13  1  0  0  0  0
  3 12  1  0  0  0  0
  4  3  2  0  0  0  0
  5  2  1  0  0  0  0
  5  4  1  0  0  0  0
  6  7  1  0  0  0  0
  6 11  1  0  0  0  0
  6  2  1  0  0  0  0
  7 16  1  0  0  0  0
  8 18  1  0  0  0  0
  8  9  1  0  0  0  0
  8  7  1  0  0  0  0
  9 20  1  0  0  0  0
 10  9  1  0  0  0  0
 10 22  1  0  0  0  0
 10 11  1  0  0  0  0
 11 23  1  0  0  0  0
 14  6  1  0  0  0  0
 15  7  1  0  0  0  0
 17  8  1  0  0  0  0
 19  9  1  0  0  0  0
 21 10  1  0  0  0  0
 24 11  1  0  0  0  0
M  END
