7
q = -1.0

 76 80  0  0  0  0  0  0  0  0999 V2000
   -2.1872   -0.2414   -0.3252 P   0  0  0  0  0  0  0  0  0  0  0  0
    1.7704   -0.2089   -0.8254 P   0  0  0  0  0  0  0  0  0  0  0  0
    0.9168   -0.8372    0.6716 C   0  0  0  0  0  0  0  0  0  0  0  0
    2.2066    1.4985   -0.2617 C   0  0  0  0  0  0  0  0  0  0  0  0
    0.3442   -1.2431    2.9017 C   0  0  0  0  0  0  0  0  0  0  0  0
    0.2699   -1.1527    3.9917 H   0  0  0  0  0  0  0  0  0  0  0  0
    1.0690   -0.3748    2.0300 C   0  0  0  0  0  3  0  0  0  0  0  0
    1.6679    0.4952    2.3254 H   0  0  0  0  0  0  0  0  0  0  0  0
    0.0485   -2.0091    0.7128 C   0  0  0  0  0  0  0  0  0  0  0  0
    3.3978   -1.0781   -0.7089 C   0  0  0  0  0  0  0  0  0  0  0  0
   -2.6550    1.4232   -0.9621 C   0  0  0  0  0  0  0  0  0  0  0  0
    3.4085    1.8224    0.3997 C   0  0  0  0  0  0  0  0  0  0  0  0
    4.1576    1.0374    0.5877 H   0  0  0  0  0  0  0  0  0  0  0  0
    1.2571    2.5056   -0.5069 C   0  0  0  0  0  0  0  0  0  0  0  0
    0.3163    2.2565   -1.0227 H   0  0  0  0  0  0  0  0  0  0  0  0
   -0.2751   -2.2531    2.0897 C   0  0  0  0  0  0  0  0  0  0  0  0
   -0.9102   -3.0718    2.4503 H   0  0  0  0  0  0  0  0  0  0  0  0
   -3.8051   -1.1447   -0.3492 C   0  0  0  0  0  0  0  0  0  0  0  0
   -0.3748   -2.8749   -0.4021 C   0  0  0  0  0  0  0  0  0  0  0  0
   -0.1971   -3.9544   -0.2564 H   0  0  0  0  0  0  0  0  0  0  0  0
   -1.0241   -2.4885   -1.5315 C   0  0  0  0  0  0  0  0  0  0  0  0
    3.7093   -2.0163    0.2888 C   0  0  0  0  0  0  0  0  0  0  0  0
    2.9757   -2.2372    1.0794 H   0  0  0  0  0  0  0  0  0  0  0  0
    4.3484   -0.8010   -1.7164 C   0  0  0  0  0  0  0  0  0  0  0  0
    4.1045   -0.0725   -2.5077 H   0  0  0  0  0  0  0  0  0  0  0  0
    2.6792    4.1253    0.5827 C   0  0  0  0  0  0  0  0  0  0  0  0
    2.8635    5.1587    0.9208 H   0  0  0  0  0  0  0  0  0  0  0  0
    3.6611    3.1408    0.8216 C   0  0  0  0  0  0  0  0  0  0  0  0
    4.9573   -2.6768    0.2983 C   0  0  0  0  0  0  0  0  0  0  0  0
    5.8893   -2.3666   -0.7059 C   0  0  0  0  0  0  0  0  0  0  0  0
    6.8693   -2.8723   -0.7022 H   0  0  0  0  0  0  0  0  0  0  0  0
   -2.1431    1.9620   -2.1595 C   0  0  0  0  0  0  0  0  0  0  0  0
   -1.4833    1.3643   -2.8042 H   0  0  0  0  0  0  0  0  0  0  0  0
    5.6048   -1.4273   -1.7214 C   0  0  0  0  0  0  0  0  0  0  0  0
    1.4702    3.8287   -0.0716 C   0  0  0  0  0  0  0  0  0  0  0  0
   -3.9455   -2.2953    0.4512 C   0  0  0  0  0  0  0  0  0  0  0  0
   -3.1274   -2.5782    1.1297 H   0  0  0  0  0  0  0  0  0  0  0  0
   -1.4736   -3.4875   -2.5603 C   0  0  0  0  0  0  0  0  0  0  0  0
   -1.1798   -4.5209   -2.2930 H   0  0  0  0  0  0  0  0  0  0  0  0
   -1.0506   -3.2515   -3.5606 H   0  0  0  0  0  0  0  0  0  0  0  0
   -2.5800   -3.4530   -2.6687 H   0  0  0  0  0  0  0  0  0  0  0  0
   -2.4629    3.2764   -2.5398 C   0  0  0  0  0  0  0  0  0  0  0  0
   -2.0526    3.6861   -3.4755 H   0  0  0  0  0  0  0  0  0  0  0  0
   -3.4945    2.2218   -0.1549 C   0  0  0  0  0  0  0  0  0  0  0  0
   -3.8920    1.8147    0.7881 H   0  0  0  0  0  0  0  0  0  0  0  0
    4.9558    3.5022    1.5076 C   0  0  0  0  0  0  0  0  0  0  0  0
    4.7768    4.0907    2.4308 H   0  0  0  0  0  0  0  0  0  0  0  0
    5.5972    4.1263    0.8492 H   0  0  0  0  0  0  0  0  0  0  0  0
    5.5374    2.6007    1.7816 H   0  0  0  0  0  0  0  0  0  0  0  0
    5.2659   -3.6977    1.3658 C   0  0  0  0  0  0  0  0  0  0  0  0
    4.6614   -4.6188    1.2240 H   0  0  0  0  0  0  0  0  0  0  0  0
    5.0247   -3.3111    2.3772 H   0  0  0  0  0  0  0  0  0  0  0  0
    6.3331   -3.9930    1.3559 H   0  0  0  0  0  0  0  0  0  0  0  0
   -6.1615   -2.6865   -0.4709 C   0  0  0  0  0  0  0  0  0  0  0  0
   -7.0842   -3.2851   -0.5144 H   0  0  0  0  0  0  0  0  0  0  0  0
   -4.8559   -0.7712   -1.2116 C   0  0  0  0  0  0  0  0  0  0  0  0
   -4.7572    0.1284   -1.8385 H   0  0  0  0  0  0  0  0  0  0  0  0
   -5.1162   -3.0652    0.3861 C   0  0  0  0  0  0  0  0  0  0  0  0
   -5.2161   -3.9618    1.0167 H   0  0  0  0  0  0  0  0  0  0  0  0
   -3.2989    4.0619   -1.7332 C   0  0  0  0  0  0  0  0  0  0  0  0
   -3.5459    5.0920   -2.0313 H   0  0  0  0  0  0  0  0  0  0  0  0
   -6.0300   -1.5373   -1.2675 C   0  0  0  0  0  0  0  0  0  0  0  0
   -6.8493   -1.2328   -1.9369 H   0  0  0  0  0  0  0  0  0  0  0  0
    0.4013    4.8715   -0.2727 C   0  0  0  0  0  0  0  0  0  0  0  0
   -0.4477    4.6754    0.4153 H   0  0  0  0  0  0  0  0  0  0  0  0
   -0.0111    4.8389   -1.3014 H   0  0  0  0  0  0  0  0  0  0  0  0
    0.7787    5.8939   -0.0768 H   0  0  0  0  0  0  0  0  0  0  0  0
   -3.8169    3.5288   -0.5405 C   0  0  0  0  0  0  0  0  0  0  0  0
   -4.4711    4.1398    0.0998 H   0  0  0  0  0  0  0  0  0  0  0  0
   -1.3756   -1.0511   -1.8054 C   0  0  0  0  0  0  0  0  0  0  0  0
   -2.0661   -0.9652   -2.6683 H   0  0  0  0  0  0  0  0  0  0  0  0
   -0.4499   -0.4686   -2.0202 H   0  0  0  0  0  0  0  0  0  0  0  0
    6.6330   -1.1125   -2.7798 C   0  0  0  0  0  0  0  0  0  0  0  0
    6.9685   -2.0314   -3.3040 H   0  0  0  0  0  0  0  0  0  0  0  0
    7.5389   -0.6496   -2.3347 H   0  0  0  0  0  0  0  0  0  0  0  0
    6.2357   -0.4120   -3.5395 H   0  0  0  0  0  0  0  0  0  0  0  0
  2 10  1  0  0  0  0
  2  4  1  0  0  0  0
  2  3  1  0  0  0  0
  3  9  2  0  0  0  0
  3  7  1  0  0  0  0
  4 12  1  0  0  0  0
  5  6  1  0  0  0  0
  7  8  1  0  0  0  0
  7  5  1  0  0  0  0
  9 16  1  0  0  0  0
 10 22  1  0  0  0  0
 11  1  1  0  0  0  0
 11 44  1  0  0  0  0
 12 13  1  0  0  0  0
 12 28  2  0  0  0  0
 14  4  2  0  0  0  0
 14 35  1  0  0  0  0
 15 14  1  0  0  0  0
 16 17  1  0  0  0  0
 16  5  2  0  0  0  0
 18  1  1  0  0  0  0
 18 36  1  0  0  0  0
 19 20  1  0  0  0  0
 19  9  1  0  0  0  0
 21 19  2  0  0  0  0
 22 29  2  0  0  0  0
 22 23  1  0  0  0  0
 24 10  2  0  0  0  0
 25 24  1  0  0  0  0
 26 28  1  0  0  0  0
 26 27  1  0  0  0  0
 28 46  1  0  0  0  0
 29 50  1  0  0  0  0
 30 31  1  0  0  0  0
 30 29  1  0  0  0  0
 32 11  2  0  0  0  0
 33 32  1  0  0  0  0
 34 24  1  0  0  0  0
 34 30  2  0  0  0  0
 35 26  2  0  0  0  0
 36 37  1  0  0  0  0
 38 39  1  0  0  0  0
 38 21  1  0  0  0  0
 40 38  1  0  0  0  0
 41 38  1  0  0  0  0
 42 32  1  0  0  0  0
 42 60  2  0  0  0  0
 43 42  1  0  0  0  0
 44 45  1  0  0  0  0
 46 49  1  0  0  0  0
 46 47  1  0  0  0  0
 48 46  1  0  0  0  0
 50 52  1  0  0  0  0
 51 50  1  0  0  0  0
 53 50  1  0  0  0  0
 54 58  1  0  0  0  0
 55 54  1  0  0  0  0
 56 18  2  0  0  0  0
 57 56  1  0  0  0  0
 58 36  2  0  0  0  0
 58 59  1  0  0  0  0
 60 68  1  0  0  0  0
 61 60  1  0  0  0  0
 62 56  1  0  0  0  0
 62 54  2  0  0  0  0
 63 62  1  0  0  0  0
 64 67  1  0  0  0  0
 64 35  1  0  0  0  0
 64 65  1  0  0  0  0
 66 64  1  0  0  0  0
 68 44  2  0  0  0  0
 68 69  1  0  0  0  0
 70 21  1  0  0  0  0
 70  1  1  0  0  0  0
 71 70  1  0  0  0  0
 72 70  1  0  0  0  0
 73 75  1  0  0  0  0
 73 34  1  0  0  0  0
 74 73  1  0  0  0  0
 76 73  1  0  0  0  0
M  END
