4
q = -1.0, confidence = 0.0

 26 26  0  0  1  0  0  0  0  0999 V2000
   -2.2462    0.9900    0.2776 C   0  0  0  0  0  0  0  0  0  0  0  0
   -2.3510   -0.0622    1.2593 C   0  0  0  0  0  0  0  0  0  0  0  0
   -2.5067   -1.3001    0.5679 C   0  0  0  0  0  0  0  0  0  0  0  0
   -2.4994   -1.0256   -0.8454 C   0  0  2  0  0  3  0  0  0  0  0  0
   -2.3578    0.3868   -1.0274 C   0  0  0  0  0  0  0  0  0  0  0  0
   -2.1971    2.4017    0.6508 C   0  0  0  0  0  0  0  0  0  0  0  0
   -2.5557    3.4818   -0.0828 C   0  0  0  0  0  0  0  0  0  0  0  0
   -2.5227    0.1353    2.7330 C   0  0  0  0  0  0  0  0  0  0  0  0
   -2.7790   -2.6213    1.2197 C   0  0  0  0  0  0  0  0  0  0  0  0
   -2.7133   -2.0233   -1.9431 C   0  0  0  0  0  0  0  0  0  0  0  0
   -2.5014    1.0859   -2.3445 C   0  0  0  0  0  0  0  0  0  0  0  0
   -1.8650    2.5838    1.6879 H   0  0  0  0  0  0  0  0  0  0  0  0
   -2.9382    3.4037   -1.1100 H   0  0  0  0  0  0  0  0  0  0  0  0
   -2.4989    4.4918    0.3513 H   0  0  0  0  0  0  0  0  0  0  0  0
   -2.2630   -0.7797    3.2953 H   0  0  0  0  0  0  0  0  0  0  0  0
   -1.8845    0.9471    3.1297 H   0  0  0  0  0  0  0  0  0  0  0  0
   -3.5817    0.3920    2.9548 H   0  0  0  0  0  0  0  0  0  0  0  0
   -2.2019   -2.7348    2.1578 H   0  0  0  0  0  0  0  0  0  0  0  0
   -3.8582   -2.7115    1.4707 H   0  0  0  0  0  0  0  0  0  0  0  0
   -2.5047   -3.4643    0.5602 H   0  0  0  0  0  0  0  0  0  0  0  0
   -3.7790   -2.0376   -2.2586 H   0  0  0  0  0  0  0  0  0  0  0  0
   -2.4342   -3.0422   -1.6181 H   0  0  0  0  0  0  0  0  0  0  0  0
   -2.0961   -1.7807   -2.8300 H   0  0  0  0  0  0  0  0  0  0  0  0
   -3.5472    1.4432   -2.4693 H   0  0  0  0  0  0  0  0  0  0  0  0
   -2.2683    0.4063   -3.1837 H   0  0  0  0  0  0  0  0  0  0  0  0
   -1.8352    1.9633   -2.4434 H   0  0  0  0  0  0  0  0  0  0  0  0
  1  6  1  0  0  0  0
  1  2  1  0  0  0  0
  2  8  1  0  0  0  0
  3  9  1  0  0  0  0
  3  2  2  0  0  0  0
  4 10  1  1  0  0  0
  4  3  1  0  0  0  0
  5  4  1  0  0  0  0
  5  1  2  0  0  0  0
  6 12  1  0  0  0  0
  7 14  1  0  0  0  0
  7  6  2  0  0  0  0
  8 17  1  0  0  0  0
  8 16  1  0  0  0  0
  8 15  1  0  0  0  0
  9 19  1  0  0  0  0
  9 18  1  0  0  0  0
 10 22  1  0  0  0  0
 11  5  1  0  0  0  0
 13  7  1  0  0  0  0
 20  9  1  0  0  0  0
 21 10  1  0  0  0  0
 23 10  1  0  0  0  0
 24 11  1  0  0  0  0
 25 11  1  0  0  0  0
 26 11  1  0  0  0  0
M  END
