8
q = -1.0

 19 19  0  0  1  0  0  0  0  0999 V2000
   -3.5692   -0.9510    1.9077 F   0  0  0  0  0  0  0  0  0  0  0  0
   -4.9521   -0.2800    0.3759 F   0  0  0  0  0  0  0  0  0  0  0  0
   -3.6853   -2.0238    0.0057 F   0  0  0  0  0  0  0  0  0  0  0  0
   -2.8159    1.3627    0.5412 F   0  0  0  0  0  0  0  0  0  0  0  0
   -2.4075   -0.8781   -2.1870 F   0  0  0  0  0  0  0  0  0  0  0  0
   -1.9236    1.2441   -1.9902 F   0  0  0  0  0  0  0  0  0  0  0  0
   -3.9888    0.5915   -1.8894 F   0  0  0  0  0  0  0  0  0  0  0  0
   -0.7179   -0.1601    1.7903 C   0  0  0  0  0  3  0  0  0  0  0  0
    0.3493   -1.1035    2.0540 C   0  0  0  0  0  0  0  0  0  0  0  0
    0.4279   -1.9635    0.9246 C   0  0  0  0  0  0  0  0  0  0  0  0
   -0.5223   -1.5634   -0.0552 C   0  0  0  0  0  3  0  0  0  0  0  0
   -1.2623   -0.4237    0.4625 C   0  0  1  0  0  3  0  0  0  0  0  0
   -2.5945    0.1002   -0.0002 C   0  0  0  0  0  0  0  0  0  0  0  0
   -3.7346   -0.8045    0.5785 C   0  0  0  0  0  0  0  0  0  0  0  0
   -2.7300    0.2628   -1.5472 C   0  0  0  0  0  0  0  0  0  0  0  0
   -1.1375    0.5548    2.5025 H   0  0  0  0  0  0  0  0  0  0  0  0
    0.9455   -1.1833    2.9690 H   0  0  0  0  0  0  0  0  0  0  0  0
    1.1666   -2.7595    0.7849 H   0  0  0  0  0  0  0  0  0  0  0  0
   -0.6734   -2.0354   -1.0294 H   0  0  0  0  0  0  0  0  0  0  0  0
  2 14  1  0  0  0  0
  3 14  1  0  0  0  0
  5 15  1  0  0  0  0
  6 15  1  0  0  0  0
  7 15  1  0  0  0  0
  8  9  1  0  0  0  0
  8 16  1  0  0  0  0
  9 17  1  0  0  0  0
 10  9  2  0  0  0  0
 11 12  1  0  0  0  0
 11 10  1  0  0  0  0
 12 13  1  1  0  0  0
 12  8  1  0  0  0  0
 13  4  1  0  0  0  0
 13 14  1  0  0  0  0
 14  1  1  0  0  0  0
 15 13  1  0  0  0  0
 18 10  1  0  0  0  0
 19 11  1  0  0  0  0
M  END
