2
q = -1.0, confidence = 0.016

 34 35  0  0  1  0  0  0  0  0999 V2000
   -1.0689   -1.2013   -0.7522 C   0  0  0  0  0  0  0  0  0  0  0  0
    0.0031   -2.0081   -0.2735 C   0  0  0  0  0  3  0  0  0  0  0  0
   -0.3588   -2.4920    1.0177 C   0  0  0  0  0  0  0  0  0  0  0  0
    0.9416   -2.2105   -0.8022 H   0  0  0  0  0  0  0  0  0  0  0  0
   -1.6471   -1.9743    1.3322 C   0  0  0  0  0  0  0  0  0  0  0  0
   -2.1059   -1.1855    0.2299 C   0  0  0  0  0  0  0  0  0  0  0  0
   -1.1054   -0.6967   -1.7230 H   0  0  0  0  0  0  0  0  0  0  0  0
   -2.2001   -2.1660    2.2579 H   0  0  0  0  0  0  0  0  0  0  0  0
   -3.5268   -0.6503    0.0115 C   0  0  2  0  0  0  0  0  0  0  0  0
   -4.3117   -0.6824    1.3399 C   0  0  0  0  0  0  0  0  0  0  0  0
   -4.4932   -1.7299    1.6502 H   0  0  0  0  0  0  0  0  0  0  0  0
   -5.2940   -0.1845    1.2341 H   0  0  0  0  0  0  0  0  0  0  0  0
   -3.7582   -0.1845    2.1560 H   0  0  0  0  0  0  0  0  0  0  0  0
   -4.1642   -1.5197   -1.0275 N   0  0  0  0  0  0  0  0  0  0  0  0
   -3.9966   -2.9515   -0.8554 C   0  0  0  0  0  0  0  0  0  0  0  0
   -2.9265   -3.2236   -0.7936 H   0  0  0  0  0  0  0  0  0  0  0  0
   -4.4267   -3.4658   -1.7394 H   0  0  0  0  0  0  0  0  0  0  0  0
   -4.5134   -3.3713    0.0488 H   0  0  0  0  0  0  0  0  0  0  0  0
   -5.5523   -1.1839   -1.3022 C   0  0  0  0  0  0  0  0  0  0  0  0
   -5.6687   -0.0898   -1.4289 H   0  0  0  0  0  0  0  0  0  0  0  0
   -6.2688   -1.5172   -0.5074 H   0  0  0  0  0  0  0  0  0  0  0  0
   -5.8667   -1.6693   -2.2499 H   0  0  0  0  0  0  0  0  0  0  0  0
   -3.4540    0.7774   -0.5735 C   0  0  0  0  0  0  0  0  0  0  0  0
   -3.6355    1.9271    0.2189 C   0  0  0  0  0  0  0  0  0  0  0  0
   -3.5247    3.2133   -0.3349 C   0  0  0  0  0  0  0  0  0  0  0  0
   -3.2370    3.3760   -1.6980 C   0  0  0  0  0  0  0  0  0  0  0  0
   -3.0739    2.2371   -2.5047 C   0  0  0  0  0  0  0  0  0  0  0  0
   -3.1866    0.9552   -1.9484 C   0  0  0  0  0  0  0  0  0  0  0  0
   -3.1041    0.0566   -2.5767 H   0  0  0  0  0  0  0  0  0  0  0  0
   -2.8638    2.3485   -3.5797 H   0  0  0  0  0  0  0  0  0  0  0  0
   -3.1489    4.3834   -2.1319 H   0  0  0  0  0  0  0  0  0  0  0  0
   -3.6686    4.0948    0.3084 H   0  0  0  0  0  0  0  0  0  0  0  0
   -3.8681    1.8282    1.2871 H   0  0  0  0  0  0  0  0  0  0  0  0
    0.2498   -3.1414    1.6559 H   0  0  0  0  0  0  0  0  0  0  0  0
  1  2  1  0  0  0  0
  1  6  2  0  0  0  0
  2  3  1  0  0  0  0
  3  5  2  0  0  0  0
  3 34  1  0  0  0  0
  4  2  1  0  0  0  0
  5  8  1  0  0  0  0
  6  5  1  0  0  0  0
  7  1  1  0  0  0  0
  9 14  1  6  0  0  0
  9  6  1  0  0  0  0
  9 10  1  0  0  0  0
 10 11  1  0  0  0  0
 10 13  1  0  0  0  0
 12 10  1  0  0  0  0
 14 15  1  0  0  0  0
 15 16  1  0  0  0  0
 15 18  1  0  0  0  0
 17 15  1  0  0  0  0
 19 14  1  0  0  0  0
 19 21  1  0  0  0  0
 20 19  1  0  0  0  0
 22 19  1  0  0  0  0
 23  9  1  0  0  0  0
 23 24  1  0  0  0  0
 24 33  1  0  0  0  0
 25 24  2  0  0  0  0
 25 32  1  0  0  0  0
 26 25  1  0  0  0  0
 27 28  1  0  0  0  0
 27 26  2  0  0  0  0
 28 23  2  0  0  0  0
 29 28  1  0  0  0  0
 30 27  1  0  0  0  0
 31 26  1  0  0  0  0
M  END
