3
q = -1.0

 33 33  0  0  1  0  0  0  0  0999 V2000
   -2.0403   -1.2531    0.0043 C   0  0  0  0  0  0  0  0  0  0  0  0
   -1.1234   -1.1227   -1.0823 C   0  0  0  0  0  0  0  0  0  0  0  0
    0.0529   -1.8814   -0.7824 C   0  0  0  0  0  3  0  0  0  0  0  0
   -1.2948   -0.5475   -1.9994 H   0  0  0  0  0  0  0  0  0  0  0  0
   -0.1440   -2.5068    0.4820 C   0  0  0  0  0  0  0  0  0  0  0  0
   -1.4147   -2.1074    0.9749 C   0  0  0  0  0  0  0  0  0  0  0  0
   -3.4726   -0.7473    0.0703 C   0  0  1  0  0  0  0  0  0  0  0  0
   -3.6588    0.6320   -0.5792 C   0  0  0  0  0  0  0  0  0  0  0  0
   -5.0890    1.1654   -0.4809 C   0  0  0  0  0  0  0  0  0  0  0  0
   -5.2819    2.5606   -1.0903 C   0  0  0  0  0  0  0  0  0  0  0  0
   -5.0641    2.6268   -2.6045 C   0  0  0  0  0  0  0  0  0  0  0  0
   -5.2782    3.6390   -3.0030 H   0  0  0  0  0  0  0  0  0  0  0  0
   -5.7270    1.9113   -3.1357 H   0  0  0  0  0  0  0  0  0  0  0  0
   -4.0199    2.3804   -2.8885 H   0  0  0  0  0  0  0  0  0  0  0  0
   -4.5987    3.2799   -0.5848 H   0  0  0  0  0  0  0  0  0  0  0  0
   -6.3103    2.9108   -0.8570 H   0  0  0  0  0  0  0  0  0  0  0  0
   -5.7808    0.4400   -0.9600 H   0  0  0  0  0  0  0  0  0  0  0  0
   -5.3797    1.1900    0.5919 H   0  0  0  0  0  0  0  0  0  0  0  0
   -2.9681    1.3306   -0.0623 H   0  0  0  0  0  0  0  0  0  0  0  0
   -3.3332    0.6017   -1.6416 H   0  0  0  0  0  0  0  0  0  0  0  0
   -4.4203   -1.7409   -0.4626 N   0  0  0  0  0  0  0  0  0  0  0  0
   -4.6092   -2.9008    0.3847 C   0  0  0  0  0  0  0  0  0  0  0  0
   -4.8135   -2.5791    1.4263 H   0  0  0  0  0  0  0  0  0  0  0  0
   -3.7318   -3.6000    0.4091 H   0  0  0  0  0  0  0  0  0  0  0  0
   -5.4852   -3.4828    0.0292 H   0  0  0  0  0  0  0  0  0  0  0  0
   -4.2454   -2.0935   -1.8582 C   0  0  0  0  0  0  0  0  0  0  0  0
   -4.2136   -1.1836   -2.4903 H   0  0  0  0  0  0  0  0  0  0  0  0
   -5.1126   -2.6985   -2.1943 H   0  0  0  0  0  0  0  0  0  0  0  0
   -3.3184   -2.6893   -2.0676 H   0  0  0  0  0  0  0  0  0  0  0  0
   -3.7223   -0.6344    1.1468 H   0  0  0  0  0  0  0  0  0  0  0  0
    0.5816   -3.1366    1.0082 H   0  0  0  0  0  0  0  0  0  0  0  0
   -1.8382   -2.3683    1.9522 H   0  0  0  0  0  0  0  0  0  0  0  0
    0.9360   -1.9904   -1.4234 H   0  0  0  0  0  0  0  0  0  0  0  0
  1  7  1  0  0  0  0
  1  6  1  0  0  0  0
  2  3  1  0  0  0  0
  2  1  2  0  0  0  0
  3  5  1  0  0  0  0
  4  2  1  0  0  0  0
  5  6  2  0  0  0  0
  5 31  1  0  0  0  0
  6 32  1  0  0  0  0
  7 30  1  1  0  0  0
  8  9  1  0  0  0  0
  8 19  1  0  0  0  0
  8  7  1  0  0  0  0
  9 18  1  0  0  0  0
 10 16  1  0  0  0  0
 10 15  1  0  0  0  0
 10  9  1  0  0  0  0
 11 10  1  0  0  0  0
 12 11  1  0  0  0  0
 13 11  1  0  0  0  0
 14 11  1  0  0  0  0
 17  9  1  0  0  0  0
 20  8  1  0  0  0  0
 21  7  1  0  0  0  0
 21 22  1  0  0  0  0
 22 24  1  0  0  0  0
 22 23  1  0  0  0  0
 25 22  1  0  0  0  0
 26 21  1  0  0  0  0
 27 26  1  0  0  0  0
 28 26  1  0  0  0  0
 29 26  1  0  0  0  0
 33  3  1  0  0  0  0
M  END
