6
q = 0.0, confidence = 0.948

 12 11  0  0  0  0  0  0  0  0999 V2000
    2.0712    0.4136   -0.9450 O   0  0  0  0  0  0  0  0  0  0  0  0
    2.8389   -0.8671    0.7476 O   0  0  0  0  0  0  0  0  0  0  0  0
    1.0129    0.3225    1.8915 C   0  0  0  0  0  3  0  0  0  0  0  0
    0.3354    0.2370    2.7561 H   0  0  0  0  0  0  0  0  0  0  0  0
    1.6376    1.2304    1.8767 H   0  0  0  0  0  0  0  0  0  0  0  0
    1.5441   -0.8820    1.3520 C   0  0  0  0  0  3  0  0  0  0  0  0
    1.3802   -1.8633    1.8167 H   0  0  0  0  0  0  0  0  0  0  0  0
    3.0186   -0.1276   -0.3519 C   0  0  0  0  0  0  0  0  0  0  0  0
    4.4450   -0.0215   -0.7821 C   0  0  0  0  0  0  0  0  0  0  0  0
    4.4992    0.3439   -1.8217 H   0  0  0  0  0  0  0  0  0  0  0  0
    4.9562   -0.9970   -0.6759 H   0  0  0  0  0  0  0  0  0  0  0  0
    4.9713    0.6951   -0.1174 H   0  0  0  0  0  0  0  0  0  0  0  0
  1  8  2  0  0  0  0
  2  6  1  0  0  0  0
  3  4  1  0  0  0  0
  5  3  1  0  0  0  0
  6  7  1  0  0  0  0
  6  3  1  0  0  0  0
  8  2  1  0  0  0  0
  9 11  1  0  0  0  0
  9  8  1  0  0  0  0
  9 12  1  0  0  0  0
 10  9  1  0  0  0  0
M  END
