1
q = -1.0

  8  7  0  0  0  0  0  0  0  0999 V2000
    0.0001    0.3603    1.9638 C   0  0  0  0  0  3  0  0  0  0  0  0
    0.0004   -0.5086    2.6590 H   0  0  0  0  0  0  0  0  0  0  0  0
   -0.0002    1.5722    2.5728 C   0  0  0  0  0  0  0  0  0  0  0  0
   -0.0005    2.4907    1.9547 H   0  0  0  0  0  0  0  0  0  0  0  0
   -0.0000    1.7930    4.0623 C   0  0  0  0  0  0  0  0  0  0  0  0
    0.0002    0.8292    4.6125 H   0  0  0  0  0  0  0  0  0  0  0  0
   -0.8889    2.3728    4.4002 H   0  0  0  0  0  0  0  0  0  0  0  0
    0.8888    2.3731    4.3999 H   0  0  0  0  0  0  0  0  0  0  0  0
  1  3  2  0  0  0  0
  1  2  1  0  0  0  0
  3  5  1  0  0  0  0
  4  3  1  0  0  0  0
  5  8  1  0  0  0  0
  5  7  1  0  0  0  0
  5  6  1  0  0  0  0
M  END
