1
q = -1.0

 14 14  0  0  0  0  0  0  0  0999 V2000
    1.9164   -0.1885   -0.6678 C   0  0  0  0  0  2  0  0  0  0  0  0
    2.9193   -0.3471    0.3874 C   0  0  0  0  0  0  0  0  0  0  0  0
    4.3022   -0.0822    0.1831 C   0  0  0  0  0  0  0  0  0  0  0  0
    4.6433    0.2632   -0.8057 H   0  0  0  0  0  0  0  0  0  0  0  0
    5.2313   -0.2493    1.2154 C   0  0  0  0  0  0  0  0  0  0  0  0
    6.2942   -0.0327    1.0240 H   0  0  0  0  0  0  0  0  0  0  0  0
    4.8232   -0.6856    2.4893 C   0  0  0  0  0  0  0  0  0  0  0  0
    5.5578   -0.8142    3.2981 H   0  0  0  0  0  0  0  0  0  0  0  0
    3.4620   -0.9548    2.7099 C   0  0  0  0  0  0  0  0  0  0  0  0
    3.1214   -1.2976    3.6998 H   0  0  0  0  0  0  0  0  0  0  0  0
    2.5272   -0.7912    1.6807 C   0  0  0  0  0  0  0  0  0  0  0  0
    1.4585   -0.9992    1.8545 H   0  0  0  0  0  0  0  0  0  0  0  0
    2.3344    0.0909   -1.8631 N   0  0  0  0  0  2  0  0  0  0  0  0
    2.6243    0.3340   -2.9666 N   0  0  0  0  0  1  0  0  0  0  0  0
  1  2  1  0  0  0  0
  2 11  1  0  0  0  0
  3  2  2  0  0  0  0
  3  5  1  0  0  0  0
  4  3  1  0  0  0  0
  5  7  2  0  0  0  0
  6  5  1  0  0  0  0
  7  9  1  0  0  0  0
  7  8  1  0  0  0  0
  9 10  1  0  0  0  0
 11 12  1  0  0  0  0
 11  9  2  0  0  0  0
 13  1  1  0  0  0  0
 14 13  1  0  0  0  0
M  END
