7
q = -1.0, confidence = 0.0

 50 52  0  0  0  0  0  0  0  0999 V2000
   -0.4781    0.1535    0.4588 P   0  0  0  0  0  0  0  0  0  0  0  0
   -0.3451   -0.2787    2.2861 C   0  0  0  0  0  0  0  0  0  0  0  0
    1.1240   -0.3953    2.7240 C   0  0  0  0  0  0  0  0  0  0  0  0
    1.9506   -1.1618    1.7202 C   0  0  0  0  0  0  0  0  0  0  0  0
    3.2056   -0.7608    1.1656 C   0  0  0  0  0  0  0  0  0  0  0  0
    3.5778   -1.7094    0.1624 C   0  0  0  0  0  3  0  0  0  0  0  0
    2.5713   -2.7367    0.1172 C   0  0  0  0  0  3  0  0  0  0  0  0
    1.5673   -2.4059    1.0869 C   0  0  0  0  0  3  0  0  0  0  0  0
   -2.1270   -0.5955   -0.0519 C   0  0  0  0  0  0  0  0  0  0  0  0
   -2.1274   -2.1291    0.0943 C   0  0  0  0  0  0  0  0  0  0  0  0
   -3.4098   -2.7411   -0.4844 C   0  0  0  0  0  0  0  0  0  0  0  0
   -4.6597   -2.1420    0.1708 C   0  0  0  0  0  0  0  0  0  0  0  0
   -4.6624   -0.6130    0.0619 C   0  0  0  0  0  0  0  0  0  0  0  0
   -3.3720    0.0092    0.6204 C   0  0  0  0  0  0  0  0  0  0  0  0
   -0.8253    1.9934    0.4656 C   0  0  0  0  0  0  0  0  0  0  0  0
   -1.1254    2.4903   -0.9610 C   0  0  0  0  0  0  0  0  0  0  0  0
   -1.3345    4.0103   -1.0072 C   0  0  0  0  0  0  0  0  0  0  0  0
   -0.1482    4.7560   -0.3859 C   0  0  0  0  0  0  0  0  0  0  0  0
    0.0805    4.2982    1.0590 C   0  0  0  0  0  0  0  0  0  0  0  0
    0.3145    2.7825    1.1366 C   0  0  0  0  0  0  0  0  0  0  0  0
   -0.9092    0.4503    2.9045 H   0  0  0  0  0  0  0  0  0  0  0  0
   -0.8555   -1.2563    2.4034 H   0  0  0  0  0  0  0  0  0  0  0  0
    1.5689    0.6116    2.8496 H   0  0  0  0  0  0  0  0  0  0  0  0
    1.1742   -0.8906    3.7195 H   0  0  0  0  0  0  0  0  0  0  0  0
    3.7555    0.1508    1.4301 H   0  0  0  0  0  0  0  0  0  0  0  0
    4.4856   -1.6707   -0.4506 H   0  0  0  0  0  0  0  0  0  0  0  0
    2.5910   -3.6312   -0.5156 H   0  0  0  0  0  0  0  0  0  0  0  0
    0.6862   -3.0096    1.3335 H   0  0  0  0  0  0  0  0  0  0  0  0
   -2.1706   -0.3719   -1.1421 H   0  0  0  0  0  0  0  0  0  0  0  0
   -1.2333   -2.5607   -0.3961 H   0  0  0  0  0  0  0  0  0  0  0  0
   -2.0617   -2.3964    1.1736 H   0  0  0  0  0  0  0  0  0  0  0  0
   -3.4324   -2.5522   -1.5806 H   0  0  0  0  0  0  0  0  0  0  0  0
   -3.3925   -3.8438   -0.3578 H   0  0  0  0  0  0  0  0  0  0  0  0
   -5.5805   -2.5634   -0.2840 H   0  0  0  0  0  0  0  0  0  0  0  0
   -4.6817   -2.4314    1.2461 H   0  0  0  0  0  0  0  0  0  0  0  0
   -4.7615   -0.3241   -1.0085 H   0  0  0  0  0  0  0  0  0  0  0  0
   -5.5439   -0.1843    0.5836 H   0  0  0  0  0  0  0  0  0  0  0  0
   -3.3203   -0.1685    1.7186 H   0  0  0  0  0  0  0  0  0  0  0  0
   -3.4062    1.1083    0.4798 H   0  0  0  0  0  0  0  0  0  0  0  0
   -1.7391    2.1269    1.0883 H   0  0  0  0  0  0  0  0  0  0  0  0
   -0.2801    2.2147   -1.6251 H   0  0  0  0  0  0  0  0  0  0  0  0
   -2.0201    1.9718   -1.3651 H   0  0  0  0  0  0  0  0  0  0  0  0
   -1.4949    4.3325   -2.0572 H   0  0  0  0  0  0  0  0  0  0  0  0
   -2.2639    4.2734   -0.4523 H   0  0  0  0  0  0  0  0  0  0  0  0
    0.7666    4.5475   -0.9835 H   0  0  0  0  0  0  0  0  0  0  0  0
   -0.3143    5.8529   -0.4242 H   0  0  0  0  0  0  0  0  0  0  0  0
    0.9446    4.8312    1.5080 H   0  0  0  0  0  0  0  0  0  0  0  0
   -0.8087    4.5678    1.6734 H   0  0  0  0  0  0  0  0  0  0  0  0
    0.4144    2.4723    2.1979 H   0  0  0  0  0  0  0  0  0  0  0  0
    1.2753    2.5344    0.6415 H   0  0  0  0  0  0  0  0  0  0  0  0
  1 15  1  0  0  0  0
  1  2  1  0  0  0  0
  2 22  1  0  0  0  0
  2  3  1  0  0  0  0
  2 21  1  0  0  0  0
  3 23  1  0  0  0  0
  3 24  1  0  0  0  0
  4  3  1  0  0  0  0
  5 25  1  0  0  0  0
  5  4  2  0  0  0  0
  6  5  1  0  0  0  0
  7  6  1  0  0  0  0
  7  8  1  0  0  0  0
  8 28  1  0  0  0  0
  8  4  1  0  0  0  0
  9 10  1  0  0  0  0
  9  1  1  0  0  0  0
  9 14  1  0  0  0  0
 10 31  1  0  0  0  0
 11 33  1  0  0  0  0
 11 10  1  0  0  0  0
 11 12  1  0  0  0  0
 12 35  1  0  0  0  0
 13 12  1  0  0  0  0
 13 37  1  0  0  0  0
 13 14  1  0  0  0  0
 14 38  1  0  0  0  0
 15 40  1  0  0  0  0
 15 20  1  0  0  0  0
 16 15  1  0  0  0  0
 17 16  1  0  0  0  0
 17 44  1  0  0  0  0
 17 18  1  0  0  0  0
 18 19  1  0  0  0  0
 19 20  1  0  0  0  0
 19 47  1  0  0  0  0
 19 48  1  0  0  0  0
 20 49  1  0  0  0  0
 26  6  1  0  0  0  0
 27  7  1  0  0  0  0
 29  9  1  0  0  0  0
 30 10  1  0  0  0  0
 32 11  1  0  0  0  0
 34 12  1  0  0  0  0
 36 13  1  0  0  0  0
 39 14  1  0  0  0  0
 41 16  1  0  0  0  0
 42 16  1  0  0  0  0
 43 17  1  0  0  0  0
 45 18  1  0  0  0  0
 46 18  1  0  0  0  0
 50 20  1  0  0  0  0
M  END
