1
q = -1.0, confidence = 0.0

 26 26  0  0  0  0  0  0  0  0999 V2000
    1.9899   -0.0638   -0.0157 C   0  0  0  0  0  1  0  0  0  0  0  0
    3.2369   -0.0658   -0.0266 C   0  0  0  0  0  2  0  0  0  0  0  0
    4.6596   -0.0316   -0.0166 C   0  0  0  0  0  0  0  0  0  0  0  0
    5.3273    1.0509    0.6336 C   0  0  0  0  0  0  0  0  0  0  0  0
    6.7494    1.0956    0.6506 C   0  0  0  0  0  0  0  0  0  0  0  0
    7.5245    0.0774    0.0286 C   0  0  0  0  0  0  0  0  0  0  0  0
    6.8408   -0.9896   -0.6126 C   0  0  0  0  0  0  0  0  0  0  0  0
    5.4218   -1.0592   -0.6442 C   0  0  0  0  0  0  0  0  0  0  0  0
    4.4943    2.1159    1.2843 C   0  0  0  0  0  0  0  0  0  0  0  0
    3.8089    2.5749    0.5414 H   0  0  0  0  0  0  0  0  0  0  0  0
    5.1131    2.9028    1.7521 H   0  0  0  0  0  0  0  0  0  0  0  0
    3.8250    1.6673    2.0480 H   0  0  0  0  0  0  0  0  0  0  0  0
    7.4155    2.1831    1.3043 C   0  0  0  0  0  0  0  0  0  0  0  0
    7.9911    3.1129    1.8632 C   0  0  0  0  0  0  0  0  0  0  0  0
    8.4881    3.9343    2.3571 H   0  0  0  0  0  0  0  0  0  0  0  0
    9.0286    0.1062    0.0352 C   0  0  0  0  0  0  0  0  0  0  0  0
    9.4420   -0.8056    0.5158 H   0  0  0  0  0  0  0  0  0  0  0  0
    9.4138    0.9930    0.5707 H   0  0  0  0  0  0  0  0  0  0  0  0
    9.4311    0.1145   -0.9997 H   0  0  0  0  0  0  0  0  0  0  0  0
    7.6040   -2.0219   -1.2435 C   0  0  0  0  0  0  0  0  0  0  0  0
    8.2621   -2.9065   -1.7842 C   0  0  0  0  0  0  0  0  0  0  0  0
    8.8338   -3.6881   -2.2620 H   0  0  0  0  0  0  0  0  0  0  0  0
    4.7377   -2.2056   -1.3334 C   0  0  0  0  0  0  0  0  0  0  0  0
    3.6392   -2.1022   -1.2581 H   0  0  0  0  0  0  0  0  0  0  0  0
    5.0430   -3.1758   -0.8884 H   0  0  0  0  0  0  0  0  0  0  0  0
    5.0251   -2.2533   -2.4048 H   0  0  0  0  0  0  0  0  0  0  0  0
  2  3  1  0  0  0  0
  2  1  1  0  0  0  0
  3  4  1  0  0  0  0
  4  5  2  0  0  0  0
  4  9  1  0  0  0  0
  5 13  1  0  0  0  0
  6 16  1  0  0  0  0
  6  5  1  0  0  0  0
  7  6  2  0  0  0  0
  8  7  1  0  0  0  0
  8  3  2  0  0  0  0
  9 11  1  0  0  0  0
  9 12  1  0  0  0  0
 10  9  1  0  0  0  0
 13 14  3  0  0  0  0
 14 15  1  0  0  0  0
 16 17  1  0  0  0  0
 16 18  1  0  0  0  0
 19 16  1  0  0  0  0
 20  7  1  0  0  0  0
 21 20  3  0  0  0  0
 22 21  1  0  0  0  0
 23 24  1  0  0  0  0
 23 25  1  0  0  0  0
 23  8  1  0  0  0  0
 26 23  1  0  0  0  0
M  END
