13
q = -1.0

 14 14  0  0  0  0  0  0  0  0999 V2000
   -6.4560   -3.8408    0.4188 O   0  0  0  0  0  0  0  0  0  0  0  0
   -6.8223   -2.4389    2.0578 O   0  0  0  0  0  0  0  0  0  0  0  0
   -4.0184   -2.7451   -0.1481 C   0  0  0  0  0  0  0  0  0  0  0  0
   -4.3736   -3.5979   -0.7417 H   0  0  0  0  0  0  0  0  0  0  0  0
   -4.8299   -2.2532    0.8841 C   0  0  0  0  0  0  0  0  0  0  0  0
   -2.7836   -2.1405   -0.3855 C   0  0  0  0  0  0  0  0  0  0  0  0
   -2.1342   -2.5239   -1.1828 H   0  0  0  0  0  0  0  0  0  0  0  0
   -3.2012   -0.5605    1.4334 C   0  0  0  0  0  0  0  0  0  0  0  0
   -2.8940    0.3062    2.0299 H   0  0  0  0  0  0  0  0  0  0  0  0
   -2.3435   -1.0342    0.3996 C   0  0  0  0  0  0  0  0  0  0  0  0
   -4.4333   -1.1665    1.6774 C   0  0  0  0  0  0  0  0  0  0  0  0
   -5.1086   -0.8144    2.4686 H   0  0  0  0  0  0  0  0  0  0  0  0
   -1.0706   -0.4231    0.1343 C   0  0  0  0  0  1  0  0  0  0  0  0
   -6.1373   -2.8939    1.1402 N   0  0  0  0  0  0  0  0  0  0  0  0
  1 14  2  0  0  0  0
  3  5  1  0  0  0  0
  4  3  1  0  0  0  0
  5 14  1  0  0  0  0
  5 11  2  0  0  0  0
  6  3  2  0  0  0  0
  6 10  1  0  0  0  0
  7  6  1  0  0  0  0
  8 11  1  0  0  0  0
  8  9  1  0  0  0  0
 10  8  2  0  0  0  0
 11 12  1  0  0  0  0
 13 10  1  0  0  0  0
 14  2  2  0  0  0  0
M  END
