17
q = 0.0, confidence = 0.992

 41 42  0  0  1  0  0  0  0  0999 V2000
   -1.6703    0.0042   -0.8260 P   0  0  0  0  0  0  0  0  0  0  0  0
   -2.3167    1.6945   -0.4312 C   0  0  0  0  0  0  0  0  0  0  0  0
   -1.7392    2.4872    0.5787 C   0  0  0  0  0  0  0  0  0  0  0  0
   -2.2461    3.7680    0.8498 C   0  0  0  0  0  0  0  0  0  0  0  0
   -3.3297    4.2698    0.1145 C   0  0  0  0  0  0  0  0  0  0  0  0
   -3.9137    3.4834   -0.8931 C   0  0  0  0  0  0  0  0  0  0  0  0
   -3.4126    2.2026   -1.1624 C   0  0  0  0  0  0  0  0  0  0  0  0
   -3.1599   -1.0379   -0.5432 C   0  0  0  0  0  0  0  0  0  0  0  0
   -4.1172   -0.6978    0.4330 C   0  0  0  0  0  0  0  0  0  0  0  0
   -5.1979   -1.5559    0.6889 C   0  0  0  0  0  0  0  0  0  0  0  0
   -5.3331   -2.7532   -0.0307 C   0  0  0  0  0  0  0  0  0  0  0  0
   -4.3818   -3.0941   -1.0060 C   0  0  0  0  0  0  0  0  0  0  0  0
   -3.2952   -2.2457   -1.2563 C   0  0  0  0  0  0  0  0  0  0  0  0
   -1.4644    0.0393   -2.6370 C   0  0  0  0  0  0  0  0  0  0  0  0
   -0.2197   -0.2470   -3.0745 C   0  0  0  0  0  0  0  0  0  0  0  0
    0.8703   -0.7334   -2.1801 C   0  0  1  0  0  3  0  0  0  0  0  0
    0.7545   -2.0300   -1.5958 C   0  0  0  0  0  3  0  0  0  0  0  0
    2.2125   -0.1763   -2.5413 C   0  0  0  0  0  0  0  0  0  0  0  0
    2.3626    0.7411   -3.3386 O   0  0  0  0  0  0  0  0  0  0  0  0
    3.2378   -0.8024   -1.9191 O   0  0  0  0  0  0  0  0  0  0  0  0
    4.5544   -0.2545   -2.1343 C   0  0  0  0  0  0  0  0  0  0  0  0
    4.8366    0.8935   -1.1789 C   0  0  0  0  0  0  0  0  0  0  0  0
   -0.8884    2.1027    1.1539 H   0  0  0  0  0  0  0  0  0  0  0  0
   -1.7837    4.3758    1.6421 H   0  0  0  0  0  0  0  0  0  0  0  0
   -3.7235    5.2756    0.3262 H   0  0  0  0  0  0  0  0  0  0  0  0
   -4.7673    3.8692   -1.4711 H   0  0  0  0  0  0  0  0  0  0  0  0
   -3.8882    1.5864   -1.9409 H   0  0  0  0  0  0  0  0  0  0  0  0
   -4.0216    0.2463    0.9907 H   0  0  0  0  0  0  0  0  0  0  0  0
   -5.9422   -1.2830    1.4525 H   0  0  0  0  0  0  0  0  0  0  0  0
   -6.1829   -3.4236    0.1687 H   0  0  0  0  0  0  0  0  0  0  0  0
   -4.4818   -4.0335   -1.5705 H   0  0  0  0  0  0  0  0  0  0  0  0
   -2.5454   -2.5187   -2.0140 H   0  0  0  0  0  0  0  0  0  0  0  0
   -2.2868    0.3028   -3.3210 H   0  0  0  0  0  0  0  0  0  0  0  0
    0.0383   -0.1501   -4.1435 H   0  0  0  0  0  0  0  0  0  0  0  0
   -0.1304   -2.6409   -1.8226 H   0  0  0  0  0  0  0  0  0  0  0  0
    1.6774   -2.5955   -1.4064 H   0  0  0  0  0  0  0  0  0  0  0  0
    4.6350    0.0762   -3.1898 H   0  0  0  0  0  0  0  0  0  0  0  0
    5.2414   -1.1058   -1.9611 H   0  0  0  0  0  0  0  0  0  0  0  0
    5.8703    1.2654   -1.3301 H   0  0  0  0  0  0  0  0  0  0  0  0
    4.7328    0.5654   -0.1261 H   0  0  0  0  0  0  0  0  0  0  0  0
    4.1379    1.7338   -1.3597 H   0  0  0  0  0  0  0  0  0  0  0  0
  1  8  1  0  0  0  0
  1  2  1  0  0  0  0
  2  3  1  0  0  0  0
  3  4  2  0  0  0  0
  3 23  1  0  0  0  0
  4 24  1  0  0  0  0
  5 25  1  0  0  0  0
  5  4  1  0  0  0  0
  6  5  2  0  0  0  0
  7  6  1  0  0  0  0
  7  2  2  0  0  0  0
  8  9  1  0  0  0  0
  9 10  2  0  0  0  0
  9 28  1  0  0  0  0
 10 29  1  0  0  0  0
 11 30  1  0  0  0  0
 11 10  1  0  0  0  0
 12 11  2  0  0  0  0
 13 12  1  0  0  0  0
 13  8  2  0  0  0  0
 14  1  1  0  0  0  0
 15 14  2  0  0  0  0
 16 15  1  6  0  0  0
 16 17  1  0  0  0  0
 17 36  1  0  0  0  0
 18 16  1  0  0  0  0
 18 20  1  0  0  0  0
 19 18  2  0  0  0  0
 21 38  1  0  0  0  0
 21 20  1  0  0  0  0
 21 22  1  0  0  0  0
 22 40  1  0  0  0  0
 26  6  1  0  0  0  0
 27  7  1  0  0  0  0
 31 12  1  0  0  0  0
 32 13  1  0  0  0  0
 33 14  1  0  0  0  0
 34 15  1  0  0  0  0
 35 17  1  0  0  0  0
 37 21  1  0  0  0  0
 39 22  1  0  0  0  0
 41 22  1  0  0  0  0
M  END
