17
q = -1.0, confidence = 0.0

 35 39  0  0  0  0  0  0  0  0999 V2000
    5.7342    0.7042   -0.0198 C   0  0  0  0  0  0  0  0  0  0  0  0
    5.8308    1.7975   -0.0489 H   0  0  0  0  0  0  0  0  0  0  0  0
    6.8551   -0.0507    0.3200 C   0  0  0  0  0  0  0  0  0  0  0  0
    7.8087    0.4524    0.5406 H   0  0  0  0  0  0  0  0  0  0  0  0
    6.7553   -1.4532    0.3934 C   0  0  0  0  0  0  0  0  0  0  0  0
    7.6261   -2.0609    0.6822 H   0  0  0  0  0  0  0  0  0  0  0  0
    5.5436   -2.0699    0.0886 C   0  0  0  0  0  0  0  0  0  0  0  0
    5.4825   -3.1655    0.1411 H   0  0  0  0  0  0  0  0  0  0  0  0
    3.1062   -3.3761   -0.9624 C   0  0  0  0  0  0  0  0  0  0  0  0
    3.9835   -3.9976   -0.7376 H   0  0  0  0  0  0  0  0  0  0  0  0
    1.9818   -3.9863   -1.5181 C   0  0  0  0  0  0  0  0  0  0  0  0
    1.9780   -5.0722   -1.6976 H   0  0  0  0  0  0  0  0  0  0  0  0
    0.8846   -3.1919   -1.8986 C   0  0  0  0  0  0  0  0  0  0  0  0
    0.0211   -3.6409   -2.4121 H   0  0  0  0  0  0  0  0  0  0  0  0
    0.9018   -1.8185   -1.6498 C   0  0  0  0  0  0  0  0  0  0  0  0
    0.0660   -1.1982   -2.0006 H   0  0  0  0  0  0  0  0  0  0  0  0
    0.7901    0.9918   -0.5606 C   0  0  0  0  0  3  0  0  0  0  0  0
   -0.3173    3.2412   -0.3704 C   0  0  0  0  0  0  0  0  0  0  0  0
   -1.2947    2.7387   -0.4085 H   0  0  0  0  0  0  0  0  0  0  0  0
   -0.2370    4.6212   -0.2789 C   0  0  0  0  0  0  0  0  0  0  0  0
   -1.1585    5.2212   -0.2291 H   0  0  0  0  0  0  0  0  0  0  0  0
    1.0302    5.2687   -0.2643 C   0  0  0  0  0  0  0  0  0  0  0  0
    1.0860    6.3658   -0.1940 H   0  0  0  0  0  0  0  0  0  0  0  0
    2.1883    4.5148   -0.3409 C   0  0  0  0  0  0  0  0  0  0  0  0
    3.1763    5.0023   -0.3266 H   0  0  0  0  0  0  0  0  0  0  0  0
    3.3097    2.3052   -0.4271 C   0  0  0  0  0  0  0  0  0  0  0  0
    4.2654    2.8300   -0.2939 H   0  0  0  0  0  0  0  0  0  0  0  0
    3.2704    0.9128   -0.5328 C   0  0  0  0  0  0  0  0  0  0  0  0
    4.4820    0.1029   -0.3091 C   0  0  0  0  0  0  0  0  0  0  0  0
    4.3990   -1.3234   -0.2898 C   0  0  0  0  0  0  0  0  0  0  0  0
    3.1603   -1.9779   -0.7318 C   0  0  0  0  0  0  0  0  0  0  0  0
    2.0035   -1.1870   -1.0164 C   0  0  0  0  0  0  0  0  0  0  0  0
    1.9906    0.2567   -0.7256 C   0  0  0  0  0  0  0  0  0  0  0  0
    0.8528    2.4213   -0.4605 C   0  0  0  0  0  0  0  0  0  0  0  0
    2.1350    3.0891   -0.4353 C   0  0  0  0  0  0  0  0  0  0  0  0
  1  3  1  0  0  0  0
  2  1  1  0  0  0  0
  3  5  2  0  0  0  0
  3  4  1  0  0  0  0
  5  6  1  0  0  0  0
  7  8  1  0  0  0  0
  7  5  1  0  0  0  0
  9 10  1  0  0  0  0
  9 31  1  0  0  0  0
 11  9  2  0  0  0  0
 12 11  1  0  0  0  0
 13 15  2  0  0  0  0
 13 11  1  0  0  0  0
 14 13  1  0  0  0  0
 15 32  1  0  0  0  0
 16 15  1  0  0  0  0
 17 34  1  0  0  0  0
 18 20  1  0  0  0  0
 19 18  1  0  0  0  0
 20 22  2  0  0  0  0
 20 21  1  0  0  0  0
 22 23  1  0  0  0  0
 24 25  1  0  0  0  0
 24 22  1  0  0  0  0
 26 27  1  0  0  0  0
 28 26  2  0  0  0  0
 28 29  1  0  0  0  0
 29 30  1  0  0  0  0
 29  1  2  0  0  0  0
 30  7  2  0  0  0  0
 31 30  1  0  0  0  0
 32 31  2  0  0  0  0
 32 33  1  0  0  0  0
 33 17  2  0  0  0  0
 33 28  1  0  0  0  0
 34 35  1  0  0  0  0
 34 18  2  0  0  0  0
 35 26  1  0  0  0  0
 35 24  2  0  0  0  0
M  END
