15
q = -1.0

 35 39  0  0  0  0  0  0  0  0999 V2000
    5.8374    0.0259    0.2211 C   0  0  0  0  0  0  0  0  0  0  0  0
    6.1510    0.9938   -0.1921 H   0  0  0  0  0  0  0  0  0  0  0  0
    6.8155   -0.9265    0.4951 C   0  0  0  0  0  0  0  0  0  0  0  0
    7.8747   -0.7004    0.3009 H   0  0  0  0  0  0  0  0  0  0  0  0
    6.4348   -2.1760    1.0193 C   0  0  0  0  0  0  0  0  0  0  0  0
    7.1931   -2.9403    1.2467 H   0  0  0  0  0  0  0  0  0  0  0  0
    5.0866   -2.4494    1.2385 C   0  0  0  0  0  0  0  0  0  0  0  0
    4.8175   -3.4391    1.6286 H   0  0  0  0  0  0  0  0  0  0  0  0
    2.2674   -3.1089    1.6068 C   0  0  0  0  0  0  0  0  0  0  0  0
    3.0350   -3.8239    1.9271 H   0  0  0  0  0  0  0  0  0  0  0  0
    0.9305   -3.4882    1.6792 C   0  0  0  0  0  0  0  0  0  0  0  0
    0.6571   -4.4832    2.0639 H   0  0  0  0  0  0  0  0  0  0  0  0
   -0.0634   -2.6088    1.2223 C   0  0  0  0  0  0  0  0  0  0  0  0
   -1.1120   -2.9430    1.2258 H   0  0  0  0  0  0  0  0  0  0  0  0
    0.2449   -1.3236    0.7315 C   0  0  0  0  0  3  0  0  0  0  0  0
    1.1120    1.5212    0.2401 C   0  0  0  0  0  0  0  0  0  0  0  0
    0.0394    1.3027    0.3852 H   0  0  0  0  0  0  0  0  0  0  0  0
    0.4894    3.8703   -0.2896 C   0  0  0  0  0  0  0  0  0  0  0  0
   -0.5741    3.6164   -0.1552 H   0  0  0  0  0  0  0  0  0  0  0  0
    0.8756    5.1515   -0.6488 C   0  0  0  0  0  0  0  0  0  0  0  0
    0.1174    5.9364   -0.7918 H   0  0  0  0  0  0  0  0  0  0  0  0
    2.2538    5.4613   -0.8402 C   0  0  0  0  0  0  0  0  0  0  0  0
    2.5455    6.4842   -1.1235 H   0  0  0  0  0  0  0  0  0  0  0  0
    3.2231    4.4847   -0.6761 C   0  0  0  0  0  0  0  0  0  0  0  0
    4.2883    4.7220   -0.8261 H   0  0  0  0  0  0  0  0  0  0  0  0
    3.8011    2.1155   -0.1255 C   0  0  0  0  0  0  0  0  0  0  0  0
    4.8614    2.3780   -0.2432 H   0  0  0  0  0  0  0  0  0  0  0  0
    3.4404    0.8061    0.2219 C   0  0  0  0  0  0  0  0  0  0  0  0
    4.4608   -0.2234    0.4558 C   0  0  0  0  0  0  0  0  0  0  0  0
    4.0684   -1.5002    0.9584 C   0  0  0  0  0  0  0  0  0  0  0  0
    2.6410   -1.8317    1.1248 C   0  0  0  0  0  0  0  0  0  0  0  0
    1.6193   -0.8918    0.7471 C   0  0  0  0  0  0  0  0  0  0  0  0
    2.0371    0.4793    0.3862 C   0  0  0  0  0  0  0  0  0  0  0  0
    1.4663    2.8425   -0.1114 C   0  0  0  0  0  0  0  0  0  0  0  0
    2.8580    3.1523   -0.3130 C   0  0  0  0  0  0  0  0  0  0  0  0
  1 29  2  0  0  0  0
  1  3  1  0  0  0  0
  2  1  1  0  0  0  0
  3  5  2  0  0  0  0
  4  3  1  0  0  0  0
  5  7  1  0  0  0  0
  5  6  1  0  0  0  0
  7  8  1  0  0  0  0
  9 11  1  0  0  0  0
  9 10  1  0  0  0  0
 11 12  1  0  0  0  0
 13 14  1  0  0  0  0
 13 11  2  0  0  0  0
 15 32  2  0  0  0  0
 15 13  1  0  0  0  0
 16 17  1  0  0  0  0
 16 33  1  0  0  0  0
 18 19  1  0  0  0  0
 18 34  1  0  0  0  0
 20 18  2  0  0  0  0
 21 20  1  0  0  0  0
 22 24  2  0  0  0  0
 22 20  1  0  0  0  0
 23 22  1  0  0  0  0
 24 35  1  0  0  0  0
 25 24  1  0  0  0  0
 26 28  1  0  0  0  0
 27 26  1  0  0  0  0
 28 33  2  0  0  0  0
 28 29  1  0  0  0  0
 29 30  1  0  0  0  0
 30 31  1  0  0  0  0
 30  7  2  0  0  0  0
 31  9  2  0  0  0  0
 32 31  1  0  0  0  0
 33 32  1  0  0  0  0
 34 16  2  0  0  0  0
 35 26  2  0  0  0  0
 35 34  1  0  0  0  0
M  END
