3
q = -1.0, confidence = 0.0

 29 31  0  0  0  0  0  0  0  0999 V2000
    0.6463   -2.4803   -0.8990 C   0  0  0  0  0  0  0  0  0  0  0  0
   -0.0139   -2.2038    0.3495 C   0  0  0  0  0  0  0  0  0  0  0  0
    0.9519   -1.6483    1.2620 C   0  0  0  0  0  3  0  0  0  0  0  0
    2.2325   -1.6359    0.6165 C   0  0  0  0  0  0  0  0  0  0  0  0
    3.5335   -1.2351    1.0426 C   0  0  0  0  0  0  0  0  0  0  0  0
    4.5944   -1.3761    0.1621 C   0  0  0  0  0  0  0  0  0  0  0  0
    4.4050   -1.8956   -1.1543 C   0  0  0  0  0  0  0  0  0  0  0  0
    3.1515   -2.2766   -1.6049 C   0  0  0  0  0  0  0  0  0  0  0  0
    2.0375   -2.1475   -0.7287 C   0  0  0  0  0  0  0  0  0  0  0  0
   -1.4267   -2.4612    0.6979 C   0  0  0  0  0  0  0  0  0  0  0  0
   -2.4492   -2.5338   -0.2784 C   0  0  0  0  0  0  0  0  0  0  0  0
   -3.7773   -2.7890    0.0891 C   0  0  0  0  0  0  0  0  0  0  0  0
   -4.1239   -2.9610    1.4380 C   0  0  0  0  0  0  0  0  0  0  0  0
   -3.1236   -2.8796    2.4211 C   0  0  0  0  0  0  0  0  0  0  0  0
   -1.7931   -2.6399    2.0551 C   0  0  0  0  0  0  0  0  0  0  0  0
    0.0874   -3.1595   -2.1102 C   0  0  0  0  0  0  0  0  0  0  0  0
    0.7671   -1.3966    2.3100 H   0  0  0  0  0  0  0  0  0  0  0  0
    3.6832   -0.8341    2.0541 H   0  0  0  0  0  0  0  0  0  0  0  0
    5.6054   -1.0796    0.4792 H   0  0  0  0  0  0  0  0  0  0  0  0
    5.2740   -1.9857   -1.8228 H   0  0  0  0  0  0  0  0  0  0  0  0
    3.0120   -2.6591   -2.6264 H   0  0  0  0  0  0  0  0  0  0  0  0
   -2.2139   -2.3293   -1.3291 H   0  0  0  0  0  0  0  0  0  0  0  0
   -4.5529   -2.8303   -0.6905 H   0  0  0  0  0  0  0  0  0  0  0  0
   -5.1686   -3.1545    1.7244 H   0  0  0  0  0  0  0  0  0  0  0  0
   -3.3802   -3.0155    3.4827 H   0  0  0  0  0  0  0  0  0  0  0  0
   -1.0167   -2.6109    2.8333 H   0  0  0  0  0  0  0  0  0  0  0  0
   -0.4777   -2.4528   -2.7545 H   0  0  0  0  0  0  0  0  0  0  0  0
   -0.5992   -3.9812   -1.8255 H   0  0  0  0  0  0  0  0  0  0  0  0
    0.9022   -3.5905   -2.7230 H   0  0  0  0  0  0  0  0  0  0  0  0
  1  9  1  0  0  0  0
  1  2  2  0  0  0  0
  2 10  1  0  0  0  0
  2  3  1  0  0  0  0
  3 17  1  0  0  0  0
  4  5  1  0  0  0  0
  4  3  1  0  0  0  0
  5 18  1  0  0  0  0
  6 19  1  0  0  0  0
  6  5  2  0  0  0  0
  7  6  1  0  0  0  0
  8  7  2  0  0  0  0
  8  9  1  0  0  0  0
  9  4  2  0  0  0  0
 10 15  1  0  0  0  0
 11 12  1  0  0  0  0
 11 10  2  0  0  0  0
 12 13  2  0  0  0  0
 13 24  1  0  0  0  0
 13 14  1  0  0  0  0
 14 25  1  0  0  0  0
 15 14  2  0  0  0  0
 15 26  1  0  0  0  0
 16 28  1  0  0  0  0
 16  1  1  0  0  0  0
 20  7  1  0  0  0  0
 21  8  1  0  0  0  0
 22 11  1  0  0  0  0
 23 12  1  0  0  0  0
 27 16  1  0  0  0  0
 29 16  1  0  0  0  0
M  END
