5
q = -1

 31 31  0  0  1  0  0  0  0  0999 V2000
   -2.6145    3.2456    0.3180 Si  0  0  0  0  0  0  0  0  0  0  0  0
   -2.8701   -2.6911    0.4336 Si  0  0  0  0  0  0  0  0  0  0  0  0
   -4.7842   -2.9929   -0.4176 Cl  0  0  0  0  0  0  0  0  0  0  0  0
   -2.4933   -0.9292   -0.1480 C   0  0  2  0  0  3  0  0  0  0  0  0
   -2.5006    0.2658    0.6465 C   0  0  0  0  0  3  0  0  0  0  0  0
   -2.5611    0.2899    1.7420 H   0  0  0  0  0  0  0  0  0  0  0  0
   -2.3768    1.4224   -0.1919 C   0  0  1  0  0  3  0  0  0  0  0  0
   -2.2714    0.9194   -1.5313 C   0  0  0  0  0  0  0  0  0  0  0  0
   -2.1231    1.5286   -2.4303 H   0  0  0  0  0  0  0  0  0  0  0  0
   -2.3474   -0.4985   -1.5064 C   0  0  0  0  0  0  0  0  0  0  0  0
   -2.2775   -1.1562   -2.3796 H   0  0  0  0  0  0  0  0  0  0  0  0
   -1.7568   -4.0094   -0.2879 C   0  0  0  0  0  0  0  0  0  0  0  0
   -1.6464   -3.8779   -1.3817 H   0  0  0  0  0  0  0  0  0  0  0  0
   -2.1963   -5.0084   -0.0939 H   0  0  0  0  0  0  0  0  0  0  0  0
   -0.7508   -3.9511    0.1700 H   0  0  0  0  0  0  0  0  0  0  0  0
   -3.0895   -2.7524    2.2934 C   0  0  0  0  0  0  0  0  0  0  0  0
   -3.8435   -2.0094    2.6218 H   0  0  0  0  0  0  0  0  0  0  0  0
   -2.1277   -2.5381    2.7990 H   0  0  0  0  0  0  0  0  0  0  0  0
   -3.4437   -3.7570    2.5997 H   0  0  0  0  0  0  0  0  0  0  0  0
   -1.2525    4.3654   -0.3412 C   0  0  0  0  0  0  0  0  0  0  0  0
   -1.1255    4.2420   -1.4349 H   0  0  0  0  0  0  0  0  0  0  0  0
   -0.2837    4.1317    0.1405 H   0  0  0  0  0  0  0  0  0  0  0  0
   -1.5106    5.4254   -0.1377 H   0  0  0  0  0  0  0  0  0  0  0  0
   -2.7842    3.3253    2.1947 C   0  0  0  0  0  0  0  0  0  0  0  0
   -3.6313    2.7011    2.5463 H   0  0  0  0  0  0  0  0  0  0  0  0
   -2.9786    4.3686    2.5178 H   0  0  0  0  0  0  0  0  0  0  0  0
   -1.8578    2.9733    2.6890 H   0  0  0  0  0  0  0  0  0  0  0  0
   -4.2625    3.7194   -0.4927 C   0  0  0  0  0  0  0  0  0  0  0  0
   -4.2015    3.6509   -1.5982 H   0  0  0  0  0  0  0  0  0  0  0  0
   -4.5342    4.7637   -0.2329 H   0  0  0  0  0  0  0  0  0  0  0  0
   -5.0849    3.0569   -0.1543 H   0  0  0  0  0  0  0  0  0  0  0  0
  1 24  1  0  0  0  0
  2 16  1  0  0  0  0
  3  2  1  0  0  0  0
  4  2  1  6  0  0  0
  4  5  1  0  0  0  0
  5  6  1  0  0  0  0
  7  1  1  6  0  0  0
  7  5  1  0  0  0  0
  8 10  2  0  0  0  0
  8  7  1  0  0  0  0
  9  8  1  0  0  0  0
 10  4  1  0  0  0  0
 11 10  1  0  0  0  0
 12 14  1  0  0  0  0
 12 15  1  0  0  0  0
 12  2  1  0  0  0  0
 13 12  1  0  0  0  0
 16 19  1  0  0  0  0
 16 17  1  0  0  0  0
 16 18  1  0  0  0  0
 20 23  1  0  0  0  0
 20 22  1  0  0  0  0
 20  1  1  0  0  0  0
 21 20  1  0  0  0  0
 24 26  1  0  0  0  0
 24 25  1  0  0  0  0
 24 27  1  0  0  0  0
 28 30  1  0  0  0  0
 28 31  1  0  0  0  0
 28  1  1  0  0  0  0
 29 28  1  0  0  0  0
M  END
