1
q = 0.0, confidence = 1.0

 47 49  0  0  0  0  0  0  0  0999 V2000
    0.6170   -0.2774   -0.0010 C   0  0  0  0  0  2  0  0  0  0  0  0
   -0.3584   -1.2315    0.0415 N   0  0  0  0  0  0  0  0  0  0  0  0
   -0.0937   -2.6812    0.2090 C   0  0  0  0  0  0  0  0  0  0  0  0
   -1.0984   -3.1425    0.2698 H   0  0  0  0  0  0  0  0  0  0  0  0
    0.6349   -2.9596    1.5259 C   0  0  0  0  0  0  0  0  0  0  0  0
    1.6577   -2.5294    1.5117 H   0  0  0  0  0  0  0  0  0  0  0  0
    0.7197   -4.0532    1.6811 H   0  0  0  0  0  0  0  0  0  0  0  0
    0.0850   -2.5260    2.3843 H   0  0  0  0  0  0  0  0  0  0  0  0
    0.6349   -3.2505   -1.0096 C   0  0  0  0  0  0  0  0  0  0  0  0
    0.0801   -3.0411   -1.9460 H   0  0  0  0  0  0  0  0  0  0  0  0
    0.7446   -4.3477   -0.9050 H   0  0  0  0  0  0  0  0  0  0  0  0
    1.6482   -2.8069   -1.1018 H   0  0  0  0  0  0  0  0  0  0  0  0
   -0.0481    0.9133   -0.0497 N   0  0  0  0  0  0  0  0  0  0  0  0
    0.6104    2.2380   -0.2059 C   0  0  0  0  0  0  0  0  0  0  0  0
   -0.2355    2.9460   -0.2995 H   0  0  0  0  0  0  0  0  0  0  0  0
    1.4365    2.3073   -1.4933 C   0  0  0  0  0  0  0  0  0  0  0  0
    2.3732    1.7197   -1.4007 H   0  0  0  0  0  0  0  0  0  0  0  0
    1.7302    3.3599   -1.6766 H   0  0  0  0  0  0  0  0  0  0  0  0
    0.8530    1.9512   -2.3651 H   0  0  0  0  0  0  0  0  0  0  0  0
    1.4314    2.6017    1.0336 C   0  0  0  0  0  0  0  0  0  0  0  0
    0.8416    2.4760    1.9638 H   0  0  0  0  0  0  0  0  0  0  0  0
    1.7525    3.6596    0.9626 H   0  0  0  0  0  0  0  0  0  0  0  0
    2.3528    1.9859    1.0913 H   0  0  0  0  0  0  0  0  0  0  0  0
   -1.6328   -0.6539    0.0183 C   0  0  0  0  0  0  0  0  0  0  0  0
   -2.9081   -1.3904    0.0462 C   0  0  0  0  0  0  0  0  0  0  0  0
   -3.1906   -2.4113   -0.8912 C   0  0  0  0  0  0  0  0  0  0  0  0
   -2.4446   -2.6655   -1.6594 H   0  0  0  0  0  0  0  0  0  0  0  0
   -4.4232   -3.0786   -0.8679 C   0  0  0  0  0  0  0  0  0  0  0  0
   -4.6282   -3.8695   -1.6052 H   0  0  0  0  0  0  0  0  0  0  0  0
   -5.3973   -2.7303    0.0812 C   0  0  0  0  0  0  0  0  0  0  0  0
   -6.3657   -3.2528    0.0958 H   0  0  0  0  0  0  0  0  0  0  0  0
   -5.1315   -1.7104    1.0090 C   0  0  0  0  0  0  0  0  0  0  0  0
   -5.8908   -1.4317    1.7553 H   0  0  0  0  0  0  0  0  0  0  0  0
   -3.8972   -1.0480    0.9958 C   0  0  0  0  0  0  0  0  0  0  0  0
   -3.6852   -0.2543    1.7269 H   0  0  0  0  0  0  0  0  0  0  0  0
   -1.4334    0.7185   -0.0298 C   0  0  0  0  0  0  0  0  0  0  0  0
   -2.4521    1.7826   -0.0591 C   0  0  0  0  0  0  0  0  0  0  0  0
   -2.4415    2.8392    0.8810 C   0  0  0  0  0  0  0  0  0  0  0  0
   -1.6527    2.8772    1.6474 H   0  0  0  0  0  0  0  0  0  0  0  0
   -3.4413    3.8214    0.8587 C   0  0  0  0  0  0  0  0  0  0  0  0
   -3.4195    4.6369    1.5973 H   0  0  0  0  0  0  0  0  0  0  0  0
   -4.4722    3.7593   -0.0925 C   0  0  0  0  0  0  0  0  0  0  0  0
   -5.2575    4.5301   -0.1066 H   0  0  0  0  0  0  0  0  0  0  0  0
   -4.4974    2.7089   -1.0239 C   0  0  0  0  0  0  0  0  0  0  0  0
   -5.3021    2.6544   -1.7726 H   0  0  0  0  0  0  0  0  0  0  0  0
   -3.4951    1.7303   -1.0111 C   0  0  0  0  0  0  0  0  0  0  0  0
   -3.5093    0.9117   -1.7454 H   0  0  0  0  0  0  0  0  0  0  0  0
  1  2  1  0  0  0  0
  2  3  1  0  0  0  0
  3  4  1  0  0  0  0
  3  5  1  0  0  0  0
  5  7  1  0  0  0  0
  5  8  1  0  0  0  0
  6  5  1  0  0  0  0
  9 11  1  0  0  0  0
  9  3  1  0  0  0  0
 10  9  1  0  0  0  0
 12  9  1  0  0  0  0
 13 36  1  0  0  0  0
 13  1  1  0  0  0  0
 14 13  1  0  0  0  0
 14 20  1  0  0  0  0
 15 14  1  0  0  0  0
 16 17  1  0  0  0  0
 16 14  1  0  0  0  0
 18 16  1  0  0  0  0
 19 16  1  0  0  0  0
 20 23  1  0  0  0  0
 20 21  1  0  0  0  0
 22 20  1  0  0  0  0
 24  2  1  0  0  0  0
 24 25  1  0  0  0  0
 25 34  1  0  0  0  0
 26 28  1  0  0  0  0
 26 25  2  0  0  0  0
 27 26  1  0  0  0  0
 28 30  2  0  0  0  0
 29 28  1  0  0  0  0
 30 31  1  0  0  0  0
 30 32  1  0  0  0  0
 32 33  1  0  0  0  0
 34 32  2  0  0  0  0
 34 35  1  0  0  0  0
 36 24  2  0  0  0  0
 37 36  1  0  0  0  0
 37 38  1  0  0  0  0
 38 39  1  0  0  0  0
 40 38  2  0  0  0  0
 40 41  1  0  0  0  0
 42 40  1  0  0  0  0
 43 42  1  0  0  0  0
 44 46  1  0  0  0  0
 44 42  2  0  0  0  0
 45 44  1  0  0  0  0
 46 37  2  0  0  0  0
 47 46  1  0  0  0  0
M  END
