28
q = -1.0, confidence = 0.022

 29 32  0  0  0  0  0  0  0  0999 V2000
   -2.5690   -0.4012    0.0039 C   0  0  0  0  0  0  0  0  0  0  0  0
   -3.9716   -0.7013    0.0017 C   0  0  0  0  0  0  0  0  0  0  0  0
   -4.4945   -2.0446   -0.0001 C   0  0  0  0  0  0  0  0  0  0  0  0
   -3.7681   -2.8656    0.0005 H   0  0  0  0  0  0  0  0  0  0  0  0
   -5.8478   -2.2874   -0.0023 C   0  0  0  0  0  0  0  0  0  0  0  0
   -6.2177   -3.3250   -0.0037 H   0  0  0  0  0  0  0  0  0  0  0  0
   -6.8090   -1.2225   -0.0030 C   0  0  0  0  0  0  0  0  0  0  0  0
   -8.2032   -1.4592   -0.0053 C   0  0  0  0  0  0  0  0  0  0  0  0
   -8.5651   -2.4992   -0.0067 H   0  0  0  0  0  0  0  0  0  0  0  0
   -9.1124   -0.3942   -0.0059 C   0  0  0  0  0  0  0  0  0  0  0  0
  -10.1941   -0.5969   -0.0077 H   0  0  0  0  0  0  0  0  0  0  0  0
   -8.6513    0.9294   -0.0041 C   0  0  0  0  0  0  0  0  0  0  0  0
   -9.3668    1.7664   -0.0046 H   0  0  0  0  0  0  0  0  0  0  0  0
   -7.2673    1.2148   -0.0018 C   0  0  0  0  0  0  0  0  0  0  0  0
   -6.7691    2.5634    0.0001 C   0  0  0  0  0  0  0  0  0  0  0  0
   -7.4957    3.3910   -0.0004 H   0  0  0  0  0  0  0  0  0  0  0  0
   -5.4198    2.8194    0.0024 C   0  0  0  0  0  0  0  0  0  0  0  0
   -5.0472    3.8556    0.0038 H   0  0  0  0  0  0  0  0  0  0  0  0
   -4.4574    1.7519    0.0030 C   0  0  0  0  0  0  0  0  0  0  0  0
   -3.0678    2.0036    0.0053 C   0  0  0  0  0  0  0  0  0  0  0  0
   -2.7112    3.0453    0.0067 H   0  0  0  0  0  0  0  0  0  0  0  0
   -2.1569    0.9504    0.0056 C   0  0  0  0  0  0  0  0  0  0  0  0
   -1.0761    1.1566    0.0073 H   0  0  0  0  0  0  0  0  0  0  0  0
   -4.9159    0.3891    0.0012 C   0  0  0  0  0  0  0  0  0  0  0  0
   -6.3252    0.1286   -0.0012 C   0  0  0  0  0  0  0  0  0  0  0  0
   -1.4973   -1.4577    0.0044 C   0  0  0  0  0  0  0  0  0  0  0  0
   -0.1221   -0.9875    0.0046 C   0  0  0  0  0  2  0  0  0  0  0  0
    1.0792   -0.6718    0.0041 C   0  0  0  0  0  1  0  0  0  0  0  0
   -1.7199   -2.6753    0.0043 O   0  0  0  0  0  0  0  0  0  0  0  0
  1 26  1  0  0  0  0
  1 22  1  0  0  0  0
  2  1  2  0  0  0  0
  3  4  1  0  0  0  0
  3  2  1  0  0  0  0
  5  3  2  0  0  0  0
  6  5  1  0  0  0  0
  7  5  1  0  0  0  0
  7 25  1  0  0  0  0
  8  7  2  0  0  0  0
  9  8  1  0  0  0  0
 10  8  1  0  0  0  0
 10 12  2  0  0  0  0
 11 10  1  0  0  0  0
 12 14  1  0  0  0  0
 13 12  1  0  0  0  0
 14 25  2  0  0  0  0
 14 15  1  0  0  0  0
 15 17  2  0  0  0  0
 16 15  1  0  0  0  0
 17 19  1  0  0  0  0
 17 18  1  0  0  0  0
 19 20  1  0  0  0  0
 20 22  2  0  0  0  0
 20 21  1  0  0  0  0
 22 23  1  0  0  0  0
 24  2  1  0  0  0  0
 24 19  2  0  0  0  0
 25 24  1  0  0  0  0
 26 27  1  0  0  0  0
 28 27  1  0  0  0  0
 29 26  2  0  0  0  0
M  END
