27
q = -1.0

 27 30  0  0  0  0  0  0  0  0999 V2000
    2.0919   -1.2352    0.0009 C   0  0  0  0  0  0  0  0  0  0  0  0
    3.0907   -0.2056    0.0009 C   0  0  0  0  0  0  0  0  0  0  0  0
    2.7411    1.1872    0.0015 C   0  0  0  0  0  0  0  0  0  0  0  0
    1.6716    1.4454    0.0021 H   0  0  0  0  0  0  0  0  0  0  0  0
    3.7060    2.1663    0.0014 C   0  0  0  0  0  0  0  0  0  0  0  0
    3.4182    3.2294    0.0019 H   0  0  0  0  0  0  0  0  0  0  0  0
    5.1059    1.8383    0.0006 C   0  0  0  0  0  0  0  0  0  0  0  0
    6.1166    2.8272    0.0005 C   0  0  0  0  0  0  0  0  0  0  0  0
    5.8228    3.8885    0.0009 H   0  0  0  0  0  0  0  0  0  0  0  0
    7.4710    2.4688   -0.0003 C   0  0  0  0  0  0  0  0  0  0  0  0
    8.2436    3.2529   -0.0004 H   0  0  0  0  0  0  0  0  0  0  0  0
    7.8502    1.1196   -0.0009 C   0  0  0  0  0  0  0  0  0  0  0  0
    8.9159    0.8426   -0.0014 H   0  0  0  0  0  0  0  0  0  0  0  0
    6.8773    0.0940   -0.0007 C   0  0  0  0  0  0  0  0  0  0  0  0
    7.2317   -1.3003   -0.0013 C   0  0  0  0  0  0  0  0  0  0  0  0
    8.2996   -1.5689   -0.0019 H   0  0  0  0  0  0  0  0  0  0  0  0
    6.2666   -2.2796   -0.0011 C   0  0  0  0  0  0  0  0  0  0  0  0
    6.5524   -3.3433   -0.0016 H   0  0  0  0  0  0  0  0  0  0  0  0
    4.8685   -1.9509   -0.0004 C   0  0  0  0  0  0  0  0  0  0  0  0
    3.8573   -2.9402   -0.0002 C   0  0  0  0  0  0  0  0  0  0  0  0
    4.1508   -4.0017   -0.0006 H   0  0  0  0  0  0  0  0  0  0  0  0
    2.5078   -2.5922    0.0004 C   0  0  0  0  0  0  0  0  0  0  0  0
    1.7337   -3.3729    0.0005 H   0  0  0  0  0  0  0  0  0  0  0  0
    4.4790   -0.5677    0.0002 C   0  0  0  0  0  0  0  0  0  0  0  0
    5.4847    0.4523    0.0000 C   0  0  0  0  0  0  0  0  0  0  0  0
    0.7069   -0.9128    0.0013 C   0  0  0  0  0  2  0  0  0  0  0  0
   -0.5031   -0.6288    0.0013 C   0  0  0  0  0  1  0  0  0  0  0  0
  1 26  1  0  0  0  0
  2  1  1  0  0  0  0
  2  3  1  0  0  0  0
  3  4  1  0  0  0  0
  5  3  2  0  0  0  0
  5  6  1  0  0  0  0
  7  5  1  0  0  0  0
  8  7  1  0  0  0  0
  8  9  1  0  0  0  0
 10  8  2  0  0  0  0
 11 10  1  0  0  0  0
 12 14  2  0  0  0  0
 12 10  1  0  0  0  0
 13 12  1  0  0  0  0
 14 25  1  0  0  0  0
 15 17  2  0  0  0  0
 15 14  1  0  0  0  0
 16 15  1  0  0  0  0
 17 19  1  0  0  0  0
 18 17  1  0  0  0  0
 19 20  2  0  0  0  0
 19 24  1  0  0  0  0
 20 22  1  0  0  0  0
 21 20  1  0  0  0  0
 22 23  1  0  0  0  0
 22  1  2  0  0  0  0
 24  2  2  0  0  0  0
 25 24  1  0  0  0  0
 25  7  2  0  0  0  0
 26 27  1  0  0  0  0
M  END
