2
q = -1.0

 11 11  0  0  0  0  0  0  0  0999 V2000
    5.9086    0.0042    0.0002 I   0  0  0  0  0  0  0  0  0  0  0  0
    1.0238   -0.3999   -0.0000 C   0  0  0  0  0  3  0  0  0  0  0  0
    1.7097   -0.3690   -1.2235 C   0  0  0  0  0  0  0  0  0  0  0  0
    1.1781   -0.4408   -2.1840 H   0  0  0  0  0  0  0  0  0  0  0  0
    3.1105   -0.2447   -1.2212 C   0  0  0  0  0  0  0  0  0  0  0  0
    3.6531   -0.2112   -2.1769 H   0  0  0  0  0  0  0  0  0  0  0  0
    3.8045   -0.1777    0.0001 C   0  0  0  0  0  0  0  0  0  0  0  0
    3.1104   -0.2444    1.2214 C   0  0  0  0  0  0  0  0  0  0  0  0
    3.6529   -0.2106    2.1772 H   0  0  0  0  0  0  0  0  0  0  0  0
    1.7096   -0.3687    1.2236 C   0  0  0  0  0  0  0  0  0  0  0  0
    1.1778   -0.4402    2.1841 H   0  0  0  0  0  0  0  0  0  0  0  0
  2 10  1  0  0  0  0
  3  5  1  0  0  0  0
  3  2  2  0  0  0  0
  4  3  1  0  0  0  0
  5  7  2  0  0  0  0
  6  5  1  0  0  0  0
  7  1  1  0  0  0  0
  7  8  1  0  0  0  0
  8 10  2  0  0  0  0
  8  9  1  0  0  0  0
 10 11  1  0  0  0  0
M  END
