3
q = 0.0, confidence = 1.0

 40 41  0  0  1  0  0  0  0  0999 V2000
   -2.8900    0.2246   -1.0384 N   0  0  0  0  0  0  0  0  0  0  0  0
   -1.4428    0.2674   -2.6563 N   0  0  0  0  0  0  0  0  0  0  0  0
   -1.5488    0.1481   -1.3012 C   0  0  0  0  0  2  0  0  0  0  0  0
   -2.6908    0.4144   -3.2405 C   0  0  0  0  0  0  0  0  0  0  0  0
   -2.8265    0.5226   -4.3206 H   0  0  0  0  0  0  0  0  0  0  0  0
   -3.6070    0.3869   -2.2211 C   0  0  0  0  0  0  0  0  0  0  0  0
   -4.6938    0.4629   -2.2556 H   0  0  0  0  0  0  0  0  0  0  0  0
   -0.1722    0.2566   -3.3700 C   0  0  0  0  0  0  0  0  0  0  0  0
   -0.3694    0.2340   -4.4573 H   0  0  0  0  0  0  0  0  0  0  0  0
    0.3999   -0.6407   -3.0619 H   0  0  0  0  0  0  0  0  0  0  0  0
    0.4142    1.1626   -3.1188 H   0  0  0  0  0  0  0  0  0  0  0  0
   -3.4268    0.1915    0.3388 C   0  0  1  0  0  0  0  0  0  0  0  0
   -2.5148    0.0425    0.9465 H   0  0  0  0  0  0  0  0  0  0  0  0
   -4.0216    1.5463    0.7572 C   0  0  0  0  0  0  0  0  0  0  0  0
   -4.0686    1.5405    1.8691 H   0  0  0  0  0  0  0  0  0  0  0  0
   -3.2995    2.3439    0.4901 H   0  0  0  0  0  0  0  0  0  0  0  0
   -5.4298    1.8361    0.2198 C   0  0  1  0  0  0  0  0  0  0  0  0
   -5.3706    1.9414   -0.8872 H   0  0  0  0  0  0  0  0  0  0  0  0
   -6.3600    0.6562    0.5411 C   0  0  0  0  0  0  0  0  0  0  0  0
   -6.4995    0.6177    1.6462 H   0  0  0  0  0  0  0  0  0  0  0  0
   -7.3687    0.8362    0.1111 H   0  0  0  0  0  0  0  0  0  0  0  0
   -5.8166   -0.6981    0.0670 C   0  0  0  0  0  0  0  0  0  0  0  0
   -5.8265   -0.7557   -1.0437 H   0  0  0  0  0  0  0  0  0  0  0  0
   -6.5052   -1.4978    0.4043 H   0  0  0  0  0  0  0  0  0  0  0  0
   -4.4012   -0.9857    0.6042 C   0  0  1  0  0  0  0  0  0  0  0  0
   -4.4961   -1.0030    1.7164 H   0  0  0  0  0  0  0  0  0  0  0  0
   -3.8128   -2.3593    0.1904 C   0  0  0  0  0  0  0  0  0  0  0  0
   -3.5163   -2.2891   -0.8811 H   0  0  0  0  0  0  0  0  0  0  0  0
   -2.5529   -2.6899    1.0018 C   0  0  0  0  0  0  0  0  0  0  0  0
   -1.7450   -1.9445    0.8549 H   0  0  0  0  0  0  0  0  0  0  0  0
   -2.1271   -3.6646    0.6926 H   0  0  0  0  0  0  0  0  0  0  0  0
   -2.7919   -2.7485    2.0864 H   0  0  0  0  0  0  0  0  0  0  0  0
   -4.8301   -3.5021    0.3174 C   0  0  0  0  0  0  0  0  0  0  0  0
   -4.3477   -4.4724    0.0834 H   0  0  0  0  0  0  0  0  0  0  0  0
   -5.6925   -3.3897   -0.3685 H   0  0  0  0  0  0  0  0  0  0  0  0
   -5.2270   -3.5720    1.3535 H   0  0  0  0  0  0  0  0  0  0  0  0
   -5.9704    3.1570    0.7727 C   0  0  0  0  0  0  0  0  0  0  0  0
   -6.0523    3.1155    1.8799 H   0  0  0  0  0  0  0  0  0  0  0  0
   -6.9790    3.3839    0.3703 H   0  0  0  0  0  0  0  0  0  0  0  0
   -5.3020    4.0048    0.5197 H   0  0  0  0  0  0  0  0  0  0  0  0
  1 12  1  0  0  0  0
  2  3  1  0  0  0  0
  3  1  1  0  0  0  0
  4  2  1  0  0  0  0
  4  6  2  0  0  0  0
  5  4  1  0  0  0  0
  6  1  1  0  0  0  0
  7  6  1  0  0  0  0
  8 11  1  0  0  0  0
  8 10  1  0  0  0  0
  8  2  1  0  0  0  0
  9  8  1  0  0  0  0
 12 25  1  0  0  0  0
 12 14  1  0  0  0  0
 12 13  1  1  0  0  0
 14 15  1  0  0  0  0
 16 14  1  0  0  0  0
 17 18  1  6  0  0  0
 17 19  1  0  0  0  0
 17 14  1  0  0  0  0
 17 37  1  0  0  0  0
 19 20  1  0  0  0  0
 21 19  1  0  0  0  0
 22 24  1  0  0  0  0
 22 19  1  0  0  0  0
 22 25  1  0  0  0  0
 23 22  1  0  0  0  0
 25 26  1  1  0  0  0
 27 33  1  0  0  0  0
 27 25  1  0  0  0  0
 27 29  1  0  0  0  0
 28 27  1  0  0  0  0
 29 32  1  0  0  0  0
 30 29  1  0  0  0  0
 31 29  1  0  0  0  0
 33 36  1  0  0  0  0
 34 33  1  0  0  0  0
 35 33  1  0  0  0  0
 37 38  1  0  0  0  0
 39 37  1  0  0  0  0
 40 37  1  0  0  0  0
M  END
