13
q = -1.0

 26 28  0  0  1  0  0  0  0  0999 V2000
   -1.2653   -3.5418   -1.7067 N   0  0  0  0  0  0  0  0  0  0  0  0
   -4.0084   -0.2356   -2.1347 N   0  0  0  0  0  0  0  0  0  0  0  0
   -1.6798   -3.3758    1.9908 N   0  0  0  0  0  0  0  0  0  0  0  0
   -4.2973    0.0196    1.6380 N   0  0  0  0  0  0  0  0  0  0  0  0
   -0.7801   -0.1013    1.1638 C   0  0  1  0  0  0  0  0  0  0  0  0
   -0.5383   -0.1845    2.2376 H   0  0  0  0  0  0  0  0  0  0  0  0
   -1.1307    1.2688    0.6410 C   0  0  0  0  0  0  0  0  0  0  0  0
   -1.0302    1.1930   -0.7668 C   0  0  0  0  0  0  0  0  0  0  0  0
   -0.6135   -0.2204   -1.0876 C   0  0  2  0  0  0  0  0  0  0  0  0
   -0.2185   -0.4036   -2.1019 H   0  0  0  0  0  0  0  0  0  0  0  0
   -1.9096   -1.1419   -0.8243 C   0  0  0  0  0  0  0  0  0  0  0  0
   -2.0366   -1.0478    0.8019 C   0  0  0  0  0  0  0  0  0  0  0  0
    0.2465   -0.6181    0.1323 C   0  0  0  0  0  3  0  0  0  0  0  0
    0.3407   -1.7198    0.2204 H   0  0  0  0  0  0  0  0  0  0  0  0
   -1.5383    2.4446    1.2726 C   0  0  0  0  0  0  0  0  0  0  0  0
   -1.6326    2.5018    2.3670 H   0  0  0  0  0  0  0  0  0  0  0  0
   -1.8154    3.5636    0.4643 C   0  0  0  0  0  0  0  0  0  0  0  0
   -2.1166    4.5113    0.9350 H   0  0  0  0  0  0  0  0  0  0  0  0
   -1.7187    3.4871   -0.9362 C   0  0  0  0  0  0  0  0  0  0  0  0
   -1.9463    4.3757   -1.5437 H   0  0  0  0  0  0  0  0  0  0  0  0
   -1.3401    2.2895   -1.5723 C   0  0  0  0  0  0  0  0  0  0  0  0
   -1.2827    2.2280   -2.6693 H   0  0  0  0  0  0  0  0  0  0  0  0
   -1.5998   -2.5012   -1.2854 C   0  0  0  0  0  0  0  0  0  0  0  0
   -3.0973   -0.6531   -1.5291 C   0  0  0  0  0  0  0  0  0  0  0  0
   -1.8623   -2.3582    1.4406 C   0  0  0  0  0  0  0  0  0  0  0  0
   -3.3096   -0.4702    1.2435 C   0  0  0  0  0  0  0  0  0  0  0  0
  1 23  3  0  0  0  0
  2 24  3  0  0  0  0
  5  6  1  1  0  0  0
  7  5  1  0  0  0  0
  7 15  1  0  0  0  0
  8  7  2  0  0  0  0
  9 10  1  6  0  0  0
  9 11  1  0  0  0  0
  9  8  1  0  0  0  0
  9 13  1  0  0  0  0
 11 12  1  0  0  0  0
 12  5  1  0  0  0  0
 12 26  1  0  0  0  0
 12 25  1  0  0  0  0
 13 14  1  0  0  0  0
 13  5  1  0  0  0  0
 15 16  1  0  0  0  0
 17 18  1  0  0  0  0
 17 15  2  0  0  0  0
 19 17  1  0  0  0  0
 20 19  1  0  0  0  0
 21 19  2  0  0  0  0
 21  8  1  0  0  0  0
 22 21  1  0  0  0  0
 23 11  1  0  0  0  0
 24 11  1  0  0  0  0
 25  3  3  0  0  0  0
 26  4  3  0  0  0  0
M  END
