4
q = -1.0

 25 25  0  0  1  0  0  0  0  0999 V2000
   -2.8836   -1.6258    1.2669 Cl  0  0  0  0  0  0  0  0  0  0  0  0
    0.2750   -1.2278    0.6272 C   0  0  0  0  0  3  0  0  0  0  0  0
    1.0486   -1.8204   -0.3948 C   0  0  0  0  0  3  0  0  0  0  0  0
    1.2573   -1.1322   -1.6340 C   0  0  0  0  0  3  0  0  0  0  0  0
    0.6960    0.1801   -1.7498 C   0  0  0  0  0  3  0  0  0  0  0  0
   -0.0657    0.7204   -0.6889 C   0  0  0  0  0  3  0  0  0  0  0  0
   -0.7773   -0.1879    0.2982 C   0  0  0  0  0  0  0  0  0  0  0  0
   -2.1607   -0.7233   -0.1738 C   0  0  2  0  0  0  0  0  0  0  0  0
   -3.1393    0.4370   -0.4381 C   0  0  0  0  0  0  0  0  0  0  0  0
   -3.9188    2.5162    0.3463 C   0  0  0  0  0  0  0  0  0  0  0  0
   -2.1395   -1.6720   -1.3583 C   0  0  0  0  0  0  0  0  0  0  0  0
   -3.9284    0.4752   -1.3608 O   0  0  0  0  0  0  0  0  0  0  0  0
   -3.0081    1.4169    0.4825 O   0  0  0  0  0  0  0  0  0  0  0  0
    0.2509   -1.7125    1.6138 H   0  0  0  0  0  0  0  0  0  0  0  0
    1.6048   -2.7502   -0.1994 H   0  0  0  0  0  0  0  0  0  0  0  0
    1.8780   -1.5619   -2.4305 H   0  0  0  0  0  0  0  0  0  0  0  0
    0.9734    0.8079   -2.6106 H   0  0  0  0  0  0  0  0  0  0  0  0
   -0.3592    1.7796   -0.7406 H   0  0  0  0  0  0  0  0  0  0  0  0
   -0.9907    0.3973    1.2116 H   0  0  0  0  0  0  0  0  0  0  0  0
   -4.9651    2.1713    0.4692 H   0  0  0  0  0  0  0  0  0  0  0  0
   -3.6530    3.2331    1.1427 H   0  0  0  0  0  0  0  0  0  0  0  0
   -3.8213    2.9859   -0.6528 H   0  0  0  0  0  0  0  0  0  0  0  0
   -1.7108   -1.1597   -2.2420 H   0  0  0  0  0  0  0  0  0  0  0  0
   -1.5288   -2.5635   -1.1276 H   0  0  0  0  0  0  0  0  0  0  0  0
   -3.1686   -1.9831   -1.6120 H   0  0  0  0  0  0  0  0  0  0  0  0
  2 14  1  0  0  0  0
  3 15  1  0  0  0  0
  3  2  1  0  0  0  0
  4  3  1  0  0  0  0
  5  4  1  0  0  0  0
  5  6  1  0  0  0  0
  6  7  1  0  0  0  0
  7  2  1  0  0  0  0
  7 19  1  0  0  0  0
  8  7  1  0  0  0  0
  8  1  1  1  0  0  0
  9  8  1  0  0  0  0
  9 13  1  0  0  0  0
 10 20  1  0  0  0  0
 10 13  1  0  0  0  0
 10 21  1  0  0  0  0
 11 24  1  0  0  0  0
 11  8  1  0  0  0  0
 12  9  2  0  0  0  0
 16  4  1  0  0  0  0
 17  5  1  0  0  0  0
 18  6  1  0  0  0  0
 22 10  1  0  0  0  0
 23 11  1  0  0  0  0
 25 11  1  0  0  0  0
M  END
