2
q = -1.0, confidence = 0.002

  9  8  0  0  0  0  0  0  0  0999 V2000
   -0.7904   -4.9387    0.3334 Cl  0  0  0  0  0  0  0  0  0  0  0  0
   -1.7563   -1.7493   -2.0180 C   0  0  0  0  0  3  0  0  0  0  0  0
   -1.9712   -2.8122   -0.9981 C   0  0  0  0  0  0  0  0  0  0  0  0
   -1.1418   -4.0862   -1.2104 C   0  0  0  0  0  0  0  0  0  0  0  0
   -2.7345   -2.7204   -0.0340 O   0  0  0  0  0  0  0  0  0  0  0  0
   -1.3296   -2.1191   -2.9690 H   0  0  0  0  0  0  0  0  0  0  0  0
   -2.6554   -1.1298   -2.1813 H   0  0  0  0  0  0  0  0  0  0  0  0
   -1.7253   -4.7808   -1.8500 H   0  0  0  0  0  0  0  0  0  0  0  0
   -0.1818   -3.8570   -1.7144 H   0  0  0  0  0  0  0  0  0  0  0  0
  2  3  1  0  0  0  0
  3  5  2  0  0  0  0
  4  3  1  0  0  0  0
  4  1  1  0  0  0  0
  6  2  1  0  0  0  0
  7  2  1  0  0  0  0
  8  4  1  0  0  0  0
  9  4  1  0  0  0  0
M  END
