2
q = -1.0

 38 40  0  0  0  0  0  0  0  0999 V2000
    0.8130   -0.0791   -1.3672 S   0  0  0  0  0  0  0  0  0  0  0  0
    0.0428   -0.4159    1.4296 C   0  0  0  0  0  3  0  0  0  0  0  0
   -0.5274   -0.7952    2.6698 C   0  0  0  0  0  0  0  0  0  0  0  0
   -1.6231   -0.8321    2.7609 H   0  0  0  0  0  0  0  0  0  0  0  0
    0.2580   -1.1633    3.7699 C   0  0  0  0  0  0  0  0  0  0  0  0
   -0.2272   -1.4521    4.7157 H   0  0  0  0  0  0  0  0  0  0  0  0
    1.6576   -1.1870    3.6560 C   0  0  0  0  0  0  0  0  0  0  0  0
    2.2875   -1.4784    4.5100 H   0  0  0  0  0  0  0  0  0  0  0  0
    2.2462   -0.8508    2.4315 C   0  0  0  0  0  0  0  0  0  0  0  0
    3.3421   -0.8794    2.3281 H   0  0  0  0  0  0  0  0  0  0  0  0
    1.4586   -0.4675    1.3219 C   0  0  0  0  0  0  0  0  0  0  0  0
    2.1627   -0.0319    0.0445 C   0  0  0  0  0  0  0  0  0  0  0  0
    3.3205   -0.9574   -0.3260 C   0  0  0  0  0  0  0  0  0  0  0  0
    3.1807   -2.3489   -0.1042 C   0  0  0  0  0  0  0  0  0  0  0  0
    2.2580   -2.7280    0.3578 H   0  0  0  0  0  0  0  0  0  0  0  0
    4.2014   -3.2431   -0.4476 C   0  0  0  0  0  0  0  0  0  0  0  0
    4.0622   -4.3195   -0.2655 H   0  0  0  0  0  0  0  0  0  0  0  0
    5.3975   -2.7703   -1.0123 C   0  0  0  0  0  0  0  0  0  0  0  0
    6.2027   -3.4717   -1.2784 H   0  0  0  0  0  0  0  0  0  0  0  0
    5.5594   -1.3933   -1.2186 C   0  0  0  0  0  0  0  0  0  0  0  0
    6.4981   -1.0039   -1.6415 H   0  0  0  0  0  0  0  0  0  0  0  0
    4.5336   -0.4968   -0.8778 C   0  0  0  0  0  0  0  0  0  0  0  0
    4.6943    0.5789   -1.0273 H   0  0  0  0  0  0  0  0  0  0  0  0
    2.5414    1.4580    0.0803 C   0  0  0  0  0  0  0  0  0  0  0  0
    2.8874    2.1512   -1.1020 C   0  0  0  0  0  0  0  0  0  0  0  0
    2.8364    1.6273   -2.0676 H   0  0  0  0  0  0  0  0  0  0  0  0
    3.2666    3.5001   -1.0681 C   0  0  0  0  0  0  0  0  0  0  0  0
    3.5320    4.0141   -2.0046 H   0  0  0  0  0  0  0  0  0  0  0  0
    3.2940    4.1959    0.1511 C   0  0  0  0  0  0  0  0  0  0  0  0
    3.5844    5.2570    0.1793 H   0  0  0  0  0  0  0  0  0  0  0  0
    2.9393    3.5250    1.3304 C   0  0  0  0  0  0  0  0  0  0  0  0
    2.9478    4.0582    2.2935 H   0  0  0  0  0  0  0  0  0  0  0  0
    2.5667    2.1711    1.2957 C   0  0  0  0  0  0  0  0  0  0  0  0
    2.2871    1.6583    2.2259 H   0  0  0  0  0  0  0  0  0  0  0  0
    0.9932   -1.7141   -2.1470 C   0  0  0  0  0  0  0  0  0  0  0  0
    0.2152   -1.7302   -2.9341 H   0  0  0  0  0  0  0  0  0  0  0  0
    2.0014   -1.7869   -2.5945 H   0  0  0  0  0  0  0  0  0  0  0  0
    0.7920   -2.5351   -1.4372 H   0  0  0  0  0  0  0  0  0  0  0  0
  1 12  1  0  0  0  0
  2  3  1  0  0  0  0
  3  4  1  0  0  0  0
  3  5  2  0  0  0  0
  5  6  1  0  0  0  0
  7  5  1  0  0  0  0
  7  8  1  0  0  0  0
  9  7  2  0  0  0  0
 10  9  1  0  0  0  0
 11  2  2  0  0  0  0
 11  9  1  0  0  0  0
 12 24  1  0  0  0  0
 12 11  1  0  0  0  0
 13 14  1  0  0  0  0
 13 12  1  0  0  0  0
 14 15  1  0  0  0  0
 16 17  1  0  0  0  0
 16 14  2  0  0  0  0
 18 16  1  0  0  0  0
 19 18  1  0  0  0  0
 20 18  2  0  0  0  0
 20 22  1  0  0  0  0
 21 20  1  0  0  0  0
 22 13  2  0  0  0  0
 23 22  1  0  0  0  0
 24 33  1  0  0  0  0
 25 27  1  0  0  0  0
 25 24  2  0  0  0  0
 26 25  1  0  0  0  0
 27 29  2  0  0  0  0
 28 27  1  0  0  0  0
 29 30  1  0  0  0  0
 29 31  1  0  0  0  0
 31 32  1  0  0  0  0
 33 31  2  0  0  0  0
 33 34  1  0  0  0  0
 35 38  1  0  0  0  0
 35  1  1  0  0  0  0
 36 35  1  0  0  0  0
 37 35  1  0  0  0  0
M  END
