5
q = 0.0, confidence = 1.0

 50 52  0  0  0  0  0  0  0  0999 V2000
   -2.8603    2.9540    0.6080 O   0  0  0  0  0  0  0  0  0  0  0  0
   -2.4101    2.2801    1.1729 H   0  0  0  0  0  0  0  0  0  0  0  0
    0.0795    2.4671   -0.4771 N   0  0  0  0  0  0  0  0  0  0  0  0
    1.1648    0.7134    0.2891 N   0  0  0  0  0  0  0  0  0  0  0  0
   -0.0373    1.1402   -0.1905 C   0  0  0  0  0  2  0  0  0  0  0  0
   -0.9995    3.3060   -0.9926 C   0  0  0  0  0  0  0  0  0  0  0  0
   -1.5794    2.6911   -1.7097 H   0  0  0  0  0  0  0  0  0  0  0  0
   -0.5273    4.1375   -1.5535 H   0  0  0  0  0  0  0  0  0  0  0  0
   -1.9274    3.8665    0.1005 C   0  0  0  0  0  0  0  0  0  0  0  0
   -1.2950    4.3315    0.8987 H   0  0  0  0  0  0  0  0  0  0  0  0
   -2.5056    4.6932   -0.3672 H   0  0  0  0  0  0  0  0  0  0  0  0
    1.3648    2.9092   -0.1567 C   0  0  0  0  0  0  0  0  0  0  0  0
    1.9703    4.1699   -0.2531 C   0  0  0  0  0  0  0  0  0  0  0  0
    1.4195    5.0453   -0.6242 H   0  0  0  0  0  0  0  0  0  0  0  0
    3.3089    4.2692    0.1516 C   0  0  0  0  0  0  0  0  0  0  0  0
    3.8177    5.2426    0.0927 H   0  0  0  0  0  0  0  0  0  0  0  0
    4.0140    3.1446    0.6338 C   0  0  0  0  0  0  0  0  0  0  0  0
    5.0645    3.2583    0.9396 H   0  0  0  0  0  0  0  0  0  0  0  0
    3.4123    1.8815    0.7317 C   0  0  0  0  0  0  0  0  0  0  0  0
    3.9698    1.0085    1.0923 H   0  0  0  0  0  0  0  0  0  0  0  0
    2.0693    1.7784    0.3329 C   0  0  0  0  0  0  0  0  0  0  0  0
    1.3837   -0.6643    0.7593 C   0  0  0  0  0  0  0  0  0  0  0  0
    0.5875   -1.2644    0.2719 H   0  0  0  0  0  0  0  0  0  0  0  0
    1.1577   -0.6856    1.8399 H   0  0  0  0  0  0  0  0  0  0  0  0
    2.7624   -1.2009    0.4430 C   0  0  0  0  0  0  0  0  0  0  0  0
    3.6473   -1.5392    1.5035 C   0  0  0  0  0  0  0  0  0  0  0  0
    4.9440   -2.0134    1.1882 C   0  0  0  0  0  0  0  0  0  0  0  0
    5.3613   -2.1017   -0.1725 C   0  0  0  0  0  0  0  0  0  0  0  0
    4.4793   -1.7388   -1.2181 C   0  0  0  0  0  0  0  0  0  0  0  0
    3.1557   -1.3250   -0.9078 C   0  0  0  0  0  0  0  0  0  0  0  0
    2.1966   -1.0034   -2.0291 C   0  0  0  0  0  0  0  0  0  0  0  0
    1.1323   -1.0476   -1.7359 H   0  0  0  0  0  0  0  0  0  0  0  0
    2.3230   -1.6969   -2.8823 H   0  0  0  0  0  0  0  0  0  0  0  0
    2.3614    0.0209   -2.4306 H   0  0  0  0  0  0  0  0  0  0  0  0
    4.8899   -1.7706   -2.6730 C   0  0  0  0  0  0  0  0  0  0  0  0
    4.4111   -2.6135   -3.2172 H   0  0  0  0  0  0  0  0  0  0  0  0
    5.9799   -1.8686   -2.8139 H   0  0  0  0  0  0  0  0  0  0  0  0
    4.5762   -0.8447   -3.1949 H   0  0  0  0  0  0  0  0  0  0  0  0
    6.7589   -2.6081   -0.4438 C   0  0  0  0  0  0  0  0  0  0  0  0
    7.5282   -1.9549    0.0204 H   0  0  0  0  0  0  0  0  0  0  0  0
    6.9950   -2.6859   -1.5180 H   0  0  0  0  0  0  0  0  0  0  0  0
    6.9101   -3.6161   -0.0040 H   0  0  0  0  0  0  0  0  0  0  0  0
    5.9352   -2.4362    2.2483 C   0  0  0  0  0  0  0  0  0  0  0  0
    6.8646   -1.8300    2.2030 H   0  0  0  0  0  0  0  0  0  0  0  0
    6.2521   -3.4903    2.1021 H   0  0  0  0  0  0  0  0  0  0  0  0
    5.5430   -2.3578    3.2757 H   0  0  0  0  0  0  0  0  0  0  0  0
    3.1790   -1.3658    2.9342 C   0  0  0  0  0  0  0  0  0  0  0  0
    2.3131   -2.0190    3.1693 H   0  0  0  0  0  0  0  0  0  0  0  0
    2.8536   -0.3235    3.1339 H   0  0  0  0  0  0  0  0  0  0  0  0
    3.9639   -1.5977    3.6731 H   0  0  0  0  0  0  0  0  0  0  0  0
  1  2  1  0  0  0  0
  3  5  1  0  0  0  0
  3 12  1  0  0  0  0
  4 21  1  0  0  0  0
  4 22  1  0  0  0  0
  5  4  1  0  0  0  0
  6  3  1  0  0  0  0
  6  9  1  0  0  0  0
  7  6  1  0  0  0  0
  8  6  1  0  0  0  0
  9  1  1  0  0  0  0
  9 10  1  0  0  0  0
 11  9  1  0  0  0  0
 12 21  1  0  0  0  0
 13 12  2  0  0  0  0
 13 15  1  0  0  0  0
 14 13  1  0  0  0  0
 15 17  2  0  0  0  0
 16 15  1  0  0  0  0
 17 19  1  0  0  0  0
 17 18  1  0  0  0  0
 19 20  1  0  0  0  0
 21 19  2  0  0  0  0
 22 24  1  0  0  0  0
 23 22  1  0  0  0  0
 25 22  1  0  0  0  0
 25 26  1  0  0  0  0
 26 47  1  0  0  0  0
 27 26  2  0  0  0  0
 27 43  1  0  0  0  0
 28 27  1  0  0  0  0
 29 30  1  0  0  0  0
 29 28  2  0  0  0  0
 30 25  2  0  0  0  0
 31 32  1  0  0  0  0
 31 30  1  0  0  0  0
 33 31  1  0  0  0  0
 34 31  1  0  0  0  0
 35 29  1  0  0  0  0
 36 35  1  0  0  0  0
 37 35  1  0  0  0  0
 38 35  1  0  0  0  0
 39 28  1  0  0  0  0
 39 42  1  0  0  0  0
 39 40  1  0  0  0  0
 41 39  1  0  0  0  0
 43 46  1  0  0  0  0
 44 43  1  0  0  0  0
 45 43  1  0  0  0  0
 47 49  1  0  0  0  0
 47 48  1  0  0  0  0
 47 50  1  0  0  0  0
M  END
