5
q = -1.0, confidence = 0.0

 44 46  0  0  0  0  0  0  0  0999 V2000
    1.9099    0.0139    2.0074 N   0  0  0  0  0  0  0  0  0  0  0  0
    0.0499   -0.5433    0.4601 C   0  0  0  0  0  0  0  0  0  0  0  0
   -1.0014    0.1608    1.2926 C   0  0  0  0  0  3  0  0  0  0  0  0
   -1.6613    1.3124    0.8121 C   0  0  0  0  0  3  0  0  0  0  0  0
   -1.7775    1.5427   -0.5945 C   0  0  0  0  0  3  0  0  0  0  0  0
   -1.2314    0.5432   -1.4584 C   0  0  0  0  0  3  0  0  0  0  0  0
   -0.5817   -0.5875   -0.9161 C   0  0  0  0  0  3  0  0  0  0  0  0
    1.5283    0.0195    0.5640 C   0  0  0  0  0  0  0  0  0  0  0  0
    1.1859    2.5252    0.9237 C   0  0  0  0  0  0  0  0  0  0  0  0
    1.0157    3.8312    0.4419 C   0  0  0  0  0  0  0  0  0  0  0  0
    1.1395    4.1009   -0.9300 C   0  0  0  0  0  0  0  0  0  0  0  0
    1.4411    3.0518   -1.8117 C   0  0  0  0  0  0  0  0  0  0  0  0
    1.6153    1.7472   -1.3256 C   0  0  0  0  0  0  0  0  0  0  0  0
    1.4920    1.4626    0.0493 C   0  0  0  0  0  0  0  0  0  0  0  0
    3.7587   -0.3576   -0.6409 C   0  0  0  0  0  0  0  0  0  0  0  0
    4.7240   -1.1738   -1.2461 C   0  0  0  0  0  0  0  0  0  0  0  0
    4.4656   -2.5365   -1.4611 C   0  0  0  0  0  0  0  0  0  0  0  0
    3.2329   -3.0678   -1.0587 C   0  0  0  0  0  0  0  0  0  0  0  0
    2.2695   -2.2465   -0.4505 C   0  0  0  0  0  0  0  0  0  0  0  0
    2.5058   -0.8713   -0.2326 C   0  0  0  0  0  0  0  0  0  0  0  0
    1.7189   -1.2367    2.7270 C   0  0  0  0  0  0  0  0  0  0  0  0
    3.2337    0.5529    2.2955 C   0  0  0  0  0  0  0  0  0  0  0  0
    0.0981   -1.5859    0.8212 H   0  0  0  0  0  0  0  0  0  0  0  0
   -1.0640   -0.0535    2.3698 H   0  0  0  0  0  0  0  0  0  0  0  0
   -2.2041    1.9695    1.5083 H   0  0  0  0  0  0  0  0  0  0  0  0
   -2.3034    2.4197   -0.9912 H   0  0  0  0  0  0  0  0  0  0  0  0
   -1.4367    0.5982   -2.5383 H   0  0  0  0  0  0  0  0  0  0  0  0
   -0.3068   -1.4010   -1.6039 H   0  0  0  0  0  0  0  0  0  0  0  0
    1.0712    2.3019    1.9940 H   0  0  0  0  0  0  0  0  0  0  0  0
    0.7797    4.6448    1.1452 H   0  0  0  0  0  0  0  0  0  0  0  0
    1.0066    5.1254   -1.3100 H   0  0  0  0  0  0  0  0  0  0  0  0
    1.5418    3.2482   -2.8902 H   0  0  0  0  0  0  0  0  0  0  0  0
    1.8432    0.9334   -2.0287 H   0  0  0  0  0  0  0  0  0  0  0  0
    3.9761    0.7101   -0.4955 H   0  0  0  0  0  0  0  0  0  0  0  0
    5.6866   -0.7382   -1.5553 H   0  0  0  0  0  0  0  0  0  0  0  0
    5.2201   -3.1788   -1.9398 H   0  0  0  0  0  0  0  0  0  0  0  0
    3.0108   -4.1339   -1.2192 H   0  0  0  0  0  0  0  0  0  0  0  0
    1.3168   -2.7050   -0.1505 H   0  0  0  0  0  0  0  0  0  0  0  0
    2.0096   -1.0765    3.7845 H   0  0  0  0  0  0  0  0  0  0  0  0
    0.6608   -1.5607    2.7326 H   0  0  0  0  0  0  0  0  0  0  0  0
    2.3400   -2.0834    2.3367 H   0  0  0  0  0  0  0  0  0  0  0  0
    3.3127    0.7489    3.3850 H   0  0  0  0  0  0  0  0  0  0  0  0
    4.0690   -0.1353    2.0124 H   0  0  0  0  0  0  0  0  0  0  0  0
    3.3900    1.5118    1.7670 H   0  0  0  0  0  0  0  0  0  0  0  0
  1 22  1  0  0  0  0
  1 21  1  0  0  0  0
  2  8  1  0  0  0  0
  2 23  1  0  0  0  0
  2  3  1  0  0  0  0
  3 24  1  0  0  0  0
  4  3  1  0  0  0  0
  4 25  1  0  0  0  0
  5  4  1  0  0  0  0
  6  7  1  0  0  0  0
  6  5  1  0  0  0  0
  7  2  1  0  0  0  0
  8  1  1  0  0  0  0
  9 29  1  0  0  0  0
 10  9  1  0  0  0  0
 10 30  1  0  0  0  0
 11 10  2  0  0  0  0
 12 13  2  0  0  0  0
 12 11  1  0  0  0  0
 13 14  1  0  0  0  0
 14  8  1  0  0  0  0
 14  9  2  0  0  0  0
 15 34  1  0  0  0  0
 15 20  1  0  0  0  0
 16 15  2  0  0  0  0
 17 16  1  0  0  0  0
 17 18  2  0  0  0  0
 18 19  1  0  0  0  0
 19 20  2  0  0  0  0
 19 38  1  0  0  0  0
 20  8  1  0  0  0  0
 21 40  1  0  0  0  0
 21 39  1  0  0  0  0
 22 42  1  0  0  0  0
 26  5  1  0  0  0  0
 27  6  1  0  0  0  0
 28  7  1  0  0  0  0
 31 11  1  0  0  0  0
 32 12  1  0  0  0  0
 33 13  1  0  0  0  0
 35 16  1  0  0  0  0
 36 17  1  0  0  0  0
 37 18  1  0  0  0  0
 41 21  1  0  0  0  0
 43 22  1  0  0  0  0
 44 22  1  0  0  0  0
M  END
