6
q = -1.0

 29 29  0  0  0  0  0  0  0  0999 V2000
   -2.0639   -2.5723   -0.5286 O   0  0  0  0  0  0  0  0  0  0  0  0
   -1.9150   -1.1647   -2.3082 O   0  0  0  0  0  0  0  0  0  0  0  0
    0.0724   -3.3197   -2.5553 O   0  0  0  0  0  0  0  0  0  0  0  0
    2.3261   -3.1566   -2.4008 O   0  0  0  0  0  0  0  0  0  0  0  0
   -1.4409   -1.7417   -1.1766 C   0  0  0  0  0  0  0  0  0  0  0  0
   -0.1683   -1.1099   -0.7251 C   0  0  0  0  0  3  0  0  0  0  0  0
    1.0475   -1.6311   -1.1197 C   0  0  0  0  0  0  0  0  0  0  0  0
    1.0617   -2.7755   -2.0858 C   0  0  0  0  0  0  0  0  0  0  0  0
   -3.1833   -1.6569   -2.7516 C   0  0  0  0  0  0  0  0  0  0  0  0
   -3.1241   -2.7437   -2.9614 H   0  0  0  0  0  0  0  0  0  0  0  0
   -3.4219   -1.0983   -3.6746 H   0  0  0  0  0  0  0  0  0  0  0  0
   -3.9645   -1.4793   -1.9845 H   0  0  0  0  0  0  0  0  0  0  0  0
    2.4172   -4.2462   -3.3195 C   0  0  0  0  0  0  0  0  0  0  0  0
    1.9149   -5.1495   -2.9168 H   0  0  0  0  0  0  0  0  0  0  0  0
    3.4959   -4.4372   -3.4633 H   0  0  0  0  0  0  0  0  0  0  0  0
    1.9374   -3.9928   -4.2872 H   0  0  0  0  0  0  0  0  0  0  0  0
    2.2951   -1.1188   -0.6745 C   0  0  0  0  0  0  0  0  0  0  0  0
    3.3951   -0.6828   -0.3277 C   0  0  0  0  0  0  0  0  0  0  0  0
    4.6618   -0.1630    0.0592 C   0  0  0  0  0  0  0  0  0  0  0  0
    5.8370   -0.5260   -0.6508 C   0  0  0  0  0  0  0  0  0  0  0  0
    5.7517   -1.2216   -1.4985 H   0  0  0  0  0  0  0  0  0  0  0  0
    7.0803   -0.0043   -0.2759 C   0  0  0  0  0  0  0  0  0  0  0  0
    7.9831   -0.2939   -0.8355 H   0  0  0  0  0  0  0  0  0  0  0  0
    7.1805    0.8844    0.8085 C   0  0  0  0  0  0  0  0  0  0  0  0
    8.1605    1.2925    1.0995 H   0  0  0  0  0  0  0  0  0  0  0  0
    6.0234    1.2463    1.5198 C   0  0  0  0  0  0  0  0  0  0  0  0
    6.0982    1.9386    2.3730 H   0  0  0  0  0  0  0  0  0  0  0  0
    4.7733    0.7323    1.1568 C   0  0  0  0  0  0  0  0  0  0  0  0
    3.8525    0.9929    1.6998 H   0  0  0  0  0  0  0  0  0  0  0  0
  2  5  1  0  0  0  0
  3  8  2  0  0  0  0
  4  8  1  0  0  0  0
  5  6  1  0  0  0  0
  5  1  2  0  0  0  0
  7  6  2  0  0  0  0
  7 17  1  0  0  0  0
  8  7  1  0  0  0  0
  9  2  1  0  0  0  0
  9 12  1  0  0  0  0
 10  9  1  0  0  0  0
 11  9  1  0  0  0  0
 13 14  1  0  0  0  0
 13  4  1  0  0  0  0
 15 13  1  0  0  0  0
 16 13  1  0  0  0  0
 17 18  3  0  0  0  0
 18 19  1  0  0  0  0
 19 28  1  0  0  0  0
 20 22  1  0  0  0  0
 20 19  2  0  0  0  0
 21 20  1  0  0  0  0
 22 24  2  0  0  0  0
 23 22  1  0  0  0  0
 24 25  1  0  0  0  0
 24 26  1  0  0  0  0
 26 27  1  0  0  0  0
 28 26  2  0  0  0  0
 28 29  1  0  0  0  0
M  END
