6
q = -1.0

 36 37  0  0  1  0  0  0  0  0999 V2000
    3.8270   -0.5669    0.2059 N   0  0  0  0  0  0  0  0  0  0  0  0
    4.3475   -1.4281   -0.6982 N   0  0  0  0  0  0  0  0  0  0  0  0
    0.1549    3.6783    0.5100 N   0  0  0  0  0  0  0  0  0  0  0  0
    2.7461    0.3217   -0.2145 C   0  0  1  0  0  0  0  0  0  0  0  0
    2.5043   -0.0520   -1.2261 H   0  0  0  0  0  0  0  0  0  0  0  0
    1.5263    0.1932    0.7141 C   0  0  0  0  0  3  0  0  0  0  0  0
    0.7188    1.3824    0.9797 C   0  0  0  0  0  3  0  0  0  0  0  0
    0.8848    2.5824    0.2289 C   0  0  2  0  0  3  0  0  0  0  0  0
    1.9605    2.6234   -0.8264 C   0  0  0  0  0  0  0  0  0  0  0  0
    2.2908    3.6644   -1.0008 H   0  0  0  0  0  0  0  0  0  0  0  0
    1.5713    2.2517   -1.8006 H   0  0  0  0  0  0  0  0  0  0  0  0
    3.2143    1.7982   -0.4229 C   0  0  0  0  0  0  0  0  0  0  0  0
    4.2201    1.8477   -1.5823 C   0  0  0  0  0  0  0  0  0  0  0  0
    5.1079    1.2253   -1.3582 H   0  0  0  0  0  0  0  0  0  0  0  0
    4.5659    2.8859   -1.7606 H   0  0  0  0  0  0  0  0  0  0  0  0
    3.7703    1.4658   -2.5206 H   0  0  0  0  0  0  0  0  0  0  0  0
    3.8448    2.4093    0.8395 C   0  0  0  0  0  0  0  0  0  0  0  0
    4.8116    1.9258    1.0760 H   0  0  0  0  0  0  0  0  0  0  0  0
    3.1867    2.3202    1.7278 H   0  0  0  0  0  0  0  0  0  0  0  0
    4.0515    3.4869    0.6783 H   0  0  0  0  0  0  0  0  0  0  0  0
    5.2937   -2.1090   -0.0337 C   0  0  0  0  0  0  0  0  0  0  0  0
    5.8739   -2.8818   -0.5534 H   0  0  0  0  0  0  0  0  0  0  0  0
    5.3829   -1.6900    1.3178 C   0  0  0  0  0  0  0  0  0  0  0  0
    6.0561   -2.0563    2.0997 H   0  0  0  0  0  0  0  0  0  0  0  0
    4.4182   -0.6917    1.4364 C   0  0  0  0  0  0  0  0  0  0  0  0
    4.1176   -0.0751    2.2891 H   0  0  0  0  0  0  0  0  0  0  0  0
    0.2364    4.9212   -0.2558 C   0  0  0  0  0  0  0  0  0  0  0  0
    0.8897    5.6662    0.2470 H   0  0  0  0  0  0  0  0  0  0  0  0
   -0.7783    5.3538   -0.3459 H   0  0  0  0  0  0  0  0  0  0  0  0
    0.6188    4.7399   -1.2740 H   0  0  0  0  0  0  0  0  0  0  0  0
   -0.7358    3.6956    1.6724 C   0  0  0  0  0  0  0  0  0  0  0  0
   -1.4274    2.8318    1.6495 H   0  0  0  0  0  0  0  0  0  0  0  0
   -1.3337    4.6226    1.6573 H   0  0  0  0  0  0  0  0  0  0  0  0
   -0.1541    3.6632    2.6172 H   0  0  0  0  0  0  0  0  0  0  0  0
    1.7417   -0.3903    1.6243 H   0  0  0  0  0  0  0  0  0  0  0  0
    0.2125    1.4484    1.9524 H   0  0  0  0  0  0  0  0  0  0  0  0
  1 25  1  0  0  0  0
  2 21  2  0  0  0  0
  2  1  1  0  0  0  0
  3 31  1  0  0  0  0
  4  5  1  6  0  0  0
  4  1  1  0  0  0  0
  4  6  1  0  0  0  0
  6  7  1  0  0  0  0
  6 35  1  0  0  0  0
  7 36  1  0  0  0  0
  8  3  1  1  0  0  0
  8  7  1  0  0  0  0
  9 12  1  0  0  0  0
  9  8  1  0  0  0  0
 10  9  1  0  0  0  0
 11  9  1  0  0  0  0
 12  4  1  0  0  0  0
 12 17  1  0  0  0  0
 13 14  1  0  0  0  0
 13 12  1  0  0  0  0
 15 13  1  0  0  0  0
 16 13  1  0  0  0  0
 17 18  1  0  0  0  0
 17 19  1  0  0  0  0
 20 17  1  0  0  0  0
 21 23  1  0  0  0  0
 22 21  1  0  0  0  0
 23 25  2  0  0  0  0
 23 24  1  0  0  0  0
 25 26  1  0  0  0  0
 27 28  1  0  0  0  0
 27  3  1  0  0  0  0
 29 27  1  0  0  0  0
 30 27  1  0  0  0  0
 31 34  1  0  0  0  0
 32 31  1  0  0  0  0
 33 31  1  0  0  0  0
M  END
