2
q = -1.0

 39 39  0  0  1  0  0  0  0  0999 V2000
    4.5886    0.4297   -0.0447 N   0  0  0  0  0  0  0  0  0  0  0  0
    0.2345    1.2733   -0.2440 C   0  0  2  0  0  3  0  0  0  0  0  0
   -0.4830    2.2159   -1.1255 C   0  0  0  0  0  0  0  0  0  0  0  0
   -1.1255    3.1637   -0.3284 C   0  0  0  0  0  0  0  0  0  0  0  0
   -0.8285    2.8830    1.0672 C   0  0  0  0  0  0  0  0  0  0  0  0
    0.0015    1.7641    1.1372 C   0  0  0  0  0  0  0  0  0  0  0  0
    1.6295    0.7937   -0.6403 C   0  0  0  0  0  0  0  0  0  0  0  0
    1.6062    0.2972   -1.6336 H   0  0  0  0  0  0  0  0  0  0  0  0
    1.9773    0.0128    0.0603 H   0  0  0  0  0  0  0  0  0  0  0  0
   -0.4246    2.1604   -2.6247 C   0  0  0  0  0  0  0  0  0  0  0  0
   -1.2406    2.7427   -3.0990 H   0  0  0  0  0  0  0  0  0  0  0  0
   -0.4945    1.1198   -3.0073 H   0  0  0  0  0  0  0  0  0  0  0  0
    0.5321    2.5712   -3.0207 H   0  0  0  0  0  0  0  0  0  0  0  0
   -2.0195    4.2845   -0.7743 C   0  0  0  0  0  0  0  0  0  0  0  0
   -2.1358    4.3137   -1.8758 H   0  0  0  0  0  0  0  0  0  0  0  0
   -1.6236    5.2753   -0.4619 H   0  0  0  0  0  0  0  0  0  0  0  0
   -3.0400    4.2129   -0.3338 H   0  0  0  0  0  0  0  0  0  0  0  0
   -1.3684    3.6879    2.2137 C   0  0  0  0  0  0  0  0  0  0  0  0
   -1.0738    3.2622    3.1930 H   0  0  0  0  0  0  0  0  0  0  0  0
   -2.4801    3.7559    2.2012 H   0  0  0  0  0  0  0  0  0  0  0  0
   -1.0013    4.7375    2.1891 H   0  0  0  0  0  0  0  0  0  0  0  0
    0.6646    1.1967    2.3594 C   0  0  0  0  0  0  0  0  0  0  0  0
    1.6235    1.7151    2.5900 H   0  0  0  0  0  0  0  0  0  0  0  0
    0.9029    0.1225    2.2314 H   0  0  0  0  0  0  0  0  0  0  0  0
    0.0308    1.2932    3.2651 H   0  0  0  0  0  0  0  0  0  0  0  0
    2.6652    1.9264   -0.6671 C   0  0  0  0  0  0  0  0  0  0  0  0
    2.3882    2.6829   -1.4318 H   0  0  0  0  0  0  0  0  0  0  0  0
    2.6417    2.4731    0.2999 H   0  0  0  0  0  0  0  0  0  0  0  0
    4.0812    1.4346   -0.9776 C   0  0  0  0  0  0  0  0  0  0  0  0
    4.0806    0.9673   -1.9867 H   0  0  0  0  0  0  0  0  0  0  0  0
    4.7800    2.3152   -1.0409 H   0  0  0  0  0  0  0  0  0  0  0  0
    4.7607    0.9362    1.3040 C   0  0  0  0  0  0  0  0  0  0  0  0
    5.1084    0.1210    1.9703 H   0  0  0  0  0  0  0  0  0  0  0  0
    3.7991    1.3073    1.7090 H   0  0  0  0  0  0  0  0  0  0  0  0
    5.5076    1.7743    1.3680 H   0  0  0  0  0  0  0  0  0  0  0  0
    5.7954   -0.2056   -0.5372 C   0  0  0  0  0  0  0  0  0  0  0  0
    5.6080   -0.6584   -1.5324 H   0  0  0  0  0  0  0  0  0  0  0  0
    6.1070   -1.0167    0.1525 H   0  0  0  0  0  0  0  0  0  0  0  0
    6.6615    0.5037   -0.6423 H   0  0  0  0  0  0  0  0  0  0  0  0
  1 32  1  0  0  0  0
  2  7  1  6  0  0  0
  2  6  1  0  0  0  0
  3  4  2  0  0  0  0
  3  2  1  0  0  0  0
  4  5  1  0  0  0  0
  5  6  2  0  0  0  0
  5 18  1  0  0  0  0
  6 22  1  0  0  0  0
  7  9  1  0  0  0  0
  8  7  1  0  0  0  0
 10  3  1  0  0  0  0
 11 10  1  0  0  0  0
 12 10  1  0  0  0  0
 13 10  1  0  0  0  0
 14 16  1  0  0  0  0
 14 17  1  0  0  0  0
 14  4  1  0  0  0  0
 15 14  1  0  0  0  0
 18 19  1  0  0  0  0
 20 18  1  0  0  0  0
 21 18  1  0  0  0  0
 22 23  1  0  0  0  0
 22 25  1  0  0  0  0
 24 22  1  0  0  0  0
 26  7  1  0  0  0  0
 26 28  1  0  0  0  0
 27 26  1  0  0  0  0
 29 26  1  0  0  0  0
 29  1  1  0  0  0  0
 30 29  1  0  0  0  0
 31 29  1  0  0  0  0
 32 35  1  0  0  0  0
 32 34  1  0  0  0  0
 32 33  1  0  0  0  0
 36  1  1  0  0  0  0
 36 38  1  0  0  0  0
 37 36  1  0  0  0  0
 39 36  1  0  0  0  0
M  END
