2
q = -1.0

 32 33  0  0  0  0  0  0  0  0999 V2000
    2.3072   -0.3495   -1.1744 P   0  0  0  0  0  0  0  0  0  0  0  0
   -1.5130   -1.1462    0.4488 C   0  0  0  0  0  3  0  0  0  0  0  0
   -1.2449   -1.1299    1.5256 H   0  0  0  0  0  0  0  0  0  0  0  0
   -1.6265   -2.2144    0.1658 H   0  0  0  0  0  0  0  0  0  0  0  0
   -0.4002   -0.4793   -0.3542 C   0  0  0  0  0  0  0  0  0  0  0  0
   -0.6276   -0.4914   -1.4428 H   0  0  0  0  0  0  0  0  0  0  0  0
   -0.3213    0.5942   -0.0804 H   0  0  0  0  0  0  0  0  0  0  0  0
    0.9658   -1.1450   -0.1272 C   0  0  0  0  0  0  0  0  0  0  0  0
    0.9190   -2.2179   -0.4150 H   0  0  0  0  0  0  0  0  0  0  0  0
    1.2479   -1.1013    0.9475 H   0  0  0  0  0  0  0  0  0  0  0  0
    2.2939    1.3456   -0.4169 C   0  0  0  0  0  0  0  0  0  0  0  0
    2.7406    1.6057    0.8963 C   0  0  0  0  0  0  0  0  0  0  0  0
    3.1768    0.7902    1.4945 H   0  0  0  0  0  0  0  0  0  0  0  0
    2.6367    2.8939    1.4395 C   0  0  0  0  0  0  0  0  0  0  0  0
    2.9869    3.0849    2.4658 H   0  0  0  0  0  0  0  0  0  0  0  0
    2.0840    3.9392    0.6797 C   0  0  0  0  0  0  0  0  0  0  0  0
    2.0010    4.9491    1.1095 H   0  0  0  0  0  0  0  0  0  0  0  0
    1.6413    3.6924   -0.6285 C   0  0  0  0  0  0  0  0  0  0  0  0
    1.2118    4.5087   -1.2294 H   0  0  0  0  0  0  0  0  0  0  0  0
    1.7511    2.4033   -1.1748 C   0  0  0  0  0  0  0  0  0  0  0  0
    1.4108    2.2071   -2.2043 H   0  0  0  0  0  0  0  0  0  0  0  0
    3.8436   -1.0451   -0.4179 C   0  0  0  0  0  0  0  0  0  0  0  0
    3.8718   -2.2459    0.3221 C   0  0  0  0  0  0  0  0  0  0  0  0
    2.9392   -2.7882    0.5365 H   0  0  0  0  0  0  0  0  0  0  0  0
    5.0869   -2.7648    0.8001 C   0  0  0  0  0  0  0  0  0  0  0  0
    5.0872   -3.7022    1.3778 H   0  0  0  0  0  0  0  0  0  0  0  0
    6.2918   -2.0919    0.5519 C   0  0  0  0  0  0  0  0  0  0  0  0
    7.2421   -2.4975    0.9310 H   0  0  0  0  0  0  0  0  0  0  0  0
    6.2764   -0.8955   -0.1858 C   0  0  0  0  0  0  0  0  0  0  0  0
    7.2164   -0.3585   -0.3864 H   0  0  0  0  0  0  0  0  0  0  0  0
    5.0671   -0.3827   -0.6719 C   0  0  0  0  0  0  0  0  0  0  0  0
    5.0661    0.5547   -1.2509 H   0  0  0  0  0  0  0  0  0  0  0  0
  1 22  1  0  0  0  0
  1 11  1  0  0  0  0
  1  8  1  0  0  0  0
  2  3  1  0  0  0  0
  4  2  1  0  0  0  0
  5  8  1  0  0  0  0
  5  7  1  0  0  0  0
  5  2  1  0  0  0  0
  6  5  1  0  0  0  0
  8 10  1  0  0  0  0
  9  8  1  0  0  0  0
 11 12  1  0  0  0  0
 12 14  2  0  0  0  0
 12 13  1  0  0  0  0
 14 15  1  0  0  0  0
 16 17  1  0  0  0  0
 16 14  1  0  0  0  0
 18 16  2  0  0  0  0
 19 18  1  0  0  0  0
 20 18  1  0  0  0  0
 20 11  2  0  0  0  0
 21 20  1  0  0  0  0
 22 23  1  0  0  0  0
 23 24  1  0  0  0  0
 23 25  2  0  0  0  0
 25 26  1  0  0  0  0
 27 25  1  0  0  0  0
 27 28  1  0  0  0  0
 29 27  2  0  0  0  0
 30 29  1  0  0  0  0
 31 22  2  0  0  0  0
 31 29  1  0  0  0  0
 32 31  1  0  0  0  0
M  END
