6
q = -1.0, confidence = 0.002

 33 34  0  0  1  0  0  0  0  0999 V2000
    1.3240   -1.1786    0.6384 O   0  0  0  0  0  0  0  0  0  0  0  0
    1.7602    2.3895   -1.5856 O   0  0  0  0  0  0  0  0  0  0  0  0
    3.4588    2.6977   -0.1094 O   0  0  0  0  0  0  0  0  0  0  0  0
    2.2014    0.8600    0.1635 N   0  0  0  0  0  0  0  0  0  0  0  0
   -0.5752   -0.4804   -1.7276 C   0  0  0  0  0  3  0  0  0  0  0  0
   -0.0550    0.3358   -0.6614 C   0  0  1  0  0  3  0  0  0  0  0  0
   -0.8078    1.5377   -0.4143 C   0  0  0  0  0  3  0  0  0  0  0  0
   -0.5635    2.4464    0.7070 C   0  0  0  0  0  0  0  0  0  0  0  0
   -0.9121    3.7518    0.7234 C   0  0  0  0  0  0  0  0  0  0  0  0
    1.1724   -0.0906    0.0956 C   0  0  0  0  0  0  0  0  0  0  0  0
    2.3815    2.0254   -0.6201 C   0  0  0  0  0  0  0  0  0  0  0  0
    3.9070    2.0593    1.1000 C   0  0  0  0  0  0  0  0  0  0  0  0
    3.3923    0.6121    0.9969 C   0  0  2  0  0  0  0  0  0  0  0  0
    4.3634   -0.3731    0.3630 C   0  0  0  0  0  0  0  0  0  0  0  0
    5.1945    0.0116   -0.7095 C   0  0  0  0  0  0  0  0  0  0  0  0
    6.0716   -0.9134   -1.2943 C   0  0  0  0  0  0  0  0  0  0  0  0
    6.1292   -2.2315   -0.8143 C   0  0  0  0  0  0  0  0  0  0  0  0
    5.3019   -2.6214    0.2502 C   0  0  0  0  0  0  0  0  0  0  0  0
    4.4214   -1.6981    0.8326 C   0  0  0  0  0  0  0  0  0  0  0  0
   -0.0693   -1.4319   -1.9501 H   0  0  0  0  0  0  0  0  0  0  0  0
   -0.9726    0.0518   -2.6093 H   0  0  0  0  0  0  0  0  0  0  0  0
   -1.2387    2.0141   -1.3131 H   0  0  0  0  0  0  0  0  0  0  0  0
   -0.0710    2.0140    1.5954 H   0  0  0  0  0  0  0  0  0  0  0  0
   -1.4039    4.2226   -0.1438 H   0  0  0  0  0  0  0  0  0  0  0  0
   -0.7140    4.3889    1.5980 H   0  0  0  0  0  0  0  0  0  0  0  0
    3.4644    2.5893    1.9703 H   0  0  0  0  0  0  0  0  0  0  0  0
    5.0092    2.1272    1.1462 H   0  0  0  0  0  0  0  0  0  0  0  0
    3.0609    0.2183    1.9768 H   0  0  0  0  0  0  0  0  0  0  0  0
    5.1568    1.0416   -1.0973 H   0  0  0  0  0  0  0  0  0  0  0  0
    6.7152   -0.6010   -2.1307 H   0  0  0  0  0  0  0  0  0  0  0  0
    6.8188   -2.9564   -1.2730 H   0  0  0  0  0  0  0  0  0  0  0  0
    5.3367   -3.6547    0.6273 H   0  0  0  0  0  0  0  0  0  0  0  0
    3.7503   -2.0082    1.6470 H   0  0  0  0  0  0  0  0  0  0  0  0
  2 11  2  0  0  0  0
  3 12  1  0  0  0  0
  4 13  1  0  0  0  0
  6  5  1  1  0  0  0
  6  7  1  0  0  0  0
  6 10  1  0  0  0  0
  7  8  1  0  0  0  0
  8  9  2  0  0  0  0
  8 23  1  0  0  0  0
  9 25  1  0  0  0  0
 10  4  1  0  0  0  0
 10  1  2  0  0  0  0
 11  3  1  0  0  0  0
 11  4  1  0  0  0  0
 12 27  1  0  0  0  0
 12 26  1  0  0  0  0
 13 12  1  0  0  0  0
 13 28  1  1  0  0  0
 14 19  1  0  0  0  0
 14 13  1  0  0  0  0
 15 14  2  0  0  0  0
 16 17  2  0  0  0  0
 16 15  1  0  0  0  0
 17 18  1  0  0  0  0
 18 32  1  0  0  0  0
 18 19  2  0  0  0  0
 19 33  1  0  0  0  0
 20  5  1  0  0  0  0
 21  5  1  0  0  0  0
 22  7  1  0  0  0  0
 24  9  1  0  0  0  0
 29 15  1  0  0  0  0
 30 16  1  0  0  0  0
 31 17  1  0  0  0  0
M  END
