18
q = -1.0

 36 37  0  0  0  0  0  0  0  0999 V2000
   -0.1630    1.1399   -0.1261 C   0  0  0  0  0  0  0  0  0  0  0  0
    0.1594    2.5942   -0.0848 C   0  0  0  0  0  0  0  0  0  0  0  0
    1.4524    3.0741    0.2229 C   0  0  0  0  0  0  0  0  0  0  0  0
    2.2593    2.3532    0.4028 H   0  0  0  0  0  0  0  0  0  0  0  0
    1.7130    4.4502    0.2870 C   0  0  0  0  0  0  0  0  0  0  0  0
    2.7280    4.7994    0.5317 H   0  0  0  0  0  0  0  0  0  0  0  0
    0.6894    5.3768    0.0408 C   0  0  0  0  0  0  0  0  0  0  0  0
    0.8908    6.4578    0.0903 H   0  0  0  0  0  0  0  0  0  0  0  0
   -0.5991    4.9131   -0.2662 C   0  0  0  0  0  0  0  0  0  0  0  0
   -1.4129    5.6305   -0.4597 H   0  0  0  0  0  0  0  0  0  0  0  0
   -0.8728    3.5385   -0.3309 C   0  0  0  0  0  0  0  0  0  0  0  0
   -2.2368    3.0030   -0.6734 C   0  0  0  0  0  0  0  0  0  0  0  0
   -2.2617    2.7216   -1.7526 H   0  0  0  0  0  0  0  0  0  0  0  0
   -3.0162    3.7787   -0.5307 H   0  0  0  0  0  0  0  0  0  0  0  0
   -2.5493    1.7563    0.1591 C   0  0  0  0  0  0  0  0  0  0  0  0
   -3.5329    1.3410   -0.1355 H   0  0  0  0  0  0  0  0  0  0  0  0
   -2.6550    2.0323    1.2366 H   0  0  0  0  0  0  0  0  0  0  0  0
   -1.4699    0.7034    0.0551 C   0  0  0  0  0  2  0  0  0  0  0  0
    0.8639    0.1407   -0.3821 C   0  0  0  0  0  0  0  0  0  0  0  0
    0.4946   -0.9033   -0.3644 H   0  0  0  0  0  0  0  0  0  0  0  0
    2.1150    0.3394   -0.6695 N   0  0  0  0  0  2  0  0  0  0  0  0
    2.9295   -1.1605   -1.0967 S   0  0  2  0  0  0  0  0  0  0  0  0
    2.0093   -2.3639   -0.8640 O   0  0  0  0  0  0  0  0  0  0  0  0
    4.1464   -1.1688    0.3821 C   0  0  0  0  0  0  0  0  0  0  0  0
    4.9257   -2.4725    0.1839 C   0  0  0  0  0  0  0  0  0  0  0  0
    5.4878   -2.4716   -0.7728 H   0  0  0  0  0  0  0  0  0  0  0  0
    4.2408   -3.3430    0.1878 H   0  0  0  0  0  0  0  0  0  0  0  0
    5.6574   -2.5967    1.0089 H   0  0  0  0  0  0  0  0  0  0  0  0
    3.3251   -1.1949    1.6649 C   0  0  0  0  0  0  0  0  0  0  0  0
    2.8239   -0.2259    1.8520 H   0  0  0  0  0  0  0  0  0  0  0  0
    3.9865   -1.4149    2.5287 H   0  0  0  0  0  0  0  0  0  0  0  0
    2.5503   -1.9860    1.6123 H   0  0  0  0  0  0  0  0  0  0  0  0
    5.0361    0.0642    0.2447 C   0  0  0  0  0  0  0  0  0  0  0  0
    5.5421    0.0937   -0.7425 H   0  0  0  0  0  0  0  0  0  0  0  0
    5.8253    0.0385    1.0256 H   0  0  0  0  0  0  0  0  0  0  0  0
    4.4543    0.9977    0.3649 H   0  0  0  0  0  0  0  0  0  0  0  0
  1  2  1  0  0  0  0
  1 18  1  0  0  0  0
  2  3  1  0  0  0  0
  3  5  2  0  0  0  0
  3  4  1  0  0  0  0
  5  6  1  0  0  0  0
  7  8  1  0  0  0  0
  7  5  1  0  0  0  0
  9  7  2  0  0  0  0
 10  9  1  0  0  0  0
 11  9  1  0  0  0  0
 11  2  2  0  0  0  0
 12 14  1  0  0  0  0
 12 11  1  0  0  0  0
 12 15  1  0  0  0  0
 13 12  1  0  0  0  0
 15 17  1  0  0  0  0
 16 15  1  0  0  0  0
 18 15  1  0  0  0  0
 19 20  1  0  0  0  0
 19  1  2  0  0  0  0
 21 19  1  0  0  0  0
 22 23  2  1  0  0  0
 22 21  1  0  0  0  0
 22 24  1  0  0  0  0
 24 29  1  0  0  0  0
 25 27  1  0  0  0  0
 25 24  1  0  0  0  0
 25 28  1  0  0  0  0
 26 25  1  0  0  0  0
 29 30  1  0  0  0  0
 29 31  1  0  0  0  0
 32 29  1  0  0  0  0
 33 36  1  0  0  0  0
 33 24  1  0  0  0  0
 33 35  1  0  0  0  0
 34 33  1  0  0  0  0
M  END
