1
q = -1.0, confidence = 0.0

 18 18  0  0  0  0  0  0  0  0999 V2000
    1.2560   -0.0633   -0.1038 C   0  0  0  0  0  0  0  0  0  0  0  0
    0.6314   -1.3190   -0.1652 C   0  0  0  0  0  0  0  0  0  0  0  0
   -0.7289   -1.4751   -0.4746 C   0  0  0  0  0  0  0  0  0  0  0  0
   -1.5085   -0.3428   -0.7736 C   0  0  0  0  0  0  0  0  0  0  0  0
   -0.9088    0.9294   -0.7366 C   0  0  0  0  0  0  0  0  0  0  0  0
    0.4571    1.0432   -0.4329 C   0  0  0  0  0  0  0  0  0  0  0  0
    1.3321   -2.4489    0.0796 F   0  0  0  0  0  0  0  0  0  0  0  0
   -1.2866   -2.6885   -0.5170 F   0  0  0  0  0  0  0  0  0  0  0  0
   -1.6361    2.0148   -1.0278 F   0  0  0  0  0  0  0  0  0  0  0  0
    0.9826    2.2893   -0.4591 F   0  0  0  0  0  0  0  0  0  0  0  0
   -2.8300   -0.4775   -1.1434 O   0  0  0  0  0  0  0  0  0  0  0  0
   -3.9572   -0.8300    0.0894 S   0  0  0  0  0  0  0  0  0  0  0  0
   -5.0280   -1.5731   -0.5683 O   0  0  0  0  0  0  0  0  0  0  0  0
   -3.2520   -1.2529    1.3030 O   0  0  0  0  0  0  0  0  0  0  0  0
   -4.5896    0.9363    0.3936 C   0  0  0  0  0  0  0  0  0  0  0  0
   -5.6365    0.8577    1.2187 F   0  0  0  0  0  0  0  0  0  0  0  0
   -4.9596    1.4891   -0.7579 F   0  0  0  0  0  0  0  0  0  0  0  0
   -3.6201    1.6545    0.9618 F   0  0  0  0  0  0  0  0  0  0  0  0
  2  1  1  0  0  0  0
  2  7  1  0  0  0  0
  3  2  2  0  0  0  0
  4  5  2  0  0  0  0
  4  3  1  0  0  0  0
  5  6  1  0  0  0  0
  6  1  2  0  0  0  0
  8  3  1  0  0  0  0
  9  5  1  0  0  0  0
 10  6  1  0  0  0  0
 11  4  1  0  0  0  0
 11 12  1  0  0  0  0
 12 15  1  0  0  0  0
 12 14  1  0  0  0  0
 13 12  1  0  0  0  0
 15 18  1  0  0  0  0
 15 16  1  0  0  0  0
 17 15  1  0  0  0  0
M  END
