7
q = 0.0, confidence = 0.988

 31 32  0  0  0  0  0  0  0  0999 V2000
    1.1172    0.3417   -0.6566 P   0  0  0  0  0  0  0  0  0  0  0  0
    0.8743    0.2983   -2.4782 C   0  0  0  0  0  0  0  0  0  0  0  0
    1.4256    1.0611   -3.0612 H   0  0  0  0  0  0  0  0  0  0  0  0
    1.1106   -0.7129   -2.8602 H   0  0  0  0  0  0  0  0  0  0  0  0
   -0.6390    0.5180   -2.3624 C   0  0  0  0  0  3  0  0  0  0  0  0
   -0.9968    1.5511   -2.5135 H   0  0  0  0  0  0  0  0  0  0  0  0
   -1.5669   -0.5496   -2.4193 C   0  0  0  0  0  3  0  0  0  0  0  0
   -1.2223   -1.5431   -2.7408 H   0  0  0  0  0  0  0  0  0  0  0  0
   -2.6225   -0.3294   -2.6364 H   0  0  0  0  0  0  0  0  0  0  0  0
    1.7735    2.0047   -0.2526 C   0  0  0  0  0  0  0  0  0  0  0  0
    2.6806    2.1768    0.8135 C   0  0  0  0  0  0  0  0  0  0  0  0
    3.0463    1.3046    1.3751 H   0  0  0  0  0  0  0  0  0  0  0  0
    3.1307    3.4610    1.1560 C   0  0  0  0  0  0  0  0  0  0  0  0
    3.8413    3.5839    1.9869 H   0  0  0  0  0  0  0  0  0  0  0  0
    2.6842    4.5819    0.4397 C   0  0  0  0  0  0  0  0  0  0  0  0
    3.0408    5.5873    0.7084 H   0  0  0  0  0  0  0  0  0  0  0  0
    1.7895    4.4151   -0.6305 C   0  0  0  0  0  0  0  0  0  0  0  0
    1.4469    5.2885   -1.2055 H   0  0  0  0  0  0  0  0  0  0  0  0
    1.3334    3.1350   -0.9753 C   0  0  0  0  0  0  0  0  0  0  0  0
    0.6309    3.0252   -1.8140 H   0  0  0  0  0  0  0  0  0  0  0  0
    2.4248   -0.8064   -0.0919 C   0  0  0  0  0  0  0  0  0  0  0  0
    3.5118   -1.1407   -0.9215 C   0  0  0  0  0  0  0  0  0  0  0  0
    3.5939   -0.7107   -1.9316 H   0  0  0  0  0  0  0  0  0  0  0  0
    4.4951   -2.0296   -0.4596 C   0  0  0  0  0  0  0  0  0  0  0  0
    5.3409   -2.2945   -1.1116 H   0  0  0  0  0  0  0  0  0  0  0  0
    4.4041   -2.5759    0.8315 C   0  0  0  0  0  0  0  0  0  0  0  0
    5.1796   -3.2687    1.1907 H   0  0  0  0  0  0  0  0  0  0  0  0
    3.3254   -2.2359    1.6651 C   0  0  0  0  0  0  0  0  0  0  0  0
    3.2568   -2.6577    2.6791 H   0  0  0  0  0  0  0  0  0  0  0  0
    2.3333   -1.3579    1.2021 C   0  0  0  0  0  0  0  0  0  0  0  0
    1.4758   -1.0962    1.8422 H   0  0  0  0  0  0  0  0  0  0  0  0
  1 10  1  0  0  0  0
  1 21  1  0  0  0  0
  2  5  1  0  0  0  0
  2  1  1  0  0  0  0
  3  2  1  0  0  0  0
  4  2  1  0  0  0  0
  6  5  1  0  0  0  0
  7  5  1  0  0  0  0
  8  7  1  0  0  0  0
  9  7  1  0  0  0  0
 10 11  1  0  0  0  0
 11 13  2  0  0  0  0
 11 12  1  0  0  0  0
 13 14  1  0  0  0  0
 15 16  1  0  0  0  0
 15 13  1  0  0  0  0
 17 15  2  0  0  0  0
 18 17  1  0  0  0  0
 19 17  1  0  0  0  0
 19 10  2  0  0  0  0
 20 19  1  0  0  0  0
 21 30  1  0  0  0  0
 22 24  1  0  0  0  0
 22 21  2  0  0  0  0
 23 22  1  0  0  0  0
 24 26  2  0  0  0  0
 25 24  1  0  0  0  0
 26 27  1  0  0  0  0
 26 28  1  0  0  0  0
 28 29  1  0  0  0  0
 30 28  2  0  0  0  0
 30 31  1  0  0  0  0
M  END
