3
q = 0.0, confidence = 0.998

 33 34  0  0  0  0  0  0  0  0999 V2000
    0.6856   -3.0009    0.3406 S   0  0  0  0  0  0  0  0  0  0  0  0
    2.1795   -0.9894    0.0223 N   0  0  0  0  0  0  0  0  0  0  0  0
    0.8339   -1.2670    0.0794 C   0  0  0  0  0  2  0  0  0  0  0  0
    3.0720   -2.0727    0.1602 C   0  0  0  0  0  0  0  0  0  0  0  0
    2.4221   -3.2689    0.3234 C   0  0  0  0  0  0  0  0  0  0  0  0
    4.5448   -1.8170    0.1366 C   0  0  0  0  0  0  0  0  0  0  0  0
    5.1042   -2.7580    0.2866 H   0  0  0  0  0  0  0  0  0  0  0  0
    4.8406   -1.1051    0.9343 H   0  0  0  0  0  0  0  0  0  0  0  0
    4.8691   -1.3678   -0.8241 H   0  0  0  0  0  0  0  0  0  0  0  0
    2.9854   -4.6427    0.4965 C   0  0  0  0  0  0  0  0  0  0  0  0
    4.0919   -4.6201    0.4950 H   0  0  0  0  0  0  0  0  0  0  0  0
    2.6614   -5.3227   -0.3192 H   0  0  0  0  0  0  0  0  0  0  0  0
    2.6579   -5.1006    1.4534 H   0  0  0  0  0  0  0  0  0  0  0  0
    2.6767    0.3533   -0.1665 C   0  0  0  0  0  0  0  0  0  0  0  0
    3.0123    0.7731   -1.4727 C   0  0  0  0  0  0  0  0  0  0  0  0
    3.4913    2.0834   -1.6318 C   0  0  0  0  0  0  0  0  0  0  0  0
    3.7462    2.4322   -2.6454 H   0  0  0  0  0  0  0  0  0  0  0  0
    3.6366    2.9619   -0.5419 C   0  0  0  0  0  0  0  0  0  0  0  0
    3.3225    2.4888    0.7443 C   0  0  0  0  0  0  0  0  0  0  0  0
    3.4592    3.1524    1.6133 H   0  0  0  0  0  0  0  0  0  0  0  0
    2.8511    1.1808    0.9643 C   0  0  0  0  0  0  0  0  0  0  0  0
    2.8093   -0.1302   -2.6586 C   0  0  0  0  0  0  0  0  0  0  0  0
    1.7246   -0.1730   -2.8939 H   0  0  0  0  0  0  0  0  0  0  0  0
    3.1454   -1.1688   -2.4674 H   0  0  0  0  0  0  0  0  0  0  0  0
    3.3424    0.2547   -3.5484 H   0  0  0  0  0  0  0  0  0  0  0  0
    4.0993    4.3811   -0.7555 C   0  0  0  0  0  0  0  0  0  0  0  0
    4.8753    4.4439   -1.5445 H   0  0  0  0  0  0  0  0  0  0  0  0
    4.5107    4.8233    0.1728 H   0  0  0  0  0  0  0  0  0  0  0  0
    3.2542    5.0247   -1.0819 H   0  0  0  0  0  0  0  0  0  0  0  0
    2.5706    0.6777    2.3554 C   0  0  0  0  0  0  0  0  0  0  0  0
    1.4936    0.4495    2.5069 H   0  0  0  0  0  0  0  0  0  0  0  0
    2.8773    1.4236    3.1127 H   0  0  0  0  0  0  0  0  0  0  0  0
    3.1143   -0.2676    2.5636 H   0  0  0  0  0  0  0  0  0  0  0  0
  2  3  1  0  0  0  0
  2  4  1  0  0  0  0
  3  1  1  0  0  0  0
  4  5  2  0  0  0  0
  5  1  1  0  0  0  0
  5 10  1  0  0  0  0
  6  4  1  0  0  0  0
  6  7  1  0  0  0  0
  6  8  1  0  0  0  0
  9  6  1  0  0  0  0
 10 13  1  0  0  0  0
 11 10  1  0  0  0  0
 12 10  1  0  0  0  0
 14  2  1  0  0  0  0
 14 21  1  0  0  0  0
 15 14  2  0  0  0  0
 16 15  1  0  0  0  0
 16 18  2  0  0  0  0
 17 16  1  0  0  0  0
 18 19  1  0  0  0  0
 19 21  2  0  0  0  0
 19 20  1  0  0  0  0
 21 30  1  0  0  0  0
 22 24  1  0  0  0  0
 22 15  1  0  0  0  0
 23 22  1  0  0  0  0
 25 22  1  0  0  0  0
 26 18  1  0  0  0  0
 26 28  1  0  0  0  0
 27 26  1  0  0  0  0
 29 26  1  0  0  0  0
 30 31  1  0  0  0  0
 30 33  1  0  0  0  0
 30 32  1  0  0  0  0
M  END
