3
q = 0.0, confidence = 0.972

 21 21  0  0  0  0  0  0  0  0999 V2000
   -2.8830    0.0181    0.0004 P   0  0  0  0  0  4  0  0  0  0  0  0
   -0.2425   -0.4205    1.0124 C   0  0  0  0  0  3  0  0  0  0  0  0
    0.0882   -1.3941   -0.0131 C   0  0  0  0  0  3  0  0  0  0  0  0
   -0.2424   -0.4008   -1.0197 C   0  0  0  0  0  3  0  0  0  0  0  0
   -1.0678    0.4052    0.0043 C   0  0  0  0  0  0  0  0  0  0  0  0
   -3.6467    0.7282    1.4849 C   0  0  0  0  0  0  0  0  0  0  0  0
   -3.6466    0.7577   -1.4698 C   0  0  0  0  0  0  0  0  0  0  0  0
   -3.1616   -1.7720   -0.0175 C   0  0  0  0  0  0  0  0  0  0  0  0
   -0.3409   -0.5041    2.1052 H   0  0  0  0  0  0  0  0  0  0  0  0
    0.3594   -2.4568   -0.0234 H   0  0  0  0  0  0  0  0  0  0  0  0
   -0.3409   -0.4633   -2.1139 H   0  0  0  0  0  0  0  0  0  0  0  0
   -1.0026    1.5154    0.0150 H   0  0  0  0  0  0  0  0  0  0  0  0
   -3.4795    1.8232    1.5003 H   0  0  0  0  0  0  0  0  0  0  0  0
   -4.7359    0.5263    1.4918 H   0  0  0  0  0  0  0  0  0  0  0  0
   -3.1864    0.2792    2.3869 H   0  0  0  0  0  0  0  0  0  0  0  0
   -3.1864    0.3266   -2.3805 H   0  0  0  0  0  0  0  0  0  0  0  0
   -4.7359    0.5561   -1.4807 H   0  0  0  0  0  0  0  0  0  0  0  0
   -3.4792    1.8527   -1.4633 H   0  0  0  0  0  0  0  0  0  0  0  0
   -2.7017   -2.2297    0.8793 H   0  0  0  0  0  0  0  0  0  0  0  0
   -4.2500   -1.9785   -0.0195 H   0  0  0  0  0  0  0  0  0  0  0  0
   -2.7019   -2.2115   -0.9235 H   0  0  0  0  0  0  0  0  0  0  0  0
  1  5  1  0  0  0  0
  1  6  1  0  0  0  0
  2  9  1  0  0  0  0
  3  2  1  0  0  0  0
  4  3  1  0  0  0  0
  4  5  1  0  0  0  0
  5 12  1  0  0  0  0
  5  2  1  0  0  0  0
  6 14  1  0  0  0  0
  6 13  1  0  0  0  0
  6 15  1  0  0  0  0
  7 18  1  0  0  0  0
  7  1  1  0  0  0  0
  8  1  1  0  0  0  0
  8 19  1  0  0  0  0
 10  3  1  0  0  0  0
 11  4  1  0  0  0  0
 16  7  1  0  0  0  0
 17  7  1  0  0  0  0
 20  8  1  0  0  0  0
 21  8  1  0  0  0  0
M  END
