4
q = -1.0

 33 33  0  0  0  0  0  0  0  0999 V2000
    0.3454    3.1159   -1.7214 O   0  0  0  0  0  0  0  0  0  0  0  0
    2.4981    3.7638   -2.0768 O   0  0  0  0  0  0  0  0  0  0  0  0
    1.7140   -0.3997    0.1581 N   0  0  0  0  0  0  0  0  0  0  0  0
    0.7569   -1.3324    0.6328 C   0  0  0  0  0  2  0  0  0  0  0  0
    1.0959   -2.3397    1.4751 C   0  0  0  0  0  3  0  0  0  0  0  0
    3.1178   -0.6833    0.3294 C   0  0  0  0  0  0  0  0  0  0  0  0
    3.7655   -1.4615   -0.6574 C   0  0  0  0  0  0  0  0  0  0  0  0
    5.1349   -1.7355   -0.4764 C   0  0  0  0  0  0  0  0  0  0  0  0
    5.8276   -1.2473    0.6401 C   0  0  0  0  0  0  0  0  0  0  0  0
    5.1624   -0.4725    1.6001 C   0  0  0  0  0  0  0  0  0  0  0  0
    3.7928   -0.1775    1.4621 C   0  0  0  0  0  0  0  0  0  0  0  0
    3.0569    0.6438    2.4892 C   0  0  0  0  0  0  0  0  0  0  0  0
    3.0047   -1.9598   -1.8549 C   0  0  0  0  0  0  0  0  0  0  0  0
    1.3486    0.7507   -0.4880 C   0  0  0  0  0  0  0  0  0  0  0  0
    2.1702    1.7304   -0.9753 C   0  0  0  0  0  0  0  0  0  0  0  0
    1.5474    2.8925   -1.6060 C   0  0  0  0  0  0  0  0  0  0  0  0
    1.9794    4.9285   -2.7110 C   0  0  0  0  0  0  0  0  0  0  0  0
    2.1256   -2.4769    1.8467 H   0  0  0  0  0  0  0  0  0  0  0  0
    0.3418   -3.0809    1.7710 H   0  0  0  0  0  0  0  0  0  0  0  0
    5.6607   -2.3407   -1.2312 H   0  0  0  0  0  0  0  0  0  0  0  0
    6.8983   -1.4712    0.7626 H   0  0  0  0  0  0  0  0  0  0  0  0
    5.7083   -0.0866    2.4753 H   0  0  0  0  0  0  0  0  0  0  0  0
    3.7497    1.0357    3.2577 H   0  0  0  0  0  0  0  0  0  0  0  0
    2.2901    0.0268    3.0050 H   0  0  0  0  0  0  0  0  0  0  0  0
    2.5354    1.5027    2.0185 H   0  0  0  0  0  0  0  0  0  0  0  0
    3.6471   -2.5857   -2.5027 H   0  0  0  0  0  0  0  0  0  0  0  0
    2.6226   -1.1110   -2.4599 H   0  0  0  0  0  0  0  0  0  0  0  0
    2.1097   -2.5466   -1.5605 H   0  0  0  0  0  0  0  0  0  0  0  0
    0.2592    0.8766   -0.6139 H   0  0  0  0  0  0  0  0  0  0  0  0
    3.2658    1.6780   -0.9153 H   0  0  0  0  0  0  0  0  0  0  0  0
    2.8542    5.5241   -3.0312 H   0  0  0  0  0  0  0  0  0  0  0  0
    1.3473    5.5207   -2.0161 H   0  0  0  0  0  0  0  0  0  0  0  0
    1.3537    4.6659   -3.5896 H   0  0  0  0  0  0  0  0  0  0  0  0
  1 16  2  0  0  0  0
  2 16  1  0  0  0  0
  3  6  1  0  0  0  0
  3  4  1  0  0  0  0
  4  5  1  0  0  0  0
  5 19  1  0  0  0  0
  5 18  1  0  0  0  0
  6 11  1  0  0  0  0
  7  8  1  0  0  0  0
  7  6  2  0  0  0  0
  8  9  2  0  0  0  0
  9 21  1  0  0  0  0
  9 10  1  0  0  0  0
 10 22  1  0  0  0  0
 11 10  2  0  0  0  0
 11 12  1  0  0  0  0
 12 24  1  0  0  0  0
 12 23  1  0  0  0  0
 13 28  1  0  0  0  0
 13  7  1  0  0  0  0
 14  3  1  0  0  0  0
 15 30  1  0  0  0  0
 15 14  2  0  0  0  0
 16 15  1  0  0  0  0
 17  2  1  0  0  0  0
 17 32  1  0  0  0  0
 20  8  1  0  0  0  0
 25 12  1  0  0  0  0
 26 13  1  0  0  0  0
 27 13  1  0  0  0  0
 29 14  1  0  0  0  0
 31 17  1  0  0  0  0
 33 17  1  0  0  0  0
M  END
