1
q = 0.0, confidence = 0.998

 40 41  0  0  0  0  0  0  0  0999 V2000
    3.1148   -0.3458   -0.0180 C   0  0  0  0  0  1  0  0  0  0  0  0
    1.9523   -0.5659   -0.0816 N   0  0  0  0  0  2  0  0  0  0  0  0
    0.6010   -0.8069   -0.1607 C   0  0  0  0  0  0  0  0  0  0  0  0
    0.1104   -2.1160   -0.0258 C   0  0  0  0  0  0  0  0  0  0  0  0
    0.8074   -2.9467    0.1468 H   0  0  0  0  0  0  0  0  0  0  0  0
   -1.2714   -2.3427   -0.1127 C   0  0  0  0  0  0  0  0  0  0  0  0
   -1.6500   -3.3669   -0.0028 H   0  0  0  0  0  0  0  0  0  0  0  0
   -2.1649   -1.2816   -0.3337 C   0  0  0  0  0  0  0  0  0  0  0  0
   -1.6581    0.0538   -0.4633 C   0  0  0  0  0  0  0  0  0  0  0  0
   -0.2812    0.2816   -0.3787 C   0  0  0  0  0  0  0  0  0  0  0  0
    0.1360    1.2906   -0.4772 H   0  0  0  0  0  0  0  0  0  0  0  0
   -3.5052   -1.3987   -0.4361 O   0  0  0  0  0  0  0  0  0  0  0  0
   -4.1082   -2.6704   -0.2182 C   0  0  0  0  0  0  0  0  0  0  0  0
   -3.8398   -3.0547    0.7917 H   0  0  0  0  0  0  0  0  0  0  0  0
   -3.7615   -3.4043   -0.9813 H   0  0  0  0  0  0  0  0  0  0  0  0
   -5.6080   -2.4985   -0.3180 C   0  0  0  0  0  0  0  0  0  0  0  0
   -5.8430   -1.9920   -1.2844 H   0  0  0  0  0  0  0  0  0  0  0  0
   -6.0839   -3.5114   -0.3519 H   0  0  0  0  0  0  0  0  0  0  0  0
   -6.0572   -1.7612    0.7945 O   0  0  0  0  0  0  0  0  0  0  0  0
   -7.4107   -1.3392    0.7103 C   0  0  0  0  0  0  0  0  0  0  0  0
   -7.7229   -1.1020    1.7484 H   0  0  0  0  0  0  0  0  0  0  0  0
   -8.0632   -2.1691    0.3391 H   0  0  0  0  0  0  0  0  0  0  0  0
   -7.6326   -0.0966   -0.1550 C   0  0  0  0  0  0  0  0  0  0  0  0
   -7.2174   -0.2602   -1.1821 H   0  0  0  0  0  0  0  0  0  0  0  0
   -8.7294    0.0458   -0.2679 H   0  0  0  0  0  0  0  0  0  0  0  0
   -7.1317    1.0954    0.4015 O   0  0  0  0  0  0  0  0  0  0  0  0
   -5.7276    1.2862    0.3084 C   0  0  0  0  0  0  0  0  0  0  0  0
   -5.3486    0.9764   -0.6954 H   0  0  0  0  0  0  0  0  0  0  0  0
   -5.1647    0.6772    1.0501 H   0  0  0  0  0  0  0  0  0  0  0  0
   -5.4821    2.7765    0.5517 C   0  0  0  0  0  0  0  0  0  0  0  0
   -6.0289    3.3723   -0.2181 H   0  0  0  0  0  0  0  0  0  0  0  0
   -5.9124    3.0493    1.5371 H   0  0  0  0  0  0  0  0  0  0  0  0
   -4.1086    3.1142    0.6031 O   0  0  0  0  0  0  0  0  0  0  0  0
   -3.4475    3.2326   -0.6389 C   0  0  0  0  0  0  0  0  0  0  0  0
   -3.1416    4.2925   -0.8127 H   0  0  0  0  0  0  0  0  0  0  0  0
   -4.0991    2.9331   -1.4910 H   0  0  0  0  0  0  0  0  0  0  0  0
   -2.1938    2.3782   -0.6451 C   0  0  0  0  0  0  0  0  0  0  0  0
   -1.5662    2.6139   -1.5361 H   0  0  0  0  0  0  0  0  0  0  0  0
   -1.5994    2.5931    0.2712 H   0  0  0  0  0  0  0  0  0  0  0  0
   -2.5911    1.0100   -0.6609 O   0  0  0  0  0  0  0  0  0  0  0  0
  2  1  1  0  0  0  0
  3  2  1  0  0  0  0
  3  4  1  0  0  0  0
  4  5  1  0  0  0  0
  6  4  2  0  0  0  0
  6  7  1  0  0  0  0
  8  6  1  0  0  0  0
  9 10  1  0  0  0  0
  9  8  2  0  0  0  0
 10  3  2  0  0  0  0
 11 10  1  0  0  0  0
 12  8  1  0  0  0  0
 12 13  1  0  0  0  0
 13 14  1  0  0  0  0
 15 13  1  0  0  0  0
 16 13  1  0  0  0  0
 16 19  1  0  0  0  0
 17 16  1  0  0  0  0
 18 16  1  0  0  0  0
 20 19  1  0  0  0  0
 20 21  1  0  0  0  0
 22 20  1  0  0  0  0
 23 26  1  0  0  0  0
 23 20  1  0  0  0  0
 24 23  1  0  0  0  0
 25 23  1  0  0  0  0
 27 26  1  0  0  0  0
 27 30  1  0  0  0  0
 27 29  1  0  0  0  0
 28 27  1  0  0  0  0
 30 33  1  0  0  0  0
 30 32  1  0  0  0  0
 31 30  1  0  0  0  0
 34 33  1  0  0  0  0
 35 34  1  0  0  0  0
 36 34  1  0  0  0  0
 37 34  1  0  0  0  0
 37 39  1  0  0  0  0
 38 37  1  0  0  0  0
 40 37  1  0  0  0  0
 40  9  1  0  0  0  0
M  END
