3
q = -1.0

 27 26  0  0  0  0  0  0  0  0999 V2000
    3.1343    0.8132   -1.2864 P   0  0  2  0  0  0  0  0  0  0  0  0
    4.2620    0.1441   -0.1750 N   0  0  0  0  0  0  0  0  0  0  0  0
    1.5337    0.2310   -0.7330 C   0  0  0  0  0  1  0  0  0  0  0  0
    3.3597   -0.1935   -2.8416 C   0  0  0  0  0  0  0  0  0  0  0  0
    4.3443    0.0639   -3.2804 H   0  0  0  0  0  0  0  0  0  0  0  0
    2.5662    0.0848   -3.5640 H   0  0  0  0  0  0  0  0  0  0  0  0
    3.3130   -1.2854   -2.6577 H   0  0  0  0  0  0  0  0  0  0  0  0
    5.2306    1.0519    0.4690 C   0  0  0  0  0  0  0  0  0  0  0  0
    5.8535    0.4072    1.1252 H   0  0  0  0  0  0  0  0  0  0  0  0
    4.2929   -1.2898    0.1617 C   0  0  0  0  0  0  0  0  0  0  0  0
    3.4341   -1.7400   -0.3784 H   0  0  0  0  0  0  0  0  0  0  0  0
    6.1653    1.7051   -0.5593 C   0  0  0  0  0  0  0  0  0  0  0  0
    6.6900    0.9360   -1.1605 H   0  0  0  0  0  0  0  0  0  0  0  0
    6.9257    2.3448   -0.0657 H   0  0  0  0  0  0  0  0  0  0  0  0
    5.5825    2.3468   -1.2536 H   0  0  0  0  0  0  0  0  0  0  0  0
    4.0639   -1.5589    1.6556 C   0  0  0  0  0  0  0  0  0  0  0  0
    4.8993   -1.1721    2.2752 H   0  0  0  0  0  0  0  0  0  0  0  0
    3.9853   -2.6486    1.8421 H   0  0  0  0  0  0  0  0  0  0  0  0
    3.1283   -1.0831    2.0018 H   0  0  0  0  0  0  0  0  0  0  0  0
    4.5464    2.0956    1.3625 C   0  0  0  0  0  0  0  0  0  0  0  0
    3.9008    2.7595    0.7498 H   0  0  0  0  0  0  0  0  0  0  0  0
    5.2937    2.7315    1.8804 H   0  0  0  0  0  0  0  0  0  0  0  0
    3.9050    1.6100    2.1225 H   0  0  0  0  0  0  0  0  0  0  0  0
    5.5731   -1.9701   -0.3496 C   0  0  0  0  0  0  0  0  0  0  0  0
    5.6955   -1.8148   -1.4399 H   0  0  0  0  0  0  0  0  0  0  0  0
    5.5462   -3.0613   -0.1524 H   0  0  0  0  0  0  0  0  0  0  0  0
    6.4751   -1.5652    0.1554 H   0  0  0  0  0  0  0  0  0  0  0  0
  1  3  1  1  0  0  0
  1  2  1  0  0  0  0
  2 10  1  0  0  0  0
  2  8  1  0  0  0  0
  4  7  1  0  0  0  0
  4  1  1  0  0  0  0
  5  4  1  0  0  0  0
  6  4  1  0  0  0  0
  8  9  1  0  0  0  0
  8 20  1  0  0  0  0
 10 16  1  0  0  0  0
 11 10  1  0  0  0  0
 12 14  1  0  0  0  0
 12  8  1  0  0  0  0
 13 12  1  0  0  0  0
 15 12  1  0  0  0  0
 16 18  1  0  0  0  0
 16 19  1  0  0  0  0
 16 17  1  0  0  0  0
 20 22  1  0  0  0  0
 20 23  1  0  0  0  0
 21 20  1  0  0  0  0
 24 26  1  0  0  0  0
 24 27  1  0  0  0  0
 24 10  1  0  0  0  0
 25 24  1  0  0  0  0
M  END
