2
q = 0.0, confidence = 0.854

 16 15  0  0  0  0  0  0  0  0999 V2000
   -0.9327   -1.8149   -2.4948 O   0  0  0  0  0  0  0  0  0  0  0  0
   -0.8050   -1.1772   -1.4482 C   0  0  0  0  0  3  0  0  0  0  0  0
   -1.6038   -0.6829   -0.4962 N   0  0  0  0  0  2  0  0  0  0  0  0
   -3.3273   -0.8643   -0.1684 Si  0  0  0  0  0  0  0  0  0  0  0  0
   -4.1780   -0.8453   -1.8520 C   0  0  0  0  0  0  0  0  0  0  0  0
   -4.1013    0.1586   -2.3180 H   0  0  0  0  0  0  0  0  0  0  0  0
   -5.2511   -1.1172   -1.7814 H   0  0  0  0  0  0  0  0  0  0  0  0
   -3.6638   -1.5646   -2.5216 H   0  0  0  0  0  0  0  0  0  0  0  0
   -3.9289    0.5621    0.9139 C   0  0  0  0  0  0  0  0  0  0  0  0
   -3.3847    0.5925    1.8791 H   0  0  0  0  0  0  0  0  0  0  0  0
   -5.0101    0.4490    1.1370 H   0  0  0  0  0  0  0  0  0  0  0  0
   -3.7867    1.5361    0.4044 H   0  0  0  0  0  0  0  0  0  0  0  0
   -3.6288   -2.5038    0.7221 C   0  0  0  0  0  0  0  0  0  0  0  0
   -3.2592   -3.3504    0.1090 H   0  0  0  0  0  0  0  0  0  0  0  0
   -4.7101   -2.6621    0.9166 H   0  0  0  0  0  0  0  0  0  0  0  0
   -3.0963   -2.5371    1.6943 H   0  0  0  0  0  0  0  0  0  0  0  0
  1  2  2  0  0  0  0
  2  3  1  0  0  0  0
  3  4  1  0  0  0  0
  4 13  1  0  0  0  0
  4  9  1  0  0  0  0
  5  7  1  0  0  0  0
  5  4  1  0  0  0  0
  6  5  1  0  0  0  0
  8  5  1  0  0  0  0
  9 11  1  0  0  0  0
  9 10  1  0  0  0  0
 12  9  1  0  0  0  0
 13 15  1  0  0  0  0
 13 16  1  0  0  0  0
 14 13  1  0  0  0  0
M  END
