4
q = 0.0, confidence = 0.986

 37 39  0  0  0  0  0  0  0  0999 V2000
    6.2140   -0.7242    0.5812 Br  0  0  0  0  0  0  0  0  0  0  0  0
   -0.1344   -2.9751   -0.6564 N   0  0  0  0  0  0  0  0  0  0  0  0
    1.8406   -2.4090    0.0984 N   0  0  0  0  0  0  0  0  0  0  0  0
    0.6052   -1.9158   -0.2086 C   0  0  0  0  0  2  0  0  0  0  0  0
    0.6163   -4.1507   -0.6199 C   0  0  0  0  0  0  0  0  0  0  0  0
    0.3073   -5.4768   -0.9507 C   0  0  0  0  0  0  0  0  0  0  0  0
   -0.6960   -5.7635   -1.2951 H   0  0  0  0  0  0  0  0  0  0  0  0
    1.3331   -6.4231   -0.8073 C   0  0  0  0  0  0  0  0  0  0  0  0
    1.1313   -7.4757   -1.0543 H   0  0  0  0  0  0  0  0  0  0  0  0
    2.6181   -6.0543   -0.3495 C   0  0  0  0  0  0  0  0  0  0  0  0
    3.3964   -6.8255   -0.2530 H   0  0  0  0  0  0  0  0  0  0  0  0
    2.9257   -4.7279   -0.0113 C   0  0  0  0  0  0  0  0  0  0  0  0
    3.9273   -4.4449    0.3416 H   0  0  0  0  0  0  0  0  0  0  0  0
    1.9003   -3.7817   -0.1485 C   0  0  0  0  0  0  0  0  0  0  0  0
   -1.5053   -2.8783   -1.1373 C   0  0  0  0  0  0  0  0  0  0  0  0
   -1.5989   -3.5171   -2.0385 H   0  0  0  0  0  0  0  0  0  0  0  0
   -1.6295   -1.8286   -1.4814 H   0  0  0  0  0  0  0  0  0  0  0  0
   -2.5662   -3.2404   -0.1174 C   0  0  0  0  0  0  0  0  0  0  0  0
   -2.4126   -2.9192    1.2452 C   0  0  0  0  0  0  0  0  0  0  0  0
   -1.4873   -2.4408    1.6035 H   0  0  0  0  0  0  0  0  0  0  0  0
   -3.4483   -3.1856    2.1540 C   0  0  0  0  0  0  0  0  0  0  0  0
   -3.3133   -2.9239    3.2145 H   0  0  0  0  0  0  0  0  0  0  0  0
   -4.6467   -3.7725    1.7158 C   0  0  0  0  0  0  0  0  0  0  0  0
   -5.4570   -3.9795    2.4311 H   0  0  0  0  0  0  0  0  0  0  0  0
   -4.8032   -4.0992    0.3591 C   0  0  0  0  0  0  0  0  0  0  0  0
   -5.7359   -4.5646    0.0060 H   0  0  0  0  0  0  0  0  0  0  0  0
   -3.7666   -3.8377   -0.5496 C   0  0  0  0  0  0  0  0  0  0  0  0
   -3.8932   -4.0965   -1.6135 H   0  0  0  0  0  0  0  0  0  0  0  0
    2.9427   -1.5776    0.5740 C   0  0  0  0  0  0  0  0  0  0  0  0
    3.7233   -2.2444    0.9877 H   0  0  0  0  0  0  0  0  0  0  0  0
    2.5504   -0.9604    1.4090 H   0  0  0  0  0  0  0  0  0  0  0  0
    3.5179   -0.6919   -0.5333 C   0  0  0  0  0  0  0  0  0  0  0  0
    3.8857   -1.3181   -1.3729 H   0  0  0  0  0  0  0  0  0  0  0  0
    2.6973   -0.0593   -0.9429 H   0  0  0  0  0  0  0  0  0  0  0  0
    4.6078    0.2430   -0.0514 C   0  0  0  0  0  0  0  0  0  0  0  0
    4.2823    0.8619    0.8056 H   0  0  0  0  0  0  0  0  0  0  0  0
    4.9597    0.9152   -0.8537 H   0  0  0  0  0  0  0  0  0  0  0  0
  2  5  1  0  0  0  0
  2  4  1  0  0  0  0
  3 29  1  0  0  0  0
  4  3  1  0  0  0  0
  5 14  1  0  0  0  0
  6  8  1  0  0  0  0
  6  5  2  0  0  0  0
  7  6  1  0  0  0  0
  8 10  2  0  0  0  0
  9  8  1  0  0  0  0
 10 11  1  0  0  0  0
 10 12  1  0  0  0  0
 12 13  1  0  0  0  0
 14 12  2  0  0  0  0
 14  3  1  0  0  0  0
 15  2  1  0  0  0  0
 15 18  1  0  0  0  0
 16 15  1  0  0  0  0
 17 15  1  0  0  0  0
 18 19  1  0  0  0  0
 19 20  1  0  0  0  0
 19 21  2  0  0  0  0
 21 22  1  0  0  0  0
 23 21  1  0  0  0  0
 23 24  1  0  0  0  0
 25 23  2  0  0  0  0
 26 25  1  0  0  0  0
 27 18  2  0  0  0  0
 27 25  1  0  0  0  0
 28 27  1  0  0  0  0
 29 30  1  0  0  0  0
 29 31  1  0  0  0  0
 32 35  1  0  0  0  0
 32 29  1  0  0  0  0
 33 32  1  0  0  0  0
 34 32  1  0  0  0  0
 35  1  1  0  0  0  0
 35 36  1  0  0  0  0
 37 35  1  0  0  0  0
M  END
