1
q = -1.0

 20 19  0  0  0  0  0  0  0  0999 V2000
   -1.5152   -0.0284   -0.7267 C   0  0  0  0  0  3  0  0  0  0  0  0
   -2.4848   -0.0488    0.2207 C   0  0  0  0  0  0  0  0  0  0  0  0
   -2.1456   -0.0801    1.2712 H   0  0  0  0  0  0  0  0  0  0  0  0
   -4.0273   -0.0536    0.1169 C   0  0  0  0  0  0  0  0  0  0  0  0
   -4.5884   -0.1800    1.5489 C   0  0  0  0  0  0  0  0  0  0  0  0
   -5.6979   -0.1850    1.5472 H   0  0  0  0  0  0  0  0  0  0  0  0
   -4.2523    0.6643    2.1861 H   0  0  0  0  0  0  0  0  0  0  0  0
   -4.2460   -1.1205    2.0294 H   0  0  0  0  0  0  0  0  0  0  0  0
   -4.5630   -1.2469   -0.7059 C   0  0  0  0  0  0  0  0  0  0  0  0
   -4.1925   -1.2384   -1.7484 H   0  0  0  0  0  0  0  0  0  0  0  0
   -5.6730   -1.2231   -0.7424 H   0  0  0  0  0  0  0  0  0  0  0  0
   -4.2631   -2.2109   -0.2504 H   0  0  0  0  0  0  0  0  0  0  0  0
   -4.5601    1.2655   -0.4865 C   0  0  0  0  0  0  0  0  0  0  0  0
   -4.1797    1.4374   -1.5119 H   0  0  0  0  0  0  0  0  0  0  0  0
   -4.2612    2.1352    0.1337 H   0  0  0  0  0  0  0  0  0  0  0  0
   -5.6700    1.2546   -0.5336 H   0  0  0  0  0  0  0  0  0  0  0  0
   -1.8004   -0.0108   -2.2111 C   0  0  0  0  0  0  0  0  0  0  0  0
   -2.8731    0.1310   -2.4552 H   0  0  0  0  0  0  0  0  0  0  0  0
   -1.4643   -0.9571   -2.6868 H   0  0  0  0  0  0  0  0  0  0  0  0
   -1.2231    0.7822   -2.7269 H   0  0  0  0  0  0  0  0  0  0  0  0
  1  2  2  0  0  0  0
  2  3  1  0  0  0  0
  4  2  1  0  0  0  0
  4  5  1  0  0  0  0
  5  8  1  0  0  0  0
  5  7  1  0  0  0  0
  6  5  1  0  0  0  0
  9 12  1  0  0  0  0
  9  4  1  0  0  0  0
 10  9  1  0  0  0  0
 11  9  1  0  0  0  0
 13  4  1  0  0  0  0
 13 15  1  0  0  0  0
 14 13  1  0  0  0  0
 16 13  1  0  0  0  0
 17  1  1  0  0  0  0
 18 17  1  0  0  0  0
 19 17  1  0  0  0  0
 20 17  1  0  0  0  0
M  END
