17
q = 0.0, confidence = 0.998

 35 38  0  0  1  0  0  0  0  0999 V2000
   -3.2679    0.8831    0.9023 C   0  0  0  0  0  0  0  0  0  0  0  0
   -3.6619   -0.0944    1.2103 H   0  0  0  0  0  0  0  0  0  0  0  0
   -4.0209    2.0561    1.1202 C   0  0  0  0  0  0  0  0  0  0  0  0
   -5.0079    1.9801    1.5969 H   0  0  0  0  0  0  0  0  0  0  0  0
   -3.4982    3.2827    0.7267 C   0  0  0  0  0  0  0  0  0  0  0  0
   -4.0629    4.2150    0.8785 H   0  0  0  0  0  0  0  0  0  0  0  0
   -2.2121    3.3271    0.1322 C   0  0  0  0  0  0  0  0  0  0  0  0
   -1.5739    4.5429   -0.2887 C   0  0  0  0  0  0  0  0  0  0  0  0
   -2.1163    5.4919   -0.1617 H   0  0  0  0  0  0  0  0  0  0  0  0
   -0.3083    4.5309   -0.8302 C   0  0  0  0  0  0  0  0  0  0  0  0
    0.1743    5.4686   -1.1426 H   0  0  0  0  0  0  0  0  0  0  0  0
    0.4126    3.2994   -0.9805 C   0  0  0  0  0  0  0  0  0  0  0  0
    1.7412    3.2343   -1.4854 C   0  0  0  0  0  0  0  0  0  0  0  0
    2.2746    4.1407   -1.8024 H   0  0  0  0  0  0  0  0  0  0  0  0
    2.3675    2.0162   -1.5535 C   0  0  0  0  0  0  0  0  0  0  0  0
    3.4058    1.9064   -1.8947 H   0  0  0  0  0  0  0  0  0  0  0  0
    0.4729    0.8016   -0.6839 C   0  0  0  0  0  3  0  0  0  0  0  0
   -0.1930    2.0721   -0.5929 C   0  0  0  0  0  0  0  0  0  0  0  0
   -1.5170    2.0920   -0.0425 C   0  0  1  0  0  3  0  0  0  0  0  0
    2.6189   -0.3687   -1.3037 C   0  0  0  0  0  0  0  0  0  0  0  0
    2.8800   -0.4702   -2.3758 H   0  0  0  0  0  0  0  0  0  0  0  0
    1.9947   -1.2309   -1.0154 H   0  0  0  0  0  0  0  0  0  0  0  0
    3.8636   -0.2748   -0.4546 C   0  0  0  0  0  0  0  0  0  0  0  0
    3.7579   -0.1763    0.9486 C   0  0  0  0  0  0  0  0  0  0  0  0
    2.7657   -0.1642    1.4309 H   0  0  0  0  0  0  0  0  0  0  0  0
    4.9171   -0.0953    1.7316 C   0  0  0  0  0  0  0  0  0  0  0  0
    4.8291   -0.0209    2.8258 H   0  0  0  0  0  0  0  0  0  0  0  0
    6.1855   -0.1158    1.1264 C   0  0  0  0  0  0  0  0  0  0  0  0
    7.0926   -0.0547    1.7461 H   0  0  0  0  0  0  0  0  0  0  0  0
    6.2948   -0.2169   -0.2686 C   0  0  0  0  0  0  0  0  0  0  0  0
    7.2853   -0.2368   -0.7467 H   0  0  0  0  0  0  0  0  0  0  0  0
    5.1361   -0.2926   -1.0575 C   0  0  0  0  0  0  0  0  0  0  0  0
    5.2231   -0.3775   -2.1530 H   0  0  0  0  0  0  0  0  0  0  0  0
   -2.0612    0.8952    0.3262 N   0  0  0  0  0  0  0  0  0  0  0  0
    1.7494    0.8398   -1.1714 N   0  0  0  0  0  0  0  0  0  0  0  0
  1  3  1  0  0  0  0
  1  2  1  0  0  0  0
  3  4  1  0  0  0  0
  5  6  1  0  0  0  0
  5  3  2  0  0  0  0
  7  5  1  0  0  0  0
  8  9  1  0  0  0  0
  8  7  2  0  0  0  0
 10  8  1  0  0  0  0
 11 10  1  0  0  0  0
 12 10  2  0  0  0  0
 12 18  1  0  0  0  0
 13 12  1  0  0  0  0
 14 13  1  0  0  0  0
 15 13  2  0  0  0  0
 15 35  1  0  0  0  0
 16 15  1  0  0  0  0
 17 18  2  0  0  0  0
 19 18  1  1  0  0  0
 19  7  1  0  0  0  0
 19 34  1  0  0  0  0
 20 35  1  0  0  0  0
 20 22  1  0  0  0  0
 20 23  1  0  0  0  0
 21 20  1  0  0  0  0
 23 24  1  0  0  0  0
 24 25  1  0  0  0  0
 24 26  2  0  0  0  0
 26 27  1  0  0  0  0
 28 26  1  0  0  0  0
 28 29  1  0  0  0  0
 30 28  2  0  0  0  0
 31 30  1  0  0  0  0
 32 23  2  0  0  0  0
 32 30  1  0  0  0  0
 33 32  1  0  0  0  0
 34  1  2  0  0  0  0
 35 17  1  0  0  0  0
M  END
