17
q = 0.0, confidence = 0.968

 34 36  0  0  1  0  0  0  0  0999 V2000
   -1.2289    2.7654    0.6006 C   0  0  0  0  0  0  0  0  0  0  0  0
   -2.2987    2.6600    0.8285 H   0  0  0  0  0  0  0  0  0  0  0  0
   -0.5703    3.9980    0.8065 C   0  0  0  0  0  0  0  0  0  0  0  0
   -1.1422    4.8542    1.1901 H   0  0  0  0  0  0  0  0  0  0  0  0
    0.7866    4.1033    0.5229 C   0  0  0  0  0  0  0  0  0  0  0  0
    1.3262    5.0507    0.6722 H   0  0  0  0  0  0  0  0  0  0  0  0
    1.4788    2.9609    0.0460 C   0  0  0  0  0  0  0  0  0  0  0  0
    2.8803    2.9352   -0.2563 C   0  0  0  0  0  0  0  0  0  0  0  0
    3.4634    3.8603   -0.1353 H   0  0  0  0  0  0  0  0  0  0  0  0
    3.5099    1.7841   -0.6807 C   0  0  0  0  0  0  0  0  0  0  0  0
    4.5863    1.8102   -0.8890 H   0  0  0  0  0  0  0  0  0  0  0  0
    2.7684    0.5653   -0.8300 C   0  0  0  0  0  0  0  0  0  0  0  0
    2.6236   -1.7581   -1.3175 C   0  0  0  0  0  0  0  0  0  0  0  0
    3.1802   -2.6564   -1.6216 H   0  0  0  0  0  0  0  0  0  0  0  0
    1.2619   -1.8009   -1.0493 C   0  0  0  0  0  0  0  0  0  0  0  0
    0.7494   -2.7679   -1.1392 H   0  0  0  0  0  0  0  0  0  0  0  0
    0.5667   -0.6336   -0.6527 C   0  0  0  0  0  3  0  0  0  0  0  0
    1.3741    0.5497   -0.5620 C   0  0  0  0  0  0  0  0  0  0  0  0
    0.7360    1.7581   -0.1291 C   0  0  1  0  0  3  0  0  0  0  0  0
    4.8260   -0.7102   -1.4511 C   0  0  0  0  0  0  0  0  0  0  0  0
    5.1450    0.1862   -2.0175 H   0  0  0  0  0  0  0  0  0  0  0  0
    4.9918   -1.5753   -2.1217 H   0  0  0  0  0  0  0  0  0  0  0  0
    5.6250   -0.8727   -0.1559 C   0  0  0  0  0  0  0  0  0  0  0  0
    5.4057   -0.0253    0.5294 H   0  0  0  0  0  0  0  0  0  0  0  0
    5.2756   -1.7883    0.3691 H   0  0  0  0  0  0  0  0  0  0  0  0
    7.1331   -0.9574   -0.4148 C   0  0  0  0  0  0  0  0  0  0  0  0
    7.3389   -1.8009   -1.1102 H   0  0  0  0  0  0  0  0  0  0  0  0
    7.4655   -0.0394   -0.9487 H   0  0  0  0  0  0  0  0  0  0  0  0
    7.9450   -1.1335    0.8685 C   0  0  0  0  0  0  0  0  0  0  0  0
    7.7867   -0.2864    1.5672 H   0  0  0  0  0  0  0  0  0  0  0  0
    9.0294   -1.1903    0.6519 H   0  0  0  0  0  0  0  0  0  0  0  0
    7.6609   -2.0635    1.4020 H   0  0  0  0  0  0  0  0  0  0  0  0
   -0.6036    1.6797    0.1350 N   0  0  0  0  0  0  0  0  0  0  0  0
    3.3672   -0.6215   -1.2223 N   0  0  0  0  0  0  0  0  0  0  0  0
  1  3  1  0  0  0  0
  1  2  1  0  0  0  0
  3  4  1  0  0  0  0
  5  6  1  0  0  0  0
  5  3  2  0  0  0  0
  7  5  1  0  0  0  0
  8  9  1  0  0  0  0
  8  7  2  0  0  0  0
 10  8  1  0  0  0  0
 11 10  1  0  0  0  0
 12 10  2  0  0  0  0
 12 18  1  0  0  0  0
 13 34  1  0  0  0  0
 13 15  2  0  0  0  0
 14 13  1  0  0  0  0
 15 17  1  0  0  0  0
 16 15  1  0  0  0  0
 17 18  2  0  0  0  0
 19 18  1  1  0  0  0
 19  7  1  0  0  0  0
 19 33  1  0  0  0  0
 20 34  1  0  0  0  0
 20 23  1  0  0  0  0
 21 20  1  0  0  0  0
 22 20  1  0  0  0  0
 23 25  1  0  0  0  0
 23 24  1  0  0  0  0
 26 23  1  0  0  0  0
 26 29  1  0  0  0  0
 27 26  1  0  0  0  0
 28 26  1  0  0  0  0
 29 32  1  0  0  0  0
 29 30  1  0  0  0  0
 31 29  1  0  0  0  0
 33  1  2  0  0  0  0
 34 12  1  0  0  0  0
M  END
