3
q = 0.0, confidence = 1.0

 25 27  0  0  0  0  0  0  0  0999 V2000
   -1.5803   -0.8316    0.4656 N   0  0  0  0  0  0  0  0  0  0  0  0
   -2.9186   -0.5973    0.1396 N   0  0  0  0  0  0  0  0  0  0  0  0
   -0.7557    0.1033   -0.0419 C   0  0  0  0  0  3  0  0  0  0  0  0
   -1.6147    1.0774   -0.6627 C   0  0  0  0  0  0  0  0  0  0  0  0
   -1.3517    2.3014   -1.3109 C   0  0  0  0  0  3  0  0  0  0  0  0
   -0.3134    2.6478   -1.4110 H   0  0  0  0  0  0  0  0  0  0  0  0
   -2.4356    3.0425   -1.7820 C   0  0  0  0  0  0  0  0  0  0  0  0
   -2.2641    4.0037   -2.2880 H   0  0  0  0  0  0  0  0  0  0  0  0
   -3.7661    2.5811   -1.6059 C   0  0  0  0  0  0  0  0  0  0  0  0
   -4.5990    3.1947   -1.9817 H   0  0  0  0  0  0  0  0  0  0  0  0
   -4.0544    1.3726   -0.9648 C   0  0  0  0  0  0  0  0  0  0  0  0
   -5.0907    1.0323   -0.8300 H   0  0  0  0  0  0  0  0  0  0  0  0
   -2.9550    0.6189   -0.5106 C   0  0  0  0  0  0  0  0  0  0  0  0
   -3.9714   -1.1264    1.0023 C   0  0  0  0  0  0  0  0  0  0  0  0
   -4.9145   -1.0833    0.4230 H   0  0  0  0  0  0  0  0  0  0  0  0
   -4.0905   -0.4690    1.8958 H   0  0  0  0  0  0  0  0  0  0  0  0
   -3.6459   -2.5551    1.4328 C   0  0  0  0  0  0  0  0  0  0  0  0
   -3.7012   -3.2306    0.5525 H   0  0  0  0  0  0  0  0  0  0  0  0
   -4.4122   -2.8938    2.1581 H   0  0  0  0  0  0  0  0  0  0  0  0
   -2.2420   -2.6063    2.0421 C   0  0  0  0  0  0  0  0  0  0  0  0
   -1.9815   -3.6363    2.3560 H   0  0  0  0  0  0  0  0  0  0  0  0
   -2.2011   -1.9677    2.9509 H   0  0  0  0  0  0  0  0  0  0  0  0
   -1.2059   -2.1287    1.0283 C   0  0  0  0  0  0  0  0  0  0  0  0
   -0.2021   -1.9845    1.4699 H   0  0  0  0  0  0  0  0  0  0  0  0
   -1.0862   -2.8401    0.1823 H   0  0  0  0  0  0  0  0  0  0  0  0
  1 23  1  0  0  0  0
  2  1  1  0  0  0  0
  2 14  1  0  0  0  0
  3  1  1  0  0  0  0
  4 13  1  0  0  0  0
  4  3  2  0  0  0  0
  5  4  1  0  0  0  0
  6  5  1  0  0  0  0
  7  9  2  0  0  0  0
  7  5  1  0  0  0  0
  8  7  1  0  0  0  0
  9 11  1  0  0  0  0
 10  9  1  0  0  0  0
 11 12  1  0  0  0  0
 11 13  2  0  0  0  0
 13  2  1  0  0  0  0
 14 17  1  0  0  0  0
 14 16  1  0  0  0  0
 15 14  1  0  0  0  0
 17 20  1  0  0  0  0
 17 19  1  0  0  0  0
 18 17  1  0  0  0  0
 20 21  1  0  0  0  0
 20 22  1  0  0  0  0
 23 24  1  0  0  0  0
 23 20  1  0  0  0  0
 25 23  1  0  0  0  0
M  END
