4
q = -1.0

 21 21  0  0  0  0  0  0  0  0999 V2000
   -1.9628   -1.6444    0.0027 S   0  0  0  0  0  0  0  0  0  0  0  0
   -1.9982   -2.2145   -1.3725 O   0  0  0  0  0  0  0  0  0  0  0  0
   -2.2890   -2.4814    1.1852 O   0  0  0  0  0  0  0  0  0  0  0  0
    0.4303   -0.2239   -0.4902 C   0  0  0  0  0  3  0  0  0  0  0  0
   -0.3505   -0.9244    0.3643 C   0  0  0  0  0  0  0  0  0  0  0  0
    0.0383    0.0945   -1.9046 C   0  0  0  0  0  0  0  0  0  0  0  0
   -3.5573    0.3063   -1.1892 C   0  0  0  0  0  0  0  0  0  0  0  0
   -4.4298    1.4053   -1.1551 C   0  0  0  0  0  0  0  0  0  0  0  0
   -4.8309    1.9486    0.0763 C   0  0  0  0  0  0  0  0  0  0  0  0
   -4.3719    1.3891    1.2815 C   0  0  0  0  0  0  0  0  0  0  0  0
   -3.5031    0.2891    1.2604 C   0  0  0  0  0  0  0  0  0  0  0  0
   -3.0960   -0.2287    0.0212 C   0  0  0  0  0  0  0  0  0  0  0  0
   -0.1028   -1.1431    1.4140 H   0  0  0  0  0  0  0  0  0  0  0  0
    0.9089    0.0449   -2.5880 H   0  0  0  0  0  0  0  0  0  0  0  0
   -0.3402    1.1384   -1.9598 H   0  0  0  0  0  0  0  0  0  0  0  0
   -0.7492   -0.5904   -2.2762 H   0  0  0  0  0  0  0  0  0  0  0  0
   -3.2427   -0.1553   -2.1364 H   0  0  0  0  0  0  0  0  0  0  0  0
   -4.8046    1.8353   -2.0964 H   0  0  0  0  0  0  0  0  0  0  0  0
   -5.5144    2.8110    0.0982 H   0  0  0  0  0  0  0  0  0  0  0  0
   -4.7005    1.8080    2.2447 H   0  0  0  0  0  0  0  0  0  0  0  0
   -3.1476   -0.1820    2.1885 H   0  0  0  0  0  0  0  0  0  0  0  0
  1 12  1  0  0  0  0
  1  5  1  0  0  0  0
  1  3  2  0  0  0  0
  2  1  2  0  0  0  0
  4  5  2  0  0  0  0
  5 13  1  0  0  0  0
  6  4  1  0  0  0  0
  7  8  2  0  0  0  0
  7 12  1  0  0  0  0
  8  9  1  0  0  0  0
  9 19  1  0  0  0  0
  9 10  2  0  0  0  0
 10 20  1  0  0  0  0
 11 10  1  0  0  0  0
 11 21  1  0  0  0  0
 12 11  2  0  0  0  0
 14  6  1  0  0  0  0
 15  6  1  0  0  0  0
 16  6  1  0  0  0  0
 17  7  1  0  0  0  0
 18  8  1  0  0  0  0
M  END
