5
q = -1.0

 21 21  0  0  0  0  0  0  0  0999 V2000
    3.4362   -0.9558    0.9038 S   0  0  0  0  0  0  0  0  0  0  0  0
    3.0404   -0.2596    2.1607 O   0  0  0  0  0  0  0  0  0  0  0  0
    3.8637   -2.3790    0.9331 O   0  0  0  0  0  0  0  0  0  0  0  0
    0.5862   -2.1951    0.9863 C   0  0  0  0  0  0  0  0  0  0  0  0
    0.7589   -1.3385   -0.0467 C   0  0  0  0  0  3  0  0  0  0  0  0
    2.1015   -0.7341   -0.3561 C   0  0  0  0  0  0  0  0  0  0  0  0
    5.8239   -0.6798   -0.4777 C   0  0  0  0  0  0  0  0  0  0  0  0
    6.8672    0.0619   -1.0531 C   0  0  0  0  0  0  0  0  0  0  0  0
    6.8563    1.4646   -0.9809 C   0  0  0  0  0  0  0  0  0  0  0  0
    5.8088    2.1350   -0.3258 C   0  0  0  0  0  0  0  0  0  0  0  0
    4.7651    1.4053    0.2615 C   0  0  0  0  0  0  0  0  0  0  0  0
    4.7864    0.0052    0.1687 C   0  0  0  0  0  0  0  0  0  0  0  0
    1.4137   -2.4803    1.6588 H   0  0  0  0  0  0  0  0  0  0  0  0
   -0.3926   -2.6480    1.2063 H   0  0  0  0  0  0  0  0  0  0  0  0
    2.0494    0.3670   -0.4810 H   0  0  0  0  0  0  0  0  0  0  0  0
    2.5379   -1.1522   -1.2883 H   0  0  0  0  0  0  0  0  0  0  0  0
    5.8005   -1.7793   -0.5057 H   0  0  0  0  0  0  0  0  0  0  0  0
    7.6945   -0.4585   -1.5592 H   0  0  0  0  0  0  0  0  0  0  0  0
    7.6746    2.0426   -1.4367 H   0  0  0  0  0  0  0  0  0  0  0  0
    5.8084    3.2339   -0.2667 H   0  0  0  0  0  0  0  0  0  0  0  0
    3.9436    1.9093    0.7923 H   0  0  0  0  0  0  0  0  0  0  0  0
  1  3  2  0  0  0  0
  1  2  2  0  0  0  0
  4 14  1  0  0  0  0
  4 13  1  0  0  0  0
  5  4  2  0  0  0  0
  6  5  1  0  0  0  0
  6  1  1  0  0  0  0
  7 12  1  0  0  0  0
  8  9  1  0  0  0  0
  8  7  2  0  0  0  0
  9 10  2  0  0  0  0
 10 20  1  0  0  0  0
 10 11  1  0  0  0  0
 11 21  1  0  0  0  0
 12 11  2  0  0  0  0
 12  1  1  0  0  0  0
 15  6  1  0  0  0  0
 16  6  1  0  0  0  0
 17  7  1  0  0  0  0
 18  8  1  0  0  0  0
 19  9  1  0  0  0  0
M  END
