2
q = -1.0

 14 14  0  0  1  0  0  0  0  0999 V2000
   -0.2047    1.3587   -1.2843 C   0  0  0  0  0  3  0  0  0  0  0  0
   -0.8747    0.2384   -1.8775 C   0  0  0  0  0  3  0  0  0  0  0  0
   -2.1228   -0.0877   -1.2029 C   0  0  1  0  0  3  0  0  0  0  0  0
   -2.9193    1.0255   -0.6346 C   0  0  0  0  0  0  0  0  0  0  0  0
   -0.9174    2.4322   -0.5856 C   0  0  0  0  0  0  0  0  0  0  0  0
   -2.9771   -1.2466   -1.6702 C   0  0  0  0  0  0  0  0  0  0  0  0
   -0.4072    3.4592   -0.1683 O   0  0  0  0  0  0  0  0  0  0  0  0
   -2.2804    2.2455   -0.3693 O   0  0  0  0  0  0  0  0  0  0  0  0
   -4.0956    0.9478   -0.3351 O   0  0  0  0  0  0  0  0  0  0  0  0
    0.7812    1.6622   -1.6627 H   0  0  0  0  0  0  0  0  0  0  0  0
   -0.5426   -0.2453   -2.8075 H   0  0  0  0  0  0  0  0  0  0  0  0
   -2.3551   -2.0466   -2.1121 H   0  0  0  0  0  0  0  0  0  0  0  0
   -3.7197   -0.9125   -2.4259 H   0  0  0  0  0  0  0  0  0  0  0  0
   -3.5535   -1.6761   -0.8283 H   0  0  0  0  0  0  0  0  0  0  0  0
  1  5  1  0  0  0  0
  2  1  1  0  0  0  0
  2  3  1  0  0  0  0
  3  6  1  6  0  0  0
  3  4  1  0  0  0  0
  4  8  1  0  0  0  0
  4  9  2  0  0  0  0
  5  8  1  0  0  0  0
  5  7  2  0  0  0  0
  6 14  1  0  0  0  0
 10  1  1  0  0  0  0
 11  2  1  0  0  0  0
 12  6  1  0  0  0  0
 13  6  1  0  0  0  0
M  END
