3
q = 0.0, confidence = 0.948

 17 16  0  0  0  0  0  0  0  0999 V2000
   -1.1939    1.4872    1.6574 O   0  0  0  0  0  0  0  0  0  0  0  0
    0.0938    2.4313    0.1914 O   0  0  0  0  0  0  0  0  0  0  0  0
   -0.2008    1.2655    0.7891 C   0  0  0  0  0  2  0  0  0  0  0  0
   -1.8165    0.4609    2.4562 C   0  0  0  0  0  0  0  0  0  0  0  0
   -3.3106    0.7161    2.4748 C   0  0  0  0  0  0  0  0  0  0  0  0
   -0.7102    3.6123    0.4187 C   0  0  0  0  0  0  0  0  0  0  0  0
   -0.2065    4.6953   -0.5137 C   0  0  0  0  0  0  0  0  0  0  0  0
   -1.5888   -0.5285    2.0213 H   0  0  0  0  0  0  0  0  0  0  0  0
   -1.3700    0.5200    3.4707 H   0  0  0  0  0  0  0  0  0  0  0  0
   -3.8055   -0.0204    3.1386 H   0  0  0  0  0  0  0  0  0  0  0  0
   -3.5477    1.7333    2.8463 H   0  0  0  0  0  0  0  0  0  0  0  0
   -3.7355    0.5977    1.4578 H   0  0  0  0  0  0  0  0  0  0  0  0
   -0.6309    3.9110    1.4851 H   0  0  0  0  0  0  0  0  0  0  0  0
   -1.7749    3.3632    0.2289 H   0  0  0  0  0  0  0  0  0  0  0  0
   -0.7904    5.6252   -0.3645 H   0  0  0  0  0  0  0  0  0  0  0  0
   -0.3078    4.3875   -1.5734 H   0  0  0  0  0  0  0  0  0  0  0  0
    0.8606    4.9254   -0.3221 H   0  0  0  0  0  0  0  0  0  0  0  0
  1  4  1  0  0  0  0
  2  6  1  0  0  0  0
  2  3  1  0  0  0  0
  3  1  1  0  0  0  0
  4  5  1  0  0  0  0
  4  9  1  0  0  0  0
  5 11  1  0  0  0  0
  5 10  1  0  0  0  0
  6 13  1  0  0  0  0
  7 15  1  0  0  0  0
  7 17  1  0  0  0  0
  7  6  1  0  0  0  0
  8  4  1  0  0  0  0
 12  5  1  0  0  0  0
 14  6  1  0  0  0  0
 16  7  1  0  0  0  0
M  END
