17
q = -1.0

 61 63  0  0  1  0  0  0  0  0999 V2000
   -0.8736    0.0289    0.3852 P   0  0  0  0  0  0  0  0  0  0  0  0
    2.0836    0.3644   -0.0240 P   0  0  0  0  0  0  0  0  0  0  0  0
   -0.5139   -0.1455    2.2142 C   0  0  0  0  0  0  0  0  0  0  0  0
   -0.8837    0.7411    2.7666 H   0  0  0  0  0  0  0  0  0  0  0  0
   -1.1141   -1.0030    2.5820 H   0  0  0  0  0  0  0  0  0  0  0  0
    1.9160    0.6225    1.8334 C   0  0  0  0  0  0  0  0  0  0  0  0
    2.9263    0.5804    2.2931 H   0  0  0  0  0  0  0  0  0  0  0  0
    1.5383    1.6531    2.0035 H   0  0  0  0  0  0  0  0  0  0  0  0
    1.3927   -1.8763    2.2622 C   0  0  0  0  0  0  0  0  0  0  0  0
    2.4808   -1.9769    2.4624 H   0  0  0  0  0  0  0  0  0  0  0  0
    0.8828   -2.5119    3.0195 H   0  0  0  0  0  0  0  0  0  0  0  0
    0.9851   -0.3905    2.5599 C   0  0  2  0  0  0  0  0  0  0  0  0
    1.1520   -0.1695    4.0768 C   0  0  0  0  0  0  0  0  0  0  0  0
    2.1857   -0.4095    4.4011 H   0  0  0  0  0  0  0  0  0  0  0  0
    0.4572   -0.8160    4.6518 H   0  0  0  0  0  0  0  0  0  0  0  0
    0.9462    0.8843    4.3548 H   0  0  0  0  0  0  0  0  0  0  0  0
    1.0817   -2.3965    0.8841 C   0  0  1  0  0  3  0  0  0  0  0  0
   -0.2356   -2.6905    0.3609 C   0  0  0  0  0  0  0  0  0  0  0  0
   -1.1723   -2.6730    0.9340 H   0  0  0  0  0  0  0  0  0  0  0  0
   -0.1377   -3.0390   -1.0235 C   0  0  0  0  0  0  0  0  0  0  0  0
   -0.9708   -3.2920   -1.6881 H   0  0  0  0  0  0  0  0  0  0  0  0
    1.2565   -2.9909   -1.3758 C   0  0  0  0  0  0  0  0  0  0  0  0
    1.6728   -3.1665   -2.3746 H   0  0  0  0  0  0  0  0  0  0  0  0
    1.9988   -2.6321   -0.2149 C   0  0  0  0  0  0  0  0  0  0  0  0
    3.0898   -2.5489   -0.1657 H   0  0  0  0  0  0  0  0  0  0  0  0
   -2.6223   -0.5425    0.1779 C   0  0  0  0  0  0  0  0  0  0  0  0
   -2.9903   -1.0172   -1.0985 C   0  0  0  0  0  0  0  0  0  0  0  0
   -2.2291   -1.0428   -1.8972 H   0  0  0  0  0  0  0  0  0  0  0  0
   -4.3070   -1.4396   -1.3355 C   0  0  0  0  0  0  0  0  0  0  0  0
   -4.5906   -1.8043   -2.3348 H   0  0  0  0  0  0  0  0  0  0  0  0
   -5.2584   -1.4049   -0.3027 C   0  0  0  0  0  0  0  0  0  0  0  0
   -6.2886   -1.7453   -0.4887 H   0  0  0  0  0  0  0  0  0  0  0  0
   -4.8942   -0.9319    0.9681 C   0  0  0  0  0  0  0  0  0  0  0  0
   -5.6382   -0.8984    1.7790 H   0  0  0  0  0  0  0  0  0  0  0  0
   -3.5821   -0.4934    1.2073 C   0  0  0  0  0  0  0  0  0  0  0  0
   -3.3143   -0.1042    2.2018 H   0  0  0  0  0  0  0  0  0  0  0  0
   -1.1652    1.8421    0.1258 C   0  0  0  0  0  0  0  0  0  0  0  0
   -1.4807    2.2431   -1.1935 C   0  0  0  0  0  0  0  0  0  0  0  0
   -1.5010    1.4893   -1.9956 H   0  0  0  0  0  0  0  0  0  0  0  0
   -1.6826    3.5973   -1.4907 C   0  0  0  0  0  0  0  0  0  0  0  0
   -1.9180    3.8949   -2.5240 H   0  0  0  0  0  0  0  0  0  0  0  0
   -1.5713    4.5720   -0.4848 C   0  0  0  0  0  0  0  0  0  0  0  0
   -1.7270    5.6354   -0.7228 H   0  0  0  0  0  0  0  0  0  0  0  0
   -1.2565    4.1820    0.8253 C   0  0  0  0  0  0  0  0  0  0  0  0
   -1.1660    4.9371    1.6213 H   0  0  0  0  0  0  0  0  0  0  0  0
   -1.0561    2.8254    1.1294 C   0  0  0  0  0  0  0  0  0  0  0  0
   -0.8058    2.5500    2.1642 H   0  0  0  0  0  0  0  0  0  0  0  0
    3.9039   -0.0290   -0.1775 C   0  0  0  0  0  0  0  0  0  0  0  0
    4.4786    0.8077    0.2732 H   0  0  0  0  0  0  0  0  0  0  0  0
    4.1001   -0.9134    0.4621 H   0  0  0  0  0  0  0  0  0  0  0  0
    4.3198   -0.2809   -1.6260 C   0  0  0  0  0  0  0  0  0  0  0  0
    5.3703   -0.6298   -1.6924 H   0  0  0  0  0  0  0  0  0  0  0  0
    4.2326    0.6401   -2.2368 H   0  0  0  0  0  0  0  0  0  0  0  0
    3.6638   -1.0382   -2.1006 H   0  0  0  0  0  0  0  0  0  0  0  0
    2.0282    2.0593   -0.7802 C   0  0  0  0  0  0  0  0  0  0  0  0
    2.0351    1.8630   -1.8731 H   0  0  0  0  0  0  0  0  0  0  0  0
    1.0152    2.4478   -0.5735 H   0  0  0  0  0  0  0  0  0  0  0  0
    3.0934    3.0633   -0.3468 C   0  0  0  0  0  0  0  0  0  0  0  0
    2.8881    4.0564   -0.7966 H   0  0  0  0  0  0  0  0  0  0  0  0
    4.1137    2.7680   -0.6643 H   0  0  0  0  0  0  0  0  0  0  0  0
    3.1118    3.2043    0.7545 H   0  0  0  0  0  0  0  0  0  0  0  0
  1  3  1  0  0  0  0
  2  6  1  0  0  0  0
  3 12  1  0  0  0  0
  3  5  1  0  0  0  0
  3  4  1  0  0  0  0
  6  8  1  0  0  0  0
  6  7  1  0  0  0  0
  9 10  1  0  0  0  0
  9 12  1  0  0  0  0
  9 11  1  0  0  0  0
 12  6  1  6  0  0  0
 12 13  1  0  0  0  0
 13 16  1  0  0  0  0
 13 14  1  0  0  0  0
 13 15  1  0  0  0  0
 17  9  1  6  0  0  0
 18 17  1  0  0  0  0
 18 19  1  0  0  0  0
 20 18  2  0  0  0  0
 21 20  1  0  0  0  0
 22 20  1  0  0  0  0
 22 24  2  0  0  0  0
 23 22  1  0  0  0  0
 24 25  1  0  0  0  0
 24 17  1  0  0  0  0
 26  1  1  0  0  0  0
 26 35  1  0  0  0  0
 27 26  2  0  0  0  0
 28 27  1  0  0  0  0
 29 27  1  0  0  0  0
 29 31  2  0  0  0  0
 30 29  1  0  0  0  0
 31 33  1  0  0  0  0
 32 31  1  0  0  0  0
 33 35  2  0  0  0  0
 33 34  1  0  0  0  0
 35 36  1  0  0  0  0
 37  1  1  0  0  0  0
 37 46  1  0  0  0  0
 38 37  2  0  0  0  0
 39 38  1  0  0  0  0
 40 38  1  0  0  0  0
 40 42  2  0  0  0  0
 41 40  1  0  0  0  0
 42 44  1  0  0  0  0
 43 42  1  0  0  0  0
 44 46  2  0  0  0  0
 44 45  1  0  0  0  0
 46 47  1  0  0  0  0
 48  2  1  0  0  0  0
 48 49  1  0  0  0  0
 48 50  1  0  0  0  0
 51 48  1  0  0  0  0
 52 51  1  0  0  0  0
 53 51  1  0  0  0  0
 54 51  1  0  0  0  0
 55 57  1  0  0  0  0
 55 58  1  0  0  0  0
 55  2  1  0  0  0  0
 56 55  1  0  0  0  0
 58 61  1  0  0  0  0
 59 58  1  0  0  0  0
 60 58  1  0  0  0  0
M  END
