5
q = -1.0

 10  9  0  0  0  0  0  0  0  0999 V2000
    2.7431    0.1711    0.5407 N   0  3  0  0  0  0  0  0  0  0  0  0
    1.9309    1.0135    0.2447 H   0  0  0  0  0  0  0  0  0  0  0  0
    3.7050    0.5081    0.3862 H   0  0  0  0  0  0  0  0  0  0  0  0
    2.6142   -0.0050    1.5490 H   0  0  0  0  0  0  0  0  0  0  0  0
   -0.0899   -2.0157   -0.0713 C   0  0  0  0  0  2  0  0  0  0  0  0
   -0.7763   -2.8614   -0.0328 H   0  0  0  0  0  0  0  0  0  0  0  0
    0.9929   -1.3612   -0.1340 C   0  0  0  0  0  2  0  0  0  0  0  0
    2.4202   -1.0495   -0.2639 C   0  0  0  0  0  0  0  0  0  0  0  0
    2.6565   -0.8037   -1.3207 H   0  0  0  0  0  0  0  0  0  0  0  0
    3.0759   -1.8926    0.0470 H   0  0  0  0  0  0  0  0  0  0  0  0
  1  4  1  0  0  0  0
  2  1  1  0  0  0  0
  3  1  1  0  0  0  0
  5  6  1  0  0  0  0
  7  5  1  0  0  0  0
  8  7  1  0  0  0  0
  8 10  1  0  0  0  0
  8  1  1  0  0  0  0
  9  8  1  0  0  0  0
M  CHG  1   1   1
M  END
