6
q = 0.0, confidence = 0.99

 17 18  0  0  0  0  0  0  0  0999 V2000
   -3.2385    1.2034    0.5515 N   0  0  0  0  0  0  0  0  0  0  0  0
   -2.2786    0.3744   -1.3620 C   0  0  0  0  0  0  0  0  0  0  0  0
   -2.0498    0.4266    0.9504 C   0  0  0  0  0  0  0  0  0  0  0  0
   -2.3891   -0.4328    1.5712 H   0  0  0  0  0  0  0  0  0  0  0  0
   -1.3712    1.0652    1.5515 H   0  0  0  0  0  0  0  0  0  0  0  0
   -1.4393   -0.0763   -0.3309 C   0  0  0  0  0  3  0  0  0  0  0  0
   -5.2116    2.5001    0.7774 C   0  0  0  0  0  0  0  0  0  0  0  0
   -5.9252    3.0285    1.4222 H   0  0  0  0  0  0  0  0  0  0  0  0
   -4.4653    1.7866   -1.4388 C   0  0  0  0  0  0  0  0  0  0  0  0
   -4.5607    1.7323   -2.5313 H   0  0  0  0  0  0  0  0  0  0  0  0
   -5.3774    2.4584   -0.6387 C   0  0  0  0  0  0  0  0  0  0  0  0
   -6.2399    2.9654   -1.0969 H   0  0  0  0  0  0  0  0  0  0  0  0
   -4.1212    1.8535    1.3417 C   0  0  0  0  0  3  0  0  0  0  0  0
   -3.9144    1.8303    2.4217 H   0  0  0  0  0  0  0  0  0  0  0  0
   -3.3604    1.1380   -0.8254 C   0  0  0  0  0  0  0  0  0  0  0  0
   -2.1867    0.1901   -2.6910 O   0  0  0  0  0  0  0  0  0  0  0  0
   -1.3119   -0.2813   -2.8669 H   0  0  0  0  0  0  0  0  0  0  0  0
  1  3  1  0  0  0  0
  1 13  1  0  0  0  0
  2 15  1  0  0  0  0
  2  6  2  0  0  0  0
  3  5  1  0  0  0  0
  3  4  1  0  0  0  0
  6  3  1  0  0  0  0
  7 13  1  0  0  0  0
  7  8  1  0  0  0  0
  9 15  2  0  0  0  0
  9 11  1  0  0  0  0
 10  9  1  0  0  0  0
 11  7  2  0  0  0  0
 12 11  1  0  0  0  0
 13 14  1  0  0  0  0
 15  1  1  0  0  0  0
 16  2  1  0  0  0  0
 17 16  1  0  0  0  0
M  END
