2
q = 0.0, confidence = 0.998

 27 27  0  0  0  0  0  0  0  0999 V2000
    1.0789    2.1132   -0.6624 N   0  0  0  0  0  0  0  0  0  0  0  0
   -0.0005    1.2801   -0.4635 C   0  0  0  0  0  2  0  0  0  0  0  0
    0.6822    3.4065   -0.9731 C   0  0  0  0  0  0  0  0  0  0  0  0
    1.4003    4.2062   -1.1766 H   0  0  0  0  0  0  0  0  0  0  0  0
    2.4846    1.7612   -0.4800 C   0  0  0  0  0  0  0  0  0  0  0  0
    3.0563    2.1605   -1.3441 H   0  0  0  0  0  0  0  0  0  0  0  0
    2.5542    0.6600   -0.5247 H   0  0  0  0  0  0  0  0  0  0  0  0
    3.0599    2.2839    0.8399 C   0  0  0  0  0  0  0  0  0  0  0  0
    2.4112    1.9340    1.6695 H   0  0  0  0  0  0  0  0  0  0  0  0
    3.0076    3.3945    0.8488 H   0  0  0  0  0  0  0  0  0  0  0  0
    4.4963    1.8148    1.0639 C   0  0  0  0  0  0  0  0  0  0  0  0
    4.5451    0.7095    1.1393 H   0  0  0  0  0  0  0  0  0  0  0  0
    4.9099    2.2298    2.0037 H   0  0  0  0  0  0  0  0  0  0  0  0
    5.1647    2.1290    0.2352 H   0  0  0  0  0  0  0  0  0  0  0  0
   -1.0805    2.1125   -0.6625 N   0  0  0  0  0  0  0  0  0  0  0  0
   -0.6847    3.4060   -0.9732 C   0  0  0  0  0  0  0  0  0  0  0  0
   -1.4034    4.2052   -1.1767 H   0  0  0  0  0  0  0  0  0  0  0  0
   -2.4860    1.7595   -0.4800 C   0  0  0  0  0  0  0  0  0  0  0  0
   -3.0580    2.1583   -1.3441 H   0  0  0  0  0  0  0  0  0  0  0  0
   -2.5549    0.6582   -0.5246 H   0  0  0  0  0  0  0  0  0  0  0  0
   -3.0617    2.2822    0.8398 C   0  0  0  0  0  0  0  0  0  0  0  0
   -2.4128    1.9329    1.6695 H   0  0  0  0  0  0  0  0  0  0  0  0
   -3.0102    3.3928    0.8483 H   0  0  0  0  0  0  0  0  0  0  0  0
   -4.4978    1.8121    1.0638 C   0  0  0  0  0  0  0  0  0  0  0  0
   -4.5458    0.7068    1.1396 H   0  0  0  0  0  0  0  0  0  0  0  0
   -4.9117    2.2271    2.0035 H   0  0  0  0  0  0  0  0  0  0  0  0
   -5.1663    2.1256    0.2351 H   0  0  0  0  0  0  0  0  0  0  0  0
  1  5  1  0  0  0  0
  1  2  1  0  0  0  0
  3  1  1  0  0  0  0
  4  3  1  0  0  0  0
  5  8  1  0  0  0  0
  6  5  1  0  0  0  0
  7  5  1  0  0  0  0
  8 10  1  0  0  0  0
  8 11  1  0  0  0  0
  8  9  1  0  0  0  0
 11 12  1  0  0  0  0
 11 13  1  0  0  0  0
 14 11  1  0  0  0  0
 15 18  1  0  0  0  0
 15  2  1  0  0  0  0
 16  3  2  0  0  0  0
 16 15  1  0  0  0  0
 17 16  1  0  0  0  0
 18 21  1  0  0  0  0
 19 18  1  0  0  0  0
 20 18  1  0  0  0  0
 21 23  1  0  0  0  0
 21 24  1  0  0  0  0
 21 22  1  0  0  0  0
 24 25  1  0  0  0  0
 24 26  1  0  0  0  0
 27 24  1  0  0  0  0
M  END
