2
q = -1.0

 22 22  0  0  1  0  0  0  0  0999 V2000
   -1.1631    1.1192   -0.8264 C   0  0  2  0  0  3  0  0  0  0  0  0
    0.0000    1.5848   -0.1218 C   0  0  0  0  0  3  0  0  0  0  0  0
   -0.0000    2.2095    0.7776 H   0  0  0  0  0  0  0  0  0  0  0  0
    1.1631    1.1192   -0.8264 C   0  0  1  0  0  3  0  0  0  0  0  0
    0.7102    0.3421   -1.9632 C   0  0  0  0  0  0  0  0  0  0  0  0
    1.3769   -0.1367   -2.6896 H   0  0  0  0  0  0  0  0  0  0  0  0
   -0.7102    0.3421   -1.9632 C   0  0  0  0  0  0  0  0  0  0  0  0
   -1.3768   -0.1366   -2.6896 H   0  0  0  0  0  0  0  0  0  0  0  0
   -2.5933    1.3546   -0.5067 C   0  0  0  0  0  0  0  0  0  0  0  0
    2.5934    1.3546   -0.5066 C   0  0  0  0  0  0  0  0  0  0  0  0
   -4.0827    2.3281    1.0337 C   0  0  0  0  0  0  0  0  0  0  0  0
   -4.6160    1.3763    1.2308 H   0  0  0  0  0  0  0  0  0  0  0  0
   -4.6324    2.8776    0.2434 H   0  0  0  0  0  0  0  0  0  0  0  0
   -4.0201    2.9329    1.9552 H   0  0  0  0  0  0  0  0  0  0  0  0
    4.0827    2.3281    1.0338 C   0  0  0  0  0  0  0  0  0  0  0  0
    4.0200    2.9328    1.9554 H   0  0  0  0  0  0  0  0  0  0  0  0
    4.6324    2.8776    0.2436 H   0  0  0  0  0  0  0  0  0  0  0  0
    4.6160    1.3763    1.2310 H   0  0  0  0  0  0  0  0  0  0  0  0
   -2.7300    2.0762    0.6321 O   0  0  0  0  0  0  0  0  0  0  0  0
   -3.5221    0.9535   -1.1845 O   0  0  0  0  0  0  0  0  0  0  0  0
    3.5222    0.9535   -1.1844 O   0  0  0  0  0  0  0  0  0  0  0  0
    2.7300    2.0762    0.6322 O   0  0  0  0  0  0  0  0  0  0  0  0
  1  9  1  6  0  0  0
  1  2  1  0  0  0  0
  2  3  1  0  0  0  0
  4 10  1  6  0  0  0
  4  2  1  0  0  0  0
  5  4  1  0  0  0  0
  6  5  1  0  0  0  0
  7  5  2  0  0  0  0
  7  1  1  0  0  0  0
  8  7  1  0  0  0  0
  9 19  1  0  0  0  0
 10 22  1  0  0  0  0
 11 12  1  0  0  0  0
 11 14  1  0  0  0  0
 13 11  1  0  0  0  0
 15 18  1  0  0  0  0
 15 16  1  0  0  0  0
 17 15  1  0  0  0  0
 19 11  1  0  0  0  0
 20  9  2  0  0  0  0
 21 10  2  0  0  0  0
 22 15  1  0  0  0  0
M  END
