1
q = 0.0, confidence = 0.994

 69 73  0  0  1  0  0  0  0  0999 V2000
    0.0006   -0.5868   -0.0002 C   0  0  0  0  0  2  0  0  0  0  0  0
   -1.0109   -1.4516    0.3412 N   0  0  0  0  0  0  0  0  0  0  0  0
   -0.6485   -2.7919    0.2102 C   0  0  0  0  0  0  0  0  0  0  0  0
   -1.6429   -3.6606    0.4799 O   0  0  0  0  0  0  0  0  0  0  0  0
   -2.6592   -2.8628    1.1304 C   0  0  0  0  0  0  0  0  0  0  0  0
   -2.5370   -2.9701    2.2306 H   0  0  0  0  0  0  0  0  0  0  0  0
   -3.6492   -3.2536    0.8302 H   0  0  0  0  0  0  0  0  0  0  0  0
   -2.4517   -1.3683    0.7093 C   0  0  2  0  0  0  0  0  0  0  0  0
   -3.3676   -0.9713   -0.4867 C   0  0  1  0  0  0  0  0  0  0  0  0
   -4.3858   -1.2069   -0.0975 H   0  0  0  0  0  0  0  0  0  0  0  0
   -3.3464    0.5436   -0.7362 C   0  0  0  0  0  0  0  0  0  0  0  0
   -2.3281    0.8623   -1.0520 H   0  0  0  0  0  0  0  0  0  0  0  0
   -4.0214    0.7860   -1.5827 H   0  0  0  0  0  0  0  0  0  0  0  0
   -3.7517    1.3344    0.5091 C   0  0  0  0  0  0  0  0  0  0  0  0
   -4.8035    1.0882    0.7859 H   0  0  0  0  0  0  0  0  0  0  0  0
   -3.7222    2.4228    0.2958 H   0  0  0  0  0  0  0  0  0  0  0  0
   -2.8294    1.0278    1.6947 C   0  0  2  0  0  0  0  0  0  0  0  0
   -1.8106    1.3888    1.4124 H   0  0  0  0  0  0  0  0  0  0  0  0
   -2.7361   -0.4822    1.9392 C   0  0  0  0  0  0  0  0  0  0  0  0
   -3.7120   -0.8292    2.3514 H   0  0  0  0  0  0  0  0  0  0  0  0
   -1.9732   -0.7039    2.7160 H   0  0  0  0  0  0  0  0  0  0  0  0
   -3.1876   -1.8326   -1.7722 C   0  0  0  0  0  0  0  0  0  0  0  0
   -2.9146   -2.8616   -1.4523 H   0  0  0  0  0  0  0  0  0  0  0  0
   -4.5219   -1.9413   -2.5267 C   0  0  0  0  0  0  0  0  0  0  0  0
   -4.8817   -0.9440   -2.8559 H   0  0  0  0  0  0  0  0  0  0  0  0
   -5.3146   -2.3924   -1.8949 H   0  0  0  0  0  0  0  0  0  0  0  0
   -4.4157   -2.5681   -3.4351 H   0  0  0  0  0  0  0  0  0  0  0  0
   -2.0850   -1.3409   -2.7242 C   0  0  0  0  0  0  0  0  0  0  0  0
   -1.9653   -2.0536   -3.5651 H   0  0  0  0  0  0  0  0  0  0  0  0
   -1.1010   -1.2354   -2.2298 H   0  0  0  0  0  0  0  0  0  0  0  0
   -2.3397   -0.3550   -3.1633 H   0  0  0  0  0  0  0  0  0  0  0  0
   -3.2392    1.7696    2.9661 C   0  0  0  0  0  0  0  0  0  0  0  0
   -4.2597    1.4733    3.2927 H   0  0  0  0  0  0  0  0  0  0  0  0
   -3.2395    2.8648    2.7972 H   0  0  0  0  0  0  0  0  0  0  0  0
   -2.5416    1.5588    3.8025 H   0  0  0  0  0  0  0  0  0  0  0  0
    1.0125   -1.4504   -0.3437 N   0  0  0  0  0  0  0  0  0  0  0  0
    0.6509   -2.7911   -0.2150 C   0  0  0  0  0  0  0  0  0  0  0  0
    1.6459   -3.6587   -0.4857 O   0  0  0  0  0  0  0  0  0  0  0  0
    2.6623   -2.8593   -1.1338 C   0  0  0  0  0  0  0  0  0  0  0  0
    2.5413   -2.9647   -2.2343 H   0  0  0  0  0  0  0  0  0  0  0  0
    3.6524   -3.2500   -0.8334 H   0  0  0  0  0  0  0  0  0  0  0  0
    2.4536   -1.3657   -0.7103 C   0  0  2  0  0  0  0  0  0  0  0  0
    3.3680   -0.9700    0.4873 C   0  0  1  0  0  0  0  0  0  0  0  0
    4.3869   -1.2040    0.0986 H   0  0  0  0  0  0  0  0  0  0  0  0
    3.3452    0.5444    0.7395 C   0  0  0  0  0  0  0  0  0  0  0  0
    4.0190    0.7859    1.5872 H   0  0  0  0  0  0  0  0  0  0  0  0
    2.3263    0.8617    1.0546 H   0  0  0  0  0  0  0  0  0  0  0  0
    3.7513    1.3377   -0.5040 C   0  0  0  0  0  0  0  0  0  0  0  0
    3.7210    2.4257   -0.2889 H   0  0  0  0  0  0  0  0  0  0  0  0
    4.8037    1.0927   -0.7801 H   0  0  0  0  0  0  0  0  0  0  0  0
    2.8306    1.0325   -1.6911 C   0  0  2  0  0  0  0  0  0  0  0  0
    1.8112    1.3921   -1.4092 H   0  0  0  0  0  0  0  0  0  0  0  0
    2.7387   -0.4772   -1.9384 C   0  0  0  0  0  0  0  0  0  0  0  0
    3.7153   -0.8228   -2.3501 H   0  0  0  0  0  0  0  0  0  0  0  0
    1.9768   -0.6981   -2.7164 H   0  0  0  0  0  0  0  0  0  0  0  0
    3.1877   -1.8338    1.7711 C   0  0  0  0  0  0  0  0  0  0  0  0
    2.9159   -2.8626    1.4492 H   0  0  0  0  0  0  0  0  0  0  0  0
    2.0838   -1.3449    2.7231 C   0  0  0  0  0  0  0  0  0  0  0  0
    2.3373   -0.3594    3.1640 H   0  0  0  0  0  0  0  0  0  0  0  0
    1.9642   -2.0591    3.5626 H   0  0  0  0  0  0  0  0  0  0  0  0
    1.1001   -1.2395    2.2281 H   0  0  0  0  0  0  0  0  0  0  0  0
    4.5215   -1.9426    2.5265 C   0  0  0  0  0  0  0  0  0  0  0  0
    4.8801   -0.9456    2.8577 H   0  0  0  0  0  0  0  0  0  0  0  0
    5.3151   -2.3918    1.8947 H   0  0  0  0  0  0  0  0  0  0  0  0
    4.4150   -2.5710    3.4338 H   0  0  0  0  0  0  0  0  0  0  0  0
    3.2410    1.7769   -2.9608 C   0  0  0  0  0  0  0  0  0  0  0  0
    4.2621    1.4821   -3.2869 H   0  0  0  0  0  0  0  0  0  0  0  0
    3.2401    2.8717   -2.7899 H   0  0  0  0  0  0  0  0  0  0  0  0
    2.5445    1.5669   -3.7982 H   0  0  0  0  0  0  0  0  0  0  0  0
  1  2  1  0  0  0  0
  3  2  1  0  0  0  0
  3  4  1  0  0  0  0
  4  5  1  0  0  0  0
  5  6  1  0  0  0  0
  7  5  1  0  0  0  0
  8  2  1  6  0  0  0
  8  5  1  0  0  0  0
  8 19  1  0  0  0  0
  9 10  1  1  0  0  0
  9  8  1  0  0  0  0
 11  9  1  0  0  0  0
 11 14  1  0  0  0  0
 12 11  1  0  0  0  0
 13 11  1  0  0  0  0
 14 15  1  0  0  0  0
 14 17  1  0  0  0  0
 16 14  1  0  0  0  0
 17 18  1  6  0  0  0
 17 19  1  0  0  0  0
 17 32  1  0  0  0  0
 19 20  1  0  0  0  0
 19 21  1  0  0  0  0
 22 23  1  0  0  0  0
 22  9  1  0  0  0  0
 24 26  1  0  0  0  0
 24 22  1  0  0  0  0
 25 24  1  0  0  0  0
 27 24  1  0  0  0  0
 28 30  1  0  0  0  0
 28 22  1  0  0  0  0
 29 28  1  0  0  0  0
 31 28  1  0  0  0  0
 32 33  1  0  0  0  0
 32 35  1  0  0  0  0
 34 32  1  0  0  0  0
 36 37  1  0  0  0  0
 36  1  1  0  0  0  0
 37  3  2  0  0  0  0
 38 37  1  0  0  0  0
 39 41  1  0  0  0  0
 39 42  1  0  0  0  0
 39 38  1  0  0  0  0
 40 39  1  0  0  0  0
 42 53  1  6  0  0  0
 42 36  1  0  0  0  0
 42 43  1  0  0  0  0
 43 44  1  6  0  0  0
 43 45  1  0  0  0  0
 43 56  1  0  0  0  0
 45 47  1  0  0  0  0
 45 46  1  0  0  0  0
 48 49  1  0  0  0  0
 48 45  1  0  0  0  0
 50 48  1  0  0  0  0
 51 52  1  1  0  0  0
 51 48  1  0  0  0  0
 53 51  1  0  0  0  0
 54 53  1  0  0  0  0
 55 53  1  0  0  0  0
 56 62  1  0  0  0  0
 56 58  1  0  0  0  0
 57 56  1  0  0  0  0
 58 59  1  0  0  0  0
 58 60  1  0  0  0  0
 61 58  1  0  0  0  0
 62 63  1  0  0  0  0
 62 65  1  0  0  0  0
 64 62  1  0  0  0  0
 66 68  1  0  0  0  0
 66 51  1  0  0  0  0
 67 66  1  0  0  0  0
 69 66  1  0  0  0  0
M  END
