1
q = -1.0, confidence = 0.06

 49 50  0  0  1  0  0  0  0  0999 V2000
   -3.5043   -2.1536   -0.4201 C   0  0  0  0  0  3  0  0  0  0  0  0
   -3.5891   -2.5397   -1.4434 H   0  0  0  0  0  0  0  0  0  0  0  0
   -4.5899   -1.8182    0.4449 C   0  0  0  0  0  0  0  0  0  0  0  0
   -5.6558   -1.8963    0.2004 H   0  0  0  0  0  0  0  0  0  0  0  0
   -4.0380   -1.3763    1.7045 C   0  0  0  0  0  0  0  0  0  0  0  0
   -4.6110   -1.0652    2.5856 H   0  0  0  0  0  0  0  0  0  0  0  0
   -2.6129   -1.4356    1.6002 C   0  0  0  0  0  0  0  0  0  0  0  0
   -1.8773   -1.1852    2.3734 H   0  0  0  0  0  0  0  0  0  0  0  0
   -2.2634   -1.9407    0.2954 C   0  0  0  0  0  0  0  0  0  0  0  0
   -0.9112   -2.2390   -0.1886 C   0  0  0  0  0  0  0  0  0  0  0  0
   -0.8340   -2.5742   -1.2522 H   0  0  0  0  0  0  0  0  0  0  0  0
    1.4115   -2.3981    0.0207 C   0  0  0  0  0  0  0  0  0  0  0  0
    1.3687   -2.9322   -0.9615 H   0  0  0  0  0  0  0  0  0  0  0  0
    2.0094   -3.0067    0.7300 H   0  0  0  0  0  0  0  0  0  0  0  0
    2.1765   -1.0776   -0.1934 C   0  0  1  0  0  0  0  0  0  0  0  0
    2.1734   -0.5073    0.7597 H   0  0  0  0  0  0  0  0  0  0  0  0
    3.6257   -1.3100   -0.6205 C   0  0  0  0  0  0  0  0  0  0  0  0
    3.6396   -1.7310   -1.6558 H   0  0  0  0  0  0  0  0  0  0  0  0
    4.1529   -0.3323   -0.6396 H   0  0  0  0  0  0  0  0  0  0  0  0
    5.5002   -2.6993   -0.0568 C   0  0  0  0  0  0  0  0  0  0  0  0
    5.5493   -2.9524   -1.1444 H   0  0  0  0  0  0  0  0  0  0  0  0
    5.6565   -3.6359    0.5200 H   0  0  0  0  0  0  0  0  0  0  0  0
    6.6331   -1.7393    0.2780 C   0  0  0  0  0  0  0  0  0  0  0  0
    6.4723   -1.3701    1.3189 H   0  0  0  0  0  0  0  0  0  0  0  0
    7.6095   -2.2898    0.2672 H   0  0  0  0  0  0  0  0  0  0  0  0
    7.4015    0.4481   -0.2701 C   0  0  0  0  0  0  0  0  0  0  0  0
    8.3978    0.1534    0.1432 H   0  0  0  0  0  0  0  0  0  0  0  0
    7.5775    1.0365   -1.1945 H   0  0  0  0  0  0  0  0  0  0  0  0
    6.6932    1.3420    0.7414 C   0  0  0  0  0  0  0  0  0  0  0  0
    7.3933    2.1626    1.0464 H   0  0  0  0  0  0  0  0  0  0  0  0
    6.4508    0.7726    1.6741 H   0  0  0  0  0  0  0  0  0  0  0  0
    4.7476    2.6495    1.0251 C   0  0  0  0  0  0  0  0  0  0  0  0
    5.3036    3.5721    1.3306 H   0  0  0  0  0  0  0  0  0  0  0  0
    4.4951    2.0898    1.9598 H   0  0  0  0  0  0  0  0  0  0  0  0
    3.4680    3.0489    0.3200 C   0  0  0  0  0  0  0  0  0  0  0  0
    2.9778    3.8846    0.8802 H   0  0  0  0  0  0  0  0  0  0  0  0
    3.7309    3.4376   -0.6942 H   0  0  0  0  0  0  0  0  0  0  0  0
    1.5946    2.0703   -0.7406 C   0  0  0  0  0  0  0  0  0  0  0  0
    2.0392    2.2804   -1.7448 H   0  0  0  0  0  0  0  0  0  0  0  0
    0.9075    2.9177   -0.4893 H   0  0  0  0  0  0  0  0  0  0  0  0
    0.7835    0.7870   -0.8040 C   0  0  0  0  0  0  0  0  0  0  0  0
    0.3117    0.5899    0.1839 H   0  0  0  0  0  0  0  0  0  0  0  0
   -0.0339    0.9277   -1.5425 H   0  0  0  0  0  0  0  0  0  0  0  0
    0.1110   -2.1349    0.5794 N   0  0  0  0  0  0  0  0  0  0  0  0
    4.2217   -2.2197    0.2971 O   0  0  0  0  0  0  0  0  0  0  0  0
    6.6478   -0.6812   -0.6601 O   0  0  0  0  0  0  0  0  0  0  0  0
    5.5231    1.8568    0.1530 O   0  0  0  0  0  0  0  0  0  0  0  0
    2.6168    1.9302    0.2249 O   0  0  0  0  0  0  0  0  0  0  0  0
    1.5486   -0.3271   -1.2278 O   0  0  0  0  0  0  0  0  0  0  0  0
  1  9  1  0  0  0  0
  1  3  1  0  0  0  0
  2  1  1  0  0  0  0
  3  5  2  0  0  0  0
  4  3  1  0  0  0  0
  5  6  1  0  0  0  0
  7  5  1  0  0  0  0
  7  8  1  0  0  0  0
  9  7  2  0  0  0  0
 10  9  1  0  0  0  0
 10 44  2  0  0  0  0
 11 10  1  0  0  0  0
 12 44  1  0  0  0  0
 12 14  1  0  0  0  0
 13 12  1  0  0  0  0
 15 12  1  0  0  0  0
 15 16  1  1  0  0  0
 17 15  1  0  0  0  0
 17 45  1  0  0  0  0
 18 17  1  0  0  0  0
 19 17  1  0  0  0  0
 20 23  1  0  0  0  0
 20 45  1  0  0  0  0
 20 22  1  0  0  0  0
 21 20  1  0  0  0  0
 23 24  1  0  0  0  0
 25 23  1  0  0  0  0
 26 27  1  0  0  0  0
 26 29  1  0  0  0  0
 28 26  1  0  0  0  0
 29 30  1  0  0  0  0
 29 31  1  0  0  0  0
 32 33  1  0  0  0  0
 32 34  1  0  0  0  0
 35 36  1  0  0  0  0
 35 32  1  0  0  0  0
 37 35  1  0  0  0  0
 38 40  1  0  0  0  0
 38 48  1  0  0  0  0
 39 38  1  0  0  0  0
 41 38  1  0  0  0  0
 41 42  1  0  0  0  0
 43 41  1  0  0  0  0
 46 26  1  0  0  0  0
 46 23  1  0  0  0  0
 47 29  1  0  0  0  0
 47 32  1  0  0  0  0
 48 35  1  0  0  0  0
 49 41  1  0  0  0  0
 49 15  1  0  0  0  0
M  END
