1
q = 0.0, confidence = 0.974

 60 90  0  0  1  0  0  0  0  0999 V2000
    2.2276    0.0732    0.7510 C   0  0  2  0  0  0  0  0  0  0  0  0
    1.6498   -1.1141    1.4258 C   0  0  0  0  0  0  0  0  0  0  0  0
    0.8966   -0.6864    2.5918 C   0  0  0  0  0  0  0  0  0  0  0  0
    0.8647    0.7671    2.5933 C   0  0  0  0  0  0  0  0  0  0  0  0
    1.5979    1.2285    1.4295 C   0  0  0  0  0  0  0  0  0  0  0  0
    1.1426    2.3604    0.7387 C   0  0  0  0  0  0  0  0  0  0  0  0
    1.1426    2.3613   -0.7357 C   0  0  0  0  0  0  0  0  0  0  0  0
    1.5979    1.2303   -1.4279 C   0  0  0  0  0  0  0  0  0  0  0  0
    2.2276    0.0741   -0.7509 C   0  0  0  0  0  0  0  0  0  0  0  0
    1.6498   -1.1123   -1.4272 C   0  0  0  0  0  0  0  0  0  0  0  0
    1.2447   -2.2665   -0.7396 C   0  0  0  0  0  0  0  0  0  0  0  0
    1.2447   -2.2674    0.7367 C   0  0  0  0  0  0  0  0  0  0  0  0
    0.0847   -3.0119    1.1811 C   0  0  0  0  0  0  0  0  0  0  0  0
   -0.6361   -2.6128    2.3324 C   0  0  0  0  0  0  0  0  0  0  0  0
   -0.2171   -1.4237    3.0503 C   0  0  0  0  0  0  0  0  0  0  0  0
   -1.4100   -0.7162    3.5051 C   0  0  0  0  0  0  0  0  0  0  0  0
   -1.4411    0.6903    3.5047 C   0  0  0  0  0  0  0  0  0  0  0  0
   -0.2810    1.4523    3.0537 C   0  0  0  0  0  0  0  0  0  0  0  0
   -0.7520    2.6215    2.3360 C   0  0  0  0  0  0  0  0  0  0  0  0
   -0.0494    3.0513    1.1846 C   0  0  0  0  0  0  0  0  0  0  0  0
   -0.7913    3.4784    0.0022 C   0  0  0  0  0  0  0  0  0  0  0  0
   -0.0494    3.0528   -1.1808 C   0  0  0  0  0  0  0  0  0  0  0  0
   -0.7520    2.6245   -2.3326 C   0  0  0  0  0  0  0  0  0  0  0  0
   -0.2810    1.4561   -3.0518 C   0  0  0  0  0  0  0  0  0  0  0  0
    0.8647    0.7704   -2.5923 C   0  0  0  0  0  0  0  0  0  0  0  0
    0.8966   -0.6831   -2.5926 C   0  0  0  0  0  0  0  0  0  0  0  0
   -0.2171   -1.4198   -3.0521 C   0  0  0  0  0  0  0  0  0  0  0  0
   -0.6361   -2.6098   -2.3357 C   0  0  0  0  0  0  0  0  0  0  0  0
    0.0847   -3.0104   -1.1850 C   0  0  0  0  0  0  0  0  0  0  0  0
   -0.6367   -3.4702   -0.0022 C   0  0  0  0  0  0  0  0  0  0  0  0
   -2.0426   -3.5137   -0.0022 C   0  0  0  0  0  0  0  0  0  0  0  0
   -2.7854   -3.0900    1.1808 C   0  0  0  0  0  0  0  0  0  0  0  0
   -2.0899   -2.6430    2.3236 C   0  0  0  0  0  0  0  0  0  0  0  0
   -2.5718   -1.4719    3.0517 C   0  0  0  0  0  0  0  0  0  0  0  0
   -3.7245   -0.7938    2.6139 C   0  0  0  0  0  0  0  0  0  0  0  0
   -3.7573    0.6655    2.6148 C   0  0  0  0  0  0  0  0  0  0  0  0
   -2.6359    1.3941    3.0532 C   0  0  0  0  0  0  0  0  0  0  0  0
   -2.2059    2.5860    2.3265 C   0  0  0  0  0  0  0  0  0  0  0  0
   -2.9208    3.0028    1.1845 C   0  0  0  0  0  0  0  0  0  0  0  0
   -2.1975    3.4610    0.0022 C   0  0  0  0  0  0  0  0  0  0  0  0
   -2.9208    3.0043   -1.1807 C   0  0  0  0  0  0  0  0  0  0  0  0
   -2.2059    2.5890   -2.3232 C   0  0  0  0  0  0  0  0  0  0  0  0
   -2.6359    1.3980   -3.0514 C   0  0  0  0  0  0  0  0  0  0  0  0
   -1.4411    0.6948   -3.5038 C   0  0  0  0  0  0  0  0  0  0  0  0
   -1.4100   -0.7117   -3.5060 C   0  0  0  0  0  0  0  0  0  0  0  0
   -2.5718   -1.4681   -3.0536 C   0  0  0  0  0  0  0  0  0  0  0  0
   -2.0899   -2.6400   -2.3269 C   0  0  0  0  0  0  0  0  0  0  0  0
   -2.7854   -3.0885   -1.1847 C   0  0  0  0  0  0  0  0  0  0  0  0
   -3.9764   -2.3869   -0.7328 C   0  0  1  0  0  0  0  0  0  0  0  0
   -3.9764   -2.3879    0.7298 C   0  0  0  0  0  0  0  0  0  0  0  0
   -4.4416   -1.2589    1.4327 C   0  0  0  0  0  0  0  0  0  0  0  0
   -4.9183   -0.0894    0.7046 C   0  0  0  0  0  0  0  0  0  0  0  0
   -4.4947    1.0994    1.4344 C   0  0  0  0  0  0  0  0  0  0  0  0
   -4.0789    2.2482    0.7327 C   0  0  0  0  0  0  0  0  0  0  0  0
   -4.0789    2.2491   -0.7299 C   0  0  0  0  0  0  0  0  0  0  0  0
   -4.4947    1.1013   -1.4330 C   0  0  0  0  0  0  0  0  0  0  0  0
   -3.7573    0.6688   -2.6139 C   0  0  0  0  0  0  0  0  0  0  0  0
   -3.7245   -0.7905   -2.6149 C   0  0  0  0  0  0  0  0  0  0  0  0
   -4.4416   -1.2570   -1.4343 C   0  0  0  0  0  0  0  0  0  0  0  0
   -4.9183   -0.0885   -0.7048 C   0  0  0  0  0  0  0  0  0  0  0  0
  1  9  1  6  0  0  0
  1  2  1  0  0  0  0
  1  5  1  0  0  0  0
  2  3  1  0  0  0  0
  3  4  2  0  0  0  0
  3 15  1  0  0  0  0
  4 18  1  0  0  0  0
  5  4  1  0  0  0  0
  6 20  1  0  0  0  0
  6  5  2  0  0  0  0
  7  6  1  0  0  0  0
  8  9  1  0  0  0  0
  8  7  2  0  0  0  0
 10  9  2  0  0  0  0
 10 11  1  0  0  0  0
 11 12  1  0  0  0  0
 12 13  1  0  0  0  0
 12  2  2  0  0  0  0
 13 14  1  0  0  0  0
 14 15  1  0  0  0  0
 15 16  2  0  0  0  0
 17 16  1  0  0  0  0
 18 17  1  0  0  0  0
 19 18  2  0  0  0  0
 20 19  1  0  0  0  0
 21 20  2  0  0  0  0
 22  7  1  0  0  0  0
 22 21  1  0  0  0  0
 23 42  1  0  0  0  0
 23 22  2  0  0  0  0
 24 25  1  0  0  0  0
 24 23  1  0  0  0  0
 25  8  1  0  0  0  0
 26 25  2  0  0  0  0
 26 10  1  0  0  0  0
 27 26  1  0  0  0  0
 27 28  1  0  0  0  0
 28 47  2  0  0  0  0
 28 29  1  0  0  0  0
 29 11  2  0  0  0  0
 29 30  1  0  0  0  0
 30 13  2  0  0  0  0
 31 30  1  0  0  0  0
 31 32  1  0  0  0  0
 32 33  1  0  0  0  0
 33 14  2  0  0  0  0
 33 34  1  0  0  0  0
 34 16  1  0  0  0  0
 35 36  1  0  0  0  0
 35 34  2  0  0  0  0
 36 37  1  0  0  0  0
 37 17  2  0  0  0  0
 38 19  1  0  0  0  0
 38 37  1  0  0  0  0
 39 38  2  0  0  0  0
 40 21  1  0  0  0  0
 40 39  1  0  0  0  0
 41 55  1  0  0  0  0
 41 40  2  0  0  0  0
 42 41  1  0  0  0  0
 43 57  1  0  0  0  0
 43 42  2  0  0  0  0
 44 24  2  0  0  0  0
 44 43  1  0  0  0  0
 45 44  1  0  0  0  0
 45 46  1  0  0  0  0
 45 27  2  0  0  0  0
 46 58  2  0  0  0  0
 46 47  1  0  0  0  0
 47 48  1  0  0  0  0
 48 49  1  0  0  0  0
 48 31  2  0  0  0  0
 49 59  1  1  0  0  0
 49 50  1  0  0  0  0
 50 32  2  0  0  0  0
 50 51  1  0  0  0  0
 51 35  1  0  0  0  0
 52 51  2  0  0  0  0
 52 53  1  0  0  0  0
 53 36  2  0  0  0  0
 54 39  1  0  0  0  0
 54 53  1  0  0  0  0
 55 54  2  0  0  0  0
 56 55  1  0  0  0  0
 56 60  1  0  0  0  0
 57 56  2  0  0  0  0
 58 57  1  0  0  0  0
 58 59  1  0  0  0  0
 59 60  2  0  0  0  0
 60 52  1  0  0  0  0
M  END
