38
q = -1.0

 69 72  0  0  1  0  0  0  0  0999 V2000
    1.7514    1.9054   -4.2513 F   0  0  0  0  0  0  0  0  0  0  0  0
    2.6026    2.3331   -2.2913 F   0  0  0  0  0  0  0  0  0  0  0  0
    3.5666    0.8786   -3.6132 F   0  0  0  0  0  0  0  0  0  0  0  0
    0.0020   -4.2062   -3.0055 F   0  0  0  0  0  0  0  0  0  0  0  0
    2.0059   -3.7235   -3.7326 F   0  0  0  0  0  0  0  0  0  0  0  0
    1.6793   -4.1521   -1.6148 F   0  0  0  0  0  0  0  0  0  0  0  0
   -0.3766    4.0026    3.1898 F   0  0  0  0  0  0  0  0  0  0  0  0
    1.7074    3.3644    3.3396 F   0  0  0  0  0  0  0  0  0  0  0  0
    0.3596    3.0933    5.0344 F   0  0  0  0  0  0  0  0  0  0  0  0
    1.9057   -2.4753    3.3051 F   0  0  0  0  0  0  0  0  0  0  0  0
    1.2547   -1.7326    5.2554 F   0  0  0  0  0  0  0  0  0  0  0  0
   -0.0925   -2.9494    4.0390 F   0  0  0  0  0  0  0  0  0  0  0  0
   -1.8580    4.2544   -3.8793 F   0  0  0  0  0  0  0  0  0  0  0  0
   -2.8686    2.4780   -4.6340 F   0  0  0  0  0  0  0  0  0  0  0  0
   -4.0264    4.2600   -4.1184 F   0  0  0  0  0  0  0  0  0  0  0  0
   -4.4488    3.7840    2.1556 F   0  0  0  0  0  0  0  0  0  0  0  0
   -6.1529    3.2240    0.9172 F   0  0  0  0  0  0  0  0  0  0  0  0
   -5.1617    5.1389    0.5938 F   0  0  0  0  0  0  0  0  0  0  0  0
   -5.9640   -2.3220   -2.8783 F   0  0  0  0  0  0  0  0  0  0  0  0
   -5.4518   -4.3632   -2.3102 F   0  0  0  0  0  0  0  0  0  0  0  0
   -4.0258   -3.1481   -3.4383 F   0  0  0  0  0  0  0  0  0  0  0  0
   -4.9543   -1.9341    3.4955 F   0  0  0  0  0  0  0  0  0  0  0  0
   -4.1001   -3.9040    3.1259 F   0  0  0  0  0  0  0  0  0  0  0  0
   -6.1479   -3.4770    2.5070 F   0  0  0  0  0  0  0  0  0  0  0  0
   -0.4054   -0.3970   -1.1526 C   0  0  0  0  0  0  0  0  0  0  0  0
    0.4952    0.5790   -1.6740 C   0  0  0  0  0  0  0  0  0  0  0  0
    1.5200    0.2412   -2.5833 C   0  0  0  0  0  0  0  0  0  0  0  0
    1.7177   -1.0937   -2.9688 C   0  0  0  0  0  0  0  0  0  0  0  0
    0.8818   -2.0810   -2.4271 C   0  0  0  0  0  0  0  0  0  0  0  0
   -0.1632   -1.7380   -1.5487 C   0  0  0  0  0  0  0  0  0  0  0  0
    2.3629    1.3390   -3.1885 C   0  0  0  0  0  0  0  0  0  0  0  0
    1.1385   -3.5425   -2.7118 C   0  0  0  0  0  0  0  0  0  0  0  0
   -0.8522    0.2612    1.3501 C   0  0  2  0  0  3  0  0  0  0  0  0
   -0.5902    1.5317    1.9279 C   0  0  0  0  0  0  0  0  0  0  0  0
    0.0743    1.6669    3.1574 C   0  0  0  0  0  0  0  0  0  0  0  0
    0.5217    0.5384    3.8693 C   0  0  0  0  0  0  0  0  0  0  0  0
    0.3113   -0.7289    3.3155 C   0  0  0  0  0  0  0  0  0  0  0  0
   -0.3624   -0.8668    2.0756 C   0  0  0  0  0  3  0  0  0  0  0  0
    0.4178    3.0390    3.6879 C   0  0  0  0  0  0  0  0  0  0  0  0
    0.8360   -1.9720    3.9972 C   0  0  0  0  0  0  0  0  0  0  0  0
   -2.3970    1.3831   -0.5996 C   0  0  0  0  0  0  0  0  0  0  0  0
   -2.3681    1.8625   -1.9248 C   0  0  0  0  0  0  0  0  0  0  0  0
   -3.1185    2.9822   -2.3288 C   0  0  0  0  0  0  0  0  0  0  0  0
   -3.9408    3.6543   -1.4157 C   0  0  0  0  0  0  0  0  0  0  0  0
   -4.0092    3.1788   -0.0963 C   0  0  0  0  0  0  0  0  0  0  0  0
   -3.2549    2.0623    0.2953 C   0  0  0  0  0  0  0  0  0  0  0  0
   -2.9766    3.4933   -3.7421 C   0  0  0  0  0  0  0  0  0  0  0  0
   -4.9428    3.8353    0.8927 C   0  0  0  0  0  0  0  0  0  0  0  0
   -2.7649   -1.1172   -0.0003 C   0  0  0  0  0  0  0  0  0  0  0  0
   -3.3164   -1.6633   -1.1821 C   0  0  0  0  0  0  0  0  0  0  0  0
   -4.3613   -2.5987   -1.1529 C   0  0  0  0  0  0  0  0  0  0  0  0
   -4.9031   -3.0205    0.0724 C   0  0  0  0  0  0  0  0  0  0  0  0
   -4.3883   -2.4780    1.2562 C   0  0  0  0  0  0  0  0  0  0  0  0
   -3.3421   -1.5374    1.2146 C   0  0  0  0  0  0  0  0  0  0  0  0
   -4.9494   -3.1115   -2.4462 C   0  0  0  0  0  0  0  0  0  0  0  0
   -4.9061   -2.9466    2.5946 C   0  0  0  0  0  0  0  0  0  0  0  0
   -1.6104    0.0378   -0.1035 B   0  0  0  0  0  0  0  0  0  0  0  0
    0.3592    1.6366   -1.3979 H   0  0  0  0  0  0  0  0  0  0  0  0
    2.5219   -1.3623   -3.6659 H   0  0  0  0  0  0  0  0  0  0  0  0
   -0.8235   -2.5345   -1.1725 H   0  0  0  0  0  0  0  0  0  0  0  0
   -0.9322    2.4383    1.4074 H   0  0  0  0  0  0  0  0  0  0  0  0
    1.0317    0.6464    4.8359 H   0  0  0  0  0  0  0  0  0  0  0  0
   -0.5966   -1.8820    1.7132 H   0  0  0  0  0  0  0  0  0  0  0  0
   -1.7538    1.3539   -2.6835 H   0  0  0  0  0  0  0  0  0  0  0  0
   -4.5236    4.5316   -1.7261 H   0  0  0  0  0  0  0  0  0  0  0  0
   -3.3474    1.7101    1.3347 H   0  0  0  0  0  0  0  0  0  0  0  0
   -2.9238   -1.3495   -2.1619 H   0  0  0  0  0  0  0  0  0  0  0  0
   -5.7163   -3.7580    0.1014 H   0  0  0  0  0  0  0  0  0  0  0  0
   -2.9849   -1.1220    2.1694 H   0  0  0  0  0  0  0  0  0  0  0  0
  1 31  1  0  0  0  0
  3 31  1  0  0  0  0
  4 32  1  0  0  0  0
  5 32  1  0  0  0  0
  7 39  1  0  0  0  0
  8 39  1  0  0  0  0
 10 40  1  0  0  0  0
 13 47  1  0  0  0  0
 14 47  1  0  0  0  0
 15 47  1  0  0  0  0
 18 48  1  0  0  0  0
 19 55  1  0  0  0  0
 21 55  1  0  0  0  0
 24 56  1  0  0  0  0
 25 57  1  0  0  0  0
 26 58  1  0  0  0  0
 26 25  2  0  0  0  0
 27 26  1  0  0  0  0
 28 27  2  0  0  0  0
 28 29  1  0  0  0  0
 29 30  2  0  0  0  0
 30 60  1  0  0  0  0
 30 25  1  0  0  0  0
 31 27  1  0  0  0  0
 31  2  1  0  0  0  0
 32 29  1  0  0  0  0
 32  6  1  0  0  0  0
 33 57  1  6  0  0  0
 33 34  1  0  0  0  0
 33 38  1  0  0  0  0
 34 35  2  0  0  0  0
 35 39  1  0  0  0  0
 35 36  1  0  0  0  0
 36 62  1  0  0  0  0
 37 36  2  0  0  0  0
 37 40  1  0  0  0  0
 38 37  1  0  0  0  0
 39  9  1  0  0  0  0
 40 12  1  0  0  0  0
 40 11  1  0  0  0  0
 41 57  1  0  0  0  0
 41 46  1  0  0  0  0
 42 41  2  0  0  0  0
 43 42  1  0  0  0  0
 43 44  2  0  0  0  0
 44 45  1  0  0  0  0
 45 46  2  0  0  0  0
 45 48  1  0  0  0  0
 46 66  1  0  0  0  0
 47 43  1  0  0  0  0
 48 17  1  0  0  0  0
 48 16  1  0  0  0  0
 49 54  1  0  0  0  0
 50 51  1  0  0  0  0
 50 49  2  0  0  0  0
 51 52  2  0  0  0  0
 52 68  1  0  0  0  0
 52 53  1  0  0  0  0
 53 56  1  0  0  0  0
 54 53  2  0  0  0  0
 54 69  1  0  0  0  0
 55 20  1  0  0  0  0
 55 51  1  0  0  0  0
 56 23  1  0  0  0  0
 56 22  1  0  0  0  0
 57 49  1  0  0  0  0
 59 28  1  0  0  0  0
 61 34  1  0  0  0  0
 63 38  1  0  0  0  0
 64 42  1  0  0  0  0
 65 44  1  0  0  0  0
 67 50  1  0  0  0  0
M  END
