4
q = 0.0, confidence = 0.916

 29 28  0  0  0  0  0  0  0  0999 V2000
    1.0899   -1.8444    0.1850 O   0  0  0  0  0  0  0  0  0  0  0  0
    0.4724    2.9281   -0.5816 O   0  0  0  0  0  0  0  0  0  0  0  0
   -0.0779    2.1835   -0.9361 H   0  0  0  0  0  0  0  0  0  0  0  0
    1.2750    0.8102    0.2766 C   0  0  0  0  0  2  0  0  0  0  0  0
    2.3739   -0.0135    0.9179 C   0  0  0  0  0  0  0  0  0  0  0  0
    2.1171   -0.1284    1.9954 H   0  0  0  0  0  0  0  0  0  0  0  0
    3.3695    0.4785    0.8886 H   0  0  0  0  0  0  0  0  0  0  0  0
    2.4936   -1.4126    0.2894 C   0  0  0  0  0  0  0  0  0  0  0  0
    0.8370   -3.0087   -0.6087 C   0  0  0  0  0  0  0  0  0  0  0  0
   -0.1908   -3.3316   -0.3682 H   0  0  0  0  0  0  0  0  0  0  0  0
    1.5408   -3.8232   -0.3394 H   0  0  0  0  0  0  0  0  0  0  0  0
    0.8926   -2.7755   -1.6904 H   0  0  0  0  0  0  0  0  0  0  0  0
    1.6135    2.2544   -0.0632 C   0  0  0  0  0  0  0  0  0  0  0  0
    2.1304    3.0640    1.1383 C   0  0  0  0  0  0  0  0  0  0  0  0
    2.2903    4.1143    0.8228 H   0  0  0  0  0  0  0  0  0  0  0  0
    3.0925    2.6669    1.5165 H   0  0  0  0  0  0  0  0  0  0  0  0
    1.3951    3.0595    1.9645 H   0  0  0  0  0  0  0  0  0  0  0  0
    2.6837    2.2117   -1.1888 C   0  0  0  0  0  0  0  0  0  0  0  0
    2.2967    1.6278   -2.0468 H   0  0  0  0  0  0  0  0  0  0  0  0
    3.6500    1.7801   -0.8609 H   0  0  0  0  0  0  0  0  0  0  0  0
    2.8561    3.2531   -1.5252 H   0  0  0  0  0  0  0  0  0  0  0  0
    3.2379   -2.3700    1.2235 C   0  0  0  0  0  0  0  0  0  0  0  0
    2.7137   -2.4531    2.1959 H   0  0  0  0  0  0  0  0  0  0  0  0
    4.2633   -1.9936    1.4096 H   0  0  0  0  0  0  0  0  0  0  0  0
    3.3367   -3.3830    0.7855 H   0  0  0  0  0  0  0  0  0  0  0  0
    3.1437   -1.3392   -1.0954 C   0  0  0  0  0  0  0  0  0  0  0  0
    3.3103   -2.3487   -1.5197 H   0  0  0  0  0  0  0  0  0  0  0  0
    4.1308   -0.8424   -1.0212 H   0  0  0  0  0  0  0  0  0  0  0  0
    2.4976   -0.7687   -1.7911 H   0  0  0  0  0  0  0  0  0  0  0  0
  1  8  1  0  0  0  0
  2 13  1  0  0  0  0
  3  2  1  0  0  0  0
  4  5  1  0  0  0  0
  5  6  1  0  0  0  0
  7  5  1  0  0  0  0
  8  5  1  0  0  0  0
  8 22  1  0  0  0  0
  9 10  1  0  0  0  0
  9 11  1  0  0  0  0
  9  1  1  0  0  0  0
 12  9  1  0  0  0  0
 13  4  1  0  0  0  0
 13 14  1  0  0  0  0
 14 16  1  0  0  0  0
 14 17  1  0  0  0  0
 15 14  1  0  0  0  0
 18 20  1  0  0  0  0
 18 13  1  0  0  0  0
 19 18  1  0  0  0  0
 21 18  1  0  0  0  0
 22 24  1  0  0  0  0
 22 23  1  0  0  0  0
 25 22  1  0  0  0  0
 26 28  1  0  0  0  0
 26  8  1  0  0  0  0
 27 26  1  0  0  0  0
 29 26  1  0  0  0  0
M  END
