6
q = -1.0

 46 46  0  0  0  0  0  0  0  0999 V2000
   -0.2531   -0.4674    1.9079 O   0  0  0  0  0  0  0  0  0  0  0  0
    0.0645   -1.7810   -0.4172 O   0  0  0  0  0  0  0  0  0  0  0  0
   -1.3287   -1.2115   -2.7612 O   0  0  0  0  0  0  0  0  0  0  0  0
   -3.4447   -0.0709   -1.0914 O   0  0  0  0  0  0  0  0  0  0  0  0
   -4.2017   -1.6363    1.2456 O   0  0  0  0  0  0  0  0  0  0  0  0
    0.2462    1.9447    0.2716 C   0  0  0  0  0  3  0  0  0  0  0  0
   -1.0032    1.6118    0.8403 C   0  0  0  0  0  0  0  0  0  0  0  0
   -2.0190    2.5912    0.8491 C   0  0  0  0  0  0  0  0  0  0  0  0
   -2.9931    2.3405    1.2993 H   0  0  0  0  0  0  0  0  0  0  0  0
   -1.8141    3.8628    0.2990 C   0  0  0  0  0  0  0  0  0  0  0  0
   -2.6254    4.6065    0.3186 H   0  0  0  0  0  0  0  0  0  0  0  0
   -0.5702    4.1873   -0.2628 C   0  0  0  0  0  0  0  0  0  0  0  0
   -0.3938    5.1861   -0.6908 H   0  0  0  0  0  0  0  0  0  0  0  0
    0.4566    3.2299   -0.2685 C   0  0  0  0  0  0  0  0  0  0  0  0
    1.4316    3.4950   -0.7054 H   0  0  0  0  0  0  0  0  0  0  0  0
   -1.3577    0.2285    1.3320 C   0  0  0  0  0  0  0  0  0  0  0  0
   -2.1788    0.3130    2.0834 H   0  0  0  0  0  0  0  0  0  0  0  0
   -1.7687   -0.3420    0.4703 H   0  0  0  0  0  0  0  0  0  0  0  0
   -0.4345   -1.8820    1.8964 C   0  0  0  0  0  0  0  0  0  0  0  0
   -1.5171   -2.1197    1.8084 H   0  0  0  0  0  0  0  0  0  0  0  0
   -0.0653   -2.2887    2.8624 H   0  0  0  0  0  0  0  0  0  0  0  0
    0.3291   -2.5402    0.7478 C   0  0  0  0  0  0  0  0  0  0  0  0
    1.4269   -2.5645    0.9492 H   0  0  0  0  0  0  0  0  0  0  0  0
   -0.0199   -3.5952    0.6321 H   0  0  0  0  0  0  0  0  0  0  0  0
    0.4370   -2.3794   -1.6429 C   0  0  0  0  0  0  0  0  0  0  0  0
   -0.1147   -3.3397   -1.7881 H   0  0  0  0  0  0  0  0  0  0  0  0
    1.5327   -2.5946   -1.6732 H   0  0  0  0  0  0  0  0  0  0  0  0
    0.0713   -1.4031   -2.7468 C   0  0  0  0  0  0  0  0  0  0  0  0
    0.6062   -0.4415   -2.5647 H   0  0  0  0  0  0  0  0  0  0  0  0
    0.4316   -1.7987   -3.7270 H   0  0  0  0  0  0  0  0  0  0  0  0
   -1.7722    0.1277   -2.8025 C   0  0  0  0  0  0  0  0  0  0  0  0
   -1.6259    0.5818   -3.8154 H   0  0  0  0  0  0  0  0  0  0  0  0
   -1.2223    0.7633   -2.0675 H   0  0  0  0  0  0  0  0  0  0  0  0
   -3.2514    0.1544   -2.4740 C   0  0  0  0  0  0  0  0  0  0  0  0
   -3.6831    1.1412   -2.7776 H   0  0  0  0  0  0  0  0  0  0  0  0
   -3.7601   -0.6352   -3.0784 H   0  0  0  0  0  0  0  0  0  0  0  0
   -4.7652   -0.4311   -0.7618 C   0  0  0  0  0  0  0  0  0  0  0  0
   -5.0406   -1.4072   -1.2333 H   0  0  0  0  0  0  0  0  0  0  0  0
   -5.4959    0.3328   -1.1313 H   0  0  0  0  0  0  0  0  0  0  0  0
   -4.9281   -0.5379    0.7404 C   0  0  0  0  0  0  0  0  0  0  0  0
   -4.5935    0.4171    1.2197 H   0  0  0  0  0  0  0  0  0  0  0  0
   -6.0192   -0.6494    0.9654 H   0  0  0  0  0  0  0  0  0  0  0  0
   -4.3997   -1.8180    2.6274 C   0  0  0  0  0  0  0  0  0  0  0  0
   -3.8017   -2.6948    2.9438 H   0  0  0  0  0  0  0  0  0  0  0  0
   -5.4729   -2.0094    2.8750 H   0  0  0  0  0  0  0  0  0  0  0  0
   -4.0673   -0.9314    3.2220 H   0  0  0  0  0  0  0  0  0  0  0  0
  2 22  1  0  0  0  0
  3 28  1  0  0  0  0
  4 37  1  0  0  0  0
  5 43  1  0  0  0  0
  6  7  1  0  0  0  0
  7  8  2  0  0  0  0
  7 16  1  0  0  0  0
  8  9  1  0  0  0  0
 10 11  1  0  0  0  0
 10  8  1  0  0  0  0
 12 10  2  0  0  0  0
 13 12  1  0  0  0  0
 14 12  1  0  0  0  0
 14  6  2  0  0  0  0
 15 14  1  0  0  0  0
 16  1  1  0  0  0  0
 16 17  1  0  0  0  0
 18 16  1  0  0  0  0
 19  1  1  0  0  0  0
 19 21  1  0  0  0  0
 20 19  1  0  0  0  0
 22 23  1  0  0  0  0
 22 19  1  0  0  0  0
 24 22  1  0  0  0  0
 25  2  1  0  0  0  0
 26 25  1  0  0  0  0
 27 25  1  0  0  0  0
 28 29  1  0  0  0  0
 28 25  1  0  0  0  0
 30 28  1  0  0  0  0
 31  3  1  0  0  0  0
 31 34  1  0  0  0  0
 31 33  1  0  0  0  0
 32 31  1  0  0  0  0
 34  4  1  0  0  0  0
 35 34  1  0  0  0  0
 36 34  1  0  0  0  0
 37 40  1  0  0  0  0
 38 37  1  0  0  0  0
 39 37  1  0  0  0  0
 40 42  1  0  0  0  0
 40 41  1  0  0  0  0
 40  5  1  0  0  0  0
 43 45  1  0  0  0  0
 43 44  1  0  0  0  0
 43 46  1  0  0  0  0
M  END
