1
q = -1.0, confidence = 0.0

 17 17  0  0  0  0  0  0  0  0999 V2000
   -1.0662    1.4630    0.1400 C   0  0  0  0  0  3  0  0  0  0  0  0
   -2.5987    1.4196    0.2730 C   0  0  0  0  0  0  0  0  0  0  0  0
   -3.2357    2.7700    0.0291 C   0  0  0  0  0  0  0  0  0  0  0  0
   -3.4323    3.2378   -1.2876 C   0  0  0  0  0  0  0  0  0  0  0  0
   -3.9800    4.5056   -1.5296 C   0  0  0  0  0  0  0  0  0  0  0  0
   -4.3391    5.3351   -0.4542 C   0  0  0  0  0  0  0  0  0  0  0  0
   -4.1460    4.8844    0.8609 C   0  0  0  0  0  0  0  0  0  0  0  0
   -3.5986    3.6137    1.0974 C   0  0  0  0  0  0  0  0  0  0  0  0
   -0.6608    2.1638    0.8991 H   0  0  0  0  0  0  0  0  0  0  0  0
   -0.7958    1.8915   -0.8540 H   0  0  0  0  0  0  0  0  0  0  0  0
   -2.8763    1.0516    1.2833 H   0  0  0  0  0  0  0  0  0  0  0  0
   -3.0147    0.6939   -0.4531 H   0  0  0  0  0  0  0  0  0  0  0  0
   -3.1464    2.5932   -2.1352 H   0  0  0  0  0  0  0  0  0  0  0  0
   -4.1300    4.8496   -2.5647 H   0  0  0  0  0  0  0  0  0  0  0  0
   -4.7702    6.3303   -0.6418 H   0  0  0  0  0  0  0  0  0  0  0  0
   -4.4261    5.5267    1.7103 H   0  0  0  0  0  0  0  0  0  0  0  0
   -3.4515    3.2626    2.1317 H   0  0  0  0  0  0  0  0  0  0  0  0
  1  2  1  0  0  0  0
  1  9  1  0  0  0  0
  2 11  1  0  0  0  0
  3  2  1  0  0  0  0
  3  8  1  0  0  0  0
  4  3  2  0  0  0  0
  5  4  1  0  0  0  0
  5  6  2  0  0  0  0
  6  7  1  0  0  0  0
  7  8  2  0  0  0  0
  7 16  1  0  0  0  0
  8 17  1  0  0  0  0
 10  1  1  0  0  0  0
 12  2  1  0  0  0  0
 13  4  1  0  0  0  0
 14  5  1  0  0  0  0
 15  6  1  0  0  0  0
M  END
