8
q = 0.0, confidence = 1.0

 35 36  0  0  0  0  0  0  0  0999 V2000
   -2.8703    0.2603   -0.5193 N   0  0  0  0  0  0  0  0  0  0  0  0
   -3.1573    1.2471   -0.7068 H   0  0  0  0  0  0  0  0  0  0  0  0
   -1.2439   -0.9750    0.5230 N   0  0  0  0  0  0  0  0  0  0  0  0
   -1.9212   -1.7508    0.4911 H   0  0  0  0  0  0  0  0  0  0  0  0
    2.8110   -3.6233    0.9887 N   0  0  0  0  0  0  0  0  0  0  0  0
    3.8172   -3.5128    1.1229 H   0  0  0  0  0  0  0  0  0  0  0  0
    2.5818   -4.0415    0.0866 H   0  0  0  0  0  0  0  0  0  0  0  0
   -1.6215    0.1971   -0.0323 C   0  0  0  0  0  2  0  0  0  0  0  0
   -3.8592   -0.7641   -0.3660 C   0  0  0  0  0  0  0  0  0  0  0  0
   -3.9247   -1.8003   -1.3294 C   0  0  0  0  0  0  0  0  0  0  0  0
   -2.9748   -1.8141   -2.4998 C   0  0  0  0  0  0  0  0  0  0  0  0
   -3.0220   -0.8616   -3.0658 H   0  0  0  0  0  0  0  0  0  0  0  0
   -3.2042   -2.6463   -3.1913 H   0  0  0  0  0  0  0  0  0  0  0  0
   -1.9191   -1.9218   -2.1713 H   0  0  0  0  0  0  0  0  0  0  0  0
   -4.9066   -2.7949   -1.1590 C   0  0  0  0  0  0  0  0  0  0  0  0
   -4.9805   -3.6072   -1.8985 H   0  0  0  0  0  0  0  0  0  0  0  0
   -5.7927   -2.7488   -0.0736 C   0  0  0  0  0  0  0  0  0  0  0  0
   -6.5608   -3.5289    0.0389 H   0  0  0  0  0  0  0  0  0  0  0  0
   -5.7077   -1.7134    0.8676 C   0  0  0  0  0  0  0  0  0  0  0  0
   -6.4056   -1.6831    1.7187 H   0  0  0  0  0  0  0  0  0  0  0  0
   -4.7339   -0.7037    0.7468 C   0  0  0  0  0  0  0  0  0  0  0  0
   -4.5877    0.3879    1.7750 C   0  0  0  0  0  0  0  0  0  0  0  0
   -5.4864    0.4579    2.4160 H   0  0  0  0  0  0  0  0  0  0  0  0
   -4.3861    1.3785    1.3207 H   0  0  0  0  0  0  0  0  0  0  0  0
   -3.7182    0.1823    2.4368 H   0  0  0  0  0  0  0  0  0  0  0  0
   -0.0157   -1.2205    1.1986 C   0  0  0  0  0  0  0  0  0  0  0  0
    0.7517   -2.3322    0.8173 C   0  0  0  0  0  0  0  0  0  0  0  0
    0.3766   -3.0013    0.0273 H   0  0  0  0  0  0  0  0  0  0  0  0
    2.0291   -2.5506    1.3835 C   0  0  0  0  0  0  0  0  0  0  0  0
    2.4864   -1.6461    2.3753 C   0  0  0  0  0  0  0  0  0  0  0  0
    3.4814   -1.7953    2.8212 H   0  0  0  0  0  0  0  0  0  0  0  0
    1.6897   -0.5695    2.7762 C   0  0  0  0  0  0  0  0  0  0  0  0
    2.0584    0.1135    3.5562 H   0  0  0  0  0  0  0  0  0  0  0  0
    0.4320   -0.3385    2.1977 C   0  0  0  0  0  0  0  0  0  0  0  0
   -0.1869    0.5199    2.4912 H   0  0  0  0  0  0  0  0  0  0  0  0
  1  9  1  0  0  0  0
  1  8  1  0  0  0  0
  2  1  1  0  0  0  0
  3 26  1  0  0  0  0
  4  3  1  0  0  0  0
  5  6  1  0  0  0  0
  5 29  1  0  0  0  0
  7  5  1  0  0  0  0
  8  3  1  0  0  0  0
  9 21  1  0  0  0  0
 10 15  1  0  0  0  0
 10  9  2  0  0  0  0
 11 14  1  0  0  0  0
 11 10  1  0  0  0  0
 12 11  1  0  0  0  0
 13 11  1  0  0  0  0
 15 17  2  0  0  0  0
 16 15  1  0  0  0  0
 17 18  1  0  0  0  0
 17 19  1  0  0  0  0
 19 20  1  0  0  0  0
 21 19  2  0  0  0  0
 21 22  1  0  0  0  0
 22 23  1  0  0  0  0
 22 25  1  0  0  0  0
 24 22  1  0  0  0  0
 26 34  1  0  0  0  0
 27 26  2  0  0  0  0
 27 29  1  0  0  0  0
 28 27  1  0  0  0  0
 29 30  2  0  0  0  0
 30 32  1  0  0  0  0
 30 31  1  0  0  0  0
 32 33  1  0  0  0  0
 34 35  1  0  0  0  0
 34 32  2  0  0  0  0
M  END
