5
q = -1.0

 54 57  0  0  1  0  0  0  0  0999 V2000
    2.6996    0.9232   -1.7611 O   0  0  0  0  0  0  0  0  0  0  0  0
   -0.5323    1.1910    1.4141 O   0  0  0  0  0  0  0  0  0  0  0  0
    1.6561    1.8165    0.0416 N   0  0  0  0  0  0  0  0  0  0  0  0
   -0.8653    0.1433   -0.7548 C   0  0  0  0  0  0  0  0  0  0  0  0
    0.4630    0.1845   -1.3561 C   0  0  2  0  0  3  0  0  0  0  0  0
    0.5036   -0.8067   -2.4079 C   0  0  0  0  0  0  0  0  0  0  0  0
   -0.7667   -1.4452   -2.4721 C   0  0  0  0  0  0  0  0  0  0  0  0
   -1.6088   -0.8585   -1.4563 C   0  0  0  0  0  0  0  0  0  0  0  0
   -1.4078    1.1101    0.3131 C   0  0  0  0  0  0  0  0  0  0  0  0
   -1.5883    2.5038   -0.3328 C   0  0  0  0  0  0  0  0  0  0  0  0
   -1.7386    2.7013   -1.7175 C   0  0  0  0  0  0  0  0  0  0  0  0
   -1.9263    3.9934   -2.2374 C   0  0  0  0  0  0  0  0  0  0  0  0
   -1.9658    5.1004   -1.3779 C   0  0  0  0  0  0  0  0  0  0  0  0
   -1.8162    4.9083    0.0063 C   0  0  0  0  0  0  0  0  0  0  0  0
   -1.6283    3.6205    0.5239 C   0  0  0  0  0  0  0  0  0  0  0  0
   -2.7604    0.5889    0.8296 C   0  0  0  0  0  0  0  0  0  0  0  0
   -3.9506    0.7834    0.1024 C   0  0  0  0  0  0  0  0  0  0  0  0
   -5.1629    0.2484    0.5639 C   0  0  0  0  0  0  0  0  0  0  0  0
   -5.2014   -0.4794    1.7639 C   0  0  0  0  0  0  0  0  0  0  0  0
   -4.0207   -0.6613    2.5003 C   0  0  0  0  0  0  0  0  0  0  0  0
   -2.8065   -0.1309    2.0375 C   0  0  0  0  0  0  0  0  0  0  0  0
    1.5947    1.0259   -0.9784 C   0  0  0  0  0  0  0  0  0  0  0  0
    3.6533    1.8728   -1.2184 C   0  0  0  0  0  0  0  0  0  0  0  0
    3.0365    2.3037    0.1409 C   0  0  2  0  0  0  0  0  0  0  0  0
    3.7473    1.7298    1.4089 C   0  0  0  0  0  0  0  0  0  0  0  0
    2.9465    2.1474    2.6560 C   0  0  0  0  0  0  0  0  0  0  0  0
    3.8200    0.1939    1.3414 C   0  0  0  0  0  0  0  0  0  0  0  0
    5.1618    2.3301    1.4887 C   0  0  0  0  0  0  0  0  0  0  0  0
   -1.7066    1.8423   -2.4044 H   0  0  0  0  0  0  0  0  0  0  0  0
   -2.0387    4.1325   -3.3236 H   0  0  0  0  0  0  0  0  0  0  0  0
   -2.1109    6.1127   -1.7850 H   0  0  0  0  0  0  0  0  0  0  0  0
   -1.8455    5.7718    0.6886 H   0  0  0  0  0  0  0  0  0  0  0  0
   -1.4973    3.4558    1.6030 H   0  0  0  0  0  0  0  0  0  0  0  0
   -3.9319    1.3698   -0.8286 H   0  0  0  0  0  0  0  0  0  0  0  0
   -6.0856    0.4109   -0.0141 H   0  0  0  0  0  0  0  0  0  0  0  0
   -6.1527   -0.8960    2.1285 H   0  0  0  0  0  0  0  0  0  0  0  0
   -4.0422   -1.2211    3.4478 H   0  0  0  0  0  0  0  0  0  0  0  0
   -1.8807   -0.2562    2.6134 H   0  0  0  0  0  0  0  0  0  0  0  0
   -2.6541   -1.1138   -1.2511 H   0  0  0  0  0  0  0  0  0  0  0  0
   -1.0563   -2.2361   -3.1733 H   0  0  0  0  0  0  0  0  0  0  0  0
    1.3770   -1.0099   -3.0380 H   0  0  0  0  0  0  0  0  0  0  0  0
    3.7428    2.7142   -1.9360 H   0  0  0  0  0  0  0  0  0  0  0  0
    4.6326    1.3638   -1.1359 H   0  0  0  0  0  0  0  0  0  0  0  0
    3.0295    3.4107    0.2377 H   0  0  0  0  0  0  0  0  0  0  0  0
    1.9417    1.6827    2.6702 H   0  0  0  0  0  0  0  0  0  0  0  0
    2.8171    3.2487    2.7019 H   0  0  0  0  0  0  0  0  0  0  0  0
    3.4774    1.8300    3.5762 H   0  0  0  0  0  0  0  0  0  0  0  0
    5.6865    1.9609    2.3929 H   0  0  0  0  0  0  0  0  0  0  0  0
    5.1269    3.4380    1.5477 H   0  0  0  0  0  0  0  0  0  0  0  0
    5.7855    2.0541    0.6133 H   0  0  0  0  0  0  0  0  0  0  0  0
    4.4107   -0.1684    0.4754 H   0  0  0  0  0  0  0  0  0  0  0  0
    2.8081   -0.2525    1.2749 H   0  0  0  0  0  0  0  0  0  0  0  0
    4.3000   -0.2084    2.2560 H   0  0  0  0  0  0  0  0  0  0  0  0
    0.3412    1.5483    1.0482 H   0  0  0  0  0  0  0  0  0  0  0  0
  1 23  1  0  0  0  0
  1 22  1  0  0  0  0
  3 24  1  0  0  0  0
  4  9  1  0  0  0  0
  5 22  1  1  0  0  0
  5  4  1  0  0  0  0
  6  5  1  0  0  0  0
  7  6  2  0  0  0  0
  7  8  1  0  0  0  0
  8 39  1  0  0  0  0
  8  4  2  0  0  0  0
  9 16  1  0  0  0  0
  9  2  1  0  0  0  0
 10  9  1  0  0  0  0
 10 15  1  0  0  0  0
 11 10  2  0  0  0  0
 12 11  1  0  0  0  0
 12 13  2  0  0  0  0
 13 14  1  0  0  0  0
 14 15  2  0  0  0  0
 14 32  1  0  0  0  0
 15 33  1  0  0  0  0
 16 21  1  0  0  0  0
 17 18  1  0  0  0  0
 17 16  2  0  0  0  0
 18 19  2  0  0  0  0
 19 36  1  0  0  0  0
 19 20  1  0  0  0  0
 20 37  1  0  0  0  0
 21 20  2  0  0  0  0
 21 38  1  0  0  0  0
 22  3  2  0  0  0  0
 23 43  1  0  0  0  0
 23 24  1  0  0  0  0
 24 44  1  1  0  0  0
 24 25  1  0  0  0  0
 25 28  1  0  0  0  0
 25 26  1  0  0  0  0
 26 45  1  0  0  0  0
 26 46  1  0  0  0  0
 26 47  1  0  0  0  0
 27 25  1  0  0  0  0
 27 53  1  0  0  0  0
 28 49  1  0  0  0  0
 28 48  1  0  0  0  0
 29 11  1  0  0  0  0
 30 12  1  0  0  0  0
 31 13  1  0  0  0  0
 34 17  1  0  0  0  0
 35 18  1  0  0  0  0
 40  7  1  0  0  0  0
 41  6  1  0  0  0  0
 42 23  1  0  0  0  0
 50 28  1  0  0  0  0
 51 27  1  0  0  0  0
 52 27  1  0  0  0  0
 54  2  1  0  0  0  0
M  END
