3
q = -1.0

  9  9  0  0  0  0  0  0  0  0999 V2000
   -0.0002    3.9796   -0.9448 N   0  0  0  0  0  0  0  0  0  0  0  0
    0.0005    3.8694    1.4546 N   0  0  0  0  0  0  0  0  0  0  0  0
    0.0002    1.8216    0.1569 C   0  0  0  0  0  2  0  0  0  0  0  0
    0.0005    2.5245    1.3785 C   0  0  0  0  0  0  0  0  0  0  0  0
    0.0008    1.9806    2.3421 H   0  0  0  0  0  0  0  0  0  0  0  0
    0.0001    4.5221    0.2833 C   0  0  0  0  0  0  0  0  0  0  0  0
    0.0001    5.6275    0.3336 H   0  0  0  0  0  0  0  0  0  0  0  0
   -0.0001    2.6370   -0.9950 C   0  0  0  0  0  3  0  0  0  0  0  0
   -0.0004    2.1866   -2.0047 H   0  0  0  0  0  0  0  0  0  0  0  0
  1  6  2  0  0  0  0
  3  4  1  0  0  0  0
  4  2  2  0  0  0  0
  4  5  1  0  0  0  0
  6  7  1  0  0  0  0
  6  2  1  0  0  0  0
  8  1  1  0  0  0  0
  8  3  1  0  0  0  0
  9  8  1  0  0  0  0
M  END
