18
q = -1.0

 20 21  0  0  0  0  0  0  0  0999 V2000
    1.9151   -2.4433    0.1884 F   0  0  0  0  0  0  0  0  0  0  0  0
    4.5824   -2.4023    0.1922 F   0  0  0  0  0  0  0  0  0  0  0  0
    4.5006    2.3612   -0.1838 F   0  0  0  0  0  0  0  0  0  0  0  0
    1.8331    2.3107   -0.1801 F   0  0  0  0  0  0  0  0  0  0  0  0
    8.9841    0.0561    0.0067 N   0  0  0  0  0  0  0  0  0  0  0  0
    8.2951   -0.8857   -0.6580 C   0  0  0  0  0  0  0  0  0  0  0  0
    8.8934   -1.6375   -1.2044 H   0  0  0  0  0  0  0  0  0  0  0  0
    6.8956   -0.9575   -0.6941 C   0  0  0  0  0  0  0  0  0  0  0  0
    6.3998   -1.7548   -1.2638 H   0  0  0  0  0  0  0  0  0  0  0  0
    6.1368    0.0068    0.0051 C   0  0  0  0  0  0  0  0  0  0  0  0
    6.8610    0.9967    0.7052 C   0  0  0  0  0  0  0  0  0  0  0  0
    6.3373    1.7763    1.2745 H   0  0  0  0  0  0  0  0  0  0  0  0
    8.2622    0.9733    0.6706 C   0  0  0  0  0  0  0  0  0  0  0  0
    8.8335    1.7453    1.2177 H   0  0  0  0  0  0  0  0  0  0  0  0
    4.6550   -0.0187    0.0044 C   0  0  0  0  0  0  0  0  0  0  0  0
    3.9288   -1.2285    0.0895 C   0  0  0  0  0  0  0  0  0  0  0  0
    2.5254   -1.2422    0.0923 C   0  0  0  0  0  0  0  0  0  0  0  0
    1.7669   -0.0689    0.0044 C   0  0  0  0  0  3  0  0  0  0  0  0
    2.4853    1.1298   -0.0837 C   0  0  0  0  0  0  0  0  0  0  0  0
    3.8879    1.1655   -0.0810 C   0  0  0  0  0  0  0  0  0  0  0  0
  3 20  1  0  0  0  0
  4 19  1  0  0  0  0
  5 13  1  0  0  0  0
  6  5  2  0  0  0  0
  7  6  1  0  0  0  0
  8  6  1  0  0  0  0
  8 10  2  0  0  0  0
  9  8  1  0  0  0  0
 10 11  1  0  0  0  0
 11 12  1  0  0  0  0
 13 11  2  0  0  0  0
 13 14  1  0  0  0  0
 15 10  1  0  0  0  0
 15 16  1  0  0  0  0
 16 17  2  0  0  0  0
 16  2  1  0  0  0  0
 17  1  1  0  0  0  0
 18 17  1  0  0  0  0
 19 20  1  0  0  0  0
 19 18  2  0  0  0  0
 20 15  2  0  0  0  0
M  END
