3
q = 0.0, confidence = 0.81

 21 22  0  0  1  0  0  0  0  0999 V2000
   -2.1907    0.5837   -0.2790 O   0  0  0  0  0  0  0  0  0  0  0  0
   -2.4388   -1.1988    0.9741 N   0  0  0  0  0  0  0  0  0  0  0  0
    0.2226    0.7268   -0.5336 C   0  0  0  0  0  2  0  0  0  0  0  0
   -0.8416    0.1360    0.0092 C   0  0  2  0  0  3  0  0  0  0  0  0
   -0.9781   -1.0651    0.9228 C   0  0  0  0  0  0  0  0  0  0  0  0
   -3.0450   -0.2357    0.2834 C   0  0  2  0  0  3  0  0  0  0  0  0
   -4.4759   -0.0357    0.1114 C   0  0  0  0  0  0  0  0  0  0  0  0
   -4.9241    1.0126   -0.7272 C   0  0  0  0  0  0  0  0  0  0  0  0
   -5.4171   -0.8661    0.7647 C   0  0  0  0  0  0  0  0  0  0  0  0
   -6.2947    1.2196   -0.9077 C   0  0  0  0  0  0  0  0  0  0  0  0
   -6.7853   -0.6511    0.5762 C   0  0  0  0  0  0  0  0  0  0  0  0
   -7.2256    0.3903   -0.2593 C   0  0  0  0  0  0  0  0  0  0  0  0
    0.0979    1.6035   -1.1878 H   0  0  0  0  0  0  0  0  0  0  0  0
   -0.5543   -0.8944    1.9371 H   0  0  0  0  0  0  0  0  0  0  0  0
   -0.4696   -1.9501    0.4737 H   0  0  0  0  0  0  0  0  0  0  0  0
   -2.9315   -1.9495    1.4571 H   0  0  0  0  0  0  0  0  0  0  0  0
   -4.1855    1.6522   -1.2300 H   0  0  0  0  0  0  0  0  0  0  0  0
   -5.0907   -1.6804    1.4295 H   0  0  0  0  0  0  0  0  0  0  0  0
   -6.6412    2.0340   -1.5605 H   0  0  0  0  0  0  0  0  0  0  0  0
   -7.5148   -1.2972    1.0856 H   0  0  0  0  0  0  0  0  0  0  0  0
   -8.3036    0.5562   -0.4044 H   0  0  0  0  0  0  0  0  0  0  0  0
  1  4  1  0  0  0  0
  1  6  1  0  0  0  0
  2 16  1  0  0  0  0
  4  3  1  6  0  0  0
  4  5  1  0  0  0  0
  5  2  1  0  0  0  0
  5 14  1  0  0  0  0
  6  7  1  6  0  0  0
  6  2  1  0  0  0  0
  7  9  1  0  0  0  0
  8  7  2  0  0  0  0
  9 18  1  0  0  0  0
 10  8  1  0  0  0  0
 10 12  2  0  0  0  0
 11  9  2  0  0  0  0
 11 20  1  0  0  0  0
 12 11  1  0  0  0  0
 13  3  1  0  0  0  0
 15  5  1  0  0  0  0
 17  8  1  0  0  0  0
 19 10  1  0  0  0  0
 21 12  1  0  0  0  0
M  END
