7
q = 0.0, confidence = 1.0

 25 26  0  0  1  0  0  0  0  0999 V2000
   -2.7703   -0.3605   -1.1357 N   0  0  0  0  0  0  0  0  0  0  0  0
    0.8594   -1.1862   -1.1559 C   0  0  0  0  0  0  0  0  0  0  0  0
    0.6524    1.2677   -1.0457 C   0  0  0  0  0  0  0  0  0  0  0  0
    1.8410   -2.1260   -1.2910 O   0  0  0  0  0  0  0  0  0  0  0  0
   -1.3970   -0.2155   -1.1057 C   0  0  1  0  0  3  0  0  0  0  0  0
    1.4469    0.1010   -1.1329 C   0  0  0  0  0  0  0  0  0  0  0  0
   -0.7775    1.0702   -1.0122 C   0  0  0  0  0  3  0  0  0  0  0  0
    2.7991   -0.0173   -1.2488 O   0  0  0  0  0  0  0  0  0  0  0  0
    0.5255    3.6326   -0.8058 O   0  0  0  0  0  0  0  0  0  0  0  0
   -3.3453   -1.6709   -0.8767 C   0  0  0  0  0  0  0  0  0  0  0  0
   -4.4408   -1.6144   -1.0107 H   0  0  0  0  0  0  0  0  0  0  0  0
   -3.1359   -2.0371    0.1557 H   0  0  0  0  0  0  0  0  0  0  0  0
   -2.9664   -2.4215   -1.5986 H   0  0  0  0  0  0  0  0  0  0  0  0
   -0.5276   -1.3781   -1.0426 C   0  0  0  0  0  0  0  0  0  0  0  0
    1.2137    2.6240   -0.8597 C   0  0  0  0  0  0  0  0  0  0  0  0
   -3.5866    0.7958   -0.8031 C   0  0  0  0  0  0  0  0  0  0  0  0
   -4.6532    0.5286   -0.9111 H   0  0  0  0  0  0  0  0  0  0  0  0
   -3.3817    1.6388   -1.4923 H   0  0  0  0  0  0  0  0  0  0  0  0
   -3.4109    1.1497    0.2407 H   0  0  0  0  0  0  0  0  0  0  0  0
    3.0608   -1.4159   -1.0337 C   0  0  0  0  0  0  0  0  0  0  0  0
   -1.3662    1.9905   -0.9212 H   0  0  0  0  0  0  0  0  0  0  0  0
   -0.9229   -2.3968   -0.9786 H   0  0  0  0  0  0  0  0  0  0  0  0
    2.3359    2.6588   -0.7691 H   0  0  0  0  0  0  0  0  0  0  0  0
    3.8435   -1.7560   -1.7389 H   0  0  0  0  0  0  0  0  0  0  0  0
    3.3618   -1.5680    0.0282 H   0  0  0  0  0  0  0  0  0  0  0  0
  1 10  1  0  0  0  0
  1 16  1  0  0  0  0
  2  6  1  0  0  0  0
  2 14  2  0  0  0  0
  3  7  1  0  0  0  0
  3 15  1  0  0  0  0
  4  2  1  0  0  0  0
  4 20  1  0  0  0  0
  5  1  1  1  0  0  0
  5 14  1  0  0  0  0
  5  7  1  0  0  0  0
  6  3  2  0  0  0  0
  7 21  1  0  0  0  0
  8  6  1  0  0  0  0
  8 20  1  0  0  0  0
 10 12  1  0  0  0  0
 11 10  1  0  0  0  0
 13 10  1  0  0  0  0
 14 22  1  0  0  0  0
 15  9  2  0  0  0  0
 15 23  1  0  0  0  0
 16 19  1  0  0  0  0
 17 16  1  0  0  0  0
 18 16  1  0  0  0  0
 20 25  1  0  0  0  0
 24 20  1  0  0  0  0
M  END
