2
q = -1.0

 10  9  0  0  0  0  0  0  0  0999 V2000
    6.4275    0.4062    0.2245 I   0  0  0  0  0  0  0  0  0  0  0  0
    2.1923   -0.3010   -1.1818 C   0  0  0  0  0  3  0  0  0  0  0  0
    2.3952   -1.1844   -1.8228 H   0  0  0  0  0  0  0  0  0  0  0  0
    2.0752    0.5642   -1.8635 H   0  0  0  0  0  0  0  0  0  0  0  0
    3.3713   -0.0482   -0.2363 C   0  0  0  0  0  0  0  0  0  0  0  0
    3.4693   -0.8549    0.5198 H   0  0  0  0  0  0  0  0  0  0  0  0
    3.2275    0.8897    0.3365 H   0  0  0  0  0  0  0  0  0  0  0  0
    4.6616    0.0478   -1.0375 C   0  0  0  0  0  0  0  0  0  0  0  0
    4.6567    0.8912   -1.7534 H   0  0  0  0  0  0  0  0  0  0  0  0
    4.9007   -0.8856   -1.5815 H   0  0  0  0  0  0  0  0  0  0  0  0
  2  5  1  0  0  0  0
  3  2  1  0  0  0  0
  4  2  1  0  0  0  0
  5  7  1  0  0  0  0
  5  6  1  0  0  0  0
  8  5  1  0  0  0  0
  8  1  1  0  0  0  0
  9  8  1  0  0  0  0
 10  8  1  0  0  0  0
M  END
