5
q = -1.0, confidence = 0.0

 52 54  0  0  0  0  0  0  0  0999 V2000
    2.3768    3.1558   -0.0721 O   0  0  0  0  0  0  0  0  0  0  0  0
   -2.3747    3.1562   -0.0730 O   0  0  0  0  0  0  0  0  0  0  0  0
    1.1463    1.1816   -0.0115 N   0  0  0  0  0  0  0  0  0  0  0  0
   -1.1478    1.1780   -0.0116 N   0  0  0  0  0  0  0  0  0  0  0  0
    0.0004    0.4583   -0.0016 C   0  0  0  0  0  2  0  0  0  0  0  0
    1.2368    2.6824   -0.0760 C   0  0  0  0  0  0  0  0  0  0  0  0
   -0.0020    3.3555   -0.1541 C   0  0  0  0  0  3  0  0  0  0  0  0
   -1.2372    2.6769   -0.0763 C   0  0  0  0  0  0  0  0  0  0  0  0
   -0.0175    4.8550   -0.2432 C   0  0  0  0  0  0  0  0  0  0  0  0
    2.4557    0.5872    0.1036 C   0  0  0  0  0  0  0  0  0  0  0  0
    3.2624    0.4362   -1.0454 C   0  0  0  0  0  0  0  0  0  0  0  0
    4.5366   -0.1376   -0.8891 C   0  0  0  0  0  0  0  0  0  0  0  0
    5.0456   -0.4866    0.3757 C   0  0  0  0  0  0  0  0  0  0  0  0
    4.2595   -0.2021    1.5069 C   0  0  0  0  0  0  0  0  0  0  0  0
    2.9741    0.3531    1.3969 C   0  0  0  0  0  0  0  0  0  0  0  0
    2.8338    0.9916   -2.3773 C   0  0  0  0  0  0  0  0  0  0  0  0
    6.3991   -1.1351    0.5190 C   0  0  0  0  0  0  0  0  0  0  0  0
    2.1827    0.7345    2.6191 C   0  0  0  0  0  0  0  0  0  0  0  0
   -2.4565    0.5825    0.1036 C   0  0  0  0  0  0  0  0  0  0  0  0
   -3.2632    0.4316   -1.0454 C   0  0  0  0  0  0  0  0  0  0  0  0
   -4.5371   -0.1428   -0.8892 C   0  0  0  0  0  0  0  0  0  0  0  0
   -5.0459   -0.4923    0.3755 C   0  0  0  0  0  0  0  0  0  0  0  0
   -4.2598   -0.2076    1.5068 C   0  0  0  0  0  0  0  0  0  0  0  0
   -2.9748    0.3481    1.3968 C   0  0  0  0  0  0  0  0  0  0  0  0
   -2.8348    0.9872   -2.3773 C   0  0  0  0  0  0  0  0  0  0  0  0
   -6.3992   -1.1412    0.5190 C   0  0  0  0  0  0  0  0  0  0  0  0
   -2.1837    0.7302    2.6191 C   0  0  0  0  0  0  0  0  0  0  0  0
   -0.2695    5.3231    0.7339 H   0  0  0  0  0  0  0  0  0  0  0  0
   -0.7887    5.1978   -0.9623 H   0  0  0  0  0  0  0  0  0  0  0  0
    0.9780    5.2263   -0.5511 H   0  0  0  0  0  0  0  0  0  0  0  0
    5.1673   -0.2791   -1.7821 H   0  0  0  0  0  0  0  0  0  0  0  0
    4.6597   -0.4127    2.5114 H   0  0  0  0  0  0  0  0  0  0  0  0
    3.1430    2.0567   -2.4250 H   0  0  0  0  0  0  0  0  0  0  0  0
    1.7358    0.9919   -2.5032 H   0  0  0  0  0  0  0  0  0  0  0  0
    3.3003    0.4544   -3.2262 H   0  0  0  0  0  0  0  0  0  0  0  0
    6.3043   -2.2388    0.6115 H   0  0  0  0  0  0  0  0  0  0  0  0
    6.9259   -0.7805    1.4273 H   0  0  0  0  0  0  0  0  0  0  0  0
    7.0457   -0.9327   -0.3572 H   0  0  0  0  0  0  0  0  0  0  0  0
    1.1574    0.3124    2.6094 H   0  0  0  0  0  0  0  0  0  0  0  0
    2.0700    1.8382    2.6653 H   0  0  0  0  0  0  0  0  0  0  0  0
    2.6861    0.3965    3.5440 H   0  0  0  0  0  0  0  0  0  0  0  0
   -5.1679   -0.2843   -1.7822 H   0  0  0  0  0  0  0  0  0  0  0  0
   -4.6599   -0.4186    2.5113 H   0  0  0  0  0  0  0  0  0  0  0  0
   -3.3029    0.4513   -3.2260 H   0  0  0  0  0  0  0  0  0  0  0  0
   -1.7369    0.9857   -2.5042 H   0  0  0  0  0  0  0  0  0  0  0  0
   -3.1423    2.0529   -2.4241 H   0  0  0  0  0  0  0  0  0  0  0  0
   -7.0439   -0.9439   -0.3598 H   0  0  0  0  0  0  0  0  0  0  0  0
   -6.9284   -0.7822    1.4242 H   0  0  0  0  0  0  0  0  0  0  0  0
   -6.3036   -2.2442    0.6177 H   0  0  0  0  0  0  0  0  0  0  0  0
   -1.1578    0.3097    2.6091 H   0  0  0  0  0  0  0  0  0  0  0  0
   -2.6864    0.3909    3.5439 H   0  0  0  0  0  0  0  0  0  0  0  0
   -2.0728    1.8340    2.6659 H   0  0  0  0  0  0  0  0  0  0  0  0
  3  5  1  0  0  0  0
  3 10  1  0  0  0  0
  4  5  1  0  0  0  0
  4 19  1  0  0  0  0
  6  1  2  0  0  0  0
  6  3  1  0  0  0  0
  7  8  1  0  0  0  0
  7  6  1  0  0  0  0
  8  2  2  0  0  0  0
  8  4  1  0  0  0  0
  9  7  1  0  0  0  0
  9 28  1  0  0  0  0
 10 15  1  0  0  0  0
 11 12  1  0  0  0  0
 11 10  2  0  0  0  0
 12 13  2  0  0  0  0
 13 17  1  0  0  0  0
 13 14  1  0  0  0  0
 14 32  1  0  0  0  0
 15 14  2  0  0  0  0
 15 18  1  0  0  0  0
 16 11  1  0  0  0  0
 17 36  1  0  0  0  0
 17 37  1  0  0  0  0
 18 40  1  0  0  0  0
 18 41  1  0  0  0  0
 19 24  1  0  0  0  0
 20 21  1  0  0  0  0
 20 19  2  0  0  0  0
 21 22  2  0  0  0  0
 22 26  1  0  0  0  0
 22 23  1  0  0  0  0
 23 43  1  0  0  0  0
 24 23  2  0  0  0  0
 24 27  1  0  0  0  0
 25 20  1  0  0  0  0
 26 49  1  0  0  0  0
 26 48  1  0  0  0  0
 27 52  1  0  0  0  0
 27 51  1  0  0  0  0
 29  9  1  0  0  0  0
 30  9  1  0  0  0  0
 31 12  1  0  0  0  0
 33 16  1  0  0  0  0
 34 16  1  0  0  0  0
 35 16  1  0  0  0  0
 38 17  1  0  0  0  0
 39 18  1  0  0  0  0
 42 21  1  0  0  0  0
 44 25  1  0  0  0  0
 45 25  1  0  0  0  0
 46 25  1  0  0  0  0
 47 26  1  0  0  0  0
 50 27  1  0  0  0  0
M  END
