2
q = -1.0, confidence = 0.0

 28 28  0  0  0  0  0  0  0  0999 V2000
    1.9297    0.1312    0.2685 C   0  0  0  0  0  0  0  0  0  0  0  0
    1.7363   -1.2715    0.0586 C   0  0  0  0  0  3  0  0  0  0  0  0
    2.1842   -1.8626   -0.7490 H   0  0  0  0  0  0  0  0  0  0  0  0
    0.9262   -1.8207    1.1167 C   0  0  0  0  0  0  0  0  0  0  0  0
    0.5997   -0.7425    2.0079 C   0  0  0  0  0  0  0  0  0  0  0  0
    1.1844    0.4507    1.4580 C   0  0  0  0  0  0  0  0  0  0  0  0
    1.1469    1.4397    1.9302 H   0  0  0  0  0  0  0  0  0  0  0  0
    0.6259   -3.2720    1.3497 C   0  0  0  0  0  0  0  0  0  0  0  0
    0.8004   -3.8768    0.4398 H   0  0  0  0  0  0  0  0  0  0  0  0
   -0.4155   -3.4374    1.6890 H   0  0  0  0  0  0  0  0  0  0  0  0
    1.2939   -3.6724    2.1410 H   0  0  0  0  0  0  0  0  0  0  0  0
   -0.0673   -0.8641    3.3439 C   0  0  0  0  0  0  0  0  0  0  0  0
   -0.7999   -1.6919    3.3701 H   0  0  0  0  0  0  0  0  0  0  0  0
   -0.5865    0.0697    3.6321 H   0  0  0  0  0  0  0  0  0  0  0  0
    0.6987   -1.0674    4.1220 H   0  0  0  0  0  0  0  0  0  0  0  0
    2.9272    1.0181   -0.4664 C   0  0  0  0  0  0  0  0  0  0  0  0
    2.9748    0.6719   -1.9654 C   0  0  0  0  0  0  0  0  0  0  0  0
    3.2477   -0.3882   -2.1403 H   0  0  0  0  0  0  0  0  0  0  0  0
    3.7381    1.2915   -2.4756 H   0  0  0  0  0  0  0  0  0  0  0  0
    1.9960    0.8679   -2.4479 H   0  0  0  0  0  0  0  0  0  0  0  0
    2.5989    2.5098   -0.2967 C   0  0  0  0  0  0  0  0  0  0  0  0
    3.3688    3.1254   -0.8015 H   0  0  0  0  0  0  0  0  0  0  0  0
    2.5856    2.8154    0.7689 H   0  0  0  0  0  0  0  0  0  0  0  0
    1.6176    2.7535   -0.7506 H   0  0  0  0  0  0  0  0  0  0  0  0
    4.3076    0.7248    0.1754 C   0  0  0  0  0  0  0  0  0  0  0  0
    4.5877   -0.3410    0.0588 H   0  0  0  0  0  0  0  0  0  0  0  0
    4.3054    0.9618    1.2581 H   0  0  0  0  0  0  0  0  0  0  0  0
    5.0915    1.3408   -0.3090 H   0  0  0  0  0  0  0  0  0  0  0  0
  1  6  2  0  0  0  0
  2  1  1  0  0  0  0
  2  4  1  0  0  0  0
  3  2  1  0  0  0  0
  4  8  1  0  0  0  0
  4  5  2  0  0  0  0
  5 12  1  0  0  0  0
  6  7  1  0  0  0  0
  6  5  1  0  0  0  0
  8 10  1  0  0  0  0
  8 11  1  0  0  0  0
  9  8  1  0  0  0  0
 12 13  1  0  0  0  0
 12 14  1  0  0  0  0
 12 15  1  0  0  0  0
 16 21  1  0  0  0  0
 16 25  1  0  0  0  0
 16  1  1  0  0  0  0
 17 16  1  0  0  0  0
 18 17  1  0  0  0  0
 19 17  1  0  0  0  0
 20 17  1  0  0  0  0
 21 23  1  0  0  0  0
 22 21  1  0  0  0  0
 24 21  1  0  0  0  0
 25 27  1  0  0  0  0
 26 25  1  0  0  0  0
 28 25  1  0  0  0  0
M  END
