14
q = -1.0

 32 32  0  0  0  0  0  0  0  0999 V2000
   -1.2649   -0.9683   -0.0438 P   0  0  0  0  0  0  0  0  0  0  0  0
   -2.4881    0.2014   -0.2041 O   0  0  0  0  0  0  0  0  0  0  0  0
   -1.6116   -0.9354    2.6938 C   0  0  0  0  0  0  0  0  0  0  0  0
   -1.8536   -1.8547    1.4883 C   0  0  0  0  0  0  0  0  0  0  0  0
   -3.3100   -2.3213    1.3962 C   0  0  0  0  0  0  0  0  0  0  0  0
   -1.3271   -1.3511   -2.7821 C   0  0  0  0  0  0  0  0  0  0  0  0
   -1.7329   -2.0562   -1.4825 C   0  0  0  0  0  0  0  0  0  0  0  0
   -1.1502   -3.4683   -1.3646 C   0  0  0  0  0  0  0  0  0  0  0  0
   -2.0098    1.5019   -0.1804 C   0  0  0  0  0  0  0  0  0  0  0  0
   -2.9748    2.5204   -0.2475 C   0  0  0  0  0  0  0  0  0  0  0  0
   -2.5595    3.8590   -0.2238 C   0  0  0  0  0  0  0  0  0  0  0  0
   -1.1919    4.1599   -0.1314 C   0  0  0  0  0  0  0  0  0  0  0  0
   -0.2498    3.1187   -0.0680 C   0  0  0  0  0  0  0  0  0  0  0  0
   -0.6098    1.7499   -0.0900 C   0  0  0  0  0  3  0  0  0  0  0  0
   -0.5548   -0.6030    2.7435 H   0  0  0  0  0  0  0  0  0  0  0  0
   -1.8690   -1.4579    3.6382 H   0  0  0  0  0  0  0  0  0  0  0  0
   -2.2406   -0.0250    2.6230 H   0  0  0  0  0  0  0  0  0  0  0  0
   -1.1772   -2.7367    1.5672 H   0  0  0  0  0  0  0  0  0  0  0  0
   -3.4688   -3.0707    0.5957 H   0  0  0  0  0  0  0  0  0  0  0  0
   -3.9784   -1.4596    1.1983 H   0  0  0  0  0  0  0  0  0  0  0  0
   -3.6247   -2.7853    2.3540 H   0  0  0  0  0  0  0  0  0  0  0  0
   -1.7713   -0.3385   -2.8450 H   0  0  0  0  0  0  0  0  0  0  0  0
   -1.6691   -1.9349   -3.6618 H   0  0  0  0  0  0  0  0  0  0  0  0
   -0.2251   -1.2364   -2.8415 H   0  0  0  0  0  0  0  0  0  0  0  0
   -2.8426   -2.1086   -1.4325 H   0  0  0  0  0  0  0  0  0  0  0  0
   -1.4981   -3.9995   -0.4566 H   0  0  0  0  0  0  0  0  0  0  0  0
   -0.0412   -3.4534   -1.3457 H   0  0  0  0  0  0  0  0  0  0  0  0
   -1.4525   -4.0765   -2.2421 H   0  0  0  0  0  0  0  0  0  0  0  0
   -4.0382    2.2477   -0.3163 H   0  0  0  0  0  0  0  0  0  0  0  0
   -3.3079    4.6648   -0.2758 H   0  0  0  0  0  0  0  0  0  0  0  0
   -0.8551    5.2079   -0.1090 H   0  0  0  0  0  0  0  0  0  0  0  0
    0.8122    3.4052    0.0028 H   0  0  0  0  0  0  0  0  0  0  0  0
  1  4  1  0  0  0  0
  2  9  1  0  0  0  0
  2  1  1  0  0  0  0
  3 15  1  0  0  0  0
  3 16  1  0  0  0  0
  4 18  1  0  0  0  0
  4  3  1  0  0  0  0
  5  4  1  0  0  0  0
  5 21  1  0  0  0  0
  6  7  1  0  0  0  0
  7 25  1  0  0  0  0
  7  8  1  0  0  0  0
  7  1  1  0  0  0  0
  8 27  1  0  0  0  0
  8 26  1  0  0  0  0
  9 14  1  0  0  0  0
 10 11  1  0  0  0  0
 10  9  2  0  0  0  0
 11 12  2  0  0  0  0
 12 31  1  0  0  0  0
 12 13  1  0  0  0  0
 13 32  1  0  0  0  0
 14 13  2  0  0  0  0
 17  3  1  0  0  0  0
 19  5  1  0  0  0  0
 20  5  1  0  0  0  0
 22  6  1  0  0  0  0
 23  6  1  0  0  0  0
 24  6  1  0  0  0  0
 28  8  1  0  0  0  0
 29 10  1  0  0  0  0
 30 11  1  0  0  0  0
M  END
