1
q = -1.0, confidence = 0.0

 28 29  0  0  0  0  0  0  0  0999 V2000
   -1.1201    0.5199   -0.0586 C   0  0  0  0  0  3  0  0  0  0  0  0
   -1.5966    1.8652   -0.0454 C   0  0  0  0  0  0  0  0  0  0  0  0
   -0.8805    2.6947   -0.1122 H   0  0  0  0  0  0  0  0  0  0  0  0
   -2.9494    2.1606    0.0111 C   0  0  0  0  0  0  0  0  0  0  0  0
   -3.2885    3.2092    0.0138 H   0  0  0  0  0  0  0  0  0  0  0  0
   -3.9282    1.1269    0.0476 C   0  0  0  0  0  0  0  0  0  0  0  0
   -5.3227    1.4079    0.1198 C   0  0  0  0  0  0  0  0  0  0  0  0
   -5.6430    2.4609    0.1699 H   0  0  0  0  0  0  0  0  0  0  0  0
   -6.2620    0.3868    0.1213 C   0  0  0  0  0  0  0  0  0  0  0  0
   -7.3363    0.6195    0.1760 H   0  0  0  0  0  0  0  0  0  0  0  0
   -5.8322   -0.9643    0.0439 C   0  0  0  0  0  0  0  0  0  0  0  0
   -6.5775   -1.7746    0.0374 H   0  0  0  0  0  0  0  0  0  0  0  0
   -4.4805   -1.2716   -0.0286 C   0  0  0  0  0  0  0  0  0  0  0  0
   -4.1753   -2.3259   -0.0988 H   0  0  0  0  0  0  0  0  0  0  0  0
   -3.4835   -0.2469   -0.0179 C   0  0  0  0  0  0  0  0  0  0  0  0
   -2.0780   -0.5091   -0.0759 C   0  0  0  0  0  0  0  0  0  0  0  0
   -1.5268   -1.8922   -0.2730 C   0  0  0  0  0  0  0  0  0  0  0  0
   -2.1536   -2.7021    0.1611 H   0  0  0  0  0  0  0  0  0  0  0  0
   -1.4069   -2.0822   -1.3598 H   0  0  0  0  0  0  0  0  0  0  0  0
    0.5878   -3.1017   -0.2599 C   0  0  0  0  0  0  0  0  0  0  0  0
    0.0332   -4.0540   -0.1015 H   0  0  0  0  0  0  0  0  0  0  0  0
    1.5785   -3.1766    0.2240 H   0  0  0  0  0  0  0  0  0  0  0  0
    0.7222   -2.9075   -1.3405 H   0  0  0  0  0  0  0  0  0  0  0  0
   -0.2825   -2.1330    1.7859 C   0  0  0  0  0  0  0  0  0  0  0  0
   -0.8115   -3.0843    2.0225 H   0  0  0  0  0  0  0  0  0  0  0  0
   -0.8545   -1.2821    2.1981 H   0  0  0  0  0  0  0  0  0  0  0  0
    0.7208   -2.1557    2.2456 H   0  0  0  0  0  0  0  0  0  0  0  0
   -0.1574   -1.9664    0.3234 N   0  0  0  0  0  0  0  0  0  0  0  0
  1  2  1  0  0  0  0
  2  4  2  0  0  0  0
  3  2  1  0  0  0  0
  4  5  1  0  0  0  0
  4  6  1  0  0  0  0
  6  7  1  0  0  0  0
  7  9  2  0  0  0  0
  7  8  1  0  0  0  0
  9 10  1  0  0  0  0
 11  9  1  0  0  0  0
 12 11  1  0  0  0  0
 13 15  1  0  0  0  0
 13 11  2  0  0  0  0
 14 13  1  0  0  0  0
 15  6  2  0  0  0  0
 16  1  2  0  0  0  0
 16 15  1  0  0  0  0
 17 16  1  0  0  0  0
 17 18  1  0  0  0  0
 17 28  1  0  0  0  0
 19 17  1  0  0  0  0
 20 21  1  0  0  0  0
 20 22  1  0  0  0  0
 20 28  1  0  0  0  0
 23 20  1  0  0  0  0
 24 25  1  0  0  0  0
 24 26  1  0  0  0  0
 24 27  1  0  0  0  0
 28 24  1  0  0  0  0
M  END
