5
q = -1.0, confidence = 0.0

 30 32  0  0  0  0  0  0  0  0999 V2000
    2.5899   -0.1060   -0.9687 C   0  0  0  0  0  0  0  0  0  0  0  0
    1.8502    1.1288   -0.7153 C   0  0  0  0  0  0  0  0  0  0  0  0
    0.9161    1.2973   -1.7973 C   0  0  0  0  0  0  0  0  0  0  0  0
    1.0641    0.2114   -2.7078 C   0  0  0  0  0  0  0  0  0  0  0  0
    2.1007   -0.6522   -2.2011 C   0  0  0  0  0  3  0  0  0  0  0  0
    3.6517   -0.7183   -0.1408 C   0  0  0  0  0  0  0  0  0  0  0  0
    3.5367   -0.8053    1.2659 C   0  0  0  0  0  0  0  0  0  0  0  0
    4.5526   -1.3941    2.0285 C   0  0  0  0  0  0  0  0  0  0  0  0
    5.6990   -1.9148    1.4040 C   0  0  0  0  0  0  0  0  0  0  0  0
    5.8198   -1.8436    0.0080 C   0  0  0  0  0  0  0  0  0  0  0  0
    4.8053   -1.2497   -0.7578 C   0  0  0  0  0  0  0  0  0  0  0  0
    2.0472    2.1027    0.3722 C   0  0  0  0  0  0  0  0  0  0  0  0
    3.3387    2.4008    0.8640 C   0  0  0  0  0  0  0  0  0  0  0  0
    3.5138    3.3625    1.8686 C   0  0  0  0  0  0  0  0  0  0  0  0
    2.4071    4.0438    2.3997 C   0  0  0  0  0  0  0  0  0  0  0  0
    1.1199    3.7601    1.9125 C   0  0  0  0  0  0  0  0  0  0  0  0
    0.9403    2.8012    0.9087 C   0  0  0  0  0  0  0  0  0  0  0  0
    0.2234    2.1394   -1.9032 H   0  0  0  0  0  0  0  0  0  0  0  0
    0.5079    0.0682   -3.6414 H   0  0  0  0  0  0  0  0  0  0  0  0
    2.4484   -1.5846   -2.6616 H   0  0  0  0  0  0  0  0  0  0  0  0
    2.6296   -0.4192    1.7536 H   0  0  0  0  0  0  0  0  0  0  0  0
    4.4439   -1.4565    3.1220 H   0  0  0  0  0  0  0  0  0  0  0  0
    6.4946   -2.3796    2.0058 H   0  0  0  0  0  0  0  0  0  0  0  0
    6.7132   -2.2494   -0.4909 H   0  0  0  0  0  0  0  0  0  0  0  0
    4.9110   -1.1781   -1.8510 H   0  0  0  0  0  0  0  0  0  0  0  0
    4.2123    1.8830    0.4437 H   0  0  0  0  0  0  0  0  0  0  0  0
    4.5271    3.5842    2.2369 H   0  0  0  0  0  0  0  0  0  0  0  0
    2.5472    4.7957    3.1911 H   0  0  0  0  0  0  0  0  0  0  0  0
    0.2446    4.2860    2.3238 H   0  0  0  0  0  0  0  0  0  0  0  0
   -0.0726    2.5653    0.5484 H   0  0  0  0  0  0  0  0  0  0  0  0
  1  2  2  0  0  0  0
  1  6  1  0  0  0  0
  2 12  1  0  0  0  0
  3  2  1  0  0  0  0
  4  5  1  0  0  0  0
  4  3  2  0  0  0  0
  5  1  1  0  0  0  0
  6  7  1  0  0  0  0
  7 21  1  0  0  0  0
  7  8  2  0  0  0  0
  8 22  1  0  0  0  0
  9 23  1  0  0  0  0
  9  8  1  0  0  0  0
 10  9  2  0  0  0  0
 11  6  2  0  0  0  0
 11 10  1  0  0  0  0
 12 13  2  0  0  0  0
 12 17  1  0  0  0  0
 13 14  1  0  0  0  0
 14 27  1  0  0  0  0
 14 15  2  0  0  0  0
 15 28  1  0  0  0  0
 16 29  1  0  0  0  0
 16 15  1  0  0  0  0
 17 16  2  0  0  0  0
 18  3  1  0  0  0  0
 19  4  1  0  0  0  0
 20  5  1  0  0  0  0
 24 10  1  0  0  0  0
 25 11  1  0  0  0  0
 26 13  1  0  0  0  0
 30 17  1  0  0  0  0
M  END
