1
q = -1.0

 38 39  0  0  1  0  0  0  0  0999 V2000
   -1.9171    0.2301    1.3537 C   0  0  0  0  0  3  0  0  0  0  0  0
   -0.8588    1.1570    1.6701 C   0  0  0  0  0  3  0  0  0  0  0  0
   -0.7677    2.1010    0.5785 C   0  0  0  0  0  0  0  0  0  0  0  0
   -1.7337    1.7207   -0.3917 C   0  0  0  0  0  0  0  0  0  0  0  0
   -2.4837    0.5716    0.0603 C   0  0  2  0  0  3  0  0  0  0  0  0
   -3.6733   -0.0006   -0.6820 C   0  0  1  0  0  0  0  0  0  0  0  0
   -3.5765   -1.5031   -1.0179 C   0  0  0  0  0  0  0  0  0  0  0  0
   -3.7867   -2.4402    0.1782 C   0  0  2  0  0  0  0  0  0  0  0  0
   -3.7106   -3.9091   -0.2425 C   0  0  0  0  0  0  0  0  0  0  0  0
   -5.1161   -2.1006    0.8662 C   0  0  0  0  0  0  0  0  0  0  0  0
   -5.2397   -0.6176    1.2353 C   0  0  0  0  0  0  0  0  0  0  0  0
   -5.0305    0.3137    0.0275 C   0  0  1  0  0  0  0  0  0  0  0  0
   -5.2144    1.8164    0.3629 C   0  0  0  0  0  0  0  0  0  0  0  0
   -6.5231    2.0982    1.1161 C   0  0  0  0  0  0  0  0  0  0  0  0
   -5.1555    2.6932   -0.8964 C   0  0  0  0  0  0  0  0  0  0  0  0
   -2.2515   -0.5822    2.0082 H   0  0  0  0  0  0  0  0  0  0  0  0
   -0.2883    1.1966    2.6059 H   0  0  0  0  0  0  0  0  0  0  0  0
   -0.0571    2.9303    0.4959 H   0  0  0  0  0  0  0  0  0  0  0  0
   -1.8546    2.1860   -1.3778 H   0  0  0  0  0  0  0  0  0  0  0  0
   -3.6774    0.5263   -1.6570 H   0  0  0  0  0  0  0  0  0  0  0  0
   -4.3635   -1.7313   -1.7722 H   0  0  0  0  0  0  0  0  0  0  0  0
   -2.6012   -1.6969   -1.5094 H   0  0  0  0  0  0  0  0  0  0  0  0
   -2.9660   -2.2639    0.9085 H   0  0  0  0  0  0  0  0  0  0  0  0
   -2.7222   -4.1461   -0.6840 H   0  0  0  0  0  0  0  0  0  0  0  0
   -4.4899   -4.1445   -0.9986 H   0  0  0  0  0  0  0  0  0  0  0  0
   -3.8672   -4.5858    0.6227 H   0  0  0  0  0  0  0  0  0  0  0  0
   -5.9470   -2.3691    0.1735 H   0  0  0  0  0  0  0  0  0  0  0  0
   -5.2529   -2.7332    1.7697 H   0  0  0  0  0  0  0  0  0  0  0  0
   -6.2407   -0.4389    1.6758 H   0  0  0  0  0  0  0  0  0  0  0  0
   -4.5101   -0.3583    2.0345 H   0  0  0  0  0  0  0  0  0  0  0  0
   -5.8201    0.0518   -0.7175 H   0  0  0  0  0  0  0  0  0  0  0  0
   -4.3719    2.1138    1.0293 H   0  0  0  0  0  0  0  0  0  0  0  0
   -6.6563    3.1883    1.2708 H   0  0  0  0  0  0  0  0  0  0  0  0
   -6.5549    1.6193    2.1138 H   0  0  0  0  0  0  0  0  0  0  0  0
   -7.4010    1.7361    0.5386 H   0  0  0  0  0  0  0  0  0  0  0  0
   -5.2903    3.7634   -0.6396 H   0  0  0  0  0  0  0  0  0  0  0  0
   -5.9648    2.4159   -1.6054 H   0  0  0  0  0  0  0  0  0  0  0  0
   -4.1948    2.6055   -1.4383 H   0  0  0  0  0  0  0  0  0  0  0  0
  1  2  1  0  0  0  0
  1 16  1  0  0  0  0
  2 17  1  0  0  0  0
  3  2  1  0  0  0  0
  4  3  2  0  0  0  0
  5  4  1  1  0  0  0
  5  1  1  0  0  0  0
  6 20  1  6  0  0  0
  6 12  1  0  0  0  0
  6  5  1  0  0  0  0
  7  6  1  0  0  0  0
  7  8  1  0  0  0  0
  8 10  1  0  0  0  0
  8 23  1  1  0  0  0
  9  8  1  0  0  0  0
  9 26  1  0  0  0  0
 10 11  1  0  0  0  0
 10 28  1  0  0  0  0
 11 29  1  0  0  0  0
 11 30  1  0  0  0  0
 12 31  1  6  0  0  0
 12 13  1  0  0  0  0
 12 11  1  0  0  0  0
 13 32  1  0  0  0  0
 13 14  1  0  0  0  0
 14 33  1  0  0  0  0
 14 34  1  0  0  0  0
 15 36  1  0  0  0  0
 15 13  1  0  0  0  0
 18  3  1  0  0  0  0
 19  4  1  0  0  0  0
 21  7  1  0  0  0  0
 22  7  1  0  0  0  0
 24  9  1  0  0  0  0
 25  9  1  0  0  0  0
 27 10  1  0  0  0  0
 35 14  1  0  0  0  0
 37 15  1  0  0  0  0
 38 15  1  0  0  0  0
M  END
