4
q = 0.0, confidence = 0.996

 36 37  0  0  0  0  0  0  0  0999 V2000
   -1.8556   -1.3312   -0.6757 N   0  0  0  0  0  0  0  0  0  0  0  0
   -2.1005   -2.6786   -0.7375 N   0  0  0  0  0  0  0  0  0  0  0  0
   -0.2003   -2.2420    0.3202 N   0  0  0  0  0  0  0  0  0  0  0  0
   -0.6906   -1.0077   -0.0441 C   0  0  0  0  0  2  0  0  0  0  0  0
   -1.0738   -3.2103   -0.1190 C   0  0  0  0  0  0  0  0  0  0  0  0
   -0.9204   -4.2851    0.0328 H   0  0  0  0  0  0  0  0  0  0  0  0
   -2.8603   -0.3818   -1.1410 C   0  0  0  0  0  0  0  0  0  0  0  0
   -3.0871   -0.6069   -2.2037 H   0  0  0  0  0  0  0  0  0  0  0  0
   -2.3603    0.6031   -1.0802 H   0  0  0  0  0  0  0  0  0  0  0  0
   -4.1708   -0.3367   -0.3110 C   0  0  0  0  0  0  0  0  0  0  0  0
   -4.9007    0.9495   -0.7432 C   0  0  0  0  0  0  0  0  0  0  0  0
   -5.8808    1.0289   -0.2312 H   0  0  0  0  0  0  0  0  0  0  0  0
   -5.0917    0.9613   -1.8370 H   0  0  0  0  0  0  0  0  0  0  0  0
   -4.3096    1.8531   -0.4866 H   0  0  0  0  0  0  0  0  0  0  0  0
   -5.0602   -1.5556   -0.6148 C   0  0  0  0  0  0  0  0  0  0  0  0
   -4.5427   -2.5023   -0.3693 H   0  0  0  0  0  0  0  0  0  0  0  0
   -5.3360   -1.5915   -1.6896 H   0  0  0  0  0  0  0  0  0  0  0  0
   -5.9981   -1.5027   -0.0247 H   0  0  0  0  0  0  0  0  0  0  0  0
   -3.8471   -0.2718    1.1900 C   0  0  0  0  0  0  0  0  0  0  0  0
   -3.1442    0.5506    1.4311 H   0  0  0  0  0  0  0  0  0  0  0  0
   -3.3745   -1.2085    1.5469 H   0  0  0  0  0  0  0  0  0  0  0  0
   -4.7775   -0.1228    1.7745 H   0  0  0  0  0  0  0  0  0  0  0  0
    1.0027   -2.4461    1.1263 C   0  0  0  0  0  0  0  0  0  0  0  0
    0.9911   -3.5067    1.4532 H   0  0  0  0  0  0  0  0  0  0  0  0
    0.8969   -1.8008    2.0224 H   0  0  0  0  0  0  0  0  0  0  0  0
    2.2832   -2.1272    0.3858 C   0  0  0  0  0  0  0  0  0  0  0  0
    2.5314   -2.6516   -0.8973 C   0  0  0  0  0  0  0  0  0  0  0  0
    1.7739   -3.2860   -1.3851 H   0  0  0  0  0  0  0  0  0  0  0  0
    3.7270   -2.3566   -1.5682 C   0  0  0  0  0  0  0  0  0  0  0  0
    3.9062   -2.7656   -2.5742 H   0  0  0  0  0  0  0  0  0  0  0  0
    4.6944   -1.5420   -0.9563 C   0  0  0  0  0  0  0  0  0  0  0  0
    5.6340   -1.3116   -1.4808 H   0  0  0  0  0  0  0  0  0  0  0  0
    4.4560   -1.0222    0.3255 C   0  0  0  0  0  0  0  0  0  0  0  0
    5.2071   -0.3782    0.8076 H   0  0  0  0  0  0  0  0  0  0  0  0
    3.2520   -1.3056    0.9886 C   0  0  0  0  0  0  0  0  0  0  0  0
    3.0462   -0.8718    1.9792 H   0  0  0  0  0  0  0  0  0  0  0  0
  1  4  1  0  0  0  0
  2  1  1  0  0  0  0
  2  5  2  0  0  0  0
  3 23  1  0  0  0  0
  4  3  1  0  0  0  0
  5  6  1  0  0  0  0
  5  3  1  0  0  0  0
  7  9  1  0  0  0  0
  7  1  1  0  0  0  0
  7 10  1  0  0  0  0
  8  7  1  0  0  0  0
 10 19  1  0  0  0  0
 11 14  1  0  0  0  0
 11 10  1  0  0  0  0
 11 12  1  0  0  0  0
 13 11  1  0  0  0  0
 15 16  1  0  0  0  0
 15 10  1  0  0  0  0
 15 18  1  0  0  0  0
 17 15  1  0  0  0  0
 19 20  1  0  0  0  0
 19 21  1  0  0  0  0
 19 22  1  0  0  0  0
 23 24  1  0  0  0  0
 23 25  1  0  0  0  0
 26 35  1  0  0  0  0
 26 23  1  0  0  0  0
 27 26  2  0  0  0  0
 28 27  1  0  0  0  0
 29 31  2  0  0  0  0
 29 27  1  0  0  0  0
 30 29  1  0  0  0  0
 31 33  1  0  0  0  0
 32 31  1  0  0  0  0
 33 34  1  0  0  0  0
 33 35  2  0  0  0  0
 35 36  1  0  0  0  0
M  END
