39
q = 0.0, confidence = 0.992

 41 43  0  0  1  0  0  0  0  0999 V2000
    0.7154    3.2544   -1.2147 C   0  0  0  0  0  0  0  0  0  0  0  0
    0.4173    2.3924   -1.8323 H   0  0  0  0  0  0  0  0  0  0  0  0
    0.0000    4.4573   -1.2702 C   0  0  0  0  0  0  0  0  0  0  0  0
   -0.8682    4.5388   -1.9427 H   0  0  0  0  0  0  0  0  0  0  0  0
    0.3920    5.5570   -0.4880 C   0  0  0  0  0  0  0  0  0  0  0  0
   -0.1712    6.5017   -0.5349 H   0  0  0  0  0  0  0  0  0  0  0  0
    1.5075    5.4422    0.3564 C   0  0  0  0  0  0  0  0  0  0  0  0
    1.8132    6.2921    0.9857 H   0  0  0  0  0  0  0  0  0  0  0  0
    2.2232    4.2382    0.4223 C   0  0  0  0  0  0  0  0  0  0  0  0
    3.0615    4.1465    1.1286 H   0  0  0  0  0  0  0  0  0  0  0  0
    1.8406    3.1275   -0.3649 C   0  0  0  0  0  0  0  0  0  0  0  0
    2.5216    1.8299   -0.2824 C   0  0  0  0  0  0  0  0  0  0  0  0
    4.9127    2.7056   -0.4198 C   0  0  0  0  0  0  0  0  0  0  0  0
    5.8032    2.2839   -0.9208 H   0  0  0  0  0  0  0  0  0  0  0  0
    4.4833    3.5123   -1.0411 H   0  0  0  0  0  0  0  0  0  0  0  0
    5.2227    3.1355    0.5535 H   0  0  0  0  0  0  0  0  0  0  0  0
    4.1973    0.3350   -0.1494 C   0  0  1  0  0  3  0  0  0  0  0  0
    5.5670   -0.2091   -0.1059 C   0  0  0  0  0  0  0  0  0  0  0  0
    6.3875    0.0452    1.0167 C   0  0  0  0  0  0  0  0  0  0  0  0
    5.9778    0.6161    1.8637 H   0  0  0  0  0  0  0  0  0  0  0  0
    7.6985   -0.4472    1.0634 C   0  0  0  0  0  0  0  0  0  0  0  0
    8.3247   -0.2508    1.9468 H   0  0  0  0  0  0  0  0  0  0  0  0
    8.2073   -1.1986   -0.0086 C   0  0  0  0  0  0  0  0  0  0  0  0
    9.2352   -1.5894    0.0312 H   0  0  0  0  0  0  0  0  0  0  0  0
    7.4040   -1.4458   -1.1332 C   0  0  0  0  0  0  0  0  0  0  0  0
    7.8031   -2.0228   -1.9809 H   0  0  0  0  0  0  0  0  0  0  0  0
    6.0936   -0.9499   -1.1871 C   0  0  0  0  0  0  0  0  0  0  0  0
    5.4708   -1.1216   -2.0764 H   0  0  0  0  0  0  0  0  0  0  0  0
    2.7718   -1.7732    0.1224 C   0  0  0  0  0  0  0  0  0  0  0  0
    1.6732   -1.7893    0.2973 H   0  0  0  0  0  0  0  0  0  0  0  0
    3.4640   -2.2599    1.3937 C   0  0  0  0  0  0  0  0  0  0  0  0
    3.1826   -1.6219    2.2552 H   0  0  0  0  0  0  0  0  0  0  0  0
    3.1288   -3.2938    1.6095 H   0  0  0  0  0  0  0  0  0  0  0  0
    4.5680   -2.2783    1.2971 H   0  0  0  0  0  0  0  0  0  0  0  0
    3.0436   -2.6255   -1.1159 C   0  0  0  0  0  0  0  0  0  0  0  0
    4.1262   -2.7560   -1.3111 H   0  0  0  0  0  0  0  0  0  0  0  0
    2.6033   -3.6303   -0.9573 H   0  0  0  0  0  0  0  0  0  0  0  0
    2.5499   -2.1816   -2.0034 H   0  0  0  0  0  0  0  0  0  0  0  0
    1.9356    0.5654   -0.1884 C   0  0  0  0  0  3  0  0  0  0  0  0
    3.9121    1.6622   -0.2471 N   0  0  0  0  0  0  0  0  0  0  0  0
    3.0066   -0.3252   -0.1125 N   0  0  0  0  0  0  0  0  0  0  0  0
  1 11  1  0  0  0  0
  2  1  1  0  0  0  0
  3  1  2  0  0  0  0
  3  5  1  0  0  0  0
  4  3  1  0  0  0  0
  5  7  2  0  0  0  0
  6  5  1  0  0  0  0
  7  9  1  0  0  0  0
  7  8  1  0  0  0  0
  9 10  1  0  0  0  0
 11 12  1  0  0  0  0
 11  9  2  0  0  0  0
 12 40  1  0  0  0  0
 12 39  2  0  0  0  0
 13 40  1  0  0  0  0
 13 16  1  0  0  0  0
 14 13  1  0  0  0  0
 15 13  1  0  0  0  0
 17 41  1  0  0  0  0
 17 18  1  6  0  0  0
 18 19  1  0  0  0  0
 19 21  2  0  0  0  0
 19 20  1  0  0  0  0
 21 22  1  0  0  0  0
 23 24  1  0  0  0  0
 23 21  1  0  0  0  0
 25 23  2  0  0  0  0
 26 25  1  0  0  0  0
 27 25  1  0  0  0  0
 27 18  2  0  0  0  0
 28 27  1  0  0  0  0
 29 30  1  0  0  0  0
 29 31  1  0  0  0  0
 31 33  1  0  0  0  0
 31 32  1  0  0  0  0
 34 31  1  0  0  0  0
 35 37  1  0  0  0  0
 35 29  1  0  0  0  0
 36 35  1  0  0  0  0
 38 35  1  0  0  0  0
 39 41  1  0  0  0  0
 40 17  1  0  0  0  0
 41 29  1  0  0  0  0
M  END
