3
q = 0.0, confidence = 0.994

 45 46  0  0  1  0  0  0  0  0999 V2000
   -0.2005   -2.0050    0.2313 C   0  0  2  0  0  3  0  0  0  0  0  0
    0.6573   -2.3868   -0.8179 C   0  0  0  0  0  3  0  0  0  0  0  0
    2.1016   -2.3734   -0.7610 C   0  0  0  0  0  3  0  0  0  0  0  0
    2.9548   -1.9152    0.2915 C   0  0  0  0  0  0  0  0  0  0  0  0
    2.5644   -1.3212    1.5418 C   0  0  0  0  0  0  0  0  0  0  0  0
    1.2701   -1.2502    2.0766 C   0  0  0  0  0  3  0  0  0  0  0  0
    0.1823   -2.2313    1.6982 C   0  0  0  0  0  0  0  0  0  0  0  0
   -1.6374   -1.6943   -0.0480 C   0  0  0  0  0  0  0  0  0  0  0  0
   -2.5868   -2.7207   -0.2258 C   0  0  0  0  0  0  0  0  0  0  0  0
   -3.9358   -2.4145   -0.4582 C   0  0  0  0  0  0  0  0  0  0  0  0
   -4.3537   -1.0752   -0.5040 C   0  0  0  0  0  0  0  0  0  0  0  0
   -3.4204   -0.0443   -0.3181 C   0  0  0  0  0  0  0  0  0  0  0  0
   -2.0620   -0.3415   -0.0871 C   0  0  0  0  0  0  0  0  0  0  0  0
   -1.0443    1.4624    1.9668 C   0  0  0  0  0  0  0  0  0  0  0  0
   -2.3675    2.1930    2.2035 C   0  0  0  0  0  0  0  0  0  0  0  0
    0.1463    2.2188    2.5670 C   0  0  0  0  0  0  0  0  0  0  0  0
   -1.2823    2.3758   -0.8810 C   0  0  0  0  0  0  0  0  0  0  0  0
   -1.5363    1.9704   -2.3381 C   0  0  0  0  0  0  0  0  0  0  0  0
   -0.2643    3.5187   -0.7921 C   0  0  0  0  0  0  0  0  0  0  0  0
    0.2232   -2.5130   -1.8231 H   0  0  0  0  0  0  0  0  0  0  0  0
    2.6152   -2.6576   -1.6925 H   0  0  0  0  0  0  0  0  0  0  0  0
    4.0283   -1.8881    0.0512 H   0  0  0  0  0  0  0  0  0  0  0  0
    3.3632   -0.7724    2.0670 H   0  0  0  0  0  0  0  0  0  0  0  0
    1.1426   -0.6512    2.9903 H   0  0  0  0  0  0  0  0  0  0  0  0
   -2.2546   -3.7698   -0.1926 H   0  0  0  0  0  0  0  0  0  0  0  0
   -4.6640   -3.2256   -0.6110 H   0  0  0  0  0  0  0  0  0  0  0  0
   -5.4101   -0.8308   -0.6920 H   0  0  0  0  0  0  0  0  0  0  0  0
   -3.7556    1.0021   -0.3747 H   0  0  0  0  0  0  0  0  0  0  0  0
   -1.0984    0.4669    2.4605 H   0  0  0  0  0  0  0  0  0  0  0  0
   -2.2424    2.7153   -0.4337 H   0  0  0  0  0  0  0  0  0  0  0  0
   -0.7111   -2.0626    2.3290 H   0  0  0  0  0  0  0  0  0  0  0  0
   -2.3676    3.2012    1.7406 H   0  0  0  0  0  0  0  0  0  0  0  0
    0.0233    2.3089    3.6666 H   0  0  0  0  0  0  0  0  0  0  0  0
   -2.2338    1.1155   -2.4279 H   0  0  0  0  0  0  0  0  0  0  0  0
    0.7337    3.1861   -1.1411 H   0  0  0  0  0  0  0  0  0  0  0  0
    0.5001   -3.2863    1.8611 H   0  0  0  0  0  0  0  0  0  0  0  0
   -2.5293    2.3383    3.2923 H   0  0  0  0  0  0  0  0  0  0  0  0
    1.1019    1.6982    2.3633 H   0  0  0  0  0  0  0  0  0  0  0  0
   -1.9804    2.8281   -2.8855 H   0  0  0  0  0  0  0  0  0  0  0  0
   -0.5859    4.3637   -1.4355 H   0  0  0  0  0  0  0  0  0  0  0  0
   -3.2375    1.6293    1.8137 H   0  0  0  0  0  0  0  0  0  0  0  0
    0.2303    3.2463    2.1608 H   0  0  0  0  0  0  0  0  0  0  0  0
   -0.5969    1.6979   -2.8530 H   0  0  0  0  0  0  0  0  0  0  0  0
   -0.1481    3.9080    0.2376 H   0  0  0  0  0  0  0  0  0  0  0  0
   -0.7223    0.9196    0.1745 P   0  0  0  0  0  0  0  0  0  0  0  0
  1  8  1  6  0  0  0
  1  7  1  0  0  0  0
  2  3  1  0  0  0  0
  2  1  1  0  0  0  0
  3  4  1  0  0  0  0
  4  5  2  0  0  0  0
  5 23  1  0  0  0  0
  5  6  1  0  0  0  0
  6 24  1  0  0  0  0
  7 36  1  0  0  0  0
  7  6  1  0  0  0  0
  7 31  1  0  0  0  0
  9 25  1  0  0  0  0
  9  8  2  0  0  0  0
 10  9  1  0  0  0  0
 11 10  2  0  0  0  0
 11 12  1  0  0  0  0
 12 13  2  0  0  0  0
 13  8  1  0  0  0  0
 13 45  1  0  0  0  0
 14 15  1  0  0  0  0
 14 29  1  0  0  0  0
 14 16  1  0  0  0  0
 15 37  1  0  0  0  0
 16 33  1  0  0  0  0
 17 19  1  0  0  0  0
 17 30  1  0  0  0  0
 17 45  1  0  0  0  0
 18 17  1  0  0  0  0
 19 44  1  0  0  0  0
 20  2  1  0  0  0  0
 21  3  1  0  0  0  0
 22  4  1  0  0  0  0
 26 10  1  0  0  0  0
 27 11  1  0  0  0  0
 28 12  1  0  0  0  0
 32 15  1  0  0  0  0
 34 18  1  0  0  0  0
 35 19  1  0  0  0  0
 38 16  1  0  0  0  0
 39 18  1  0  0  0  0
 40 19  1  0  0  0  0
 41 15  1  0  0  0  0
 42 16  1  0  0  0  0
 43 18  1  0  0  0  0
 45 14  1  0  0  0  0
M  END
