1
q = -1.0

 15 15  0  0  0  0  0  0  0  0999 V2000
   -0.3676    1.2888    0.6810 C   0  0  0  0  0  1  0  0  0  0  0  0
   -0.3005    2.2371    1.8080 C   0  0  0  0  0  0  0  0  0  0  0  0
    0.1935    1.7680    2.6887 H   0  0  0  0  0  0  0  0  0  0  0  0
   -1.3438    2.4568    2.1416 H   0  0  0  0  0  0  0  0  0  0  0  0
    0.3964    3.5413    1.4464 C   0  0  0  0  0  0  0  0  0  0  0  0
    0.1478    4.1557    0.2018 C   0  0  0  0  0  0  0  0  0  0  0  0
   -0.5047    3.6560   -0.5331 H   0  0  0  0  0  0  0  0  0  0  0  0
    0.7793    5.3644   -0.1247 C   0  0  0  0  0  0  0  0  0  0  0  0
    0.5837    5.8294   -1.1030 H   0  0  0  0  0  0  0  0  0  0  0  0
    1.6696    5.9686    0.7783 C   0  0  0  0  0  0  0  0  0  0  0  0
    2.1681    6.9141    0.5158 H   0  0  0  0  0  0  0  0  0  0  0  0
    1.9302    5.3542    2.0127 C   0  0  0  0  0  0  0  0  0  0  0  0
    2.6349    5.8144    2.7221 H   0  0  0  0  0  0  0  0  0  0  0  0
    1.2964    4.1458    2.3436 C   0  0  0  0  0  0  0  0  0  0  0  0
    1.5058    3.6634    3.3122 H   0  0  0  0  0  0  0  0  0  0  0  0
  1  2  1  0  0  0  0
  2  4  1  0  0  0  0
  2  3  1  0  0  0  0
  5  2  1  0  0  0  0
  5 14  1  0  0  0  0
  6  5  2  0  0  0  0
  7  6  1  0  0  0  0
  8  6  1  0  0  0  0
  8 10  2  0  0  0  0
  9  8  1  0  0  0  0
 10 12  1  0  0  0  0
 11 10  1  0  0  0  0
 12 14  2  0  0  0  0
 12 13  1  0  0  0  0
 14 15  1  0  0  0  0
M  END
