1
q = 0.0, confidence = 0.964

 39 41  0  0  0  0  0  0  0  0999 V2000
    0.6243    0.4802   -0.1320 C   0  0  0  0  0  2  0  0  0  0  0  0
    0.8835    2.7580    0.6987 C   0  0  0  0  0  0  0  0  0  0  0  0
    1.5566    3.1380   -0.0971 H   0  0  0  0  0  0  0  0  0  0  0  0
    1.5172    2.3637    1.5174 H   0  0  0  0  0  0  0  0  0  0  0  0
   -0.0901    3.8168    1.1757 C   0  0  0  0  0  0  0  0  0  0  0  0
   -0.7328    4.1711    0.3458 H   0  0  0  0  0  0  0  0  0  0  0  0
    0.4685    4.6820    1.5833 H   0  0  0  0  0  0  0  0  0  0  0  0
   -0.7487    3.4187    1.9726 H   0  0  0  0  0  0  0  0  0  0  0  0
   -0.4754   -0.3297   -0.6674 C   0  0  0  0  0  0  0  0  0  0  0  0
   -1.8351    0.0132   -0.8515 C   0  0  0  0  0  0  0  0  0  0  0  0
   -2.6109    1.2473   -0.6155 C   0  0  0  0  0  0  0  0  0  0  0  0
   -2.5702    2.3004   -1.5535 C   0  0  0  0  0  0  0  0  0  0  0  0
   -1.9512    2.1940   -2.4568 H   0  0  0  0  0  0  0  0  0  0  0  0
   -3.2993    3.4758   -1.3259 C   0  0  0  0  0  0  0  0  0  0  0  0
   -3.2616    4.2925   -2.0625 H   0  0  0  0  0  0  0  0  0  0  0  0
   -4.0719    3.6119   -0.1606 C   0  0  0  0  0  0  0  0  0  0  0  0
   -4.6408    4.5367    0.0184 H   0  0  0  0  0  0  0  0  0  0  0  0
   -4.1169    2.5658    0.7745 C   0  0  0  0  0  0  0  0  0  0  0  0
   -4.7225    2.6656    1.6878 H   0  0  0  0  0  0  0  0  0  0  0  0
   -3.3936    1.3860    0.5498 C   0  0  0  0  0  0  0  0  0  0  0  0
   -3.4283    0.5647    1.2801 H   0  0  0  0  0  0  0  0  0  0  0  0
   -3.7853   -1.3998   -1.6634 C   0  0  0  0  0  0  0  0  0  0  0  0
   -3.7664   -2.3200   -2.2812 H   0  0  0  0  0  0  0  0  0  0  0  0
   -4.1742   -0.5695   -2.2845 H   0  0  0  0  0  0  0  0  0  0  0  0
   -4.6349   -1.5814   -0.4208 C   0  0  0  0  0  0  0  0  0  0  0  0
   -4.2046   -2.4402    0.6097 C   0  0  0  0  0  0  0  0  0  0  0  0
   -3.2533   -2.9849    0.5010 H   0  0  0  0  0  0  0  0  0  0  0  0
   -4.9763   -2.5912    1.7704 C   0  0  0  0  0  0  0  0  0  0  0  0
   -4.6307   -3.2614    2.5720 H   0  0  0  0  0  0  0  0  0  0  0  0
   -6.1871   -1.8919    1.9096 C   0  0  0  0  0  0  0  0  0  0  0  0
   -6.7911   -2.0106    2.8218 H   0  0  0  0  0  0  0  0  0  0  0  0
   -6.6229   -1.0409    0.8823 C   0  0  0  0  0  0  0  0  0  0  0  0
   -7.5682   -0.4871    0.9866 H   0  0  0  0  0  0  0  0  0  0  0  0
   -5.8467   -0.8833   -0.2761 C   0  0  0  0  0  0  0  0  0  0  0  0
   -6.1774   -0.1965   -1.0710 H   0  0  0  0  0  0  0  0  0  0  0  0
    0.1100    1.6751    0.1482 O   0  0  0  0  0  0  0  0  0  0  0  0
   -0.3219   -1.6405   -1.0590 N   0  0  0  0  0  0  0  0  0  0  0  0
   -1.4537   -2.1211   -1.4612 N   0  0  0  0  0  0  0  0  0  0  0  0
   -2.3879   -1.1282   -1.3469 N   0  0  0  0  0  0  0  0  0  0  0  0
  1 36  1  0  0  0  0
  2  5  1  0  0  0  0
  2  4  1  0  0  0  0
  3  2  1  0  0  0  0
  5  7  1  0  0  0  0
  5  8  1  0  0  0  0
  6  5  1  0  0  0  0
  9  1  1  0  0  0  0
 10  9  2  0  0  0  0
 10 11  1  0  0  0  0
 11 20  1  0  0  0  0
 12 14  1  0  0  0  0
 12 11  2  0  0  0  0
 13 12  1  0  0  0  0
 14 16  2  0  0  0  0
 15 14  1  0  0  0  0
 16 17  1  0  0  0  0
 16 18  1  0  0  0  0
 18 19  1  0  0  0  0
 20 18  2  0  0  0  0
 20 21  1  0  0  0  0
 22 39  1  0  0  0  0
 22 25  1  0  0  0  0
 23 22  1  0  0  0  0
 24 22  1  0  0  0  0
 25 34  2  0  0  0  0
 25 26  1  0  0  0  0
 26 28  2  0  0  0  0
 27 26  1  0  0  0  0
 28 30  1  0  0  0  0
 28 29  1  0  0  0  0
 30 31  1  0  0  0  0
 32 33  1  0  0  0  0
 32 30  2  0  0  0  0
 34 32  1  0  0  0  0
 35 34  1  0  0  0  0
 36  2  1  0  0  0  0
 37  9  1  0  0  0  0
 38 39  1  0  0  0  0
 38 37  2  0  0  0  0
 39 10  1  0  0  0  0
M  END
