1
q = -1.0

 30 31  0  0  0  0  0  0  0  0999 V2000
   -0.8705    0.5819    0.3554 C   0  0  0  0  0  1  0  0  0  0  0  0
   -2.1509    1.2242    0.3085 C   0  0  0  0  0  0  0  0  0  0  0  0
   -3.2175    0.3589    0.4117 C   0  0  0  0  0  0  0  0  0  0  0  0
   -4.5149    0.7355    0.3623 O   0  0  0  0  0  0  0  0  0  0  0  0
   -2.1916    2.6940    0.0959 C   0  0  0  0  0  0  0  0  0  0  0  0
   -3.3855    3.4536    0.1453 C   0  0  0  0  0  0  0  0  0  0  0  0
   -3.3583    4.8391   -0.0632 C   0  0  0  0  0  0  0  0  0  0  0  0
   -2.1484    5.5025   -0.3241 C   0  0  0  0  0  0  0  0  0  0  0  0
   -0.9566    4.7623   -0.3730 C   0  0  0  0  0  0  0  0  0  0  0  0
   -0.9766    3.3777   -0.1651 C   0  0  0  0  0  0  0  0  0  0  0  0
   -5.4867   -0.2158    0.0957 C   0  0  0  0  0  0  0  0  0  0  0  0
   -6.7828    0.0702    0.5567 C   0  0  0  0  0  0  0  0  0  0  0  0
   -7.8193   -0.8318    0.2992 C   0  0  0  0  0  0  0  0  0  0  0  0
   -7.5936   -2.0304   -0.4134 C   0  0  0  0  0  0  0  0  0  0  0  0
   -6.2860   -2.2846   -0.8684 C   0  0  0  0  0  0  0  0  0  0  0  0
   -5.2302   -1.3908   -0.6293 C   0  0  0  0  0  0  0  0  0  0  0  0
   -8.7207   -2.9989   -0.6699 C   0  0  0  0  0  0  0  0  0  0  0  0
   -3.0345   -0.7171    0.5641 H   0  0  0  0  0  0  0  0  0  0  0  0
   -4.3386    2.9528    0.3513 H   0  0  0  0  0  0  0  0  0  0  0  0
   -4.2992    5.4091   -0.0189 H   0  0  0  0  0  0  0  0  0  0  0  0
   -2.1349    6.5909   -0.4868 H   0  0  0  0  0  0  0  0  0  0  0  0
    0.0010    5.2661   -0.5753 H   0  0  0  0  0  0  0  0  0  0  0  0
   -0.0403    2.7994   -0.2055 H   0  0  0  0  0  0  0  0  0  0  0  0
   -6.9561    0.9992    1.1186 H   0  0  0  0  0  0  0  0  0  0  0  0
   -8.8326   -0.6021    0.6654 H   0  0  0  0  0  0  0  0  0  0  0  0
   -6.0817   -3.2044   -1.4386 H   0  0  0  0  0  0  0  0  0  0  0  0
   -4.2254   -1.6089   -1.0194 H   0  0  0  0  0  0  0  0  0  0  0  0
   -8.3984   -3.8373   -1.3170 H   0  0  0  0  0  0  0  0  0  0  0  0
   -9.1024   -3.4339    0.2780 H   0  0  0  0  0  0  0  0  0  0  0  0
   -9.5809   -2.5000   -1.1626 H   0  0  0  0  0  0  0  0  0  0  0  0
  2  1  1  0  0  0  0
  2  3  2  0  0  0  0
  3 18  1  0  0  0  0
  4  3  1  0  0  0  0
  5  6  1  0  0  0  0
  5  2  1  0  0  0  0
  6 19  1  0  0  0  0
  7 20  1  0  0  0  0
  7  6  2  0  0  0  0
  8  7  1  0  0  0  0
  9  8  2  0  0  0  0
  9 10  1  0  0  0  0
 10  5  2  0  0  0  0
 11  4  1  0  0  0  0
 11 12  1  0  0  0  0
 12 24  1  0  0  0  0
 13 12  2  0  0  0  0
 13 25  1  0  0  0  0
 14 13  1  0  0  0  0
 15 16  1  0  0  0  0
 15 14  2  0  0  0  0
 16 11  2  0  0  0  0
 17 14  1  0  0  0  0
 17 29  1  0  0  0  0
 21  8  1  0  0  0  0
 22  9  1  0  0  0  0
 23 10  1  0  0  0  0
 26 15  1  0  0  0  0
 27 16  1  0  0  0  0
 28 17  1  0  0  0  0
 30 17  1  0  0  0  0
M  END
