4
q = -1.0, confidence = 0.0

 16 16  0  0  1  0  0  0  0  0999 V2000
   -3.1307    0.1518   -0.1877 Cl  0  0  0  0  0  0  0  0  0  0  0  0
   -1.5061    0.8053   -0.2347 C   0  0  1  0  0  3  0  0  0  0  0  0
   -0.7840    0.7229   -1.4448 C   0  0  0  0  0  3  0  0  0  0  0  0
    0.5767    1.1681   -1.4872 C   0  0  0  0  0  3  0  0  0  0  0  0
    1.1819    1.6282   -0.2680 C   0  0  1  0  0  3  0  0  0  0  0  0
    0.3759    1.6465    0.9007 C   0  0  0  0  0  3  0  0  0  0  0  0
   -1.1273    1.8295    0.8093 C   0  0  0  0  0  0  0  0  0  0  0  0
    2.6384    2.0092   -0.2302 C   0  0  0  0  0  0  0  0  0  0  0  0
   -1.2297    0.2235   -2.3176 H   0  0  0  0  0  0  0  0  0  0  0  0
    1.1568    1.1001   -2.4172 H   0  0  0  0  0  0  0  0  0  0  0  0
    0.8781    1.8530    1.8589 H   0  0  0  0  0  0  0  0  0  0  0  0
   -1.6017    1.5644    1.7731 H   0  0  0  0  0  0  0  0  0  0  0  0
   -1.4583    2.8645    0.5471 H   0  0  0  0  0  0  0  0  0  0  0  0
    3.2326    1.4649   -0.9887 H   0  0  0  0  0  0  0  0  0  0  0  0
    2.7384    3.0968   -0.4300 H   0  0  0  0  0  0  0  0  0  0  0  0
    3.0794    1.8121    0.7658 H   0  0  0  0  0  0  0  0  0  0  0  0
  2  1  1  6  0  0  0
  2  7  1  0  0  0  0
  3  2  1  0  0  0  0
  4  3  1  0  0  0  0
  4  5  1  0  0  0  0
  5  8  1  1  0  0  0
  5  6  1  0  0  0  0
  6 11  1  0  0  0  0
  7  6  1  0  0  0  0
  7 12  1  0  0  0  0
  8 16  1  0  0  0  0
  9  3  1  0  0  0  0
 10  4  1  0  0  0  0
 13  7  1  0  0  0  0
 14  8  1  0  0  0  0
 15  8  1  0  0  0  0
M  END
