4
q = -1.0

 54 56  0  0  1  0  0  0  0  0999 V2000
   -3.0108   -0.7605   -1.3591 N   0  0  0  0  0  0  0  0  0  0  0  0
   -4.8449   -1.5703   -0.5530 N   0  0  0  0  0  0  0  0  0  0  0  0
    0.7419   -0.0486   -1.2213 C   0  0  1  0  0  3  0  0  0  0  0  0
    1.6893   -0.6765   -2.1102 C   0  0  0  0  0  3  0  0  0  0  0  0
    2.8039    0.2049   -2.3032 C   0  0  0  0  0  3  0  0  0  0  0  0
    2.5011    1.4561   -1.6491 C   0  0  0  0  0  0  0  0  0  0  0  0
    3.2222    2.6785   -1.5424 C   0  0  0  0  0  0  0  0  0  0  0  0
    2.6796    3.7131   -0.7919 C   0  0  0  0  0  0  0  0  0  0  0  0
    1.4191    3.5692   -0.1382 C   0  0  0  0  0  0  0  0  0  0  0  0
    0.6896    2.3905   -0.2230 C   0  0  0  0  0  0  0  0  0  0  0  0
    1.2219    1.3051   -0.9767 C   0  0  0  0  0  0  0  0  0  0  0  0
   -0.5886   -0.6195   -0.8117 C   0  0  0  0  0  0  0  0  0  0  0  0
   -1.7652   -0.0313   -1.6100 C   0  0  0  0  0  0  0  0  0  0  0  0
   -3.9446   -0.5458   -0.3716 C   0  0  1  0  0  3  0  0  0  0  0  0
   -3.3163   -1.8886   -2.1104 C   0  0  0  0  0  0  0  0  0  0  0  0
   -4.4765   -2.3974   -1.6018 C   0  0  0  0  0  0  0  0  0  0  0  0
   -6.0381   -1.8291    0.2417 C   0  0  0  0  0  0  0  0  0  0  0  0
   -3.9951   -0.1890    2.2691 C   0  0  0  0  0  0  0  0  0  0  0  0
   -2.6784   -0.9155    2.5696 C   0  0  0  0  0  0  0  0  0  0  0  0
   -2.8524    1.7274    0.7314 C   0  0  0  0  0  0  0  0  0  0  0  0
   -2.8215    2.7316    1.8915 C   0  0  0  0  0  0  0  0  0  0  0  0
   -5.5216    1.3953    0.6368 C   0  0  0  0  0  0  0  0  0  0  0  0
   -5.9125    1.7741   -0.7961 C   0  0  0  0  0  0  0  0  0  0  0  0
   -4.0671    0.6037    0.8133 B   0  0  0  0  0  0  0  0  0  0  0  0
    1.5743   -1.6724   -2.5552 H   0  0  0  0  0  0  0  0  0  0  0  0
    3.6803    0.0076   -2.9314 H   0  0  0  0  0  0  0  0  0  0  0  0
    4.1937    2.7889   -2.0464 H   0  0  0  0  0  0  0  0  0  0  0  0
    3.2239    4.6653   -0.7029 H   0  0  0  0  0  0  0  0  0  0  0  0
    1.0148    4.4132    0.4406 H   0  0  0  0  0  0  0  0  0  0  0  0
   -0.2837    2.2922    0.2786 H   0  0  0  0  0  0  0  0  0  0  0  0
   -0.7731   -0.4531    0.2681 H   0  0  0  0  0  0  0  0  0  0  0  0
   -0.5671   -1.7191   -0.9550 H   0  0  0  0  0  0  0  0  0  0  0  0
   -1.9209    1.0322   -1.3690 H   0  0  0  0  0  0  0  0  0  0  0  0
   -1.5621   -0.1029   -2.6970 H   0  0  0  0  0  0  0  0  0  0  0  0
   -2.6900   -2.2178   -2.9443 H   0  0  0  0  0  0  0  0  0  0  0  0
   -5.0758   -3.2622   -1.9004 H   0  0  0  0  0  0  0  0  0  0  0  0
   -5.8182   -2.5513    1.0519 H   0  0  0  0  0  0  0  0  0  0  0  0
   -6.8236   -2.2445   -0.4171 H   0  0  0  0  0  0  0  0  0  0  0  0
   -6.3920   -0.8863    0.6864 H   0  0  0  0  0  0  0  0  0  0  0  0
   -4.1798    0.5742    3.0584 H   0  0  0  0  0  0  0  0  0  0  0  0
   -4.8355   -0.9073    2.3931 H   0  0  0  0  0  0  0  0  0  0  0  0
   -2.4586   -1.7012    1.8127 H   0  0  0  0  0  0  0  0  0  0  0  0
   -2.6666   -1.4169    3.5616 H   0  0  0  0  0  0  0  0  0  0  0  0
   -1.8128   -0.2182    2.5568 H   0  0  0  0  0  0  0  0  0  0  0  0
   -1.8631    1.2224    0.7196 H   0  0  0  0  0  0  0  0  0  0  0  0
   -2.9095    2.3074   -0.2204 H   0  0  0  0  0  0  0  0  0  0  0  0
   -3.7719    3.2980    1.9766 H   0  0  0  0  0  0  0  0  0  0  0  0
   -2.0095    3.4845    1.7838 H   0  0  0  0  0  0  0  0  0  0  0  0
   -2.6650    2.2257    2.8666 H   0  0  0  0  0  0  0  0  0  0  0  0
   -6.3730    0.8628    1.1224 H   0  0  0  0  0  0  0  0  0  0  0  0
   -5.4368    2.3253    1.2413 H   0  0  0  0  0  0  0  0  0  0  0  0
   -5.0900    2.3215   -1.3055 H   0  0  0  0  0  0  0  0  0  0  0  0
   -6.8143    2.4213   -0.8543 H   0  0  0  0  0  0  0  0  0  0  0  0
   -6.1226    0.8775   -1.4212 H   0  0  0  0  0  0  0  0  0  0  0  0
  1 14  1  0  0  0  0
  2 14  1  0  0  0  0
  2 17  1  0  0  0  0
  3 11  1  0  0  0  0
  3 12  1  6  0  0  0
  4  3  1  0  0  0  0
  5  4  1  0  0  0  0
  5  6  1  0  0  0  0
  6  7  2  0  0  0  0
  6 11  1  0  0  0  0
  7  8  1  0  0  0  0
  8 28  1  0  0  0  0
  8  9  2  0  0  0  0
  9 29  1  0  0  0  0
 10  9  1  0  0  0  0
 10 30  1  0  0  0  0
 11 10  2  0  0  0  0
 12 31  1  0  0  0  0
 13 33  1  0  0  0  0
 13  1  1  0  0  0  0
 13 12  1  0  0  0  0
 14 24  1  1  0  0  0
 15 16  2  0  0  0  0
 15  1  1  0  0  0  0
 16  2  1  0  0  0  0
 17 39  1  0  0  0  0
 17 37  1  0  0  0  0
 18 41  1  0  0  0  0
 18 19  1  0  0  0  0
 18 40  1  0  0  0  0
 19 43  1  0  0  0  0
 20 24  1  0  0  0  0
 20 21  1  0  0  0  0
 21 47  1  0  0  0  0
 21 49  1  0  0  0  0
 22 24  1  0  0  0  0
 22 50  1  0  0  0  0
 22 51  1  0  0  0  0
 23 22  1  0  0  0  0
 24 18  1  0  0  0  0
 25  4  1  0  0  0  0
 26  5  1  0  0  0  0
 27  7  1  0  0  0  0
 32 12  1  0  0  0  0
 34 13  1  0  0  0  0
 35 15  1  0  0  0  0
 36 16  1  0  0  0  0
 38 17  1  0  0  0  0
 42 19  1  0  0  0  0
 44 19  1  0  0  0  0
 45 20  1  0  0  0  0
 46 20  1  0  0  0  0
 48 21  1  0  0  0  0
 52 23  1  0  0  0  0
 53 23  1  0  0  0  0
 54 23  1  0  0  0  0
M  END
