4
q = -1.0

 47 48  0  0  1  0  0  0  0  0999 V2000
   -2.4426    2.3582    0.2584 Si  0  0  0  0  0  0  0  0  0  0  0  0
    1.0979   -1.6680    0.4211 C   0  0  2  0  0  3  0  0  0  0  0  0
    1.0870   -0.7429    1.5046 C   0  0  2  0  0  3  0  0  0  0  0  0
    0.4998    0.5491    1.2876 C   0  0  0  0  0  3  0  0  0  0  0  0
    0.4754    1.2801    2.1073 H   0  0  0  0  0  0  0  0  0  0  0  0
   -0.0008    0.9199   -0.0071 C   0  0  2  0  0  3  0  0  0  0  0  0
    0.0946   -0.0460   -1.0549 C   0  0  1  0  0  3  0  0  0  0  0  0
    0.0386   -1.5248   -0.6609 C   0  0  2  0  0  0  0  0  0  0  0  0
    0.3889   -2.1005   -1.5432 H   0  0  0  0  0  0  0  0  0  0  0  0
    1.7847   -3.0033    0.5235 C   0  0  0  0  0  0  0  0  0  0  0  0
    2.6720   -2.9832    1.1831 H   0  0  0  0  0  0  0  0  0  0  0  0
    2.1153   -3.3473   -0.4770 H   0  0  0  0  0  0  0  0  0  0  0  0
    1.0829   -3.7732    0.9156 H   0  0  0  0  0  0  0  0  0  0  0  0
   -0.2386    0.2947   -2.4830 C   0  0  0  0  0  0  0  0  0  0  0  0
   -1.3252    0.1716   -2.6838 H   0  0  0  0  0  0  0  0  0  0  0  0
    0.3020   -0.3817   -3.1751 H   0  0  0  0  0  0  0  0  0  0  0  0
    0.0407    1.3326   -2.7458 H   0  0  0  0  0  0  0  0  0  0  0  0
    1.6771   -1.0614    2.8563 C   0  0  0  0  0  0  0  0  0  0  0  0
    0.9712   -1.6990    3.4303 H   0  0  0  0  0  0  0  0  0  0  0  0
    1.8638   -0.1402    3.4400 H   0  0  0  0  0  0  0  0  0  0  0  0
    2.6314   -1.6145    2.7844 H   0  0  0  0  0  0  0  0  0  0  0  0
   -0.5733    2.2946   -0.1905 C   0  0  0  0  0  0  0  0  0  0  0  0
   -0.4616    2.6569   -1.2311 H   0  0  0  0  0  0  0  0  0  0  0  0
   -0.0539    3.0284    0.4606 H   0  0  0  0  0  0  0  0  0  0  0  0
   -2.9917    4.1589    0.0685 C   0  0  0  0  0  0  0  0  0  0  0  0
   -2.8475    4.5147   -0.9724 H   0  0  0  0  0  0  0  0  0  0  0  0
   -2.4161    4.8295    0.7392 H   0  0  0  0  0  0  0  0  0  0  0  0
   -4.0669    4.2721    0.3179 H   0  0  0  0  0  0  0  0  0  0  0  0
   -3.4423    1.2410   -0.8909 C   0  0  0  0  0  0  0  0  0  0  0  0
   -3.1221    0.1831   -0.8050 H   0  0  0  0  0  0  0  0  0  0  0  0
   -3.3404    1.5522   -1.9506 H   0  0  0  0  0  0  0  0  0  0  0  0
   -4.5194    1.2871   -0.6280 H   0  0  0  0  0  0  0  0  0  0  0  0
   -2.6708    1.7905    2.0490 C   0  0  0  0  0  0  0  0  0  0  0  0
   -3.7345    1.8832    2.3510 H   0  0  0  0  0  0  0  0  0  0  0  0
   -2.0652    2.3973    2.7532 H   0  0  0  0  0  0  0  0  0  0  0  0
   -2.3794    0.7273    2.1652 H   0  0  0  0  0  0  0  0  0  0  0  0
   -1.3696   -2.0156   -0.3404 C   0  0  0  0  0  0  0  0  0  0  0  0
   -1.9047   -1.9729    0.9627 C   0  0  0  0  0  0  0  0  0  0  0  0
   -1.2687   -1.6451    1.7974 H   0  0  0  0  0  0  0  0  0  0  0  0
   -3.2370   -2.3408    1.2062 C   0  0  0  0  0  0  0  0  0  0  0  0
   -3.6356   -2.2987    2.2315 H   0  0  0  0  0  0  0  0  0  0  0  0
   -4.0605   -2.7590    0.1491 C   0  0  0  0  0  0  0  0  0  0  0  0
   -5.1065   -3.0429    0.3396 H   0  0  0  0  0  0  0  0  0  0  0  0
   -3.5359   -2.8222   -1.1516 C   0  0  0  0  0  0  0  0  0  0  0  0
   -4.1687   -3.1605   -1.9864 H   0  0  0  0  0  0  0  0  0  0  0  0
   -2.2021   -2.4589   -1.3894 C   0  0  0  0  0  0  0  0  0  0  0  0
   -1.7937   -2.5164   -2.4112 H   0  0  0  0  0  0  0  0  0  0  0  0
  1 33  1  0  0  0  0
  2 10  1  1  0  0  0
  2  3  1  0  0  0  0
  3 18  1  6  0  0  0
  4  3  1  0  0  0  0
  4  5  1  0  0  0  0
  6 22  1  6  0  0  0
  6  4  1  0  0  0  0
  7 14  1  6  0  0  0
  7  8  1  0  0  0  0
  7  6  1  0  0  0  0
  8  9  1  6  0  0  0
  8 37  1  0  0  0  0
  8  2  1  0  0  0  0
 10 13  1  0  0  0  0
 10 11  1  0  0  0  0
 12 10  1  0  0  0  0
 15 14  1  0  0  0  0
 16 14  1  0  0  0  0
 17 14  1  0  0  0  0
 18 19  1  0  0  0  0
 18 20  1  0  0  0  0
 21 18  1  0  0  0  0
 22  1  1  0  0  0  0
 22 24  1  0  0  0  0
 23 22  1  0  0  0  0
 25  1  1  0  0  0  0
 25 28  1  0  0  0  0
 25 27  1  0  0  0  0
 26 25  1  0  0  0  0
 29 30  1  0  0  0  0
 29 32  1  0  0  0  0
 29  1  1  0  0  0  0
 31 29  1  0  0  0  0
 33 36  1  0  0  0  0
 33 34  1  0  0  0  0
 33 35  1  0  0  0  0
 37 38  1  0  0  0  0
 38 40  2  0  0  0  0
 38 39  1  0  0  0  0
 40 41  1  0  0  0  0
 42 43  1  0  0  0  0
 42 40  1  0  0  0  0
 44 42  2  0  0  0  0
 45 44  1  0  0  0  0
 46 44  1  0  0  0  0
 46 37  2  0  0  0  0
 47 46  1  0  0  0  0
M  END
