1
q = -1.0, confidence = 0.0

 28 32  0  0  0  0  0  0  0  0999 V2000
   -0.8936    0.5788    0.1580 C   0  0  0  0  0  3  0  0  0  0  0  0
   -1.8365    1.7325    0.0579 C   0  0  0  0  0  0  0  0  0  0  0  0
   -3.2337    1.7802    0.0279 C   0  0  0  0  0  0  0  0  0  0  0  0
   -3.8293    0.8584    0.0940 H   0  0  0  0  0  0  0  0  0  0  0  0
   -3.8856    3.0290   -0.0882 C   0  0  0  0  0  0  0  0  0  0  0  0
   -4.9853    3.0668   -0.1062 H   0  0  0  0  0  0  0  0  0  0  0  0
   -3.1459    4.2159   -0.1782 C   0  0  0  0  0  0  0  0  0  0  0  0
   -3.6684    5.1808   -0.2650 H   0  0  0  0  0  0  0  0  0  0  0  0
   -1.7333    4.1856   -0.1629 C   0  0  0  0  0  0  0  0  0  0  0  0
   -1.1554    5.1191   -0.2429 H   0  0  0  0  0  0  0  0  0  0  0  0
   -1.0829    2.9554   -0.0508 C   0  0  0  0  0  0  0  0  0  0  0  0
    0.3248    2.5677   -0.0384 C   0  0  0  0  0  0  0  0  0  0  0  0
    1.5985    3.0798   -0.1279 C   0  0  0  0  0  0  0  0  0  0  0  0
    1.8919    4.1345   -0.2258 H   0  0  0  0  0  0  0  0  0  0  0  0
    2.5453    1.9604   -0.0808 C   0  0  0  0  0  0  0  0  0  0  0  0
    3.9546    1.9784   -0.1491 C   0  0  0  0  0  0  0  0  0  0  0  0
    4.5278    2.9104   -0.2508 H   0  0  0  0  0  0  0  0  0  0  0  0
    4.5862    0.7368   -0.0861 C   0  0  0  0  0  0  0  0  0  0  0  0
    5.9306    0.4556   -0.1748 O   0  0  0  0  0  0  0  0  0  0  0  0
    6.0430   -0.9313    0.1500 C   0  0  0  0  0  0  0  0  0  0  0  0
    6.3954   -1.0423    1.2069 H   0  0  0  0  0  0  0  0  0  0  0  0
    6.7516   -1.4227   -0.5489 H   0  0  0  0  0  0  0  0  0  0  0  0
    4.7474   -1.5233    0.0159 O   0  0  0  0  0  0  0  0  0  0  0  0
    3.8680   -0.4658    0.0296 C   0  0  0  0  0  0  0  0  0  0  0  0
    2.4736   -0.5122    0.0930 C   0  0  0  0  0  0  0  0  0  0  0  0
    1.9512   -1.4716    0.1844 H   0  0  0  0  0  0  0  0  0  0  0  0
    1.8040    0.7268    0.0459 C   0  0  0  0  0  0  0  0  0  0  0  0
    0.3869    1.1032    0.0822 C   0  0  0  0  0  0  0  0  0  0  0  0
  2  1  2  0  0  0  0
  3  2  1  0  0  0  0
  3  4  1  0  0  0  0
  5  3  2  0  0  0  0
  6  5  1  0  0  0  0
  7  9  2  0  0  0  0
  7  5  1  0  0  0  0
  8  7  1  0  0  0  0
  9 11  1  0  0  0  0
 10  9  1  0  0  0  0
 11 12  2  0  0  0  0
 11  2  1  0  0  0  0
 12 28  1  0  0  0  0
 13 15  2  0  0  0  0
 13 12  1  0  0  0  0
 14 13  1  0  0  0  0
 15 27  1  0  0  0  0
 16 18  2  0  0  0  0
 16 15  1  0  0  0  0
 17 16  1  0  0  0  0
 18 24  1  0  0  0  0
 19 18  1  0  0  0  0
 19 20  1  0  0  0  0
 20 21  1  0  0  0  0
 22 20  1  0  0  0  0
 23 24  1  0  0  0  0
 23 20  1  0  0  0  0
 24 25  2  0  0  0  0
 25 26  1  0  0  0  0
 27 28  2  0  0  0  0
 27 25  1  0  0  0  0
 28  1  1  0  0  0  0
M  END
