3
q = 0.0, confidence = 1.0

 36 39  0  0  1  0  0  0  0  0999 V2000
    1.4510    2.5344   -0.0000 N   0  0  0  0  0  0  0  0  0  0  0  0
   -0.5432    1.6648    0.0001 N   0  0  0  0  0  0  0  0  0  0  0  0
    0.7908    1.3341    0.0001 C   0  0  0  0  0  2  0  0  0  0  0  0
    0.5577    3.5931   -0.0002 C   0  0  0  0  0  0  0  0  0  0  0  0
    0.8826    4.6376   -0.0001 H   0  0  0  0  0  0  0  0  0  0  0  0
   -0.6982    3.0462   -0.0001 C   0  0  0  0  0  0  0  0  0  0  0  0
   -1.6727    3.5363   -0.0001 H   0  0  0  0  0  0  0  0  0  0  0  0
    2.8986    2.6821   -0.0000 C   0  0  0  0  0  0  0  0  0  0  0  0
    3.3452    1.6702    0.0006 H   0  0  0  0  0  0  0  0  0  0  0  0
    3.2299    3.2304    0.9039 H   0  0  0  0  0  0  0  0  0  0  0  0
    3.2300    3.2293   -0.9045 H   0  0  0  0  0  0  0  0  0  0  0  0
   -1.6594    0.6720    0.0000 C   0  0  2  0  0  0  0  0  0  0  0  0
   -1.5712   -0.2100   -1.2668 C   0  0  0  0  0  0  0  0  0  0  0  0
   -0.5815   -0.7132   -1.2928 H   0  0  0  0  0  0  0  0  0  0  0  0
   -1.6344    0.4398   -2.1660 H   0  0  0  0  0  0  0  0  0  0  0  0
   -2.7045   -1.2511   -1.2595 C   0  0  2  0  0  0  0  0  0  0  0  0
   -2.6135   -1.8825   -2.1678 H   0  0  0  0  0  0  0  0  0  0  0  0
   -4.0630   -0.5269   -1.2580 C   0  0  0  0  0  0  0  0  0  0  0  0
   -4.8939   -1.2638   -1.2711 H   0  0  0  0  0  0  0  0  0  0  0  0
   -4.1675    0.0948   -2.1734 H   0  0  0  0  0  0  0  0  0  0  0  0
   -4.1655    0.3555    0.0000 C   0  0  2  0  0  0  0  0  0  0  0  0
   -5.1328    0.9006    0.0000 H   0  0  0  0  0  0  0  0  0  0  0  0
   -3.0230    1.3935    0.0001 C   0  0  0  0  0  0  0  0  0  0  0  0
   -3.1111    2.0420    0.8980 H   0  0  0  0  0  0  0  0  0  0  0  0
   -3.1111    2.0421   -0.8978 H   0  0  0  0  0  0  0  0  0  0  0  0
   -1.5712   -0.2101    1.2669 C   0  0  0  0  0  0  0  0  0  0  0  0
   -0.5815   -0.7133    1.2928 H   0  0  0  0  0  0  0  0  0  0  0  0
   -1.6345    0.4397    2.1660 H   0  0  0  0  0  0  0  0  0  0  0  0
   -2.7045   -1.2512    1.2594 C   0  0  2  0  0  0  0  0  0  0  0  0
   -2.6135   -1.8827    2.1676 H   0  0  0  0  0  0  0  0  0  0  0  0
   -2.5798   -2.1312   -0.0001 C   0  0  0  0  0  0  0  0  0  0  0  0
   -3.3726   -2.9091   -0.0001 H   0  0  0  0  0  0  0  0  0  0  0  0
   -1.6031   -2.6592   -0.0001 H   0  0  0  0  0  0  0  0  0  0  0  0
   -4.0630   -0.5270    1.2580 C   0  0  0  0  0  0  0  0  0  0  0  0
   -4.8939   -1.2639    1.2710 H   0  0  0  0  0  0  0  0  0  0  0  0
   -4.1675    0.0946    2.1734 H   0  0  0  0  0  0  0  0  0  0  0  0
  1  8  1  0  0  0  0
  1  3  1  0  0  0  0
  2  3  1  0  0  0  0
  4  5  1  0  0  0  0
  4  6  2  0  0  0  0
  4  1  1  0  0  0  0
  6  2  1  0  0  0  0
  7  6  1  0  0  0  0
  8  9  1  0  0  0  0
  8 10  1  0  0  0  0
 11  8  1  0  0  0  0
 12 23  1  0  0  0  0
 12  2  1  1  0  0  0
 12 26  1  0  0  0  0
 13 16  1  0  0  0  0
 13 12  1  0  0  0  0
 14 13  1  0  0  0  0
 15 13  1  0  0  0  0
 16 17  1  6  0  0  0
 16 18  1  0  0  0  0
 16 31  1  0  0  0  0
 18 21  1  0  0  0  0
 19 18  1  0  0  0  0
 20 18  1  0  0  0  0
 21 22  1  1  0  0  0
 21 23  1  0  0  0  0
 21 34  1  0  0  0  0
 23 24  1  0  0  0  0
 25 23  1  0  0  0  0
 26 27  1  0  0  0  0
 26 28  1  0  0  0  0
 29 26  1  0  0  0  0
 29 30  1  1  0  0  0
 31 29  1  0  0  0  0
 32 31  1  0  0  0  0
 33 31  1  0  0  0  0
 34 29  1  0  0  0  0
 34 35  1  0  0  0  0
 34 36  1  0  0  0  0
M  END
