5
q = -1

 28 28  0  0  0  0  0  0  0  0999 V2000
    1.1974   -1.7309   -0.3601 Si  0  0  0  0  0  3  0  0  0  0  0  0
    2.7156   -0.8280    0.6159 N   0  0  0  0  0  4  0  0  0  0  0  0
    1.0767   -3.3948    0.5621 C   0  0  0  0  0  0  0  0  0  0  0  0
    2.0633   -2.1071   -2.0086 C   0  0  0  0  0  0  0  0  0  0  0  0
    1.3648    1.0141   -0.3720 C   0  0  0  0  0  3  0  0  0  0  0  0
    1.3613    2.3742   -0.7960 C   0  0  0  0  0  0  0  0  0  0  0  0
    2.4760    3.2196   -0.7015 C   0  0  0  0  0  0  0  0  0  0  0  0
    3.6853    2.7358   -0.1809 C   0  0  0  0  0  0  0  0  0  0  0  0
    3.7531    1.3999    0.2339 C   0  0  0  0  0  0  0  0  0  0  0  0
    2.6190    0.5757    0.1284 C   0  0  0  0  0  0  0  0  0  0  0  0
    2.4367   -0.8554    2.0763 C   0  0  0  0  0  0  0  0  0  0  0  0
    4.0230   -1.4745    0.3448 C   0  0  0  0  0  0  0  0  0  0  0  0
    0.3551   -4.0069   -0.0195 H   0  0  0  0  0  0  0  0  0  0  0  0
    2.0267   -3.9672    0.6120 H   0  0  0  0  0  0  0  0  0  0  0  0
    0.6625   -3.2940    1.5853 H   0  0  0  0  0  0  0  0  0  0  0  0
    1.2945   -2.5491   -2.6752 H   0  0  0  0  0  0  0  0  0  0  0  0
    2.4104   -1.1717   -2.4918 H   0  0  0  0  0  0  0  0  0  0  0  0
    2.9038   -2.8275   -1.9438 H   0  0  0  0  0  0  0  0  0  0  0  0
    0.4411    2.7873   -1.2347 H   0  0  0  0  0  0  0  0  0  0  0  0
    2.4016    4.2615   -1.0508 H   0  0  0  0  0  0  0  0  0  0  0  0
    4.5717    3.3831   -0.1070 H   0  0  0  0  0  0  0  0  0  0  0  0
    4.6984    1.0109    0.6404 H   0  0  0  0  0  0  0  0  0  0  0  0
    2.4983   -1.8943    2.4509 H   0  0  0  0  0  0  0  0  0  0  0  0
    3.1678   -0.2149    2.6091 H   0  0  0  0  0  0  0  0  0  0  0  0
    1.4148   -0.4687    2.2289 H   0  0  0  0  0  0  0  0  0  0  0  0
    3.9280   -2.5607    0.5334 H   0  0  0  0  0  0  0  0  0  0  0  0
    4.3086   -1.3059   -0.7069 H   0  0  0  0  0  0  0  0  0  0  0  0
    4.8124   -1.0702    1.0097 H   0  0  0  0  0  0  0  0  0  0  0  0
  1  3  1  0  0  0  0
  1  2  1  0  0  0  0
  2 11  1  0  0  0  0
  3 14  1  0  0  0  0
  3 15  1  0  0  0  0
  4 18  1  0  0  0  0
  4  1  1  0  0  0  0
  5 10  1  0  0  0  0
  6  7  1  0  0  0  0
  6  5  2  0  0  0  0
  7  8  2  0  0  0  0
  8 21  1  0  0  0  0
  8  9  1  0  0  0  0
  9 22  1  0  0  0  0
 10  9  2  0  0  0  0
 10  2  1  0  0  0  0
 11 25  1  0  0  0  0
 11 23  1  0  0  0  0
 11 24  1  0  0  0  0
 12 26  1  0  0  0  0
 12  2  1  0  0  0  0
 12 28  1  0  0  0  0
 13  3  1  0  0  0  0
 16  4  1  0  0  0  0
 17  4  1  0  0  0  0
 19  6  1  0  0  0  0
 20  7  1  0  0  0  0
 27 12  1  0  0  0  0
M  END
