8
q = -1.0, confidence = 0.004

 23 24  0  0  0  0  0  0  0  0999 V2000
    5.4101   -1.8077    1.6682 O   0  0  0  0  0  0  0  0  0  0  0  0
    4.9228   -1.0579    0.8211 C   0  0  0  0  0  0  0  0  0  0  0  0
    3.4599   -1.1357    0.4954 C   0  0  0  0  0  0  0  0  0  0  0  0
    2.9101   -0.7317   -0.7405 C   0  0  0  0  0  0  0  0  0  0  0  0
    3.5601   -0.3275   -1.5296 H   0  0  0  0  0  0  0  0  0  0  0  0
    1.5370   -0.8705   -0.9894 C   0  0  0  0  0  0  0  0  0  0  0  0
    1.1275   -0.5453   -1.9577 H   0  0  0  0  0  0  0  0  0  0  0  0
    0.6983   -1.4175   -0.0058 C   0  0  0  0  0  3  0  0  0  0  0  0
    1.2386   -1.8685    1.2121 C   0  0  0  0  0  0  0  0  0  0  0  0
    0.5923   -2.3379    1.9687 H   0  0  0  0  0  0  0  0  0  0  0  0
    2.6094   -1.7281    1.4548 C   0  0  0  0  0  0  0  0  0  0  0  0
    3.0600   -2.0844    2.3935 H   0  0  0  0  0  0  0  0  0  0  0  0
    5.8034   -0.0579    0.1206 C   0  0  0  0  0  0  0  0  0  0  0  0
    7.1800   -0.3555    0.0222 C   0  0  0  0  0  0  0  0  0  0  0  0
    7.5304   -1.3171    0.4255 H   0  0  0  0  0  0  0  0  0  0  0  0
    8.0641    0.5549   -0.5670 C   0  0  0  0  0  0  0  0  0  0  0  0
    9.1327    0.3059   -0.6535 H   0  0  0  0  0  0  0  0  0  0  0  0
    7.5896    1.7908   -1.0414 C   0  0  0  0  0  0  0  0  0  0  0  0
    8.2859    2.5098   -1.4995 H   0  0  0  0  0  0  0  0  0  0  0  0
    6.2278    2.1090   -0.9214 C   0  0  0  0  0  0  0  0  0  0  0  0
    5.8554    3.0832   -1.2745 H   0  0  0  0  0  0  0  0  0  0  0  0
    5.3370    1.1886   -0.3494 C   0  0  0  0  0  0  0  0  0  0  0  0
    4.2756    1.4512   -0.2412 H   0  0  0  0  0  0  0  0  0  0  0  0
  2  1  2  0  0  0  0
  3  2  1  0  0  0  0
  3 11  1  0  0  0  0
  4  3  2  0  0  0  0
  5  4  1  0  0  0  0
  6  4  1  0  0  0  0
  6  8  2  0  0  0  0
  7  6  1  0  0  0  0
  8  9  1  0  0  0  0
  9 11  2  0  0  0  0
  9 10  1  0  0  0  0
 11 12  1  0  0  0  0
 13  2  1  0  0  0  0
 14 13  1  0  0  0  0
 14 15  1  0  0  0  0
 16 14  2  0  0  0  0
 17 16  1  0  0  0  0
 18 20  2  0  0  0  0
 18 16  1  0  0  0  0
 19 18  1  0  0  0  0
 20 22  1  0  0  0  0
 21 20  1  0  0  0  0
 22 23  1  0  0  0  0
 22 13  2  0  0  0  0
M  END
