7
q = 0.0, confidence = 0.988

 22 21  0  0  0  0  0  0  0  0999 V2000
   -1.3247    3.9888   -0.3297 O   0  0  0  0  0  0  0  0  0  0  0  0
    0.7720    3.7367    0.5107 O   0  0  0  0  0  0  0  0  0  0  0  0
   -1.3769   -1.7488    4.3961 C   0  0  0  0  0  0  0  0  0  0  0  0
   -1.4456   -1.7529    2.8630 C   0  0  0  0  0  0  0  0  0  0  0  0
   -1.2590   -0.3725    2.2743 C   0  0  0  0  0  3  0  0  0  0  0  0
   -2.3713    0.5137    2.1004 C   0  0  0  0  0  3  0  0  0  0  0  0
   -2.1604    1.7750    1.4707 C   0  0  0  0  0  3  0  0  0  0  0  0
   -0.8050    2.1227    1.1254 C   0  0  0  0  0  3  0  0  0  0  0  0
   -0.5408    3.3528    0.3647 C   0  0  0  0  0  0  0  0  0  0  0  0
    1.1506    4.9044   -0.2164 C   0  0  0  0  0  0  0  0  0  0  0  0
   -0.4006   -1.3513    4.7433 H   0  0  0  0  0  0  0  0  0  0  0  0
   -1.4967   -2.7689    4.8157 H   0  0  0  0  0  0  0  0  0  0  0  0
   -2.1700   -1.1057    4.8304 H   0  0  0  0  0  0  0  0  0  0  0  0
   -2.4066   -2.1966    2.5272 H   0  0  0  0  0  0  0  0  0  0  0  0
   -0.6474   -2.4238    2.4798 H   0  0  0  0  0  0  0  0  0  0  0  0
   -0.3097    0.0940    2.5902 H   0  0  0  0  0  0  0  0  0  0  0  0
   -3.4040    0.1881    2.3100 H   0  0  0  0  0  0  0  0  0  0  0  0
   -3.0026    2.4389    1.2240 H   0  0  0  0  0  0  0  0  0  0  0  0
   -0.0081    1.8672    1.8412 H   0  0  0  0  0  0  0  0  0  0  0  0
    0.8613    4.8223   -1.2841 H   0  0  0  0  0  0  0  0  0  0  0  0
    2.2482    4.9878   -0.1196 H   0  0  0  0  0  0  0  0  0  0  0  0
    0.6582    5.8082    0.1984 H   0  0  0  0  0  0  0  0  0  0  0  0
  1  9  2  0  0  0  0
  3 11  1  0  0  0  0
  3 12  1  0  0  0  0
  3 13  1  0  0  0  0
  4  3  1  0  0  0  0
  5 16  1  0  0  0  0
  5  4  1  0  0  0  0
  6  5  1  0  0  0  0
  6 17  1  0  0  0  0
  7  6  1  0  0  0  0
  8  7  1  0  0  0  0
  8 19  1  0  0  0  0
  9  2  1  0  0  0  0
  9  8  1  0  0  0  0
 10 21  1  0  0  0  0
 10 22  1  0  0  0  0
 10  2  1  0  0  0  0
 14  4  1  0  0  0  0
 15  4  1  0  0  0  0
 18  7  1  0  0  0  0
 20 10  1  0  0  0  0
M  END
