1
q = -1.0

 20 21  0  0  0  0  0  0  0  0999 V2000
    1.4902   -0.4304   -1.7894 C   0  0  0  0  0  3  0  0  0  0  0  0
    1.8112   -1.6705   -2.3807 C   0  0  0  0  0  0  0  0  0  0  0  0
    1.0425   -2.4488   -2.4881 H   0  0  0  0  0  0  0  0  0  0  0  0
    3.1245   -1.9211   -2.8066 C   0  0  0  0  0  0  0  0  0  0  0  0
    3.4050   -2.8807   -3.2675 H   0  0  0  0  0  0  0  0  0  0  0  0
    4.1094   -0.9594   -2.6295 C   0  0  0  0  0  0  0  0  0  0  0  0
    5.1654   -1.0677   -2.9062 H   0  0  0  0  0  0  0  0  0  0  0  0
    3.8290    0.2649   -2.0558 N   0  3  0  0  0  0  0  0  0  0  0  0
    4.7822    1.0916   -1.8777 O   0  5  0  0  0  0  0  0  0  0  0  0
    2.5061    0.5496   -1.6771 C   0  0  0  0  0  0  0  0  0  0  0  0
    2.2346    1.9239   -1.1764 C   0  0  0  0  0  0  0  0  0  0  0  0
    3.1143    2.6181   -0.3138 C   0  0  0  0  0  0  0  0  0  0  0  0
    4.0506    2.1452   -0.0005 H   0  0  0  0  0  0  0  0  0  0  0  0
    2.7649    3.9029    0.1166 C   0  0  0  0  0  0  0  0  0  0  0  0
    3.4285    4.4527    0.8019 H   0  0  0  0  0  0  0  0  0  0  0  0
    1.5713    4.4787   -0.3435 C   0  0  0  0  0  0  0  0  0  0  0  0
    1.2720    5.4976   -0.0533 H   0  0  0  0  0  0  0  0  0  0  0  0
    0.7652    3.7138   -1.2025 C   0  0  0  0  0  0  0  0  0  0  0  0
   -0.1874    4.1226   -1.5858 H   0  0  0  0  0  0  0  0  0  0  0  0
    1.0740    2.4727   -1.5984 N   0  0  0  0  0  0  0  0  0  0  0  0
  1 10  1  0  0  0  0
  2  1  2  0  0  0  0
  3  2  1  0  0  0  0
  4  6  2  0  0  0  0
  4  2  1  0  0  0  0
  5  4  1  0  0  0  0
  6  8  1  0  0  0  0
  7  6  1  0  0  0  0
  8  9  1  0  0  0  0
  8 10  2  0  0  0  0
 10 11  1  0  0  0  0
 11 12  1  0  0  0  0
 12 13  1  0  0  0  0
 12 14  2  0  0  0  0
 14 15  1  0  0  0  0
 16 17  1  0  0  0  0
 16 14  1  0  0  0  0
 18 16  2  0  0  0  0
 19 18  1  0  0  0  0
 20 18  1  0  0  0  0
 20 11  2  0  0  0  0
M  CHG  2   8   1   9  -1
M  END
