2
q = -1.0, confidence = 0.0

 13 13  0  0  1  0  0  0  0  0999 V2000
   -5.9710   -0.4486   -0.5327 Br  0  0  0  0  0  0  0  0  0  0  0  0
    0.3182    0.2741    2.0896 C   0  0  0  0  0  3  0  0  0  0  0  0
    1.1630   -0.2042    2.6045 H   0  0  0  0  0  0  0  0  0  0  0  0
   -0.1180    1.1234    2.6396 H   0  0  0  0  0  0  0  0  0  0  0  0
   -0.5355   -0.5344    1.2745 C   0  0  2  0  0  3  0  0  0  0  0  0
   -1.9832   -0.2942    1.1674 C   0  0  0  0  0  0  0  0  0  0  0  0
   -2.8135    0.4354    2.0117 C   0  0  0  0  0  0  0  0  0  0  0  0
   -2.4504    0.8999    2.9388 H   0  0  0  0  0  0  0  0  0  0  0  0
   -4.1723    0.4873    1.5793 C   0  0  0  0  0  0  0  0  0  0  0  0
   -4.9821    1.0028    2.1115 H   0  0  0  0  0  0  0  0  0  0  0  0
   -4.3615   -0.2225    0.4066 C   0  0  0  0  0  0  0  0  0  0  0  0
   -0.1661   -2.3176    1.0987 S   0  0  0  0  0  1  0  0  0  0  0  0
   -2.8943   -0.9545   -0.1851 S   0  0  0  0  0  0  0  0  0  0  0  0
  1 11  1  0  0  0  0
  2  3  1  0  0  0  0
  2  4  1  0  0  0  0
  5 12  1  1  0  0  0
  5  2  1  0  0  0  0
  6  5  1  0  0  0  0
  6  7  2  0  0  0  0
  7  8  1  0  0  0  0
  9  7  1  0  0  0  0
  9 10  1  0  0  0  0
 11  9  2  0  0  0  0
 13 11  1  0  0  0  0
 13  6  1  0  0  0  0
M  END
