3
q = 0.0, confidence = 0.998

 39 40  0  0  0  0  0  0  0  0999 V2000
   -1.4004    0.3252    0.7271 B   0  0  0  0  0  0  0  0  0  0  0  0
   -1.0503    1.8119    0.4958 N   0  0  0  0  0  0  0  0  0  0  0  0
   -0.0690    1.7041    1.5393 C   0  0  0  0  0  3  0  0  0  0  0  0
    0.4214    2.5547    2.0396 H   0  0  0  0  0  0  0  0  0  0  0  0
   -0.2855    0.3105    1.8206 C   0  0  0  0  0  0  0  0  0  0  0  0
    0.1325   -0.3044    2.6241 H   0  0  0  0  0  0  0  0  0  0  0  0
   -2.6463   -0.5244    0.3004 C   0  0  0  0  0  0  0  0  0  0  0  0
   -3.6645   -0.6963    1.2899 C   0  0  0  0  0  0  0  0  0  0  0  0
   -4.8104   -1.4489    0.9933 C   0  0  0  0  0  0  0  0  0  0  0  0
   -5.5879   -1.5652    1.7669 H   0  0  0  0  0  0  0  0  0  0  0  0
   -6.2287   -2.8770   -0.5479 C   0  0  0  0  0  0  0  0  0  0  0  0
   -6.2306   -3.2694   -1.5832 H   0  0  0  0  0  0  0  0  0  0  0  0
   -7.1504   -2.2734   -0.4107 H   0  0  0  0  0  0  0  0  0  0  0  0
   -6.3098   -3.7423    0.1433 H   0  0  0  0  0  0  0  0  0  0  0  0
   -1.8177   -0.9720   -2.0802 C   0  0  0  0  0  0  0  0  0  0  0  0
   -2.2207   -0.3479   -2.9055 H   0  0  0  0  0  0  0  0  0  0  0  0
   -1.5456   -1.9526   -2.5221 H   0  0  0  0  0  0  0  0  0  0  0  0
   -0.8880   -0.4786   -1.7321 H   0  0  0  0  0  0  0  0  0  0  0  0
   -3.9877   -1.8888   -1.2253 C   0  0  0  0  0  0  0  0  0  0  0  0
   -4.1075   -2.3583   -2.2161 H   0  0  0  0  0  0  0  0  0  0  0  0
   -4.9919   -2.0623   -0.2627 C   0  0  0  0  0  0  0  0  0  0  0  0
   -2.8273   -1.1276   -0.9711 C   0  0  0  0  0  0  0  0  0  0  0  0
   -3.5277   -0.0660    2.6574 C   0  0  0  0  0  0  0  0  0  0  0  0
   -4.4257   -0.2504    3.2784 H   0  0  0  0  0  0  0  0  0  0  0  0
   -3.3810    1.0325    2.5916 H   0  0  0  0  0  0  0  0  0  0  0  0
   -2.6453   -0.4621    3.2008 H   0  0  0  0  0  0  0  0  0  0  0  0
   -1.6213    3.0137   -0.1400 C   0  0  0  0  0  0  0  0  0  0  0  0
   -2.7273    3.5589    0.7841 C   0  0  0  0  0  0  0  0  0  0  0  0
   -3.1829    4.4700    0.3473 H   0  0  0  0  0  0  0  0  0  0  0  0
   -2.3192    3.8223    1.7814 H   0  0  0  0  0  0  0  0  0  0  0  0
   -3.5269    2.8037    0.9214 H   0  0  0  0  0  0  0  0  0  0  0  0
   -2.2083    2.5861   -1.4926 C   0  0  0  0  0  0  0  0  0  0  0  0
   -2.6790    3.4566   -1.9903 H   0  0  0  0  0  0  0  0  0  0  0  0
   -2.9807    1.8039   -1.3560 H   0  0  0  0  0  0  0  0  0  0  0  0
   -1.4060    2.1891   -2.1453 H   0  0  0  0  0  0  0  0  0  0  0  0
   -0.5119    4.0556   -0.3484 C   0  0  0  0  0  0  0  0  0  0  0  0
   -0.9226    4.9433   -0.8683 H   0  0  0  0  0  0  0  0  0  0  0  0
    0.3014    3.6249   -0.9663 H   0  0  0  0  0  0  0  0  0  0  0  0
   -0.0871    4.4024    0.6157 H   0  0  0  0  0  0  0  0  0  0  0  0
  1  5  2  0  0  0  0
  2  1  1  0  0  0  0
  2  3  1  0  0  0  0
  3  5  1  0  0  0  0
  3  4  1  0  0  0  0
  5  6  1  0  0  0  0
  7  1  1  0  0  0  0
  7  8  1  0  0  0  0
  8 23  1  0  0  0  0
  9  8  2  0  0  0  0
  9 10  1  0  0  0  0
 11 13  1  0  0  0  0
 11 21  1  0  0  0  0
 11 14  1  0  0  0  0
 12 11  1  0  0  0  0
 15 18  1  0  0  0  0
 15 22  1  0  0  0  0
 16 15  1  0  0  0  0
 17 15  1  0  0  0  0
 19 22  1  0  0  0  0
 19 21  2  0  0  0  0
 20 19  1  0  0  0  0
 21  9  1  0  0  0  0
 22  7  2  0  0  0  0
 23 26  1  0  0  0  0
 23 24  1  0  0  0  0
 25 23  1  0  0  0  0
 27  2  1  0  0  0  0
 27 28  1  0  0  0  0
 28 31  1  0  0  0  0
 28 30  1  0  0  0  0
 29 28  1  0  0  0  0
 32 34  1  0  0  0  0
 32 27  1  0  0  0  0
 33 32  1  0  0  0  0
 35 32  1  0  0  0  0
 36 27  1  0  0  0  0
 36 39  1  0  0  0  0
 37 36  1  0  0  0  0
 38 36  1  0  0  0  0
M  END
