18
q = -1.0, confidence = 0.0

 32 33  0  0  0  0  0  0  0  0999 V2000
    8.5260    0.0895   -0.0099 N   0  0  0  0  0  0  0  0  0  0  0  0
    3.9775   -1.4225    0.0511 O   0  0  0  0  0  0  0  0  0  0  0  0
    6.6938    1.7188   -0.0710 C   0  0  0  0  0  0  0  0  0  0  0  0
    7.4005    2.5573   -0.0864 H   0  0  0  0  0  0  0  0  0  0  0  0
    9.5302    1.1370   -0.1555 C   0  0  0  0  0  0  0  0  0  0  0  0
    9.1610    1.9030   -0.8680 H   0  0  0  0  0  0  0  0  0  0  0  0
   10.4169    0.6835   -0.6465 H   0  0  0  0  0  0  0  0  0  0  0  0
    9.0213   -1.2743    0.1403 C   0  0  0  0  0  0  0  0  0  0  0  0
    8.3667   -1.8235    0.8480 H   0  0  0  0  0  0  0  0  0  0  0  0
   10.0121   -1.2172    0.6382 H   0  0  0  0  0  0  0  0  0  0  0  0
    7.1745    0.3687   -0.0208 C   0  0  0  0  0  0  0  0  0  0  0  0
    9.9422    1.7867    1.1688 C   0  0  0  0  0  0  0  0  0  0  0  0
   10.7209    2.5587    1.0032 H   0  0  0  0  0  0  0  0  0  0  0  0
   10.3534    1.0331    1.8707 H   0  0  0  0  0  0  0  0  0  0  0  0
    9.0762    2.2691    1.6641 H   0  0  0  0  0  0  0  0  0  0  0  0
    5.3332    1.9941   -0.0806 C   0  0  0  0  0  0  0  0  0  0  0  0
    4.9916    3.0402   -0.1145 H   0  0  0  0  0  0  0  0  0  0  0  0
   -0.5858    0.2762   -0.0077 C   0  0  0  0  0  3  0  0  0  0  0  0
    2.0605    0.1032   -0.0042 C   0  0  0  0  0  0  0  0  0  0  0  0
    2.9491    1.1672   -0.0435 C   0  0  0  0  0  0  0  0  0  0  0  0
    2.5526    2.1936   -0.0808 H   0  0  0  0  0  0  0  0  0  0  0  0
    4.3600    0.9637   -0.0379 C   0  0  0  0  0  0  0  0  0  0  0  0
    2.5788   -1.2834    0.0440 C   0  0  0  0  0  0  0  0  0  0  0  0
    6.2074   -0.6715    0.0206 C   0  0  0  0  0  0  0  0  0  0  0  0
    6.4848   -1.7316    0.0409 H   0  0  0  0  0  0  0  0  0  0  0  0
    4.8436   -0.3724    0.0142 C   0  0  0  0  0  0  0  0  0  0  0  0
    0.6510    0.2494   -0.0080 C   0  0  0  0  0  0  0  0  0  0  0  0
    9.1435   -2.0366   -1.1823 C   0  0  0  0  0  0  0  0  0  0  0  0
    9.8322   -1.5169   -1.8790 H   0  0  0  0  0  0  0  0  0  0  0  0
    8.1603   -2.1266   -1.6851 H   0  0  0  0  0  0  0  0  0  0  0  0
    9.5384   -3.0584   -1.0114 H   0  0  0  0  0  0  0  0  0  0  0  0
    1.9263   -2.3051    0.0781 O   0  0  0  0  0  0  0  0  0  0  0  0
  1  8  1  0  0  0  0
  3 11  1  0  0  0  0
  4  3  1  0  0  0  0
  5  1  1  0  0  0  0
  5 12  1  0  0  0  0
  6  5  1  0  0  0  0
  7  5  1  0  0  0  0
  8 10  1  0  0  0  0
  8  9  1  0  0  0  0
 11  1  1  0  0  0  0
 11 24  2  0  0  0  0
 12 15  1  0  0  0  0
 12 14  1  0  0  0  0
 13 12  1  0  0  0  0
 16  3  2  0  0  0  0
 16 22  1  0  0  0  0
 17 16  1  0  0  0  0
 19 23  1  0  0  0  0
 20 22  1  0  0  0  0
 20 19  2  0  0  0  0
 21 20  1  0  0  0  0
 22 26  2  0  0  0  0
 23  2  1  0  0  0  0
 23 32  2  0  0  0  0
 24 25  1  0  0  0  0
 26 24  1  0  0  0  0
 26  2  1  0  0  0  0
 27 18  3  0  0  0  0
 27 19  1  0  0  0  0
 28 31  1  0  0  0  0
 28  8  1  0  0  0  0
 29 28  1  0  0  0  0
 30 28  1  0  0  0  0
M  END
