28
q = -1.0

 48 50  0  0  1  0  0  0  0  0999 V2000
   -1.5109   -0.8086   -1.4804 O   0  0  0  0  0  0  0  0  0  0  0  0
   -0.6351   -0.4441   -1.8034 H   0  0  0  0  0  0  0  0  0  0  0  0
   -0.1214    1.5106   -0.0653 N   0  0  0  0  0  0  0  0  0  0  0  0
    0.2010    2.8236   -0.0762 C   0  0  0  0  0  0  0  0  0  0  0  0
    1.2853    3.0319   -0.0935 H   0  0  0  0  0  0  0  0  0  0  0  0
   -0.7604    3.8369   -0.0863 C   0  0  0  0  0  0  0  0  0  0  0  0
   -0.4379    4.8877   -0.0950 H   0  0  0  0  0  0  0  0  0  0  0  0
   -2.1101    3.4743   -0.1023 C   0  0  0  0  0  0  0  0  0  0  0  0
   -2.9046    4.2354   -0.1293 H   0  0  0  0  0  0  0  0  0  0  0  0
   -2.4391    2.1145   -0.0932 C   0  0  0  0  0  0  0  0  0  0  0  0
   -3.4890    1.7999   -0.1218 H   0  0  0  0  0  0  0  0  0  0  0  0
   -1.4313    1.1310   -0.0626 C   0  0  0  0  0  0  0  0  0  0  0  0
   -1.8102   -0.3711   -0.1751 C   0  0  1  0  0  0  0  0  0  0  0  0
   -3.3228   -0.5647    0.0352 C   0  0  0  0  0  0  0  0  0  0  0  0
   -3.9257   -0.3312    1.2892 C   0  0  0  0  0  0  0  0  0  0  0  0
   -3.3211    0.0321    2.1351 H   0  0  0  0  0  0  0  0  0  0  0  0
   -5.3018   -0.5268    1.4707 C   0  0  0  0  0  0  0  0  0  0  0  0
   -5.7550   -0.3341    2.4551 H   0  0  0  0  0  0  0  0  0  0  0  0
   -6.0985   -0.9656    0.4003 C   0  0  0  0  0  0  0  0  0  0  0  0
   -7.1786   -1.1221    0.5421 H   0  0  0  0  0  0  0  0  0  0  0  0
   -5.5062   -1.1999   -0.8491 C   0  0  0  0  0  0  0  0  0  0  0  0
   -6.1218   -1.5418   -1.6953 H   0  0  0  0  0  0  0  0  0  0  0  0
   -4.1281   -1.0000   -1.0313 C   0  0  0  0  0  0  0  0  0  0  0  0
   -3.6501   -1.1747   -2.0041 H   0  0  0  0  0  0  0  0  0  0  0  0
   -1.1212   -1.2961    0.9013 C   0  0  0  0  0  0  0  0  0  0  0  0
   -1.4589   -0.9897    1.9090 H   0  0  0  0  0  0  0  0  0  0  0  0
   -1.5457   -2.3037    0.7188 H   0  0  0  0  0  0  0  0  0  0  0  0
    0.3711   -1.3621    0.8798 C   0  0  2  0  0  3  0  0  0  0  0  0
    1.2577   -0.6734    1.8305 C   0  0  0  0  0  0  0  0  0  0  0  0
    2.6175   -0.9332    1.4250 C   0  0  0  0  0  0  0  0  0  0  0  0
    2.5892   -1.7259    0.2050 C   0  0  0  0  0  0  0  0  0  0  0  0
    1.1959   -2.0517   -0.0861 C   0  0  0  0  0  0  0  0  0  0  0  0
    0.8149    0.1090    3.0255 C   0  0  0  0  0  0  0  0  0  0  0  0
    1.5875    0.8376    3.3344 H   0  0  0  0  0  0  0  0  0  0  0  0
    0.6107   -0.5621    3.8876 H   0  0  0  0  0  0  0  0  0  0  0  0
   -0.1111    0.6783    2.8149 H   0  0  0  0  0  0  0  0  0  0  0  0
    3.8618   -0.4550    2.0969 C   0  0  0  0  0  0  0  0  0  0  0  0
    3.6384    0.1090    3.0209 H   0  0  0  0  0  0  0  0  0  0  0  0
    4.4214    0.2205    1.4165 H   0  0  0  0  0  0  0  0  0  0  0  0
    4.5097   -1.3166    2.3587 H   0  0  0  0  0  0  0  0  0  0  0  0
    3.7807   -2.2182   -0.5503 C   0  0  0  0  0  0  0  0  0  0  0  0
    4.1169   -3.2079   -0.1707 H   0  0  0  0  0  0  0  0  0  0  0  0
    4.6238   -1.5081   -0.4598 H   0  0  0  0  0  0  0  0  0  0  0  0
    3.5457   -2.3247   -1.6261 H   0  0  0  0  0  0  0  0  0  0  0  0
    0.7478   -2.9394   -1.1991 C   0  0  0  0  0  0  0  0  0  0  0  0
    1.1610   -2.5790   -2.1629 H   0  0  0  0  0  0  0  0  0  0  0  0
   -0.3518   -2.9414   -1.2986 H   0  0  0  0  0  0  0  0  0  0  0  0
    1.1126   -3.9736   -1.0259 H   0  0  0  0  0  0  0  0  0  0  0  0
  2  1  1  0  0  0  0
  3 12  1  0  0  0  0
  4  3  2  0  0  0  0
  5  4  1  0  0  0  0
  6  4  1  0  0  0  0
  7  6  1  0  0  0  0
  8 10  1  0  0  0  0
  8  6  2  0  0  0  0
  9  8  1  0  0  0  0
 10 12  2  0  0  0  0
 11 10  1  0  0  0  0
 13  1  1  6  0  0  0
 13 12  1  0  0  0  0
 13 14  1  0  0  0  0
 13 25  1  0  0  0  0
 14 15  1  0  0  0  0
 15 17  2  0  0  0  0
 15 16  1  0  0  0  0
 17 18  1  0  0  0  0
 19 20  1  0  0  0  0
 19 17  1  0  0  0  0
 21 19  2  0  0  0  0
 22 21  1  0  0  0  0
 23 21  1  0  0  0  0
 23 14  2  0  0  0  0
 24 23  1  0  0  0  0
 25 26  1  0  0  0  0
 27 25  1  0  0  0  0
 28 25  1  6  0  0  0
 28 29  1  0  0  0  0
 29 33  1  0  0  0  0
 30 29  2  0  0  0  0
 30 37  1  0  0  0  0
 31 30  1  0  0  0  0
 32 31  2  0  0  0  0
 32 28  1  0  0  0  0
 33 34  1  0  0  0  0
 33 35  1  0  0  0  0
 36 33  1  0  0  0  0
 37 40  1  0  0  0  0
 37 38  1  0  0  0  0
 39 37  1  0  0  0  0
 41 43  1  0  0  0  0
 41 42  1  0  0  0  0
 41 31  1  0  0  0  0
 44 41  1  0  0  0  0
 45 48  1  0  0  0  0
 45 32  1  0  0  0  0
 46 45  1  0  0  0  0
 47 45  1  0  0  0  0
M  END
