16
q = 0.0, confidence = 0.986

 67 70  0  0  0  0  0  0  0  0999 V2000
    1.2339   -1.0907   -0.9743 N   0  0  0  0  0  0  0  0  0  0  0  0
    1.6936   -2.4752   -0.9514 C   0  0  0  0  0  0  0  0  0  0  0  0
    2.7705   -2.4443   -1.2180 H   0  0  0  0  0  0  0  0  0  0  0  0
    1.1639   -3.0406   -1.7455 H   0  0  0  0  0  0  0  0  0  0  0  0
    1.4886   -3.1352    0.3978 C   0  0  0  0  0  0  0  0  0  0  0  0
    2.0668   -2.5708    1.5519 C   0  0  0  0  0  0  0  0  0  0  0  0
    2.6728   -1.6546    1.4608 H   0  0  0  0  0  0  0  0  0  0  0  0
    1.8782   -3.1713    2.8038 C   0  0  0  0  0  0  0  0  0  0  0  0
    2.3384   -2.7248    3.6981 H   0  0  0  0  0  0  0  0  0  0  0  0
    1.1106   -4.3430    2.9174 C   0  0  0  0  0  0  0  0  0  0  0  0
    0.9638   -4.8133    3.9015 H   0  0  0  0  0  0  0  0  0  0  0  0
    0.5357   -4.9135    1.7720 C   0  0  0  0  0  0  0  0  0  0  0  0
   -0.0634   -5.8333    1.8532 H   0  0  0  0  0  0  0  0  0  0  0  0
    0.7241   -4.3095    0.5184 C   0  0  0  0  0  0  0  0  0  0  0  0
    0.2752   -4.7601   -0.3821 H   0  0  0  0  0  0  0  0  0  0  0  0
    2.0614   -0.0001   -1.0190 C   0  0  0  0  0  2  0  0  0  0  0  0
    1.6938    2.4749   -0.9514 C   0  0  0  0  0  0  0  0  0  0  0  0
    1.1640    3.0404   -1.7455 H   0  0  0  0  0  0  0  0  0  0  0  0
    2.7707    2.4440   -1.2182 H   0  0  0  0  0  0  0  0  0  0  0  0
    1.4890    3.1350    0.3978 C   0  0  0  0  0  0  0  0  0  0  0  0
    2.0674    2.5706    1.5518 C   0  0  0  0  0  0  0  0  0  0  0  0
    2.6735    1.6545    1.4606 H   0  0  0  0  0  0  0  0  0  0  0  0
    1.8789    3.1712    2.8037 C   0  0  0  0  0  0  0  0  0  0  0  0
    2.3393    2.7247    3.6980 H   0  0  0  0  0  0  0  0  0  0  0  0
    1.1112    4.3428    2.9174 C   0  0  0  0  0  0  0  0  0  0  0  0
    0.9645    4.8130    3.9015 H   0  0  0  0  0  0  0  0  0  0  0  0
    0.5362    4.9133    1.7721 C   0  0  0  0  0  0  0  0  0  0  0  0
   -0.0630    5.8329    1.8533 H   0  0  0  0  0  0  0  0  0  0  0  0
    0.7244    4.3092    0.5185 C   0  0  0  0  0  0  0  0  0  0  0  0
    0.2754    4.7598   -0.3820 H   0  0  0  0  0  0  0  0  0  0  0  0
    1.2340    1.0906   -0.9743 N   0  0  0  0  0  0  0  0  0  0  0  0
   -0.1025    0.7026   -0.8661 C   0  0  0  0  0  0  0  0  0  0  0  0
   -1.2937    1.4416   -0.7542 C   0  0  0  0  0  0  0  0  0  0  0  0
   -1.2780    2.5363   -0.7277 H   0  0  0  0  0  0  0  0  0  0  0  0
   -2.4917    0.7222   -0.6362 C   0  0  0  0  0  0  0  0  0  0  0  0
   -3.7144    1.2886   -0.4976 O   0  0  0  0  0  0  0  0  0  0  0  0
   -3.7984    2.7084   -0.4358 C   0  0  0  0  0  0  0  0  0  0  0  0
   -3.3977    3.1553   -1.3772 H   0  0  0  0  0  0  0  0  0  0  0  0
   -3.1689    3.0910    0.4028 H   0  0  0  0  0  0  0  0  0  0  0  0
   -5.2550    3.0936   -0.2357 C   0  0  0  0  0  0  0  0  0  0  0  0
   -5.8525    2.6692   -1.0711 H   0  0  0  0  0  0  0  0  0  0  0  0
   -5.6259    2.6044    0.6906 H   0  0  0  0  0  0  0  0  0  0  0  0
   -5.4609    4.6087   -0.1533 C   0  0  0  0  0  0  0  0  0  0  0  0
   -4.8435    5.0196    0.6766 H   0  0  0  0  0  0  0  0  0  0  0  0
   -5.0718    5.0848   -1.0810 H   0  0  0  0  0  0  0  0  0  0  0  0
   -6.9236    5.0044    0.0512 C   0  0  0  0  0  0  0  0  0  0  0  0
   -7.5596    4.6385   -0.7814 H   0  0  0  0  0  0  0  0  0  0  0  0
   -7.0453    6.1045    0.1075 H   0  0  0  0  0  0  0  0  0  0  0  0
   -7.3294    4.5733    0.9899 H   0  0  0  0  0  0  0  0  0  0  0  0
   -2.4917   -0.7221   -0.6362 C   0  0  0  0  0  0  0  0  0  0  0  0
   -3.7145   -1.2883   -0.4976 O   0  0  0  0  0  0  0  0  0  0  0  0
   -3.7986   -2.7081   -0.4358 C   0  0  0  0  0  0  0  0  0  0  0  0
   -3.1692   -3.0908    0.4028 H   0  0  0  0  0  0  0  0  0  0  0  0
   -3.3979   -3.1550   -1.3772 H   0  0  0  0  0  0  0  0  0  0  0  0
   -5.2553   -3.0932   -0.2358 C   0  0  0  0  0  0  0  0  0  0  0  0
   -5.6261   -2.6039    0.6905 H   0  0  0  0  0  0  0  0  0  0  0  0
   -5.8527   -2.6687   -1.0712 H   0  0  0  0  0  0  0  0  0  0  0  0
   -5.4613   -4.6083   -0.1534 C   0  0  0  0  0  0  0  0  0  0  0  0
   -4.8439   -5.0192    0.6765 H   0  0  0  0  0  0  0  0  0  0  0  0
   -5.0722   -5.0843   -1.0811 H   0  0  0  0  0  0  0  0  0  0  0  0
   -6.9240   -5.0038    0.0511 C   0  0  0  0  0  0  0  0  0  0  0  0
   -7.3298   -4.5727    0.9898 H   0  0  0  0  0  0  0  0  0  0  0  0
   -7.0459   -6.1039    0.1074 H   0  0  0  0  0  0  0  0  0  0  0  0
   -7.5600   -4.6378   -0.7815 H   0  0  0  0  0  0  0  0  0  0  0  0
   -1.2938   -1.4415   -0.7542 C   0  0  0  0  0  0  0  0  0  0  0  0
   -1.2782   -2.5362   -0.7276 H   0  0  0  0  0  0  0  0  0  0  0  0
   -0.1026   -0.7027   -0.8661 C   0  0  0  0  0  0  0  0  0  0  0  0
  1  2  1  0  0  0  0
  1 67  1  0  0  0  0
  2  5  1  0  0  0  0
  3  2  1  0  0  0  0
  4  2  1  0  0  0  0
  5 14  2  0  0  0  0
  5  6  1  0  0  0  0
  6  8  2  0  0  0  0
  7  6  1  0  0  0  0
  8 10  1  0  0  0  0
  8  9  1  0  0  0  0
 10 11  1  0  0  0  0
 12 13  1  0  0  0  0
 12 10  2  0  0  0  0
 14 12  1  0  0  0  0
 15 14  1  0  0  0  0
 16 31  1  0  0  0  0
 16  1  1  0  0  0  0
 17 20  1  0  0  0  0
 18 17  1  0  0  0  0
 19 17  1  0  0  0  0
 20 29  2  0  0  0  0
 20 21  1  0  0  0  0
 21 23  2  0  0  0  0
 22 21  1  0  0  0  0
 23 25  1  0  0  0  0
 23 24  1  0  0  0  0
 25 26  1  0  0  0  0
 27 28  1  0  0  0  0
 27 25  2  0  0  0  0
 29 27  1  0  0  0  0
 30 29  1  0  0  0  0
 31 17  1  0  0  0  0
 31 32  1  0  0  0  0
 32 67  2  0  0  0  0
 32 33  1  0  0  0  0
 33 34  1  0  0  0  0
 33 35  2  0  0  0  0
 35 50  1  0  0  0  0
 35 36  1  0  0  0  0
 36 37  1  0  0  0  0
 37 40  1  0  0  0  0
 37 39  1  0  0  0  0
 38 37  1  0  0  0  0
 40 43  1  0  0  0  0
 40 42  1  0  0  0  0
 41 40  1  0  0  0  0
 43 46  1  0  0  0  0
 43 44  1  0  0  0  0
 45 43  1  0  0  0  0
 46 48  1  0  0  0  0
 46 49  1  0  0  0  0
 47 46  1  0  0  0  0
 50 51  1  0  0  0  0
 51 52  1  0  0  0  0
 52 55  1  0  0  0  0
 52 53  1  0  0  0  0
 54 52  1  0  0  0  0
 55 58  1  0  0  0  0
 55 56  1  0  0  0  0
 57 55  1  0  0  0  0
 58 61  1  0  0  0  0
 58 59  1  0  0  0  0
 60 58  1  0  0  0  0
 61 63  1  0  0  0  0
 61 62  1  0  0  0  0
 64 61  1  0  0  0  0
 65 66  1  0  0  0  0
 65 50  2  0  0  0  0
 67 65  1  0  0  0  0
M  END
