5
q = 0.0, confidence = 0.944

 20 19  0  0  0  0  0  0  0  0999 V2000
    2.5037   -1.6474   -1.5475 F   0  0  0  0  0  0  0  0  0  0  0  0
    0.8391   -2.5489   -0.5054 F   0  0  0  0  0  0  0  0  0  0  0  0
    2.6083   -2.0281    0.6219 F   0  0  0  0  0  0  0  0  0  0  0  0
    2.2018    0.7260   -0.0277 N   0  0  0  0  0  0  0  0  0  0  0  0
    1.2353   -0.1905   -0.1346 C   0  0  0  0  0  2  0  0  0  0  0  0
    1.7901   -1.6089   -0.3848 C   0  0  0  0  0  0  0  0  0  0  0  0
    3.6714    0.4965    0.0413 C   0  0  0  0  0  0  0  0  0  0  0  0
    4.1453    1.3268   -0.5193 H   0  0  0  0  0  0  0  0  0  0  0  0
    3.9352   -0.4287   -0.4929 H   0  0  0  0  0  0  0  0  0  0  0  0
    4.1827    0.4622    1.4811 C   0  0  0  0  0  0  0  0  0  0  0  0
    3.9509    1.3977    2.0282 H   0  0  0  0  0  0  0  0  0  0  0  0
    5.2838    0.3391    1.4781 H   0  0  0  0  0  0  0  0  0  0  0  0
    3.7404   -0.3874    2.0336 H   0  0  0  0  0  0  0  0  0  0  0  0
    1.8773    2.1642    0.0452 C   0  0  0  0  0  0  0  0  0  0  0  0
    2.5543    2.6281    0.7909 H   0  0  0  0  0  0  0  0  0  0  0  0
    0.8485    2.2576    0.4289 H   0  0  0  0  0  0  0  0  0  0  0  0
    2.0130    2.8459   -1.3150 C   0  0  0  0  0  0  0  0  0  0  0  0
    3.0558    2.8293   -1.6908 H   0  0  0  0  0  0  0  0  0  0  0  0
    1.6995    3.9048   -1.2319 H   0  0  0  0  0  0  0  0  0  0  0  0
    1.3636    2.3573   -2.0658 H   0  0  0  0  0  0  0  0  0  0  0  0
  1  6  1  0  0  0  0
  2  6  1  0  0  0  0
  4  7  1  0  0  0  0
  4 14  1  0  0  0  0
  5  4  1  0  0  0  0
  6  5  1  0  0  0  0
  6  3  1  0  0  0  0
  7 10  1  0  0  0  0
  8  7  1  0  0  0  0
  9  7  1  0  0  0  0
 10 11  1  0  0  0  0
 10 13  1  0  0  0  0
 12 10  1  0  0  0  0
 14 16  1  0  0  0  0
 14 15  1  0  0  0  0
 17 19  1  0  0  0  0
 17 14  1  0  0  0  0
 18 17  1  0  0  0  0
 20 17  1  0  0  0  0
M  END
