11
q = 0.0, confidence = 1.0

 23 25  0  0  1  0  0  0  0  0999 V2000
   -4.8363   -2.7065    0.1374 O   0  0  0  0  0  0  0  0  0  0  0  0
   -4.4082   -0.4060   -0.1773 O   0  0  0  0  0  0  0  0  0  0  0  0
   -2.7924   -1.8696   -0.3289 N   0  0  0  0  0  0  0  0  0  0  0  0
   -3.9224   -3.8660   -0.0086 C   0  0  0  0  0  0  0  0  0  0  0  0
   -4.2409   -4.4051   -0.9212 H   0  0  0  0  0  0  0  0  0  0  0  0
   -4.0748   -4.5084    0.8768 H   0  0  0  0  0  0  0  0  0  0  0  0
   -2.4783   -3.2795   -0.1253 C   0  0  0  0  0  0  0  0  0  0  0  0
   -1.8756   -3.3993    0.7980 H   0  0  0  0  0  0  0  0  0  0  0  0
   -1.9161   -3.6981   -0.9817 H   0  0  0  0  0  0  0  0  0  0  0  0
   -4.0858   -1.6633   -0.1236 C   0  0  1  0  0  3  0  0  0  0  0  0
   -2.1298   -0.6383   -0.5124 C   0  0  0  0  0  3  0  0  0  0  0  0
   -3.1581    0.2849   -0.4283 C   0  0  0  0  0  0  0  0  0  0  0  0
   -3.2407    1.7345   -0.4783 C   0  0  0  0  0  0  0  0  0  0  0  0
   -2.0897    2.4959   -0.7950 C   0  0  0  0  0  0  0  0  0  0  0  0
   -1.1480    1.9747   -1.0270 H   0  0  0  0  0  0  0  0  0  0  0  0
   -2.1452    3.8923   -0.8087 C   0  0  0  0  0  0  0  0  0  0  0  0
   -1.2413    4.4684   -1.0578 H   0  0  0  0  0  0  0  0  0  0  0  0
   -3.3476    4.5578   -0.5130 C   0  0  0  0  0  0  0  0  0  0  0  0
   -3.3899    5.6569   -0.5261 H   0  0  0  0  0  0  0  0  0  0  0  0
   -4.4957    3.8108   -0.2059 C   0  0  0  0  0  0  0  0  0  0  0  0
   -5.4419    4.3232    0.0226 H   0  0  0  0  0  0  0  0  0  0  0  0
   -4.4487    2.4108   -0.1870 C   0  0  0  0  0  0  0  0  0  0  0  0
   -5.3528    1.8359    0.0575 H   0  0  0  0  0  0  0  0  0  0  0  0
  3  7  1  0  0  0  0
  3 10  1  0  0  0  0
  4  1  1  0  0  0  0
  4  6  1  0  0  0  0
  5  4  1  0  0  0  0
  7  4  1  0  0  0  0
  7  8  1  0  0  0  0
  9  7  1  0  0  0  0
 10  2  1  1  0  0  0
 10  1  1  0  0  0  0
 11 12  2  0  0  0  0
 11  3  1  0  0  0  0
 12  2  1  0  0  0  0
 13 12  1  0  0  0  0
 13 22  1  0  0  0  0
 14 13  2  0  0  0  0
 15 14  1  0  0  0  0
 16 14  1  0  0  0  0
 16 18  2  0  0  0  0
 17 16  1  0  0  0  0
 18 20  1  0  0  0  0
 19 18  1  0  0  0  0
 20 22  2  0  0  0  0
 20 21  1  0  0  0  0
 22 23  1  0  0  0  0
M  END
