1
q = 0.0, confidence = 0.976

 13 12  0  0  0  0  0  0  0  0999 V2000
   -2.3825    2.2351    0.0043 C   0  0  0  0  0  3  0  0  0  0  0  0
   -1.9413    2.9831    0.6822 H   0  0  0  0  0  0  0  0  0  0  0  0
   -2.5100    2.5417   -1.0473 H   0  0  0  0  0  0  0  0  0  0  0  0
   -3.1255    1.1634    0.5175 C   0  0  0  0  0  3  0  0  0  0  0  0
   -3.1471    1.0228    1.6140 H   0  0  0  0  0  0  0  0  0  0  0  0
   -4.0155    0.3105   -0.2496 C   0  0  0  0  0  0  0  0  0  0  0  0
   -4.0697    0.4787   -1.3399 H   0  0  0  0  0  0  0  0  0  0  0  0
   -4.7829   -0.6536    0.3252 C   0  0  0  0  0  0  0  0  0  0  0  0
   -4.7019   -0.7925    1.4201 H   0  0  0  0  0  0  0  0  0  0  0  0
   -5.7391   -1.5401   -0.3919 C   0  0  0  0  0  0  0  0  0  0  0  0
   -6.7677   -1.4133    0.0104 H   0  0  0  0  0  0  0  0  0  0  0  0
   -5.4855   -2.6093   -0.2233 H   0  0  0  0  0  0  0  0  0  0  0  0
   -5.7611   -1.3473   -1.4815 H   0  0  0  0  0  0  0  0  0  0  0  0
  1  4  1  0  0  0  0
  1  2  1  0  0  0  0
  3  1  1  0  0  0  0
  4  5  1  0  0  0  0
  6  8  2  0  0  0  0
  6  4  1  0  0  0  0
  7  6  1  0  0  0  0
  8  9  1  0  0  0  0
 10 12  1  0  0  0  0
 10 11  1  0  0  0  0
 10  8  1  0  0  0  0
 13 10  1  0  0  0  0
M  END
