1
q = -1.0

 29 29  0  0  1  0  0  0  0  0999 V2000
   -2.0056   -0.7325   -0.8001 C   0  0  0  0  0  3  0  0  0  0  0  0
   -2.6568    0.0118   -0.2919 H   0  0  0  0  0  0  0  0  0  0  0  0
   -2.3265   -2.1024   -0.1959 C   0  0  0  0  0  0  0  0  0  0  0  0
   -1.6792   -2.8745   -0.6692 H   0  0  0  0  0  0  0  0  0  0  0  0
   -2.0893   -2.1150    0.8906 H   0  0  0  0  0  0  0  0  0  0  0  0
   -3.8045   -2.4944   -0.3947 C   0  0  1  0  0  0  0  0  0  0  0  0
   -4.4239   -1.7267    0.1274 H   0  0  0  0  0  0  0  0  0  0  0  0
   -4.1497   -2.4319   -1.8899 C   0  0  0  0  0  0  0  0  0  0  0  0
   -5.2237   -2.6761   -2.0442 H   0  0  0  0  0  0  0  0  0  0  0  0
   -3.5695   -3.2213   -2.4202 H   0  0  0  0  0  0  0  0  0  0  0  0
   -3.8213   -1.0645   -2.4989 C   0  0  0  0  0  0  0  0  0  0  0  0
   -4.0753   -1.0617   -3.5807 H   0  0  0  0  0  0  0  0  0  0  0  0
   -4.4714   -0.2966   -2.0225 H   0  0  0  0  0  0  0  0  0  0  0  0
   -2.3395   -0.6789   -2.2994 C   0  0  1  0  0  0  0  0  0  0  0  0
   -1.7230   -1.4592   -2.7977 H   0  0  0  0  0  0  0  0  0  0  0  0
   -1.9517    0.6690   -2.9604 C   0  0  0  0  0  0  0  0  0  0  0  0
   -0.9039    0.8533   -2.6246 H   0  0  0  0  0  0  0  0  0  0  0  0
   -1.9242    0.5745   -4.4900 C   0  0  0  0  0  0  0  0  0  0  0  0
   -1.5679    1.5221   -4.9453 H   0  0  0  0  0  0  0  0  0  0  0  0
   -2.9329    0.3703   -4.9080 H   0  0  0  0  0  0  0  0  0  0  0  0
   -1.2472   -0.2384   -4.8225 H   0  0  0  0  0  0  0  0  0  0  0  0
   -2.8051    1.8548   -2.4930 C   0  0  0  0  0  0  0  0  0  0  0  0
   -2.3950    2.8150   -2.8686 H   0  0  0  0  0  0  0  0  0  0  0  0
   -2.8428    1.9262   -1.3870 H   0  0  0  0  0  0  0  0  0  0  0  0
   -3.8495    1.7772   -2.8614 H   0  0  0  0  0  0  0  0  0  0  0  0
   -4.1170   -3.8600    0.2192 C   0  0  0  0  0  0  0  0  0  0  0  0
   -5.1861   -4.1313    0.0935 H   0  0  0  0  0  0  0  0  0  0  0  0
   -3.8877   -3.8754    1.3052 H   0  0  0  0  0  0  0  0  0  0  0  0
   -3.5102   -4.6569   -0.2614 H   0  0  0  0  0  0  0  0  0  0  0  0
  1  2  1  0  0  0  0
  1  3  1  0  0  0  0
  3  5  1  0  0  0  0
  4  3  1  0  0  0  0
  6  3  1  0  0  0  0
  6  7  1  1  0  0  0
  6 26  1  0  0  0  0
  8  6  1  0  0  0  0
  9  8  1  0  0  0  0
 10  8  1  0  0  0  0
 11 14  1  0  0  0  0
 11 13  1  0  0  0  0
 11  8  1  0  0  0  0
 12 11  1  0  0  0  0
 14 15  1  6  0  0  0
 14  1  1  0  0  0  0
 16 17  1  0  0  0  0
 16 22  1  0  0  0  0
 16 14  1  0  0  0  0
 18 16  1  0  0  0  0
 19 18  1  0  0  0  0
 20 18  1  0  0  0  0
 21 18  1  0  0  0  0
 22 24  1  0  0  0  0
 23 22  1  0  0  0  0
 25 22  1  0  0  0  0
 26 28  1  0  0  0  0
 27 26  1  0  0  0  0
 29 26  1  0  0  0  0
M  END
