10
q = -1.0, confidence = 0.0

 30 30  0  0  1  0  0  0  0  0999 V2000
   -2.2582   -2.1158    1.1784 O   0  0  0  0  0  0  0  0  0  0  0  0
   -2.4761   -0.1709   -0.0103 N   0  0  0  0  0  0  0  0  0  0  0  0
   -0.0814   -0.0259   -0.4228 C   0  0  1  0  0  3  0  0  0  0  0  0
    0.4495   -1.3551   -0.6235 C   0  0  0  0  0  0  0  0  0  0  0  0
    0.1451   -2.2373   -0.0483 H   0  0  0  0  0  0  0  0  0  0  0  0
    1.4100   -1.2913   -1.6785 C   0  0  0  0  0  0  0  0  0  0  0  0
    2.0022   -2.1331   -2.0580 H   0  0  0  0  0  0  0  0  0  0  0  0
    1.4830    0.0604   -2.1505 C   0  0  0  0  0  3  0  0  0  0  0  0
    2.1302    0.4340   -2.9519 H   0  0  0  0  0  0  0  0  0  0  0  0
    0.5590    0.8384   -1.3707 C   0  0  0  0  0  3  0  0  0  0  0  0
    0.3889    1.9169   -1.4734 H   0  0  0  0  0  0  0  0  0  0  0  0
   -1.1942    0.3093    0.5480 C   0  0  1  0  0  0  0  0  0  0  0  0
   -1.0448   -0.3235    1.4444 H   0  0  0  0  0  0  0  0  0  0  0  0
   -1.2291    1.7778    0.9651 C   0  0  0  0  0  0  0  0  0  0  0  0
   -2.0082    1.9482    1.7309 H   0  0  0  0  0  0  0  0  0  0  0  0
   -1.4382    2.4611    0.1174 H   0  0  0  0  0  0  0  0  0  0  0  0
   -0.2479    2.0608    1.3923 H   0  0  0  0  0  0  0  0  0  0  0  0
   -3.0960    0.5787   -1.0919 C   0  0  0  0  0  0  0  0  0  0  0  0
   -3.4530   -0.1176   -1.8822 H   0  0  0  0  0  0  0  0  0  0  0  0
   -2.3036    1.1725   -1.5998 H   0  0  0  0  0  0  0  0  0  0  0  0
   -4.2311    1.4950   -0.7017 C   0  0  0  0  0  0  0  0  0  0  0  0
   -4.6410    2.0952   -1.5344 H   0  0  0  0  0  0  0  0  0  0  0  0
   -4.7648    1.6075    0.5251 C   0  0  0  0  0  0  0  0  0  0  0  0
   -4.3772    1.0159    1.3702 H   0  0  0  0  0  0  0  0  0  0  0  0
   -5.6012    2.2938    0.7247 H   0  0  0  0  0  0  0  0  0  0  0  0
   -2.9003   -1.4355    0.3762 C   0  0  0  0  0  0  0  0  0  0  0  0
   -4.1903   -1.9465   -0.2463 C   0  0  0  0  0  0  0  0  0  0  0  0
   -4.5095   -2.8317    0.3306 H   0  0  0  0  0  0  0  0  0  0  0  0
   -4.0145   -2.2644   -1.2954 H   0  0  0  0  0  0  0  0  0  0  0  0
   -4.9962   -1.1876   -0.2516 H   0  0  0  0  0  0  0  0  0  0  0  0
  2 26  1  0  0  0  0
  2 12  1  0  0  0  0
  3 12  1  6  0  0  0
  4  3  1  0  0  0  0
  4  5  1  0  0  0  0
  6  4  2  0  0  0  0
  7  6  1  0  0  0  0
  8  6  1  0  0  0  0
  8 10  1  0  0  0  0
  9  8  1  0  0  0  0
 10  3  1  0  0  0  0
 11 10  1  0  0  0  0
 12 14  1  0  0  0  0
 12 13  1  1  0  0  0
 14 17  1  0  0  0  0
 14 15  1  0  0  0  0
 16 14  1  0  0  0  0
 18 21  1  0  0  0  0
 18  2  1  0  0  0  0
 19 18  1  0  0  0  0
 20 18  1  0  0  0  0
 21 23  2  0  0  0  0
 22 21  1  0  0  0  0
 23 25  1  0  0  0  0
 23 24  1  0  0  0  0
 26  1  2  0  0  0  0
 27 28  1  0  0  0  0
 27 26  1  0  0  0  0
 29 27  1  0  0  0  0
 30 27  1  0  0  0  0
M  END
