2
q = -1.0

 11 10  0  0  0  0  0  0  0  0999 V2000
    2.7249   -2.5502    2.2750 N   0  0  0  0  0  0  0  0  0  0  0  0
    0.4273   -3.0234    1.0999 C   0  0  0  0  0  3  0  0  0  0  0  0
    1.6994   -2.7620    1.7305 C   0  0  0  0  0  0  0  0  0  0  0  0
   -0.5249   -3.6571    2.1276 C   0  0  0  0  0  0  0  0  0  0  0  0
    0.5813   -3.9200   -0.1392 C   0  0  0  0  0  0  0  0  0  0  0  0
   -0.7088   -2.9890    2.9909 H   0  0  0  0  0  0  0  0  0  0  0  0
   -1.5043   -3.8762    1.6627 H   0  0  0  0  0  0  0  0  0  0  0  0
   -0.1010   -4.6122    2.5134 H   0  0  0  0  0  0  0  0  0  0  0  0
    1.3304   -3.5250   -0.8521 H   0  0  0  0  0  0  0  0  0  0  0  0
    0.9014   -4.9484    0.1498 H   0  0  0  0  0  0  0  0  0  0  0  0
   -0.3912   -4.0105   -0.6643 H   0  0  0  0  0  0  0  0  0  0  0  0
  2  3  1  0  0  0  0
  2  4  1  0  0  0  0
  3  1  3  0  0  0  0
  4  8  1  0  0  0  0
  4  6  1  0  0  0  0
  5 10  1  0  0  0  0
  5  2  1  0  0  0  0
  7  4  1  0  0  0  0
  9  5  1  0  0  0  0
 11  5  1  0  0  0  0
M  END
