6
q = 0.0, confidence = 0.996

 33 35  0  0  0  0  0  0  0  0999 V2000
   -8.6001   -0.7797    1.1247 F   0  0  0  0  0  0  0  0  0  0  0  0
   -8.4683   -1.6630   -0.8639 F   0  0  0  0  0  0  0  0  0  0  0  0
   -8.8125    0.4856   -0.6376 F   0  0  0  0  0  0  0  0  0  0  0  0
    2.2330    1.5513    0.2676 N   0  0  0  0  0  0  0  0  0  0  0  0
    1.1113   -0.2856    0.0357 N   0  0  0  0  0  0  0  0  0  0  0  0
    2.3810    0.1853    0.1166 C   0  0  0  0  0  2  0  0  0  0  0  0
    0.1472    0.7304    0.1346 C   0  0  0  0  0  0  0  0  0  0  0  0
    0.8740    1.9243    0.2849 C   0  0  0  0  0  0  0  0  0  0  0  0
    0.5252    3.2893    0.4319 C   0  0  0  0  0  0  0  0  0  0  0  0
   -0.5385    3.5632    0.4487 H   0  0  0  0  0  0  0  0  0  0  0  0
    1.5353    4.2255    0.5461 C   0  0  0  0  0  0  0  0  0  0  0  0
    1.2898    5.2910    0.6608 H   0  0  0  0  0  0  0  0  0  0  0  0
    2.9079    3.8158    0.5072 C   0  0  0  0  0  0  0  0  0  0  0  0
    3.7141    4.5578    0.5811 H   0  0  0  0  0  0  0  0  0  0  0  0
    3.2425    2.4923    0.3655 C   0  0  0  0  0  0  0  0  0  0  0  0
    4.2614    2.0905    0.2865 H   0  0  0  0  0  0  0  0  0  0  0  0
    0.7698   -1.6886   -0.1439 C   0  0  0  0  0  0  0  0  0  0  0  0
    1.6916   -2.2315   -0.4207 H   0  0  0  0  0  0  0  0  0  0  0  0
    0.0161   -1.7838   -0.9480 H   0  0  0  0  0  0  0  0  0  0  0  0
    0.3530   -2.1053    0.7944 H   0  0  0  0  0  0  0  0  0  0  0  0
   -1.2328    0.5132    0.0790 C   0  0  0  0  0  0  0  0  0  0  0  0
   -2.4528    0.3214    0.0305 C   0  0  0  0  0  0  0  0  0  0  0  0
   -3.8533    0.1024   -0.0246 C   0  0  0  0  0  0  0  0  0  0  0  0
   -4.3765   -1.2092   -0.1825 C   0  0  0  0  0  0  0  0  0  0  0  0
   -3.6833   -2.0583   -0.2649 H   0  0  0  0  0  0  0  0  0  0  0  0
   -5.7552   -1.4198   -0.2370 C   0  0  0  0  0  0  0  0  0  0  0  0
   -6.1525   -2.4366   -0.3676 H   0  0  0  0  0  0  0  0  0  0  0  0
   -6.6435   -0.3335   -0.1350 C   0  0  0  0  0  0  0  0  0  0  0  0
   -6.1387    0.9709    0.0171 C   0  0  0  0  0  0  0  0  0  0  0  0
   -6.8352    1.8188    0.0845 H   0  0  0  0  0  0  0  0  0  0  0  0
   -4.7614    1.1909    0.0718 C   0  0  0  0  0  0  0  0  0  0  0  0
   -4.3676    2.2106    0.1869 H   0  0  0  0  0  0  0  0  0  0  0  0
   -8.1340   -0.5726   -0.1335 C   0  0  0  0  0  0  0  0  0  0  0  0
  2 33  1  0  0  0  0
  3 33  1  0  0  0  0
  4  8  1  0  0  0  0
  4 15  1  0  0  0  0
  5  6  1  0  0  0  0
  5  7  1  0  0  0  0
  6  4  1  0  0  0  0
  7  8  2  0  0  0  0
  8  9  1  0  0  0  0
  9 10  1  0  0  0  0
  9 11  2  0  0  0  0
 11 12  1  0  0  0  0
 13 11  1  0  0  0  0
 13 14  1  0  0  0  0
 15 13  2  0  0  0  0
 16 15  1  0  0  0  0
 17  5  1  0  0  0  0
 17 20  1  0  0  0  0
 18 17  1  0  0  0  0
 19 17  1  0  0  0  0
 21  7  1  0  0  0  0
 22 21  3  0  0  0  0
 23 22  1  0  0  0  0
 23 31  1  0  0  0  0
 24 23  2  0  0  0  0
 25 24  1  0  0  0  0
 26 24  1  0  0  0  0
 26 28  2  0  0  0  0
 27 26  1  0  0  0  0
 28 33  1  0  0  0  0
 28 29  1  0  0  0  0
 29 31  2  0  0  0  0
 29 30  1  0  0  0  0
 31 32  1  0  0  0  0
 33  1  1  0  0  0  0
M  END
