2
q = 0.0, confidence = 0.908

 44 47  0  0  0  0  0  0  0  0999 V2000
    1.8980    2.1337    0.0818 N   0  0  0  0  0  0  0  0  0  0  0  0
    2.3198    0.9154   -0.4046 C   0  0  0  0  0  2  0  0  0  0  0  0
    3.5906    1.1645   -0.8690 N   0  0  0  0  0  0  0  0  0  0  0  0
    3.9381    2.4970   -0.6883 C   0  0  0  0  0  0  0  0  0  0  0  0
    4.9090    2.8928   -0.9988 H   0  0  0  0  0  0  0  0  0  0  0  0
    2.8714    3.1067   -0.0890 C   0  0  0  0  0  0  0  0  0  0  0  0
    2.7244    4.1412    0.2334 H   0  0  0  0  0  0  0  0  0  0  0  0
    0.6548    2.3808    0.8089 C   0  0  0  0  0  0  0  0  0  0  0  0
    0.9138    2.6961    1.8419 H   0  0  0  0  0  0  0  0  0  0  0  0
    0.1431    1.4072    0.8651 H   0  0  0  0  0  0  0  0  0  0  0  0
   -0.2568    3.4113    0.1447 C   0  0  0  0  0  0  0  0  0  0  0  0
   -0.4040    3.1274   -0.9163 H   0  0  0  0  0  0  0  0  0  0  0  0
    0.2093    4.4203    0.1605 H   0  0  0  0  0  0  0  0  0  0  0  0
   -1.6241    3.5106    0.8372 C   0  0  0  0  0  0  0  0  0  0  0  0
   -1.5133    3.6301    1.9313 H   0  0  0  0  0  0  0  0  0  0  0  0
   -2.1823    4.3676    0.4193 H   0  0  0  0  0  0  0  0  0  0  0  0
   -2.4542    2.3188    0.6178 N   0  0  0  0  0  0  0  0  0  0  0  0
   -3.1334    2.2551   -0.6231 C   0  0  0  0  0  0  0  0  0  0  0  0
   -3.8603    0.9955   -0.9199 C   0  0  0  0  0  0  0  0  0  0  0  0
   -4.5137    0.8543   -2.1419 C   0  0  0  0  0  0  0  0  0  0  0  0
   -4.4701    1.6926   -2.8523 H   0  0  0  0  0  0  0  0  0  0  0  0
   -5.1990   -0.3446   -2.4516 C   0  0  0  0  0  0  0  0  0  0  0  0
   -5.7036   -0.4455   -3.4239 H   0  0  0  0  0  0  0  0  0  0  0  0
   -5.2331   -1.3929   -1.5397 C   0  0  0  0  0  0  0  0  0  0  0  0
   -5.7653   -2.3260   -1.7814 H   0  0  0  0  0  0  0  0  0  0  0  0
   -4.5800   -1.2814   -0.2775 C   0  0  0  0  0  0  0  0  0  0  0  0
   -4.5873   -2.3233    0.6947 C   0  0  0  0  0  0  0  0  0  0  0  0
   -5.1209   -3.2589    0.4655 H   0  0  0  0  0  0  0  0  0  0  0  0
   -3.9382   -2.1639    1.9145 C   0  0  0  0  0  0  0  0  0  0  0  0
   -3.9591   -2.9734    2.6592 H   0  0  0  0  0  0  0  0  0  0  0  0
   -3.2435   -0.9653    2.2037 C   0  0  0  0  0  0  0  0  0  0  0  0
   -2.7185   -0.8251    3.1600 H   0  0  0  0  0  0  0  0  0  0  0  0
   -3.2016    0.0692    1.2694 C   0  0  0  0  0  0  0  0  0  0  0  0
   -2.4066    1.2894    1.5649 C   0  0  0  0  0  0  0  0  0  0  0  0
   -3.8808   -0.0641    0.0271 C   0  0  0  0  0  0  0  0  0  0  0  0
    4.5365    0.1839   -1.4100 C   0  0  0  0  0  0  0  0  0  0  0  0
    4.0336   -0.7979   -1.3504 H   0  0  0  0  0  0  0  0  0  0  0  0
    5.4267    0.1789   -0.7439 H   0  0  0  0  0  0  0  0  0  0  0  0
    4.9231    0.4729   -2.8555 C   0  0  0  0  0  0  0  0  0  0  0  0
    4.0176    0.4244   -3.4902 H   0  0  0  0  0  0  0  0  0  0  0  0
    5.6364   -0.2974   -3.2099 H   0  0  0  0  0  0  0  0  0  0  0  0
    5.4071    1.4638   -2.9752 H   0  0  0  0  0  0  0  0  0  0  0  0
   -3.1061    3.2108   -1.3917 O   0  0  0  0  0  0  0  0  0  0  0  0
   -1.7170    1.3935    2.5852 O   0  0  0  0  0  0  0  0  0  0  0  0
  1  8  1  0  0  0  0
  2  1  1  0  0  0  0
  3  4  1  0  0  0  0
  3  2  1  0  0  0  0
  4  6  2  0  0  0  0
  5  4  1  0  0  0  0
  6  1  1  0  0  0  0
  6  7  1  0  0  0  0
  8 10  1  0  0  0  0
  8  9  1  0  0  0  0
 11 13  1  0  0  0  0
 11  8  1  0  0  0  0
 11 14  1  0  0  0  0
 12 11  1  0  0  0  0
 14 15  1  0  0  0  0
 16 14  1  0  0  0  0
 17 14  1  0  0  0  0
 17 34  1  0  0  0  0
 18 17  1  0  0  0  0
 19 18  1  0  0  0  0
 19 35  1  0  0  0  0
 20 19  2  0  0  0  0
 21 20  1  0  0  0  0
 22 20  1  0  0  0  0
 22 24  2  0  0  0  0
 23 22  1  0  0  0  0
 24 26  1  0  0  0  0
 25 24  1  0  0  0  0
 26 35  2  0  0  0  0
 26 27  1  0  0  0  0
 27 29  2  0  0  0  0
 28 27  1  0  0  0  0
 29 31  1  0  0  0  0
 29 30  1  0  0  0  0
 31 32  1  0  0  0  0
 33 34  1  0  0  0  0
 33 31  2  0  0  0  0
 34 44  2  0  0  0  0
 35 33  1  0  0  0  0
 36 37  1  0  0  0  0
 36  3  1  0  0  0  0
 36 38  1  0  0  0  0
 39 36  1  0  0  0  0
 40 39  1  0  0  0  0
 41 39  1  0  0  0  0
 42 39  1  0  0  0  0
 43 18  2  0  0  0  0
M  END
