2
q = 0.0, confidence = 0.946

 18 18  0  0  1  0  0  0  0  0999 V2000
   -0.8361   -3.5948   -1.9668 N   0  0  0  0  0  0  0  0  0  0  0  0
   -0.7131   -1.1082    0.4042 C   0  0  0  0  0  1  0  0  0  0  0  0
   -1.6537   -1.9117   -0.1512 C   0  0  2  0  0  3  0  0  0  0  0  0
   -1.1933   -2.8621   -1.1179 C   0  0  0  0  0  0  0  0  0  0  0  0
   -3.1143   -1.7505    0.0796 C   0  0  0  0  0  0  0  0  0  0  0  0
   -4.0468   -2.3010   -0.8229 C   0  0  0  0  0  0  0  0  0  0  0  0
   -5.4204   -2.1004   -0.6303 C   0  0  0  0  0  0  0  0  0  0  0  0
   -5.9100   -1.3504    0.4571 C   0  0  0  0  0  0  0  0  0  0  0  0
   -4.9661   -0.8183    1.3638 C   0  0  0  0  0  0  0  0  0  0  0  0
   -3.5964   -1.0180    1.1862 C   0  0  0  0  0  0  0  0  0  0  0  0
   -7.3846   -1.1252    0.6626 C   0  0  0  0  0  0  0  0  0  0  0  0
   -3.6931   -2.8873   -1.6846 H   0  0  0  0  0  0  0  0  0  0  0  0
   -6.1320   -2.5409   -1.3460 H   0  0  0  0  0  0  0  0  0  0  0  0
   -5.3183   -0.2384    2.2314 H   0  0  0  0  0  0  0  0  0  0  0  0
   -2.8824   -0.6037    1.9112 H   0  0  0  0  0  0  0  0  0  0  0  0
   -7.6216   -0.0419    0.7182 H   0  0  0  0  0  0  0  0  0  0  0  0
   -7.9860   -1.5652   -0.1553 H   0  0  0  0  0  0  0  0  0  0  0  0
   -7.7309   -1.5748    1.6166 H   0  0  0  0  0  0  0  0  0  0  0  0
  1  4  3  0  0  0  0
  3  5  1  0  0  0  0
  3  2  1  6  0  0  0
  4  3  1  0  0  0  0
  5 10  1  0  0  0  0
  6  7  1  0  0  0  0
  6  5  2  0  0  0  0
  7  8  2  0  0  0  0
  8 11  1  0  0  0  0
  8  9  1  0  0  0  0
  9 14  1  0  0  0  0
 10  9  2  0  0  0  0
 10 15  1  0  0  0  0
 11 16  1  0  0  0  0
 11 18  1  0  0  0  0
 12  6  1  0  0  0  0
 13  7  1  0  0  0  0
 17 11  1  0  0  0  0
M  END
