1
q = -1.0

  6  6  0  0  0  0  0  0  0  0999 V2000
    0.7905   -0.3043   -3.1054 C   0  0  0  0  0  3  0  0  0  0  0  0
    1.0221    0.6451   -3.6030 H   0  0  0  0  0  0  0  0  0  0  0  0
    1.1454   -1.7406   -3.1911 C   0  0  0  0  0  3  0  0  0  0  0  0
    1.8624   -2.4910   -3.5322 H   0  0  0  0  0  0  0  0  0  0  0  0
   -0.1817   -1.3439   -3.2354 C   0  0  0  0  0  3  0  0  0  0  0  0
   -1.2124   -1.6004   -3.5022 H   0  0  0  0  0  0  0  0  0  0  0  0
  2  1  1  0  0  0  0
  3  1  1  0  0  0  0
  4  3  1  0  0  0  0
  5  3  1  0  0  0  0
  5  1  1  0  0  0  0
  6  5  1  0  0  0  0
M  END
