10
q = 0.0, confidence = 0.928

 39 40  0  0  1  0  0  0  0  0999 V2000
    0.3543   -1.4304   -0.9867 S   0  0  0  0  0  0  0  0  0  0  0  0
    0.6638    1.5711   -0.4873 N   0  0  0  0  0  0  0  0  0  0  0  0
    1.5809    3.2285    0.8156 O   0  0  0  0  0  0  0  0  0  0  0  0
    1.9894    3.1129   -1.4319 O   0  0  0  0  0  0  0  0  0  0  0  0
    0.3597   -0.6308   -2.2474 O   0  0  0  0  0  0  0  0  0  0  0  0
   -0.1949   -2.8095   -0.9627 O   0  0  0  0  0  0  0  0  0  0  0  0
   -0.3540    2.2623    2.6330 O   0  0  0  0  0  0  0  0  0  0  0  0
    0.1282    0.8602    0.6597 C   0  0  2  0  0  0  0  0  0  0  0  0
   -0.5209   -0.4544    0.2654 C   0  0  2  0  0  3  0  0  0  0  0  0
   -1.1899   -1.2363    1.2827 C   0  0  0  0  0  3  0  0  0  0  0  0
   -2.0506   -0.4722    2.1139 C   0  0  0  0  0  3  0  0  0  0  0  0
   -2.1382    0.9212    1.7807 C   0  0  0  0  0  3  0  0  0  0  0  0
   -0.9031    1.7319    1.4508 C   0  0  1  0  0  0  0  0  0  0  0  0
    1.4184    2.6804   -0.2779 C   0  0  0  0  0  0  0  0  0  0  0  0
    2.7542    4.3150   -1.3160 C   0  0  0  0  0  0  0  0  0  0  0  0
    2.0476   -1.5040   -0.3730 C   0  0  0  0  0  0  0  0  0  0  0  0
    3.0155   -0.6261   -0.8793 C   0  0  0  0  0  0  0  0  0  0  0  0
    4.3192   -0.6891   -0.3679 C   0  0  0  0  0  0  0  0  0  0  0  0
    4.6696   -1.6154    0.6353 C   0  0  0  0  0  0  0  0  0  0  0  0
    3.6744   -2.5001    1.1084 C   0  0  0  0  0  0  0  0  0  0  0  0
    2.3688   -2.4552    0.6094 C   0  0  0  0  0  0  0  0  0  0  0  0
    6.0659   -1.6672    1.1979 C   0  0  0  0  0  0  0  0  0  0  0  0
    0.5728    1.1609   -1.4269 H   0  0  0  0  0  0  0  0  0  0  0  0
    0.4159    2.7903    2.3093 H   0  0  0  0  0  0  0  0  0  0  0  0
    0.9599    0.6489    1.3718 H   0  0  0  0  0  0  0  0  0  0  0  0
   -1.1073   -2.3311    1.3339 H   0  0  0  0  0  0  0  0  0  0  0  0
   -2.7024   -0.9578    2.8560 H   0  0  0  0  0  0  0  0  0  0  0  0
   -2.9378    1.5042    2.2659 H   0  0  0  0  0  0  0  0  0  0  0  0
   -1.2132    2.5462    0.7527 H   0  0  0  0  0  0  0  0  0  0  0  0
    3.1317    4.5331   -2.3310 H   0  0  0  0  0  0  0  0  0  0  0  0
    2.1271    5.1545   -0.9530 H   0  0  0  0  0  0  0  0  0  0  0  0
    3.6002    4.1839   -0.6112 H   0  0  0  0  0  0  0  0  0  0  0  0
    2.7509    0.0914   -1.6680 H   0  0  0  0  0  0  0  0  0  0  0  0
    5.0857   -0.0036   -0.7617 H   0  0  0  0  0  0  0  0  0  0  0  0
    3.9336   -3.2445    1.8776 H   0  0  0  0  0  0  0  0  0  0  0  0
    1.6025   -3.1616    0.9601 H   0  0  0  0  0  0  0  0  0  0  0  0
    6.7590   -1.0109    0.6381 H   0  0  0  0  0  0  0  0  0  0  0  0
    6.0766   -1.3429    2.2599 H   0  0  0  0  0  0  0  0  0  0  0  0
    6.4716   -2.6992    1.1744 H   0  0  0  0  0  0  0  0  0  0  0  0
  1  6  2  0  0  0  0
  1 16  1  0  0  0  0
  2 14  1  0  0  0  0
  2  8  1  0  0  0  0
  4 15  1  0  0  0  0
  4 14  1  0  0  0  0
  5  1  2  0  0  0  0
  8 25  1  1  0  0  0
  8 13  1  0  0  0  0
  9  1  1  1  0  0  0
  9  8  1  0  0  0  0
  9 10  1  0  0  0  0
 10 26  1  0  0  0  0
 10 11  1  0  0  0  0
 11 27  1  0  0  0  0
 12 11  1  0  0  0  0
 12 28  1  0  0  0  0
 13 29  1  6  0  0  0
 13 12  1  0  0  0  0
 13  7  1  0  0  0  0
 14  3  2  0  0  0  0
 15 31  1  0  0  0  0
 15 32  1  0  0  0  0
 16 21  1  0  0  0  0
 17 16  2  0  0  0  0
 17 18  1  0  0  0  0
 18 19  2  0  0  0  0
 19 20  1  0  0  0  0
 19 22  1  0  0  0  0
 20 35  1  0  0  0  0
 21 36  1  0  0  0  0
 21 20  2  0  0  0  0
 22 38  1  0  0  0  0
 23  2  1  0  0  0  0
 24  7  1  0  0  0  0
 30 15  1  0  0  0  0
 33 17  1  0  0  0  0
 34 18  1  0  0  0  0
 37 22  1  0  0  0  0
 39 22  1  0  0  0  0
M  END
