4
q = -1.0

 30 32  0  0  1  0  0  0  0  0999 V2000
    1.4642   -1.2735   -0.4441 S   0  0  2  0  0  3  0  0  0  0  0  0
    0.1788   -0.1808   -0.9810 C   0  0  0  0  0  3  0  0  0  0  0  0
   -0.3946    0.5522    0.1418 C   0  0  1  0  0  3  0  0  0  0  0  0
   -0.1808   -0.1875    1.3443 C   0  0  0  0  0  3  0  0  0  0  0  0
    0.5201   -1.4217    1.0690 C   0  0  0  0  0  3  0  0  0  0  0  0
    3.0018   -0.3143   -0.1373 C   0  0  0  0  0  0  0  0  0  0  0  0
    4.2063   -1.0378   -0.1159 C   0  0  0  0  0  0  0  0  0  0  0  0
    5.4083   -0.3638    0.1495 C   0  0  0  0  0  0  0  0  0  0  0  0
    5.3983    1.0212    0.3808 C   0  0  0  0  0  0  0  0  0  0  0  0
    4.1888    1.7366    0.3481 C   0  0  0  0  0  0  0  0  0  0  0  0
    2.9809    1.0721    0.0900 C   0  0  0  0  0  0  0  0  0  0  0  0
   -1.0255    1.8848    0.0443 C   0  0  0  0  0  0  0  0  0  0  0  0
   -0.5720    2.8245   -0.9062 C   0  0  0  0  0  0  0  0  0  0  0  0
   -1.1461    4.1030   -0.9792 C   0  0  0  0  0  0  0  0  0  0  0  0
   -2.1797    4.4626   -0.1026 C   0  0  0  0  0  0  0  0  0  0  0  0
   -2.6424    3.5314    0.8444 C   0  0  0  0  0  0  0  0  0  0  0  0
   -2.0767    2.2541    0.9134 C   0  0  0  0  0  0  0  0  0  0  0  0
    0.1854    0.1564   -2.0244 H   0  0  0  0  0  0  0  0  0  0  0  0
   -0.4887    0.1438    2.3441 H   0  0  0  0  0  0  0  0  0  0  0  0
    0.8686   -2.1445    1.8170 H   0  0  0  0  0  0  0  0  0  0  0  0
    4.2032   -2.1225   -0.3096 H   0  0  0  0  0  0  0  0  0  0  0  0
    6.3570   -0.9212    0.1674 H   0  0  0  0  0  0  0  0  0  0  0  0
    6.3419    1.5497    0.5839 H   0  0  0  0  0  0  0  0  0  0  0  0
    4.1853    2.8227    0.5256 H   0  0  0  0  0  0  0  0  0  0  0  0
    2.0316    1.6273    0.0619 H   0  0  0  0  0  0  0  0  0  0  0  0
    0.2461    2.5523   -1.5906 H   0  0  0  0  0  0  0  0  0  0  0  0
   -0.7807    4.8225   -1.7276 H   0  0  0  0  0  0  0  0  0  0  0  0
   -2.6326    5.4638   -0.1610 H   0  0  0  0  0  0  0  0  0  0  0  0
   -3.4645    3.8002    1.5249 H   0  0  0  0  0  0  0  0  0  0  0  0
   -2.4689    1.5117    1.6249 H   0  0  0  0  0  0  0  0  0  0  0  0
  1  6  1  1  0  0  0
  1  5  1  0  0  0  0
  2  1  1  0  0  0  0
  2  3  1  0  0  0  0
  3 12  1  1  0  0  0
  3  4  1  0  0  0  0
  4 19  1  0  0  0  0
  5  4  1  0  0  0  0
  5 20  1  0  0  0  0
  6  7  2  0  0  0  0
  6 11  1  0  0  0  0
  7  8  1  0  0  0  0
  8 22  1  0  0  0  0
  8  9  2  0  0  0  0
  9 23  1  0  0  0  0
 10  9  1  0  0  0  0
 10 24  1  0  0  0  0
 11 10  2  0  0  0  0
 12 17  1  0  0  0  0
 13 12  2  0  0  0  0
 14 13  1  0  0  0  0
 14 15  2  0  0  0  0
 15 16  1  0  0  0  0
 16 17  2  0  0  0  0
 16 29  1  0  0  0  0
 17 30  1  0  0  0  0
 18  2  1  0  0  0  0
 21  7  1  0  0  0  0
 25 11  1  0  0  0  0
 26 13  1  0  0  0  0
 27 14  1  0  0  0  0
 28 15  1  0  0  0  0
M  END
