4
q = -1.0

 23 24  0  0  1  0  0  0  0  0999 V2000
    0.8908   -0.8606   -0.4431 S   0  0  2  0  0  3  0  0  0  0  0  0
   -0.0454    0.5322   -1.0078 C   0  0  0  0  0  3  0  0  0  0  0  0
   -0.3764    1.4323    0.0891 C   0  0  1  0  0  3  0  0  0  0  0  0
   -0.3330    0.7156    1.3173 C   0  0  0  0  0  3  0  0  0  0  0  0
   -0.0119   -0.6782    1.0899 C   0  0  0  0  0  3  0  0  0  0  0  0
   -0.6327    2.9018   -0.0727 C   0  0  0  0  0  0  0  0  0  0  0  0
    2.6473   -0.3600   -0.2055 C   0  0  0  0  0  0  0  0  0  0  0  0
    3.0372    0.9882   -0.1822 C   0  0  0  0  0  0  0  0  0  0  0  0
    4.3864    1.3043    0.0362 C   0  0  0  0  0  0  0  0  0  0  0  0
    5.3293    0.2811    0.2333 C   0  0  0  0  0  0  0  0  0  0  0  0
    4.9294   -1.0650    0.2048 C   0  0  0  0  0  0  0  0  0  0  0  0
    3.5835   -1.3914   -0.0214 C   0  0  0  0  0  0  0  0  0  0  0  0
    0.0376    0.8210   -2.0631 H   0  0  0  0  0  0  0  0  0  0  0  0
   -0.5387    1.1532    2.3030 H   0  0  0  0  0  0  0  0  0  0  0  0
    0.1395   -1.4420    1.8625 H   0  0  0  0  0  0  0  0  0  0  0  0
   -1.1724    3.1158   -1.0154 H   0  0  0  0  0  0  0  0  0  0  0  0
    0.3226    3.4705   -0.0951 H   0  0  0  0  0  0  0  0  0  0  0  0
   -1.2444    3.2893    0.7643 H   0  0  0  0  0  0  0  0  0  0  0  0
    2.2911    1.7809   -0.3419 H   0  0  0  0  0  0  0  0  0  0  0  0
    4.7048    2.3577    0.0529 H   0  0  0  0  0  0  0  0  0  0  0  0
    6.3860    0.5354    0.4049 H   0  0  0  0  0  0  0  0  0  0  0  0
    5.6707   -1.8653    0.3502 H   0  0  0  0  0  0  0  0  0  0  0  0
    3.2617   -2.4447   -0.0578 H   0  0  0  0  0  0  0  0  0  0  0  0
  1  7  1  1  0  0  0
  1  5  1  0  0  0  0
  2  1  1  0  0  0  0
  2  3  1  0  0  0  0
  3  6  1  1  0  0  0
  3  4  1  0  0  0  0
  4 14  1  0  0  0  0
  5  4  1  0  0  0  0
  5 15  1  0  0  0  0
  6 18  1  0  0  0  0
  7  8  2  0  0  0  0
  7 12  1  0  0  0  0
  8  9  1  0  0  0  0
  9 20  1  0  0  0  0
  9 10  2  0  0  0  0
 10 21  1  0  0  0  0
 11 10  1  0  0  0  0
 11 22  1  0  0  0  0
 12 11  2  0  0  0  0
 13  2  1  0  0  0  0
 16  6  1  0  0  0  0
 17  6  1  0  0  0  0
 19  8  1  0  0  0  0
 23 12  1  0  0  0  0
M  END
