3
q = 0.0, confidence = 0.96

 28 31  0  0  1  0  0  0  0  0999 V2000
    0.1482   -3.1334   -0.2074 N   0  0  0  0  0  0  0  0  0  0  0  0
   -0.8831   -2.6580   -1.1449 C   0  0  2  0  0  0  0  0  0  0  0  0
   -0.5452   -1.1211   -1.4643 C   0  0  2  0  0  3  0  0  0  0  0  0
   -0.3199   -3.9789    0.8928 C   0  0  0  0  0  0  0  0  0  0  0  0
    1.2943   -3.7219   -0.9115 C   0  0  0  0  0  0  0  0  0  0  0  0
   -3.5468    0.2623    0.2744 C   0  0  0  0  0  0  0  0  0  0  0  0
   -2.1433    0.3970    0.2293 C   0  0  0  0  0  3  0  0  0  0  0  0
   -1.3754   -0.6859   -0.2641 C   0  0  1  0  0  3  0  0  0  0  0  0
   -2.0295   -1.9778   -0.5001 C   0  0  2  0  0  0  0  0  0  0  0  0
   -3.4097   -2.0759   -0.5844 C   0  0  0  0  0  3  0  0  0  0  0  0
   -4.1982   -0.9678   -0.1638 C   0  0  0  0  0  0  0  0  0  0  0  0
   -5.6232   -1.0287   -0.1365 C   0  0  0  0  0  0  0  0  0  0  0  0
   -6.3765    0.0511    0.2955 C   0  0  0  0  0  0  0  0  0  0  0  0
   -5.7421    1.2526    0.7284 C   0  0  0  0  0  0  0  0  0  0  0  0
   -4.3639    1.3526    0.7231 C   0  0  0  0  0  0  0  0  0  0  0  0
   -1.0886   -3.3592   -1.9821 H   0  0  0  0  0  0  0  0  0  0  0  0
   -1.1602   -3.4806    1.4117 H   0  0  0  0  0  0  0  0  0  0  0  0
    0.5121   -4.1119    1.6111 H   0  0  0  0  0  0  0  0  0  0  0  0
   -0.6570   -4.9778    0.5276 H   0  0  0  0  0  0  0  0  0  0  0  0
   -1.6829    1.3261    0.5893 H   0  0  0  0  0  0  0  0  0  0  0  0
   -6.1169   -1.9555   -0.4670 H   0  0  0  0  0  0  0  0  0  0  0  0
   -6.3566    2.1004    1.0665 H   0  0  0  0  0  0  0  0  0  0  0  0
    1.0366   -4.7264   -1.3229 H   0  0  0  0  0  0  0  0  0  0  0  0
    2.1414   -3.8097   -0.2051 H   0  0  0  0  0  0  0  0  0  0  0  0
    1.6006   -3.0565   -1.7402 H   0  0  0  0  0  0  0  0  0  0  0  0
   -3.8983   -3.0032   -0.9223 H   0  0  0  0  0  0  0  0  0  0  0  0
   -7.4749   -0.0166    0.3071 H   0  0  0  0  0  0  0  0  0  0  0  0
   -3.8614    2.2772    1.0457 H   0  0  0  0  0  0  0  0  0  0  0  0
  1  4  1  0  0  0  0
  2 16  1  6  0  0  0
  2  9  1  0  0  0  0
  2  1  1  0  0  0  0
  3  2  1  0  0  0  0
  3  9  1  0  0  0  0
  3  8  1  0  0  0  0
  4 17  1  0  0  0  0
  4 18  1  0  0  0  0
  5  1  1  0  0  0  0
  5 24  1  0  0  0  0
  6 15  1  0  0  0  0
  7  6  1  0  0  0  0
  7 20  1  0  0  0  0
  8  7  1  0  0  0  0
  9  8  1  0  0  0  0
 10  9  1  0  0  0  0
 10 11  1  0  0  0  0
 11 12  1  0  0  0  0
 11  6  2  0  0  0  0
 12 13  2  0  0  0  0
 13 27  1  0  0  0  0
 13 14  1  0  0  0  0
 14 22  1  0  0  0  0
 15 14  2  0  0  0  0
 15 28  1  0  0  0  0
 19  4  1  0  0  0  0
 21 12  1  0  0  0  0
 23  5  1  0  0  0  0
 25  5  1  0  0  0  0
 26 10  1  0  0  0  0
M  END
