1
q = 0.0, confidence = 0.998

 15 16  0  0  0  0  0  0  0  0999 V2000
   -1.0568    0.2674   -0.0001 C   0  0  0  0  0  2  0  0  0  0  0  0
   -3.2746    0.8087   -0.0000 C   0  0  0  0  0  0  0  0  0  0  0  0
   -1.9666    1.2863   -0.0000 N   0  0  0  0  0  0  0  0  0  0  0  0
   -1.6878    2.2681   -0.0000 H   0  0  0  0  0  0  0  0  0  0  0  0
   -3.1568   -0.6067   -0.0000 C   0  0  0  0  0  0  0  0  0  0  0  0
   -1.7940   -0.8701   -0.0001 N   0  0  0  0  0  0  0  0  0  0  0  0
   -1.2873   -1.7785    0.0000 H   0  0  0  0  0  0  0  0  0  0  0  0
   -4.5255    1.4412    0.0000 C   0  0  0  0  0  0  0  0  0  0  0  0
   -4.6172    2.5366    0.0001 H   0  0  0  0  0  0  0  0  0  0  0  0
   -5.6561    0.6116    0.0000 C   0  0  0  0  0  0  0  0  0  0  0  0
   -6.6565    1.0687    0.0001 H   0  0  0  0  0  0  0  0  0  0  0  0
   -5.5404   -0.7976   -0.0000 C   0  0  0  0  0  0  0  0  0  0  0  0
   -6.4535   -1.4108   -0.0000 H   0  0  0  0  0  0  0  0  0  0  0  0
   -4.2906   -1.4323   -0.0001 C   0  0  0  0  0  0  0  0  0  0  0  0
   -4.1998   -2.5275   -0.0001 H   0  0  0  0  0  0  0  0  0  0  0  0
  1  3  1  0  0  0  0
  2  8  1  0  0  0  0
  3  2  1  0  0  0  0
  4  3  1  0  0  0  0
  5  2  2  0  0  0  0
  6  1  1  0  0  0  0
  6  5  1  0  0  0  0
  6  7  1  0  0  0  0
  8  9  1  0  0  0  0
 10  8  2  0  0  0  0
 10 11  1  0  0  0  0
 12 13  1  0  0  0  0
 12 10  1  0  0  0  0
 14  5  1  0  0  0  0
 14 12  2  0  0  0  0
 15 14  1  0  0  0  0
M  END
