2
q = -1.0, confidence = 0.028

 38 39  0  0  1  0  0  0  0  0999 V2000
   -2.3309   -2.0177    1.3450 P   0  0  0  0  0  4  0  0  0  0  0  0
   -2.3220   -0.5426    0.3429 C   0  0  2  0  0  3  0  0  0  0  0  0
   -1.6134    0.6113    0.9164 C   0  0  0  0  0  3  0  0  0  0  0  0
   -1.3069    0.5548    1.9801 H   0  0  0  0  0  0  0  0  0  0  0  0
   -3.5285   -0.4615   -0.5452 C   0  0  0  0  0  0  0  0  0  0  0  0
   -3.5469   -1.0827   -1.8145 C   0  0  0  0  0  0  0  0  0  0  0  0
   -2.6304   -1.5802   -2.1705 H   0  0  0  0  0  0  0  0  0  0  0  0
   -4.6929   -1.0258   -2.6217 C   0  0  0  0  0  0  0  0  0  0  0  0
   -4.6868   -1.5110   -3.6099 H   0  0  0  0  0  0  0  0  0  0  0  0
   -5.8348   -0.3344   -2.1839 C   0  0  0  0  0  0  0  0  0  0  0  0
   -6.7290   -0.2803   -2.8233 H   0  0  0  0  0  0  0  0  0  0  0  0
   -5.8237    0.3001   -0.9308 C   0  0  0  0  0  0  0  0  0  0  0  0
   -6.7094    0.8560   -0.5861 H   0  0  0  0  0  0  0  0  0  0  0  0
   -4.6837    0.2326   -0.1169 C   0  0  0  0  0  0  0  0  0  0  0  0
   -4.6674    0.7415    0.8594 H   0  0  0  0  0  0  0  0  0  0  0  0
   -1.7847    2.0029    0.4566 C   0  0  0  0  0  0  0  0  0  0  0  0
   -2.1960    2.3482   -0.8576 C   0  0  0  0  0  0  0  0  0  0  0  0
   -2.4511    1.5541   -1.5724 H   0  0  0  0  0  0  0  0  0  0  0  0
   -2.2548    3.6858   -1.2678 C   0  0  0  0  0  0  0  0  0  0  0  0
   -2.5774    3.9198   -2.2943 H   0  0  0  0  0  0  0  0  0  0  0  0
   -1.8971    4.7241   -0.3898 C   0  0  0  0  0  0  0  0  0  0  0  0
   -1.9388    5.7734   -0.7189 H   0  0  0  0  0  0  0  0  0  0  0  0
   -1.4821    4.4018    0.9120 C   0  0  0  0  0  0  0  0  0  0  0  0
   -1.1913    5.1999    1.6126 H   0  0  0  0  0  0  0  0  0  0  0  0
   -1.4348    3.0647    1.3271 C   0  0  0  0  0  0  0  0  0  0  0  0
   -1.1091    2.8240    2.3523 H   0  0  0  0  0  0  0  0  0  0  0  0
   -0.8262   -2.2631    2.3352 C   0  0  0  0  0  0  0  0  0  0  0  0
    0.0029   -2.4964    1.6404 H   0  0  0  0  0  0  0  0  0  0  0  0
   -0.9910   -3.0989    3.0456 H   0  0  0  0  0  0  0  0  0  0  0  0
   -0.5631   -1.3465    2.8965 H   0  0  0  0  0  0  0  0  0  0  0  0
   -2.5442   -3.5062    0.3288 C   0  0  0  0  0  0  0  0  0  0  0  0
   -3.4583   -3.4054   -0.2864 H   0  0  0  0  0  0  0  0  0  0  0  0
   -2.6293   -4.3917    0.9884 H   0  0  0  0  0  0  0  0  0  0  0  0
   -1.6556   -3.5969   -0.3324 H   0  0  0  0  0  0  0  0  0  0  0  0
   -3.7281   -2.0240    2.5416 C   0  0  0  0  0  0  0  0  0  0  0  0
   -3.6022   -1.1752    3.2418 H   0  0  0  0  0  0  0  0  0  0  0  0
   -3.7718   -2.9724    3.1123 H   0  0  0  0  0  0  0  0  0  0  0  0
   -4.6724   -1.8829    1.9800 H   0  0  0  0  0  0  0  0  0  0  0  0
  1 27  1  0  0  0  0
  1 35  1  0  0  0  0
  2  3  1  1  0  0  0
  2  1  1  0  0  0  0
  3  4  1  0  0  0  0
  5 14  1  0  0  0  0
  5  2  1  0  0  0  0
  6  5  2  0  0  0  0
  7  6  1  0  0  0  0
  8 10  2  0  0  0  0
  8  6  1  0  0  0  0
  9  8  1  0  0  0  0
 10 12  1  0  0  0  0
 11 10  1  0  0  0  0
 12 13  1  0  0  0  0
 12 14  2  0  0  0  0
 14 15  1  0  0  0  0
 16  3  1  0  0  0  0
 16 25  1  0  0  0  0
 17 16  2  0  0  0  0
 18 17  1  0  0  0  0
 19 17  1  0  0  0  0
 19 21  2  0  0  0  0
 20 19  1  0  0  0  0
 21 23  1  0  0  0  0
 22 21  1  0  0  0  0
 23 25  2  0  0  0  0
 23 24  1  0  0  0  0
 25 26  1  0  0  0  0
 27 30  1  0  0  0  0
 27 29  1  0  0  0  0
 28 27  1  0  0  0  0
 31 33  1  0  0  0  0
 31  1  1  0  0  0  0
 32 31  1  0  0  0  0
 34 31  1  0  0  0  0
 35 37  1  0  0  0  0
 35 36  1  0  0  0  0
 38 35  1  0  0  0  0
M  END
