3
q = 0.0, confidence = 0.978

 78 80  0  0  0  0  0  0  0  0999 V2000
    0.2489   -1.3229    0.2095 O   0  0  0  0  0  0  0  0  0  0  0  0
   -1.3848    0.1914    0.1366 N   0  0  0  0  0  0  0  0  0  0  0  0
   -0.0635   -0.0231    0.0501 C   0  0  0  0  0  2  0  0  0  0  0  0
   -2.3384   -0.8902    0.3596 C   0  0  0  0  0  0  0  0  0  0  0  0
   -2.5784   -1.3475    1.6810 C   0  0  0  0  0  0  0  0  0  0  0  0
   -3.5603   -2.3386    1.8721 C   0  0  0  0  0  0  0  0  0  0  0  0
   -3.7617   -2.7008    2.8914 H   0  0  0  0  0  0  0  0  0  0  0  0
   -4.2778   -2.8705    0.7976 C   0  0  0  0  0  0  0  0  0  0  0  0
   -5.0415   -3.6438    0.9700 H   0  0  0  0  0  0  0  0  0  0  0  0
   -4.0152   -2.4183   -0.4989 C   0  0  0  0  0  0  0  0  0  0  0  0
   -4.5755   -2.8431   -1.3448 H   0  0  0  0  0  0  0  0  0  0  0  0
   -3.0470   -1.4275   -0.7490 C   0  0  0  0  0  0  0  0  0  0  0  0
   -2.8384   -0.9501   -2.1806 C   0  0  0  0  0  0  0  0  0  0  0  0
   -1.8875   -0.3798   -2.2082 H   0  0  0  0  0  0  0  0  0  0  0  0
   -3.9811   -0.0078   -2.6071 C   0  0  0  0  0  0  0  0  0  0  0  0
   -4.1060    0.8428   -1.9091 H   0  0  0  0  0  0  0  0  0  0  0  0
   -4.9453   -0.5562   -2.6348 H   0  0  0  0  0  0  0  0  0  0  0  0
   -3.7955    0.4046   -3.6200 H   0  0  0  0  0  0  0  0  0  0  0  0
   -2.7093   -2.1094   -3.1824 C   0  0  0  0  0  0  0  0  0  0  0  0
   -1.9533   -2.8502   -2.8591 H   0  0  0  0  0  0  0  0  0  0  0  0
   -2.4098   -1.7234   -4.1776 H   0  0  0  0  0  0  0  0  0  0  0  0
   -3.6705   -2.6458   -3.3179 H   0  0  0  0  0  0  0  0  0  0  0  0
   -1.8352   -0.8173    2.8991 C   0  0  0  0  0  0  0  0  0  0  0  0
   -1.0385   -0.1343    2.5411 H   0  0  0  0  0  0  0  0  0  0  0  0
   -1.1550   -1.9550    3.6777 C   0  0  0  0  0  0  0  0  0  0  0  0
   -0.5191   -2.5703    3.0134 H   0  0  0  0  0  0  0  0  0  0  0  0
   -1.9006   -2.6262    4.1509 H   0  0  0  0  0  0  0  0  0  0  0  0
   -0.5166   -1.5469    4.4867 H   0  0  0  0  0  0  0  0  0  0  0  0
   -2.7724   -0.0094    3.8146 C   0  0  0  0  0  0  0  0  0  0  0  0
   -3.2775    0.8112    3.2671 H   0  0  0  0  0  0  0  0  0  0  0  0
   -2.2074    0.4363    4.6585 H   0  0  0  0  0  0  0  0  0  0  0  0
   -3.5649   -0.6565    4.2437 H   0  0  0  0  0  0  0  0  0  0  0  0
   -1.9573    1.5773    0.0694 C   0  0  0  0  0  0  0  0  0  0  0  0
   -3.0519    1.4046    0.1428 H   0  0  0  0  0  0  0  0  0  0  0  0
   -1.5379    2.4480    1.2671 C   0  0  0  0  0  0  0  0  0  0  0  0
   -1.7626    1.9241    2.2155 H   0  0  0  0  0  0  0  0  0  0  0  0
   -0.4353    2.5888    1.2258 H   0  0  0  0  0  0  0  0  0  0  0  0
   -2.2415    3.8102    1.2288 C   0  0  0  0  0  0  0  0  0  0  0  0
   -1.9015    4.4262    2.0867 H   0  0  0  0  0  0  0  0  0  0  0  0
   -3.3375    3.6626    1.3658 H   0  0  0  0  0  0  0  0  0  0  0  0
   -1.9895    4.5386   -0.0960 C   0  0  0  0  0  0  0  0  0  0  0  0
   -2.5358    5.5043   -0.1179 H   0  0  0  0  0  0  0  0  0  0  0  0
   -0.9074    4.7821   -0.1788 H   0  0  0  0  0  0  0  0  0  0  0  0
   -2.3977    3.6630   -1.2862 C   0  0  0  0  0  0  0  0  0  0  0  0
   -2.1761    4.1760   -2.2445 H   0  0  0  0  0  0  0  0  0  0  0  0
   -3.5004    3.5012   -1.2663 H   0  0  0  0  0  0  0  0  0  0  0  0
   -1.6806    2.3079   -1.2564 C   0  0  0  0  0  0  0  0  0  0  0  0
   -0.5838    2.4636   -1.3546 H   0  0  0  0  0  0  0  0  0  0  0  0
   -1.9893    1.6837   -2.1157 H   0  0  0  0  0  0  0  0  0  0  0  0
    1.5941   -1.7049   -0.0174 C   0  0  0  0  0  0  0  0  0  0  0  0
    2.5253   -1.6345    1.0395 C   0  0  0  0  0  0  0  0  0  0  0  0
    3.8425   -2.0437    0.7520 C   0  0  0  0  0  0  0  0  0  0  0  0
    4.6016   -1.9899    1.5469 H   0  0  0  0  0  0  0  0  0  0  0  0
    4.2029   -2.5052   -0.5183 C   0  0  0  0  0  0  0  0  0  0  0  0
    5.2409   -2.8101   -0.7185 H   0  0  0  0  0  0  0  0  0  0  0  0
    3.2421   -2.5823   -1.5343 C   0  0  0  0  0  0  0  0  0  0  0  0
    3.5293   -2.9520   -2.5296 H   0  0  0  0  0  0  0  0  0  0  0  0
    1.9118   -2.1873   -1.3055 C   0  0  0  0  0  0  0  0  0  0  0  0
    0.8662   -2.2332   -2.4099 C   0  0  0  0  0  0  0  0  0  0  0  0
   -0.1225   -2.2195   -1.9083 H   0  0  0  0  0  0  0  0  0  0  0  0
    0.9403   -3.5200   -3.2441 C   0  0  0  0  0  0  0  0  0  0  0  0
    0.8914   -4.4240   -2.6047 H   0  0  0  0  0  0  0  0  0  0  0  0
    1.8749   -3.5736   -3.8391 H   0  0  0  0  0  0  0  0  0  0  0  0
    0.0979   -3.5600   -3.9642 H   0  0  0  0  0  0  0  0  0  0  0  0
    0.9559   -0.9826   -3.3042 C   0  0  0  0  0  0  0  0  0  0  0  0
    0.1542   -0.9898   -4.0713 H   0  0  0  0  0  0  0  0  0  0  0  0
    1.9328   -0.9445   -3.8288 H   0  0  0  0  0  0  0  0  0  0  0  0
    0.8690   -0.0491   -2.7109 H   0  0  0  0  0  0  0  0  0  0  0  0
    2.1666   -1.1489    2.4369 C   0  0  0  0  0  0  0  0  0  0  0  0
    1.0894   -0.8923    2.4338 H   0  0  0  0  0  0  0  0  0  0  0  0
    2.3784   -2.2653    3.4742 C   0  0  0  0  0  0  0  0  0  0  0  0
    1.8090   -3.1800    3.2148 H   0  0  0  0  0  0  0  0  0  0  0  0
    2.0540   -1.9305    4.4806 H   0  0  0  0  0  0  0  0  0  0  0  0
    3.4491   -2.5465    3.5468 H   0  0  0  0  0  0  0  0  0  0  0  0
    2.9443    0.1215    2.8191 C   0  0  0  0  0  0  0  0  0  0  0  0
    2.7812    0.9308    2.0787 H   0  0  0  0  0  0  0  0  0  0  0  0
    4.0356   -0.0719    2.8689 H   0  0  0  0  0  0  0  0  0  0  0  0
    2.6223    0.4874    3.8156 H   0  0  0  0  0  0  0  0  0  0  0  0
  2  4  1  0  0  0  0
  3  2  1  0  0  0  0
  3  1  1  0  0  0  0
  4  5  1  0  0  0  0
  5  6  2  0  0  0  0
  5 23  1  0  0  0  0
  6  7  1  0  0  0  0
  8  9  1  0  0  0  0
  8  6  1  0  0  0  0
 10  8  2  0  0  0  0
 11 10  1  0  0  0  0
 12 10  1  0  0  0  0
 12  4  2  0  0  0  0
 13 12  1  0  0  0  0
 14 13  1  0  0  0  0
 15 13  1  0  0  0  0
 15 16  1  0  0  0  0
 17 15  1  0  0  0  0
 18 15  1  0  0  0  0
 19 20  1  0  0  0  0
 19 13  1  0  0  0  0
 21 19  1  0  0  0  0
 22 19  1  0  0  0  0
 23 25  1  0  0  0  0
 23 29  1  0  0  0  0
 24 23  1  0  0  0  0
 25 27  1  0  0  0  0
 25 28  1  0  0  0  0
 26 25  1  0  0  0  0
 29 32  1  0  0  0  0
 29 31  1  0  0  0  0
 30 29  1  0  0  0  0
 33  2  1  0  0  0  0
 33 34  1  0  0  0  0
 33 35  1  0  0  0  0
 35 36  1  0  0  0  0
 37 35  1  0  0  0  0
 38 35  1  0  0  0  0
 38 40  1  0  0  0  0
 38 39  1  0  0  0  0
 41 38  1  0  0  0  0
 42 41  1  0  0  0  0
 43 41  1  0  0  0  0
 44 46  1  0  0  0  0
 44 47  1  0  0  0  0
 44 41  1  0  0  0  0
 45 44  1  0  0  0  0
 47 33  1  0  0  0  0
 48 47  1  0  0  0  0
 49 47  1  0  0  0  0
 50  1  1  0  0  0  0
 50 51  1  0  0  0  0
 51 69  1  0  0  0  0
 52 51  2  0  0  0  0
 52 53  1  0  0  0  0
 54 52  1  0  0  0  0
 55 54  1  0  0  0  0
 56 58  1  0  0  0  0
 56 54  2  0  0  0  0
 57 56  1  0  0  0  0
 58 50  2  0  0  0  0
 59 60  1  0  0  0  0
 59 58  1  0  0  0  0
 61 62  1  0  0  0  0
 61 59  1  0  0  0  0
 63 61  1  0  0  0  0
 64 61  1  0  0  0  0
 65 68  1  0  0  0  0
 65 59  1  0  0  0  0
 66 65  1  0  0  0  0
 67 65  1  0  0  0  0
 69 75  1  0  0  0  0
 69 71  1  0  0  0  0
 70 69  1  0  0  0  0
 71 74  1  0  0  0  0
 71 73  1  0  0  0  0
 72 71  1  0  0  0  0
 75 77  1  0  0  0  0
 75 78  1  0  0  0  0
 76 75  1  0  0  0  0
M  END
