3
q = 0.0, confidence = 0.988

 48 50  0  0  1  0  0  0  0  0999 V2000
   -0.3117    1.4065   -0.0001 O   0  0  0  0  0  0  0  0  0  0  0  0
    1.8993    1.4814    0.0001 N   0  0  0  0  0  0  0  0  0  0  0  0
    0.8108    0.6922    0.0000 C   0  0  0  0  0  2  0  0  0  0  0  0
    3.2506    0.8652    0.0002 C   0  0  0  0  0  0  0  0  0  0  0  0
    3.0497   -0.2280    0.0006 H   0  0  0  0  0  0  0  0  0  0  0  0
    4.0189    1.1998    1.2804 C   0  0  0  0  0  0  0  0  0  0  0  0
    3.4384    0.8997    2.1749 H   0  0  0  0  0  0  0  0  0  0  0  0
    4.2620    2.2796    1.3626 H   0  0  0  0  0  0  0  0  0  0  0  0
    4.9773    0.6445    1.2926 H   0  0  0  0  0  0  0  0  0  0  0  0
    4.0187    1.1990   -1.2802 C   0  0  0  0  0  0  0  0  0  0  0  0
    3.4381    0.8981   -2.1744 H   0  0  0  0  0  0  0  0  0  0  0  0
    4.9773    0.6439   -1.2922 H   0  0  0  0  0  0  0  0  0  0  0  0
    4.2616    2.2788   -1.3632 H   0  0  0  0  0  0  0  0  0  0  0  0
    1.8513    2.9727   -0.0001 C   0  0  0  0  0  0  0  0  0  0  0  0
    2.9182    3.2711   -0.0002 H   0  0  0  0  0  0  0  0  0  0  0  0
    1.2348    3.5439    1.2827 C   0  0  0  0  0  0  0  0  0  0  0  0
    1.7212    3.1133    2.1797 H   0  0  0  0  0  0  0  0  0  0  0  0
    0.1504    3.3398    1.3408 H   0  0  0  0  0  0  0  0  0  0  0  0
    1.3846    4.6419    1.3053 H   0  0  0  0  0  0  0  0  0  0  0  0
    1.2348    3.5435   -1.2832 C   0  0  0  0  0  0  0  0  0  0  0  0
    1.7212    3.1125   -2.1800 H   0  0  0  0  0  0  0  0  0  0  0  0
    1.3849    4.6415   -1.3062 H   0  0  0  0  0  0  0  0  0  0  0  0
    0.1504    3.3397   -1.3412 H   0  0  0  0  0  0  0  0  0  0  0  0
   -1.6677    0.8287   -0.0000 C   0  0  2  0  0  0  0  0  0  0  0  0
   -2.5912    2.0570   -0.0000 C   0  0  0  0  0  0  0  0  0  0  0  0
   -2.3756    2.6776   -0.8954 H   0  0  0  0  0  0  0  0  0  0  0  0
   -2.3756    2.6777    0.8953 H   0  0  0  0  0  0  0  0  0  0  0  0
   -4.0624    1.5940    0.0000 C   0  0  2  0  0  0  0  0  0  0  0  0
   -4.7213    2.4877    0.0000 H   0  0  0  0  0  0  0  0  0  0  0  0
   -4.3304    0.7456    1.2582 C   0  0  0  0  0  0  0  0  0  0  0  0
   -5.3907    0.4148    1.2736 H   0  0  0  0  0  0  0  0  0  0  0  0
   -4.1681    1.3546    2.1734 H   0  0  0  0  0  0  0  0  0  0  0  0
   -3.3924   -0.4768    1.2603 C   0  0  2  0  0  0  0  0  0  0  0  0
   -3.5720   -1.0892    2.1683 H   0  0  0  0  0  0  0  0  0  0  0  0
   -1.9255    0.0005    1.2665 C   0  0  0  0  0  0  0  0  0  0  0  0
   -1.7142    0.6251    2.1604 H   0  0  0  0  0  0  0  0  0  0  0  0
   -1.2354   -0.8693    1.2953 H   0  0  0  0  0  0  0  0  0  0  0  0
   -1.9256    0.0004   -1.2665 C   0  0  0  0  0  0  0  0  0  0  0  0
   -1.2355   -0.8694   -1.2952 H   0  0  0  0  0  0  0  0  0  0  0  0
   -1.7143    0.6249   -2.1604 H   0  0  0  0  0  0  0  0  0  0  0  0
   -3.3925   -0.4769   -1.2602 C   0  0  1  0  0  0  0  0  0  0  0  0
   -3.5722   -1.0893   -2.1681 H   0  0  0  0  0  0  0  0  0  0  0  0
   -3.6429   -1.3290    0.0001 C   0  0  0  0  0  0  0  0  0  0  0  0
   -2.9732   -2.2147    0.0001 H   0  0  0  0  0  0  0  0  0  0  0  0
   -4.6868   -1.7083    0.0002 H   0  0  0  0  0  0  0  0  0  0  0  0
   -4.3305    0.7455   -1.2581 C   0  0  0  0  0  0  0  0  0  0  0  0
   -5.3908    0.4147   -1.2734 H   0  0  0  0  0  0  0  0  0  0  0  0
   -4.1683    1.3545   -2.1733 H   0  0  0  0  0  0  0  0  0  0  0  0
  1  3  1  0  0  0  0
  2  4  1  0  0  0  0
  3  2  1  0  0  0  0
  4  5  1  0  0  0  0
  4  6  1  0  0  0  0
  6  9  1  0  0  0  0
  6  8  1  0  0  0  0
  6  7  1  0  0  0  0
 10  4  1  0  0  0  0
 11 10  1  0  0  0  0
 12 10  1  0  0  0  0
 13 10  1  0  0  0  0
 14  2  1  0  0  0  0
 14 16  1  0  0  0  0
 15 14  1  0  0  0  0
 16 19  1  0  0  0  0
 16 18  1  0  0  0  0
 16 17  1  0  0  0  0
 20 14  1  0  0  0  0
 21 20  1  0  0  0  0
 22 20  1  0  0  0  0
 23 20  1  0  0  0  0
 24  1  1  6  0  0  0
 24 35  1  0  0  0  0
 25 24  1  0  0  0  0
 25 28  1  0  0  0  0
 25 27  1  0  0  0  0
 26 25  1  0  0  0  0
 28 29  1  6  0  0  0
 28 30  1  0  0  0  0
 30 33  1  0  0  0  0
 30 31  1  0  0  0  0
 30 32  1  0  0  0  0
 33 35  1  0  0  0  0
 33 34  1  1  0  0  0
 35 37  1  0  0  0  0
 35 36  1  0  0  0  0
 38 41  1  0  0  0  0
 38 24  1  0  0  0  0
 39 38  1  0  0  0  0
 40 38  1  0  0  0  0
 41 42  1  6  0  0  0
 41 46  1  0  0  0  0
 41 43  1  0  0  0  0
 43 44  1  0  0  0  0
 43 45  1  0  0  0  0
 43 33  1  0  0  0  0
 46 28  1  0  0  0  0
 47 46  1  0  0  0  0
 48 46  1  0  0  0  0
M  END
