3
q = 0.0, confidence = 0.988

 74 78  0  0  1  0  0  0  0  0999 V2000
    1.1219    1.1541    0.0001 O   0  0  0  0  0  0  0  0  0  0  0  0
   -1.0784    0.8213   -0.0000 N   0  0  0  0  0  0  0  0  0  0  0  0
    0.1325    0.2368    0.0001 C   0  0  0  0  0  2  0  0  0  0  0  0
    2.4572    0.6888    0.0000 C   0  0  0  0  0  0  0  0  0  0  0  0
    3.0924    0.4999   -1.2443 C   0  0  0  0  0  0  0  0  0  0  0  0
    4.4423    0.1034   -1.2147 C   0  0  0  0  0  0  0  0  0  0  0  0
    4.9749   -0.0666   -2.1607 H   0  0  0  0  0  0  0  0  0  0  0  0
    5.1111   -0.0914    0.0001 C   0  0  0  0  0  0  0  0  0  0  0  0
    6.1644   -0.4093    0.0001 H   0  0  0  0  0  0  0  0  0  0  0  0
    4.4424    0.1038    1.2148 C   0  0  0  0  0  0  0  0  0  0  0  0
    4.9750   -0.0659    2.1608 H   0  0  0  0  0  0  0  0  0  0  0  0
    3.0924    0.5002    1.2444 C   0  0  0  0  0  0  0  0  0  0  0  0
    2.3426    0.7470   -2.5449 C   0  0  0  0  0  0  0  0  0  0  0  0
    1.3037    0.3843   -2.3855 H   0  0  0  0  0  0  0  0  0  0  0  0
    2.2813    2.2573   -2.8409 C   0  0  0  0  0  0  0  0  0  0  0  0
    1.7949    2.8129   -2.0151 H   0  0  0  0  0  0  0  0  0  0  0  0
    1.7148    2.4548   -3.7739 H   0  0  0  0  0  0  0  0  0  0  0  0
    3.3047    2.6658   -2.9705 H   0  0  0  0  0  0  0  0  0  0  0  0
    2.9037   -0.0366   -3.7359 C   0  0  0  0  0  0  0  0  0  0  0  0
    3.9114    0.3224   -4.0310 H   0  0  0  0  0  0  0  0  0  0  0  0
    2.2444    0.0894   -4.6181 H   0  0  0  0  0  0  0  0  0  0  0  0
    2.9744   -1.1194   -3.5114 H   0  0  0  0  0  0  0  0  0  0  0  0
    2.3427    0.7476    2.5449 C   0  0  0  0  0  0  0  0  0  0  0  0
    1.3038    0.3847    2.3856 H   0  0  0  0  0  0  0  0  0  0  0  0
    2.2810    2.2580    2.8405 C   0  0  0  0  0  0  0  0  0  0  0  0
    1.7145    2.4556    3.7735 H   0  0  0  0  0  0  0  0  0  0  0  0
    1.7944    2.8132    2.0145 H   0  0  0  0  0  0  0  0  0  0  0  0
    3.3043    2.6668    2.9700 H   0  0  0  0  0  0  0  0  0  0  0  0
    2.9039   -0.0355    3.7362 C   0  0  0  0  0  0  0  0  0  0  0  0
    2.9748   -1.1184    3.5121 H   0  0  0  0  0  0  0  0  0  0  0  0
    2.2446    0.0907    4.6183 H   0  0  0  0  0  0  0  0  0  0  0  0
    3.9115    0.3238    4.0311 H   0  0  0  0  0  0  0  0  0  0  0  0
   -1.1503    2.2748   -0.0002 C   0  0  0  0  0  0  0  0  0  0  0  0
   -1.1630    2.9636    1.2366 C   0  0  0  0  0  0  0  0  0  0  0  0
   -1.1811    4.3714    1.2105 C   0  0  0  0  0  0  0  0  0  0  0  0
   -1.1849    4.9193    2.1653 H   0  0  0  0  0  0  0  0  0  0  0  0
   -1.1868    5.0728   -0.0004 C   0  0  0  0  0  0  0  0  0  0  0  0
   -1.1918    6.1731   -0.0006 H   0  0  0  0  0  0  0  0  0  0  0  0
   -1.1810    4.3711   -1.2113 C   0  0  0  0  0  0  0  0  0  0  0  0
   -1.1847    4.9189   -2.1662 H   0  0  0  0  0  0  0  0  0  0  0  0
   -1.1629    2.9633   -1.2371 C   0  0  0  0  0  0  0  0  0  0  0  0
   -1.1926    2.2415    2.5582 C   0  0  0  0  0  0  0  0  0  0  0  0
   -0.5812    1.3203    2.5508 H   0  0  0  0  0  0  0  0  0  0  0  0
   -2.2286    1.9383    2.8219 H   0  0  0  0  0  0  0  0  0  0  0  0
   -0.8259    2.8952    3.3712 H   0  0  0  0  0  0  0  0  0  0  0  0
   -1.1924    2.2410   -2.5586 C   0  0  0  0  0  0  0  0  0  0  0  0
   -0.5809    1.3199   -2.5510 H   0  0  0  0  0  0  0  0  0  0  0  0
   -0.8258    2.8946   -3.3716 H   0  0  0  0  0  0  0  0  0  0  0  0
   -2.2283    1.9376   -2.8222 H   0  0  0  0  0  0  0  0  0  0  0  0
   -2.3606    0.0037    0.0000 C   0  0  1  0  0  0  0  0  0  0  0  0
   -2.4362   -0.8856    1.2645 C   0  0  0  0  0  0  0  0  0  0  0  0
   -1.5530   -1.5580    1.2942 H   0  0  0  0  0  0  0  0  0  0  0  0
   -2.3937   -0.2458    2.1685 H   0  0  0  0  0  0  0  0  0  0  0  0
   -3.7340   -1.7134    1.2569 C   0  0  1  0  0  0  0  0  0  0  0  0
   -3.7522   -2.3493    2.1667 H   0  0  0  0  0  0  0  0  0  0  0  0
   -4.9442   -0.7621    1.2573 C   0  0  0  0  0  0  0  0  0  0  0  0
   -5.8918   -1.3416    1.2724 H   0  0  0  0  0  0  0  0  0  0  0  0
   -4.9357   -0.1313    2.1724 H   0  0  0  0  0  0  0  0  0  0  0  0
   -4.8885    0.1246    0.0000 C   0  0  1  0  0  0  0  0  0  0  0  0
   -5.7446    0.8317   -0.0000 H   0  0  0  0  0  0  0  0  0  0  0  0
   -3.5833    0.9487   -0.0000 C   0  0  0  0  0  0  0  0  0  0  0  0
   -3.5590    1.6095   -0.8900 H   0  0  0  0  0  0  0  0  0  0  0  0
   -3.5590    1.6096    0.8898 H   0  0  0  0  0  0  0  0  0  0  0  0
   -2.4362   -0.8858   -1.2644 C   0  0  0  0  0  0  0  0  0  0  0  0
   -1.5531   -1.5581   -1.2940 H   0  0  0  0  0  0  0  0  0  0  0  0
   -2.3938   -0.2461   -2.1684 H   0  0  0  0  0  0  0  0  0  0  0  0
   -3.7340   -1.7135   -1.2566 C   0  0  1  0  0  0  0  0  0  0  0  0
   -3.7522   -2.3496   -2.1663 H   0  0  0  0  0  0  0  0  0  0  0  0
   -3.7667   -2.6031    0.0002 C   0  0  0  0  0  0  0  0  0  0  0  0
   -4.6840   -3.2296    0.0003 H   0  0  0  0  0  0  0  0  0  0  0  0
   -2.8974   -3.2940    0.0002 H   0  0  0  0  0  0  0  0  0  0  0  0
   -4.9442   -0.7623   -1.2571 C   0  0  0  0  0  0  0  0  0  0  0  0
   -4.9357   -0.1316   -2.1723 H   0  0  0  0  0  0  0  0  0  0  0  0
   -5.8918   -1.3417   -1.2721 H   0  0  0  0  0  0  0  0  0  0  0  0
  2  3  1  0  0  0  0
  3  1  1  0  0  0  0
  4  1  1  0  0  0  0
  4 12  1  0  0  0  0
  5  6  1  0  0  0  0
  5  4  2  0  0  0  0
  6  8  2  0  0  0  0
  7  6  1  0  0  0  0
  8  9  1  0  0  0  0
  8 10  1  0  0  0  0
 10 12  2  0  0  0  0
 10 11  1  0  0  0  0
 12 23  1  0  0  0  0
 13 14  1  0  0  0  0
 13  5  1  0  0  0  0
 15 13  1  0  0  0  0
 15 16  1  0  0  0  0
 17 15  1  0  0  0  0
 18 15  1  0  0  0  0
 19 22  1  0  0  0  0
 19 13  1  0  0  0  0
 20 19  1  0  0  0  0
 21 19  1  0  0  0  0
 23 25  1  0  0  0  0
 23 29  1  0  0  0  0
 24 23  1  0  0  0  0
 25 28  1  0  0  0  0
 25 26  1  0  0  0  0
 27 25  1  0  0  0  0
 29 32  1  0  0  0  0
 29 31  1  0  0  0  0
 30 29  1  0  0  0  0
 33  2  1  0  0  0  0
 33 34  1  0  0  0  0
 34 42  1  0  0  0  0
 35 34  2  0  0  0  0
 35 36  1  0  0  0  0
 37 35  1  0  0  0  0
 38 37  1  0  0  0  0
 39 37  2  0  0  0  0
 40 39  1  0  0  0  0
 41 39  1  0  0  0  0
 41 33  2  0  0  0  0
 42 44  1  0  0  0  0
 42 45  1  0  0  0  0
 43 42  1  0  0  0  0
 46 47  1  0  0  0  0
 46 41  1  0  0  0  0
 48 46  1  0  0  0  0
 49 46  1  0  0  0  0
 50  2  1  6  0  0  0
 50 51  1  0  0  0  0
 51 52  1  0  0  0  0
 51 53  1  0  0  0  0
 54 56  1  0  0  0  0
 54 51  1  0  0  0  0
 54 55  1  1  0  0  0
 56 57  1  0  0  0  0
 56 58  1  0  0  0  0
 59 60  1  6  0  0  0
 59 56  1  0  0  0  0
 61 59  1  0  0  0  0
 61 50  1  0  0  0  0
 61 63  1  0  0  0  0
 62 61  1  0  0  0  0
 64 67  1  0  0  0  0
 64 50  1  0  0  0  0
 65 64  1  0  0  0  0
 66 64  1  0  0  0  0
 67 68  1  6  0  0  0
 67 69  1  0  0  0  0
 69 71  1  0  0  0  0
 69 70  1  0  0  0  0
 69 54  1  0  0  0  0
 72 67  1  0  0  0  0
 72 59  1  0  0  0  0
 73 72  1  0  0  0  0
 74 72  1  0  0  0  0
M  END
