17
q = 0.0, confidence = 0.982

 43 45  0  0  0  0  0  0  0  0999 V2000
    1.0484   -2.8221    0.9871 O   0  0  0  0  0  0  0  0  0  0  0  0
    2.6887    1.4075    1.8800 O   0  0  0  0  0  0  0  0  0  0  0  0
    7.4185    0.9342   -2.2333 O   0  0  0  0  0  0  0  0  0  0  0  0
    6.6907    1.8693   -0.2995 O   0  0  0  0  0  0  0  0  0  0  0  0
   -1.6241   -1.4515    0.3616 N   0  0  0  0  0  0  0  0  0  0  0  0
   -1.8582    0.7236    0.4983 N   0  0  0  0  0  0  0  0  0  0  0  0
    1.8560   -0.6922    1.4447 N   0  0  0  0  0  0  0  0  0  0  0  0
    0.4805    1.2700    1.2316 N   0  0  0  0  0  0  0  0  0  0  0  0
    0.8426   -1.6108    1.0566 C   0  0  0  0  0  0  0  0  0  0  0  0
    1.7464    0.7024    1.5412 C   0  0  0  0  0  0  0  0  0  0  0  0
   -0.5503    0.4412    0.8548 C   0  0  0  0  0  0  0  0  0  0  0  0
   -0.3981   -0.9358    0.7695 C   0  0  0  0  0  0  0  0  0  0  0  0
    0.3698    2.7251    1.3278 C   0  0  0  0  0  0  0  0  0  0  0  0
   -0.3871    3.0187    2.0787 H   0  0  0  0  0  0  0  0  0  0  0  0
    0.1179    3.1713    0.3476 H   0  0  0  0  0  0  0  0  0  0  0  0
    1.3613    3.0889    1.6488 H   0  0  0  0  0  0  0  0  0  0  0  0
   -2.5270   -0.4574    0.1917 C   0  0  0  0  0  2  0  0  0  0  0  0
   -1.8980   -2.8668    0.1486 C   0  0  0  0  0  0  0  0  0  0  0  0
   -2.9499   -2.9537   -0.1793 H   0  0  0  0  0  0  0  0  0  0  0  0
   -1.7377   -3.4312    1.0862 H   0  0  0  0  0  0  0  0  0  0  0  0
   -1.2166   -3.2741   -0.6212 H   0  0  0  0  0  0  0  0  0  0  0  0
    3.1923   -1.2594    1.7252 C   0  0  0  0  0  0  0  0  0  0  0  0
    3.0136   -2.2870    2.0890 H   0  0  0  0  0  0  0  0  0  0  0  0
    3.6417   -0.6463    2.5258 H   0  0  0  0  0  0  0  0  0  0  0  0
    4.0806   -1.2778    0.4974 C   0  0  0  0  0  0  0  0  0  0  0  0
    4.0202   -2.3587   -0.4069 C   0  0  0  0  0  0  0  0  0  0  0  0
    3.3266   -3.1881   -0.2004 H   0  0  0  0  0  0  0  0  0  0  0  0
    4.8249   -2.3698   -1.5569 C   0  0  0  0  0  0  0  0  0  0  0  0
    4.7730   -3.2200   -2.2536 H   0  0  0  0  0  0  0  0  0  0  0  0
    5.6950   -1.3041   -1.8159 C   0  0  0  0  0  0  0  0  0  0  0  0
    6.3396   -1.2849   -2.7069 H   0  0  0  0  0  0  0  0  0  0  0  0
    5.7618   -0.2186   -0.9203 C   0  0  0  0  0  0  0  0  0  0  0  0
    4.9535   -0.2075    0.2330 C   0  0  0  0  0  0  0  0  0  0  0  0
    4.9967    0.6479    0.9207 H   0  0  0  0  0  0  0  0  0  0  0  0
    6.7072    0.8928   -1.2431 C   0  0  0  0  0  0  0  0  0  0  0  0
    7.5739    2.9672   -0.5445 C   0  0  0  0  0  0  0  0  0  0  0  0
    8.6265    2.6230   -0.6014 H   0  0  0  0  0  0  0  0  0  0  0  0
    7.4407    3.6636    0.3024 H   0  0  0  0  0  0  0  0  0  0  0  0
    7.3256    3.4689   -1.5019 H   0  0  0  0  0  0  0  0  0  0  0  0
   -2.5249    2.0274    0.4259 C   0  0  0  0  0  0  0  0  0  0  0  0
   -2.5278    2.5191    1.4159 H   0  0  0  0  0  0  0  0  0  0  0  0
   -3.5787    1.8678    0.1074 H   0  0  0  0  0  0  0  0  0  0  0  0
   -2.0279    2.6789   -0.3160 H   0  0  0  0  0  0  0  0  0  0  0  0
  1  9  2  0  0  0  0
  3 35  2  0  0  0  0
  5 12  1  0  0  0  0
  6 11  1  0  0  0  0
  7 10  1  0  0  0  0
  7 22  1  0  0  0  0
  8 13  1  0  0  0  0
  8 10  1  0  0  0  0
  9  7  1  0  0  0  0
 10  2  2  0  0  0  0
 11  8  1  0  0  0  0
 12 11  2  0  0  0  0
 12  9  1  0  0  0  0
 13 16  1  0  0  0  0
 13 14  1  0  0  0  0
 15 13  1  0  0  0  0
 17  5  1  0  0  0  0
 17  6  1  0  0  0  0
 18  5  1  0  0  0  0
 18 20  1  0  0  0  0
 19 18  1  0  0  0  0
 21 18  1  0  0  0  0
 22 23  1  0  0  0  0
 22 24  1  0  0  0  0
 25 22  1  0  0  0  0
 26 27  1  0  0  0  0
 26 25  2  0  0  0  0
 28 26  1  0  0  0  0
 29 28  1  0  0  0  0
 30 28  2  0  0  0  0
 30 32  1  0  0  0  0
 31 30  1  0  0  0  0
 32 33  2  0  0  0  0
 33 25  1  0  0  0  0
 33 34  1  0  0  0  0
 35 32  1  0  0  0  0
 35  4  1  0  0  0  0
 36  4  1  0  0  0  0
 36 38  1  0  0  0  0
 37 36  1  0  0  0  0
 39 36  1  0  0  0  0
 40  6  1  0  0  0  0
 40 41  1  0  0  0  0
 42 40  1  0  0  0  0
 43 40  1  0  0  0  0
M  END
