5
q = 0.0, confidence = 0.978

 14 14  0  0  0  0  0  0  0  0999 V2000
    3.4827    0.5365    0.0000 Cl  0  0  0  0  0  0  0  0  0  0  0  0
    1.9930   -0.4658    0.0000 B   0  0  0  0  0  0  0  0  0  0  0  0
    1.3500   -0.7971   -1.3550 C   0  0  0  0  0  0  0  0  0  0  0  0
    0.2064   -1.5675   -1.6284 C   0  0  0  0  0  0  0  0  0  0  0  0
   -0.6905   -2.2197   -0.7082 C   0  0  0  0  0  3  0  0  0  0  0  0
    1.7920   -0.3147   -2.2427 H   0  0  0  0  0  0  0  0  0  0  0  0
   -0.1205   -1.6294   -2.6804 H   0  0  0  0  0  0  0  0  0  0  0  0
   -1.5577   -2.7145   -1.1723 H   0  0  0  0  0  0  0  0  0  0  0  0
    1.3500   -0.7971    1.3550 C   0  0  0  0  0  0  0  0  0  0  0  0
    0.2064   -1.5675    1.6284 C   0  0  0  0  0  0  0  0  0  0  0  0
   -0.6905   -2.2197    0.7082 C   0  0  0  0  0  0  0  0  0  0  0  0
    1.7920   -0.3147    2.2427 H   0  0  0  0  0  0  0  0  0  0  0  0
   -0.1205   -1.6294    2.6804 H   0  0  0  0  0  0  0  0  0  0  0  0
   -1.5577   -2.7145    1.1723 H   0  0  0  0  0  0  0  0  0  0  0  0
  2  1  1  0  0  0  0
  2  9  2  0  0  0  0
  3  2  1  0  0  0  0
  4  3  2  0  0  0  0
  4  5  1  0  0  0  0
  5 11  1  0  0  0  0
  6  3  1  0  0  0  0
  7  4  1  0  0  0  0
  8  5  1  0  0  0  0
  9 10  1  0  0  0  0
  9 12  1  0  0  0  0
 10 13  1  0  0  0  0
 11 14  1  0  0  0  0
 11 10  2  0  0  0  0
M  END
