2
q = -1.0, confidence = 0.0

 10 10  0  0  1  0  0  0  0  0999 V2000
    3.9766    0.7492    0.2744 I   0  0  0  0  0  0  0  0  0  0  0  0
    2.6028   -0.8513    0.2674 C   0  0  2  0  0  3  0  0  0  0  0  0
    1.5735   -1.0568    1.2544 C   0  0  0  0  0  0  0  0  0  0  0  0
    1.3939   -0.4513    2.1491 H   0  0  0  0  0  0  0  0  0  0  0  0
    0.9617   -2.3357    0.9327 C   0  0  0  0  0  0  0  0  0  0  0  0
    0.1431   -2.8067    1.4878 H   0  0  0  0  0  0  0  0  0  0  0  0
    1.6087   -2.8667   -0.2248 C   0  0  0  0  0  0  0  0  0  0  0  0
    1.3381   -3.7986   -0.7355 H   0  0  0  0  0  0  0  0  0  0  0  0
    2.6340   -1.9685   -0.6483 C   0  0  0  0  0  0  0  0  0  0  0  0
    3.3134   -2.0939   -1.4984 H   0  0  0  0  0  0  0  0  0  0  0  0
  2  1  1  1  0  0  0
  2  3  1  0  0  0  0
  3  4  1  0  0  0  0
  5  3  2  0  0  0  0
  5  6  1  0  0  0  0
  7  5  1  0  0  0  0
  8  7  1  0  0  0  0
  9  7  2  0  0  0  0
  9  2  1  0  0  0  0
 10  9  1  0  0  0  0
M  END
