9
q = -1.0

 40 42  0  0  1  0  0  0  0  0999 V2000
    0.7358   -1.9821    1.9159 O   0  0  0  0  0  0  0  0  0  0  0  0
   -2.7961   -0.9080   -0.9484 O   0  0  0  0  0  0  0  0  0  0  0  0
    1.1032    2.7232    0.6095 O   0  0  0  0  0  0  0  0  0  0  0  0
    0.8048    1.4177    0.3859 C   0  0  2  0  0  3  0  0  0  0  0  0
    0.6138   -0.9488    1.0461 C   0  0  2  0  0  3  0  0  0  0  0  0
   -0.4707   -0.1580   -1.0724 C   0  0  2  0  0  0  0  0  0  0  0  0
   -0.4843   -0.4707   -2.1384 H   0  0  0  0  0  0  0  0  0  0  0  0
    0.2528   -1.2627   -0.2946 C   0  0  2  0  0  3  0  0  0  0  0  0
    0.9342    0.4064    1.3970 C   0  0  0  0  0  3  0  0  0  0  0  0
    1.2311    0.6673    2.4170 H   0  0  0  0  0  0  0  0  0  0  0  0
    0.4395    1.0529   -0.9421 C   0  0  1  0  0  3  0  0  0  0  0  0
   -1.8873    0.0883   -0.6453 C   0  0  0  0  0  0  0  0  0  0  0  0
   -2.4865    1.1171    0.0426 C   0  0  0  0  0  0  0  0  0  0  0  0
   -1.9865    2.0250    0.3960 H   0  0  0  0  0  0  0  0  0  0  0  0
   -4.0061   -0.5093   -0.4411 C   0  0  0  0  0  0  0  0  0  0  0  0
    0.0556   -2.6924   -0.7118 C   0  0  0  0  0  0  0  0  0  0  0  0
    0.2545   -2.8094   -1.7958 H   0  0  0  0  0  0  0  0  0  0  0  0
   -0.9955   -3.0070   -0.5331 H   0  0  0  0  0  0  0  0  0  0  0  0
    0.7215   -3.3740   -0.1514 H   0  0  0  0  0  0  0  0  0  0  0  0
   -3.8776    0.7575    0.1885 C   0  0  0  0  0  0  0  0  0  0  0  0
   -5.2068   -1.2180   -0.5176 C   0  0  0  0  0  0  0  0  0  0  0  0
   -5.2610   -2.1964   -1.0152 H   0  0  0  0  0  0  0  0  0  0  0  0
    0.4549    2.0814   -2.0389 C   0  0  0  0  0  0  0  0  0  0  0  0
    1.2495    2.8328   -1.8774 H   0  0  0  0  0  0  0  0  0  0  0  0
   -0.5179    2.6180   -2.0919 H   0  0  0  0  0  0  0  0  0  0  0  0
    0.6192    1.5964   -3.0216 H   0  0  0  0  0  0  0  0  0  0  0  0
    1.7869    3.0842    1.8025 C   0  0  0  0  0  0  0  0  0  0  0  0
    1.1578    2.9127    2.7032 H   0  0  0  0  0  0  0  0  0  0  0  0
    2.0028    4.1648    1.7189 H   0  0  0  0  0  0  0  0  0  0  0  0
    2.7439    2.5304    1.9064 H   0  0  0  0  0  0  0  0  0  0  0  0
   -6.3287   -0.6136    0.0707 C   0  0  0  0  0  0  0  0  0  0  0  0
   -7.2989   -1.1314    0.0364 H   0  0  0  0  0  0  0  0  0  0  0  0
    1.3960   -1.7709    3.1563 C   0  0  0  0  0  0  0  0  0  0  0  0
    0.8252   -1.0768    3.8111 H   0  0  0  0  0  0  0  0  0  0  0  0
    2.4258   -1.3814    3.0088 H   0  0  0  0  0  0  0  0  0  0  0  0
    1.4518   -2.7592    3.6477 H   0  0  0  0  0  0  0  0  0  0  0  0
   -5.0215    1.3432    0.7713 C   0  0  0  0  0  0  0  0  0  0  0  0
   -4.9603    2.3238    1.2667 H   0  0  0  0  0  0  0  0  0  0  0  0
   -6.2354    0.6474    0.7048 C   0  0  0  0  0  0  0  0  0  0  0  0
   -7.1379    1.0887    1.1540 H   0  0  0  0  0  0  0  0  0  0  0  0
  1 33  1  0  0  0  0
  2 12  1  0  0  0  0
  2 15  1  0  0  0  0
  3 27  1  0  0  0  0
  4  3  1  6  0  0  0
  4  9  1  0  0  0  0
  5  9  1  0  0  0  0
  5  1  1  6  0  0  0
  6  7  1  6  0  0  0
  6 11  1  0  0  0  0
  6 12  1  0  0  0  0
  6  8  1  0  0  0  0
  8 16  1  1  0  0  0
  8  5  1  0  0  0  0
  9 10  1  0  0  0  0
 11 23  1  1  0  0  0
 11  4  1  0  0  0  0
 12 13  2  0  0  0  0
 13 20  1  0  0  0  0
 13 14  1  0  0  0  0
 15 20  1  0  0  0  0
 16 18  1  0  0  0  0
 16 19  1  0  0  0  0
 17 16  1  0  0  0  0
 20 37  2  0  0  0  0
 21 15  2  0  0  0  0
 21 31  1  0  0  0  0
 22 21  1  0  0  0  0
 23 24  1  0  0  0  0
 25 23  1  0  0  0  0
 26 23  1  0  0  0  0
 27 30  1  0  0  0  0
 27 28  1  0  0  0  0
 29 27  1  0  0  0  0
 31 39  2  0  0  0  0
 32 31  1  0  0  0  0
 33 36  1  0  0  0  0
 33 34  1  0  0  0  0
 35 33  1  0  0  0  0
 37 38  1  0  0  0  0
 39 37  1  0  0  0  0
 39 40  1  0  0  0  0
M  END
