3
q = -1.0

 31 31  0  0  1  0  0  0  0  0999 V2000
   -2.7260   -1.0176   -0.6219 C   0  0  1  0  0  0  0  0  0  0  0  0
   -2.5344    0.2560    0.2073 C   0  0  1  0  0  3  0  0  0  0  0  0
   -1.9192    1.3603   -0.4651 C   0  0  1  0  0  3  0  0  0  0  0  0
   -0.9761    1.0786   -1.5264 C   0  0  0  0  0  0  0  0  0  0  0  0
   -0.6141   -0.3006   -1.7756 C   0  0  0  0  0  0  0  0  0  0  0  0
   -1.2850   -1.3273   -1.0420 C   0  0  2  0  0  3  0  0  0  0  0  0
   -3.4315   -2.1567    0.1143 C   0  0  0  0  0  0  0  0  0  0  0  0
   -3.3927    0.4727    1.4284 C   0  0  0  0  0  0  0  0  0  0  0  0
   -2.2362    2.7936   -0.1038 C   0  0  0  0  0  0  0  0  0  0  0  0
   -0.3858    2.1716   -2.3807 C   0  0  0  0  0  0  0  0  0  0  0  0
    0.3998   -0.6089   -2.8542 C   0  0  0  0  0  0  0  0  0  0  0  0
   -0.8353   -2.7632   -1.1418 C   0  0  0  0  0  0  0  0  0  0  0  0
   -3.3431   -0.7917   -1.5296 H   0  0  0  0  0  0  0  0  0  0  0  0
   -3.5188   -3.0476   -0.5378 H   0  0  0  0  0  0  0  0  0  0  0  0
   -2.8945   -2.4595    1.0345 H   0  0  0  0  0  0  0  0  0  0  0  0
   -4.4597   -1.8605    0.4004 H   0  0  0  0  0  0  0  0  0  0  0  0
   -3.4210   -0.4337    2.0616 H   0  0  0  0  0  0  0  0  0  0  0  0
   -3.0119    1.2931    2.0646 H   0  0  0  0  0  0  0  0  0  0  0  0
   -4.4453    0.7108    1.1515 H   0  0  0  0  0  0  0  0  0  0  0  0
   -2.7207    2.8708    0.8843 H   0  0  0  0  0  0  0  0  0  0  0  0
   -1.3416    3.4433   -0.0830 H   0  0  0  0  0  0  0  0  0  0  0  0
   -2.9421    3.2143   -0.8517 H   0  0  0  0  0  0  0  0  0  0  0  0
   -0.5031    3.1707   -1.9261 H   0  0  0  0  0  0  0  0  0  0  0  0
    0.6913    2.0099   -2.5693 H   0  0  0  0  0  0  0  0  0  0  0  0
   -0.8876    2.1998   -3.3730 H   0  0  0  0  0  0  0  0  0  0  0  0
    0.7115   -1.6659   -2.8353 H   0  0  0  0  0  0  0  0  0  0  0  0
   -0.0678   -0.4096   -3.8427 H   0  0  0  0  0  0  0  0  0  0  0  0
    1.3099    0.0150   -2.7825 H   0  0  0  0  0  0  0  0  0  0  0  0
   -1.1373   -3.3379   -0.2459 H   0  0  0  0  0  0  0  0  0  0  0  0
   -1.2909   -3.2700   -2.0231 H   0  0  0  0  0  0  0  0  0  0  0  0
    0.2647   -2.8369   -1.2162 H   0  0  0  0  0  0  0  0  0  0  0  0
  1 13  1  6  0  0  0
  1  7  1  0  0  0  0
  1  2  1  0  0  0  0
  2  8  1  6  0  0  0
  3  9  1  6  0  0  0
  3  2  1  0  0  0  0
  4  3  1  0  0  0  0
  5  4  2  0  0  0  0
  5  6  1  0  0  0  0
  6 12  1  6  0  0  0
  6  1  1  0  0  0  0
  7 16  1  0  0  0  0
  7 15  1  0  0  0  0
  8 17  1  0  0  0  0
  8 18  1  0  0  0  0
  9 21  1  0  0  0  0
  9 20  1  0  0  0  0
 10 23  1  0  0  0  0
 10  4  1  0  0  0  0
 11 26  1  0  0  0  0
 11 28  1  0  0  0  0
 11  5  1  0  0  0  0
 12 29  1  0  0  0  0
 14  7  1  0  0  0  0
 19  8  1  0  0  0  0
 22  9  1  0  0  0  0
 24 10  1  0  0  0  0
 25 10  1  0  0  0  0
 27 11  1  0  0  0  0
 30 12  1  0  0  0  0
 31 12  1  0  0  0  0
M  END
