1
q = -1.0

 27 28  0  0  0  0  0  0  0  0999 V2000
   -0.5050   -0.0358    0.0811 C   0  0  0  0  0  3  0  0  0  0  0  0
   -0.5528    1.0228    0.4002 H   0  0  0  0  0  0  0  0  0  0  0  0
   -1.3740   -0.2016   -1.1762 C   0  0  0  0  0  0  0  0  0  0  0  0
   -0.9584    0.4385   -1.9806 H   0  0  0  0  0  0  0  0  0  0  0  0
   -1.3362   -1.2405   -1.5498 H   0  0  0  0  0  0  0  0  0  0  0  0
   -0.8449   -0.8610    1.2806 C   0  0  0  0  0  0  0  0  0  0  0  0
   -0.5964   -0.3241    2.5679 C   0  0  0  0  0  0  0  0  0  0  0  0
   -0.1635    0.6870    2.6460 H   0  0  0  0  0  0  0  0  0  0  0  0
   -0.8872   -1.0464    3.7316 C   0  0  0  0  0  0  0  0  0  0  0  0
   -0.6817   -0.6023    4.7180 H   0  0  0  0  0  0  0  0  0  0  0  0
   -1.4479   -2.3309    3.6388 C   0  0  0  0  0  0  0  0  0  0  0  0
   -1.6828   -2.9025    4.5496 H   0  0  0  0  0  0  0  0  0  0  0  0
   -1.7086   -2.8765    2.3711 C   0  0  0  0  0  0  0  0  0  0  0  0
   -2.1490   -3.8819    2.2855 H   0  0  0  0  0  0  0  0  0  0  0  0
   -1.4089   -2.1561    1.2075 C   0  0  0  0  0  0  0  0  0  0  0  0
   -1.6011   -2.6112    0.2277 H   0  0  0  0  0  0  0  0  0  0  0  0
   -2.8094    0.2045   -0.9207 C   0  0  0  0  0  0  0  0  0  0  0  0
   -3.1503    1.5471   -0.6834 C   0  0  0  0  0  0  0  0  0  0  0  0
   -4.4577    1.9543   -0.3808 C   0  0  0  0  0  0  0  0  0  0  0  0
   -5.4774    0.9893   -0.3162 C   0  0  0  0  0  0  0  0  0  0  0  0
   -5.1760   -0.3608   -0.5581 C   0  0  0  0  0  0  0  0  0  0  0  0
   -3.8542   -0.7333   -0.8574 C   0  0  0  0  0  0  0  0  0  0  0  0
   -2.1950    2.5017   -0.7472 F   0  0  0  0  0  0  0  0  0  0  0  0
   -4.7412    3.2437   -0.1611 F   0  0  0  0  0  0  0  0  0  0  0  0
   -6.7297    1.3573   -0.0313 F   0  0  0  0  0  0  0  0  0  0  0  0
   -6.1474   -1.2777   -0.5071 F   0  0  0  0  0  0  0  0  0  0  0  0
   -3.6129   -2.0308   -1.1021 F   0  0  0  0  0  0  0  0  0  0  0  0
  1  2  1  0  0  0  0
  1  6  1  0  0  0  0
  3 17  1  0  0  0  0
  3  1  1  0  0  0  0
  4  3  1  0  0  0  0
  5  3  1  0  0  0  0
  6  7  1  0  0  0  0
  7  8  1  0  0  0  0
  7  9  2  0  0  0  0
  9 10  1  0  0  0  0
 11  9  1  0  0  0  0
 11 12  1  0  0  0  0
 13 11  2  0  0  0  0
 14 13  1  0  0  0  0
 15  6  2  0  0  0  0
 15 13  1  0  0  0  0
 16 15  1  0  0  0  0
 17 22  2  0  0  0  0
 17 18  1  0  0  0  0
 18 19  2  0  0  0  0
 19 20  1  0  0  0  0
 19 24  1  0  0  0  0
 20 25  1  0  0  0  0
 21 26  1  0  0  0  0
 21 20  2  0  0  0  0
 22 21  1  0  0  0  0
 23 18  1  0  0  0  0
 27 22  1  0  0  0  0
M  END
