4
q = -1.0, confidence = 0.0

 39 41  0  0  0  0  0  0  0  0999 V2000
   -2.4864   -1.3203    0.4177 C   0  0  0  0  0  0  0  0  0  0  0  0
   -2.2740   -1.1473    1.8110 C   0  0  0  0  0  0  0  0  0  0  0  0
   -2.2851   -0.1874    2.3366 H   0  0  0  0  0  0  0  0  0  0  0  0
   -2.0326   -2.4351    2.3948 C   0  0  0  0  0  3  0  0  0  0  0  0
   -1.8327   -2.6383    3.4534 H   0  0  0  0  0  0  0  0  0  0  0  0
   -2.1239   -3.4031    1.3604 C   0  0  0  0  0  0  0  0  0  0  0  0
   -1.9250   -4.4756    1.4647 H   0  0  0  0  0  0  0  0  0  0  0  0
   -2.3753   -2.7214    0.1429 C   0  0  0  0  0  0  0  0  0  0  0  0
   -2.4232   -3.1744   -0.8546 H   0  0  0  0  0  0  0  0  0  0  0  0
   -2.7885   -0.2594   -0.6170 C   0  0  0  0  0  0  0  0  0  0  0  0
   -2.3129   -0.6066   -1.5571 H   0  0  0  0  0  0  0  0  0  0  0  0
   -2.1583    1.0879   -0.2771 C   0  0  0  0  0  0  0  0  0  0  0  0
   -1.0217    1.5398   -0.9750 C   0  0  0  0  0  0  0  0  0  0  0  0
   -0.6175    0.9232   -1.7912 H   0  0  0  0  0  0  0  0  0  0  0  0
   -0.3874    2.7378   -0.6232 C   0  0  0  0  0  0  0  0  0  0  0  0
    0.5107    3.0584   -1.1726 H   0  0  0  0  0  0  0  0  0  0  0  0
   -0.8573    3.5248    0.4485 C   0  0  0  0  0  0  0  0  0  0  0  0
   -2.0160    3.0878    1.1220 C   0  0  0  0  0  0  0  0  0  0  0  0
   -2.4219    3.6961    1.9462 H   0  0  0  0  0  0  0  0  0  0  0  0
   -2.6651    1.8979    0.7571 C   0  0  0  0  0  0  0  0  0  0  0  0
   -3.5860    1.5962    1.2805 H   0  0  0  0  0  0  0  0  0  0  0  0
   -0.1308    4.7848    0.8463 C   0  0  0  0  0  0  0  0  0  0  0  0
   -0.1109    5.5190    0.0136 H   0  0  0  0  0  0  0  0  0  0  0  0
    0.9269    4.5636    1.1013 H   0  0  0  0  0  0  0  0  0  0  0  0
   -0.6043    5.2742    1.7194 H   0  0  0  0  0  0  0  0  0  0  0  0
   -4.2888   -0.1194   -0.8824 C   0  0  0  0  0  0  0  0  0  0  0  0
   -4.7160    0.5726   -2.0351 C   0  0  0  0  0  0  0  0  0  0  0  0
   -3.9622    0.9823   -2.7264 H   0  0  0  0  0  0  0  0  0  0  0  0
   -6.0757    0.7539   -2.3039 C   0  0  0  0  0  0  0  0  0  0  0  0
   -6.3809    1.2970   -3.2130 H   0  0  0  0  0  0  0  0  0  0  0  0
   -7.0667    0.2530   -1.4307 C   0  0  0  0  0  0  0  0  0  0  0  0
   -6.6359   -0.4360   -0.2831 C   0  0  0  0  0  0  0  0  0  0  0  0
   -7.3855   -0.8407    0.4157 H   0  0  0  0  0  0  0  0  0  0  0  0
   -5.2699   -0.6223   -0.0117 C   0  0  0  0  0  0  0  0  0  0  0  0
   -4.9656   -1.1736    0.8907 H   0  0  0  0  0  0  0  0  0  0  0  0
   -8.5311    0.4512   -1.7320 C   0  0  0  0  0  0  0  0  0  0  0  0
   -8.7804    1.5278   -1.8378 H   0  0  0  0  0  0  0  0  0  0  0  0
   -9.1731    0.0314   -0.9336 H   0  0  0  0  0  0  0  0  0  0  0  0
   -8.8168   -0.0376   -2.6872 H   0  0  0  0  0  0  0  0  0  0  0  0
  1  2  2  0  0  0  0
  2  3  1  0  0  0  0
  2  4  1  0  0  0  0
  4  5  1  0  0  0  0
  6  7  1  0  0  0  0
  6  4  1  0  0  0  0
  8  1  1  0  0  0  0
  8  6  2  0  0  0  0
  9  8  1  0  0  0  0
 10 12  1  0  0  0  0
 10  1  1  0  0  0  0
 11 10  1  0  0  0  0
 12 20  1  0  0  0  0
 13 15  1  0  0  0  0
 13 12  2  0  0  0  0
 14 13  1  0  0  0  0
 15 17  2  0  0  0  0
 16 15  1  0  0  0  0
 17 22  1  0  0  0  0
 17 18  1  0  0  0  0
 18 19  1  0  0  0  0
 20 18  2  0  0  0  0
 20 21  1  0  0  0  0
 22 24  1  0  0  0  0
 22 25  1  0  0  0  0
 23 22  1  0  0  0  0
 26 10  1  0  0  0  0
 26 34  1  0  0  0  0
 27 26  2  0  0  0  0
 28 27  1  0  0  0  0
 29 27  1  0  0  0  0
 29 31  2  0  0  0  0
 30 29  1  0  0  0  0
 31 32  1  0  0  0  0
 32 34  2  0  0  0  0
 32 33  1  0  0  0  0
 34 35  1  0  0  0  0
 36 31  1  0  0  0  0
 36 38  1  0  0  0  0
 37 36  1  0  0  0  0
 39 36  1  0  0  0  0
M  END
