3
q = -1.0, confidence = 0.004

 38 40  0  0  1  0  0  0  0  0999 V2000
    1.3888   -1.0596    1.6607 C   0  0  1  0  0  0  0  0  0  0  0  0
   -0.0110   -0.4472    1.7917 C   0  0  0  0  0  3  0  0  0  0  0  0
   -0.0930    0.6916    0.9280 C   0  0  0  0  0  3  0  0  0  0  0  0
    0.7669    0.4189   -0.1903 C   0  0  1  0  0  3  0  0  0  0  0  0
    1.2770    1.5190   -1.0801 C   0  0  0  0  0  0  0  0  0  0  0  0
    2.5798    1.9893   -0.3362 C   0  0  0  0  0  0  0  0  0  0  0  0
    3.0350    0.7398    0.5419 C   0  0  1  0  0  0  0  0  0  0  0  0
    1.9560   -0.3953    0.3411 C   0  0  1  0  0  0  0  0  0  0  0  0
    2.6992   -1.4394   -0.5466 C   0  0  2  0  0  0  0  0  0  0  0  0
    4.1039   -1.4321    0.0883 C   0  0  0  0  0  0  0  0  0  0  0  0
    4.4098    0.0688    0.2815 C   0  0  0  0  0  0  0  0  0  0  0  0
    2.1723   -0.8325    2.9622 C   0  0  0  0  0  0  0  0  0  0  0  0
    2.2274    3.1462    0.6182 C   0  0  0  0  0  0  0  0  0  0  0  0
    3.6242    2.4976   -1.3374 C   0  0  0  0  0  0  0  0  0  0  0  0
    2.8101   -1.1347   -2.0467 C   0  0  0  0  0  0  0  0  0  0  0  0
    1.3326   -2.1568    1.5013 H   0  0  0  0  0  0  0  0  0  0  0  0
   -0.5384   -0.4789    2.7582 H   0  0  0  0  0  0  0  0  0  0  0  0
   -0.6811    1.6082    1.0932 H   0  0  0  0  0  0  0  0  0  0  0  0
    0.5489    2.3465   -1.1958 H   0  0  0  0  0  0  0  0  0  0  0  0
    1.5253    1.1489   -2.0924 H   0  0  0  0  0  0  0  0  0  0  0  0
    3.0032    1.0818    1.5921 H   0  0  0  0  0  0  0  0  0  0  0  0
    2.2093   -2.4282   -0.4365 H   0  0  0  0  0  0  0  0  0  0  0  0
    4.0836   -1.9549    1.0667 H   0  0  0  0  0  0  0  0  0  0  0  0
    4.8582   -1.9525   -0.5372 H   0  0  0  0  0  0  0  0  0  0  0  0
    4.8966    0.4767   -0.6249 H   0  0  0  0  0  0  0  0  0  0  0  0
    5.1188    0.2457    1.1151 H   0  0  0  0  0  0  0  0  0  0  0  0
    2.1687    0.2333    3.2693 H   0  0  0  0  0  0  0  0  0  0  0  0
    1.7125   -1.4134    3.7876 H   0  0  0  0  0  0  0  0  0  0  0  0
    3.2280   -1.1573    2.8747 H   0  0  0  0  0  0  0  0  0  0  0  0
    3.1172    3.4556    1.2053 H   0  0  0  0  0  0  0  0  0  0  0  0
    1.8632    4.0337    0.0595 H   0  0  0  0  0  0  0  0  0  0  0  0
    1.4391    2.8505    1.3394 H   0  0  0  0  0  0  0  0  0  0  0  0
    3.9087    1.7278   -2.0820 H   0  0  0  0  0  0  0  0  0  0  0  0
    3.2173    3.3624   -1.9014 H   0  0  0  0  0  0  0  0  0  0  0  0
    4.5493    2.8378   -0.8282 H   0  0  0  0  0  0  0  0  0  0  0  0
    3.2891   -1.9938   -2.5587 H   0  0  0  0  0  0  0  0  0  0  0  0
    1.8300   -0.9763   -2.5278 H   0  0  0  0  0  0  0  0  0  0  0  0
    3.4385   -0.2456   -2.2495 H   0  0  0  0  0  0  0  0  0  0  0  0
  1 16  1  6  0  0  0
  1  2  1  0  0  0  0
  1 12  1  0  0  0  0
  2 17  1  0  0  0  0
  3 18  1  0  0  0  0
  3  2  1  0  0  0  0
  4  8  1  0  0  0  0
  4  3  1  1  0  0  0
  5  6  1  0  0  0  0
  5  4  1  0  0  0  0
  6  7  1  0  0  0  0
  6 13  1  0  0  0  0
  7 21  1  1  0  0  0
  8  7  1  0  0  0  0
  8  1  1  0  0  0  0
  9 22  1  0  0  0  0
  9 10  1  0  0  0  0
  9  8  1  0  0  0  0
 10 11  1  0  0  0  0
 10 23  1  0  0  0  0
 11  7  1  0  0  0  0
 11 26  1  0  0  0  0
 12 27  1  0  0  0  0
 12 28  1  0  0  0  0
 13 30  1  0  0  0  0
 13 32  1  0  0  0  0
 14 35  1  0  0  0  0
 14  6  1  0  0  0  0
 15  9  1  0  0  0  0
 19  5  1  0  0  0  0
 20  5  1  0  0  0  0
 24 10  1  0  0  0  0
 25 11  1  0  0  0  0
 29 12  1  0  0  0  0
 31 13  1  0  0  0  0
 33 14  1  0  0  0  0
 34 14  1  0  0  0  0
 36 15  1  0  0  0  0
 37 15  1  0  0  0  0
 38 15  1  0  0  0  0
M  END
