2
q = -1.0, confidence = 0.0

 19 20  0  0  1  0  0  0  0  0999 V2000
    1.5859   -0.8606   -1.0462 O   0  0  0  0  0  0  0  0  0  0  0  0
   -0.4887   -1.9852   -0.7186 C   0  0  0  0  0  3  0  0  0  0  0  0
   -1.2424   -2.1644   -1.5084 H   0  0  0  0  0  0  0  0  0  0  0  0
    0.9896   -2.2112   -1.1307 C   0  0  2  0  0  0  0  0  0  0  0  0
    1.1508   -2.5589   -2.1696 H   0  0  0  0  0  0  0  0  0  0  0  0
   -0.6490   -2.8507    0.5442 C   0  0  1  0  0  0  0  0  0  0  0  0
   -1.5125   -2.5840    1.1821 H   0  0  0  0  0  0  0  0  0  0  0  0
   -0.6499   -4.3259    0.0611 C   0  0  0  0  0  0  0  0  0  0  0  0
   -1.3788   -4.4974   -0.7552 H   0  0  0  0  0  0  0  0  0  0  0  0
   -0.9310   -4.9985    0.8954 H   0  0  0  0  0  0  0  0  0  0  0  0
    0.8291   -4.5510   -0.3836 C   0  0  0  0  0  0  0  0  0  0  0  0
    1.3130   -5.3548    0.2033 H   0  0  0  0  0  0  0  0  0  0  0  0
    0.9246   -4.8294   -1.4520 H   0  0  0  0  0  0  0  0  0  0  0  0
    1.5081   -3.1922   -0.0743 C   0  0  2  0  0  0  0  0  0  0  0  0
    2.6136   -3.2425   -0.0200 H   0  0  0  0  0  0  0  0  0  0  0  0
    0.7481   -2.7474    1.1959 C   0  0  0  0  0  0  0  0  0  0  0  0
    0.8854   -3.4474    2.0431 H   0  0  0  0  0  0  0  0  0  0  0  0
    1.0031   -1.7252    1.5456 H   0  0  0  0  0  0  0  0  0  0  0  0
    2.3219   -0.8175   -0.3884 H   0  0  0  0  0  0  0  0  0  0  0  0
  1 19  1  0  0  0  0
  2  6  1  0  0  0  0
  3  2  1  0  0  0  0
  4  5  1  6  0  0  0
  4  1  1  0  0  0  0
  4  2  1  0  0  0  0
  4 14  1  0  0  0  0
  6  7  1  1  0  0  0
  6 16  1  0  0  0  0
  8  6  1  0  0  0  0
  8 10  1  0  0  0  0
  9  8  1  0  0  0  0
 11 14  1  0  0  0  0
 11  8  1  0  0  0  0
 11 12  1  0  0  0  0
 13 11  1  0  0  0  0
 14 15  1  1  0  0  0
 14 16  1  0  0  0  0
 16 18  1  0  0  0  0
 16 17  1  0  0  0  0
M  END
