1
q = -1.0, confidence = 0.0

 19 19  0  0  0  0  0  0  0  0999 V2000
    0.0220    0.6029    1.6158 C   0  0  0  0  0  2  0  0  0  0  0  0
    0.0746   -0.1988    2.8478 C   0  0  0  0  0  0  0  0  0  0  0  0
    0.8647    0.0386    3.9267 C   0  0  0  0  0  0  0  0  0  0  0  0
    0.0317    1.9697    1.7503 C   0  0  0  0  0  3  0  0  0  0  0  0
    0.0591    2.9960    0.7089 C   0  0  0  0  0  0  0  0  0  0  0  0
    0.1012    4.3661    1.0740 C   0  0  0  0  0  0  0  0  0  0  0  0
    0.1396    5.3780    0.1063 C   0  0  0  0  0  0  0  0  0  0  0  0
    0.1336    5.0534   -1.2613 C   0  0  0  0  0  0  0  0  0  0  0  0
    0.0872    3.7012   -1.6447 C   0  0  0  0  0  0  0  0  0  0  0  0
    0.0490    2.6930   -0.6762 C   0  0  0  0  0  0  0  0  0  0  0  0
   -0.5432   -1.1139    2.8707 H   0  0  0  0  0  0  0  0  0  0  0  0
    0.8538   -0.6285    4.8032 H   0  0  0  0  0  0  0  0  0  0  0  0
    1.5495    0.9023    3.9587 H   0  0  0  0  0  0  0  0  0  0  0  0
   -0.0048    2.3799    2.7802 H   0  0  0  0  0  0  0  0  0  0  0  0
    0.1078    4.6296    2.1441 H   0  0  0  0  0  0  0  0  0  0  0  0
    0.1742    6.4327    0.4209 H   0  0  0  0  0  0  0  0  0  0  0  0
    0.1618    5.8482   -2.0222 H   0  0  0  0  0  0  0  0  0  0  0  0
    0.0786    3.4299   -2.7125 H   0  0  0  0  0  0  0  0  0  0  0  0
    0.0081    1.6195   -0.9654 H   0  0  0  0  0  0  0  0  0  0  0  0
  1  4  1  0  0  0  0
  1  2  1  0  0  0  0
  2 11  1  0  0  0  0
  2  3  2  0  0  0  0
  3 13  1  0  0  0  0
  3 12  1  0  0  0  0
  4 14  1  0  0  0  0
  5  6  1  0  0  0  0
  5  4  1  0  0  0  0
  6 15  1  0  0  0  0
  7 16  1  0  0  0  0
  7  6  2  0  0  0  0
  8  7  1  0  0  0  0
  9  8  2  0  0  0  0
  9 10  1  0  0  0  0
 10  5  2  0  0  0  0
 17  8  1  0  0  0  0
 18  9  1  0  0  0  0
 19 10  1  0  0  0  0
M  END
