3
q = 0.0, confidence = 0.99

 29 31  0  0  1  0  0  0  0  0999 V2000
    3.2966   -1.4873   -0.2652 N   0  0  2  0  0  0  0  0  0  0  0  0
    4.6012   -1.0562   -0.2072 N   0  0  0  0  0  0  0  0  0  0  0  0
    2.4436   -0.4302   -0.1596 C   0  0  0  0  0  2  0  0  0  0  0  0
    3.2547    0.7283   -0.0795 C   0  0  0  0  0  0  0  0  0  0  0  0
    2.8754    2.1772    0.0189 C   0  0  0  0  0  0  0  0  0  0  0  0
    2.5759    2.4105    1.0649 H   0  0  0  0  0  0  0  0  0  0  0  0
    1.9805    2.3855   -0.6022 H   0  0  0  0  0  0  0  0  0  0  0  0
    4.0618    3.0645   -0.3978 C   0  0  0  0  0  0  0  0  0  0  0  0
    4.1821    3.0235   -1.5030 H   0  0  0  0  0  0  0  0  0  0  0  0
    3.8474    4.1220   -0.1460 H   0  0  0  0  0  0  0  0  0  0  0  0
    5.3722    2.6208    0.2724 C   0  0  0  0  0  0  0  0  0  0  0  0
    5.2473    2.6516    1.3764 H   0  0  0  0  0  0  0  0  0  0  0  0
    6.1926    3.3239    0.0293 H   0  0  0  0  0  0  0  0  0  0  0  0
    5.7885    1.1950   -0.1456 C   0  0  0  0  0  0  0  0  0  0  0  0
    6.2158    1.2041   -1.1744 H   0  0  0  0  0  0  0  0  0  0  0  0
    6.5920    0.8069    0.5158 H   0  0  0  0  0  0  0  0  0  0  0  0
    4.5900    0.3032   -0.1218 C   0  0  0  0  0  0  0  0  0  0  0  0
    5.7224   -1.9200   -0.5906 C   0  0  0  0  0  0  0  0  0  0  0  0
    6.6184   -1.5420   -0.0616 H   0  0  0  0  0  0  0  0  0  0  0  0
    5.8997   -1.7998   -1.6827 H   0  0  0  0  0  0  0  0  0  0  0  0
    5.4344   -3.3807   -0.2549 C   0  0  0  0  0  0  0  0  0  0  0  0
    6.2343   -4.0069   -0.6953 H   0  0  0  0  0  0  0  0  0  0  0  0
    5.4723   -3.5316    0.8450 H   0  0  0  0  0  0  0  0  0  0  0  0
    4.0571   -3.7783   -0.7923 C   0  0  0  0  0  0  0  0  0  0  0  0
    3.8370   -4.8416   -0.5756 H   0  0  0  0  0  0  0  0  0  0  0  0
    4.0263   -3.6589   -1.8965 H   0  0  0  0  0  0  0  0  0  0  0  0
    2.9805   -2.9144   -0.1427 C   0  0  0  0  0  0  0  0  0  0  0  0
    1.9855   -3.0503   -0.6074 H   0  0  0  0  0  0  0  0  0  0  0  0
    2.8849   -3.1594    0.9380 H   0  0  0  0  0  0  0  0  0  0  0  0
  1  2  1  0  0  0  0
  1  3  1  1  0  0  0
  1 27  1  0  0  0  0
  2 17  1  0  0  0  0
  3  4  1  0  0  0  0
  4  5  1  0  0  0  0
  5  6  1  0  0  0  0
  7  5  1  0  0  0  0
  8 10  1  0  0  0  0
  8  5  1  0  0  0  0
  8 11  1  0  0  0  0
  9  8  1  0  0  0  0
 11 12  1  0  0  0  0
 13 11  1  0  0  0  0
 14 17  1  0  0  0  0
 14 11  1  0  0  0  0
 14 16  1  0  0  0  0
 15 14  1  0  0  0  0
 17  4  2  0  0  0  0
 18 21  1  0  0  0  0
 18  2  1  0  0  0  0
 18 19  1  0  0  0  0
 20 18  1  0  0  0  0
 21 23  1  0  0  0  0
 22 21  1  0  0  0  0
 24 25  1  0  0  0  0
 24 21  1  0  0  0  0
 24 27  1  0  0  0  0
 26 24  1  0  0  0  0
 27 29  1  0  0  0  0
 28 27  1  0  0  0  0
M  END
