4
q = 0, confidence = 1.0

 16 15  0  0  0  0  0  0  0  0999 V2000
   -1.0436   -2.2687    0.0616 S   0  0  0  0  0  1  0  0  0  0  0  0
   -3.1945   -0.1691   -0.2303 P   0  0  0  0  0  4  0  0  0  0  0  0
   -0.7941   -0.0969   -2.1293 S   0  0  0  0  0  1  0  0  0  0  0  0
   -1.5668   -0.7616   -0.6858 C   0  0  0  0  0  3  0  0  0  0  0  0
   -3.4444    1.5702   -0.6945 C   0  0  0  0  0  0  0  0  0  0  0  0
   -3.5479   -0.4110    1.5356 C   0  0  0  0  0  0  0  0  0  0  0  0
   -4.4268   -1.1418   -1.1704 C   0  0  0  0  0  0  0  0  0  0  0  0
   -2.9424    1.7094   -1.6730 H   0  0  0  0  0  0  0  0  0  0  0  0
   -2.9682    2.2175    0.0651 H   0  0  0  0  0  0  0  0  0  0  0  0
   -4.5261    1.7922   -0.7717 H   0  0  0  0  0  0  0  0  0  0  0  0
   -3.1583    0.4532    2.1052 H   0  0  0  0  0  0  0  0  0  0  0  0
   -3.0093   -1.3322    1.8377 H   0  0  0  0  0  0  0  0  0  0  0  0
   -4.6373   -0.5261    1.6946 H   0  0  0  0  0  0  0  0  0  0  0  0
   -4.2987   -2.2083   -0.9012 H   0  0  0  0  0  0  0  0  0  0  0  0
   -4.2131   -1.0180   -2.2500 H   0  0  0  0  0  0  0  0  0  0  0  0
   -5.4617   -0.8161   -0.9492 H   0  0  0  0  0  0  0  0  0  0  0  0
  2  6  1  0  0  0  0
  3  4  1  0  0  0  0
  4  2  1  0  0  0  0
  4  1  1  0  0  0  0
  5  2  1  0  0  0  0
  5  9  1  0  0  0  0
  6 13  1  0  0  0  0
  6 12  1  0  0  0  0
  6 11  1  0  0  0  0
  7 16  1  0  0  0  0
  7 14  1  0  0  0  0
  7  2  1  0  0  0  0
  8  5  1  0  0  0  0
 10  5  1  0  0  0  0
 15  7  1  0  0  0  0
M  END
