6
q = -1.0

 44 45  0  0  0  0  0  0  0  0999 V2000
   -0.3425    2.3666    0.0267 O   0  0  0  0  0  0  0  0  0  0  0  0
   -3.0674    1.8217    0.7544 O   0  0  0  0  0  0  0  0  0  0  0  0
   -3.5007   -1.0053    1.9749 O   0  0  0  0  0  0  0  0  0  0  0  0
   -0.0115   -1.7945    1.6961 O   0  0  0  0  0  0  0  0  0  0  0  0
    2.3030   -2.1821   -0.0642 O   0  0  0  0  0  0  0  0  0  0  0  0
    2.1098    0.8078    0.0062 C   0  0  0  0  0  3  0  0  0  0  0  0
    3.3040    0.0622    0.1632 C   0  0  0  0  0  0  0  0  0  0  0  0
    4.4162    0.6457    0.7948 C   0  0  0  0  0  0  0  0  0  0  0  0
    4.3560    1.9659    1.2646 C   0  0  0  0  0  0  0  0  0  0  0  0
    3.1787    2.7017    1.1041 C   0  0  0  0  0  0  0  0  0  0  0  0
    2.0486    2.1376    0.4712 C   0  0  0  0  0  0  0  0  0  0  0  0
    0.8585    3.0589    0.2741 C   0  0  0  0  0  0  0  0  0  0  0  0
   -1.4340    3.2279   -0.2500 C   0  0  0  0  0  0  0  0  0  0  0  0
   -2.6950    2.4192   -0.4670 C   0  0  0  0  0  0  0  0  0  0  0  0
   -4.1946    0.9671    0.6581 C   0  0  0  0  0  0  0  0  0  0  0  0
   -4.3195    0.1434    1.9365 C   0  0  0  0  0  0  0  0  0  0  0  0
   -2.1102   -0.7526    2.0719 C   0  0  0  0  0  0  0  0  0  0  0  0
   -1.3966   -2.0716    1.8266 C   0  0  0  0  0  0  0  0  0  0  0  0
    0.7935   -2.9534    1.6237 C   0  0  0  0  0  0  0  0  0  0  0  0
    2.2155   -2.5413    1.3087 C   0  0  0  0  0  0  0  0  0  0  0  0
    3.4150   -1.3584   -0.3752 C   0  0  0  0  0  0  0  0  0  0  0  0
    5.3371    0.0539    0.9236 H   0  0  0  0  0  0  0  0  0  0  0  0
    5.2250    2.4160    1.7680 H   0  0  0  0  0  0  0  0  0  0  0  0
    3.1247    3.7373    1.4786 H   0  0  0  0  0  0  0  0  0  0  0  0
    0.7497    3.7120    1.1751 H   0  0  0  0  0  0  0  0  0  0  0  0
    1.0825    3.7483   -0.5816 H   0  0  0  0  0  0  0  0  0  0  0  0
   -1.2267    3.8407   -1.1617 H   0  0  0  0  0  0  0  0  0  0  0  0
   -1.5901    3.9328    0.6025 H   0  0  0  0  0  0  0  0  0  0  0  0
   -3.4930    3.1096   -0.8424 H   0  0  0  0  0  0  0  0  0  0  0  0
   -2.5235    1.6461   -1.2552 H   0  0  0  0  0  0  0  0  0  0  0  0
   -4.0926    0.2701   -0.2083 H   0  0  0  0  0  0  0  0  0  0  0  0
   -5.1274    1.5685    0.5040 H   0  0  0  0  0  0  0  0  0  0  0  0
   -4.1266    0.8170    2.8090 H   0  0  0  0  0  0  0  0  0  0  0  0
   -5.3619   -0.2280    2.0180 H   0  0  0  0  0  0  0  0  0  0  0  0
   -1.8434   -0.3369    3.0754 H   0  0  0  0  0  0  0  0  0  0  0  0
   -1.7706   -0.0080    1.3194 H   0  0  0  0  0  0  0  0  0  0  0  0
   -1.5807   -2.7835    2.6671 H   0  0  0  0  0  0  0  0  0  0  0  0
   -1.8021   -2.5271    0.8924 H   0  0  0  0  0  0  0  0  0  0  0  0
    0.4264   -3.6508    0.8321 H   0  0  0  0  0  0  0  0  0  0  0  0
    0.7746   -3.5067    2.5954 H   0  0  0  0  0  0  0  0  0  0  0  0
    2.4914   -1.6845    1.9661 H   0  0  0  0  0  0  0  0  0  0  0  0
    2.9132   -3.3850    1.5287 H   0  0  0  0  0  0  0  0  0  0  0  0
    3.4547   -1.3346   -1.4853 H   0  0  0  0  0  0  0  0  0  0  0  0
    4.3662   -1.8206   -0.0194 H   0  0  0  0  0  0  0  0  0  0  0  0
  1 12  1  0  0  0  0
  3 17  1  0  0  0  0
  4 18  1  0  0  0  0
  5 20  1  0  0  0  0
  6  7  2  0  0  0  0
  6 11  1  0  0  0  0
  7  8  1  0  0  0  0
  8 22  1  0  0  0  0
  8  9  2  0  0  0  0
  9 23  1  0  0  0  0
 10  9  1  0  0  0  0
 10 24  1  0  0  0  0
 11 10  2  0  0  0  0
 12 11  1  0  0  0  0
 12 25  1  0  0  0  0
 13  1  1  0  0  0  0
 13 28  1  0  0  0  0
 14 13  1  0  0  0  0
 14  2  1  0  0  0  0
 15  2  1  0  0  0  0
 15 16  1  0  0  0  0
 16  3  1  0  0  0  0
 16 34  1  0  0  0  0
 16 33  1  0  0  0  0
 17 35  1  0  0  0  0
 18 17  1  0  0  0  0
 18 37  1  0  0  0  0
 19  4  1  0  0  0  0
 19 40  1  0  0  0  0
 20 42  1  0  0  0  0
 20 19  1  0  0  0  0
 20 41  1  0  0  0  0
 21  5  1  0  0  0  0
 21 44  1  0  0  0  0
 21  7  1  0  0  0  0
 26 12  1  0  0  0  0
 27 13  1  0  0  0  0
 29 14  1  0  0  0  0
 30 14  1  0  0  0  0
 31 15  1  0  0  0  0
 32 15  1  0  0  0  0
 36 17  1  0  0  0  0
 38 18  1  0  0  0  0
 39 19  1  0  0  0  0
 43 21  1  0  0  0  0
M  END
