5
q = 0.0, confidence = 0.998

 42 43  0  0  1  0  0  0  0  0999 V2000
    3.6046    2.4253   -1.1913 O   0  0  0  0  0  0  0  0  0  0  0  0
    3.2990    3.0724    0.9547 O   0  0  0  0  0  0  0  0  0  0  0  0
    1.3302    0.7335   -0.3500 N   0  0  0  0  0  0  0  0  0  0  0  0
    0.8721    0.2568    1.7595 N   0  0  0  0  0  0  0  0  0  0  0  0
    0.3410    0.3663    0.5151 C   0  0  0  0  0  2  0  0  0  0  0  0
    2.6664    0.7926    0.2791 C   0  0  2  0  0  0  0  0  0  0  0  0
    2.3098    0.5658    1.7662 C   0  0  0  0  0  0  0  0  0  0  0  0
    2.5205    1.4835    2.3505 H   0  0  0  0  0  0  0  0  0  0  0  0
    2.8968   -0.2729    2.1872 H   0  0  0  0  0  0  0  0  0  0  0  0
    1.1580    0.8996   -1.7833 C   0  0  0  0  0  0  0  0  0  0  0  0
    0.2086    0.4044   -2.0692 H   0  0  0  0  0  0  0  0  0  0  0  0
    2.0037    0.4242   -2.3164 H   0  0  0  0  0  0  0  0  0  0  0  0
    1.1165    1.9692   -2.0763 H   0  0  0  0  0  0  0  0  0  0  0  0
    3.2346    2.2212    0.0883 C   0  0  0  0  0  0  0  0  0  0  0  0
    4.0856    3.7428   -1.4963 C   0  0  0  0  0  0  0  0  0  0  0  0
    3.3102    4.5034   -1.2760 H   0  0  0  0  0  0  0  0  0  0  0  0
    4.3301    3.7356   -2.5727 H   0  0  0  0  0  0  0  0  0  0  0  0
    4.9859    3.9776   -0.8942 H   0  0  0  0  0  0  0  0  0  0  0  0
    3.6037   -0.2976   -0.2461 C   0  0  0  0  0  0  0  0  0  0  0  0
    3.0663   -1.5354   -0.6487 C   0  0  0  0  0  0  0  0  0  0  0  0
    1.9739   -1.6902   -0.6664 H   0  0  0  0  0  0  0  0  0  0  0  0
    3.9177   -2.5821   -1.0327 C   0  0  0  0  0  0  0  0  0  0  0  0
    3.4806   -3.5410   -1.3502 H   0  0  0  0  0  0  0  0  0  0  0  0
    5.3102   -2.4085   -1.0117 C   0  0  0  0  0  0  0  0  0  0  0  0
    5.9764   -3.2305   -1.3146 H   0  0  0  0  0  0  0  0  0  0  0  0
    5.8499   -1.1790   -0.6016 C   0  0  0  0  0  0  0  0  0  0  0  0
    6.9407   -1.0334   -0.5801 H   0  0  0  0  0  0  0  0  0  0  0  0
    5.0009   -0.1291   -0.2217 C   0  0  0  0  0  0  0  0  0  0  0  0
    5.4378    0.8292    0.1002 H   0  0  0  0  0  0  0  0  0  0  0  0
    0.3180   -0.4637    2.9488 C   0  0  0  0  0  0  0  0  0  0  0  0
    0.6784   -1.9570    2.8193 C   0  0  0  0  0  0  0  0  0  0  0  0
    0.1816   -2.3969    1.9313 H   0  0  0  0  0  0  0  0  0  0  0  0
    0.3520   -2.5103    3.7224 H   0  0  0  0  0  0  0  0  0  0  0  0
    1.7728   -2.1027    2.7121 H   0  0  0  0  0  0  0  0  0  0  0  0
    0.9530    0.1359    4.2193 C   0  0  0  0  0  0  0  0  0  0  0  0
    0.4795   -0.3238    5.1081 H   0  0  0  0  0  0  0  0  0  0  0  0
    0.7848    1.2303    4.2696 H   0  0  0  0  0  0  0  0  0  0  0  0
    2.0406   -0.0587    4.2908 H   0  0  0  0  0  0  0  0  0  0  0  0
   -1.2010   -0.3013    3.0590 C   0  0  0  0  0  0  0  0  0  0  0  0
   -1.7129   -0.6035    2.1166 H   0  0  0  0  0  0  0  0  0  0  0  0
   -1.4797    0.7486    3.2725 H   0  0  0  0  0  0  0  0  0  0  0  0
   -1.5702   -0.9386    3.8859 H   0  0  0  0  0  0  0  0  0  0  0  0
  1 14  1  0  0  0  0
  3  6  1  0  0  0  0
  3  5  1  0  0  0  0
  4  7  1  0  0  0  0
  4 30  1  0  0  0  0
  5  4  1  0  0  0  0
  6 14  1  6  0  0  0
  6  7  1  0  0  0  0
  7  9  1  0  0  0  0
  7  8  1  0  0  0  0
 10  3  1  0  0  0  0
 11 10  1  0  0  0  0
 12 10  1  0  0  0  0
 13 10  1  0  0  0  0
 14  2  2  0  0  0  0
 15 16  1  0  0  0  0
 15  1  1  0  0  0  0
 15 18  1  0  0  0  0
 17 15  1  0  0  0  0
 19 28  1  0  0  0  0
 19  6  1  0  0  0  0
 20 19  2  0  0  0  0
 21 20  1  0  0  0  0
 22 24  2  0  0  0  0
 22 20  1  0  0  0  0
 23 22  1  0  0  0  0
 24 26  1  0  0  0  0
 25 24  1  0  0  0  0
 26 27  1  0  0  0  0
 26 28  2  0  0  0  0
 28 29  1  0  0  0  0
 30 39  1  0  0  0  0
 30 35  1  0  0  0  0
 31 30  1  0  0  0  0
 31 33  1  0  0  0  0
 32 31  1  0  0  0  0
 34 31  1  0  0  0  0
 35 37  1  0  0  0  0
 35 38  1  0  0  0  0
 35 36  1  0  0  0  0
 39 41  1  0  0  0  0
 39 42  1  0  0  0  0
 40 39  1  0  0  0  0
M  END
