7
q = 0.0, confidence = 0.996

 55 57  0  0  1  0  0  0  0  0999 V2000
    2.3817    0.1971   -0.6617 C   0  0  0  0  0  0  0  0  0  0  0  0
    2.5770    0.6024   -1.6941 H   0  0  0  0  0  0  0  0  0  0  0  0
    3.0461    0.7382    0.0451 H   0  0  0  0  0  0  0  0  0  0  0  0
    2.4841   -1.2386   -0.5541 N   0  0  0  0  0  0  0  0  0  0  0  0
    1.1518   -1.7907   -0.8402 C   0  0  2  0  0  0  0  0  0  0  0  0
    0.9802   -1.9223   -1.9480 H   0  0  0  0  0  0  0  0  0  0  0  0
    0.2211   -0.6678   -0.4269 C   0  0  0  0  0  2  0  0  0  0  0  0
    0.9662    0.4220   -0.3292 N   0  0  0  0  0  0  0  0  0  0  0  0
    0.8799   -3.1216   -0.1438 C   0  0  0  0  0  0  0  0  0  0  0  0
    1.5877   -3.9006   -0.4893 H   0  0  0  0  0  0  0  0  0  0  0  0
   -0.1485   -3.4640   -0.3682 H   0  0  0  0  0  0  0  0  0  0  0  0
    0.9843   -3.0081    0.9526 H   0  0  0  0  0  0  0  0  0  0  0  0
    3.6312   -1.8313   -1.2135 C   0  0  0  0  0  0  0  0  0  0  0  0
    3.6404   -1.6235   -2.3169 H   0  0  0  0  0  0  0  0  0  0  0  0
    3.5476   -2.9341   -1.1048 H   0  0  0  0  0  0  0  0  0  0  0  0
    4.9393   -1.3641   -0.6022 C   0  0  0  0  0  0  0  0  0  0  0  0
    5.0669   -1.2522    0.7973 C   0  0  0  0  0  0  0  0  0  0  0  0
    4.1968   -1.4907    1.4286 H   0  0  0  0  0  0  0  0  0  0  0  0
    6.2751   -0.8324    1.3710 C   0  0  0  0  0  0  0  0  0  0  0  0
    6.3604   -0.7471    2.4652 H   0  0  0  0  0  0  0  0  0  0  0  0
    7.3750   -0.5223    0.5536 C   0  0  0  0  0  0  0  0  0  0  0  0
    8.3233   -0.1919    1.0039 H   0  0  0  0  0  0  0  0  0  0  0  0
    7.2562   -0.6303   -0.8403 C   0  0  0  0  0  0  0  0  0  0  0  0
    8.1110   -0.3833   -1.4882 H   0  0  0  0  0  0  0  0  0  0  0  0
    6.0429   -1.0437   -1.4133 C   0  0  0  0  0  0  0  0  0  0  0  0
    5.9491   -1.1159   -2.5089 H   0  0  0  0  0  0  0  0  0  0  0  0
    0.5113    1.7315    0.0632 C   0  0  0  0  0  0  0  0  0  0  0  0
   -0.0416    2.5937   -0.9109 C   0  0  0  0  0  0  0  0  0  0  0  0
   -0.4501    3.8700   -0.4793 C   0  0  0  0  0  0  0  0  0  0  0  0
   -0.8928    4.5668   -1.2070 H   0  0  0  0  0  0  0  0  0  0  0  0
   -0.3107    4.2611    0.8573 C   0  0  0  0  0  0  0  0  0  0  0  0
   -0.6406    5.2627    1.1719 H   0  0  0  0  0  0  0  0  0  0  0  0
    0.2364    3.3799    1.7989 C   0  0  0  0  0  0  0  0  0  0  0  0
    0.3248    3.6920    2.8502 H   0  0  0  0  0  0  0  0  0  0  0  0
    0.6615    2.0930    1.4236 C   0  0  0  0  0  0  0  0  0  0  0  0
   -0.2198    2.1788   -2.3652 C   0  0  0  0  0  0  0  0  0  0  0  0
    0.1740    1.1475   -2.4740 H   0  0  0  0  0  0  0  0  0  0  0  0
    1.1890    1.1098    2.4617 C   0  0  0  0  0  0  0  0  0  0  0  0
    1.5986    0.2299    1.9246 H   0  0  0  0  0  0  0  0  0  0  0  0
    0.5884    3.0825   -3.3119 C   0  0  0  0  0  0  0  0  0  0  0  0
    0.4875    2.7361   -4.3606 H   0  0  0  0  0  0  0  0  0  0  0  0
    1.6665    3.0856   -3.0513 H   0  0  0  0  0  0  0  0  0  0  0  0
    0.2322    4.1324   -3.2729 H   0  0  0  0  0  0  0  0  0  0  0  0
   -1.7094    2.1331   -2.7469 C   0  0  0  0  0  0  0  0  0  0  0  0
   -1.8321    1.7769   -3.7899 H   0  0  0  0  0  0  0  0  0  0  0  0
   -2.1752    3.1375   -2.6765 H   0  0  0  0  0  0  0  0  0  0  0  0
   -2.2715    1.4492   -2.0788 H   0  0  0  0  0  0  0  0  0  0  0  0
    2.3300    1.6998    3.3046 C   0  0  0  0  0  0  0  0  0  0  0  0
    2.7266    0.9358    4.0038 H   0  0  0  0  0  0  0  0  0  0  0  0
    1.9888    2.5595    3.9171 H   0  0  0  0  0  0  0  0  0  0  0  0
    3.1682    2.0501    2.6684 H   0  0  0  0  0  0  0  0  0  0  0  0
    0.0304    0.5966    3.3371 C   0  0  0  0  0  0  0  0  0  0  0  0
    0.3925   -0.1633    4.0595 H   0  0  0  0  0  0  0  0  0  0  0  0
   -0.7654    0.1362    2.7164 H   0  0  0  0  0  0  0  0  0  0  0  0
   -0.4299    1.4249    3.9141 H   0  0  0  0  0  0  0  0  0  0  0  0
  1  4  1  0  0  0  0
  1  8  1  0  0  0  0
  1  3  1  0  0  0  0
  2  1  1  0  0  0  0
  5  6  1  6  0  0  0
  5  4  1  0  0  0  0
  5  7  1  0  0  0  0
  5  9  1  0  0  0  0
  7  8  1  0  0  0  0
  8 27  1  0  0  0  0
  9 12  1  0  0  0  0
 10  9  1  0  0  0  0
 11  9  1  0  0  0  0
 13 15  1  0  0  0  0
 13 16  1  0  0  0  0
 13  4  1  0  0  0  0
 14 13  1  0  0  0  0
 16 17  1  0  0  0  0
 17 19  2  0  0  0  0
 17 18  1  0  0  0  0
 19 20  1  0  0  0  0
 21 22  1  0  0  0  0
 21 19  1  0  0  0  0
 23 21  2  0  0  0  0
 24 23  1  0  0  0  0
 25 23  1  0  0  0  0
 25 16  2  0  0  0  0
 26 25  1  0  0  0  0
 27 35  1  0  0  0  0
 28 29  1  0  0  0  0
 28 27  2  0  0  0  0
 29 31  2  0  0  0  0
 30 29  1  0  0  0  0
 31 32  1  0  0  0  0
 31 33  1  0  0  0  0
 33 34  1  0  0  0  0
 35 33  2  0  0  0  0
 35 38  1  0  0  0  0
 36 28  1  0  0  0  0
 37 36  1  0  0  0  0
 38 48  1  0  0  0  0
 38 52  1  0  0  0  0
 39 38  1  0  0  0  0
 40 43  1  0  0  0  0
 40 42  1  0  0  0  0
 40 36  1  0  0  0  0
 41 40  1  0  0  0  0
 44 46  1  0  0  0  0
 44 36  1  0  0  0  0
 44 47  1  0  0  0  0
 45 44  1  0  0  0  0
 48 50  1  0  0  0  0
 48 49  1  0  0  0  0
 51 48  1  0  0  0  0
 52 55  1  0  0  0  0
 52 53  1  0  0  0  0
 54 52  1  0  0  0  0
M  END
