4
q = 0.0, confidence = 0.998

 24 25  0  0  0  0  0  0  0  0999 V2000
    3.1258   -1.8668   -0.3844 N   0  0  0  0  0  0  0  0  0  0  0  0
    2.8634    0.2446    0.0066 N   0  0  0  0  0  0  0  0  0  0  0  0
    2.5612    2.4408   -0.7029 N   0  0  0  0  0  0  0  0  0  0  0  0
    2.1738   -0.9371   -0.0860 C   0  0  0  0  0  2  0  0  0  0  0  0
    4.3808   -1.2807   -0.4939 C   0  0  0  0  0  0  0  0  0  0  0  0
    5.2791   -1.8600   -0.7276 H   0  0  0  0  0  0  0  0  0  0  0  0
    4.2147    0.0574   -0.2583 C   0  0  0  0  0  0  0  0  0  0  0  0
    4.9219    0.8911   -0.2588 H   0  0  0  0  0  0  0  0  0  0  0  0
    2.8699   -3.2853   -0.5964 C   0  0  0  0  0  0  0  0  0  0  0  0
    1.7920   -3.4701   -0.4405 H   0  0  0  0  0  0  0  0  0  0  0  0
    3.4556   -3.8915    0.1216 H   0  0  0  0  0  0  0  0  0  0  0  0
    3.1439   -3.5742   -1.6296 H   0  0  0  0  0  0  0  0  0  0  0  0
    2.2919    1.5472    0.2494 C   0  0  0  0  0  0  0  0  0  0  0  0
    1.5900    1.8163    1.4490 C   0  0  0  0  0  0  0  0  0  0  0  0
    1.0993    3.1330    1.5670 C   0  0  0  0  0  0  0  0  0  0  0  0
    0.5446    3.4158    2.4751 H   0  0  0  0  0  0  0  0  0  0  0  0
    1.3460    4.0805    0.5673 C   0  0  0  0  0  0  0  0  0  0  0  0
    0.9807    5.1134    0.6626 H   0  0  0  0  0  0  0  0  0  0  0  0
    2.1046    3.6907   -0.5471 C   0  0  0  0  0  0  0  0  0  0  0  0
    2.3580    4.4106   -1.3440 H   0  0  0  0  0  0  0  0  0  0  0  0
    1.4101    0.8172    2.5582 C   0  0  0  0  0  0  0  0  0  0  0  0
    0.5436    0.1493    2.3631 H   0  0  0  0  0  0  0  0  0  0  0  0
    1.2346    1.3313    3.5221 H   0  0  0  0  0  0  0  0  0  0  0  0
    2.2948    0.1599    2.6647 H   0  0  0  0  0  0  0  0  0  0  0  0
  1  4  1  0  0  0  0
  2 13  1  0  0  0  0
  3 19  2  0  0  0  0
  3 13  1  0  0  0  0
  4  2  1  0  0  0  0
  5  1  1  0  0  0  0
  5  7  2  0  0  0  0
  6  5  1  0  0  0  0
  7  2  1  0  0  0  0
  8  7  1  0  0  0  0
  9 10  1  0  0  0  0
  9  1  1  0  0  0  0
  9 11  1  0  0  0  0
 12  9  1  0  0  0  0
 13 14  2  0  0  0  0
 14 15  1  0  0  0  0
 14 21  1  0  0  0  0
 15 16  1  0  0  0  0
 17 18  1  0  0  0  0
 17 15  2  0  0  0  0
 19 17  1  0  0  0  0
 20 19  1  0  0  0  0
 21 24  1  0  0  0  0
 21 23  1  0  0  0  0
 22 21  1  0  0  0  0
M  END
