1
q = 0.0, confidence = 0.996

 28 30  0  0  0  0  0  0  0  0999 V2000
   -2.0506   -0.2767   -0.0374 C   0  0  0  0  0  2  0  0  0  0  0  0
   -3.0010    0.7124   -0.0516 N   0  0  0  0  0  0  0  0  0  0  0  0
   -2.7829   -1.4337   -0.0371 N   0  0  0  0  0  0  0  0  0  0  0  0
   -4.3048    0.2239   -0.0615 C   0  0  0  0  0  0  0  0  0  0  0  0
   -4.1763   -1.1646   -0.0511 C   0  0  0  0  0  0  0  0  0  0  0  0
   -5.0914   -2.2562   -0.0622 C   0  0  0  0  0  0  0  0  0  0  0  0
   -6.1702   -2.0474   -0.0752 H   0  0  0  0  0  0  0  0  0  0  0  0
   -4.6035   -3.5450   -0.0526 C   0  0  0  0  0  0  0  0  0  0  0  0
   -5.2947   -4.3993   -0.0605 H   0  0  0  0  0  0  0  0  0  0  0  0
   -3.1860   -3.7802   -0.0295 C   0  0  0  0  0  0  0  0  0  0  0  0
   -2.7933   -4.8060   -0.0184 H   0  0  0  0  0  0  0  0  0  0  0  0
   -2.3007   -2.7357   -0.0218 C   0  0  0  0  0  0  0  0  0  0  0  0
   -1.2059   -2.8354   -0.0030 H   0  0  0  0  0  0  0  0  0  0  0  0
   -5.5235    1.0768   -0.1165 C   0  0  0  0  0  0  0  0  0  0  0  0
   -6.3948    0.4736   -0.4332 H   0  0  0  0  0  0  0  0  0  0  0  0
   -5.4011    1.9080   -0.8396 H   0  0  0  0  0  0  0  0  0  0  0  0
   -5.7711    1.5301    0.8662 H   0  0  0  0  0  0  0  0  0  0  0  0
   -2.6409    2.1026   -0.0629 C   0  0  0  0  0  0  0  0  0  0  0  0
   -3.0155    2.9321    1.0063 C   0  0  0  0  0  0  0  0  0  0  0  0
   -3.5900    2.5176    1.8471 H   0  0  0  0  0  0  0  0  0  0  0  0
   -2.6234    4.2788    1.0002 C   0  0  0  0  0  0  0  0  0  0  0  0
   -2.9111    4.9318    1.8373 H   0  0  0  0  0  0  0  0  0  0  0  0
   -1.8584    4.7883   -0.0615 C   0  0  0  0  0  0  0  0  0  0  0  0
   -1.5553    5.8458   -0.0614 H   0  0  0  0  0  0  0  0  0  0  0  0
   -1.4885    3.9510   -1.1270 C   0  0  0  0  0  0  0  0  0  0  0  0
   -0.9016    4.3501   -1.9677 H   0  0  0  0  0  0  0  0  0  0  0  0
   -1.8816    2.6041   -1.1346 C   0  0  0  0  0  0  0  0  0  0  0  0
   -1.6158    1.9390   -1.9689 H   0  0  0  0  0  0  0  0  0  0  0  0
  1  3  1  0  0  0  0
  2  1  1  0  0  0  0
  3 12  1  0  0  0  0
  4  2  1  0  0  0  0
  4  5  2  0  0  0  0
  5  3  1  0  0  0  0
  6  8  2  0  0  0  0
  6  5  1  0  0  0  0
  7  6  1  0  0  0  0
  8 10  1  0  0  0  0
  9  8  1  0  0  0  0
 10 12  2  0  0  0  0
 10 11  1  0  0  0  0
 12 13  1  0  0  0  0
 14  4  1  0  0  0  0
 14 17  1  0  0  0  0
 15 14  1  0  0  0  0
 16 14  1  0  0  0  0
 18  2  1  0  0  0  0
 18 19  1  0  0  0  0
 19 20  1  0  0  0  0
 21 19  2  0  0  0  0
 21 22  1  0  0  0  0
 23 24  1  0  0  0  0
 23 21  1  0  0  0  0
 25 23  2  0  0  0  0
 26 25  1  0  0  0  0
 27 25  1  0  0  0  0
 27 18  2  0  0  0  0
 28 27  1  0  0  0  0
M  END
