7
q = 0.0, confidence = 0.84

  9  8  0  0  1  0  0  0  0  0999 V2000
    2.5987    1.0941   -2.3446 F   0  0  0  0  0  0  0  0  0  0  0  0
    0.7795    2.0640   -1.6008 F   0  0  0  0  0  0  0  0  0  0  0  0
    1.4681    1.6151    0.9945 F   0  0  0  0  0  0  0  0  0  0  0  0
    4.3176    0.0911   -0.4508 F   0  0  0  0  0  0  0  0  0  0  0  0
    4.0621    1.9512    0.6500 F   0  0  0  0  0  0  0  0  0  0  0  0
    3.6402    0.0499    1.6275 F   0  0  0  0  0  0  0  0  0  0  0  0
    1.6534    1.0468   -1.3592 C   0  0  0  0  0  0  0  0  0  0  0  0
    2.0776    0.8254    0.0219 C   0  0  1  0  0  0  0  0  0  0  0  0
    3.5288    0.7226    0.4479 C   0  0  0  0  0  0  0  0  0  0  0  0
  1  7  1  0  0  0  0
  2  7  1  0  0  0  0
  4  9  1  0  0  0  0
  7  8  1  0  0  0  0
  8  9  1  0  0  0  0
  8  3  1  1  0  0  0
  9  5  1  0  0  0  0
  9  6  1  0  0  0  0
M  END
