1
q = -1.0

 17 17  0  0  0  0  0  0  0  0999 V2000
    1.9890   -1.9166   -0.7820 C   0  0  0  0  0  3  0  0  0  0  0  0
    2.1842   -1.6415   -1.8347 H   0  0  0  0  0  0  0  0  0  0  0  0
    2.9882   -1.3278    0.1417 C   0  0  0  0  0  0  0  0  0  0  0  0
    3.7082    0.9793    0.4103 C   0  0  0  0  0  0  0  0  0  0  0  0
    3.2446    1.1319    1.7322 C   0  0  0  0  0  0  0  0  0  0  0  0
    2.6717    0.3282    2.2104 H   0  0  0  0  0  0  0  0  0  0  0  0
    3.5465    2.3099    2.4317 C   0  0  0  0  0  0  0  0  0  0  0  0
    3.1817    2.4251    3.4643 H   0  0  0  0  0  0  0  0  0  0  0  0
    4.3050    3.3315    1.8380 C   0  0  0  0  0  0  0  0  0  0  0  0
    4.5364    4.2496    2.3981 H   0  0  0  0  0  0  0  0  0  0  0  0
    4.7728    3.1642    0.5243 C   0  0  0  0  0  0  0  0  0  0  0  0
    5.3751    3.9522    0.0466 H   0  0  0  0  0  0  0  0  0  0  0  0
    4.4811    1.9929   -0.1877 C   0  0  0  0  0  0  0  0  0  0  0  0
    4.8436    1.8390   -1.2147 H   0  0  0  0  0  0  0  0  0  0  0  0
    1.8822   -3.7094   -0.6463 Cl  0  0  0  0  0  0  0  0  0  0  0  0
    3.3805   -0.0831   -0.3958 O   0  0  0  0  0  0  0  0  0  0  0  0
    3.4040   -1.7449    1.1999 O   0  0  0  0  0  0  0  0  0  0  0  0
  1 15  1  0  0  0  0
  1  3  1  0  0  0  0
  2  1  1  0  0  0  0
  3 17  2  0  0  0  0
  4  5  1  0  0  0  0
  5  6  1  0  0  0  0
  5  7  2  0  0  0  0
  7  8  1  0  0  0  0
  9 10  1  0  0  0  0
  9  7  1  0  0  0  0
 11  9  2  0  0  0  0
 12 11  1  0  0  0  0
 13  4  2  0  0  0  0
 13 11  1  0  0  0  0
 14 13  1  0  0  0  0
 16  3  1  0  0  0  0
 16  4  1  0  0  0  0
M  END
