5
q = 0.0, confidence = 1.0

 35 37  0  0  0  0  0  0  0  0999 V2000
   -5.0329    0.6803   -0.8512 O   0  0  0  0  0  0  0  0  0  0  0  0
    0.3557   -2.9731   -1.4375 N   0  0  0  0  0  0  0  0  0  0  0  0
   -0.1946   -4.2205   -1.4012 N   0  0  0  0  0  0  0  0  0  0  0  0
   -1.3229   -2.7943   -0.1378 N   0  0  0  0  0  0  0  0  0  0  0  0
   -0.2924   -2.0616   -0.6777 C   0  0  0  0  0  2  0  0  0  0  0  0
   -1.2276   -4.0886   -0.6047 C   0  0  0  0  0  0  0  0  0  0  0  0
   -1.9252   -4.8921   -0.3390 H   0  0  0  0  0  0  0  0  0  0  0  0
    1.5810   -2.7665   -2.2205 C   0  0  0  0  0  0  0  0  0  0  0  0
    1.3984   -3.2120   -3.2177 H   0  0  0  0  0  0  0  0  0  0  0  0
    1.6970   -1.6745   -2.3550 H   0  0  0  0  0  0  0  0  0  0  0  0
    2.8037   -3.3812   -1.5529 C   0  0  0  0  0  0  0  0  0  0  0  0
    3.6938   -3.1735   -2.1763 H   0  0  0  0  0  0  0  0  0  0  0  0
    2.6862   -4.4762   -1.4386 H   0  0  0  0  0  0  0  0  0  0  0  0
    2.9782   -2.9346   -0.5533 H   0  0  0  0  0  0  0  0  0  0  0  0
   -2.3363   -2.2810    0.7750 C   0  0  0  0  0  0  0  0  0  0  0  0
   -1.8197   -1.8097    1.6373 H   0  0  0  0  0  0  0  0  0  0  0  0
   -2.8943   -3.1491    1.1808 H   0  0  0  0  0  0  0  0  0  0  0  0
   -3.2971   -1.2807    0.1680 C   0  0  0  0  0  0  0  0  0  0  0  0
   -3.2434   -0.9194   -1.1517 C   0  0  0  0  0  0  0  0  0  0  0  0
   -2.5352   -1.3679   -1.8600 H   0  0  0  0  0  0  0  0  0  0  0  0
   -4.0793    0.1354   -1.7136 C   0  0  0  0  0  0  0  0  0  0  0  0
   -5.1452    0.3041    0.4539 C   0  0  0  0  0  0  0  0  0  0  0  0
   -6.1437    0.9291    1.2189 C   0  0  0  0  0  0  0  0  0  0  0  0
   -6.7921    1.6722    0.7339 H   0  0  0  0  0  0  0  0  0  0  0  0
   -6.2875    0.5929    2.5644 C   0  0  0  0  0  0  0  0  0  0  0  0
   -7.0741    1.0844    3.1578 H   0  0  0  0  0  0  0  0  0  0  0  0
   -5.4484   -0.3668    3.1874 C   0  0  0  0  0  0  0  0  0  0  0  0
   -4.4594   -0.9780    2.4078 C   0  0  0  0  0  0  0  0  0  0  0  0
   -3.8099   -1.7279    2.8838 H   0  0  0  0  0  0  0  0  0  0  0  0
   -4.2859   -0.6658    1.0347 C   0  0  0  0  0  0  0  0  0  0  0  0
   -5.6352   -0.7118    4.6415 C   0  0  0  0  0  0  0  0  0  0  0  0
   -6.6446   -1.1353    4.8239 H   0  0  0  0  0  0  0  0  0  0  0  0
   -5.5476    0.1898    5.2821 H   0  0  0  0  0  0  0  0  0  0  0  0
   -4.8897   -1.4517    4.9896 H   0  0  0  0  0  0  0  0  0  0  0  0
   -3.9830    0.5972   -2.8332 O   0  0  0  0  0  0  0  0  0  0  0  0
  1 22  1  0  0  0  0
  2  3  1  0  0  0  0
  2  5  1  0  0  0  0
  3  6  2  0  0  0  0
  4 15  1  0  0  0  0
  5  4  1  0  0  0  0
  6  7  1  0  0  0  0
  6  4  1  0  0  0  0
  8 11  1  0  0  0  0
  8  2  1  0  0  0  0
  9  8  1  0  0  0  0
 10  8  1  0  0  0  0
 11 13  1  0  0  0  0
 11 14  1  0  0  0  0
 12 11  1  0  0  0  0
 15 17  1  0  0  0  0
 15 16  1  0  0  0  0
 18 15  1  0  0  0  0
 18 30  1  0  0  0  0
 19 18  2  0  0  0  0
 20 19  1  0  0  0  0
 21 19  1  0  0  0  0
 21  1  1  0  0  0  0
 22 30  2  0  0  0  0
 22 23  1  0  0  0  0
 23 25  2  0  0  0  0
 24 23  1  0  0  0  0
 25 26  1  0  0  0  0
 25 27  1  0  0  0  0
 27 31  1  0  0  0  0
 28 29  1  0  0  0  0
 28 27  2  0  0  0  0
 30 28  1  0  0  0  0
 31 32  1  0  0  0  0
 31 34  1  0  0  0  0
 31 33  1  0  0  0  0
 35 21  2  0  0  0  0
M  END
