3
q = -1.0, confidence = 0.0

 33 34  0  0  1  0  0  0  0  0999 V2000
    0.7747   -0.9792    1.5657 O   0  0  0  0  0  0  0  0  0  0  0  0
    2.8235    0.7071    1.5402 O   0  0  0  0  0  0  0  0  0  0  0  0
    0.7016   -0.8849    0.3297 C   0  0  0  0  0  3  0  0  0  0  0  0
    1.8786   -0.2828   -0.4370 C   0  0  0  0  0  0  0  0  0  0  0  0
    3.1640   -0.0592    0.3872 C   0  0  2  0  0  0  0  0  0  0  0  0
    3.8691   -1.4182    0.7476 C   0  0  0  0  0  0  0  0  0  0  0  0
    5.2562   -1.3040    0.0893 C   0  0  1  0  0  0  0  0  0  0  0  0
    5.0455   -1.3792   -1.4430 C   0  0  0  0  0  0  0  0  0  0  0  0
    4.4546    0.0197   -1.7815 C   0  0  0  0  0  0  0  0  0  0  0  0
    4.3011    0.7050   -0.3991 C   0  0  2  0  0  0  0  0  0  0  0  0
    5.6175    0.1948    0.3191 C   0  0  0  0  0  0  0  0  0  0  0  0
    4.0820    2.2069   -0.4712 C   0  0  0  0  0  0  0  0  0  0  0  0
    6.9227    0.6219   -0.3756 C   0  0  0  0  0  0  0  0  0  0  0  0
    5.7592    0.5929    1.7973 C   0  0  0  0  0  0  0  0  0  0  0  0
    2.0787    0.1931    1.9387 H   0  0  0  0  0  0  0  0  0  0  0  0
    1.5092    0.6841   -0.8450 H   0  0  0  0  0  0  0  0  0  0  0  0
    2.0558   -0.9326   -1.3149 H   0  0  0  0  0  0  0  0  0  0  0  0
    3.9368   -1.5096    1.8480 H   0  0  0  0  0  0  0  0  0  0  0  0
    3.3072   -2.3008    0.3784 H   0  0  0  0  0  0  0  0  0  0  0  0
    5.9995   -2.0296    0.4784 H   0  0  0  0  0  0  0  0  0  0  0  0
    5.9955   -1.5665   -1.9820 H   0  0  0  0  0  0  0  0  0  0  0  0
    4.3598   -2.2091   -1.7121 H   0  0  0  0  0  0  0  0  0  0  0  0
    5.1501    0.6138   -2.4065 H   0  0  0  0  0  0  0  0  0  0  0  0
    3.5041   -0.0230   -2.3456 H   0  0  0  0  0  0  0  0  0  0  0  0
    4.9374    2.7091   -0.9685 H   0  0  0  0  0  0  0  0  0  0  0  0
    3.9469    2.6366    0.5391 H   0  0  0  0  0  0  0  0  0  0  0  0
    3.1690    2.4483   -1.0537 H   0  0  0  0  0  0  0  0  0  0  0  0
    7.0535    1.7222   -0.3177 H   0  0  0  0  0  0  0  0  0  0  0  0
    7.7896    0.1646    0.1446 H   0  0  0  0  0  0  0  0  0  0  0  0
    6.9902    0.3333   -1.4409 H   0  0  0  0  0  0  0  0  0  0  0  0
    6.5946    0.0288    2.2630 H   0  0  0  0  0  0  0  0  0  0  0  0
    4.8363    0.4333    2.3789 H   0  0  0  0  0  0  0  0  0  0  0  0
    6.0074    1.6717    1.8778 H   0  0  0  0  0  0  0  0  0  0  0  0
  2 15  1  0  0  0  0
  3  1  2  0  0  0  0
  4  3  1  0  0  0  0
  4  5  1  0  0  0  0
  5  6  1  0  0  0  0
  5  2  1  1  0  0  0
  6 18  1  0  0  0  0
  7 11  1  0  0  0  0
  7 20  1  1  0  0  0
  7  6  1  0  0  0  0
  8  7  1  0  0  0  0
  9  8  1  0  0  0  0
  9 10  1  0  0  0  0
 10 12  1  6  0  0  0
 10 11  1  0  0  0  0
 10  5  1  0  0  0  0
 11 14  1  0  0  0  0
 12 26  1  0  0  0  0
 13 28  1  0  0  0  0
 13 29  1  0  0  0  0
 13 11  1  0  0  0  0
 14 33  1  0  0  0  0
 14 31  1  0  0  0  0
 14 32  1  0  0  0  0
 16  4  1  0  0  0  0
 17  4  1  0  0  0  0
 19  6  1  0  0  0  0
 21  8  1  0  0  0  0
 22  8  1  0  0  0  0
 23  9  1  0  0  0  0
 24  9  1  0  0  0  0
 25 12  1  0  0  0  0
 27 12  1  0  0  0  0
 30 13  1  0  0  0  0
M  END
