1
q = 0.0, confidence = 0.992

 39 40  0  0  1  0  0  0  0  0999 V2000
    0.0296   -0.5092    0.5701 C   0  0  0  0  0  2  0  0  0  0  0  0
    0.3603   -1.4021    1.4887 O   0  0  0  0  0  0  0  0  0  0  0  0
   -0.6203   -2.1592    2.2051 C   0  0  0  0  0  0  0  0  0  0  0  0
    1.3038    0.0118   -0.0806 C   0  0  1  0  0  0  0  0  0  0  0  0
    2.1371    0.8916    0.9173 C   0  0  1  0  0  0  0  0  0  0  0  0
    2.9441    0.0338    1.9073 C   0  0  0  0  0  0  0  0  0  0  0  0
    3.7784   -1.0380    1.2198 C   0  0  0  0  0  0  0  0  0  0  0  0
    4.9669   -1.1858    1.4674 O   0  0  0  0  0  0  0  0  0  0  0  0
    3.0295   -1.9281    0.2261 C   0  0  1  0  0  0  0  0  0  0  0  0
    2.2155   -1.0476   -0.7633 C   0  0  1  0  0  0  0  0  0  0  0  0
    1.4377   -1.8579   -1.7954 C   0  0  0  0  0  0  0  0  0  0  0  0
    0.4569   -2.6446   -1.1433 O   0  0  0  0  0  0  0  0  0  0  0  0
   -0.3636   -3.3613   -2.0413 C   0  0  0  0  0  0  0  0  0  0  0  0
    3.0399    1.8034    0.1450 C   0  0  0  0  0  0  0  0  0  0  0  0
    3.4017    3.4325   -1.3023 C   0  0  0  0  0  0  0  0  0  0  0  0
    2.4243    2.7149   -0.6735 O   0  0  0  0  0  0  0  0  0  0  0  0
    3.9755   -2.9085   -0.4645 C   0  0  0  0  0  0  0  0  0  0  0  0
    4.6419    2.9961   -0.9047 C   0  0  0  0  0  0  0  0  0  0  0  0
    4.4095    1.9329    0.0350 C   0  0  0  0  0  0  0  0  0  0  0  0
   -0.0762   -2.6772    3.0155 H   0  0  0  0  0  0  0  0  0  0  0  0
   -1.0737   -2.8990    1.5188 H   0  0  0  0  0  0  0  0  0  0  0  0
   -1.4040   -1.4991    2.6202 H   0  0  0  0  0  0  0  0  0  0  0  0
    0.9698    0.7001   -0.8786 H   0  0  0  0  0  0  0  0  0  0  0  0
    1.4192    1.5237    1.4848 H   0  0  0  0  0  0  0  0  0  0  0  0
    2.2348   -0.4874    2.5814 H   0  0  0  0  0  0  0  0  0  0  0  0
    3.6135    0.6580    2.5292 H   0  0  0  0  0  0  0  0  0  0  0  0
    2.2879   -2.4944    0.8306 H   0  0  0  0  0  0  0  0  0  0  0  0
    2.9583   -0.4555   -1.3452 H   0  0  0  0  0  0  0  0  0  0  0  0
    2.1323   -2.5088   -2.3787 H   0  0  0  0  0  0  0  0  0  0  0  0
    0.9589   -1.1648   -2.5272 H   0  0  0  0  0  0  0  0  0  0  0  0
   -1.1049   -3.9261   -1.4449 H   0  0  0  0  0  0  0  0  0  0  0  0
    0.2288   -4.0793   -2.6573 H   0  0  0  0  0  0  0  0  0  0  0  0
   -0.9118   -2.6810   -2.7344 H   0  0  0  0  0  0  0  0  0  0  0  0
    3.0539    4.2104   -1.9891 H   0  0  0  0  0  0  0  0  0  0  0  0
    3.4186   -3.7081   -0.9890 H   0  0  0  0  0  0  0  0  0  0  0  0
    4.6462   -3.3769    0.2799 H   0  0  0  0  0  0  0  0  0  0  0  0
    4.6231   -2.3882   -1.2000 H   0  0  0  0  0  0  0  0  0  0  0  0
    5.6096    3.3852   -1.2394 H   0  0  0  0  0  0  0  0  0  0  0  0
    5.1591    1.3339    0.5631 H   0  0  0  0  0  0  0  0  0  0  0  0
  1  2  1  0  0  0  0
  2  3  1  0  0  0  0
  3 22  1  0  0  0  0
  3 20  1  0  0  0  0
  4 23  1  6  0  0  0
  4  1  1  0  0  0  0
  4  5  1  0  0  0  0
  5 24  1  1  0  0  0
  5  6  1  0  0  0  0
  6 26  1  0  0  0  0
  6 25  1  0  0  0  0
  7  8  2  0  0  0  0
  7  6  1  0  0  0  0
  9 27  1  1  0  0  0
  9  7  1  0  0  0  0
 10 28  1  6  0  0  0
 10  4  1  0  0  0  0
 10  9  1  0  0  0  0
 11 12  1  0  0  0  0
 11 10  1  0  0  0  0
 13 31  1  0  0  0  0
 13 12  1  0  0  0  0
 14  5  1  0  0  0  0
 15 18  2  0  0  0  0
 15 16  1  0  0  0  0
 16 14  1  0  0  0  0
 17  9  1  0  0  0  0
 17 36  1  0  0  0  0
 18 19  1  0  0  0  0
 19 14  2  0  0  0  0
 19 39  1  0  0  0  0
 21  3  1  0  0  0  0
 29 11  1  0  0  0  0
 30 11  1  0  0  0  0
 32 13  1  0  0  0  0
 33 13  1  0  0  0  0
 34 15  1  0  0  0  0
 35 17  1  0  0  0  0
 37 17  1  0  0  0  0
 38 18  1  0  0  0  0
M  END
