2
q = 0.0, confidence = 0.752

 22 22  0  0  0  0  0  0  0  0999 V2000
   -0.4776    0.2206    2.9097 Si  0  0  0  0  0  0  0  0  0  0  0  0
    0.7818    0.2094    1.5246 C   0  0  0  0  0  2  0  0  0  0  0  0
    1.8531    0.0705    1.8092 H   0  0  0  0  0  0  0  0  0  0  0  0
   -2.1071   -0.4734    2.2432 C   0  0  0  0  0  0  0  0  0  0  0  0
   -3.3037    0.2728    2.2360 C   0  0  0  0  0  0  0  0  0  0  0  0
   -3.3132    1.2949    2.6466 H   0  0  0  0  0  0  0  0  0  0  0  0
   -4.4890   -0.2552    1.6979 C   0  0  0  0  0  0  0  0  0  0  0  0
   -5.4050    0.3547    1.6809 H   0  0  0  0  0  0  0  0  0  0  0  0
   -4.4994   -1.5535    1.1690 C   0  0  0  0  0  0  0  0  0  0  0  0
   -5.4237   -1.9668    0.7373 H   0  0  0  0  0  0  0  0  0  0  0  0
   -3.3227   -2.3216    1.1861 C   0  0  0  0  0  0  0  0  0  0  0  0
   -3.3274   -3.3455    0.7812 H   0  0  0  0  0  0  0  0  0  0  0  0
   -2.1397   -1.7831    1.7099 C   0  0  0  0  0  0  0  0  0  0  0  0
   -1.2191   -2.3879    1.6916 H   0  0  0  0  0  0  0  0  0  0  0  0
    0.1709   -0.8974    4.2953 C   0  0  0  0  0  0  0  0  0  0  0  0
    1.1126   -0.4926    4.7202 H   0  0  0  0  0  0  0  0  0  0  0  0
   -0.5700   -0.9917    5.1152 H   0  0  0  0  0  0  0  0  0  0  0  0
    0.3865   -1.9106    3.9004 H   0  0  0  0  0  0  0  0  0  0  0  0
   -0.7288    1.9810    3.5666 C   0  0  0  0  0  0  0  0  0  0  0  0
   -1.0981    2.6616    2.7734 H   0  0  0  0  0  0  0  0  0  0  0  0
   -1.4557    1.9975    4.4049 H   0  0  0  0  0  0  0  0  0  0  0  0
    0.2328    2.3878    3.9407 H   0  0  0  0  0  0  0  0  0  0  0  0
  1 19  1  0  0  0  0
  1 15  1  0  0  0  0
  2  3  1  0  0  0  0
  2  1  1  0  0  0  0
  4  1  1  0  0  0  0
  5  4  1  0  0  0  0
  5  6  1  0  0  0  0
  7  5  2  0  0  0  0
  8  7  1  0  0  0  0
  9 11  2  0  0  0  0
  9  7  1  0  0  0  0
 10  9  1  0  0  0  0
 11 13  1  0  0  0  0
 12 11  1  0  0  0  0
 13  4  2  0  0  0  0
 14 13  1  0  0  0  0
 15 16  1  0  0  0  0
 15 17  1  0  0  0  0
 18 15  1  0  0  0  0
 19 22  1  0  0  0  0
 19 21  1  0  0  0  0
 20 19  1  0  0  0  0
M  END
