4
q = -1.0

 43 44  0  0  1  0  0  0  0  0999 V2000
   -0.2165    0.1357   -2.1202 O   0  0  0  0  0  0  0  0  0  0  0  0
   -2.8528    1.0092   -2.0830 O   0  0  0  0  0  0  0  0  0  0  0  0
    2.9103    1.9217    0.2030 C   0  0  0  0  0  3  0  0  0  0  0  0
    1.8611    1.4670   -0.6391 C   0  0  0  0  0  3  0  0  0  0  0  0
    0.7251    0.8360   -0.0366 C   0  0  0  0  0  3  0  0  0  0  0  0
   -0.3336    0.2542   -0.8856 C   0  0  0  0  0  0  0  0  0  0  0  0
   -1.6669   -0.0815   -0.2343 C   0  0  1  0  0  0  0  0  0  0  0  0
   -2.6409    1.0645   -0.6909 C   0  0  1  0  0  0  0  0  0  0  0  0
   -2.1996   -1.4823   -0.6418 C   0  0  1  0  0  0  0  0  0  0  0  0
   -1.2068   -2.5898   -0.2654 C   0  0  0  0  0  0  0  0  0  0  0  0
   -2.1250    2.4162   -0.2030 C   0  0  0  0  0  0  0  0  0  0  0  0
   -2.1190    2.7163    1.1741 C   0  0  0  0  0  0  0  0  0  0  0  0
   -1.5679    3.9180    1.6408 C   0  0  0  0  0  0  0  0  0  0  0  0
   -1.0187    4.8400    0.7332 C   0  0  0  0  0  0  0  0  0  0  0  0
   -1.0406    4.5564   -0.6408 C   0  0  0  0  0  0  0  0  0  0  0  0
   -1.5944    3.3530   -1.1059 C   0  0  0  0  0  0  0  0  0  0  0  0
   -3.5856   -1.7075   -0.0612 C   0  0  0  0  0  0  0  0  0  0  0  0
   -3.7655   -2.0547    1.2940 C   0  0  0  0  0  0  0  0  0  0  0  0
   -5.0516   -2.2254    1.8282 C   0  0  0  0  0  0  0  0  0  0  0  0
   -6.1829   -2.0505    1.0152 C   0  0  0  0  0  0  0  0  0  0  0  0
   -6.0175   -1.6977   -0.3332 C   0  0  0  0  0  0  0  0  0  0  0  0
   -4.7302   -1.5262   -0.8643 C   0  0  0  0  0  0  0  0  0  0  0  0
   -1.9923    0.7334   -2.4826 H   0  0  0  0  0  0  0  0  0  0  0  0
    3.8254    2.3258   -0.2579 H   0  0  0  0  0  0  0  0  0  0  0  0
    2.6703    2.3217    1.1996 H   0  0  0  0  0  0  0  0  0  0  0  0
    1.9199    1.5023   -1.7388 H   0  0  0  0  0  0  0  0  0  0  0  0
    0.4061    1.1601    0.9654 H   0  0  0  0  0  0  0  0  0  0  0  0
   -1.5678   -0.0355    0.8696 H   0  0  0  0  0  0  0  0  0  0  0  0
   -3.6198    0.8634   -0.2018 H   0  0  0  0  0  0  0  0  0  0  0  0
   -2.2967   -1.4672   -1.7459 H   0  0  0  0  0  0  0  0  0  0  0  0
   -1.6088   -3.5852   -0.5386 H   0  0  0  0  0  0  0  0  0  0  0  0
   -0.2486   -2.4465   -0.8014 H   0  0  0  0  0  0  0  0  0  0  0  0
   -0.9796   -2.5964    0.8191 H   0  0  0  0  0  0  0  0  0  0  0  0
   -2.5523    1.9981    1.8898 H   0  0  0  0  0  0  0  0  0  0  0  0
   -1.5704    4.1399    2.7191 H   0  0  0  0  0  0  0  0  0  0  0  0
   -0.5842    5.7831    1.0982 H   0  0  0  0  0  0  0  0  0  0  0  0
   -0.6254    5.2801   -1.3591 H   0  0  0  0  0  0  0  0  0  0  0  0
   -1.6291    3.1243   -2.1808 H   0  0  0  0  0  0  0  0  0  0  0  0
   -2.8883   -2.1962    1.9447 H   0  0  0  0  0  0  0  0  0  0  0  0
   -5.1710   -2.4994    2.8877 H   0  0  0  0  0  0  0  0  0  0  0  0
   -7.1919   -2.1866    1.4333 H   0  0  0  0  0  0  0  0  0  0  0  0
   -6.8980   -1.5511   -0.9776 H   0  0  0  0  0  0  0  0  0  0  0  0
   -4.5983   -1.2191   -1.9133 H   0  0  0  0  0  0  0  0  0  0  0  0
  1  6  2  0  0  0  0
  2  8  1  0  0  0  0
  3 25  1  0  0  0  0
  4  5  1  0  0  0  0
  4  3  1  0  0  0  0
  5 27  1  0  0  0  0
  6  7  1  0  0  0  0
  6  5  1  0  0  0  0
  7 28  1  1  0  0  0
  8  7  1  0  0  0  0
  8 11  1  0  0  0  0
  8 29  1  1  0  0  0
  9 30  1  6  0  0  0
  9 10  1  0  0  0  0
  9  7  1  0  0  0  0
  9 17  1  0  0  0  0
 10 33  1  0  0  0  0
 11 12  1  0  0  0  0
 12 13  2  0  0  0  0
 12 34  1  0  0  0  0
 13 35  1  0  0  0  0
 14 36  1  0  0  0  0
 14 13  1  0  0  0  0
 15 14  2  0  0  0  0
 16 15  1  0  0  0  0
 16 11  2  0  0  0  0
 17 18  1  0  0  0  0
 18 19  2  0  0  0  0
 18 39  1  0  0  0  0
 19 40  1  0  0  0  0
 20 41  1  0  0  0  0
 20 19  1  0  0  0  0
 21 20  2  0  0  0  0
 22 21  1  0  0  0  0
 22 17  2  0  0  0  0
 23  2  1  0  0  0  0
 24  3  1  0  0  0  0
 26  4  1  0  0  0  0
 31 10  1  0  0  0  0
 32 10  1  0  0  0  0
 37 15  1  0  0  0  0
 38 16  1  0  0  0  0
 42 21  1  0  0  0  0
 43 22  1  0  0  0  0
M  END
