8
q = -1.0

 17 17  0  0  0  0  0  0  0  0999 V2000
   -3.6417   -3.2106   -0.0054 O   0  0  0  0  0  0  0  0  0  0  0  0
   -5.9303   -3.2916   -0.0048 O   0  0  0  0  0  0  0  0  0  0  0  0
   -4.7561   -1.2758   -0.0008 N   0  0  0  0  0  0  0  0  0  0  0  0
   -4.9027   -2.6454   -0.0038 C   0  0  0  0  0  0  0  0  0  0  0  0
   -5.8661   -0.3655   -0.0011 C   0  0  0  0  0  0  0  0  0  0  0  0
   -3.3689   -0.8678   -0.0025 C   0  0  0  0  0  0  0  0  0  0  0  0
   -2.6540   -2.2090   -0.0038 C   0  0  0  0  0  0  0  0  0  0  0  0
   -1.3276   -2.4714   -0.0036 C   0  0  0  0  0  3  0  0  0  0  0  0
   -0.8223   -3.8943   -0.0053 C   0  0  0  0  0  0  0  0  0  0  0  0
   -6.7962   -0.9657   -0.0004 H   0  0  0  0  0  0  0  0  0  0  0  0
   -5.8573    0.2914    0.8983 H   0  0  0  0  0  0  0  0  0  0  0  0
   -5.8580    0.2903   -0.9013 H   0  0  0  0  0  0  0  0  0  0  0  0
   -3.1170   -0.2486   -0.8958 H   0  0  0  0  0  0  0  0  0  0  0  0
   -3.1145   -0.2490    0.8904 H   0  0  0  0  0  0  0  0  0  0  0  0
   -1.6440   -4.6395   -0.0057 H   0  0  0  0  0  0  0  0  0  0  0  0
   -0.1809   -4.0886   -0.8920 H   0  0  0  0  0  0  0  0  0  0  0  0
   -0.1800   -4.0905    0.8803 H   0  0  0  0  0  0  0  0  0  0  0  0
  1  7  1  0  0  0  0
  1  4  1  0  0  0  0
  2  4  2  0  0  0  0
  4  3  1  0  0  0  0
  5  3  1  0  0  0  0
  5 10  1  0  0  0  0
  5 11  1  0  0  0  0
  6  3  1  0  0  0  0
  6 14  1  0  0  0  0
  7  8  2  0  0  0  0
  7  6  1  0  0  0  0
  9  8  1  0  0  0  0
  9 17  1  0  0  0  0
 12  5  1  0  0  0  0
 13  6  1  0  0  0  0
 15  9  1  0  0  0  0
 16  9  1  0  0  0  0
M  END
