4
q = -1.0

 56 58  0  0  1  0  0  0  0  0999 V2000
    1.8499    0.2745   -0.2783 P   0  0  0  0  0  0  0  0  0  0  0  0
    1.5241   -2.4081   -3.1992 O   0  0  0  0  0  0  0  0  0  0  0  0
    2.3344   -2.5893   -1.0696 O   0  0  0  0  0  0  0  0  0  0  0  0
    0.0355   -2.4245   -1.3067 C   0  0  2  0  0  3  0  0  0  0  0  0
   -1.2468   -2.1190   -1.9099 C   0  0  2  0  0  3  0  0  0  0  0  0
   -2.1756   -1.9637   -0.8226 C   0  0  0  0  0  0  0  0  0  0  0  0
   -1.5327   -2.2406    0.4263 C   0  0  0  0  0  0  0  0  0  0  0  0
   -0.1421   -2.4765    0.1369 C   0  0  0  0  0  3  0  0  0  0  0  0
   -1.5976   -2.1545   -3.3603 C   0  0  0  0  0  0  0  0  0  0  0  0
   -2.2590   -2.4340    1.7449 C   0  0  0  0  0  0  0  0  0  0  0  0
   -1.3132   -2.3489    2.9546 C   0  0  0  0  0  0  0  0  0  0  0  0
   -2.8335   -3.8750    1.6556 C   0  0  0  0  0  0  0  0  0  0  0  0
   -3.4145   -1.4271    1.9020 C   0  0  0  0  0  0  0  0  0  0  0  0
    1.3425   -2.5156   -2.0012 C   0  0  0  0  0  0  0  0  0  0  0  0
    3.5036   -1.8031   -1.3698 C   0  0  0  0  0  0  0  0  0  0  0  0
    3.0997   -0.3393   -1.5421 C   0  0  0  0  0  0  0  0  0  0  0  0
    2.6948   -0.1349    1.3014 C   0  0  0  0  0  0  0  0  0  0  0  0
    4.0141    0.3423    1.4734 C   0  0  0  0  0  0  0  0  0  0  0  0
    4.7332    0.0191    2.6323 C   0  0  0  0  0  0  0  0  0  0  0  0
    4.1440   -0.7748    3.6300 C   0  0  0  0  0  0  0  0  0  0  0  0
    2.8288   -1.2349    3.4689 C   0  0  0  0  0  0  0  0  0  0  0  0
    2.1052   -0.9150    2.3103 C   0  0  0  0  0  0  0  0  0  0  0  0
    2.0519    2.0972   -0.4081 C   0  0  0  0  0  0  0  0  0  0  0  0
    1.7791    2.8960    0.7258 C   0  0  0  0  0  0  0  0  0  0  0  0
    1.8683    4.2921    0.6395 C   0  0  0  0  0  0  0  0  0  0  0  0
    2.2309    4.9079   -0.5698 C   0  0  0  0  0  0  0  0  0  0  0  0
    2.5207    4.1202   -1.6938 C   0  0  0  0  0  0  0  0  0  0  0  0
    2.4355    2.7214   -1.6160 C   0  0  0  0  0  0  0  0  0  0  0  0
   -3.2410   -1.7342   -0.9406 H   0  0  0  0  0  0  0  0  0  0  0  0
    0.6366   -2.7742    0.8441 H   0  0  0  0  0  0  0  0  0  0  0  0
   -2.3936   -1.4285   -3.6178 H   0  0  0  0  0  0  0  0  0  0  0  0
   -1.9956   -3.1647   -3.5952 H   0  0  0  0  0  0  0  0  0  0  0  0
   -0.7094   -1.9997   -3.9984 H   0  0  0  0  0  0  0  0  0  0  0  0
   -0.4825   -3.0795    2.8812 H   0  0  0  0  0  0  0  0  0  0  0  0
   -1.8753   -2.5879    3.8784 H   0  0  0  0  0  0  0  0  0  0  0  0
   -0.8964   -1.3301    3.0607 H   0  0  0  0  0  0  0  0  0  0  0  0
   -3.5373   -3.9837    0.8062 H   0  0  0  0  0  0  0  0  0  0  0  0
   -3.3854   -4.1054    2.5890 H   0  0  0  0  0  0  0  0  0  0  0  0
   -2.0291   -4.6285    1.5382 H   0  0  0  0  0  0  0  0  0  0  0  0
   -3.0389   -0.3862    1.8923 H   0  0  0  0  0  0  0  0  0  0  0  0
   -3.9331   -1.6054    2.8643 H   0  0  0  0  0  0  0  0  0  0  0  0
   -4.1724   -1.5362    1.1008 H   0  0  0  0  0  0  0  0  0  0  0  0
    4.1691   -1.9449   -0.4988 H   0  0  0  0  0  0  0  0  0  0  0  0
    4.0039   -2.1801   -2.2847 H   0  0  0  0  0  0  0  0  0  0  0  0
    2.6727   -0.1805   -2.5511 H   0  0  0  0  0  0  0  0  0  0  0  0
    3.9928    0.3097   -1.4536 H   0  0  0  0  0  0  0  0  0  0  0  0
    4.4811    0.9863    0.7124 H   0  0  0  0  0  0  0  0  0  0  0  0
    5.7585    0.3973    2.7586 H   0  0  0  0  0  0  0  0  0  0  0  0
    4.7098   -1.0252    4.5397 H   0  0  0  0  0  0  0  0  0  0  0  0
    2.3536   -1.8409    4.2547 H   0  0  0  0  0  0  0  0  0  0  0  0
    1.0644   -1.2380    2.2077 H   0  0  0  0  0  0  0  0  0  0  0  0
    1.4980    2.4188    1.6741 H   0  0  0  0  0  0  0  0  0  0  0  0
    1.6603    4.9038    1.5301 H   0  0  0  0  0  0  0  0  0  0  0  0
    2.3006    6.0041   -0.6326 H   0  0  0  0  0  0  0  0  0  0  0  0
    2.8237    4.5935   -2.6394 H   0  0  0  0  0  0  0  0  0  0  0  0
    2.6869    2.1295   -2.5078 H   0  0  0  0  0  0  0  0  0  0  0  0
  1 17  1  0  0  0  0
  2 14  2  0  0  0  0
  4 14  1  1  0  0  0
  4  8  1  0  0  0  0
  5  9  1  6  0  0  0
  5  4  1  0  0  0  0
  5  6  1  0  0  0  0
  6  7  2  0  0  0  0
  7 10  1  0  0  0  0
  8  7  1  0  0  0  0
  8 30  1  0  0  0  0
 10 13  1  0  0  0  0
 10 11  1  0  0  0  0
 11 36  1  0  0  0  0
 11 35  1  0  0  0  0
 12 10  1  0  0  0  0
 12 38  1  0  0  0  0
 13 41  1  0  0  0  0
 14  3  1  0  0  0  0
 15  3  1  0  0  0  0
 15 43  1  0  0  0  0
 16 46  1  0  0  0  0
 16 15  1  0  0  0  0
 16  1  1  0  0  0  0
 17 18  2  0  0  0  0
 17 22  1  0  0  0  0
 18 19  1  0  0  0  0
 19 48  1  0  0  0  0
 19 20  2  0  0  0  0
 20 49  1  0  0  0  0
 21 20  1  0  0  0  0
 21 50  1  0  0  0  0
 22 21  2  0  0  0  0
 23  1  1  0  0  0  0
 23 24  1  0  0  0  0
 24 52  1  0  0  0  0
 25 24  2  0  0  0  0
 25 53  1  0  0  0  0
 26 25  1  0  0  0  0
 27 28  1  0  0  0  0
 27 26  2  0  0  0  0
 28 23  2  0  0  0  0
 29  6  1  0  0  0  0
 31  9  1  0  0  0  0
 32  9  1  0  0  0  0
 33  9  1  0  0  0  0
 34 11  1  0  0  0  0
 37 12  1  0  0  0  0
 39 12  1  0  0  0  0
 40 13  1  0  0  0  0
 42 13  1  0  0  0  0
 44 15  1  0  0  0  0
 45 16  1  0  0  0  0
 47 18  1  0  0  0  0
 51 22  1  0  0  0  0
 54 26  1  0  0  0  0
 55 27  1  0  0  0  0
 56 28  1  0  0  0  0
M  END
