3
q = -1.0, confidence = 0.0

 15 16  0  0  0  0  0  0  0  0999 V2000
    1.1089   -0.0518   -0.8533 N   0  0  0  0  0  0  0  0  0  0  0  0
    2.2874    0.0710    1.2412 N   0  0  0  0  0  2  0  0  0  0  0  0
    1.1733    0.0300    0.5351 C   0  0  0  0  0  3  0  0  0  0  0  0
    3.4770    0.0282    0.5174 C   0  0  0  0  0  0  0  0  0  0  0  0
    4.7160    0.0685    1.1976 C   0  0  0  0  0  0  0  0  0  0  0  0
    4.6896    0.1331    2.2955 H   0  0  0  0  0  0  0  0  0  0  0  0
    5.9252    0.0277    0.4929 C   0  0  0  0  0  0  0  0  0  0  0  0
    6.8780    0.0606    1.0439 H   0  0  0  0  0  0  0  0  0  0  0  0
    5.9336   -0.0549   -0.9147 C   0  0  0  0  0  0  0  0  0  0  0  0
    6.8879   -0.0864   -1.4618 H   0  0  0  0  0  0  0  0  0  0  0  0
    4.7208   -0.0966   -1.6127 C   0  0  0  0  0  0  0  0  0  0  0  0
    4.7116   -0.1612   -2.7135 H   0  0  0  0  0  0  0  0  0  0  0  0
    3.4906   -0.0564   -0.9205 C   0  0  0  0  0  0  0  0  0  0  0  0
    2.2062   -0.0954   -1.5829 C   0  0  0  0  0  3  0  0  0  0  0  0
    2.1313   -0.1598   -2.6835 H   0  0  0  0  0  0  0  0  0  0  0  0
  1  3  2  0  0  0  0
  3  2  1  0  0  0  0
  4  5  1  0  0  0  0
  4  2  1  0  0  0  0
  5  6  1  0  0  0  0
  7  8  1  0  0  0  0
  7  5  2  0  0  0  0
  9  7  1  0  0  0  0
 10  9  1  0  0  0  0
 11 13  1  0  0  0  0
 11  9  2  0  0  0  0
 12 11  1  0  0  0  0
 13  4  2  0  0  0  0
 14 13  1  0  0  0  0
 14  1  1  0  0  0  0
 15 14  1  0  0  0  0
M  END
