5
q = 0.0, confidence = 0.956

 17 17  0  0  0  0  0  0  0  0999 V2000
    4.8585    1.0815   -0.6783 C   0  0  0  0  0  0  0  0  0  0  0  0
    5.5923    0.3322    0.2560 C   0  0  0  0  0  0  0  0  0  0  0  0
    4.9938   -0.7548    0.9134 C   0  0  0  0  0  0  0  0  0  0  0  0
    3.6593   -1.0943    0.6429 C   0  0  0  0  0  0  0  0  0  0  0  0
    0.1827    0.2232    0.2707 C   0  0  0  0  0  2  0  0  0  0  0  0
    0.8349    1.2232    1.1787 C   0  0  0  0  0  0  0  0  0  0  0  0
    2.9252   -0.3352   -0.2877 C   0  0  0  0  0  0  0  0  0  0  0  0
    3.5247    0.7487   -0.9568 C   0  0  0  0  0  0  0  0  0  0  0  0
    5.3289    1.9293   -1.1987 H   0  0  0  0  0  0  0  0  0  0  0  0
    6.6391    0.5949    0.4702 H   0  0  0  0  0  0  0  0  0  0  0  0
    5.5694   -1.3452    1.6422 H   0  0  0  0  0  0  0  0  0  0  0  0
    3.1815   -1.9446    1.1524 H   0  0  0  0  0  0  0  0  0  0  0  0
    1.0772    2.1304    0.5796 H   0  0  0  0  0  0  0  0  0  0  0  0
    0.1487    1.5473    1.9823 H   0  0  0  0  0  0  0  0  0  0  0  0
    1.7937    0.8762    1.6167 H   0  0  0  0  0  0  0  0  0  0  0  0
    2.9443    1.3246   -1.6936 H   0  0  0  0  0  0  0  0  0  0  0  0
    1.2200   -0.7850   -0.6594 S   0  0  0  0  0  0  0  0  0  0  0  0
  1  2  1  0  0  0  0
  2 10  1  0  0  0  0
  2  3  2  0  0  0  0
  3 11  1  0  0  0  0
  4  3  1  0  0  0  0
  4 12  1  0  0  0  0
  5  6  1  0  0  0  0
  6 15  1  0  0  0  0
  6 14  1  0  0  0  0
  7  4  2  0  0  0  0
  8  1  2  0  0  0  0
  8  7  1  0  0  0  0
  9  1  1  0  0  0  0
 13  6  1  0  0  0  0
 16  8  1  0  0  0  0
 17  7  1  0  0  0  0
 17  5  1  0  0  0  0
M  END
