1
q = -1.0

 21 22  0  0  0  0  0  0  0  0999 V2000
    2.1147    0.9608    0.0992 C   0  0  0  0  0  3  0  0  0  0  0  0
    2.7193    2.0825    0.6553 C   0  0  0  0  0  0  0  0  0  0  0  0
    4.1172    1.8240    0.8180 C   0  0  0  0  0  0  0  0  0  0  0  0
    5.1200    2.7739    1.4019 C   0  0  0  0  0  0  0  0  0  0  0  0
    4.3154    0.5240    0.3481 C   0  0  0  0  0  0  0  0  0  0  0  0
    5.4647   -0.3630    0.2429 C   0  0  0  0  0  0  0  0  0  0  0  0
    5.2719   -1.7478   -0.0043 C   0  0  0  0  0  0  0  0  0  0  0  0
    6.3626   -2.6171   -0.1077 C   0  0  0  0  0  0  0  0  0  0  0  0
    7.6759   -2.1368    0.0348 C   0  0  0  0  0  0  0  0  0  0  0  0
    7.8818   -0.7691    0.2772 C   0  0  0  0  0  0  0  0  0  0  0  0
    6.7955    0.1094    0.3769 C   0  0  0  0  0  0  0  0  0  0  0  0
    3.1105    0.0129   -0.0734 O   0  0  0  0  0  0  0  0  0  0  0  0
    2.2072    3.0126    0.9290 H   0  0  0  0  0  0  0  0  0  0  0  0
    5.7677    2.2815    2.1561 H   0  0  0  0  0  0  0  0  0  0  0  0
    5.7921    3.2048    0.6285 H   0  0  0  0  0  0  0  0  0  0  0  0
    4.6084    3.6214    1.8981 H   0  0  0  0  0  0  0  0  0  0  0  0
    4.2454   -2.1286   -0.1007 H   0  0  0  0  0  0  0  0  0  0  0  0
    6.1859   -3.6877   -0.2955 H   0  0  0  0  0  0  0  0  0  0  0  0
    8.5323   -2.8234   -0.0439 H   0  0  0  0  0  0  0  0  0  0  0  0
    8.9051   -0.3766    0.3831 H   0  0  0  0  0  0  0  0  0  0  0  0
    6.9832    1.1779    0.5431 H   0  0  0  0  0  0  0  0  0  0  0  0
  1  2  2  0  0  0  0
  2  3  1  0  0  0  0
  2 13  1  0  0  0  0
  3  4  1  0  0  0  0
  4 16  1  0  0  0  0
  4 14  1  0  0  0  0
  5  3  2  0  0  0  0
  6  5  1  0  0  0  0
  6 11  1  0  0  0  0
  7  6  2  0  0  0  0
  8  7  1  0  0  0  0
  8  9  2  0  0  0  0
  9 10  1  0  0  0  0
 10 11  2  0  0  0  0
 10 20  1  0  0  0  0
 11 21  1  0  0  0  0
 12  1  1  0  0  0  0
 12  5  1  0  0  0  0
 15  4  1  0  0  0  0
 17  7  1  0  0  0  0
 18  8  1  0  0  0  0
 19  9  1  0  0  0  0
M  END
