2
q = -1.0

 29 30  0  0  1  0  0  0  0  0999 V2000
   -1.1043   -0.9101   -2.2737 C   0  0  0  0  0  0  0  0  0  0  0  0
   -1.1536    0.3616   -1.6126 C   0  0  1  0  0  3  0  0  0  0  0  0
    0.2077    0.8203   -1.5232 C   0  0  0  0  0  0  0  0  0  0  0  0
    1.0686   -0.1438   -2.1205 C   0  0  0  0  0  0  0  0  0  0  0  0
    0.2441   -1.2305   -2.5858 C   0  0  0  0  0  0  0  0  0  0  0  0
   -2.3643    1.0640   -1.1522 C   0  0  0  0  0  0  0  0  0  0  0  0
   -3.5943    0.3815   -0.9996 C   0  0  0  0  0  0  0  0  0  0  0  0
   -4.7374    1.0499   -0.5518 C   0  0  0  0  0  0  0  0  0  0  0  0
   -4.7095    2.4237   -0.2284 C   0  0  0  0  0  0  0  0  0  0  0  0
   -3.4846    3.1032   -0.3829 C   0  0  0  0  0  0  0  0  0  0  0  0
   -2.3373    2.4423   -0.8413 C   0  0  0  0  0  0  0  0  0  0  0  0
    2.5474   -0.0204   -2.3256 C   0  0  0  0  0  0  0  0  0  0  0  0
    0.7235   -2.4303   -3.3415 C   0  0  0  0  0  0  0  0  0  0  0  0
   -5.9520    3.1341    0.2441 C   0  0  0  0  0  0  0  0  0  0  0  0
   -1.9663   -1.5434   -2.5086 H   0  0  0  0  0  0  0  0  0  0  0  0
    0.5525    1.7693   -1.0976 H   0  0  0  0  0  0  0  0  0  0  0  0
   -3.6422   -0.6994   -1.1942 H   0  0  0  0  0  0  0  0  0  0  0  0
   -5.6768    0.4865   -0.4332 H   0  0  0  0  0  0  0  0  0  0  0  0
   -3.4309    4.1779   -0.1468 H   0  0  0  0  0  0  0  0  0  0  0  0
   -1.4057    3.0123   -0.9760 H   0  0  0  0  0  0  0  0  0  0  0  0
    2.9620    0.8488   -1.7821 H   0  0  0  0  0  0  0  0  0  0  0  0
    2.7719    0.1087   -3.4060 H   0  0  0  0  0  0  0  0  0  0  0  0
    3.0806   -0.9289   -1.9815 H   0  0  0  0  0  0  0  0  0  0  0  0
    1.0402   -2.1432   -4.3669 H   0  0  0  0  0  0  0  0  0  0  0  0
    1.5921   -2.8990   -2.8374 H   0  0  0  0  0  0  0  0  0  0  0  0
   -0.0736   -3.1927   -3.4294 H   0  0  0  0  0  0  0  0  0  0  0  0
   -6.4743    2.5570    1.0343 H   0  0  0  0  0  0  0  0  0  0  0  0
   -6.6777    3.2675   -0.5867 H   0  0  0  0  0  0  0  0  0  0  0  0
   -5.7210    4.1386    0.6484 H   0  0  0  0  0  0  0  0  0  0  0  0
  1  2  1  0  0  0  0
  2  3  1  0  0  0  0
  2  6  1  6  0  0  0
  3 16  1  0  0  0  0
  4  3  2  0  0  0  0
  5  1  2  0  0  0  0
  5  4  1  0  0  0  0
  6  7  2  0  0  0  0
  6 11  1  0  0  0  0
  7  8  1  0  0  0  0
  8 18  1  0  0  0  0
  8  9  2  0  0  0  0
  9 14  1  0  0  0  0
 10  9  1  0  0  0  0
 10 19  1  0  0  0  0
 11 10  2  0  0  0  0
 12  4  1  0  0  0  0
 12 23  1  0  0  0  0
 12 21  1  0  0  0  0
 13 25  1  0  0  0  0
 13  5  1  0  0  0  0
 14 29  1  0  0  0  0
 14 27  1  0  0  0  0
 15  1  1  0  0  0  0
 17  7  1  0  0  0  0
 20 11  1  0  0  0  0
 22 12  1  0  0  0  0
 24 13  1  0  0  0  0
 26 13  1  0  0  0  0
 28 14  1  0  0  0  0
M  END
