1
q = 0.0, confidence = 0.986

 63 63  0  0  1  0  0  0  0  0999 V2000
    0.5105   -1.1569    0.1811 C   0  0  0  0  0  2  0  0  0  0  0  0
    0.2823   -2.4661    0.4599 O   0  0  0  0  0  0  0  0  0  0  0  0
    1.3049   -3.4705    0.4421 C   0  0  0  0  0  0  0  0  0  0  0  0
    0.6547   -4.7883    0.8185 C   0  0  0  0  0  0  0  0  0  0  0  0
   -0.7792   -0.5251    0.0997 C   0  0  2  0  0  3  0  0  0  0  0  0
   -1.9229   -1.3332   -0.2467 C   0  0  2  0  0  3  0  0  0  0  0  0
   -1.8244   -2.3452   -1.3613 C   0  0  0  0  0  0  0  0  0  0  0  0
   -3.1235   -1.1458    0.3400 N   0  0  0  0  0  0  0  0  0  0  0  0
   -4.3640   -1.7834   -0.1229 C   0  0  0  0  0  0  0  0  0  0  0  0
   -5.3878   -0.8047   -0.7317 C   0  0  0  0  0  0  0  0  0  0  0  0
   -6.7328   -1.5200   -0.9014 C   0  0  0  0  0  0  0  0  0  0  0  0
   -4.8853   -0.2101   -2.0486 C   0  0  0  0  0  0  0  0  0  0  0  0
   -3.2560   -0.4239    1.6207 C   0  0  0  0  0  0  0  0  0  0  0  0
   -2.4513   -1.0485    2.7742 C   0  0  0  0  0  0  0  0  0  0  0  0
   -2.6533   -0.1977    4.0316 C   0  0  0  0  0  0  0  0  0  0  0  0
   -2.8061   -2.5207    3.0022 C   0  0  0  0  0  0  0  0  0  0  0  0
   -0.9623    0.9218    0.3356 C   0  0  0  0  0  0  0  0  0  0  0  0
   -1.7494    1.6567   -0.6938 C   0  0  0  0  0  0  0  0  0  0  0  0
   -1.4882    1.3858   -2.0582 C   0  0  0  0  0  0  0  0  0  0  0  0
   -2.1776    2.0669   -3.0701 C   0  0  0  0  0  0  0  0  0  0  0  0
   -3.1675    3.0055   -2.7366 C   0  0  0  0  0  0  0  0  0  0  0  0
   -3.4535    3.2640   -1.3863 C   0  0  0  0  0  0  0  0  0  0  0  0
   -2.7427    2.6066   -0.3726 C   0  0  0  0  0  0  0  0  0  0  0  0
   -0.3212    1.5032    1.4005 C   0  0  0  0  0  0  0  0  0  0  0  0
   -0.1145    2.9440    1.6496 C   0  0  0  0  0  0  0  0  0  0  0  0
   -0.7895    3.8916    1.2767 O   0  0  0  0  0  0  0  0  0  0  0  0
    1.0201    3.0972    2.3950 O   0  0  0  0  0  0  0  0  0  0  0  0
    1.4050    4.4499    2.6456 C   0  0  0  0  0  0  0  0  0  0  0  0
    2.0979   -3.1839    1.1624 H   0  0  0  0  0  0  0  0  0  0  0  0
    1.7661   -3.5111   -0.5667 H   0  0  0  0  0  0  0  0  0  0  0  0
    0.1886   -4.7268    1.8223 H   0  0  0  0  0  0  0  0  0  0  0  0
    1.4156   -5.5930    0.8372 H   0  0  0  0  0  0  0  0  0  0  0  0
   -0.1296   -5.0720    0.0884 H   0  0  0  0  0  0  0  0  0  0  0  0
   -0.7919   -2.3975   -1.7402 H   0  0  0  0  0  0  0  0  0  0  0  0
   -2.4638   -2.0141   -2.2064 H   0  0  0  0  0  0  0  0  0  0  0  0
   -2.1548   -3.3608   -1.0635 H   0  0  0  0  0  0  0  0  0  0  0  0
   -4.8133   -2.2953    0.7540 H   0  0  0  0  0  0  0  0  0  0  0  0
   -4.1262   -2.5696   -0.8613 H   0  0  0  0  0  0  0  0  0  0  0  0
   -5.5280    0.0289   -0.0069 H   0  0  0  0  0  0  0  0  0  0  0  0
   -7.1242   -1.9028    0.0636 H   0  0  0  0  0  0  0  0  0  0  0  0
   -6.6394   -2.3831   -1.5945 H   0  0  0  0  0  0  0  0  0  0  0  0
   -7.4923   -0.8351   -1.3276 H   0  0  0  0  0  0  0  0  0  0  0  0
   -5.5910    0.5508   -2.4358 H   0  0  0  0  0  0  0  0  0  0  0  0
   -4.7848   -0.9985   -2.8252 H   0  0  0  0  0  0  0  0  0  0  0  0
   -3.9040    0.2867   -1.9290 H   0  0  0  0  0  0  0  0  0  0  0  0
   -4.3337   -0.4286    1.8791 H   0  0  0  0  0  0  0  0  0  0  0  0
   -2.9686    0.6365    1.4964 H   0  0  0  0  0  0  0  0  0  0  0  0
   -1.3787   -0.9975    2.4923 H   0  0  0  0  0  0  0  0  0  0  0  0
   -2.0439   -0.5845    4.8723 H   0  0  0  0  0  0  0  0  0  0  0  0
   -3.7157   -0.2032    4.3575 H   0  0  0  0  0  0  0  0  0  0  0  0
   -2.3545    0.8560    3.8569 H   0  0  0  0  0  0  0  0  0  0  0  0
   -2.6021   -3.1334    2.1008 H   0  0  0  0  0  0  0  0  0  0  0  0
   -3.8765   -2.6447    3.2748 H   0  0  0  0  0  0  0  0  0  0  0  0
   -2.2020   -2.9452    3.8290 H   0  0  0  0  0  0  0  0  0  0  0  0
   -0.7108    0.6509   -2.3157 H   0  0  0  0  0  0  0  0  0  0  0  0
   -1.9411    1.8615   -4.1251 H   0  0  0  0  0  0  0  0  0  0  0  0
   -3.7168    3.5357   -3.5294 H   0  0  0  0  0  0  0  0  0  0  0  0
   -4.2289    3.9975   -1.1178 H   0  0  0  0  0  0  0  0  0  0  0  0
   -2.9454    2.8408    0.6806 H   0  0  0  0  0  0  0  0  0  0  0  0
    0.2441    0.8411    2.0714 H   0  0  0  0  0  0  0  0  0  0  0  0
    1.6206    4.9781    1.6942 H   0  0  0  0  0  0  0  0  0  0  0  0
    2.3142    4.3985    3.2707 H   0  0  0  0  0  0  0  0  0  0  0  0
    0.5995    5.0027    3.1711 H   0  0  0  0  0  0  0  0  0  0  0  0
  1  2  1  0  0  0  0
  3  2  1  0  0  0  0
  3  4  1  0  0  0  0
  3 29  1  0  0  0  0
  4 32  1  0  0  0  0
  4 31  1  0  0  0  0
  5  1  1  6  0  0  0
  5 17  1  0  0  0  0
  6  7  1  6  0  0  0
  6  5  1  0  0  0  0
  6  8  1  0  0  0  0
  7 36  1  0  0  0  0
  8 13  1  0  0  0  0
  9  8  1  0  0  0  0
  9 37  1  0  0  0  0
 10  9  1  0  0  0  0
 10 39  1  0  0  0  0
 11 10  1  0  0  0  0
 11 40  1  0  0  0  0
 12 45  1  0  0  0  0
 12 10  1  0  0  0  0
 13 46  1  0  0  0  0
 13 14  1  0  0  0  0
 14 16  1  0  0  0  0
 14 15  1  0  0  0  0
 15 50  1  0  0  0  0
 15 49  1  0  0  0  0
 16 53  1  0  0  0  0
 16 54  1  0  0  0  0
 17 24  2  0  0  0  0
 18 23  1  0  0  0  0
 18 17  1  0  0  0  0
 19 18  2  0  0  0  0
 20 21  2  0  0  0  0
 20 19  1  0  0  0  0
 21 22  1  0  0  0  0
 22 58  1  0  0  0  0
 22 23  2  0  0  0  0
 23 59  1  0  0  0  0
 24 25  1  0  0  0  0
 24 60  1  0  0  0  0
 25 27  1  0  0  0  0
 26 25  2  0  0  0  0
 27 28  1  0  0  0  0
 28 63  1  0  0  0  0
 28 62  1  0  0  0  0
 30  3  1  0  0  0  0
 33  4  1  0  0  0  0
 34  7  1  0  0  0  0
 35  7  1  0  0  0  0
 38  9  1  0  0  0  0
 41 11  1  0  0  0  0
 42 11  1  0  0  0  0
 43 12  1  0  0  0  0
 44 12  1  0  0  0  0
 47 13  1  0  0  0  0
 48 14  1  0  0  0  0
 51 15  1  0  0  0  0
 52 16  1  0  0  0  0
 55 19  1  0  0  0  0
 56 20  1  0  0  0  0
 57 21  1  0  0  0  0
 61 28  1  0  0  0  0
M  END
