4
q = -1.0, confidence = 0.022

 79 79  0  0  0  0  0  0  0  0999 V2000
   -2.3396   -0.4953   -0.0560 P   0  0  0  0  0  0  0  0  0  0  0  0
    2.3364   -0.5038   -0.0555 P   0  0  0  0  0  0  0  0  0  0  0  0
   -0.0599    5.1862   -0.0791 O   0  0  0  0  0  0  0  0  0  0  0  0
   -0.0005   -0.0144   -1.9999 C   0  0  0  0  0  3  0  0  0  0  0  0
   -0.0001    1.2319   -1.2296 C   0  0  0  0  0  0  0  0  0  0  0  0
   -1.2634    1.9002   -0.9532 C   0  0  0  0  0  0  0  0  0  0  0  0
   -1.2661    3.2441   -0.5709 C   0  0  0  0  0  0  0  0  0  0  0  0
   -0.0030    3.8910   -0.4232 C   0  0  0  0  0  0  0  0  0  0  0  0
    1.2595    3.2403   -0.5710 C   0  0  0  0  0  0  0  0  0  0  0  0
    1.2636    1.8954   -0.9517 C   0  0  0  0  0  0  0  0  0  0  0  0
   -2.4899    4.0780   -0.3033 C   0  0  0  0  0  0  0  0  0  0  0  0
    2.4890    4.0723   -0.3027 C   0  0  0  0  0  0  0  0  0  0  0  0
   -2.5292    1.0805   -1.0663 C   0  0  0  0  0  0  0  0  0  0  0  0
   -2.9455   -0.0507    1.6991 C   0  0  0  0  0  0  0  0  0  0  0  0
   -3.4624   -1.7662   -0.9272 C   0  0  0  0  0  0  0  0  0  0  0  0
   -2.5316   -1.1798    2.6629 C   0  0  0  0  0  0  0  0  0  0  0  0
   -2.1978    1.2308    2.1147 C   0  0  0  0  0  0  0  0  0  0  0  0
   -4.4595    0.1957    1.7713 C   0  0  0  0  0  0  0  0  0  0  0  0
   -3.6905   -2.9677    0.0084 C   0  0  0  0  0  0  0  0  0  0  0  0
   -2.6862   -2.2523   -2.1672 C   0  0  0  0  0  0  0  0  0  0  0  0
   -4.8054   -1.1597   -1.3690 C   0  0  0  0  0  0  0  0  0  0  0  0
    2.5298    1.0753   -1.0628 C   0  0  0  0  0  0  0  0  0  0  0  0
    3.4588   -1.7730   -0.9301 C   0  0  0  0  0  0  0  0  0  0  0  0
    2.9459   -0.0635    1.6998 C   0  0  0  0  0  0  0  0  0  0  0  0
    3.6827   -2.9773    0.0029 C   0  0  0  0  0  0  0  0  0  0  0  0
    2.6818   -2.2546   -2.1715 C   0  0  0  0  0  0  0  0  0  0  0  0
    4.8034   -1.1691   -1.3698 C   0  0  0  0  0  0  0  0  0  0  0  0
    2.5317   -1.1948    2.6610 C   0  0  0  0  0  0  0  0  0  0  0  0
    4.4599    0.1820    1.7727 C   0  0  0  0  0  0  0  0  0  0  0  0
    2.1981    1.2166    2.1198 C   0  0  0  0  0  0  0  0  0  0  0  0
    0.8449    5.5496    0.0064 H   0  0  0  0  0  0  0  0  0  0  0  0
    0.9061   -0.2577   -2.5742 H   0  0  0  0  0  0  0  0  0  0  0  0
   -0.9077   -0.2551   -2.5745 H   0  0  0  0  0  0  0  0  0  0  0  0
   -2.5130    4.9559   -0.9806 H   0  0  0  0  0  0  0  0  0  0  0  0
   -2.4737    4.4890    0.7268 H   0  0  0  0  0  0  0  0  0  0  0  0
   -3.4309    3.5199   -0.4431 H   0  0  0  0  0  0  0  0  0  0  0  0
    2.5042    4.4678    0.7371 H   0  0  0  0  0  0  0  0  0  0  0  0
    2.5485    4.9392   -0.9981 H   0  0  0  0  0  0  0  0  0  0  0  0
    3.4278    3.5103   -0.4424 H   0  0  0  0  0  0  0  0  0  0  0  0
   -2.7001    0.7708   -2.1188 H   0  0  0  0  0  0  0  0  0  0  0  0
   -3.4302    1.6409   -0.7618 H   0  0  0  0  0  0  0  0  0  0  0  0
   -1.4411   -1.3689    2.6306 H   0  0  0  0  0  0  0  0  0  0  0  0
   -3.0390   -2.1369    2.4499 H   0  0  0  0  0  0  0  0  0  0  0  0
   -2.8013   -0.8780    3.6963 H   0  0  0  0  0  0  0  0  0  0  0  0
   -2.5368    2.1216    1.5549 H   0  0  0  0  0  0  0  0  0  0  0  0
   -1.1010    1.1293    1.9809 H   0  0  0  0  0  0  0  0  0  0  0  0
   -2.3926    1.4225    3.1901 H   0  0  0  0  0  0  0  0  0  0  0  0
   -4.8005    0.9710    1.0555 H   0  0  0  0  0  0  0  0  0  0  0  0
   -4.7161    0.5567    2.7894 H   0  0  0  0  0  0  0  0  0  0  0  0
   -5.0453   -0.7261    1.5956 H   0  0  0  0  0  0  0  0  0  0  0  0
   -4.3365   -2.7134    0.8700 H   0  0  0  0  0  0  0  0  0  0  0  0
   -2.7334   -3.3817    0.3821 H   0  0  0  0  0  0  0  0  0  0  0  0
   -4.2082   -3.7659   -0.5631 H   0  0  0  0  0  0  0  0  0  0  0  0
   -2.5493   -1.4518   -2.9228 H   0  0  0  0  0  0  0  0  0  0  0  0
   -3.2715   -3.0552   -2.6611 H   0  0  0  0  0  0  0  0  0  0  0  0
   -1.6954   -2.6639   -1.8923 H   0  0  0  0  0  0  0  0  0  0  0  0
   -4.6799   -0.3234   -2.0851 H   0  0  0  0  0  0  0  0  0  0  0  0
   -5.4173   -0.8037   -0.5209 H   0  0  0  0  0  0  0  0  0  0  0  0
   -5.3917   -1.9438   -1.8926 H   0  0  0  0  0  0  0  0  0  0  0  0
    3.4333    1.6311   -0.7563 H   0  0  0  0  0  0  0  0  0  0  0  0
    2.7014    0.7669   -2.1156 H   0  0  0  0  0  0  0  0  0  0  0  0
    4.3301   -2.7275    0.8648 H   0  0  0  0  0  0  0  0  0  0  0  0
    4.1970   -3.7764   -0.5704 H   0  0  0  0  0  0  0  0  0  0  0  0
    2.7241   -3.3885    0.3760 H   0  0  0  0  0  0  0  0  0  0  0  0
    2.5474   -1.4524   -2.9259 H   0  0  0  0  0  0  0  0  0  0  0  0
    1.6897   -2.6636   -1.8978 H   0  0  0  0  0  0  0  0  0  0  0  0
    3.2650   -3.0583   -2.6665 H   0  0  0  0  0  0  0  0  0  0  0  0
    5.4161   -0.8168   -0.5206 H   0  0  0  0  0  0  0  0  0  0  0  0
    4.6803   -0.3308   -2.0841 H   0  0  0  0  0  0  0  0  0  0  0  0
    5.3881   -1.9531   -1.8952 H   0  0  0  0  0  0  0  0  0  0  0  0
    1.4419   -1.3873    2.6244 H   0  0  0  0  0  0  0  0  0  0  0  0
    2.7972   -0.8940    3.6957 H   0  0  0  0  0  0  0  0  0  0  0  0
    3.0428   -2.1499    2.4481 H   0  0  0  0  0  0  0  0  0  0  0  0
    4.8019    0.9585    1.0584 H   0  0  0  0  0  0  0  0  0  0  0  0
    5.0450   -0.7396    1.5941 H   0  0  0  0  0  0  0  0  0  0  0  0
    4.7175    0.5399    2.7917 H   0  0  0  0  0  0  0  0  0  0  0  0
    1.1014    1.1170    1.9845 H   0  0  0  0  0  0  0  0  0  0  0  0
    2.5386    2.1081    1.5619 H   0  0  0  0  0  0  0  0  0  0  0  0
    2.3926    1.4056    3.1958 H   0  0  0  0  0  0  0  0  0  0  0  0
  1 14  1  0  0  0  0
  2 24  1  0  0  0  0
  3 31  1  0  0  0  0
  4  5  1  0  0  0  0
  5  6  2  0  0  0  0
  5 10  1  0  0  0  0
  6  7  1  0  0  0  0
  7  8  2  0  0  0  0
  7 11  1  0  0  0  0
  8  3  1  0  0  0  0
  9  8  1  0  0  0  0
  9 12  1  0  0  0  0
 10  9  2  0  0  0  0
 11 35  1  0  0  0  0
 12 37  1  0  0  0  0
 13  6  1  0  0  0  0
 13 41  1  0  0  0  0
 13  1  1  0  0  0  0
 14 18  1  0  0  0  0
 14 17  1  0  0  0  0
 14 16  1  0  0  0  0
 15  1  1  0  0  0  0
 15 19  1  0  0  0  0
 16 44  1  0  0  0  0
 17 47  1  0  0  0  0
 18 49  1  0  0  0  0
 19 52  1  0  0  0  0
 19 51  1  0  0  0  0
 20 56  1  0  0  0  0
 20 15  1  0  0  0  0
 21 15  1  0  0  0  0
 21 58  1  0  0  0  0
 22 10  1  0  0  0  0
 22 60  1  0  0  0  0
 22  2  1  0  0  0  0
 23  2  1  0  0  0  0
 23 25  1  0  0  0  0
 24 29  1  0  0  0  0
 24 30  1  0  0  0  0
 24 28  1  0  0  0  0
 25 64  1  0  0  0  0
 25 62  1  0  0  0  0
 26 66  1  0  0  0  0
 26 23  1  0  0  0  0
 27 23  1  0  0  0  0
 27 68  1  0  0  0  0
 28 72  1  0  0  0  0
 29 76  1  0  0  0  0
 30 79  1  0  0  0  0
 32  4  1  0  0  0  0
 33  4  1  0  0  0  0
 34 11  1  0  0  0  0
 36 11  1  0  0  0  0
 38 12  1  0  0  0  0
 39 12  1  0  0  0  0
 40 13  1  0  0  0  0
 42 16  1  0  0  0  0
 43 16  1  0  0  0  0
 45 17  1  0  0  0  0
 46 17  1  0  0  0  0
 48 18  1  0  0  0  0
 50 18  1  0  0  0  0
 53 19  1  0  0  0  0
 54 20  1  0  0  0  0
 55 20  1  0  0  0  0
 57 21  1  0  0  0  0
 59 21  1  0  0  0  0
 61 22  1  0  0  0  0
 63 25  1  0  0  0  0
 65 26  1  0  0  0  0
 67 26  1  0  0  0  0
 69 27  1  0  0  0  0
 70 27  1  0  0  0  0
 71 28  1  0  0  0  0
 73 28  1  0  0  0  0
 74 29  1  0  0  0  0
 75 29  1  0  0  0  0
 77 30  1  0  0  0  0
 78 30  1  0  0  0  0
M  END
