2
q = 0.0, confidence = 0.992

 12 12  0  0  0  0  0  0  0  0999 V2000
    1.4010    0.7244    2.6915 N   0  0  0  0  0  0  0  0  0  0  0  0
    1.4990   -0.1956    1.6820 C   0  0  0  0  0  2  0  0  0  0  0  0
    1.4533   -1.3917    2.3410 N   0  0  0  0  0  0  0  0  0  0  0  0
    1.3278   -1.2450    3.7117 C   0  0  0  0  0  0  0  0  0  0  0  0
    1.2911   -2.0913    4.4036 H   0  0  0  0  0  0  0  0  0  0  0  0
    1.2905    0.1043    3.9345 C   0  0  0  0  0  0  0  0  0  0  0  0
    1.2060    0.6740    4.8646 H   0  0  0  0  0  0  0  0  0  0  0  0
    1.3919    2.1725    2.5354 C   0  0  0  0  0  0  0  0  0  0  0  0
    1.9764    2.4499    1.6431 H   0  0  0  0  0  0  0  0  0  0  0  0
    1.8630    2.6365    3.4212 H   0  0  0  0  0  0  0  0  0  0  0  0
    0.3569    2.5547    2.4361 H   0  0  0  0  0  0  0  0  0  0  0  0
    1.5601   -2.2857    1.8611 H   0  0  0  0  0  0  0  0  0  0  0  0
  1  6  1  0  0  0  0
  2  3  1  0  0  0  0
  2  1  1  0  0  0  0
  3  4  1  0  0  0  0
  4  6  2  0  0  0  0
  4  5  1  0  0  0  0
  6  7  1  0  0  0  0
  8  1  1  0  0  0  0
  8 10  1  0  0  0  0
  9  8  1  0  0  0  0
 11  8  1  0  0  0  0
 12  3  1  0  0  0  0
M  END
