8
q = -1.0

 13 13  0  0  0  0  0  0  0  0999 V2000
   -5.1670   -1.4327    1.1837 F   0  0  0  0  0  0  0  0  0  0  0  0
   -4.6724    2.1256   -1.8395 F   0  0  0  0  0  0  0  0  0  0  0  0
   -6.2381    0.3844   -0.4440 F   0  0  0  0  0  0  0  0  0  0  0  0
   -1.9678    2.0249   -1.6039 F   0  0  0  0  0  0  0  0  0  0  0  0
   -1.0827   -1.8341    1.4951 O   0  0  0  0  0  0  0  0  0  0  0  0
   -3.0279   -2.2102    2.3947 O   0  0  0  0  0  0  0  0  0  0  0  0
   -2.3036   -1.6424    1.5879 N   0  0  0  0  0  0  0  0  0  0  0  0
   -2.1010    0.2244   -0.0579 C   0  0  0  0  0  0  0  0  0  0  0  0
   -2.9262   -0.6566    0.6700 C   0  0  0  0  0  0  0  0  0  0  0  0
   -4.3353   -0.6144    0.5509 C   0  0  0  0  0  0  0  0  0  0  0  0
   -4.9142    0.3367   -0.3120 C   0  0  0  0  0  0  0  0  0  0  0  0
   -4.1087    1.2312   -1.0337 C   0  0  0  0  0  0  0  0  0  0  0  0
   -2.7095    1.1570   -0.8930 C   0  0  0  0  0  0  0  0  0  0  0  0
  2 12  1  0  0  0  0
  3 11  1  0  0  0  0
  4 13  1  0  0  0  0
  5  7  2  0  0  0  0
  7  6  2  0  0  0  0
  8  9  1  0  0  0  0
  9  7  1  0  0  0  0
 10  9  2  0  0  0  0
 10  1  1  0  0  0  0
 11 10  1  0  0  0  0
 12 13  1  0  0  0  0
 12 11  2  0  0  0  0
 13  8  2  0  0  0  0
M  END
