9
q = -1.0

 19 19  0  0  1  0  0  0  0  0999 V2000
    3.3369    0.8366    2.6926 Cl  0  0  0  0  0  0  0  0  0  0  0  0
    3.9926   -2.0286   -1.3824 Cl  0  0  0  0  0  0  0  0  0  0  0  0
    5.1411    0.6030   -2.0591 Cl  0  0  0  0  0  0  0  0  0  0  0  0
    6.1020   -0.6995    1.0827 O   0  0  0  0  0  0  0  0  0  0  0  0
   -0.5032    1.8089    1.8991 C   0  0  0  0  0  3  0  0  0  0  0  0
   -0.9040    2.6340    2.5139 H   0  0  0  0  0  0  0  0  0  0  0  0
   -0.5985    0.8279    2.3878 H   0  0  0  0  0  0  0  0  0  0  0  0
    0.6239    2.1301    1.0588 C   0  0  1  0  0  3  0  0  0  0  0  0
    0.8631    1.2375   -0.0404 C   0  0  0  0  0  2  0  0  0  0  0  0
    1.3425    3.4593    1.1381 C   0  0  0  0  0  0  0  0  0  0  0  0
    2.2203    3.3475    1.8088 H   0  0  0  0  0  0  0  0  0  0  0  0
    0.6894    4.2471    1.5642 H   0  0  0  0  0  0  0  0  0  0  0  0
    1.7142    3.7876    0.1480 H   0  0  0  0  0  0  0  0  0  0  0  0
    1.8959    0.6130   -0.6874 C   0  0  0  0  0  0  0  0  0  0  0  0
    1.7287    0.2184   -1.7034 H   0  0  0  0  0  0  0  0  0  0  0  0
    3.1563    0.3087   -0.1155 C   0  0  0  0  0  0  0  0  0  0  0  0
    3.8109    0.3288    1.1161 C   0  0  2  0  0  3  0  0  0  0  0  0
    5.0412   -0.3248    0.6432 C   0  0  0  0  0  0  0  0  0  0  0  0
    4.3444   -0.3702   -0.7746 C   0  0  0  0  0  0  0  0  0  0  0  0
  2 19  1  0  0  0  0
  3 19  1  0  0  0  0
  5  7  1  0  0  0  0
  5  6  1  0  0  0  0
  8  9  1  6  0  0  0
  8 10  1  0  0  0  0
  8  5  1  0  0  0  0
 10 12  1  0  0  0  0
 10 11  1  0  0  0  0
 13 10  1  0  0  0  0
 14 16  2  0  0  0  0
 14  9  1  0  0  0  0
 15 14  1  0  0  0  0
 16 17  1  0  0  0  0
 17  1  1  1  0  0  0
 18  4  2  0  0  0  0
 18 17  1  0  0  0  0
 19 16  1  0  0  0  0
 19 18  1  0  0  0  0
M  END
