14
q = -1.0

 14 14  0  0  0  0  0  0  0  0999 V2000
   -1.1321   -2.4726   -0.0002 O   0  0  0  0  0  0  0  0  0  0  0  0
   -1.7275   -3.2453    0.0002 H   0  0  0  0  0  0  0  0  0  0  0  0
   -0.0306    2.5934   -0.0001 O   0  0  0  0  0  0  0  0  0  0  0  0
   -1.2412    2.4171   -0.0001 C   0  0  0  0  0  0  0  0  0  0  0  0
   -1.9436    3.3006   -0.0001 H   0  0  0  0  0  0  0  0  0  0  0  0
   -1.9221    1.0968   -0.0001 C   0  0  0  0  0  0  0  0  0  0  0  0
   -3.3346    1.0775   -0.0001 C   0  0  0  0  0  0  0  0  0  0  0  0
   -3.8896    2.0288   -0.0001 H   0  0  0  0  0  0  0  0  0  0  0  0
   -4.0107   -0.1481   -0.0001 C   0  0  0  0  0  0  0  0  0  0  0  0
   -5.1103   -0.1795   -0.0000 H   0  0  0  0  0  0  0  0  0  0  0  0
   -3.2848   -1.3474   -0.0001 C   0  0  0  0  0  0  0  0  0  0  0  0
   -3.8163   -2.3139   -0.0001 H   0  0  0  0  0  0  0  0  0  0  0  0
   -1.8710   -1.3294   -0.0001 C   0  0  0  0  0  0  0  0  0  0  0  0
   -1.1796   -0.1033   -0.0001 C   0  0  0  0  0  3  0  0  0  0  0  0
  1 13  1  0  0  0  0
  1  2  1  0  0  0  0
  3  4  2  0  0  0  0
  4  5  1  0  0  0  0
  6  4  1  0  0  0  0
  6  7  1  0  0  0  0
  7  8  1  0  0  0  0
  7  9  2  0  0  0  0
  9 10  1  0  0  0  0
 11 12  1  0  0  0  0
 11  9  1  0  0  0  0
 13 11  2  0  0  0  0
 14  6  2  0  0  0  0
 14 13  1  0  0  0  0
M  END
