2
q = 0.0, confidence = 0.84

 33 34  0  0  0  0  0  0  0  0999 V2000
    0.1670    2.5304   -0.0973 O   0  0  0  0  0  0  0  0  0  0  0  0
   -1.2488    0.3179    0.0584 C   0  0  0  0  0  2  0  0  0  0  0  0
   -1.8544   -0.5978    0.1502 H   0  0  0  0  0  0  0  0  0  0  0  0
    1.1453    3.6129   -0.0041 C   0  0  0  0  0  0  0  0  0  0  0  0
    0.8366    4.3789   -0.7492 H   0  0  0  0  0  0  0  0  0  0  0  0
    2.4868    3.0242   -0.4150 C   0  0  0  0  0  0  0  0  0  0  0  0
    2.8167    2.2580    0.3160 H   0  0  0  0  0  0  0  0  0  0  0  0
    3.2479    3.8296   -0.4395 H   0  0  0  0  0  0  0  0  0  0  0  0
    2.4241    2.5530   -1.4142 H   0  0  0  0  0  0  0  0  0  0  0  0
    1.1486    4.1886    1.4074 C   0  0  0  0  0  0  0  0  0  0  0  0
    0.1558    4.5860    1.6942 H   0  0  0  0  0  0  0  0  0  0  0  0
    1.8838    5.0156    1.4729 H   0  0  0  0  0  0  0  0  0  0  0  0
    1.4253    3.3918    2.1252 H   0  0  0  0  0  0  0  0  0  0  0  0
   -1.1785    2.7658   -0.1027 C   0  0  0  0  0  0  0  0  0  0  0  0
   -1.7740    4.0272   -0.2159 C   0  0  0  0  0  0  0  0  0  0  0  0
   -1.1732    4.9417   -0.2988 H   0  0  0  0  0  0  0  0  0  0  0  0
   -3.1731    4.0987   -0.2364 C   0  0  0  0  0  0  0  0  0  0  0  0
   -3.6521    5.0859   -0.3378 H   0  0  0  0  0  0  0  0  0  0  0  0
   -3.9920    2.9555   -0.1342 C   0  0  0  0  0  0  0  0  0  0  0  0
   -3.3874    1.6841   -0.0082 C   0  0  0  0  0  0  0  0  0  0  0  0
   -1.9612    1.5800   -0.0078 C   0  0  0  0  0  0  0  0  0  0  0  0
   -5.5010    3.1203   -0.1481 C   0  0  0  0  0  0  0  0  0  0  0  0
   -5.8345    3.4663    0.8577 H   0  0  0  0  0  0  0  0  0  0  0  0
   -5.7752    3.9361   -0.8496 H   0  0  0  0  0  0  0  0  0  0  0  0
   -6.2422    1.8282   -0.4973 C   0  0  0  0  0  0  0  0  0  0  0  0
   -6.0853    1.5836   -1.5715 H   0  0  0  0  0  0  0  0  0  0  0  0
   -7.3345    1.9631   -0.3571 H   0  0  0  0  0  0  0  0  0  0  0  0
   -5.7120    0.6832    0.3664 C   0  0  0  0  0  0  0  0  0  0  0  0
   -6.2882   -0.2494    0.1963 H   0  0  0  0  0  0  0  0  0  0  0  0
   -5.8504    0.9462    1.4388 H   0  0  0  0  0  0  0  0  0  0  0  0
   -4.2283    0.4267    0.0856 C   0  0  0  0  0  0  0  0  0  0  0  0
   -3.8095   -0.2510    0.8564 H   0  0  0  0  0  0  0  0  0  0  0  0
   -4.1219   -0.1382   -0.8681 H   0  0  0  0  0  0  0  0  0  0  0  0
  1  4  1  0  0  0  0
  2  3  1  0  0  0  0
  4 10  1  0  0  0  0
  5  4  1  0  0  0  0
  6  4  1  0  0  0  0
  6  7  1  0  0  0  0
  8  6  1  0  0  0  0
  9  6  1  0  0  0  0
 10 12  1  0  0  0  0
 10 11  1  0  0  0  0
 10 13  1  0  0  0  0
 14  1  1  0  0  0  0
 14 21  1  0  0  0  0
 15 14  2  0  0  0  0
 16 15  1  0  0  0  0
 17 15  1  0  0  0  0
 17 19  2  0  0  0  0
 18 17  1  0  0  0  0
 19 20  1  0  0  0  0
 20 21  2  0  0  0  0
 20 31  1  0  0  0  0
 21  2  1  0  0  0  0
 22 19  1  0  0  0  0
 22 23  1  0  0  0  0
 24 22  1  0  0  0  0
 25 27  1  0  0  0  0
 25 22  1  0  0  0  0
 25 28  1  0  0  0  0
 26 25  1  0  0  0  0
 28 30  1  0  0  0  0
 29 28  1  0  0  0  0
 31 28  1  0  0  0  0
 31 32  1  0  0  0  0
 33 31  1  0  0  0  0
M  END
