1
q = 0.0, confidence = 0.986

 58 62  0  0  1  0  0  0  0  0999 V2000
    0.9581    0.0179    0.6851 C   0  0  0  0  0  2  0  0  0  0  0  0
    1.7174    0.5907    1.6204 O   0  0  0  0  0  0  0  0  0  0  0  0
    3.0225    0.0935    1.9783 C   0  0  0  0  0  0  0  0  0  0  0  0
    2.8986   -0.9295    2.3869 H   0  0  0  0  0  0  0  0  0  0  0  0
    3.6425    0.0240    1.0628 H   0  0  0  0  0  0  0  0  0  0  0  0
    3.6214    1.0432    2.9947 C   0  0  0  0  0  0  0  0  0  0  0  0
    4.6148    0.6685    3.3108 H   0  0  0  0  0  0  0  0  0  0  0  0
    2.9787    1.1221    3.8939 H   0  0  0  0  0  0  0  0  0  0  0  0
    3.7486    2.0553    2.5641 H   0  0  0  0  0  0  0  0  0  0  0  0
   -0.2260    0.8436    0.4364 C   0  0  0  0  0  0  0  0  0  0  0  0
   -0.1005    2.2142    0.2225 C   0  0  0  0  0  0  0  0  0  0  0  0
    1.2195    2.9097    0.3336 C   0  0  0  0  0  0  0  0  0  0  0  0
    1.4867    3.8055    1.3888 C   0  0  0  0  0  0  0  0  0  0  0  0
    0.7142    3.9862    2.1517 H   0  0  0  0  0  0  0  0  0  0  0  0
    2.7315    4.4447    1.4743 C   0  0  0  0  0  0  0  0  0  0  0  0
    2.9323    5.1400    2.3035 H   0  0  0  0  0  0  0  0  0  0  0  0
    3.7272    4.1853    0.5166 C   0  0  0  0  0  0  0  0  0  0  0  0
    4.7075    4.6796    0.5923 H   0  0  0  0  0  0  0  0  0  0  0  0
    3.4684    3.2906   -0.5340 C   0  0  0  0  0  0  0  0  0  0  0  0
    4.2440    3.0701   -1.2826 H   0  0  0  0  0  0  0  0  0  0  0  0
    2.2165    2.6655   -0.6316 C   0  0  0  0  0  0  0  0  0  0  0  0
    2.0088    1.9606   -1.4501 H   0  0  0  0  0  0  0  0  0  0  0  0
   -1.1616    2.9761   -0.2504 N   0  0  0  0  0  0  0  0  0  0  0  0
   -0.9677    4.3449   -0.7941 C   0  0  0  0  0  0  0  0  0  0  0  0
    0.0254    4.6674   -0.4345 H   0  0  0  0  0  0  0  0  0  0  0  0
   -0.9280    4.3230   -2.3262 C   0  0  0  0  0  0  0  0  0  0  0  0
   -0.1478    3.6242   -2.6878 H   0  0  0  0  0  0  0  0  0  0  0  0
   -0.6985    5.3334   -2.7193 H   0  0  0  0  0  0  0  0  0  0  0  0
   -1.8988    4.0028   -2.7565 H   0  0  0  0  0  0  0  0  0  0  0  0
   -1.9998    5.3245   -0.2293 C   0  0  0  0  0  0  0  0  0  0  0  0
   -1.7494    6.3541   -0.5525 H   0  0  0  0  0  0  0  0  0  0  0  0
   -2.0052    5.2994    0.8781 H   0  0  0  0  0  0  0  0  0  0  0  0
   -3.0285    5.1115   -0.5846 H   0  0  0  0  0  0  0  0  0  0  0  0
   -2.3808    2.3571   -0.5293 C   0  0  0  0  0  0  0  0  0  0  0  0
   -3.1634    3.0175   -0.9246 H   0  0  0  0  0  0  0  0  0  0  0  0
   -2.6122    1.0358   -0.3330 C   0  0  0  0  0  0  0  0  0  0  0  0
   -3.8870    0.3692   -0.6189 C   0  0  0  0  0  0  0  0  0  0  0  0
   -4.7111    0.7234   -1.7074 C   0  0  0  0  0  0  0  0  0  0  0  0
   -4.3878    1.5321   -2.3807 H   0  0  0  0  0  0  0  0  0  0  0  0
   -5.8973    0.0277   -1.9670 C   0  0  0  0  0  0  0  0  0  0  0  0
   -6.5209    0.3051   -2.8302 H   0  0  0  0  0  0  0  0  0  0  0  0
   -6.2664   -1.0496   -1.1426 C   0  0  0  0  0  0  0  0  0  0  0  0
   -7.1814   -1.6220   -1.3574 H   0  0  0  0  0  0  0  0  0  0  0  0
   -5.4630   -1.4057   -0.0525 C   0  0  0  0  0  0  0  0  0  0  0  0
   -5.7596   -2.2559    0.5790 H   0  0  0  0  0  0  0  0  0  0  0  0
   -4.2768   -0.7015    0.2444 C   0  0  0  0  0  0  0  0  0  0  0  0
   -3.4736   -0.9688    1.4610 C   0  0  0  0  0  0  0  0  0  0  0  0
   -4.0167   -1.6299    2.5832 C   0  0  0  0  0  0  0  0  0  0  0  0
   -5.0623   -1.9697    2.5592 H   0  0  0  0  0  0  0  0  0  0  0  0
   -3.2578   -1.8326    3.7433 C   0  0  0  0  0  0  0  0  0  0  0  0
   -3.7036   -2.3516    4.6051 H   0  0  0  0  0  0  0  0  0  0  0  0
   -1.9414   -1.3542    3.8082 C   0  0  0  0  0  0  0  0  0  0  0  0
   -1.3431   -1.4949    4.7211 H   0  0  0  0  0  0  0  0  0  0  0  0
   -1.3879   -0.6842    2.7052 C   0  0  0  0  0  0  0  0  0  0  0  0
   -0.3626   -0.2949    2.7648 H   0  0  0  0  0  0  0  0  0  0  0  0
   -2.1317   -0.5004    1.5313 C   0  0  0  0  0  0  0  0  0  0  0  0
   -1.5604    0.1385    0.2651 C   0  0  2  0  0  0  0  0  0  0  0  0
   -1.4228   -0.7146   -0.4436 H   0  0  0  0  0  0  0  0  0  0  0  0
  1  2  1  0  0  0  0
  2  3  1  0  0  0  0
  3  4  1  0  0  0  0
  3  6  1  0  0  0  0
  5  3  1  0  0  0  0
  6  7  1  0  0  0  0
  6  8  1  0  0  0  0
  9  6  1  0  0  0  0
 10  1  1  0  0  0  0
 11 12  1  0  0  0  0
 11 10  2  0  0  0  0
 12 13  1  0  0  0  0
 13 15  2  0  0  0  0
 13 14  1  0  0  0  0
 15 16  1  0  0  0  0
 17 18  1  0  0  0  0
 17 15  1  0  0  0  0
 19 17  2  0  0  0  0
 20 19  1  0  0  0  0
 21 19  1  0  0  0  0
 21 12  2  0  0  0  0
 22 21  1  0  0  0  0
 23 11  1  0  0  0  0
 24 25  1  0  0  0  0
 24 23  1  0  0  0  0
 24 30  1  0  0  0  0
 26 24  1  0  0  0  0
 27 26  1  0  0  0  0
 28 26  1  0  0  0  0
 29 26  1  0  0  0  0
 30 32  1  0  0  0  0
 31 30  1  0  0  0  0
 33 30  1  0  0  0  0
 34 36  2  0  0  0  0
 34 23  1  0  0  0  0
 35 34  1  0  0  0  0
 36 57  1  0  0  0  0
 37 36  1  0  0  0  0
 37 46  1  0  0  0  0
 38 37  2  0  0  0  0
 39 38  1  0  0  0  0
 40 38  1  0  0  0  0
 40 42  2  0  0  0  0
 41 40  1  0  0  0  0
 42 44  1  0  0  0  0
 43 42  1  0  0  0  0
 44 46  2  0  0  0  0
 44 45  1  0  0  0  0
 46 47  1  0  0  0  0
 47 56  2  0  0  0  0
 47 48  1  0  0  0  0
 48 50  2  0  0  0  0
 49 48  1  0  0  0  0
 50 52  1  0  0  0  0
 50 51  1  0  0  0  0
 52 53  1  0  0  0  0
 54 55  1  0  0  0  0
 54 52  2  0  0  0  0
 56 54  1  0  0  0  0
 57 58  1  6  0  0  0
 57 10  1  0  0  0  0
 57 56  1  0  0  0  0
M  END
