8
q = -1.0, confidence = 0.01

 43 47  0  0  0  0  0  0  0  0999 V2000
   -1.1948    0.3488   -0.4012 P   0  0  0  0  0  0  0  0  0  0  0  0
    4.8191    2.7560    0.5152 C   0  0  0  0  0  0  0  0  0  0  0  0
    5.5856    2.8963   -0.2756 H   0  0  0  0  0  0  0  0  0  0  0  0
    5.3763    2.6874    1.4730 H   0  0  0  0  0  0  0  0  0  0  0  0
    3.7783    3.9210    0.5311 C   0  0  0  0  0  0  0  0  0  0  0  0
    3.7927    4.4766    1.4922 H   0  0  0  0  0  0  0  0  0  0  0  0
    3.9866    4.6722   -0.2595 H   0  0  0  0  0  0  0  0  0  0  0  0
    1.9832   -0.4575   -0.2079 C   0  0  0  0  0  3  0  0  0  0  0  0
    3.3399   -0.7910   -0.1004 C   0  0  0  0  0  0  0  0  0  0  0  0
    3.6480   -1.8419   -0.2138 H   0  0  0  0  0  0  0  0  0  0  0  0
    4.3621    0.1709    0.1446 C   0  0  0  0  0  0  0  0  0  0  0  0
    5.4102   -0.1568    0.2223 H   0  0  0  0  0  0  0  0  0  0  0  0
    4.0021    1.5034    0.2693 C   0  0  0  0  0  0  0  0  0  0  0  0
    2.6302    1.8532    0.1590 C   0  0  0  0  0  0  0  0  0  0  0  0
    2.4370    3.2530    0.3058 C   0  0  0  0  0  0  0  0  0  0  0  0
    1.1495    3.7607    0.2260 C   0  0  0  0  0  0  0  0  0  0  0  0
    0.9433    4.8371    0.3300 H   0  0  0  0  0  0  0  0  0  0  0  0
    0.0721    2.8564    0.0144 C   0  0  0  0  0  0  0  0  0  0  0  0
   -0.9486    3.2650   -0.0374 H   0  0  0  0  0  0  0  0  0  0  0  0
    0.2444    1.4731   -0.1280 C   0  0  0  0  0  0  0  0  0  0  0  0
    1.5768    0.9147   -0.0701 C   0  0  0  0  0  0  0  0  0  0  0  0
   -2.5561    1.5180   -0.8194 C   0  0  0  0  0  0  0  0  0  0  0  0
   -3.5803    1.8701    0.0826 C   0  0  0  0  0  0  0  0  0  0  0  0
   -3.5718    1.4643    1.1052 H   0  0  0  0  0  0  0  0  0  0  0  0
   -4.6079    2.7389   -0.3198 C   0  0  0  0  0  0  0  0  0  0  0  0
   -5.4035    3.0060    0.3927 H   0  0  0  0  0  0  0  0  0  0  0  0
   -4.6205    3.2681   -1.6191 C   0  0  0  0  0  0  0  0  0  0  0  0
   -5.4264    3.9499   -1.9306 H   0  0  0  0  0  0  0  0  0  0  0  0
   -3.6039    2.9181   -2.5243 C   0  0  0  0  0  0  0  0  0  0  0  0
   -3.6114    3.3237   -3.5476 H   0  0  0  0  0  0  0  0  0  0  0  0
   -2.5851    2.0401   -2.1319 C   0  0  0  0  0  0  0  0  0  0  0  0
   -1.7981    1.7551   -2.8484 H   0  0  0  0  0  0  0  0  0  0  0  0
   -1.6109   -0.1856    1.3197 C   0  0  0  0  0  0  0  0  0  0  0  0
   -2.3229   -1.3964    1.4680 C   0  0  0  0  0  0  0  0  0  0  0  0
   -2.5761   -1.9958    0.5787 H   0  0  0  0  0  0  0  0  0  0  0  0
   -2.6779   -1.8543    2.7460 C   0  0  0  0  0  0  0  0  0  0  0  0
   -3.2292   -2.8010    2.8512 H   0  0  0  0  0  0  0  0  0  0  0  0
   -2.3144   -1.1176    3.8845 C   0  0  0  0  0  0  0  0  0  0  0  0
   -2.5856   -1.4825    4.8870 H   0  0  0  0  0  0  0  0  0  0  0  0
   -1.5918    0.0788    3.7435 C   0  0  0  0  0  0  0  0  0  0  0  0
   -1.2972    0.6535    4.6351 H   0  0  0  0  0  0  0  0  0  0  0  0
   -1.2399    0.5444    2.4677 C   0  0  0  0  0  0  0  0  0  0  0  0
   -0.6711    1.4803    2.3575 H   0  0  0  0  0  0  0  0  0  0  0  0
  1 20  1  0  0  0  0
  1 33  1  0  0  0  0
  2  5  1  0  0  0  0
  2  4  1  0  0  0  0
  3  2  1  0  0  0  0
  5  6  1  0  0  0  0
  7  5  1  0  0  0  0
  8  9  2  0  0  0  0
  8 21  1  0  0  0  0
  9 11  1  0  0  0  0
 10  9  1  0  0  0  0
 11 12  1  0  0  0  0
 11 13  2  0  0  0  0
 13  2  1  0  0  0  0
 14 13  1  0  0  0  0
 14 15  1  0  0  0  0
 15  5  1  0  0  0  0
 16 15  2  0  0  0  0
 16 17  1  0  0  0  0
 18 16  1  0  0  0  0
 19 18  1  0  0  0  0
 20 21  1  0  0  0  0
 20 18  2  0  0  0  0
 21 14  2  0  0  0  0
 22  1  1  0  0  0  0
 22 23  1  0  0  0  0
 23 24  1  0  0  0  0
 25 23  2  0  0  0  0
 25 26  1  0  0  0  0
 27 25  1  0  0  0  0
 28 27  1  0  0  0  0
 29 31  1  0  0  0  0
 29 27  2  0  0  0  0
 30 29  1  0  0  0  0
 31 22  2  0  0  0  0
 32 31  1  0  0  0  0
 33 34  2  0  0  0  0
 33 42  1  0  0  0  0
 34 36  1  0  0  0  0
 35 34  1  0  0  0  0
 36 37  1  0  0  0  0
 36 38  2  0  0  0  0
 38 39  1  0  0  0  0
 40 38  1  0  0  0  0
 40 41  1  0  0  0  0
 42 40  2  0  0  0  0
 43 42  1  0  0  0  0
M  END
