6
q = 0.0, confidence = 0.944

 25 25  0  0  1  0  0  0  0  0999 V2000
    1.0263    3.0305    1.0978 O   0  0  0  0  0  0  0  0  0  0  0  0
    0.4328    2.0010    0.9035 C   0  0  0  0  0  0  0  0  0  0  0  0
   -0.9519    1.9814    0.9379 O   0  0  0  0  0  0  0  0  0  0  0  0
   -1.5423    0.7343    0.6543 C   0  0  1  0  0  3  0  0  0  0  0  0
   -1.0318   -0.4170    1.3911 C   0  0  2  0  0  3  0  0  0  0  0  0
    0.3846   -0.4885    1.3426 C   0  0  0  0  0  3  0  0  0  0  0  0
    1.0151    0.6380    0.6610 C   0  0  2  0  0  3  0  0  0  0  0  0
   -2.8755    0.8214    0.4982 O   0  0  0  0  0  0  0  0  0  0  0  0
   -3.3323    1.7600   -0.4773 C   0  0  0  0  0  0  0  0  0  0  0  0
   -1.8854   -1.3083    1.9160 O   0  0  0  0  0  0  0  0  0  0  0  0
   -1.3689   -2.6047    2.2066 C   0  0  0  0  0  0  0  0  0  0  0  0
    2.4675    0.5882    0.3014 C   0  0  0  0  0  0  0  0  0  0  0  0
    3.0680    1.4346   -0.3267 O   0  0  0  0  0  0  0  0  0  0  0  0
    3.0339   -0.5767    0.7323 O   0  0  0  0  0  0  0  0  0  0  0  0
    4.3873   -0.7841    0.3120 C   0  0  0  0  0  0  0  0  0  0  0  0
    0.9772   -1.3076    1.7666 H   0  0  0  0  0  0  0  0  0  0  0  0
   -2.9551    2.7797   -0.2623 H   0  0  0  0  0  0  0  0  0  0  0  0
   -2.9987    1.4516   -1.4925 H   0  0  0  0  0  0  0  0  0  0  0  0
   -4.4355    1.7459   -0.4290 H   0  0  0  0  0  0  0  0  0  0  0  0
   -2.2311   -3.2250    2.5094 H   0  0  0  0  0  0  0  0  0  0  0  0
   -0.6311   -2.5715    3.0367 H   0  0  0  0  0  0  0  0  0  0  0  0
   -0.8894   -3.0432    1.3038 H   0  0  0  0  0  0  0  0  0  0  0  0
    4.7154   -1.7254    0.7872 H   0  0  0  0  0  0  0  0  0  0  0  0
    5.0323    0.0597    0.6275 H   0  0  0  0  0  0  0  0  0  0  0  0
    4.4417   -0.8736   -0.7921 H   0  0  0  0  0  0  0  0  0  0  0  0
  2  3  1  0  0  0  0
  2  1  2  0  0  0  0
  4  8  1  1  0  0  0
  4  3  1  0  0  0  0
  4  5  1  0  0  0  0
  5 10  1  6  0  0  0
  6  5  1  0  0  0  0
  6 16  1  0  0  0  0
  7 12  1  1  0  0  0
  7  2  1  0  0  0  0
  7  6  1  0  0  0  0
  9 19  1  0  0  0  0
  9 17  1  0  0  0  0
  9  8  1  0  0  0  0
 10 11  1  0  0  0  0
 11 20  1  0  0  0  0
 11 21  1  0  0  0  0
 12 14  1  0  0  0  0
 13 12  2  0  0  0  0
 15 24  1  0  0  0  0
 15 14  1  0  0  0  0
 15 23  1  0  0  0  0
 18  9  1  0  0  0  0
 22 11  1  0  0  0  0
 25 15  1  0  0  0  0
M  END
