4
q = -1.0

 23 25  0  0  0  0  0  0  0  0999 V2000
   -5.3130    0.4568   -0.0885 Br  0  0  0  0  0  0  0  0  0  0  0  0
    0.0006    5.4902    0.0000 Br  0  0  0  0  0  0  0  0  0  0  0  0
    5.3131    0.4558    0.0885 Br  0  0  0  0  0  0  0  0  0  0  0  0
    0.0000    0.6903    0.0000 C   0  0  0  0  0  3  0  0  0  0  0  0
   -1.2176    1.4281   -0.0237 C   0  0  0  0  0  0  0  0  0  0  0  0
   -2.4723    0.7381   -0.0432 C   0  0  0  0  0  0  0  0  0  0  0  0
   -2.4334   -0.3601   -0.0383 H   0  0  0  0  0  0  0  0  0  0  0  0
   -3.6688    1.4222   -0.0637 C   0  0  0  0  0  0  0  0  0  0  0  0
   -3.6991    2.8470   -0.0672 C   0  0  0  0  0  0  0  0  0  0  0  0
   -4.6621    3.3763   -0.0847 H   0  0  0  0  0  0  0  0  0  0  0  0
   -2.5085    3.5467   -0.0477 C   0  0  0  0  0  0  0  0  0  0  0  0
   -2.5248    4.6456   -0.0493 H   0  0  0  0  0  0  0  0  0  0  0  0
   -1.2360    2.8860   -0.0242 C   0  0  0  0  0  0  0  0  0  0  0  0
    0.0003    3.5731    0.0000 C   0  0  0  0  0  0  0  0  0  0  0  0
    1.2365    2.8858    0.0243 C   0  0  0  0  0  0  0  0  0  0  0  0
    2.5091    3.5462    0.0478 C   0  0  0  0  0  0  0  0  0  0  0  0
    2.5256    4.6451    0.0494 H   0  0  0  0  0  0  0  0  0  0  0  0
    3.6996    2.8463    0.0673 C   0  0  0  0  0  0  0  0  0  0  0  0
    4.6627    3.3754    0.0848 H   0  0  0  0  0  0  0  0  0  0  0  0
    3.6691    1.4215    0.0638 C   0  0  0  0  0  0  0  0  0  0  0  0
    2.4724    0.7377    0.0433 C   0  0  0  0  0  0  0  0  0  0  0  0
    2.4333   -0.3606    0.0384 H   0  0  0  0  0  0  0  0  0  0  0  0
    1.2178    1.4278    0.0238 C   0  0  0  0  0  0  0  0  0  0  0  0
  1  8  1  0  0  0  0
  2 14  1  0  0  0  0
  4 23  1  0  0  0  0
  5  4  2  0  0  0  0
  6  7  1  0  0  0  0
  6  5  1  0  0  0  0
  8  6  2  0  0  0  0
  9  8  1  0  0  0  0
  9 11  2  0  0  0  0
 10  9  1  0  0  0  0
 11 13  1  0  0  0  0
 12 11  1  0  0  0  0
 13  5  1  0  0  0  0
 13 14  2  0  0  0  0
 14 15  1  0  0  0  0
 15 16  1  0  0  0  0
 16 17  1  0  0  0  0
 16 18  2  0  0  0  0
 18 19  1  0  0  0  0
 20 18  1  0  0  0  0
 20  3  1  0  0  0  0
 21 20  2  0  0  0  0
 22 21  1  0  0  0  0
 23 15  2  0  0  0  0
 23 21  1  0  0  0  0
M  END
