2
q = -1.0

 23 25  0  0  0  0  0  0  0  0999 V2000
   -5.5761    0.0002   -0.0000 Br  0  0  0  0  0  0  0  0  0  0  0  0
   -0.7853    0.0000    0.0000 C   0  0  0  0  0  3  0  0  0  0  0  0
   -1.5141    0.2537   -1.1966 C   0  0  0  0  0  0  0  0  0  0  0  0
   -0.8315    0.4820   -2.4381 C   0  0  0  0  0  0  0  0  0  0  0  0
    0.2687    0.4300   -2.4099 H   0  0  0  0  0  0  0  0  0  0  0  0
   -1.5076    0.7501   -3.6120 C   0  0  0  0  0  0  0  0  0  0  0  0
   -0.9508    0.9219   -4.5456 H   0  0  0  0  0  0  0  0  0  0  0  0
   -2.9325    0.7993   -3.6096 C   0  0  0  0  0  0  0  0  0  0  0  0
   -3.4755    1.0172   -4.5419 H   0  0  0  0  0  0  0  0  0  0  0  0
   -3.6380    0.5656   -2.4452 C   0  0  0  0  0  0  0  0  0  0  0  0
   -4.7366    0.5930   -2.4482 H   0  0  0  0  0  0  0  0  0  0  0  0
   -2.9726    0.2775   -1.2076 C   0  0  0  0  0  0  0  0  0  0  0  0
   -3.6565    0.0001   -0.0000 C   0  0  0  0  0  0  0  0  0  0  0  0
   -1.5142   -0.2535    1.1966 C   0  0  0  0  0  0  0  0  0  0  0  0
   -0.8316   -0.4819    2.4382 C   0  0  0  0  0  0  0  0  0  0  0  0
    0.2686   -0.4300    2.4100 H   0  0  0  0  0  0  0  0  0  0  0  0
   -1.5079   -0.7499    3.6120 C   0  0  0  0  0  0  0  0  0  0  0  0
   -0.9510   -0.9218    4.5457 H   0  0  0  0  0  0  0  0  0  0  0  0
   -2.9327   -0.7990    3.6097 C   0  0  0  0  0  0  0  0  0  0  0  0
   -3.4758   -1.0168    4.5419 H   0  0  0  0  0  0  0  0  0  0  0  0
   -3.6382   -0.5652    2.4452 C   0  0  0  0  0  0  0  0  0  0  0  0
   -4.7367   -0.5925    2.4482 H   0  0  0  0  0  0  0  0  0  0  0  0
   -2.9727   -0.2772    1.2076 C   0  0  0  0  0  0  0  0  0  0  0  0
  1 13  1  0  0  0  0
  2 14  1  0  0  0  0
  3  2  2  0  0  0  0
  4  5  1  0  0  0  0
  4  3  1  0  0  0  0
  6  8  1  0  0  0  0
  6  4  2  0  0  0  0
  7  6  1  0  0  0  0
  8 10  2  0  0  0  0
  9  8  1  0  0  0  0
 10 12  1  0  0  0  0
 11 10  1  0  0  0  0
 12  3  1  0  0  0  0
 12 13  2  0  0  0  0
 13 23  1  0  0  0  0
 14 23  2  0  0  0  0
 14 15  1  0  0  0  0
 15 17  2  0  0  0  0
 16 15  1  0  0  0  0
 17 18  1  0  0  0  0
 19 17  1  0  0  0  0
 19 20  1  0  0  0  0
 21 22  1  0  0  0  0
 21 19  2  0  0  0  0
 23 21  1  0  0  0  0
M  END
