2
q = -1.0, confidence = 0.008

 18 17  0  0  0  0  0  0  0  0999 V2000
   -1.6403   -3.0399   -0.0859 C   0  0  0  0  0  2  0  0  0  0  0  0
   -0.4424   -3.4902   -0.0719 C   0  0  0  0  0  2  0  0  0  0  0  0
    0.9388   -3.3044   -0.0280 C   0  0  0  0  0  3  0  0  0  0  0  0
   -3.1111   -3.2631   -0.1076 C   0  0  0  0  0  0  0  0  0  0  0  0
   -3.7658   -2.3370   -1.1545 C   0  0  0  0  0  0  0  0  0  0  0  0
   -3.6779   -2.9493    1.2961 C   0  0  0  0  0  0  0  0  0  0  0  0
   -3.3809   -4.7411   -0.4684 C   0  0  0  0  0  0  0  0  0  0  0  0
    1.5279   -3.4050   -0.9566 H   0  0  0  0  0  0  0  0  0  0  0  0
    1.4871   -3.5550    0.8967 H   0  0  0  0  0  0  0  0  0  0  0  0
   -4.8591   -2.5202   -1.1879 H   0  0  0  0  0  0  0  0  0  0  0  0
   -3.5912   -1.2744   -0.8997 H   0  0  0  0  0  0  0  0  0  0  0  0
   -3.3496   -2.5208   -2.1650 H   0  0  0  0  0  0  0  0  0  0  0  0
   -3.2609   -3.6437    2.0527 H   0  0  0  0  0  0  0  0  0  0  0  0
   -3.4242   -1.9183    1.6064 H   0  0  0  0  0  0  0  0  0  0  0  0
   -4.7816   -3.0608    1.2911 H   0  0  0  0  0  0  0  0  0  0  0  0
   -2.9069   -5.4213    0.2670 H   0  0  0  0  0  0  0  0  0  0  0  0
   -4.4725   -4.9389   -0.4719 H   0  0  0  0  0  0  0  0  0  0  0  0
   -2.9805   -4.9832   -1.4730 H   0  0  0  0  0  0  0  0  0  0  0  0
  1  2  1  0  0  0  0
  2  3  1  0  0  0  0
  3  9  1  0  0  0  0
  4  1  1  0  0  0  0
  4  6  1  0  0  0  0
  5 11  1  0  0  0  0
  5  4  1  0  0  0  0
  6 14  1  0  0  0  0
  6 13  1  0  0  0  0
  7  4  1  0  0  0  0
  7 16  1  0  0  0  0
  8  3  1  0  0  0  0
 10  5  1  0  0  0  0
 12  5  1  0  0  0  0
 15  6  1  0  0  0  0
 17  7  1  0  0  0  0
 18  7  1  0  0  0  0
M  END
