2
q = -1.0

 12 12  0  0  0  0  0  0  0  0999 V2000
   -1.2612   -2.5606    0.6875 C   0  0  0  0  0  3  0  0  0  0  0  0
   -0.0879   -2.4667   -0.1633 C   0  0  0  0  0  3  0  0  0  0  0  0
    1.0011   -2.6456    0.7824 C   0  0  0  0  0  3  0  0  0  0  0  0
    0.5631   -3.6827    1.8141 C   0  0  0  0  0  0  0  0  0  0  0  0
   -0.9874   -3.5851    1.7902 C   0  0  0  0  0  0  0  0  0  0  0  0
   -2.2762   -2.5153    0.2635 H   0  0  0  0  0  0  0  0  0  0  0  0
   -0.0437   -2.4990   -1.2618 H   0  0  0  0  0  0  0  0  0  0  0  0
    2.0484   -2.6608    0.4450 H   0  0  0  0  0  0  0  0  0  0  0  0
    1.0063   -3.5318    2.8212 H   0  0  0  0  0  0  0  0  0  0  0  0
    0.8944   -4.6965    1.4891 H   0  0  0  0  0  0  0  0  0  0  0  0
   -1.4413   -4.5662    1.5199 H   0  0  0  0  0  0  0  0  0  0  0  0
   -1.4274   -3.3115    2.7730 H   0  0  0  0  0  0  0  0  0  0  0  0
  1  5  1  0  0  0  0
  2  1  1  0  0  0  0
  2  3  1  0  0  0  0
  3  4  1  0  0  0  0
  4  9  1  0  0  0  0
  5  4  1  0  0  0  0
  5 12  1  0  0  0  0
  6  1  1  0  0  0  0
  7  2  1  0  0  0  0
  8  3  1  0  0  0  0
 10  4  1  0  0  0  0
 11  5  1  0  0  0  0
M  END
