18
q = 0.0, confidence = 0.998

 57 59  0  0  1  0  0  0  0  0999 V2000
    5.8150   -0.0578    0.3741 O   0  0  0  0  0  0  0  0  0  0  0  0
    0.1060    2.3875    0.1320 O   0  0  0  0  0  0  0  0  0  0  0  0
   -2.9829   -3.0752   -1.0071 O   0  0  0  0  0  0  0  0  0  0  0  0
   -0.8579    4.2206   -0.9797 O   0  0  0  0  0  0  0  0  0  0  0  0
    1.6644   -2.4171    0.5067 C   0  0  0  0  0  0  0  0  0  0  0  0
    3.1597   -2.6207    0.7464 C   0  0  0  0  0  0  0  0  0  0  0  0
    3.9658   -2.0946   -0.4386 C   0  0  0  0  0  0  0  0  0  0  0  0
    3.7346   -0.5913   -0.7216 C   0  0  2  0  0  0  0  0  0  0  0  0
    2.1934   -0.3111   -0.8196 C   0  0  2  0  0  0  0  0  0  0  0  0
    1.8700    1.1741   -1.0749 C   0  0  0  0  0  0  0  0  0  0  0  0
    0.3722    1.5641   -1.0180 C   0  0  1  0  0  0  0  0  0  0  0  0
   -0.5438    0.3561   -0.9904 C   0  0  2  0  0  3  0  0  0  0  0  0
   -0.1418   -0.8436   -0.3030 C   0  0  0  0  0  0  0  0  0  0  0  0
    1.2746   -0.9339    0.2984 C   0  0  1  0  0  0  0  0  0  0  0  0
   -1.0347   -1.9439   -0.3051 C   0  0  0  0  0  0  0  0  0  0  0  0
   -2.2622   -1.9301   -1.0448 C   0  0  0  0  0  0  0  0  0  0  0  0
   -2.6478   -0.7468   -1.7229 C   0  0  0  0  0  0  0  0  0  0  0  0
   -1.7787    0.3880   -1.6872 C   0  0  0  0  0  3  0  0  0  0  0  0
    4.3995   -0.2540   -2.0730 C   0  0  0  0  0  0  0  0  0  0  0  0
    4.4346    0.2493    0.3673 C   0  0  0  0  0  0  0  0  0  0  0  0
    1.3211   -0.2005    1.6549 C   0  0  0  0  0  0  0  0  0  0  0  0
   -4.3594   -3.0027   -1.3540 C   0  0  0  0  0  0  0  0  0  0  0  0
    0.1526    3.7753   -0.1236 C   0  0  0  0  0  0  0  0  0  0  0  0
    6.5327    0.6738    1.3351 C   0  0  0  0  0  0  0  0  0  0  0  0
   -2.1615    4.0889   -0.4232 C   0  0  0  0  0  0  0  0  0  0  0  0
    1.0745   -2.8373    1.3482 H   0  0  0  0  0  0  0  0  0  0  0  0
    1.3832   -2.9946   -0.4010 H   0  0  0  0  0  0  0  0  0  0  0  0
    3.4789   -2.1214    1.6860 H   0  0  0  0  0  0  0  0  0  0  0  0
    3.3664   -3.7006    0.8965 H   0  0  0  0  0  0  0  0  0  0  0  0
    3.6794   -2.6668   -1.3490 H   0  0  0  0  0  0  0  0  0  0  0  0
    5.0512   -2.2558   -0.2852 H   0  0  0  0  0  0  0  0  0  0  0  0
    1.8927   -0.8644   -1.7394 H   0  0  0  0  0  0  0  0  0  0  0  0
    2.3799    1.8142   -0.3285 H   0  0  0  0  0  0  0  0  0  0  0  0
    2.2828    1.4606   -2.0612 H   0  0  0  0  0  0  0  0  0  0  0  0
    0.1019    2.1555   -1.9174 H   0  0  0  0  0  0  0  0  0  0  0  0
   -0.8092   -2.8626    0.2484 H   0  0  0  0  0  0  0  0  0  0  0  0
   -3.6060   -0.6813   -2.2520 H   0  0  0  0  0  0  0  0  0  0  0  0
   -2.0812    1.3142   -2.1971 H   0  0  0  0  0  0  0  0  0  0  0  0
    3.9091   -0.8049   -2.9015 H   0  0  0  0  0  0  0  0  0  0  0  0
    5.4685   -0.5377   -2.0469 H   0  0  0  0  0  0  0  0  0  0  0  0
    4.3535    0.8292   -2.3035 H   0  0  0  0  0  0  0  0  0  0  0  0
    4.2905    1.3395    0.1650 H   0  0  0  0  0  0  0  0  0  0  0  0
    4.0000    0.0558    1.3754 H   0  0  0  0  0  0  0  0  0  0  0  0
    2.3003   -0.3286    2.1529 H   0  0  0  0  0  0  0  0  0  0  0  0
    0.5484   -0.6265    2.3232 H   0  0  0  0  0  0  0  0  0  0  0  0
    1.1138    0.8801    1.5567 H   0  0  0  0  0  0  0  0  0  0  0  0
   -4.7923   -3.9918   -1.1191 H   0  0  0  0  0  0  0  0  0  0  0  0
   -4.5043   -2.7947   -2.4370 H   0  0  0  0  0  0  0  0  0  0  0  0
   -4.8739   -2.2201   -0.7543 H   0  0  0  0  0  0  0  0  0  0  0  0
    0.0763    4.2409    0.8867 H   0  0  0  0  0  0  0  0  0  0  0  0
    1.1101    4.0725   -0.6109 H   0  0  0  0  0  0  0  0  0  0  0  0
    7.5945    0.3649    1.2731 H   0  0  0  0  0  0  0  0  0  0  0  0
    6.1654    0.4802    2.3733 H   0  0  0  0  0  0  0  0  0  0  0  0
    6.4718    1.7762    1.1578 H   0  0  0  0  0  0  0  0  0  0  0  0
   -2.2549    4.6616    0.5289 H   0  0  0  0  0  0  0  0  0  0  0  0
   -2.4125    3.0277   -0.2125 H   0  0  0  0  0  0  0  0  0  0  0  0
   -2.8767    4.4983   -1.1611 H   0  0  0  0  0  0  0  0  0  0  0  0
  1 24  1  0  0  0  0
  4 25  1  0  0  0  0
  4 23  1  0  0  0  0
  5  6  1  0  0  0  0
  5 26  1  0  0  0  0
  6 29  1  0  0  0  0
  6 28  1  0  0  0  0
  7 31  1  0  0  0  0
  7  6  1  0  0  0  0
  8 19  1  6  0  0  0
  8  7  1  0  0  0  0
  8 20  1  0  0  0  0
  9 32  1  6  0  0  0
  9  8  1  0  0  0  0
  9 14  1  0  0  0  0
 10 11  1  0  0  0  0
 10  9  1  0  0  0  0
 10 33  1  0  0  0  0
 11 35  1  6  0  0  0
 11 12  1  0  0  0  0
 11  2  1  0  0  0  0
 12 18  1  6  0  0  0
 12 13  1  0  0  0  0
 13 14  1  0  0  0  0
 14  5  1  0  0  0  0
 14 21  1  1  0  0  0
 15 13  2  0  0  0  0
 15 36  1  0  0  0  0
 16  3  1  0  0  0  0
 16 15  1  0  0  0  0
 17 18  1  0  0  0  0
 17 16  2  0  0  0  0
 19 40  1  0  0  0  0
 20  1  1  0  0  0  0
 20 43  1  0  0  0  0
 21 44  1  0  0  0  0
 21 45  1  0  0  0  0
 22 47  1  0  0  0  0
 22  3  1  0  0  0  0
 22 49  1  0  0  0  0
 23  2  1  0  0  0  0
 23 50  1  0  0  0  0
 24 53  1  0  0  0  0
 25 56  1  0  0  0  0
 25 55  1  0  0  0  0
 27  5  1  0  0  0  0
 30  7  1  0  0  0  0
 34 10  1  0  0  0  0
 37 17  1  0  0  0  0
 38 18  1  0  0  0  0
 39 19  1  0  0  0  0
 41 19  1  0  0  0  0
 42 20  1  0  0  0  0
 46 21  1  0  0  0  0
 48 22  1  0  0  0  0
 51 23  1  0  0  0  0
 52 24  1  0  0  0  0
 54 24  1  0  0  0  0
 57 25  1  0  0  0  0
M  END
