7
q = 0.0, confidence = 0.926

 29 29  0  0  0  0  0  0  0  0999 V2000
    2.1247   -1.8519   -0.5102 S   0  0  0  0  0  0  0  0  0  0  0  0
    2.4350   -2.1233   -1.9398 O   0  0  0  0  0  0  0  0  0  0  0  0
    1.6474   -2.9512    0.3809 O   0  0  0  0  0  0  0  0  0  0  0  0
    2.8168    1.8876   -0.5903 O   0  0  0  0  0  0  0  0  0  0  0  0
    2.5853    3.2391   -2.4115 O   0  0  0  0  0  0  0  0  0  0  0  0
    0.9108   -0.5339   -0.3611 C   0  0  0  0  0  3  0  0  0  0  0  0
    0.5956    0.3796   -1.4039 C   0  0  0  0  0  3  0  0  0  0  0  0
    1.0220    1.4683   -2.0793 C   0  0  0  0  0  0  0  0  0  0  0  0
    2.2102    2.2800   -1.7513 C   0  0  0  0  0  0  0  0  0  0  0  0
    3.9254    2.6894   -0.1470 C   0  0  0  0  0  0  0  0  0  0  0  0
    4.0348    2.5637    1.3592 C   0  0  0  0  0  0  0  0  0  0  0  0
    3.6600   -1.2535    0.2371 C   0  0  0  0  0  0  0  0  0  0  0  0
    4.6511   -0.7138   -0.5941 C   0  0  0  0  0  0  0  0  0  0  0  0
    5.8771   -0.3382   -0.0259 C   0  0  0  0  0  0  0  0  0  0  0  0
    6.0972   -0.5040    1.3523 C   0  0  0  0  0  0  0  0  0  0  0  0
    5.0928   -1.0495    2.1701 C   0  0  0  0  0  0  0  0  0  0  0  0
    3.8642   -1.4347    1.6127 C   0  0  0  0  0  0  0  0  0  0  0  0
    0.8810   -0.2286    0.7009 H   0  0  0  0  0  0  0  0  0  0  0  0
    0.4382    1.8698   -2.9222 H   0  0  0  0  0  0  0  0  0  0  0  0
    3.7636    3.7354   -0.4794 H   0  0  0  0  0  0  0  0  0  0  0  0
    4.8489    2.3278   -0.6507 H   0  0  0  0  0  0  0  0  0  0  0  0
    4.8994    3.1521    1.7271 H   0  0  0  0  0  0  0  0  0  0  0  0
    3.1168    2.9379    1.8527 H   0  0  0  0  0  0  0  0  0  0  0  0
    4.1821    1.5097    1.6624 H   0  0  0  0  0  0  0  0  0  0  0  0
    4.4547   -0.6152   -1.6709 H   0  0  0  0  0  0  0  0  0  0  0  0
    6.6704    0.0785   -0.6650 H   0  0  0  0  0  0  0  0  0  0  0  0
    7.0623   -0.2105    1.7923 H   0  0  0  0  0  0  0  0  0  0  0  0
    5.2724   -1.1878    3.2470 H   0  0  0  0  0  0  0  0  0  0  0  0
    3.0739   -1.8998    2.2194 H   0  0  0  0  0  0  0  0  0  0  0  0
  1  6  1  0  0  0  0
  1 12  1  0  0  0  0
  1  3  2  0  0  0  0
  2  1  2  0  0  0  0
  4 10  1  0  0  0  0
  5  9  2  0  0  0  0
  6 18  1  0  0  0  0
  7  6  1  0  0  0  0
  8  9  1  0  0  0  0
  8  7  2  0  0  0  0
  9  4  1  0  0  0  0
 10 11  1  0  0  0  0
 11 24  1  0  0  0  0
 11 22  1  0  0  0  0
 11 23  1  0  0  0  0
 12 17  1  0  0  0  0
 13 14  1  0  0  0  0
 13 12  2  0  0  0  0
 14 15  2  0  0  0  0
 15 27  1  0  0  0  0
 15 16  1  0  0  0  0
 16 28  1  0  0  0  0
 17 16  2  0  0  0  0
 17 29  1  0  0  0  0
 19  8  1  0  0  0  0
 20 10  1  0  0  0  0
 21 10  1  0  0  0  0
 25 13  1  0  0  0  0
 26 14  1  0  0  0  0
M  END
