2
q = -1.0

 16 16  0  0  0  0  0  0  0  0999 V2000
    6.8819    0.1784   -2.5379 O   0  0  0  0  0  0  0  0  0  0  0  0
    1.4566    0.0132   -1.3114 C   0  0  0  0  0  1  0  0  0  0  0  0
    2.8334    0.0458   -1.6027 C   0  0  0  0  0  0  0  0  0  0  0  0
    3.2910    0.2109   -2.9472 C   0  0  0  0  0  0  0  0  0  0  0  0
    4.6478    0.2496   -3.2205 C   0  0  0  0  0  0  0  0  0  0  0  0
    5.5960    0.1264   -2.1680 C   0  0  0  0  0  0  0  0  0  0  0  0
    5.1516   -0.0377   -0.8311 C   0  0  0  0  0  0  0  0  0  0  0  0
    3.7889   -0.0776   -0.5544 C   0  0  0  0  0  0  0  0  0  0  0  0
    7.9069    0.0652   -1.5523 C   0  0  0  0  0  0  0  0  0  0  0  0
    2.5578    0.3070   -3.7609 H   0  0  0  0  0  0  0  0  0  0  0  0
    5.0239    0.3752   -4.2456 H   0  0  0  0  0  0  0  0  0  0  0  0
    5.8671   -0.1321   -0.0045 H   0  0  0  0  0  0  0  0  0  0  0  0
    3.4426   -0.1989    0.4810 H   0  0  0  0  0  0  0  0  0  0  0  0
    7.8437    0.8886   -0.8095 H   0  0  0  0  0  0  0  0  0  0  0  0
    7.8553   -0.9127   -1.0282 H   0  0  0  0  0  0  0  0  0  0  0  0
    8.8643    0.1375   -2.0976 H   0  0  0  0  0  0  0  0  0  0  0  0
  1  6  1  0  0  0  0
  1  9  1  0  0  0  0
  3  2  1  0  0  0  0
  3  8  1  0  0  0  0
  4  3  2  0  0  0  0
  5  4  1  0  0  0  0
  5  6  2  0  0  0  0
  6  7  1  0  0  0  0
  7  8  2  0  0  0  0
  7 12  1  0  0  0  0
  8 13  1  0  0  0  0
  9 15  1  0  0  0  0
  9 14  1  0  0  0  0
 10  4  1  0  0  0  0
 11  5  1  0  0  0  0
 16  9  1  0  0  0  0
M  END
