3
q = -1.0

 14 14  0  0  0  0  0  0  0  0999 V2000
   -0.9609   -1.4754    1.4283 O   0  0  0  0  0  0  0  0  0  0  0  0
   -8.2703   -1.7751   -0.4227 N   0  0  0  0  0  0  0  0  0  0  0  0
   -1.3832   -1.1711    0.2986 C   0  0  0  0  0  3  0  0  0  0  0  0
   -2.8781   -1.3446    0.0887 C   0  0  0  0  0  0  0  0  0  0  0  0
   -3.7107   -1.3749    1.2288 C   0  0  0  0  0  0  0  0  0  0  0  0
   -5.0955   -1.4821    1.1058 C   0  0  0  0  0  0  0  0  0  0  0  0
   -5.6792   -1.6009   -0.1795 C   0  0  0  0  0  0  0  0  0  0  0  0
   -4.8492   -1.6238   -1.3249 C   0  0  0  0  0  0  0  0  0  0  0  0
   -3.4650   -1.4871   -1.1830 C   0  0  0  0  0  0  0  0  0  0  0  0
   -7.1029   -1.6996   -0.3158 C   0  0  0  0  0  0  0  0  0  0  0  0
   -3.2276   -1.3054    2.2139 H   0  0  0  0  0  0  0  0  0  0  0  0
   -5.7433   -1.4758    1.9946 H   0  0  0  0  0  0  0  0  0  0  0  0
   -5.3012   -1.7405   -2.3202 H   0  0  0  0  0  0  0  0  0  0  0  0
   -2.8223   -1.5048   -2.0736 H   0  0  0  0  0  0  0  0  0  0  0  0
  2 10  3  0  0  0  0
  3  1  2  0  0  0  0
  4  3  1  0  0  0  0
  4  5  1  0  0  0  0
  5 11  1  0  0  0  0
  6  5  2  0  0  0  0
  6 12  1  0  0  0  0
  7  6  1  0  0  0  0
  8  9  1  0  0  0  0
  8  7  2  0  0  0  0
  9  4  2  0  0  0  0
 10  7  1  0  0  0  0
 13  8  1  0  0  0  0
 14  9  1  0  0  0  0
M  END
