2
q = -1.0

 12 12  0  0  0  0  0  0  0  0999 V2000
   -7.5133   -0.0009   -1.8868 Cl  0  0  0  0  0  0  0  0  0  0  0  0
   -1.6054   -0.0002   -1.2656 C   0  0  0  0  0  1  0  0  0  0  0  0
   -3.0093   -0.0003   -1.4192 C   0  0  0  0  0  0  0  0  0  0  0  0
   -3.8484   -0.0012   -0.2686 C   0  0  0  0  0  0  0  0  0  0  0  0
   -5.2328   -0.0013   -0.4166 C   0  0  0  0  0  0  0  0  0  0  0  0
   -5.7962   -0.0007   -1.7093 C   0  0  0  0  0  0  0  0  0  0  0  0
   -4.9798    0.0002   -2.8607 C   0  0  0  0  0  0  0  0  0  0  0  0
   -3.5943    0.0003   -2.7178 C   0  0  0  0  0  0  0  0  0  0  0  0
   -3.3995   -0.0016    0.7340 H   0  0  0  0  0  0  0  0  0  0  0  0
   -5.8890   -0.0019    0.4644 H   0  0  0  0  0  0  0  0  0  0  0  0
   -5.4436    0.0007   -3.8568 H   0  0  0  0  0  0  0  0  0  0  0  0
   -2.9467    0.0010   -3.6065 H   0  0  0  0  0  0  0  0  0  0  0  0
  1  6  1  0  0  0  0
  3  2  1  0  0  0  0
  3  4  1  0  0  0  0
  4  9  1  0  0  0  0
  5  4  2  0  0  0  0
  5 10  1  0  0  0  0
  6  5  1  0  0  0  0
  7  8  1  0  0  0  0
  7  6  2  0  0  0  0
  8  3  2  0  0  0  0
 11  7  1  0  0  0  0
 12  8  1  0  0  0  0
M  END
