4
q = 0.0, confidence = 0.974

 39 45  0  0  1  0  0  0  0  0999 V2000
   -0.7510    0.9743   -1.4340 O   0  0  0  0  0  0  0  0  0  0  0  0
   -1.2853   -0.9483   -0.3654 C   0  0  1  0  0  0  0  0  0  0  0  0
   -2.7917   -0.3010    0.1755 C   0  0  2  0  0  0  0  0  0  0  0  0
   -0.1749    0.0657   -0.6695 C   0  0  0  0  0  2  0  0  0  0  0  0
   -0.1229    2.1766   -1.8857 C   0  0  0  0  0  0  0  0  0  0  0  0
   -2.9256    1.1955    0.3024 C   0  0  0  0  0  0  0  0  0  0  0  0
   -2.1788    1.9286    1.2461 C   0  0  0  0  0  0  0  0  0  0  0  0
   -2.2802    3.3252    1.3071 C   0  0  0  0  0  0  0  0  0  0  0  0
   -3.1436    4.0104    0.4387 C   0  0  0  0  0  0  0  0  0  0  0  0
   -3.9038    3.2859   -0.4931 C   0  0  0  0  0  0  0  0  0  0  0  0
   -3.7909    1.8908   -0.5664 C   0  0  0  0  0  0  0  0  0  0  0  0
   -2.6758   -0.9479   -1.4238 B   0  0  2  0  0  0  0  0  0  0  0  0
   -1.5602   -2.3341   -1.3251 B   0  0  0  0  0  0  0  0  0  0  0  0
   -1.0097   -2.4666    0.3589 B   0  0  1  0  0  0  0  0  0  0  0  0
   -1.7515   -1.1417    1.2760 B   0  0  2  0  0  0  0  0  0  0  0  0
   -4.0802   -1.2714   -0.3943 B   0  0  1  0  0  0  0  0  0  0  0  0
   -3.3310   -2.5829   -1.3337 B   0  0  1  0  0  0  0  0  0  0  0  0
   -2.3033   -3.5310   -0.2208 B   0  0  2  0  0  0  0  0  0  0  0  0
   -2.4129   -2.7819    1.4006 B   0  0  1  0  0  0  0  0  0  0  0  0
   -3.5118   -1.3826    1.2850 B   0  0  1  0  0  0  0  0  0  0  0  0
   -3.8545   -2.8694    0.3538 B   0  0  0  0  0  0  0  0  0  0  0  0
   -2.6927   -0.1857   -2.3481 H   0  0  0  0  0  0  0  0  0  0  0  0
   -0.8037   -2.5224   -2.2443 H   0  0  0  0  0  0  0  0  0  0  0  0
    0.1178   -2.7831    0.6152 H   0  0  0  0  0  0  0  0  0  0  0  0
   -1.1679   -0.5175    2.1135 H   0  0  0  0  0  0  0  0  0  0  0  0
   -5.1184   -0.7183   -0.6528 H   0  0  0  0  0  0  0  0  0  0  0  0
   -3.8828   -3.0507   -2.3005 H   0  0  0  0  0  0  0  0  0  0  0  0
   -2.0959   -4.7110   -0.3716 H   0  0  0  0  0  0  0  0  0  0  0  0
   -2.2880   -3.3922    2.4344 H   0  0  0  0  0  0  0  0  0  0  0  0
   -4.1386   -0.8872    2.1868 H   0  0  0  0  0  0  0  0  0  0  0  0
   -4.8108   -3.5555    0.6247 H   0  0  0  0  0  0  0  0  0  0  0  0
   -0.9524    2.8312   -2.2089 H   0  0  0  0  0  0  0  0  0  0  0  0
    0.4503    2.6511   -1.0691 H   0  0  0  0  0  0  0  0  0  0  0  0
    0.5442    1.9512   -2.7386 H   0  0  0  0  0  0  0  0  0  0  0  0
   -1.4954    1.4071    1.9279 H   0  0  0  0  0  0  0  0  0  0  0  0
   -1.6737    3.8778    2.0400 H   0  0  0  0  0  0  0  0  0  0  0  0
   -3.2257    5.1065    0.4892 H   0  0  0  0  0  0  0  0  0  0  0  0
   -4.5896    3.8102   -1.1754 H   0  0  0  0  0  0  0  0  0  0  0  0
   -4.3777    1.3337   -1.3089 H   0  0  0  0  0  0  0  0  0  0  0  0
  1  4  1  0  0  0  0
  2  4  1  6  0  0  0
  2 14  1  0  0  0  0
  2 15  1  0  0  0  0
  3  6  1  1  0  0  0
  3 20  1  0  0  0  0
  5  1  1  0  0  0  0
  5 33  1  0  0  0  0
  6  7  1  0  0  0  0
  7  8  2  0  0  0  0
  7 35  1  0  0  0  0
  8 36  1  0  0  0  0
  9 37  1  0  0  0  0
  9  8  1  0  0  0  0
 10  9  2  0  0  0  0
 11 10  1  0  0  0  0
 11  6  2  0  0  0  0
 12 22  1  6  0  0  0
 12 17  1  0  0  0  0
 12 16  1  0  0  0  0
 12  3  1  0  0  0  0
 13  2  1  0  0  0  0
 14 24  1  1  0  0  0
 14 15  1  0  0  0  0
 15 19  1  0  0  0  0
 15 25  1  1  0  0  0
 16 26  1  6  0  0  0
 16  3  1  0  0  0  0
 16 20  1  0  0  0  0
 17 27  1  6  0  0  0
 17 13  1  0  0  0  0
 17 18  1  0  0  0  0
 18 28  1  6  0  0  0
 18 21  1  0  0  0  0
 18 14  1  0  0  0  0
 19 29  1  1  0  0  0
 20 19  1  0  0  0  0
 20 30  1  1  0  0  0
 21 31  1  0  0  0  0
 21 19  1  0  0  0  0
 23 13  1  0  0  0  0
 32  5  1  0  0  0  0
 34  5  1  0  0  0  0
 38 10  1  0  0  0  0
 39 11  1  0  0  0  0
M  END
