6
q = 0.0, confidence = 0.95

 40 40  0  0  1  0  0  0  0  0999 V2000
   -1.0717   -1.5699   -0.9919 S   0  0  2  0  0  0  0  0  0  0  0  0
   -1.1758   -3.0837   -0.9310 O   0  0  0  0  0  0  0  0  0  0  0  0
    1.6905    2.2081    2.2880 O   0  0  0  0  0  0  0  0  0  0  0  0
    2.7176    0.3790   -2.8610 O   0  0  0  0  0  0  0  0  0  0  0  0
   -0.1714   -1.1327    0.5675 C   0  0  0  0  0  3  0  0  0  0  0  0
    0.1519    0.1712    1.0768 C   0  0  0  0  0  3  0  0  0  0  0  0
    0.9050    1.0818    0.2729 C   0  0  2  0  0  3  0  0  0  0  0  0
    1.2293    0.6475   -1.0563 C   0  0  0  0  0  3  0  0  0  0  0  0
    2.2024    1.3466   -1.9643 C   0  0  0  0  0  0  0  0  0  0  0  0
    1.4005    2.3718    0.9134 C   0  0  1  0  0  0  0  0  0  0  0  0
    0.3339    3.4800    0.8143 C   0  0  0  0  0  0  0  0  0  0  0  0
    0.0275    3.9116   -0.5889 C   0  0  0  0  0  0  0  0  0  0  0  0
   -1.1941    3.9183   -1.1509 C   0  0  0  0  0  0  0  0  0  0  0  0
   -2.6812   -0.9028   -0.4349 C   0  0  0  0  0  0  0  0  0  0  0  0
   -2.9313    0.4782   -0.4607 C   0  0  0  0  0  0  0  0  0  0  0  0
   -4.1890    0.9447   -0.0617 C   0  0  0  0  0  0  0  0  0  0  0  0
   -5.2043    0.0513    0.3520 C   0  0  0  0  0  0  0  0  0  0  0  0
   -4.9207   -1.3295    0.3517 C   0  0  0  0  0  0  0  0  0  0  0  0
   -3.6653   -1.8153   -0.0457 C   0  0  0  0  0  0  0  0  0  0  0  0
   -6.5577    0.5728    0.7636 C   0  0  0  0  0  0  0  0  0  0  0  0
    2.2333    1.3961    2.3576 H   0  0  0  0  0  0  0  0  0  0  0  0
    3.2616    0.8434   -3.5214 H   0  0  0  0  0  0  0  0  0  0  0  0
   -0.5278   -1.8865    1.2935 H   0  0  0  0  0  0  0  0  0  0  0  0
   -0.0203    0.4308    2.1334 H   0  0  0  0  0  0  0  0  0  0  0  0
    0.4572    0.1050   -1.6266 H   0  0  0  0  0  0  0  0  0  0  0  0
    1.6498    2.1566   -2.5069 H   0  0  0  0  0  0  0  0  0  0  0  0
    3.0120    1.8478   -1.3802 H   0  0  0  0  0  0  0  0  0  0  0  0
    2.3057    2.7106    0.3524 H   0  0  0  0  0  0  0  0  0  0  0  0
   -0.5854    3.1350    1.3322 H   0  0  0  0  0  0  0  0  0  0  0  0
    0.7339    4.3372    1.3997 H   0  0  0  0  0  0  0  0  0  0  0  0
    0.8900    4.2599   -1.1878 H   0  0  0  0  0  0  0  0  0  0  0  0
   -2.0846    3.5948   -0.5860 H   0  0  0  0  0  0  0  0  0  0  0  0
   -1.3539    4.2621   -2.1845 H   0  0  0  0  0  0  0  0  0  0  0  0
   -2.1494    1.1838   -0.7846 H   0  0  0  0  0  0  0  0  0  0  0  0
   -4.3955    2.0274   -0.0746 H   0  0  0  0  0  0  0  0  0  0  0  0
   -5.7025   -2.0391    0.6664 H   0  0  0  0  0  0  0  0  0  0  0  0
   -3.4218   -2.8899   -0.0662 H   0  0  0  0  0  0  0  0  0  0  0  0
   -7.2045   -0.2346    1.1572 H   0  0  0  0  0  0  0  0  0  0  0  0
   -7.0858    1.0390   -0.0950 H   0  0  0  0  0  0  0  0  0  0  0  0
   -6.4694    1.3537    1.5469 H   0  0  0  0  0  0  0  0  0  0  0  0
  1  2  2  1  0  0  0
  1 14  1  0  0  0  0
  1  5  1  0  0  0  0
  3 21  1  0  0  0  0
  4  9  1  0  0  0  0
  5  6  1  0  0  0  0
  5 23  1  0  0  0  0
  6 24  1  0  0  0  0
  7  8  1  1  0  0  0
  7 10  1  0  0  0  0
  7  6  1  0  0  0  0
  9 27  1  0  0  0  0
  9  8  1  0  0  0  0
 10 28  1  6  0  0  0
 10  3  1  0  0  0  0
 11 10  1  0  0  0  0
 11 29  1  0  0  0  0
 11 30  1  0  0  0  0
 12 11  1  0  0  0  0
 13 12  2  0  0  0  0
 13 32  1  0  0  0  0
 14 19  1  0  0  0  0
 15 14  2  0  0  0  0
 15 16  1  0  0  0  0
 16 17  2  0  0  0  0
 17 20  1  0  0  0  0
 18 17  1  0  0  0  0
 18 36  1  0  0  0  0
 19 18  2  0  0  0  0
 20 38  1  0  0  0  0
 20 40  1  0  0  0  0
 22  4  1  0  0  0  0
 25  8  1  0  0  0  0
 26  9  1  0  0  0  0
 31 12  1  0  0  0  0
 33 13  1  0  0  0  0
 34 15  1  0  0  0  0
 35 16  1  0  0  0  0
 37 19  1  0  0  0  0
 39 20  1  0  0  0  0
M  END
