7
q = 0.0, confidence = 0.876

 70 70  0  0  1  0  0  0  0  0999 V2000
    3.5212   -0.8176   -0.3888 S   0  0  2  0  0  0  0  0  0  0  0  0
   -3.5107    1.2978   -0.1817 Si  0  0  0  0  0  0  0  0  0  0  0  0
    4.3910   -1.4696   -1.4498 O   0  0  0  0  0  0  0  0  0  0  0  0
   -1.9509    0.5928   -0.1676 O   0  0  0  0  0  0  0  0  0  0  0  0
    1.0970   -3.2598    2.7510 O   0  0  0  0  0  0  0  0  0  0  0  0
    1.8827   -0.6288   -1.2353 C   0  0  0  0  0  3  0  0  0  0  0  0
    0.6890    0.0098   -0.7500 C   0  0  0  0  0  3  0  0  0  0  0  0
    0.1267   -0.4083    0.4918 C   0  0  1  0  0  3  0  0  0  0  0  0
   -1.2078    0.1518    0.9326 C   0  0  0  0  0  0  0  0  0  0  0  0
   -4.1214    0.9081   -1.9438 C   0  0  0  0  0  0  0  0  0  0  0  0
   -5.6091    1.2446   -2.1393 C   0  0  0  0  0  0  0  0  0  0  0  0
   -3.7825   -0.5208   -2.3994 C   0  0  0  0  0  0  0  0  0  0  0  0
   -3.3062    3.1827    0.0662 C   0  0  0  0  0  0  0  0  0  0  0  0
   -2.3871    3.7935   -1.0045 C   0  0  0  0  0  0  0  0  0  0  0  0
   -2.8058    3.5283    1.4797 C   0  0  0  0  0  0  0  0  0  0  0  0
   -4.5335    0.5472    1.2488 C   0  0  0  0  0  0  0  0  0  0  0  0
   -5.8262    1.3303    1.5386 C   0  0  0  0  0  0  0  0  0  0  0  0
   -4.8158   -0.9535    1.0675 C   0  0  0  0  0  0  0  0  0  0  0  0
    0.8416   -1.4228    1.2153 C   0  0  0  0  0  3  0  0  0  0  0  0
    0.3102   -2.1163    2.4516 C   0  0  2  0  0  0  0  0  0  0  0  0
    0.3784   -1.2011    3.6970 C   0  0  0  0  0  0  0  0  0  0  0  0
    1.7249   -0.5696    3.9012 C   0  0  0  0  0  0  0  0  0  0  0  0
    1.9529    0.7540    3.9743 C   0  0  0  0  0  0  0  0  0  0  0  0
    3.9142    0.9688   -0.3972 C   0  0  0  0  0  0  0  0  0  0  0  0
    4.8294    1.4291   -1.3477 C   0  0  0  0  0  0  0  0  0  0  0  0
    5.1702    2.7905   -1.3563 C   0  0  0  0  0  0  0  0  0  0  0  0
    4.6168    3.6884   -0.4212 C   0  0  0  0  0  0  0  0  0  0  0  0
    3.7065    3.1842    0.5362 C   0  0  0  0  0  0  0  0  0  0  0  0
    3.3543    1.8296    0.5603 C   0  0  0  0  0  0  0  0  0  0  0  0
    4.9923    5.1488   -0.4209 C   0  0  0  0  0  0  0  0  0  0  0  0
    1.2031   -3.7647    1.9232 H   0  0  0  0  0  0  0  0  0  0  0  0
    2.1583   -0.4539   -2.2916 H   0  0  0  0  0  0  0  0  0  0  0  0
    0.1000    0.6915   -1.3822 H   0  0  0  0  0  0  0  0  0  0  0  0
   -1.7545   -0.6193    1.5224 H   0  0  0  0  0  0  0  0  0  0  0  0
   -0.9828    0.9845    1.6461 H   0  0  0  0  0  0  0  0  0  0  0  0
   -3.5314    1.6053   -2.5826 H   0  0  0  0  0  0  0  0  0  0  0  0
   -5.8568    2.2805   -1.8262 H   0  0  0  0  0  0  0  0  0  0  0  0
   -6.2599    0.5580   -1.5584 H   0  0  0  0  0  0  0  0  0  0  0  0
   -5.9052    1.1432   -3.2053 H   0  0  0  0  0  0  0  0  0  0  0  0
   -2.7028   -0.7358   -2.2817 H   0  0  0  0  0  0  0  0  0  0  0  0
   -4.0484   -0.6692   -3.4680 H   0  0  0  0  0  0  0  0  0  0  0  0
   -4.3357   -1.2837   -1.8147 H   0  0  0  0  0  0  0  0  0  0  0  0
   -4.3250    3.6192   -0.0572 H   0  0  0  0  0  0  0  0  0  0  0  0
   -2.7800    3.6505   -2.0313 H   0  0  0  0  0  0  0  0  0  0  0  0
   -1.3764    3.3344   -0.9701 H   0  0  0  0  0  0  0  0  0  0  0  0
   -2.2595    4.8864   -0.8490 H   0  0  0  0  0  0  0  0  0  0  0  0
   -3.4634    3.1289    2.2783 H   0  0  0  0  0  0  0  0  0  0  0  0
   -2.7395    4.6281    1.6256 H   0  0  0  0  0  0  0  0  0  0  0  0
   -1.7866    3.1223    1.6544 H   0  0  0  0  0  0  0  0  0  0  0  0
   -3.8694    0.6640    2.1387 H   0  0  0  0  0  0  0  0  0  0  0  0
   -5.6375    2.4033    1.7447 H   0  0  0  0  0  0  0  0  0  0  0  0
   -6.3528    0.9115    2.4233 H   0  0  0  0  0  0  0  0  0  0  0  0
   -6.5346    1.2778    0.6867 H   0  0  0  0  0  0  0  0  0  0  0  0
   -3.9036   -1.5415    0.8433 H   0  0  0  0  0  0  0  0  0  0  0  0
   -5.5260   -1.1294    0.2330 H   0  0  0  0  0  0  0  0  0  0  0  0
   -5.2782   -1.3859    1.9809 H   0  0  0  0  0  0  0  0  0  0  0  0
    1.9409   -1.3410    1.2522 H   0  0  0  0  0  0  0  0  0  0  0  0
   -0.7616   -2.4015    2.3078 H   0  0  0  0  0  0  0  0  0  0  0  0
   -0.4096   -0.4231    3.6305 H   0  0  0  0  0  0  0  0  0  0  0  0
    0.1289   -1.8513    4.5645 H   0  0  0  0  0  0  0  0  0  0  0  0
    2.5708   -1.2753    3.9778 H   0  0  0  0  0  0  0  0  0  0  0  0
    1.1276    1.4838    3.9011 H   0  0  0  0  0  0  0  0  0  0  0  0
    2.9661    1.1588    4.1224 H   0  0  0  0  0  0  0  0  0  0  0  0
    5.2572    0.7038   -2.0586 H   0  0  0  0  0  0  0  0  0  0  0  0
    5.8866    3.1663   -2.1043 H   0  0  0  0  0  0  0  0  0  0  0  0
    3.2715    3.8698    1.2814 H   0  0  0  0  0  0  0  0  0  0  0  0
    2.6553    1.4447    1.3210 H   0  0  0  0  0  0  0  0  0  0  0  0
    4.0933    5.7974   -0.4706 H   0  0  0  0  0  0  0  0  0  0  0  0
    5.6448    5.4033   -1.2780 H   0  0  0  0  0  0  0  0  0  0  0  0
    5.5340    5.4237    0.5087 H   0  0  0  0  0  0  0  0  0  0  0  0
  1  3  2  6  0  0  0
  2  4  1  0  0  0  0
  2 13  1  0  0  0  0
  2 16  1  0  0  0  0
  4  9  1  0  0  0  0
  6  7  1  0  0  0  0
  6  1  1  0  0  0  0
  8  7  1  6  0  0  0
  8  9  1  0  0  0  0
  8 19  1  0  0  0  0
  9 34  1  0  0  0  0
  9 35  1  0  0  0  0
 10  2  1  0  0  0  0
 11 10  1  0  0  0  0
 11 37  1  0  0  0  0
 11 38  1  0  0  0  0
 12 40  1  0  0  0  0
 12 10  1  0  0  0  0
 12 42  1  0  0  0  0
 13 15  1  0  0  0  0
 14 45  1  0  0  0  0
 14 46  1  0  0  0  0
 14 13  1  0  0  0  0
 15 48  1  0  0  0  0
 15 49  1  0  0  0  0
 15 47  1  0  0  0  0
 16 17  1  0  0  0  0
 16 50  1  0  0  0  0
 17 51  1  0  0  0  0
 17 52  1  0  0  0  0
 18 16  1  0  0  0  0
 18 56  1  0  0  0  0
 19 57  1  0  0  0  0
 19 20  1  0  0  0  0
 20 58  1  6  0  0  0
 20  5  1  0  0  0  0
 20 21  1  0  0  0  0
 21 22  1  0  0  0  0
 21 60  1  0  0  0  0
 22 23  2  0  0  0  0
 22 61  1  0  0  0  0
 23 63  1  0  0  0  0
 24  1  1  0  0  0  0
 24 29  1  0  0  0  0
 25 24  2  0  0  0  0
 26 25  1  0  0  0  0
 26 27  2  0  0  0  0
 27 30  1  0  0  0  0
 27 28  1  0  0  0  0
 28 29  2  0  0  0  0
 28 66  1  0  0  0  0
 29 67  1  0  0  0  0
 30 70  1  0  0  0  0
 31  5  1  0  0  0  0
 32  6  1  0  0  0  0
 33  7  1  0  0  0  0
 36 10  1  0  0  0  0
 39 11  1  0  0  0  0
 41 12  1  0  0  0  0
 43 13  1  0  0  0  0
 44 14  1  0  0  0  0
 53 17  1  0  0  0  0
 54 18  1  0  0  0  0
 55 18  1  0  0  0  0
 59 21  1  0  0  0  0
 62 23  1  0  0  0  0
 64 25  1  0  0  0  0
 65 26  1  0  0  0  0
 68 30  1  0  0  0  0
 69 30  1  0  0  0  0
M  END
