2
q = -1.0

 42 44  0  0  1  0  0  0  0  0999 V2000
   -0.3463    0.0679    0.4598 P   0  0  0  0  0  0  0  0  0  0  0  0
    3.4686   -0.8775   -0.1840 C   0  0  0  0  0  3  0  0  0  0  0  0
    3.9055   -1.7776    0.2667 H   0  0  0  0  0  0  0  0  0  0  0  0
    3.3227   -0.6340   -1.5872 C   0  0  0  0  0  3  0  0  0  0  0  0
    3.6220   -1.3100   -2.3959 H   0  0  0  0  0  0  0  0  0  0  0  0
    2.7054    0.6551   -1.7373 C   0  0  0  0  0  0  0  0  0  0  0  0
    2.4508    1.1378   -2.6886 H   0  0  0  0  0  0  0  0  0  0  0  0
    2.4792    1.1947   -0.4354 C   0  0  0  0  0  0  0  0  0  0  0  0
    2.0226    2.1643   -0.2053 H   0  0  0  0  0  0  0  0  0  0  0  0
    2.9581    0.2520    0.5437 C   0  0  2  0  0  3  0  0  0  0  0  0
    2.9923    0.4464    2.0424 C   0  0  0  0  0  0  0  0  0  0  0  0
    2.7173   -0.5143    2.5304 H   0  0  0  0  0  0  0  0  0  0  0  0
    4.0400    0.6548    2.3499 H   0  0  0  0  0  0  0  0  0  0  0  0
    2.0948    1.5603    2.5262 C   0  0  0  0  0  0  0  0  0  0  0  0
    2.5768    2.5210    2.7731 H   0  0  0  0  0  0  0  0  0  0  0  0
    0.7506    1.4852    2.6294 C   0  0  0  0  0  0  0  0  0  0  0  0
    0.2007    2.3892    2.9392 H   0  0  0  0  0  0  0  0  0  0  0  0
   -0.0780    0.2763    2.3127 C   0  0  0  0  0  0  0  0  0  0  0  0
   -1.0631    0.3095    2.8187 H   0  0  0  0  0  0  0  0  0  0  0  0
    0.4311   -0.6590    2.6257 H   0  0  0  0  0  0  0  0  0  0  0  0
   -1.8226   -1.0376    0.4004 C   0  0  0  0  0  0  0  0  0  0  0  0
   -1.9597   -2.1113    1.3042 C   0  0  0  0  0  0  0  0  0  0  0  0
   -1.2112   -2.2765    2.0925 H   0  0  0  0  0  0  0  0  0  0  0  0
   -3.0439   -2.9949    1.1944 C   0  0  0  0  0  0  0  0  0  0  0  0
   -3.1402   -3.8282    1.9070 H   0  0  0  0  0  0  0  0  0  0  0  0
   -3.9956   -2.8228    0.1775 C   0  0  0  0  0  0  0  0  0  0  0  0
   -4.8440   -3.5185    0.0915 H   0  0  0  0  0  0  0  0  0  0  0  0
   -3.8569   -1.7636   -0.7335 C   0  0  0  0  0  0  0  0  0  0  0  0
   -4.5950   -1.6264   -1.5383 H   0  0  0  0  0  0  0  0  0  0  0  0
   -2.7775   -0.8753   -0.6248 C   0  0  0  0  0  0  0  0  0  0  0  0
   -2.6744   -0.0492   -1.3441 H   0  0  0  0  0  0  0  0  0  0  0  0
   -1.1000    1.6926   -0.0142 C   0  0  0  0  0  0  0  0  0  0  0  0
   -2.0738    2.3197    0.7908 C   0  0  0  0  0  0  0  0  0  0  0  0
   -2.4032    1.8481    1.7296 H   0  0  0  0  0  0  0  0  0  0  0  0
   -2.6425    3.5381    0.3944 C   0  0  0  0  0  0  0  0  0  0  0  0
   -3.3997    4.0213    1.0306 H   0  0  0  0  0  0  0  0  0  0  0  0
   -2.2529    4.1378   -0.8157 C   0  0  0  0  0  0  0  0  0  0  0  0
   -2.7025    5.0932   -1.1264 H   0  0  0  0  0  0  0  0  0  0  0  0
   -1.2956    3.5125   -1.6282 C   0  0  0  0  0  0  0  0  0  0  0  0
   -0.9940    3.9727   -2.5816 H   0  0  0  0  0  0  0  0  0  0  0  0
   -0.7201    2.2958   -1.2272 C   0  0  0  0  0  0  0  0  0  0  0  0
    0.0269    1.7907   -1.8578 H   0  0  0  0  0  0  0  0  0  0  0  0
  1 18  1  0  0  0  0
  2  3  1  0  0  0  0
  2 10  1  0  0  0  0
  4  2  1  0  0  0  0
  5  4  1  0  0  0  0
  6  4  1  0  0  0  0
  6  8  2  0  0  0  0
  7  6  1  0  0  0  0
  8  9  1  0  0  0  0
  8 10  1  0  0  0  0
 10 11  1  6  0  0  0
 11 13  1  0  0  0  0
 11 14  1  0  0  0  0
 11 12  1  0  0  0  0
 14 16  2  0  0  0  0
 14 15  1  0  0  0  0
 16 17  1  0  0  0  0
 18 20  1  0  0  0  0
 18 16  1  0  0  0  0
 18 19  1  0  0  0  0
 21  1  1  0  0  0  0
 21 22  1  0  0  0  0
 22 23  1  0  0  0  0
 24 22  2  0  0  0  0
 24 25  1  0  0  0  0
 26 24  1  0  0  0  0
 27 26  1  0  0  0  0
 28 30  1  0  0  0  0
 28 26  2  0  0  0  0
 29 28  1  0  0  0  0
 30 21  2  0  0  0  0
 31 30  1  0  0  0  0
 32  1  1  0  0  0  0
 32 33  1  0  0  0  0
 33 34  1  0  0  0  0
 35 33  2  0  0  0  0
 35 36  1  0  0  0  0
 37 35  1  0  0  0  0
 38 37  1  0  0  0  0
 39 41  1  0  0  0  0
 39 37  2  0  0  0  0
 40 39  1  0  0  0  0
 41 32  2  0  0  0  0
 42 41  1  0  0  0  0
M  END
