4
q = -1.0

 39 41  0  0  0  0  0  0  0  0999 V2000
   -0.3057    0.0595    0.4878 P   0  0  0  0  0  0  0  0  0  0  0  0
    2.8788   -0.8232    1.2397 C   0  0  0  0  0  0  0  0  0  0  0  0
    2.6741   -1.3555    2.1755 H   0  0  0  0  0  0  0  0  0  0  0  0
    3.4819   -1.3770    0.0583 C   0  0  0  0  0  3  0  0  0  0  0  0
    3.8017   -2.4180   -0.0694 H   0  0  0  0  0  0  0  0  0  0  0  0
    3.6066   -0.3358   -0.9125 C   0  0  0  0  0  0  0  0  0  0  0  0
    4.0304   -0.4395   -1.9180 H   0  0  0  0  0  0  0  0  0  0  0  0
    3.0905    0.8731   -0.3318 C   0  0  0  0  0  0  0  0  0  0  0  0
    3.0604    1.8599   -0.8084 H   0  0  0  0  0  0  0  0  0  0  0  0
    2.6251    0.5757    0.9962 C   0  0  0  0  0  0  0  0  0  0  0  0
    2.0672    1.5421    1.9598 C   0  0  0  0  0  0  0  0  0  0  0  0
    2.6718    2.4447    2.1505 H   0  0  0  0  0  0  0  0  0  0  0  0
    0.8757    1.4190    2.5902 C   0  0  0  0  0  0  0  0  0  0  0  0
    0.5650    2.2248    3.2746 H   0  0  0  0  0  0  0  0  0  0  0  0
   -0.1131    0.3154    2.3441 C   0  0  0  0  0  0  0  0  0  0  0  0
   -1.0983    0.5492    2.7941 H   0  0  0  0  0  0  0  0  0  0  0  0
    0.2233   -0.6611    2.7507 H   0  0  0  0  0  0  0  0  0  0  0  0
   -1.0064    1.7007   -0.0083 C   0  0  0  0  0  0  0  0  0  0  0  0
   -0.2418    2.5736   -0.8021 C   0  0  0  0  0  0  0  0  0  0  0  0
    0.7456    2.2426   -1.1554 H   0  0  0  0  0  0  0  0  0  0  0  0
   -0.7416    3.8392   -1.1470 C   0  0  0  0  0  0  0  0  0  0  0  0
   -0.1379    4.5137   -1.7731 H   0  0  0  0  0  0  0  0  0  0  0  0
   -2.0100    4.2396   -0.7008 C   0  0  0  0  0  0  0  0  0  0  0  0
   -2.4044    5.2302   -0.9744 H   0  0  0  0  0  0  0  0  0  0  0  0
   -2.7812    3.3699    0.0893 C   0  0  0  0  0  0  0  0  0  0  0  0
   -3.7804    3.6773    0.4343 H   0  0  0  0  0  0  0  0  0  0  0  0
   -2.2834    2.1054    0.4334 C   0  0  0  0  0  0  0  0  0  0  0  0
   -2.8983    1.4205    1.0388 H   0  0  0  0  0  0  0  0  0  0  0  0
   -1.7826   -1.0261    0.3310 C   0  0  0  0  0  0  0  0  0  0  0  0
   -2.4338   -1.0743   -0.9209 C   0  0  0  0  0  0  0  0  0  0  0  0
   -2.0909   -0.4243   -1.7411 H   0  0  0  0  0  0  0  0  0  0  0  0
   -3.5088   -1.9487   -1.1250 C   0  0  0  0  0  0  0  0  0  0  0  0
   -4.0093   -1.9770   -2.1048 H   0  0  0  0  0  0  0  0  0  0  0  0
   -3.9430   -2.7893   -0.0862 C   0  0  0  0  0  0  0  0  0  0  0  0
   -4.7864   -3.4774   -0.2484 H   0  0  0  0  0  0  0  0  0  0  0  0
   -3.2934   -2.7533    1.1562 C   0  0  0  0  0  0  0  0  0  0  0  0
   -3.6242   -3.4140    1.9720 H   0  0  0  0  0  0  0  0  0  0  0  0
   -2.2153   -1.8782    1.3651 C   0  0  0  0  0  0  0  0  0  0  0  0
   -1.7111   -1.8715    2.3426 H   0  0  0  0  0  0  0  0  0  0  0  0
  1 15  1  0  0  0  0
  2  3  1  0  0  0  0
  4  2  1  0  0  0  0
  5  4  1  0  0  0  0
  6  8  2  0  0  0  0
  6  4  1  0  0  0  0
  7  6  1  0  0  0  0
  8 10  1  0  0  0  0
  9  8  1  0  0  0  0
 10  2  2  0  0  0  0
 10 11  1  0  0  0  0
 11 12  1  0  0  0  0
 11 13  2  0  0  0  0
 13 14  1  0  0  0  0
 15 13  1  0  0  0  0
 15 17  1  0  0  0  0
 15 16  1  0  0  0  0
 18 27  1  0  0  0  0
 18  1  1  0  0  0  0
 19 18  2  0  0  0  0
 20 19  1  0  0  0  0
 21 19  1  0  0  0  0
 21 23  2  0  0  0  0
 22 21  1  0  0  0  0
 23 25  1  0  0  0  0
 24 23  1  0  0  0  0
 25 27  2  0  0  0  0
 25 26  1  0  0  0  0
 27 28  1  0  0  0  0
 29  1  1  0  0  0  0
 29 38  1  0  0  0  0
 30 29  2  0  0  0  0
 31 30  1  0  0  0  0
 32 30  1  0  0  0  0
 32 34  2  0  0  0  0
 33 32  1  0  0  0  0
 34 36  1  0  0  0  0
 35 34  1  0  0  0  0
 36 38  2  0  0  0  0
 36 37  1  0  0  0  0
 38 39  1  0  0  0  0
M  END
