7
q = -1.0

 56 59  0  0  1  0  0  0  0  0999 V2000
   -3.4125   -2.1459    0.3116 O   0  0  0  0  0  0  0  0  0  0  0  0
   -1.2498    0.6139    1.3272 O   0  0  0  0  0  0  0  0  0  0  0  0
   -2.5381    1.4367   -0.5672 C   0  0  0  0  0  0  0  0  0  0  0  0
   -1.5887   -0.7742    1.1613 C   0  0  1  0  0  0  0  0  0  0  0  0
   -3.0044   -0.7778    0.5426 C   0  0  1  0  0  0  0  0  0  0  0  0
   -3.0917    2.5793   -1.0534 C   0  0  0  0  0  0  0  0  0  0  0  0
    2.2327   -0.9329   -2.0609 C   0  0  0  0  0  3  0  0  0  0  0  0
   -3.1372    0.0564   -0.7329 C   0  0  0  0  0  0  0  0  0  0  0  0
   -0.4446   -1.4260    0.3522 C   0  0  1  0  0  0  0  0  0  0  0  0
   -5.5933   -1.5601    0.5877 O   0  0  0  0  0  0  0  0  0  0  0  0
   -0.5400   -2.8272   -0.2810 C   0  0  0  0  0  0  0  0  0  0  0  0
   -0.2400    0.7444   -0.8864 C   0  0  0  0  0  0  0  0  0  0  0  0
   -1.6463   -1.3574    2.5717 C   0  0  0  0  0  0  0  0  0  0  0  0
   -4.4329    2.6537   -1.7338 C   0  0  0  0  0  0  0  0  0  0  0  0
    0.7291   -2.8572   -1.1508 C   0  0  0  0  0  0  0  0  0  0  0  0
   -2.3803    3.9099   -0.9426 C   0  0  0  0  0  0  0  0  0  0  0  0
    0.0297   -0.5698   -0.8032 C   0  0  0  0  0  0  0  0  0  0  0  0
    0.8149   -1.4411   -1.7792 C   0  0  1  0  0  0  0  0  0  0  0  0
   -4.7491   -2.4065    0.3683 C   0  0  0  0  0  0  0  0  0  0  0  0
    0.8274    2.7474    0.9463 C   0  0  0  0  0  0  0  0  0  0  0  0
   -0.6676    2.8067    0.5946 C   0  0  0  0  0  0  0  0  0  0  0  0
   -1.1643    1.4032    0.1222 C   0  0  2  0  0  0  0  0  0  0  0  0
   -5.0113   -3.8722    0.1141 C   0  0  0  0  0  0  0  0  0  0  0  0
   -0.9054    3.7979   -0.5604 C   0  0  0  0  0  0  0  0  0  0  0  0
   -1.4604    3.2469    1.8410 C   0  0  0  0  0  0  0  0  0  0  0  0
   -3.6848   -0.3430    1.3040 H   0  0  0  0  0  0  0  0  0  0  0  0
    2.2220   -0.0209   -2.6918 H   0  0  0  0  0  0  0  0  0  0  0  0
    2.8601   -1.6931   -2.5692 H   0  0  0  0  0  0  0  0  0  0  0  0
   -4.2107    0.1103   -0.9898 H   0  0  0  0  0  0  0  0  0  0  0  0
   -2.6239   -0.4794   -1.5616 H   0  0  0  0  0  0  0  0  0  0  0  0
    0.4066   -1.4721    1.0751 H   0  0  0  0  0  0  0  0  0  0  0  0
   -0.5806   -3.6450    0.4651 H   0  0  0  0  0  0  0  0  0  0  0  0
   -1.4492   -2.9060   -0.9092 H   0  0  0  0  0  0  0  0  0  0  0  0
    0.0731    1.3437   -1.7564 H   0  0  0  0  0  0  0  0  0  0  0  0
   -2.4016   -0.8207    3.1780 H   0  0  0  0  0  0  0  0  0  0  0  0
   -1.9171   -2.4300    2.5317 H   0  0  0  0  0  0  0  0  0  0  0  0
   -0.6617   -1.2526    3.0670 H   0  0  0  0  0  0  0  0  0  0  0  0
   -5.0109    1.7130   -1.6918 H   0  0  0  0  0  0  0  0  0  0  0  0
   -5.0529    3.4539   -1.2749 H   0  0  0  0  0  0  0  0  0  0  0  0
   -4.3143    2.9337   -2.8038 H   0  0  0  0  0  0  0  0  0  0  0  0
    1.6183   -3.0248   -0.5020 H   0  0  0  0  0  0  0  0  0  0  0  0
    0.7295   -3.6615   -1.9126 H   0  0  0  0  0  0  0  0  0  0  0  0
   -2.4861    4.4551   -1.9066 H   0  0  0  0  0  0  0  0  0  0  0  0
   -2.9282    4.5398   -0.2038 H   0  0  0  0  0  0  0  0  0  0  0  0
    1.4552    2.5715    0.0490 H   0  0  0  0  0  0  0  0  0  0  0  0
    1.1569    3.7053    1.3978 H   0  0  0  0  0  0  0  0  0  0  0  0
    1.0355    1.9371    1.6717 H   0  0  0  0  0  0  0  0  0  0  0  0
   -4.7068   -4.1334   -0.9193 H   0  0  0  0  0  0  0  0  0  0  0  0
   -4.4047   -4.4974    0.7981 H   0  0  0  0  0  0  0  0  0  0  0  0
   -6.0854   -4.0852    0.2498 H   0  0  0  0  0  0  0  0  0  0  0  0
   -0.3156    3.4791   -1.4468 H   0  0  0  0  0  0  0  0  0  0  0  0
   -0.5050    4.7925   -0.2712 H   0  0  0  0  0  0  0  0  0  0  0  0
   -1.2001    2.6162    2.7102 H   0  0  0  0  0  0  0  0  0  0  0  0
   -1.2195    4.3019    2.0862 H   0  0  0  0  0  0  0  0  0  0  0  0
   -2.5542    3.1637    1.6891 H   0  0  0  0  0  0  0  0  0  0  0  0
    0.2667   -1.4563   -2.7507 H   0  0  0  0  0  0  0  0  0  0  0  0
  1 19  1  0  0  0  0
  1  5  1  0  0  0  0
  3 22  1  0  0  0  0
  4  2  1  0  0  0  0
  4 13  1  1  0  0  0
  5  4  1  0  0  0  0
  5 26  1  1  0  0  0
  6 16  1  0  0  0  0
  6  3  2  0  0  0  0
  7 18  1  0  0  0  0
  8  3  1  0  0  0  0
  8  5  1  0  0  0  0
  9 31  1  1  0  0  0
  9  4  1  0  0  0  0
 11  9  1  0  0  0  0
 11 32  1  0  0  0  0
 12 17  2  0  0  0  0
 13 37  1  0  0  0  0
 13 35  1  0  0  0  0
 14 38  1  0  0  0  0
 14 39  1  0  0  0  0
 14  6  1  0  0  0  0
 15 41  1  0  0  0  0
 15 11  1  0  0  0  0
 16 24  1  0  0  0  0
 16 44  1  0  0  0  0
 17  9  1  0  0  0  0
 18 56  1  6  0  0  0
 18 15  1  0  0  0  0
 18 17  1  0  0  0  0
 19 10  2  0  0  0  0
 20 46  1  0  0  0  0
 20 47  1  0  0  0  0
 21 20  1  0  0  0  0
 21 25  1  0  0  0  0
 22 12  1  6  0  0  0
 22 21  1  0  0  0  0
 22  2  1  0  0  0  0
 23 50  1  0  0  0  0
 23 19  1  0  0  0  0
 23 49  1  0  0  0  0
 24 52  1  0  0  0  0
 24 21  1  0  0  0  0
 25 54  1  0  0  0  0
 25 53  1  0  0  0  0
 27  7  1  0  0  0  0
 28  7  1  0  0  0  0
 29  8  1  0  0  0  0
 30  8  1  0  0  0  0
 33 11  1  0  0  0  0
 34 12  1  0  0  0  0
 36 13  1  0  0  0  0
 40 14  1  0  0  0  0
 42 15  1  0  0  0  0
 43 16  1  0  0  0  0
 45 20  1  0  0  0  0
 48 23  1  0  0  0  0
 51 24  1  0  0  0  0
 55 25  1  0  0  0  0
M  END
