5
q = -1.0

 18 18  0  0  1  0  0  0  0  0999 V2000
   -2.4884   -0.3480   -0.8124 C   0  0  0  0  0  0  0  0  0  0  0  0
   -1.7440   -0.6522   -1.9798 C   0  0  0  0  0  0  0  0  0  0  0  0
   -0.8448    0.3113   -2.5416 C   0  0  0  0  0  0  0  0  0  0  0  0
   -0.7828    1.6282   -2.0153 C   0  0  0  0  0  0  0  0  0  0  0  0
   -1.5046    1.9488   -0.8212 C   0  0  1  0  0  3  0  0  0  0  0  0
   -3.6280   -1.1882   -0.3204 C   0  0  0  0  0  0  0  0  0  0  0  0
   -1.6988    3.3387   -0.2914 C   0  0  0  0  0  0  0  0  0  0  0  0
   -2.4086    0.9847   -0.3232 N   0  0  0  0  0  0  0  0  0  0  0  0
   -2.9693    1.2349    0.4970 H   0  0  0  0  0  0  0  0  0  0  0  0
   -4.5806   -0.8597   -0.7888 H   0  0  0  0  0  0  0  0  0  0  0  0
   -3.7599   -1.1397    0.7780 H   0  0  0  0  0  0  0  0  0  0  0  0
   -3.4699   -2.2459   -0.6006 H   0  0  0  0  0  0  0  0  0  0  0  0
   -2.5574    3.8276   -0.7995 H   0  0  0  0  0  0  0  0  0  0  0  0
   -1.8999    3.3403    0.7991 H   0  0  0  0  0  0  0  0  0  0  0  0
   -0.8094    3.9658   -0.4770 H   0  0  0  0  0  0  0  0  0  0  0  0
   -1.8458   -1.6562   -2.4114 H   0  0  0  0  0  0  0  0  0  0  0  0
   -0.2483    0.0545   -3.4285 H   0  0  0  0  0  0  0  0  0  0  0  0
   -0.1311    2.3894   -2.4632 H   0  0  0  0  0  0  0  0  0  0  0  0
  1  8  1  0  0  0  0
  1  6  1  0  0  0  0
  2  1  2  0  0  0  0
  3  4  2  0  0  0  0
  3  2  1  0  0  0  0
  4  5  1  0  0  0  0
  5  8  1  0  0  0  0
  5  7  1  6  0  0  0
  6 11  1  0  0  0  0
  7 14  1  0  0  0  0
  8  9  1  0  0  0  0
 10  6  1  0  0  0  0
 12  6  1  0  0  0  0
 13  7  1  0  0  0  0
 15  7  1  0  0  0  0
 16  2  1  0  0  0  0
 17  3  1  0  0  0  0
 18  4  1  0  0  0  0
M  END
