6
q = -1.0

 35 37  0  0  0  0  0  0  0  0999 V2000
    2.4062   -0.2840    0.3725 C   0  0  0  0  0  0  0  0  0  0  0  0
    1.9190   -1.3944    1.1249 C   0  0  0  0  0  0  0  0  0  0  0  0
    1.9382   -2.4339    0.7806 H   0  0  0  0  0  0  0  0  0  0  0  0
    1.3887   -0.9155    2.3511 C   0  0  0  0  0  0  0  0  0  0  0  0
    0.9735   -1.5321    3.1549 H   0  0  0  0  0  0  0  0  0  0  0  0
    1.5580    0.5077    2.3749 C   0  0  0  0  0  3  0  0  0  0  0  0
    1.2958    1.1782    3.1998 H   0  0  0  0  0  0  0  0  0  0  0  0
    2.1863    0.8873    1.1603 C   0  0  0  0  0  0  0  0  0  0  0  0
    2.4323    1.9096    0.8537 H   0  0  0  0  0  0  0  0  0  0  0  0
    3.0134   -0.3453   -1.0100 C   0  0  0  0  0  0  0  0  0  0  0  0
    3.6604    0.5434   -1.1550 H   0  0  0  0  0  0  0  0  0  0  0  0
    2.1915   -0.2537   -1.7489 H   0  0  0  0  0  0  0  0  0  0  0  0
    3.7643   -1.6096   -1.2987 C   0  0  0  0  0  0  0  0  0  0  0  0
    3.3097   -2.7935   -1.8747 C   0  0  0  0  0  0  0  0  0  0  0  0
    2.2755   -2.9659   -2.1940 H   0  0  0  0  0  0  0  0  0  0  0  0
    4.4160   -3.6918   -1.9682 C   0  0  0  0  0  0  0  0  0  0  0  0
    4.4055   -4.7128   -2.3659 H   0  0  0  0  0  0  0  0  0  0  0  0
    5.5229   -3.0356   -1.4499 C   0  0  0  0  0  0  0  0  0  0  0  0
    6.5586   -3.3601   -1.3046 H   0  0  0  0  0  0  0  0  0  0  0  0
    5.1246   -1.7733   -1.0318 N   0  0  0  0  0  0  0  0  0  0  0  0
    6.0036   -0.8031   -0.4770 C   0  0  0  0  0  0  0  0  0  0  0  0
    5.7195   -0.1921    0.7628 C   0  0  0  0  0  0  0  0  0  0  0  0
    4.8127   -0.4797    1.3126 H   0  0  0  0  0  0  0  0  0  0  0  0
    6.5890    0.7591    1.2973 C   0  0  0  0  0  0  0  0  0  0  0  0
    6.3786    1.2438    2.2614 H   0  0  0  0  0  0  0  0  0  0  0  0
    7.7772    1.1066    0.6173 C   0  0  0  0  0  0  0  0  0  0  0  0
    8.5627    2.0384    1.2229 O   0  0  0  0  0  0  0  0  0  0  0  0
    9.7662    2.4194    0.5847 C   0  0  0  0  0  0  0  0  0  0  0  0
   10.4613    1.5585    0.4597 H   0  0  0  0  0  0  0  0  0  0  0  0
    9.5811    2.8740   -0.4147 H   0  0  0  0  0  0  0  0  0  0  0  0
   10.2431    3.1731    1.2383 H   0  0  0  0  0  0  0  0  0  0  0  0
    8.0751    0.4847   -0.6130 C   0  0  0  0  0  0  0  0  0  0  0  0
    8.9890    0.7352   -1.1677 H   0  0  0  0  0  0  0  0  0  0  0  0
    7.1845   -0.4549   -1.1541 C   0  0  0  0  0  0  0  0  0  0  0  0
    7.4010   -0.9204   -2.1268 H   0  0  0  0  0  0  0  0  0  0  0  0
  1  2  1  0  0  0  0
  1  8  2  0  0  0  0
  2  4  2  0  0  0  0
  3  2  1  0  0  0  0
  4  6  1  0  0  0  0
  4  5  1  0  0  0  0
  6  7  1  0  0  0  0
  8  6  1  0  0  0  0
  9  8  1  0  0  0  0
 10  1  1  0  0  0  0
 11 10  1  0  0  0  0
 12 10  1  0  0  0  0
 13 20  1  0  0  0  0
 13 10  1  0  0  0  0
 14 13  2  0  0  0  0
 15 14  1  0  0  0  0
 16 14  1  0  0  0  0
 16 18  2  0  0  0  0
 17 16  1  0  0  0  0
 18 19  1  0  0  0  0
 18 20  1  0  0  0  0
 20 21  1  0  0  0  0
 21 22  1  0  0  0  0
 22 24  2  0  0  0  0
 22 23  1  0  0  0  0
 24 25  1  0  0  0  0
 26 27  1  0  0  0  0
 26 24  1  0  0  0  0
 28 27  1  0  0  0  0
 28 31  1  0  0  0  0
 29 28  1  0  0  0  0
 30 28  1  0  0  0  0
 32 26  2  0  0  0  0
 33 32  1  0  0  0  0
 34 32  1  0  0  0  0
 34 21  2  0  0  0  0
 35 34  1  0  0  0  0
M  END
