1
q = 0.0, confidence = 0.98

 26 26  0  0  0  0  0  0  0  0999 V2000
   -0.3103    0.6276   -0.0221 C   0  0  0  0  0  2  0  0  0  0  0  0
    0.2236    1.9459    0.0507 C   0  0  0  0  0  0  0  0  0  0  0  0
   -0.6201    3.0786    0.0915 C   0  0  0  0  0  0  0  0  0  0  0  0
   -0.1280    4.0571    0.2016 H   0  0  0  0  0  0  0  0  0  0  0  0
   -2.0101    2.9914    0.0133 C   0  0  0  0  0  0  0  0  0  0  0  0
   -2.6808    3.8583    0.0396 H   0  0  0  0  0  0  0  0  0  0  0  0
   -2.5264    1.7017   -0.0927 C   0  0  0  0  0  0  0  0  0  0  0  0
   -4.2615    0.0546   -0.2095 C   0  0  0  0  0  0  0  0  0  0  0  0
   -3.8679   -0.4574    0.6930 H   0  0  0  0  0  0  0  0  0  0  0  0
   -3.8095   -0.4365   -1.0948 H   0  0  0  0  0  0  0  0  0  0  0  0
   -5.7716    0.0655   -0.2585 C   0  0  0  0  0  0  0  0  0  0  0  0
   -6.1990    0.5622    0.6344 H   0  0  0  0  0  0  0  0  0  0  0  0
   -6.1427   -0.9777   -0.2860 H   0  0  0  0  0  0  0  0  0  0  0  0
   -6.1394    0.5874   -1.1635 H   0  0  0  0  0  0  0  0  0  0  0  0
    1.6823    2.2983    0.1633 C   0  0  0  0  0  0  0  0  0  0  0  0
    3.9303    1.6492   -0.1673 C   0  0  0  0  0  0  0  0  0  0  0  0
    4.1417    1.8052    0.9111 H   0  0  0  0  0  0  0  0  0  0  0  0
    4.1458    2.6085   -0.6827 H   0  0  0  0  0  0  0  0  0  0  0  0
    4.7145    0.4904   -0.7448 C   0  0  0  0  0  0  0  0  0  0  0  0
    4.5050   -0.4471   -0.1939 H   0  0  0  0  0  0  0  0  0  0  0  0
    5.7989    0.7022   -0.6640 H   0  0  0  0  0  0  0  0  0  0  0  0
    4.4663    0.3287   -1.8115 H   0  0  0  0  0  0  0  0  0  0  0  0
   -1.7257    0.6447   -0.1099 O   0  0  0  0  0  0  0  0  0  0  0  0
   -3.8147    1.4478   -0.1733 O   0  0  0  0  0  0  0  0  0  0  0  0
    2.0602    3.3708    0.6118 O   0  0  0  0  0  0  0  0  0  0  0  0
    2.5177    1.3613   -0.3119 O   0  0  0  0  0  0  0  0  0  0  0  0
  1  2  1  0  0  0  0
  2  3  2  0  0  0  0
  2 15  1  0  0  0  0
  3  4  1  0  0  0  0
  5  6  1  0  0  0  0
  5  3  1  0  0  0  0
  7  5  2  0  0  0  0
  8 24  1  0  0  0  0
  8  9  1  0  0  0  0
 10  8  1  0  0  0  0
 11  8  1  0  0  0  0
 11 12  1  0  0  0  0
 13 11  1  0  0  0  0
 14 11  1  0  0  0  0
 15 25  2  0  0  0  0
 16 17  1  0  0  0  0
 18 16  1  0  0  0  0
 19 21  1  0  0  0  0
 19 20  1  0  0  0  0
 19 16  1  0  0  0  0
 22 19  1  0  0  0  0
 23  7  1  0  0  0  0
 23  1  1  0  0  0  0
 24  7  1  0  0  0  0
 26 16  1  0  0  0  0
 26 15  1  0  0  0  0
M  END
