5
q = -1.0

 45 46  0  0  1  0  0  0  0  0999 V2000
    0.1986   -0.9870   -0.7673 C   0  0  0  0  0  0  0  0  0  0  0  0
    0.3706   -2.3167   -0.9403 O   0  0  0  0  0  0  0  0  0  0  0  0
   -0.4989   -2.7578   -0.8574 H   0  0  0  0  0  0  0  0  0  0  0  0
   -1.0579   -0.2714   -0.7512 C   0  0  2  0  0  3  0  0  0  0  0  0
   -0.6824    1.1268   -0.6472 C   0  0  2  0  0  3  0  0  0  0  0  0
   -1.5793    2.3321   -0.7309 C   0  0  0  0  0  0  0  0  0  0  0  0
   -2.5015    2.1814   -0.1357 H   0  0  0  0  0  0  0  0  0  0  0  0
   -1.9080    2.4349   -1.7905 H   0  0  0  0  0  0  0  0  0  0  0  0
   -0.8484    3.6105   -0.2967 C   0  0  0  0  0  0  0  0  0  0  0  0
   -1.4686    4.4962   -0.5432 H   0  0  0  0  0  0  0  0  0  0  0  0
   -0.7253    3.6083    0.8080 H   0  0  0  0  0  0  0  0  0  0  0  0
    0.5246    3.7126   -0.9717 C   0  0  0  0  0  0  0  0  0  0  0  0
    1.0005    4.6878   -0.7430 H   0  0  0  0  0  0  0  0  0  0  0  0
    0.3821    3.6857   -2.0752 H   0  0  0  0  0  0  0  0  0  0  0  0
    1.4638    2.5696   -0.5505 C   0  0  0  0  0  0  0  0  0  0  0  0
    2.3341    2.5234   -1.2376 H   0  0  0  0  0  0  0  0  0  0  0  0
    1.8812    2.7690    0.4569 H   0  0  0  0  0  0  0  0  0  0  0  0
    0.7519    1.2374   -0.5615 C   0  0  2  0  0  3  0  0  0  0  0  0
    1.3213   -0.0980   -0.5805 C   0  0  0  0  0  0  0  0  0  0  0  0
   -2.7868   -1.0216   -0.8067 Si  0  0  0  0  0  0  0  0  0  0  0  0
   -3.5250   -0.7754   -2.5319 C   0  0  0  0  0  0  0  0  0  0  0  0
   -3.6224    0.3045   -2.7670 H   0  0  0  0  0  0  0  0  0  0  0  0
   -4.5342   -1.2304   -2.6077 H   0  0  0  0  0  0  0  0  0  0  0  0
   -2.8811   -1.2324   -3.3108 H   0  0  0  0  0  0  0  0  0  0  0  0
   -3.9270   -0.2759    0.5000 C   0  0  0  0  0  0  0  0  0  0  0  0
   -4.1231    0.8003    0.3228 H   0  0  0  0  0  0  0  0  0  0  0  0
   -3.4892   -0.3793    1.5123 H   0  0  0  0  0  0  0  0  0  0  0  0
   -4.9053   -0.8000    0.4852 H   0  0  0  0  0  0  0  0  0  0  0  0
   -2.6370   -2.8881   -0.4542 C   0  0  0  0  0  0  0  0  0  0  0  0
   -2.0892   -3.0964    0.4891 H   0  0  0  0  0  0  0  0  0  0  0  0
   -2.1768   -3.4627   -1.2881 H   0  0  0  0  0  0  0  0  0  0  0  0
   -3.6550   -3.3128   -0.3303 H   0  0  0  0  0  0  0  0  0  0  0  0
    3.1263   -0.6541   -0.4223 Si  0  0  0  0  0  0  0  0  0  0  0  0
    3.7783   -0.9970   -2.1681 C   0  0  0  0  0  0  0  0  0  0  0  0
    4.8335   -1.3393   -2.1413 H   0  0  0  0  0  0  0  0  0  0  0  0
    3.7295   -0.0883   -2.8025 H   0  0  0  0  0  0  0  0  0  0  0  0
    3.1734   -1.7873   -2.6578 H   0  0  0  0  0  0  0  0  0  0  0  0
    4.1565    0.6997    0.4048 C   0  0  0  0  0  0  0  0  0  0  0  0
    5.1705    0.3055    0.6245 H   0  0  0  0  0  0  0  0  0  0  0  0
    3.6964    1.0085    1.3653 H   0  0  0  0  0  0  0  0  0  0  0  0
    4.2762    1.6000   -0.2292 H   0  0  0  0  0  0  0  0  0  0  0  0
    3.2259   -2.2227    0.6222 C   0  0  0  0  0  0  0  0  0  0  0  0
    4.2684   -2.6025    0.6421 H   0  0  0  0  0  0  0  0  0  0  0  0
    2.5687   -3.0146    0.2141 H   0  0  0  0  0  0  0  0  0  0  0  0
    2.9101   -2.0212    1.6652 H   0  0  0  0  0  0  0  0  0  0  0  0
  1  4  1  0  0  0  0
  1 19  2  0  0  0  0
  2  3  1  0  0  0  0
  2  1  1  0  0  0  0
  4 20  1  1  0  0  0
  4  5  1  0  0  0  0
  5  6  1  6  0  0  0
  5 18  1  0  0  0  0
  6  9  1  0  0  0  0
  6  7  1  0  0  0  0
  8  6  1  0  0  0  0
  9 11  1  0  0  0  0
 10  9  1  0  0  0  0
 12 13  1  0  0  0  0
 12 15  1  0  0  0  0
 12  9  1  0  0  0  0
 14 12  1  0  0  0  0
 15 17  1  0  0  0  0
 16 15  1  0  0  0  0
 18 19  1  6  0  0  0
 18 15  1  0  0  0  0
 19 33  1  0  0  0  0
 20 29  1  0  0  0  0
 20 25  1  0  0  0  0
 21 20  1  0  0  0  0
 22 21  1  0  0  0  0
 23 21  1  0  0  0  0
 24 21  1  0  0  0  0
 25 27  1  0  0  0  0
 26 25  1  0  0  0  0
 28 25  1  0  0  0  0
 29 32  1  0  0  0  0
 29 30  1  0  0  0  0
 31 29  1  0  0  0  0
 33 38  1  0  0  0  0
 33 42  1  0  0  0  0
 34 35  1  0  0  0  0
 34 33  1  0  0  0  0
 36 34  1  0  0  0  0
 37 34  1  0  0  0  0
 38 39  1  0  0  0  0
 38 40  1  0  0  0  0
 41 38  1  0  0  0  0
 42 43  1  0  0  0  0
 42 45  1  0  0  0  0
 44 42  1  0  0  0  0
M  END
