3
q = 0.0, confidence = 0.964

 45 46  0  0  1  0  0  0  0  0999 V2000
    0.5535   -1.8717   -0.6074 N   0  0  0  0  0  0  0  0  0  0  0  0
   -1.6014   -1.2403   -0.0730 N   0  0  0  0  0  0  0  0  0  0  0  0
   -0.2948   -0.8939   -0.1977 C   0  0  0  0  0  2  0  0  0  0  0  0
    0.2061   -2.9835   -1.5138 C   0  0  0  0  0  0  0  0  0  0  0  0
   -0.6377   -2.6561   -2.1565 H   0  0  0  0  0  0  0  0  0  0  0  0
   -0.1277   -3.8899   -0.9678 H   0  0  0  0  0  0  0  0  0  0  0  0
    1.5036   -3.2628   -2.3095 C   0  0  0  0  0  0  0  0  0  0  0  0
    1.9549   -4.2170   -1.9724 H   0  0  0  0  0  0  0  0  0  0  0  0
    1.3078   -3.3638   -3.3945 H   0  0  0  0  0  0  0  0  0  0  0  0
    2.4377   -2.0824   -1.9807 C   0  0  0  0  0  0  0  0  0  0  0  0
    2.2552   -1.2350   -2.6733 H   0  0  0  0  0  0  0  0  0  0  0  0
    3.5097   -2.3502   -2.0542 H   0  0  0  0  0  0  0  0  0  0  0  0
    2.0146   -1.6934   -0.5566 C   0  0  2  0  0  0  0  0  0  0  0  0
    2.1792   -0.6180   -0.3201 H   0  0  0  0  0  0  0  0  0  0  0  0
   -2.0329   -2.5855    0.3783 C   0  0  0  0  0  0  0  0  0  0  0  0
   -1.1970   -3.0296    0.9557 H   0  0  0  0  0  0  0  0  0  0  0  0
   -2.2561   -3.2653   -0.4696 H   0  0  0  0  0  0  0  0  0  0  0  0
   -3.2805   -2.3470    1.2520 C   0  0  0  0  0  0  0  0  0  0  0  0
   -4.1925   -2.6713    0.7150 H   0  0  0  0  0  0  0  0  0  0  0  0
   -3.2284   -2.9338    2.1896 H   0  0  0  0  0  0  0  0  0  0  0  0
   -3.2979   -0.8313    1.5150 C   0  0  0  0  0  0  0  0  0  0  0  0
   -4.3183   -0.4351    1.6827 H   0  0  0  0  0  0  0  0  0  0  0  0
   -2.6797   -0.5886    2.4026 H   0  0  0  0  0  0  0  0  0  0  0  0
   -2.6055   -0.2144    0.2912 C   0  0  2  0  0  0  0  0  0  0  0  0
   -2.0252    0.6892    0.5882 H   0  0  0  0  0  0  0  0  0  0  0  0
    2.7264   -2.5513    0.5297 C   0  0  0  0  0  0  0  0  0  0  0  0
    2.9426   -3.5515    0.0865 H   0  0  0  0  0  0  0  0  0  0  0  0
    4.0672   -1.8852    0.8675 C   0  0  0  0  0  0  0  0  0  0  0  0
    4.6689   -2.5151    1.5529 H   0  0  0  0  0  0  0  0  0  0  0  0
    3.8921   -0.9099    1.3690 H   0  0  0  0  0  0  0  0  0  0  0  0
    4.6788   -1.6951   -0.0388 H   0  0  0  0  0  0  0  0  0  0  0  0
    1.8828   -2.7658    1.7888 C   0  0  0  0  0  0  0  0  0  0  0  0
    0.9761   -3.3664    1.5725 H   0  0  0  0  0  0  0  0  0  0  0  0
    1.5416   -1.8035    2.2243 H   0  0  0  0  0  0  0  0  0  0  0  0
    2.4685   -3.3135    2.5549 H   0  0  0  0  0  0  0  0  0  0  0  0
   -3.5056    0.1930   -0.9001 C   0  0  0  0  0  0  0  0  0  0  0  0
   -2.7965    0.5156   -1.6939 H   0  0  0  0  0  0  0  0  0  0  0  0
   -4.3652    1.4064   -0.5269 C   0  0  0  0  0  0  0  0  0  0  0  0
   -4.9160    1.7905   -1.4091 H   0  0  0  0  0  0  0  0  0  0  0  0
   -3.7456    2.2337   -0.1244 H   0  0  0  0  0  0  0  0  0  0  0  0
   -5.1189    1.1480    0.2461 H   0  0  0  0  0  0  0  0  0  0  0  0
   -4.3601   -0.9359   -1.4876 C   0  0  0  0  0  0  0  0  0  0  0  0
   -4.8859   -0.5900   -2.4010 H   0  0  0  0  0  0  0  0  0  0  0  0
   -5.1390   -1.2760   -0.7742 H   0  0  0  0  0  0  0  0  0  0  0  0
   -3.7447   -1.8128   -1.7728 H   0  0  0  0  0  0  0  0  0  0  0  0
  1 13  1  0  0  0  0
  1  3  1  0  0  0  0
  2 24  1  0  0  0  0
  2 15  1  0  0  0  0
  3  2  1  0  0  0  0
  4  6  1  0  0  0  0
  4  1  1  0  0  0  0
  5  4  1  0  0  0  0
  7 10  1  0  0  0  0
  7  8  1  0  0  0  0
  7  4  1  0  0  0  0
  9  7  1  0  0  0  0
 10 13  1  0  0  0  0
 11 10  1  0  0  0  0
 12 10  1  0  0  0  0
 13 14  1  1  0  0  0
 13 26  1  0  0  0  0
 15 16  1  0  0  0  0
 15 18  1  0  0  0  0
 17 15  1  0  0  0  0
 18 21  1  0  0  0  0
 18 20  1  0  0  0  0
 19 18  1  0  0  0  0
 21 22  1  0  0  0  0
 21 23  1  0  0  0  0
 24 25  1  1  0  0  0
 24 21  1  0  0  0  0
 26 28  1  0  0  0  0
 26 32  1  0  0  0  0
 27 26  1  0  0  0  0
 28 30  1  0  0  0  0
 28 29  1  0  0  0  0
 31 28  1  0  0  0  0
 32 34  1  0  0  0  0
 32 35  1  0  0  0  0
 33 32  1  0  0  0  0
 36 38  1  0  0  0  0
 36 24  1  0  0  0  0
 37 36  1  0  0  0  0
 38 40  1  0  0  0  0
 38 41  1  0  0  0  0
 39 38  1  0  0  0  0
 42 36  1  0  0  0  0
 42 44  1  0  0  0  0
 43 42  1  0  0  0  0
 45 42  1  0  0  0  0
M  END
