2
q = 0.0, confidence = 0.98

 37 38  0  0  0  0  0  0  0  0999 V2000
    0.8550    0.0081    0.6059 P   0  0  0  0  0  0  0  0  0  0  0  0
   -2.8706   -1.6280    1.0568 C   0  0  0  0  0  3  0  0  0  0  0  0
   -1.4807   -1.7899    1.4535 C   0  0  0  0  0  3  0  0  0  0  0  0
   -1.0332   -1.5510    2.8869 C   0  0  0  0  0  0  0  0  0  0  0  0
    0.4789   -1.3771    3.0807 C   0  0  0  0  0  0  0  0  0  0  0  0
    1.0716   -0.1087    2.4562 C   0  0  0  0  0  0  0  0  0  0  0  0
    2.0808   -1.2591    0.0183 C   0  0  0  0  0  0  0  0  0  0  0  0
    3.3596   -0.8921   -0.4544 C   0  0  0  0  0  0  0  0  0  0  0  0
    4.2668   -1.8689   -0.8941 C   0  0  0  0  0  0  0  0  0  0  0  0
    3.9181   -3.2273   -0.8640 C   0  0  0  0  0  0  0  0  0  0  0  0
    2.6521   -3.6036   -0.3894 C   0  0  0  0  0  0  0  0  0  0  0  0
    1.7406   -2.6296    0.0437 C   0  0  0  0  0  0  0  0  0  0  0  0
    1.7687    1.5818    0.2056 C   0  0  0  0  0  0  0  0  0  0  0  0
    1.6861    2.0529   -1.1231 C   0  0  0  0  0  0  0  0  0  0  0  0
    2.3116    3.2473   -1.5046 C   0  0  0  0  0  0  0  0  0  0  0  0
    3.0129    4.0091   -0.5543 C   0  0  0  0  0  0  0  0  0  0  0  0
    3.0912    3.5592    0.7715 C   0  0  0  0  0  0  0  0  0  0  0  0
    2.4803    2.3506    1.1485 C   0  0  0  0  0  0  0  0  0  0  0  0
   -3.5467   -1.1594    1.7938 H   0  0  0  0  0  0  0  0  0  0  0  0
   -3.3641   -2.4533    0.5175 H   0  0  0  0  0  0  0  0  0  0  0  0
   -1.0049   -2.7004    1.0416 H   0  0  0  0  0  0  0  0  0  0  0  0
   -1.5568   -0.6659    3.3099 H   0  0  0  0  0  0  0  0  0  0  0  0
   -1.3576   -2.4086    3.5246 H   0  0  0  0  0  0  0  0  0  0  0  0
    0.7127   -1.3556    4.1672 H   0  0  0  0  0  0  0  0  0  0  0  0
    1.0122   -2.2678    2.6825 H   0  0  0  0  0  0  0  0  0  0  0  0
    0.5803    0.7904    2.8866 H   0  0  0  0  0  0  0  0  0  0  0  0
    2.1562   -0.0382    2.6790 H   0  0  0  0  0  0  0  0  0  0  0  0
    3.6515    0.1672   -0.4829 H   0  0  0  0  0  0  0  0  0  0  0  0
    5.2571   -1.5605   -1.2630 H   0  0  0  0  0  0  0  0  0  0  0  0
    4.6305   -3.9912   -1.2107 H   0  0  0  0  0  0  0  0  0  0  0  0
    2.3650   -4.6658   -0.3597 H   0  0  0  0  0  0  0  0  0  0  0  0
    0.7490   -2.9343    0.4023 H   0  0  0  0  0  0  0  0  0  0  0  0
    1.1152    1.4712   -1.8626 H   0  0  0  0  0  0  0  0  0  0  0  0
    2.2442    3.5914   -2.5481 H   0  0  0  0  0  0  0  0  0  0  0  0
    3.4940    4.9543   -0.8476 H   0  0  0  0  0  0  0  0  0  0  0  0
    3.6357    4.1509    1.5234 H   0  0  0  0  0  0  0  0  0  0  0  0
    2.5678    2.0140    2.1912 H   0  0  0  0  0  0  0  0  0  0  0  0
  1  6  1  0  0  0  0
  2  3  1  0  0  0  0
  2 19  1  0  0  0  0
  3  4  1  0  0  0  0
  4  5  1  0  0  0  0
  4 22  1  0  0  0  0
  4 23  1  0  0  0  0
  5 24  1  0  0  0  0
  6 27  1  0  0  0  0
  6 26  1  0  0  0  0
  6  5  1  0  0  0  0
  7 12  1  0  0  0  0
  7  1  1  0  0  0  0
  8  7  2  0  0  0  0
  9 10  2  0  0  0  0
  9  8  1  0  0  0  0
 10 11  1  0  0  0  0
 11 31  1  0  0  0  0
 11 12  2  0  0  0  0
 12 32  1  0  0  0  0
 13  1  1  0  0  0  0
 13 18  1  0  0  0  0
 14 13  2  0  0  0  0
 15 14  1  0  0  0  0
 15 16  2  0  0  0  0
 16 17  1  0  0  0  0
 17 18  2  0  0  0  0
 17 36  1  0  0  0  0
 18 37  1  0  0  0  0
 20  2  1  0  0  0  0
 21  3  1  0  0  0  0
 25  5  1  0  0  0  0
 28  8  1  0  0  0  0
 29  9  1  0  0  0  0
 30 10  1  0  0  0  0
 33 14  1  0  0  0  0
 34 15  1  0  0  0  0
 35 16  1  0  0  0  0
M  END
