6
q = -1.0

 47 50  0  0  1  0  0  0  0  0999 V2000
    2.4275    0.3867   -1.6345 O   0  0  0  0  0  0  0  0  0  0  0  0
    0.5411   -0.4136   -0.3109 C   0  0  1  0  0  3  0  0  0  0  0  0
    0.0560   -1.5026   -1.1455 C   0  0  0  0  0  0  0  0  0  0  0  0
   -1.2809   -1.7811   -0.7297 C   0  0  0  0  0  0  0  0  0  0  0  0
   -1.6524   -0.9175    0.3602 C   0  0  1  0  0  3  0  0  0  0  0  0
   -0.5022   -0.0687    0.6020 C   0  0  0  0  0  3  0  0  0  0  0  0
    0.8335   -2.2523   -2.1815 C   0  0  0  0  0  0  0  0  0  0  0  0
   -2.9398   -0.8886    1.0732 C   0  0  0  0  0  0  0  0  0  0  0  0
   -3.2491    0.1566    1.9746 C   0  0  0  0  0  0  0  0  0  0  0  0
   -4.4757    0.1852    2.6478 C   0  0  0  0  0  0  0  0  0  0  0  0
   -5.4254   -0.8284    2.4361 C   0  0  0  0  0  0  0  0  0  0  0  0
   -5.1327   -1.8714    1.5444 C   0  0  0  0  0  0  0  0  0  0  0  0
   -3.9032   -1.9028    0.8720 C   0  0  0  0  0  0  0  0  0  0  0  0
    1.9713    0.1272   -0.3025 C   0  0  0  0  0  0  0  0  0  0  0  0
    2.0377    1.4184    0.5401 C   0  0  0  0  0  0  0  0  0  0  0  0
    2.6976    1.4872    1.7804 C   0  0  0  0  0  0  0  0  0  0  0  0
    2.7163    2.6839    2.5158 C   0  0  0  0  0  0  0  0  0  0  0  0
    2.0751    3.8296    2.0234 C   0  0  0  0  0  0  0  0  0  0  0  0
    1.4153    3.7734    0.7850 C   0  0  0  0  0  0  0  0  0  0  0  0
    1.3990    2.5788    0.0529 C   0  0  0  0  0  0  0  0  0  0  0  0
    2.9028   -0.9586    0.2562 C   0  0  0  0  0  0  0  0  0  0  0  0
    4.2287   -1.0404   -0.2085 C   0  0  0  0  0  0  0  0  0  0  0  0
    5.1067   -2.0006    0.3153 C   0  0  0  0  0  0  0  0  0  0  0  0
    4.6728   -2.8895    1.3115 C   0  0  0  0  0  0  0  0  0  0  0  0
    3.3519   -2.8127    1.7792 C   0  0  0  0  0  0  0  0  0  0  0  0
    2.4712   -1.8553    1.2524 C   0  0  0  0  0  0  0  0  0  0  0  0
   -1.9291   -2.5273   -1.2031 H   0  0  0  0  0  0  0  0  0  0  0  0
   -0.4220    0.7088    1.3698 H   0  0  0  0  0  0  0  0  0  0  0  0
    0.1621   -2.7088   -2.9341 H   0  0  0  0  0  0  0  0  0  0  0  0
    1.5620   -1.5900   -2.6825 H   0  0  0  0  0  0  0  0  0  0  0  0
    1.4111   -3.0675   -1.6960 H   0  0  0  0  0  0  0  0  0  0  0  0
   -2.5277    0.9708    2.1358 H   0  0  0  0  0  0  0  0  0  0  0  0
   -4.6958    1.0115    3.3405 H   0  0  0  0  0  0  0  0  0  0  0  0
   -6.3905   -0.8036    2.9640 H   0  0  0  0  0  0  0  0  0  0  0  0
   -5.8672   -2.6726    1.3716 H   0  0  0  0  0  0  0  0  0  0  0  0
   -3.6845   -2.7357    0.1883 H   0  0  0  0  0  0  0  0  0  0  0  0
    3.2039    0.5958    2.1766 H   0  0  0  0  0  0  0  0  0  0  0  0
    3.2407    2.7176    3.4829 H   0  0  0  0  0  0  0  0  0  0  0  0
    2.0894    4.7660    2.6015 H   0  0  0  0  0  0  0  0  0  0  0  0
    0.9028    4.6621    0.3869 H   0  0  0  0  0  0  0  0  0  0  0  0
    0.8557    2.5484   -0.9041 H   0  0  0  0  0  0  0  0  0  0  0  0
    4.5562   -0.3434   -0.9915 H   0  0  0  0  0  0  0  0  0  0  0  0
    6.1401   -2.0553   -0.0602 H   0  0  0  0  0  0  0  0  0  0  0  0
    5.3623   -3.6434    1.7211 H   0  0  0  0  0  0  0  0  0  0  0  0
    2.9995   -3.5066    2.5576 H   0  0  0  0  0  0  0  0  0  0  0  0
    1.4363   -1.8061    1.6224 H   0  0  0  0  0  0  0  0  0  0  0  0
    1.9606    1.1805   -1.9551 H   0  0  0  0  0  0  0  0  0  0  0  0
  1 14  1  0  0  0  0
  2 14  1  1  0  0  0
  2  6  1  0  0  0  0
  3  4  2  0  0  0  0
  3  2  1  0  0  0  0
  4  5  1  0  0  0  0
  5  6  1  0  0  0  0
  5  8  1  6  0  0  0
  6 28  1  0  0  0  0
  7 31  1  0  0  0  0
  7  3  1  0  0  0  0
  8  9  1  0  0  0  0
  9 32  1  0  0  0  0
  9 10  2  0  0  0  0
 10 33  1  0  0  0  0
 11 10  1  0  0  0  0
 11 34  1  0  0  0  0
 12 11  2  0  0  0  0
 13  8  2  0  0  0  0
 13 12  1  0  0  0  0
 14 21  1  0  0  0  0
 14 15  1  0  0  0  0
 15 16  1  0  0  0  0
 16 37  1  0  0  0  0
 16 17  2  0  0  0  0
 17 38  1  0  0  0  0
 18 17  1  0  0  0  0
 18 39  1  0  0  0  0
 19 18  2  0  0  0  0
 20 15  2  0  0  0  0
 20 19  1  0  0  0  0
 21 26  1  0  0  0  0
 22 21  2  0  0  0  0
 22 23  1  0  0  0  0
 23 24  2  0  0  0  0
 24 44  1  0  0  0  0
 24 25  1  0  0  0  0
 25 45  1  0  0  0  0
 26 46  1  0  0  0  0
 26 25  2  0  0  0  0
 27  4  1  0  0  0  0
 29  7  1  0  0  0  0
 30  7  1  0  0  0  0
 35 12  1  0  0  0  0
 36 13  1  0  0  0  0
 40 19  1  0  0  0  0
 41 20  1  0  0  0  0
 42 22  1  0  0  0  0
 43 23  1  0  0  0  0
 47  1  1  0  0  0  0
M  END
