11
q = -2.0, confidence = 0.584

 21 20  0  0  0  0  0  0  0  0999 V2000
    1.0165    0.8961   -0.6859 Se  0  0  0  0  0  1  0  0  0  0  0  0
    2.8199    4.0666    1.1512 O   0  0  0  0  0  0  0  0  0  0  0  0
    3.1620    2.8652   -0.7490 O   0  0  0  0  0  0  0  0  0  0  0  0
   -3.1169   -0.7471    2.0942 O   0  0  0  0  0  0  0  0  0  0  0  0
   -3.3412    1.4047    2.7515 O   0  0  0  0  0  0  0  0  0  0  0  0
    1.3204    2.2782    0.5968 C   0  0  0  0  0  0  0  0  0  0  0  0
    0.4726    2.4998    1.6529 C   0  0  0  0  0  0  0  0  0  0  0  0
    0.7954    3.3417    2.2923 H   0  0  0  0  0  0  0  0  0  0  0  0
   -0.7357    1.8384    2.0396 C   0  0  0  0  0  0  0  0  0  0  0  0
   -1.1505    2.1896    2.9992 H   0  0  0  0  0  0  0  0  0  0  0  0
   -1.4719    0.8820    1.3691 C   0  0  0  0  0  3  0  0  0  0  0  0
    2.4897    3.1693    0.3937 C   0  0  0  0  0  0  0  0  0  0  0  0
    4.3573    3.6170   -0.9796 C   0  0  0  0  0  0  0  0  0  0  0  0
    4.7520    3.2720   -1.9514 H   0  0  0  0  0  0  0  0  0  0  0  0
    5.0966    3.4257   -0.1754 H   0  0  0  0  0  0  0  0  0  0  0  0
    4.1416    4.7039   -1.0060 H   0  0  0  0  0  0  0  0  0  0  0  0
   -2.6988    0.4028    2.0873 C   0  0  0  0  0  0  0  0  0  0  0  0
   -4.4953    1.0026    3.4980 C   0  0  0  0  0  0  0  0  0  0  0  0
   -4.8741    1.9157    3.9907 H   0  0  0  0  0  0  0  0  0  0  0  0
   -4.2318    0.2333    4.2513 H   0  0  0  0  0  0  0  0  0  0  0  0
   -5.2713    0.5772    2.8289 H   0  0  0  0  0  0  0  0  0  0  0  0
  1  6  1  0  0  0  0
  3 12  1  0  0  0  0
  5 18  1  0  0  0  0
  6  7  2  0  0  0  0
  7  9  1  0  0  0  0
  7  8  1  0  0  0  0
  9 10  1  0  0  0  0
 11  9  2  0  0  0  0
 11 17  1  0  0  0  0
 12  6  1  0  0  0  0
 12  2  2  0  0  0  0
 13  3  1  0  0  0  0
 13 15  1  0  0  0  0
 14 13  1  0  0  0  0
 16 13  1  0  0  0  0
 17  4  2  0  0  0  0
 17  5  1  0  0  0  0
 18 19  1  0  0  0  0
 18 20  1  0  0  0  0
 21 18  1  0  0  0  0
M  END
