22
q = -1.0

 49 52  0  0  0  0  0  0  0  0999 V2000
   -1.3024    0.1768   -0.0777 P   0  0  0  0  0  0  0  0  0  0  0  0
    1.7399    0.5537    2.6466 O   0  0  0  0  0  0  0  0  0  0  0  0
    1.7647    1.0912   -0.2610 N   0  0  0  0  0  0  0  0  0  0  0  0
   -1.2079    1.5386   -1.2962 C   0  0  0  0  0  0  0  0  0  0  0  0
   -1.0298    2.8734   -0.8831 C   0  0  0  0  0  0  0  0  0  0  0  0
   -0.8312    3.8817   -1.8390 C   0  0  0  0  0  0  0  0  0  0  0  0
   -0.8131    3.5666   -3.2067 C   0  0  0  0  0  0  0  0  0  0  0  0
   -0.9927    2.2364   -3.6227 C   0  0  0  0  0  0  0  0  0  0  0  0
   -1.1828    1.2231   -2.6729 C   0  0  0  0  0  0  0  0  0  0  0  0
   -2.7845   -0.7966   -0.5454 C   0  0  0  0  0  0  0  0  0  0  0  0
   -3.8170   -0.2239   -1.3188 C   0  0  0  0  0  0  0  0  0  0  0  0
   -4.9820   -0.9587   -1.5873 C   0  0  0  0  0  0  0  0  0  0  0  0
   -5.1281   -2.2614   -1.0863 C   0  0  0  0  0  0  0  0  0  0  0  0
   -4.1067   -2.8316   -0.3090 C   0  0  0  0  0  0  0  0  0  0  0  0
   -2.9399   -2.1041   -0.0387 C   0  0  0  0  0  0  0  0  0  0  0  0
   -1.6805    0.9198    1.5452 C   0  0  0  0  0  0  0  0  0  0  0  0
   -2.8587    1.6413    1.8238 C   0  0  0  0  0  0  0  0  0  0  0  0
   -3.0513    2.1758    3.1031 C   0  0  0  0  0  0  0  0  0  0  0  0
   -2.0749    1.9793    4.0983 C   0  0  0  0  0  0  0  0  0  0  0  0
   -0.9149    1.2448    3.8203 C   0  0  0  0  0  0  0  0  0  0  0  0
   -0.7029    0.6973    2.5364 C   0  0  0  0  0  0  0  0  0  0  0  0
    0.5458   -0.1276    2.2437 C   0  0  0  0  0  3  0  0  0  0  0  0
    1.8948    1.8487    2.1476 C   0  0  0  0  0  0  0  0  0  0  0  0
    2.1287    2.0208    0.6559 C   0  0  0  0  0  0  0  0  0  0  0  0
    2.6997    3.2499    0.2649 C   0  0  0  0  0  0  0  0  0  0  0  0
    2.8926    3.5474   -1.0831 C   0  0  0  0  0  0  0  0  0  0  0  0
    2.5083    2.5855   -2.0266 C   0  0  0  0  0  0  0  0  0  0  0  0
    1.9598    1.3884   -1.5716 C   0  0  0  0  0  0  0  0  0  0  0  0
   -1.0484    3.1242    0.1880 H   0  0  0  0  0  0  0  0  0  0  0  0
   -0.6966    4.9233   -1.5109 H   0  0  0  0  0  0  0  0  0  0  0  0
   -0.6655    4.3612   -3.9534 H   0  0  0  0  0  0  0  0  0  0  0  0
   -0.9879    1.9869   -4.6944 H   0  0  0  0  0  0  0  0  0  0  0  0
   -1.3271    0.1824   -3.0041 H   0  0  0  0  0  0  0  0  0  0  0  0
   -3.7136    0.7968   -1.7152 H   0  0  0  0  0  0  0  0  0  0  0  0
   -5.7816   -0.5066   -2.1927 H   0  0  0  0  0  0  0  0  0  0  0  0
   -6.0420   -2.8349   -1.3011 H   0  0  0  0  0  0  0  0  0  0  0  0
   -4.2190   -3.8508    0.0897 H   0  0  0  0  0  0  0  0  0  0  0  0
   -2.1433   -2.5495    0.5771 H   0  0  0  0  0  0  0  0  0  0  0  0
   -3.6211    1.7804    1.0418 H   0  0  0  0  0  0  0  0  0  0  0  0
   -3.9665    2.7420    3.3312 H   0  0  0  0  0  0  0  0  0  0  0  0
   -2.2304    2.3939    5.1057 H   0  0  0  0  0  0  0  0  0  0  0  0
   -0.1581    1.0824    4.6036 H   0  0  0  0  0  0  0  0  0  0  0  0
    0.5239   -1.0062    2.9202 H   0  0  0  0  0  0  0  0  0  0  0  0
    2.7660    2.2835    2.6780 H   0  0  0  0  0  0  0  0  0  0  0  0
    1.0169    2.4916    2.4099 H   0  0  0  0  0  0  0  0  0  0  0  0
    2.9891    3.9686    1.0463 H   0  0  0  0  0  0  0  0  0  0  0  0
    3.3374    4.5049   -1.3920 H   0  0  0  0  0  0  0  0  0  0  0  0
    2.6275    2.7486   -3.1062 H   0  0  0  0  0  0  0  0  0  0  0  0
    1.6472    0.6255   -2.2892 H   0  0  0  0  0  0  0  0  0  0  0  0
  1 16  1  0  0  0  0
  3 24  1  0  0  0  0
  4  5  1  0  0  0  0
  4  1  1  0  0  0  0
  5 29  1  0  0  0  0
  6 30  1  0  0  0  0
  6  5  2  0  0  0  0
  7  6  1  0  0  0  0
  8  7  2  0  0  0  0
  8  9  1  0  0  0  0
  9  4  2  0  0  0  0
 10  1  1  0  0  0  0
 10 15  1  0  0  0  0
 11 10  2  0  0  0  0
 12 11  1  0  0  0  0
 12 13  2  0  0  0  0
 13 14  1  0  0  0  0
 14 15  2  0  0  0  0
 14 37  1  0  0  0  0
 15 38  1  0  0  0  0
 16 17  2  0  0  0  0
 16 21  1  0  0  0  0
 17 18  1  0  0  0  0
 18 40  1  0  0  0  0
 18 19  2  0  0  0  0
 19 41  1  0  0  0  0
 20 19  1  0  0  0  0
 20 42  1  0  0  0  0
 21 20  2  0  0  0  0
 22 21  1  0  0  0  0
 22  2  1  0  0  0  0
 22 43  1  0  0  0  0
 23 45  1  0  0  0  0
 23  2  1  0  0  0  0
 23 44  1  0  0  0  0
 24 23  1  0  0  0  0
 25 24  2  0  0  0  0
 25 46  1  0  0  0  0
 26 25  1  0  0  0  0
 27 28  1  0  0  0  0
 27 26  2  0  0  0  0
 28  3  2  0  0  0  0
 31  7  1  0  0  0  0
 32  8  1  0  0  0  0
 33  9  1  0  0  0  0
 34 11  1  0  0  0  0
 35 12  1  0  0  0  0
 36 13  1  0  0  0  0
 39 17  1  0  0  0  0
 47 26  1  0  0  0  0
 48 27  1  0  0  0  0
 49 28  1  0  0  0  0
M  END
