3
q = -1.0

 32 33  0  0  0  0  0  0  0  0999 V2000
   -3.6700   -1.0703    0.9417 Si  0  0  0  0  0  0  0  0  0  0  0  0
   -2.3521    0.2926    0.8274 C   0  0  0  0  0  0  0  0  0  0  0  0
   -1.4330    0.5801    1.8884 C   0  0  0  0  0  3  0  0  0  0  0  0
   -0.7145    1.7750    1.5800 C   0  0  0  0  0  0  0  0  0  0  0  0
   -1.2245    2.2855    0.3461 C   0  0  0  0  0  0  0  0  0  0  0  0
   -0.9193    3.5946   -0.3281 C   0  0  0  0  0  0  0  0  0  0  0  0
   -2.0061    3.9465   -1.3590 C   0  0  0  0  0  0  0  0  0  0  0  0
   -2.3562    2.7358   -2.2347 C   0  0  0  0  0  0  0  0  0  0  0  0
   -2.9738    1.5995   -1.4052 C   0  0  0  0  0  0  0  0  0  0  0  0
   -2.2006    1.3594   -0.1359 C   0  0  0  0  0  0  0  0  0  0  0  0
   -4.8689   -0.4961    2.2954 C   0  0  0  0  0  0  0  0  0  0  0  0
   -2.8747   -2.7003    1.4851 C   0  0  0  0  0  0  0  0  0  0  0  0
   -4.6287   -1.3296   -0.6622 C   0  0  0  0  0  0  0  0  0  0  0  0
   -1.3127   -0.0158    2.8019 H   0  0  0  0  0  0  0  0  0  0  0  0
    0.0416    2.2613    2.2080 H   0  0  0  0  0  0  0  0  0  0  0  0
    0.0657    3.5302   -0.8393 H   0  0  0  0  0  0  0  0  0  0  0  0
   -0.8262    4.3897    0.4410 H   0  0  0  0  0  0  0  0  0  0  0  0
   -2.9232    4.2951   -0.8330 H   0  0  0  0  0  0  0  0  0  0  0  0
   -1.6619    4.7941   -1.9859 H   0  0  0  0  0  0  0  0  0  0  0  0
   -1.4322    2.3663   -2.7291 H   0  0  0  0  0  0  0  0  0  0  0  0
   -3.0572    3.0298   -3.0422 H   0  0  0  0  0  0  0  0  0  0  0  0
   -3.0312    0.6657   -1.9993 H   0  0  0  0  0  0  0  0  0  0  0  0
   -4.0217    1.8603   -1.1314 H   0  0  0  0  0  0  0  0  0  0  0  0
   -4.3429   -0.3467    3.2604 H   0  0  0  0  0  0  0  0  0  0  0  0
   -5.6745   -1.2426    2.4557 H   0  0  0  0  0  0  0  0  0  0  0  0
   -5.3452    0.4669    2.0190 H   0  0  0  0  0  0  0  0  0  0  0  0
   -2.3648   -2.6023    2.4654 H   0  0  0  0  0  0  0  0  0  0  0  0
   -2.1374   -3.0473    0.7341 H   0  0  0  0  0  0  0  0  0  0  0  0
   -3.6528   -3.4838    1.5937 H   0  0  0  0  0  0  0  0  0  0  0  0
   -5.3757   -2.1363   -0.5091 H   0  0  0  0  0  0  0  0  0  0  0  0
   -3.9527   -1.6310   -1.4856 H   0  0  0  0  0  0  0  0  0  0  0  0
   -5.1762   -0.4171   -0.9703 H   0  0  0  0  0  0  0  0  0  0  0  0
  1 12  1  0  0  0  0
  1 11  1  0  0  0  0
  2  1  1  0  0  0  0
  2  3  1  0  0  0  0
  3 14  1  0  0  0  0
  4  3  1  0  0  0  0
  4 15  1  0  0  0  0
  5  4  2  0  0  0  0
  6  5  1  0  0  0  0
  6 17  1  0  0  0  0
  7 18  1  0  0  0  0
  7  6  1  0  0  0  0
  8  9  1  0  0  0  0
  8  7  1  0  0  0  0
  9 23  1  0  0  0  0
  9 10  1  0  0  0  0
 10  5  1  0  0  0  0
 10  2  2  0  0  0  0
 11 25  1  0  0  0  0
 11 24  1  0  0  0  0
 12 29  1  0  0  0  0
 12 27  1  0  0  0  0
 13 30  1  0  0  0  0
 13  1  1  0  0  0  0
 16  6  1  0  0  0  0
 19  7  1  0  0  0  0
 20  8  1  0  0  0  0
 21  8  1  0  0  0  0
 22  9  1  0  0  0  0
 26 11  1  0  0  0  0
 28 12  1  0  0  0  0
 31 13  1  0  0  0  0
 32 13  1  0  0  0  0
M  END
