2
q = -1.0, confidence = 0.0

 14 14  0  0  0  0  0  0  0  0999 V2000
    5.7329   -0.2804   -0.8007 Br  0  0  0  0  0  0  0  0  0  0  0  0
    0.0565   -0.3009    1.8038 C   0  0  0  0  0  3  0  0  0  0  0  0
    1.4159   -0.2982    1.1752 C   0  0  0  0  0  0  0  0  0  0  0  0
    2.4944    0.4109    1.7556 C   0  0  0  0  0  0  0  0  0  0  0  0
    3.7753    0.4224    1.1823 C   0  0  0  0  0  0  0  0  0  0  0  0
    4.0030   -0.2951   -0.0005 C   0  0  0  0  0  0  0  0  0  0  0  0
    2.9623   -1.0216   -0.6029 C   0  0  0  0  0  0  0  0  0  0  0  0
    1.6908   -1.0130   -0.0167 C   0  0  0  0  0  0  0  0  0  0  0  0
   -0.0000    0.4483    2.6192 H   0  0  0  0  0  0  0  0  0  0  0  0
   -0.1522   -1.2866    2.2635 H   0  0  0  0  0  0  0  0  0  0  0  0
    2.3297    0.9583    2.6974 H   0  0  0  0  0  0  0  0  0  0  0  0
    4.5948    0.9828    1.6546 H   0  0  0  0  0  0  0  0  0  0  0  0
    3.1457   -1.5790   -1.5325 H   0  0  0  0  0  0  0  0  0  0  0  0
    0.8692   -1.5529   -0.5124 H   0  0  0  0  0  0  0  0  0  0  0  0
  1  6  1  0  0  0  0
  2 10  1  0  0  0  0
  2  9  1  0  0  0  0
  3  4  1  0  0  0  0
  3  2  1  0  0  0  0
  4 11  1  0  0  0  0
  5 12  1  0  0  0  0
  5  4  2  0  0  0  0
  6  5  1  0  0  0  0
  7  8  1  0  0  0  0
  7  6  2  0  0  0  0
  8  3  2  0  0  0  0
 13  7  1  0  0  0  0
 14  8  1  0  0  0  0
M  END
