5
q = -1.0, confidence = 0.0

 23 24  0  0  0  0  0  0  0  0999 V2000
    1.6132    1.3256   -0.0915 N   0  0  0  0  0  0  0  0  0  0  0  0
    0.2570    1.5203    0.0899 C   0  0  0  0  0  0  0  0  0  0  0  0
   -0.6834    1.9318   -0.9304 C   0  0  0  0  0  3  0  0  0  0  0  0
   -0.4454    2.0599   -1.9917 H   0  0  0  0  0  0  0  0  0  0  0  0
   -1.9354    2.2152   -0.2843 C   0  0  0  0  0  3  0  0  0  0  0  0
   -2.8424    2.5755   -0.7848 H   0  0  0  0  0  0  0  0  0  0  0  0
   -1.7961    1.9692    1.1195 C   0  0  0  0  0  3  0  0  0  0  0  0
   -2.5620    2.1306    1.8862 H   0  0  0  0  0  0  0  0  0  0  0  0
   -0.4472    1.5053    1.3475 C   0  0  0  0  0  0  0  0  0  0  0  0
    0.0093    1.2719    2.3162 H   0  0  0  0  0  0  0  0  0  0  0  0
    2.1885    0.2026    0.1633 C   0  0  0  0  0  0  0  0  0  0  0  0
    1.5841   -0.6899    0.4559 H   0  0  0  0  0  0  0  0  0  0  0  0
    3.6380    0.0082    0.0752 C   0  0  0  0  0  0  0  0  0  0  0  0
    4.1789   -1.2720    0.3261 C   0  0  0  0  0  0  0  0  0  0  0  0
    3.5020   -2.1031    0.5800 H   0  0  0  0  0  0  0  0  0  0  0  0
    5.5616   -1.4837    0.2461 C   0  0  0  0  0  0  0  0  0  0  0  0
    5.9775   -2.4835    0.4413 H   0  0  0  0  0  0  0  0  0  0  0  0
    6.4138   -0.4183   -0.0857 C   0  0  0  0  0  0  0  0  0  0  0  0
    7.5002   -0.5833   -0.1490 H   0  0  0  0  0  0  0  0  0  0  0  0
    5.8819    0.8606   -0.3390 C   0  0  0  0  0  0  0  0  0  0  0  0
    6.5536    1.6924   -0.5999 H   0  0  0  0  0  0  0  0  0  0  0  0
    4.5035    1.0755   -0.2595 C   0  0  0  0  0  0  0  0  0  0  0  0
    4.0615    2.0640   -0.4537 H   0  0  0  0  0  0  0  0  0  0  0  0
  1  2  1  0  0  0  0
  1 11  2  0  0  0  0
  2  9  2  0  0  0  0
  3  5  1  0  0  0  0
  3  2  1  0  0  0  0
  4  3  1  0  0  0  0
  5  7  1  0  0  0  0
  6  5  1  0  0  0  0
  7  9  1  0  0  0  0
  7  8  1  0  0  0  0
  9 10  1  0  0  0  0
 11 12  1  0  0  0  0
 13 11  1  0  0  0  0
 13 14  1  0  0  0  0
 14 15  1  0  0  0  0
 16 14  2  0  0  0  0
 16 17  1  0  0  0  0
 18 16  1  0  0  0  0
 19 18  1  0  0  0  0
 20 22  1  0  0  0  0
 20 18  2  0  0  0  0
 21 20  1  0  0  0  0
 22 13  2  0  0  0  0
 23 22  1  0  0  0  0
M  END
