4
q = -1.0

 22 23  0  0  0  0  0  0  0  0999 V2000
   -1.2006    1.2354   -0.1346 C   0  0  0  0  0  0  0  0  0  0  0  0
   -0.3847    1.4488   -1.3102 C   0  0  0  0  0  3  0  0  0  0  0  0
   -0.6875    1.2574   -2.3445 H   0  0  0  0  0  0  0  0  0  0  0  0
    0.8293    2.1190   -0.8953 C   0  0  0  0  0  3  0  0  0  0  0  0
    1.6147    2.4857   -1.5662 H   0  0  0  0  0  0  0  0  0  0  0  0
    0.8076    2.2437    0.5249 C   0  0  0  0  0  3  0  0  0  0  0  0
    1.5735    2.7234    1.1451 H   0  0  0  0  0  0  0  0  0  0  0  0
   -0.4206    1.6507    1.0111 C   0  0  0  0  0  0  0  0  0  0  0  0
   -0.7500    1.6273    2.0546 H   0  0  0  0  0  0  0  0  0  0  0  0
   -2.4462    0.6888   -0.1015 N   0  0  0  0  0  0  0  0  0  0  0  0
   -3.0602    0.2828    1.1639 C   0  0  0  0  0  0  0  0  0  0  0  0
   -3.2304    1.1602    1.8223 H   0  0  0  0  0  0  0  0  0  0  0  0
   -2.3935   -0.4276    1.7115 H   0  0  0  0  0  0  0  0  0  0  0  0
   -4.3562   -0.4009    0.7194 C   0  0  0  0  0  0  0  0  0  0  0  0
   -4.7431   -1.1074    1.4784 H   0  0  0  0  0  0  0  0  0  0  0  0
   -5.1423    0.3601    0.5307 H   0  0  0  0  0  0  0  0  0  0  0  0
   -3.9378   -1.0835   -0.5916 C   0  0  0  0  0  0  0  0  0  0  0  0
   -4.7913   -1.3490   -1.2445 H   0  0  0  0  0  0  0  0  0  0  0  0
   -3.3757   -2.0130   -0.3671 H   0  0  0  0  0  0  0  0  0  0  0  0
   -2.9902   -0.0620   -1.2412 C   0  0  0  0  0  0  0  0  0  0  0  0
   -2.1712   -0.5565   -1.8078 H   0  0  0  0  0  0  0  0  0  0  0  0
   -3.5221    0.6198   -1.9426 H   0  0  0  0  0  0  0  0  0  0  0  0
  1 10  1  0  0  0  0
  1  8  2  0  0  0  0
  2  4  1  0  0  0  0
  2  1  1  0  0  0  0
  3  2  1  0  0  0  0
  4  6  1  0  0  0  0
  5  4  1  0  0  0  0
  6  8  1  0  0  0  0
  6  7  1  0  0  0  0
  8  9  1  0  0  0  0
 10 11  1  0  0  0  0
 11 13  1  0  0  0  0
 11 12  1  0  0  0  0
 14 11  1  0  0  0  0
 14 15  1  0  0  0  0
 16 14  1  0  0  0  0
 17 19  1  0  0  0  0
 17 14  1  0  0  0  0
 18 17  1  0  0  0  0
 20 17  1  0  0  0  0
 20 10  1  0  0  0  0
 21 20  1  0  0  0  0
 22 20  1  0  0  0  0
M  END
