5
q = -1.0, confidence = 0.0

 17 17  0  0  1  0  0  0  0  0999 V2000
    1.7819    0.6863   -1.7289 P   0  0  0  0  0  0  0  0  0  0  0  0
    2.5964    3.3687   -0.2766 O   0  0  0  0  0  0  0  0  0  0  0  0
    2.1080   -1.0535   -1.5180 C   0  0  0  0  0  0  0  0  0  0  0  0
    3.0376   -1.3713   -0.4751 C   0  0  2  0  0  3  0  0  0  0  0  0
    3.5004   -0.1981    0.2156 C   0  0  2  0  0  3  0  0  0  0  0  0
    2.8995    0.9959   -0.3408 C   0  0  1  0  0  3  0  0  0  0  0  0
    3.1673    2.3642    0.1324 C   0  0  0  0  0  0  0  0  0  0  0  0
    3.5285   -2.7672   -0.2104 C   0  0  0  0  0  0  0  0  0  0  0  0
    4.5255   -0.2089    1.3146 C   0  0  0  0  0  0  0  0  0  0  0  0
    1.6196   -1.8318   -2.1216 H   0  0  0  0  0  0  0  0  0  0  0  0
    3.9759    2.4499    0.9160 H   0  0  0  0  0  0  0  0  0  0  0  0
    2.7885   -3.5192   -0.5423 H   0  0  0  0  0  0  0  0  0  0  0  0
    3.7309   -2.9441    0.8629 H   0  0  0  0  0  0  0  0  0  0  0  0
    4.4719   -2.9477   -0.7675 H   0  0  0  0  0  0  0  0  0  0  0  0
    5.5390    0.0001    0.9096 H   0  0  0  0  0  0  0  0  0  0  0  0
    4.5616   -1.1947    1.8149 H   0  0  0  0  0  0  0  0  0  0  0  0
    4.3097    0.5487    2.0912 H   0  0  0  0  0  0  0  0  0  0  0  0
  1  3  2  0  0  0  0
  1  6  1  0  0  0  0
  2  7  2  0  0  0  0
  3  4  1  0  0  0  0
  4  8  1  6  0  0  0
  4  5  1  0  0  0  0
  5  9  1  6  0  0  0
  6  7  1  6  0  0  0
  6  5  1  0  0  0  0
  7 11  1  0  0  0  0
  8 13  1  0  0  0  0
  9 16  1  0  0  0  0
  9 17  1  0  0  0  0
 10  3  1  0  0  0  0
 12  8  1  0  0  0  0
 14  8  1  0  0  0  0
 15  9  1  0  0  0  0
M  END
