23
q = 0.0, confidence = 0.994

 43 44  0  0  0  0  0  0  0  0999 V2000
   -2.4850    0.9951    0.1502 N   0  0  0  0  0  0  0  0  0  0  0  0
   -3.9460    1.2526    0.4646 C   0  0  0  0  0  0  0  0  0  0  0  0
   -4.6516    1.9989   -0.6798 C   0  0  0  0  0  0  0  0  0  0  0  0
   -4.6926    1.4066   -1.6111 H   0  0  0  0  0  0  0  0  0  0  0  0
   -5.6939    2.2240   -0.3799 H   0  0  0  0  0  0  0  0  0  0  0  0
   -4.1461    2.9624   -0.8905 H   0  0  0  0  0  0  0  0  0  0  0  0
   -4.0996    2.0864    1.7425 C   0  0  0  0  0  0  0  0  0  0  0  0
   -3.6417    1.5840    2.6127 H   0  0  0  0  0  0  0  0  0  0  0  0
   -3.6503    3.0928    1.6296 H   0  0  0  0  0  0  0  0  0  0  0  0
   -5.1798    2.2193    1.9518 H   0  0  0  0  0  0  0  0  0  0  0  0
   -4.4519   -0.1914    0.6734 C   0  0  0  0  0  0  0  0  0  0  0  0
   -4.4242   -0.4305    1.7557 H   0  0  0  0  0  0  0  0  0  0  0  0
   -5.4966   -0.3182    0.3271 H   0  0  0  0  0  0  0  0  0  0  0  0
   -3.4675   -1.1195   -0.0716 C   0  0  0  0  0  0  0  0  0  0  0  0
   -3.8765   -1.3197   -1.5496 C   0  0  0  0  0  0  0  0  0  0  0  0
   -3.9474   -0.3638   -2.1000 H   0  0  0  0  0  0  0  0  0  0  0  0
   -3.1341   -1.9492   -2.0756 H   0  0  0  0  0  0  0  0  0  0  0  0
   -4.8672   -1.8176   -1.5884 H   0  0  0  0  0  0  0  0  0  0  0  0
   -3.3472   -2.4976    0.5968 C   0  0  0  0  0  0  0  0  0  0  0  0
   -2.6294   -3.1401    0.0437 H   0  0  0  0  0  0  0  0  0  0  0  0
   -3.0031   -2.4167    1.6451 H   0  0  0  0  0  0  0  0  0  0  0  0
   -4.3286   -3.0140    0.5739 H   0  0  0  0  0  0  0  0  0  0  0  0
   -2.1549   -0.3031   -0.0245 C   0  0  0  0  0  2  0  0  0  0  0  0
   -1.5541    2.0813   -0.0154 C   0  0  0  0  0  0  0  0  0  0  0  0
   -1.2464    2.5024   -1.3385 C   0  0  0  0  0  0  0  0  0  0  0  0
   -1.7954    1.7936   -2.5508 C   0  0  0  0  0  0  0  0  0  0  0  0
   -1.4128    2.2595   -3.4780 H   0  0  0  0  0  0  0  0  0  0  0  0
   -1.4848    0.7266   -2.5520 H   0  0  0  0  0  0  0  0  0  0  0  0
   -2.8994    1.8082   -2.5947 H   0  0  0  0  0  0  0  0  0  0  0  0
   -0.2855    3.5151   -1.5130 C   0  0  0  0  0  0  0  0  0  0  0  0
   -0.0381    3.8324   -2.5385 H   0  0  0  0  0  0  0  0  0  0  0  0
    0.4046    4.0910   -0.4305 C   0  0  0  0  0  0  0  0  0  0  0  0
    1.4893    5.1165   -0.6448 C   0  0  0  0  0  0  0  0  0  0  0  0
    1.4123    5.9474    0.0849 H   0  0  0  0  0  0  0  0  0  0  0  0
    2.4955    4.6632   -0.5099 H   0  0  0  0  0  0  0  0  0  0  0  0
    1.4516    5.5458   -1.6644 H   0  0  0  0  0  0  0  0  0  0  0  0
    0.1021    3.6224    0.8585 C   0  0  0  0  0  0  0  0  0  0  0  0
    0.6603    4.0243    1.7196 H   0  0  0  0  0  0  0  0  0  0  0  0
   -0.8553    2.6167    1.0971 C   0  0  0  0  0  0  0  0  0  0  0  0
   -1.0056    2.0963    2.5033 C   0  0  0  0  0  0  0  0  0  0  0  0
   -1.4280    1.0764    2.5321 H   0  0  0  0  0  0  0  0  0  0  0  0
   -0.0118    2.0474    2.9891 H   0  0  0  0  0  0  0  0  0  0  0  0
   -1.6377    2.7659    3.1220 H   0  0  0  0  0  0  0  0  0  0  0  0
  1  2  1  0  0  0  0
  2 11  1  0  0  0  0
  2  7  1  0  0  0  0
  3  5  1  0  0  0  0
  3  2  1  0  0  0  0
  4  3  1  0  0  0  0
  6  3  1  0  0  0  0
  7 10  1  0  0  0  0
  7  8  1  0  0  0  0
  9  7  1  0  0  0  0
 11 12  1  0  0  0  0
 13 11  1  0  0  0  0
 14 23  1  0  0  0  0
 14 19  1  0  0  0  0
 14 11  1  0  0  0  0
 15 14  1  0  0  0  0
 16 15  1  0  0  0  0
 17 15  1  0  0  0  0
 18 15  1  0  0  0  0
 19 21  1  0  0  0  0
 20 19  1  0  0  0  0
 22 19  1  0  0  0  0
 23  1  1  0  0  0  0
 24  1  1  0  0  0  0
 24 39  1  0  0  0  0
 25 24  2  0  0  0  0
 26 25  1  0  0  0  0
 27 26  1  0  0  0  0
 28 26  1  0  0  0  0
 29 26  1  0  0  0  0
 30 25  1  0  0  0  0
 30 32  2  0  0  0  0
 31 30  1  0  0  0  0
 32 37  1  0  0  0  0
 33 35  1  0  0  0  0
 33 32  1  0  0  0  0
 33 34  1  0  0  0  0
 36 33  1  0  0  0  0
 37 39  2  0  0  0  0
 37 38  1  0  0  0  0
 39 40  1  0  0  0  0
 40 41  1  0  0  0  0
 40 42  1  0  0  0  0
 40 43  1  0  0  0  0
M  END
