1
q = 0.0, confidence = 0.954

 26 27  0  0  1  0  0  0  0  0999 V2000
    0.9209    0.5777   -0.0443 C   0  0  0  0  0  3  0  0  0  0  0  0
   -0.4212   -0.5226   -0.0727 S   0  0  0  0  0  0  0  0  0  0  0  0
   -1.6517    0.7579   -0.1267 C   0  0  0  0  0  0  0  0  0  0  0  0
   -0.9878    2.0149   -0.1147 C   0  0  0  0  0  0  0  0  0  0  0  0
   -1.5426    2.9633   -0.1383 H   0  0  0  0  0  0  0  0  0  0  0  0
    0.4006    1.9059   -0.0723 C   0  0  0  0  0  0  0  0  0  0  0  0
    1.0677    2.7795   -0.0601 H   0  0  0  0  0  0  0  0  0  0  0  0
   -3.0405    0.5973   -0.1350 C   0  0  1  0  0  3  0  0  0  0  0  0
   -3.7918   -0.5292   -0.2466 N   0  0  0  0  0  0  0  0  0  0  0  0
   -5.2107   -0.2265    0.0895 C   0  0  0  0  0  0  0  0  0  0  0  0
   -5.1933    1.2817   -0.2288 C   0  0  0  0  0  0  0  0  0  0  0  0
   -5.4578    1.4766   -1.2912 H   0  0  0  0  0  0  0  0  0  0  0  0
   -5.8455    1.8818    0.4325 H   0  0  0  0  0  0  0  0  0  0  0  0
   -3.8306    1.6886   -0.0086 O   0  0  0  0  0  0  0  0  0  0  0  0
   -3.2625   -1.8778   -0.2788 C   0  0  0  0  0  0  0  0  0  0  0  0
   -2.4419   -1.9428   -1.0190 H   0  0  0  0  0  0  0  0  0  0  0  0
   -4.0629   -2.5724   -0.5930 H   0  0  0  0  0  0  0  0  0  0  0  0
   -2.8672   -2.2036    0.7076 H   0  0  0  0  0  0  0  0  0  0  0  0
   -6.1922   -0.9826   -0.8059 C   0  0  0  0  0  0  0  0  0  0  0  0
   -5.9311   -0.8633   -1.8756 H   0  0  0  0  0  0  0  0  0  0  0  0
   -7.2172   -0.5923   -0.6491 H   0  0  0  0  0  0  0  0  0  0  0  0
   -6.2179   -2.0635   -0.5642 H   0  0  0  0  0  0  0  0  0  0  0  0
   -5.4715   -0.4989    1.5802 C   0  0  0  0  0  0  0  0  0  0  0  0
   -5.3117   -1.5688    1.8199 H   0  0  0  0  0  0  0  0  0  0  0  0
   -6.5180   -0.2461    1.8431 H   0  0  0  0  0  0  0  0  0  0  0  0
   -4.7949    0.1052    2.2169 H   0  0  0  0  0  0  0  0  0  0  0  0
  2  1  1  0  0  0  0
  3  4  2  0  0  0  0
  3  2  1  0  0  0  0
  4  6  1  0  0  0  0
  5  4  1  0  0  0  0
  6  7  1  0  0  0  0
  6  1  2  0  0  0  0
  8  3  1  1  0  0  0
  8 14  1  0  0  0  0
  9  8  1  0  0  0  0
  9 10  1  0  0  0  0
 10 23  1  0  0  0  0
 11 14  1  0  0  0  0
 11 10  1  0  0  0  0
 11 13  1  0  0  0  0
 12 11  1  0  0  0  0
 15  9  1  0  0  0  0
 15 18  1  0  0  0  0
 16 15  1  0  0  0  0
 17 15  1  0  0  0  0
 19 21  1  0  0  0  0
 19 22  1  0  0  0  0
 19 10  1  0  0  0  0
 20 19  1  0  0  0  0
 23 24  1  0  0  0  0
 23 25  1  0  0  0  0
 23 26  1  0  0  0  0
M  END
