14
q = 0.0, confidence = 0.97

 22 22  0  0  0  0  0  0  0  0999 V2000
    0.8447    1.6536   -0.2142 N   0  0  0  0  0  0  0  0  0  0  0  0
    0.1007    2.3642   -0.2706 H   0  0  0  0  0  0  0  0  0  0  0  0
    2.2514   -0.9879   -1.2225 C   0  0  0  0  0  0  0  0  0  0  0  0
    1.9133   -0.5716   -2.1839 H   0  0  0  0  0  0  0  0  0  0  0  0
    3.2813   -1.9386   -1.1873 C   0  0  0  0  0  0  0  0  0  0  0  0
    3.7581   -2.2573   -2.1268 H   0  0  0  0  0  0  0  0  0  0  0  0
    3.7009   -2.4843    0.0362 C   0  0  0  0  0  0  0  0  0  0  0  0
    4.5087   -3.2308    0.0610 H   0  0  0  0  0  0  0  0  0  0  0  0
    3.0757   -2.0810    1.2271 C   0  0  0  0  0  0  0  0  0  0  0  0
    3.3941   -2.5089    2.1898 H   0  0  0  0  0  0  0  0  0  0  0  0
    2.0338   -1.1437    1.1996 C   0  0  0  0  0  0  0  0  0  0  0  0
    1.5278   -0.8472    2.1306 H   0  0  0  0  0  0  0  0  0  0  0  0
    1.6159   -0.5841   -0.0274 C   0  0  0  0  0  0  0  0  0  0  0  0
    0.4904    0.3844   -0.0756 C   0  0  0  0  0  2  0  0  0  0  0  0
    2.1835    2.2408   -0.2640 C   0  0  0  0  0  0  0  0  0  0  0  0
    2.4804    2.3980   -1.3266 H   0  0  0  0  0  0  0  0  0  0  0  0
    2.9156    1.5373    0.1779 H   0  0  0  0  0  0  0  0  0  0  0  0
    2.1667    3.5795    0.4778 C   0  0  0  0  0  0  0  0  0  0  0  0
    1.9657    3.4015    1.5547 H   0  0  0  0  0  0  0  0  0  0  0  0
    3.1708    4.0575    0.4010 H   0  0  0  0  0  0  0  0  0  0  0  0
    1.1200    4.4186    0.0173 O   0  0  0  0  0  0  0  0  0  0  0  0
    1.3609    4.7438   -0.8704 H   0  0  0  0  0  0  0  0  0  0  0  0
  1 14  1  0  0  0  0
  2  1  1  0  0  0  0
  3  5  2  0  0  0  0
  3 13  1  0  0  0  0
  4  3  1  0  0  0  0
  5  7  1  0  0  0  0
  6  5  1  0  0  0  0
  7  8  1  0  0  0  0
  7  9  2  0  0  0  0
  9 10  1  0  0  0  0
 11  9  1  0  0  0  0
 11 12  1  0  0  0  0
 13 11  2  0  0  0  0
 14 13  1  0  0  0  0
 15  1  1  0  0  0  0
 15 17  1  0  0  0  0
 15 18  1  0  0  0  0
 16 15  1  0  0  0  0
 18 19  1  0  0  0  0
 20 18  1  0  0  0  0
 21 18  1  0  0  0  0
 22 21  1  0  0  0  0
M  END
