5
q = 0.0, confidence = 0.94

 34 35  0  0  0  0  0  0  0  0999 V2000
   -0.4586    1.8240   -0.0460 S   0  0  0  0  0  0  0  0  0  0  0  0
   -2.6733   -1.7598   -0.0051 S   0  0  0  0  0  0  0  0  0  0  0  0
    2.2097    2.1260   -0.1058 O   0  0  0  0  0  0  0  0  0  0  0  0
   -5.5844   -1.9650    0.0130 O   0  0  0  0  0  0  0  0  0  0  0  0
    2.1312    0.7949   -0.0529 C   0  0  0  0  0  2  0  0  0  0  0  0
    0.7109    0.4723   -0.0365 C   0  0  0  0  0  0  0  0  0  0  0  0
    0.0622   -0.7706   -0.0246 C   0  0  0  0  0  0  0  0  0  0  0  0
    0.5895   -1.7294   -0.0241 H   0  0  0  0  0  0  0  0  0  0  0  0
   -1.3417   -0.6377   -0.0200 C   0  0  0  0  0  0  0  0  0  0  0  0
   -1.7895    0.7102   -0.0272 C   0  0  0  0  0  0  0  0  0  0  0  0
   -3.2005    0.8318   -0.0191 C   0  0  0  0  0  0  0  0  0  0  0  0
   -3.7557    1.7783   -0.0223 H   0  0  0  0  0  0  0  0  0  0  0  0
   -3.8138   -0.4211   -0.0073 C   0  0  0  0  0  0  0  0  0  0  0  0
   -5.2490   -0.7826    0.0033 C   0  0  0  0  0  0  0  0  0  0  0  0
   -6.2602    0.3552    0.0015 C   0  0  0  0  0  0  0  0  0  0  0  0
   -6.0590    0.9955   -0.8874 H   0  0  0  0  0  0  0  0  0  0  0  0
   -6.0475    1.0091    0.8776 H   0  0  0  0  0  0  0  0  0  0  0  0
   -7.7107   -0.1188    0.0146 C   0  0  0  0  0  0  0  0  0  0  0  0
   -7.8711   -0.7674    0.9022 H   0  0  0  0  0  0  0  0  0  0  0  0
   -7.8822   -0.7817   -0.8603 H   0  0  0  0  0  0  0  0  0  0  0  0
   -8.7224    1.0303    0.0117 C   0  0  0  0  0  0  0  0  0  0  0  0
   -8.5361    1.6867    0.8913 H   0  0  0  0  0  0  0  0  0  0  0  0
   -8.5474    1.6722   -0.8809 H   0  0  0  0  0  0  0  0  0  0  0  0
  -10.1747    0.5522    0.0248 C   0  0  0  0  0  0  0  0  0  0  0  0
  -10.8869    1.4015    0.0224 H   0  0  0  0  0  0  0  0  0  0  0  0
  -10.3873   -0.0619    0.9246 H   0  0  0  0  0  0  0  0  0  0  0  0
  -10.3987   -0.0765   -0.8619 H   0  0  0  0  0  0  0  0  0  0  0  0
    3.4257    2.8940   -0.1840 C   0  0  0  0  0  0  0  0  0  0  0  0
    3.8098    2.8166   -1.2213 H   0  0  0  0  0  0  0  0  0  0  0  0
    4.1795    2.4554    0.4960 H   0  0  0  0  0  0  0  0  0  0  0  0
    3.0879    4.3239    0.1857 C   0  0  0  0  0  0  0  0  0  0  0  0
    3.9968    4.9521    0.1074 H   0  0  0  0  0  0  0  0  0  0  0  0
    2.7109    4.3863    1.2254 H   0  0  0  0  0  0  0  0  0  0  0  0
    2.3178    4.7406   -0.4927 H   0  0  0  0  0  0  0  0  0  0  0  0
  1  6  1  0  0  0  0
  1 10  1  0  0  0  0
  3  5  1  0  0  0  0
  5  6  1  0  0  0  0
  6  7  2  0  0  0  0
  7  8  1  0  0  0  0
  7  9  1  0  0  0  0
  9  2  1  0  0  0  0
 10  9  2  0  0  0  0
 10 11  1  0  0  0  0
 11 13  2  0  0  0  0
 12 11  1  0  0  0  0
 13  2  1  0  0  0  0
 13 14  1  0  0  0  0
 14  4  2  0  0  0  0
 15 14  1  0  0  0  0
 15 18  1  0  0  0  0
 15 17  1  0  0  0  0
 16 15  1  0  0  0  0
 18 19  1  0  0  0  0
 20 18  1  0  0  0  0
 21 18  1  0  0  0  0
 21 24  1  0  0  0  0
 21 22  1  0  0  0  0
 23 21  1  0  0  0  0
 24 26  1  0  0  0  0
 25 24  1  0  0  0  0
 27 24  1  0  0  0  0
 28  3  1  0  0  0  0
 28 31  1  0  0  0  0
 28 30  1  0  0  0  0
 29 28  1  0  0  0  0
 31 33  1  0  0  0  0
 32 31  1  0  0  0  0
 34 31  1  0  0  0  0
M  END
