3
q = -1.0

 18 18  0  0  0  0  0  0  0  0999 V2000
    1.6581    1.7352   -1.4390 O   0  0  0  0  0  0  0  0  0  0  0  0
    2.6473    0.6450    0.3060 N   0  0  0  0  0  0  0  0  0  0  0  0
    1.6189    0.8537   -0.5723 C   0  0  0  0  0  3  0  0  0  0  0  0
    3.9002    1.3865    0.1493 C   0  0  0  0  0  0  0  0  0  0  0  0
    4.0720    2.0005    1.0653 H   0  0  0  0  0  0  0  0  0  0  0  0
    3.7678    2.0740   -0.7069 H   0  0  0  0  0  0  0  0  0  0  0  0
    5.0745    0.4224   -0.0544 C   0  0  0  0  0  0  0  0  0  0  0  0
    4.9378   -0.0992   -1.0261 H   0  0  0  0  0  0  0  0  0  0  0  0
    6.0204    1.0002   -0.1230 H   0  0  0  0  0  0  0  0  0  0  0  0
    5.1405   -0.6079    1.0811 C   0  0  0  0  0  0  0  0  0  0  0  0
    5.9570   -1.3377    0.8992 H   0  0  0  0  0  0  0  0  0  0  0  0
    5.3938   -0.0847    2.0320 H   0  0  0  0  0  0  0  0  0  0  0  0
    3.7961   -1.3299    1.2381 C   0  0  0  0  0  0  0  0  0  0  0  0
    3.5801   -1.9514    0.3439 H   0  0  0  0  0  0  0  0  0  0  0  0
    3.8111   -2.0090    2.1163 H   0  0  0  0  0  0  0  0  0  0  0  0
    2.6439   -0.3310    1.3896 C   0  0  0  0  0  0  0  0  0  0  0  0
    1.6667   -0.8521    1.3817 H   0  0  0  0  0  0  0  0  0  0  0  0
    2.7381    0.2174    2.3579 H   0  0  0  0  0  0  0  0  0  0  0  0
  1  3  2  0  0  0  0
  2 16  1  0  0  0  0
  3  2  1  0  0  0  0
  4  2  1  0  0  0  0
  4  5  1  0  0  0  0
  6  4  1  0  0  0  0
  7  4  1  0  0  0  0
  7 10  1  0  0  0  0
  8  7  1  0  0  0  0
  9  7  1  0  0  0  0
 10 13  1  0  0  0  0
 10 12  1  0  0  0  0
 11 10  1  0  0  0  0
 13 16  1  0  0  0  0
 13 15  1  0  0  0  0
 14 13  1  0  0  0  0
 16 18  1  0  0  0  0
 17 16  1  0  0  0  0
M  END
