13
q = -1.0

 37 39  0  0  0  0  0  0  0  0999 V2000
   -1.0708    0.6281    3.1011 F   0  0  0  0  0  0  0  0  0  0  0  0
   -1.0159    3.1472    4.0298 F   0  0  0  0  0  0  0  0  0  0  0  0
   -1.3478    5.2643    2.3285 F   0  0  0  0  0  0  0  0  0  0  0  0
   -1.8039    4.8162   -0.3431 F   0  0  0  0  0  0  0  0  0  0  0  0
   -1.9020    2.2892   -1.2928 F   0  0  0  0  0  0  0  0  0  0  0  0
   -3.3338   -1.4484    2.1264 F   0  0  0  0  0  0  0  0  0  0  0  0
   -5.8178   -2.3621    1.5822 F   0  0  0  0  0  0  0  0  0  0  0  0
   -6.8601   -2.1038   -0.9412 F   0  0  0  0  0  0  0  0  0  0  0  0
   -5.3718   -0.9179   -2.9191 F   0  0  0  0  0  0  0  0  0  0  0  0
   -2.9029    0.0026   -2.4009 F   0  0  0  0  0  0  0  0  0  0  0  0
   -1.5141   -0.1775    0.2905 B   0  0  0  0  0  0  0  0  0  0  0  0
   -0.8058    0.0086   -0.9878 H   0  0  0  0  0  0  0  0  0  0  0  0
   -0.6096   -1.1743    1.0230 C   0  0  0  0  0  2  0  0  0  0  0  0
    0.4284   -1.9104    1.1609 C   0  0  0  0  0  2  0  0  0  0  0  0
    1.3320   -2.6715    1.9785 C   0  0  0  0  0  0  0  0  0  0  0  0
    1.0094   -2.9172    3.3404 C   0  0  0  0  0  0  0  0  0  0  0  0
    0.0536   -2.5410    3.7340 H   0  0  0  0  0  0  0  0  0  0  0  0
    1.8997   -3.6164    4.1608 C   0  0  0  0  0  0  0  0  0  0  0  0
    1.6366   -3.8008    5.2137 H   0  0  0  0  0  0  0  0  0  0  0  0
    3.1272   -4.0800    3.6512 C   0  0  0  0  0  0  0  0  0  0  0  0
    3.8244   -4.6275    4.3032 H   0  0  0  0  0  0  0  0  0  0  0  0
    3.4577   -3.8365    2.3087 C   0  0  0  0  0  0  0  0  0  0  0  0
    4.4194   -4.1860    1.9029 H   0  0  0  0  0  0  0  0  0  0  0  0
    2.5697   -3.1423    1.4767 C   0  0  0  0  0  0  0  0  0  0  0  0
    2.8290   -2.9317    0.4302 H   0  0  0  0  0  0  0  0  0  0  0  0
   -1.4745    1.3431    0.8521 C   0  0  0  0  0  0  0  0  0  0  0  0
   -1.2678    1.6195    2.2148 C   0  0  0  0  0  0  0  0  0  0  0  0
   -1.2479    2.9262    2.7290 C   0  0  0  0  0  0  0  0  0  0  0  0
   -1.4221    4.0130    1.8604 C   0  0  0  0  0  0  0  0  0  0  0  0
   -1.6428    3.7828    0.4940 C   0  0  0  0  0  0  0  0  0  0  0  0
   -1.6747    2.4600    0.0267 C   0  0  0  0  0  0  0  0  0  0  0  0
   -2.9958   -0.6996   -0.1111 C   0  0  0  0  0  0  0  0  0  0  0  0
   -3.7970   -1.3068    0.8714 C   0  0  0  0  0  0  0  0  0  0  0  0
   -5.0927   -1.7870    0.6156 C   0  0  0  0  0  0  0  0  0  0  0  0
   -5.6298   -1.6542   -0.6754 C   0  0  0  0  0  0  0  0  0  0  0  0
   -4.8668   -1.0467   -1.6854 C   0  0  0  0  0  0  0  0  0  0  0  0
   -3.5780   -0.5763   -1.3814 C   0  0  0  0  0  0  0  0  0  0  0  0
  4 30  1  0  0  0  0
  5 31  1  0  0  0  0
  8 35  1  0  0  0  0
  9 36  1  0  0  0  0
 10 37  1  0  0  0  0
 11 26  1  0  0  0  0
 11 13  1  0  0  0  0
 12 11  1  0  0  0  0
 13 14  1  0  0  0  0
 14 15  1  0  0  0  0
 15 16  1  0  0  0  0
 16 17  1  0  0  0  0
 16 18  2  0  0  0  0
 18 19  1  0  0  0  0
 20 18  1  0  0  0  0
 20 21  1  0  0  0  0
 22 20  2  0  0  0  0
 23 22  1  0  0  0  0
 24 15  2  0  0  0  0
 24 22  1  0  0  0  0
 25 24  1  0  0  0  0
 26 27  1  0  0  0  0
 27 28  2  0  0  0  0
 27  1  1  0  0  0  0
 28  2  1  0  0  0  0
 29  3  1  0  0  0  0
 29 28  1  0  0  0  0
 30 29  2  0  0  0  0
 31 30  1  0  0  0  0
 31 26  2  0  0  0  0
 32 11  1  0  0  0  0
 32 33  1  0  0  0  0
 33  6  1  0  0  0  0
 34 33  2  0  0  0  0
 34  7  1  0  0  0  0
 35 34  1  0  0  0  0
 36 37  1  0  0  0  0
 36 35  2  0  0  0  0
 37 32  2  0  0  0  0
M  END
