1
q = -1.0, confidence = 0.0

 32 35  0  0  0  0  0  0  0  0999 V2000
   -0.2421   -0.4986   -1.0652 C   0  0  0  0  0  3  0  0  0  0  0  0
   -1.7197   -0.6380   -0.8568 C   0  0  0  0  0  0  0  0  0  0  0  0
   -2.0720   -1.9779   -1.2045 C   0  0  0  0  0  0  0  0  0  0  0  0
   -0.8472   -2.6106   -1.8139 C   0  0  0  0  0  0  0  0  0  0  0  0
   -3.3474   -2.4641   -1.0157 C   0  0  0  0  0  0  0  0  0  0  0  0
   -4.3610   -1.5955   -0.5061 C   0  0  0  0  0  0  0  0  0  0  0  0
   -5.6914   -2.0581   -0.2920 C   0  0  0  0  0  0  0  0  0  0  0  0
   -6.6941   -1.1983    0.1326 C   0  0  0  0  0  0  0  0  0  0  0  0
   -6.4008    0.1736    0.3432 C   0  0  0  0  0  0  0  0  0  0  0  0
   -5.1147    0.6577    0.1452 C   0  0  0  0  0  0  0  0  0  0  0  0
   -4.0492   -0.2028   -0.2601 C   0  0  0  0  0  0  0  0  0  0  0  0
   -2.7000    0.2736   -0.4552 C   0  0  0  0  0  0  0  0  0  0  0  0
   -2.3901    1.7277   -0.3278 C   0  0  0  0  0  0  0  0  0  0  0  0
   -2.0485    2.4573   -1.4884 C   0  0  0  0  0  0  0  0  0  0  0  0
   -1.7960    3.8352   -1.4277 C   0  0  0  0  0  0  0  0  0  0  0  0
   -1.8675    4.5120   -0.2000 C   0  0  0  0  0  0  0  0  0  0  0  0
   -2.2059    3.8014    0.9624 C   0  0  0  0  0  0  0  0  0  0  0  0
   -2.4735    2.4250    0.8972 C   0  0  0  0  0  0  0  0  0  0  0  0
    0.0454   -1.5224   -2.0414 O   0  0  0  0  0  0  0  0  0  0  0  0
    0.0376    0.4682   -1.5219 H   0  0  0  0  0  0  0  0  0  0  0  0
   -0.3947   -3.3676   -1.1273 H   0  0  0  0  0  0  0  0  0  0  0  0
   -1.0484   -3.1130   -2.7836 H   0  0  0  0  0  0  0  0  0  0  0  0
   -3.6143   -3.5001   -1.2792 H   0  0  0  0  0  0  0  0  0  0  0  0
   -5.9110   -3.1210   -0.4801 H   0  0  0  0  0  0  0  0  0  0  0  0
   -7.7157   -1.5744    0.2939 H   0  0  0  0  0  0  0  0  0  0  0  0
   -7.1995    0.8614    0.6607 H   0  0  0  0  0  0  0  0  0  0  0  0
   -4.9055    1.7255    0.3000 H   0  0  0  0  0  0  0  0  0  0  0  0
   -1.9989    1.9262   -2.4511 H   0  0  0  0  0  0  0  0  0  0  0  0
   -1.5394    4.3843   -2.3467 H   0  0  0  0  0  0  0  0  0  0  0  0
   -1.6659    5.5928   -0.1494 H   0  0  0  0  0  0  0  0  0  0  0  0
   -2.2709    4.3238    1.9293 H   0  0  0  0  0  0  0  0  0  0  0  0
   -2.7547    1.8807    1.8109 H   0  0  0  0  0  0  0  0  0  0  0  0
  1  2  1  0  0  0  0
  2 12  1  0  0  0  0
  3  5  1  0  0  0  0
  3  2  2  0  0  0  0
  4  3  1  0  0  0  0
  4 21  1  0  0  0  0
  5  6  2  0  0  0  0
  6  7  1  0  0  0  0
  6 11  1  0  0  0  0
  7  8  2  0  0  0  0
  8 25  1  0  0  0  0
  8  9  1  0  0  0  0
  9 26  1  0  0  0  0
 10 27  1  0  0  0  0
 10  9  2  0  0  0  0
 11 10  1  0  0  0  0
 12 13  1  0  0  0  0
 12 11  2  0  0  0  0
 13 18  1  0  0  0  0
 14 15  1  0  0  0  0
 14 13  2  0  0  0  0
 15 16  2  0  0  0  0
 16 30  1  0  0  0  0
 16 17  1  0  0  0  0
 17 31  1  0  0  0  0
 18 17  2  0  0  0  0
 18 32  1  0  0  0  0
 19  4  1  0  0  0  0
 19  1  1  0  0  0  0
 20  1  1  0  0  0  0
 22  4  1  0  0  0  0
 23  5  1  0  0  0  0
 24  7  1  0  0  0  0
 28 14  1  0  0  0  0
 29 15  1  0  0  0  0
M  END
