1
q = -1.0

 10 10  0  0  0  0  0  0  0  0999 V2000
   -1.6676   -0.5624   -0.4250 C   0  0  0  0  0  3  0  0  0  0  0  0
   -2.5844   -1.3829   -0.6232 C   0  0  0  0  0  0  0  0  0  0  0  0
   -3.6306   -2.3439   -0.8344 C   0  0  0  0  0  0  0  0  0  0  0  0
   -3.8026   -2.6366   -1.8858 H   0  0  0  0  0  0  0  0  0  0  0  0
   -4.8757   -2.3354    0.0542 C   0  0  0  0  0  0  0  0  0  0  0  0
   -4.9152   -1.5660    0.8399 H   0  0  0  0  0  0  0  0  0  0  0  0
   -5.8391   -2.5470   -0.4350 H   0  0  0  0  0  0  0  0  0  0  0  0
   -3.8783   -3.4455    0.1973 C   0  0  0  0  0  0  0  0  0  0  0  0
   -4.1348   -4.4429   -0.1917 H   0  0  0  0  0  0  0  0  0  0  0  0
   -3.2216   -3.4477    1.0800 H   0  0  0  0  0  0  0  0  0  0  0  0
  2  1  3  0  0  0  0
  3  2  1  0  0  0  0
  3  5  1  0  0  0  0
  3  8  1  0  0  0  0
  4  3  1  0  0  0  0
  5  8  1  0  0  0  0
  5  6  1  0  0  0  0
  7  5  1  0  0  0  0
  8 10  1  0  0  0  0
  9  8  1  0  0  0  0
M  END
