1
q = 0.0, confidence = 1.0

 27 27  0  0  0  0  0  0  0  0999 V2000
   -0.2573    0.3321   -0.2208 C   0  0  0  0  0  2  0  0  0  0  0  0
   -1.6097   -0.0257   -0.3831 C   0  0  0  0  0  0  0  0  0  0  0  0
   -1.2684    1.3100   -0.2332 C   0  0  0  0  0  0  0  0  0  0  0  0
   -2.5181   -0.9922   -0.5565 N   0  0  0  0  0  0  0  0  0  0  0  0
   -0.5269    3.5785    0.1441 C   0  0  0  0  0  0  0  0  0  0  0  0
    0.4550    3.1493   -0.1210 H   0  0  0  0  0  0  0  0  0  0  0  0
   -0.5097    3.8600    1.2203 H   0  0  0  0  0  0  0  0  0  0  0  0
   -0.6863    4.4954   -0.4598 H   0  0  0  0  0  0  0  0  0  0  0  0
   -2.9521    3.0735   -0.1037 C   0  0  0  0  0  0  0  0  0  0  0  0
   -3.0689    3.9792   -0.7353 H   0  0  0  0  0  0  0  0  0  0  0  0
   -3.2734    3.3336    0.9306 H   0  0  0  0  0  0  0  0  0  0  0  0
   -3.6258    2.2883   -0.4931 H   0  0  0  0  0  0  0  0  0  0  0  0
   -1.5774    2.6094   -0.1441 N   0  0  0  0  0  0  0  0  0  0  0  0
   -3.9474   -0.6742   -0.5447 C   0  0  0  0  0  0  0  0  0  0  0  0
   -4.4790   -1.5353   -0.9989 H   0  0  0  0  0  0  0  0  0  0  0  0
   -4.1200    0.1886   -1.2257 H   0  0  0  0  0  0  0  0  0  0  0  0
   -4.5093   -0.3695    0.8449 C   0  0  0  0  0  0  0  0  0  0  0  0
   -4.3995   -1.2362    1.5251 H   0  0  0  0  0  0  0  0  0  0  0  0
   -5.5859   -0.1117    0.7820 H   0  0  0  0  0  0  0  0  0  0  0  0
   -3.9809    0.4890    1.3070 H   0  0  0  0  0  0  0  0  0  0  0  0
   -2.0793   -2.3910   -0.6579 C   0  0  0  0  0  0  0  0  0  0  0  0
   -0.9985   -2.3740   -0.8937 H   0  0  0  0  0  0  0  0  0  0  0  0
   -2.5877   -2.8426   -1.5381 H   0  0  0  0  0  0  0  0  0  0  0  0
   -2.3369   -3.2268    0.5944 C   0  0  0  0  0  0  0  0  0  0  0  0
   -1.8113   -2.8013    1.4713 H   0  0  0  0  0  0  0  0  0  0  0  0
   -1.9557   -4.2565    0.4425 H   0  0  0  0  0  0  0  0  0  0  0  0
   -3.4184   -3.3037    0.8268 H   0  0  0  0  0  0  0  0  0  0  0  0
  2  3  2  0  0  0  0
  2  1  1  0  0  0  0
  3  1  1  0  0  0  0
  3 13  1  0  0  0  0
  4 14  1  0  0  0  0
  4  2  1  0  0  0  0
  5  7  1  0  0  0  0
  6  5  1  0  0  0  0
  8  5  1  0  0  0  0
  9 11  1  0  0  0  0
 10  9  1  0  0  0  0
 12  9  1  0  0  0  0
 13  9  1  0  0  0  0
 13  5  1  0  0  0  0
 14 17  1  0  0  0  0
 15 14  1  0  0  0  0
 16 14  1  0  0  0  0
 17 20  1  0  0  0  0
 17 18  1  0  0  0  0
 19 17  1  0  0  0  0
 21  4  1  0  0  0  0
 21 24  1  0  0  0  0
 22 21  1  0  0  0  0
 23 21  1  0  0  0  0
 24 27  1  0  0  0  0
 24 25  1  0  0  0  0
 26 24  1  0  0  0  0
M  END
