1
q = 0.0, confidence = 0.992

 20 20  0  0  0  0  0  0  0  0999 V2000
   -0.6539   -0.2148    0.0032 C   0  0  0  0  0  2  0  0  0  0  0  0
   -1.9834    0.2041    0.0029 C   0  0  0  0  0  0  0  0  0  0  0  0
   -1.7385   -1.1488    0.0035 C   0  0  0  0  0  0  0  0  0  0  0  0
   -2.8788    1.1662    0.0017 O   0  0  0  0  0  0  0  0  0  0  0  0
   -2.3220    2.5212    0.0003 C   0  0  0  0  0  0  0  0  0  0  0  0
   -1.6804    2.6325   -0.8985 H   0  0  0  0  0  0  0  0  0  0  0  0
   -1.6789    2.6339    0.8978 H   0  0  0  0  0  0  0  0  0  0  0  0
   -3.4773    3.4951    0.0005 C   0  0  0  0  0  0  0  0  0  0  0  0
   -4.1115    3.3619   -0.8981 H   0  0  0  0  0  0  0  0  0  0  0  0
   -3.0885    4.5323   -0.0008 H   0  0  0  0  0  0  0  0  0  0  0  0
   -4.1099    3.3634    0.9003 H   0  0  0  0  0  0  0  0  0  0  0  0
   -2.1258   -2.4202    0.0037 N   0  0  0  0  0  0  0  0  0  0  0  0
   -1.1445   -3.4984    0.0011 C   0  0  0  0  0  0  0  0  0  0  0  0
   -1.2543   -4.1250   -0.9095 H   0  0  0  0  0  0  0  0  0  0  0  0
   -1.2755   -4.1461    0.8938 H   0  0  0  0  0  0  0  0  0  0  0  0
   -0.1265   -3.0729    0.0181 H   0  0  0  0  0  0  0  0  0  0  0  0
   -3.5347   -2.7844   -0.0026 C   0  0  0  0  0  0  0  0  0  0  0  0
   -4.1544   -1.8693    0.0017 H   0  0  0  0  0  0  0  0  0  0  0  0
   -3.7874   -3.3927    0.8926 H   0  0  0  0  0  0  0  0  0  0  0  0
   -3.7830   -3.3811   -0.9069 H   0  0  0  0  0  0  0  0  0  0  0  0
  1  3  1  0  0  0  0
  2  1  1  0  0  0  0
  2  3  2  0  0  0  0
  3 12  1  0  0  0  0
  4  2  1  0  0  0  0
  5  8  1  0  0  0  0
  5  4  1  0  0  0  0
  5  7  1  0  0  0  0
  6  5  1  0  0  0  0
  8 11  1  0  0  0  0
  9  8  1  0  0  0  0
 10  8  1  0  0  0  0
 13 12  1  0  0  0  0
 13 16  1  0  0  0  0
 13 15  1  0  0  0  0
 14 13  1  0  0  0  0
 17 18  1  0  0  0  0
 17 12  1  0  0  0  0
 17 19  1  0  0  0  0
 20 17  1  0  0  0  0
M  END
