1
q = 0.0, confidence = 0.984

 50 51  0  0  1  0  0  0  0  0999 V2000
    0.3327    0.5742   -0.7789 C   0  0  0  0  0  2  0  0  0  0  0  0
    0.2697    1.8428   -1.2173 O   0  0  0  0  0  0  0  0  0  0  0  0
    1.4124    2.6788   -1.4423 C   0  0  0  0  0  0  0  0  0  0  0  0
    1.9282    2.3308   -2.3615 H   0  0  0  0  0  0  0  0  0  0  0  0
    2.1167    2.5707   -0.5932 H   0  0  0  0  0  0  0  0  0  0  0  0
    0.9225    4.1074   -1.5780 C   0  0  0  0  0  0  0  0  0  0  0  0
    1.7788    4.7768   -1.7930 H   0  0  0  0  0  0  0  0  0  0  0  0
    0.4346    4.4474   -0.6435 H   0  0  0  0  0  0  0  0  0  0  0  0
    0.1918    4.1993   -2.4058 H   0  0  0  0  0  0  0  0  0  0  0  0
   -1.0159    0.1689   -0.4422 C   0  0  1  0  0  3  0  0  0  0  0  0
   -2.0254    1.2224   -0.1663 C   0  0  0  0  0  0  0  0  0  0  0  0
   -1.6169    2.3721    0.6947 C   0  0  0  0  0  0  0  0  0  0  0  0
   -2.1692    3.6614    0.5218 C   0  0  0  0  0  0  0  0  0  0  0  0
   -2.8756    3.8391   -0.3024 H   0  0  0  0  0  0  0  0  0  0  0  0
   -1.7858    4.7251    1.3489 C   0  0  0  0  0  0  0  0  0  0  0  0
   -2.2173    5.7245    1.1855 H   0  0  0  0  0  0  0  0  0  0  0  0
   -0.8387    4.5258    2.3675 C   0  0  0  0  0  0  0  0  0  0  0  0
   -0.5305    5.3644    3.0101 H   0  0  0  0  0  0  0  0  0  0  0  0
   -0.2789    3.2512    2.5510 C   0  0  0  0  0  0  0  0  0  0  0  0
    0.4770    3.0818    3.3319 H   0  0  0  0  0  0  0  0  0  0  0  0
   -0.6665    2.1891    1.7244 C   0  0  0  0  0  0  0  0  0  0  0  0
   -0.2114    1.1962    1.8584 H   0  0  0  0  0  0  0  0  0  0  0  0
   -3.3309    1.1978   -0.6066 C   0  0  0  0  0  0  0  0  0  0  0  0
   -4.0121    1.9873   -0.2587 H   0  0  0  0  0  0  0  0  0  0  0  0
   -3.9424    0.2788   -1.5700 C   0  0  0  0  0  0  0  0  0  0  0  0
   -3.4532   -0.7099   -2.1108 O   0  0  0  0  0  0  0  0  0  0  0  0
   -5.2233    0.6790   -1.8362 O   0  0  0  0  0  0  0  0  0  0  0  0
   -5.9251   -0.1214   -2.7867 C   0  0  0  0  0  0  0  0  0  0  0  0
   -6.9306    0.3258   -2.8842 H   0  0  0  0  0  0  0  0  0  0  0  0
   -6.0041   -1.1739   -2.4426 H   0  0  0  0  0  0  0  0  0  0  0  0
   -5.4078   -0.1241   -3.7680 H   0  0  0  0  0  0  0  0  0  0  0  0
   -1.4073   -1.2097   -0.4445 C   0  0  2  0  0  3  0  0  0  0  0  0
   -0.8806   -2.1461   -1.4904 C   0  0  0  0  0  0  0  0  0  0  0  0
   -0.0968   -1.6378   -2.0710 H   0  0  0  0  0  0  0  0  0  0  0  0
   -1.7107   -2.3675   -2.1912 H   0  0  0  0  0  0  0  0  0  0  0  0
   -0.4827   -3.0940   -1.0781 H   0  0  0  0  0  0  0  0  0  0  0  0
   -2.3106   -1.6994    0.4303 N   0  0  0  0  0  0  0  0  0  0  0  0
   -2.7607   -1.0001    1.6335 C   0  0  0  0  0  0  0  0  0  0  0  0
   -3.7922   -0.6144    1.4735 H   0  0  0  0  0  0  0  0  0  0  0  0
   -2.1043   -0.1333    1.8220 H   0  0  0  0  0  0  0  0  0  0  0  0
   -2.7187   -1.9477    2.8398 C   0  0  0  0  0  0  0  0  0  0  0  0
   -1.6547   -2.1877    3.0727 H   0  0  0  0  0  0  0  0  0  0  0  0
   -3.1676   -1.4401    3.7163 H   0  0  0  0  0  0  0  0  0  0  0  0
   -3.4592   -3.1344    2.6165 O   0  0  0  0  0  0  0  0  0  0  0  0
   -2.9377   -3.8279    1.4989 C   0  0  0  0  0  0  0  0  0  0  0  0
   -3.5436   -4.7464    1.3679 H   0  0  0  0  0  0  0  0  0  0  0  0
   -1.8749   -4.1244    1.6762 H   0  0  0  0  0  0  0  0  0  0  0  0
   -3.0178   -2.9695    0.2351 C   0  0  0  0  0  0  0  0  0  0  0  0
   -4.0831   -2.7352    0.0149 H   0  0  0  0  0  0  0  0  0  0  0  0
   -2.6054   -3.5089   -0.6325 H   0  0  0  0  0  0  0  0  0  0  0  0
  2  1  1  0  0  0  0
  3  2  1  0  0  0  0
  3  5  1  0  0  0  0
  4  3  1  0  0  0  0
  6  3  1  0  0  0  0
  6  8  1  0  0  0  0
  7  6  1  0  0  0  0
  9  6  1  0  0  0  0
 10  1  1  6  0  0  0
 10 11  1  0  0  0  0
 11 12  1  0  0  0  0
 12 21  1  0  0  0  0
 13 12  2  0  0  0  0
 13 15  1  0  0  0  0
 14 13  1  0  0  0  0
 15 17  2  0  0  0  0
 16 15  1  0  0  0  0
 17 19  1  0  0  0  0
 17 18  1  0  0  0  0
 19 20  1  0  0  0  0
 21 22  1  0  0  0  0
 21 19  2  0  0  0  0
 23 24  1  0  0  0  0
 23 11  2  0  0  0  0
 25 23  1  0  0  0  0
 26 25  2  0  0  0  0
 27 25  1  0  0  0  0
 28 30  1  0  0  0  0
 28 27  1  0  0  0  0
 29 28  1  0  0  0  0
 31 28  1  0  0  0  0
 32 33  1  6  0  0  0
 32 10  1  0  0  0  0
 32 37  1  0  0  0  0
 33 36  1  0  0  0  0
 34 33  1  0  0  0  0
 35 33  1  0  0  0  0
 37 38  1  0  0  0  0
 38 40  1  0  0  0  0
 38 41  1  0  0  0  0
 39 38  1  0  0  0  0
 41 42  1  0  0  0  0
 41 43  1  0  0  0  0
 44 41  1  0  0  0  0
 45 47  1  0  0  0  0
 45 44  1  0  0  0  0
 46 45  1  0  0  0  0
 48 37  1  0  0  0  0
 48 45  1  0  0  0  0
 49 48  1  0  0  0  0
 50 48  1  0  0  0  0
M  END
