11
q = -1.0

 36 38  0  0  0  0  0  0  0  0999 V2000
    3.3464   -0.5782    1.4319 O   0  0  0  0  0  0  0  0  0  0  0  0
    1.9077    0.7992    0.2919 O   0  0  0  0  0  0  0  0  0  0  0  0
   -0.5726    1.6042    1.2808 O   0  0  0  0  0  0  0  0  0  0  0  0
   -2.3290    0.2809    0.6182 O   0  0  0  0  0  0  0  0  0  0  0  0
   -0.3863   -0.8025    1.2745 C   0  0  0  0  0  0  0  0  0  0  0  0
    1.0307   -1.1282    1.2880 C   0  0  0  0  0  0  0  0  0  0  0  0
    1.1596   -2.5135    1.6165 C   0  0  0  0  0  0  0  0  0  0  0  0
    2.1194   -3.0361    1.6980 H   0  0  0  0  0  0  0  0  0  0  0  0
   -0.1512   -3.0635    1.8031 C   0  0  0  0  0  0  0  0  0  0  0  0
   -0.3870   -4.1028    2.0589 H   0  0  0  0  0  0  0  0  0  0  0  0
   -1.0958   -2.0191    1.5854 C   0  0  0  0  0  3  0  0  0  0  0  0
   -2.1864   -2.0974    1.6569 H   0  0  0  0  0  0  0  0  0  0  0  0
    2.2374   -0.2822    1.0328 C   0  0  0  0  0  0  0  0  0  0  0  0
   -1.0514    0.5122    1.0644 C   0  0  0  0  0  0  0  0  0  0  0  0
    2.7868    1.8232   -0.0515 C   0  0  0  0  0  0  0  0  0  0  0  0
    2.1713    3.0725   -0.2328 C   0  0  0  0  0  0  0  0  0  0  0  0
    1.0906    3.1538   -0.0490 H   0  0  0  0  0  0  0  0  0  0  0  0
    2.9507    4.1661   -0.6300 C   0  0  0  0  0  0  0  0  0  0  0  0
    2.4744    5.1478   -0.7730 H   0  0  0  0  0  0  0  0  0  0  0  0
    4.3309    4.0112   -0.8429 C   0  0  0  0  0  0  0  0  0  0  0  0
    4.9422    4.8711   -1.1548 H   0  0  0  0  0  0  0  0  0  0  0  0
    4.9269    2.7546   -0.6565 C   0  0  0  0  0  0  0  0  0  0  0  0
    6.0075    2.6275   -0.8223 H   0  0  0  0  0  0  0  0  0  0  0  0
    4.1642    1.6447   -0.2586 C   0  0  0  0  0  0  0  0  0  0  0  0
    4.6269    0.6642   -0.1014 H   0  0  0  0  0  0  0  0  0  0  0  0
   -3.2194    1.2987    0.2857 C   0  0  0  0  0  0  0  0  0  0  0  0
   -3.2915    2.5315    0.9556 C   0  0  0  0  0  0  0  0  0  0  0  0
   -2.5902    2.7681    1.7634 H   0  0  0  0  0  0  0  0  0  0  0  0
   -4.2721    3.4538    0.5564 C   0  0  0  0  0  0  0  0  0  0  0  0
   -4.3353    4.4229    1.0742 H   0  0  0  0  0  0  0  0  0  0  0  0
   -5.1637    3.1552   -0.4854 C   0  0  0  0  0  0  0  0  0  0  0  0
   -5.9258    3.8887   -0.7876 H   0  0  0  0  0  0  0  0  0  0  0  0
   -5.0786    1.9150   -1.1394 C   0  0  0  0  0  0  0  0  0  0  0  0
   -5.7736    1.6694   -1.9564 H   0  0  0  0  0  0  0  0  0  0  0  0
   -4.1060    0.9822   -0.7572 C   0  0  0  0  0  0  0  0  0  0  0  0
   -4.0138    0.0036   -1.2506 H   0  0  0  0  0  0  0  0  0  0  0  0
  2 13  1  0  0  0  0
  4 14  1  0  0  0  0
  5  6  2  0  0  0  0
  5 11  1  0  0  0  0
  6  7  1  0  0  0  0
  7  8  1  0  0  0  0
  7  9  2  0  0  0  0
  9 10  1  0  0  0  0
 11 12  1  0  0  0  0
 11  9  1  0  0  0  0
 13  6  1  0  0  0  0
 13  1  2  0  0  0  0
 14  5  1  0  0  0  0
 14  3  2  0  0  0  0
 15  2  1  0  0  0  0
 16 15  1  0  0  0  0
 16 17  1  0  0  0  0
 18 16  2  0  0  0  0
 19 18  1  0  0  0  0
 20 22  2  0  0  0  0
 20 18  1  0  0  0  0
 21 20  1  0  0  0  0
 22 24  1  0  0  0  0
 23 22  1  0  0  0  0
 24 25  1  0  0  0  0
 24 15  2  0  0  0  0
 26  4  1  0  0  0  0
 26 27  1  0  0  0  0
 27 28  1  0  0  0  0
 29 27  2  0  0  0  0
 29 30  1  0  0  0  0
 31 29  1  0  0  0  0
 32 31  1  0  0  0  0
 33 35  1  0  0  0  0
 33 31  2  0  0  0  0
 34 33  1  0  0  0  0
 35 26  2  0  0  0  0
 36 35  1  0  0  0  0
M  END
