1
q = -1.0

 15 15  0  0  0  0  0  0  0  0999 V2000
    0.0102    1.6955    0.5742 C   0  0  0  0  0  3  0  0  0  0  0  0
    0.0379    2.6529   -0.4758 C   0  0  0  0  0  0  0  0  0  0  0  0
    0.1009    4.0273   -0.1458 C   0  0  0  0  0  0  0  0  0  0  0  0
    0.1386    4.4534    1.1867 C   0  0  0  0  0  0  0  0  0  0  0  0
    0.1125    3.5041    2.2218 C   0  0  0  0  0  0  0  0  0  0  0  0
    0.0535    2.1344    1.9119 C   0  0  0  0  0  0  0  0  0  0  0  0
   -0.0089    2.2049   -1.8776 C   0  0  0  0  0  0  0  0  0  0  0  0
    0.4782    2.8536   -2.9572 C   0  0  0  0  0  0  0  0  0  0  0  0
    0.0930    4.7713   -0.9573 H   0  0  0  0  0  0  0  0  0  0  0  0
    0.1782    5.5285    1.4194 H   0  0  0  0  0  0  0  0  0  0  0  0
    0.1341    3.8284    3.2744 H   0  0  0  0  0  0  0  0  0  0  0  0
    0.0389    1.3958    2.7300 H   0  0  0  0  0  0  0  0  0  0  0  0
   -0.4780    1.2140   -2.0209 H   0  0  0  0  0  0  0  0  0  0  0  0
    1.0063    3.8165   -2.8674 H   0  0  0  0  0  0  0  0  0  0  0  0
    0.3778    2.4290   -3.9677 H   0  0  0  0  0  0  0  0  0  0  0  0
  1  6  1  0  0  0  0
  2  3  1  0  0  0  0
  2  1  2  0  0  0  0
  3  4  2  0  0  0  0
  4 10  1  0  0  0  0
  4  5  1  0  0  0  0
  5 11  1  0  0  0  0
  6  5  2  0  0  0  0
  6 12  1  0  0  0  0
  7  2  1  0  0  0  0
  8 14  1  0  0  0  0
  8  7  2  0  0  0  0
  9  3  1  0  0  0  0
 13  7  1  0  0  0  0
 15  8  1  0  0  0  0
M  END
