11
q = -1.0, confidence = 0.002

 36 39  0  0  1  0  0  0  0  0999 V2000
    1.7834    3.1039    0.2559 F   0  0  0  0  0  0  0  0  0  0  0  0
    4.2662    4.0616   -0.1521 F   0  0  0  0  0  0  0  0  0  0  0  0
    6.4125    2.3593   -0.2585 F   0  0  0  0  0  0  0  0  0  0  0  0
    6.0226   -0.3402    0.0296 F   0  0  0  0  0  0  0  0  0  0  0  0
    3.5469   -1.3280    0.4008 F   0  0  0  0  0  0  0  0  0  0  0  0
   -1.7834    3.1039    0.2558 F   0  0  0  0  0  0  0  0  0  0  0  0
   -4.2662    4.0616   -0.1521 F   0  0  0  0  0  0  0  0  0  0  0  0
   -6.4125    2.3593   -0.2585 F   0  0  0  0  0  0  0  0  0  0  0  0
   -6.0226   -0.3402    0.0296 F   0  0  0  0  0  0  0  0  0  0  0  0
   -3.5469   -1.3280    0.4008 F   0  0  0  0  0  0  0  0  0  0  0  0
   -0.0000    0.9357    0.0069 C   0  0  0  0  0  3  0  0  0  0  0  0
    1.1842    0.3464    0.5713 C   0  0  2  0  0  3  0  0  0  0  0  0
    0.7283   -0.6242    1.5699 C   0  0  0  0  0  0  0  0  0  0  0  0
   -0.7283   -0.6242    1.5698 C   0  0  0  0  0  0  0  0  0  0  0  0
   -1.1843    0.3463    0.5713 C   0  0  1  0  0  3  0  0  0  0  0  0
    2.5548    0.8420    0.3423 C   0  0  0  0  0  0  0  0  0  0  0  0
    2.7967    2.2280    0.1926 C   0  0  0  0  0  0  0  0  0  0  0  0
    4.0837    2.7467   -0.0181 C   0  0  0  0  0  0  0  0  0  0  0  0
    5.1859    1.8773   -0.0658 C   0  0  0  0  0  0  0  0  0  0  0  0
    4.9844    0.4954    0.0848 C   0  0  0  0  0  0  0  0  0  0  0  0
    3.6870    0.0011    0.2874 C   0  0  0  0  0  0  0  0  0  0  0  0
   -2.5548    0.8420    0.3423 C   0  0  0  0  0  0  0  0  0  0  0  0
   -2.7967    2.2280    0.1926 C   0  0  0  0  0  0  0  0  0  0  0  0
   -4.0837    2.7467   -0.0182 C   0  0  0  0  0  0  0  0  0  0  0  0
   -5.1859    1.8773   -0.0658 C   0  0  0  0  0  0  0  0  0  0  0  0
   -4.9844    0.4954    0.0848 C   0  0  0  0  0  0  0  0  0  0  0  0
   -3.6870    0.0011    0.2873 C   0  0  0  0  0  0  0  0  0  0  0  0
    1.4332   -1.4469    2.4980 C   0  0  0  0  0  0  0  0  0  0  0  0
    0.7119   -2.2182    3.3958 C   0  0  0  0  0  0  0  0  0  0  0  0
   -0.7120   -2.2182    3.3957 C   0  0  0  0  0  0  0  0  0  0  0  0
   -1.4333   -1.4470    2.4979 C   0  0  0  0  0  0  0  0  0  0  0  0
    0.0000    1.7436   -0.7302 H   0  0  0  0  0  0  0  0  0  0  0  0
    2.5301   -1.4520    2.5048 H   0  0  0  0  0  0  0  0  0  0  0  0
    1.2497   -2.8446    4.1228 H   0  0  0  0  0  0  0  0  0  0  0  0
   -1.2497   -2.8447    4.1227 H   0  0  0  0  0  0  0  0  0  0  0  0
   -2.5301   -1.4521    2.5046 H   0  0  0  0  0  0  0  0  0  0  0  0
  2 18  1  0  0  0  0
  3 19  1  0  0  0  0
  4 20  1  0  0  0  0
  7 24  1  0  0  0  0
  8 25  1  0  0  0  0
  9 26  1  0  0  0  0
 11 15  1  0  0  0  0
 11 12  1  0  0  0  0
 12 16  1  1  0  0  0
 12 13  1  0  0  0  0
 13 28  1  0  0  0  0
 14 13  2  0  0  0  0
 14 31  1  0  0  0  0
 15 22  1  1  0  0  0
 15 14  1  0  0  0  0
 17  1  1  0  0  0  0
 17 16  2  0  0  0  0
 18 17  1  0  0  0  0
 19 18  2  0  0  0  0
 19 20  1  0  0  0  0
 20 21  2  0  0  0  0
 21 16  1  0  0  0  0
 21  5  1  0  0  0  0
 23  6  1  0  0  0  0
 23 22  2  0  0  0  0
 24 23  1  0  0  0  0
 25 24  2  0  0  0  0
 25 26  1  0  0  0  0
 26 27  2  0  0  0  0
 27 22  1  0  0  0  0
 27 10  1  0  0  0  0
 28 33  1  0  0  0  0
 28 29  2  0  0  0  0
 29 34  1  0  0  0  0
 30 29  1  0  0  0  0
 30 35  1  0  0  0  0
 31 36  1  0  0  0  0
 31 30  2  0  0  0  0
 32 11  1  0  0  0  0
M  END
