1
q = -1.0, confidence = 0.0

 26 28  0  0  0  0  0  0  0  0999 V2000
   -0.8273    0.9303    1.3669 C   0  0  0  0  0  3  0  0  0  0  0  0
    0.4044    0.1284    1.4294 C   0  0  0  0  0  0  0  0  0  0  0  0
    1.4076    0.7084    0.6752 C   0  0  0  0  0  0  0  0  0  0  0  0
    0.9041    1.9805    0.1471 C   0  0  0  0  0  0  0  0  0  0  0  0
    1.4969    2.9645   -0.6668 C   0  0  0  0  0  0  0  0  0  0  0  0
    0.7759    4.1313   -0.9561 C   0  0  0  0  0  0  0  0  0  0  0  0
   -0.5206    4.3281   -0.4367 C   0  0  0  0  0  0  0  0  0  0  0  0
   -1.1339    3.3389    0.3471 C   0  0  0  0  0  0  0  0  0  0  0  0
   -0.4389    2.1484    0.6147 C   0  0  0  0  0  0  0  0  0  0  0  0
    2.7142    0.0945    0.3927 C   0  0  0  0  0  0  0  0  0  0  0  0
    2.8116   -1.2615    0.0063 C   0  0  0  0  0  0  0  0  0  0  0  0
    4.0392   -1.8720   -0.2897 C   0  0  0  0  0  0  0  0  0  0  0  0
    5.2257   -1.1253   -0.1928 C   0  0  0  0  0  0  0  0  0  0  0  0
    5.1679    0.2250    0.1905 C   0  0  0  0  0  0  0  0  0  0  0  0
    3.9268    0.8112    0.4864 C   0  0  0  0  0  0  0  0  0  0  0  0
    1.7021   -2.0126   -0.1226 F   0  0  0  0  0  0  0  0  0  0  0  0
    4.0878   -3.1534   -0.6669 F   0  0  0  0  0  0  0  0  0  0  0  0
    6.4007   -1.6959   -0.4659 F   0  0  0  0  0  0  0  0  0  0  0  0
    6.2949    0.9347    0.2973 F   0  0  0  0  0  0  0  0  0  0  0  0
    3.9221    2.0903    0.8862 F   0  0  0  0  0  0  0  0  0  0  0  0
   -1.4283    1.0493    2.2852 H   0  0  0  0  0  0  0  0  0  0  0  0
    0.5083   -0.8077    1.9924 H   0  0  0  0  0  0  0  0  0  0  0  0
    2.5188    2.8360   -1.0509 H   0  0  0  0  0  0  0  0  0  0  0  0
    1.2337    4.9112   -1.5833 H   0  0  0  0  0  0  0  0  0  0  0  0
   -1.0576    5.2644   -0.6510 H   0  0  0  0  0  0  0  0  0  0  0  0
   -2.1495    3.4960    0.7421 H   0  0  0  0  0  0  0  0  0  0  0  0
  1  2  1  0  0  0  0
  1 21  1  0  0  0  0
  2 22  1  0  0  0  0
  3  2  2  0  0  0  0
  4  9  1  0  0  0  0
  4  3  1  0  0  0  0
  5  4  2  0  0  0  0
  6  5  1  0  0  0  0
  6  7  2  0  0  0  0
  7  8  1  0  0  0  0
  8  9  2  0  0  0  0
  8 26  1  0  0  0  0
  9  1  1  0  0  0  0
 10 15  1  0  0  0  0
 10  3  1  0  0  0  0
 11 10  2  0  0  0  0
 12 13  2  0  0  0  0
 12 11  1  0  0  0  0
 13 14  1  0  0  0  0
 14 19  1  0  0  0  0
 14 15  2  0  0  0  0
 15 20  1  0  0  0  0
 16 11  1  0  0  0  0
 17 12  1  0  0  0  0
 18 13  1  0  0  0  0
 23  5  1  0  0  0  0
 24  6  1  0  0  0  0
 25  7  1  0  0  0  0
M  END
