8
q = -2.0, confidence = 0.93

 53 57  0  0  1  0  0  0  0  0999 V2000
    0.1164   -1.3561   -2.4108 S   0  0  0  0  0  1  0  0  0  0  0  0
   -0.2236   -0.2857    2.0025 S   0  0  0  0  0  0  0  0  0  0  0  0
   -1.1857   -0.8725   -0.8967 P   0  0  0  0  0  4  0  0  0  0  0  0
   -0.6023   -1.6885    2.3268 O   0  0  0  0  0  0  0  0  0  0  0  0
    0.9500    0.3233    2.6846 O   0  0  0  0  0  0  0  0  0  0  0  0
    0.0281    1.9220   -1.4581 O   0  0  0  0  0  0  0  0  0  0  0  0
    1.3167    2.1785    0.4855 O   0  0  0  0  0  0  0  0  0  0  0  0
   -0.0288   -0.0945    0.2352 C   0  0  1  0  0  3  0  0  0  0  0  0
   -2.5683    0.1756   -1.4681 C   0  0  0  0  0  0  0  0  0  0  0  0
   -3.2996   -0.2500   -2.5953 C   0  0  0  0  0  0  0  0  0  0  0  0
   -3.0206   -1.1804   -3.1151 H   0  0  0  0  0  0  0  0  0  0  0  0
   -4.3750    0.5200   -3.0578 C   0  0  0  0  0  0  0  0  0  0  0  0
   -4.9441    0.1901   -3.9400 H   0  0  0  0  0  0  0  0  0  0  0  0
   -4.7221    1.7118   -2.3982 C   0  0  0  0  0  0  0  0  0  0  0  0
   -5.5666    2.3156   -2.7642 H   0  0  0  0  0  0  0  0  0  0  0  0
   -3.9885    2.1357   -1.2795 C   0  0  0  0  0  0  0  0  0  0  0  0
   -4.2502    3.0714   -0.7631 H   0  0  0  0  0  0  0  0  0  0  0  0
   -2.9070    1.3730   -0.8143 C   0  0  0  0  0  0  0  0  0  0  0  0
   -2.3276    1.7135    0.0535 H   0  0  0  0  0  0  0  0  0  0  0  0
   -2.0147   -2.3494   -0.2123 C   0  0  0  0  0  0  0  0  0  0  0  0
   -3.3441   -2.2773    0.2474 C   0  0  0  0  0  0  0  0  0  0  0  0
   -3.9037   -1.3333    0.1757 H   0  0  0  0  0  0  0  0  0  0  0  0
   -3.9516   -3.4173    0.7955 C   0  0  0  0  0  0  0  0  0  0  0  0
   -4.9906   -3.3620    1.1541 H   0  0  0  0  0  0  0  0  0  0  0  0
   -3.2407   -4.6244    0.8785 C   0  0  0  0  0  0  0  0  0  0  0  0
   -3.7208   -5.5166    1.3085 H   0  0  0  0  0  0  0  0  0  0  0  0
   -1.9215   -4.6980    0.4002 C   0  0  0  0  0  0  0  0  0  0  0  0
   -1.3671   -5.6473    0.4538 H   0  0  0  0  0  0  0  0  0  0  0  0
   -1.3102   -3.5651   -0.1484 C   0  0  0  0  0  0  0  0  0  0  0  0
   -0.2857   -3.6047   -0.5388 H   0  0  0  0  0  0  0  0  0  0  0  0
   -1.6352    0.7671    2.4060 C   0  0  0  0  0  0  0  0  0  0  0  0
   -2.8838    0.1780    2.6424 C   0  0  0  0  0  0  0  0  0  0  0  0
   -2.9662   -0.9184    2.6402 H   0  0  0  0  0  0  0  0  0  0  0  0
   -3.9884    1.0121    2.8778 C   0  0  0  0  0  0  0  0  0  0  0  0
   -4.9787    0.5690    3.0634 H   0  0  0  0  0  0  0  0  0  0  0  0
   -3.8302    2.4079    2.8789 C   0  0  0  0  0  0  0  0  0  0  0  0
   -4.7006    3.0574    3.0573 H   0  0  0  0  0  0  0  0  0  0  0  0
   -2.5625    2.9796    2.6662 C   0  0  0  0  0  0  0  0  0  0  0  0
   -2.4388    4.0730    2.6823 H   0  0  0  0  0  0  0  0  0  0  0  0
   -1.4490    2.1594    2.4345 C   0  0  0  0  0  0  0  0  0  0  0  0
   -0.4446    2.5754    2.2673 H   0  0  0  0  0  0  0  0  0  0  0  0
    0.4196    3.2195   -1.3302 C   0  0  0  0  0  0  0  0  0  0  0  0
    1.1953    3.3763   -0.1594 C   0  0  0  0  0  0  0  0  0  0  0  0
    1.7113    4.6158    0.2157 C   0  0  0  0  0  0  0  0  0  0  0  0
    2.3161    4.7203    1.1279 H   0  0  0  0  0  0  0  0  0  0  0  0
    1.4215    5.7159   -0.6227 C   0  0  0  0  0  0  0  0  0  0  0  0
    1.8121    6.7101   -0.3585 H   0  0  0  0  0  0  0  0  0  0  0  0
    0.6470    5.5614   -1.7849 C   0  0  0  0  0  0  0  0  0  0  0  0
    0.4384    6.4372   -2.4177 H   0  0  0  0  0  0  0  0  0  0  0  0
    0.1309    4.3012   -2.1617 C   0  0  0  0  0  0  0  0  0  0  0  0
   -0.4763    4.1654   -3.0678 H   0  0  0  0  0  0  0  0  0  0  0  0
    0.6559    1.2022   -0.3557 B   0  0  0  0  0  0  0  0  0  0  0  0
    1.7785    0.5806   -1.2262 H   0  0  0  0  0  0  0  0  0  0  0  0
  1  3  1  0  0  0  0
  2  4  2  0  0  0  0
  2 31  1  0  0  0  0
  2  5  2  0  0  0  0
  3 20  1  0  0  0  0
  6 42  1  0  0  0  0
  6 52  1  0  0  0  0
  8  3  1  6  0  0  0
  8  2  1  0  0  0  0
  9  3  1  0  0  0  0
  9 18  1  0  0  0  0
 10  9  2  0  0  0  0
 11 10  1  0  0  0  0
 12 10  1  0  0  0  0
 12 14  2  0  0  0  0
 13 12  1  0  0  0  0
 14 16  1  0  0  0  0
 15 14  1  0  0  0  0
 16 18  2  0  0  0  0
 16 17  1  0  0  0  0
 18 19  1  0  0  0  0
 20 29  2  0  0  0  0
 20 21  1  0  0  0  0
 21 23  2  0  0  0  0
 22 21  1  0  0  0  0
 23 25  1  0  0  0  0
 23 24  1  0  0  0  0
 25 26  1  0  0  0  0
 27 28  1  0  0  0  0
 27 25  2  0  0  0  0
 29 27  1  0  0  0  0
 30 29  1  0  0  0  0
 31 40  2  0  0  0  0
 31 32  1  0  0  0  0
 32 34  2  0  0  0  0
 33 32  1  0  0  0  0
 34 36  1  0  0  0  0
 34 35  1  0  0  0  0
 36 37  1  0  0  0  0
 38 39  1  0  0  0  0
 38 36  2  0  0  0  0
 40 38  1  0  0  0  0
 41 40  1  0  0  0  0
 42 43  1  0  0  0  0
 43 44  2  0  0  0  0
 43  7  1  0  0  0  0
 44 45  1  0  0  0  0
 46 47  1  0  0  0  0
 46 44  1  0  0  0  0
 48 46  2  0  0  0  0
 49 48  1  0  0  0  0
 50 48  1  0  0  0  0
 50 42  2  0  0  0  0
 51 50  1  0  0  0  0
 52  8  1  0  0  0  0
 52  7  1  0  0  0  0
 53 52  1  0  0  0  0
M  END
