3
q = -1.0, confidence = 0.0

 26 27  0  0  0  0  0  0  0  0999 V2000
   -1.7678    0.2976    0.7211 Si  0  0  0  0  0  0  0  0  0  0  0  0
    0.5530    1.7658    2.5616 O   0  0  0  0  0  1  0  0  0  0  0  0
    0.5796    1.1009    1.5831 C   0  0  0  0  0  2  0  0  0  0  0  0
   -2.3325    2.0993    0.4549 C   0  0  0  0  0  0  0  0  0  0  0  0
   -2.8600    2.5511   -0.7763 C   0  0  0  0  0  0  0  0  0  0  0  0
   -3.2644    3.8839   -0.9495 C   0  0  0  0  0  0  0  0  0  0  0  0
   -3.1552    4.7982    0.1100 C   0  0  0  0  0  0  0  0  0  0  0  0
   -2.6436    4.3674    1.3442 C   0  0  0  0  0  0  0  0  0  0  0  0
   -2.2398    3.0337    1.5128 C   0  0  0  0  0  0  0  0  0  0  0  0
   -3.0806   -0.8090   -0.1232 C   0  0  0  0  0  0  0  0  0  0  0  0
   -3.2034   -0.9545   -1.5255 C   0  0  0  0  0  0  0  0  0  0  0  0
   -4.2049   -1.7600   -2.0895 C   0  0  0  0  0  0  0  0  0  0  0  0
   -5.1056   -2.4524   -1.2640 C   0  0  0  0  0  0  0  0  0  0  0  0
   -5.0036   -2.3227    0.1297 C   0  0  0  0  0  0  0  0  0  0  0  0
   -4.0060   -1.5064    0.6882 C   0  0  0  0  0  0  0  0  0  0  0  0
   -2.0265    0.0514    2.1965 H   0  0  0  0  0  0  0  0  0  0  0  0
   -2.9646    1.8523   -1.6193 H   0  0  0  0  0  0  0  0  0  0  0  0
   -3.6723    4.2092   -1.9194 H   0  0  0  0  0  0  0  0  0  0  0  0
   -3.4747    5.8435   -0.0240 H   0  0  0  0  0  0  0  0  0  0  0  0
   -2.5620    5.0741    2.1851 H   0  0  0  0  0  0  0  0  0  0  0  0
   -1.8420    2.7137    2.4881 H   0  0  0  0  0  0  0  0  0  0  0  0
   -2.4978   -0.4417   -2.1949 H   0  0  0  0  0  0  0  0  0  0  0  0
   -4.2793   -1.8523   -3.1845 H   0  0  0  0  0  0  0  0  0  0  0  0
   -5.8872   -3.0893   -1.7063 H   0  0  0  0  0  0  0  0  0  0  0  0
   -5.7080   -2.8563    0.7871 H   0  0  0  0  0  0  0  0  0  0  0  0
   -3.9461   -1.4036    1.7841 H   0  0  0  0  0  0  0  0  0  0  0  0
  1 16  1  0  0  0  0
  1  3  1  0  0  0  0
  3  2  1  0  0  0  0
  4  1  1  0  0  0  0
  4  9  1  0  0  0  0
  5  4  2  0  0  0  0
  6  5  1  0  0  0  0
  6  7  2  0  0  0  0
  7  8  1  0  0  0  0
  8  9  2  0  0  0  0
  8 20  1  0  0  0  0
  9 21  1  0  0  0  0
 10 15  1  0  0  0  0
 10  1  1  0  0  0  0
 11 10  2  0  0  0  0
 12 11  1  0  0  0  0
 12 13  2  0  0  0  0
 13 14  1  0  0  0  0
 14 15  2  0  0  0  0
 14 25  1  0  0  0  0
 15 26  1  0  0  0  0
 17  5  1  0  0  0  0
 18  6  1  0  0  0  0
 19  7  1  0  0  0  0
 22 11  1  0  0  0  0
 23 12  1  0  0  0  0
 24 13  1  0  0  0  0
M  HYD  2   2   0   3   0
M  ZBO  1   2   0
M  END
