3
q = 0.0, confidence = 0.998

 36 38  0  0  1  0  0  0  0  0999 V2000
    1.9055   -0.2683    0.6836 P   0  0  0  0  0  4  0  0  0  0  0  0
    0.6731   -1.1996   -0.2358 C   0  0  2  0  0  3  0  0  0  0  0  0
    0.1159   -2.4829    0.1297 C   0  0  0  0  0  3  0  0  0  0  0  0
    0.3401   -3.0570    1.0366 H   0  0  0  0  0  0  0  0  0  0  0  0
   -0.7288   -2.9147   -0.9529 C   0  0  0  0  0  3  0  0  0  0  0  0
   -1.2729   -3.8660   -1.0000 H   0  0  0  0  0  0  0  0  0  0  0  0
   -0.6897   -1.9154   -1.9805 C   0  0  0  0  0  0  0  0  0  0  0  0
   -1.2289   -1.9426   -2.9351 H   0  0  0  0  0  0  0  0  0  0  0  0
    0.1667   -0.8667   -1.5448 C   0  0  0  0  0  0  0  0  0  0  0  0
    0.3764    0.0590   -2.0936 H   0  0  0  0  0  0  0  0  0  0  0  0
    1.8004   -0.7477    2.4314 C   0  0  0  0  0  0  0  0  0  0  0  0
    2.0241   -1.8282    2.5162 H   0  0  0  0  0  0  0  0  0  0  0  0
    0.7960   -0.5355    2.8427 H   0  0  0  0  0  0  0  0  0  0  0  0
    2.5670   -0.1812    2.9943 H   0  0  0  0  0  0  0  0  0  0  0  0
    3.5427   -0.7142    0.0528 C   0  0  0  0  0  0  0  0  0  0  0  0
    3.7168   -1.8612   -0.7487 C   0  0  0  0  0  0  0  0  0  0  0  0
    2.8525   -2.4760   -1.0415 H   0  0  0  0  0  0  0  0  0  0  0  0
    5.0047   -2.2112   -1.1799 C   0  0  0  0  0  0  0  0  0  0  0  0
    5.1451   -3.1022   -1.8092 H   0  0  0  0  0  0  0  0  0  0  0  0
    6.1084   -1.4252   -0.8127 C   0  0  0  0  0  0  0  0  0  0  0  0
    7.1164   -1.7031   -1.1549 H   0  0  0  0  0  0  0  0  0  0  0  0
    5.9320   -0.2815   -0.0151 C   0  0  0  0  0  0  0  0  0  0  0  0
    6.7981    0.3356    0.2658 H   0  0  0  0  0  0  0  0  0  0  0  0
    4.6510    0.0811    0.4201 C   0  0  0  0  0  0  0  0  0  0  0  0
    4.5139    0.9866    1.0315 H   0  0  0  0  0  0  0  0  0  0  0  0
    1.6654    1.5064    0.4936 C   0  0  0  0  0  0  0  0  0  0  0  0
    1.0273    2.2646    1.4970 C   0  0  0  0  0  0  0  0  0  0  0  0
    0.6806    1.8012    2.4309 H   0  0  0  0  0  0  0  0  0  0  0  0
    0.8170    3.6350    1.2925 C   0  0  0  0  0  0  0  0  0  0  0  0
    0.3200    4.2289    2.0731 H   0  0  0  0  0  0  0  0  0  0  0  0
    1.2282    4.2421    0.0960 C   0  0  0  0  0  0  0  0  0  0  0  0
    1.0557    5.3174   -0.0596 H   0  0  0  0  0  0  0  0  0  0  0  0
    1.8606    3.4842   -0.9038 C   0  0  0  0  0  0  0  0  0  0  0  0
    2.1860    3.9631   -1.8388 H   0  0  0  0  0  0  0  0  0  0  0  0
    2.0880    2.1163   -0.7092 C   0  0  0  0  0  0  0  0  0  0  0  0
    2.6073    1.5294   -1.4825 H   0  0  0  0  0  0  0  0  0  0  0  0
  1 11  1  0  0  0  0
  2  3  1  0  0  0  0
  2  1  1  6  0  0  0
  3  4  1  0  0  0  0
  5  3  1  0  0  0  0
  6  5  1  0  0  0  0
  7  9  2  0  0  0  0
  7  5  1  0  0  0  0
  8  7  1  0  0  0  0
  9  2  1  0  0  0  0
 10  9  1  0  0  0  0
 11 12  1  0  0  0  0
 11 13  1  0  0  0  0
 11 14  1  0  0  0  0
 15 24  1  0  0  0  0
 15  1  1  0  0  0  0
 16 15  2  0  0  0  0
 17 16  1  0  0  0  0
 18 20  2  0  0  0  0
 18 16  1  0  0  0  0
 19 18  1  0  0  0  0
 20 22  1  0  0  0  0
 21 20  1  0  0  0  0
 22 23  1  0  0  0  0
 22 24  2  0  0  0  0
 24 25  1  0  0  0  0
 26  1  1  0  0  0  0
 26 27  1  0  0  0  0
 27 28  1  0  0  0  0
 29 27  2  0  0  0  0
 29 30  1  0  0  0  0
 31 29  1  0  0  0  0
 32 31  1  0  0  0  0
 33 35  1  0  0  0  0
 33 31  2  0  0  0  0
 34 33  1  0  0  0  0
 35 26  2  0  0  0  0
 36 35  1  0  0  0  0
M  END
