4
q = -1.0, confidence = 0.0

 38 42  0  0  0  0  0  0  0  0999 V2000
    0.4584   -0.7365    0.1280 C   0  0  0  0  0  0  0  0  0  0  0  0
   -0.0949   -1.5942   -0.9037 C   0  0  0  0  0  0  0  0  0  0  0  0
    0.3547   -1.7361   -1.8936 H   0  0  0  0  0  0  0  0  0  0  0  0
   -1.2854   -2.2276   -0.4303 C   0  0  0  0  0  3  0  0  0  0  0  0
   -1.8978   -2.9510   -0.9810 H   0  0  0  0  0  0  0  0  0  0  0  0
   -1.4832   -1.8151    0.9489 C   0  0  0  0  0  0  0  0  0  0  0  0
   -2.4712   -2.1459    1.9257 C   0  0  0  0  0  0  0  0  0  0  0  0
   -3.2924   -2.8291    1.6635 H   0  0  0  0  0  0  0  0  0  0  0  0
   -2.3551   -1.6141    3.1995 C   0  0  0  0  0  0  0  0  0  0  0  0
   -3.1000   -1.8712    3.9668 H   0  0  0  0  0  0  0  0  0  0  0  0
   -1.2838   -0.7304    3.5381 C   0  0  0  0  0  0  0  0  0  0  0  0
   -1.2243   -0.3367    4.5641 H   0  0  0  0  0  0  0  0  0  0  0  0
   -0.3258   -0.3557    2.6114 C   0  0  0  0  0  0  0  0  0  0  0  0
    0.4983    0.3215    2.8768 H   0  0  0  0  0  0  0  0  0  0  0  0
   -0.4071   -0.8888    1.2872 C   0  0  0  0  0  0  0  0  0  0  0  0
    1.8232   -0.1482    0.0881 C   0  0  0  0  0  0  0  0  0  0  0  0
    2.0819    1.2358    0.3248 C   0  0  0  0  0  0  0  0  0  0  0  0
    1.0564    2.1779    0.6579 C   0  0  0  0  0  0  0  0  0  0  0  0
    0.0218    1.8267    0.7240 H   0  0  0  0  0  0  0  0  0  0  0  0
    1.3346    3.5124    0.8831 C   0  0  0  0  0  0  0  0  0  0  0  0
    0.5130    4.2003    1.1339 H   0  0  0  0  0  0  0  0  0  0  0  0
    2.6700    4.0027    0.7845 C   0  0  0  0  0  0  0  0  0  0  0  0
    2.8788    5.0682    0.9630 H   0  0  0  0  0  0  0  0  0  0  0  0
    3.6927    3.1354    0.4586 C   0  0  0  0  0  0  0  0  0  0  0  0
    4.7296    3.4960    0.3734 H   0  0  0  0  0  0  0  0  0  0  0  0
    3.4410    1.7434    0.2248 C   0  0  0  0  0  0  0  0  0  0  0  0
    4.4876    0.8660   -0.1033 C   0  0  0  0  0  0  0  0  0  0  0  0
    5.5118    1.2611   -0.1955 H   0  0  0  0  0  0  0  0  0  0  0  0
    4.2635   -0.5076   -0.2936 C   0  0  0  0  0  0  0  0  0  0  0  0
    5.3485   -1.3979   -0.5858 C   0  0  0  0  0  0  0  0  0  0  0  0
    6.3571   -0.9688   -0.6915 H   0  0  0  0  0  0  0  0  0  0  0  0
    5.1437   -2.7558   -0.7169 C   0  0  0  0  0  0  0  0  0  0  0  0
    5.9864   -3.4283   -0.9366 H   0  0  0  0  0  0  0  0  0  0  0  0
    3.8332   -3.2908   -0.5427 C   0  0  0  0  0  0  0  0  0  0  0  0
    3.6767   -4.3782   -0.6080 H   0  0  0  0  0  0  0  0  0  0  0  0
    2.7590   -2.4612   -0.2804 C   0  0  0  0  0  0  0  0  0  0  0  0
    1.7673   -2.9058   -0.1258 H   0  0  0  0  0  0  0  0  0  0  0  0
    2.9147   -1.0374   -0.1711 C   0  0  0  0  0  0  0  0  0  0  0  0
  1 15  1  0  0  0  0
  2  4  1  0  0  0  0
  2  1  2  0  0  0  0
  3  2  1  0  0  0  0
  4  6  1  0  0  0  0
  5  4  1  0  0  0  0
  6 15  2  0  0  0  0
  6  7  1  0  0  0  0
  7  9  2  0  0  0  0
  8  7  1  0  0  0  0
  9 11  1  0  0  0  0
  9 10  1  0  0  0  0
 11 12  1  0  0  0  0
 13 14  1  0  0  0  0
 13 11  2  0  0  0  0
 15 13  1  0  0  0  0
 16  1  1  0  0  0  0
 16 17  1  0  0  0  0
 17 18  1  0  0  0  0
 18 19  1  0  0  0  0
 18 20  2  0  0  0  0
 20 21  1  0  0  0  0
 22 20  1  0  0  0  0
 22 23  1  0  0  0  0
 24 22  2  0  0  0  0
 25 24  1  0  0  0  0
 26 17  2  0  0  0  0
 26 24  1  0  0  0  0
 27 26  1  0  0  0  0
 28 27  1  0  0  0  0
 29 38  1  0  0  0  0
 29 27  2  0  0  0  0
 30 29  1  0  0  0  0
 31 30  1  0  0  0  0
 32 30  2  0  0  0  0
 32 34  1  0  0  0  0
 33 32  1  0  0  0  0
 34 36  2  0  0  0  0
 35 34  1  0  0  0  0
 36 38  1  0  0  0  0
 36 37  1  0  0  0  0
 38 16  2  0  0  0  0
M  END
