5
q = 0.0, confidence = 0.938

 29 29  0  0  0  0  0  0  0  0999 V2000
    1.9299   -2.3690    0.3289 N   0  0  0  0  0  0  0  0  0  0  0  0
    0.2021   -2.9329   -0.8377 N   0  0  0  0  0  0  0  0  0  0  0  0
    7.4325   -0.0633   -0.2553 N   0  0  0  0  0  0  0  0  0  0  0  0
   -4.4795   -1.8117    1.7910 N   0  0  0  0  0  0  0  0  0  0  0  0
    0.7714   -1.8693   -0.1943 C   0  0  0  0  0  2  0  0  0  0  0  0
    2.0879   -3.7124    0.0138 C   0  0  0  0  0  0  0  0  0  0  0  0
    2.9544   -4.2942    0.3408 H   0  0  0  0  0  0  0  0  0  0  0  0
    0.9899   -4.0713   -0.7208 C   0  0  0  0  0  0  0  0  0  0  0  0
    0.7043   -5.0290   -1.1653 H   0  0  0  0  0  0  0  0  0  0  0  0
    6.4001   -0.1740    0.2853 C   0  0  0  0  0  0  0  0  0  0  0  0
    5.1295   -0.3582    0.9852 C   0  0  0  0  0  0  0  0  0  0  0  0
    5.3509   -0.8553    1.9558 H   0  0  0  0  0  0  0  0  0  0  0  0
    4.7147    0.6412    1.2342 H   0  0  0  0  0  0  0  0  0  0  0  0
    4.0993   -1.1779    0.1870 C   0  0  0  0  0  0  0  0  0  0  0  0
    4.5886   -2.0850   -0.2247 H   0  0  0  0  0  0  0  0  0  0  0  0
    3.7420   -0.5861   -0.6805 H   0  0  0  0  0  0  0  0  0  0  0  0
    2.9169   -1.5898    1.0686 C   0  0  0  0  0  0  0  0  0  0  0  0
    2.3758   -0.7230    1.4958 H   0  0  0  0  0  0  0  0  0  0  0  0
    3.2611   -2.2054    1.9257 H   0  0  0  0  0  0  0  0  0  0  0  0
   -3.5562   -2.3477    1.3088 C   0  0  0  0  0  0  0  0  0  0  0  0
   -2.4025   -2.9410    0.6377 C   0  0  0  0  0  0  0  0  0  0  0  0
   -1.5069   -2.7233    1.2609 H   0  0  0  0  0  0  0  0  0  0  0  0
   -2.5281   -4.0442    0.5928 H   0  0  0  0  0  0  0  0  0  0  0  0
   -2.2261   -2.3257   -0.7620 C   0  0  0  0  0  0  0  0  0  0  0  0
   -3.1503   -2.4584   -1.3618 H   0  0  0  0  0  0  0  0  0  0  0  0
   -2.0658   -1.2330   -0.6335 H   0  0  0  0  0  0  0  0  0  0  0  0
   -1.0615   -2.8855   -1.5766 C   0  0  0  0  0  0  0  0  0  0  0  0
   -0.9117   -2.2454   -2.4705 H   0  0  0  0  0  0  0  0  0  0  0  0
   -1.2707   -3.9205   -1.9111 H   0  0  0  0  0  0  0  0  0  0  0  0
  1 17  1  0  0  0  0
  2  8  1  0  0  0  0
  2  5  1  0  0  0  0
  3 10  3  0  0  0  0
  5  1  1  0  0  0  0
  6  1  1  0  0  0  0
  6  7  1  0  0  0  0
  8  6  2  0  0  0  0
  9  8  1  0  0  0  0
 10 11  1  0  0  0  0
 11 13  1  0  0  0  0
 11 12  1  0  0  0  0
 14 11  1  0  0  0  0
 14 17  1  0  0  0  0
 15 14  1  0  0  0  0
 16 14  1  0  0  0  0
 17 18  1  0  0  0  0
 17 19  1  0  0  0  0
 20  4  3  0  0  0  0
 21 22  1  0  0  0  0
 21 20  1  0  0  0  0
 23 21  1  0  0  0  0
 24 26  1  0  0  0  0
 24 21  1  0  0  0  0
 25 24  1  0  0  0  0
 27  2  1  0  0  0  0
 27 24  1  0  0  0  0
 28 27  1  0  0  0  0
 29 27  1  0  0  0  0
M  END
