1
q = -1.0

 21 20  0  0  0  0  0  0  0  0999 V2000
   -1.0937    0.2664    0.5909 C   0  0  0  0  0  3  0  0  0  0  0  0
   -2.4561    0.0748   -0.1314 C   0  0  0  0  0  0  0  0  0  0  0  0
   -4.6248    0.9090   -0.1823 N   0  0  0  0  0  0  0  0  0  0  0  0
   -3.3667    0.9934    0.4717 O   0  0  0  0  0  0  0  0  0  0  0  0
   -0.6138    1.6225    0.4061 C   0  0  0  0  0  0  0  0  0  0  0  0
   -0.1505    2.6913    0.2482 N   0  0  0  0  0  0  0  0  0  0  0  0
   -1.1765   -0.0426    2.0064 C   0  0  0  0  0  0  0  0  0  0  0  0
   -1.1540   -0.3008    3.1530 N   0  0  0  0  0  0  0  0  0  0  0  0
   -2.2893    0.3932   -1.5762 C   0  0  0  0  0  0  0  0  0  0  0  0
   -2.1112    0.6951   -2.6926 N   0  0  0  0  0  0  0  0  0  0  0  0
   -2.9528   -1.3155    0.0310 C   0  0  0  0  0  0  0  0  0  0  0  0
   -3.3710   -2.3945    0.2030 N   0  0  0  0  0  0  0  0  0  0  0  0
   -5.4814    1.6900    0.3877 C   0  0  0  0  0  0  0  0  0  0  0  0
   -5.1584    2.5478    1.5795 C   0  0  0  0  0  0  0  0  0  0  0  0
   -4.7751    1.9203    2.4102 H   0  0  0  0  0  0  0  0  0  0  0  0
   -6.0413    3.1160    1.9243 H   0  0  0  0  0  0  0  0  0  0  0  0
   -4.3408    3.2560    1.3315 H   0  0  0  0  0  0  0  0  0  0  0  0
   -6.8572    1.7056   -0.2094 C   0  0  0  0  0  0  0  0  0  0  0  0
   -6.9157    1.0198   -1.0742 H   0  0  0  0  0  0  0  0  0  0  0  0
   -7.1245    2.7325   -0.5373 H   0  0  0  0  0  0  0  0  0  0  0  0
   -7.6097    1.4030    0.5491 H   0  0  0  0  0  0  0  0  0  0  0  0
  1  7  1  0  0  0  0
  2 11  1  0  0  0  0
  2  4  1  0  0  0  0
  2  1  1  0  0  0  0
  3 13  2  0  0  0  0
  3  4  1  0  0  0  0
  5  1  1  0  0  0  0
  6  5  3  0  0  0  0
  7  8  3  0  0  0  0
  9  2  1  0  0  0  0
 10  9  3  0  0  0  0
 11 12  3  0  0  0  0
 13 14  1  0  0  0  0
 14 16  1  0  0  0  0
 14 15  1  0  0  0  0
 17 14  1  0  0  0  0
 18 13  1  0  0  0  0
 18 21  1  0  0  0  0
 19 18  1  0  0  0  0
 20 18  1  0  0  0  0
M  END
