10
q = -1.0

 25 25  0  0  1  0  0  0  0  0999 V2000
    1.7270   -3.0162    1.1183 C   0  0  0  0  0  3  0  0  0  0  0  0
    2.7301   -2.7191    1.4638 H   0  0  0  0  0  0  0  0  0  0  0  0
    1.4412   -3.1996   -0.2785 C   0  0  2  0  0  3  0  0  0  0  0  0
    0.2693   -4.1049   -0.6306 C   0  0  0  0  0  0  0  0  0  0  0  0
    0.4425   -5.1902   -0.4174 H   0  0  0  0  0  0  0  0  0  0  0  0
    0.0402   -4.0179   -1.7117 H   0  0  0  0  0  0  0  0  0  0  0  0
   -0.8424   -3.4602    0.1693 C   0  0  0  0  0  3  0  0  0  0  0  0
   -1.8711   -3.4810   -0.2276 H   0  0  0  0  0  0  0  0  0  0  0  0
   -0.7106   -3.2163    1.5751 C   0  0  1  0  0  3  0  0  0  0  0  0
    0.6388   -3.0087    2.0520 C   0  0  0  0  0  3  0  0  0  0  0  0
    0.8178   -2.7455    3.1069 H   0  0  0  0  0  0  0  0  0  0  0  0
   -1.8972   -3.0334    2.4836 C   0  0  0  0  0  0  0  0  0  0  0  0
   -2.1903   -3.9951    2.9582 H   0  0  0  0  0  0  0  0  0  0  0  0
   -2.7713   -2.6577    1.9154 H   0  0  0  0  0  0  0  0  0  0  0  0
   -1.6784   -2.3081    3.2935 H   0  0  0  0  0  0  0  0  0  0  0  0
    2.5591   -2.9759   -1.2879 C   0  0  0  0  0  0  0  0  0  0  0  0
    3.3055   -2.3097   -0.8035 H   0  0  0  0  0  0  0  0  0  0  0  0
    2.0773   -2.2609   -2.5571 C   0  0  0  0  0  0  0  0  0  0  0  0
    1.3295   -2.8664   -3.1111 H   0  0  0  0  0  0  0  0  0  0  0  0
    2.9249   -2.0677   -3.2458 H   0  0  0  0  0  0  0  0  0  0  0  0
    1.6059   -1.2937   -2.2936 H   0  0  0  0  0  0  0  0  0  0  0  0
    3.2554   -4.3075   -1.6217 C   0  0  0  0  0  0  0  0  0  0  0  0
    2.5572   -5.0092   -2.1246 H   0  0  0  0  0  0  0  0  0  0  0  0
    3.6319   -4.8073   -0.7061 H   0  0  0  0  0  0  0  0  0  0  0  0
    4.1155   -4.1470   -2.3040 H   0  0  0  0  0  0  0  0  0  0  0  0
  1  2  1  0  0  0  0
  1 10  1  0  0  0  0
  3 16  1  6  0  0  0
  3  1  1  0  0  0  0
  4  5  1  0  0  0  0
  4  3  1  0  0  0  0
  4  7  1  0  0  0  0
  6  4  1  0  0  0  0
  7  9  1  0  0  0  0
  8  7  1  0  0  0  0
  9 10  1  0  0  0  0
  9 12  1  6  0  0  0
 10 11  1  0  0  0  0
 12 13  1  0  0  0  0
 12 15  1  0  0  0  0
 14 12  1  0  0  0  0
 16 17  1  0  0  0  0
 18 21  1  0  0  0  0
 18 16  1  0  0  0  0
 19 18  1  0  0  0  0
 20 18  1  0  0  0  0
 22 16  1  0  0  0  0
 22 24  1  0  0  0  0
 23 22  1  0  0  0  0
 25 22  1  0  0  0  0
M  END
