3
q = 0.0, confidence = 0.956

 62 66  0  0  1  0  0  0  0  0999 V2000
    1.9719    1.0588    0.1117 P   0  0  0  0  0  4  0  0  0  0  0  0
    0.8179   -0.2387   -0.2229 C   0  0  0  0  0  0  0  0  0  0  0  0
   -0.4483    0.1042    0.2603 C   0  0  0  0  0  3  0  0  0  0  0  0
   -0.5837    1.5948    0.6176 C   0  0  1  0  0  0  0  0  0  0  0  0
   -0.7809    1.6561    1.7084 H   0  0  0  0  0  0  0  0  0  0  0  0
    0.7376    2.4051    0.3093 C   0  0  1  0  0  0  0  0  0  0  0  0
    0.6379    2.8450   -0.7048 H   0  0  0  0  0  0  0  0  0  0  0  0
    1.0792    3.4681    1.3027 C   0  0  0  0  0  0  0  0  0  0  0  0
    1.2941    3.1203    2.3289 H   0  0  0  0  0  0  0  0  0  0  0  0
    1.0952    4.7853    1.0278 C   0  0  0  0  0  0  0  0  0  0  0  0
    0.8643    5.1632    0.0178 H   0  0  0  0  0  0  0  0  0  0  0  0
    1.3199    5.5310    1.8054 H   0  0  0  0  0  0  0  0  0  0  0  0
    1.3114   -1.5537   -0.7108 C   0  0  0  0  0  0  0  0  0  0  0  0
    1.5682   -1.7346   -2.0867 C   0  0  0  0  0  0  0  0  0  0  0  0
    1.3878   -0.8954   -2.7765 H   0  0  0  0  0  0  0  0  0  0  0  0
    2.0358   -2.9609   -2.5828 C   0  0  0  0  0  0  0  0  0  0  0  0
    2.2181   -3.0761   -3.6632 H   0  0  0  0  0  0  0  0  0  0  0  0
    2.2697   -4.0507   -1.7221 C   0  0  0  0  0  0  0  0  0  0  0  0
    2.0269   -3.8626   -0.3437 C   0  0  0  0  0  0  0  0  0  0  0  0
    2.2037   -4.6966    0.3544 H   0  0  0  0  0  0  0  0  0  0  0  0
    1.5597   -2.6415    0.1568 C   0  0  0  0  0  0  0  0  0  0  0  0
    1.3656   -2.5342    1.2325 H   0  0  0  0  0  0  0  0  0  0  0  0
    2.7501   -5.3805   -2.2463 C   0  0  0  0  0  0  0  0  0  0  0  0
    3.6375   -5.7412   -1.6863 H   0  0  0  0  0  0  0  0  0  0  0  0
    3.0204   -5.3250   -3.3186 H   0  0  0  0  0  0  0  0  0  0  0  0
    1.9667   -6.1603   -2.1382 H   0  0  0  0  0  0  0  0  0  0  0  0
    3.2334    1.4458   -1.1365 C   0  0  0  0  0  0  0  0  0  0  0  0
    4.1354    0.4259   -1.5149 C   0  0  0  0  0  0  0  0  0  0  0  0
    4.0839   -0.5636   -1.0359 H   0  0  0  0  0  0  0  0  0  0  0  0
    5.0899    0.6752   -2.5097 C   0  0  0  0  0  0  0  0  0  0  0  0
    5.7861   -0.1232   -2.8073 H   0  0  0  0  0  0  0  0  0  0  0  0
    5.1565    1.9367   -3.1252 C   0  0  0  0  0  0  0  0  0  0  0  0
    5.9080    2.1284   -3.9059 H   0  0  0  0  0  0  0  0  0  0  0  0
    4.2688    2.9541   -2.7417 C   0  0  0  0  0  0  0  0  0  0  0  0
    4.3263    3.9458   -3.2150 H   0  0  0  0  0  0  0  0  0  0  0  0
    3.3063    2.7136   -1.7494 C   0  0  0  0  0  0  0  0  0  0  0  0
    2.6243    3.5203   -1.4433 H   0  0  0  0  0  0  0  0  0  0  0  0
    2.8692    0.7670    1.6744 C   0  0  0  0  0  0  0  0  0  0  0  0
    4.1422    1.3237    1.9134 C   0  0  0  0  0  0  0  0  0  0  0  0
    4.6469    1.9056    1.1272 H   0  0  0  0  0  0  0  0  0  0  0  0
    4.7634    1.1266    3.1552 C   0  0  0  0  0  0  0  0  0  0  0  0
    5.7589    1.5568    3.3420 H   0  0  0  0  0  0  0  0  0  0  0  0
    4.1190    0.3796    4.1557 C   0  0  0  0  0  0  0  0  0  0  0  0
    4.6126    0.2239    5.1271 H   0  0  0  0  0  0  0  0  0  0  0  0
    2.8496   -0.1720    3.9173 C   0  0  0  0  0  0  0  0  0  0  0  0
    2.3404   -0.7639    4.6924 H   0  0  0  0  0  0  0  0  0  0  0  0
    2.2204    0.0189    2.6790 C   0  0  0  0  0  0  0  0  0  0  0  0
    1.2297   -0.4234    2.4933 H   0  0  0  0  0  0  0  0  0  0  0  0
   -1.7321    2.2715   -0.1120 C   0  0  0  0  0  0  0  0  0  0  0  0
   -2.6212    3.1319    0.5509 C   0  0  0  0  0  0  0  0  0  0  0  0
   -2.5306    3.2703    1.6384 H   0  0  0  0  0  0  0  0  0  0  0  0
   -3.6429    3.7876   -0.1537 C   0  0  0  0  0  0  0  0  0  0  0  0
   -4.3357    4.4491    0.3903 H   0  0  0  0  0  0  0  0  0  0  0  0
   -3.8063    3.6092   -1.5400 C   0  0  0  0  0  0  0  0  0  0  0  0
   -2.8994    2.7535   -2.2041 C   0  0  0  0  0  0  0  0  0  0  0  0
   -3.0005    2.5967   -3.2905 H   0  0  0  0  0  0  0  0  0  0  0  0
   -1.8814    2.0984   -1.5036 C   0  0  0  0  0  0  0  0  0  0  0  0
   -1.1907    1.4257   -2.0371 H   0  0  0  0  0  0  0  0  0  0  0  0
   -4.9246    4.2840   -2.2941 C   0  0  0  0  0  0  0  0  0  0  0  0
   -5.3833    5.0996   -1.7019 H   0  0  0  0  0  0  0  0  0  0  0  0
   -5.7318    3.5621   -2.5437 H   0  0  0  0  0  0  0  0  0  0  0  0
   -4.5703    4.7124   -3.2540 H   0  0  0  0  0  0  0  0  0  0  0  0
  1  6  1  0  0  0  0
  1 38  1  0  0  0  0
  2  1  1  0  0  0  0
  2  3  2  0  0  0  0
  3  4  1  0  0  0  0
  4  5  1  1  0  0  0
  6  7  1  6  0  0  0
  6  4  1  0  0  0  0
  6  8  1  0  0  0  0
  8  9  1  0  0  0  0
 10  8  2  0  0  0  0
 10 12  1  0  0  0  0
 11 10  1  0  0  0  0
 13  2  1  0  0  0  0
 13 21  1  0  0  0  0
 14 13  2  0  0  0  0
 15 14  1  0  0  0  0
 16 14  1  0  0  0  0
 16 18  2  0  0  0  0
 17 16  1  0  0  0  0
 18 19  1  0  0  0  0
 19 21  2  0  0  0  0
 19 20  1  0  0  0  0
 21 22  1  0  0  0  0
 23 26  1  0  0  0  0
 23 18  1  0  0  0  0
 23 24  1  0  0  0  0
 25 23  1  0  0  0  0
 27  1  1  0  0  0  0
 28 27  1  0  0  0  0
 28 29  1  0  0  0  0
 30 28  2  0  0  0  0
 31 30  1  0  0  0  0
 32 34  2  0  0  0  0
 32 30  1  0  0  0  0
 33 32  1  0  0  0  0
 34 36  1  0  0  0  0
 35 34  1  0  0  0  0
 36 37  1  0  0  0  0
 36 27  2  0  0  0  0
 38 39  2  0  0  0  0
 38 47  1  0  0  0  0
 39 41  1  0  0  0  0
 40 39  1  0  0  0  0
 41 42  1  0  0  0  0
 41 43  2  0  0  0  0
 43 44  1  0  0  0  0
 45 43  1  0  0  0  0
 45 46  1  0  0  0  0
 47 45  2  0  0  0  0
 48 47  1  0  0  0  0
 49 50  1  0  0  0  0
 49  4  1  0  0  0  0
 50 51  1  0  0  0  0
 52 53  1  0  0  0  0
 52 50  2  0  0  0  0
 54 52  1  0  0  0  0
 55 54  2  0  0  0  0
 55 57  1  0  0  0  0
 56 55  1  0  0  0  0
 57 49  2  0  0  0  0
 58 57  1  0  0  0  0
 59 60  1  0  0  0  0
 59 54  1  0  0  0  0
 61 59  1  0  0  0  0
 62 59  1  0  0  0  0
M  END
