2
q = -1.0, confidence = 0.0

 14 13  0  0  0  0  0  0  0  0999 V2000
   -4.1272   -2.1840   -1.7956 N   0  0  0  0  0  0  0  0  0  0  0  0
   -1.6088    0.2488   -1.5812 C   0  0  0  0  0  3  0  0  0  0  0  0
   -2.7629   -0.1223   -1.8634 C   0  0  0  0  0  0  0  0  0  0  0  0
   -4.0877   -0.7391   -2.0425 C   0  0  0  0  0  0  0  0  0  0  0  0
   -4.8210   -0.2552   -1.3566 H   0  0  0  0  0  0  0  0  0  0  0  0
   -4.4629   -0.5502   -3.0733 H   0  0  0  0  0  0  0  0  0  0  0  0
   -3.7442   -2.5324   -0.4362 C   0  0  0  0  0  0  0  0  0  0  0  0
   -3.9186   -3.6154   -0.2690 H   0  0  0  0  0  0  0  0  0  0  0  0
   -4.3670   -1.9680    0.2876 H   0  0  0  0  0  0  0  0  0  0  0  0
   -2.6707   -2.3099   -0.2022 H   0  0  0  0  0  0  0  0  0  0  0  0
   -3.3984   -2.9490   -2.7884 C   0  0  0  0  0  0  0  0  0  0  0  0
   -3.5605   -4.0331   -2.6172 H   0  0  0  0  0  0  0  0  0  0  0  0
   -2.2907   -2.7661   -2.7754 H   0  0  0  0  0  0  0  0  0  0  0  0
   -3.7677   -2.7043   -3.8057 H   0  0  0  0  0  0  0  0  0  0  0  0
  1  7  1  0  0  0  0
  3  2  3  0  0  0  0
  4  3  1  0  0  0  0
  4  1  1  0  0  0  0
  4  5  1  0  0  0  0
  6  4  1  0  0  0  0
  7  8  1  0  0  0  0
  7 10  1  0  0  0  0
  7  9  1  0  0  0  0
 11 13  1  0  0  0  0
 11 12  1  0  0  0  0
 11  1  1  0  0  0  0
 14 11  1  0  0  0  0
M  END
