7
q = -2.0, confidence = 0.912

 48 49  0  0  1  0  0  0  0  0999 V2000
    2.0694    1.7088   -0.4713 Si  0  0  0  0  0  0  0  0  0  0  0  0
    2.9183   -0.0914    0.8024 Si  0  0  0  0  0  0  0  0  0  0  0  0
    2.3098    3.3806    0.3969 C   0  0  0  0  0  0  0  0  0  0  0  0
    2.8029    1.7186   -2.2151 C   0  0  0  0  0  0  0  0  0  0  0  0
    4.0971   -1.1726   -0.2062 C   0  0  0  0  0  0  0  0  0  0  0  0
    3.7211    0.4835    2.4244 C   0  0  0  0  0  0  0  0  0  0  0  0
    0.2148    1.3657   -0.6305 C   0  0  2  0  0  3  0  0  0  0  0  0
   -0.4623    0.9839   -1.8350 C   0  0  0  0  0  0  0  0  0  0  0  0
   -1.8321    0.7844   -1.5559 C   0  0  0  0  0  0  0  0  0  0  0  0
   -2.0700    1.0784   -0.1744 C   0  0  0  0  0  0  0  0  0  0  0  0
   -0.8034    1.4242    0.3843 C   0  0  0  0  0  0  0  0  0  0  0  0
    1.3766   -1.1114    1.2032 C   0  0  0  0  0  0  0  0  0  0  0  0
    1.0720   -2.4303    0.7236 C   0  0  0  0  0  0  0  0  0  0  0  0
   -0.2136   -2.8051    1.1714 C   0  0  0  0  0  0  0  0  0  0  0  0
   -0.7342   -1.7333    1.9567 C   0  0  0  0  0  0  0  0  0  0  0  0
    0.2491   -0.7096    1.9958 C   0  0  0  0  0  3  0  0  0  0  0  0
   -3.4269    1.2227    0.5084 C   0  0  0  0  0  0  0  0  0  0  0  0
   -4.5626    0.7761   -0.4288 C   0  0  0  0  0  0  0  0  0  0  0  0
   -3.6032    2.7261    0.8347 C   0  0  0  0  0  0  0  0  0  0  0  0
   -3.5030    0.4091    1.8141 C   0  0  0  0  0  0  0  0  0  0  0  0
    1.8575    4.2024   -0.1957 H   0  0  0  0  0  0  0  0  0  0  0  0
    1.8378    3.3819    1.4007 H   0  0  0  0  0  0  0  0  0  0  0  0
    3.3883    3.6028    0.5325 H   0  0  0  0  0  0  0  0  0  0  0  0
    2.3465    2.5157   -2.8376 H   0  0  0  0  0  0  0  0  0  0  0  0
    3.8984    1.8872   -2.1838 H   0  0  0  0  0  0  0  0  0  0  0  0
    2.6162    0.7399   -2.7021 H   0  0  0  0  0  0  0  0  0  0  0  0
    4.4297   -2.0536    0.3810 H   0  0  0  0  0  0  0  0  0  0  0  0
    3.5812   -1.5318   -1.1196 H   0  0  0  0  0  0  0  0  0  0  0  0
    4.9971   -0.6028   -0.5139 H   0  0  0  0  0  0  0  0  0  0  0  0
    4.0493   -0.3852    3.0317 H   0  0  0  0  0  0  0  0  0  0  0  0
    4.6078    1.1184    2.2205 H   0  0  0  0  0  0  0  0  0  0  0  0
    3.0124    1.0802    3.0339 H   0  0  0  0  0  0  0  0  0  0  0  0
    0.0139    0.8153   -2.8053 H   0  0  0  0  0  0  0  0  0  0  0  0
   -2.5800    0.4276   -2.2709 H   0  0  0  0  0  0  0  0  0  0  0  0
   -0.6496    1.7679    1.4126 H   0  0  0  0  0  0  0  0  0  0  0  0
    1.7087   -3.0242    0.0605 H   0  0  0  0  0  0  0  0  0  0  0  0
   -0.7470   -3.7257    0.9122 H   0  0  0  0  0  0  0  0  0  0  0  0
   -1.7154   -1.7113    2.4413 H   0  0  0  0  0  0  0  0  0  0  0  0
    0.1733    0.2191    2.5703 H   0  0  0  0  0  0  0  0  0  0  0  0
   -4.4329   -0.2821   -0.7282 H   0  0  0  0  0  0  0  0  0  0  0  0
   -5.5398    0.8787    0.0849 H   0  0  0  0  0  0  0  0  0  0  0  0
   -4.5988    1.3985   -1.3456 H   0  0  0  0  0  0  0  0  0  0  0  0
   -2.8361    3.0808    1.5524 H   0  0  0  0  0  0  0  0  0  0  0  0
   -3.5240    3.3447   -0.0818 H   0  0  0  0  0  0  0  0  0  0  0  0
   -4.6012    2.9041    1.2862 H   0  0  0  0  0  0  0  0  0  0  0  0
   -3.4553   -0.6739    1.5914 H   0  0  0  0  0  0  0  0  0  0  0  0
   -2.6778    0.6677    2.5089 H   0  0  0  0  0  0  0  0  0  0  0  0
   -4.4585    0.6172    2.3375 H   0  0  0  0  0  0  0  0  0  0  0  0
  1  3  1  0  0  0  0
  1  2  1  0  0  0  0
  2 12  1  0  0  0  0
  2  6  1  0  0  0  0
  3 23  1  0  0  0  0
  3 22  1  0  0  0  0
  4 25  1  0  0  0  0
  4  1  1  0  0  0  0
  5 27  1  0  0  0  0
  5  2  1  0  0  0  0
  6 30  1  0  0  0  0
  6 32  1  0  0  0  0
  7  1  1  6  0  0  0
  7 11  1  0  0  0  0
  8  9  2  0  0  0  0
  8  7  1  0  0  0  0
  9 10  1  0  0  0  0
 10 11  2  0  0  0  0
 10 17  1  0  0  0  0
 11 35  1  0  0  0  0
 12 16  1  0  0  0  0
 13 14  1  0  0  0  0
 13 12  2  0  0  0  0
 14 15  2  0  0  0  0
 15 16  1  0  0  0  0
 15 38  1  0  0  0  0
 16 39  1  0  0  0  0
 17 19  1  0  0  0  0
 17 20  1  0  0  0  0
 18 41  1  0  0  0  0
 18 17  1  0  0  0  0
 19 45  1  0  0  0  0
 19 43  1  0  0  0  0
 20 48  1  0  0  0  0
 20 47  1  0  0  0  0
 21  3  1  0  0  0  0
 24  4  1  0  0  0  0
 26  4  1  0  0  0  0
 28  5  1  0  0  0  0
 29  5  1  0  0  0  0
 31  6  1  0  0  0  0
 33  8  1  0  0  0  0
 34  9  1  0  0  0  0
 36 13  1  0  0  0  0
 37 14  1  0  0  0  0
 40 18  1  0  0  0  0
 42 18  1  0  0  0  0
 44 19  1  0  0  0  0
 46 20  1  0  0  0  0
M  END
