5
q = 0.0, confidence = 0.99

 19 20  0  0  0  0  0  0  0  0999 V2000
    6.4684   -2.6898   -0.2579 Cl  0  0  0  0  0  0  0  0  0  0  0  0
   -0.6981   -0.2032    2.4040 N   0  0  0  0  0  0  0  0  0  0  0  0
   -1.6303    0.1517    2.1807 H   0  0  0  0  0  0  0  0  0  0  0  0
    1.2971   -0.9358    2.1262 N   0  0  0  0  0  0  0  0  0  0  0  0
    0.2428   -0.3902    1.4328 C   0  0  0  0  0  2  0  0  0  0  0  0
   -0.2721   -0.6050    3.6574 C   0  0  0  0  0  0  0  0  0  0  0  0
   -0.8977   -0.5413    4.5525 H   0  0  0  0  0  0  0  0  0  0  0  0
    1.0040   -1.0703    3.4846 C   0  0  0  0  0  0  0  0  0  0  0  0
    1.7183   -1.5038    4.1904 H   0  0  0  0  0  0  0  0  0  0  0  0
    2.5407   -1.3665    1.5563 C   0  0  0  0  0  0  0  0  0  0  0  0
    2.5785   -2.5118    0.7447 C   0  0  0  0  0  0  0  0  0  0  0  0
    1.6556   -3.0701    0.5368 H   0  0  0  0  0  0  0  0  0  0  0  0
    3.7959   -2.9348    0.1965 C   0  0  0  0  0  0  0  0  0  0  0  0
    3.8403   -3.8234   -0.4484 H   0  0  0  0  0  0  0  0  0  0  0  0
    4.9680   -2.2101    0.4737 C   0  0  0  0  0  0  0  0  0  0  0  0
    4.9378   -1.0816    1.3125 C   0  0  0  0  0  0  0  0  0  0  0  0
    5.8663   -0.5338    1.5238 H   0  0  0  0  0  0  0  0  0  0  0  0
    3.7174   -0.6597    1.8528 C   0  0  0  0  0  0  0  0  0  0  0  0
    3.6730    0.2304    2.4973 H   0  0  0  0  0  0  0  0  0  0  0  0
  1 15  1  0  0  0  0
  2  6  1  0  0  0  0
  3  2  1  0  0  0  0
  4  8  1  0  0  0  0
  5  4  1  0  0  0  0
  5  2  1  0  0  0  0
  6  7  1  0  0  0  0
  8  6  2  0  0  0  0
  8  9  1  0  0  0  0
 10 18  1  0  0  0  0
 10  4  1  0  0  0  0
 11 10  2  0  0  0  0
 12 11  1  0  0  0  0
 13 15  2  0  0  0  0
 13 11  1  0  0  0  0
 14 13  1  0  0  0  0
 15 16  1  0  0  0  0
 16 17  1  0  0  0  0
 16 18  2  0  0  0  0
 18 19  1  0  0  0  0
M  END
