35
q = -1.0

 40 42  0  0  0  0  0  0  0  0999 V2000
   -0.6006    0.0212   -0.0008 P   0  0  0  0  0  0  0  0  0  0  0  0
   -1.9653   -0.4707   -1.1563 C   0  0  0  0  0  0  0  0  0  0  0  0
   -1.8241   -1.6632   -1.8941 C   0  0  0  0  0  0  0  0  0  0  0  0
   -0.8867   -2.2339   -1.8275 H   0  0  0  0  0  0  0  0  0  0  0  0
   -2.8645   -2.1200   -2.7145 C   0  0  0  0  0  0  0  0  0  0  0  0
   -2.7366   -3.0503   -3.2885 H   0  0  0  0  0  0  0  0  0  0  0  0
   -4.0599   -1.3898   -2.8105 C   0  0  0  0  0  0  0  0  0  0  0  0
   -4.8746   -1.7457   -3.4595 H   0  0  0  0  0  0  0  0  0  0  0  0
   -4.2101   -0.2029   -2.0775 C   0  0  0  0  0  0  0  0  0  0  0  0
   -5.1445    0.3751   -2.1465 H   0  0  0  0  0  0  0  0  0  0  0  0
   -3.1706    0.2552   -1.2525 C   0  0  0  0  0  0  0  0  0  0  0  0
   -3.2993    1.1872   -0.6826 H   0  0  0  0  0  0  0  0  0  0  0  0
   -1.0402    1.7675    0.4017 C   0  0  0  0  0  0  0  0  0  0  0  0
   -1.0538    2.7074   -0.6521 C   0  0  0  0  0  0  0  0  0  0  0  0
   -0.8980    2.3652   -1.6874 H   0  0  0  0  0  0  0  0  0  0  0  0
   -1.2664    4.0673   -0.3862 C   0  0  0  0  0  0  0  0  0  0  0  0
   -1.2800    4.7902   -1.2162 H   0  0  0  0  0  0  0  0  0  0  0  0
   -1.4581    4.5068    0.9348 C   0  0  0  0  0  0  0  0  0  0  0  0
   -1.6208    5.5750    1.1434 H   0  0  0  0  0  0  0  0  0  0  0  0
   -1.4401    3.5777    1.9863 C   0  0  0  0  0  0  0  0  0  0  0  0
   -1.5897    3.9152    3.0234 H   0  0  0  0  0  0  0  0  0  0  0  0
   -1.2338    2.2130    1.7237 C   0  0  0  0  0  0  0  0  0  0  0  0
   -1.2183    1.4894    2.5523 H   0  0  0  0  0  0  0  0  0  0  0  0
   -1.0330   -0.9433    1.5066 C   0  0  0  0  0  0  0  0  0  0  0  0
   -2.3004   -0.9691    2.1159 C   0  0  0  0  0  0  0  0  0  0  0  0
   -3.1454   -0.4399    1.6480 H   0  0  0  0  0  0  0  0  0  0  0  0
   -2.4721   -1.6425    3.3338 C   0  0  0  0  0  0  0  0  0  0  0  0
   -3.4556   -1.6483    3.8275 H   0  0  0  0  0  0  0  0  0  0  0  0
   -1.3779   -2.2979    3.9277 C   0  0  0  0  0  0  0  0  0  0  0  0
   -1.5080   -2.8198    4.8883 H   0  0  0  0  0  0  0  0  0  0  0  0
   -0.1268   -2.3092    3.2954 C   0  0  0  0  0  0  0  0  0  0  0  0
    0.7171   -2.8535    3.7476 H   0  0  0  0  0  0  0  0  0  0  0  0
    0.0608   -1.6474    2.0622 C   0  0  0  0  0  0  0  0  0  0  0  0
    1.3422   -1.7102    1.3108 C   0  0  0  0  0  3  0  0  0  0  0  0
    1.4266   -2.4308    0.0663 C   0  0  0  0  0  3  0  0  0  0  0  0
    2.6880   -2.3271   -0.6056 C   0  0  0  0  0  3  0  0  0  0  0  0
    0.5555   -2.9635   -0.3477 H   0  0  0  0  0  0  0  0  0  0  0  0
    2.2547   -1.7247    1.9355 H   0  0  0  0  0  0  0  0  0  0  0  0
    2.8019   -2.7915   -1.5976 H   0  0  0  0  0  0  0  0  0  0  0  0
    3.5998   -2.3552    0.0168 H   0  0  0  0  0  0  0  0  0  0  0  0
  1 13  1  0  0  0  0
  1 24  1  0  0  0  0
  2  1  1  0  0  0  0
  3  4  1  0  0  0  0
  3  2  2  0  0  0  0
  5  3  1  0  0  0  0
  6  5  1  0  0  0  0
  7  5  2  0  0  0  0
  7  9  1  0  0  0  0
  8  7  1  0  0  0  0
  9 11  2  0  0  0  0
 10  9  1  0  0  0  0
 11  2  1  0  0  0  0
 11 12  1  0  0  0  0
 13 22  1  0  0  0  0
 14 16  1  0  0  0  0
 14 13  2  0  0  0  0
 15 14  1  0  0  0  0
 16 18  2  0  0  0  0
 17 16  1  0  0  0  0
 18 19  1  0  0  0  0
 18 20  1  0  0  0  0
 20 21  1  0  0  0  0
 22 20  2  0  0  0  0
 22 23  1  0  0  0  0
 24 33  2  0  0  0  0
 24 25  1  0  0  0  0
 25 27  2  0  0  0  0
 26 25  1  0  0  0  0
 27 28  1  0  0  0  0
 27 29  1  0  0  0  0
 29 30  1  0  0  0  0
 31 32  1  0  0  0  0
 31 29  2  0  0  0  0
 33 31  1  0  0  0  0
 34 38  1  0  0  0  0
 34 33  1  0  0  0  0
 35 34  1  0  0  0  0
 36 40  1  0  0  0  0
 36 35  1  0  0  0  0
 37 35  1  0  0  0  0
 39 36  1  0  0  0  0
M  END
