2
q = -1.0, confidence = 0.004

 59 62  0  0  1  0  0  0  0  0999 V2000
   -0.9445   -0.5196    0.0376 P   0  0  0  0  0  0  0  0  0  0  0  0
    1.5704    0.4317    0.0011 C   0  0  0  0  0  2  0  0  0  0  0  0
    0.2689    0.8709    0.0330 C   0  0  1  0  0  3  0  0  0  0  0  0
   -0.2216    2.2723   -0.1256 C   0  0  0  0  0  0  0  0  0  0  0  0
   -0.9812    2.9403    0.8619 C   0  0  0  0  0  0  0  0  0  0  0  0
   -1.1814    2.4506    1.8252 H   0  0  0  0  0  0  0  0  0  0  0  0
   -1.4603    4.2393    0.6366 C   0  0  0  0  0  0  0  0  0  0  0  0
   -2.0402    4.7489    1.4208 H   0  0  0  0  0  0  0  0  0  0  0  0
   -1.1998    4.8893   -0.5804 C   0  0  0  0  0  0  0  0  0  0  0  0
   -1.5812    5.9058   -0.7568 H   0  0  0  0  0  0  0  0  0  0  0  0
   -0.4448    4.2370   -1.5681 C   0  0  0  0  0  0  0  0  0  0  0  0
   -0.2309    4.7414   -2.5224 H   0  0  0  0  0  0  0  0  0  0  0  0
    0.0422    2.9419   -1.3422 C   0  0  0  0  0  0  0  0  0  0  0  0
    0.6386    2.4325   -2.1145 H   0  0  0  0  0  0  0  0  0  0  0  0
    2.7625    1.2753    0.1643 C   0  0  0  0  0  0  0  0  0  0  0  0
    4.0240    0.8826   -0.3517 C   0  0  0  0  0  0  0  0  0  0  0  0
    4.1100   -0.0615   -0.9053 H   0  0  0  0  0  0  0  0  0  0  0  0
    5.1665    1.6719   -0.1698 C   0  0  0  0  0  0  0  0  0  0  0  0
    6.1286    1.3467   -0.5933 H   0  0  0  0  0  0  0  0  0  0  0  0
    5.0866    2.8683    0.5601 C   0  0  0  0  0  0  0  0  0  0  0  0
    5.9841    3.4862    0.7116 H   0  0  0  0  0  0  0  0  0  0  0  0
    3.8547    3.2617    1.1088 C   0  0  0  0  0  0  0  0  0  0  0  0
    3.7851    4.1885    1.6978 H   0  0  0  0  0  0  0  0  0  0  0  0
    2.7097    2.4819    0.9131 C   0  0  0  0  0  0  0  0  0  0  0  0
    1.7572    2.8020    1.3556 H   0  0  0  0  0  0  0  0  0  0  0  0
   -2.1733   -0.1613   -1.3472 C   0  0  0  0  0  0  0  0  0  0  0  0
   -1.5225    0.3320   -2.1038 H   0  0  0  0  0  0  0  0  0  0  0  0
   -3.2838    0.8515   -1.0065 C   0  0  0  0  0  0  0  0  0  0  0  0
   -3.9742    0.4101   -0.2551 H   0  0  0  0  0  0  0  0  0  0  0  0
   -2.8567    1.7710   -0.5611 H   0  0  0  0  0  0  0  0  0  0  0  0
   -4.0851    1.2015   -2.2709 C   0  0  0  0  0  0  0  0  0  0  0  0
   -4.8864    1.9230   -2.0104 H   0  0  0  0  0  0  0  0  0  0  0  0
   -3.4152    1.7268   -2.9877 H   0  0  0  0  0  0  0  0  0  0  0  0
   -4.6758   -0.0477   -2.9340 C   0  0  0  0  0  0  0  0  0  0  0  0
   -5.2143    0.2246   -3.8644 H   0  0  0  0  0  0  0  0  0  0  0  0
   -5.4348   -0.4975   -2.2556 H   0  0  0  0  0  0  0  0  0  0  0  0
   -3.5894   -1.0876   -3.2320 C   0  0  0  0  0  0  0  0  0  0  0  0
   -2.8986   -0.6888   -4.0089 H   0  0  0  0  0  0  0  0  0  0  0  0
   -4.0347   -2.0107   -3.6566 H   0  0  0  0  0  0  0  0  0  0  0  0
   -2.7771   -1.4328   -1.9750 C   0  0  0  0  0  0  0  0  0  0  0  0
   -1.9865   -2.1702   -2.2162 H   0  0  0  0  0  0  0  0  0  0  0  0
   -3.4405   -1.9278   -1.2328 H   0  0  0  0  0  0  0  0  0  0  0  0
   -1.9672   -0.3595    1.6030 C   0  0  0  0  0  0  0  0  0  0  0  0
   -2.5557    0.5603    1.3907 H   0  0  0  0  0  0  0  0  0  0  0  0
   -1.1982   -0.1009    2.9081 C   0  0  0  0  0  0  0  0  0  0  0  0
   -0.6318   -1.0053    3.2057 H   0  0  0  0  0  0  0  0  0  0  0  0
   -0.4546    0.7118    2.7748 H   0  0  0  0  0  0  0  0  0  0  0  0
   -2.1856    0.2346    4.0366 C   0  0  0  0  0  0  0  0  0  0  0  0
   -1.6292    0.4259    4.9769 H   0  0  0  0  0  0  0  0  0  0  0  0
   -2.7192    1.1801    3.7902 H   0  0  0  0  0  0  0  0  0  0  0  0
   -3.2031   -0.8969    4.2315 C   0  0  0  0  0  0  0  0  0  0  0  0
   -3.9298   -0.6321    5.0263 H   0  0  0  0  0  0  0  0  0  0  0  0
   -2.6698   -1.8059    4.5900 H   0  0  0  0  0  0  0  0  0  0  0  0
   -3.9392   -1.2240    2.9269 C   0  0  0  0  0  0  0  0  0  0  0  0
   -4.6245   -2.0847    3.0682 H   0  0  0  0  0  0  0  0  0  0  0  0
   -4.5792   -0.3605    2.6381 H   0  0  0  0  0  0  0  0  0  0  0  0
   -2.9662   -1.5197    1.7741 C   0  0  0  0  0  0  0  0  0  0  0  0
   -3.5337   -1.6966    0.8383 H   0  0  0  0  0  0  0  0  0  0  0  0
   -2.4109   -2.4617    1.9824 H   0  0  0  0  0  0  0  0  0  0  0  0
  1 43  1  0  0  0  0
  2 15  1  0  0  0  0
  3  2  1  6  0  0  0
  3  1  1  0  0  0  0
  4  3  1  0  0  0  0
  4  5  1  0  0  0  0
  5  6  1  0  0  0  0
  7  5  2  0  0  0  0
  7  8  1  0  0  0  0
  9  7  1  0  0  0  0
 10  9  1  0  0  0  0
 11 13  1  0  0  0  0
 11  9  2  0  0  0  0
 12 11  1  0  0  0  0
 13  4  2  0  0  0  0
 14 13  1  0  0  0  0
 15 24  1  0  0  0  0
 16 18  1  0  0  0  0
 16 15  2  0  0  0  0
 17 16  1  0  0  0  0
 18 20  2  0  0  0  0
 19 18  1  0  0  0  0
 20 21  1  0  0  0  0
 20 22  1  0  0  0  0
 22 23  1  0  0  0  0
 24 22  2  0  0  0  0
 24 25  1  0  0  0  0
 26 28  1  0  0  0  0
 26  1  1  0  0  0  0
 27 26  1  0  0  0  0
 28 30  1  0  0  0  0
 28 29  1  0  0  0  0
 31 32  1  0  0  0  0
 31 28  1  0  0  0  0
 33 31  1  0  0  0  0
 34 31  1  0  0  0  0
 34 36  1  0  0  0  0
 35 34  1  0  0  0  0
 37 34  1  0  0  0  0
 37 40  1  0  0  0  0
 38 37  1  0  0  0  0
 39 37  1  0  0  0  0
 40 26  1  0  0  0  0
 40 42  1  0  0  0  0
 41 40  1  0  0  0  0
 43 57  1  0  0  0  0
 43 45  1  0  0  0  0
 44 43  1  0  0  0  0
 45 46  1  0  0  0  0
 45 48  1  0  0  0  0
 47 45  1  0  0  0  0
 48 51  1  0  0  0  0
 48 49  1  0  0  0  0
 50 48  1  0  0  0  0
 51 53  1  0  0  0  0
 51 52  1  0  0  0  0
 54 55  1  0  0  0  0
 54 51  1  0  0  0  0
 56 54  1  0  0  0  0
 57 59  1  0  0  0  0
 57 54  1  0  0  0  0
 58 57  1  0  0  0  0
M  END
