20
q = 0.0, confidence = 0.95

 32 33  0  0  1  0  0  0  0  0999 V2000
   -1.1803    2.4719   -0.0273 Si  0  0  0  0  0  0  0  0  0  0  0  0
   -0.6375   -2.6678   -0.7498 O   0  0  0  0  0  0  0  0  0  0  0  0
   -0.2351   -2.1151   -1.4693 H   0  0  0  0  0  0  0  0  0  0  0  0
   -2.6873   -0.0832    0.1115 N   0  0  0  0  0  0  0  0  0  0  0  0
   -0.8209   -2.4505    1.6322 C   0  0  0  0  0  0  0  0  0  0  0  0
   -1.2676   -3.4644    1.6290 H   0  0  0  0  0  0  0  0  0  0  0  0
   -1.2476   -1.8537    2.4613 H   0  0  0  0  0  0  0  0  0  0  0  0
    0.2715   -2.5269    1.7883 H   0  0  0  0  0  0  0  0  0  0  0  0
   -1.0711   -1.7906    0.2632 C   0  0  2  0  0  0  0  0  0  0  0  0
   -2.5483   -1.4484    0.1193 C   0  0  2  0  0  3  0  0  0  0  0  0
   -3.6572   -2.2718   -0.0162 C   0  0  0  0  0  0  0  0  0  0  0  0
   -3.5064   -3.3603   -0.0335 H   0  0  0  0  0  0  0  0  0  0  0  0
   -4.9301   -1.6890   -0.1476 C   0  0  0  0  0  0  0  0  0  0  0  0
   -5.8226   -2.3203   -0.2652 H   0  0  0  0  0  0  0  0  0  0  0  0
   -5.0487   -0.2895   -0.1305 C   0  0  0  0  0  0  0  0  0  0  0  0
   -6.0268    0.2015   -0.2262 H   0  0  0  0  0  0  0  0  0  0  0  0
   -3.9087    0.5030    0.0002 C   0  0  0  0  0  0  0  0  0  0  0  0
   -3.9307    1.5992    0.0150 H   0  0  0  0  0  0  0  0  0  0  0  0
   -1.3949    0.5819    0.1748 C   0  0  1  0  0  3  0  0  0  0  0  0
   -0.4465   -0.3981    0.2102 C   0  0  0  0  0  2  0  0  0  0  0  0
   -2.2387    3.3728    1.2641 C   0  0  0  0  0  0  0  0  0  0  0  0
   -3.3350    3.2586    1.1454 H   0  0  0  0  0  0  0  0  0  0  0  0
   -2.0206    4.4594    1.2028 H   0  0  0  0  0  0  0  0  0  0  0  0
   -1.9682    3.0366    2.2860 H   0  0  0  0  0  0  0  0  0  0  0  0
   -1.7312    2.8625   -1.7943 C   0  0  0  0  0  0  0  0  0  0  0  0
   -2.7992    2.6376   -1.9901 H   0  0  0  0  0  0  0  0  0  0  0  0
   -1.1183    2.2589   -2.4955 H   0  0  0  0  0  0  0  0  0  0  0  0
   -1.5650    3.9351   -2.0241 H   0  0  0  0  0  0  0  0  0  0  0  0
    0.6139    2.9521    0.2322 C   0  0  0  0  0  0  0  0  0  0  0  0
    0.6850    4.0598    0.2151 H   0  0  0  0  0  0  0  0  0  0  0  0
    1.2729    2.5564   -0.5662 H   0  0  0  0  0  0  0  0  0  0  0  0
    0.9999    2.5863    1.2048 H   0  0  0  0  0  0  0  0  0  0  0  0
  1 29  1  0  0  0  0
  1 21  1  0  0  0  0
  3  2  1  0  0  0  0
  4 10  1  0  0  0  0
  4 19  1  0  0  0  0
  5  8  1  0  0  0  0
  5  7  1  0  0  0  0
  6  5  1  0  0  0  0
  9  2  1  6  0  0  0
  9  5  1  0  0  0  0
 10 11  1  6  0  0  0
 10  9  1  0  0  0  0
 12 11  1  0  0  0  0
 13 15  1  0  0  0  0
 13 11  2  0  0  0  0
 14 13  1  0  0  0  0
 15 17  2  0  0  0  0
 16 15  1  0  0  0  0
 17 18  1  0  0  0  0
 17  4  1  0  0  0  0
 19  1  1  6  0  0  0
 19 20  1  0  0  0  0
 20  9  1  0  0  0  0
 21 24  1  0  0  0  0
 22 21  1  0  0  0  0
 23 21  1  0  0  0  0
 25  1  1  0  0  0  0
 26 25  1  0  0  0  0
 27 25  1  0  0  0  0
 28 25  1  0  0  0  0
 29 32  1  0  0  0  0
 30 29  1  0  0  0  0
 31 29  1  0  0  0  0
M  END
