5
q = -1.0

 44 46  0  0  1  0  0  0  0  0999 V2000
    1.0059    0.5129    0.1769 C   0  0  2  0  0  3  0  0  0  0  0  0
   -0.2474    0.2756   -0.5955 C   0  0  0  0  0  0  0  0  0  0  0  0
   -1.0991   -0.4993    0.1952 N   0  0  0  0  0  0  0  0  0  0  0  0
   -0.5812   -0.7000    1.5560 C   0  0  1  0  0  0  0  0  0  0  0  0
    0.8623   -0.2567    1.3990 C   0  0  1  0  0  3  0  0  0  0  0  0
   -0.5198    0.6689   -1.7375 O   0  0  0  0  0  0  0  0  0  0  0  0
   -1.3619    0.1612    2.5860 C   0  0  0  0  0  0  0  0  0  0  0  0
   -1.3450    1.6312    2.2777 C   0  0  0  0  0  0  0  0  0  0  0  0
   -2.4001    2.3300    1.8240 C   0  0  0  0  0  0  0  0  0  0  0  0
   -2.4505   -1.3923   -0.4072 S   0  0  0  0  0  0  0  0  0  0  0  0
   -2.7535   -2.3595    0.6718 O   0  0  0  0  0  0  0  0  0  0  0  0
   -2.1209   -1.8354   -1.7710 O   0  0  0  0  0  0  0  0  0  0  0  0
   -3.7619   -0.1774   -0.4769 C   0  0  0  0  0  0  0  0  0  0  0  0
   -4.8296   -0.2946    0.4248 C   0  0  0  0  0  0  0  0  0  0  0  0
   -5.8505    0.6668    0.3788 C   0  0  0  0  0  0  0  0  0  0  0  0
   -5.7873    1.7168   -0.5520 C   0  0  0  0  0  0  0  0  0  0  0  0
   -4.7097    1.8083   -1.4505 C   0  0  0  0  0  0  0  0  0  0  0  0
   -3.6852    0.8523   -1.4283 C   0  0  0  0  0  0  0  0  0  0  0  0
    1.9498   -0.7000    2.2027 C   0  0  0  0  0  3  0  0  0  0  0  0
    1.7976    1.7574   -0.0137 C   0  0  0  0  0  0  0  0  0  0  0  0
    2.2194    2.1914   -1.3074 C   0  0  0  0  0  0  0  0  0  0  0  0
    3.1013    3.2880   -1.4119 C   0  0  0  0  0  0  0  0  0  0  0  0
    3.5417    3.9731   -0.2754 C   0  0  0  0  0  0  0  0  0  0  0  0
    3.0983    3.5816    0.9994 C   0  0  0  0  0  0  0  0  0  0  0  0
    2.2369    2.4847    1.1153 C   0  0  0  0  0  0  0  0  0  0  0  0
    1.8548    1.5659   -2.4457 O   0  0  0  0  0  0  0  0  0  0  0  0
   -0.6719   -1.7616    1.8514 H   0  0  0  0  0  0  0  0  0  0  0  0
   -2.4027   -0.2218    2.6177 H   0  0  0  0  0  0  0  0  0  0  0  0
   -0.9077   -0.0376    3.5809 H   0  0  0  0  0  0  0  0  0  0  0  0
   -0.3789    2.1508    2.4025 H   0  0  0  0  0  0  0  0  0  0  0  0
   -3.3837    1.8562    1.6678 H   0  0  0  0  0  0  0  0  0  0  0  0
   -2.3171    3.4026    1.5904 H   0  0  0  0  0  0  0  0  0  0  0  0
   -4.8463   -1.1273    1.1423 H   0  0  0  0  0  0  0  0  0  0  0  0
   -6.6992    0.5942    1.0752 H   0  0  0  0  0  0  0  0  0  0  0  0
   -6.5875    2.4717   -0.5793 H   0  0  0  0  0  0  0  0  0  0  0  0
   -4.6661    2.6325   -2.1779 H   0  0  0  0  0  0  0  0  0  0  0  0
   -2.8196    0.9068   -2.1054 H   0  0  0  0  0  0  0  0  0  0  0  0
    1.7247   -1.4687    2.9613 H   0  0  0  0  0  0  0  0  0  0  0  0
    2.7773   -0.0284    2.4736 H   0  0  0  0  0  0  0  0  0  0  0  0
    3.4213    3.5835   -2.4218 H   0  0  0  0  0  0  0  0  0  0  0  0
    4.2265    4.8278   -0.3862 H   0  0  0  0  0  0  0  0  0  0  0  0
    3.4225    4.1260    1.8984 H   0  0  0  0  0  0  0  0  0  0  0  0
    1.8993    2.1608    2.1114 H   0  0  0  0  0  0  0  0  0  0  0  0
    0.9489    1.1570   -2.3079 H   0  0  0  0  0  0  0  0  0  0  0  0
  1 20  1  1  0  0  0
  1  5  1  0  0  0  0
  2  1  1  0  0  0  0
  2  3  1  0  0  0  0
  3  4  1  0  0  0  0
  4 27  1  1  0  0  0
  4  7  1  0  0  0  0
  5  4  1  0  0  0  0
  5 19  1  6  0  0  0
  6  2  2  0  0  0  0
  7 28  1  0  0  0  0
  7 29  1  0  0  0  0
  8 30  1  0  0  0  0
  8  7  1  0  0  0  0
  9  8  2  0  0  0  0
 10  3  1  0  0  0  0
 10 11  2  0  0  0  0
 12 10  2  0  0  0  0
 13 10  1  0  0  0  0
 13 14  1  0  0  0  0
 14 33  1  0  0  0  0
 15 14  2  0  0  0  0
 15 34  1  0  0  0  0
 16 15  1  0  0  0  0
 17 18  1  0  0  0  0
 17 16  2  0  0  0  0
 18 13  2  0  0  0  0
 19 39  1  0  0  0  0
 19 38  1  0  0  0  0
 20 25  1  0  0  0  0
 21 20  2  0  0  0  0
 22 21  1  0  0  0  0
 22 23  2  0  0  0  0
 23 24  1  0  0  0  0
 24 25  2  0  0  0  0
 24 42  1  0  0  0  0
 25 43  1  0  0  0  0
 26 44  1  0  0  0  0
 26 21  1  0  0  0  0
 31  9  1  0  0  0  0
 32  9  1  0  0  0  0
 35 16  1  0  0  0  0
 36 17  1  0  0  0  0
 37 18  1  0  0  0  0
 40 22  1  0  0  0  0
 41 23  1  0  0  0  0
M  END
