8
q = -1.0, confidence = 0.0

 16 17  0  0  0  0  0  0  0  0999 V2000
   -1.6812    0.1740    0.0000 C   0  0  0  0  0  0  0  0  0  0  0  0
   -3.4123   -1.5905   -0.0001 C   0  0  0  0  0  0  0  0  0  0  0  0
   -4.4751   -1.8787   -0.0001 H   0  0  0  0  0  0  0  0  0  0  0  0
   -2.2108    2.4267    0.0000 C   0  0  0  0  0  0  0  0  0  0  0  0
   -1.8513    3.4714    0.0000 H   0  0  0  0  0  0  0  0  0  0  0  0
   -1.0427   -2.1818    0.0000 C   0  0  0  0  0  0  0  0  0  0  0  0
   -0.2779   -2.9734    0.0001 H   0  0  0  0  0  0  0  0  0  0  0  0
   -0.6744   -0.8417    0.0001 C   0  0  0  0  0  3  0  0  0  0  0  0
   -4.0357    0.8421   -0.0000 C   0  0  0  0  0  0  0  0  0  0  0  0
   -5.1082    0.5904   -0.0001 H   0  0  0  0  0  0  0  0  0  0  0  0
   -1.2826    1.4823    0.0000 N   0  0  0  0  0  0  0  0  0  0  0  0
   -2.4170   -2.5556   -0.0000 C   0  0  0  0  0  0  0  0  0  0  0  0
   -2.6841   -3.6233   -0.0000 H   0  0  0  0  0  0  0  0  0  0  0  0
   -3.0726   -0.2069   -0.0000 C   0  0  0  0  0  0  0  0  0  0  0  0
   -3.6090    2.1600   -0.0000 C   0  0  0  0  0  0  0  0  0  0  0  0
   -4.3260    2.9939   -0.0000 H   0  0  0  0  0  0  0  0  0  0  0  0
  1 11  1  0  0  0  0
  1  8  2  0  0  0  0
  2 14  2  0  0  0  0
  2 12  1  0  0  0  0
  3  2  1  0  0  0  0
  4  5  1  0  0  0  0
  4 11  2  0  0  0  0
  6  8  1  0  0  0  0
  6  7  1  0  0  0  0
  9 14  1  0  0  0  0
  9 15  2  0  0  0  0
 10  9  1  0  0  0  0
 12  6  2  0  0  0  0
 13 12  1  0  0  0  0
 14  1  1  0  0  0  0
 15  4  1  0  0  0  0
 16 15  1  0  0  0  0
M  END
