10
q = -1.0

 24 25  0  0  0  0  0  0  0  0999 V2000
    0.7345   -2.1754    2.3850 N   0  0  0  0  0  0  0  0  0  0  0  0
    1.2847   -1.7504    3.6578 C   0  0  0  0  0  0  0  0  0  0  0  0
    1.4076   -0.6484    3.6877 H   0  0  0  0  0  0  0  0  0  0  0  0
    2.2905   -2.1928    3.7874 H   0  0  0  0  0  0  0  0  0  0  0  0
    0.6517   -2.0485    4.5279 H   0  0  0  0  0  0  0  0  0  0  0  0
    1.1199   -3.4639    1.8421 C   0  0  0  0  0  0  0  0  0  0  0  0
    1.1368   -3.4251    0.7331 H   0  0  0  0  0  0  0  0  0  0  0  0
    0.4351   -4.2897    2.1510 H   0  0  0  0  0  0  0  0  0  0  0  0
    2.1418   -3.7146    2.1841 H   0  0  0  0  0  0  0  0  0  0  0  0
   -1.2735   -2.1334    0.8996 C   0  0  0  0  0  3  0  0  0  0  0  0
   -1.0980   -3.0538    0.3366 H   0  0  0  0  0  0  0  0  0  0  0  0
   -0.4475   -1.6172    1.9515 C   0  0  0  0  0  0  0  0  0  0  0  0
   -1.0349   -0.3940    2.4077 C   0  0  0  0  0  0  0  0  0  0  0  0
   -0.6304    0.2700    3.1778 H   0  0  0  0  0  0  0  0  0  0  0  0
   -2.3393   -0.2707    1.8100 C   0  0  0  0  0  0  0  0  0  0  0  0
   -3.3970    0.6630    1.9866 C   0  0  0  0  0  0  0  0  0  0  0  0
   -3.2785    1.5052    2.6845 H   0  0  0  0  0  0  0  0  0  0  0  0
   -4.5921    0.4723    1.3003 C   0  0  0  0  0  0  0  0  0  0  0  0
   -5.4230    1.1789    1.4478 H   0  0  0  0  0  0  0  0  0  0  0  0
   -4.7695   -0.6410    0.4311 C   0  0  0  0  0  0  0  0  0  0  0  0
   -5.7389   -0.7854   -0.0698 H   0  0  0  0  0  0  0  0  0  0  0  0
   -3.7404   -1.5519    0.2154 C   0  0  0  0  0  0  0  0  0  0  0  0
   -3.8886   -2.4178   -0.4454 H   0  0  0  0  0  0  0  0  0  0  0  0
   -2.5010   -1.3722    0.8880 C   0  0  0  0  0  0  0  0  0  0  0  0
  1  2  1  0  0  0  0
  2  3  1  0  0  0  0
  2  4  1  0  0  0  0
  2  5  1  0  0  0  0
  6  8  1  0  0  0  0
  6  9  1  0  0  0  0
  6  1  1  0  0  0  0
  7  6  1  0  0  0  0
 10 12  1  0  0  0  0
 11 10  1  0  0  0  0
 12  1  1  0  0  0  0
 12 13  2  0  0  0  0
 13 14  1  0  0  0  0
 15 16  1  0  0  0  0
 15 13  1  0  0  0  0
 16 17  1  0  0  0  0
 18 19  1  0  0  0  0
 18 16  2  0  0  0  0
 20 18  1  0  0  0  0
 21 20  1  0  0  0  0
 22 20  2  0  0  0  0
 22 24  1  0  0  0  0
 23 22  1  0  0  0  0
 24 10  1  0  0  0  0
 24 15  2  0  0  0  0
M  END
