2
q = -1.0

 26 27  0  0  1  0  0  0  0  0999 V2000
    0.2864   -2.2072    1.4098 O   0  0  0  0  0  0  0  0  0  0  0  0
    0.2004   -0.9028   -1.8965 C   0  0  0  0  0  3  0  0  0  0  0  0
   -0.5087    0.3131   -2.0991 C   0  0  0  0  0  3  0  0  0  0  0  0
   -1.8559    0.1056   -1.6435 C   0  0  0  0  0  0  0  0  0  0  0  0
   -3.0207    0.9202   -1.6698 C   0  0  0  0  0  0  0  0  0  0  0  0
   -4.2177    0.4133   -1.1741 C   0  0  0  0  0  0  0  0  0  0  0  0
   -4.2947   -0.9024   -0.6345 C   0  0  0  0  0  0  0  0  0  0  0  0
   -3.1741   -1.7234   -0.5878 C   0  0  0  0  0  0  0  0  0  0  0  0
   -1.9354   -1.2393   -1.0915 C   0  0  0  0  0  0  0  0  0  0  0  0
   -0.6307   -1.8404   -1.2255 C   0  0  2  0  0  3  0  0  0  0  0  0
   -0.2080   -3.1970   -0.7407 C   0  0  0  0  0  0  0  0  0  0  0  0
   -0.3446   -3.3346    0.7696 C   0  0  0  0  0  0  0  0  0  0  0  0
    0.5037   -2.4707    2.7993 C   0  0  0  0  0  0  0  0  0  0  0  0
    1.2479   -1.0852   -2.1669 H   0  0  0  0  0  0  0  0  0  0  0  0
   -0.1295    1.2056   -2.6114 H   0  0  0  0  0  0  0  0  0  0  0  0
   -2.9729    1.9333   -2.0981 H   0  0  0  0  0  0  0  0  0  0  0  0
   -5.1264    1.0341   -1.2042 H   0  0  0  0  0  0  0  0  0  0  0  0
   -5.2583   -1.2722   -0.2537 H   0  0  0  0  0  0  0  0  0  0  0  0
   -3.2521   -2.7420   -0.1785 H   0  0  0  0  0  0  0  0  0  0  0  0
   -0.8136   -4.0057   -1.2078 H   0  0  0  0  0  0  0  0  0  0  0  0
    0.8477   -3.3740   -1.0307 H   0  0  0  0  0  0  0  0  0  0  0  0
   -1.4103   -3.3643    1.0909 H   0  0  0  0  0  0  0  0  0  0  0  0
    0.1460   -4.2668    1.1297 H   0  0  0  0  0  0  0  0  0  0  0  0
    1.2600   -3.2784    2.9137 H   0  0  0  0  0  0  0  0  0  0  0  0
    0.8650   -1.5433    3.2712 H   0  0  0  0  0  0  0  0  0  0  0  0
   -0.4458   -2.7616    3.2941 H   0  0  0  0  0  0  0  0  0  0  0  0
  1 13  1  0  0  0  0
  2 10  1  0  0  0  0
  3  2  1  0  0  0  0
  3  4  1  0  0  0  0
  4  9  1  0  0  0  0
  5  4  2  0  0  0  0
  5  6  1  0  0  0  0
  6  7  2  0  0  0  0
  7  8  1  0  0  0  0
  7 18  1  0  0  0  0
  8 19  1  0  0  0  0
  9  8  2  0  0  0  0
 10  9  1  0  0  0  0
 10 11  1  1  0  0  0
 11 12  1  0  0  0  0
 12 22  1  0  0  0  0
 12 23  1  0  0  0  0
 12  1  1  0  0  0  0
 13 24  1  0  0  0  0
 13 25  1  0  0  0  0
 13 26  1  0  0  0  0
 14  2  1  0  0  0  0
 15  3  1  0  0  0  0
 16  5  1  0  0  0  0
 17  6  1  0  0  0  0
 20 11  1  0  0  0  0
 21 11  1  0  0  0  0
M  END
