37
q = -2.0, confidence = 0.92

 43 48  0  0  1  0  0  0  0  0999 V2000
    0.0154    1.4898   -0.8689 Se  0  0  0  0  0  1  0  0  0  0  0  0
    1.9763    3.4577   -0.3163 O   0  0  0  0  0  0  0  0  0  0  0  0
    2.0930    4.7365    1.5557 O   0  0  0  0  0  0  0  0  0  0  0  0
    0.0784   -2.5783    2.6464 O   0  0  0  0  0  0  0  0  0  0  0  0
   -1.8697   -1.4459    2.7425 O   0  0  0  0  0  0  0  0  0  0  0  0
   -1.9532    1.2232   -0.8381 C   0  0  2  0  0  0  0  0  0  0  0  0
   -2.4908   -0.3139   -0.5445 C   0  0  2  0  0  0  0  0  0  0  0  0
   -2.3338    0.8046    0.7828 B   0  0  0  0  0  2  0  0  0  0  0  0
   -2.8058    2.3885    0.0640 B   0  0  2  0  0  0  0  0  0  0  0  0
   -2.1917    3.3487    0.4563 H   0  0  0  0  0  0  0  0  0  0  0  0
   -3.0958    2.1878   -1.6736 B   0  0  1  0  0  0  0  0  0  0  0  0
   -2.6771    3.0098   -2.4509 H   0  0  0  0  0  0  0  0  0  0  0  0
   -2.8438    0.4694   -2.0640 B   0  0  2  0  0  0  0  0  0  0  0  0
   -2.2704    0.0660   -3.0414 H   0  0  0  0  0  0  0  0  0  0  0  0
   -4.4903    1.1074   -1.8620 B   0  0  1  0  0  0  0  0  0  0  0  0
   -5.2275    1.1781   -2.8164 H   0  0  0  0  0  0  0  0  0  0  0  0
   -4.0604   -0.4772   -1.1572 B   0  0  2  0  0  0  0  0  0  0  0  0
   -4.3769   -1.5585   -1.5861 H   0  0  0  0  0  0  0  0  0  0  0  0
   -3.7624   -0.2619    0.5936 B   0  0  1  0  0  0  0  0  0  0  0  0
   -3.9188   -1.2047    1.3180 H   0  0  0  0  0  0  0  0  0  0  0  0
   -3.9930    1.4573    0.9865 B   0  0  0  0  0  0  0  0  0  0  0  0
   -4.3574    1.8136    2.0828 H   0  0  0  0  0  0  0  0  0  0  0  0
   -4.4628    2.3055   -0.5298 B   0  0  0  0  0  0  0  0  0  0  0  0
   -5.1657    3.2887   -0.5218 H   0  0  0  0  0  0  0  0  0  0  0  0
   -5.0542    0.6594   -0.2153 B   0  0  1  0  0  0  0  0  0  0  0  0
   -6.2150    0.4075    0.0093 H   0  0  0  0  0  0  0  0  0  0  0  0
   -0.9838    0.8959    1.6832 C   0  0  2  0  0  0  0  0  0  0  0  0
   -1.2610    1.2274    2.7063 H   0  0  0  0  0  0  0  0  0  0  0  0
   -0.1164    1.9405    1.0314 C   0  0  0  0  0  0  0  0  0  0  0  0
    0.6439    2.9024    1.6023 C   0  0  0  0  0  0  0  0  0  0  0  0
    0.5513    3.1023    2.6809 H   0  0  0  0  0  0  0  0  0  0  0  0
    1.6129    3.6984    0.8348 C   0  0  0  0  0  0  0  0  0  0  0  0
    3.0620    5.5550    0.8902 C   0  0  0  0  0  0  0  0  0  0  0  0
    3.3324    6.3512    1.6058 H   0  0  0  0  0  0  0  0  0  0  0  0
    2.6394    5.9930   -0.0362 H   0  0  0  0  0  0  0  0  0  0  0  0
    3.9579    4.9614    0.6157 H   0  0  0  0  0  0  0  0  0  0  0  0
   -0.0279   -0.3289    1.7376 C   0  0  0  0  0  3  0  0  0  0  0  0
    0.8575   -0.0387    2.3431 H   0  0  0  0  0  0  0  0  0  0  0  0
   -0.5676   -1.5675    2.3895 C   0  0  0  0  0  0  0  0  0  0  0  0
   -2.4821   -2.6228    3.2782 C   0  0  0  0  0  0  0  0  0  0  0  0
   -3.5083   -2.3316    3.5642 H   0  0  0  0  0  0  0  0  0  0  0  0
   -1.9185   -2.9965    4.1557 H   0  0  0  0  0  0  0  0  0  0  0  0
   -2.5111   -3.4200    2.5080 H   0  0  0  0  0  0  0  0  0  0  0  0
  1 29  1  0  0  0  0
  2 32  2  0  0  0  0
  5 40  1  0  0  0  0
  6  7  1  0  0  0  0
  6  9  1  0  0  0  0
  7 19  1  0  0  0  0
  7  8  1  6  0  0  0
  8 27  1  0  0  0  0
  9 10  1  1  0  0  0
  9 21  1  0  0  0  0
 11 12  1  6  0  0  0
 11  6  1  0  0  0  0
 13 14  1  6  0  0  0
 13 15  1  0  0  0  0
 13 11  1  0  0  0  0
 13  6  1  0  0  0  0
 15 11  1  0  0  0  0
 15 17  1  0  0  0  0
 16 15  1  0  0  0  0
 17 18  1  6  0  0  0
 17  7  1  0  0  0  0
 17 25  1  0  0  0  0
 19 21  1  0  0  0  0
 19 20  1  1  0  0  0
 21 22  1  0  0  0  0
 23 24  1  0  0  0  0
 23 25  1  0  0  0  0
 23  9  1  0  0  0  0
 25 26  1  1  0  0  0
 25 19  1  0  0  0  0
 27 37  1  0  0  0  0
 27 28  1  1  0  0  0
 29 30  2  0  0  0  0
 29 27  1  0  0  0  0
 30 31  1  0  0  0  0
 32  3  1  0  0  0  0
 32 30  1  0  0  0  0
 33  3  1  0  0  0  0
 33 34  1  0  0  0  0
 35 33  1  0  0  0  0
 36 33  1  0  0  0  0
 37 38  1  0  0  0  0
 37 39  1  0  0  0  0
 39  4  2  0  0  0  0
 39  5  1  0  0  0  0
 40 41  1  0  0  0  0
 40 42  1  0  0  0  0
 43 40  1  0  0  0  0
M  END
