65
q = 0.0, confidence = 0.956

 66 67  0  0  0  0  0  0  0  0999 V2000
    2.1649   -0.5506   -0.3752 P   0  0  0  0  0  0  0  0  0  0  0  0
    0.3110    1.3293    0.6623 C   0  0  0  0  0  3  0  0  0  0  0  0
   -0.3325    1.6479    1.5045 H   0  0  0  0  0  0  0  0  0  0  0  0
   -2.1649   -0.5506    0.3752 P   0  0  0  0  0  0  0  0  0  0  0  0
   -1.7097    1.8323   -0.7591 C   0  0  0  0  0  0  0  0  0  0  0  0
   -4.0360    1.6570    0.0065 C   0  0  0  0  0  0  0  0  0  0  0  0
   -4.8241    1.1115    0.5481 H   0  0  0  0  0  0  0  0  0  0  0  0
   -2.7401    1.1192   -0.0957 C   0  0  0  0  0  0  0  0  0  0  0  0
   -3.3332    3.5650   -1.3252 C   0  0  0  0  0  0  0  0  0  0  0  0
   -3.5706    4.5179   -1.8233 H   0  0  0  0  0  0  0  0  0  0  0  0
   -2.0314    3.0487   -1.3978 C   0  0  0  0  0  0  0  0  0  0  0  0
   -1.2434    3.6027   -1.9320 H   0  0  0  0  0  0  0  0  0  0  0  0
    4.3322    2.8853    0.6051 C   0  0  0  0  0  0  0  0  0  0  0  0
    5.3474    3.3047    0.5374 H   0  0  0  0  0  0  0  0  0  0  0  0
   -4.3321    2.8853   -0.6050 C   0  0  0  0  0  0  0  0  0  0  0  0
   -5.3473    3.3048   -0.5373 H   0  0  0  0  0  0  0  0  0  0  0  0
    2.7401    1.1192    0.0957 C   0  0  0  0  0  0  0  0  0  0  0  0
    2.0315    3.0487    1.3978 C   0  0  0  0  0  0  0  0  0  0  0  0
    1.2434    3.6026    1.9319 H   0  0  0  0  0  0  0  0  0  0  0  0
   -3.0724   -1.7045   -0.7956 C   0  0  0  0  0  0  0  0  0  0  0  0
   -2.6443   -2.6916   -0.5154 H   0  0  0  0  0  0  0  0  0  0  0  0
   -2.8555   -0.9051    2.0786 C   0  0  0  0  0  0  0  0  0  0  0  0
   -3.9447   -0.6815    2.0263 H   0  0  0  0  0  0  0  0  0  0  0  0
   -2.6339   -1.3908   -2.2305 C   0  0  0  0  0  0  0  0  0  0  0  0
   -3.0887   -2.1162   -2.9369 H   0  0  0  0  0  0  0  0  0  0  0  0
   -1.5320   -1.4583   -2.3281 H   0  0  0  0  0  0  0  0  0  0  0  0
   -2.9479   -0.3718   -2.5381 H   0  0  0  0  0  0  0  0  0  0  0  0
   -4.5934   -1.7190   -0.6417 C   0  0  0  0  0  0  0  0  0  0  0  0
   -5.0321   -2.4851   -1.3153 H   0  0  0  0  0  0  0  0  0  0  0  0
   -5.0383   -0.7431   -0.9244 H   0  0  0  0  0  0  0  0  0  0  0  0
   -4.9195   -1.9631    0.3891 H   0  0  0  0  0  0  0  0  0  0  0  0
   -2.6548   -2.3771    2.4579 C   0  0  0  0  0  0  0  0  0  0  0  0
   -3.2219   -3.0619    1.7971 H   0  0  0  0  0  0  0  0  0  0  0  0
   -2.9985   -2.5517    3.4988 H   0  0  0  0  0  0  0  0  0  0  0  0
   -1.5860   -2.6629    2.3853 H   0  0  0  0  0  0  0  0  0  0  0  0
   -2.2028    0.0435    3.0907 C   0  0  0  0  0  0  0  0  0  0  0  0
   -2.6302   -0.1181    4.1021 H   0  0  0  0  0  0  0  0  0  0  0  0
   -2.3594    1.1072    2.8203 H   0  0  0  0  0  0  0  0  0  0  0  0
   -1.1095   -0.1369    3.1479 H   0  0  0  0  0  0  0  0  0  0  0  0
    2.8556   -0.9051   -2.0786 C   0  0  0  0  0  0  0  0  0  0  0  0
    3.9448   -0.6816   -2.0262 H   0  0  0  0  0  0  0  0  0  0  0  0
    3.0723   -1.7046    0.7956 C   0  0  0  0  0  0  0  0  0  0  0  0
    2.6443   -2.6917    0.5153 H   0  0  0  0  0  0  0  0  0  0  0  0
    2.6337   -1.3909    2.2305 C   0  0  0  0  0  0  0  0  0  0  0  0
    1.5318   -1.4585    2.3280 H   0  0  0  0  0  0  0  0  0  0  0  0
    2.9476   -0.3719    2.5382 H   0  0  0  0  0  0  0  0  0  0  0  0
    3.0884   -2.1163    2.9369 H   0  0  0  0  0  0  0  0  0  0  0  0
    4.5934   -1.7189    0.6419 C   0  0  0  0  0  0  0  0  0  0  0  0
    5.0321   -2.4850    1.3155 H   0  0  0  0  0  0  0  0  0  0  0  0
    5.0381   -0.7431    0.9247 H   0  0  0  0  0  0  0  0  0  0  0  0
    4.9196   -1.9630   -0.3889 H   0  0  0  0  0  0  0  0  0  0  0  0
    2.6548   -2.3771   -2.4580 C   0  0  0  0  0  0  0  0  0  0  0  0
    3.2219   -3.0620   -1.7972 H   0  0  0  0  0  0  0  0  0  0  0  0
    2.9986   -2.5517   -3.4988 H   0  0  0  0  0  0  0  0  0  0  0  0
    1.5861   -2.6629   -2.3854 H   0  0  0  0  0  0  0  0  0  0  0  0
    2.2029    0.0435   -3.0907 C   0  0  0  0  0  0  0  0  0  0  0  0
    2.6304   -0.1181   -4.1021 H   0  0  0  0  0  0  0  0  0  0  0  0
    2.3596    1.1072   -2.8203 H   0  0  0  0  0  0  0  0  0  0  0  0
    1.1096   -0.1368   -3.1479 H   0  0  0  0  0  0  0  0  0  0  0  0
    4.0360    1.6570   -0.0064 C   0  0  0  0  0  0  0  0  0  0  0  0
    4.8241    1.1114   -0.5481 H   0  0  0  0  0  0  0  0  0  0  0  0
    3.3332    3.5650    1.3253 C   0  0  0  0  0  0  0  0  0  0  0  0
    3.5706    4.5178    1.8233 H   0  0  0  0  0  0  0  0  0  0  0  0
    1.7098    1.8323    0.7591 C   0  0  0  0  0  0  0  0  0  0  0  0
   -0.3110    1.3293   -0.6623 C   0  0  0  0  0  3  0  0  0  0  0  0
    0.3325    1.6479   -1.5045 H   0  0  0  0  0  0  0  0  0  0  0  0
  1 17  1  0  0  0  0
  1 42  1  0  0  0  0
  2 64  1  0  0  0  0
  2  3  1  0  0  0  0
  4 22  1  0  0  0  0
  5 65  1  0  0  0  0
  5  8  1  0  0  0  0
  6  7  1  0  0  0  0
  8  6  2  0  0  0  0
  8  4  1  0  0  0  0
  9 15  2  0  0  0  0
 10  9  1  0  0  0  0
 11  9  1  0  0  0  0
 11  5  2  0  0  0  0
 12 11  1  0  0  0  0
 13 62  1  0  0  0  0
 14 13  1  0  0  0  0
 15 16  1  0  0  0  0
 15  6  1  0  0  0  0
 17 64  2  0  0  0  0
 18 19  1  0  0  0  0
 20 28  1  0  0  0  0
 20 21  1  0  0  0  0
 20  4  1  0  0  0  0
 22 32  1  0  0  0  0
 22 36  1  0  0  0  0
 23 22  1  0  0  0  0
 24 20  1  0  0  0  0
 25 24  1  0  0  0  0
 26 24  1  0  0  0  0
 27 24  1  0  0  0  0
 28 31  1  0  0  0  0
 29 28  1  0  0  0  0
 30 28  1  0  0  0  0
 32 34  1  0  0  0  0
 33 32  1  0  0  0  0
 35 32  1  0  0  0  0
 36 39  1  0  0  0  0
 36 37  1  0  0  0  0
 38 36  1  0  0  0  0
 40 41  1  0  0  0  0
 40  1  1  0  0  0  0
 42 44  1  0  0  0  0
 43 42  1  0  0  0  0
 44 45  1  0  0  0  0
 44 46  1  0  0  0  0
 44 47  1  0  0  0  0
 48 42  1  0  0  0  0
 48 50  1  0  0  0  0
 48 49  1  0  0  0  0
 51 48  1  0  0  0  0
 52 55  1  0  0  0  0
 52 40  1  0  0  0  0
 52 53  1  0  0  0  0
 54 52  1  0  0  0  0
 56 58  1  0  0  0  0
 56 40  1  0  0  0  0
 57 56  1  0  0  0  0
 59 56  1  0  0  0  0
 60 17  1  0  0  0  0
 60 13  2  0  0  0  0
 61 60  1  0  0  0  0
 62 18  2  0  0  0  0
 62 63  1  0  0  0  0
 64 18  1  0  0  0  0
 65  2  1  0  0  0  0
 66 65  1  0  0  0  0
M  END
