4
q = 0.0, confidence = 0.994

 28 29  0  0  0  0  0  0  0  0999 V2000
    2.6063    0.8648   -0.0185 S   0  0  0  0  0  0  0  0  0  0  0  0
    0.1243    1.9751   -0.0506 O   0  0  0  0  0  0  0  0  0  0  0  0
    5.8798    0.4635   -0.0112 N   0  0  0  0  0  0  0  0  0  0  0  0
   -0.1633    0.6641   -0.0225 C   0  0  0  0  0  2  0  0  0  0  0  0
    1.0871   -0.0494   -0.0083 C   0  0  0  0  0  0  0  0  0  0  0  0
    1.3718   -1.4257    0.0071 C   0  0  0  0  0  0  0  0  0  0  0  0
    0.5880   -2.1912    0.0118 H   0  0  0  0  0  0  0  0  0  0  0  0
    2.7394   -1.7281    0.0117 C   0  0  0  0  0  0  0  0  0  0  0  0
    3.1330   -2.7521    0.0221 H   0  0  0  0  0  0  0  0  0  0  0  0
    3.5745   -0.5909    0.0007 C   0  0  0  0  0  0  0  0  0  0  0  0
    5.0149   -0.6341    0.0061 C   0  0  0  0  0  0  0  0  0  0  0  0
    5.8241   -1.7914    0.0296 C   0  0  0  0  0  0  0  0  0  0  0  0
    5.4506   -2.8203    0.0478 H   0  0  0  0  0  0  0  0  0  0  0  0
    7.1747   -1.3826    0.0261 C   0  0  0  0  0  0  0  0  0  0  0  0
    8.0608   -2.0259    0.0407 H   0  0  0  0  0  0  0  0  0  0  0  0
    7.1764    0.0131    0.0008 C   0  0  0  0  0  0  0  0  0  0  0  0
    8.0089    0.7256   -0.0096 H   0  0  0  0  0  0  0  0  0  0  0  0
    5.5147    1.8678   -0.0382 C   0  0  0  0  0  0  0  0  0  0  0  0
    6.4394    2.4729   -0.0507 H   0  0  0  0  0  0  0  0  0  0  0  0
    4.9221    2.1466    0.8564 H   0  0  0  0  0  0  0  0  0  0  0  0
    4.9211    2.1114   -0.9424 H   0  0  0  0  0  0  0  0  0  0  0  0
   -0.8747    3.0070   -0.1069 C   0  0  0  0  0  0  0  0  0  0  0  0
   -1.6539    2.7979    0.6522 H   0  0  0  0  0  0  0  0  0  0  0  0
   -1.3556    2.9752   -1.1060 H   0  0  0  0  0  0  0  0  0  0  0  0
   -0.1812    4.3317    0.1399 C   0  0  0  0  0  0  0  0  0  0  0  0
   -0.9190    5.1561    0.0859 H   0  0  0  0  0  0  0  0  0  0  0  0
    0.6037    4.5176   -0.6197 H   0  0  0  0  0  0  0  0  0  0  0  0
    0.2901    4.3519    1.1423 H   0  0  0  0  0  0  0  0  0  0  0  0
  1  5  1  0  0  0  0
  1 10  1  0  0  0  0
  2  4  1  0  0  0  0
  3 16  1  0  0  0  0
  3 11  1  0  0  0  0
  4  5  1  0  0  0  0
  5  6  2  0  0  0  0
  6  8  1  0  0  0  0
  6  7  1  0  0  0  0
  8  9  1  0  0  0  0
 10 11  1  0  0  0  0
 10  8  2  0  0  0  0
 11 12  2  0  0  0  0
 12 13  1  0  0  0  0
 14 12  1  0  0  0  0
 14 15  1  0  0  0  0
 16 14  2  0  0  0  0
 17 16  1  0  0  0  0
 18  3  1  0  0  0  0
 18 20  1  0  0  0  0
 19 18  1  0  0  0  0
 21 18  1  0  0  0  0
 22  2  1  0  0  0  0
 22 25  1  0  0  0  0
 22 23  1  0  0  0  0
 24 22  1  0  0  0  0
 25 28  1  0  0  0  0
 26 25  1  0  0  0  0
 27 25  1  0  0  0  0
M  END
