4
q = 0.0, confidence = 0.986

  9  8  0  0  0  0  0  0  0  0999 V2000
    3.3960    2.0338   -0.0000 F   0  0  0  0  0  0  0  0  0  0  0  0
    2.7746   -1.4663    0.0000 F   0  0  0  0  0  0  0  0  0  0  0  0
    1.4191    0.9015   -0.0000 N   0  0  0  0  0  2  0  0  0  0  0  0
    0.2671    0.5498   -0.0000 C   0  0  0  0  0  1  0  0  0  0  0  0
    2.7648    0.8561   -0.0000 C   0  0  0  0  0  0  0  0  0  0  0  0
    3.4799   -0.3156    0.0000 C   0  0  0  0  0  0  0  0  0  0  0  0
    4.8865   -0.4006    0.0000 C   0  0  0  0  0  0  0  0  0  0  0  0
    6.1103   -0.4884    0.0000 C   0  0  0  0  0  0  0  0  0  0  0  0
    7.1895   -0.5620   -0.0002 H   0  0  0  0  0  0  0  0  0  0  0  0
  3  4  1  0  0  0  0
  3  5  1  0  0  0  0
  5  1  1  0  0  0  0
  5  6  2  0  0  0  0
  6  2  1  0  0  0  0
  6  7  1  0  0  0  0
  8  7  3  0  0  0  0
  9  8  1  0  0  0  0
M  END
