5
q = -1.0

 31 30  0  0  0  0  0  0  0  0999 V2000
   -3.5638   -0.7890    0.0815 P   0  0  0  0  0  4  0  0  0  0  0  0
   -2.4598    0.0665    1.2820 C   0  0  0  0  0  0  0  0  0  0  0  0
   -3.0478    0.9184    1.6915 H   0  0  0  0  0  0  0  0  0  0  0  0
   -2.3148   -0.6635    2.1092 H   0  0  0  0  0  0  0  0  0  0  0  0
   -1.1890    0.5227    0.6748 C   0  0  0  0  0  3  0  0  0  0  0  0
   -0.5635    1.5884    0.2782 C   0  0  0  0  0  3  0  0  0  0  0  0
   -0.6162    3.0815    0.1358 C   0  0  0  0  0  0  0  0  0  0  0  0
   -1.2263    3.4127   -1.2476 C   0  0  0  0  0  0  0  0  0  0  0  0
   -0.6114    3.0095   -2.0741 H   0  0  0  0  0  0  0  0  0  0  0  0
   -1.2877    4.5125   -1.3746 H   0  0  0  0  0  0  0  0  0  0  0  0
   -2.2518    3.0020   -1.3415 H   0  0  0  0  0  0  0  0  0  0  0  0
   -1.5221    3.6503    1.2499 C   0  0  0  0  0  0  0  0  0  0  0  0
   -1.1264    3.4018    2.2550 H   0  0  0  0  0  0  0  0  0  0  0  0
   -2.5551    3.2521    1.1737 H   0  0  0  0  0  0  0  0  0  0  0  0
   -1.5861    4.7543    1.1703 H   0  0  0  0  0  0  0  0  0  0  0  0
    0.7891    3.7050    0.2361 C   0  0  0  0  0  0  0  0  0  0  0  0
    1.4591    3.3100   -0.5516 H   0  0  0  0  0  0  0  0  0  0  0  0
    1.2484    3.4967    1.2215 H   0  0  0  0  0  0  0  0  0  0  0  0
    0.7287    4.8048    0.1145 H   0  0  0  0  0  0  0  0  0  0  0  0
   -3.5224    0.0803   -1.5019 C   0  0  0  0  0  0  0  0  0  0  0  0
   -4.1125   -0.4747   -2.2563 H   0  0  0  0  0  0  0  0  0  0  0  0
   -2.4690    0.1620   -1.8330 H   0  0  0  0  0  0  0  0  0  0  0  0
   -3.9432    1.0957   -1.3677 H   0  0  0  0  0  0  0  0  0  0  0  0
   -5.2529   -0.7509    0.7475 C   0  0  0  0  0  0  0  0  0  0  0  0
   -5.9413   -1.2827    0.0615 H   0  0  0  0  0  0  0  0  0  0  0  0
   -5.5894    0.2982    0.8591 H   0  0  0  0  0  0  0  0  0  0  0  0
   -5.2746   -1.2472    1.7377 H   0  0  0  0  0  0  0  0  0  0  0  0
   -3.0857   -2.5243   -0.1119 C   0  0  0  0  0  0  0  0  0  0  0  0
   -3.8114   -3.0321   -0.7773 H   0  0  0  0  0  0  0  0  0  0  0  0
   -3.0954   -3.0127    0.8820 H   0  0  0  0  0  0  0  0  0  0  0  0
   -2.0787   -2.5915   -0.5624 H   0  0  0  0  0  0  0  0  0  0  0  0
  1 24  1  0  0  0  0
  1  2  1  0  0  0  0
  2  3  1  0  0  0  0
  2  4  1  0  0  0  0
  5  2  1  0  0  0  0
  6  5  2  0  0  0  0
  7 16  1  0  0  0  0
  7  6  1  0  0  0  0
  7 12  1  0  0  0  0
  8  7  1  0  0  0  0
  9  8  1  0  0  0  0
 10  8  1  0  0  0  0
 11  8  1  0  0  0  0
 12 13  1  0  0  0  0
 14 12  1  0  0  0  0
 15 12  1  0  0  0  0
 16 18  1  0  0  0  0
 17 16  1  0  0  0  0
 19 16  1  0  0  0  0
 20 23  1  0  0  0  0
 20  1  1  0  0  0  0
 21 20  1  0  0  0  0
 22 20  1  0  0  0  0
 24 26  1  0  0  0  0
 24 27  1  0  0  0  0
 25 24  1  0  0  0  0
 28  1  1  0  0  0  0
 28 30  1  0  0  0  0
 29 28  1  0  0  0  0
 31 28  1  0  0  0  0
M  END
