4
q = 0.0, confidence = 0.992

 11 11  0  0  0  0  0  0  0  0999 V2000
    1.7446    1.6971    0.0001 S   0  0  0  0  0  0  0  0  0  0  0  0
    3.3332    0.9955    0.0001 C   0  0  0  0  0  0  0  0  0  0  0  0
    4.2376    1.6150    0.0000 H   0  0  0  0  0  0  0  0  0  0  0  0
    0.9550    0.1665    0.0000 C   0  0  0  0  0  2  0  0  0  0  0  0
    3.2584   -0.3740   -0.0000 C   0  0  0  0  0  0  0  0  0  0  0  0
    4.3596   -1.3807    0.0000 C   0  0  0  0  0  0  0  0  0  0  0  0
    4.3108   -2.0311    0.8979 H   0  0  0  0  0  0  0  0  0  0  0  0
    5.3408   -0.8739    0.0001 H   0  0  0  0  0  0  0  0  0  0  0  0
    4.3109   -2.0311   -0.8978 H   0  0  0  0  0  0  0  0  0  0  0  0
    1.9203   -0.7796   -0.0000 N   0  0  0  0  0  0  0  0  0  0  0  0
    1.6855   -1.7783   -0.0000 H   0  0  0  0  0  0  0  0  0  0  0  0
  2  1  1  0  0  0  0
  3  2  1  0  0  0  0
  4  1  1  0  0  0  0
  5  6  1  0  0  0  0
  5  2  2  0  0  0  0
  6  8  1  0  0  0  0
  6  7  1  0  0  0  0
  9  6  1  0  0  0  0
 10  5  1  0  0  0  0
 10  4  1  0  0  0  0
 11 10  1  0  0  0  0
M  END
