3
q = 0.0, confidence = 1.0

 49 53  0  0  0  0  0  0  0  0999 V2000
    1.0434   -0.4964   -1.1634 N   0  0  0  0  0  0  0  0  0  0  0  0
   -0.9760    0.2394   -1.3665 N   0  0  0  0  0  0  0  0  0  0  0  0
   -0.2431   -0.7337   -0.7453 C   0  0  0  0  0  2  0  0  0  0  0  0
    1.1048    0.6011   -2.0217 C   0  0  0  0  0  0  0  0  0  0  0  0
    2.0431    0.9469   -2.4621 H   0  0  0  0  0  0  0  0  0  0  0  0
   -0.1739    1.0695   -2.1466 C   0  0  0  0  0  0  0  0  0  0  0  0
   -0.5853    1.9041   -2.7204 H   0  0  0  0  0  0  0  0  0  0  0  0
    2.1694   -1.2854   -0.7551 C   0  0  0  0  0  0  0  0  0  0  0  0
    3.3497   -0.6689   -0.2675 C   0  0  0  0  0  0  0  0  0  0  0  0
    4.4263   -1.5157    0.0793 C   0  0  0  0  0  0  0  0  0  0  0  0
    5.3443   -1.0547    0.4733 H   0  0  0  0  0  0  0  0  0  0  0  0
    4.3302   -2.9090   -0.0200 C   0  0  0  0  0  0  0  0  0  0  0  0
    5.1815   -3.5385    0.2789 H   0  0  0  0  0  0  0  0  0  0  0  0
    3.1450   -3.4969   -0.4864 C   0  0  0  0  0  0  0  0  0  0  0  0
    3.0530   -4.5900   -0.5634 H   0  0  0  0  0  0  0  0  0  0  0  0
    2.0707   -2.6829   -0.8643 C   0  0  0  0  0  0  0  0  0  0  0  0
    1.1415   -3.1215   -1.2545 H   0  0  0  0  0  0  0  0  0  0  0  0
    3.4919    0.8029   -0.1011 C   0  0  0  0  0  0  0  0  0  0  0  0
    2.5131    1.5681    0.5722 C   0  0  0  0  0  0  0  0  0  0  0  0
    1.6228    1.0728    0.9873 H   0  0  0  0  0  0  0  0  0  0  0  0
    2.6667    2.9529    0.7168 C   0  0  0  0  0  0  0  0  0  0  0  0
    1.8856    3.5287    1.2346 H   0  0  0  0  0  0  0  0  0  0  0  0
    3.8013    3.5985    0.1992 C   0  0  0  0  0  0  0  0  0  0  0  0
    3.9171    4.6872    0.3111 H   0  0  0  0  0  0  0  0  0  0  0  0
    4.7860    2.8486   -0.4624 C   0  0  0  0  0  0  0  0  0  0  0  0
    5.6781    3.3458   -0.8728 H   0  0  0  0  0  0  0  0  0  0  0  0
    4.6323    1.4624   -0.6108 C   0  0  0  0  0  0  0  0  0  0  0  0
    5.3963    0.8785   -1.1469 H   0  0  0  0  0  0  0  0  0  0  0  0
   -2.4031    0.3658   -1.2619 C   0  0  0  0  0  0  0  0  0  0  0  0
   -2.9697    1.4044   -0.4871 C   0  0  0  0  0  0  0  0  0  0  0  0
   -4.3754    1.5333   -0.5019 C   0  0  0  0  0  0  0  0  0  0  0  0
   -4.8342    2.3301    0.1024 H   0  0  0  0  0  0  0  0  0  0  0  0
   -5.1821    0.6444   -1.2244 C   0  0  0  0  0  0  0  0  0  0  0  0
   -6.2760    0.7593   -1.2018 H   0  0  0  0  0  0  0  0  0  0  0  0
   -4.5989   -0.4030   -1.9540 C   0  0  0  0  0  0  0  0  0  0  0  0
   -5.2272   -1.1167   -2.5066 H   0  0  0  0  0  0  0  0  0  0  0  0
   -3.2050   -0.5356   -1.9791 C   0  0  0  0  0  0  0  0  0  0  0  0
   -2.7189   -1.3362   -2.5546 H   0  0  0  0  0  0  0  0  0  0  0  0
   -2.1492    2.3037    0.3693 C   0  0  0  0  0  0  0  0  0  0  0  0
   -1.3378    1.7659    1.3932 C   0  0  0  0  0  0  0  0  0  0  0  0
   -1.2895    0.6738    1.5292 H   0  0  0  0  0  0  0  0  0  0  0  0
   -0.6310    2.6140    2.2569 C   0  0  0  0  0  0  0  0  0  0  0  0
   -0.0196    2.1801    3.0628 H   0  0  0  0  0  0  0  0  0  0  0  0
   -0.7121    4.0083    2.1039 C   0  0  0  0  0  0  0  0  0  0  0  0
   -0.1602    4.6724    2.7867 H   0  0  0  0  0  0  0  0  0  0  0  0
   -1.5091    4.5516    1.0838 C   0  0  0  0  0  0  0  0  0  0  0  0
   -1.5773    5.6428    0.9579 H   0  0  0  0  0  0  0  0  0  0  0  0
   -2.2281    3.7052    0.2267 C   0  0  0  0  0  0  0  0  0  0  0  0
   -2.8588    4.1311   -0.5690 H   0  0  0  0  0  0  0  0  0  0  0  0
  1  8  1  0  0  0  0
  1  3  1  0  0  0  0
  2 29  1  0  0  0  0
  2  3  1  0  0  0  0
  4  1  1  0  0  0  0
  5  4  1  0  0  0  0
  6  4  2  0  0  0  0
  6  2  1  0  0  0  0
  7  6  1  0  0  0  0
  8  9  1  0  0  0  0
  9 18  1  0  0  0  0
  9 10  2  0  0  0  0
 10 11  1  0  0  0  0
 12 10  1  0  0  0  0
 12 13  1  0  0  0  0
 14 12  2  0  0  0  0
 15 14  1  0  0  0  0
 16  8  2  0  0  0  0
 16 14  1  0  0  0  0
 17 16  1  0  0  0  0
 18 19  1  0  0  0  0
 19 21  2  0  0  0  0
 19 20  1  0  0  0  0
 21 22  1  0  0  0  0
 23 24  1  0  0  0  0
 23 21  1  0  0  0  0
 25 23  2  0  0  0  0
 26 25  1  0  0  0  0
 27 25  1  0  0  0  0
 27 18  2  0  0  0  0
 28 27  1  0  0  0  0
 29 30  1  0  0  0  0
 30 39  1  0  0  0  0
 31 30  2  0  0  0  0
 31 32  1  0  0  0  0
 33 34  1  0  0  0  0
 33 31  1  0  0  0  0
 35 33  2  0  0  0  0
 36 35  1  0  0  0  0
 37 35  1  0  0  0  0
 37 29  2  0  0  0  0
 38 37  1  0  0  0  0
 39 40  1  0  0  0  0
 40 41  1  0  0  0  0
 40 42  2  0  0  0  0
 42 43  1  0  0  0  0
 44 42  1  0  0  0  0
 44 45  1  0  0  0  0
 46 44  2  0  0  0  0
 47 46  1  0  0  0  0
 48 39  2  0  0  0  0
 48 46  1  0  0  0  0
 49 48  1  0  0  0  0
M  END
