11
q = 0.0, confidence = 1.0

 29 30  0  0  0  0  0  0  0  0999 V2000
    2.0940    3.5931   -0.1755 N   0  0  0  0  0  0  0  0  0  0  0  0
    0.3442    2.6217   -0.9914 N   0  0  0  0  0  0  0  0  0  0  0  0
    3.4063    3.8274    0.4107 C   0  0  0  0  0  0  0  0  0  0  0  0
    3.9042    2.8515    0.5549 H   0  0  0  0  0  0  0  0  0  0  0  0
    3.3085    4.3361    1.3896 H   0  0  0  0  0  0  0  0  0  0  0  0
    4.0238    4.4514   -0.2641 H   0  0  0  0  0  0  0  0  0  0  0  0
    1.2113    4.6013   -0.5359 C   0  0  0  0  0  0  0  0  0  0  0  0
    1.4449    5.6626   -0.4064 H   0  0  0  0  0  0  0  0  0  0  0  0
    0.0989    3.9838   -1.0479 C   0  0  0  0  0  0  0  0  0  0  0  0
   -0.8363    4.3968   -1.4377 H   0  0  0  0  0  0  0  0  0  0  0  0
    1.5693    2.3619   -0.4463 C   0  0  0  0  0  2  0  0  0  0  0  0
   -0.6191    1.5930   -1.3986 C   0  0  0  0  0  0  0  0  0  0  0  0
   -0.9858    1.8402   -2.4142 H   0  0  0  0  0  0  0  0  0  0  0  0
   -0.0500    0.6426   -1.4754 H   0  0  0  0  0  0  0  0  0  0  0  0
   -1.7740    1.4374   -0.4363 C   0  0  0  0  0  0  0  0  0  0  0  0
   -3.0994    1.4255   -0.9115 C   0  0  0  0  0  0  0  0  0  0  0  0
   -3.2947    1.5791   -1.9847 H   0  0  0  0  0  0  0  0  0  0  0  0
   -4.1702    1.2097   -0.0405 C   0  0  0  0  0  0  0  0  0  0  0  0
   -5.1942    1.2052   -0.4398 H   0  0  0  0  0  0  0  0  0  0  0  0
   -3.9537    0.9990    1.3409 C   0  0  0  0  0  0  0  0  0  0  0  0
   -2.6200    1.0437    1.8121 C   0  0  0  0  0  0  0  0  0  0  0  0
   -2.4284    0.8958    2.8864 H   0  0  0  0  0  0  0  0  0  0  0  0
   -1.5471    1.2535    0.9402 C   0  0  0  0  0  0  0  0  0  0  0  0
   -0.5179    1.2673    1.3331 H   0  0  0  0  0  0  0  0  0  0  0  0
   -5.0440    0.7172    2.2869 C   0  0  0  0  0  0  0  0  0  0  0  0
   -4.7522    0.7309    3.3517 H   0  0  0  0  0  0  0  0  0  0  0  0
   -6.3254    0.4248    1.9771 C   0  0  0  0  0  0  0  0  0  0  0  0
   -6.6828    0.3719    0.9364 H   0  0  0  0  0  0  0  0  0  0  0  0
   -7.0657    0.2228    2.7651 H   0  0  0  0  0  0  0  0  0  0  0  0
  1  3  1  0  0  0  0
  2 11  1  0  0  0  0
  3  4  1  0  0  0  0
  3  5  1  0  0  0  0
  6  3  1  0  0  0  0
  7  8  1  0  0  0  0
  7  1  1  0  0  0  0
  9  2  1  0  0  0  0
  9  7  2  0  0  0  0
 10  9  1  0  0  0  0
 11  1  1  0  0  0  0
 12  2  1  0  0  0  0
 12 15  1  0  0  0  0
 13 12  1  0  0  0  0
 14 12  1  0  0  0  0
 15 23  1  0  0  0  0
 16 15  2  0  0  0  0
 16 18  1  0  0  0  0
 17 16  1  0  0  0  0
 18 20  2  0  0  0  0
 19 18  1  0  0  0  0
 20 21  1  0  0  0  0
 20 25  1  0  0  0  0
 21 22  1  0  0  0  0
 23 24  1  0  0  0  0
 23 21  2  0  0  0  0
 25 26  1  0  0  0  0
 27 25  2  0  0  0  0
 27 29  1  0  0  0  0
 28 27  1  0  0  0  0
M  END
