2
q = -1.0

 32 31  0  0  1  0  0  0  0  0999 V2000
   -2.5291   -1.2738   -0.4461 Si  0  0  0  0  0  0  0  0  0  0  0  0
   -0.0593   -0.5047   -1.8849 C   0  0  0  0  0  3  0  0  0  0  0  0
   -0.6117    0.3926   -2.1999 H   0  0  0  0  0  0  0  0  0  0  0  0
    0.5949   -0.9307   -2.6673 H   0  0  0  0  0  0  0  0  0  0  0  0
   -0.6665   -1.3919   -0.9259 C   0  0  2  0  0  3  0  0  0  0  0  0
    0.2251   -2.4682   -0.6007 C   0  0  0  0  0  3  0  0  0  0  0  0
    0.9009   -2.7754   -1.4165 H   0  0  0  0  0  0  0  0  0  0  0  0
   -0.0565   -3.5369    0.4124 C   0  0  0  0  0  0  0  0  0  0  0  0
    0.7957   -4.2322    0.5215 H   0  0  0  0  0  0  0  0  0  0  0  0
   -0.9281   -4.1387    0.0738 H   0  0  0  0  0  0  0  0  0  0  0  0
   -0.2989   -3.1181    1.4059 H   0  0  0  0  0  0  0  0  0  0  0  0
   -2.9283   -1.5229    1.3965 C   0  0  0  0  0  0  0  0  0  0  0  0
   -2.1353   -2.1317    1.8738 H   0  0  0  0  0  0  0  0  0  0  0  0
   -2.8729   -0.5325    1.8965 H   0  0  0  0  0  0  0  0  0  0  0  0
   -4.3015   -2.1627    1.6633 C   0  0  0  0  0  0  0  0  0  0  0  0
   -4.4984   -2.2411    2.7515 H   0  0  0  0  0  0  0  0  0  0  0  0
   -4.3652   -3.1873    1.2450 H   0  0  0  0  0  0  0  0  0  0  0  0
   -5.1334   -1.5783    1.2210 H   0  0  0  0  0  0  0  0  0  0  0  0
   -3.1885    0.3996   -1.0655 C   0  0  0  0  0  0  0  0  0  0  0  0
   -2.5938    1.2155   -0.6045 H   0  0  0  0  0  0  0  0  0  0  0  0
   -2.9942    0.4704   -2.1582 H   0  0  0  0  0  0  0  0  0  0  0  0
   -4.6818    0.6245   -0.7822 C   0  0  0  0  0  0  0  0  0  0  0  0
   -5.0357    1.5918   -1.1935 H   0  0  0  0  0  0  0  0  0  0  0  0
   -4.8943    0.6350    0.3062 H   0  0  0  0  0  0  0  0  0  0  0  0
   -5.3135   -0.1692   -1.2308 H   0  0  0  0  0  0  0  0  0  0  0  0
   -3.2969   -2.6778   -1.4788 C   0  0  0  0  0  0  0  0  0  0  0  0
   -2.9934   -3.6506   -1.0332 H   0  0  0  0  0  0  0  0  0  0  0  0
   -4.3962   -2.6202   -1.3198 H   0  0  0  0  0  0  0  0  0  0  0  0
   -2.9733   -2.6449   -2.9776 C   0  0  0  0  0  0  0  0  0  0  0  0
   -3.4825   -3.4625   -3.5270 H   0  0  0  0  0  0  0  0  0  0  0  0
   -1.8849   -2.7523   -3.1671 H   0  0  0  0  0  0  0  0  0  0  0  0
   -3.2930   -1.6915   -3.4469 H   0  0  0  0  0  0  0  0  0  0  0  0
  1 12  1  0  0  0  0
  3  2  1  0  0  0  0
  4  2  1  0  0  0  0
  5  2  1  6  0  0  0
  5  6  1  0  0  0  0
  5  1  1  0  0  0  0
  6  8  1  0  0  0  0
  7  6  1  0  0  0  0
  8  9  1  0  0  0  0
  8 11  1  0  0  0  0
 10  8  1  0  0  0  0
 12 15  1  0  0  0  0
 12 13  1  0  0  0  0
 12 14  1  0  0  0  0
 15 16  1  0  0  0  0
 17 15  1  0  0  0  0
 18 15  1  0  0  0  0
 19 22  1  0  0  0  0
 19 20  1  0  0  0  0
 19  1  1  0  0  0  0
 21 19  1  0  0  0  0
 22 24  1  0  0  0  0
 23 22  1  0  0  0  0
 25 22  1  0  0  0  0
 26 28  1  0  0  0  0
 26 27  1  0  0  0  0
 26  1  1  0  0  0  0
 29 26  1  0  0  0  0
 30 29  1  0  0  0  0
 31 29  1  0  0  0  0
 32 29  1  0  0  0  0
M  END
