5
q = -1.0, confidence = 0.0

 29 28  0  0  0  0  0  0  0  0999 V2000
   -2.5553   -1.3437   -0.3832 Si  0  0  0  0  0  0  0  0  0  0  0  0
    0.1860   -2.5036   -0.5400 C   0  0  0  0  0  3  0  0  0  0  0  0
   -0.0354   -3.1102    0.3527 H   0  0  0  0  0  0  0  0  0  0  0  0
    0.8063   -2.9931   -1.3072 H   0  0  0  0  0  0  0  0  0  0  0  0
   -0.7164   -1.4576   -0.9288 C   0  0  0  0  0  3  0  0  0  0  0  0
   -0.1054   -0.6053   -1.9117 C   0  0  0  0  0  3  0  0  0  0  0  0
    0.5461   -1.0486   -2.6861 H   0  0  0  0  0  0  0  0  0  0  0  0
   -0.6413    0.3000   -2.2346 H   0  0  0  0  0  0  0  0  0  0  0  0
   -3.3976   -2.4415   -1.6901 C   0  0  0  0  0  0  0  0  0  0  0  0
   -3.0229   -3.4802   -1.5564 H   0  0  0  0  0  0  0  0  0  0  0  0
   -4.4766   -2.4821   -1.4233 H   0  0  0  0  0  0  0  0  0  0  0  0
   -3.2262   -1.9841   -3.1439 C   0  0  0  0  0  0  0  0  0  0  0  0
   -3.7664   -2.6463   -3.8506 H   0  0  0  0  0  0  0  0  0  0  0  0
   -2.1602   -1.9795   -3.4533 H   0  0  0  0  0  0  0  0  0  0  0  0
   -3.6148   -0.9563   -3.3009 H   0  0  0  0  0  0  0  0  0  0  0  0
   -3.1885    0.4441   -0.5415 C   0  0  0  0  0  0  0  0  0  0  0  0
   -2.8142    1.0214    0.3294 H   0  0  0  0  0  0  0  0  0  0  0  0
   -2.7308    0.9170   -1.4377 H   0  0  0  0  0  0  0  0  0  0  0  0
   -4.7197    0.5603   -0.6152 C   0  0  0  0  0  0  0  0  0  0  0  0
   -5.0456    1.6175   -0.6948 H   0  0  0  0  0  0  0  0  0  0  0  0
   -5.2090    0.1361    0.2848 H   0  0  0  0  0  0  0  0  0  0  0  0
   -5.1333    0.0245   -1.4933 H   0  0  0  0  0  0  0  0  0  0  0  0
   -2.8233   -2.0601    1.3533 C   0  0  0  0  0  0  0  0  0  0  0  0
   -2.0565   -2.8437    1.5334 H   0  0  0  0  0  0  0  0  0  0  0  0
   -2.6052   -1.2727    2.1046 H   0  0  0  0  0  0  0  0  0  0  0  0
   -4.2279   -2.6366    1.5982 C   0  0  0  0  0  0  0  0  0  0  0  0
   -4.3279   -3.0194    2.6338 H   0  0  0  0  0  0  0  0  0  0  0  0
   -4.4549   -3.4789    0.9141 H   0  0  0  0  0  0  0  0  0  0  0  0
   -5.0234   -1.8771    1.4547 H   0  0  0  0  0  0  0  0  0  0  0  0
  1 23  1  0  0  0  0
  2  3  1  0  0  0  0
  4  2  1  0  0  0  0
  5  2  1  0  0  0  0
  5  1  1  0  0  0  0
  6  5  1  0  0  0  0
  7  6  1  0  0  0  0
  8  6  1  0  0  0  0
  9 10  1  0  0  0  0
  9 11  1  0  0  0  0
  9  1  1  0  0  0  0
 12  9  1  0  0  0  0
 13 12  1  0  0  0  0
 14 12  1  0  0  0  0
 15 12  1  0  0  0  0
 16  1  1  0  0  0  0
 16 17  1  0  0  0  0
 18 16  1  0  0  0  0
 19 16  1  0  0  0  0
 19 21  1  0  0  0  0
 20 19  1  0  0  0  0
 22 19  1  0  0  0  0
 23 24  1  0  0  0  0
 23 26  1  0  0  0  0
 23 25  1  0  0  0  0
 26 27  1  0  0  0  0
 28 26  1  0  0  0  0
 29 26  1  0  0  0  0
M  END
