5
q = -1.0

 70 74  0  0  1  0  0  0  0  0999 V2000
    2.0837   -0.0607   -0.2645 P   0  0  0  0  0  4  0  0  0  0  0  0
   -2.8043    2.1950   -1.3324 Si  0  0  0  0  0  0  0  0  0  0  0  0
   -0.6688   -3.1595    1.5869 O   0  0  0  0  0  0  0  0  0  0  0  0
   -0.5594   -4.1284    1.5682 H   0  0  0  0  0  0  0  0  0  0  0  0
    0.6612   -0.7159    0.6412 C   0  0  0  0  0  3  0  0  0  0  0  0
   -0.5505   -1.2599    0.0818 C   0  0  0  0  0  0  0  0  0  0  0  0
   -1.6191   -0.5093   -0.5643 C   0  0  0  0  0  0  0  0  0  0  0  0
   -1.5303    0.9008   -0.7578 C   0  0  0  0  0  3  0  0  0  0  0  0
   -2.7871   -1.4308   -0.6430 C   0  0  0  0  0  0  0  0  0  0  0  0
   -4.0759   -1.2204   -1.1562 C   0  0  0  0  0  0  0  0  0  0  0  0
   -4.3518   -0.2647   -1.6181 H   0  0  0  0  0  0  0  0  0  0  0  0
   -5.0179   -2.2610   -1.0774 C   0  0  0  0  0  0  0  0  0  0  0  0
   -6.0325   -2.1045   -1.4725 H   0  0  0  0  0  0  0  0  0  0  0  0
   -4.6780   -3.4973   -0.5014 C   0  0  0  0  0  0  0  0  0  0  0  0
   -5.4312   -4.2966   -0.4391 H   0  0  0  0  0  0  0  0  0  0  0  0
   -3.3746   -3.7238   -0.0209 C   0  0  0  0  0  0  0  0  0  0  0  0
   -3.1040   -4.6997    0.4118 H   0  0  0  0  0  0  0  0  0  0  0  0
   -2.4383   -2.6915   -0.1055 C   0  0  0  0  0  0  0  0  0  0  0  0
   -0.9601   -2.7272    0.2607 C   0  0  2  0  0  0  0  0  0  0  0  0
   -0.1758   -3.5730   -0.7611 C   0  0  0  0  0  0  0  0  0  0  0  0
   -0.5174   -4.6284   -0.7170 H   0  0  0  0  0  0  0  0  0  0  0  0
    0.9102   -3.5301   -0.5460 H   0  0  0  0  0  0  0  0  0  0  0  0
   -0.3503   -3.2161   -1.7947 H   0  0  0  0  0  0  0  0  0  0  0  0
   -3.1677    1.8473   -3.1631 C   0  0  0  0  0  0  0  0  0  0  0  0
   -2.2212    1.8600   -3.7413 H   0  0  0  0  0  0  0  0  0  0  0  0
   -3.8258    2.6400   -3.5760 H   0  0  0  0  0  0  0  0  0  0  0  0
   -3.6583    0.8706   -3.3455 H   0  0  0  0  0  0  0  0  0  0  0  0
   -4.4106    2.2648   -0.3301 C   0  0  0  0  0  0  0  0  0  0  0  0
   -4.2255    2.6682    0.6847 H   0  0  0  0  0  0  0  0  0  0  0  0
   -4.9337    1.2952   -0.2248 H   0  0  0  0  0  0  0  0  0  0  0  0
   -5.1089    2.9652   -0.8339 H   0  0  0  0  0  0  0  0  0  0  0  0
   -1.9413    3.8652   -1.2058 C   0  0  0  0  0  0  0  0  0  0  0  0
   -1.6377    4.0804   -0.1625 H   0  0  0  0  0  0  0  0  0  0  0  0
   -2.6118    4.6744   -1.5605 H   0  0  0  0  0  0  0  0  0  0  0  0
   -1.0220    3.8803   -1.8258 H   0  0  0  0  0  0  0  0  0  0  0  0
    3.0210   -1.5299   -0.8428 C   0  0  0  0  0  0  0  0  0  0  0  0
    3.3768   -2.4961    0.1258 C   0  0  0  0  0  0  0  0  0  0  0  0
    3.0975   -2.3596    1.1819 H   0  0  0  0  0  0  0  0  0  0  0  0
    4.1101   -3.6290   -0.2477 C   0  0  0  0  0  0  0  0  0  0  0  0
    4.3848   -4.3756    0.5123 H   0  0  0  0  0  0  0  0  0  0  0  0
    4.5047   -3.8041   -1.5852 C   0  0  0  0  0  0  0  0  0  0  0  0
    5.0823   -4.6938   -1.8768 H   0  0  0  0  0  0  0  0  0  0  0  0
    4.1755   -2.8349   -2.5436 C   0  0  0  0  0  0  0  0  0  0  0  0
    4.4984   -2.9580   -3.5880 H   0  0  0  0  0  0  0  0  0  0  0  0
    3.4384   -1.6968   -2.1779 C   0  0  0  0  0  0  0  0  0  0  0  0
    3.2007   -0.9382   -2.9365 H   0  0  0  0  0  0  0  0  0  0  0  0
    1.7167    0.9442   -1.7252 C   0  0  0  0  0  0  0  0  0  0  0  0
    1.0332    0.3455   -2.8079 C   0  0  0  0  0  0  0  0  0  0  0  0
    0.7347   -0.7125   -2.7646 H   0  0  0  0  0  0  0  0  0  0  0  0
    0.7078    1.1150   -3.9325 C   0  0  0  0  0  0  0  0  0  0  0  0
    0.1709    0.6516   -4.7732 H   0  0  0  0  0  0  0  0  0  0  0  0
    1.0612    2.4740   -3.9805 C   0  0  0  0  0  0  0  0  0  0  0  0
    0.8018    3.0767   -4.8637 H   0  0  0  0  0  0  0  0  0  0  0  0
    1.7394    3.0665   -2.9029 C   0  0  0  0  0  0  0  0  0  0  0  0
    2.0087    4.1322   -2.9380 H   0  0  0  0  0  0  0  0  0  0  0  0
    2.0673    2.3080   -1.7705 C   0  0  0  0  0  0  0  0  0  0  0  0
    2.5695    2.7770   -0.9131 H   0  0  0  0  0  0  0  0  0  0  0  0
    3.2391    0.7415    0.8778 C   0  0  0  0  0  0  0  0  0  0  0  0
    4.4982    1.1346    0.3769 C   0  0  0  0  0  0  0  0  0  0  0  0
    4.7442    0.9987   -0.6877 H   0  0  0  0  0  0  0  0  0  0  0  0
    5.4440    1.6947    1.2460 C   0  0  0  0  0  0  0  0  0  0  0  0
    6.4220    2.0132    0.8563 H   0  0  0  0  0  0  0  0  0  0  0  0
    5.1462    1.8361    2.6114 C   0  0  0  0  0  0  0  0  0  0  0  0
    5.8933    2.2693    3.2930 H   0  0  0  0  0  0  0  0  0  0  0  0
    3.9003    1.4226    3.1096 C   0  0  0  0  0  0  0  0  0  0  0  0
    3.6699    1.5341    4.1794 H   0  0  0  0  0  0  0  0  0  0  0  0
    2.9376    0.8819    2.2461 C   0  0  0  0  0  0  0  0  0  0  0  0
    1.9483    0.5883    2.6225 H   0  0  0  0  0  0  0  0  0  0  0  0
    1.0878   -1.4228    1.3826 H   0  0  0  0  0  0  0  0  0  0  0  0
   -0.5349    1.2592   -1.0581 H   0  0  0  0  0  0  0  0  0  0  0  0
  1  5  1  0  0  0  0
  1 58  1  0  0  0  0
  2 32  1  0  0  0  0
  2  8  1  0  0  0  0
  2 28  1  0  0  0  0
  4  3  1  0  0  0  0
  5 69  1  0  0  0  0
  6 19  1  0  0  0  0
  6  5  1  0  0  0  0
  7  6  2  0  0  0  0
  8  7  1  0  0  0  0
  9  7  1  0  0  0  0
  9 18  1  0  0  0  0
 10 12  1  0  0  0  0
 10  9  2  0  0  0  0
 11 10  1  0  0  0  0
 12 14  2  0  0  0  0
 13 12  1  0  0  0  0
 14 15  1  0  0  0  0
 14 16  1  0  0  0  0
 16 17  1  0  0  0  0
 18 16  2  0  0  0  0
 18 19  1  0  0  0  0
 19  3  1  1  0  0  0
 20 21  1  0  0  0  0
 20 22  1  0  0  0  0
 20 19  1  0  0  0  0
 23 20  1  0  0  0  0
 24  2  1  0  0  0  0
 25 24  1  0  0  0  0
 26 24  1  0  0  0  0
 27 24  1  0  0  0  0
 28 30  1  0  0  0  0
 28 29  1  0  0  0  0
 31 28  1  0  0  0  0
 32 33  1  0  0  0  0
 34 32  1  0  0  0  0
 35 32  1  0  0  0  0
 36  1  1  0  0  0  0
 36 37  1  0  0  0  0
 37 38  1  0  0  0  0
 39 37  2  0  0  0  0
 39 40  1  0  0  0  0
 41 39  1  0  0  0  0
 42 41  1  0  0  0  0
 43 45  1  0  0  0  0
 43 41  2  0  0  0  0
 44 43  1  0  0  0  0
 45 36  2  0  0  0  0
 46 45  1  0  0  0  0
 47  1  1  0  0  0  0
 48 49  1  0  0  0  0
 48 47  2  0  0  0  0
 50 48  1  0  0  0  0
 51 50  1  0  0  0  0
 52 50  2  0  0  0  0
 52 54  1  0  0  0  0
 53 52  1  0  0  0  0
 54 56  2  0  0  0  0
 55 54  1  0  0  0  0
 56 47  1  0  0  0  0
 56 57  1  0  0  0  0
 58 67  1  0  0  0  0
 59 58  2  0  0  0  0
 59 61  1  0  0  0  0
 60 59  1  0  0  0  0
 61 63  2  0  0  0  0
 62 61  1  0  0  0  0
 63 65  1  0  0  0  0
 63 64  1  0  0  0  0
 65 66  1  0  0  0  0
 67 68  1  0  0  0  0
 67 65  2  0  0  0  0
 70  8  1  0  0  0  0
M  END
