3
q = -1.0

 48 49  0  0  1  0  0  0  0  0999 V2000
   -1.2013    0.1611   -0.1621 P   0  0  0  0  0  0  0  0  0  0  0  0
    1.1703   -1.1279   -1.3384 C   0  0  2  0  0  3  0  0  0  0  0  0
    1.3246   -2.3099   -0.5357 C   0  0  0  0  0  3  0  0  0  0  0  0
    0.7876   -3.2558   -0.6862 H   0  0  0  0  0  0  0  0  0  0  0  0
    2.2223   -2.0073    0.5372 C   0  0  0  0  0  3  0  0  0  0  0  0
    2.5333   -2.6939    1.3338 H   0  0  0  0  0  0  0  0  0  0  0  0
    2.8175   -0.6985    0.2738 C   0  0  0  0  0  0  0  0  0  0  0  0
    3.7986    0.0598    0.9481 C   0  0  0  0  0  0  0  0  0  0  0  0
    4.2739   -0.3319    1.8602 H   0  0  0  0  0  0  0  0  0  0  0  0
    4.1600    1.3118    0.4339 C   0  0  0  0  0  0  0  0  0  0  0  0
    4.9347    1.9043    0.9444 H   0  0  0  0  0  0  0  0  0  0  0  0
    3.5550    1.8254   -0.7365 C   0  0  0  0  0  0  0  0  0  0  0  0
    3.8714    2.8056   -1.1245 H   0  0  0  0  0  0  0  0  0  0  0  0
    2.5598    1.1020   -1.4077 C   0  0  0  0  0  0  0  0  0  0  0  0
    2.0955    1.5070   -2.3206 H   0  0  0  0  0  0  0  0  0  0  0  0
    2.1800   -0.1627   -0.9097 C   0  0  0  0  0  0  0  0  0  0  0  0
    0.1419   -0.8849   -2.4160 C   0  0  0  0  0  0  0  0  0  0  0  0
   -0.4137   -1.8237   -2.6042 H   0  0  0  0  0  0  0  0  0  0  0  0
    0.6338   -0.6141   -3.3765 H   0  0  0  0  0  0  0  0  0  0  0  0
   -0.8286    0.2456   -2.0083 C   0  0  0  0  0  0  0  0  0  0  0  0
   -1.7489    0.2725   -2.6297 H   0  0  0  0  0  0  0  0  0  0  0  0
   -0.3275    1.2251   -2.1439 H   0  0  0  0  0  0  0  0  0  0  0  0
   -2.8074   -0.8673   -0.0212 C   0  0  0  0  0  0  0  0  0  0  0  0
   -2.5574   -2.1687   -0.8071 C   0  0  0  0  0  0  0  0  0  0  0  0
   -1.6229   -2.6638   -0.4752 H   0  0  0  0  0  0  0  0  0  0  0  0
   -2.4999   -1.9966   -1.8998 H   0  0  0  0  0  0  0  0  0  0  0  0
   -3.3998   -2.8694   -0.6260 H   0  0  0  0  0  0  0  0  0  0  0  0
   -4.0455   -0.1639   -0.5946 C   0  0  0  0  0  0  0  0  0  0  0  0
   -4.3398    0.7236   -0.0025 H   0  0  0  0  0  0  0  0  0  0  0  0
   -4.9057   -0.8675   -0.5802 H   0  0  0  0  0  0  0  0  0  0  0  0
   -3.8988    0.1521   -1.6475 H   0  0  0  0  0  0  0  0  0  0  0  0
   -3.0238   -1.2398    1.4565 C   0  0  0  0  0  0  0  0  0  0  0  0
   -3.2318   -0.3606    2.0931 H   0  0  0  0  0  0  0  0  0  0  0  0
   -2.1319   -1.7522    1.8658 H   0  0  0  0  0  0  0  0  0  0  0  0
   -3.8925   -1.9276    1.5372 H   0  0  0  0  0  0  0  0  0  0  0  0
   -1.5167    1.9944    0.2999 C   0  0  0  0  0  0  0  0  0  0  0  0
   -2.2847    2.7763   -0.7802 C   0  0  0  0  0  0  0  0  0  0  0  0
   -1.7509    2.7900   -1.7503 H   0  0  0  0  0  0  0  0  0  0  0  0
   -2.3876    3.8334   -0.4533 H   0  0  0  0  0  0  0  0  0  0  0  0
   -3.3037    2.3837   -0.9525 H   0  0  0  0  0  0  0  0  0  0  0  0
   -2.2602    2.0966    1.6424 C   0  0  0  0  0  0  0  0  0  0  0  0
   -1.7527    1.5191    2.4391 H   0  0  0  0  0  0  0  0  0  0  0  0
   -3.3110    1.7547    1.5739 H   0  0  0  0  0  0  0  0  0  0  0  0
   -2.2807    3.1603    1.9620 H   0  0  0  0  0  0  0  0  0  0  0  0
   -0.1108    2.6019    0.4693 C   0  0  0  0  0  0  0  0  0  0  0  0
    0.4874    2.5566   -0.4619 H   0  0  0  0  0  0  0  0  0  0  0  0
    0.4685    2.0710    1.2501 H   0  0  0  0  0  0  0  0  0  0  0  0
   -0.2050    3.6705    0.7583 H   0  0  0  0  0  0  0  0  0  0  0  0
  1 23  1  0  0  0  0
  1 36  1  0  0  0  0
  2 17  1  1  0  0  0
  2 16  1  0  0  0  0
  2  3  1  0  0  0  0
  3  5  1  0  0  0  0
  4  3  1  0  0  0  0
  5  6  1  0  0  0  0
  7  5  1  0  0  0  0
  7  8  1  0  0  0  0
  8  9  1  0  0  0  0
 10 11  1  0  0  0  0
 10  8  2  0  0  0  0
 12 10  1  0  0  0  0
 13 12  1  0  0  0  0
 14 16  1  0  0  0  0
 14 12  2  0  0  0  0
 15 14  1  0  0  0  0
 16  7  2  0  0  0  0
 17 20  1  0  0  0  0
 18 17  1  0  0  0  0
 19 17  1  0  0  0  0
 20  1  1  0  0  0  0
 21 20  1  0  0  0  0
 22 20  1  0  0  0  0
 23 32  1  0  0  0  0
 24 27  1  0  0  0  0
 24 25  1  0  0  0  0
 24 23  1  0  0  0  0
 26 24  1  0  0  0  0
 28 30  1  0  0  0  0
 28 23  1  0  0  0  0
 28 29  1  0  0  0  0
 31 28  1  0  0  0  0
 32 35  1  0  0  0  0
 32 34  1  0  0  0  0
 32 33  1  0  0  0  0
 36 45  1  0  0  0  0
 36 41  1  0  0  0  0
 37 39  1  0  0  0  0
 37 36  1  0  0  0  0
 38 37  1  0  0  0  0
 40 37  1  0  0  0  0
 41 44  1  0  0  0  0
 41 42  1  0  0  0  0
 43 41  1  0  0  0  0
 45 48  1  0  0  0  0
 45 47  1  0  0  0  0
 46 45  1  0  0  0  0
M  END
