7
q = 0.0, confidence = 0.976

 39 41  0  0  1  0  0  0  0  0999 V2000
   -0.4121    0.5817   -0.5206 O   0  0  0  0  0  0  0  0  0  0  0  0
   -0.5828    0.3751    1.7458 O   0  0  0  0  0  0  0  0  0  0  0  0
   -2.7270    2.4459   -0.7276 O   0  0  0  0  0  0  0  0  0  0  0  0
    1.1898    2.3228    0.1697 C   0  0  0  0  0  0  0  0  0  0  0  0
    2.7042    2.6017    0.2137 C   0  0  0  0  0  0  0  0  0  0  0  0
    3.4942    1.4613   -0.4038 C   0  0  0  0  0  3  0  0  0  0  0  0
    3.0450    0.8490   -1.6255 C   0  0  0  0  0  3  0  0  0  0  0  0
    1.6469    0.5930   -1.6785 C   0  0  0  0  0  3  0  0  0  0  0  0
    0.9316    0.9819   -0.4922 C   0  0  2  0  0  3  0  0  0  0  0  0
   -1.1004    0.3912    0.6469 C   0  0  0  0  0  0  0  0  0  0  0  0
   -2.5667    0.2237    0.3614 C   0  0  2  0  0  0  0  0  0  0  0  0
   -3.1819    1.3418   -0.5167 C   0  0  0  0  0  0  0  0  0  0  0  0
   -4.5204    0.7727   -1.0139 C   0  0  0  0  0  0  0  0  0  0  0  0
   -4.5583   -0.6163   -0.3534 C   0  0  2  0  0  0  0  0  0  0  0  0
   -4.8031   -0.3912    1.1553 C   0  0  0  0  0  0  0  0  0  0  0  0
   -3.4600    0.2281    1.6370 C   0  0  0  0  0  0  0  0  0  0  0  0
   -3.0575   -1.0670   -0.4033 C   0  0  0  0  0  0  0  0  0  0  0  0
   -2.4977   -1.2057   -1.8273 C   0  0  0  0  0  0  0  0  0  0  0  0
   -2.7781   -2.3733    0.3506 C   0  0  0  0  0  0  0  0  0  0  0  0
    0.6296    3.0974   -0.3985 H   0  0  0  0  0  0  0  0  0  0  0  0
    0.7602    2.3030    1.1885 H   0  0  0  0  0  0  0  0  0  0  0  0
    3.0393    2.7526    1.2591 H   0  0  0  0  0  0  0  0  0  0  0  0
    2.9494    3.5444   -0.3253 H   0  0  0  0  0  0  0  0  0  0  0  0
    4.5840    1.4966   -0.2421 H   0  0  0  0  0  0  0  0  0  0  0  0
    3.7215    0.5101   -2.4244 H   0  0  0  0  0  0  0  0  0  0  0  0
    1.1545    0.0691   -2.5107 H   0  0  0  0  0  0  0  0  0  0  0  0
   -5.3547    1.4423   -0.7221 H   0  0  0  0  0  0  0  0  0  0  0  0
   -4.5093    0.7380   -2.1220 H   0  0  0  0  0  0  0  0  0  0  0  0
   -5.2568   -1.3300   -0.8331 H   0  0  0  0  0  0  0  0  0  0  0  0
   -5.6670    0.2799    1.3294 H   0  0  0  0  0  0  0  0  0  0  0  0
   -5.0242   -1.3419    1.6775 H   0  0  0  0  0  0  0  0  0  0  0  0
   -2.9592   -0.3681    2.4233 H   0  0  0  0  0  0  0  0  0  0  0  0
   -3.5653    1.2535    2.0420 H   0  0  0  0  0  0  0  0  0  0  0  0
   -2.5184   -0.2635   -2.4073 H   0  0  0  0  0  0  0  0  0  0  0  0
   -3.0790   -1.9679   -2.3862 H   0  0  0  0  0  0  0  0  0  0  0  0
   -1.4442   -1.5424   -1.7954 H   0  0  0  0  0  0  0  0  0  0  0  0
   -3.1101   -2.3572    1.4047 H   0  0  0  0  0  0  0  0  0  0  0  0
   -1.6954   -2.6054    0.3418 H   0  0  0  0  0  0  0  0  0  0  0  0
   -3.3012   -3.2125   -0.1530 H   0  0  0  0  0  0  0  0  0  0  0  0
  1 10  1  0  0  0  0
  3 12  2  0  0  0  0
  4  5  1  0  0  0  0
  4 21  1  0  0  0  0
  5 22  1  0  0  0  0
  6 24  1  0  0  0  0
  6  5  1  0  0  0  0
  7  6  1  0  0  0  0
  8  7  1  0  0  0  0
  8  9  1  0  0  0  0
  9  1  1  6  0  0  0
  9  4  1  0  0  0  0
 10  2  2  0  0  0  0
 11 10  1  1  0  0  0
 11 16  1  0  0  0  0
 12 11  1  0  0  0  0
 13 27  1  0  0  0  0
 13 12  1  0  0  0  0
 13 14  1  0  0  0  0
 14 29  1  6  0  0  0
 14 15  1  0  0  0  0
 15 30  1  0  0  0  0
 15 16  1  0  0  0  0
 15 31  1  0  0  0  0
 16 33  1  0  0  0  0
 16 32  1  0  0  0  0
 17 14  1  0  0  0  0
 17 19  1  0  0  0  0
 17 11  1  0  0  0  0
 18 36  1  0  0  0  0
 18 17  1  0  0  0  0
 19 37  1  0  0  0  0
 20  4  1  0  0  0  0
 23  5  1  0  0  0  0
 25  7  1  0  0  0  0
 26  8  1  0  0  0  0
 28 13  1  0  0  0  0
 34 18  1  0  0  0  0
 35 18  1  0  0  0  0
 38 19  1  0  0  0  0
 39 19  1  0  0  0  0
M  END
