5
q = 0.0, confidence = 0.992

 22 22  0  0  0  0  0  0  0  0999 V2000
   -2.8221    3.0092    1.1115 O   0  0  0  0  0  0  0  0  0  0  0  0
   -2.7803    3.5793    0.3222 H   0  0  0  0  0  0  0  0  0  0  0  0
   -0.9939   -2.1559   -1.5668 N   0  0  0  0  0  0  0  0  0  0  0  0
   -2.2912   -0.9589   -0.3059 N   0  0  0  0  0  0  0  0  0  0  0  0
   -0.9797   -1.1366   -0.6533 C   0  0  0  0  0  2  0  0  0  0  0  0
   -2.2898   -2.6074   -1.7846 C   0  0  0  0  0  0  0  0  0  0  0  0
   -2.5185   -3.4192   -2.4818 H   0  0  0  0  0  0  0  0  0  0  0  0
   -3.1092   -1.8515   -0.9888 C   0  0  0  0  0  0  0  0  0  0  0  0
   -4.1947   -1.8764   -0.8565 H   0  0  0  0  0  0  0  0  0  0  0  0
    0.1930   -2.7021   -2.2110 C   0  0  0  0  0  0  0  0  0  0  0  0
    0.1341   -2.5721   -3.3093 H   0  0  0  0  0  0  0  0  0  0  0  0
    0.2984   -3.7794   -1.9774 H   0  0  0  0  0  0  0  0  0  0  0  0
    1.0707   -2.1521   -1.8194 H   0  0  0  0  0  0  0  0  0  0  0  0
   -2.7557    0.0379    0.6600 C   0  0  0  0  0  0  0  0  0  0  0  0
   -1.8545    0.6031    0.9751 H   0  0  0  0  0  0  0  0  0  0  0  0
   -3.1515   -0.4877    1.5550 H   0  0  0  0  0  0  0  0  0  0  0  0
   -3.8045    0.9972    0.0938 C   0  0  0  0  0  0  0  0  0  0  0  0
   -3.4861    1.3418   -0.9149 H   0  0  0  0  0  0  0  0  0  0  0  0
   -4.7809    0.4844   -0.0422 H   0  0  0  0  0  0  0  0  0  0  0  0
   -3.9938    2.2132    1.0088 C   0  0  0  0  0  0  0  0  0  0  0  0
   -4.8688    2.8078    0.6629 H   0  0  0  0  0  0  0  0  0  0  0  0
   -4.2323    1.8725    2.0395 H   0  0  0  0  0  0  0  0  0  0  0  0
  2  1  1  0  0  0  0
  3  5  1  0  0  0  0
  4 14  1  0  0  0  0
  5  4  1  0  0  0  0
  6  3  1  0  0  0  0
  6  8  2  0  0  0  0
  7  6  1  0  0  0  0
  8  9  1  0  0  0  0
  8  4  1  0  0  0  0
 10 12  1  0  0  0  0
 10 13  1  0  0  0  0
 10  3  1  0  0  0  0
 11 10  1  0  0  0  0
 14 15  1  0  0  0  0
 14 16  1  0  0  0  0
 17 14  1  0  0  0  0
 17 20  1  0  0  0  0
 18 17  1  0  0  0  0
 19 17  1  0  0  0  0
 20  1  1  0  0  0  0
 20 22  1  0  0  0  0
 21 20  1  0  0  0  0
M  END
