4
q = -1.0

 17 17  0  0  0  0  0  0  0  0999 V2000
   -0.8082    3.2773    0.0569 O   0  0  0  0  0  0  0  0  0  0  0  0
   -2.4102    2.3288    3.2619 N   0  0  0  0  0  0  0  0  0  0  0  0
   -1.4878    2.0522    2.5841 C   0  0  0  0  0  0  0  0  0  0  0  0
   -0.3744    1.6512    1.7717 C   0  0  0  0  0  3  0  0  0  0  0  0
    0.0186    2.5902    0.6609 C   0  0  0  0  0  0  0  0  0  0  0  0
    1.4858    2.6868    0.3336 C   0  0  0  0  0  0  0  0  0  0  0  0
    2.4533    1.7687    0.7939 C   0  0  0  0  0  0  0  0  0  0  0  0
    3.8066    1.9492    0.4782 C   0  0  0  0  0  0  0  0  0  0  0  0
    4.2119    3.0474   -0.2957 C   0  0  0  0  0  0  0  0  0  0  0  0
    3.2544    3.9642   -0.7624 C   0  0  0  0  0  0  0  0  0  0  0  0
    1.9024    3.7820   -0.4524 C   0  0  0  0  0  0  0  0  0  0  0  0
    0.4793    1.3876    2.4185 H   0  0  0  0  0  0  0  0  0  0  0  0
    2.1510    0.8895    1.3792 H   0  0  0  0  0  0  0  0  0  0  0  0
    4.5508    1.2225    0.8380 H   0  0  0  0  0  0  0  0  0  0  0  0
    5.2766    3.1890   -0.5376 H   0  0  0  0  0  0  0  0  0  0  0  0
    3.5677    4.8281   -1.3684 H   0  0  0  0  0  0  0  0  0  0  0  0
    1.1316    4.4852   -0.8001 H   0  0  0  0  0  0  0  0  0  0  0  0
  1  5  2  0  0  0  0
  3  2  3  0  0  0  0
  4 12  1  0  0  0  0
  4  3  1  0  0  0  0
  5  4  1  0  0  0  0
  6  5  1  0  0  0  0
  6  7  1  0  0  0  0
  7 13  1  0  0  0  0
  8  7  2  0  0  0  0
  8 14  1  0  0  0  0
  9  8  1  0  0  0  0
 10 11  1  0  0  0  0
 10  9  2  0  0  0  0
 11  6  2  0  0  0  0
 15  9  1  0  0  0  0
 16 10  1  0  0  0  0
 17 11  1  0  0  0  0
M  END
