10
q = -1.0

 25 26  0  0  1  0  0  0  0  0999 V2000
   -3.4208    0.5375    0.1761 C   0  0  0  0  0  0  0  0  0  0  0  0
   -3.3914   -2.6807    1.0000 C   0  0  0  0  0  0  0  0  0  0  0  0
   -4.4802   -2.5012    1.0120 H   0  0  0  0  0  0  0  0  0  0  0  0
   -3.0380   -3.4213    0.2625 H   0  0  0  0  0  0  0  0  0  0  0  0
   -4.1572    1.6984    0.4919 C   0  0  0  0  0  0  0  0  0  0  0  0
   -4.0972    2.1211    1.5052 H   0  0  0  0  0  0  0  0  0  0  0  0
   -2.6161   -2.6064    2.3201 C   0  0  0  0  0  0  0  0  0  0  0  0
   -3.1648   -2.3696    3.2480 H   0  0  0  0  0  0  0  0  0  0  0  0
   -1.7738   -3.3067    2.4411 H   0  0  0  0  0  0  0  0  0  0  0  0
   -2.5014   -1.5408    1.2876 C   0  0  0  0  0  3  0  0  0  0  0  0
   -4.9778    2.3069   -0.4703 C   0  0  0  0  0  0  0  0  0  0  0  0
   -5.5484    3.2107   -0.2072 H   0  0  0  0  0  0  0  0  0  0  0  0
   -5.0710    1.7665   -1.7620 C   0  0  0  0  0  0  0  0  0  0  0  0
   -5.7089    2.2486   -2.5184 H   0  0  0  0  0  0  0  0  0  0  0  0
   -2.5540   -0.1154    1.2011 C   0  0  1  0  0  3  0  0  0  0  0  0
   -4.3490    0.6039   -2.0829 C   0  0  0  0  0  0  0  0  0  0  0  0
   -4.4165    0.1727   -3.0933 H   0  0  0  0  0  0  0  0  0  0  0  0
   -1.5451    0.5755    1.9500 C   0  0  0  0  0  3  0  0  0  0  0  0
   -1.2124    0.0657    2.8739 H   0  0  0  0  0  0  0  0  0  0  0  0
   -1.3120    2.0605    1.9256 C   0  0  0  0  0  0  0  0  0  0  0  0
   -0.2676    2.2963    2.2042 H   0  0  0  0  0  0  0  0  0  0  0  0
   -1.9624    2.5721    2.6692 H   0  0  0  0  0  0  0  0  0  0  0  0
   -1.5182    2.5092    0.9354 H   0  0  0  0  0  0  0  0  0  0  0  0
   -3.5354   -0.0103   -1.1222 C   0  0  0  0  0  0  0  0  0  0  0  0
   -2.9526   -0.9103   -1.3742 H   0  0  0  0  0  0  0  0  0  0  0  0
  1  5  1  0  0  0  0
  1 15  1  0  0  0  0
  2  3  1  0  0  0  0
  2 10  1  0  0  0  0
  2  7  1  0  0  0  0
  4  2  1  0  0  0  0
  5  6  1  0  0  0  0
  7  9  1  0  0  0  0
  7  8  1  0  0  0  0
 10  7  1  0  0  0  0
 11 12  1  0  0  0  0
 11  5  2  0  0  0  0
 13 11  1  0  0  0  0
 14 13  1  0  0  0  0
 15 10  1  0  0  0  0
 15 18  1  6  0  0  0
 16 13  2  0  0  0  0
 16 24  1  0  0  0  0
 17 16  1  0  0  0  0
 18 19  1  0  0  0  0
 20 18  1  0  0  0  0
 20 21  1  0  0  0  0
 20 22  1  0  0  0  0
 23 20  1  0  0  0  0
 24  1  2  0  0  0  0
 25 24  1  0  0  0  0
M  END
