3
q = 0.0, confidence = 0.956

 12 12  0  0  0  0  0  0  0  0999 V2000
   -3.5036   -1.4283    0.3182 C   0  0  0  0  0  3  0  0  0  0  0  0
   -4.1756   -1.5279    1.1797 H   0  0  0  0  0  0  0  0  0  0  0  0
   -2.8210   -2.5516   -0.2235 C   0  0  0  0  0  3  0  0  0  0  0  0
   -2.9629   -3.5403    0.2347 H   0  0  0  0  0  0  0  0  0  0  0  0
   -1.9304   -2.3998   -1.3335 C   0  0  0  0  0  0  0  0  0  0  0  0
   -1.3881   -3.2736   -1.7204 H   0  0  0  0  0  0  0  0  0  0  0  0
   -1.6668   -1.1084   -1.8513 C   0  0  0  0  0  0  0  0  0  0  0  0
   -0.9365   -0.9700   -2.6617 H   0  0  0  0  0  0  0  0  0  0  0  0
   -2.3696    0.0301   -1.3386 C   0  0  0  0  0  0  0  0  0  0  0  0
   -2.1812    1.0354   -1.7341 H   0  0  0  0  0  0  0  0  0  0  0  0
   -3.2812   -0.1466   -0.2728 C   0  0  0  0  0  0  0  0  0  0  0  0
   -4.1152    1.2480    0.3711 Cl  0  0  0  0  0  0  0  0  0  0  0  0
  1  2  1  0  0  0  0
  3  4  1  0  0  0  0
  3  1  1  0  0  0  0
  5  3  1  0  0  0  0
  6  5  1  0  0  0  0
  7  9  1  0  0  0  0
  7  5  2  0  0  0  0
  8  7  1  0  0  0  0
  9 11  2  0  0  0  0
 10  9  1  0  0  0  0
 11  1  1  0  0  0  0
 11 12  1  0  0  0  0
M  END
