1
q = 0.0, confidence = 1.0

 49 52  0  0  0  0  0  0  0  0999 V2000
    3.7473    0.1097    0.0605 C   0  0  0  0  0  1  0  0  0  0  0  0
    1.1910    0.1810    0.1494 C   0  0  0  0  0  0  0  0  0  0  0  0
    0.4631   -0.9866    0.4563 C   0  0  0  0  0  0  0  0  0  0  0  0
    1.0033   -1.9226    0.6560 H   0  0  0  0  0  0  0  0  0  0  0  0
   -0.9339   -0.9510    0.5055 C   0  0  0  0  0  0  0  0  0  0  0  0
   -1.4811   -1.8712    0.7465 H   0  0  0  0  0  0  0  0  0  0  0  0
   -1.6194    0.2581    0.2472 C   0  0  0  0  0  0  0  0  0  0  0  0
   -0.8812    1.4265   -0.0604 C   0  0  0  0  0  0  0  0  0  0  0  0
   -1.4346    2.3553   -0.2578 H   0  0  0  0  0  0  0  0  0  0  0  0
    0.5083    1.3938   -0.1100 C   0  0  0  0  0  0  0  0  0  0  0  0
    1.0842    2.2988   -0.3484 H   0  0  0  0  0  0  0  0  0  0  0  0
   -3.7806   -0.7358    0.5703 C   0  0  0  0  0  0  0  0  0  0  0  0
   -3.5180   -1.1370    1.5768 H   0  0  0  0  0  0  0  0  0  0  0  0
   -3.5921   -1.5461   -0.1721 H   0  0  0  0  0  0  0  0  0  0  0  0
   -5.2339   -0.2932    0.5277 C   0  0  0  0  0  0  0  0  0  0  0  0
   -5.4274    0.1540   -0.4700 H   0  0  0  0  0  0  0  0  0  0  0  0
   -5.3800    0.5212    1.2697 H   0  0  0  0  0  0  0  0  0  0  0  0
   -6.2044   -1.4449    0.8138 C   0  0  0  0  0  0  0  0  0  0  0  0
   -5.9346   -1.9153    1.7841 H   0  0  0  0  0  0  0  0  0  0  0  0
   -6.0731   -2.2414    0.0464 H   0  0  0  0  0  0  0  0  0  0  0  0
   -7.6779   -1.0257    0.8666 C   0  0  0  0  0  0  0  0  0  0  0  0
   -8.2956   -1.8813    1.2107 H   0  0  0  0  0  0  0  0  0  0  0  0
   -7.8160   -0.2210    1.6208 H   0  0  0  0  0  0  0  0  0  0  0  0
   -8.2362   -0.5401   -0.4800 C   0  0  0  0  0  0  0  0  0  0  0  0
   -7.6650    0.3337   -0.8551 H   0  0  0  0  0  0  0  0  0  0  0  0
   -8.1249   -1.3336   -1.2494 H   0  0  0  0  0  0  0  0  0  0  0  0
  -10.1067    1.1001   -0.0633 C   0  0  0  0  0  0  0  0  0  0  0  0
   -9.3916    2.2791    0.2094 C   0  0  0  0  0  0  0  0  0  0  0  0
   -8.2924    2.3066    0.1799 H   0  0  0  0  0  0  0  0  0  0  0  0
  -10.1279    3.4292    0.5275 C   0  0  0  0  0  0  0  0  0  0  0  0
   -9.5919    4.3656    0.7446 H   0  0  0  0  0  0  0  0  0  0  0  0
  -11.5398    3.4095    0.5779 C   0  0  0  0  0  0  0  0  0  0  0  0
  -12.0853    4.3305    0.8318 H   0  0  0  0  0  0  0  0  0  0  0  0
  -12.2489    2.2308    0.3120 C   0  0  0  0  0  0  0  0  0  0  0  0
  -13.3485    2.2174    0.3551 H   0  0  0  0  0  0  0  0  0  0  0  0
  -11.5371    1.0605   -0.0090 C   0  0  0  0  0  0  0  0  0  0  0  0
  -11.9251   -0.3013   -0.3250 C   0  0  0  0  0  0  0  0  0  0  0  0
  -13.1602   -0.9665   -0.4309 C   0  0  0  0  0  0  0  0  0  0  0  0
  -14.1007   -0.4215   -0.2585 H   0  0  0  0  0  0  0  0  0  0  0  0
  -13.1757   -2.3293   -0.7557 C   0  0  0  0  0  0  0  0  0  0  0  0
  -14.1352   -2.8607   -0.8396 H   0  0  0  0  0  0  0  0  0  0  0  0
  -11.9699   -3.0327   -0.9745 C   0  0  0  0  0  0  0  0  0  0  0  0
  -12.0063   -4.1038   -1.2247 H   0  0  0  0  0  0  0  0  0  0  0  0
  -10.7243   -2.3962   -0.8771 C   0  0  0  0  0  0  0  0  0  0  0  0
   -9.7929   -2.9566   -1.0448 H   0  0  0  0  0  0  0  0  0  0  0  0
  -10.7129   -1.0278   -0.5567 C   0  0  0  0  0  0  0  0  0  0  0  0
   -9.6313   -0.1616   -0.4134 N   0  0  0  0  0  0  0  0  0  0  0  0
    2.5650    0.1422    0.1018 N   0  0  0  0  0  2  0  0  0  0  0  0
   -2.9629    0.3970    0.2698 O   0  0  0  0  0  0  0  0  0  0  0  0
  1 48  1  0  0  0  0
  2  3  1  0  0  0  0
  3  5  2  0  0  0  0
  3  4  1  0  0  0  0
  5  6  1  0  0  0  0
  7 49  1  0  0  0  0
  7  5  1  0  0  0  0
  8  7  2  0  0  0  0
  9  8  1  0  0  0  0
 10  8  1  0  0  0  0
 10  2  2  0  0  0  0
 11 10  1  0  0  0  0
 12 13  1  0  0  0  0
 14 12  1  0  0  0  0
 15 12  1  0  0  0  0
 15 18  1  0  0  0  0
 15 17  1  0  0  0  0
 16 15  1  0  0  0  0
 18 21  1  0  0  0  0
 18 19  1  0  0  0  0
 20 18  1  0  0  0  0
 21 22  1  0  0  0  0
 21 23  1  0  0  0  0
 24 47  1  0  0  0  0
 24 21  1  0  0  0  0
 25 24  1  0  0  0  0
 26 24  1  0  0  0  0
 27 36  2  0  0  0  0
 27 28  1  0  0  0  0
 28 30  2  0  0  0  0
 29 28  1  0  0  0  0
 30 32  1  0  0  0  0
 30 31  1  0  0  0  0
 32 33  1  0  0  0  0
 34 35  1  0  0  0  0
 34 32  2  0  0  0  0
 36 34  1  0  0  0  0
 37 36  1  0  0  0  0
 38 37  1  0  0  0  0
 38 39  1  0  0  0  0
 40 38  2  0  0  0  0
 41 40  1  0  0  0  0
 42 44  2  0  0  0  0
 42 40  1  0  0  0  0
 43 42  1  0  0  0  0
 44 46  1  0  0  0  0
 45 44  1  0  0  0  0
 46 47  1  0  0  0  0
 46 37  2  0  0  0  0
 47 27  1  0  0  0  0
 48  2  1  0  0  0  0
 49 12  1  0  0  0  0
M  END
