13
q = -1.0

 30 32  0  0  1  0  0  0  0  0999 V2000
   -7.5356   -0.0502    0.4243 Cl  0  0  0  0  0  0  0  0  0  0  0  0
   -1.0465    2.3040    0.0740 O   0  0  0  0  0  0  0  0  0  0  0  0
   -1.7037    0.2597   -0.7790 N   0  0  0  0  0  0  0  0  0  0  0  0
   -1.3232   -0.6372   -1.0853 H   0  0  0  0  0  0  0  0  0  0  0  0
   -5.8262    0.0579    0.0837 C   0  0  0  0  0  0  0  0  0  0  0  0
    4.3764    2.5612    0.1871 C   0  0  0  0  0  0  0  0  0  0  0  0
    5.3734    2.9400    0.4572 H   0  0  0  0  0  0  0  0  0  0  0  0
   -0.7753    1.2423   -0.4908 C   0  0  0  0  0  0  0  0  0  0  0  0
    1.7904    1.6385   -0.4357 C   0  0  0  0  0  0  0  0  0  0  0  0
    1.9424    2.6784    0.5263 C   0  0  0  0  0  0  0  0  0  0  0  0
    1.0456    3.1051    0.9937 H   0  0  0  0  0  0  0  0  0  0  0  0
   -3.0741    0.2383   -0.4687 C   0  0  0  0  0  0  0  0  0  0  0  0
    1.0731    0.0137   -1.9460 C   0  0  0  0  0  3  0  0  0  0  0  0
    0.4338   -0.6054   -2.5876 H   0  0  0  0  0  0  0  0  0  0  0  0
    2.4985    0.0739   -2.0249 C   0  0  0  0  0  3  0  0  0  0  0  0
    3.1270   -0.4920   -2.7226 H   0  0  0  0  0  0  0  0  0  0  0  0
    0.6207    0.9242   -0.9203 C   0  0  2  0  0  3  0  0  0  0  0  0
    3.2254    3.1239    0.8174 C   0  0  0  0  0  0  0  0  0  0  0  0
    3.3629    3.9325    1.5511 H   0  0  0  0  0  0  0  0  0  0  0  0
   -3.7970    1.3888   -0.0817 C   0  0  0  0  0  0  0  0  0  0  0  0
   -3.2707    2.3450    0.0148 H   0  0  0  0  0  0  0  0  0  0  0  0
    2.9579    1.0914   -1.1095 C   0  0  0  0  0  0  0  0  0  0  0  0
   -3.7479   -1.0003   -0.5625 C   0  0  0  0  0  0  0  0  0  0  0  0
   -3.1838   -1.9068   -0.8325 H   0  0  0  0  0  0  0  0  0  0  0  0
   -5.1160   -1.0940   -0.2924 C   0  0  0  0  0  0  0  0  0  0  0  0
   -5.6353   -2.0596   -0.3642 H   0  0  0  0  0  0  0  0  0  0  0  0
    4.2592    1.5552   -0.7637 C   0  0  0  0  0  0  0  0  0  0  0  0
    5.1455    1.1284   -1.2558 H   0  0  0  0  0  0  0  0  0  0  0  0
   -5.1669    1.2923    0.1917 C   0  0  0  0  0  0  0  0  0  0  0  0
   -5.7329    2.1851    0.4927 H   0  0  0  0  0  0  0  0  0  0  0  0
  3  8  1  0  0  0  0
  3 12  1  0  0  0  0
  4  3  1  0  0  0  0
  5 29  1  0  0  0  0
  5  1  1  0  0  0  0
  6  7  1  0  0  0  0
  6 18  1  0  0  0  0
  8  2  2  0  0  0  0
  9 10  1  0  0  0  0
 10 18  2  0  0  0  0
 10 11  1  0  0  0  0
 12 20  1  0  0  0  0
 13 17  1  0  0  0  0
 14 13  1  0  0  0  0
 15 13  1  0  0  0  0
 15 22  1  0  0  0  0
 16 15  1  0  0  0  0
 17  8  1  6  0  0  0
 17  9  1  0  0  0  0
 18 19  1  0  0  0  0
 20 21  1  0  0  0  0
 20 29  2  0  0  0  0
 22 27  1  0  0  0  0
 22  9  2  0  0  0  0
 23 12  2  0  0  0  0
 23 25  1  0  0  0  0
 24 23  1  0  0  0  0
 25  5  2  0  0  0  0
 26 25  1  0  0  0  0
 27  6  2  0  0  0  0
 28 27  1  0  0  0  0
 29 30  1  0  0  0  0
M  END
