10
q = -1.0, confidence = 0.0

 22 23  0  0  1  0  0  0  0  0999 V2000
    0.3737    2.9494   -0.5653 O   0  0  0  0  0  0  0  0  0  0  0  0
   -1.7216    2.9183    0.3026 O   0  0  0  0  0  0  0  0  0  0  0  0
   -0.5629   -1.1506   -1.6033 C   0  0  0  0  0  3  0  0  0  0  0  0
   -0.1064   -1.9616   -2.1873 H   0  0  0  0  0  0  0  0  0  0  0  0
   -0.6688    2.3477   -0.3404 C   0  0  0  0  0  0  0  0  0  0  0  0
   -2.2468    0.2339   -0.7361 C   0  0  0  0  0  0  0  0  0  0  0  0
   -3.0450   -1.9754   -1.4624 C   0  0  0  0  0  0  0  0  0  0  0  0
   -2.8553   -2.9699   -1.8936 H   0  0  0  0  0  0  0  0  0  0  0  0
   -2.0061   -1.0535   -1.3105 C   0  0  0  0  0  0  0  0  0  0  0  0
    0.0037    0.1606   -1.4724 C   0  0  0  0  0  3  0  0  0  0  0  0
    0.9140    0.5547   -1.9474 H   0  0  0  0  0  0  0  0  0  0  0  0
   -0.9377    0.9373   -0.6957 C   0  0  1  0  0  3  0  0  0  0  0  0
   -3.5308    0.5880   -0.3116 C   0  0  0  0  0  0  0  0  0  0  0  0
   -3.7132    1.5705    0.1421 H   0  0  0  0  0  0  0  0  0  0  0  0
   -4.5781   -0.3423   -0.4828 C   0  0  0  0  0  0  0  0  0  0  0  0
   -5.5961   -0.0719   -0.1637 H   0  0  0  0  0  0  0  0  0  0  0  0
   -4.3415   -1.6042   -1.0498 C   0  0  0  0  0  0  0  0  0  0  0  0
   -5.1743   -2.3134   -1.1713 H   0  0  0  0  0  0  0  0  0  0  0  0
   -1.5218    4.2704    0.7229 C   0  0  0  0  0  0  0  0  0  0  0  0
   -0.6776    4.3399    1.4389 H   0  0  0  0  0  0  0  0  0  0  0  0
   -2.4630    4.5815    1.2098 H   0  0  0  0  0  0  0  0  0  0  0  0
   -1.2959    4.9264   -0.1418 H   0  0  0  0  0  0  0  0  0  0  0  0
  1  5  2  0  0  0  0
  2 19  1  0  0  0  0
  3 10  1  0  0  0  0
  3  9  1  0  0  0  0
  4  3  1  0  0  0  0
  5  2  1  0  0  0  0
  6 12  1  0  0  0  0
  6 13  1  0  0  0  0
  7  9  1  0  0  0  0
  7 17  2  0  0  0  0
  8  7  1  0  0  0  0
  9  6  2  0  0  0  0
 10 12  1  0  0  0  0
 11 10  1  0  0  0  0
 12  5  1  6  0  0  0
 13 14  1  0  0  0  0
 15 13  2  0  0  0  0
 15 16  1  0  0  0  0
 17 15  1  0  0  0  0
 18 17  1  0  0  0  0
 19 21  1  0  0  0  0
 19 20  1  0  0  0  0
 22 19  1  0  0  0  0
M  END
