3
q = 0.0, confidence = 0.976

 53 56  0  0  0  0  0  0  0  0999 V2000
   -0.1357   -0.2843   -0.9467 N   0  0  0  0  0  0  0  0  0  0  0  0
   -1.6551    0.7037   -1.0971 P   0  0  2  0  0  0  0  0  0  0  0  0
    0.9893    0.3625   -0.5906 C   0  0  0  0  0  2  0  0  0  0  0  0
    0.8724    1.8533   -0.6282 C   0  0  0  0  0  0  0  0  0  0  0  0
    0.9979    2.4934   -1.8839 C   0  0  0  0  0  0  0  0  0  0  0  0
    1.1468    1.8842   -2.7886 H   0  0  0  0  0  0  0  0  0  0  0  0
    0.9358    3.8897   -1.9745 C   0  0  0  0  0  0  0  0  0  0  0  0
    1.0399    4.3742   -2.9572 H   0  0  0  0  0  0  0  0  0  0  0  0
    0.7408    4.6664   -0.8211 C   0  0  0  0  0  0  0  0  0  0  0  0
    0.6907    5.7631   -0.8946 H   0  0  0  0  0  0  0  0  0  0  0  0
    0.6157    4.0344    0.4263 C   0  0  0  0  0  0  0  0  0  0  0  0
    0.4564    4.6326    1.3364 H   0  0  0  0  0  0  0  0  0  0  0  0
    0.6900    2.6390    0.5287 C   0  0  0  0  0  0  0  0  0  0  0  0
    0.5794    2.1515    1.5059 H   0  0  0  0  0  0  0  0  0  0  0  0
   -0.1583   -1.7273   -1.2018 C   0  0  0  0  0  0  0  0  0  0  0  0
    0.8126   -2.0264   -1.6316 H   0  0  0  0  0  0  0  0  0  0  0  0
   -0.9676   -1.9589   -1.9158 H   0  0  0  0  0  0  0  0  0  0  0  0
   -0.3366   -2.3030   -0.2742 H   0  0  0  0  0  0  0  0  0  0  0  0
   -2.8478   -0.1983    0.1782 C   0  0  0  0  0  0  0  0  0  0  0  0
   -2.1450    0.3199    1.4523 C   0  0  0  0  0  0  0  0  0  0  0  0
   -0.9866   -0.3053    1.9754 C   0  0  0  0  0  0  0  0  0  0  0  0
   -0.5792   -1.2059    1.5035 H   0  0  0  0  0  0  0  0  0  0  0  0
   -0.3334    0.2007    3.1070 C   0  0  0  0  0  0  0  0  0  0  0  0
    0.5578   -0.3180    3.4890 H   0  0  0  0  0  0  0  0  0  0  0  0
   -0.8001    1.3675    3.7314 C   0  0  0  0  0  0  0  0  0  0  0  0
   -0.2804    1.7696    4.6138 H   0  0  0  0  0  0  0  0  0  0  0  0
   -1.9240    2.0222    3.2056 C   0  0  0  0  0  0  0  0  0  0  0  0
   -2.2954    2.9462    3.6738 H   0  0  0  0  0  0  0  0  0  0  0  0
   -2.5873    1.5058    2.0831 C   0  0  0  0  0  0  0  0  0  0  0  0
   -3.4686    2.0304    1.6898 H   0  0  0  0  0  0  0  0  0  0  0  0
   -4.2440    0.4433    0.0279 C   0  0  0  0  0  0  0  0  0  0  0  0
   -4.5484    1.4962   -0.8554 C   0  0  0  0  0  0  0  0  0  0  0  0
   -3.7823    1.9060   -1.5306 H   0  0  0  0  0  0  0  0  0  0  0  0
   -5.8407    2.0470   -0.9039 C   0  0  0  0  0  0  0  0  0  0  0  0
   -6.0526    2.8645   -1.6093 H   0  0  0  0  0  0  0  0  0  0  0  0
   -6.8498    1.5592   -0.0639 C   0  0  0  0  0  0  0  0  0  0  0  0
   -7.8615    1.9903   -0.1027 H   0  0  0  0  0  0  0  0  0  0  0  0
   -6.5584    0.5104    0.8246 C   0  0  0  0  0  0  0  0  0  0  0  0
   -7.3412    0.1148    1.4894 H   0  0  0  0  0  0  0  0  0  0  0  0
   -5.2730   -0.0419    0.8655 C   0  0  0  0  0  0  0  0  0  0  0  0
   -5.0555   -0.8681    1.5586 H   0  0  0  0  0  0  0  0  0  0  0  0
   -3.0251   -1.7160    0.0737 C   0  0  0  0  0  0  0  0  0  0  0  0
   -2.7681   -2.6034    1.1401 C   0  0  0  0  0  0  0  0  0  0  0  0
   -2.4017   -2.2214    2.1013 H   0  0  0  0  0  0  0  0  0  0  0  0
   -2.9928   -3.9832    1.0049 C   0  0  0  0  0  0  0  0  0  0  0  0
   -2.7775   -4.6490    1.8544 H   0  0  0  0  0  0  0  0  0  0  0  0
   -3.4936   -4.5080   -0.1941 C   0  0  0  0  0  0  0  0  0  0  0  0
   -3.6618   -5.5901   -0.3019 H   0  0  0  0  0  0  0  0  0  0  0  0
   -3.8050   -3.6304   -1.2450 C   0  0  0  0  0  0  0  0  0  0  0  0
   -4.2321   -4.0189   -2.1821 H   0  0  0  0  0  0  0  0  0  0  0  0
   -3.5899   -2.2539   -1.1060 C   0  0  0  0  0  0  0  0  0  0  0  0
   -3.8672   -1.5794   -1.9261 H   0  0  0  0  0  0  0  0  0  0  0  0
   -2.2169    0.0467   -3.0441 Cl  0  0  0  0  0  0  0  0  0  0  0  0
  1  3  1  0  0  0  0
  2 53  1  6  0  0  0
  2  1  1  0  0  0  0
  2 19  1  0  0  0  0
  4  3  1  0  0  0  0
  4 13  1  0  0  0  0
  5  4  2  0  0  0  0
  6  5  1  0  0  0  0
  7  5  1  0  0  0  0
  7  9  2  0  0  0  0
  8  7  1  0  0  0  0
  9 11  1  0  0  0  0
 10  9  1  0  0  0  0
 11 13  2  0  0  0  0
 11 12  1  0  0  0  0
 13 14  1  0  0  0  0
 15  1  1  0  0  0  0
 15 18  1  0  0  0  0
 16 15  1  0  0  0  0
 17 15  1  0  0  0  0
 19 20  1  0  0  0  0
 20 21  2  0  0  0  0
 20 29  1  0  0  0  0
 21 23  1  0  0  0  0
 22 21  1  0  0  0  0
 23 24  1  0  0  0  0
 23 25  2  0  0  0  0
 25 26  1  0  0  0  0
 27 28  1  0  0  0  0
 27 25  1  0  0  0  0
 29 27  2  0  0  0  0
 30 29  1  0  0  0  0
 31 19  1  0  0  0  0
 31 40  1  0  0  0  0
 32 31  2  0  0  0  0
 33 32  1  0  0  0  0
 34 32  1  0  0  0  0
 34 36  2  0  0  0  0
 35 34  1  0  0  0  0
 36 38  1  0  0  0  0
 37 36  1  0  0  0  0
 38 40  2  0  0  0  0
 38 39  1  0  0  0  0
 40 41  1  0  0  0  0
 42 19  1  0  0  0  0
 42 43  1  0  0  0  0
 43 44  1  0  0  0  0
 45 43  2  0  0  0  0
 45 46  1  0  0  0  0
 47 45  1  0  0  0  0
 48 47  1  0  0  0  0
 49 51  1  0  0  0  0
 49 47  2  0  0  0  0
 50 49  1  0  0  0  0
 51 42  2  0  0  0  0
 52 51  1  0  0  0  0
M  END
