22
q = -1.0

 47 46  0  0  1  0  0  0  0  0999 V2000
   -1.0395   -1.1291    1.3176 S   0  0  0  0  0  0  0  0  0  0  0  0
    3.9098   -0.7438    2.0709 F   0  0  0  0  0  0  0  0  0  0  0  0
    4.0242   -2.1380    0.3963 F   0  0  0  0  0  0  0  0  0  0  0  0
    4.5154   -0.0330    0.0959 F   0  0  0  0  0  0  0  0  0  0  0  0
    0.0826    1.6925    2.3778 F   0  0  0  0  0  0  0  0  0  0  0  0
    2.2455    1.9443    2.4179 F   0  0  0  0  0  0  0  0  0  0  0  0
    1.3581    0.0400    3.0054 F   0  0  0  0  0  0  0  0  0  0  0  0
    2.7780    0.9024   -1.8948 F   0  0  0  0  0  0  0  0  0  0  0  0
    2.1622    2.9337   -1.4841 F   0  0  0  0  0  0  0  0  0  0  0  0
    0.9527    1.6995   -2.8058 F   0  0  0  0  0  0  0  0  0  0  0  0
   -0.5119    4.1065   -1.2149 F   0  0  0  0  0  0  0  0  0  0  0  0
    0.7668    3.7667    0.5252 F   0  0  0  0  0  0  0  0  0  0  0  0
   -1.3766    3.8657    0.7786 F   0  0  0  0  0  0  0  0  0  0  0  0
   -3.7434    0.9116    0.7790 O   0  0  0  0  0  0  0  0  0  0  0  0
   -3.4151    2.7516   -0.5110 O   0  0  0  0  0  0  0  0  0  0  0  0
   -2.8504   -2.1732   -0.9572 O   0  0  0  0  0  0  0  0  0  0  0  0
   -2.9968   -0.2108   -2.0732 O   0  0  0  0  0  0  0  0  0  0  0  0
   -1.9758   -2.6942    1.7350 C   0  0  0  0  0  0  0  0  0  0  0  0
   -3.3364   -2.3101    2.3017 C   0  0  0  0  0  0  0  0  0  0  0  0
   -1.0614   -3.4326    2.7093 C   0  0  0  0  0  0  0  0  0  0  0  0
    3.6665   -0.8689    0.7427 C   0  0  0  0  0  0  0  0  0  0  0  0
    2.2432   -0.5751    0.4284 C   0  0  0  0  0  2  0  0  0  0  0  0
    1.4244    0.5770    0.6949 C   0  0  1  0  0  3  0  0  0  0  0  0
    1.2575    1.0659    2.1249 C   0  0  0  0  0  0  0  0  0  0  0  0
    0.8362    1.1725   -0.5030 C   0  0  2  0  0  3  0  0  0  0  0  0
    1.6886    1.6783   -1.6578 C   0  0  0  0  0  0  0  0  0  0  0  0
   -0.4635    1.9143   -0.2844 C   0  0  0  0  0  0  0  0  0  0  0  0
   -0.4118    3.4274   -0.0532 C   0  0  0  0  0  0  0  0  0  0  0  0
   -1.5977    1.1817   -0.1449 C   0  0  0  0  0  0  0  0  0  0  0  0
   -2.9840    1.7455    0.0081 C   0  0  0  0  0  0  0  0  0  0  0  0
   -5.1170    1.2985    0.8996 C   0  0  0  0  0  0  0  0  0  0  0  0
   -1.4891   -0.3143   -0.2342 C   0  0  2  0  0  3  0  0  0  0  0  0
   -2.5032   -0.8713   -1.1731 C   0  0  0  0  0  0  0  0  0  0  0  0
   -3.8372   -2.6942   -1.8573 C   0  0  0  0  0  0  0  0  0  0  0  0
   -2.0881   -3.2525    0.7902 H   0  0  0  0  0  0  0  0  0  0  0  0
   -3.8979   -3.2279    2.5746 H   0  0  0  0  0  0  0  0  0  0  0  0
   -3.9302   -1.7426    1.5604 H   0  0  0  0  0  0  0  0  0  0  0  0
   -3.2313   -1.6869    3.2129 H   0  0  0  0  0  0  0  0  0  0  0  0
   -0.8866   -2.8453    3.6339 H   0  0  0  0  0  0  0  0  0  0  0  0
   -0.0773   -3.6549    2.2498 H   0  0  0  0  0  0  0  0  0  0  0  0
   -1.5352   -4.3925    3.0004 H   0  0  0  0  0  0  0  0  0  0  0  0
   -5.6058    1.3112   -0.0958 H   0  0  0  0  0  0  0  0  0  0  0  0
   -5.2041    2.3111    1.3414 H   0  0  0  0  0  0  0  0  0  0  0  0
   -5.5914    0.5477    1.5568 H   0  0  0  0  0  0  0  0  0  0  0  0
   -4.0496   -3.7223   -1.5136 H   0  0  0  0  0  0  0  0  0  0  0  0
   -3.4591   -2.7086   -2.8998 H   0  0  0  0  0  0  0  0  0  0  0  0
   -4.7565   -2.0765   -1.8334 H   0  0  0  0  0  0  0  0  0  0  0  0
  1 18  1  0  0  0  0
  3 21  1  0  0  0  0
  4 21  1  0  0  0  0
  8 26  1  0  0  0  0
 10 26  1  0  0  0  0
 11 28  1  0  0  0  0
 14 31  1  0  0  0  0
 15 30  2  0  0  0  0
 17 33  2  0  0  0  0
 18 19  1  0  0  0  0
 18 20  1  0  0  0  0
 19 36  1  0  0  0  0
 19 38  1  0  0  0  0
 20 41  1  0  0  0  0
 20 39  1  0  0  0  0
 21  2  1  0  0  0  0
 22 21  1  0  0  0  0
 23 22  1  6  0  0  0
 23 24  1  0  0  0  0
 24  5  1  0  0  0  0
 24  6  1  0  0  0  0
 24  7  1  0  0  0  0
 25 27  1  1  0  0  0
 25 23  1  0  0  0  0
 26  9  1  0  0  0  0
 26 25  1  0  0  0  0
 27 29  2  0  0  0  0
 27 28  1  0  0  0  0
 28 12  1  0  0  0  0
 28 13  1  0  0  0  0
 29 30  1  0  0  0  0
 30 14  1  0  0  0  0
 31 43  1  0  0  0  0
 31 44  1  0  0  0  0
 32 33  1  1  0  0  0
 32 29  1  0  0  0  0
 32  1  1  0  0  0  0
 33 16  1  0  0  0  0
 34 47  1  0  0  0  0
 34 45  1  0  0  0  0
 34 16  1  0  0  0  0
 35 18  1  0  0  0  0
 37 19  1  0  0  0  0
 40 20  1  0  0  0  0
 42 31  1  0  0  0  0
 46 34  1  0  0  0  0
M  END
