16
q = -1.0

 39 42  0  0  0  0  0  0  0  0999 V2000
    0.6463    0.6321    0.0602 P   0  0  0  0  0  0  0  0  0  0  0  0
   -0.2762    2.1109   -0.5008 C   0  0  0  0  0  0  0  0  0  0  0  0
    0.1775    3.4244   -0.5376 C   0  0  0  0  0  0  0  0  0  0  0  0
    1.2248    3.6587   -0.2904 H   0  0  0  0  0  0  0  0  0  0  0  0
   -0.7306    4.4614   -0.8778 C   0  0  0  0  0  0  0  0  0  0  0  0
   -0.3778    5.5036   -0.9165 H   0  0  0  0  0  0  0  0  0  0  0  0
   -2.0632    4.1681   -1.1447 C   0  0  0  0  0  0  0  0  0  0  0  0
   -2.7684    4.9782   -1.3911 H   0  0  0  0  0  0  0  0  0  0  0  0
   -2.5497    2.8269   -1.1204 C   0  0  0  0  0  0  0  0  0  0  0  0
   -3.9060    2.4881   -1.3949 C   0  0  0  0  0  0  0  0  0  0  0  0
   -4.6296    3.2867   -1.6208 H   0  0  0  0  0  0  0  0  0  0  0  0
   -4.2873    1.1550   -1.3820 C   0  0  0  0  0  0  0  0  0  0  0  0
   -5.3346    0.8830   -1.5914 H   0  0  0  0  0  0  0  0  0  0  0  0
   -3.3453    0.1189   -1.1233 C   0  0  0  0  0  0  0  0  0  0  0  0
   -3.7176   -0.9172   -1.1616 H   0  0  0  0  0  0  0  0  0  0  0  0
   -1.9964    0.3687   -0.8461 C   0  0  0  0  0  3  0  0  0  0  0  0
   -1.6213    1.7638   -0.8180 C   0  0  0  0  0  0  0  0  0  0  0  0
    2.3716    0.9966   -0.5099 C   0  0  0  0  0  0  0  0  0  0  0  0
    2.5922    0.9229   -1.9037 C   0  0  0  0  0  0  0  0  0  0  0  0
    1.7496    0.6634   -2.5617 H   0  0  0  0  0  0  0  0  0  0  0  0
    3.8587    1.1864   -2.4424 C   0  0  0  0  0  0  0  0  0  0  0  0
    4.0107    1.1309   -3.5313 H   0  0  0  0  0  0  0  0  0  0  0  0
    4.9304    1.5195   -1.5961 C   0  0  0  0  0  0  0  0  0  0  0  0
    5.9275    1.7191   -2.0173 H   0  0  0  0  0  0  0  0  0  0  0  0
    4.7182    1.6064   -0.2124 C   0  0  0  0  0  0  0  0  0  0  0  0
    5.5479    1.8820    0.4568 H   0  0  0  0  0  0  0  0  0  0  0  0
    3.4459    1.3540    0.3290 C   0  0  0  0  0  0  0  0  0  0  0  0
    3.2902    1.4479    1.4134 H   0  0  0  0  0  0  0  0  0  0  0  0
    0.7392    0.9386    1.8940 C   0  0  0  0  0  0  0  0  0  0  0  0
    1.5624    0.1439    2.7240 C   0  0  0  0  0  0  0  0  0  0  0  0
    2.2325   -0.6024    2.2772 H   0  0  0  0  0  0  0  0  0  0  0  0
    1.5436    0.2923    4.1188 C   0  0  0  0  0  0  0  0  0  0  0  0
    2.2027   -0.3329    4.7410 H   0  0  0  0  0  0  0  0  0  0  0  0
    0.6858    1.2282    4.7190 C   0  0  0  0  0  0  0  0  0  0  0  0
    0.6646    1.3408    5.8135 H   0  0  0  0  0  0  0  0  0  0  0  0
   -0.1406    2.0203    3.9076 C   0  0  0  0  0  0  0  0  0  0  0  0
   -0.8161    2.7604    4.3637 H   0  0  0  0  0  0  0  0  0  0  0  0
   -0.1113    1.8827    2.5108 C   0  0  0  0  0  0  0  0  0  0  0  0
   -0.7603    2.5165    1.8897 H   0  0  0  0  0  0  0  0  0  0  0  0
  1 29  1  0  0  0  0
  2  1  1  0  0  0  0
  3  2  1  0  0  0  0
  3  4  1  0  0  0  0
  5  3  2  0  0  0  0
  6  5  1  0  0  0  0
  7  9  2  0  0  0  0
  7  5  1  0  0  0  0
  8  7  1  0  0  0  0
  9 17  1  0  0  0  0
 10 12  2  0  0  0  0
 10  9  1  0  0  0  0
 11 10  1  0  0  0  0
 12 14  1  0  0  0  0
 13 12  1  0  0  0  0
 14 16  2  0  0  0  0
 15 14  1  0  0  0  0
 16 17  1  0  0  0  0
 17  2  2  0  0  0  0
 18  1  1  0  0  0  0
 18 27  1  0  0  0  0
 19 18  2  0  0  0  0
 20 19  1  0  0  0  0
 21 19  1  0  0  0  0
 21 23  2  0  0  0  0
 22 21  1  0  0  0  0
 23 25  1  0  0  0  0
 24 23  1  0  0  0  0
 25 27  2  0  0  0  0
 25 26  1  0  0  0  0
 27 28  1  0  0  0  0
 29 38  2  0  0  0  0
 29 30  1  0  0  0  0
 30 32  2  0  0  0  0
 31 30  1  0  0  0  0
 32 34  1  0  0  0  0
 32 33  1  0  0  0  0
 34 35  1  0  0  0  0
 36 37  1  0  0  0  0
 36 34  2  0  0  0  0
 38 36  1  0  0  0  0
 39 38  1  0  0  0  0
M  END
