2
q = -1.0, confidence = 0.012

 23 24  0  0  0  0  0  0  0  0999 V2000
    3.5151   -1.5486    0.9775 N   0  0  0  0  0  0  0  0  0  0  0  0
    0.1196   -0.6279   -0.2323 C   0  0  0  0  0  1  0  0  0  0  0  0
    5.2932   -0.2663    0.0740 N   0  0  0  0  0  0  0  0  0  0  0  0
    2.7249    0.2341   -0.7738 S   0  0  0  0  0  0  0  0  0  0  0  0
    1.4916   -0.7892    0.0241 C   0  0  0  0  0  0  0  0  0  0  0  0
    2.1639   -1.6523    0.8984 C   0  0  0  0  0  0  0  0  0  0  0  0
    1.6327   -2.4018    1.5037 H   0  0  0  0  0  0  0  0  0  0  0  0
    3.9748   -0.5978    0.1764 C   0  0  0  0  0  0  0  0  0  0  0  0
    6.3046   -1.0969    0.7295 C   0  0  0  0  0  0  0  0  0  0  0  0
    6.7721   -1.7672   -0.0326 H   0  0  0  0  0  0  0  0  0  0  0  0
    5.7779   -1.7387    1.4591 H   0  0  0  0  0  0  0  0  0  0  0  0
    7.3802   -0.2272    1.3841 C   0  0  0  0  0  0  0  0  0  0  0  0
    8.1696   -0.8829    1.8059 H   0  0  0  0  0  0  0  0  0  0  0  0
    6.9277    0.3259    2.2356 H   0  0  0  0  0  0  0  0  0  0  0  0
    7.9720    0.7670    0.3776 C   0  0  0  0  0  0  0  0  0  0  0  0
    8.7200    1.4245    0.8663 H   0  0  0  0  0  0  0  0  0  0  0  0
    8.5153    0.2069   -0.4168 H   0  0  0  0  0  0  0  0  0  0  0  0
    6.8593    1.6047   -0.2638 C   0  0  0  0  0  0  0  0  0  0  0  0
    7.2669    2.2801   -1.0440 H   0  0  0  0  0  0  0  0  0  0  0  0
    6.3840    2.2470    0.5090 H   0  0  0  0  0  0  0  0  0  0  0  0
    5.7822    0.7107   -0.8883 C   0  0  0  0  0  0  0  0  0  0  0  0
    4.9286    1.3223   -1.2431 H   0  0  0  0  0  0  0  0  0  0  0  0
    6.1968    0.1827   -1.7821 H   0  0  0  0  0  0  0  0  0  0  0  0
  2  5  1  0  0  0  0
  3  8  1  0  0  0  0
  3  9  1  0  0  0  0
  4  5  1  0  0  0  0
  4  8  1  0  0  0  0
  5  6  2  0  0  0  0
  6  1  1  0  0  0  0
  6  7  1  0  0  0  0
  8  1  2  0  0  0  0
  9 12  1  0  0  0  0
  9 11  1  0  0  0  0
 10  9  1  0  0  0  0
 12 13  1  0  0  0  0
 12 14  1  0  0  0  0
 15 16  1  0  0  0  0
 15 12  1  0  0  0  0
 17 15  1  0  0  0  0
 18 15  1  0  0  0  0
 18 20  1  0  0  0  0
 19 18  1  0  0  0  0
 21 18  1  0  0  0  0
 21  3  1  0  0  0  0
 22 21  1  0  0  0  0
 23 21  1  0  0  0  0
M  END
