4
q = -1.0

 22 22  0  0  0  0  0  0  0  0999 V2000
   -3.4303   -1.4288    0.1450 S   0  0  0  0  0  0  0  0  0  0  0  0
   -5.7345    0.0949    0.1216 O   0  0  0  0  0  0  0  0  0  0  0  0
   -5.7377    2.3639   -0.0727 O   0  0  0  0  0  0  0  0  0  0  0  0
   -2.7884    0.2193    0.0198 C   0  0  0  0  0  3  0  0  0  0  0  0
   -3.6565    1.2836   -0.0136 C   0  0  0  0  0  0  0  0  0  0  0  0
   -3.2559    2.3065   -0.0685 H   0  0  0  0  0  0  0  0  0  0  0  0
   -5.1116    1.1486    0.0212 C   0  0  0  0  0  0  0  0  0  0  0  0
   -7.1615    2.3060   -0.0417 C   0  0  0  0  0  0  0  0  0  0  0  0
   -7.5171    3.3503   -0.1132 H   0  0  0  0  0  0  0  0  0  0  0  0
   -7.5255    1.8400    0.8979 H   0  0  0  0  0  0  0  0  0  0  0  0
   -7.5591    1.7075   -0.8880 H   0  0  0  0  0  0  0  0  0  0  0  0
   -1.9473   -2.4277   -0.0239 C   0  0  0  0  0  0  0  0  0  0  0  0
   -1.1205   -2.3574   -1.1672 C   0  0  0  0  0  0  0  0  0  0  0  0
   -1.3729   -1.6535   -1.9741 H   0  0  0  0  0  0  0  0  0  0  0  0
    0.0089   -3.1825   -1.2751 C   0  0  0  0  0  0  0  0  0  0  0  0
    0.6589   -3.1012   -2.1598 H   0  0  0  0  0  0  0  0  0  0  0  0
    0.3060   -4.1110   -0.2627 C   0  0  0  0  0  0  0  0  0  0  0  0
    1.1920   -4.7578   -0.3505 H   0  0  0  0  0  0  0  0  0  0  0  0
   -0.5346   -4.2110    0.8580 C   0  0  0  0  0  0  0  0  0  0  0  0
   -0.3111   -4.9398    1.6527 H   0  0  0  0  0  0  0  0  0  0  0  0
   -1.6530   -3.3694    0.9821 C   0  0  0  0  0  0  0  0  0  0  0  0
   -2.3007   -3.4238    1.8702 H   0  0  0  0  0  0  0  0  0  0  0  0
  3  8  1  0  0  0  0
  3  7  1  0  0  0  0
  4  1  1  0  0  0  0
  5  4  2  0  0  0  0
  5  7  1  0  0  0  0
  6  5  1  0  0  0  0
  7  2  2  0  0  0  0
  8 10  1  0  0  0  0
  9  8  1  0  0  0  0
 11  8  1  0  0  0  0
 12  1  1  0  0  0  0
 12 21  1  0  0  0  0
 13 12  2  0  0  0  0
 14 13  1  0  0  0  0
 15 13  1  0  0  0  0
 15 17  2  0  0  0  0
 16 15  1  0  0  0  0
 17 19  1  0  0  0  0
 18 17  1  0  0  0  0
 19 21  2  0  0  0  0
 19 20  1  0  0  0  0
 21 22  1  0  0  0  0
M  END
