4
q = -2.0, confidence = 0.604

  7  6  0  0  0  0  0  0  0  0999 V2000
    2.1925   -1.7729    0.4797 F   0  0  0  0  0  0  0  0  0  0  0  0
    2.3263   -4.1225    0.4458 F   0  0  0  0  0  0  0  0  0  0  0  0
    1.5413   -3.0025   -1.4208 F   0  0  0  0  0  0  0  0  0  0  0  0
    0.0612   -2.9486    0.6324 C   0  0  0  0  0  3  0  0  0  0  0  0
   -0.0164   -3.1370    1.7237 H   0  0  0  0  0  0  0  0  0  0  0  0
   -0.7700   -3.4498    0.1057 H   0  0  0  0  0  0  0  0  0  0  0  0
    1.5435   -3.0834   -0.0165 B   0  0  0  0  0  0  0  0  0  0  0  0
  3  7  1  0  0  0  0
  4  5  1  0  0  0  0
  6  4  1  0  0  0  0
  7  2  1  0  0  0  0
  7  1  1  0  0  0  0
  7  4  1  0  0  0  0
M  END
