2
q = 0.0, confidence = 0.932

 26 27  0  0  0  0  0  0  0  0999 V2000
   -1.6865   -2.5495   -0.0524 O   0  0  0  0  0  0  0  0  0  0  0  0
   -1.3465   -0.2418    0.1248 C   0  0  0  0  0  3  0  0  0  0  0  0
   -1.0537    1.0043   -0.0604 C   0  0  0  0  0  3  0  0  0  0  0  0
   -1.3866    2.3534   -0.4473 C   0  0  0  0  0  0  0  0  0  0  0  0
   -2.3080    3.0995    0.3344 C   0  0  0  0  0  0  0  0  0  0  0  0
   -2.7729    2.6314    1.2148 H   0  0  0  0  0  0  0  0  0  0  0  0
   -2.6282    4.4180   -0.0108 C   0  0  0  0  0  0  0  0  0  0  0  0
   -3.3423    4.9827    0.6070 H   0  0  0  0  0  0  0  0  0  0  0  0
   -2.0493    5.0150   -1.1431 C   0  0  0  0  0  0  0  0  0  0  0  0
   -2.3084    6.0488   -1.4154 H   0  0  0  0  0  0  0  0  0  0  0  0
   -1.1441    4.2837   -1.9287 C   0  0  0  0  0  0  0  0  0  0  0  0
   -0.6952    4.7417   -2.8227 H   0  0  0  0  0  0  0  0  0  0  0  0
   -0.8036    2.9699   -1.5835 C   0  0  0  0  0  0  0  0  0  0  0  0
   -0.1009    2.4007   -2.2052 H   0  0  0  0  0  0  0  0  0  0  0  0
   -2.1991   -1.4146   -0.0279 C   0  0  0  0  0  0  0  0  0  0  0  0
   -3.6739   -1.2347   -0.1541 C   0  0  0  0  0  0  0  0  0  0  0  0
   -4.4748   -2.3990   -0.1928 C   0  0  0  0  0  0  0  0  0  0  0  0
   -3.9734   -3.3752   -0.1248 H   0  0  0  0  0  0  0  0  0  0  0  0
   -5.8638   -2.2962   -0.3160 C   0  0  0  0  0  0  0  0  0  0  0  0
   -6.4824   -3.2057   -0.3410 H   0  0  0  0  0  0  0  0  0  0  0  0
   -6.4696   -1.0304   -0.4096 C   0  0  0  0  0  0  0  0  0  0  0  0
   -7.5627   -0.9498   -0.5076 H   0  0  0  0  0  0  0  0  0  0  0  0
   -5.6803    0.1317   -0.3800 C   0  0  0  0  0  0  0  0  0  0  0  0
   -6.1530    1.1219   -0.4608 H   0  0  0  0  0  0  0  0  0  0  0  0
   -4.2897    0.0327   -0.2490 C   0  0  0  0  0  0  0  0  0  0  0  0
   -3.6805    0.9456   -0.2334 H   0  0  0  0  0  0  0  0  0  0  0  0
  1 15  2  0  0  0  0
  3  2  2  0  0  0  0
  4  3  1  0  0  0  0
  4  5  1  0  0  0  0
  5  6  1  0  0  0  0
  7  5  2  0  0  0  0
  7  8  1  0  0  0  0
  9  7  1  0  0  0  0
 10  9  1  0  0  0  0
 11 13  1  0  0  0  0
 11  9  2  0  0  0  0
 12 11  1  0  0  0  0
 13  4  2  0  0  0  0
 14 13  1  0  0  0  0
 15  2  1  0  0  0  0
 16 15  1  0  0  0  0
 17 16  1  0  0  0  0
 17 18  1  0  0  0  0
 19 17  2  0  0  0  0
 20 19  1  0  0  0  0
 21 23  2  0  0  0  0
 21 19  1  0  0  0  0
 22 21  1  0  0  0  0
 23 25  1  0  0  0  0
 24 23  1  0  0  0  0
 25 26  1  0  0  0  0
 25 16  2  0  0  0  0
M  END
