4
q = -1.0, confidence = 0.016

 35 35  0  0  0  0  0  0  0  0999 V2000
    8.1747    2.7354   -0.8089 O   0  0  0  0  0  0  0  0  0  0  0  0
    8.2217   -1.7151    1.5368 O   0  0  0  0  0  0  0  0  0  0  0  0
    6.3115   -0.3853   -0.2440 N   0  0  0  0  0  0  0  0  0  0  0  0
   -0.5984   -0.1002   -0.0575 C   0  0  0  0  0  3  0  0  0  0  0  0
    0.6494   -0.1600   -0.0913 C   0  0  0  0  0  0  0  0  0  0  0  0
    2.0596   -0.2197   -0.1286 C   0  0  0  0  0  0  0  0  0  0  0  0
    2.8595    0.9476    0.0424 C   0  0  0  0  0  0  0  0  0  0  0  0
    2.3602    1.9144    0.2022 H   0  0  0  0  0  0  0  0  0  0  0  0
    4.2451    0.8977    0.0054 C   0  0  0  0  0  0  0  0  0  0  0  0
    4.8069    1.8316    0.1298 H   0  0  0  0  0  0  0  0  0  0  0  0
    4.9393   -0.3363   -0.2058 C   0  0  0  0  0  0  0  0  0  0  0  0
    4.1375   -1.5098   -0.3731 C   0  0  0  0  0  0  0  0  0  0  0  0
    4.6104   -2.4887   -0.5193 H   0  0  0  0  0  0  0  0  0  0  0  0
    2.7514   -1.4474   -0.3374 C   0  0  0  0  0  0  0  0  0  0  0  0
    2.1675   -2.3705   -0.4664 H   0  0  0  0  0  0  0  0  0  0  0  0
    7.1324    0.7883    0.0361 C   0  0  0  0  0  0  0  0  0  0  0  0
    8.0889    0.4404    0.4681 H   0  0  0  0  0  0  0  0  0  0  0  0
    6.6549    1.4161    0.8138 H   0  0  0  0  0  0  0  0  0  0  0  0
    7.4007    1.6363   -1.2101 C   0  0  0  0  0  0  0  0  0  0  0  0
    7.9293    1.0194   -1.9825 H   0  0  0  0  0  0  0  0  0  0  0  0
    6.4339    1.9597   -1.6754 H   0  0  0  0  0  0  0  0  0  0  0  0
    7.0326   -1.6223   -0.5254 C   0  0  0  0  0  0  0  0  0  0  0  0
    7.9905   -1.3535   -1.0153 H   0  0  0  0  0  0  0  0  0  0  0  0
    6.4689   -2.2374   -1.2534 H   0  0  0  0  0  0  0  0  0  0  0  0
    7.3427   -2.4499    0.7202 C   0  0  0  0  0  0  0  0  0  0  0  0
    6.3954   -2.6904    1.2660 H   0  0  0  0  0  0  0  0  0  0  0  0
    7.7950   -3.4252    0.4057 H   0  0  0  0  0  0  0  0  0  0  0  0
    8.5387    3.5808   -1.8767 C   0  0  0  0  0  0  0  0  0  0  0  0
    9.1498    3.0464   -2.6440 H   0  0  0  0  0  0  0  0  0  0  0  0
    9.1420    4.4089   -1.4582 H   0  0  0  0  0  0  0  0  0  0  0  0
    7.6463    4.0133   -2.3917 H   0  0  0  0  0  0  0  0  0  0  0  0
    8.5346   -2.3631    2.7509 C   0  0  0  0  0  0  0  0  0  0  0  0
    7.6250   -2.5424    3.3734 H   0  0  0  0  0  0  0  0  0  0  0  0
    9.2257   -1.7061    3.3120 H   0  0  0  0  0  0  0  0  0  0  0  0
    9.0352   -3.3464    2.5811 H   0  0  0  0  0  0  0  0  0  0  0  0
  2 32  1  0  0  0  0
  3 11  1  0  0  0  0
  3 16  1  0  0  0  0
  5  4  3  0  0  0  0
  6  5  1  0  0  0  0
  6  7  1  0  0  0  0
  7  8  1  0  0  0  0
  9  7  2  0  0  0  0
  9 10  1  0  0  0  0
 11  9  1  0  0  0  0
 12 14  1  0  0  0  0
 12 11  2  0  0  0  0
 13 12  1  0  0  0  0
 14  6  2  0  0  0  0
 15 14  1  0  0  0  0
 16 17  1  0  0  0  0
 16 18  1  0  0  0  0
 19  1  1  0  0  0  0
 19 16  1  0  0  0  0
 20 19  1  0  0  0  0
 21 19  1  0  0  0  0
 22  3  1  0  0  0  0
 22 25  1  0  0  0  0
 23 22  1  0  0  0  0
 24 22  1  0  0  0  0
 25 26  1  0  0  0  0
 25  2  1  0  0  0  0
 27 25  1  0  0  0  0
 28 30  1  0  0  0  0
 28  1  1  0  0  0  0
 29 28  1  0  0  0  0
 31 28  1  0  0  0  0
 32 34  1  0  0  0  0
 32 33  1  0  0  0  0
 35 32  1  0  0  0  0
M  END
