1
q = 0.0, confidence = 0.994

 41 43  0  0  0  0  0  0  0  0999 V2000
   -1.3215   -0.1613    0.4524 C   0  0  0  0  0  2  0  0  0  0  0  0
   -2.0698    0.6847    1.1535 O   0  0  0  0  0  0  0  0  0  0  0  0
   -3.4308    0.4254    1.5494 C   0  0  0  0  0  0  0  0  0  0  0  0
   -4.0134    1.7323    2.0507 C   0  0  0  0  0  0  0  0  0  0  0  0
   -0.0664    0.4732    0.1073 C   0  0  0  0  0  0  0  0  0  0  0  0
    0.1583    1.8136   -0.1288 C   0  0  0  0  0  0  0  0  0  0  0  0
   -0.8567    2.8640   -0.3483 C   0  0  0  0  0  0  0  0  0  0  0  0
   -0.6382    4.1697    0.1401 C   0  0  0  0  0  0  0  0  0  0  0  0
   -1.5942    5.1726   -0.0703 C   0  0  0  0  0  0  0  0  0  0  0  0
   -2.7658    4.8901   -0.7903 C   0  0  0  0  0  0  0  0  0  0  0  0
   -2.9742    3.5998   -1.3089 C   0  0  0  0  0  0  0  0  0  0  0  0
   -2.0265    2.5935   -1.0929 C   0  0  0  0  0  0  0  0  0  0  0  0
    1.4204    2.3004   -0.3075 O   0  0  0  0  0  0  0  0  0  0  0  0
    2.5113    1.5291    0.0877 C   0  0  0  0  0  0  0  0  0  0  0  0
    3.4181    1.1264   -0.8763 C   0  0  0  0  0  0  0  0  0  0  0  0
    4.5753    0.3851   -0.4975 C   0  0  0  0  0  0  0  0  0  0  0  0
    5.5371   -0.0558   -1.4527 C   0  0  0  0  0  0  0  0  0  0  0  0
    6.6487   -0.7837   -1.0542 C   0  0  0  0  0  0  0  0  0  0  0  0
    6.8474   -1.1009    0.3164 C   0  0  0  0  0  0  0  0  0  0  0  0
    5.9295   -0.6855    1.2701 C   0  0  0  0  0  0  0  0  0  0  0  0
    4.7762    0.0624    0.8954 C   0  0  0  0  0  0  0  0  0  0  0  0
    3.8121    0.5040    1.8511 C   0  0  0  0  0  0  0  0  0  0  0  0
    2.6968    1.2260    1.4643 C   0  0  0  0  0  0  0  0  0  0  0  0
   -3.4208   -0.3504    2.3410 H   0  0  0  0  0  0  0  0  0  0  0  0
   -3.9935    0.0248    0.6836 H   0  0  0  0  0  0  0  0  0  0  0  0
   -5.0574    1.5717    2.3843 H   0  0  0  0  0  0  0  0  0  0  0  0
   -4.0123    2.4999    1.2521 H   0  0  0  0  0  0  0  0  0  0  0  0
   -3.4304    2.1226    2.9080 H   0  0  0  0  0  0  0  0  0  0  0  0
    0.7980   -0.1953   -0.0216 H   0  0  0  0  0  0  0  0  0  0  0  0
    0.2847    4.3864    0.6972 H   0  0  0  0  0  0  0  0  0  0  0  0
   -1.4215    6.1838    0.3280 H   0  0  0  0  0  0  0  0  0  0  0  0
   -3.5130    5.6801   -0.9603 H   0  0  0  0  0  0  0  0  0  0  0  0
   -3.8781    3.3787   -1.8964 H   0  0  0  0  0  0  0  0  0  0  0  0
   -2.1822    1.5895   -1.5142 H   0  0  0  0  0  0  0  0  0  0  0  0
    3.2359    1.3776   -1.9312 H   0  0  0  0  0  0  0  0  0  0  0  0
    5.3804    0.1892   -2.5145 H   0  0  0  0  0  0  0  0  0  0  0  0
    7.3821   -1.1199   -1.8026 H   0  0  0  0  0  0  0  0  0  0  0  0
    7.7329   -1.6797    0.6191 H   0  0  0  0  0  0  0  0  0  0  0  0
    6.0784   -0.9306    2.3331 H   0  0  0  0  0  0  0  0  0  0  0  0
    3.9692    0.2623    2.9135 H   0  0  0  0  0  0  0  0  0  0  0  0
    1.9510    1.5658    2.1970 H   0  0  0  0  0  0  0  0  0  0  0  0
  1  2  1  0  0  0  0
  2  3  1  0  0  0  0
  3  4  1  0  0  0  0
  3 24  1  0  0  0  0
  4 26  1  0  0  0  0
  4 28  1  0  0  0  0
  5  1  1  0  0  0  0
  6  5  2  0  0  0  0
  7  6  1  0  0  0  0
  7  8  1  0  0  0  0
  8 30  1  0  0  0  0
  9  8  2  0  0  0  0
  9 31  1  0  0  0  0
 10  9  1  0  0  0  0
 11 12  1  0  0  0  0
 11 10  2  0  0  0  0
 12  7  2  0  0  0  0
 13  6  1  0  0  0  0
 13 14  1  0  0  0  0
 14 23  1  0  0  0  0
 15 16  1  0  0  0  0
 15 14  2  0  0  0  0
 16 21  1  0  0  0  0
 17 18  1  0  0  0  0
 17 16  2  0  0  0  0
 18 19  2  0  0  0  0
 19 38  1  0  0  0  0
 19 20  1  0  0  0  0
 20 39  1  0  0  0  0
 21 20  2  0  0  0  0
 21 22  1  0  0  0  0
 22 40  1  0  0  0  0
 23 22  2  0  0  0  0
 23 41  1  0  0  0  0
 25  3  1  0  0  0  0
 27  4  1  0  0  0  0
 29  5  1  0  0  0  0
 32 10  1  0  0  0  0
 33 11  1  0  0  0  0
 34 12  1  0  0  0  0
 35 15  1  0  0  0  0
 36 17  1  0  0  0  0
 37 18  1  0  0  0  0
M  END
