1
q = -1.0

 23 24  0  0  1  0  0  0  0  0999 V2000
    0.9774    0.0005   -1.2931 C   0  0  1  0  0  3  0  0  0  0  0  0
    0.1867    1.1617   -1.5896 C   0  0  0  0  0  0  0  0  0  0  0  0
   -1.1044    0.7146   -2.0265 C   0  0  0  0  0  0  0  0  0  0  0  0
    2.3865    0.0003   -0.7246 C   0  0  1  0  0  0  0  0  0  0  0  0
    2.6116    1.2239    0.1418 C   0  0  0  0  0  0  0  0  0  0  0  0
    1.7390    1.5332    1.1354 C   0  0  0  0  0  0  0  0  0  0  0  0
    0.5886    0.7221    1.5461 C   0  0  0  0  0  3  0  0  0  0  0  0
    0.5028    2.2005   -1.4441 H   0  0  0  0  0  0  0  0  0  0  0  0
   -1.9525    1.3563   -2.2941 H   0  0  0  0  0  0  0  0  0  0  0  0
    3.1080    0.0006   -1.5681 H   0  0  0  0  0  0  0  0  0  0  0  0
    3.5054    1.8432   -0.0287 H   0  0  0  0  0  0  0  0  0  0  0  0
    1.9100    2.4537    1.7184 H   0  0  0  0  0  0  0  0  0  0  0  0
   -0.0115    1.1838    2.3450 H   0  0  0  0  0  0  0  0  0  0  0  0
    0.1867   -1.1607   -1.5903 C   0  0  0  0  0  0  0  0  0  0  0  0
   -1.1043   -0.7133   -2.0270 C   0  0  0  0  0  0  0  0  0  0  0  0
    0.5886   -0.7231    1.5456 C   0  0  0  0  0  3  0  0  0  0  0  0
    1.7390   -1.5339    1.1343 C   0  0  0  0  0  0  0  0  0  0  0  0
    2.6116   -1.2240    0.1409 C   0  0  0  0  0  0  0  0  0  0  0  0
    3.5054   -1.8432   -0.0301 H   0  0  0  0  0  0  0  0  0  0  0  0
    1.9099   -2.4549    1.7166 H   0  0  0  0  0  0  0  0  0  0  0  0
   -0.0115   -1.1855    2.3441 H   0  0  0  0  0  0  0  0  0  0  0  0
    0.5029   -2.1995   -1.4456 H   0  0  0  0  0  0  0  0  0  0  0  0
   -1.9525   -1.3549   -2.2950 H   0  0  0  0  0  0  0  0  0  0  0  0
  1 14  1  1  0  0  0
  1  4  1  0  0  0  0
  2  8  1  0  0  0  0
  2  1  1  0  0  0  0
  3  2  2  0  0  0  0
  4 10  1  6  0  0  0
  4 18  1  0  0  0  0
  4  5  1  0  0  0  0
  5  6  2  0  0  0  0
  6  7  1  0  0  0  0
  6 12  1  0  0  0  0
  7 13  1  0  0  0  0
  9  3  1  0  0  0  0
 11  5  1  0  0  0  0
 14 22  1  0  0  0  0
 15  3  1  0  0  0  0
 15 14  2  0  0  0  0
 16  7  1  0  0  0  0
 16 21  1  0  0  0  0
 17 16  1  0  0  0  0
 17 20  1  0  0  0  0
 18 17  2  0  0  0  0
 19 18  1  0  0  0  0
 23 15  1  0  0  0  0
M  END
