44
q = 0.0, confidence = 0.994

 48 51  0  0  1  0  0  0  0  0999 V2000
   -1.6922   -0.8204   -2.3753 O   0  0  0  0  0  0  0  0  0  0  0  0
   -0.7997   -0.4694   -2.5598 H   0  0  0  0  0  0  0  0  0  0  0  0
    0.5985   -0.5325    1.9827 O   0  0  0  0  0  0  0  0  0  0  0  0
   -1.5750   -0.2698    0.0138 C   0  0  1  0  0  0  0  0  0  0  0  0
   -0.3341    0.6476    0.2717 C   0  0  1  0  0  0  0  0  0  0  0  0
   -0.1624    1.3712   -0.5368 H   0  0  0  0  0  0  0  0  0  0  0  0
   -1.6199    0.8096    1.0705 C   0  0  1  0  0  0  0  0  0  0  0  0
   -1.5401    0.3966    2.0891 H   0  0  0  0  0  0  0  0  0  0  0  0
   -2.4706    2.0374    0.9884 C   0  0  0  0  0  0  0  0  0  0  0  0
   -2.1441    3.1602    0.2025 C   0  0  0  0  0  0  0  0  0  0  0  0
   -1.1949    3.1877   -0.3531 H   0  0  0  0  0  0  0  0  0  0  0  0
   -3.0113    4.2621    0.1323 C   0  0  0  0  0  0  0  0  0  0  0  0
   -2.7394    5.1284   -0.4897 H   0  0  0  0  0  0  0  0  0  0  0  0
   -4.2123    4.2656    0.8579 C   0  0  0  0  0  0  0  0  0  0  0  0
   -4.8913    5.1296    0.8011 H   0  0  0  0  0  0  0  0  0  0  0  0
   -4.5340    3.1637    1.6675 C   0  0  0  0  0  0  0  0  0  0  0  0
   -5.4685    3.1590    2.2488 H   0  0  0  0  0  0  0  0  0  0  0  0
   -3.6701    2.0631    1.7316 C   0  0  0  0  0  0  0  0  0  0  0  0
   -3.9344    1.1941    2.3540 H   0  0  0  0  0  0  0  0  0  0  0  0
   -2.2864   -0.0500   -1.3497 C   0  0  2  0  0  0  0  0  0  0  0  0
   -2.2344    1.0407   -1.5739 H   0  0  0  0  0  0  0  0  0  0  0  0
   -3.7521   -0.4342   -1.2528 C   0  0  0  0  0  0  0  0  0  0  0  0
   -4.7378    0.5449   -1.0292 C   0  0  0  0  0  0  0  0  0  0  0  0
   -4.4505    1.6049   -0.9650 H   0  0  0  0  0  0  0  0  0  0  0  0
   -6.0862    0.1796   -0.8954 C   0  0  0  0  0  0  0  0  0  0  0  0
   -6.8458    0.9569   -0.7205 H   0  0  0  0  0  0  0  0  0  0  0  0
   -6.4637   -1.1684   -0.9952 C   0  0  0  0  0  0  0  0  0  0  0  0
   -7.5214   -1.4557   -0.8930 H   0  0  0  0  0  0  0  0  0  0  0  0
   -5.4870   -2.1474   -1.2422 C   0  0  0  0  0  0  0  0  0  0  0  0
   -5.7781   -3.2047   -1.3377 H   0  0  0  0  0  0  0  0  0  0  0  0
   -4.1392   -1.7839   -1.3716 C   0  0  0  0  0  0  0  0  0  0  0  0
   -3.3726   -2.5432   -1.5795 H   0  0  0  0  0  0  0  0  0  0  0  0
   -1.5061   -1.7021    0.4578 C   0  0  0  0  0  0  0  0  0  0  0  0
   -0.5744   -2.5866   -0.1233 C   0  0  0  0  0  0  0  0  0  0  0  0
    0.1215   -2.2102   -0.8853 H   0  0  0  0  0  0  0  0  0  0  0  0
   -0.5203   -3.9299    0.2740 C   0  0  0  0  0  0  0  0  0  0  0  0
    0.2249   -4.6016   -0.1788 H   0  0  0  0  0  0  0  0  0  0  0  0
   -1.4090   -4.4122    1.2498 C   0  0  0  0  0  0  0  0  0  0  0  0
   -1.3675   -5.4666    1.5626 H   0  0  0  0  0  0  0  0  0  0  0  0
   -2.3506   -3.5428    1.8227 C   0  0  0  0  0  0  0  0  0  0  0  0
   -3.0558   -3.9146    2.5814 H   0  0  0  0  0  0  0  0  0  0  0  0
   -2.3962   -2.1967    1.4293 C   0  0  0  0  0  0  0  0  0  0  0  0
   -3.1408   -1.5177    1.8719 H   0  0  0  0  0  0  0  0  0  0  0  0
    0.9011    0.0812    0.8506 C   0  0  0  0  0  2  0  0  0  0  0  0
    1.5238   -1.3684    2.6815 C   0  0  0  0  0  0  0  0  0  0  0  0
    2.5214   -0.8954    2.7392 H   0  0  0  0  0  0  0  0  0  0  0  0
    1.1010   -1.5143    3.6916 H   0  0  0  0  0  0  0  0  0  0  0  0
    1.5926   -2.3433    2.1609 H   0  0  0  0  0  0  0  0  0  0  0  0
  1 20  1  0  0  0  0
  2  1  1  0  0  0  0
  3 45  1  0  0  0  0
  4 20  1  6  0  0  0
  4  5  1  0  0  0  0
  4 33  1  0  0  0  0
  4  7  1  0  0  0  0
  5  6  1  6  0  0  0
  5 44  1  0  0  0  0
  5  7  1  0  0  0  0
  7  8  1  1  0  0  0
  9  7  1  0  0  0  0
  9 18  1  0  0  0  0
 10  9  2  0  0  0  0
 11 10  1  0  0  0  0
 12 10  1  0  0  0  0
 12 14  2  0  0  0  0
 13 12  1  0  0  0  0
 14 16  1  0  0  0  0
 15 14  1  0  0  0  0
 16 18  2  0  0  0  0
 16 17  1  0  0  0  0
 18 19  1  0  0  0  0
 20 21  1  6  0  0  0
 20 22  1  0  0  0  0
 22 23  1  0  0  0  0
 23 24  1  0  0  0  0
 23 25  2  0  0  0  0
 25 26  1  0  0  0  0
 27 25  1  0  0  0  0
 27 28  1  0  0  0  0
 29 27  2  0  0  0  0
 30 29  1  0  0  0  0
 31 22  2  0  0  0  0
 31 29  1  0  0  0  0
 32 31  1  0  0  0  0
 33 42  1  0  0  0  0
 34 36  1  0  0  0  0
 34 33  2  0  0  0  0
 35 34  1  0  0  0  0
 36 38  2  0  0  0  0
 37 36  1  0  0  0  0
 38 39  1  0  0  0  0
 38 40  1  0  0  0  0
 40 41  1  0  0  0  0
 42 40  2  0  0  0  0
 42 43  1  0  0  0  0
 44  3  1  0  0  0  0
 45 46  1  0  0  0  0
 45 47  1  0  0  0  0
 48 45  1  0  0  0  0
M  END
