1
q = -1.0, confidence = 0.0

 10  9  0  0  0  0  0  0  0  0999 V2000
   -2.0223   -0.7438    0.2023 C   0  0  0  0  0  3  0  0  0  0  0  0
   -2.1770   -0.4511    1.3819 O   0  0  0  0  0  0  0  0  0  0  0  0
   -3.1451   -0.4810   -0.8129 C   0  0  0  0  0  0  0  0  0  0  0  0
   -4.7703    0.0086   -0.1537 S   0  0  0  0  0  0  0  0  0  0  0  0
   -4.3499    1.6363    0.5441 C   0  0  0  0  0  0  0  0  0  0  0  0
   -3.3048   -1.3975   -1.4159 H   0  0  0  0  0  0  0  0  0  0  0  0
   -2.7672    0.2870   -1.5241 H   0  0  0  0  0  0  0  0  0  0  0  0
   -5.2934    2.0762    0.9211 H   0  0  0  0  0  0  0  0  0  0  0  0
   -3.9226    2.3074   -0.2284 H   0  0  0  0  0  0  0  0  0  0  0  0
   -3.6304    1.5242    1.3770 H   0  0  0  0  0  0  0  0  0  0  0  0
  1  2  2  0  0  0  0
  3  4  1  0  0  0  0
  3  1  1  0  0  0  0
  4  5  1  0  0  0  0
  5  8  1  0  0  0  0
  5 10  1  0  0  0  0
  6  3  1  0  0  0  0
  7  3  1  0  0  0  0
  9  5  1  0  0  0  0
M  END
