1
q = -1.0

 29 29  0  0  0  0  0  0  0  0999 V2000
    2.8749   -0.2693   -0.0255 C   0  0  0  0  0  3  0  0  0  0  0  0
    2.3510   -2.6628    0.6614 C   0  0  0  0  0  0  0  0  0  0  0  0
    2.9035   -3.5751    0.9991 H   0  0  0  0  0  0  0  0  0  0  0  0
    1.7557   -2.2960    1.5357 H   0  0  0  0  0  0  0  0  0  0  0  0
    5.1952    0.3791   -0.4732 C   0  0  0  0  0  0  0  0  0  0  0  0
    5.9262    1.1612   -0.7385 H   0  0  0  0  0  0  0  0  0  0  0  0
    2.9160    2.8475    1.5078 C   0  0  0  0  0  0  0  0  0  0  0  0
    3.2580    1.8617    1.8787 H   0  0  0  0  0  0  0  0  0  0  0  0
    2.1008    3.2024    2.1709 H   0  0  0  0  0  0  0  0  0  0  0  0
    3.7730    3.5692    1.5930 H   0  0  0  0  0  0  0  0  0  0  0  0
    2.4224    2.7149    0.1501 N   0  0  0  0  0  0  0  0  0  0  0  0
    3.8281    0.7121   -0.3952 C   0  0  0  0  0  0  0  0  0  0  0  0
    1.4615   -3.0064   -0.3970 O   0  0  0  0  0  0  0  0  0  0  0  0
    5.6320   -0.9285   -0.2215 C   0  0  0  0  0  0  0  0  0  0  0  0
    6.7013   -1.1798   -0.2932 H   0  0  0  0  0  0  0  0  0  0  0  0
    4.6950   -1.9111    0.1263 C   0  0  0  0  0  0  0  0  0  0  0  0
    5.0268   -2.9438    0.3232 H   0  0  0  0  0  0  0  0  0  0  0  0
    3.3986    2.1249   -0.7586 C   0  0  0  0  0  0  0  0  0  0  0  0
    4.3136    2.7716   -0.8531 H   0  0  0  0  0  0  0  0  0  0  0  0
    2.9291    2.1035   -1.7677 H   0  0  0  0  0  0  0  0  0  0  0  0
    3.3281   -1.5889    0.2377 C   0  0  0  0  0  0  0  0  0  0  0  0
    0.4548   -3.8909    0.0325 C   0  0  0  0  0  0  0  0  0  0  0  0
    0.8744   -4.8590    0.4042 H   0  0  0  0  0  0  0  0  0  0  0  0
   -0.2036   -4.1035   -0.8333 H   0  0  0  0  0  0  0  0  0  0  0  0
   -0.1693   -3.4534    0.8507 H   0  0  0  0  0  0  0  0  0  0  0  0
    1.8711    3.9507   -0.3625 C   0  0  0  0  0  0  0  0  0  0  0  0
    2.6319    4.7728   -0.4630 H   0  0  0  0  0  0  0  0  0  0  0  0
    1.0704    4.3186    0.3123 H   0  0  0  0  0  0  0  0  0  0  0  0
    1.4296    3.7813   -1.3667 H   0  0  0  0  0  0  0  0  0  0  0  0
  1 21  1  0  0  0  0
  2  3  1  0  0  0  0
  2  4  1  0  0  0  0
  5 12  1  0  0  0  0
  5 14  2  0  0  0  0
  6  5  1  0  0  0  0
  7 10  1  0  0  0  0
  7  8  1  0  0  0  0
  7  9  1  0  0  0  0
 11  7  1  0  0  0  0
 12  1  2  0  0  0  0
 13 22  1  0  0  0  0
 13  2  1  0  0  0  0
 14 16  1  0  0  0  0
 15 14  1  0  0  0  0
 16 21  2  0  0  0  0
 16 17  1  0  0  0  0
 18 12  1  0  0  0  0
 18 11  1  0  0  0  0
 19 18  1  0  0  0  0
 20 18  1  0  0  0  0
 21  2  1  0  0  0  0
 22 23  1  0  0  0  0
 22 25  1  0  0  0  0
 24 22  1  0  0  0  0
 26 11  1  0  0  0  0
 26 28  1  0  0  0  0
 27 26  1  0  0  0  0
 29 26  1  0  0  0  0
M  END
