1
q = -1.0

 25 25  0  0  0  0  0  0  0  0999 V2000
    2.9393   -0.0688    0.1024 C   0  0  0  0  0  3  0  0  0  0  0  0
    2.0595   -2.9723    0.3311 O   0  0  0  0  0  0  0  0  0  0  0  0
    3.6379   -1.2482   -0.2624 C   0  0  0  0  0  0  0  0  0  0  0  0
    2.0354    2.8658    0.0440 O   0  0  0  0  0  0  0  0  0  0  0  0
    5.0443   -1.2936   -0.2064 C   0  0  0  0  0  0  0  0  0  0  0  0
    5.5677   -2.2251   -0.4781 H   0  0  0  0  0  0  0  0  0  0  0  0
    5.0990    1.0086    0.5357 C   0  0  0  0  0  0  0  0  0  0  0  0
    5.6686    1.9042    0.8361 H   0  0  0  0  0  0  0  0  0  0  0  0
    1.1412   -3.9386   -0.1139 C   0  0  0  0  0  0  0  0  0  0  0  0
    0.4254   -3.5226   -0.8665 H   0  0  0  0  0  0  0  0  0  0  0  0
    0.5622   -4.2843    0.7655 H   0  0  0  0  0  0  0  0  0  0  0  0
    1.6449   -4.8249   -0.5749 H   0  0  0  0  0  0  0  0  0  0  0  0
    5.7790   -0.1657    0.1851 C   0  0  0  0  0  0  0  0  0  0  0  0
    6.8788   -0.2014    0.2157 H   0  0  0  0  0  0  0  0  0  0  0  0
    3.6908    1.0616    0.5138 C   0  0  0  0  0  0  0  0  0  0  0  0
    2.8681   -2.4658   -0.7217 C   0  0  0  0  0  0  0  0  0  0  0  0
    2.2158   -2.1816   -1.5870 H   0  0  0  0  0  0  0  0  0  0  0  0
    3.5689   -3.2584   -1.0862 H   0  0  0  0  0  0  0  0  0  0  0  0
    2.9968    2.3428    0.9555 C   0  0  0  0  0  0  0  0  0  0  0  0
    2.4246    2.1563    1.8883 H   0  0  0  0  0  0  0  0  0  0  0  0
    3.7686    3.1208    1.1784 H   0  0  0  0  0  0  0  0  0  0  0  0
    2.5752    3.2090   -1.2141 C   0  0  0  0  0  0  0  0  0  0  0  0
    3.3675    3.9922   -1.1235 H   0  0  0  0  0  0  0  0  0  0  0  0
    1.7447    3.6100   -1.8283 H   0  0  0  0  0  0  0  0  0  0  0  0
    3.0146    2.3296   -1.7377 H   0  0  0  0  0  0  0  0  0  0  0  0
  1 15  1  0  0  0  0
  3  5  1  0  0  0  0
  3  1  2  0  0  0  0
  4 19  1  0  0  0  0
  5 13  2  0  0  0  0
  6  5  1  0  0  0  0
  7  8  1  0  0  0  0
  9  2  1  0  0  0  0
  9 11  1  0  0  0  0
 10  9  1  0  0  0  0
 12  9  1  0  0  0  0
 13 14  1  0  0  0  0
 13  7  1  0  0  0  0
 15  7  2  0  0  0  0
 15 19  1  0  0  0  0
 16  3  1  0  0  0  0
 16  2  1  0  0  0  0
 17 16  1  0  0  0  0
 18 16  1  0  0  0  0
 19 21  1  0  0  0  0
 19 20  1  0  0  0  0
 22 23  1  0  0  0  0
 22  4  1  0  0  0  0
 24 22  1  0  0  0  0
 25 22  1  0  0  0  0
M  END
