10
q = 0.0, confidence = 0.974

 25 26  0  0  1  0  0  0  0  0999 V2000
   -1.7189   -0.0735   -0.4549 C   0  0  1  0  0  0  0  0  0  0  0  0
   -2.6786    1.0209   -0.2247 O   0  0  0  0  0  0  0  0  0  0  0  0
   -3.8281    0.5660    0.3650 C   0  0  0  0  0  0  0  0  0  0  0  0
   -4.7192    1.3071    0.7017 O   0  0  0  0  0  0  0  0  0  0  0  0
   -3.7454   -0.9542    0.5011 C   0  0  0  0  0  0  0  0  0  0  0  0
   -2.6090   -1.3358   -0.4433 C   0  0  0  0  0  0  0  0  0  0  0  0
   -0.9886    0.1942   -1.7807 C   0  0  0  0  0  0  0  0  0  0  0  0
    0.4468    0.6081   -1.5308 C   0  0  0  0  0  3  0  0  0  0  0  0
    0.7468    1.4944   -0.4356 C   0  0  1  0  0  3  0  0  0  0  0  0
    0.1518    1.1136    0.8050 C   0  0  0  0  0  3  0  0  0  0  0  0
   -0.7181   -0.0384    0.6945 C   0  0  0  0  0  3  0  0  0  0  0  0
    1.6291    2.4966   -0.6254 O   0  0  0  0  0  0  0  0  0  0  0  0
    2.2120    3.0890    0.5304 C   0  0  0  0  0  0  0  0  0  0  0  0
   -4.7267   -1.4097    0.2717 H   0  0  0  0  0  0  0  0  0  0  0  0
   -3.5211   -1.1890    1.5635 H   0  0  0  0  0  0  0  0  0  0  0  0
   -3.0023   -1.5102   -1.4656 H   0  0  0  0  0  0  0  0  0  0  0  0
   -2.0375   -2.2345   -0.1455 H   0  0  0  0  0  0  0  0  0  0  0  0
   -1.0037   -0.7171   -2.4118 H   0  0  0  0  0  0  0  0  0  0  0  0
   -1.5447    0.9800   -2.3366 H   0  0  0  0  0  0  0  0  0  0  0  0
    1.0812    0.7445   -2.4215 H   0  0  0  0  0  0  0  0  0  0  0  0
    0.3620    1.6255    1.7534 H   0  0  0  0  0  0  0  0  0  0  0  0
   -1.0940   -0.4537    1.6447 H   0  0  0  0  0  0  0  0  0  0  0  0
    2.9698    3.8062    0.1668 H   0  0  0  0  0  0  0  0  0  0  0  0
    2.7049    2.3168    1.1617 H   0  0  0  0  0  0  0  0  0  0  0  0
    1.4564    3.6334    1.1365 H   0  0  0  0  0  0  0  0  0  0  0  0
  1  6  1  0  0  0  0
  1  2  1  1  0  0  0
  1 11  1  0  0  0  0
  2  3  1  0  0  0  0
  3  5  1  0  0  0  0
  3  4  2  0  0  0  0
  5 15  1  0  0  0  0
  6 17  1  0  0  0  0
  6  5  1  0  0  0  0
  7  8  1  0  0  0  0
  7  1  1  0  0  0  0
  8  9  1  0  0  0  0
  9 12  1  1  0  0  0
  9 10  1  0  0  0  0
 10 21  1  0  0  0  0
 11 10  1  0  0  0  0
 11 22  1  0  0  0  0
 12 13  1  0  0  0  0
 13 25  1  0  0  0  0
 13 24  1  0  0  0  0
 14  5  1  0  0  0  0
 16  6  1  0  0  0  0
 18  7  1  0  0  0  0
 19  7  1  0  0  0  0
 20  8  1  0  0  0  0
 23 13  1  0  0  0  0
M  END
