8
q = -1.0

 21 20  0  0  0  0  0  0  0  0999 V2000
    1.9333    0.8741   -0.0813 P   0  0  0  0  0  0  0  0  0  0  0  0
    4.4157   -1.2517    1.9330 F   0  0  0  0  0  0  0  0  0  0  0  0
    4.2574   -1.2799   -0.3760 F   0  0  0  0  0  0  0  0  0  0  0  0
    2.4215   -1.9637    0.9525 O   0  0  0  0  0  0  0  0  0  0  0  0
    3.1322    0.3903    0.8891 O   0  0  0  0  0  0  0  0  0  0  0  0
    1.1367    1.9552    0.8730 O   0  0  0  0  0  0  0  0  0  0  0  0
    2.6839    1.9691   -1.0876 O   0  0  0  0  0  0  0  0  0  0  0  0
    1.2841   -1.8867    0.3536 C   0  0  0  0  0  2  0  0  0  0  0  0
    0.4197   -3.0740    0.7277 C   0  0  0  0  0  0  0  0  0  0  0  0
    1.8349    3.0069    1.5425 C   0  0  0  0  0  0  0  0  0  0  0  0
    4.0111    1.7642   -1.5766 C   0  0  0  0  0  0  0  0  0  0  0  0
    3.6240   -1.0007    0.8434 B   0  0  0  0  0  0  0  0  0  0  0  0
   -0.2368   -3.3848   -0.1035 H   0  0  0  0  0  0  0  0  0  0  0  0
   -0.2337   -2.7698    1.5730 H   0  0  0  0  0  0  0  0  0  0  0  0
    1.0467   -3.9198    1.0750 H   0  0  0  0  0  0  0  0  0  0  0  0
    1.0750    3.5855    2.1015 H   0  0  0  0  0  0  0  0  0  0  0  0
    2.3408    3.6683    0.8094 H   0  0  0  0  0  0  0  0  0  0  0  0
    2.5890    2.5965    2.2459 H   0  0  0  0  0  0  0  0  0  0  0  0
    3.9858    1.6470   -2.6812 H   0  0  0  0  0  0  0  0  0  0  0  0
    4.4843    0.8694   -1.1264 H   0  0  0  0  0  0  0  0  0  0  0  0
    4.6214    2.6577   -1.3300 H   0  0  0  0  0  0  0  0  0  0  0  0
  1  6  1  0  0  0  0
  1  5  1  0  0  0  0
  3 12  1  0  0  0  0
  6 10  1  0  0  0  0
  7  1  1  0  0  0  0
  8  9  1  0  0  0  0
  8  4  1  0  0  0  0
  9 15  1  0  0  0  0
  9 14  1  0  0  0  0
 10 16  1  0  0  0  0
 10 18  1  0  0  0  0
 11 21  1  0  0  0  0
 11 20  1  0  0  0  0
 11  7  1  0  0  0  0
 12  5  1  0  0  0  0
 12  4  1  0  0  0  0
 12  2  1  0  0  0  0
 13  9  1  0  0  0  0
 17 10  1  0  0  0  0
 19 11  1  0  0  0  0
M  END
