9
q = -1.0

 32 33  0  0  0  0  0  0  0  0999 V2000
    3.7475   -0.5054    0.8687 Si  0  0  0  0  0  0  0  0  0  0  0  0
    1.4500    0.4936   -0.7076 C   0  0  0  0  0  0  0  0  0  0  0  0
    1.3720    1.4374   -0.1528 H   0  0  0  0  0  0  0  0  0  0  0  0
    2.3692   -0.5673   -0.4149 C   0  0  0  0  0  0  0  0  0  0  0  0
    2.1371   -1.5803   -1.4043 C   0  0  0  0  0  0  0  0  0  0  0  0
    2.6645   -2.5409   -1.4635 H   0  0  0  0  0  0  0  0  0  0  0  0
    1.1020   -1.1533   -2.2802 C   0  0  0  0  0  0  0  0  0  0  0  0
    0.7041   -1.7118   -3.1351 H   0  0  0  0  0  0  0  0  0  0  0  0
    0.6670    0.1333   -1.8426 C   0  0  0  0  0  3  0  0  0  0  0  0
   -0.1260    0.7355   -2.3031 H   0  0  0  0  0  0  0  0  0  0  0  0
    3.0914    0.0777    2.5471 C   0  0  0  0  0  0  0  0  0  0  0  0
    2.3423   -0.6302    2.9538 H   0  0  0  0  0  0  0  0  0  0  0  0
    2.6201    1.0777    2.4579 H   0  0  0  0  0  0  0  0  0  0  0  0
    3.9177    0.1650    3.2820 H   0  0  0  0  0  0  0  0  0  0  0  0
    4.5927   -2.1874    1.0254 C   0  0  0  0  0  0  0  0  0  0  0  0
    3.9094   -2.9552    1.4382 H   0  0  0  0  0  0  0  0  0  0  0  0
    5.4729   -2.1054    1.6953 H   0  0  0  0  0  0  0  0  0  0  0  0
    4.9582   -2.5342    0.0376 H   0  0  0  0  0  0  0  0  0  0  0  0
    5.0162    0.7641    0.2550 C   0  0  0  0  0  0  0  0  0  0  0  0
    4.9559    1.3274   -1.0373 C   0  0  0  0  0  0  0  0  0  0  0  0
    4.1360    1.0432   -1.7166 H   0  0  0  0  0  0  0  0  0  0  0  0
    5.9214    2.2466   -1.4777 C   0  0  0  0  0  0  0  0  0  0  0  0
    5.8481    2.6690   -2.4930 H   0  0  0  0  0  0  0  0  0  0  0  0
    6.9859    2.6407   -0.6448 C   0  0  0  0  0  0  0  0  0  0  0  0
    7.0528    2.0788    0.6484 C   0  0  0  0  0  0  0  0  0  0  0  0
    7.8769    2.3680    1.3210 H   0  0  0  0  0  0  0  0  0  0  0  0
    6.0893    1.1621    1.0869 C   0  0  0  0  0  0  0  0  0  0  0  0
    6.1803    0.7471    2.1051 H   0  0  0  0  0  0  0  0  0  0  0  0
    8.0206    3.6364   -1.1054 C   0  0  0  0  0  0  0  0  0  0  0  0
    9.0492    3.2398   -0.9780 H   0  0  0  0  0  0  0  0  0  0  0  0
    7.9656    4.5755   -0.5147 H   0  0  0  0  0  0  0  0  0  0  0  0
    7.8866    3.9021   -2.1718 H   0  0  0  0  0  0  0  0  0  0  0  0
  1 15  1  0  0  0  0
  1 11  1  0  0  0  0
  2  4  2  0  0  0  0
  2  3  1  0  0  0  0
  4  1  1  0  0  0  0
  5  4  1  0  0  0  0
  6  5  1  0  0  0  0
  7  9  1  0  0  0  0
  7  5  2  0  0  0  0
  8  7  1  0  0  0  0
  9  2  1  0  0  0  0
 10  9  1  0  0  0  0
 11 12  1  0  0  0  0
 11 14  1  0  0  0  0
 13 11  1  0  0  0  0
 15 16  1  0  0  0  0
 15 17  1  0  0  0  0
 18 15  1  0  0  0  0
 19  1  1  0  0  0  0
 19 27  1  0  0  0  0
 20 19  2  0  0  0  0
 21 20  1  0  0  0  0
 22 20  1  0  0  0  0
 22 24  2  0  0  0  0
 23 22  1  0  0  0  0
 24 25  1  0  0  0  0
 25 27  2  0  0  0  0
 25 26  1  0  0  0  0
 27 28  1  0  0  0  0
 29 30  1  0  0  0  0
 29 24  1  0  0  0  0
 29 31  1  0  0  0  0
 32 29  1  0  0  0  0
M  END
