6
q = 0.0, confidence = 0.988

 39 41  0  0  1  0  0  0  0  0999 V2000
   -1.2025    2.0909   -1.1336 O   0  0  0  0  0  0  0  0  0  0  0  0
   -0.0223    3.3157    0.4203 O   0  0  0  0  0  0  0  0  0  0  0  0
    2.9257    0.4492   -0.8178 O   0  0  0  0  0  0  0  0  0  0  0  0
    3.7157   -0.9701    0.7853 O   0  0  0  0  0  0  0  0  0  0  0  0
    0.7437    0.4642    1.1196 N   0  0  0  0  0  0  0  0  0  0  0  0
   -0.1842    0.2441    0.1885 C   0  0  0  0  0  2  0  0  0  0  0  0
   -0.0244    1.3741   -0.8438 C   0  0  2  0  0  0  0  0  0  0  0  0
    0.3840    0.9527   -1.7843 H   0  0  0  0  0  0  0  0  0  0  0  0
    0.8901    2.4163   -0.1800 C   0  0  2  0  0  0  0  0  0  0  0  0
    1.5728    2.9344   -0.8895 H   0  0  0  0  0  0  0  0  0  0  0  0
    1.6487    1.6172    0.8787 C   0  0  2  0  0  0  0  0  0  0  0  0
    1.7518    2.2088    1.8133 H   0  0  0  0  0  0  0  0  0  0  0  0
    3.0499    1.2195    0.3691 C   0  0  1  0  0  0  0  0  0  0  0  0
    3.5774    2.1769    0.1510 H   0  0  0  0  0  0  0  0  0  0  0  0
    3.9182    0.3354    1.2919 C   0  0  0  0  0  0  0  0  0  0  0  0
    4.9872    0.6443    1.2275 H   0  0  0  0  0  0  0  0  0  0  0  0
    3.6200    0.3580    2.3570 H   0  0  0  0  0  0  0  0  0  0  0  0
    0.9570   -0.3438    2.3139 C   0  0  0  0  0  0  0  0  0  0  0  0
    1.3361    0.3074    3.1250 H   0  0  0  0  0  0  0  0  0  0  0  0
    1.6956   -1.1442    2.1108 H   0  0  0  0  0  0  0  0  0  0  0  0
    0.0044   -0.7963    2.6318 H   0  0  0  0  0  0  0  0  0  0  0  0
    3.5849   -0.8289   -0.6317 C   0  0  0  0  0  0  0  0  0  0  0  0
    2.6894   -1.9365   -1.1509 C   0  0  0  0  0  0  0  0  0  0  0  0
    3.1605   -2.9221   -0.9765 H   0  0  0  0  0  0  0  0  0  0  0  0
    2.5095   -1.8103   -2.2346 H   0  0  0  0  0  0  0  0  0  0  0  0
    1.7193   -1.9046   -0.6255 H   0  0  0  0  0  0  0  0  0  0  0  0
    4.9537   -0.7891   -1.3157 C   0  0  0  0  0  0  0  0  0  0  0  0
    5.4789   -1.7541   -1.1789 H   0  0  0  0  0  0  0  0  0  0  0  0
    5.5868    0.0199   -0.9020 H   0  0  0  0  0  0  0  0  0  0  0  0
    4.8269   -0.6016   -2.3989 H   0  0  0  0  0  0  0  0  0  0  0  0
   -1.3208    3.1782   -0.2004 C   0  0  0  0  0  0  0  0  0  0  0  0
   -1.6533    4.4324   -1.0003 C   0  0  0  0  0  0  0  0  0  0  0  0
   -1.7237    5.3091   -0.3284 H   0  0  0  0  0  0  0  0  0  0  0  0
   -2.6199    4.3031   -1.5243 H   0  0  0  0  0  0  0  0  0  0  0  0
   -0.8640    4.6156   -1.7541 H   0  0  0  0  0  0  0  0  0  0  0  0
   -2.3391    2.8717    0.8929 C   0  0  0  0  0  0  0  0  0  0  0  0
   -2.3786    3.7081    1.6173 H   0  0  0  0  0  0  0  0  0  0  0  0
   -2.0546    1.9504    1.4342 H   0  0  0  0  0  0  0  0  0  0  0  0
   -3.3437    2.7270    0.4527 H   0  0  0  0  0  0  0  0  0  0  0  0
  1  7  1  0  0  0  0
  1 31  1  0  0  0  0
  3 22  1  0  0  0  0
  3 13  1  0  0  0  0
  4 15  1  0  0  0  0
  5 18  1  0  0  0  0
  6  5  1  0  0  0  0
  7  8  1  6  0  0  0
  7  9  1  0  0  0  0
  7  6  1  0  0  0  0
  9 10  1  6  0  0  0
  9  2  1  0  0  0  0
  9 11  1  0  0  0  0
 11  5  1  0  0  0  0
 11 12  1  1  0  0  0
 13 14  1  6  0  0  0
 13 11  1  0  0  0  0
 13 15  1  0  0  0  0
 15 17  1  0  0  0  0
 16 15  1  0  0  0  0
 18 21  1  0  0  0  0
 18 19  1  0  0  0  0
 20 18  1  0  0  0  0
 22  4  1  0  0  0  0
 23 24  1  0  0  0  0
 23 22  1  0  0  0  0
 23 26  1  0  0  0  0
 25 23  1  0  0  0  0
 27 28  1  0  0  0  0
 27 29  1  0  0  0  0
 27 22  1  0  0  0  0
 30 27  1  0  0  0  0
 31  2  1  0  0  0  0
 31 36  1  0  0  0  0
 32 33  1  0  0  0  0
 32 31  1  0  0  0  0
 34 32  1  0  0  0  0
 35 32  1  0  0  0  0
 36 38  1  0  0  0  0
 36 37  1  0  0  0  0
 39 36  1  0  0  0  0
M  END
