24
q = -1.0

 31 34  0  0  1  0  0  0  0  0999 V2000
   -3.6012    2.6250   -0.4908 O   0  0  0  0  0  0  0  0  0  0  0  0
   -4.3632   -2.7823    0.3027 O   0  0  0  0  0  0  0  0  0  0  0  0
   -1.7016   -1.6044   -0.3577 N   0  0  0  0  0  0  0  0  0  0  0  0
   -0.8664   -0.5987   -0.6407 N   0  0  0  0  0  0  0  0  0  0  0  0
   -1.3918    0.6381   -0.6844 N   0  0  0  0  0  0  0  0  0  0  0  0
    0.4418   -0.8932   -0.8634 N   0  0  0  0  0  0  0  0  0  0  0  0
   -4.1874   -1.5818    0.1279 C   0  0  0  0  0  0  0  0  0  0  0  0
   -2.8774   -0.9766   -0.2011 C   0  0  0  0  0  0  0  0  0  0  0  0
   -2.6840    0.4186   -0.4046 C   0  0  0  0  0  0  0  0  0  0  0  0
   -3.7687    1.4234   -0.3118 C   0  0  0  0  0  0  0  0  0  0  0  0
   -5.1082    0.8244    0.0253 C   0  0  0  0  0  0  0  0  0  0  0  0
   -6.2041    1.6997    0.1388 C   0  0  0  0  0  0  0  0  0  0  0  0
   -6.0188    2.7719   -0.0250 H   0  0  0  0  0  0  0  0  0  0  0  0
   -7.4780    1.2089    0.4498 C   0  0  0  0  0  0  0  0  0  0  0  0
   -8.3280    1.9025    0.5365 H   0  0  0  0  0  0  0  0  0  0  0  0
   -7.6703   -0.1700    0.6513 C   0  0  0  0  0  0  0  0  0  0  0  0
   -8.6712   -0.5569    0.8958 H   0  0  0  0  0  0  0  0  0  0  0  0
   -6.5881   -1.0519    0.5411 C   0  0  0  0  0  0  0  0  0  0  0  0
   -6.7037   -2.1357    0.6923 H   0  0  0  0  0  0  0  0  0  0  0  0
   -5.3028   -0.5722    0.2295 C   0  0  0  0  0  0  0  0  0  0  0  0
    1.2242    0.1080   -1.1322 C   0  0  0  0  0  0  0  0  0  0  0  0
    0.8429    1.1467   -1.1891 H   0  0  0  0  0  0  0  0  0  0  0  0
    2.6338   -0.1307   -1.3711 C   0  0  2  0  0  3  0  0  0  0  0  0
    3.3426   -1.3781   -1.2123 C   0  0  0  0  0  3  0  0  0  0  0  0
    2.8744   -2.3253   -0.9210 H   0  0  0  0  0  0  0  0  0  0  0  0
    4.7196   -1.1446   -1.4843 C   0  0  0  0  0  3  0  0  0  0  0  0
    5.5189   -1.8943   -1.4621 H   0  0  0  0  0  0  0  0  0  0  0  0
    4.8805    0.2510   -1.8117 C   0  0  0  0  0  0  0  0  0  0  0  0
    5.8223    0.7494   -2.0688 H   0  0  0  0  0  0  0  0  0  0  0  0
    3.6026    0.8712   -1.7343 C   0  0  0  0  0  0  0  0  0  0  0  0
    3.3826    1.9295   -1.9211 H   0  0  0  0  0  0  0  0  0  0  0  0
  1 10  2  0  0  0  0
  3  8  2  0  0  0  0
  4  3  1  0  0  0  0
  5  4  1  0  0  0  0
  5  9  2  0  0  0  0
  6  4  1  0  0  0  0
  7 20  1  0  0  0  0
  7  2  2  0  0  0  0
  8  7  1  0  0  0  0
  9 10  1  0  0  0  0
  9  8  1  0  0  0  0
 10 11  1  0  0  0  0
 11 12  2  0  0  0  0
 11 20  1  0  0  0  0
 12 14  1  0  0  0  0
 13 12  1  0  0  0  0
 14 15  1  0  0  0  0
 14 16  2  0  0  0  0
 16 17  1  0  0  0  0
 18 16  1  0  0  0  0
 18 19  1  0  0  0  0
 20 18  2  0  0  0  0
 21  6  2  0  0  0  0
 22 21  1  0  0  0  0
 23 24  1  0  0  0  0
 23 21  1  1  0  0  0
 24 25  1  0  0  0  0
 26 27  1  0  0  0  0
 26 24  1  0  0  0  0
 28 30  2  0  0  0  0
 28 26  1  0  0  0  0
 29 28  1  0  0  0  0
 30 23  1  0  0  0  0
 31 30  1  0  0  0  0
M  END
