4
q = -2.0, confidence = 0.502

 48 51  0  0  1  0  0  0  0  0999 V2000
    0.0597   -2.2179   -0.5728 O   0  0  0  0  0  0  0  0  0  0  0  0
    0.0451   -0.9882   -0.5852 C   0  0  0  0  0  0  0  0  0  0  0  0
   -1.1639   -0.0920   -0.5308 C   0  0  1  0  0  3  0  0  0  0  0  0
   -0.7359    1.2461   -0.8860 C   0  0  2  0  0  3  0  0  0  0  0  0
   -1.5524    2.4299   -1.3344 C   0  0  0  0  0  0  0  0  0  0  0  0
   -2.4554    2.5498   -0.7040 H   0  0  0  0  0  0  0  0  0  0  0  0
   -1.9206    2.2150   -2.3634 H   0  0  0  0  0  0  0  0  0  0  0  0
   -0.7172    3.7153   -1.3666 C   0  0  0  0  0  0  0  0  0  0  0  0
   -0.4969    4.0431   -0.3269 H   0  0  0  0  0  0  0  0  0  0  0  0
   -1.3047    4.5279   -1.8392 H   0  0  0  0  0  0  0  0  0  0  0  0
    0.5930    3.4799   -2.1254 C   0  0  0  0  0  0  0  0  0  0  0  0
    1.1452    4.4303   -2.2693 H   0  0  0  0  0  0  0  0  0  0  0  0
    0.3543    3.0995   -3.1433 H   0  0  0  0  0  0  0  0  0  0  0  0
    1.4927    2.4714   -1.3942 C   0  0  0  0  0  0  0  0  0  0  0  0
    2.2987    2.1011   -2.0617 H   0  0  0  0  0  0  0  0  0  0  0  0
    2.0120    2.9841   -0.5596 H   0  0  0  0  0  0  0  0  0  0  0  0
    0.7100    1.2796   -0.8898 C   0  0  2  0  0  3  0  0  0  0  0  0
    1.2086   -0.0296   -0.5236 C   0  0  2  0  0  3  0  0  0  0  0  0
    2.6174   -0.4463   -0.4440 C   0  0  0  0  0  0  0  0  0  0  0  0
    2.9761   -1.7908   -0.6982 C   0  0  0  0  0  0  0  0  0  0  0  0
    2.1767   -2.5110   -0.9181 H   0  0  0  0  0  0  0  0  0  0  0  0
    4.3110   -2.2144   -0.6571 C   0  0  0  0  0  0  0  0  0  0  0  0
    4.5402   -3.2680   -0.8660 H   0  0  0  0  0  0  0  0  0  0  0  0
    6.6573   -1.6011   -0.2813 O   0  0  0  0  0  0  0  0  0  0  0  0
    5.3343   -1.2961   -0.3476 C   0  0  0  0  0  0  0  0  0  0  0  0
    4.9918    0.0468   -0.0716 C   0  0  0  0  0  0  0  0  0  0  0  0
    5.7973    0.7479    0.1899 H   0  0  0  0  0  0  0  0  0  0  0  0
    3.6623    0.4587   -0.1192 C   0  0  0  0  0  0  0  0  0  0  0  0
    3.4340    1.5016    0.1349 H   0  0  0  0  0  0  0  0  0  0  0  0
   -2.5298   -0.6323   -0.4371 C   0  0  0  0  0  0  0  0  0  0  0  0
   -2.7612   -1.8177    0.3111 C   0  0  0  0  0  0  0  0  0  0  0  0
   -1.9146   -2.3106    0.8066 H   0  0  0  0  0  0  0  0  0  0  0  0
   -4.0340   -2.3691    0.4178 C   0  0  0  0  0  0  0  0  0  0  0  0
   -4.2121   -3.2823    1.0038 H   0  0  0  0  0  0  0  0  0  0  0  0
   -6.3384   -2.3741   -0.0626 O   0  0  0  0  0  0  0  0  0  0  0  0
   -5.1350   -1.7636   -0.2292 C   0  0  0  0  0  0  0  0  0  0  0  0
   -4.9260   -0.5974   -0.9913 C   0  0  0  0  0  0  0  0  0  0  0  0
   -5.7551   -0.1088   -1.5200 H   0  0  0  0  0  0  0  0  0  0  0  0
   -3.6380   -0.0486   -1.0868 C   0  0  0  0  0  0  0  0  0  0  0  0
   -3.5064    0.8456   -1.7082 H   0  0  0  0  0  0  0  0  0  0  0  0
   -7.4729   -1.8068   -0.6889 C   0  0  0  0  0  0  0  0  0  0  0  0
   -7.6709   -0.7715   -0.3303 H   0  0  0  0  0  0  0  0  0  0  0  0
   -8.3325   -2.4495   -0.4228 H   0  0  0  0  0  0  0  0  0  0  0  0
   -7.3680   -1.7847   -1.7971 H   0  0  0  0  0  0  0  0  0  0  0  0
    7.0523   -2.9375   -0.5302 C   0  0  0  0  0  0  0  0  0  0  0  0
    6.7808   -3.2657   -1.5587 H   0  0  0  0  0  0  0  0  0  0  0  0
    6.6003   -3.6461    0.1994 H   0  0  0  0  0  0  0  0  0  0  0  0
    8.1526   -2.9640   -0.4231 H   0  0  0  0  0  0  0  0  0  0  0  0
  2  1  2  0  0  0  0
  2  3  1  0  0  0  0
  2 18  1  0  0  0  0
  3 30  1  6  0  0  0
  4  5  1  6  0  0  0
  4  3  1  0  0  0  0
  5  6  1  0  0  0  0
  7  5  1  0  0  0  0
  8  5  1  0  0  0  0
  8  9  1  0  0  0  0
 10  8  1  0  0  0  0
 11 14  1  0  0  0  0
 11  8  1  0  0  0  0
 12 11  1  0  0  0  0
 13 11  1  0  0  0  0
 14 16  1  0  0  0  0
 15 14  1  0  0  0  0
 17 14  1  6  0  0  0
 17  4  1  0  0  0  0
 17 18  1  0  0  0  0
 18 19  1  6  0  0  0
 19 28  1  0  0  0  0
 20 22  1  0  0  0  0
 20 19  2  0  0  0  0
 21 20  1  0  0  0  0
 22 25  2  0  0  0  0
 23 22  1  0  0  0  0
 25 24  1  0  0  0  0
 25 26  1  0  0  0  0
 26 27  1  0  0  0  0
 28 26  2  0  0  0  0
 28 29  1  0  0  0  0
 30 31  1  0  0  0  0
 31 33  2  0  0  0  0
 31 32  1  0  0  0  0
 33 34  1  0  0  0  0
 36 35  1  0  0  0  0
 36 33  1  0  0  0  0
 37 36  2  0  0  0  0
 38 37  1  0  0  0  0
 39 37  1  0  0  0  0
 39 30  2  0  0  0  0
 40 39  1  0  0  0  0
 41 43  1  0  0  0  0
 41 42  1  0  0  0  0
 41 35  1  0  0  0  0
 44 41  1  0  0  0  0
 45 48  1  0  0  0  0
 45 24  1  0  0  0  0
 45 47  1  0  0  0  0
 46 45  1  0  0  0  0
M  END
