4
q = 0.0, confidence = 0.992

 57 59  0  0  1  0  0  0  0  0999 V2000
    1.2122    0.6584    0.5012 P   0  0  0  0  0  0  0  0  0  0  0  0
   -1.4364    0.2458    2.2255 N   0  0  0  0  0  0  0  0  0  0  0  0
   -2.7359    1.0558    0.6459 N   0  0  0  0  0  0  0  0  0  0  0  0
   -1.6549    0.2781    0.8809 C   0  0  0  0  0  2  0  0  0  0  0  0
   -2.3310    1.1599    2.9512 C   0  0  0  0  0  0  0  0  0  0  0  0
   -3.3918    1.4870    1.8921 C   0  0  0  0  0  0  0  0  0  0  0  0
   -3.2742    1.4184   -0.6712 C   0  0  0  0  0  0  0  0  0  0  0  0
   -3.2500    2.9373   -0.8789 C   0  0  0  0  0  0  0  0  0  0  0  0
   -4.6754    0.8350   -0.8854 C   0  0  0  0  0  0  0  0  0  0  0  0
   -0.1946   -0.2167    2.8584 C   0  0  2  0  0  0  0  0  0  0  0  0
    1.0021    0.6307    2.3634 C   0  0  0  0  0  0  0  0  0  0  0  0
   -0.0049   -1.7489    2.7567 C   0  0  0  0  0  0  0  0  0  0  0  0
   -1.2844   -2.4929    3.1525 C   0  0  0  0  0  0  0  0  0  0  0  0
    1.1679   -2.2298    3.6189 C   0  0  0  0  0  0  0  0  0  0  0  0
    1.1255    2.4269    0.0275 C   0  0  0  0  0  0  0  0  0  0  0  0
    0.4157    2.7800   -1.1376 C   0  0  0  0  0  0  0  0  0  0  0  0
    0.3763    4.1178   -1.5615 C   0  0  0  0  0  0  0  0  0  0  0  0
    1.0405    5.1080   -0.8211 C   0  0  0  0  0  0  0  0  0  0  0  0
    1.7529    4.7602    0.3397 C   0  0  0  0  0  0  0  0  0  0  0  0
    1.8027    3.4241    0.7613 C   0  0  0  0  0  0  0  0  0  0  0  0
    2.9644    0.2086    0.1900 C   0  0  0  0  0  0  0  0  0  0  0  0
    3.5041   -0.9542    0.7824 C   0  0  0  0  0  0  0  0  0  0  0  0
    4.8141   -1.3555    0.4865 C   0  0  0  0  0  0  0  0  0  0  0  0
    5.5929   -0.6102   -0.4142 C   0  0  0  0  0  0  0  0  0  0  0  0
    5.0560    0.5365   -1.0182 C   0  0  0  0  0  0  0  0  0  0  0  0
    3.7471    0.9478   -0.7207 C   0  0  0  0  0  0  0  0  0  0  0  0
   -1.7680    2.0637    3.2796 H   0  0  0  0  0  0  0  0  0  0  0  0
   -2.7543    0.6743    3.8525 H   0  0  0  0  0  0  0  0  0  0  0  0
   -3.6530    2.5620    1.8586 H   0  0  0  0  0  0  0  0  0  0  0  0
   -4.3299    0.9112    2.0483 H   0  0  0  0  0  0  0  0  0  0  0  0
   -2.5606    0.9546   -1.3850 H   0  0  0  0  0  0  0  0  0  0  0  0
   -3.5344    3.1771   -1.9223 H   0  0  0  0  0  0  0  0  0  0  0  0
   -2.2414    3.3521   -0.6903 H   0  0  0  0  0  0  0  0  0  0  0  0
   -3.9751    3.4566   -0.2195 H   0  0  0  0  0  0  0  0  0  0  0  0
   -5.0090    1.0147   -1.9261 H   0  0  0  0  0  0  0  0  0  0  0  0
   -5.4210    1.3107   -0.2160 H   0  0  0  0  0  0  0  0  0  0  0  0
   -4.6980   -0.2572   -0.6988 H   0  0  0  0  0  0  0  0  0  0  0  0
   -0.3199    0.0145    3.9385 H   0  0  0  0  0  0  0  0  0  0  0  0
    0.8581    1.6826    2.6812 H   0  0  0  0  0  0  0  0  0  0  0  0
    1.9484    0.2871    2.8211 H   0  0  0  0  0  0  0  0  0  0  0  0
    0.2080   -1.9595    1.6764 H   0  0  0  0  0  0  0  0  0  0  0  0
   -1.1559   -3.5860    3.0260 H   0  0  0  0  0  0  0  0  0  0  0  0
   -1.5349   -2.3129    4.2196 H   0  0  0  0  0  0  0  0  0  0  0  0
   -2.1538   -2.1777    2.5448 H   0  0  0  0  0  0  0  0  0  0  0  0
    1.3099   -3.3225    3.5049 H   0  0  0  0  0  0  0  0  0  0  0  0
    2.1314   -1.7465    3.3656 H   0  0  0  0  0  0  0  0  0  0  0  0
    0.9740   -2.0341    4.6949 H   0  0  0  0  0  0  0  0  0  0  0  0
   -0.1074    1.9898   -1.7014 H   0  0  0  0  0  0  0  0  0  0  0  0
   -0.1777    4.3881   -2.4730 H   0  0  0  0  0  0  0  0  0  0  0  0
    1.0080    6.1570   -1.1513 H   0  0  0  0  0  0  0  0  0  0  0  0
    2.2803    5.5351    0.9158 H   0  0  0  0  0  0  0  0  0  0  0  0
    2.3863    3.1593    1.6569 H   0  0  0  0  0  0  0  0  0  0  0  0
    2.8967   -1.5600    1.4715 H   0  0  0  0  0  0  0  0  0  0  0  0
    5.2281   -2.2582    0.9601 H   0  0  0  0  0  0  0  0  0  0  0  0
    6.6207   -0.9264   -0.6463 H   0  0  0  0  0  0  0  0  0  0  0  0
    5.6613    1.1226   -1.7256 H   0  0  0  0  0  0  0  0  0  0  0  0
    3.3384    1.8530   -1.1934 H   0  0  0  0  0  0  0  0  0  0  0  0
  1 11  1  0  0  0  0
  2 10  1  0  0  0  0
  2  5  1  0  0  0  0
  3  4  1  0  0  0  0
  3  6  1  0  0  0  0
  4  2  1  0  0  0  0
  5 27  1  0  0  0  0
  5 28  1  0  0  0  0
  6 30  1  0  0  0  0
  6  5  1  0  0  0  0
  7  3  1  0  0  0  0
  8 33  1  0  0  0  0
  8  7  1  0  0  0  0
  8 34  1  0  0  0  0
  9 37  1  0  0  0  0
  9  7  1  0  0  0  0
  9 36  1  0  0  0  0
 10 38  1  1  0  0  0
 11 39  1  0  0  0  0
 11 40  1  0  0  0  0
 11 10  1  0  0  0  0
 12 10  1  0  0  0  0
 12 13  1  0  0  0  0
 12 14  1  0  0  0  0
 13 43  1  0  0  0  0
 14 47  1  0  0  0  0
 15  1  1  0  0  0  0
 15 20  1  0  0  0  0
 16 15  2  0  0  0  0
 17 16  1  0  0  0  0
 17 18  2  0  0  0  0
 18 19  1  0  0  0  0
 19 20  2  0  0  0  0
 19 51  1  0  0  0  0
 20 52  1  0  0  0  0
 21  1  1  0  0  0  0
 21 22  1  0  0  0  0
 22 53  1  0  0  0  0
 23 22  2  0  0  0  0
 23 54  1  0  0  0  0
 24 23  1  0  0  0  0
 25 26  1  0  0  0  0
 25 24  2  0  0  0  0
 26 21  2  0  0  0  0
 29  6  1  0  0  0  0
 31  7  1  0  0  0  0
 32  8  1  0  0  0  0
 35  9  1  0  0  0  0
 41 12  1  0  0  0  0
 42 13  1  0  0  0  0
 44 13  1  0  0  0  0
 45 14  1  0  0  0  0
 46 14  1  0  0  0  0
 48 16  1  0  0  0  0
 49 17  1  0  0  0  0
 50 18  1  0  0  0  0
 55 24  1  0  0  0  0
 56 25  1  0  0  0  0
 57 26  1  0  0  0  0
M  END
