2
q = -1.0, confidence = 0.01

 31 31  0  0  1  0  0  0  0  0999 V2000
   -0.5194   -1.0348    1.0872 C   0  0  2  0  0  3  0  0  0  0  0  0
   -0.2005    0.3590    0.9836 C   0  0  0  0  0  3  0  0  0  0  0  0
   -0.3328    1.0266   -0.2977 C   0  0  1  0  0  3  0  0  0  0  0  0
   -1.5682    0.8061   -1.1785 C   0  0  0  0  0  0  0  0  0  0  0  0
   -2.8647    0.6385   -0.3104 C   0  0  0  0  0  0  0  0  0  0  0  0
   -3.0028   -0.8891    0.2440 C   0  0  0  0  0  0  0  0  0  0  0  0
   -1.6267   -1.6450    0.2251 C   0  0  0  0  0  0  0  0  0  0  0  0
   -0.3343   -1.6989    2.4358 C   0  0  0  0  0  0  0  0  0  0  0  0
    0.1117    2.4623   -0.3701 C   0  0  0  0  0  0  0  0  0  0  0  0
    1.1117    4.2721    0.7630 C   0  0  0  0  0  0  0  0  0  0  0  0
   -2.8239    1.6001    0.8108 C   0  0  0  0  0  0  0  0  0  0  0  0
   -4.0455    0.9845   -1.1245 C   0  0  0  0  0  0  0  0  0  0  0  0
   -3.5795   -0.8991    1.5996 C   0  0  0  0  0  0  0  0  0  0  0  0
   -3.8933   -1.6592   -0.6463 C   0  0  0  0  0  0  0  0  0  0  0  0
   -0.0992    3.1992   -1.3192 O   0  0  0  0  0  0  0  0  0  0  0  0
    0.7536    2.8841    0.7537 O   0  0  0  0  0  0  0  0  0  0  0  0
   -2.7581    2.4021    1.6608 N   0  0  0  0  0  0  0  0  0  0  0  0
   -4.9534    1.2904   -1.7969 N   0  0  0  0  0  0  0  0  0  0  0  0
   -3.9857   -0.9445    2.6964 N   0  0  0  0  0  0  0  0  0  0  0  0
   -4.5335   -2.3297   -1.3608 N   0  0  0  0  0  0  0  0  0  0  0  0
    0.1014    0.9292    1.8735 H   0  0  0  0  0  0  0  0  0  0  0  0
   -1.6862    1.7114   -1.8044 H   0  0  0  0  0  0  0  0  0  0  0  0
   -1.5174   -0.0437   -1.8815 H   0  0  0  0  0  0  0  0  0  0  0  0
   -1.3396   -1.7217   -0.8361 H   0  0  0  0  0  0  0  0  0  0  0  0
   -1.8223   -2.6823    0.5584 H   0  0  0  0  0  0  0  0  0  0  0  0
    0.4729   -1.2148    3.0184 H   0  0  0  0  0  0  0  0  0  0  0  0
   -1.2713   -1.6369    3.0298 H   0  0  0  0  0  0  0  0  0  0  0  0
   -0.0855   -2.7731    2.3203 H   0  0  0  0  0  0  0  0  0  0  0  0
    1.6313    4.4472    1.7217 H   0  0  0  0  0  0  0  0  0  0  0  0
    1.7740    4.5179   -0.0918 H   0  0  0  0  0  0  0  0  0  0  0  0
    0.2061    4.9066    0.6937 H   0  0  0  0  0  0  0  0  0  0  0  0
  1  8  1  1  0  0  0
  2  1  1  0  0  0  0
  2 21  1  0  0  0  0
  3  9  1  1  0  0  0
  3  2  1  0  0  0  0
  4  5  1  0  0  0  0
  4  3  1  0  0  0  0
  5  6  1  0  0  0  0
  5 11  1  0  0  0  0
  6 13  1  0  0  0  0
  7  6  1  0  0  0  0
  7 25  1  0  0  0  0
  7  1  1  0  0  0  0
  8 26  1  0  0  0  0
  8 27  1  0  0  0  0
  9 16  1  0  0  0  0
 10 29  1  0  0  0  0
 11 17  3  0  0  0  0
 12  5  1  0  0  0  0
 13 19  3  0  0  0  0
 14  6  1  0  0  0  0
 15  9  2  0  0  0  0
 16 10  1  0  0  0  0
 18 12  3  0  0  0  0
 20 14  3  0  0  0  0
 22  4  1  0  0  0  0
 23  4  1  0  0  0  0
 24  7  1  0  0  0  0
 28  8  1  0  0  0  0
 30 10  1  0  0  0  0
 31 10  1  0  0  0  0
M  END
