1
q = -1.0

 15 14  0  0  0  0  0  0  0  0999 V2000
    1.5927   -0.0982   -0.6596 C   0  0  0  0  0  3  0  0  0  0  0  0
    2.4612   -0.9319   -0.9719 C   0  0  0  0  0  0  0  0  0  0  0  0
    3.4809   -1.9253   -1.2921 C   0  0  0  0  0  0  0  0  0  0  0  0
    4.1032   -1.5572   -2.1406 H   0  0  0  0  0  0  0  0  0  0  0  0
    2.9868   -2.8479   -1.6757 H   0  0  0  0  0  0  0  0  0  0  0  0
    4.3987   -2.2936   -0.1095 C   0  0  0  0  0  0  0  0  0  0  0  0
    4.8932   -1.3704    0.2643 H   0  0  0  0  0  0  0  0  0  0  0  0
    3.7709   -2.6632    0.7302 H   0  0  0  0  0  0  0  0  0  0  0  0
    5.4548   -3.3403   -0.4725 C   0  0  0  0  0  0  0  0  0  0  0  0
    4.9464   -4.2534   -0.8554 H   0  0  0  0  0  0  0  0  0  0  0  0
    6.0671   -2.9623   -1.3217 H   0  0  0  0  0  0  0  0  0  0  0  0
    6.3678   -3.7105    0.6968 C   0  0  0  0  0  0  0  0  0  0  0  0
    6.9163   -2.8232    1.0764 H   0  0  0  0  0  0  0  0  0  0  0  0
    7.1213   -4.4699    0.4059 H   0  0  0  0  0  0  0  0  0  0  0  0
    5.7858   -4.1248    1.5465 H   0  0  0  0  0  0  0  0  0  0  0  0
  2  1  3  0  0  0  0
  3  2  1  0  0  0  0
  3  6  1  0  0  0  0
  4  3  1  0  0  0  0
  5  3  1  0  0  0  0
  6  7  1  0  0  0  0
  6  8  1  0  0  0  0
  9  6  1  0  0  0  0
  9 12  1  0  0  0  0
 10  9  1  0  0  0  0
 11  9  1  0  0  0  0
 12 13  1  0  0  0  0
 12 15  1  0  0  0  0
 14 12  1  0  0  0  0
M  END
