4
q = -1.0, confidence = 0.05

 25 26  0  0  0  0  0  0  0  0999 V2000
  -12.2800    1.0485   -0.2425 O   0  0  0  0  0  0  0  0  0  0  0  0
  -12.2704   -1.0863    0.2314 O   0  0  0  0  0  0  0  0  0  0  0  0
  -11.7061   -0.0162   -0.0047 N   0  0  0  0  0  0  0  0  0  0  0  0
   -0.4080    0.0318    0.0087 C   0  0  0  0  0  1  0  0  0  0  0  0
   -1.6498    0.0297    0.0083 C   0  0  0  0  0  2  0  0  0  0  0  0
   -3.0727    0.0243    0.0069 C   0  0  0  0  0  0  0  0  0  0  0  0
   -3.8136    1.1750    0.3880 C   0  0  0  0  0  0  0  0  0  0  0  0
   -5.2086    1.1653    0.3814 C   0  0  0  0  0  0  0  0  0  0  0  0
   -5.9367    0.0112    0.0034 C   0  0  0  0  0  0  0  0  0  0  0  0
   -5.1973   -1.1362   -0.3727 C   0  0  0  0  0  0  0  0  0  0  0  0
   -3.8023   -1.1332   -0.3760 C   0  0  0  0  0  0  0  0  0  0  0  0
   -7.4153    0.0043    0.0016 C   0  0  0  0  0  0  0  0  0  0  0  0
   -8.1522    1.1856   -0.2679 C   0  0  0  0  0  0  0  0  0  0  0  0
   -9.5486    1.1872   -0.2710 C   0  0  0  0  0  0  0  0  0  0  0  0
  -10.2285   -0.0091   -0.0025 C   0  0  0  0  0  0  0  0  0  0  0  0
   -9.5380   -1.1988    0.2681 C   0  0  0  0  0  0  0  0  0  0  0  0
   -8.1417   -1.1839    0.2690 C   0  0  0  0  0  0  0  0  0  0  0  0
   -3.2674    2.0771    0.6990 H   0  0  0  0  0  0  0  0  0  0  0  0
   -5.7504    2.0653    0.7089 H   0  0  0  0  0  0  0  0  0  0  0  0
   -5.7300   -2.0411   -0.7016 H   0  0  0  0  0  0  0  0  0  0  0  0
   -3.2471   -2.0303   -0.6855 H   0  0  0  0  0  0  0  0  0  0  0  0
   -7.6153    2.1147   -0.5081 H   0  0  0  0  0  0  0  0  0  0  0  0
  -10.1318    2.0918   -0.4880 H   0  0  0  0  0  0  0  0  0  0  0  0
  -10.1132   -2.1090    0.4834 H   0  0  0  0  0  0  0  0  0  0  0  0
   -7.5966   -2.1078    0.5107 H   0  0  0  0  0  0  0  0  0  0  0  0
  1  3  2  0  0  0  0
  3 15  1  0  0  0  0
  3  2  2  0  0  0  0
  5  4  1  0  0  0  0
  6  5  1  0  0  0  0
  6  7  1  0  0  0  0
  7 18  1  0  0  0  0
  8  7  2  0  0  0  0
  8 19  1  0  0  0  0
  9  8  1  0  0  0  0
 10  9  2  0  0  0  0
 11 10  1  0  0  0  0
 11  6  2  0  0  0  0
 12  9  1  0  0  0  0
 12 17  1  0  0  0  0
 13 12  2  0  0  0  0
 14 13  1  0  0  0  0
 14 15  2  0  0  0  0
 15 16  1  0  0  0  0
 16 17  2  0  0  0  0
 16 24  1  0  0  0  0
 17 25  1  0  0  0  0
 20 10  1  0  0  0  0
 21 11  1  0  0  0  0
 22 13  1  0  0  0  0
 23 14  1  0  0  0  0
M  END
