9
q = 0.0, confidence = 0.958

 20 20  0  0  0  0  0  0  0  0999 V2000
   -3.2600   -2.4028   -0.0709 F   0  0  0  0  0  0  0  0  0  0  0  0
   -4.0212   -1.0764    1.4889 F   0  0  0  0  0  0  0  0  0  0  0  0
   -5.1594   -1.3952   -0.3529 F   0  0  0  0  0  0  0  0  0  0  0  0
   -3.4808    1.6748    1.1537 F   0  0  0  0  0  0  0  0  0  0  0  0
   -3.4743    2.2686   -0.9504 F   0  0  0  0  0  0  0  0  0  0  0  0
   -5.1966    1.2373   -0.1200 F   0  0  0  0  0  0  0  0  0  0  0  0
   -3.3350   -0.1691   -1.8556 F   0  0  0  0  0  0  0  0  0  0  0  0
   -0.8241   -1.0735   -0.8631 C   0  0  0  0  0  3  0  0  0  0  0  0
   -0.3274   -0.4617   -2.0707 C   0  0  0  0  0  3  0  0  0  0  0  0
   -0.3518    0.9613   -1.8583 C   0  0  0  0  0  3  0  0  0  0  0  0
   -0.8608    1.1710   -0.5253 C   0  0  0  0  0  3  0  0  0  0  0  0
   -1.6662   -0.0545   -0.0983 C   0  0  0  0  0  0  0  0  0  0  0  0
   -3.1765   -0.0446   -0.4843 C   0  0  0  0  0  0  0  0  0  0  0  0
   -3.9235   -1.2472    0.1537 C   0  0  0  0  0  0  0  0  0  0  0  0
   -3.8503    1.3014   -0.0885 C   0  0  0  0  0  0  0  0  0  0  0  0
   -0.9337   -2.1554   -0.7291 H   0  0  0  0  0  0  0  0  0  0  0  0
   -0.0110   -0.9697   -2.9913 H   0  0  0  0  0  0  0  0  0  0  0  0
   -0.0561    1.7283   -2.5860 H   0  0  0  0  0  0  0  0  0  0  0  0
   -0.9995    2.1595   -0.0708 H   0  0  0  0  0  0  0  0  0  0  0  0
   -1.6055   -0.2068    0.9985 H   0  0  0  0  0  0  0  0  0  0  0  0
  1 14  1  0  0  0  0
  3 14  1  0  0  0  0
  5 15  1  0  0  0  0
  6 15  1  0  0  0  0
  7 13  1  0  0  0  0
  8 16  1  0  0  0  0
  8 12  1  0  0  0  0
  9 10  1  0  0  0  0
  9  8  1  0  0  0  0
 10 11  1  0  0  0  0
 11 12  1  0  0  0  0
 11 19  1  0  0  0  0
 12 20  1  0  0  0  0
 13 12  1  0  0  0  0
 13 15  1  0  0  0  0
 13 14  1  0  0  0  0
 14  2  1  0  0  0  0
 15  4  1  0  0  0  0
 17  9  1  0  0  0  0
 18 10  1  0  0  0  0
M  END
