3
q = -1.0

 21 23  0  0  1  0  0  0  0  0999 V2000
   -0.5944   -0.4283   -1.9510 C   0  0  0  0  0  0  0  0  0  0  0  0
   -1.6886   -1.2769   -1.5411 C   0  0  0  0  0  0  0  0  0  0  0  0
   -1.5765   -1.9815   -0.2919 C   0  0  0  0  0  3  0  0  0  0  0  0
   -0.3945   -1.8977    0.5009 C   0  0  0  0  0  3  0  0  0  0  0  0
    3.2736   -0.9438    0.9058 C   0  0  0  0  0  0  0  0  0  0  0  0
    4.1472    0.1542    0.7292 C   0  0  0  0  0  0  0  0  0  0  0  0
    3.8799    1.1779   -0.2046 C   0  0  0  0  0  0  0  0  0  0  0  0
    2.7230    1.1744   -1.0104 C   0  0  0  0  0  0  0  0  0  0  0  0
    1.8641    0.0852   -0.8293 C   0  0  0  0  0  0  0  0  0  0  0  0
    0.5695   -0.5247   -1.1779 C   0  0  2  0  0  3  0  0  0  0  0  0
    0.8845   -1.7443   -0.2840 C   0  0  1  0  0  0  0  0  0  0  0  0
    2.1379   -0.9502    0.1040 C   0  0  0  0  0  0  0  0  0  0  0  0
   -0.7267    0.3006   -2.7648 H   0  0  0  0  0  0  0  0  0  0  0  0
   -2.6231   -1.3103   -2.1160 H   0  0  0  0  0  0  0  0  0  0  0  0
   -2.4761   -2.4769    0.1051 H   0  0  0  0  0  0  0  0  0  0  0  0
   -0.4160   -2.3102    1.5217 H   0  0  0  0  0  0  0  0  0  0  0  0
    3.4970   -1.7329    1.6395 H   0  0  0  0  0  0  0  0  0  0  0  0
    5.0625    0.2174    1.3373 H   0  0  0  0  0  0  0  0  0  0  0  0
    4.5982    2.0065   -0.3009 H   0  0  0  0  0  0  0  0  0  0  0  0
    2.5237    1.9860   -1.7254 H   0  0  0  0  0  0  0  0  0  0  0  0
    1.1598   -2.6758   -0.8337 H   0  0  0  0  0  0  0  0  0  0  0  0
  1  2  2  0  0  0  0
  2  3  1  0  0  0  0
  3 15  1  0  0  0  0
  3  4  1  0  0  0  0
  4 16  1  0  0  0  0
  5 17  1  0  0  0  0
  6  5  1  0  0  0  0
  6 18  1  0  0  0  0
  7  6  2  0  0  0  0
  8  9  2  0  0  0  0
  8  7  1  0  0  0  0
  9 12  1  0  0  0  0
 10  1  1  6  0  0  0
 10  9  1  0  0  0  0
 10 11  1  0  0  0  0
 11 21  1  6  0  0  0
 11 12  1  0  0  0  0
 11  4  1  0  0  0  0
 12  5  2  0  0  0  0
 13  1  1  0  0  0  0
 14  2  1  0  0  0  0
 19  7  1  0  0  0  0
 20  8  1  0  0  0  0
M  END
