6
q = -1.0

 50 56  0  0  1  0  0  0  0  0999 V2000
   -3.3157    3.2909   -0.4958 O   0  0  0  0  0  0  0  0  0  0  0  0
   -2.2689    3.9045    1.4252 O   0  0  0  0  0  0  0  0  0  0  0  0
    1.1174   -1.9026    0.5019 C   0  0  1  0  0  0  0  0  0  0  0  0
    0.8233   -0.3848    1.5208 C   0  0  2  0  0  0  0  0  0  0  0  0
   -1.2568   -0.4828   -0.4184 C   0  0  2  0  0  3  0  0  0  0  0  0
   -2.0574    0.6944   -0.2648 C   0  0  0  0  0  3  0  0  0  0  0  0
   -2.8863    0.8651   -0.9748 H   0  0  0  0  0  0  0  0  0  0  0  0
   -1.7083    1.8136    0.5483 C   0  0  0  0  0  3  0  0  0  0  0  0
   -1.1873    1.7124    1.5065 H   0  0  0  0  0  0  0  0  0  0  0  0
   -1.7015   -1.3900   -1.5647 C   0  0  0  0  0  0  0  0  0  0  0  0
   -2.0760   -0.7598   -2.4006 H   0  0  0  0  0  0  0  0  0  0  0  0
   -0.8344   -1.9494   -1.9709 H   0  0  0  0  0  0  0  0  0  0  0  0
   -2.5211    3.0481    0.4045 C   0  0  0  0  0  0  0  0  0  0  0  0
   -2.9999    5.1470    1.4025 C   0  0  0  0  0  0  0  0  0  0  0  0
   -2.7586    5.6898    0.4628 H   0  0  0  0  0  0  0  0  0  0  0  0
   -4.0873    4.9233    1.3656 H   0  0  0  0  0  0  0  0  0  0  0  0
   -2.6145    5.9371    2.6358 C   0  0  0  0  0  0  0  0  0  0  0  0
   -2.8678    5.3794    3.5590 H   0  0  0  0  0  0  0  0  0  0  0  0
   -3.1576    6.9027    2.6533 H   0  0  0  0  0  0  0  0  0  0  0  0
   -1.5271    6.1495    2.6490 H   0  0  0  0  0  0  0  0  0  0  0  0
   -2.7899   -2.3959   -1.2117 C   0  0  0  0  0  0  0  0  0  0  0  0
   -2.7695   -3.6763   -1.8001 C   0  0  0  0  0  0  0  0  0  0  0  0
   -1.9381   -3.9459   -2.4712 H   0  0  0  0  0  0  0  0  0  0  0  0
   -3.7815   -4.6101   -1.5370 C   0  0  0  0  0  0  0  0  0  0  0  0
   -3.7416   -5.6058   -2.0045 H   0  0  0  0  0  0  0  0  0  0  0  0
   -4.8359   -4.2788   -0.6713 C   0  0  0  0  0  0  0  0  0  0  0  0
   -5.6283   -5.0115   -0.4561 H   0  0  0  0  0  0  0  0  0  0  0  0
   -4.8658   -3.0089   -0.0761 C   0  0  0  0  0  0  0  0  0  0  0  0
   -5.6824   -2.7407    0.6114 H   0  0  0  0  0  0  0  0  0  0  0  0
   -3.8516   -2.0769   -0.3437 C   0  0  0  0  0  0  0  0  0  0  0  0
   -3.8835   -1.0935    0.1473 H   0  0  0  0  0  0  0  0  0  0  0  0
   -0.4691   -1.2116    0.7637 B   0  0  0  0  0  0  0  0  0  0  0  0
   -0.1149   -3.0008    0.8206 B   0  0  0  0  0  0  0  0  0  0  0  0
   -0.4822   -3.6916   -0.0930 H   0  0  0  0  0  0  0  0  0  0  0  0
    1.5182   -3.1904    1.5059 B   0  0  1  0  0  0  0  0  0  0  0  0
    2.3015   -3.9958    1.0630 H   0  0  0  0  0  0  0  0  0  0  0  0
    2.1015   -1.5214    1.8421 B   0  0  1  0  0  0  0  0  0  0  0  0
    3.2303   -1.1620    1.6592 H   0  0  0  0  0  0  0  0  0  0  0  0
    1.5060   -2.5535    3.1590 B   0  0  1  0  0  0  0  0  0  0  0  0
    2.2677   -2.9871    3.9908 H   0  0  0  0  0  0  0  0  0  0  0  0
    0.0935   -3.4679    2.5306 B   0  0  2  0  0  0  0  0  0  0  0  0
   -0.1815   -4.5858    2.8983 H   0  0  0  0  0  0  0  0  0  0  0  0
   -1.1548   -2.2758    2.0573 B   0  0  1  0  0  0  0  0  0  0  0  0
   -2.3371   -2.5122    2.0847 H   0  0  0  0  0  0  0  0  0  0  0  0
   -0.5498   -0.6671    2.4786 B   0  0  1  0  0  0  0  0  0  0  0  0
   -1.2491    0.2674    2.7610 H   0  0  0  0  0  0  0  0  0  0  0  0
    1.0908   -0.8144    3.1313 B   0  0  0  0  0  2  0  0  0  0  0  0
    1.5753    0.0239    3.8496 H   0  0  0  0  0  0  0  0  0  0  0  0
   -0.1624   -2.0303    3.5324 B   0  0  2  0  0  0  0  0  0  0  0  0
   -0.6310   -2.0763    4.6458 H   0  0  0  0  0  0  0  0  0  0  0  0
  1 13  2  0  0  0  0
  3 32  1  6  0  0  0
  3 33  1  0  0  0  0
  3 35  1  0  0  0  0
  3 37  1  0  0  0  0
  4 37  1  0  0  0  0
  4 45  1  0  0  0  0
  4 47  1  6  0  0  0
  5  6  1  1  0  0  0
  5 32  1  0  0  0  0
  6  8  1  0  0  0  0
  7  6  1  0  0  0  0
  8  9  1  0  0  0  0
 10 21  1  0  0  0  0
 10  5  1  0  0  0  0
 11 10  1  0  0  0  0
 12 10  1  0  0  0  0
 13  8  1  0  0  0  0
 13  2  1  0  0  0  0
 14  2  1  0  0  0  0
 14 17  1  0  0  0  0
 15 14  1  0  0  0  0
 16 14  1  0  0  0  0
 17 20  1  0  0  0  0
 17 19  1  0  0  0  0
 17 18  1  0  0  0  0
 21 30  1  0  0  0  0
 22 24  1  0  0  0  0
 22 21  2  0  0  0  0
 23 22  1  0  0  0  0
 24 26  2  0  0  0  0
 25 24  1  0  0  0  0
 26 27  1  0  0  0  0
 26 28  1  0  0  0  0
 28 29  1  0  0  0  0
 30 28  2  0  0  0  0
 30 31  1  0  0  0  0
 32  4  1  0  0  0  0
 33 43  1  0  0  0  0
 34 33  1  0  0  0  0
 35 36  1  6  0  0  0
 35 41  1  0  0  0  0
 35 39  1  0  0  0  0
 37 38  1  6  0  0  0
 37 39  1  0  0  0  0
 39 49  1  0  0  0  0
 39 40  1  1  0  0  0
 41 42  1  1  0  0  0
 41 49  1  0  0  0  0
 43 44  1  1  0  0  0
 43 45  1  0  0  0  0
 43 41  1  0  0  0  0
 45 46  1  1  0  0  0
 45 49  1  0  0  0  0
 47 48  1  0  0  0  0
 49 50  1  1  0  0  0
M  END
