2
q = -1.0

  6  7  0  0  1  0  0  0  0  0999 V2000
    1.8532    1.2657   -2.4209 N   0  0  0  0  0  0  0  0  0  0  0  0
    0.9506    0.7284   -1.8616 C   0  0  0  0  0  0  0  0  0  0  0  0
    2.8038    2.0570   -2.9300 C   0  0  2  0  0  0  0  0  0  0  0  0
    4.4879    2.1333   -2.6930 C   0  0  2  0  0  0  0  0  0  0  0  0
    3.5508    3.1464   -2.2778 C   0  0  0  0  0  0  0  0  0  0  0  0
    3.8408    1.8897   -3.9538 C   0  0  0  0  0  0  0  0  0  0  0  0
  1  2  1  0  0  0  0
  3  4  1  0  0  0  0
  3  1  1  1  0  0  0
  3  5  1  0  0  0  0
  4  6  1  6  0  0  0
  4  5  1  0  0  0  0
  6  3  1  0  0  0  0
M  END
