1
q = -1.0, confidence = 0.0

 16 16  0  0  0  0  0  0  0  0999 V2000
   -0.0543   -1.3740   -0.0441 C   0  0  0  0  0  3  0  0  0  0  0  0
   -1.9191   -3.2775   -0.0383 C   0  0  0  0  0  0  0  0  0  0  0  0
   -3.1510   -3.0223    0.6422 C   0  0  0  0  0  0  0  0  0  0  0  0
   -4.1376   -4.0232    0.6369 C   0  0  0  0  0  0  0  0  0  0  0  0
   -5.0880   -3.8316    1.1603 H   0  0  0  0  0  0  0  0  0  0  0  0
   -0.8997   -2.2810   -0.0553 C   0  0  0  0  0  0  0  0  0  0  0  0
   -3.3661   -1.7107    1.3445 C   0  0  0  0  0  0  0  0  0  0  0  0
   -1.7283   -4.5220   -0.6902 C   0  0  0  0  0  0  0  0  0  0  0  0
   -3.9398   -5.2500   -0.0162 C   0  0  0  0  0  0  0  0  0  0  0  0
   -2.7295   -5.4989   -0.6829 C   0  0  0  0  0  0  0  0  0  0  0  0
   -2.5655   -6.4578   -1.1976 H   0  0  0  0  0  0  0  0  0  0  0  0
   -4.7333   -6.0127   -0.0034 H   0  0  0  0  0  0  0  0  0  0  0  0
   -4.3686   -1.6573    1.8103 H   0  0  0  0  0  0  0  0  0  0  0  0
   -2.6001   -1.5455    2.1302 H   0  0  0  0  0  0  0  0  0  0  0  0
   -3.2546   -0.8584    0.6419 H   0  0  0  0  0  0  0  0  0  0  0  0
   -0.7746   -4.7024   -1.2077 H   0  0  0  0  0  0  0  0  0  0  0  0
  2  3  1  0  0  0  0
  3  7  1  0  0  0  0
  4  3  2  0  0  0  0
  4  5  1  0  0  0  0
  6  1  3  0  0  0  0
  6  2  1  0  0  0  0
  7 13  1  0  0  0  0
  7 14  1  0  0  0  0
  8 10  1  0  0  0  0
  8  2  2  0  0  0  0
  9 12  1  0  0  0  0
  9  4  1  0  0  0  0
 10  9  2  0  0  0  0
 11 10  1  0  0  0  0
 15  7  1  0  0  0  0
 16  8  1  0  0  0  0
M  END
