5
q = 0.0, confidence = 0.944

 27 27  0  0  0  0  0  0  0  0999 V2000
    0.8964   -1.6206    0.1910 O   0  0  0  0  0  0  0  0  0  0  0  0
    5.2672    0.3136   -0.0716 N   0  0  0  0  0  0  0  0  0  0  0  0
   -2.9541   -1.7543    0.5413 C   0  0  0  0  0  3  0  0  0  0  0  0
   -1.5886   -1.8771    0.8968 C   0  0  0  0  0  0  0  0  0  0  0  0
   -3.3648   -1.3587   -0.7723 C   0  0  0  0  0  3  0  0  0  0  0  0
   -2.4050   -1.0384   -1.7733 C   0  0  0  0  0  0  0  0  0  0  0  0
   -1.0053   -1.1147   -1.5248 C   0  0  0  0  0  0  0  0  0  0  0  0
    1.7354   -0.7126   -0.1695 C   0  0  0  0  0  0  0  0  0  0  0  0
    3.1084   -0.8209    0.0924 C   0  0  0  0  0  0  0  0  0  0  0  0
    3.9406    0.2401   -0.2596 C   0  0  0  0  0  3  0  0  0  0  0  0
    5.9905   -0.7839    0.5580 C   0  0  0  0  0  0  0  0  0  0  0  0
    6.0140    1.5200   -0.3974 C   0  0  0  0  0  0  0  0  0  0  0  0
   -0.5385   -1.5562   -0.1514 B   0  0  0  0  0  0  0  0  0  0  0  0
   -3.7412   -1.9103    1.2968 H   0  0  0  0  0  0  0  0  0  0  0  0
   -1.3545   -2.0893    1.9520 H   0  0  0  0  0  0  0  0  0  0  0  0
   -4.4345   -1.2373   -0.9911 H   0  0  0  0  0  0  0  0  0  0  0  0
   -2.7772   -0.6748   -2.7449 H   0  0  0  0  0  0  0  0  0  0  0  0
   -0.3305   -0.7949   -2.3367 H   0  0  0  0  0  0  0  0  0  0  0  0
    1.3344    0.1759   -0.6985 H   0  0  0  0  0  0  0  0  0  0  0  0
    3.4748   -1.7184    0.6105 H   0  0  0  0  0  0  0  0  0  0  0  0
    3.4868    1.1283   -0.7306 H   0  0  0  0  0  0  0  0  0  0  0  0
    7.0767   -0.5961    0.4886 H   0  0  0  0  0  0  0  0  0  0  0  0
    5.7650   -1.7421    0.0476 H   0  0  0  0  0  0  0  0  0  0  0  0
    5.7141   -0.8844    1.6296 H   0  0  0  0  0  0  0  0  0  0  0  0
    6.4442    1.9785    0.5186 H   0  0  0  0  0  0  0  0  0  0  0  0
    5.3439    2.2578   -0.8750 H   0  0  0  0  0  0  0  0  0  0  0  0
    6.8451    1.2894   -1.0961 H   0  0  0  0  0  0  0  0  0  0  0  0
  2 11  1  0  0  0  0
  3  4  1  0  0  0  0
  3 14  1  0  0  0  0
  4 15  1  0  0  0  0
  5  3  1  0  0  0  0
  6  7  2  0  0  0  0
  6  5  1  0  0  0  0
  7 13  1  0  0  0  0
  8  9  2  0  0  0  0
  8  1  1  0  0  0  0
  9 20  1  0  0  0  0
 10  2  1  0  0  0  0
 10  9  1  0  0  0  0
 11 24  1  0  0  0  0
 12  2  1  0  0  0  0
 12 25  1  0  0  0  0
 13  1  1  0  0  0  0
 13  4  2  0  0  0  0
 16  5  1  0  0  0  0
 17  6  1  0  0  0  0
 18  7  1  0  0  0  0
 19  8  1  0  0  0  0
 21 10  1  0  0  0  0
 22 11  1  0  0  0  0
 23 11  1  0  0  0  0
 26 12  1  0  0  0  0
 27 12  1  0  0  0  0
M  END
