5
q = -1.0

 45 53  0  0  1  0  0  0  0  0999 V2000
    0.0412    2.1254    1.0728 N   0  0  0  0  0  0  0  0  0  0  0  0
   -0.6437    3.2464    1.2766 N   0  0  0  0  0  2  0  0  0  0  0  0
   -1.8286    2.9748    0.7638 N   0  0  0  0  0  0  0  0  0  0  0  0
   -1.9153    1.7025    0.2293 C   0  0  0  0  0  0  0  0  0  0  0  0
   -0.6351    1.1149    0.4105 C   0  0  0  0  0  3  0  0  0  0  0  0
   -2.8447    4.0183    0.7805 C   0  0  0  0  0  0  0  0  0  0  0  0
   -3.4826    3.9330    1.6810 H   0  0  0  0  0  0  0  0  0  0  0  0
   -3.4750    3.9178   -0.1207 H   0  0  0  0  0  0  0  0  0  0  0  0
   -2.3273    4.9935    0.7836 H   0  0  0  0  0  0  0  0  0  0  0  0
    1.4030    2.0459    1.5711 C   0  0  0  0  0  0  0  0  0  0  0  0
    1.4252    1.2976    2.3858 H   0  0  0  0  0  0  0  0  0  0  0  0
    1.6599    3.0397    1.9763 H   0  0  0  0  0  0  0  0  0  0  0  0
    2.3975    1.6455    0.4941 C   0  0  1  0  0  0  0  0  0  0  0  0
    2.0058    0.2919   -0.4087 C   0  0  2  0  0  0  0  0  0  0  0  0
    1.9895    1.8746   -1.1452 B   0  0  2  0  0  0  0  0  0  0  0  0
    0.9293    2.3670   -1.4238 H   0  0  0  0  0  0  0  0  0  0  0  0
    3.2886    2.8183   -0.3675 B   0  0  2  0  0  0  0  0  0  0  0  0
    3.0645    3.9766   -0.1047 H   0  0  0  0  0  0  0  0  0  0  0  0
    4.0606    1.7760    0.8487 B   0  0  2  0  0  0  0  0  0  0  0  0
    4.3553    2.2229    1.9328 H   0  0  0  0  0  0  0  0  0  0  0  0
    3.2397    0.1979    0.8030 B   0  0  1  0  0  0  0  0  0  0  0  0
    2.9934   -0.3701    1.8336 H   0  0  0  0  0  0  0  0  0  0  0  0
    3.4854   -0.5272   -0.7766 B   0  0  2  0  0  0  0  0  0  0  0  0
    3.4556   -1.7236   -0.9032 H   0  0  0  0  0  0  0  0  0  0  0  0
    2.7246    0.5081   -1.9827 B   0  0  1  0  0  0  0  0  0  0  0  0
    2.1801    0.0374   -2.9421 H   0  0  0  0  0  0  0  0  0  0  0  0
    3.5470    2.0932   -1.9638 B   0  0  1  0  0  0  0  0  0  0  0  0
    3.6075    2.7764   -2.9597 H   0  0  0  0  0  0  0  0  0  0  0  0
    4.8413    2.0271   -0.7277 B   0  0  1  0  0  0  0  0  0  0  0  0
    5.8605    2.6730   -0.8160 H   0  0  0  0  0  0  0  0  0  0  0  0
    4.8034    0.3946    0.0121 B   0  0  0  0  0  0  0  0  0  0  0  0
    5.7774   -0.1593    0.4687 H   0  0  0  0  0  0  0  0  0  0  0  0
    4.4875    0.5953   -1.7304 B   0  0  1  0  0  0  0  0  0  0  0  0
    5.2453    0.1744   -2.5745 H   0  0  0  0  0  0  0  0  0  0  0  0
   -3.2002    1.1974   -0.2928 C   0  0  0  0  0  0  0  0  0  0  0  0
   -3.3322    0.7380   -1.6196 C   0  0  0  0  0  0  0  0  0  0  0  0
   -2.4412    0.7114   -2.2644 H   0  0  0  0  0  0  0  0  0  0  0  0
   -4.5725    0.2725   -2.0801 C   0  0  0  0  0  0  0  0  0  0  0  0
   -4.6595   -0.0898   -3.1156 H   0  0  0  0  0  0  0  0  0  0  0  0
   -5.6922    0.2627   -1.2344 C   0  0  0  0  0  0  0  0  0  0  0  0
   -6.6623   -0.1042   -1.6029 H   0  0  0  0  0  0  0  0  0  0  0  0
   -5.5706    0.7215    0.0879 C   0  0  0  0  0  0  0  0  0  0  0  0
   -6.4408    0.7103    0.7614 H   0  0  0  0  0  0  0  0  0  0  0  0
   -4.3342    1.1861    0.5552 C   0  0  0  0  0  0  0  0  0  0  0  0
   -4.2380    1.5200    1.6000 H   0  0  0  0  0  0  0  0  0  0  0  0
  1  2  1  0  0  0  0
  1 10  1  0  0  0  0
  3  6  1  0  0  0  0
  3  2  1  0  0  0  0
  4  5  2  0  0  0  0
  4  3  1  0  0  0  0
  5  1  1  0  0  0  0
  6  9  1  0  0  0  0
  6  7  1  0  0  0  0
  8  6  1  0  0  0  0
 10 12  1  0  0  0  0
 10 11  1  0  0  0  0
 13 21  1  0  0  0  0
 13 10  1  1  0  0  0
 14 13  1  0  0  0  0
 14 21  1  0  0  0  0
 15 13  1  0  0  0  0
 16 15  1  0  0  0  0
 17 18  1  0  0  0  0
 17 19  1  0  0  0  0
 19 20  1  0  0  0  0
 21 22  1  0  0  0  0
 23 14  1  0  0  0  0
 23 21  1  0  0  0  0
 24 23  1  0  0  0  0
 25 15  1  0  0  0  0
 25 23  1  0  0  0  0
 25 14  1  0  0  0  0
 26 25  1  0  0  0  0
 27 33  1  0  0  0  0
 27 15  1  0  0  0  0
 27 17  1  0  0  0  0
 28 27  1  0  0  0  0
 29 17  1  0  0  0  0
 29 19  1  0  0  0  0
 30 29  1  0  0  0  0
 31 32  1  0  0  0  0
 31 19  1  0  0  0  0
 33 29  1  0  0  0  0
 33 31  1  0  0  0  0
 34 33  1  0  0  0  0
 35  4  1  0  0  0  0
 35 44  1  0  0  0  0
 36 35  2  0  0  0  0
 37 36  1  0  0  0  0
 38 36  1  0  0  0  0
 38 40  2  0  0  0  0
 39 38  1  0  0  0  0
 40 42  1  0  0  0  0
 41 40  1  0  0  0  0
 42 44  2  0  0  0  0
 42 43  1  0  0  0  0
 44 45  1  0  0  0  0
M  END
