10
q = 0.0, confidence = 0.998

 30 30  0  0  0  0  0  0  0  0999 V2000
    0.5978    2.7626   -0.0996 N   0  0  0  0  0  0  0  0  0  0  0  0
    1.8943    1.1856    0.6332 N   0  0  0  0  0  0  0  0  0  0  0  0
   -0.2843    4.1281   -1.9836 C   0  0  0  0  0  0  0  0  0  0  0  0
   -1.1661    4.7166   -2.3056 H   0  0  0  0  0  0  0  0  0  0  0  0
   -0.1421    3.2984   -2.7025 H   0  0  0  0  0  0  0  0  0  0  0  0
    0.6001    4.7972   -2.0085 H   0  0  0  0  0  0  0  0  0  0  0  0
   -0.5354    3.5492   -0.5959 C   0  0  0  0  0  0  0  0  0  0  0  0
   -0.7336    4.3514    0.1475 H   0  0  0  0  0  0  0  0  0  0  0  0
   -1.4017    2.8640   -0.6340 H   0  0  0  0  0  0  0  0  0  0  0  0
    0.6270    1.4080    0.1441 C   0  0  0  0  0  2  0  0  0  0  0  0
    2.6305    2.3615    0.6768 C   0  0  0  0  0  0  0  0  0  0  0  0
    3.6652    2.3869    1.0299 H   0  0  0  0  0  0  0  0  0  0  0  0
    1.8132    3.3551    0.2160 C   0  0  0  0  0  0  0  0  0  0  0  0
    1.9878    4.4271    0.0887 H   0  0  0  0  0  0  0  0  0  0  0  0
    2.4597   -0.1015    1.0373 C   0  0  0  0  0  0  0  0  0  0  0  0
    2.8322   -0.0024    2.0803 H   0  0  0  0  0  0  0  0  0  0  0  0
    1.6284   -0.8283    1.0183 H   0  0  0  0  0  0  0  0  0  0  0  0
    3.5661   -0.5828    0.0983 C   0  0  0  0  0  0  0  0  0  0  0  0
    4.4393    0.1034    0.1522 H   0  0  0  0  0  0  0  0  0  0  0  0
    3.1627   -0.5381   -0.9346 H   0  0  0  0  0  0  0  0  0  0  0  0
    3.9812   -2.0219    0.4138 C   0  0  0  0  0  0  0  0  0  0  0  0
    3.0732   -2.6570    0.3283 H   0  0  0  0  0  0  0  0  0  0  0  0
    4.3221   -2.0950    1.4730 H   0  0  0  0  0  0  0  0  0  0  0  0
    5.0711   -2.5816   -0.5103 C   0  0  0  0  0  0  0  0  0  0  0  0
    5.1977   -3.6638   -0.2919 H   0  0  0  0  0  0  0  0  0  0  0  0
    4.7107   -2.5272   -1.5612 H   0  0  0  0  0  0  0  0  0  0  0  0
    6.4287   -1.8843   -0.3938 C   0  0  0  0  0  0  0  0  0  0  0  0
    7.1872   -2.3628   -1.0458 H   0  0  0  0  0  0  0  0  0  0  0  0
    6.8132   -1.9227    0.6478 H   0  0  0  0  0  0  0  0  0  0  0  0
    6.3752   -0.8158   -0.6876 H   0  0  0  0  0  0  0  0  0  0  0  0
  1 10  1  0  0  0  0
  1 13  1  0  0  0  0
  2 11  1  0  0  0  0
  2 15  1  0  0  0  0
  3  7  1  0  0  0  0
  4  3  1  0  0  0  0
  5  3  1  0  0  0  0
  6  3  1  0  0  0  0
  7  1  1  0  0  0  0
  7  8  1  0  0  0  0
  9  7  1  0  0  0  0
 10  2  1  0  0  0  0
 11 12  1  0  0  0  0
 13 11  2  0  0  0  0
 14 13  1  0  0  0  0
 15 16  1  0  0  0  0
 17 15  1  0  0  0  0
 18 19  1  0  0  0  0
 18 21  1  0  0  0  0
 18 15  1  0  0  0  0
 20 18  1  0  0  0  0
 21 23  1  0  0  0  0
 22 21  1  0  0  0  0
 24 27  1  0  0  0  0
 24 25  1  0  0  0  0
 24 21  1  0  0  0  0
 26 24  1  0  0  0  0
 27 29  1  0  0  0  0
 28 27  1  0  0  0  0
 30 27  1  0  0  0  0
M  END
