3
q = -2.0, confidence = 0.8

 51 52  0  0  1  0  0  0  0  0999 V2000
   -0.4175    2.3123   -0.2345 Si  0  0  0  0  0  0  0  0  0  0  0  0
    1.2845    1.5916    0.1803 C   0  0  1  0  0  3  0  0  0  0  0  0
    1.4333    0.8489    1.4286 C   0  0  1  0  0  3  0  0  0  0  0  0
    2.4043   -0.1952    1.2227 C   0  0  0  0  0  0  0  0  0  0  0  0
    2.8447   -0.1177   -0.1469 C   0  0  0  0  0  0  0  0  0  0  0  0
    2.1918    1.0010   -0.7679 C   0  0  2  0  0  3  0  0  0  0  0  0
    0.7878    1.1668    2.7478 C   0  0  0  0  0  0  0  0  0  0  0  0
    1.2277    2.0848    3.1919 H   0  0  0  0  0  0  0  0  0  0  0  0
   -0.3019    1.3298    2.6545 H   0  0  0  0  0  0  0  0  0  0  0  0
    0.9298    0.3412    3.4698 H   0  0  0  0  0  0  0  0  0  0  0  0
    2.9387   -1.1403    2.2558 C   0  0  0  0  0  0  0  0  0  0  0  0
    3.8261   -0.7100    2.7687 H   0  0  0  0  0  0  0  0  0  0  0  0
    2.1831   -1.3736    3.0300 H   0  0  0  0  0  0  0  0  0  0  0  0
    3.2490   -2.1004    1.8003 H   0  0  0  0  0  0  0  0  0  0  0  0
    3.9193   -0.9531   -0.7747 C   0  0  0  0  0  0  0  0  0  0  0  0
    4.9131   -0.4703   -0.6539 H   0  0  0  0  0  0  0  0  0  0  0  0
    3.9773   -1.9587   -0.3170 H   0  0  0  0  0  0  0  0  0  0  0  0
    3.7444   -1.0927   -1.8587 H   0  0  0  0  0  0  0  0  0  0  0  0
    2.5221    1.4915   -2.1450 C   0  0  0  0  0  0  0  0  0  0  0  0
    3.4768    2.0598   -2.1163 H   0  0  0  0  0  0  0  0  0  0  0  0
    2.6605    0.6595   -2.8627 H   0  0  0  0  0  0  0  0  0  0  0  0
    1.7533    2.1747   -2.5455 H   0  0  0  0  0  0  0  0  0  0  0  0
   -0.9895    3.5659    1.0665 C   0  0  0  0  0  0  0  0  0  0  0  0
   -1.2563    3.1147    2.0403 H   0  0  0  0  0  0  0  0  0  0  0  0
   -0.1690    4.2916    1.2457 H   0  0  0  0  0  0  0  0  0  0  0  0
   -1.8666    4.1351    0.6973 H   0  0  0  0  0  0  0  0  0  0  0  0
   -0.5407    3.1939   -1.9059 C   0  0  0  0  0  0  0  0  0  0  0  0
   -0.3953    2.5173   -2.7694 H   0  0  0  0  0  0  0  0  0  0  0  0
   -1.5616    3.6208   -1.9920 H   0  0  0  0  0  0  0  0  0  0  0  0
    0.1843    4.0304   -1.9825 H   0  0  0  0  0  0  0  0  0  0  0  0
   -1.3587    0.6735   -0.2213 C   0  0  1  0  0  3  0  0  0  0  0  0
   -2.6105    0.3463    0.5943 C   0  0  2  0  0  0  0  0  0  0  0  0
   -2.3726    0.2541    1.6797 H   0  0  0  0  0  0  0  0  0  0  0  0
   -3.0597   -1.0040    0.0613 C   0  0  0  0  0  0  0  0  0  0  0  0
   -2.2683   -1.3891   -0.9813 C   0  0  0  0  0  0  0  0  0  0  0  0
   -1.2277   -0.3553   -1.2066 C   0  0  2  0  0  3  0  0  0  0  0  0
   -3.7089    1.4172    0.4338 C   0  0  0  0  0  0  0  0  0  0  0  0
   -4.6419    1.1078    0.9471 H   0  0  0  0  0  0  0  0  0  0  0  0
   -3.4006    2.3886    0.8645 H   0  0  0  0  0  0  0  0  0  0  0  0
   -3.9442    1.5702   -0.6392 H   0  0  0  0  0  0  0  0  0  0  0  0
   -4.1821   -1.7590    0.6942 C   0  0  0  0  0  0  0  0  0  0  0  0
   -4.4258   -2.6879    0.1437 H   0  0  0  0  0  0  0  0  0  0  0  0
   -3.9187   -2.0462    1.7358 H   0  0  0  0  0  0  0  0  0  0  0  0
   -5.1094   -1.1494    0.7588 H   0  0  0  0  0  0  0  0  0  0  0  0
   -2.3306   -2.6453   -1.7891 C   0  0  0  0  0  0  0  0  0  0  0  0
   -3.2070   -3.2670   -1.5249 H   0  0  0  0  0  0  0  0  0  0  0  0
   -2.3831   -2.4240   -2.8762 H   0  0  0  0  0  0  0  0  0  0  0  0
   -1.4201   -3.2629   -1.6343 H   0  0  0  0  0  0  0  0  0  0  0  0
   -0.1151   -0.4558   -2.0900 C   0  0  0  0  0  3  0  0  0  0  0  0
    0.3038    0.4563   -2.5341 H   0  0  0  0  0  0  0  0  0  0  0  0
   -0.0553   -1.3349   -2.7492 H   0  0  0  0  0  0  0  0  0  0  0  0
  1 23  1  0  0  0  0
  2  1  1  6  0  0  0
  2  3  1  0  0  0  0
  3  7  1  1  0  0  0
  4  3  1  0  0  0  0
  4 11  1  0  0  0  0
  5  4  2  0  0  0  0
  6 19  1  1  0  0  0
  6  5  1  0  0  0  0
  6  2  1  0  0  0  0
  7  8  1  0  0  0  0
  7 10  1  0  0  0  0
  9  7  1  0  0  0  0
 11 12  1  0  0  0  0
 11 13  1  0  0  0  0
 14 11  1  0  0  0  0
 15 16  1  0  0  0  0
 15 17  1  0  0  0  0
 15  5  1  0  0  0  0
 18 15  1  0  0  0  0
 19 20  1  0  0  0  0
 21 19  1  0  0  0  0
 22 19  1  0  0  0  0
 23 25  1  0  0  0  0
 23 24  1  0  0  0  0
 26 23  1  0  0  0  0
 27  1  1  0  0  0  0
 28 27  1  0  0  0  0
 29 27  1  0  0  0  0
 30 27  1  0  0  0  0
 31  1  1  6  0  0  0
 31 32  1  0  0  0  0
 32 33  1  1  0  0  0
 34 32  1  0  0  0  0
 34 41  1  0  0  0  0
 35 34  2  0  0  0  0
 36 49  1  1  0  0  0
 36 35  1  0  0  0  0
 36 31  1  0  0  0  0
 37 32  1  0  0  0  0
 37 39  1  0  0  0  0
 37 38  1  0  0  0  0
 40 37  1  0  0  0  0
 41 44  1  0  0  0  0
 41 43  1  0  0  0  0
 42 41  1  0  0  0  0
 45 48  1  0  0  0  0
 45 46  1  0  0  0  0
 45 35  1  0  0  0  0
 47 45  1  0  0  0  0
 50 49  1  0  0  0  0
 51 49  1  0  0  0  0
M  END
