9
q = 0.0, confidence = 0.988

 34 34  0  0  1  0  0  0  0  0999 V2000
    3.0193    0.4586   -1.7225 C   0  0  0  0  0  3  0  0  0  0  0  0
    4.0992    0.3689   -1.9203 H   0  0  0  0  0  0  0  0  0  0  0  0
    2.3775    0.0389   -2.5123 H   0  0  0  0  0  0  0  0  0  0  0  0
    2.5798    1.5912   -0.9492 C   0  0  2  0  0  3  0  0  0  0  0  0
    3.4899    2.7266   -0.5633 C   0  0  0  0  0  0  0  0  0  0  0  0
    3.1650    3.2111    0.3782 H   0  0  0  0  0  0  0  0  0  0  0  0
    3.4912    3.4966   -1.3641 H   0  0  0  0  0  0  0  0  0  0  0  0
    4.5349    2.3825   -0.4377 H   0  0  0  0  0  0  0  0  0  0  0  0
    1.2201    1.5360   -0.5061 C   0  0  0  0  0  3  0  0  0  0  0  0
    0.8447    2.2996    0.1959 H   0  0  0  0  0  0  0  0  0  0  0  0
    0.4341    0.3924   -0.8586 C   0  0  0  0  0  3  0  0  0  0  0  0
    0.5247   -0.0352   -1.8716 H   0  0  0  0  0  0  0  0  0  0  0  0
   -0.9382    0.1714   -0.2684 C   0  0  2  0  0  0  0  0  0  0  0  0
   -0.9598    0.4859    0.7955 H   0  0  0  0  0  0  0  0  0  0  0  0
   -1.2646   -1.8783   -1.4659 O   0  0  0  0  0  0  0  0  0  0  0  0
   -1.2899   -1.3286   -0.3754 C   0  0  0  0  0  0  0  0  0  0  0  0
   -1.6829   -2.0337    0.8978 C   0  0  0  0  0  0  0  0  0  0  0  0
   -1.8714   -3.1050    0.7043 H   0  0  0  0  0  0  0  0  0  0  0  0
   -2.6004   -1.5527    1.3004 H   0  0  0  0  0  0  0  0  0  0  0  0
   -0.8975   -1.9083    1.6712 H   0  0  0  0  0  0  0  0  0  0  0  0
   -2.0178    0.9860   -1.0406 C   0  0  0  0  0  0  0  0  0  0  0  0
   -1.7308    2.0576   -1.0081 H   0  0  0  0  0  0  0  0  0  0  0  0
   -1.9901    0.6631   -2.1009 H   0  0  0  0  0  0  0  0  0  0  0  0
   -3.4020    0.7920   -0.4669 C   0  0  0  0  0  0  0  0  0  0  0  0
   -3.8205    1.5255    0.6625 C   0  0  0  0  0  0  0  0  0  0  0  0
   -3.1505    2.2901    1.0887 H   0  0  0  0  0  0  0  0  0  0  0  0
   -5.0760    1.2975    1.2450 C   0  0  0  0  0  0  0  0  0  0  0  0
   -5.3871    1.8837    2.1233 H   0  0  0  0  0  0  0  0  0  0  0  0
   -5.9357    0.3264    0.7064 C   0  0  0  0  0  0  0  0  0  0  0  0
   -6.9215    0.1466    1.1615 H   0  0  0  0  0  0  0  0  0  0  0  0
   -5.5315   -0.4101   -0.4182 C   0  0  0  0  0  0  0  0  0  0  0  0
   -6.2002   -1.1711   -0.8487 H   0  0  0  0  0  0  0  0  0  0  0  0
   -4.2751   -0.1792   -0.9990 C   0  0  0  0  0  0  0  0  0  0  0  0
   -3.9556   -0.7662   -1.8740 H   0  0  0  0  0  0  0  0  0  0  0  0
  2  1  1  0  0  0  0
  3  1  1  0  0  0  0
  4  1  1  1  0  0  0
  4  5  1  0  0  0  0
  4  9  1  0  0  0  0
  5  8  1  0  0  0  0
  5  6  1  0  0  0  0
  7  5  1  0  0  0  0
  9 10  1  0  0  0  0
 11  9  1  0  0  0  0
 11 13  1  0  0  0  0
 12 11  1  0  0  0  0
 13 14  1  1  0  0  0
 15 16  2  0  0  0  0
 16 13  1  0  0  0  0
 16 17  1  0  0  0  0
 17 19  1  0  0  0  0
 17 20  1  0  0  0  0
 18 17  1  0  0  0  0
 21 22  1  0  0  0  0
 21 24  1  0  0  0  0
 21 13  1  0  0  0  0
 23 21  1  0  0  0  0
 24 25  1  0  0  0  0
 25 26  1  0  0  0  0
 25 27  2  0  0  0  0
 27 28  1  0  0  0  0
 29 30  1  0  0  0  0
 29 27  1  0  0  0  0
 31 29  2  0  0  0  0
 32 31  1  0  0  0  0
 33 24  2  0  0  0  0
 33 31  1  0  0  0  0
 34 33  1  0  0  0  0
M  END
