6
q = -1.0, confidence = 0.002

 54 57  0  0  1  0  0  0  0  0999 V2000
   -4.7824   -0.9448   -1.1688 O   0  0  0  0  0  0  0  0  0  0  0  0
    6.0202   -0.7870    0.7643 O   0  0  0  0  0  0  0  0  0  0  0  0
   -1.3174   -1.8926   -0.0211 C   0  0  2  0  0  0  0  0  0  0  0  0
   -2.7967   -1.5918    0.1588 C   0  0  0  0  0  3  0  0  0  0  0  0
   -3.4594   -0.8880   -0.8796 C   0  0  2  0  0  3  0  0  0  0  0  0
   -2.7036    0.0793   -1.6154 C   0  0  0  0  0  3  0  0  0  0  0  0
   -1.3107    0.2659   -1.3127 C   0  0  2  0  0  3  0  0  0  0  0  0
   -0.5414    1.2859   -2.1262 C   0  0  0  0  0  0  0  0  0  0  0  0
    0.8294    1.6486   -1.5566 C   0  0  0  0  0  0  0  0  0  0  0  0
    1.5598    0.4192   -1.0057 C   0  0  2  0  0  0  0  0  0  0  0  0
    0.7271   -0.1746    0.1640 C   0  0  1  0  0  0  0  0  0  0  0  0
   -0.7016   -0.5159   -0.2880 C   0  0  2  0  0  3  0  0  0  0  0  0
    1.4412   -1.3206    0.9092 C   0  0  0  0  0  0  0  0  0  0  0  0
    2.8802   -0.9653    1.3154 C   0  0  0  0  0  0  0  0  0  0  0  0
    3.6925   -0.4686    0.1121 C   0  0  1  0  0  0  0  0  0  0  0  0
    2.9631    0.7489   -0.5015 C   0  0  1  0  0  0  0  0  0  0  0  0
    3.9991    1.3699   -1.4578 C   0  0  0  0  0  0  0  0  0  0  0  0
    5.3662    1.0882   -0.7718 C   0  0  0  0  0  0  0  0  0  0  0  0
    5.0446    0.1882    0.4601 C   0  0  2  0  0  0  0  0  0  0  0  0
    3.9269   -1.6100   -0.8955 C   0  0  0  0  0  0  0  0  0  0  0  0
    7.2085   -0.2592    1.3020 C   0  0  0  0  0  0  0  0  0  0  0  0
   -5.6170   -1.7451   -0.3437 C   0  0  0  0  0  0  0  0  0  0  0  0
   -1.0090   -2.9455   -1.0976 C   0  0  0  0  0  0  0  0  0  0  0  0
   -0.9437   -2.2600    0.9533 H   0  0  0  0  0  0  0  0  0  0  0  0
   -3.3862   -2.2215    0.8397 H   0  0  0  0  0  0  0  0  0  0  0  0
   -3.2010    0.6705   -2.3955 H   0  0  0  0  0  0  0  0  0  0  0  0
   -1.1590    2.1919   -2.2934 H   0  0  0  0  0  0  0  0  0  0  0  0
   -0.4073    0.8187   -3.1283 H   0  0  0  0  0  0  0  0  0  0  0  0
    0.7169    2.3917   -0.7372 H   0  0  0  0  0  0  0  0  0  0  0  0
    1.4344    2.1412   -2.3448 H   0  0  0  0  0  0  0  0  0  0  0  0
    1.6332   -0.3418   -1.8177 H   0  0  0  0  0  0  0  0  0  0  0  0
    0.6501    0.6582    0.8991 H   0  0  0  0  0  0  0  0  0  0  0  0
    1.4484   -2.2365    0.2829 H   0  0  0  0  0  0  0  0  0  0  0  0
    0.8610   -1.5744    1.8197 H   0  0  0  0  0  0  0  0  0  0  0  0
    3.3752   -1.8385    1.7891 H   0  0  0  0  0  0  0  0  0  0  0  0
    2.8555   -0.1586    2.0815 H   0  0  0  0  0  0  0  0  0  0  0  0
    2.8249    1.4723    0.3384 H   0  0  0  0  0  0  0  0  0  0  0  0
    3.8222    2.4507   -1.6217 H   0  0  0  0  0  0  0  0  0  0  0  0
    3.9454    0.8844   -2.4546 H   0  0  0  0  0  0  0  0  0  0  0  0
    5.8843    2.0211   -0.4758 H   0  0  0  0  0  0  0  0  0  0  0  0
    6.0549    0.5339   -1.4415 H   0  0  0  0  0  0  0  0  0  0  0  0
    4.8880    0.8399    1.3580 H   0  0  0  0  0  0  0  0  0  0  0  0
    4.4499   -1.2652   -1.8087 H   0  0  0  0  0  0  0  0  0  0  0  0
    4.5630   -2.3852   -0.4273 H   0  0  0  0  0  0  0  0  0  0  0  0
    2.9803   -2.0845   -1.2169 H   0  0  0  0  0  0  0  0  0  0  0  0
    7.8654   -1.1113    1.5656 H   0  0  0  0  0  0  0  0  0  0  0  0
    7.7558    0.3940    0.5808 H   0  0  0  0  0  0  0  0  0  0  0  0
    7.0178    0.3413    2.2259 H   0  0  0  0  0  0  0  0  0  0  0  0
   -6.6279   -1.6947   -0.7873 H   0  0  0  0  0  0  0  0  0  0  0  0
   -5.2790   -2.8040   -0.3200 H   0  0  0  0  0  0  0  0  0  0  0  0
   -5.6596   -1.3494    0.6940 H   0  0  0  0  0  0  0  0  0  0  0  0
   -1.4956   -3.9133   -0.8555 H   0  0  0  0  0  0  0  0  0  0  0  0
   -1.3810   -2.6124   -2.0876 H   0  0  0  0  0  0  0  0  0  0  0  0
    0.0819   -3.1268   -1.1866 H   0  0  0  0  0  0  0  0  0  0  0  0
  1 22  1  0  0  0  0
  2 21  1  0  0  0  0
  3  4  1  0  0  0  0
  3 24  1  1  0  0  0
  4 25  1  0  0  0  0
  5  1  1  1  0  0  0
  5  4  1  0  0  0  0
  6  5  1  0  0  0  0
  7  6  1  6  0  0  0
  7 12  1  0  0  0  0
  8  9  1  0  0  0  0
  8  7  1  0  0  0  0
  9 10  1  0  0  0  0
  9 29  1  0  0  0  0
 10 31  1  6  0  0  0
 10 16  1  0  0  0  0
 10 11  1  0  0  0  0
 11 32  1  1  0  0  0
 11 13  1  0  0  0  0
 12  3  1  0  0  0  0
 12 11  1  0  0  0  0
 13 14  1  0  0  0  0
 13 34  1  0  0  0  0
 14 35  1  0  0  0  0
 14 36  1  0  0  0  0
 15 19  1  0  0  0  0
 15 14  1  0  0  0  0
 16 15  1  0  0  0  0
 16 37  1  0  0  0  0
 17 18  1  0  0  0  0
 17 16  1  0  0  0  0
 18 40  1  0  0  0  0
 18 19  1  0  0  0  0
 19  2  1  0  0  0  0
 19 42  1  0  0  0  0
 20 44  1  0  0  0  0
 20 15  1  0  0  0  0
 21 46  1  0  0  0  0
 21 48  1  0  0  0  0
 22 50  1  0  0  0  0
 22 51  1  0  0  0  0
 23 52  1  0  0  0  0
 23  3  1  0  0  0  0
 26  6  1  0  0  0  0
 27  8  1  0  0  0  0
 28  8  1  0  0  0  0
 30  9  1  0  0  0  0
 33 13  1  0  0  0  0
 38 17  1  0  0  0  0
 39 17  1  0  0  0  0
 41 18  1  0  0  0  0
 43 20  1  0  0  0  0
 45 20  1  0  0  0  0
 47 21  1  0  0  0  0
 49 22  1  0  0  0  0
 53 23  1  0  0  0  0
 54 23  1  0  0  0  0
M  END
