2
q = 0.0, confidence = 0.922

  3  2  0  0  0  0  0  0  0  0999 V2000
    2.9488    0.0982   -2.0294 S   0  0  0  0  0  0  0  0  0  0  0  0
    2.2983   -1.4810   -1.6300 C   0  0  0  0  0  0  0  0  0  0  0  0
    2.2213   -2.5561   -2.1626 O   0  0  0  0  0  0  0  0  0  0  0  0
  1  2  1  0  0  0  0
  3  2  2  0  0  0  0
M  END
