5
q = 0.0, confidence = 0.96

 30 33  0  0  1  0  0  0  0  0999 V2000
   -1.2034    2.3827    0.2809 C   0  0  1  0  0  0  0  0  0  0  0  0
    0.2786    2.7829    0.4905 C   0  0  0  0  0  0  0  0  0  0  0  0
    1.0591    1.7781   -0.3217 C   0  0  0  0  0  0  0  0  0  0  0  0
    2.4677    1.5392   -0.3344 C   0  0  0  0  0  0  0  0  0  0  0  0
    2.9869    0.5493   -1.2091 C   0  0  0  0  0  3  0  0  0  0  0  0
    2.1182   -0.2073   -2.0599 C   0  0  0  0  0  0  0  0  0  0  0  0
    0.7175    0.0128   -2.0162 C   0  0  0  0  0  0  0  0  0  0  0  0
    0.1941    1.0354   -1.1703 C   0  0  1  0  0  3  0  0  0  0  0  0
   -1.2429    1.4966   -1.0130 C   0  0  1  0  0  0  0  0  0  0  0  0
   -1.8283    1.4981    1.3975 C   0  0  0  0  0  0  0  0  0  0  0  0
   -2.5720    0.4097    0.6597 C   0  0  0  0  0  0  0  0  0  0  0  0
   -3.4568   -0.5499    1.1694 C   0  0  0  0  0  0  0  0  0  0  0  0
   -4.0225   -1.4948    0.2964 C   0  0  0  0  0  0  0  0  0  0  0  0
   -3.7126   -1.4787   -1.0740 C   0  0  0  0  0  0  0  0  0  0  0  0
   -2.8253   -0.5182   -1.5885 C   0  0  0  0  0  0  0  0  0  0  0  0
   -2.2544    0.4153   -0.7136 C   0  0  0  0  0  0  0  0  0  0  0  0
   -1.8342    3.2817    0.1391 H   0  0  0  0  0  0  0  0  0  0  0  0
    0.5785    2.7901    1.5580 H   0  0  0  0  0  0  0  0  0  0  0  0
    0.4811    3.8013    0.0932 H   0  0  0  0  0  0  0  0  0  0  0  0
    3.1356    2.0815    0.3489 H   0  0  0  0  0  0  0  0  0  0  0  0
    4.0633    0.3283   -1.2015 H   0  0  0  0  0  0  0  0  0  0  0  0
    2.5312   -1.0064   -2.6900 H   0  0  0  0  0  0  0  0  0  0  0  0
    0.0396   -0.6112   -2.6156 H   0  0  0  0  0  0  0  0  0  0  0  0
   -1.5195    2.0803   -1.9198 H   0  0  0  0  0  0  0  0  0  0  0  0
   -1.0462    1.0555    2.0490 H   0  0  0  0  0  0  0  0  0  0  0  0
   -2.4935    2.0829    2.0659 H   0  0  0  0  0  0  0  0  0  0  0  0
   -3.7060   -0.5663    2.2417 H   0  0  0  0  0  0  0  0  0  0  0  0
   -4.7165   -2.2533    0.6891 H   0  0  0  0  0  0  0  0  0  0  0  0
   -4.1680   -2.2208   -1.7470 H   0  0  0  0  0  0  0  0  0  0  0  0
   -2.5905   -0.4990   -2.6646 H   0  0  0  0  0  0  0  0  0  0  0  0
  1 17  1  6  0  0  0
  1  2  1  0  0  0  0
  1 10  1  0  0  0  0
  2 18  1  0  0  0  0
  3  2  1  0  0  0  0
  4  3  2  0  0  0  0
  4 20  1  0  0  0  0
  5 21  1  0  0  0  0
  5  4  1  0  0  0  0
  6  7  2  0  0  0  0
  6  5  1  0  0  0  0
  8  7  1  1  0  0  0
  8  9  1  0  0  0  0
  8  3  1  0  0  0  0
  9 24  1  6  0  0  0
  9 16  1  0  0  0  0
  9  1  1  0  0  0  0
 10 25  1  0  0  0  0
 10 26  1  0  0  0  0
 11 12  1  0  0  0  0
 11 10  1  0  0  0  0
 12 27  1  0  0  0  0
 13 28  1  0  0  0  0
 13 12  2  0  0  0  0
 14 13  1  0  0  0  0
 15 14  2  0  0  0  0
 15 16  1  0  0  0  0
 16 11  2  0  0  0  0
 19  2  1  0  0  0  0
 22  6  1  0  0  0  0
 23  7  1  0  0  0  0
 29 14  1  0  0  0  0
 30 15  1  0  0  0  0
M  END
