3
q = -1.0, confidence = 0.0

 25 27  0  0  0  0  0  0  0  0999 V2000
    1.4961    1.0571    1.6548 C   0  0  0  0  0  3  0  0  0  0  0  0
    1.9777    2.0309    1.8144 H   0  0  0  0  0  0  0  0  0  0  0  0
    2.2214   -0.1623    1.7931 C   0  0  0  0  0  3  0  0  0  0  0  0
    3.3089   -0.1261    1.9603 H   0  0  0  0  0  0  0  0  0  0  0  0
    1.5642   -1.3885    1.5413 C   0  0  0  0  0  3  0  0  0  0  0  0
    2.1667   -2.3087    1.5180 H   0  0  0  0  0  0  0  0  0  0  0  0
    0.0706   -1.4869    1.7512 C   0  0  0  0  0  0  0  0  0  0  0  0
   -0.2293   -1.5199    2.8279 H   0  0  0  0  0  0  0  0  0  0  0  0
   -0.2974   -2.4228    1.2933 H   0  0  0  0  0  0  0  0  0  0  0  0
   -2.5260   -1.5343    0.1784 C   0  0  0  0  0  0  0  0  0  0  0  0
   -2.0411   -2.4906    0.4171 H   0  0  0  0  0  0  0  0  0  0  0  0
   -3.7905   -1.5462   -0.4082 C   0  0  0  0  0  0  0  0  0  0  0  0
   -4.2844   -2.5075   -0.6153 H   0  0  0  0  0  0  0  0  0  0  0  0
   -4.4366   -0.3360   -0.7415 C   0  0  0  0  0  0  0  0  0  0  0  0
   -5.4341   -0.3512   -1.2052 H   0  0  0  0  0  0  0  0  0  0  0  0
   -3.8032    0.8756   -0.4783 C   0  0  0  0  0  0  0  0  0  0  0  0
   -4.2959    1.8282   -0.7280 H   0  0  0  0  0  0  0  0  0  0  0  0
   -1.8749    2.1670    0.4136 C   0  0  0  0  0  0  0  0  0  0  0  0
   -2.4172    3.0976    0.1858 H   0  0  0  0  0  0  0  0  0  0  0  0
   -0.6198    2.2154    0.9532 C   0  0  0  0  0  0  0  0  0  0  0  0
   -0.1261    3.1784    1.1519 H   0  0  0  0  0  0  0  0  0  0  0  0
    0.1054    1.0002    1.2572 C   0  0  0  0  0  0  0  0  0  0  0  0
   -0.5200   -0.2766    1.0411 C   0  0  0  0  0  0  0  0  0  0  0  0
   -1.8478   -0.3165    0.4429 C   0  0  0  0  0  0  0  0  0  0  0  0
   -2.5150    0.9133    0.1131 C   0  0  0  0  0  0  0  0  0  0  0  0
  1  3  1  0  0  0  0
  1  2  1  0  0  0  0
  3  4  1  0  0  0  0
  5  7  1  0  0  0  0
  5  3  1  0  0  0  0
  6  5  1  0  0  0  0
  7  8  1  0  0  0  0
  9  7  1  0  0  0  0
 10 11  1  0  0  0  0
 10 24  1  0  0  0  0
 12 10  2  0  0  0  0
 13 12  1  0  0  0  0
 14 16  2  0  0  0  0
 14 12  1  0  0  0  0
 15 14  1  0  0  0  0
 16 25  1  0  0  0  0
 17 16  1  0  0  0  0
 18 20  1  0  0  0  0
 19 18  1  0  0  0  0
 20 21  1  0  0  0  0
 20 22  2  0  0  0  0
 22  1  1  0  0  0  0
 23 22  1  0  0  0  0
 23  7  1  0  0  0  0
 24 23  2  0  0  0  0
 25 18  2  0  0  0  0
 25 24  1  0  0  0  0
M  END
