6
q = -1.0

 19 20  0  0  0  0  0  0  0  0999 V2000
    0.5153   -2.3512   -0.2139 C   0  0  0  0  0  0  0  0  0  0  0  0
    1.0287   -3.0629   -0.9071 H   0  0  0  0  0  0  0  0  0  0  0  0
    0.4542   -2.8554    0.7706 H   0  0  0  0  0  0  0  0  0  0  0  0
   -0.8636   -1.9574   -0.6913 C   0  0  0  0  0  3  0  0  0  0  0  0
   -1.7146   -2.6195   -0.4727 H   0  0  0  0  0  0  0  0  0  0  0  0
   -0.9896   -1.0375   -1.7628 C   0  0  0  0  0  3  0  0  0  0  0  0
   -1.9188   -0.9821   -2.3509 H   0  0  0  0  0  0  0  0  0  0  0  0
    0.0137   -0.0439   -1.9576 C   0  0  0  0  0  3  0  0  0  0  0  0
   -0.0766    0.7115   -2.7495 H   0  0  0  0  0  0  0  0  0  0  0  0
    2.1532    1.0079   -1.1360 C   0  0  0  0  0  0  0  0  0  0  0  0
    2.0680    1.7666   -1.9287 H   0  0  0  0  0  0  0  0  0  0  0  0
    3.1595    1.0862   -0.1904 C   0  0  0  0  0  0  0  0  0  0  0  0
    3.8946    1.9035   -0.2399 H   0  0  0  0  0  0  0  0  0  0  0  0
    3.2415    0.1260    0.8536 C   0  0  0  0  0  0  0  0  0  0  0  0
    4.0341    0.2061    1.6120 H   0  0  0  0  0  0  0  0  0  0  0  0
    2.3366   -0.9251    0.8989 C   0  0  0  0  0  0  0  0  0  0  0  0
    2.4235   -1.6989    1.6775 H   0  0  0  0  0  0  0  0  0  0  0  0
    1.3048   -1.0600   -0.0730 C   0  0  0  0  0  0  0  0  0  0  0  0
    1.1816   -0.0460   -1.0925 C   0  0  0  0  0  0  0  0  0  0  0  0
  1 18  1  0  0  0  0
  1  3  1  0  0  0  0
  2  1  1  0  0  0  0
  4  5  1  0  0  0  0
  4  1  1  0  0  0  0
  6  4  1  0  0  0  0
  7  6  1  0  0  0  0
  8  6  1  0  0  0  0
  8 19  1  0  0  0  0
  9  8  1  0  0  0  0
 10 19  2  0  0  0  0
 10 12  1  0  0  0  0
 11 10  1  0  0  0  0
 12 14  2  0  0  0  0
 13 12  1  0  0  0  0
 14 16  1  0  0  0  0
 14 15  1  0  0  0  0
 16 17  1  0  0  0  0
 18 16  2  0  0  0  0
 19 18  1  0  0  0  0
M  END
