7
q = -1.0

 23 25  0  0  1  0  0  0  0  0999 V2000
    2.0149   -2.2291   -0.1150 C   0  0  0  0  0  0  0  0  0  0  0  0
    1.6709   -2.6613    0.8495 H   0  0  0  0  0  0  0  0  0  0  0  0
    2.9520   -2.7584   -0.3805 H   0  0  0  0  0  0  0  0  0  0  0  0
    0.9093   -2.3743   -1.2099 C   0  0  0  0  0  0  0  0  0  0  0  0
    1.3691   -2.6380   -2.1880 H   0  0  0  0  0  0  0  0  0  0  0  0
    0.1725   -3.1656   -0.9738 H   0  0  0  0  0  0  0  0  0  0  0  0
   -0.8550   -0.4527   -1.9434 C   0  0  0  0  0  3  0  0  0  0  0  0
   -1.6129   -1.1130   -2.3933 H   0  0  0  0  0  0  0  0  0  0  0  0
   -1.0909    0.9519   -1.8047 C   0  0  0  0  0  3  0  0  0  0  0  0
   -2.0525    1.3383   -2.1745 H   0  0  0  0  0  0  0  0  0  0  0  0
    0.0579    1.9411   -1.6683 C   0  0  0  0  0  0  0  0  0  0  0  0
    0.5737    2.1454   -2.6397 H   0  0  0  0  0  0  0  0  0  0  0  0
   -0.3270    2.9154   -1.3068 H   0  0  0  0  0  0  0  0  0  0  0  0
    1.9551    2.0881    0.1361 C   0  0  0  0  0  0  0  0  0  0  0  0
    1.8861    3.1862    0.1696 H   0  0  0  0  0  0  0  0  0  0  0  0
    2.9606    1.4287    0.8452 C   0  0  0  0  0  0  0  0  0  0  0  0
    3.6672    2.0203    1.4470 H   0  0  0  0  0  0  0  0  0  0  0  0
    3.1083    0.0117    0.8086 C   0  0  0  0  0  0  0  0  0  0  0  0
    3.9162   -0.4689    1.3812 H   0  0  0  0  0  0  0  0  0  0  0  0
    2.2134   -0.7362    0.0607 C   0  0  0  0  0  0  0  0  0  0  0  0
    0.2922   -0.9944   -1.3024 C   0  0  2  0  0  3  0  0  0  0  0  0
    1.1918   -0.0540   -0.6647 C   0  0  0  0  0  0  0  0  0  0  0  0
    1.0333    1.3560   -0.6608 C   0  0  0  0  0  0  0  0  0  0  0  0
  1 20  1  0  0  0  0
  1  2  1  0  0  0  0
  3  1  1  0  0  0  0
  4  6  1  0  0  0  0
  4  1  1  0  0  0  0
  5  4  1  0  0  0  0
  7  9  1  0  0  0  0
  8  7  1  0  0  0  0
  9 11  1  0  0  0  0
 10  9  1  0  0  0  0
 11 13  1  0  0  0  0
 11 23  1  0  0  0  0
 12 11  1  0  0  0  0
 14 15  1  0  0  0  0
 14 16  1  0  0  0  0
 16 17  1  0  0  0  0
 18 16  2  0  0  0  0
 18 19  1  0  0  0  0
 20 18  1  0  0  0  0
 21  7  1  6  0  0  0
 21  4  1  0  0  0  0
 21 22  1  0  0  0  0
 22 23  1  0  0  0  0
 22 20  2  0  0  0  0
 23 14  2  0  0  0  0
M  END
