1
q = -1.0

 19 19  0  0  0  0  0  0  0  0999 V2000
   -0.2713   -0.0001   -0.0037 C   0  0  0  0  0  3  0  0  0  0  0  0
    4.9991   -0.2101    0.0019 C   0  0  0  0  0  0  0  0  0  0  0  0
    7.1824    0.9229    0.0411 C   0  0  0  0  0  0  0  0  0  0  0  0
    7.7496    1.8629    0.0705 H   0  0  0  0  0  0  0  0  0  0  0  0
    0.9788   -0.0551   -0.0021 C   0  0  0  0  0  0  0  0  0  0  0  0
    2.3394   -0.1056   -0.0009 C   0  0  0  0  0  0  0  0  0  0  0  0
    5.6881   -1.4564   -0.0331 C   0  0  0  0  0  0  0  0  0  0  0  0
    5.1020   -2.3864   -0.0621 H   0  0  0  0  0  0  0  0  0  0  0  0
    7.0790   -1.5111   -0.0311 C   0  0  0  0  0  0  0  0  0  0  0  0
    7.6132   -2.4720   -0.0581 H   0  0  0  0  0  0  0  0  0  0  0  0
    5.7831    0.9712    0.0389 C   0  0  0  0  0  0  0  0  0  0  0  0
    5.2734    1.9452    0.0664 H   0  0  0  0  0  0  0  0  0  0  0  0
    7.8435   -0.3231    0.0061 C   0  0  0  0  0  0  0  0  0  0  0  0
    9.1956   -0.4818    0.0050 O   0  0  0  0  0  0  0  0  0  0  0  0
   10.0082    0.6749    0.0414 C   0  0  0  0  0  0  0  0  0  0  0  0
    9.8410    1.3291   -0.8441 H   0  0  0  0  0  0  0  0  0  0  0  0
   11.0564    0.3227    0.0338 H   0  0  0  0  0  0  0  0  0  0  0  0
    9.8361    1.2757    0.9630 H   0  0  0  0  0  0  0  0  0  0  0  0
    3.5804   -0.1536    0.0002 C   0  0  0  0  0  0  0  0  0  0  0  0
  1  5  3  0  0  0  0
  2 11  1  0  0  0  0
  3  4  1  0  0  0  0
  5  6  1  0  0  0  0
  6 19  3  0  0  0  0
  7  9  1  0  0  0  0
  7  2  2  0  0  0  0
  8  7  1  0  0  0  0
  9 13  2  0  0  0  0
 10  9  1  0  0  0  0
 11  3  2  0  0  0  0
 11 12  1  0  0  0  0
 13  3  1  0  0  0  0
 14 13  1  0  0  0  0
 14 15  1  0  0  0  0
 15 18  1  0  0  0  0
 16 15  1  0  0  0  0
 17 15  1  0  0  0  0
 19  2  1  0  0  0  0
M  END
