5
q = 0.0, confidence = 0.98

 35 37  0  0  0  0  0  0  0  0999 V2000
   -1.0163    4.2944   -0.5320 Cl  0  0  0  0  0  0  0  0  0  0  0  0
   -3.3696    2.4949    1.4036 Cl  0  0  0  0  0  0  0  0  0  0  0  0
   -0.0508    1.7272   -0.4985 N   0  0  0  0  0  0  0  0  0  0  0  0
   -1.4947    0.6249    0.7020 N   0  0  0  0  0  0  0  0  0  0  0  0
   -0.3126    0.4839    0.0170 C   0  0  0  0  0  2  0  0  0  0  0  0
   -1.0412    2.6346   -0.1271 C   0  0  0  0  0  0  0  0  0  0  0  0
   -1.9562    1.9382    0.6276 C   0  0  0  0  0  0  0  0  0  0  0  0
    1.0659    2.0028   -1.4048 C   0  0  0  0  0  0  0  0  0  0  0  0
    0.8282    2.9558   -1.9191 H   0  0  0  0  0  0  0  0  0  0  0  0
    1.0660    1.1879   -2.1563 H   0  0  0  0  0  0  0  0  0  0  0  0
    2.4015    2.0928   -0.7009 C   0  0  0  0  0  0  0  0  0  0  0  0
    2.5700    2.9047    0.4377 C   0  0  0  0  0  0  0  0  0  0  0  0
    1.7176    3.4849    0.8251 H   0  0  0  0  0  0  0  0  0  0  0  0
    3.8130    2.9735    1.0833 C   0  0  0  0  0  0  0  0  0  0  0  0
    3.9317    3.6060    1.9762 H   0  0  0  0  0  0  0  0  0  0  0  0
    4.9051    2.2402    0.5897 C   0  0  0  0  0  0  0  0  0  0  0  0
    5.8807    2.2943    1.0960 H   0  0  0  0  0  0  0  0  0  0  0  0
    4.7461    1.4386   -0.5514 C   0  0  0  0  0  0  0  0  0  0  0  0
    5.5961    0.8577   -0.9408 H   0  0  0  0  0  0  0  0  0  0  0  0
    3.4979    1.3599   -1.1882 C   0  0  0  0  0  0  0  0  0  0  0  0
    3.3600    0.7097   -2.0658 H   0  0  0  0  0  0  0  0  0  0  0  0
   -2.2643   -0.4949    1.2521 C   0  0  0  0  0  0  0  0  0  0  0  0
   -2.5182   -0.2721    2.3076 H   0  0  0  0  0  0  0  0  0  0  0  0
   -1.5615   -1.3528    1.2244 H   0  0  0  0  0  0  0  0  0  0  0  0
   -3.5134   -0.8059    0.4527 C   0  0  0  0  0  0  0  0  0  0  0  0
   -3.4177   -1.0941   -0.9239 C   0  0  0  0  0  0  0  0  0  0  0  0
   -2.4345   -1.0855   -1.4268 H   0  0  0  0  0  0  0  0  0  0  0  0
   -4.5741   -1.4020   -1.6548 C   0  0  0  0  0  0  0  0  0  0  0  0
   -4.4889   -1.6274   -2.7288 H   0  0  0  0  0  0  0  0  0  0  0  0
   -5.8292   -1.4304   -1.0242 C   0  0  0  0  0  0  0  0  0  0  0  0
   -6.7337   -1.6732   -1.6027 H   0  0  0  0  0  0  0  0  0  0  0  0
   -5.9265   -1.1470    0.3467 C   0  0  0  0  0  0  0  0  0  0  0  0
   -6.9064   -1.1642    0.8478 H   0  0  0  0  0  0  0  0  0  0  0  0
   -4.7722   -0.8317    1.0799 C   0  0  0  0  0  0  0  0  0  0  0  0
   -4.8494   -0.5974    2.1538 H   0  0  0  0  0  0  0  0  0  0  0  0
  1  6  1  0  0  0  0
  3  6  1  0  0  0  0
  3  5  1  0  0  0  0
  4 22  1  0  0  0  0
  5  4  1  0  0  0  0
  6  7  2  0  0  0  0
  7  4  1  0  0  0  0
  7  2  1  0  0  0  0
  8 11  1  0  0  0  0
  8  3  1  0  0  0  0
  9  8  1  0  0  0  0
 10  8  1  0  0  0  0
 11 12  1  0  0  0  0
 12 13  1  0  0  0  0
 12 14  2  0  0  0  0
 14 15  1  0  0  0  0
 16 14  1  0  0  0  0
 16 17  1  0  0  0  0
 18 16  2  0  0  0  0
 19 18  1  0  0  0  0
 20 11  2  0  0  0  0
 20 18  1  0  0  0  0
 21 20  1  0  0  0  0
 22 23  1  0  0  0  0
 24 22  1  0  0  0  0
 25 34  1  0  0  0  0
 25 22  1  0  0  0  0
 26 25  2  0  0  0  0
 27 26  1  0  0  0  0
 28 30  2  0  0  0  0
 28 26  1  0  0  0  0
 29 28  1  0  0  0  0
 30 32  1  0  0  0  0
 31 30  1  0  0  0  0
 32 33  1  0  0  0  0
 32 34  2  0  0  0  0
 34 35  1  0  0  0  0
M  END
