5
q = -1.0

 16 17  0  0  0  0  0  0  0  0999 V2000
   -2.7210   -0.3280    0.8017 S   0  0  0  0  0  0  0  0  0  0  0  0
   -2.9300    1.1240   -0.1361 C   0  0  0  0  0  0  0  0  0  0  0  0
   -2.0041    1.2642   -1.1358 C   0  0  0  0  0  0  0  0  0  0  0  0
    0.1085    0.0123   -2.0020 C   0  0  0  0  0  3  0  0  0  0  0  0
    0.9409   -1.1215   -1.7492 C   0  0  0  0  0  3  0  0  0  0  0  0
    0.6441   -2.0055   -0.6799 C   0  0  0  0  0  3  0  0  0  0  0  0
   -0.7873   -2.2033   -0.2123 C   0  0  0  0  0  0  0  0  0  0  0  0
   -1.3084   -0.7903   -0.1368 C   0  0  0  0  0  0  0  0  0  0  0  0
   -1.0639    0.1647   -1.1735 C   0  0  0  0  0  0  0  0  0  0  0  0
    1.3905   -2.7742   -0.4301 H   0  0  0  0  0  0  0  0  0  0  0  0
    1.8920   -1.2148   -2.2957 H   0  0  0  0  0  0  0  0  0  0  0  0
    0.3354    0.7323   -2.7984 H   0  0  0  0  0  0  0  0  0  0  0  0
   -1.4024   -2.8521   -0.8841 H   0  0  0  0  0  0  0  0  0  0  0  0
   -0.7936   -2.6738    0.7905 H   0  0  0  0  0  0  0  0  0  0  0  0
   -3.7203    1.8335    0.1417 H   0  0  0  0  0  0  0  0  0  0  0  0
   -1.9540    2.1299   -1.8092 H   0  0  0  0  0  0  0  0  0  0  0  0
  2 15  1  0  0  0  0
  2  1  1  0  0  0  0
  3  2  2  0  0  0  0
  4  5  1  0  0  0  0
  4  9  1  0  0  0  0
  5  6  1  0  0  0  0
  6 10  1  0  0  0  0
  6  7  1  0  0  0  0
  7  8  1  0  0  0  0
  7 14  1  0  0  0  0
  8  1  1  0  0  0  0
  9  3  1  0  0  0  0
  9  8  2  0  0  0  0
 11  5  1  0  0  0  0
 12  4  1  0  0  0  0
 13  7  1  0  0  0  0
 16  3  1  0  0  0  0
M  END
