4
q = -1.0, confidence = 0.016

 10  9  0  0  0  0  0  0  0  0999 V2000
   -2.1648    0.7433   -2.8532 Cl  0  0  0  0  0  0  0  0  0  0  0  0
   -1.6788    3.5238   -0.0750 O   0  0  0  0  0  0  0  0  0  0  0  0
   -1.4817    3.5369   -2.3368 O   0  0  0  0  0  0  0  0  0  0  0  0
   -1.8359    1.4437   -1.2206 C   0  0  0  0  0  3  0  0  0  0  0  0
   -1.6688    2.9326   -1.1503 C   0  0  0  0  0  0  0  0  0  0  0  0
   -1.0781    4.9064   -2.2661 C   0  0  0  0  0  0  0  0  0  0  0  0
   -2.7052    1.1809   -0.5889 H   0  0  0  0  0  0  0  0  0  0  0  0
   -1.1005    5.2875   -3.3030 H   0  0  0  0  0  0  0  0  0  0  0  0
   -0.0483    4.9702   -1.8588 H   0  0  0  0  0  0  0  0  0  0  0  0
   -1.7587    5.4931   -1.6170 H   0  0  0  0  0  0  0  0  0  0  0  0
  1  4  1  0  0  0  0
  3  6  1  0  0  0  0
  3  5  1  0  0  0  0
  4  5  1  0  0  0  0
  4  7  1  0  0  0  0
  5  2  2  0  0  0  0
  6  9  1  0  0  0  0
  6 10  1  0  0  0  0
  8  6  1  0  0  0  0
M  END
