7
q = -1.0

 24 24  0  0  1  0  0  0  0  0999 V2000
    0.0180   -2.9778    0.6806 O   0  0  0  0  0  0  0  0  0  0  0  0
    1.7866   -1.8450   -0.6034 C   0  0  0  0  0  3  0  0  0  0  0  0
    1.3511   -2.1899   -1.5530 H   0  0  0  0  0  0  0  0  0  0  0  0
    1.0954   -2.1799    0.5990 C   0  0  0  0  0  0  0  0  0  0  0  0
    1.5023   -1.4989    1.7890 C   0  0  0  0  0  0  0  0  0  0  0  0
    0.9578   -1.6462    2.7308 H   0  0  0  0  0  0  0  0  0  0  0  0
    2.6756   -0.6746    1.7179 C   0  0  0  0  0  3  0  0  0  0  0  0
    2.9460   -0.0757    2.6017 H   0  0  0  0  0  0  0  0  0  0  0  0
    3.4600   -0.5526    0.5409 C   0  0  2  0  0  3  0  0  0  0  0  0
    3.2824   -1.6060   -0.5376 C   0  0  0  0  0  0  0  0  0  0  0  0
    3.6325   -1.2195   -1.5125 H   0  0  0  0  0  0  0  0  0  0  0  0
    3.8764   -2.5247   -0.3212 H   0  0  0  0  0  0  0  0  0  0  0  0
   -0.1995   -3.9504   -0.3556 C   0  0  0  0  0  0  0  0  0  0  0  0
   -0.9905   -4.6188    0.0264 H   0  0  0  0  0  0  0  0  0  0  0  0
    0.7277   -4.5317   -0.5355 H   0  0  0  0  0  0  0  0  0  0  0  0
   -0.5450   -3.4802   -1.2954 H   0  0  0  0  0  0  0  0  0  0  0  0
    4.5567    0.4031    0.5116 C   0  0  0  0  0  0  0  0  0  0  0  0
    4.6118    1.1007    1.3661 H   0  0  0  0  0  0  0  0  0  0  0  0
    5.5040    0.4858   -0.4585 C   0  0  0  0  0  0  0  0  0  0  0  0
    5.4500   -0.2055   -1.3185 H   0  0  0  0  0  0  0  0  0  0  0  0
    6.6429    1.4466   -0.4602 C   0  0  0  0  0  0  0  0  0  0  0  0
    7.6140    0.9066   -0.4904 H   0  0  0  0  0  0  0  0  0  0  0  0
    6.6377    2.1110    0.4251 H   0  0  0  0  0  0  0  0  0  0  0  0
    6.6231    2.0762   -1.3763 H   0  0  0  0  0  0  0  0  0  0  0  0
  2 10  1  0  0  0  0
  2  4  1  0  0  0  0
  3  2  1  0  0  0  0
  4  1  1  0  0  0  0
  4  5  2  0  0  0  0
  5  6  1  0  0  0  0
  7  5  1  0  0  0  0
  7  8  1  0  0  0  0
  9 17  1  1  0  0  0
  9  7  1  0  0  0  0
 10 12  1  0  0  0  0
 10  9  1  0  0  0  0
 11 10  1  0  0  0  0
 13 14  1  0  0  0  0
 13  1  1  0  0  0  0
 15 13  1  0  0  0  0
 16 13  1  0  0  0  0
 17 18  1  0  0  0  0
 19 17  2  0  0  0  0
 20 19  1  0  0  0  0
 21 19  1  0  0  0  0
 21 23  1  0  0  0  0
 22 21  1  0  0  0  0
 24 21  1  0  0  0  0
M  END
