3
q = 0.0, confidence = 0.968

 30 29  0  0  0  0  0  0  0  0999 V2000
   -5.0067   -0.3330    0.1990 Si  0  0  0  0  0  0  0  0  0  0  0  0
    1.1106   -0.5837    3.1043 Si  0  0  0  0  0  0  0  0  0  0  0  0
    0.5271   -0.2160    1.3777 C   0  0  0  0  0  2  0  0  0  0  0  0
   -0.5854   -0.1499    0.6846 C   0  0  0  0  0  2  0  0  0  0  0  0
   -1.9574   -0.2225    0.6246 C   0  0  0  0  0  0  0  0  0  0  0  0
   -3.1956   -0.2688    0.4853 C   0  0  0  0  0  0  0  0  0  0  0  0
   -5.3816   -1.7890   -0.9532 C   0  0  0  0  0  0  0  0  0  0  0  0
   -5.5491    1.2885   -0.6164 C   0  0  0  0  0  0  0  0  0  0  0  0
   -5.9101   -0.5620    1.8460 C   0  0  0  0  0  0  0  0  0  0  0  0
    0.2517   -2.1772    3.6794 C   0  0  0  0  0  0  0  0  0  0  0  0
    0.5998    0.8115    4.2866 C   0  0  0  0  0  0  0  0  0  0  0  0
    2.9901   -0.7902    3.1794 C   0  0  0  0  0  0  0  0  0  0  0  0
   -4.8559   -1.6677   -1.9219 H   0  0  0  0  0  0  0  0  0  0  0  0
   -5.0493   -2.7455   -0.5010 H   0  0  0  0  0  0  0  0  0  0  0  0
   -6.4704   -1.8622   -1.1555 H   0  0  0  0  0  0  0  0  0  0  0  0
   -5.0346    1.4285   -1.5884 H   0  0  0  0  0  0  0  0  0  0  0  0
   -6.6439    1.2924   -0.7987 H   0  0  0  0  0  0  0  0  0  0  0  0
   -5.3034    2.1565    0.0285 H   0  0  0  0  0  0  0  0  0  0  0  0
   -5.6908    0.2771    2.5369 H   0  0  0  0  0  0  0  0  0  0  0  0
   -7.0084   -0.6042    1.6914 H   0  0  0  0  0  0  0  0  0  0  0  0
   -5.5945   -1.5022    2.3417 H   0  0  0  0  0  0  0  0  0  0  0  0
    0.5328   -3.0476    3.0522 H   0  0  0  0  0  0  0  0  0  0  0  0
    0.5160   -2.4164    4.7306 H   0  0  0  0  0  0  0  0  0  0  0  0
   -0.8494   -2.0587    3.6150 H   0  0  0  0  0  0  0  0  0  0  0  0
    1.1743    1.7403    4.0996 H   0  0  0  0  0  0  0  0  0  0  0  0
   -0.4801    1.0416    4.1841 H   0  0  0  0  0  0  0  0  0  0  0  0
    0.7882    0.5051    5.3368 H   0  0  0  0  0  0  0  0  0  0  0  0
    3.5073    0.0931    2.7539 H   0  0  0  0  0  0  0  0  0  0  0  0
    3.3239   -0.9100    4.2308 H   0  0  0  0  0  0  0  0  0  0  0  0
    3.3301   -1.6775    2.6105 H   0  0  0  0  0  0  0  0  0  0  0  0
  1  6  1  0  0  0  0
  1  9  1  0  0  0  0
  2 12  1  0  0  0  0
  2 10  1  0  0  0  0
  2 11  1  0  0  0  0
  3  2  1  0  0  0  0
  4  3  1  0  0  0  0
  5  4  1  0  0  0  0
  6  5  3  0  0  0  0
  7 14  1  0  0  0  0
  7  1  1  0  0  0  0
  8 18  1  0  0  0  0
  8  1  1  0  0  0  0
  9 21  1  0  0  0  0
  9 19  1  0  0  0  0
 10 23  1  0  0  0  0
 11 27  1  0  0  0  0
 12 29  1  0  0  0  0
 13  7  1  0  0  0  0
 15  7  1  0  0  0  0
 16  8  1  0  0  0  0
 17  8  1  0  0  0  0
 20  9  1  0  0  0  0
 22 10  1  0  0  0  0
 24 10  1  0  0  0  0
 25 11  1  0  0  0  0
 26 11  1  0  0  0  0
 28 12  1  0  0  0  0
 30 12  1  0  0  0  0
M  END
