1
q = -1.0, confidence = 0.01

 27 28  0  0  1  0  0  0  0  0999 V2000
   -1.0450   -0.1640    0.1396 C   0  0  0  0  0  3  0  0  0  0  0  0
   -0.7230    0.8866    0.2386 H   0  0  0  0  0  0  0  0  0  0  0  0
   -2.0500   -0.3208   -1.0247 C   0  0  2  0  0  0  0  0  0  0  0  0
   -1.5914   -0.4309   -2.0253 H   0  0  0  0  0  0  0  0  0  0  0  0
   -3.0114    0.8922   -0.9141 C   0  0  0  0  0  0  0  0  0  0  0  0
   -3.6804    0.9309   -1.7974 H   0  0  0  0  0  0  0  0  0  0  0  0
   -2.4866    1.8667   -0.8599 H   0  0  0  0  0  0  0  0  0  0  0  0
   -3.8175    0.5685    0.3938 C   0  0  2  0  0  0  0  0  0  0  0  0
   -3.6193    1.3380    1.1706 H   0  0  0  0  0  0  0  0  0  0  0  0
   -3.2680   -0.8157    0.8104 C   0  0  2  0  0  0  0  0  0  0  0  0
   -3.9547   -1.3711    1.4760 H   0  0  0  0  0  0  0  0  0  0  0  0
   -1.8450   -0.6148    1.4043 C   0  0  1  0  0  0  0  0  0  0  0  0
   -1.8540    0.2341    2.1245 H   0  0  0  0  0  0  0  0  0  0  0  0
   -1.3534   -1.8550    2.1610 C   0  0  0  0  0  0  0  0  0  0  0  0
   -2.0113   -2.0517    3.0326 H   0  0  0  0  0  0  0  0  0  0  0  0
   -0.3185   -1.7123    2.5346 H   0  0  0  0  0  0  0  0  0  0  0  0
   -1.3353   -2.7499    1.5102 H   0  0  0  0  0  0  0  0  0  0  0  0
   -2.9656   -1.4648   -0.5538 C   0  0  0  0  0  0  0  0  0  0  0  0
   -2.4362   -2.4333   -0.4898 H   0  0  0  0  0  0  0  0  0  0  0  0
   -3.8725   -1.5821   -1.1801 H   0  0  0  0  0  0  0  0  0  0  0  0
   -5.3170    0.5656    0.1668 C   0  0  0  0  0  0  0  0  0  0  0  0
   -6.0698   -0.3794    0.3103 O   0  0  0  0  0  0  0  0  0  0  0  0
   -5.7406    1.7952   -0.2364 O   0  0  0  0  0  0  0  0  0  0  0  0
   -7.1435    1.9011   -0.5000 C   0  0  0  0  0  0  0  0  0  0  0  0
   -7.4498    1.2034   -1.3060 H   0  0  0  0  0  0  0  0  0  0  0  0
   -7.3216    2.9468   -0.8088 H   0  0  0  0  0  0  0  0  0  0  0  0
   -7.7374    1.6590    0.4049 H   0  0  0  0  0  0  0  0  0  0  0  0
  1  2  1  0  0  0  0
  1 12  1  0  0  0  0
  3  4  1  6  0  0  0
  3  5  1  0  0  0  0
  3 18  1  0  0  0  0
  3  1  1  0  0  0  0
  5  7  1  0  0  0  0
  5  8  1  0  0  0  0
  6  5  1  0  0  0  0
  8 10  1  0  0  0  0
  8  9  1  1  0  0  0
 10 12  1  0  0  0  0
 10 11  1  1  0  0  0
 12 13  1  1  0  0  0
 12 14  1  0  0  0  0
 14 16  1  0  0  0  0
 14 15  1  0  0  0  0
 17 14  1  0  0  0  0
 18 19  1  0  0  0  0
 18 10  1  0  0  0  0
 20 18  1  0  0  0  0
 21 22  2  0  0  0  0
 21  8  1  0  0  0  0
 23 21  1  0  0  0  0
 24 23  1  0  0  0  0
 24 27  1  0  0  0  0
 25 24  1  0  0  0  0
 26 24  1  0  0  0  0
M  END
