2
q = -1.0, confidence = 0.0

 17 16  0  0  0  0  0  0  0  0999 V2000
    1.6385    2.5739    0.4348 Si  0  0  0  0  0  0  0  0  0  0  0  0
    1.2421    1.2554   -0.8773 C   0  0  0  0  0  3  0  0  0  0  0  0
    2.1522    0.6751   -1.1128 H   0  0  0  0  0  0  0  0  0  0  0  0
    0.9802    1.7953   -1.8142 H   0  0  0  0  0  0  0  0  0  0  0  0
    1.2386    2.0150    2.2042 C   0  0  0  0  0  0  0  0  0  0  0  0
    1.8438    1.1388    2.5068 H   0  0  0  0  0  0  0  0  0  0  0  0
    0.1687    1.7319    2.2854 H   0  0  0  0  0  0  0  0  0  0  0  0
    1.4415    2.8346    2.9237 H   0  0  0  0  0  0  0  0  0  0  0  0
    0.6514    4.1550    0.0863 C   0  0  0  0  0  0  0  0  0  0  0  0
    0.9119    4.9529    0.8119 H   0  0  0  0  0  0  0  0  0  0  0  0
   -0.4392    3.9731    0.1657 H   0  0  0  0  0  0  0  0  0  0  0  0
    0.8544    4.5396   -0.9341 H   0  0  0  0  0  0  0  0  0  0  0  0
    3.4850    2.9614    0.3165 C   0  0  0  0  0  0  0  0  0  0  0  0
    4.1908    2.1216    0.4724 H   0  0  0  0  0  0  0  0  0  0  0  0
    4.0123    4.1687    0.0282 C   0  0  0  0  0  0  0  0  0  0  0  0
    3.3771    5.0546   -0.1499 H   0  0  0  0  0  0  0  0  0  0  0  0
    5.1017    4.3365   -0.0468 H   0  0  0  0  0  0  0  0  0  0  0  0
  1  5  1  0  0  0  0
  2  1  1  0  0  0  0
  3  2  1  0  0  0  0
  4  2  1  0  0  0  0
  5  7  1  0  0  0  0
  5  6  1  0  0  0  0
  5  8  1  0  0  0  0
  9 11  1  0  0  0  0
  9  1  1  0  0  0  0
  9 10  1  0  0  0  0
 12  9  1  0  0  0  0
 13  1  1  0  0  0  0
 13 14  1  0  0  0  0
 15 13  2  0  0  0  0
 16 15  1  0  0  0  0
 17 15  1  0  0  0  0
M  END
