15
q = -1.0, confidence = 0.0

 21 22  0  0  0  0  0  0  0  0999 V2000
   -0.6257   -1.9736   -0.0510 S   0  0  0  0  0  0  0  0  0  0  0  0
   -2.2560    0.2111    0.0016 C   0  0  0  0  0  0  0  0  0  0  0  0
   -2.2390   -1.2023    0.1610 C   0  0  0  0  0  0  0  0  0  0  0  0
   -1.1500    2.2960   -0.5259 C   0  0  0  0  0  0  0  0  0  0  0  0
   -0.2539    2.8717   -0.8029 H   0  0  0  0  0  0  0  0  0  0  0  0
   -3.3801   -1.9402    0.4452 C   0  0  0  0  0  0  0  0  0  0  0  0
   -3.3250   -3.0321    0.5730 H   0  0  0  0  0  0  0  0  0  0  0  0
   -4.6933    0.1128    0.3784 C   0  0  0  0  0  0  0  0  0  0  0  0
   -5.6628    0.6304    0.4529 H   0  0  0  0  0  0  0  0  0  0  0  0
   -2.4009    2.9696   -0.4605 C   0  0  0  0  0  0  0  0  0  0  0  0
   -2.4363    4.0510   -0.6680 H   0  0  0  0  0  0  0  0  0  0  0  0
   -3.5300    0.8859    0.0868 C   0  0  0  0  0  0  0  0  0  0  0  0
   -3.5688    2.2912   -0.1411 C   0  0  0  0  0  0  0  0  0  0  0  0
   -4.5325    2.8195   -0.0782 H   0  0  0  0  0  0  0  0  0  0  0  0
   -1.0407    0.9315   -0.2615 C   0  0  0  0  0  3  0  0  0  0  0  0
   -0.8359   -2.7441   -1.6993 C   0  0  0  0  0  0  0  0  0  0  0  0
   -0.9069   -1.9464   -2.4621 H   0  0  0  0  0  0  0  0  0  0  0  0
   -1.7280   -3.3968   -1.6726 H   0  0  0  0  0  0  0  0  0  0  0  0
    0.0763   -3.3447   -1.8755 H   0  0  0  0  0  0  0  0  0  0  0  0
   -4.6229   -1.2624    0.5594 C   0  0  0  0  0  0  0  0  0  0  0  0
   -5.5331   -1.8376    0.7864 H   0  0  0  0  0  0  0  0  0  0  0  0
  1  3  1  0  0  0  0
  2 12  1  0  0  0  0
  2  3  2  0  0  0  0
  3  6  1  0  0  0  0
  4 10  1  0  0  0  0
  4 15  2  0  0  0  0
  5  4  1  0  0  0  0
  6 20  2  0  0  0  0
  6  7  1  0  0  0  0
  8  9  1  0  0  0  0
  8 20  1  0  0  0  0
 10 13  2  0  0  0  0
 11 10  1  0  0  0  0
 12  8  2  0  0  0  0
 13 14  1  0  0  0  0
 13 12  1  0  0  0  0
 15  2  1  0  0  0  0
 16 18  1  0  0  0  0
 16  1  1  0  0  0  0
 17 16  1  0  0  0  0
 19 16  1  0  0  0  0
 20 21  1  0  0  0  0
M  END
