5
q = -1.0

  9  9  0  0  0  0  0  0  0  0999 V2000
   -0.3400    1.7921    1.7433 N   0  0  0  0  0  0  0  0  0  0  0  0
   -0.5241    2.5384    0.5964 C   0  0  0  0  0  0  0  0  0  0  0  0
    0.7176    3.0413    0.0891 C   0  0  0  0  0  0  0  0  0  0  0  0
    1.7226    2.5705    0.9959 C   0  0  0  0  0  0  0  0  0  0  0  0
    1.0195    1.8111    1.9881 C   0  0  0  0  0  3  0  0  0  0  0  0
   -1.5257    2.6564    0.1648 H   0  0  0  0  0  0  0  0  0  0  0  0
    0.8720    3.6250   -0.8248 H   0  0  0  0  0  0  0  0  0  0  0  0
    2.8051    2.7186    0.9221 H   0  0  0  0  0  0  0  0  0  0  0  0
    1.4479    1.2600    2.8346 H   0  0  0  0  0  0  0  0  0  0  0  0
  1  5  1  0  0  0  0
  2  1  2  0  0  0  0
  3  2  1  0  0  0  0
  3  4  2  0  0  0  0
  4  5  1  0  0  0  0
  5  9  1  0  0  0  0
  6  2  1  0  0  0  0
  7  3  1  0  0  0  0
  8  4  1  0  0  0  0
M  END
