3
q = -1.0

 17 16  0  0  0  0  0  0  0  0999 V2000
    4.2601    0.0356    1.6598 O   0  0  0  0  0  0  0  0  0  0  0  0
    4.5452    0.0065   -0.5884 O   0  0  0  0  0  0  0  0  0  0  0  0
    1.2646    0.0250    0.9747 C   0  0  0  0  0  3  0  0  0  0  0  0
    2.3394    0.0155    0.1405 C   0  0  0  0  0  0  0  0  0  0  0  0
    3.7628    0.0219    0.5394 C   0  0  0  0  0  0  0  0  0  0  0  0
    5.9610    0.0112   -0.3598 C   0  0  0  0  0  0  0  0  0  0  0  0
    6.6509   -0.0013   -1.7099 C   0  0  0  0  0  0  0  0  0  0  0  0
    1.3791    0.0629    2.4673 C   0  0  0  0  0  0  0  0  0  0  0  0
    2.2088    0.0060   -0.9502 H   0  0  0  0  0  0  0  0  0  0  0  0
    6.2370   -0.8706    0.2589 H   0  0  0  0  0  0  0  0  0  0  0  0
    6.2339    0.9063    0.2409 H   0  0  0  0  0  0  0  0  0  0  0  0
    7.7515    0.0020   -1.5791 H   0  0  0  0  0  0  0  0  0  0  0  0
    6.3688    0.8886   -2.3072 H   0  0  0  0  0  0  0  0  0  0  0  0
    6.3722   -0.9042   -2.2892 H   0  0  0  0  0  0  0  0  0  0  0  0
    0.7906   -0.7456    2.9457 H   0  0  0  0  0  0  0  0  0  0  0  0
    0.9624    1.0094    2.8709 H   0  0  0  0  0  0  0  0  0  0  0  0
    2.4411   -0.0141    2.7720 H   0  0  0  0  0  0  0  0  0  0  0  0
  2  6  1  0  0  0  0
  2  5  1  0  0  0  0
  3  8  1  0  0  0  0
  4  5  1  0  0  0  0
  4  3  2  0  0  0  0
  5  1  2  0  0  0  0
  6 11  1  0  0  0  0
  6 10  1  0  0  0  0
  7 12  1  0  0  0  0
  7  6  1  0  0  0  0
  8 17  1  0  0  0  0
  8 16  1  0  0  0  0
  8 15  1  0  0  0  0
  9  4  1  0  0  0  0
 13  7  1  0  0  0  0
 14  7  1  0  0  0  0
M  END
