5
q = -1.0, confidence = 0.002

 24 27  0  0  0  0  0  0  0  0999 V2000
   -4.3403    0.6691    2.1684 C   0  0  0  0  0  0  0  0  0  0  0  0
   -3.1907    1.0890    2.8603 C   0  0  0  0  0  0  0  0  0  0  0  0
   -1.8794    0.6176    2.5694 C   0  0  0  0  0  0  0  0  0  0  0  0
   -1.7076   -0.3071    1.5276 C   0  0  0  0  0  0  0  0  0  0  0  0
   -0.5526   -1.0148    0.8816 C   0  0  0  0  0  3  0  0  0  0  0  0
   -0.7657   -2.9594   -0.9841 C   0  0  0  0  0  0  0  0  0  0  0  0
   -1.1926   -1.9553   -0.1036 C   0  0  0  0  0  0  0  0  0  0  0  0
   -1.7260   -3.6300   -1.7915 C   0  0  0  0  0  0  0  0  0  0  0  0
   -3.1004   -3.3441   -1.7599 C   0  0  0  0  0  0  0  0  0  0  0  0
   -4.9358   -1.8920   -0.6312 C   0  0  0  0  0  0  0  0  0  0  0  0
   -3.5818   -2.3482   -0.8678 C   0  0  0  0  0  0  0  0  0  0  0  0
   -5.2368   -0.9207    0.3164 C   0  0  0  0  0  0  0  0  0  0  0  0
   -4.2161   -0.3013    1.1365 C   0  0  0  0  0  0  0  0  0  0  0  0
   -2.5943   -1.7172   -0.0825 C   0  0  0  0  0  0  0  0  0  0  0  0
   -2.8991   -0.7383    0.8820 C   0  0  0  0  0  0  0  0  0  0  0  0
   -5.3261    1.0782    2.4390 H   0  0  0  0  0  0  0  0  0  0  0  0
   -3.3075    1.8239    3.6724 H   0  0  0  0  0  0  0  0  0  0  0  0
   -1.0320    0.9904    3.1628 H   0  0  0  0  0  0  0  0  0  0  0  0
    0.1264   -1.4948    1.6008 H   0  0  0  0  0  0  0  0  0  0  0  0
    0.2955   -3.2324   -1.0890 H   0  0  0  0  0  0  0  0  0  0  0  0
   -1.3670   -4.4084   -2.4828 H   0  0  0  0  0  0  0  0  0  0  0  0
   -3.7931   -3.8927   -2.4169 H   0  0  0  0  0  0  0  0  0  0  0  0
   -5.7548   -2.3383   -1.2181 H   0  0  0  0  0  0  0  0  0  0  0  0
   -6.2870   -0.6194    0.4597 H   0  0  0  0  0  0  0  0  0  0  0  0
  1 16  1  0  0  0  0
  1  2  1  0  0  0  0
  2 17  1  0  0  0  0
  3  2  2  0  0  0  0
  3 18  1  0  0  0  0
  4  3  1  0  0  0  0
  5  4  1  0  0  0  0
  5 19  1  0  0  0  0
  6  7  1  0  0  0  0
  7 14  2  0  0  0  0
  7  5  1  0  0  0  0
  8  9  1  0  0  0  0
  8  6  2  0  0  0  0
  9 11  2  0  0  0  0
 10 12  2  0  0  0  0
 11 10  1  0  0  0  0
 11 14  1  0  0  0  0
 12 24  1  0  0  0  0
 12 13  1  0  0  0  0
 13  1  2  0  0  0  0
 14 15  1  0  0  0  0
 15 13  1  0  0  0  0
 15  4  2  0  0  0  0
 20  6  1  0  0  0  0
 21  8  1  0  0  0  0
 22  9  1  0  0  0  0
 23 10  1  0  0  0  0
M  END
