1
q = -1.0, confidence = 0.002

 27 28  0  0  1  0  0  0  0  0999 V2000
    1.4503   -0.5323    0.3138 C   0  0  0  0  0  3  0  0  0  0  0  0
    1.2022    0.4970    0.6186 H   0  0  0  0  0  0  0  0  0  0  0  0
    2.0266   -1.3525    1.5120 C   0  0  2  0  0  0  0  0  0  0  0  0
    2.0458   -0.6849    2.4015 H   0  0  0  0  0  0  0  0  0  0  0  0
    3.4810   -1.6267    1.0313 C   0  0  2  0  0  0  0  0  0  0  0  0
    3.9780   -2.4245    1.6175 H   0  0  0  0  0  0  0  0  0  0  0  0
    4.2579   -0.2912    1.0095 C   0  0  0  0  0  0  0  0  0  0  0  0
    5.3503   -0.4584    0.9300 H   0  0  0  0  0  0  0  0  0  0  0  0
    4.0698    0.3211    1.9133 H   0  0  0  0  0  0  0  0  0  0  0  0
    3.7182    0.4135   -0.2689 C   0  0  1  0  0  0  0  0  0  0  0  0
    4.4734    0.4198   -1.0793 H   0  0  0  0  0  0  0  0  0  0  0  0
    2.5746   -0.5664   -0.7433 C   0  0  1  0  0  0  0  0  0  0  0  0
    2.2506   -0.3679   -1.7815 H   0  0  0  0  0  0  0  0  0  0  0  0
    3.2785   -1.9091   -0.4694 C   0  0  0  0  0  0  0  0  0  0  0  0
    4.2317   -2.0135   -1.0270 H   0  0  0  0  0  0  0  0  0  0  0  0
    2.6266   -2.7733   -0.6942 H   0  0  0  0  0  0  0  0  0  0  0  0
    1.3014   -2.6458    1.9092 C   0  0  0  0  0  0  0  0  0  0  0  0
    1.2741   -3.3716    1.0738 H   0  0  0  0  0  0  0  0  0  0  0  0
    0.2482   -2.4463    2.1940 H   0  0  0  0  0  0  0  0  0  0  0  0
    1.8090   -3.1127    2.7789 H   0  0  0  0  0  0  0  0  0  0  0  0
    3.2865    1.8429   -0.0589 C   0  0  0  0  0  0  0  0  0  0  0  0
    2.8621    2.3255    0.9802 O   0  0  0  0  0  0  0  0  0  0  0  0
    3.4080    2.5608   -1.2067 O   0  0  0  0  0  0  0  0  0  0  0  0
    3.0401    3.9417   -1.1216 C   0  0  0  0  0  0  0  0  0  0  0  0
    3.5435    4.4326   -0.2651 H   0  0  0  0  0  0  0  0  0  0  0  0
    1.9450    4.0511   -0.9897 H   0  0  0  0  0  0  0  0  0  0  0  0
    3.3525    4.4027   -2.0756 H   0  0  0  0  0  0  0  0  0  0  0  0
  1  2  1  0  0  0  0
  1  3  1  0  0  0  0
  3 17  1  0  0  0  0
  3  4  1  1  0  0  0
  5  3  1  0  0  0  0
  5  6  1  1  0  0  0
  7  5  1  0  0  0  0
  7  9  1  0  0  0  0
  8  7  1  0  0  0  0
 10 11  1  6  0  0  0
 10 21  1  0  0  0  0
 10  7  1  0  0  0  0
 12 13  1  6  0  0  0
 12 14  1  0  0  0  0
 12 10  1  0  0  0  0
 12  1  1  0  0  0  0
 14  5  1  0  0  0  0
 15 14  1  0  0  0  0
 16 14  1  0  0  0  0
 17 19  1  0  0  0  0
 17 20  1  0  0  0  0
 18 17  1  0  0  0  0
 21 22  2  0  0  0  0
 23 24  1  0  0  0  0
 23 21  1  0  0  0  0
 24 26  1  0  0  0  0
 24 25  1  0  0  0  0
 27 24  1  0  0  0  0
M  END
