2
q = -1.0, confidence = 0.0

 20 21  0  0  0  0  0  0  0  0999 V2000
   -2.4874   -0.4008   -1.4995 C   0  0  0  0  0  0  0  0  0  0  0  0
   -1.3054    0.1625   -2.1068 C   0  0  0  0  0  3  0  0  0  0  0  0
   -1.1113    1.2422   -2.0351 H   0  0  0  0  0  0  0  0  0  0  0  0
   -0.9265   -0.3007   -3.0354 H   0  0  0  0  0  0  0  0  0  0  0  0
   -3.4031    0.3469   -0.6393 C   0  0  0  0  0  0  0  0  0  0  0  0
   -4.3536   -0.3767    0.1595 C   0  0  0  0  0  0  0  0  0  0  0  0
   -3.3854    1.7627   -0.5699 C   0  0  0  0  0  0  0  0  0  0  0  0
   -2.6751    2.3231   -1.1947 H   0  0  0  0  0  0  0  0  0  0  0  0
   -4.2575    2.4518    0.2695 C   0  0  0  0  0  0  0  0  0  0  0  0
   -4.2273    3.5512    0.3091 H   0  0  0  0  0  0  0  0  0  0  0  0
   -5.2322    0.3529    1.0065 C   0  0  0  0  0  0  0  0  0  0  0  0
   -5.9549   -0.2063    1.6209 H   0  0  0  0  0  0  0  0  0  0  0  0
   -2.5923   -1.8321   -1.5343 C   0  0  0  0  0  0  0  0  0  0  0  0
   -2.0502   -2.3907   -2.3145 H   0  0  0  0  0  0  0  0  0  0  0  0
   -5.1851    1.7415    1.0664 C   0  0  0  0  0  0  0  0  0  0  0  0
   -5.8718    2.2886    1.7300 H   0  0  0  0  0  0  0  0  0  0  0  0
   -4.4007   -1.8120    0.0974 C   0  0  0  0  0  0  0  0  0  0  0  0
   -5.1338   -2.3383    0.7274 H   0  0  0  0  0  0  0  0  0  0  0  0
   -3.5554   -2.5167   -0.7290 C   0  0  0  0  0  0  0  0  0  0  0  0
   -3.6016   -3.6141   -0.7733 H   0  0  0  0  0  0  0  0  0  0  0  0
  1  5  1  0  0  0  0
  2  3  1  0  0  0  0
  2  1  1  0  0  0  0
  4  2  1  0  0  0  0
  5  7  2  0  0  0  0
  5  6  1  0  0  0  0
  6 11  2  0  0  0  0
  7  9  1  0  0  0  0
  8  7  1  0  0  0  0
  9 10  1  0  0  0  0
  9 15  2  0  0  0  0
 11 15  1  0  0  0  0
 11 12  1  0  0  0  0
 13  1  2  0  0  0  0
 13 19  1  0  0  0  0
 14 13  1  0  0  0  0
 15 16  1  0  0  0  0
 17  6  1  0  0  0  0
 17 18  1  0  0  0  0
 19 17  2  0  0  0  0
 20 19  1  0  0  0  0
M  END
