1
q = -1.0, confidence = 0.0

 34 34  0  0  1  0  0  0  0  0999 V2000
   -1.8274    0.1112   -0.0796 C   0  0  1  0  0  3  0  0  0  0  0  0
   -1.4282    1.1077   -1.0494 C   0  0  0  0  0  0  0  0  0  0  0  0
   -0.8258    2.2112   -0.3331 C   0  0  0  0  0  0  0  0  0  0  0  0
   -0.8470    1.8960    1.0796 C   0  0  0  0  0  0  0  0  0  0  0  0
   -1.4688    0.6011    1.2394 C   0  0  0  0  0  0  0  0  0  0  0  0
   -2.5620   -1.1589   -0.4009 C   0  0  0  0  0  0  0  0  0  0  0  0
   -1.6228    1.0282   -2.5324 C   0  0  0  0  0  0  0  0  0  0  0  0
   -0.3049    3.4739   -0.9442 C   0  0  0  0  0  0  0  0  0  0  0  0
   -0.3424    2.7743    2.1822 C   0  0  0  0  0  0  0  0  0  0  0  0
   -1.7458   -0.0706    2.5508 C   0  0  0  0  0  0  0  0  0  0  0  0
   -4.0685   -0.9647   -0.6912 C   0  0  0  0  0  0  0  0  0  0  0  0
   -4.7127   -2.2946   -1.0974 C   0  0  0  0  0  0  0  0  0  0  0  0
   -4.7999   -0.3281    0.4957 C   0  0  0  0  0  0  0  0  0  0  0  0
   -2.4515   -1.8776    0.4397 H   0  0  0  0  0  0  0  0  0  0  0  0
   -2.0838   -1.6449   -1.2778 H   0  0  0  0  0  0  0  0  0  0  0  0
   -0.7565    1.4660   -3.0662 H   0  0  0  0  0  0  0  0  0  0  0  0
   -2.5385    1.5697   -2.8585 H   0  0  0  0  0  0  0  0  0  0  0  0
   -1.7085   -0.0235   -2.8671 H   0  0  0  0  0  0  0  0  0  0  0  0
   -1.1036    4.2438   -1.0305 H   0  0  0  0  0  0  0  0  0  0  0  0
    0.5181    3.8981   -0.3378 H   0  0  0  0  0  0  0  0  0  0  0  0
    0.1034    3.2859   -1.9558 H   0  0  0  0  0  0  0  0  0  0  0  0
   -1.1016    3.5278    2.4889 H   0  0  0  0  0  0  0  0  0  0  0  0
    0.5719    3.3147    1.8681 H   0  0  0  0  0  0  0  0  0  0  0  0
   -0.0731    2.1774    3.0746 H   0  0  0  0  0  0  0  0  0  0  0  0
   -0.8899    0.0425    3.2455 H   0  0  0  0  0  0  0  0  0  0  0  0
   -2.6461    0.3537    3.0484 H   0  0  0  0  0  0  0  0  0  0  0  0
   -1.9221   -1.1553    2.4173 H   0  0  0  0  0  0  0  0  0  0  0  0
   -4.1486   -0.2652   -1.5544 H   0  0  0  0  0  0  0  0  0  0  0  0
   -4.6499   -3.0309   -0.2670 H   0  0  0  0  0  0  0  0  0  0  0  0
   -5.7856   -2.1700   -1.3533 H   0  0  0  0  0  0  0  0  0  0  0  0
   -4.2014   -2.7414   -1.9748 H   0  0  0  0  0  0  0  0  0  0  0  0
   -5.8725   -0.1571    0.2673 H   0  0  0  0  0  0  0  0  0  0  0  0
   -4.7468   -0.9863    1.3900 H   0  0  0  0  0  0  0  0  0  0  0  0
   -4.3465    0.6454    0.7710 H   0  0  0  0  0  0  0  0  0  0  0  0
  1  6  1  1  0  0  0
  1  5  1  0  0  0  0
  2  3  2  0  0  0  0
  2  1  1  0  0  0  0
  3  4  1  0  0  0  0
  4  5  2  0  0  0  0
  4  9  1  0  0  0  0
  5 10  1  0  0  0  0
  6 14  1  0  0  0  0
  7  2  1  0  0  0  0
  8 20  1  0  0  0  0
  8  3  1  0  0  0  0
  9 22  1  0  0  0  0
  9 24  1  0  0  0  0
 10 26  1  0  0  0  0
 10 25  1  0  0  0  0
 11  6  1  0  0  0  0
 11 13  1  0  0  0  0
 12 11  1  0  0  0  0
 12 29  1  0  0  0  0
 13 34  1  0  0  0  0
 13 33  1  0  0  0  0
 15  6  1  0  0  0  0
 16  7  1  0  0  0  0
 17  7  1  0  0  0  0
 18  7  1  0  0  0  0
 19  8  1  0  0  0  0
 21  8  1  0  0  0  0
 23  9  1  0  0  0  0
 27 10  1  0  0  0  0
 28 11  1  0  0  0  0
 30 12  1  0  0  0  0
 31 12  1  0  0  0  0
 32 13  1  0  0  0  0
M  END
