5
q = -1.0

 25 25  0  0  1  0  0  0  0  0999 V2000
   -2.4019    3.3685    0.1176 Cl  0  0  0  0  0  0  0  0  0  0  0  0
    3.7580    1.8202    0.1206 Cl  0  0  0  0  0  0  0  0  0  0  0  0
   -0.5010    0.7968   -1.2997 C   0  0  0  0  0  0  0  0  0  0  0  0
    0.8648    0.3960   -1.3418 C   0  0  0  0  0  0  0  0  0  0  0  0
    1.3965    0.4767    0.0180 C   0  0  2  0  0  3  0  0  0  0  0  0
    0.3626    1.0127    0.8801 C   0  0  0  0  0  0  0  0  0  0  0  0
   -0.8320    1.1339    0.0860 C   0  0  0  0  0  0  0  0  0  0  0  0
   -1.4705    0.8730   -2.4299 C   0  0  0  0  0  0  0  0  0  0  0  0
    1.6678    0.0278   -2.5501 C   0  0  0  0  0  0  0  0  0  0  0  0
    2.8219    0.2778    0.3931 C   0  0  0  0  0  0  0  0  0  0  0  0
    0.5389    1.4383    2.3029 C   0  0  0  0  0  0  0  0  0  0  0  0
   -2.1672    1.6078    0.5348 C   0  0  0  0  0  0  0  0  0  0  0  0
   -1.9631    1.8660   -2.4326 H   0  0  0  0  0  0  0  0  0  0  0  0
   -0.9799    0.7101   -3.4067 H   0  0  0  0  0  0  0  0  0  0  0  0
   -2.2568    0.0971   -2.2975 H   0  0  0  0  0  0  0  0  0  0  0  0
    2.3258    0.8760   -2.8333 H   0  0  0  0  0  0  0  0  0  0  0  0
    2.3224   -0.8450   -2.3614 H   0  0  0  0  0  0  0  0  0  0  0  0
    1.0203   -0.2175   -3.4115 H   0  0  0  0  0  0  0  0  0  0  0  0
    2.9375    0.0147    1.4599 H   0  0  0  0  0  0  0  0  0  0  0  0
    3.3082   -0.5017   -0.2206 H   0  0  0  0  0  0  0  0  0  0  0  0
    0.9078    2.4849    2.3246 H   0  0  0  0  0  0  0  0  0  0  0  0
   -0.4114    1.3992    2.8672 H   0  0  0  0  0  0  0  0  0  0  0  0
    1.2785    0.8106    2.8345 H   0  0  0  0  0  0  0  0  0  0  0  0
   -2.9754    1.0387    0.0391 H   0  0  0  0  0  0  0  0  0  0  0  0
   -2.2918    1.5164    1.6289 H   0  0  0  0  0  0  0  0  0  0  0  0
  1 12  1  0  0  0  0
  2 10  1  0  0  0  0
  3  7  1  0  0  0  0
  4  3  2  0  0  0  0
  4  5  1  0  0  0  0
  5 10  1  6  0  0  0
  5  6  1  0  0  0  0
  6 11  1  0  0  0  0
  7 12  1  0  0  0  0
  7  6  2  0  0  0  0
  8 15  1  0  0  0  0
  8  3  1  0  0  0  0
  9 17  1  0  0  0  0
  9  4  1  0  0  0  0
 10 19  1  0  0  0  0
 11 21  1  0  0  0  0
 11 23  1  0  0  0  0
 11 22  1  0  0  0  0
 12 25  1  0  0  0  0
 13  8  1  0  0  0  0
 14  8  1  0  0  0  0
 16  9  1  0  0  0  0
 18  9  1  0  0  0  0
 20 10  1  0  0  0  0
 24 12  1  0  0  0  0
M  END
