1
q = 0.0, confidence = 0.994

 32 34  0  0  1  0  0  0  0  0999 V2000
    0.0412    0.3254   -0.6635 C   0  0  0  0  0  3  0  0  0  0  0  0
    1.4685    0.0861   -0.6437 C   0  0  0  0  0  0  0  0  0  0  0  0
    2.1579    1.2960   -1.2387 C   0  0  0  0  0  0  0  0  0  0  0  0
    1.0266    2.3230   -1.4158 C   0  0  2  0  0  0  0  0  0  0  0  0
    2.0211   -1.0769   -0.1497 C   0  0  0  0  0  3  0  0  0  0  0  0
    3.3935   -1.5129   -0.0545 C   0  0  0  0  0  0  0  0  0  0  0  0
    3.6307   -2.7632    0.5869 C   0  0  0  0  0  0  0  0  0  0  0  0
    4.9242   -3.2662    0.7310 C   0  0  0  0  0  0  0  0  0  0  0  0
    6.0163   -2.5351    0.2311 C   0  0  0  0  0  0  0  0  0  0  0  0
    5.8060   -1.3018   -0.4132 C   0  0  0  0  0  0  0  0  0  0  0  0
    4.5143   -0.7914   -0.5564 C   0  0  0  0  0  0  0  0  0  0  0  0
    1.0057    3.4809   -0.4542 C   0  0  0  0  0  0  0  0  0  0  0  0
    0.8972    4.7982   -0.9359 C   0  0  0  0  0  0  0  0  0  0  0  0
    0.8815    5.8805   -0.0425 C   0  0  0  0  0  0  0  0  0  0  0  0
    0.9616    5.6505    1.3388 C   0  0  0  0  0  0  0  0  0  0  0  0
    1.0608    4.3361    1.8281 C   0  0  0  0  0  0  0  0  0  0  0  0
    1.0866    3.2557    0.9372 C   0  0  0  0  0  0  0  0  0  0  0  0
   -0.2204    1.5133   -1.1746 O   0  0  0  0  0  0  0  0  0  0  0  0
    2.9511    1.6906   -0.5740 H   0  0  0  0  0  0  0  0  0  0  0  0
    2.6308    1.0463   -2.2113 H   0  0  0  0  0  0  0  0  0  0  0  0
    0.9242    2.6831   -2.4562 H   0  0  0  0  0  0  0  0  0  0  0  0
    1.2880   -1.7983    0.2480 H   0  0  0  0  0  0  0  0  0  0  0  0
    2.7726   -3.3339    0.9746 H   0  0  0  0  0  0  0  0  0  0  0  0
    5.0876   -4.2317    1.2316 H   0  0  0  0  0  0  0  0  0  0  0  0
    7.0378   -2.9291    0.3406 H   0  0  0  0  0  0  0  0  0  0  0  0
    6.6627   -0.7365   -0.8083 H   0  0  0  0  0  0  0  0  0  0  0  0
    4.3776    0.1670   -1.0701 H   0  0  0  0  0  0  0  0  0  0  0  0
    0.8300    4.9793   -2.0203 H   0  0  0  0  0  0  0  0  0  0  0  0
    0.8042    6.9077   -0.4284 H   0  0  0  0  0  0  0  0  0  0  0  0
    0.9471    6.4981    2.0400 H   0  0  0  0  0  0  0  0  0  0  0  0
    1.1228    4.1540    2.9113 H   0  0  0  0  0  0  0  0  0  0  0  0
    1.1640    2.2302    1.3335 H   0  0  0  0  0  0  0  0  0  0  0  0
  1  2  2  0  0  0  0
  2  5  1  0  0  0  0
  3  2  1  0  0  0  0
  3 19  1  0  0  0  0
  4 21  1  6  0  0  0
  4  3  1  0  0  0  0
  4 18  1  0  0  0  0
  4 12  1  0  0  0  0
  5  6  1  0  0  0  0
  5 22  1  0  0  0  0
  6  7  1  0  0  0  0
  7  8  2  0  0  0  0
  7 23  1  0  0  0  0
  8 24  1  0  0  0  0
  9 25  1  0  0  0  0
  9  8  1  0  0  0  0
 10  9  2  0  0  0  0
 11 10  1  0  0  0  0
 11  6  2  0  0  0  0
 12 17  1  0  0  0  0
 13 12  2  0  0  0  0
 13 14  1  0  0  0  0
 14 15  2  0  0  0  0
 15 16  1  0  0  0  0
 15 30  1  0  0  0  0
 16 31  1  0  0  0  0
 17 32  1  0  0  0  0
 17 16  2  0  0  0  0
 18  1  1  0  0  0  0
 20  3  1  0  0  0  0
 26 10  1  0  0  0  0
 27 11  1  0  0  0  0
 28 13  1  0  0  0  0
 29 14  1  0  0  0  0
M  END
