1
q = 0.0, confidence = 0.994

 17 17  0  0  0  0  0  0  0  0999 V2000
   -1.1853    0.7989    0.0282 C   0  0  0  0  0  2  0  0  0  0  0  0
   -1.1998    2.2217    0.0653 C   0  0  0  0  0  0  0  0  0  0  0  0
   -1.1264    3.4495    0.1030 C   0  0  0  0  0  0  0  0  0  0  0  0
   -1.0343    4.5263    0.1372 H   0  0  0  0  0  0  0  0  0  0  0  0
   -2.3906    0.2268    0.0027 N   0  0  0  0  0  0  0  0  0  0  0  0
   -3.6827    0.9575    0.0101 C   0  0  0  0  0  0  0  0  0  0  0  0
   -3.6490    1.7869   -0.7225 H   0  0  0  0  0  0  0  0  0  0  0  0
   -3.8310    1.4095    1.0148 H   0  0  0  0  0  0  0  0  0  0  0  0
   -4.7257   -0.1198   -0.2956 C   0  0  0  0  0  0  0  0  0  0  0  0
   -5.7228    0.1298    0.1149 H   0  0  0  0  0  0  0  0  0  0  0  0
   -4.8352   -0.2438   -1.3933 H   0  0  0  0  0  0  0  0  0  0  0  0
   -4.1038   -1.3816    0.3204 C   0  0  0  0  0  0  0  0  0  0  0  0
   -4.5326   -2.3235   -0.0709 H   0  0  0  0  0  0  0  0  0  0  0  0
   -4.2411   -1.3806    1.4220 H   0  0  0  0  0  0  0  0  0  0  0  0
   -2.6208   -1.2294   -0.0250 C   0  0  0  0  0  0  0  0  0  0  0  0
   -1.9310   -1.7307    0.6778 H   0  0  0  0  0  0  0  0  0  0  0  0
   -2.3942   -1.6115   -1.0432 H   0  0  0  0  0  0  0  0  0  0  0  0
  1  2  1  0  0  0  0
  2  3  3  0  0  0  0
  3  4  1  0  0  0  0
  5  6  1  0  0  0  0
  5  1  1  0  0  0  0
  6  8  1  0  0  0  0
  7  6  1  0  0  0  0
  9  6  1  0  0  0  0
  9 10  1  0  0  0  0
  9 12  1  0  0  0  0
 11  9  1  0  0  0  0
 12 14  1  0  0  0  0
 13 12  1  0  0  0  0
 15  5  1  0  0  0  0
 15 12  1  0  0  0  0
 15 16  1  0  0  0  0
 17 15  1  0  0  0  0
M  END
