4
q = -1.0

 27 27  0  0  0  0  0  0  0  0999 V2000
    0.8318   -1.4871   -0.2005 O   0  0  0  0  0  0  0  0  0  0  0  0
    2.9827   -1.5174    0.5661 N   0  0  0  0  0  0  0  0  0  0  0  0
    3.5969   -1.1364    1.2878 H   0  0  0  0  0  0  0  0  0  0  0  0
   -0.1108    0.0201    1.7778 C   0  0  0  0  0  3  0  0  0  0  0  0
   -0.6192    0.7686    2.8604 C   0  0  0  0  0  0  0  0  0  0  0  0
   -1.5946    1.2694    2.7667 H   0  0  0  0  0  0  0  0  0  0  0  0
    0.1134    0.9190    4.0470 C   0  0  0  0  0  0  0  0  0  0  0  0
   -0.3098    1.5068    4.8768 H   0  0  0  0  0  0  0  0  0  0  0  0
    1.3887    0.3372    4.1866 C   0  0  0  0  0  0  0  0  0  0  0  0
    1.9522    0.4503    5.1245 H   0  0  0  0  0  0  0  0  0  0  0  0
    1.9358   -0.3780    3.1171 C   0  0  0  0  0  0  0  0  0  0  0  0
    2.9336   -0.8359    3.2267 H   0  0  0  0  0  0  0  0  0  0  0  0
    1.1965   -0.5277    1.9254 C   0  0  0  0  0  0  0  0  0  0  0  0
    1.6766   -1.2139    0.7127 C   0  0  0  0  0  0  0  0  0  0  0  0
    3.6518   -1.9091   -0.7010 C   0  0  0  0  0  0  0  0  0  0  0  0
    3.0624   -3.2297   -1.2253 C   0  0  0  0  0  0  0  0  0  0  0  0
    1.9933   -3.1073   -1.4764 H   0  0  0  0  0  0  0  0  0  0  0  0
    3.1578   -4.0304   -0.4645 H   0  0  0  0  0  0  0  0  0  0  0  0
    3.6098   -3.5462   -2.1353 H   0  0  0  0  0  0  0  0  0  0  0  0
    5.1352   -2.1042   -0.3532 C   0  0  0  0  0  0  0  0  0  0  0  0
    5.5819   -1.1650    0.0357 H   0  0  0  0  0  0  0  0  0  0  0  0
    5.7027   -2.3919   -1.2588 H   0  0  0  0  0  0  0  0  0  0  0  0
    5.2683   -2.9029    0.4050 H   0  0  0  0  0  0  0  0  0  0  0  0
    3.4892   -0.7766   -1.7335 C   0  0  0  0  0  0  0  0  0  0  0  0
    3.9311    0.1660   -1.3550 H   0  0  0  0  0  0  0  0  0  0  0  0
    2.4210   -0.5805   -1.9420 H   0  0  0  0  0  0  0  0  0  0  0  0
    3.9968   -1.0493   -2.6803 H   0  0  0  0  0  0  0  0  0  0  0  0
  1 14  2  0  0  0  0
  2 14  1  0  0  0  0
  2  3  1  0  0  0  0
  4 13  2  0  0  0  0
  4  5  1  0  0  0  0
  5  7  2  0  0  0  0
  6  5  1  0  0  0  0
  7  9  1  0  0  0  0
  7  8  1  0  0  0  0
  9 10  1  0  0  0  0
 11 12  1  0  0  0  0
 11  9  2  0  0  0  0
 13 11  1  0  0  0  0
 14 13  1  0  0  0  0
 15 20  1  0  0  0  0
 15  2  1  0  0  0  0
 16 15  1  0  0  0  0
 16 18  1  0  0  0  0
 17 16  1  0  0  0  0
 19 16  1  0  0  0  0
 20 21  1  0  0  0  0
 20 23  1  0  0  0  0
 22 20  1  0  0  0  0
 24 25  1  0  0  0  0
 24 15  1  0  0  0  0
 26 24  1  0  0  0  0
 27 24  1  0  0  0  0
M  END
