3
q = 0.0, confidence = 0.976

 49 51  0  0  0  0  0  0  0  0999 V2000
    2.2501   -0.4934   -0.1480 N   0  0  0  0  0  0  0  0  0  0  0  0
    1.6699    1.6288   -0.1813 N   0  0  0  0  0  0  0  0  0  0  0  0
    1.1749    0.3616   -0.0543 C   0  0  0  0  0  2  0  0  0  0  0  0
    3.4157    0.1764   -0.8036 C   0  0  0  0  0  0  0  0  0  0  0  0
    3.1674    1.6519   -0.3186 C   0  0  0  0  0  0  0  0  0  0  0  0
    4.7537   -0.4175   -0.3640 C   0  0  0  0  0  0  0  0  0  0  0  0
    4.9025   -0.3887    0.7294 H   0  0  0  0  0  0  0  0  0  0  0  0
    5.5863    0.1343   -0.8439 H   0  0  0  0  0  0  0  0  0  0  0  0
    4.8204   -1.4740   -0.6898 H   0  0  0  0  0  0  0  0  0  0  0  0
    3.2796    0.0269   -2.3313 C   0  0  0  0  0  0  0  0  0  0  0  0
    3.3566   -1.0434   -2.6025 H   0  0  0  0  0  0  0  0  0  0  0  0
    4.0934    0.5599   -2.8601 H   0  0  0  0  0  0  0  0  0  0  0  0
    2.2973    0.3945   -2.6869 H   0  0  0  0  0  0  0  0  0  0  0  0
    3.8060    1.9448    1.0492 C   0  0  0  0  0  0  0  0  0  0  0  0
    3.4342    2.9155    1.4318 H   0  0  0  0  0  0  0  0  0  0  0  0
    4.9076    2.0183    0.9641 H   0  0  0  0  0  0  0  0  0  0  0  0
    3.5616    1.1571    1.7862 H   0  0  0  0  0  0  0  0  0  0  0  0
    3.6360    2.7121   -1.3177 C   0  0  0  0  0  0  0  0  0  0  0  0
    3.1315    2.6245   -2.2959 H   0  0  0  0  0  0  0  0  0  0  0  0
    4.7285    2.6133   -1.4774 H   0  0  0  0  0  0  0  0  0  0  0  0
    3.4450    3.7280   -0.9214 H   0  0  0  0  0  0  0  0  0  0  0  0
    2.1376   -1.9197   -0.0441 C   0  0  0  0  0  0  0  0  0  0  0  0
    2.4510   -2.5458    1.1926 C   0  0  0  0  0  0  0  0  0  0  0  0
    2.3531   -3.9483    1.2598 C   0  0  0  0  0  0  0  0  0  0  0  0
    2.5803   -4.4464    2.2152 H   0  0  0  0  0  0  0  0  0  0  0  0
    1.9628   -4.7157    0.1521 C   0  0  0  0  0  0  0  0  0  0  0  0
    1.8949   -5.8107    0.2419 H   0  0  0  0  0  0  0  0  0  0  0  0
    1.6489   -4.0848   -1.0584 C   0  0  0  0  0  0  0  0  0  0  0  0
    1.3227   -4.6726   -1.9296 H   0  0  0  0  0  0  0  0  0  0  0  0
    1.7345   -2.6879   -1.1539 C   0  0  0  0  0  0  0  0  0  0  0  0
    1.4384   -2.1707   -2.0763 H   0  0  0  0  0  0  0  0  0  0  0  0
    2.8194   -1.7441    2.4106 C   0  0  0  0  0  0  0  0  0  0  0  0
    2.9869   -2.4057    3.2814 H   0  0  0  0  0  0  0  0  0  0  0  0
    1.9950   -1.0451    2.6598 H   0  0  0  0  0  0  0  0  0  0  0  0
    3.7385   -1.1452    2.2540 H   0  0  0  0  0  0  0  0  0  0  0  0
    0.9298    2.8260    0.0514 C   0  0  0  0  0  0  0  0  0  0  0  0
    0.5088    3.1839    1.3619 C   0  0  0  0  0  0  0  0  0  0  0  0
   -0.2041    4.3929    1.5059 C   0  0  0  0  0  0  0  0  0  0  0  0
   -0.5409    4.6848    2.5130 H   0  0  0  0  0  0  0  0  0  0  0  0
   -0.5108    5.2110    0.4091 C   0  0  0  0  0  0  0  0  0  0  0  0
   -1.0730    6.1447    0.5625 H   0  0  0  0  0  0  0  0  0  0  0  0
   -0.1135    4.8279   -0.8807 C   0  0  0  0  0  0  0  0  0  0  0  0
   -0.3714    5.4459   -1.7535 H   0  0  0  0  0  0  0  0  0  0  0  0
    0.6040    3.6373   -1.0517 C   0  0  0  0  0  0  0  0  0  0  0  0
    0.8903    3.2929   -2.0545 H   0  0  0  0  0  0  0  0  0  0  0  0
    0.6951    2.2756    2.5463 C   0  0  0  0  0  0  0  0  0  0  0  0
    1.7197    1.8679    2.6113 H   0  0  0  0  0  0  0  0  0  0  0  0
    0.0238    1.3920    2.4738 H   0  0  0  0  0  0  0  0  0  0  0  0
    0.4688    2.8068    3.4901 H   0  0  0  0  0  0  0  0  0  0  0  0
  1  3  1  0  0  0  0
  1 22  1  0  0  0  0
  2  3  1  0  0  0  0
  2 36  1  0  0  0  0
  4  6  1  0  0  0  0
  4  5  1  0  0  0  0
  4  1  1  0  0  0  0
  5  2  1  0  0  0  0
  5 14  1  0  0  0  0
  6  7  1  0  0  0  0
  8  6  1  0  0  0  0
  9  6  1  0  0  0  0
 10  4  1  0  0  0  0
 11 10  1  0  0  0  0
 12 10  1  0  0  0  0
 13 10  1  0  0  0  0
 14 15  1  0  0  0  0
 14 17  1  0  0  0  0
 16 14  1  0  0  0  0
 18 21  1  0  0  0  0
 18  5  1  0  0  0  0
 19 18  1  0  0  0  0
 20 18  1  0  0  0  0
 22 23  1  0  0  0  0
 23 24  2  0  0  0  0
 23 32  1  0  0  0  0
 24 25  1  0  0  0  0
 26 27  1  0  0  0  0
 26 24  1  0  0  0  0
 28 26  2  0  0  0  0
 29 28  1  0  0  0  0
 30 28  1  0  0  0  0
 30 22  2  0  0  0  0
 31 30  1  0  0  0  0
 32 34  1  0  0  0  0
 32 33  1  0  0  0  0
 35 32  1  0  0  0  0
 36 37  1  0  0  0  0
 37 38  2  0  0  0  0
 37 46  1  0  0  0  0
 38 39  1  0  0  0  0
 40 41  1  0  0  0  0
 40 38  1  0  0  0  0
 42 40  2  0  0  0  0
 43 42  1  0  0  0  0
 44 42  1  0  0  0  0
 44 36  2  0  0  0  0
 45 44  1  0  0  0  0
 46 47  1  0  0  0  0
 46 49  1  0  0  0  0
 48 46  1  0  0  0  0
M  END
