1
q = 0.0, confidence = 0.974

 18 17  0  0  0  0  0  0  0  0999 V2000
   -0.1482    1.5730    1.1044 C   0  0  0  0  0  3  0  0  0  0  0  0
   -1.0468    2.7553    0.0844 S   0  0  0  0  0  3  0  0  0  0  0  0
   -1.0762    4.3538    1.0071 C   0  0  0  0  0  0  0  0  0  0  0  0
   -2.0389    4.2722    2.1833 C   0  0  0  0  0  0  0  0  0  0  0  0
    0.0768    3.1306   -1.3174 C   0  0  0  0  0  0  0  0  0  0  0  0
    1.4183    3.7522   -0.9725 C   0  0  0  0  0  0  0  0  0  0  0  0
   -0.8221    1.3896    1.9673 H   0  0  0  0  0  0  0  0  0  0  0  0
    0.7833    2.0543    1.4660 H   0  0  0  0  0  0  0  0  0  0  0  0
   -0.0379    4.5783    1.3220 H   0  0  0  0  0  0  0  0  0  0  0  0
   -1.3930    5.1086    0.2575 H   0  0  0  0  0  0  0  0  0  0  0  0
   -2.0725    5.2542    2.6950 H   0  0  0  0  0  0  0  0  0  0  0  0
   -1.7145    3.5219    2.9312 H   0  0  0  0  0  0  0  0  0  0  0  0
   -3.0685    4.0253    1.8571 H   0  0  0  0  0  0  0  0  0  0  0  0
    0.1801    2.1379   -1.8032 H   0  0  0  0  0  0  0  0  0  0  0  0
   -0.5357    3.7733   -1.9827 H   0  0  0  0  0  0  0  0  0  0  0  0
    2.0077    3.1123   -0.2880 H   0  0  0  0  0  0  0  0  0  0  0  0
    1.3218    4.7619   -0.5299 H   0  0  0  0  0  0  0  0  0  0  0  0
    2.0052    3.8614   -1.9066 H   0  0  0  0  0  0  0  0  0  0  0  0
  1  8  1  0  0  0  0
  1  7  1  0  0  0  0
  2  3  1  0  0  0  0
  2  1  1  0  0  0  0
  3  9  1  0  0  0  0
  3  4  1  0  0  0  0
  4 11  1  0  0  0  0
  4 12  1  0  0  0  0
  5  6  1  0  0  0  0
  5  2  1  0  0  0  0
  6 17  1  0  0  0  0
  6 16  1  0  0  0  0
 10  3  1  0  0  0  0
 13  4  1  0  0  0  0
 14  5  1  0  0  0  0
 15  5  1  0  0  0  0
 18  6  1  0  0  0  0
M  END
