3
q = -1.0

  8  7  0  0  0  0  0  0  0  0999 V2000
    2.5585   -0.4327    1.1028 F   0  0  0  0  0  0  0  0  0  0  0  0
    2.5573   -0.4344   -1.1038 F   0  0  0  0  0  0  0  0  0  0  0  0
    1.1269    1.1082   -0.0008 C   0  0  0  0  0  3  0  0  0  0  0  0
    1.1719    2.4554   -0.0010 C   0  0  0  0  0  0  0  0  0  0  0  0
    2.1407    2.9897   -0.0016 H   0  0  0  0  0  0  0  0  0  0  0  0
    0.2775    3.0970   -0.0006 H   0  0  0  0  0  0  0  0  0  0  0  0
    2.4417    0.3828   -0.0011 C   0  0  0  0  0  0  0  0  0  0  0  0
    3.3155    1.0756   -0.0021 H   0  0  0  0  0  0  0  0  0  0  0  0
  2  7  1  0  0  0  0
  4  3  2  0  0  0  0
  4  6  1  0  0  0  0
  5  4  1  0  0  0  0
  7  3  1  0  0  0  0
  7  1  1  0  0  0  0
  8  7  1  0  0  0  0
M  END
