3
q = 0.0, confidence = 0.982

 41 43  0  0  1  0  0  0  0  0999 V2000
   -0.9618   -1.4787   -0.4865 N   0  0  0  0  0  0  0  0  0  0  0  0
    0.9625   -1.4784    0.4859 N   0  0  0  0  0  0  0  0  0  0  0  0
    0.0001   -0.6217   -0.0002 C   0  0  0  0  0  2  0  0  0  0  0  0
   -2.2205   -1.0907   -1.1472 C   0  0  1  0  0  0  0  0  0  0  0  0
   -2.1648   -1.4174   -2.6394 C   0  0  0  0  0  0  0  0  0  0  0  0
   -3.4048   -1.6760   -0.3834 C   0  0  0  0  0  0  0  0  0  0  0  0
   -4.4585   -2.3509   -1.0262 C   0  0  0  0  0  0  0  0  0  0  0  0
   -5.5443   -2.8508   -0.2874 C   0  0  0  0  0  0  0  0  0  0  0  0
   -5.5894   -2.6835    1.1033 C   0  0  0  0  0  0  0  0  0  0  0  0
   -4.5409   -2.0119    1.7546 C   0  0  0  0  0  0  0  0  0  0  0  0
   -3.4596   -1.5144    1.0177 C   0  0  0  0  0  0  0  0  0  0  0  0
   -0.6097   -2.8098   -0.3069 C   0  0  0  0  0  0  0  0  0  0  0  0
    0.6110   -2.8096    0.3060 C   0  0  0  0  0  0  0  0  0  0  0  0
    2.2209   -1.0899    1.1469 C   0  0  1  0  0  0  0  0  0  0  0  0
    2.1650   -1.4164    2.6391 C   0  0  0  0  0  0  0  0  0  0  0  0
    3.4055   -1.6751    0.3834 C   0  0  0  0  0  0  0  0  0  0  0  0
    3.4611   -1.5127   -1.0175 C   0  0  0  0  0  0  0  0  0  0  0  0
    4.5426   -2.0102   -1.7541 C   0  0  0  0  0  0  0  0  0  0  0  0
    5.5906   -2.6824   -1.1027 C   0  0  0  0  0  0  0  0  0  0  0  0
    5.5446   -2.8506    0.2879 C   0  0  0  0  0  0  0  0  0  0  0  0
    4.4586   -2.3507    1.0264 C   0  0  0  0  0  0  0  0  0  0  0  0
   -2.2581    0.0112   -1.0349 H   0  0  0  0  0  0  0  0  0  0  0  0
   -3.0503   -1.0040   -3.1589 H   0  0  0  0  0  0  0  0  0  0  0  0
   -2.1331   -2.5102   -2.8227 H   0  0  0  0  0  0  0  0  0  0  0  0
   -1.2664   -0.9587   -3.0924 H   0  0  0  0  0  0  0  0  0  0  0  0
   -4.4443   -2.4901   -2.1163 H   0  0  0  0  0  0  0  0  0  0  0  0
   -6.3599   -3.3755   -0.8078 H   0  0  0  0  0  0  0  0  0  0  0  0
   -6.4405   -3.0743    1.6812 H   0  0  0  0  0  0  0  0  0  0  0  0
   -4.5679   -1.8717    2.8458 H   0  0  0  0  0  0  0  0  0  0  0  0
   -2.6393   -0.9918    1.5333 H   0  0  0  0  0  0  0  0  0  0  0  0
   -1.2622   -3.6316   -0.6147 H   0  0  0  0  0  0  0  0  0  0  0  0
    1.2639   -3.6311    0.6136 H   0  0  0  0  0  0  0  0  0  0  0  0
    2.2583    0.0119    1.0344 H   0  0  0  0  0  0  0  0  0  0  0  0
    3.0503   -1.0029    3.1587 H   0  0  0  0  0  0  0  0  0  0  0  0
    1.2664   -0.9577    3.0918 H   0  0  0  0  0  0  0  0  0  0  0  0
    2.1333   -2.5091    2.8226 H   0  0  0  0  0  0  0  0  0  0  0  0
    2.6412   -0.9895   -1.5333 H   0  0  0  0  0  0  0  0  0  0  0  0
    4.5702   -1.8693   -2.8452 H   0  0  0  0  0  0  0  0  0  0  0  0
    6.4418   -3.0733   -1.6803 H   0  0  0  0  0  0  0  0  0  0  0  0
    6.3598   -3.3758    0.8084 H   0  0  0  0  0  0  0  0  0  0  0  0
    4.4438   -2.4906    2.1164 H   0  0  0  0  0  0  0  0  0  0  0  0
  1 12  1  0  0  0  0
  1  3  1  0  0  0  0
  2 14  1  0  0  0  0
  3  2  1  0  0  0  0
  4 22  1  1  0  0  0
  4  1  1  0  0  0  0
  4  6  1  0  0  0  0
  5  4  1  0  0  0  0
  6 11  1  0  0  0  0
  7  6  2  0  0  0  0
  7  8  1  0  0  0  0
  8  9  2  0  0  0  0
  9 28  1  0  0  0  0
  9 10  1  0  0  0  0
 10 29  1  0  0  0  0
 11 30  1  0  0  0  0
 11 10  2  0  0  0  0
 12 13  2  0  0  0  0
 13  2  1  0  0  0  0
 13 32  1  0  0  0  0
 14 33  1  6  0  0  0
 14 15  1  0  0  0  0
 15 36  1  0  0  0  0
 15 35  1  0  0  0  0
 15 34  1  0  0  0  0
 16 21  1  0  0  0  0
 16 14  1  0  0  0  0
 17 16  2  0  0  0  0
 18 19  2  0  0  0  0
 18 17  1  0  0  0  0
 19 20  1  0  0  0  0
 20 40  1  0  0  0  0
 20 21  2  0  0  0  0
 21 41  1  0  0  0  0
 23  5  1  0  0  0  0
 24  5  1  0  0  0  0
 25  5  1  0  0  0  0
 26  7  1  0  0  0  0
 27  8  1  0  0  0  0
 31 12  1  0  0  0  0
 37 17  1  0  0  0  0
 38 18  1  0  0  0  0
 39 19  1  0  0  0  0
M  END
