1
q = -1.0

 30 30  0  0  0  0  0  0  0  0999 V2000
   -1.8439   -0.2987   -2.5794 C   0  0  0  0  0  3  0  0  0  0  0  0
   -2.1108   -1.2042   -3.1573 H   0  0  0  0  0  0  0  0  0  0  0  0
   -2.2920    0.5897   -3.0649 H   0  0  0  0  0  0  0  0  0  0  0  0
   -0.3790   -0.1485   -2.4111 C   0  0  0  0  0  0  0  0  0  0  0  0
    0.2124    1.1302   -2.2580 C   0  0  0  0  0  0  0  0  0  0  0  0
   -0.4126    2.0254   -2.4021 H   0  0  0  0  0  0  0  0  0  0  0  0
    1.5393    1.2751   -1.8511 C   0  0  0  0  0  0  0  0  0  0  0  0
    1.9646    2.2716   -1.6617 H   0  0  0  0  0  0  0  0  0  0  0  0
    2.3529    0.1462   -1.6295 C   0  0  0  0  0  0  0  0  0  0  0  0
    1.8123   -1.1322   -1.8973 C   0  0  0  0  0  0  0  0  0  0  0  0
    2.4197   -2.0368   -1.7360 H   0  0  0  0  0  0  0  0  0  0  0  0
    0.4753   -1.2728   -2.2798 C   0  0  0  0  0  0  0  0  0  0  0  0
    0.0537   -2.2796   -2.4240 H   0  0  0  0  0  0  0  0  0  0  0  0
    3.7109    0.3689   -1.0322 C   0  0  0  0  0  0  0  0  0  0  0  0
    3.9312    1.3206   -0.2661 O   0  0  0  0  0  0  0  0  0  0  0  0
    4.6664   -0.5549   -1.3777 N   0  0  0  0  0  0  0  0  0  0  0  0
    4.4234   -1.1733   -2.1538 H   0  0  0  0  0  0  0  0  0  0  0  0
    6.1070   -0.4699   -1.0459 C   0  0  0  0  0  0  0  0  0  0  0  0
    6.3044   -0.4699    0.4803 C   0  0  0  0  0  0  0  0  0  0  0  0
    5.7862    0.3955    0.9327 H   0  0  0  0  0  0  0  0  0  0  0  0
    7.3846   -0.4069    0.7194 H   0  0  0  0  0  0  0  0  0  0  0  0
    5.9040   -1.4004    0.9279 H   0  0  0  0  0  0  0  0  0  0  0  0
    6.7666   -1.7161   -1.6547 C   0  0  0  0  0  0  0  0  0  0  0  0
    6.3363   -2.6445   -1.2262 H   0  0  0  0  0  0  0  0  0  0  0  0
    7.8539   -1.7142   -1.4461 H   0  0  0  0  0  0  0  0  0  0  0  0
    6.6366   -1.7425   -2.7573 H   0  0  0  0  0  0  0  0  0  0  0  0
    6.7068    0.8092   -1.6623 C   0  0  0  0  0  0  0  0  0  0  0  0
    6.1991    1.7018   -1.2500 H   0  0  0  0  0  0  0  0  0  0  0  0
    6.5827    0.8081   -2.7643 H   0  0  0  0  0  0  0  0  0  0  0  0
    7.7895    0.8791   -1.4349 H   0  0  0  0  0  0  0  0  0  0  0  0
  1  4  1  0  0  0  0
  2  1  1  0  0  0  0
  3  1  1  0  0  0  0
  4 12  2  0  0  0  0
  4  5  1  0  0  0  0
  5  7  2  0  0  0  0
  6  5  1  0  0  0  0
  7  8  1  0  0  0  0
  7  9  1  0  0  0  0
  9 14  1  0  0  0  0
 10 11  1  0  0  0  0
 10  9  2  0  0  0  0
 12 10  1  0  0  0  0
 13 12  1  0  0  0  0
 14 15  2  0  0  0  0
 16 18  1  0  0  0  0
 16 14  1  0  0  0  0
 17 16  1  0  0  0  0
 18 19  1  0  0  0  0
 19 21  1  0  0  0  0
 19 22  1  0  0  0  0
 19 20  1  0  0  0  0
 23 25  1  0  0  0  0
 23 24  1  0  0  0  0
 23 18  1  0  0  0  0
 26 23  1  0  0  0  0
 27 30  1  0  0  0  0
 27 28  1  0  0  0  0
 27 18  1  0  0  0  0
 29 27  1  0  0  0  0
M  END
