1
q = 0.0, confidence = 0.814

 29 28  0  0  0  0  0  0  0  0999 V2000
   -0.0737    0.9669   -0.0127 C   0  0  0  0  0  2  0  0  0  0  0  0
    0.2633    2.3454   -0.0040 C   0  0  0  0  0  0  0  0  0  0  0  0
    1.3292    2.6175    0.0129 H   0  0  0  0  0  0  0  0  0  0  0  0
   -0.7070    3.3481   -0.0158 C   0  0  0  0  0  0  0  0  0  0  0  0
   -1.7685    3.0442   -0.0227 H   0  0  0  0  0  0  0  0  0  0  0  0
   -0.4842    4.6745   -0.0214 N   0  0  0  0  0  0  0  0  0  0  0  0
    0.8757    5.1987   -0.0160 C   0  0  0  0  0  0  0  0  0  0  0  0
    0.8464    6.3009   -0.0813 H   0  0  0  0  0  0  0  0  0  0  0  0
    1.4517    4.8060   -0.8794 H   0  0  0  0  0  0  0  0  0  0  0  0
    1.4099    4.9105    0.9140 H   0  0  0  0  0  0  0  0  0  0  0  0
   -1.5812    5.6285   -0.0047 C   0  0  0  0  0  0  0  0  0  0  0  0
   -1.5444    6.2613    0.9081 H   0  0  0  0  0  0  0  0  0  0  0  0
   -2.5448    5.0874   -0.0177 H   0  0  0  0  0  0  0  0  0  0  0  0
   -1.5387    6.2966   -0.8913 H   0  0  0  0  0  0  0  0  0  0  0  0
   -1.4216    0.5720   -0.0303 C   0  0  0  0  0  0  0  0  0  0  0  0
   -2.5750    0.1003   -0.0368 C   0  0  0  0  0  0  0  0  0  0  0  0
   -4.0516   -1.0088    0.0053 Si  0  0  0  0  0  0  0  0  0  0  0  0
   -3.5762   -2.6097   -0.8784 C   0  0  0  0  0  0  0  0  0  0  0  0
   -4.4352   -3.3108   -0.9228 H   0  0  0  0  0  0  0  0  0  0  0  0
   -2.7460   -3.1077   -0.3380 H   0  0  0  0  0  0  0  0  0  0  0  0
   -3.2317   -2.4088   -1.9126 H   0  0  0  0  0  0  0  0  0  0  0  0
   -4.4351   -1.3456    1.8261 C   0  0  0  0  0  0  0  0  0  0  0  0
   -5.2873   -2.0503    1.9182 H   0  0  0  0  0  0  0  0  0  0  0  0
   -4.6960   -0.4123    2.3642 H   0  0  0  0  0  0  0  0  0  0  0  0
   -3.5515   -1.7972    2.3203 H   0  0  0  0  0  0  0  0  0  0  0  0
   -5.5149   -0.1714   -0.8507 C   0  0  0  0  0  0  0  0  0  0  0  0
   -6.4071   -0.8310   -0.8317 H   0  0  0  0  0  0  0  0  0  0  0  0
   -5.2793    0.0541   -1.9105 H   0  0  0  0  0  0  0  0  0  0  0  0
   -5.7804    0.7803   -0.3472 H   0  0  0  0  0  0  0  0  0  0  0  0
  1  2  1  0  0  0  0
  2  3  1  0  0  0  0
  4  2  2  0  0  0  0
  5  4  1  0  0  0  0
  6  7  1  0  0  0  0
  6  4  1  0  0  0  0
  6 11  1  0  0  0  0
  7 10  1  0  0  0  0
  8  7  1  0  0  0  0
  9  7  1  0  0  0  0
 11 12  1  0  0  0  0
 13 11  1  0  0  0  0
 14 11  1  0  0  0  0
 15  1  1  0  0  0  0
 16 15  3  0  0  0  0
 16 17  1  0  0  0  0
 17 22  1  0  0  0  0
 18 20  1  0  0  0  0
 18 17  1  0  0  0  0
 19 18  1  0  0  0  0
 21 18  1  0  0  0  0
 22 23  1  0  0  0  0
 22 25  1  0  0  0  0
 22 24  1  0  0  0  0
 26 27  1  0  0  0  0
 26 29  1  0  0  0  0
 26 17  1  0  0  0  0
 28 26  1  0  0  0  0
M  END
