5
q = -1.0, confidence = 0.0

 19 20  0  0  0  0  0  0  0  0999 V2000
    1.6187   -0.8859   -1.7560 N   0  0  0  0  0  0  0  0  0  0  0  0
    2.0506    0.3562   -1.3254 C   0  0  0  0  0  0  0  0  0  0  0  0
    1.1793    1.4096   -1.7790 C   0  0  0  0  0  0  0  0  0  0  0  0
    0.1223    0.7515   -2.5079 C   0  0  0  0  0  0  0  0  0  0  0  0
    0.4267   -0.6526   -2.4489 C   0  0  0  0  0  3  0  0  0  0  0  0
    3.2855    0.4867   -0.5343 C   0  0  0  0  0  0  0  0  0  0  0  0
    3.6175    1.6939    0.1153 C   0  0  0  0  0  0  0  0  0  0  0  0
    4.8012    1.7993    0.8558 C   0  0  0  0  0  0  0  0  0  0  0  0
    5.6677    0.6993    0.9633 C   0  0  0  0  0  0  0  0  0  0  0  0
    5.3403   -0.5088    0.3261 C   0  0  0  0  0  0  0  0  0  0  0  0
    4.1579   -0.6162   -0.4164 C   0  0  0  0  0  0  0  0  0  0  0  0
    1.3352    2.4865   -1.6614 H   0  0  0  0  0  0  0  0  0  0  0  0
   -0.6708    1.2280   -3.0973 H   0  0  0  0  0  0  0  0  0  0  0  0
   -0.0680   -1.4663   -2.9928 H   0  0  0  0  0  0  0  0  0  0  0  0
    2.9322    2.5515    0.0593 H   0  0  0  0  0  0  0  0  0  0  0  0
    5.0443    2.7449    1.3637 H   0  0  0  0  0  0  0  0  0  0  0  0
    6.5963    0.7828    1.5485 H   0  0  0  0  0  0  0  0  0  0  0  0
    6.0137   -1.3756    0.4091 H   0  0  0  0  0  0  0  0  0  0  0  0
    3.8857   -1.5534   -0.9218 H   0  0  0  0  0  0  0  0  0  0  0  0
  1  2  2  0  0  0  0
  2  6  1  0  0  0  0
  3 12  1  0  0  0  0
  3  2  1  0  0  0  0
  4  5  1  0  0  0  0
  4  3  2  0  0  0  0
  5  1  1  0  0  0  0
  6 11  2  0  0  0  0
  6  7  1  0  0  0  0
  7  8  2  0  0  0  0
  8  9  1  0  0  0  0
  8 16  1  0  0  0  0
  9 17  1  0  0  0  0
 10 18  1  0  0  0  0
 10  9  2  0  0  0  0
 11 10  1  0  0  0  0
 13  4  1  0  0  0  0
 14  5  1  0  0  0  0
 15  7  1  0  0  0  0
 19 11  1  0  0  0  0
M  END
