1
q = -1.0, confidence = 0.016

 19 19  0  0  0  0  0  0  0  0999 V2000
   -1.8174    0.9539   -1.1331 C   0  0  0  0  0  3  0  0  0  0  0  0
   -2.1624   -0.3817   -1.5512 C   0  0  0  0  0  3  0  0  0  0  0  0
   -3.4546   -1.1001   -1.1846 C   0  0  0  0  0  0  0  0  0  0  0  0
   -4.7316   -0.3782   -1.6400 C   0  0  0  0  0  0  0  0  0  0  0  0
   -4.8709    1.0385   -1.0328 C   0  0  0  0  0  0  0  0  0  0  0  0
   -4.5573    1.0915    0.4376 C   0  0  0  0  0  0  0  0  0  0  0  0
   -3.3118    1.2065    0.9661 C   0  0  0  0  0  0  0  0  0  0  0  0
   -2.0686    1.3916    0.2000 C   0  0  0  0  0  3  0  0  0  0  0  0
   -1.2086    1.5858   -1.8010 H   0  0  0  0  0  0  0  0  0  0  0  0
   -1.7895   -0.6303   -2.5620 H   0  0  0  0  0  0  0  0  0  0  0  0
   -5.8987    1.4131   -1.2177 H   0  0  0  0  0  0  0  0  0  0  0  0
   -4.1810    1.7209   -1.5733 H   0  0  0  0  0  0  0  0  0  0  0  0
   -5.4026    1.0059    1.1426 H   0  0  0  0  0  0  0  0  0  0  0  0
   -3.2164    1.2607    2.0640 H   0  0  0  0  0  0  0  0  0  0  0  0
   -1.4942    2.2807    0.5128 H   0  0  0  0  0  0  0  0  0  0  0  0
   -3.5098   -1.2370   -0.0873 H   0  0  0  0  0  0  0  0  0  0  0  0
   -3.4296   -2.1183   -1.6213 H   0  0  0  0  0  0  0  0  0  0  0  0
   -4.7702   -0.3015   -2.7484 H   0  0  0  0  0  0  0  0  0  0  0  0
   -5.6009   -1.0021   -1.3395 H   0  0  0  0  0  0  0  0  0  0  0  0
  1  8  1  0  0  0  0
  2  3  1  0  0  0  0
  2  1  1  0  0  0  0
  3 16  1  0  0  0  0
  4 19  1  0  0  0  0
  4  3  1  0  0  0  0
  4  5  1  0  0  0  0
  5  6  1  0  0  0  0
  6  7  2  0  0  0  0
  6 13  1  0  0  0  0
  7 14  1  0  0  0  0
  8 15  1  0  0  0  0
  8  7  1  0  0  0  0
  9  1  1  0  0  0  0
 10  2  1  0  0  0  0
 11  5  1  0  0  0  0
 12  5  1  0  0  0  0
 17  3  1  0  0  0  0
 18  4  1  0  0  0  0
M  END
