5
q = -1.0

 10  9  0  0  0  0  0  0  0  0999 V2000
   -0.4502    0.6696    1.6976 O   0  0  0  0  0  0  0  0  0  0  0  0
   -0.1619    3.5986   -1.3753 C   0  0  0  0  0  0  0  0  0  0  0  0
   -0.4163    3.9282   -0.0967 C   0  0  0  0  0  0  0  0  0  0  0  0
   -0.5882    2.9663    1.0479 C   0  0  0  0  0  0  0  0  0  0  0  0
   -0.2158    1.5348    0.7988 C   0  0  0  0  0  3  0  0  0  0  0  0
   -0.0640    4.3719   -2.1526 H   0  0  0  0  0  0  0  0  0  0  0  0
   -0.0587    2.5448   -1.6796 H   0  0  0  0  0  0  0  0  0  0  0  0
   -0.5321    4.9943    0.1690 H   0  0  0  0  0  0  0  0  0  0  0  0
    0.0136    3.2994    1.9263 H   0  0  0  0  0  0  0  0  0  0  0  0
   -1.6368    2.9855    1.4280 H   0  0  0  0  0  0  0  0  0  0  0  0
  2  3  2  0  0  0  0
  3  8  1  0  0  0  0
  3  4  1  0  0  0  0
  4 10  1  0  0  0  0
  4  9  1  0  0  0  0
  5  4  1  0  0  0  0
  5  1  2  0  0  0  0
  6  2  1  0  0  0  0
  7  2  1  0  0  0  0
M  END
