2
q = -1.0, confidence = 0.0

 41 42  0  0  1  0  0  0  0  0999 V2000
   -0.4720   -1.5907   -0.8534 C   0  0  2  0  0  3  0  0  0  0  0  0
    0.6340   -1.0309   -1.5901 C   0  0  1  0  0  3  0  0  0  0  0  0
    1.7310   -1.9475   -1.4921 C   0  0  1  0  0  3  0  0  0  0  0  0
    1.3039   -3.0788   -0.7099 C   0  0  0  0  0  0  0  0  0  0  0  0
   -0.0550   -2.8708   -0.3261 C   0  0  0  0  0  0  0  0  0  0  0  0
    0.6399    0.2509   -2.3665 C   0  0  0  0  0  0  0  0  0  0  0  0
    0.3804    0.0637   -3.4306 H   0  0  0  0  0  0  0  0  0  0  0  0
    1.6349    0.7341   -2.3547 H   0  0  0  0  0  0  0  0  0  0  0  0
   -0.0876    0.9806   -1.9666 H   0  0  0  0  0  0  0  0  0  0  0  0
    3.0633   -1.8170   -2.1647 C   0  0  0  0  0  0  0  0  0  0  0  0
    3.0923   -2.4426   -3.0829 H   0  0  0  0  0  0  0  0  0  0  0  0
    3.8843   -2.1488   -1.5004 H   0  0  0  0  0  0  0  0  0  0  0  0
    3.2736   -0.7741   -2.4686 H   0  0  0  0  0  0  0  0  0  0  0  0
    2.1295   -4.2950   -0.4261 C   0  0  0  0  0  0  0  0  0  0  0  0
    1.7288   -4.8708    0.4291 H   0  0  0  0  0  0  0  0  0  0  0  0
    3.1738   -4.0189   -0.1825 H   0  0  0  0  0  0  0  0  0  0  0  0
    2.1518   -4.9678   -1.3105 H   0  0  0  0  0  0  0  0  0  0  0  0
   -0.9242   -3.8613    0.3873 C   0  0  0  0  0  0  0  0  0  0  0  0
   -0.5968   -4.8963    0.1700 H   0  0  0  0  0  0  0  0  0  0  0  0
   -1.9785   -3.7547    0.0663 H   0  0  0  0  0  0  0  0  0  0  0  0
   -0.8960   -3.7184    1.4875 H   0  0  0  0  0  0  0  0  0  0  0  0
   -1.8430   -1.0408   -0.7770 C   0  0  0  0  0  0  0  0  0  0  0  0
   -2.6054   -1.0805    0.4149 C   0  0  0  0  0  0  0  0  0  0  0  0
   -2.1392   -1.4528    1.3379 H   0  0  0  0  0  0  0  0  0  0  0  0
   -3.9222   -0.6091    0.4437 C   0  0  0  0  0  0  0  0  0  0  0  0
   -4.4785   -0.6512    1.3933 H   0  0  0  0  0  0  0  0  0  0  0  0
   -4.5393   -0.0767   -0.7077 C   0  0  0  0  0  0  0  0  0  0  0  0
   -3.7790   -0.0351   -1.8916 C   0  0  0  0  0  0  0  0  0  0  0  0
   -4.2364    0.3675   -2.8097 H   0  0  0  0  0  0  0  0  0  0  0  0
   -2.4604   -0.5075   -1.9310 C   0  0  0  0  0  0  0  0  0  0  0  0
   -1.9118   -0.4908   -2.8830 H   0  0  0  0  0  0  0  0  0  0  0  0
   -5.9721    0.4337   -0.6771 C   0  0  0  0  0  0  0  0  0  0  0  0
   -6.2171    0.7612   -1.7112 H   0  0  0  0  0  0  0  0  0  0  0  0
   -6.9624   -0.6792   -0.2943 C   0  0  0  0  0  0  0  0  0  0  0  0
   -6.7811   -1.0407    0.7392 H   0  0  0  0  0  0  0  0  0  0  0  0
   -6.8745   -1.5497   -0.9745 H   0  0  0  0  0  0  0  0  0  0  0  0
   -8.0072   -0.3092   -0.3389 H   0  0  0  0  0  0  0  0  0  0  0  0
   -6.1210    1.6567    0.2441 C   0  0  0  0  0  0  0  0  0  0  0  0
   -7.1598    2.0451    0.2180 H   0  0  0  0  0  0  0  0  0  0  0  0
   -5.4378    2.4753   -0.0566 H   0  0  0  0  0  0  0  0  0  0  0  0
   -5.8886    1.3960    1.2977 H   0  0  0  0  0  0  0  0  0  0  0  0
  1 22  1  6  0  0  0
  1  5  1  0  0  0  0
  2  6  1  6  0  0  0
  2  3  1  0  0  0  0
  2  1  1  0  0  0  0
  3 10  1  6  0  0  0
  3  4  1  0  0  0  0
  4 14  1  0  0  0  0
  4  5  2  0  0  0  0
  5 18  1  0  0  0  0
  6  8  1  0  0  0  0
  6  9  1  0  0  0  0
  7  6  1  0  0  0  0
 10 12  1  0  0  0  0
 11 10  1  0  0  0  0
 13 10  1  0  0  0  0
 14 16  1  0  0  0  0
 14 15  1  0  0  0  0
 17 14  1  0  0  0  0
 18 21  1  0  0  0  0
 19 18  1  0  0  0  0
 20 18  1  0  0  0  0
 22 23  1  0  0  0  0
 23 25  2  0  0  0  0
 23 24  1  0  0  0  0
 25 26  1  0  0  0  0
 27 32  1  0  0  0  0
 27 25  1  0  0  0  0
 28 27  2  0  0  0  0
 29 28  1  0  0  0  0
 30 28  1  0  0  0  0
 30 22  2  0  0  0  0
 31 30  1  0  0  0  0
 32 34  1  0  0  0  0
 32 38  1  0  0  0  0
 33 32  1  0  0  0  0
 34 35  1  0  0  0  0
 36 34  1  0  0  0  0
 37 34  1  0  0  0  0
 38 41  1  0  0  0  0
 39 38  1  0  0  0  0
 40 38  1  0  0  0  0
M  END
