1
q = -1.0

 24 25  0  0  0  0  0  0  0  0999 V2000
   -0.1668    0.0149    0.1263 C   0  0  0  0  0  3  0  0  0  0  0  0
   -1.0030   -0.0170   -1.0180 C   0  0  0  0  0  0  0  0  0  0  0  0
   -0.5495   -0.0522   -2.0217 H   0  0  0  0  0  0  0  0  0  0  0  0
   -2.3970   -0.0062   -0.9080 C   0  0  0  0  0  0  0  0  0  0  0  0
   -3.0060   -0.0323   -1.8249 H   0  0  0  0  0  0  0  0  0  0  0  0
   -3.0337    0.0371    0.3589 C   0  0  0  0  0  0  0  0  0  0  0  0
   -2.1975    0.0654    1.5022 C   0  0  0  0  0  0  0  0  0  0  0  0
   -2.6639    0.0959    2.5009 H   0  0  0  0  0  0  0  0  0  0  0  0
   -0.8001    0.0531    1.3899 C   0  0  0  0  0  0  0  0  0  0  0  0
   -0.1907    0.0677    2.3080 H   0  0  0  0  0  0  0  0  0  0  0  0
   -4.4827    0.0513    0.5346 C   0  0  0  0  0  0  0  0  0  0  0  0
   -4.8143    0.0834    1.5872 H   0  0  0  0  0  0  0  0  0  0  0  0
   -5.4343    0.0294   -0.4402 C   0  0  0  0  0  0  0  0  0  0  0  0
   -5.1156   -0.0024   -1.4959 H   0  0  0  0  0  0  0  0  0  0  0  0
   -6.8815    0.0438   -0.2391 C   0  0  0  0  0  0  0  0  0  0  0  0
   -7.7486    0.0177   -1.3579 C   0  0  0  0  0  0  0  0  0  0  0  0
   -7.3316   -0.0134   -2.3770 H   0  0  0  0  0  0  0  0  0  0  0  0
   -9.1366    0.0316   -1.1658 C   0  0  0  0  0  0  0  0  0  0  0  0
   -9.8113    0.0112   -2.0412 H   0  0  0  0  0  0  0  0  0  0  0  0
   -9.7262    0.0691    0.0401 N   0  0  0  0  0  0  0  0  0  0  0  0
   -8.9070    0.0941    1.1078 C   0  0  0  0  0  0  0  0  0  0  0  0
   -9.3976    0.1248    2.0978 H   0  0  0  0  0  0  0  0  0  0  0  0
   -7.5102    0.0833    1.0302 C   0  0  0  0  0  0  0  0  0  0  0  0
   -6.9167    0.1055    1.9562 H   0  0  0  0  0  0  0  0  0  0  0  0
  1  9  1  0  0  0  0
  2  4  1  0  0  0  0
  2  1  2  0  0  0  0
  3  2  1  0  0  0  0
  4  6  2  0  0  0  0
  5  4  1  0  0  0  0
  6 11  1  0  0  0  0
  6  7  1  0  0  0  0
  7  8  1  0  0  0  0
  9  7  2  0  0  0  0
  9 10  1  0  0  0  0
 11 12  1  0  0  0  0
 13 15  1  0  0  0  0
 13 11  2  0  0  0  0
 14 13  1  0  0  0  0
 15 23  1  0  0  0  0
 16 18  1  0  0  0  0
 16 15  2  0  0  0  0
 17 16  1  0  0  0  0
 18 20  2  0  0  0  0
 19 18  1  0  0  0  0
 20 21  1  0  0  0  0
 21 22  1  0  0  0  0
 23 21  2  0  0  0  0
 23 24  1  0  0  0  0
M  END
