2
q = -1.0, confidence = 0.016

 18 17  0  0  0  0  0  0  0  0999 V2000
   -0.4425    0.8360    1.9778 C   0  0  0  0  0  3  0  0  0  0  0  0
   -1.2125    1.3159    0.8458 C   0  0  0  0  0  3  0  0  0  0  0  0
   -2.5138    0.7297    0.3650 C   0  0  0  0  0  0  0  0  0  0  0  0
   -2.4764    0.2266   -0.9007 C   0  0  0  0  0  0  0  0  0  0  0  0
   -1.1318    0.3087   -1.5881 C   0  0  0  0  0  3  0  0  0  0  0  0
   -3.7166    0.8609    1.2556 C   0  0  0  0  0  0  0  0  0  0  0  0
   -3.6417   -0.3447   -1.6589 C   0  0  0  0  0  0  0  0  0  0  0  0
    0.1171    1.5673    2.5829 H   0  0  0  0  0  0  0  0  0  0  0  0
   -0.8725    0.0380    2.6065 H   0  0  0  0  0  0  0  0  0  0  0  0
   -1.1357    2.4030    0.6409 H   0  0  0  0  0  0  0  0  0  0  0  0
   -1.0651   -0.3805   -2.4596 H   0  0  0  0  0  0  0  0  0  0  0  0
   -1.0043    1.3347   -1.9996 H   0  0  0  0  0  0  0  0  0  0  0  0
   -3.9492    1.9317    1.4531 H   0  0  0  0  0  0  0  0  0  0  0  0
   -3.5177    0.4096    2.2531 H   0  0  0  0  0  0  0  0  0  0  0  0
   -4.6276    0.3866    0.8402 H   0  0  0  0  0  0  0  0  0  0  0  0
   -3.8548    0.2582   -2.5697 H   0  0  0  0  0  0  0  0  0  0  0  0
   -3.4132   -1.3700   -2.0279 H   0  0  0  0  0  0  0  0  0  0  0  0
   -4.5729   -0.4000   -1.0617 H   0  0  0  0  0  0  0  0  0  0  0  0
  1  8  1  0  0  0  0
  1  9  1  0  0  0  0
  2  1  1  0  0  0  0
  3  2  1  0  0  0  0
  3  6  1  0  0  0  0
  4  3  2  0  0  0  0
  5  4  1  0  0  0  0
  6 13  1  0  0  0  0
  6 14  1  0  0  0  0
  7 18  1  0  0  0  0
  7  4  1  0  0  0  0
 10  2  1  0  0  0  0
 11  5  1  0  0  0  0
 12  5  1  0  0  0  0
 15  6  1  0  0  0  0
 16  7  1  0  0  0  0
 17  7  1  0  0  0  0
M  END
