2
q = 0.0, confidence = 0.964

 24 25  0  0  0  0  0  0  0  0999 V2000
   -0.6718   -1.7125   -0.3368 S   0  0  0  0  0  0  0  0  0  0  0  0
    0.2291   -0.2326   -0.1415 C   0  0  0  0  0  2  0  0  0  0  0  0
   -0.5683    1.0142   -0.1434 C   0  0  0  0  0  0  0  0  0  0  0  0
   -0.5851    1.8610    0.9884 C   0  0  0  0  0  0  0  0  0  0  0  0
   -1.3496    3.0362    0.9898 C   0  0  0  0  0  0  0  0  0  0  0  0
   -2.0912    3.4005   -0.1452 C   0  0  0  0  0  0  0  0  0  0  0  0
   -2.0743    2.5718   -1.2794 C   0  0  0  0  0  0  0  0  0  0  0  0
   -1.3340    1.3832   -1.2753 C   0  0  0  0  0  0  0  0  0  0  0  0
   -2.4108   -1.3292   -0.0872 C   0  0  0  0  0  0  0  0  0  0  0  0
   -3.3268   -1.6005   -1.1202 C   0  0  0  0  0  0  0  0  0  0  0  0
   -4.6899   -1.3254   -0.9324 C   0  0  0  0  0  0  0  0  0  0  0  0
   -5.1370   -0.7706    0.2772 C   0  0  0  0  0  0  0  0  0  0  0  0
   -4.2204   -0.5069    1.3089 C   0  0  0  0  0  0  0  0  0  0  0  0
   -2.8602   -0.7964    1.1367 C   0  0  0  0  0  0  0  0  0  0  0  0
   -0.0066    1.5697    1.8776 H   0  0  0  0  0  0  0  0  0  0  0  0
   -1.3653    3.6735    1.8872 H   0  0  0  0  0  0  0  0  0  0  0  0
   -2.6841    4.3276   -0.1457 H   0  0  0  0  0  0  0  0  0  0  0  0
   -2.6526    2.8491   -2.1740 H   0  0  0  0  0  0  0  0  0  0  0  0
   -1.3364    0.7237   -2.1561 H   0  0  0  0  0  0  0  0  0  0  0  0
   -2.9651   -2.0178   -2.0722 H   0  0  0  0  0  0  0  0  0  0  0  0
   -5.4055   -1.5372   -1.7414 H   0  0  0  0  0  0  0  0  0  0  0  0
   -6.2050   -0.5461    0.4188 H   0  0  0  0  0  0  0  0  0  0  0  0
   -4.5686   -0.0791    2.2613 H   0  0  0  0  0  0  0  0  0  0  0  0
   -2.1394   -0.6062    1.9452 H   0  0  0  0  0  0  0  0  0  0  0  0
  1  2  1  0  0  0  0
  1  9  1  0  0  0  0
  3  2  1  0  0  0  0
  3  4  1  0  0  0  0
  4  5  2  0  0  0  0
  4 15  1  0  0  0  0
  5 16  1  0  0  0  0
  6  5  1  0  0  0  0
  7  8  1  0  0  0  0
  7  6  2  0  0  0  0
  8  3  2  0  0  0  0
  9 14  1  0  0  0  0
 10 11  1  0  0  0  0
 10  9  2  0  0  0  0
 11 12  2  0  0  0  0
 12 22  1  0  0  0  0
 12 13  1  0  0  0  0
 13 23  1  0  0  0  0
 14 13  2  0  0  0  0
 14 24  1  0  0  0  0
 17  6  1  0  0  0  0
 18  7  1  0  0  0  0
 19  8  1  0  0  0  0
 20 10  1  0  0  0  0
 21 11  1  0  0  0  0
M  END
