8
q = 0.0, confidence = 0.998

 29 30  0  0  1  0  0  0  0  0999 V2000
   -1.0173    0.5544   -0.5018 S   0  0  0  0  0  0  0  0  0  0  0  0
   -0.8429    2.4387   -0.2547 C   0  0  2  0  0  0  0  0  0  0  0  0
   -1.8655    2.8204   -0.4337 H   0  0  0  0  0  0  0  0  0  0  0  0
    0.0882    2.9294   -1.3207 C   0  0  0  0  0  0  0  0  0  0  0  0
   -0.3436    3.5528   -2.1192 H   0  0  0  0  0  0  0  0  0  0  0  0
    1.4061    2.5968   -1.3859 C   0  0  0  0  0  0  0  0  0  0  0  0
    1.9731    2.9403   -2.2669 H   0  0  0  0  0  0  0  0  0  0  0  0
    2.1730    1.8192   -0.4202 C   0  0  0  0  0  3  0  0  0  0  0  0
    3.2041    1.5807   -0.7207 H   0  0  0  0  0  0  0  0  0  0  0  0
    1.9021    1.7361    0.9681 C   0  0  0  0  0  3  0  0  0  0  0  0
    2.7496    1.4396    1.6039 H   0  0  0  0  0  0  0  0  0  0  0  0
    0.8115    2.4129    1.6543 C   0  0  0  0  0  0  0  0  0  0  0  0
    0.9954    2.6447    2.7165 H   0  0  0  0  0  0  0  0  0  0  0  0
   -0.3886    2.7825    1.1276 C   0  0  0  0  0  0  0  0  0  0  0  0
   -1.0972    3.3355    1.7655 H   0  0  0  0  0  0  0  0  0  0  0  0
   -2.1603    0.1824    0.9648 C   0  0  1  0  0  0  0  0  0  0  0  0
   -1.6100    0.5759    1.8393 H   0  0  0  0  0  0  0  0  0  0  0  0
   -3.4828    0.8682    0.8249 C   0  0  0  0  0  0  0  0  0  0  0  0
   -3.7097    1.6622    1.5564 H   0  0  0  0  0  0  0  0  0  0  0  0
   -4.3895    0.6187   -0.1691 C   0  0  0  0  0  0  0  0  0  0  0  0
   -5.2637    1.2898   -0.2296 H   0  0  0  0  0  0  0  0  0  0  0  0
   -4.3392   -0.4430   -1.1402 C   0  0  0  0  0  0  0  0  0  0  0  0
   -4.9757   -0.3219   -2.0322 H   0  0  0  0  0  0  0  0  0  0  0  0
   -3.6942   -1.6519   -0.9897 C   0  0  0  0  0  0  0  0  0  0  0  0
   -3.8596   -2.4088   -1.7741 H   0  0  0  0  0  0  0  0  0  0  0  0
   -2.9559   -2.0878    0.1674 C   0  0  0  0  0  0  0  0  0  0  0  0
   -2.8832   -3.1785    0.3141 H   0  0  0  0  0  0  0  0  0  0  0  0
   -2.3328   -1.3003    1.0945 C   0  0  0  0  0  0  0  0  0  0  0  0
   -1.8802   -1.7769    1.9782 H   0  0  0  0  0  0  0  0  0  0  0  0
  1  2  1  0  0  0  0
  1 16  1  0  0  0  0
  2  3  1  6  0  0  0
  2 14  1  0  0  0  0
  4  2  1  0  0  0  0
  5  4  1  0  0  0  0
  6  4  2  0  0  0  0
  6  8  1  0  0  0  0
  7  6  1  0  0  0  0
  8 10  1  0  0  0  0
  9  8  1  0  0  0  0
 10 11  1  0  0  0  0
 10 12  1  0  0  0  0
 12 13  1  0  0  0  0
 14 12  2  0  0  0  0
 14 15  1  0  0  0  0
 16 28  1  0  0  0  0
 16 17  1  1  0  0  0
 18 16  1  0  0  0  0
 18 19  1  0  0  0  0
 20 18  2  0  0  0  0
 21 20  1  0  0  0  0
 22 24  2  0  0  0  0
 22 20  1  0  0  0  0
 23 22  1  0  0  0  0
 24 26  1  0  0  0  0
 25 24  1  0  0  0  0
 26 27  1  0  0  0  0
 26 28  2  0  0  0  0
 28 29  1  0  0  0  0
M  END
