2
q = 0.0, confidence = 0.926

 20 20  0  0  0  0  0  0  0  0999 V2000
    3.2557   -1.9312   -0.8194 Cl  0  0  0  0  0  0  0  0  0  0  0  0
    0.1940    0.5765   -0.6198 C   0  0  0  0  0  2  0  0  0  0  0  0
    2.3660   -0.4749   -0.3475 C   0  0  0  0  0  0  0  0  0  0  0  0
    2.6598    1.7846    0.5044 C   0  0  0  0  0  0  0  0  0  0  0  0
    1.9566    2.2408   -0.7829 C   0  0  0  0  0  0  0  0  0  0  0  0
    3.9757   -0.0568    1.5143 C   0  0  0  0  0  0  0  0  0  0  0  0
   -0.4164    2.9770   -0.7897 C   0  0  0  0  0  0  0  0  0  0  0  0
    1.2079   -0.3032   -0.8635 N   0  0  0  0  0  0  0  0  0  0  0  0
    0.5337    1.8755   -0.7894 N   0  0  0  0  0  0  0  0  0  0  0  0
    3.0371    0.3694    0.4911 N   0  0  0  0  0  0  0  0  0  0  0  0
    3.5991    2.3657    0.6405 H   0  0  0  0  0  0  0  0  0  0  0  0
    2.0074    2.0185    1.3780 H   0  0  0  0  0  0  0  0  0  0  0  0
    2.0242    3.3425   -0.8467 H   0  0  0  0  0  0  0  0  0  0  0  0
    2.4753    1.8285   -1.6751 H   0  0  0  0  0  0  0  0  0  0  0  0
    4.2608   -1.1085    1.3402 H   0  0  0  0  0  0  0  0  0  0  0  0
    3.5204    0.0265    2.5260 H   0  0  0  0  0  0  0  0  0  0  0  0
    4.8896    0.5733    1.4833 H   0  0  0  0  0  0  0  0  0  0  0  0
   -1.4315    2.5896   -0.9656 H   0  0  0  0  0  0  0  0  0  0  0  0
   -0.1609    3.6860   -1.6036 H   0  0  0  0  0  0  0  0  0  0  0  0
   -0.4085    3.5239    0.1772 H   0  0  0  0  0  0  0  0  0  0  0  0
  1  3  1  0  0  0  0
  3 10  1  0  0  0  0
  4 11  1  0  0  0  0
  4 12  1  0  0  0  0
  5  4  1  0  0  0  0
  6 16  1  0  0  0  0
  7  9  1  0  0  0  0
  7 20  1  0  0  0  0
  8  2  1  0  0  0  0
  8  3  2  0  0  0  0
  9  5  1  0  0  0  0
  9  2  1  0  0  0  0
 10  4  1  0  0  0  0
 10  6  1  0  0  0  0
 13  5  1  0  0  0  0
 14  5  1  0  0  0  0
 15  6  1  0  0  0  0
 17  6  1  0  0  0  0
 18  7  1  0  0  0  0
 19  7  1  0  0  0  0
M  END
