1
q = -1.0, confidence = 0.002

 32 34  0  0  1  0  0  0  0  0999 V2000
    0.0726   -0.3068    0.9288 C   0  0  2  0  0  3  0  0  0  0  0  0
    0.7143    0.8863    0.4477 C   0  0  1  0  0  3  0  0  0  0  0  0
    1.0062    0.6554   -0.9580 C   0  0  0  0  0  0  0  0  0  0  0  0
    0.5577   -0.6519   -1.3098 C   0  0  0  0  0  0  0  0  0  0  0  0
   -0.0142   -1.2801   -0.1306 C   0  0  2  0  0  3  0  0  0  0  0  0
   -0.6418   -0.4872    2.4802 Cl  0  0  0  0  0  0  0  0  0  0  0  0
    0.9470    2.4033    1.3150 S   0  0  0  0  0  0  0  0  0  0  0  0
   -1.7672    2.7521    0.7275 C   0  0  0  0  0  0  0  0  0  0  0  0
   -2.8480    3.4617    0.1852 C   0  0  0  0  0  0  0  0  0  0  0  0
   -2.6435    4.7142   -0.4183 C   0  0  0  0  0  0  0  0  0  0  0  0
   -1.3494    5.2530   -0.4877 C   0  0  0  0  0  0  0  0  0  0  0  0
   -0.2561    4.5388    0.0277 C   0  0  0  0  0  0  0  0  0  0  0  0
   -0.4675    3.2894    0.6378 C   0  0  0  0  0  0  0  0  0  0  0  0
    1.6193    1.8321   -2.0442 Cl  0  0  0  0  0  0  0  0  0  0  0  0
    0.5381   -1.3151   -2.8902 Cl  0  0  0  0  0  0  0  0  0  0  0  0
   -0.8215   -2.8365   -0.0524 S   0  0  0  0  0  0  0  0  0  0  0  0
   -3.5042   -3.2741    0.2282 C   0  0  0  0  0  0  0  0  0  0  0  0
   -4.8653   -2.9431    0.1783 C   0  0  0  0  0  0  0  0  0  0  0  0
   -5.2727   -1.6574   -0.2134 C   0  0  0  0  0  0  0  0  0  0  0  0
   -4.3038   -0.7054   -0.5655 C   0  0  0  0  0  0  0  0  0  0  0  0
   -2.9388   -1.0272   -0.5325 C   0  0  0  0  0  0  0  0  0  0  0  0
   -2.5352   -2.3146   -0.1289 C   0  0  0  0  0  0  0  0  0  0  0  0
   -1.9307    1.7853    1.2261 H   0  0  0  0  0  0  0  0  0  0  0  0
   -3.8615    3.0365    0.2512 H   0  0  0  0  0  0  0  0  0  0  0  0
   -3.4958    5.2713   -0.8353 H   0  0  0  0  0  0  0  0  0  0  0  0
   -1.1831    6.2316   -0.9632 H   0  0  0  0  0  0  0  0  0  0  0  0
    0.7660    4.9372   -0.0536 H   0  0  0  0  0  0  0  0  0  0  0  0
   -3.1895   -4.2777    0.5537 H   0  0  0  0  0  0  0  0  0  0  0  0
   -5.6143   -3.6989    0.4596 H   0  0  0  0  0  0  0  0  0  0  0  0
   -6.3416   -1.3994   -0.2433 H   0  0  0  0  0  0  0  0  0  0  0  0
   -4.6072    0.3056   -0.8792 H   0  0  0  0  0  0  0  0  0  0  0  0
   -2.1958   -0.2715   -0.8237 H   0  0  0  0  0  0  0  0  0  0  0  0
  1  6  1  6  0  0  0
  2  1  1  0  0  0  0
  2  7  1  6  0  0  0
  3  2  1  0  0  0  0
  4  3  2  0  0  0  0
  4  5  1  0  0  0  0
  5 16  1  6  0  0  0
  5  1  1  0  0  0  0
  8 23  1  0  0  0  0
  9 24  1  0  0  0  0
  9  8  2  0  0  0  0
 10  9  1  0  0  0  0
 11 10  2  0  0  0  0
 11 12  1  0  0  0  0
 12 13  2  0  0  0  0
 13  8  1  0  0  0  0
 13  7  1  0  0  0  0
 14  3  1  0  0  0  0
 15  4  1  0  0  0  0
 17 28  1  0  0  0  0
 18 17  1  0  0  0  0
 18 29  1  0  0  0  0
 19 18  2  0  0  0  0
 20 21  2  0  0  0  0
 20 19  1  0  0  0  0
 21 22  1  0  0  0  0
 22 16  1  0  0  0  0
 22 17  2  0  0  0  0
 25 10  1  0  0  0  0
 26 11  1  0  0  0  0
 27 12  1  0  0  0  0
 30 19  1  0  0  0  0
 31 20  1  0  0  0  0
 32 21  1  0  0  0  0
M  END
