1
q = 0.0, confidence = 0.926

 13 13  0  0  0  0  0  0  0  0999 V2000
    0.1913   -0.2914    0.0001 C   0  0  0  0  0  0  0  0  0  0  0  0
   -1.0004   -0.0982    0.0001 N   0  0  0  0  0  0  0  0  0  0  0  0
   -2.3502   -0.0654    0.0000 C   0  0  0  0  0  0  0  0  0  0  0  0
   -3.0500    1.1692    0.0000 C   0  0  0  0  0  0  0  0  0  0  0  0
   -4.4507    1.2077   -0.0001 C   0  0  0  0  0  0  0  0  0  0  0  0
   -5.1865    0.0084   -0.0000 C   0  0  0  0  0  0  0  0  0  0  0  0
   -4.5134   -1.2274   -0.0000 C   0  0  0  0  0  0  0  0  0  0  0  0
   -3.1121   -1.2639    0.0001 C   0  0  0  0  0  0  0  0  0  0  0  0
   -2.3593    2.3159    0.0000 F   0  0  0  0  0  0  0  0  0  0  0  0
   -5.0911    2.3798   -0.0001 F   0  0  0  0  0  0  0  0  0  0  0  0
   -6.5202    0.0432   -0.0001 F   0  0  0  0  0  0  0  0  0  0  0  0
   -5.2150   -2.3631   -0.0000 F   0  0  0  0  0  0  0  0  0  0  0  0
   -2.4812   -2.4387    0.0001 F   0  0  0  0  0  0  0  0  0  0  0  0
  1  2  1  0  0  0  0
  3  8  1  0  0  0  0
  3  2  1  0  0  0  0
  4  3  2  0  0  0  0
  5  6  2  0  0  0  0
  5  4  1  0  0  0  0
  7  6  1  0  0  0  0
  7 12  1  0  0  0  0
  7  8  2  0  0  0  0
  8 13  1  0  0  0  0
  9  4  1  0  0  0  0
 10  5  1  0  0  0  0
 11  6  1  0  0  0  0
M  END
