12
q = -1.0

 38 38  0  0  1  0  0  0  0  0999 V2000
   -1.3882   -0.3587    1.1976 S   0  0  0  0  0  0  0  0  0  0  0  0
    0.7555    3.9698    0.4744 F   0  0  0  0  0  0  0  0  0  0  0  0
   -0.5444    3.6237   -1.2466 F   0  0  0  0  0  0  0  0  0  0  0  0
    1.6304    3.5205   -1.4754 F   0  0  0  0  0  0  0  0  0  0  0  0
    2.3453    0.6736   -2.1645 F   0  0  0  0  0  0  0  0  0  0  0  0
    0.7394    1.2882   -3.4847 F   0  0  0  0  0  0  0  0  0  0  0  0
    0.9446   -0.8168   -2.9295 F   0  0  0  0  0  0  0  0  0  0  0  0
   -2.3040    0.9533    2.2135 C   0  0  0  0  0  0  0  0  0  0  0  0
   -2.4437    2.2833    1.4923 C   0  0  0  0  0  0  0  0  0  0  0  0
   -3.6278    0.3767    2.7152 C   0  0  0  0  0  0  0  0  0  0  0  0
    0.6047    3.2006   -0.6487 C   0  0  0  0  0  0  0  0  0  0  0  0
    0.5397    1.7464   -0.3519 C   0  0  0  0  0  2  0  0  0  0  0  0
    0.1427    0.6736   -1.2346 C   0  0  2  0  0  3  0  0  0  0  0  0
    1.0401    0.4524   -2.4431 C   0  0  0  0  0  0  0  0  0  0  0  0
   -1.2962    0.2946   -1.4561 C   0  0  0  0  0  0  0  0  0  0  0  0
   -1.8521    0.3653   -2.8581 C   0  0  0  0  0  0  0  0  0  0  0  0
   -2.0981   -0.1312   -0.4370 C   0  0  0  0  0  0  0  0  0  0  0  0
   -3.5282   -0.5162   -0.5101 C   0  0  0  0  0  0  0  0  0  0  0  0
   -3.9318   -1.8016   -0.0791 C   0  0  0  0  0  0  0  0  0  0  0  0
   -5.2824   -2.1714   -0.1088 C   0  0  0  0  0  0  0  0  0  0  0  0
   -6.2553   -1.2666   -0.5661 C   0  0  0  0  0  0  0  0  0  0  0  0
   -5.8664    0.0094   -1.0036 C   0  0  0  0  0  0  0  0  0  0  0  0
   -4.5149    0.3832   -0.9748 C   0  0  0  0  0  0  0  0  0  0  0  0
   -1.6158    1.0643    3.0755 H   0  0  0  0  0  0  0  0  0  0  0  0
   -2.8854    3.0304    2.1837 H   0  0  0  0  0  0  0  0  0  0  0  0
   -3.1138    2.1963    0.6162 H   0  0  0  0  0  0  0  0  0  0  0  0
   -1.4697    2.6670    1.1398 H   0  0  0  0  0  0  0  0  0  0  0  0
   -3.4895   -0.6110    3.1963 H   0  0  0  0  0  0  0  0  0  0  0  0
   -4.3631    0.2630    1.8963 H   0  0  0  0  0  0  0  0  0  0  0  0
   -4.0604    1.0698    3.4666 H   0  0  0  0  0  0  0  0  0  0  0  0
   -1.2405   -0.2396   -3.5540 H   0  0  0  0  0  0  0  0  0  0  0  0
   -1.8149    1.4089   -3.2307 H   0  0  0  0  0  0  0  0  0  0  0  0
   -2.8921   -0.0006   -2.9072 H   0  0  0  0  0  0  0  0  0  0  0  0
   -3.1659   -2.5097    0.2706 H   0  0  0  0  0  0  0  0  0  0  0  0
   -5.5785   -3.1779    0.2241 H   0  0  0  0  0  0  0  0  0  0  0  0
   -7.3165   -1.5574   -0.5843 H   0  0  0  0  0  0  0  0  0  0  0  0
   -6.6219    0.7239   -1.3645 H   0  0  0  0  0  0  0  0  0  0  0  0
   -4.2147    1.3888   -1.3061 H   0  0  0  0  0  0  0  0  0  0  0  0
  1  8  1  0  0  0  0
  3 11  1  0  0  0  0
  4 11  1  0  0  0  0
  6 14  1  0  0  0  0
  7 14  1  0  0  0  0
  8 10  1  0  0  0  0
  8 24  1  0  0  0  0
  9 25  1  0  0  0  0
  9  8  1  0  0  0  0
 10 28  1  0  0  0  0
 10 30  1  0  0  0  0
 11 12  1  0  0  0  0
 11  2  1  0  0  0  0
 13 12  1  6  0  0  0
 14  5  1  0  0  0  0
 14 13  1  0  0  0  0
 15 13  1  0  0  0  0
 15 17  2  0  0  0  0
 16 15  1  0  0  0  0
 17  1  1  0  0  0  0
 18 17  1  0  0  0  0
 18 19  1  0  0  0  0
 19 34  1  0  0  0  0
 20 19  2  0  0  0  0
 20 35  1  0  0  0  0
 21 20  1  0  0  0  0
 22 23  1  0  0  0  0
 22 21  2  0  0  0  0
 23 18  2  0  0  0  0
 26  9  1  0  0  0  0
 27  9  1  0  0  0  0
 29 10  1  0  0  0  0
 31 16  1  0  0  0  0
 32 16  1  0  0  0  0
 33 16  1  0  0  0  0
 36 21  1  0  0  0  0
 37 22  1  0  0  0  0
 38 23  1  0  0  0  0
M  END
