15
q = 0.0, confidence = 0.994

 35 34  0  0  1  0  0  0  0  0999 V2000
   -1.6920    2.2860   -0.5292 O   0  0  0  0  0  0  0  0  0  0  0  0
   -1.8207    1.2372    1.5248 O   0  0  0  0  0  0  0  0  0  0  0  0
    2.6635    2.1194   -0.6209 O   0  0  0  0  0  0  0  0  0  0  0  0
    4.1373    0.4177   -0.4048 O   0  0  0  0  0  0  0  0  0  0  0  0
    0.1803    1.9327    0.6101 N   0  0  0  0  0  0  0  0  0  0  0  0
    0.6009    2.3441   -0.2253 H   0  0  0  0  0  0  0  0  0  0  0  0
   -3.9445    2.9254    0.2353 C   0  0  0  0  0  0  0  0  0  0  0  0
   -3.2400    2.8755   -2.1843 C   0  0  0  0  0  0  0  0  0  0  0  0
   -3.5225    0.7048   -0.9350 C   0  0  0  0  0  0  0  0  0  0  0  0
   -3.1228    2.1815   -0.8244 C   0  0  0  0  0  0  0  0  0  0  0  0
   -1.1743    1.7619    0.6220 C   0  0  0  0  0  0  0  0  0  0  0  0
    1.0803    1.2667    1.5419 C   0  0  2  0  0  0  0  0  0  0  0  0
    1.8386    2.2692    2.4263 C   0  0  0  0  0  0  0  0  0  0  0  0
    2.0346    0.3089    0.8073 C   0  0  2  0  0  3  0  0  0  0  0  0
    2.3758   -0.9668    1.3428 C   0  0  0  0  0  3  0  0  0  0  0  0
    3.0612    0.9094   -0.1103 C   0  0  0  0  0  0  0  0  0  0  0  0
    3.6048    2.7519   -1.4977 C   0  0  0  0  0  0  0  0  0  0  0  0
   -3.8396    2.4402    1.2221 H   0  0  0  0  0  0  0  0  0  0  0  0
   -5.0145    2.9317   -0.0542 H   0  0  0  0  0  0  0  0  0  0  0  0
   -3.6031    3.9769    0.3157 H   0  0  0  0  0  0  0  0  0  0  0  0
   -4.2919    2.8658   -2.5311 H   0  0  0  0  0  0  0  0  0  0  0  0
   -2.6144    2.3589   -2.9388 H   0  0  0  0  0  0  0  0  0  0  0  0
   -2.9017    3.9281   -2.1133 H   0  0  0  0  0  0  0  0  0  0  0  0
   -3.4137    0.1915    0.0372 H   0  0  0  0  0  0  0  0  0  0  0  0
   -2.8794    0.1894   -1.6768 H   0  0  0  0  0  0  0  0  0  0  0  0
   -4.5758    0.6219   -1.2701 H   0  0  0  0  0  0  0  0  0  0  0  0
    0.4308    0.6449    2.1861 H   0  0  0  0  0  0  0  0  0  0  0  0
    2.4984    1.7369    3.1403 H   0  0  0  0  0  0  0  0  0  0  0  0
    1.1171    2.8800    3.0039 H   0  0  0  0  0  0  0  0  0  0  0  0
    2.4624    2.9538    1.8181 H   0  0  0  0  0  0  0  0  0  0  0  0
    3.3537   -1.4019    1.0851 H   0  0  0  0  0  0  0  0  0  0  0  0
    1.9308   -1.2820    2.2996 H   0  0  0  0  0  0  0  0  0  0  0  0
    4.5635    2.9402   -0.9748 H   0  0  0  0  0  0  0  0  0  0  0  0
    3.1399    3.7036   -1.8105 H   0  0  0  0  0  0  0  0  0  0  0  0
    3.8113    2.1118   -2.3791 H   0  0  0  0  0  0  0  0  0  0  0  0
  1 11  1  0  0  0  0
  3 16  1  0  0  0  0
  4 16  2  0  0  0  0
  5 11  1  0  0  0  0
  5 12  1  0  0  0  0
  6  5  1  0  0  0  0
  7 20  1  0  0  0  0
  7 18  1  0  0  0  0
  8 23  1  0  0  0  0
  8 10  1  0  0  0  0
  9 10  1  0  0  0  0
  9 24  1  0  0  0  0
 10  1  1  0  0  0  0
 10  7  1  0  0  0  0
 11  2  2  0  0  0  0
 12 27  1  1  0  0  0
 12 13  1  0  0  0  0
 13 29  1  0  0  0  0
 13 28  1  0  0  0  0
 14 16  1  1  0  0  0
 14 15  1  0  0  0  0
 14 12  1  0  0  0  0
 15 32  1  0  0  0  0
 17 33  1  0  0  0  0
 17  3  1  0  0  0  0
 19  7  1  0  0  0  0
 21  8  1  0  0  0  0
 22  8  1  0  0  0  0
 25  9  1  0  0  0  0
 26  9  1  0  0  0  0
 30 13  1  0  0  0  0
 31 15  1  0  0  0  0
 34 17  1  0  0  0  0
 35 17  1  0  0  0  0
M  END
