2
q = -1.0

 20 21  0  0  0  0  0  0  0  0999 V2000
    2.5355   -0.3641    0.3586 N   0  0  0  0  0  0  0  0  0  0  0  0
    1.3302   -0.4556    0.9899 C   0  0  0  0  0  3  0  0  0  0  0  0
    1.2787   -1.1337    2.2381 C   0  0  0  0  0  0  0  0  0  0  0  0
    0.3138   -1.2524    2.7508 H   0  0  0  0  0  0  0  0  0  0  0  0
    2.4485   -1.6614    2.7882 C   0  0  0  0  0  0  0  0  0  0  0  0
    2.4145   -2.1976    3.7501 H   0  0  0  0  0  0  0  0  0  0  0  0
    3.6724   -1.5290    2.1086 C   0  0  0  0  0  0  0  0  0  0  0  0
    4.5933   -1.9663    2.5172 H   0  0  0  0  0  0  0  0  0  0  0  0
    3.6834   -0.8700    0.8656 C   0  0  0  0  0  0  0  0  0  0  0  0
    4.9185   -0.7225    0.0520 C   0  0  0  0  0  0  0  0  0  0  0  0
    6.1945   -0.7029    0.6583 C   0  0  0  0  0  0  0  0  0  0  0  0
    6.2772   -0.7655    1.7534 H   0  0  0  0  0  0  0  0  0  0  0  0
    7.3558   -0.5695   -0.1142 C   0  0  0  0  0  0  0  0  0  0  0  0
    8.3391   -0.5462    0.3800 H   0  0  0  0  0  0  0  0  0  0  0  0
    7.2668   -0.4545   -1.5106 C   0  0  0  0  0  0  0  0  0  0  0  0
    8.1790   -0.3501   -2.1175 H   0  0  0  0  0  0  0  0  0  0  0  0
    6.0049   -0.4700   -2.1262 C   0  0  0  0  0  0  0  0  0  0  0  0
    5.9239   -0.3846   -3.2206 H   0  0  0  0  0  0  0  0  0  0  0  0
    4.8432   -0.5993   -1.3543 C   0  0  0  0  0  0  0  0  0  0  0  0
    3.8607   -0.6204   -1.8469 H   0  0  0  0  0  0  0  0  0  0  0  0
  1  9  2  0  0  0  0
  1  2  1  0  0  0  0
  2  3  2  0  0  0  0
  3  4  1  0  0  0  0
  3  5  1  0  0  0  0
  5  6  1  0  0  0  0
  7  8  1  0  0  0  0
  7  5  2  0  0  0  0
  9  7  1  0  0  0  0
 10 11  1  0  0  0  0
 10  9  1  0  0  0  0
 11 12  1  0  0  0  0
 13 14  1  0  0  0  0
 13 11  2  0  0  0  0
 15 13  1  0  0  0  0
 16 15  1  0  0  0  0
 17 15  2  0  0  0  0
 17 19  1  0  0  0  0
 18 17  1  0  0  0  0
 19 10  2  0  0  0  0
 20 19  1  0  0  0  0
M  END
