11
q = -1.0

 35 40  0  0  1  0  0  0  0  0999 V2000
    0.5125   -0.6538    2.3259 N   0  0  0  0  0  0  0  0  0  0  0  0
   -1.4270   -1.9199    0.4792 C   0  0  2  0  0  0  0  0  0  0  0  0
   -2.5205   -0.8183    0.2294 C   0  0  1  0  0  0  0  0  0  0  0  0
   -3.0570   -0.4507    1.1155 H   0  0  0  0  0  0  0  0  0  0  0  0
   -1.2195   -2.4216    1.9128 C   0  0  0  0  0  0  0  0  0  0  0  0
   -2.0413   -2.0291    2.5445 H   0  0  0  0  0  0  0  0  0  0  0  0
   -1.3199   -3.5244    1.9437 H   0  0  0  0  0  0  0  0  0  0  0  0
    0.1292   -2.0682    2.5225 C   0  0  0  0  0  0  0  0  0  0  0  0
    0.1222   -2.3027    3.6136 H   0  0  0  0  0  0  0  0  0  0  0  0
    0.9296   -2.6792    2.0575 H   0  0  0  0  0  0  0  0  0  0  0  0
   -0.5324    0.3715    2.5138 C   0  0  0  0  0  3  0  0  0  0  0  0
   -0.1361    1.2316    3.0872 H   0  0  0  0  0  0  0  0  0  0  0  0
   -1.4524   -0.0124    2.9909 H   0  0  0  0  0  0  0  0  0  0  0  0
    1.7921   -0.3718    2.9896 C   0  0  0  0  0  0  0  0  0  0  0  0
    1.6925   -0.5069    4.0906 H   0  0  0  0  0  0  0  0  0  0  0  0
    2.1081    0.6671    2.7848 H   0  0  0  0  0  0  0  0  0  0  0  0
    2.5735   -1.0528    2.6055 H   0  0  0  0  0  0  0  0  0  0  0  0
   -2.1696    0.1269   -1.0758 B   0  0  1  0  0  0  0  0  0  0  0  0
   -2.5766    1.2707   -1.1322 H   0  0  0  0  0  0  0  0  0  0  0  0
   -0.7080   -0.5485   -1.7969 B   0  0  1  0  0  0  0  0  0  0  0  0
    0.1409    0.1689   -2.3171 H   0  0  0  0  0  0  0  0  0  0  0  0
   -0.2448   -1.8551   -0.7044 B   0  0  2  0  0  0  0  0  0  0  0  0
    0.9054   -2.0945   -0.3621 H   0  0  0  0  0  0  0  0  0  0  0  0
   -2.9606   -2.4314   -0.1373 B   0  0  1  0  0  0  0  0  0  0  0  0
   -3.6940   -3.0356    0.6077 H   0  0  0  0  0  0  0  0  0  0  0  0
   -3.4485   -1.1027   -1.1814 B   0  0  2  0  0  0  0  0  0  0  0  0
   -4.6162   -0.7897   -1.1973 H   0  0  0  0  0  0  0  0  0  0  0  0
   -2.2699   -0.9558   -2.5035 B   0  0  2  0  0  0  0  0  0  0  0  0
   -2.6082   -0.5545   -3.5957 H   0  0  0  0  0  0  0  0  0  0  0  0
   -1.0196   -2.2274   -2.2635 B   0  0  0  0  0  0  0  0  0  0  0  0
   -0.4224   -2.7762   -3.1634 H   0  0  0  0  0  0  0  0  0  0  0  0
   -1.4501   -3.1192   -0.7755 B   0  0  2  0  0  0  0  0  0  0  0  0
   -1.1788   -4.2588   -0.4735 H   0  0  0  0  0  0  0  0  0  0  0  0
   -2.7326   -2.5797   -1.8912 B   0  0  1  0  0  0  0  0  0  0  0  0
   -3.4055   -3.3711   -2.5109 H   0  0  0  0  0  0  0  0  0  0  0  0
  1 11  1  0  0  0  0
  1  8  1  0  0  0  0
  1 14  1  0  0  0  0
  2  5  1  1  0  0  0
  3  2  1  0  0  0  0
  3  4  1  1  0  0  0
  5  7  1  0  0  0  0
  5  8  1  0  0  0  0
  5  6  1  0  0  0  0
  8  9  1  0  0  0  0
 10  8  1  0  0  0  0
 11 13  1  0  0  0  0
 11 12  1  0  0  0  0
 14 15  1  0  0  0  0
 16 14  1  0  0  0  0
 17 14  1  0  0  0  0
 18 19  1  6  0  0  0
 18  3  1  0  0  0  0
 20 21  1  6  0  0  0
 20 18  1  0  0  0  0
 20 22  1  0  0  0  0
 22 23  1  1  0  0  0
 22  2  1  0  0  0  0
 24  3  1  0  0  0  0
 24  2  1  0  0  0  0
 24 25  1  1  0  0  0
 26 27  1  6  0  0  0
 26 18  1  0  0  0  0
 26 24  1  0  0  0  0
 28 29  1  6  0  0  0
 28 34  1  0  0  0  0
 28 20  1  0  0  0  0
 28 26  1  0  0  0  0
 30 34  1  0  0  0  0
 30 32  1  0  0  0  0
 31 30  1  0  0  0  0
 32 22  1  0  0  0  0
 32 33  1  1  0  0  0
 34 35  1  6  0  0  0
 34 32  1  0  0  0  0
M  END
