5
q = -1.0

 27 29  0  0  0  0  0  0  0  0999 V2000
    0.6396   -1.2177   -1.6088 O   0  0  0  0  0  0  0  0  0  0  0  0
    1.8484   -1.8829   -1.3673 N   0  0  0  0  0  0  0  0  0  0  0  0
    2.6444   -0.9638   -0.8314 C   0  0  0  0  0  0  0  0  0  0  0  0
    1.9858    0.3159   -0.7278 C   0  0  0  0  0  0  0  0  0  0  0  0
    0.6949    0.0960   -1.2111 C   0  0  0  0  0  3  0  0  0  0  0  0
    4.0107   -1.3492   -0.4258 C   0  0  0  0  0  0  0  0  0  0  0  0
    5.1006   -0.4612   -0.5558 C   0  0  0  0  0  0  0  0  0  0  0  0
    6.3881   -0.8572   -0.1674 C   0  0  0  0  0  0  0  0  0  0  0  0
    6.6080   -2.1423    0.3540 C   0  0  0  0  0  0  0  0  0  0  0  0
    5.5304   -3.0350    0.4793 C   0  0  0  0  0  0  0  0  0  0  0  0
    4.2421   -2.6426    0.0940 C   0  0  0  0  0  0  0  0  0  0  0  0
    2.5415    1.5720   -0.1961 C   0  0  0  0  0  0  0  0  0  0  0  0
    3.1736    1.6157    1.0677 C   0  0  0  0  0  0  0  0  0  0  0  0
    3.6838    2.8188    1.5731 C   0  0  0  0  0  0  0  0  0  0  0  0
    3.5724    4.0048    0.8286 C   0  0  0  0  0  0  0  0  0  0  0  0
    2.9561    3.9742   -0.4323 C   0  0  0  0  0  0  0  0  0  0  0  0
    2.4529    2.7692   -0.9411 C   0  0  0  0  0  0  0  0  0  0  0  0
    4.9359    0.5427   -0.9720 H   0  0  0  0  0  0  0  0  0  0  0  0
    7.2288   -0.1549   -0.2763 H   0  0  0  0  0  0  0  0  0  0  0  0
    7.6195   -2.4487    0.6618 H   0  0  0  0  0  0  0  0  0  0  0  0
    5.6958   -4.0450    0.8850 H   0  0  0  0  0  0  0  0  0  0  0  0
    3.3874   -3.3274    0.1911 H   0  0  0  0  0  0  0  0  0  0  0  0
    3.2552    0.6891    1.6535 H   0  0  0  0  0  0  0  0  0  0  0  0
    4.1692    2.8327    2.5613 H   0  0  0  0  0  0  0  0  0  0  0  0
    3.9689    4.9502    1.2291 H   0  0  0  0  0  0  0  0  0  0  0  0
    2.8712    4.8971   -1.0267 H   0  0  0  0  0  0  0  0  0  0  0  0
    1.9778    2.7375   -1.9325 H   0  0  0  0  0  0  0  0  0  0  0  0
  1  2  1  0  0  0  0
  1  5  1  0  0  0  0
  2  3  2  0  0  0  0
  3  4  1  0  0  0  0
  3  6  1  0  0  0  0
  4 12  1  0  0  0  0
  5  4  2  0  0  0  0
  6 11  1  0  0  0  0
  7  6  2  0  0  0  0
  7  8  1  0  0  0  0
  8  9  2  0  0  0  0
  9 10  1  0  0  0  0
  9 20  1  0  0  0  0
 10 21  1  0  0  0  0
 11 22  1  0  0  0  0
 11 10  2  0  0  0  0
 12 13  1  0  0  0  0
 13 14  2  0  0  0  0
 13 23  1  0  0  0  0
 14 24  1  0  0  0  0
 15 25  1  0  0  0  0
 15 14  1  0  0  0  0
 16 15  2  0  0  0  0
 17 16  1  0  0  0  0
 17 12  2  0  0  0  0
 18  7  1  0  0  0  0
 19  8  1  0  0  0  0
 26 16  1  0  0  0  0
 27 17  1  0  0  0  0
M  END
