3
q = -1.0

 36 37  0  0  1  0  0  0  0  0999 V2000
   -5.9715   -0.7249    0.0497 O   0  0  0  0  0  0  0  0  0  0  0  0
   -0.5266    0.8864    0.2696 C   0  0  2  0  0  3  0  0  0  0  0  0
    0.3002    0.9068    1.4614 C   0  0  1  0  0  3  0  0  0  0  0  0
    1.5578    1.5306    1.1301 C   0  0  1  0  0  3  0  0  0  0  0  0
    1.5126    1.9039   -0.2762 C   0  0  0  0  0  0  0  0  0  0  0  0
    0.2329    1.5113   -0.8029 C   0  0  0  0  0  0  0  0  0  0  0  0
   -1.9452    0.4599    0.1928 C   0  0  0  0  0  0  0  0  0  0  0  0
   -2.3532   -0.8751    0.4242 C   0  0  0  0  0  0  0  0  0  0  0  0
   -1.5866   -1.6396    0.6217 H   0  0  0  0  0  0  0  0  0  0  0  0
   -3.6989   -1.2382    0.3771 C   0  0  0  0  0  0  0  0  0  0  0  0
   -4.0167   -2.2765    0.5493 H   0  0  0  0  0  0  0  0  0  0  0  0
   -4.6885   -0.2745    0.0819 C   0  0  0  0  0  0  0  0  0  0  0  0
   -4.3010    1.0589   -0.1623 C   0  0  0  0  0  0  0  0  0  0  0  0
   -5.0453    1.8315   -0.3965 H   0  0  0  0  0  0  0  0  0  0  0  0
   -2.9433    1.4099   -0.1005 C   0  0  0  0  0  0  0  0  0  0  0  0
   -2.6543    2.4572   -0.2779 H   0  0  0  0  0  0  0  0  0  0  0  0
   -7.0007    0.1960   -0.2562 C   0  0  0  0  0  0  0  0  0  0  0  0
   -7.0567    1.0202    0.4904 H   0  0  0  0  0  0  0  0  0  0  0  0
   -7.9482   -0.3734   -0.2330 H   0  0  0  0  0  0  0  0  0  0  0  0
   -6.8720    0.6418   -1.2683 H   0  0  0  0  0  0  0  0  0  0  0  0
   -0.1348    0.4780    2.8310 C   0  0  0  0  0  0  0  0  0  0  0  0
   -0.5189    1.3524    3.3981 H   0  0  0  0  0  0  0  0  0  0  0  0
    0.6999    0.0408    3.4113 H   0  0  0  0  0  0  0  0  0  0  0  0
   -0.9482   -0.2689    2.7798 H   0  0  0  0  0  0  0  0  0  0  0  0
    2.6586    1.8695    2.0912 C   0  0  0  0  0  0  0  0  0  0  0  0
    2.5210    2.8924    2.5049 H   0  0  0  0  0  0  0  0  0  0  0  0
    3.6517    1.8395    1.6033 H   0  0  0  0  0  0  0  0  0  0  0  0
    2.6836    1.1651    2.9440 H   0  0  0  0  0  0  0  0  0  0  0  0
    2.5751    2.6707   -1.0065 C   0  0  0  0  0  0  0  0  0  0  0  0
    2.5183    2.5037   -2.0987 H   0  0  0  0  0  0  0  0  0  0  0  0
    3.5913    2.3827   -0.6752 H   0  0  0  0  0  0  0  0  0  0  0  0
    2.4623    3.7617   -0.8267 H   0  0  0  0  0  0  0  0  0  0  0  0
   -0.2787    1.7699   -2.1893 C   0  0  0  0  0  0  0  0  0  0  0  0
   -1.0486    1.0277   -2.4728 H   0  0  0  0  0  0  0  0  0  0  0  0
    0.5343    1.7305   -2.9391 H   0  0  0  0  0  0  0  0  0  0  0  0
   -0.7452    2.7760   -2.2532 H   0  0  0  0  0  0  0  0  0  0  0  0
  1 12  1  0  0  0  0
  2  7  1  1  0  0  0
  2  3  1  0  0  0  0
  3 21  1  1  0  0  0
  4  3  1  0  0  0  0
  4 25  1  1  0  0  0
  5  4  1  0  0  0  0
  6  5  2  0  0  0  0
  6  2  1  0  0  0  0
  7  8  1  0  0  0  0
  8  9  1  0  0  0  0
 10  8  2  0  0  0  0
 10 11  1  0  0  0  0
 12 10  1  0  0  0  0
 13 15  1  0  0  0  0
 13 12  2  0  0  0  0
 14 13  1  0  0  0  0
 15  7  2  0  0  0  0
 16 15  1  0  0  0  0
 17 19  1  0  0  0  0
 17  1  1  0  0  0  0
 17 18  1  0  0  0  0
 20 17  1  0  0  0  0
 21 22  1  0  0  0  0
 21 23  1  0  0  0  0
 24 21  1  0  0  0  0
 25 26  1  0  0  0  0
 25 28  1  0  0  0  0
 27 25  1  0  0  0  0
 29 32  1  0  0  0  0
 29 31  1  0  0  0  0
 29  5  1  0  0  0  0
 30 29  1  0  0  0  0
 33  6  1  0  0  0  0
 34 33  1  0  0  0  0
 35 33  1  0  0  0  0
 36 33  1  0  0  0  0
M  END
