6
q = -1.0, confidence = 0.0

 32 33  0  0  1  0  0  0  0  0999 V2000
    6.3923   -0.3917   -0.0681 Cl  0  0  0  0  0  0  0  0  0  0  0  0
    0.5019    0.9469    0.2356 C   0  0  2  0  0  3  0  0  0  0  0  0
   -0.2954    1.5225   -0.8366 C   0  0  0  0  0  0  0  0  0  0  0  0
   -1.5840    1.8672   -0.2991 C   0  0  0  0  0  0  0  0  0  0  0  0
   -1.5949    1.5165    1.1140 C   0  0  1  0  0  3  0  0  0  0  0  0
   -0.3087    0.9521    1.4395 C   0  0  2  0  0  3  0  0  0  0  0  0
    1.9381    0.5856    0.1489 C   0  0  0  0  0  0  0  0  0  0  0  0
    2.4055   -0.7234    0.3957 C   0  0  0  0  0  0  0  0  0  0  0  0
    1.6764   -1.5184    0.6126 H   0  0  0  0  0  0  0  0  0  0  0  0
    3.7709   -1.0288    0.3395 C   0  0  0  0  0  0  0  0  0  0  0  0
    4.1270   -2.0512    0.5277 H   0  0  0  0  0  0  0  0  0  0  0  0
    4.6908   -0.0175    0.0175 C   0  0  0  0  0  0  0  0  0  0  0  0
    4.2533    1.2909   -0.2437 C   0  0  0  0  0  0  0  0  0  0  0  0
    4.9854    2.0707   -0.4961 H   0  0  0  0  0  0  0  0  0  0  0  0
    2.8851    1.5830   -0.1719 C   0  0  0  0  0  0  0  0  0  0  0  0
    2.5434    2.6118   -0.3610 H   0  0  0  0  0  0  0  0  0  0  0  0
    0.1870    1.7805   -2.2336 C   0  0  0  0  0  0  0  0  0  0  0  0
    0.6073    2.8051   -2.3198 H   0  0  0  0  0  0  0  0  0  0  0  0
   -0.6329    1.6933   -2.9715 H   0  0  0  0  0  0  0  0  0  0  0  0
    0.9844    1.0683   -2.5181 H   0  0  0  0  0  0  0  0  0  0  0  0
   -2.6881    2.5745   -1.0274 C   0  0  0  0  0  0  0  0  0  0  0  0
   -2.6222    3.6718   -0.8636 H   0  0  0  0  0  0  0  0  0  0  0  0
   -3.6865    2.2461   -0.6801 H   0  0  0  0  0  0  0  0  0  0  0  0
   -2.6361    2.3952   -2.1179 H   0  0  0  0  0  0  0  0  0  0  0  0
   -2.6973    1.8242    2.0835 C   0  0  0  0  0  0  0  0  0  0  0  0
   -2.6827    1.1334    2.9476 H   0  0  0  0  0  0  0  0  0  0  0  0
   -3.6939    1.7450    1.6084 H   0  0  0  0  0  0  0  0  0  0  0  0
   -2.5976    2.8585    2.4789 H   0  0  0  0  0  0  0  0  0  0  0  0
    0.1613    0.5672    2.8106 C   0  0  0  0  0  0  0  0  0  0  0  0
    0.5170    1.4667    3.3564 H   0  0  0  0  0  0  0  0  0  0  0  0
    1.0025   -0.1484    2.7640 H   0  0  0  0  0  0  0  0  0  0  0  0
   -0.6482    0.1086    3.4097 H   0  0  0  0  0  0  0  0  0  0  0  0
  1 12  1  0  0  0  0
  2  7  1  1  0  0  0
  2  6  1  0  0  0  0
  3  4  2  0  0  0  0
  3  2  1  0  0  0  0
  4  5  1  0  0  0  0
  5  6  1  0  0  0  0
  5 25  1  1  0  0  0
  6 29  1  1  0  0  0
  7  8  1  0  0  0  0
  8  9  1  0  0  0  0
 10  8  2  0  0  0  0
 10 11  1  0  0  0  0
 12 10  1  0  0  0  0
 13 15  1  0  0  0  0
 13 12  2  0  0  0  0
 14 13  1  0  0  0  0
 15  7  2  0  0  0  0
 16 15  1  0  0  0  0
 17  3  1  0  0  0  0
 18 17  1  0  0  0  0
 19 17  1  0  0  0  0
 20 17  1  0  0  0  0
 21 22  1  0  0  0  0
 21 23  1  0  0  0  0
 21  4  1  0  0  0  0
 24 21  1  0  0  0  0
 25 28  1  0  0  0  0
 25 26  1  0  0  0  0
 27 25  1  0  0  0  0
 29 30  1  0  0  0  0
 29 32  1  0  0  0  0
 31 29  1  0  0  0  0
M  END
