2
q = -1.0

 18 18  0  0  0  0  0  0  0  0999 V2000
    1.6819   -1.9215    0.8718 S   0  0  0  0  0  0  0  0  0  0  0  0
    1.1314   -1.6523   -0.8303 C   0  0  0  0  0  3  0  0  0  0  0  0
    3.5165   -2.1076    0.6818 C   0  0  0  0  0  0  0  0  0  0  0  0
    4.2328   -0.8590    0.2506 C   0  0  0  0  0  0  0  0  0  0  0  0
    4.4744   -0.6024   -1.1153 C   0  0  0  0  0  0  0  0  0  0  0  0
    5.1537    0.5568   -1.5205 C   0  0  0  0  0  0  0  0  0  0  0  0
    5.6099    1.4765   -0.5646 C   0  0  0  0  0  0  0  0  0  0  0  0
    5.3651    1.2382    0.7979 C   0  0  0  0  0  0  0  0  0  0  0  0
    4.6752    0.0870    1.1988 C   0  0  0  0  0  0  0  0  0  0  0  0
    1.5883   -0.7140   -1.2063 H   0  0  0  0  0  0  0  0  0  0  0  0
    1.4913   -2.4941   -1.4617 H   0  0  0  0  0  0  0  0  0  0  0  0
    3.8622   -2.4431    1.6805 H   0  0  0  0  0  0  0  0  0  0  0  0
    3.6922   -2.9352   -0.0365 H   0  0  0  0  0  0  0  0  0  0  0  0
    4.1370   -1.3330   -1.8669 H   0  0  0  0  0  0  0  0  0  0  0  0
    5.3367    0.7364   -2.5912 H   0  0  0  0  0  0  0  0  0  0  0  0
    6.1542    2.3798   -0.8802 H   0  0  0  0  0  0  0  0  0  0  0  0
    5.7149    1.9573    1.5547 H   0  0  0  0  0  0  0  0  0  0  0  0
    4.4786   -0.0928    2.2678 H   0  0  0  0  0  0  0  0  0  0  0  0
  2  1  1  0  0  0  0
  3  1  1  0  0  0  0
  3 12  1  0  0  0  0
  4  3  1  0  0  0  0
  4  9  1  0  0  0  0
  5  4  2  0  0  0  0
  6  5  1  0  0  0  0
  6  7  2  0  0  0  0
  7  8  1  0  0  0  0
  8  9  2  0  0  0  0
  8 17  1  0  0  0  0
  9 18  1  0  0  0  0
 10  2  1  0  0  0  0
 11  2  1  0  0  0  0
 13  3  1  0  0  0  0
 14  5  1  0  0  0  0
 15  6  1  0  0  0  0
 16  7  1  0  0  0  0
M  END
