53
q = 0.0, confidence = 0.942

 62 62  0  0  1  0  0  0  0  0999 V2000
    4.4404   -1.0820   -1.0276 O   0  0  0  0  0  0  0  0  0  0  0  0
    3.5342   -0.6732    1.0280 O   0  0  0  0  0  0  0  0  0  0  0  0
    5.7600   -1.1011   -0.5428 C   0  0  2  0  0  3  0  0  0  0  0  0
    3.3997   -0.8322   -0.1669 C   0  0  0  0  0  0  0  0  0  0  0  0
    2.1013   -0.7448   -0.9362 C   0  0  0  0  0  0  0  0  0  0  0  0
    2.0775   -1.5661   -1.6835 H   0  0  0  0  0  0  0  0  0  0  0  0
    2.1587    0.1909   -1.5374 H   0  0  0  0  0  0  0  0  0  0  0  0
    0.8648   -0.7416   -0.0411 C   0  0  0  0  0  0  0  0  0  0  0  0
    0.9731    0.0638    0.7157 H   0  0  0  0  0  0  0  0  0  0  0  0
    0.8313   -1.6881    0.5410 H   0  0  0  0  0  0  0  0  0  0  0  0
   -0.4407   -0.5632   -0.8185 C   0  0  0  0  0  0  0  0  0  0  0  0
   -0.5352   -1.3709   -1.5797 H   0  0  0  0  0  0  0  0  0  0  0  0
   -0.3988    0.3872   -1.3978 H   0  0  0  0  0  0  0  0  0  0  0  0
   -1.6854   -0.5589    0.0725 C   0  0  0  0  0  0  0  0  0  0  0  0
   -1.5877    0.2475    0.8339 H   0  0  0  0  0  0  0  0  0  0  0  0
   -1.7259   -1.5095    0.6511 H   0  0  0  0  0  0  0  0  0  0  0  0
   -2.9975   -0.3765   -0.6945 C   0  0  0  0  0  0  0  0  0  0  0  0
   -2.9567    0.5745   -1.2727 H   0  0  0  0  0  0  0  0  0  0  0  0
   -3.0940   -1.1831   -1.4565 H   0  0  0  0  0  0  0  0  0  0  0  0
   -4.2409   -0.3728    0.1984 C   0  0  0  0  0  0  0  0  0  0  0  0
   -4.2807   -1.3234    0.7773 H   0  0  0  0  0  0  0  0  0  0  0  0
   -4.1439    0.4339    0.9600 H   0  0  0  0  0  0  0  0  0  0  0  0
   -5.5546   -0.1911   -0.5662 C   0  0  0  0  0  0  0  0  0  0  0  0
   -5.5150    0.7596   -1.1450 H   0  0  0  0  0  0  0  0  0  0  0  0
   -5.6517   -0.9980   -1.3278 H   0  0  0  0  0  0  0  0  0  0  0  0
   -6.7973   -0.1874    0.3278 C   0  0  0  0  0  0  0  0  0  0  0  0
   -6.7001    0.6197    1.0891 H   0  0  0  0  0  0  0  0  0  0  0  0
   -6.8361   -1.1378    0.9072 H   0  0  0  0  0  0  0  0  0  0  0  0
   -8.1118   -0.0067   -0.4355 C   0  0  0  0  0  0  0  0  0  0  0  0
   -8.0731    0.9437   -1.0149 H   0  0  0  0  0  0  0  0  0  0  0  0
   -8.2092   -0.8140   -1.1967 H   0  0  0  0  0  0  0  0  0  0  0  0
   -9.3539   -0.0032    0.4593 C   0  0  0  0  0  0  0  0  0  0  0  0
   -9.3921   -0.9534    1.0392 H   0  0  0  0  0  0  0  0  0  0  0  0
   -9.2566    0.8043    1.2202 H   0  0  0  0  0  0  0  0  0  0  0  0
  -10.6690    0.1767   -0.3034 C   0  0  0  0  0  0  0  0  0  0  0  0
  -10.6308    1.1269   -0.8832 H   0  0  0  0  0  0  0  0  0  0  0  0
  -10.7662   -0.6309   -1.0642 H   0  0  0  0  0  0  0  0  0  0  0  0
  -11.9107    0.1801    0.5919 C   0  0  0  0  0  0  0  0  0  0  0  0
  -11.8132    0.9879    1.3525 H   0  0  0  0  0  0  0  0  0  0  0  0
  -11.9481   -0.7700    1.1720 H   0  0  0  0  0  0  0  0  0  0  0  0
  -13.2262    0.3593   -0.1700 C   0  0  0  0  0  0  0  0  0  0  0  0
  -13.1890    1.3095   -0.7503 H   0  0  0  0  0  0  0  0  0  0  0  0
  -13.3239   -0.4486   -0.9308 H   0  0  0  0  0  0  0  0  0  0  0  0
  -14.4688    0.3627    0.7255 C   0  0  0  0  0  0  0  0  0  0  0  0
  -14.3675    1.1701    1.4848 H   0  0  0  0  0  0  0  0  0  0  0  0
  -14.5021   -0.5871    1.3047 H   0  0  0  0  0  0  0  0  0  0  0  0
  -15.7772    0.5419   -0.0454 C   0  0  0  0  0  0  0  0  0  0  0  0
  -15.7870    1.5007   -0.6052 H   0  0  0  0  0  0  0  0  0  0  0  0
  -16.6572    0.5403    0.6290 H   0  0  0  0  0  0  0  0  0  0  0  0
  -15.9228   -0.2716   -0.7868 H   0  0  0  0  0  0  0  0  0  0  0  0
    6.7109   -0.6618   -1.5311 C   0  0  0  0  0  3  0  0  0  0  0  0
    6.4072   -0.3965   -2.5542 H   0  0  0  0  0  0  0  0  0  0  0  0
    8.0325   -0.4967   -1.0322 C   0  0  0  0  0  3  0  0  0  0  0  0
    8.8321   -0.0684   -1.6552 H   0  0  0  0  0  0  0  0  0  0  0  0
    8.1879   -0.8069    0.3638 C   0  0  0  0  0  3  0  0  0  0  0  0
    9.1392   -0.5063    0.8326 H   0  0  0  0  0  0  0  0  0  0  0  0
    7.5340   -2.0460    0.9496 C   0  0  0  0  0  0  0  0  0  0  0  0
    7.5240   -1.9639    2.0547 H   0  0  0  0  0  0  0  0  0  0  0  0
    8.1632   -2.9339    0.7147 H   0  0  0  0  0  0  0  0  0  0  0  0
    6.1005   -2.2300    0.4127 C   0  0  0  0  0  0  0  0  0  0  0  0
    5.9840   -3.1952   -0.1290 H   0  0  0  0  0  0  0  0  0  0  0  0
    5.3629   -2.2281    1.2365 H   0  0  0  0  0  0  0  0  0  0  0  0
  1  4  1  0  0  0  0
  3  1  1  6  0  0  0
  3 60  1  0  0  0  0
  4  2  2  0  0  0  0
  5  4  1  0  0  0  0
  5  8  1  0  0  0  0
  6  5  1  0  0  0  0
  7  5  1  0  0  0  0
  8 10  1  0  0  0  0
  8  9  1  0  0  0  0
 11  8  1  0  0  0  0
 11 14  1  0  0  0  0
 12 11  1  0  0  0  0
 13 11  1  0  0  0  0
 14 16  1  0  0  0  0
 14 15  1  0  0  0  0
 17 14  1  0  0  0  0
 17 20  1  0  0  0  0
 18 17  1  0  0  0  0
 19 17  1  0  0  0  0
 20 21  1  0  0  0  0
 20 22  1  0  0  0  0
 23 20  1  0  0  0  0
 23 26  1  0  0  0  0
 24 23  1  0  0  0  0
 25 23  1  0  0  0  0
 26 28  1  0  0  0  0
 26 27  1  0  0  0  0
 29 26  1  0  0  0  0
 29 32  1  0  0  0  0
 30 29  1  0  0  0  0
 31 29  1  0  0  0  0
 32 33  1  0  0  0  0
 32 34  1  0  0  0  0
 35 32  1  0  0  0  0
 35 38  1  0  0  0  0
 36 35  1  0  0  0  0
 37 35  1  0  0  0  0
 38 40  1  0  0  0  0
 38 39  1  0  0  0  0
 41 38  1  0  0  0  0
 41 44  1  0  0  0  0
 42 41  1  0  0  0  0
 43 41  1  0  0  0  0
 44 46  1  0  0  0  0
 44 45  1  0  0  0  0
 47 49  1  0  0  0  0
 47 44  1  0  0  0  0
 48 47  1  0  0  0  0
 50 47  1  0  0  0  0
 51 53  1  0  0  0  0
 51  3  1  0  0  0  0
 52 51  1  0  0  0  0
 53 55  1  0  0  0  0
 54 53  1  0  0  0  0
 55 56  1  0  0  0  0
 55 57  1  0  0  0  0
 57 58  1  0  0  0  0
 59 57  1  0  0  0  0
 60 57  1  0  0  0  0
 60 62  1  0  0  0  0
 61 60  1  0  0  0  0
M  END
