2
q = -1.0

 20 19  0  0  0  0  0  0  0  0999 V2000
    0.0757    1.9267   -1.4109 C   0  0  0  0  0  0  0  0  0  0  0  0
    1.1568    1.1012   -0.7574 C   0  0  0  0  0  3  0  0  0  0  0  0
    2.4840    1.3463   -0.8943 C   0  0  0  0  0  0  0  0  0  0  0  0
    3.0341    2.4611   -1.7541 C   0  0  0  0  0  0  0  0  0  0  0  0
    3.5199    0.4936   -0.1961 C   0  0  0  0  0  0  0  0  0  0  0  0
    4.5360   -0.1902   -1.1300 C   0  0  0  0  0  0  0  0  0  0  0  0
    5.4946   -1.1165   -0.3827 C   0  0  0  0  0  0  0  0  0  0  0  0
   -0.9369    1.8040   -0.9248 H   0  0  0  0  0  0  0  0  0  0  0  0
    0.2421    3.0199   -1.3051 H   0  0  0  0  0  0  0  0  0  0  0  0
   -0.0801    1.7014   -2.4876 H   0  0  0  0  0  0  0  0  0  0  0  0
    3.8937    2.9600   -1.2594 H   0  0  0  0  0  0  0  0  0  0  0  0
    3.4186    2.0692   -2.7209 H   0  0  0  0  0  0  0  0  0  0  0  0
    2.2795    3.2338   -1.9966 H   0  0  0  0  0  0  0  0  0  0  0  0
    3.0067   -0.2781    0.4126 H   0  0  0  0  0  0  0  0  0  0  0  0
    4.0874    1.1302    0.5234 H   0  0  0  0  0  0  0  0  0  0  0  0
    5.1148    0.5819   -1.6793 H   0  0  0  0  0  0  0  0  0  0  0  0
    3.9897   -0.7618   -1.9142 H   0  0  0  0  0  0  0  0  0  0  0  0
    6.2264   -1.5856   -1.0694 H   0  0  0  0  0  0  0  0  0  0  0  0
    6.0681   -0.5638    0.3899 H   0  0  0  0  0  0  0  0  0  0  0  0
    4.9500   -1.9354    0.1328 H   0  0  0  0  0  0  0  0  0  0  0  0
  1  9  1  0  0  0  0
  1  8  1  0  0  0  0
  1  2  1  0  0  0  0
  3  2  2  0  0  0  0
  3  5  1  0  0  0  0
  4 11  1  0  0  0  0
  4  3  1  0  0  0  0
  5 14  1  0  0  0  0
  5 15  1  0  0  0  0
  6  7  1  0  0  0  0
  6  5  1  0  0  0  0
  7 20  1  0  0  0  0
  7 19  1  0  0  0  0
 10  1  1  0  0  0  0
 12  4  1  0  0  0  0
 13  4  1  0  0  0  0
 16  6  1  0  0  0  0
 17  6  1  0  0  0  0
 18  7  1  0  0  0  0
M  END
