4
q = -1.0

 27 28  0  0  0  0  0  0  0  0999 V2000
  -12.1272   -1.7470   -0.2551 O   0  0  0  0  0  0  0  0  0  0  0  0
  -12.5181    0.3537    0.2155 O   0  0  0  0  0  0  0  0  0  0  0  0
  -11.7622   -0.5926   -0.0183 N   0  0  0  0  0  0  0  0  0  0  0  0
    1.8996    1.7625   -0.0317 C   0  0  0  0  0  3  0  0  0  0  0  0
    0.6589    1.6640    0.0120 C   0  0  0  0  0  0  0  0  0  0  0  0
   -0.7394    1.4365    0.0160 C   0  0  0  0  0  0  0  0  0  0  0  0
   -1.2488    0.1302   -0.2462 C   0  0  0  0  0  0  0  0  0  0  0  0
   -2.6172   -0.1189   -0.2512 C   0  0  0  0  0  0  0  0  0  0  0  0
   -3.5512    0.9240    0.0060 C   0  0  0  0  0  0  0  0  0  0  0  0
   -3.0466    2.2285    0.2671 C   0  0  0  0  0  0  0  0  0  0  0  0
   -1.6771    2.4772    0.2716 C   0  0  0  0  0  0  0  0  0  0  0  0
   -7.5531    0.1875   -0.0066 C   0  0  0  0  0  0  0  0  0  0  0  0
   -8.0500   -1.1209   -0.2716 C   0  0  0  0  0  0  0  0  0  0  0  0
   -9.4203   -1.3761   -0.2758 C   0  0  0  0  0  0  0  0  0  0  0  0
  -10.3120   -0.3237   -0.0144 C   0  0  0  0  0  0  0  0  0  0  0  0
   -9.8579    0.9781    0.2506 C   0  0  0  0  0  0  0  0  0  0  0  0
   -8.4871    1.2308    0.2542 C   0  0  0  0  0  0  0  0  0  0  0  0
   -4.9449    0.6694    0.0015 C   0  0  0  0  0  0  0  0  0  0  0  0
   -6.1600    0.4451   -0.0025 C   0  0  0  0  0  0  0  0  0  0  0  0
   -0.5373   -0.6825   -0.4504 H   0  0  0  0  0  0  0  0  0  0  0  0
   -2.9935   -1.1317   -0.4571 H   0  0  0  0  0  0  0  0  0  0  0  0
   -3.7580    3.0431    0.4669 H   0  0  0  0  0  0  0  0  0  0  0  0
   -1.3001    3.4901    0.4746 H   0  0  0  0  0  0  0  0  0  0  0  0
   -7.3352   -1.9310   -0.4737 H   0  0  0  0  0  0  0  0  0  0  0  0
   -9.8276   -2.3757   -0.4772 H   0  0  0  0  0  0  0  0  0  0  0  0
  -10.5972    1.7654    0.4489 H   0  0  0  0  0  0  0  0  0  0  0  0
   -8.1111    2.2430    0.4594 H   0  0  0  0  0  0  0  0  0  0  0  0
  1  3  2  0  0  0  0
  3 15  1  0  0  0  0
  3  2  2  0  0  0  0
  4  5  3  0  0  0  0
  5  6  1  0  0  0  0
  6 11  1  0  0  0  0
  7  6  2  0  0  0  0
  8  7  1  0  0  0  0
  8  9  2  0  0  0  0
  9 10  1  0  0  0  0
 10 11  2  0  0  0  0
 10 22  1  0  0  0  0
 11 23  1  0  0  0  0
 12 19  1  0  0  0  0
 12 17  1  0  0  0  0
 13 12  2  0  0  0  0
 14 13  1  0  0  0  0
 14 15  2  0  0  0  0
 15 16  1  0  0  0  0
 16 17  2  0  0  0  0
 16 26  1  0  0  0  0
 17 27  1  0  0  0  0
 18  9  1  0  0  0  0
 19 18  3  0  0  0  0
 20  7  1  0  0  0  0
 21  8  1  0  0  0  0
 24 13  1  0  0  0  0
 25 14  1  0  0  0  0
M  END
