4
q = -1.0

 29 30  0  0  0  0  0  0  0  0999 V2000
  -11.8937   -1.7149    0.2148 O   0  0  0  0  0  0  0  0  0  0  0  0
  -12.1348    0.4200   -0.1996 O   0  0  0  0  0  0  0  0  0  0  0  0
  -11.4467   -0.5821    0.0145 N   0  0  0  0  0  0  0  0  0  0  0  0
    1.9486    1.8279    0.0340 C   0  0  0  0  0  3  0  0  0  0  0  0
    0.7048    1.8019   -0.0252 C   0  0  0  0  0  0  0  0  0  0  0  0
   -0.7039    1.6549   -0.0486 C   0  0  0  0  0  0  0  0  0  0  0  0
   -1.2904    0.3730    0.1802 C   0  0  0  0  0  0  0  0  0  0  0  0
   -2.6693    0.2007    0.1671 C   0  0  0  0  0  0  0  0  0  0  0  0
   -3.5503    1.2905   -0.0745 C   0  0  0  0  0  0  0  0  0  0  0  0
   -2.9626    2.5635   -0.3007 C   0  0  0  0  0  0  0  0  0  0  0  0
   -1.5817    2.7475   -0.2894 C   0  0  0  0  0  0  0  0  0  0  0  0
   -7.1840   -0.0841    0.0643 C   0  0  0  0  0  0  0  0  0  0  0  0
   -7.7820   -1.3552    0.2856 C   0  0  0  0  0  0  0  0  0  0  0  0
   -9.1659   -1.5275    0.2715 C   0  0  0  0  0  0  0  0  0  0  0  0
   -9.9840   -0.4134    0.0320 C   0  0  0  0  0  0  0  0  0  0  0  0
   -9.4352    0.8611   -0.1916 C   0  0  0  0  0  0  0  0  0  0  0  0
   -8.0515    1.0184   -0.1746 C   0  0  0  0  0  0  0  0  0  0  0  0
   -4.9975    1.1633   -0.0994 C   0  0  0  0  0  0  0  0  0  0  0  0
   -5.7330    0.0268    0.0922 C   0  0  0  0  0  0  0  0  0  0  0  0
   -0.6268   -0.4820    0.3733 H   0  0  0  0  0  0  0  0  0  0  0  0
   -3.0799   -0.8036    0.3510 H   0  0  0  0  0  0  0  0  0  0  0  0
   -3.6232    3.4249   -0.4898 H   0  0  0  0  0  0  0  0  0  0  0  0
   -1.1518    3.7439   -0.4671 H   0  0  0  0  0  0  0  0  0  0  0  0
   -7.1300   -2.2227    0.4723 H   0  0  0  0  0  0  0  0  0  0  0  0
   -9.6378   -2.5043    0.4410 H   0  0  0  0  0  0  0  0  0  0  0  0
  -10.1160    1.7030   -0.3746 H   0  0  0  0  0  0  0  0  0  0  0  0
   -7.6296    2.0184   -0.3503 H   0  0  0  0  0  0  0  0  0  0  0  0
   -5.5350    2.1068   -0.2976 H   0  0  0  0  0  0  0  0  0  0  0  0
   -5.2012   -0.9190    0.2896 H   0  0  0  0  0  0  0  0  0  0  0  0
  2  3  2  0  0  0  0
  3 15  1  0  0  0  0
  3  1  2  0  0  0  0
  5  4  3  0  0  0  0
  6  5  1  0  0  0  0
  6  7  1  0  0  0  0
  7 20  1  0  0  0  0
  8  7  2  0  0  0  0
  8 21  1  0  0  0  0
  9  8  1  0  0  0  0
 10 11  1  0  0  0  0
 10  9  2  0  0  0  0
 11  6  2  0  0  0  0
 12 19  1  0  0  0  0
 12 13  1  0  0  0  0
 13 24  1  0  0  0  0
 14 13  2  0  0  0  0
 14 25  1  0  0  0  0
 15 14  1  0  0  0  0
 16 17  1  0  0  0  0
 16 15  2  0  0  0  0
 17 12  2  0  0  0  0
 18  9  1  0  0  0  0
 18 19  2  0  0  0  0
 19 29  1  0  0  0  0
 22 10  1  0  0  0  0
 23 11  1  0  0  0  0
 26 16  1  0  0  0  0
 27 17  1  0  0  0  0
 28 18  1  0  0  0  0
M  END
