5
q = -1.0, confidence = 0.0

 34 34  0  0  0  0  0  0  0  0999 V2000
    2.1230   -1.3107    1.7559 S   0  0  0  0  0  0  0  0  0  0  0  0
    2.1517   -2.7970    1.8028 O   0  0  0  0  0  0  0  0  0  0  0  0
    3.1324   -0.5296    2.5161 O   0  0  0  0  0  0  0  0  0  0  0  0
    0.4376   -0.6462    1.9112 C   0  0  0  0  0  0  0  0  0  0  0  0
    0.3903   -0.2889    0.5859 C   0  0  0  0  0  3  0  0  0  0  0  0
    1.7314   -0.6567    0.0763 C   0  0  0  0  0  0  0  0  0  0  0  0
    2.3906   -0.5098   -1.0885 C   0  0  0  0  0  0  0  0  0  0  0  0
    3.8065   -0.8977   -1.4542 C   0  0  0  0  0  0  0  0  0  0  0  0
    3.7385   -1.8209   -2.6926 C   0  0  0  0  0  0  0  0  0  0  0  0
    4.5350   -1.6152   -0.3084 C   0  0  0  0  0  0  0  0  0  0  0  0
    4.5619    0.4001   -1.8265 C   0  0  0  0  0  0  0  0  0  0  0  0
   -0.3461   -0.5453    3.1864 C   0  0  0  0  0  0  0  0  0  0  0  0
   -1.8390   -0.3068    2.9091 C   0  0  0  0  0  0  0  0  0  0  0  0
    0.2447    0.6389    3.9957 C   0  0  0  0  0  0  0  0  0  0  0  0
   -0.1612   -1.8506    3.9946 C   0  0  0  0  0  0  0  0  0  0  0  0
    1.8184   -0.0148   -1.8949 H   0  0  0  0  0  0  0  0  0  0  0  0
    4.7618   -2.0760   -3.0349 H   0  0  0  0  0  0  0  0  0  0  0  0
    3.2128   -2.7673   -2.4546 H   0  0  0  0  0  0  0  0  0  0  0  0
    3.2114   -1.3334   -3.5390 H   0  0  0  0  0  0  0  0  0  0  0  0
    5.5541   -1.9081   -0.6295 H   0  0  0  0  0  0  0  0  0  0  0  0
    4.6349   -0.9641    0.5818 H   0  0  0  0  0  0  0  0  0  0  0  0
    3.9990   -2.5341    0.0013 H   0  0  0  0  0  0  0  0  0  0  0  0
    5.5982    0.1631   -2.1419 H   0  0  0  0  0  0  0  0  0  0  0  0
    4.0695    0.9332   -2.6665 H   0  0  0  0  0  0  0  0  0  0  0  0
    4.6198    1.0887   -0.9592 H   0  0  0  0  0  0  0  0  0  0  0  0
   -2.3736   -0.0795    3.8528 H   0  0  0  0  0  0  0  0  0  0  0  0
   -1.9903    0.5390    2.2066 H   0  0  0  0  0  0  0  0  0  0  0  0
   -2.3121   -1.2017    2.4621 H   0  0  0  0  0  0  0  0  0  0  0  0
   -0.2342    0.6946    4.9943 H   0  0  0  0  0  0  0  0  0  0  0  0
    1.3366    0.5148    4.1301 H   0  0  0  0  0  0  0  0  0  0  0  0
    0.0663    1.6001    3.4745 H   0  0  0  0  0  0  0  0  0  0  0  0
   -0.7255   -1.7890    4.9463 H   0  0  0  0  0  0  0  0  0  0  0  0
   -0.5219   -2.7331    3.4299 H   0  0  0  0  0  0  0  0  0  0  0  0
    0.9050   -2.0271    4.2387 H   0  0  0  0  0  0  0  0  0  0  0  0
  1  2  2  0  0  0  0
  1  4  1  0  0  0  0
  1  3  2  0  0  0  0
  4 12  1  0  0  0  0
  5  4  2  0  0  0  0
  6  5  1  0  0  0  0
  6  1  1  0  0  0  0
  7  6  2  0  0  0  0
  8  7  1  0  0  0  0
  8 10  1  0  0  0  0
  9 18  1  0  0  0  0
  9  8  1  0  0  0  0
 10 22  1  0  0  0  0
 10 21  1  0  0  0  0
 11  8  1  0  0  0  0
 11 25  1  0  0  0  0
 12 15  1  0  0  0  0
 12 14  1  0  0  0  0
 13 12  1  0  0  0  0
 13 26  1  0  0  0  0
 14 30  1  0  0  0  0
 14 29  1  0  0  0  0
 15 34  1  0  0  0  0
 15 32  1  0  0  0  0
 16  7  1  0  0  0  0
 17  9  1  0  0  0  0
 19  9  1  0  0  0  0
 20 10  1  0  0  0  0
 23 11  1  0  0  0  0
 24 11  1  0  0  0  0
 27 13  1  0  0  0  0
 28 13  1  0  0  0  0
 31 14  1  0  0  0  0
 33 15  1  0  0  0  0
M  END
