9
q = -1.0

 27 28  0  0  1  0  0  0  0  0999 V2000
   -2.8192    0.3609    2.5599 F   0  0  0  0  0  0  0  0  0  0  0  0
   -4.4283    1.3597    1.4993 F   0  0  0  0  0  0  0  0  0  0  0  0
   -4.6642   -0.7218    2.1209 F   0  0  0  0  0  0  0  0  0  0  0  0
   -4.7716    0.9172   -1.0205 F   0  0  0  0  0  0  0  0  0  0  0  0
   -5.2566   -1.1572   -0.5367 F   0  0  0  0  0  0  0  0  0  0  0  0
   -3.7077   -0.6971   -2.0052 F   0  0  0  0  0  0  0  0  0  0  0  0
   -2.7888   -3.6332   -1.2486 N   0  0  0  0  0  0  0  0  0  0  0  0
   -1.7674   -2.5792    2.7602 N   0  0  0  0  0  0  0  0  0  0  0  0
   -1.1001   -0.7020   -0.1795 C   0  0  0  0  0  2  0  0  0  0  0  0
   -1.8908    0.4152   -0.1404 C   0  0  2  0  0  3  0  0  0  0  0  0
   -3.1741   -0.2825    0.2915 C   0  0  0  0  0  0  0  0  0  0  0  0
   -2.2876   -1.6120    0.3644 C   0  0  0  0  0  0  0  0  0  0  0  0
   -2.6293   -2.7288   -0.5214 C   0  0  0  0  0  0  0  0  0  0  0  0
   -2.0397   -2.1489    1.7053 C   0  0  0  0  0  0  0  0  0  0  0  0
   -1.7001    1.8389   -0.4780 C   0  0  0  0  0  0  0  0  0  0  0  0
   -3.7884    0.1793    1.6337 C   0  0  0  0  0  0  0  0  0  0  0  0
   -4.2502   -0.3095   -0.8216 C   0  0  0  0  0  0  0  0  0  0  0  0
   -1.4513    2.7863    0.5391 C   0  0  0  0  0  0  0  0  0  0  0  0
   -1.2436    4.1349    0.2164 C   0  0  0  0  0  0  0  0  0  0  0  0
   -1.2950    4.5587   -1.1216 C   0  0  0  0  0  0  0  0  0  0  0  0
   -1.5639    3.6282   -2.1390 C   0  0  0  0  0  0  0  0  0  0  0  0
   -1.7664    2.2775   -1.8193 C   0  0  0  0  0  0  0  0  0  0  0  0
   -1.4024    2.4514    1.5846 H   0  0  0  0  0  0  0  0  0  0  0  0
   -1.0333    4.8590    1.0180 H   0  0  0  0  0  0  0  0  0  0  0  0
   -1.1316    5.6181   -1.3718 H   0  0  0  0  0  0  0  0  0  0  0  0
   -1.6169    3.9562   -3.1883 H   0  0  0  0  0  0  0  0  0  0  0  0
   -1.9856    1.5467   -2.6112 H   0  0  0  0  0  0  0  0  0  0  0  0
  2 16  1  0  0  0  0
  4 17  1  0  0  0  0
  6 17  1  0  0  0  0
  7 13  3  0  0  0  0
  9 10  1  0  0  0  0
  9 12  1  0  0  0  0
 10 15  1  6  0  0  0
 10 11  1  0  0  0  0
 11 12  1  0  0  0  0
 11 16  1  0  0  0  0
 12 14  1  0  0  0  0
 13 12  1  0  0  0  0
 14  8  3  0  0  0  0
 15 18  1  0  0  0  0
 16  3  1  0  0  0  0
 16  1  1  0  0  0  0
 17  5  1  0  0  0  0
 17 11  1  0  0  0  0
 18 23  1  0  0  0  0
 19 18  2  0  0  0  0
 19 24  1  0  0  0  0
 20 19  1  0  0  0  0
 21 22  1  0  0  0  0
 21 20  2  0  0  0  0
 22 15  2  0  0  0  0
 25 20  1  0  0  0  0
 26 21  1  0  0  0  0
 27 22  1  0  0  0  0
M  END
