2
q = -1.0, confidence = 0.0

 16 16  0  0  0  0  0  0  0  0999 V2000
    9.2036    0.4015    0.7324 N   0  0  0  0  0  0  0  0  0  0  0  0
    1.4290    0.8448   -0.2099 C   0  0  0  0  0  3  0  0  0  0  0  0
    1.6770    1.1505    0.8296 H   0  0  0  0  0  0  0  0  0  0  0  0
    2.5022    0.5800   -1.0154 C   0  0  0  0  0  0  0  0  0  0  0  0
    2.3323    0.2836   -2.0662 H   0  0  0  0  0  0  0  0  0  0  0  0
    3.9101    0.5840   -0.6154 C   0  0  0  0  0  0  0  0  0  0  0  0
    4.9110    0.2853   -1.5784 C   0  0  0  0  0  0  0  0  0  0  0  0
    4.6005    0.0814   -2.6152 H   0  0  0  0  0  0  0  0  0  0  0  0
    6.2647    0.2408   -1.2471 C   0  0  0  0  0  0  0  0  0  0  0  0
    7.0182    0.0067   -2.0131 H   0  0  0  0  0  0  0  0  0  0  0  0
    6.6815    0.4945    0.0825 C   0  0  0  0  0  0  0  0  0  0  0  0
    5.6970    0.7956    1.0587 C   0  0  0  0  0  0  0  0  0  0  0  0
    6.0110    0.9954    2.0937 H   0  0  0  0  0  0  0  0  0  0  0  0
    4.3484    0.8373    0.7139 C   0  0  0  0  0  0  0  0  0  0  0  0
    3.6063    1.0691    1.4922 H   0  0  0  0  0  0  0  0  0  0  0  0
    8.0661    0.4445    0.4374 C   0  0  0  0  0  0  0  0  0  0  0  0
  2  3  1  0  0  0  0
  4  6  1  0  0  0  0
  4  2  2  0  0  0  0
  5  4  1  0  0  0  0
  6 14  1  0  0  0  0
  7  9  1  0  0  0  0
  7  6  2  0  0  0  0
  8  7  1  0  0  0  0
  9 11  2  0  0  0  0
 10  9  1  0  0  0  0
 11 16  1  0  0  0  0
 11 12  1  0  0  0  0
 12 13  1  0  0  0  0
 14 12  2  0  0  0  0
 14 15  1  0  0  0  0
 16  1  3  0  0  0  0
M  END
