10
q = -1.0, confidence = 0.0

 24 25  0  0  0  0  0  0  0  0999 V2000
   -0.8879   -0.3732   -1.0108 C   0  0  0  0  0  0  0  0  0  0  0  0
   -1.2618    0.3331   -1.7598 H   0  0  0  0  0  0  0  0  0  0  0  0
    1.1561   -1.7887   -0.2252 C   0  0  0  0  0  3  0  0  0  0  0  0
    0.6598   -2.3512    0.5705 H   0  0  0  0  0  0  0  0  0  0  0  0
   -1.4851   -1.6203    0.8327 O   0  0  0  0  0  1  0  0  0  0  0  0
    2.5175   -1.8747   -0.6430 C   0  0  0  0  0  0  0  0  0  0  0  0
    3.2796   -2.5339   -0.2120 H   0  0  0  0  0  0  0  0  0  0  0  0
    2.7170   -0.9393   -1.7189 C   0  0  0  0  0  0  0  0  0  0  0  0
    3.6564   -0.7598   -2.2544 H   0  0  0  0  0  0  0  0  0  0  0  0
    1.4778   -0.2806   -1.9637 C   0  0  0  0  0  3  0  0  0  0  0  0
    1.2968    0.4894   -2.7236 H   0  0  0  0  0  0  0  0  0  0  0  0
    0.4797   -0.8149   -1.0573 C   0  0  0  0  0  0  0  0  0  0  0  0
   -1.7535   -0.7719   -0.0722 N   0  0  0  0  0  0  0  0  0  0  0  0
   -3.1043   -0.2127   -0.0612 C   0  0  0  0  0  0  0  0  0  0  0  0
   -3.3702    1.0994   -0.4856 C   0  0  0  0  0  0  0  0  0  0  0  0
   -2.5556    1.7572   -0.8203 H   0  0  0  0  0  0  0  0  0  0  0  0
   -4.6869    1.5795   -0.4315 C   0  0  0  0  0  0  0  0  0  0  0  0
   -4.8998    2.6106   -0.7509 H   0  0  0  0  0  0  0  0  0  0  0  0
   -5.7220    0.7607    0.0472 C   0  0  0  0  0  0  0  0  0  0  0  0
   -6.7522    1.1445    0.0897 H   0  0  0  0  0  0  0  0  0  0  0  0
   -5.4361   -0.5422    0.4891 C   0  0  0  0  0  0  0  0  0  0  0  0
   -6.2423   -1.1833    0.8758 H   0  0  0  0  0  0  0  0  0  0  0  0
   -4.1247   -1.0310    0.4468 C   0  0  0  0  0  0  0  0  0  0  0  0
   -3.8553   -2.0330    0.8066 H   0  0  0  0  0  0  0  0  0  0  0  0
  1 13  1  0  0  0  0
  2  1  1  0  0  0  0
  3  4  1  0  0  0  0
  6  3  1  0  0  0  0
  6  7  1  0  0  0  0
  8  6  2  0  0  0  0
  9  8  1  0  0  0  0
 10  8  1  0  0  0  0
 10 12  1  0  0  0  0
 11 10  1  0  0  0  0
 12  1  2  0  0  0  0
 12  3  1  0  0  0  0
 13 14  1  0  0  0  0
 13  5  1  0  0  0  0
 14 23  1  0  0  0  0
 15 17  1  0  0  0  0
 15 14  2  0  0  0  0
 16 15  1  0  0  0  0
 17 19  2  0  0  0  0
 18 17  1  0  0  0  0
 19 20  1  0  0  0  0
 19 21  1  0  0  0  0
 21 22  1  0  0  0  0
 23 21  2  0  0  0  0
 23 24  1  0  0  0  0
M  END
