1
q = 0.0, confidence = 0.996

 62 63  0  0  1  0  0  0  0  0999 V2000
   -2.5094   -1.2786    0.2659 C   0  0  0  0  0  3  0  0  0  0  0  0
   -1.4203   -1.1577    0.8883 C   0  0  0  0  0  0  0  0  0  0  0  0
   -0.2319   -0.7316    1.4679 C   0  0  1  0  0  3  0  0  0  0  0  0
   -0.2663    0.1233    2.5200 N   0  0  0  0  0  0  0  0  0  0  0  0
   -1.5548    0.6487    2.9919 C   0  0  0  0  0  0  0  0  0  0  0  0
   -1.9914    1.9040    2.2377 C   0  0  0  0  0  0  0  0  0  0  0  0
    0.9235    0.5505    3.2623 C   0  0  0  0  0  0  0  0  0  0  0  0
    1.1988   -0.3392    4.4751 C   0  0  0  0  0  0  0  0  0  0  0  0
    1.0655   -1.2244    0.9266 C   0  0  1  0  0  3  0  0  0  0  0  0
    1.2238   -2.7242    0.9668 C   0  0  0  0  0  0  0  0  0  0  0  0
    1.5404    1.0424    0.0161 C   0  0  0  0  0  0  0  0  0  0  0  0
    2.3548    2.1566    0.3269 C   0  0  0  0  0  0  0  0  0  0  0  0
    1.9440    3.4648    0.0631 C   0  0  0  0  0  0  0  0  0  0  0  0
    0.6877    3.7269   -0.5591 C   0  0  0  0  0  0  0  0  0  0  0  0
   -0.1076    2.6031   -0.9240 C   0  0  0  0  0  0  0  0  0  0  0  0
    0.3126    1.3059   -0.6354 C   0  0  0  0  0  0  0  0  0  0  0  0
    0.2604    5.0155   -0.8105 N   0  0  0  0  0  0  0  0  0  0  0  0
   -1.0202    5.2378   -1.4535 C   0  0  0  0  0  0  0  0  0  0  0  0
    1.1093    6.1396   -0.4777 C   0  0  0  0  0  0  0  0  0  0  0  0
    1.9562   -0.3467    0.3387 C   0  0  0  0  0  3  0  0  0  0  0  0
    3.3328   -0.7349   -0.0324 C   0  0  0  0  0  0  0  0  0  0  0  0
    4.1403   -1.5461    0.8001 C   0  0  0  0  0  0  0  0  0  0  0  0
    5.4488   -1.8887    0.4580 C   0  0  0  0  0  0  0  0  0  0  0  0
    6.0289   -1.4372   -0.7625 C   0  0  0  0  0  0  0  0  0  0  0  0
    5.2249   -0.6068   -1.5966 C   0  0  0  0  0  0  0  0  0  0  0  0
    3.9241   -0.2652   -1.2304 C   0  0  0  0  0  0  0  0  0  0  0  0
    7.3180   -1.7820   -1.1180 N   0  0  0  0  0  0  0  0  0  0  0  0
    8.1085   -2.6269   -0.2467 C   0  0  0  0  0  0  0  0  0  0  0  0
    7.8843   -1.2901   -2.3574 C   0  0  0  0  0  0  0  0  0  0  0  0
   -1.4506    0.8523    4.0771 H   0  0  0  0  0  0  0  0  0  0  0  0
   -2.3146   -0.1481    2.8676 H   0  0  0  0  0  0  0  0  0  0  0  0
   -2.9652    2.2557    2.6318 H   0  0  0  0  0  0  0  0  0  0  0  0
   -1.2493    2.7218    2.3376 H   0  0  0  0  0  0  0  0  0  0  0  0
   -2.1160    1.6853    1.1604 H   0  0  0  0  0  0  0  0  0  0  0  0
    0.7576    1.6035    3.5687 H   0  0  0  0  0  0  0  0  0  0  0  0
    1.7909    0.5552    2.5820 H   0  0  0  0  0  0  0  0  0  0  0  0
    2.0778    0.0379    5.0351 H   0  0  0  0  0  0  0  0  0  0  0  0
    0.3371   -0.3678    5.1724 H   0  0  0  0  0  0  0  0  0  0  0  0
    1.4141   -1.3782    4.1544 H   0  0  0  0  0  0  0  0  0  0  0  0
    2.0461   -3.0649    0.3111 H   0  0  0  0  0  0  0  0  0  0  0  0
    1.4171   -3.1047    1.9938 H   0  0  0  0  0  0  0  0  0  0  0  0
    0.2768   -3.1968    0.6305 H   0  0  0  0  0  0  0  0  0  0  0  0
    3.3339    1.9889    0.8026 H   0  0  0  0  0  0  0  0  0  0  0  0
    2.6083    4.2928    0.3424 H   0  0  0  0  0  0  0  0  0  0  0  0
   -1.0668    2.7334   -1.4402 H   0  0  0  0  0  0  0  0  0  0  0  0
   -0.3266    0.4645   -0.9383 H   0  0  0  0  0  0  0  0  0  0  0  0
   -1.0565    4.8169   -2.4842 H   0  0  0  0  0  0  0  0  0  0  0  0
   -1.8563    4.7786   -0.8808 H   0  0  0  0  0  0  0  0  0  0  0  0
   -1.2118    6.3238   -1.5220 H   0  0  0  0  0  0  0  0  0  0  0  0
    2.0799    6.1144   -1.0246 H   0  0  0  0  0  0  0  0  0  0  0  0
    0.5950    7.0799   -0.7460 H   0  0  0  0  0  0  0  0  0  0  0  0
    1.3428    6.1800    0.6107 H   0  0  0  0  0  0  0  0  0  0  0  0
    3.7375   -1.8949    1.7629 H   0  0  0  0  0  0  0  0  0  0  0  0
    6.0309   -2.5061    1.1540 H   0  0  0  0  0  0  0  0  0  0  0  0
    5.6216   -0.2250   -2.5458 H   0  0  0  0  0  0  0  0  0  0  0  0
    3.3311    0.3780   -1.8979 H   0  0  0  0  0  0  0  0  0  0  0  0
    7.6273   -3.6162   -0.0744 H   0  0  0  0  0  0  0  0  0  0  0  0
    9.0956   -2.8083   -0.7084 H   0  0  0  0  0  0  0  0  0  0  0  0
    8.2802   -2.1617    0.7511 H   0  0  0  0  0  0  0  0  0  0  0  0
    7.9298   -0.1776   -2.3872 H   0  0  0  0  0  0  0  0  0  0  0  0
    8.9148   -1.6731   -2.4668 H   0  0  0  0  0  0  0  0  0  0  0  0
    7.3020   -1.6235   -3.2460 H   0  0  0  0  0  0  0  0  0  0  0  0
  1  2  3  0  0  0  0
  3  2  1  1  0  0  0
  3  4  1  0  0  0  0
  4  5  1  0  0  0  0
  4  7  1  0  0  0  0
  5 30  1  0  0  0  0
  6 33  1  0  0  0  0
  6 32  1  0  0  0  0
  6  5  1  0  0  0  0
  7 35  1  0  0  0  0
  7  8  1  0  0  0  0
  8 37  1  0  0  0  0
  8 38  1  0  0  0  0
  9 20  1  6  0  0  0
  9 10  1  0  0  0  0
  9  3  1  0  0  0  0
 10 41  1  0  0  0  0
 11 12  1  0  0  0  0
 11 20  1  0  0  0  0
 12 43  1  0  0  0  0
 13 12  2  0  0  0  0
 13 44  1  0  0  0  0
 14 13  1  0  0  0  0
 15 16  1  0  0  0  0
 15 14  2  0  0  0  0
 16 11  2  0  0  0  0
 17 14  1  0  0  0  0
 17 19  1  0  0  0  0
 18 48  1  0  0  0  0
 18 17  1  0  0  0  0
 19 52  1  0  0  0  0
 21 20  1  0  0  0  0
 21 22  1  0  0  0  0
 22 53  1  0  0  0  0
 23 22  2  0  0  0  0
 23 54  1  0  0  0  0
 24 23  1  0  0  0  0
 25 26  1  0  0  0  0
 25 24  2  0  0  0  0
 26 21  2  0  0  0  0
 27 24  1  0  0  0  0
 27 28  1  0  0  0  0
 28 57  1  0  0  0  0
 28 59  1  0  0  0  0
 29 27  1  0  0  0  0
 31  5  1  0  0  0  0
 34  6  1  0  0  0  0
 36  7  1  0  0  0  0
 39  8  1  0  0  0  0
 40 10  1  0  0  0  0
 42 10  1  0  0  0  0
 45 15  1  0  0  0  0
 46 16  1  0  0  0  0
 47 18  1  0  0  0  0
 49 18  1  0  0  0  0
 50 19  1  0  0  0  0
 51 19  1  0  0  0  0
 55 25  1  0  0  0  0
 56 26  1  0  0  0  0
 58 28  1  0  0  0  0
 60 29  1  0  0  0  0
 61 29  1  0  0  0  0
 62 29  1  0  0  0  0
M  END
