3
q = -1.0

 24 24  0  0  0  0  0  0  0  0999 V2000
   -4.1501   -0.6235    1.6062 O   0  0  0  0  0  0  0  0  0  0  0  0
   -3.7287    0.6105   -0.2593 N   0  0  0  0  0  0  0  0  0  0  0  0
   -2.7201   -1.6516   -0.0451 C   0  0  0  0  0  3  0  0  0  0  0  0
   -3.1242   -3.0519    0.3497 C   0  0  0  0  0  0  0  0  0  0  0  0
   -3.3199   -2.6030   -1.0777 C   0  0  0  0  0  0  0  0  0  0  0  0
   -3.5949   -0.5462    0.5032 C   0  0  0  0  0  0  0  0  0  0  0  0
   -4.5064    1.6983    0.3296 C   0  0  0  0  0  0  0  0  0  0  0  0
   -3.7242    2.5187    1.3603 C   0  0  0  0  0  0  0  0  0  0  0  0
   -3.2359    0.7710   -1.6202 C   0  0  0  0  0  0  0  0  0  0  0  0
   -2.1805    1.8677   -1.7914 C   0  0  0  0  0  0  0  0  0  0  0  0
   -4.0129   -3.1338    0.9969 H   0  0  0  0  0  0  0  0  0  0  0  0
   -2.3346   -3.7884    0.5635 H   0  0  0  0  0  0  0  0  0  0  0  0
   -2.6717   -3.0162   -1.8676 H   0  0  0  0  0  0  0  0  0  0  0  0
   -4.3540   -2.4046   -1.4094 H   0  0  0  0  0  0  0  0  0  0  0  0
   -5.3917    1.2525    0.8282 H   0  0  0  0  0  0  0  0  0  0  0  0
   -4.8682    2.3452   -0.4972 H   0  0  0  0  0  0  0  0  0  0  0  0
   -4.3655    3.3071    1.8056 H   0  0  0  0  0  0  0  0  0  0  0  0
   -2.8389    3.0098    0.9077 H   0  0  0  0  0  0  0  0  0  0  0  0
   -3.3850    1.8510    2.1767 H   0  0  0  0  0  0  0  0  0  0  0  0
   -4.1005    0.9834   -2.2932 H   0  0  0  0  0  0  0  0  0  0  0  0
   -2.8182   -0.2007   -1.9411 H   0  0  0  0  0  0  0  0  0  0  0  0
   -1.8425    1.9178   -2.8467 H   0  0  0  0  0  0  0  0  0  0  0  0
   -1.2900    1.6587   -1.1644 H   0  0  0  0  0  0  0  0  0  0  0  0
   -2.5710    2.8686   -1.5168 H   0  0  0  0  0  0  0  0  0  0  0  0
  2  7  1  0  0  0  0
  2  6  1  0  0  0  0
  3  4  1  0  0  0  0
  3  6  1  0  0  0  0
  4 12  1  0  0  0  0
  4 11  1  0  0  0  0
  5  3  1  0  0  0  0
  5  4  1  0  0  0  0
  6  1  2  0  0  0  0
  7 15  1  0  0  0  0
  7  8  1  0  0  0  0
  8 17  1  0  0  0  0
  8 19  1  0  0  0  0
  9  2  1  0  0  0  0
 10  9  1  0  0  0  0
 10 24  1  0  0  0  0
 10 23  1  0  0  0  0
 13  5  1  0  0  0  0
 14  5  1  0  0  0  0
 16  7  1  0  0  0  0
 18  8  1  0  0  0  0
 20  9  1  0  0  0  0
 21  9  1  0  0  0  0
 22 10  1  0  0  0  0
M  END
