1
q = -2.0, confidence = 0.514

 14 14  0  0  0  0  0  0  0  0999 V2000
    1.5287    0.1877    0.2999 C   0  0  0  0  0  0  0  0  0  0  0  0
    2.0826    0.2607    1.5830 C   0  0  0  0  0  0  0  0  0  0  0  0
    1.3002    0.2542    2.7048 F   0  0  0  0  0  0  0  0  0  0  0  0
    3.4684    0.3334    1.7989 C   0  0  0  0  0  0  0  0  0  0  0  0
    3.9717    0.4183    3.0419 F   0  0  0  0  0  0  0  0  0  0  0  0
    4.3238    0.3296    0.6882 C   0  0  0  0  0  0  0  0  0  0  0  0
    5.6515    0.3996    0.8692 F   0  0  0  0  0  0  0  0  0  0  0  0
    3.7666    0.2515   -0.6021 C   0  0  0  0  0  0  0  0  0  0  0  0
    4.6417    0.2255   -1.6237 F   0  0  0  0  0  0  0  0  0  0  0  0
    2.3834    0.1819   -0.8346 C   0  0  0  0  0  0  0  0  0  0  0  0
    1.8797   -0.0095   -2.3996 B   0  0  0  0  0  0  0  0  0  0  0  0
    2.2239   -1.3268   -2.8272 F   0  0  0  0  0  0  0  0  0  0  0  0
    2.4413    0.9582   -3.2379 F   0  0  0  0  0  0  0  0  0  0  0  0
    0.4384    0.1044   -2.4920 F   0  0  0  0  0  0  0  0  0  0  0  0
  1  2  1  0  0  0  0
  2  4  2  0  0  0  0
  2  3  1  0  0  0  0
  4  5  1  0  0  0  0
  6  7  1  0  0  0  0
  6  4  1  0  0  0  0
  8  6  2  0  0  0  0
  9  8  1  0  0  0  0
 10  8  1  0  0  0  0
 10  1  2  0  0  0  0
 11 10  1  0  0  0  0
 12 11  1  0  0  0  0
 13 11  1  0  0  0  0
 14 11  1  0  0  0  0
M  END
