10
q = 0.0, confidence = 0.992

 53 54  0  0  1  0  0  0  0  0999 V2000
    2.4227   -1.6726   -1.2432 Si  0  0  0  0  0  0  0  0  0  0  0  0
    2.8571    2.2743    0.4952 Si  0  0  0  0  0  0  0  0  0  0  0  0
    0.3862   -1.9866    1.2909 O   0  0  0  0  0  0  0  0  0  0  0  0
    0.4424   -0.7018    0.7060 C   0  0  1  0  0  0  0  0  0  0  0  0
    1.8085   -0.3727    0.0423 C   0  0  2  0  0  0  0  0  0  0  0  0
    1.7927    1.0759   -0.5580 C   0  0  1  0  0  0  0  0  0  0  0  0
    0.3609    1.6697   -0.7242 C   0  0  0  0  0  0  0  0  0  0  0  0
   -1.6898    0.8085   -2.0715 C   0  0  0  0  0  0  0  0  0  0  0  0
   -2.6323   -0.2154   -2.3336 C   0  0  0  0  0  0  0  0  0  0  0  0
   -2.5874   -1.4339   -1.5839 C   0  0  0  0  0  3  0  0  0  0  0  0
   -1.6033   -1.6131   -0.5840 C   0  0  0  0  0  0  0  0  0  0  0  0
   -0.6511   -0.5760   -0.3279 C   0  0  0  0  0  0  0  0  0  0  0  0
   -0.6763    0.6321   -1.0745 C   0  0  2  0  0  3  0  0  0  0  0  0
    0.8390   -2.0395    2.6384 C   0  0  0  0  0  0  0  0  0  0  0  0
    0.6843   -3.4604    3.1451 C   0  0  0  0  0  0  0  0  0  0  0  0
    4.1646   -1.1403   -1.7769 C   0  0  0  0  0  0  0  0  0  0  0  0
    1.3191   -1.7121   -2.7830 C   0  0  0  0  0  0  0  0  0  0  0  0
    2.5451   -3.4023   -0.4866 C   0  0  0  0  0  0  0  0  0  0  0  0
    4.6616    1.7041    0.5103 C   0  0  0  0  0  0  0  0  0  0  0  0
    2.7480    4.0184   -0.2345 C   0  0  0  0  0  0  0  0  0  0  0  0
    2.1868    2.2770    2.2691 C   0  0  0  0  0  0  0  0  0  0  0  0
    0.2510    0.0635    1.4966 H   0  0  0  0  0  0  0  0  0  0  0  0
    2.5637   -0.4314    0.8606 H   0  0  0  0  0  0  0  0  0  0  0  0
    2.2508    1.0553   -1.5719 H   0  0  0  0  0  0  0  0  0  0  0  0
    0.0394    2.1597    0.2201 H   0  0  0  0  0  0  0  0  0  0  0  0
    0.3691    2.4714   -1.4883 H   0  0  0  0  0  0  0  0  0  0  0  0
   -1.7504    1.7626   -2.6147 H   0  0  0  0  0  0  0  0  0  0  0  0
   -3.4261   -0.0544   -3.0756 H   0  0  0  0  0  0  0  0  0  0  0  0
   -3.3477   -2.2090   -1.7517 H   0  0  0  0  0  0  0  0  0  0  0  0
   -1.5686   -2.5175    0.0362 H   0  0  0  0  0  0  0  0  0  0  0  0
    1.9065   -1.7159    2.7051 H   0  0  0  0  0  0  0  0  0  0  0  0
    0.2389   -1.3309    3.2582 H   0  0  0  0  0  0  0  0  0  0  0  0
   -0.3756   -3.7783    3.0854 H   0  0  0  0  0  0  0  0  0  0  0  0
    1.2938   -4.1636    2.5434 H   0  0  0  0  0  0  0  0  0  0  0  0
    1.0095   -3.5313    4.2017 H   0  0  0  0  0  0  0  0  0  0  0  0
    4.1771   -0.1375   -2.2501 H   0  0  0  0  0  0  0  0  0  0  0  0
    4.8651   -1.1176   -0.9173 H   0  0  0  0  0  0  0  0  0  0  0  0
    4.5651   -1.8628   -2.5181 H   0  0  0  0  0  0  0  0  0  0  0  0
    0.3190   -2.1361   -2.5669 H   0  0  0  0  0  0  0  0  0  0  0  0
    1.1695   -0.6972   -3.2046 H   0  0  0  0  0  0  0  0  0  0  0  0
    1.7951   -2.3363   -3.5677 H   0  0  0  0  0  0  0  0  0  0  0  0
    3.1652   -3.3886    0.4336 H   0  0  0  0  0  0  0  0  0  0  0  0
    1.5445   -3.7861   -0.2105 H   0  0  0  0  0  0  0  0  0  0  0  0
    3.0170   -4.1069   -1.2026 H   0  0  0  0  0  0  0  0  0  0  0  0
    4.7690    0.6861    0.9367 H   0  0  0  0  0  0  0  0  0  0  0  0
    5.0922    1.6899   -0.5114 H   0  0  0  0  0  0  0  0  0  0  0  0
    5.2752    2.3918    1.1283 H   0  0  0  0  0  0  0  0  0  0  0  0
    3.0925    4.0340   -1.2894 H   0  0  0  0  0  0  0  0  0  0  0  0
    1.7098    4.4076   -0.2083 H   0  0  0  0  0  0  0  0  0  0  0  0
    3.3841    4.7255    0.3368 H   0  0  0  0  0  0  0  0  0  0  0  0
    1.1296    2.6097    2.3148 H   0  0  0  0  0  0  0  0  0  0  0  0
    2.2467    1.2694    2.7300 H   0  0  0  0  0  0  0  0  0  0  0  0
    2.7792    2.9683    2.9033 H   0  0  0  0  0  0  0  0  0  0  0  0
  1 18  1  0  0  0  0
  1  5  1  0  0  0  0
  2 19  1  0  0  0  0
  2 21  1  0  0  0  0
  3 14  1  0  0  0  0
  4  3  1  0  0  0  0
  4 22  1  1  0  0  0
  5  4  1  0  0  0  0
  5 23  1  1  0  0  0
  6 24  1  6  0  0  0
  6  5  1  0  0  0  0
  6  2  1  0  0  0  0
  7  6  1  0  0  0  0
  7 25  1  0  0  0  0
  9  8  2  0  0  0  0
  9 10  1  0  0  0  0
 10 11  1  0  0  0  0
 11 12  2  0  0  0  0
 11 30  1  0  0  0  0
 12  4  1  0  0  0  0
 13  8  1  1  0  0  0
 13  7  1  0  0  0  0
 13 12  1  0  0  0  0
 14 31  1  0  0  0  0
 14 15  1  0  0  0  0
 14 32  1  0  0  0  0
 15 35  1  0  0  0  0
 16  1  1  0  0  0  0
 16 37  1  0  0  0  0
 17 39  1  0  0  0  0
 17  1  1  0  0  0  0
 18 43  1  0  0  0  0
 18 42  1  0  0  0  0
 19 45  1  0  0  0  0
 19 47  1  0  0  0  0
 20 49  1  0  0  0  0
 20 50  1  0  0  0  0
 20  2  1  0  0  0  0
 21 51  1  0  0  0  0
 21 52  1  0  0  0  0
 21 53  1  0  0  0  0
 26  7  1  0  0  0  0
 27  8  1  0  0  0  0
 28  9  1  0  0  0  0
 29 10  1  0  0  0  0
 33 15  1  0  0  0  0
 34 15  1  0  0  0  0
 36 16  1  0  0  0  0
 38 16  1  0  0  0  0
 40 17  1  0  0  0  0
 41 17  1  0  0  0  0
 44 18  1  0  0  0  0
 46 19  1  0  0  0  0
 48 20  1  0  0  0  0
M  END
