1
q = -1.0

 11 11  0  0  0  0  0  0  0  0999 V2000
   -1.0391    1.3153   -0.1345 C   0  0  0  0  0  3  0  0  0  0  0  0
   -1.9284    1.8342   -1.1034 C   0  0  0  0  0  0  0  0  0  0  0  0
   -2.2615    1.1950   -1.9338 H   0  0  0  0  0  0  0  0  0  0  0  0
   -2.3553    3.1616   -1.0036 C   0  0  0  0  0  0  0  0  0  0  0  0
   -1.9436    4.0143    0.0293 C   0  0  0  0  0  0  0  0  0  0  0  0
   -2.2881    5.0545    0.0910 H   0  0  0  0  0  0  0  0  0  0  0  0
   -1.0771    3.4698    0.9819 C   0  0  0  0  0  0  0  0  0  0  0  0
   -0.6239    2.1448    0.9272 C   0  0  0  0  0  0  0  0  0  0  0  0
    0.0555    1.8051    1.7171 H   0  0  0  0  0  0  0  0  0  0  0  0
   -3.2007    3.6492   -1.9342 F   0  0  0  0  0  0  0  0  0  0  0  0
   -0.6608    4.2542    1.9981 F   0  0  0  0  0  0  0  0  0  0  0  0
  1  8  1  0  0  0  0
  2  4  1  0  0  0  0
  2  1  2  0  0  0  0
  3  2  1  0  0  0  0
  4  5  2  0  0  0  0
  5  6  1  0  0  0  0
  5  7  1  0  0  0  0
  7 11  1  0  0  0  0
  8  7  2  0  0  0  0
  8  9  1  0  0  0  0
 10  4  1  0  0  0  0
M  END
