2
q = -1.0

 39 41  0  0  0  0  0  0  0  0999 V2000
    4.9729    0.1335   -0.2140 N   0  0  0  0  0  0  0  0  0  0  0  0
   -1.9112    0.8540   -0.7743 C   0  0  0  0  0  3  0  0  0  0  0  0
   -0.6740    0.7459   -0.6862 C   0  0  0  0  0  0  0  0  0  0  0  0
    0.7364    0.6019   -0.5713 C   0  0  0  0  0  0  0  0  0  0  0  0
    1.6341    1.4047   -1.3277 C   0  0  0  0  0  0  0  0  0  0  0  0
    1.2192    2.1502   -2.0212 H   0  0  0  0  0  0  0  0  0  0  0  0
    3.0167    1.2473   -1.2168 C   0  0  0  0  0  0  0  0  0  0  0  0
    3.6946    1.8697   -1.8195 H   0  0  0  0  0  0  0  0  0  0  0  0
    3.5613    0.2916   -0.3324 C   0  0  0  0  0  0  0  0  0  0  0  0
    2.6858   -0.5072    0.4342 C   0  0  0  0  0  0  0  0  0  0  0  0
    3.1056   -1.2496    1.1291 H   0  0  0  0  0  0  0  0  0  0  0  0
    1.3036   -0.3600    0.3102 C   0  0  0  0  0  0  0  0  0  0  0  0
    0.6273   -0.9861    0.9111 H   0  0  0  0  0  0  0  0  0  0  0  0
    5.7902    1.2769   -0.0741 C   0  0  0  0  0  0  0  0  0  0  0  0
    5.3319    2.4003    0.6543 C   0  0  0  0  0  0  0  0  0  0  0  0
    4.3373    2.3691    1.1211 H   0  0  0  0  0  0  0  0  0  0  0  0
    6.1287    3.5378    0.7828 C   0  0  0  0  0  0  0  0  0  0  0  0
    5.7616    4.4012    1.3562 H   0  0  0  0  0  0  0  0  0  0  0  0
    7.4193    3.5976    0.1974 C   0  0  0  0  0  0  0  0  0  0  0  0
    7.8717    2.4680   -0.5318 C   0  0  0  0  0  0  0  0  0  0  0  0
    8.8630    2.5004   -1.0066 H   0  0  0  0  0  0  0  0  0  0  0  0
    7.0722    1.3337   -0.6713 C   0  0  0  0  0  0  0  0  0  0  0  0
    7.4346    0.4765   -1.2562 H   0  0  0  0  0  0  0  0  0  0  0  0
    8.2364    4.7594    0.3348 C   0  0  0  0  0  0  0  0  0  0  0  0
    8.9391    5.7580    0.4531 C   0  0  0  0  0  0  0  0  0  0  0  0
    9.5575    6.6381    0.5561 H   0  0  0  0  0  0  0  0  0  0  0  0
    5.5274   -1.1643   -0.2327 C   0  0  0  0  0  0  0  0  0  0  0  0
    6.6456   -1.4925    0.5712 C   0  0  0  0  0  0  0  0  0  0  0  0
    7.0887   -0.7239    1.2201 H   0  0  0  0  0  0  0  0  0  0  0  0
    7.1815   -2.7801    0.5528 C   0  0  0  0  0  0  0  0  0  0  0  0
    8.0463   -3.0217    1.1875 H   0  0  0  0  0  0  0  0  0  0  0  0
    6.6165   -3.7973   -0.2588 C   0  0  0  0  0  0  0  0  0  0  0  0
    5.4912   -3.4631   -1.0555 C   0  0  0  0  0  0  0  0  0  0  0  0
    5.0447   -4.2346   -1.6994 H   0  0  0  0  0  0  0  0  0  0  0  0
    4.9598   -2.1739   -1.0466 C   0  0  0  0  0  0  0  0  0  0  0  0
    4.0935   -1.9305   -1.6778 H   0  0  0  0  0  0  0  0  0  0  0  0
    7.1620   -5.1158   -0.2720 C   0  0  0  0  0  0  0  0  0  0  0  0
    7.6312   -6.2495   -0.2833 C   0  0  0  0  0  0  0  0  0  0  0  0
    8.0468   -7.2468   -0.2948 H   0  0  0  0  0  0  0  0  0  0  0  0
  1 14  1  0  0  0  0
  2  3  3  0  0  0  0
  3  4  1  0  0  0  0
  4 12  1  0  0  0  0
  5  7  1  0  0  0  0
  5  4  2  0  0  0  0
  6  5  1  0  0  0  0
  7  9  2  0  0  0  0
  8  7  1  0  0  0  0
  9  1  1  0  0  0  0
  9 10  1  0  0  0  0
 10 11  1  0  0  0  0
 12 10  2  0  0  0  0
 12 13  1  0  0  0  0
 14 15  1  0  0  0  0
 15 17  2  0  0  0  0
 15 16  1  0  0  0  0
 17 18  1  0  0  0  0
 19 24  1  0  0  0  0
 19 17  1  0  0  0  0
 20 19  2  0  0  0  0
 21 20  1  0  0  0  0
 22 20  1  0  0  0  0
 22 14  2  0  0  0  0
 23 22  1  0  0  0  0
 24 25  3  0  0  0  0
 25 26  1  0  0  0  0
 27  1  1  0  0  0  0
 27 28  1  0  0  0  0
 28 29  1  0  0  0  0
 30 28  2  0  0  0  0
 30 31  1  0  0  0  0
 32 30  1  0  0  0  0
 33 35  1  0  0  0  0
 33 32  2  0  0  0  0
 34 33  1  0  0  0  0
 35 27  2  0  0  0  0
 36 35  1  0  0  0  0
 37 32  1  0  0  0  0
 38 37  3  0  0  0  0
 39 38  1  0  0  0  0
M  END
