3
q = -1.0

 30 31  0  0  0  0  0  0  0  0999 V2000
   -7.6454   -0.3310   -0.0027 O   0  0  0  0  0  0  0  0  0  0  0  0
   -6.3281    1.5526    0.0052 O   0  0  0  0  0  0  0  0  0  0  0  0
   -1.2174   -0.1564   -0.0036 C   0  0  0  0  0  3  0  0  0  0  0  0
   -3.2988   -1.4410   -0.0068 C   0  0  0  0  0  0  0  0  0  0  0  0
   -2.0012    1.0340    0.0014 C   0  0  0  0  0  0  0  0  0  0  0  0
   -1.4943    2.0118    0.0051 H   0  0  0  0  0  0  0  0  0  0  0  0
   -1.8888   -1.3968   -0.0076 C   0  0  0  0  0  0  0  0  0  0  0  0
   -1.3251   -2.3431   -0.0110 H   0  0  0  0  0  0  0  0  0  0  0  0
   -4.0408   -0.2230   -0.0021 C   0  0  0  0  0  0  0  0  0  0  0  0
   -6.4735    0.3417    0.0004 C   0  0  0  0  0  0  0  0  0  0  0  0
   -5.5144   -1.9716   -0.0076 C   0  0  0  0  0  0  0  0  0  0  0  0
   -6.5060   -2.4314   -0.0089 H   0  0  0  0  0  0  0  0  0  0  0  0
   -9.9555   -0.7380   -0.0038 C   0  0  0  0  0  0  0  0  0  0  0  0
  -10.9818   -0.3218   -0.0020 H   0  0  0  0  0  0  0  0  0  0  0  0
   -9.8339   -1.3779    0.8923 H   0  0  0  0  0  0  0  0  0  0  0  0
   -9.8340   -1.3707   -0.9050 H   0  0  0  0  0  0  0  0  0  0  0  0
   -3.4044    1.0269    0.0022 C   0  0  0  0  0  0  0  0  0  0  0  0
   -3.9915    1.9532    0.0061 H   0  0  0  0  0  0  0  0  0  0  0  0
   -4.2591   -2.5248   -0.0102 C   0  0  0  0  0  0  0  0  0  0  0  0
   -4.0339   -3.5974   -0.0139 H   0  0  0  0  0  0  0  0  0  0  0  0
   -9.0459    1.2359    1.2768 C   0  0  0  0  0  0  0  0  0  0  0  0
   -8.2898    2.0415    1.2911 H   0  0  0  0  0  0  0  0  0  0  0  0
   -8.9085    0.5974    2.1721 H   0  0  0  0  0  0  0  0  0  0  0  0
  -10.0548    1.6913    1.3298 H   0  0  0  0  0  0  0  0  0  0  0  0
   -9.0463    1.2465   -1.2684 C   0  0  0  0  0  0  0  0  0  0  0  0
   -8.2899    2.0519   -1.2763 H   0  0  0  0  0  0  0  0  0  0  0  0
  -10.0551    1.7026   -1.3172 H   0  0  0  0  0  0  0  0  0  0  0  0
   -8.9095    0.6153   -2.1690 H   0  0  0  0  0  0  0  0  0  0  0  0
   -5.4086   -0.5679   -0.0028 N   0  0  0  0  0  0  0  0  0  0  0  0
   -8.9285    0.3960    0.0007 C   0  0  0  0  0  0  0  0  0  0  0  0
  1 10  1  0  0  0  0
  1 30  1  0  0  0  0
  3  5  1  0  0  0  0
  4  9  2  0  0  0  0
  5 17  2  0  0  0  0
  5  6  1  0  0  0  0
  7  4  1  0  0  0  0
  7  3  2  0  0  0  0
  8  7  1  0  0  0  0
  9 17  1  0  0  0  0
 10  2  2  0  0  0  0
 11 29  1  0  0  0  0
 12 11  1  0  0  0  0
 13 14  1  0  0  0  0
 13 30  1  0  0  0  0
 13 15  1  0  0  0  0
 16 13  1  0  0  0  0
 17 18  1  0  0  0  0
 19 11  2  0  0  0  0
 19  4  1  0  0  0  0
 20 19  1  0  0  0  0
 21 22  1  0  0  0  0
 21 24  1  0  0  0  0
 21 23  1  0  0  0  0
 25 30  1  0  0  0  0
 26 25  1  0  0  0  0
 27 25  1  0  0  0  0
 28 25  1  0  0  0  0
 29  9  1  0  0  0  0
 29 10  1  0  0  0  0
 30 21  1  0  0  0  0
M  END
