4
q = 0.0, confidence = 0.988

 26 28  0  0  0  0  0  0  0  0999 V2000
   -3.4183    2.8552   -0.0703 O   0  0  0  0  0  0  0  0  0  0  0  0
   -0.2514    1.3781   -0.0015 N   0  0  0  0  0  0  0  0  0  0  0  0
   -1.6377    1.2799    0.0067 N   0  0  0  0  0  0  0  0  0  0  0  0
    0.3582    0.1315    0.0018 C   0  0  0  0  0  2  0  0  0  0  0  0
   -0.7589   -0.7591    0.0039 C   0  0  0  0  0  0  0  0  0  0  0  0
   -1.9734   -0.0687   -0.0026 C   0  0  0  0  0  0  0  0  0  0  0  0
   -2.2248    2.6057   -0.0726 C   0  0  0  0  0  0  0  0  0  0  0  0
   -1.0613    3.4807   -0.1247 C   0  0  0  0  0  0  0  0  0  0  0  0
    0.0920    2.7448   -0.0750 C   0  0  0  0  0  0  0  0  0  0  0  0
    1.4833    3.2595   -0.0875 C   0  0  0  0  0  0  0  0  0  0  0  0
   -3.3209   -0.6404   -0.0058 C   0  0  0  0  0  0  0  0  0  0  0  0
   -3.4524   -2.0215   -0.3101 C   0  0  0  0  0  0  0  0  0  0  0  0
   -4.7032   -2.6421   -0.2908 C   0  0  0  0  0  0  0  0  0  0  0  0
   -5.8539   -1.9023    0.0333 C   0  0  0  0  0  0  0  0  0  0  0  0
   -5.7383   -0.5360    0.3285 C   0  0  0  0  0  0  0  0  0  0  0  0
   -4.4884    0.0964    0.3079 C   0  0  0  0  0  0  0  0  0  0  0  0
   -0.6700   -1.8480    0.0355 H   0  0  0  0  0  0  0  0  0  0  0  0
   -1.1341    4.5709   -0.1766 H   0  0  0  0  0  0  0  0  0  0  0  0
    1.4506    4.3617   -0.1540 H   0  0  0  0  0  0  0  0  0  0  0  0
    2.0317    2.9787    0.8305 H   0  0  0  0  0  0  0  0  0  0  0  0
    2.0567    2.8731   -0.9499 H   0  0  0  0  0  0  0  0  0  0  0  0
   -2.5656   -2.6101   -0.5832 H   0  0  0  0  0  0  0  0  0  0  0  0
   -4.7830   -3.7115   -0.5365 H   0  0  0  0  0  0  0  0  0  0  0  0
   -6.8394   -2.3918    0.0475 H   0  0  0  0  0  0  0  0  0  0  0  0
   -6.6340    0.0533    0.5755 H   0  0  0  0  0  0  0  0  0  0  0  0
   -4.4130    1.1725    0.5105 H   0  0  0  0  0  0  0  0  0  0  0  0
  2  4  1  0  0  0  0
  2  3  1  0  0  0  0
  4  5  1  0  0  0  0
  5 17  1  0  0  0  0
  6  5  2  0  0  0  0
  6  3  1  0  0  0  0
  7  1  2  0  0  0  0
  7  3  1  0  0  0  0
  8  9  2  0  0  0  0
  8  7  1  0  0  0  0
  9  2  1  0  0  0  0
 10  9  1  0  0  0  0
 10 20  1  0  0  0  0
 11  6  1  0  0  0  0
 11 16  1  0  0  0  0
 12 13  1  0  0  0  0
 12 11  2  0  0  0  0
 13 14  2  0  0  0  0
 14 24  1  0  0  0  0
 14 15  1  0  0  0  0
 15 25  1  0  0  0  0
 16 15  2  0  0  0  0
 16 26  1  0  0  0  0
 18  8  1  0  0  0  0
 19 10  1  0  0  0  0
 21 10  1  0  0  0  0
 22 12  1  0  0  0  0
 23 13  1  0  0  0  0
M  END
