7
q = -1.0

 26 27  0  0  0  0  0  0  0  0999 V2000
    1.0359   -1.0141   -0.9630 P   0  0  1  0  0  0  0  0  0  0  0  0
    0.3812   -2.1456    0.2880 C   0  0  0  0  0  0  0  0  0  0  0  0
    0.5721   -3.4774    0.6745 C   0  0  0  0  0  0  0  0  0  0  0  0
   -0.1371   -3.9371    1.7999 C   0  0  0  0  0  0  0  0  0  0  0  0
   -0.9854   -3.0546    2.4965 C   0  0  0  0  0  0  0  0  0  0  0  0
   -1.1537   -1.7151    2.0940 C   0  0  0  0  0  0  0  0  0  0  0  0
   -0.4735   -1.2222    0.9559 C   0  0  0  0  0  3  0  0  0  0  0  0
    2.8613   -0.9428   -0.7425 C   0  0  0  0  0  0  0  0  0  0  0  0
    3.6967   -0.4342   -1.7600 C   0  0  0  0  0  0  0  0  0  0  0  0
    5.0771   -0.2951   -1.5446 C   0  0  0  0  0  0  0  0  0  0  0  0
    5.6394   -0.6651   -0.3124 C   0  0  0  0  0  0  0  0  0  0  0  0
    4.8143   -1.1773    0.7026 C   0  0  0  0  0  0  0  0  0  0  0  0
    3.4345   -1.3127    0.4923 C   0  0  0  0  0  0  0  0  0  0  0  0
    0.8634   -1.7498   -2.6502 C   0  0  0  0  0  0  0  0  0  0  0  0
    1.2541   -4.1445    0.1233 H   0  0  0  0  0  0  0  0  0  0  0  0
   -0.0298   -4.9794    2.1365 H   0  0  0  0  0  0  0  0  0  0  0  0
   -1.5359   -3.4243    3.3770 H   0  0  0  0  0  0  0  0  0  0  0  0
   -1.8329   -1.0707    2.6723 H   0  0  0  0  0  0  0  0  0  0  0  0
    3.2699   -0.1401   -2.7315 H   0  0  0  0  0  0  0  0  0  0  0  0
    5.7174    0.1038   -2.3462 H   0  0  0  0  0  0  0  0  0  0  0  0
    6.7217   -0.5574   -0.1447 H   0  0  0  0  0  0  0  0  0  0  0  0
    5.2497   -1.4745    1.6690 H   0  0  0  0  0  0  0  0  0  0  0  0
    2.7854   -1.7056    1.2898 H   0  0  0  0  0  0  0  0  0  0  0  0
    1.0968   -1.0002   -3.4312 H   0  0  0  0  0  0  0  0  0  0  0  0
   -0.1847   -2.0764   -2.7786 H   0  0  0  0  0  0  0  0  0  0  0  0
    1.5410   -2.6192   -2.7549 H   0  0  0  0  0  0  0  0  0  0  0  0
  1 14  1  6  0  0  0
  1  8  1  0  0  0  0
  1  2  1  0  0  0  0
  2  3  2  0  0  0  0
  2  7  1  0  0  0  0
  3  4  1  0  0  0  0
  4 16  1  0  0  0  0
  4  5  2  0  0  0  0
  5 17  1  0  0  0  0
  6  5  1  0  0  0  0
  6 18  1  0  0  0  0
  7  6  2  0  0  0  0
  8 13  1  0  0  0  0
  9 10  1  0  0  0  0
  9  8  2  0  0  0  0
 10 11  2  0  0  0  0
 11 21  1  0  0  0  0
 11 12  1  0  0  0  0
 12 22  1  0  0  0  0
 13 12  2  0  0  0  0
 13 23  1  0  0  0  0
 15  3  1  0  0  0  0
 19  9  1  0  0  0  0
 20 10  1  0  0  0  0
 24 14  1  0  0  0  0
 25 14  1  0  0  0  0
 26 14  1  0  0  0  0
M  END
