1
q = -1.0

 26 27  0  0  0  0  0  0  0  0999 V2000
    2.5541   -1.1009   -2.2950 C   0  0  0  0  0  3  0  0  0  0  0  0
    3.0416   -0.2772   -2.8516 H   0  0  0  0  0  0  0  0  0  0  0  0
    2.9817   -2.0707   -2.6113 H   0  0  0  0  0  0  0  0  0  0  0  0
    1.0821   -1.0589   -2.4015 C   0  0  0  0  0  0  0  0  0  0  0  0
    0.3889    0.1511   -2.6620 C   0  0  0  0  0  0  0  0  0  0  0  0
    0.9677    1.0513   -2.9212 H   0  0  0  0  0  0  0  0  0  0  0  0
   -1.0014    0.2270   -2.5531 C   0  0  0  0  0  0  0  0  0  0  0  0
   -1.5432    1.1706   -2.7176 H   0  0  0  0  0  0  0  0  0  0  0  0
   -1.7483   -0.9049   -2.1569 C   0  0  0  0  0  0  0  0  0  0  0  0
   -1.0805   -2.1478   -1.9930 C   0  0  0  0  0  0  0  0  0  0  0  0
   -1.6843   -3.0272   -1.7288 H   0  0  0  0  0  0  0  0  0  0  0  0
    0.2988   -2.2174   -2.1307 C   0  0  0  0  0  0  0  0  0  0  0  0
    0.8171   -3.1773   -1.9775 H   0  0  0  0  0  0  0  0  0  0  0  0
   -3.1152   -0.7090   -1.9188 N   0  0  0  0  0  2  0  0  0  0  0  0
   -3.7021   -1.6868   -1.3538 N   0  0  0  0  0  2  0  0  0  0  0  0
   -5.0734   -1.4949   -1.0877 C   0  0  0  0  0  0  0  0  0  0  0  0
   -5.7814   -0.2975   -1.3507 C   0  0  0  0  0  0  0  0  0  0  0  0
   -5.2316    0.5353   -1.8116 H   0  0  0  0  0  0  0  0  0  0  0  0
   -7.1355   -0.2059   -1.0177 C   0  0  0  0  0  0  0  0  0  0  0  0
   -7.6876    0.7258   -1.2180 H   0  0  0  0  0  0  0  0  0  0  0  0
   -7.8015   -1.2997   -0.4287 C   0  0  0  0  0  0  0  0  0  0  0  0
   -8.8687   -1.2200   -0.1717 H   0  0  0  0  0  0  0  0  0  0  0  0
   -7.1023   -2.4911   -0.1715 C   0  0  0  0  0  0  0  0  0  0  0  0
   -7.6190   -3.3458    0.2904 H   0  0  0  0  0  0  0  0  0  0  0  0
   -5.7426   -2.5889   -0.4957 C   0  0  0  0  0  0  0  0  0  0  0  0
   -5.1591   -3.4975   -0.2880 H   0  0  0  0  0  0  0  0  0  0  0  0
  2  1  1  0  0  0  0
  3  1  1  0  0  0  0
  4  1  1  0  0  0  0
  4 12  1  0  0  0  0
  5  7  1  0  0  0  0
  5  4  2  0  0  0  0
  6  5  1  0  0  0  0
  7  9  2  0  0  0  0
  8  7  1  0  0  0  0
  9 10  1  0  0  0  0
  9 14  1  0  0  0  0
 10 11  1  0  0  0  0
 12 10  2  0  0  0  0
 12 13  1  0  0  0  0
 14 15  1  0  0  0  0
 15 16  1  0  0  0  0
 16 25  1  0  0  0  0
 17 16  2  0  0  0  0
 17 19  1  0  0  0  0
 18 17  1  0  0  0  0
 19 21  2  0  0  0  0
 20 19  1  0  0  0  0
 21 22  1  0  0  0  0
 21 23  1  0  0  0  0
 23 24  1  0  0  0  0
 25 26  1  0  0  0  0
 25 23  2  0  0  0  0
M  END
