3
q = -1.0

 35 36  0  0  0  0  0  0  0  0999 V2000
    0.2284   -1.8819   -0.4881 O   0  0  0  0  0  0  0  0  0  0  0  0
    0.9129   -0.7209   -0.2037 C   0  0  0  0  0  0  0  0  0  0  0  0
    0.1944    0.4377   -0.1049 C   0  0  0  0  0  3  0  0  0  0  0  0
    0.7459    1.8028   -0.0641 C   0  0  0  0  0  0  0  0  0  0  0  0
    0.2113    2.7758    0.8150 C   0  0  0  0  0  0  0  0  0  0  0  0
    0.7353    4.0742    0.8647 C   0  0  0  0  0  0  0  0  0  0  0  0
    1.8010    4.4383    0.0260 C   0  0  0  0  0  0  0  0  0  0  0  0
    2.3296    3.4921   -0.8680 C   0  0  0  0  0  0  0  0  0  0  0  0
    1.8080    2.1938   -0.9179 C   0  0  0  0  0  0  0  0  0  0  0  0
    2.3903   -0.8322   -0.0893 C   0  0  0  0  0  0  0  0  0  0  0  0
    3.0949   -0.1703    0.9397 C   0  0  0  0  0  0  0  0  0  0  0  0
    4.4874   -0.2861    1.0340 C   0  0  0  0  0  0  0  0  0  0  0  0
    5.1970   -1.0666    0.1060 C   0  0  0  0  0  0  0  0  0  0  0  0
    4.5043   -1.7377   -0.9150 C   0  0  0  0  0  0  0  0  0  0  0  0
    3.1106   -1.6263   -1.0105 C   0  0  0  0  0  0  0  0  0  0  0  0
    0.4700   -3.0458    0.3534 C   0  0  0  0  0  0  0  0  0  0  0  0
   -0.2145   -4.2094   -0.3450 C   0  0  0  0  0  0  0  0  0  0  0  0
   -0.0456   -2.7886    1.7646 C   0  0  0  0  0  0  0  0  0  0  0  0
   -0.6259    2.4977    1.4757 H   0  0  0  0  0  0  0  0  0  0  0  0
    0.3049    4.8087    1.5624 H   0  0  0  0  0  0  0  0  0  0  0  0
    2.2096    5.4595    0.0593 H   0  0  0  0  0  0  0  0  0  0  0  0
    3.1530    3.7718   -1.5430 H   0  0  0  0  0  0  0  0  0  0  0  0
    2.2179    1.4637   -1.6306 H   0  0  0  0  0  0  0  0  0  0  0  0
    2.5364    0.4380    1.6660 H   0  0  0  0  0  0  0  0  0  0  0  0
    5.0244    0.2340    1.8417 H   0  0  0  0  0  0  0  0  0  0  0  0
    6.2913   -1.1558    0.1816 H   0  0  0  0  0  0  0  0  0  0  0  0
    5.0550   -2.3511   -1.6444 H   0  0  0  0  0  0  0  0  0  0  0  0
    2.5620   -2.1447   -1.8115 H   0  0  0  0  0  0  0  0  0  0  0  0
   -1.3075   -4.0353   -0.4122 H   0  0  0  0  0  0  0  0  0  0  0  0
   -0.0443   -5.1492    0.2160 H   0  0  0  0  0  0  0  0  0  0  0  0
    0.1804   -4.3368   -1.3717 H   0  0  0  0  0  0  0  0  0  0  0  0
   -1.1409   -2.6089    1.7574 H   0  0  0  0  0  0  0  0  0  0  0  0
    0.4501   -1.9056    2.2153 H   0  0  0  0  0  0  0  0  0  0  0  0
    0.1570   -3.6624    2.4154 H   0  0  0  0  0  0  0  0  0  0  0  0
    1.5675   -3.2275    0.3910 H   0  0  0  0  0  0  0  0  0  0  0  0
  1  2  1  0  0  0  0
  1 16  1  0  0  0  0
  2  3  2  0  0  0  0
  2 10  1  0  0  0  0
  3  4  1  0  0  0  0
  4  5  1  0  0  0  0
  5  6  2  0  0  0  0
  5 19  1  0  0  0  0
  6 20  1  0  0  0  0
  7 21  1  0  0  0  0
  7  6  1  0  0  0  0
  8  7  2  0  0  0  0
  9  8  1  0  0  0  0
  9  4  2  0  0  0  0
 10 11  1  0  0  0  0
 11 12  2  0  0  0  0
 11 24  1  0  0  0  0
 12 25  1  0  0  0  0
 13 26  1  0  0  0  0
 13 12  1  0  0  0  0
 14 13  2  0  0  0  0
 15 14  1  0  0  0  0
 15 10  2  0  0  0  0
 16 35  1  0  0  0  0
 16 18  1  0  0  0  0
 17 30  1  0  0  0  0
 17 16  1  0  0  0  0
 18 33  1  0  0  0  0
 18 34  1  0  0  0  0
 22  8  1  0  0  0  0
 23  9  1  0  0  0  0
 27 14  1  0  0  0  0
 28 15  1  0  0  0  0
 29 17  1  0  0  0  0
 31 17  1  0  0  0  0
 32 18  1  0  0  0  0
M  END
