1
q = -1.0

 21 20  0  0  0  0  0  0  0  0999 V2000
   -0.6929    1.7752   -0.2219 C   0  0  0  0  0  3  0  0  0  0  0  0
   -1.5742    2.6367   -0.2741 C   0  0  0  0  0  0  0  0  0  0  0  0
   -2.7191    3.5440   -0.3520 C   0  0  0  0  0  0  0  0  0  0  0  0
   -2.8168    4.1067    0.6046 H   0  0  0  0  0  0  0  0  0  0  0  0
   -2.5401    4.3144   -1.1342 H   0  0  0  0  0  0  0  0  0  0  0  0
   -4.0377    2.7958   -0.6507 C   0  0  0  0  0  0  0  0  0  0  0  0
   -4.8517    3.5366   -0.8080 H   0  0  0  0  0  0  0  0  0  0  0  0
   -3.9163    2.2537   -1.6138 H   0  0  0  0  0  0  0  0  0  0  0  0
   -4.4278    1.8005    0.4459 C   0  0  0  0  0  0  0  0  0  0  0  0
   -4.7548    2.3534    1.3551 H   0  0  0  0  0  0  0  0  0  0  0  0
   -3.5173    1.2388    0.7504 H   0  0  0  0  0  0  0  0  0  0  0  0
   -5.5092    0.8023    0.0270 C   0  0  0  0  0  0  0  0  0  0  0  0
   -6.4374    1.3446   -0.2653 H   0  0  0  0  0  0  0  0  0  0  0  0
   -5.1734    0.2742   -0.8955 H   0  0  0  0  0  0  0  0  0  0  0  0
   -5.8391   -0.2364    1.1035 C   0  0  0  0  0  0  0  0  0  0  0  0
   -6.1965    0.2851    2.0192 H   0  0  0  0  0  0  0  0  0  0  0  0
   -4.9002   -0.7538    1.4027 H   0  0  0  0  0  0  0  0  0  0  0  0
   -6.8752   -1.2692    0.6589 C   0  0  0  0  0  0  0  0  0  0  0  0
   -7.0943   -2.0055    1.4585 H   0  0  0  0  0  0  0  0  0  0  0  0
   -6.5229   -1.8360   -0.2293 H   0  0  0  0  0  0  0  0  0  0  0  0
   -7.8341   -0.7860    0.3765 H   0  0  0  0  0  0  0  0  0  0  0  0
  2  1  3  0  0  0  0
  3  2  1  0  0  0  0
  3  4  1  0  0  0  0
  5  3  1  0  0  0  0
  6  3  1  0  0  0  0
  6  9  1  0  0  0  0
  7  6  1  0  0  0  0
  8  6  1  0  0  0  0
  9 11  1  0  0  0  0
  9 10  1  0  0  0  0
 12  9  1  0  0  0  0
 12 15  1  0  0  0  0
 13 12  1  0  0  0  0
 14 12  1  0  0  0  0
 15 17  1  0  0  0  0
 15 16  1  0  0  0  0
 18 15  1  0  0  0  0
 18 19  1  0  0  0  0
 20 18  1  0  0  0  0
 21 18  1  0  0  0  0
M  END
