4
q = 0.0, confidence = 0.998

 47 50  0  0  0  0  0  0  0  0999 V2000
   -1.1620    0.3976   -0.0329 N   0  0  0  0  0  0  0  0  0  0  0  0
   -1.3486    1.7670   -0.0112 N   0  0  0  0  0  0  0  0  0  0  0  0
   -0.1914    2.3941    0.0111 N   0  0  0  0  0  2  0  0  0  0  0  0
    0.1730    0.1342   -0.0318 C   0  0  0  0  0  3  0  0  0  0  0  0
    0.7687    1.4476   -0.0019 C   0  0  0  0  0  0  0  0  0  0  0  0
    2.1880    1.8341    0.0102 C   0  0  0  0  0  0  0  0  0  0  0  0
    3.2242    0.8780   -0.0066 C   0  0  0  0  0  0  0  0  0  0  0  0
    4.5654    1.2803    0.0076 C   0  0  0  0  0  0  0  0  0  0  0  0
    4.9241    2.6417    0.0376 C   0  0  0  0  0  0  0  0  0  0  0  0
    3.8812    3.5947    0.0562 C   0  0  0  0  0  0  0  0  0  0  0  0
    2.5408    3.2043    0.0419 C   0  0  0  0  0  0  0  0  0  0  0  0
    6.3668    3.0766    0.0311 C   0  0  0  0  0  0  0  0  0  0  0  0
   -2.5931    2.4535   -0.0771 C   0  0  0  0  0  0  0  0  0  0  0  0
   -3.5310    2.1474   -1.0813 C   0  0  0  0  0  0  0  0  0  0  0  0
   -4.7401    2.8548   -1.1242 C   0  0  0  0  0  0  0  0  0  0  0  0
   -4.9983    3.8746   -0.1942 C   0  0  0  0  0  0  0  0  0  0  0  0
   -4.0420    4.1906    0.7851 C   0  0  0  0  0  0  0  0  0  0  0  0
   -2.8379    3.4786    0.8540 C   0  0  0  0  0  0  0  0  0  0  0  0
   -2.2878   -0.5480    0.1226 C   0  0  0  0  0  0  0  0  0  0  0  0
   -2.4093   -1.4753   -1.0953 C   0  0  0  0  0  0  0  0  0  0  0  0
   -3.5825   -2.4468   -0.9209 C   0  0  0  0  0  0  0  0  0  0  0  0
   -3.4652   -3.2369    0.3885 C   0  0  0  0  0  0  0  0  0  0  0  0
   -3.3592   -2.2938    1.5935 C   0  0  0  0  0  0  0  0  0  0  0  0
   -2.1787   -1.3270    1.4438 C   0  0  0  0  0  0  0  0  0  0  0  0
    2.9739   -0.1953   -0.0287 H   0  0  0  0  0  0  0  0  0  0  0  0
    5.3541    0.5118   -0.0034 H   0  0  0  0  0  0  0  0  0  0  0  0
    4.1307    4.6676    0.0831 H   0  0  0  0  0  0  0  0  0  0  0  0
    1.7425    3.9603    0.0558 H   0  0  0  0  0  0  0  0  0  0  0  0
    6.5576    3.8634    0.7893 H   0  0  0  0  0  0  0  0  0  0  0  0
    6.6492    3.5062   -0.9541 H   0  0  0  0  0  0  0  0  0  0  0  0
    7.0505    2.2296    0.2328 H   0  0  0  0  0  0  0  0  0  0  0  0
   -3.3039    1.3772   -1.8322 H   0  0  0  0  0  0  0  0  0  0  0  0
   -5.4776    2.6177   -1.9052 H   0  0  0  0  0  0  0  0  0  0  0  0
   -5.9459    4.4314   -0.2381 H   0  0  0  0  0  0  0  0  0  0  0  0
   -4.2375    4.9950    1.5095 H   0  0  0  0  0  0  0  0  0  0  0  0
   -2.0760    3.7062    1.6122 H   0  0  0  0  0  0  0  0  0  0  0  0
   -3.1970    0.0831    0.1780 H   0  0  0  0  0  0  0  0  0  0  0  0
   -2.5226   -0.8703   -2.0200 H   0  0  0  0  0  0  0  0  0  0  0  0
   -1.4549   -2.0380   -1.1972 H   0  0  0  0  0  0  0  0  0  0  0  0
   -3.6245   -3.1331   -1.7911 H   0  0  0  0  0  0  0  0  0  0  0  0
   -4.5406   -1.8780   -0.9238 H   0  0  0  0  0  0  0  0  0  0  0  0
   -4.3331   -3.9179    0.5063 H   0  0  0  0  0  0  0  0  0  0  0  0
   -2.5586   -3.8797    0.3469 H   0  0  0  0  0  0  0  0  0  0  0  0
   -4.3062   -1.7159    1.6953 H   0  0  0  0  0  0  0  0  0  0  0  0
   -3.2438   -2.8704    2.5339 H   0  0  0  0  0  0  0  0  0  0  0  0
   -1.2205   -1.8913    1.4401 H   0  0  0  0  0  0  0  0  0  0  0  0
   -2.1328   -0.6117    2.2911 H   0  0  0  0  0  0  0  0  0  0  0  0
  1  4  1  0  0  0  0
  1  2  1  0  0  0  0
  1 19  1  0  0  0  0
  2  3  1  0  0  0  0
  4  5  2  0  0  0  0
  5  6  1  0  0  0  0
  5  3  1  0  0  0  0
  6 11  1  0  0  0  0
  7  8  1  0  0  0  0
  7  6  2  0  0  0  0
  8  9  2  0  0  0  0
  9 10  1  0  0  0  0
 10 27  1  0  0  0  0
 11 28  1  0  0  0  0
 11 10  2  0  0  0  0
 12  9  1  0  0  0  0
 12 31  1  0  0  0  0
 12 29  1  0  0  0  0
 13  2  1  0  0  0  0
 13 18  1  0  0  0  0
 14 13  2  0  0  0  0
 15 14  1  0  0  0  0
 15 16  2  0  0  0  0
 16 17  1  0  0  0  0
 17 18  2  0  0  0  0
 17 35  1  0  0  0  0
 18 36  1  0  0  0  0
 19 37  1  0  0  0  0
 19 24  1  0  0  0  0
 20 21  1  0  0  0  0
 20 19  1  0  0  0  0
 21 22  1  0  0  0  0
 22 42  1  0  0  0  0
 22 23  1  0  0  0  0
 23 44  1  0  0  0  0
 23 45  1  0  0  0  0
 24 23  1  0  0  0  0
 24 47  1  0  0  0  0
 25  7  1  0  0  0  0
 26  8  1  0  0  0  0
 30 12  1  0  0  0  0
 32 14  1  0  0  0  0
 33 15  1  0  0  0  0
 34 16  1  0  0  0  0
 38 20  1  0  0  0  0
 39 20  1  0  0  0  0
 40 21  1  0  0  0  0
 41 21  1  0  0  0  0
 43 22  1  0  0  0  0
 46 24  1  0  0  0  0
M  END
