7
q = 0.0, confidence = 0.972

 56 62  0  0  1  0  0  0  0  0999 V2000
   -2.3578    1.2677   -0.8809 C   0  0  0  0  0  0  0  0  0  0  0  0
   -3.3939    0.4017   -0.4390 C   0  0  0  0  0  0  0  0  0  0  0  0
   -4.3762    0.7311   -0.0829 H   0  0  0  0  0  0  0  0  0  0  0  0
   -2.9956   -0.9792   -0.6301 C   0  0  0  0  0  0  0  0  0  0  0  0
   -1.6733   -0.9708   -1.1565 C   0  0  0  0  0  0  0  0  0  0  0  0
   -1.0568   -1.8544   -1.3489 H   0  0  0  0  0  0  0  0  0  0  0  0
   -1.2294    0.4144   -1.2856 C   0  0  2  0  0  3  0  0  0  0  0  0
    0.0941    0.8123   -0.9409 C   0  0  0  0  0  3  0  0  0  0  0  0
    0.2254    1.8801   -0.7046 H   0  0  0  0  0  0  0  0  0  0  0  0
   -2.3971    2.7399   -0.9395 C   0  0  0  0  0  0  0  0  0  0  0  0
   -1.7098    3.4294   -1.9635 C   0  0  0  0  0  0  0  0  0  0  0  0
   -1.1453    2.8567   -2.7144 H   0  0  0  0  0  0  0  0  0  0  0  0
   -1.7615    4.8288   -2.0417 C   0  0  0  0  0  0  0  0  0  0  0  0
   -1.2200    5.3495   -2.8460 H   0  0  0  0  0  0  0  0  0  0  0  0
   -2.5072    5.5611   -1.1060 C   0  0  0  0  0  0  0  0  0  0  0  0
   -2.5473    6.6591   -1.1671 H   0  0  0  0  0  0  0  0  0  0  0  0
   -3.1996    4.8847   -0.0868 C   0  0  0  0  0  0  0  0  0  0  0  0
   -3.7778    5.4526    0.6576 H   0  0  0  0  0  0  0  0  0  0  0  0
   -3.1418    3.4895   -0.0007 C   0  0  0  0  0  0  0  0  0  0  0  0
   -3.6528    2.9662    0.8215 H   0  0  0  0  0  0  0  0  0  0  0  0
   -3.8186   -2.1686   -0.3459 C   0  0  0  0  0  0  0  0  0  0  0  0
   -4.9487   -2.0912    0.4992 C   0  0  0  0  0  0  0  0  0  0  0  0
   -5.2070   -1.1382    0.9826 H   0  0  0  0  0  0  0  0  0  0  0  0
   -5.7282   -3.2250    0.7583 C   0  0  0  0  0  0  0  0  0  0  0  0
   -6.5988   -3.1447    1.4265 H   0  0  0  0  0  0  0  0  0  0  0  0
   -5.3971   -4.4600    0.1780 C   0  0  0  0  0  0  0  0  0  0  0  0
   -6.0095   -5.3508    0.3836 H   0  0  0  0  0  0  0  0  0  0  0  0
   -4.2792   -4.5499   -0.6666 C   0  0  0  0  0  0  0  0  0  0  0  0
   -4.0140   -5.5117   -1.1312 H   0  0  0  0  0  0  0  0  0  0  0  0
   -3.4997   -3.4160   -0.9278 C   0  0  0  0  0  0  0  0  0  0  0  0
   -2.6376   -3.4953   -1.6060 H   0  0  0  0  0  0  0  0  0  0  0  0
    1.3125    0.0398   -1.1776 C   0  0  0  0  0  0  0  0  0  0  0  0
    1.3703   -0.9157   -2.2210 C   0  0  0  0  0  0  0  0  0  0  0  0
    0.4897   -1.0507   -2.8655 H   0  0  0  0  0  0  0  0  0  0  0  0
    2.5295   -1.6417   -2.4899 C   0  0  0  0  0  0  0  0  0  0  0  0
    2.5462   -2.3639   -3.3205 H   0  0  0  0  0  0  0  0  0  0  0  0
    3.7010   -1.4494   -1.7232 C   0  0  0  0  0  0  0  0  0  0  0  0
    4.9108   -2.1801   -1.9802 C   0  0  0  0  0  0  0  0  0  0  0  0
    4.9126   -2.9146   -2.8005 H   0  0  0  0  0  0  0  0  0  0  0  0
    6.0413   -1.9753   -1.2263 C   0  0  0  0  0  0  0  0  0  0  0  0
    6.9614   -2.5431   -1.4340 H   0  0  0  0  0  0  0  0  0  0  0  0
    6.0536   -1.0221   -0.1495 C   0  0  0  0  0  0  0  0  0  0  0  0
    7.2026   -0.7971    0.6420 C   0  0  0  0  0  0  0  0  0  0  0  0
    8.1182   -1.3690    0.4254 H   0  0  0  0  0  0  0  0  0  0  0  0
    7.1842    0.1356    1.6881 C   0  0  0  0  0  0  0  0  0  0  0  0
    8.0891    0.2952    2.2936 H   0  0  0  0  0  0  0  0  0  0  0  0
    6.0211    0.8633    1.9693 C   0  0  0  0  0  0  0  0  0  0  0  0
    6.0073    1.5926    2.7938 H   0  0  0  0  0  0  0  0  0  0  0  0
    4.8472    0.6738    1.2042 C   0  0  0  0  0  0  0  0  0  0  0  0
    3.6336    1.3936    1.4682 C   0  0  0  0  0  0  0  0  0  0  0  0
    3.6186    2.1111    2.3031 H   0  0  0  0  0  0  0  0  0  0  0  0
    2.5014    1.1949    0.7134 C   0  0  0  0  0  0  0  0  0  0  0  0
    1.5878    1.7474    0.9675 H   0  0  0  0  0  0  0  0  0  0  0  0
    2.4832    0.2639   -0.3820 C   0  0  0  0  0  0  0  0  0  0  0  0
    3.6783   -0.4840   -0.6586 C   0  0  0  0  0  0  0  0  0  0  0  0
    4.8562   -0.2772    0.1288 C   0  0  0  0  0  0  0  0  0  0  0  0
  1  2  2  0  0  0  0
  2  3  1  0  0  0  0
  4  2  1  0  0  0  0
  4 21  1  0  0  0  0
  5  4  2  0  0  0  0
  6  5  1  0  0  0  0
  7  5  1  0  0  0  0
  7  8  1  1  0  0  0
  7  1  1  0  0  0  0
  8  9  1  0  0  0  0
 10  1  1  0  0  0  0
 10 19  1  0  0  0  0
 11 10  2  0  0  0  0
 12 11  1  0  0  0  0
 13 11  1  0  0  0  0
 13 15  2  0  0  0  0
 14 13  1  0  0  0  0
 15 17  1  0  0  0  0
 16 15  1  0  0  0  0
 17 19  2  0  0  0  0
 17 18  1  0  0  0  0
 19 20  1  0  0  0  0
 21 22  1  0  0  0  0
 22 24  2  0  0  0  0
 22 23  1  0  0  0  0
 24 25  1  0  0  0  0
 26 27  1  0  0  0  0
 26 24  1  0  0  0  0
 28 26  2  0  0  0  0
 29 28  1  0  0  0  0
 30 28  1  0  0  0  0
 30 21  2  0  0  0  0
 31 30  1  0  0  0  0
 32  8  1  0  0  0  0
 32 54  1  0  0  0  0
 33 32  2  0  0  0  0
 34 33  1  0  0  0  0
 35 33  1  0  0  0  0
 35 37  2  0  0  0  0
 36 35  1  0  0  0  0
 37 55  1  0  0  0  0
 38 37  1  0  0  0  0
 38 40  2  0  0  0  0
 39 38  1  0  0  0  0
 40 42  1  0  0  0  0
 41 40  1  0  0  0  0
 42 56  2  0  0  0  0
 42 43  1  0  0  0  0
 43 45  2  0  0  0  0
 44 43  1  0  0  0  0
 45 47  1  0  0  0  0
 45 46  1  0  0  0  0
 47 48  1  0  0  0  0
 49 50  1  0  0  0  0
 49 47  2  0  0  0  0
 50 51  1  0  0  0  0
 52 53  1  0  0  0  0
 52 50  2  0  0  0  0
 54 52  1  0  0  0  0
 55 54  2  0  0  0  0
 55 56  1  0  0  0  0
 56 49  1  0  0  0  0
M  END
