4
q = 0.0, confidence = 0.984

 34 36  0  0  0  0  0  0  0  0999 V2000
    3.3734    0.8389    0.6210 N   0  0  0  0  0  0  0  0  0  0  0  0
    3.3790   -0.9370   -0.5596 N   0  0  0  0  0  0  0  0  0  0  0  0
    4.6966   -0.6474   -0.3571 N   0  0  0  0  0  0  0  0  0  0  0  0
    2.5283   -0.0575    0.0209 C   0  0  0  0  0  2  0  0  0  0  0  0
    4.6705    0.4490    0.3643 C   0  0  0  0  0  0  0  0  0  0  0  0
    5.5560    0.9861    0.7243 H   0  0  0  0  0  0  0  0  0  0  0  0
    2.9535    2.0126    1.3857 C   0  0  0  0  0  0  0  0  0  0  0  0
    3.8603    2.4056    1.8902 H   0  0  0  0  0  0  0  0  0  0  0  0
    2.2642    1.6705    2.1837 H   0  0  0  0  0  0  0  0  0  0  0  0
    2.2956    3.1007    0.5563 C   0  0  0  0  0  0  0  0  0  0  0  0
    1.5862    4.1138    1.2310 C   0  0  0  0  0  0  0  0  0  0  0  0
    1.4929    4.0800    2.3283 H   0  0  0  0  0  0  0  0  0  0  0  0
    1.0059    5.1714    0.5164 C   0  0  0  0  0  0  0  0  0  0  0  0
    0.4686    5.9651    1.0571 H   0  0  0  0  0  0  0  0  0  0  0  0
    1.1137    5.2201   -0.8835 C   0  0  0  0  0  0  0  0  0  0  0  0
    0.6613    6.0514   -1.4446 H   0  0  0  0  0  0  0  0  0  0  0  0
    1.8092    4.2078   -1.5612 C   0  0  0  0  0  0  0  0  0  0  0  0
    1.9006    4.2387   -2.6571 H   0  0  0  0  0  0  0  0  0  0  0  0
    2.4027    3.1557   -0.8452 C   0  0  0  0  0  0  0  0  0  0  0  0
    2.9536    2.3761   -1.3920 H   0  0  0  0  0  0  0  0  0  0  0  0
    3.0134   -2.1167   -1.3438 C   0  0  0  0  0  0  0  0  0  0  0  0
    3.9773   -2.5261   -1.7065 H   0  0  0  0  0  0  0  0  0  0  0  0
    2.4368   -1.7826   -2.2295 H   0  0  0  0  0  0  0  0  0  0  0  0
    2.2368   -3.1612   -0.5673 C   0  0  0  0  0  0  0  0  0  0  0  0
    1.4074   -4.0533   -1.2739 C   0  0  0  0  0  0  0  0  0  0  0  0
    1.2921   -3.9462   -2.3642 H   0  0  0  0  0  0  0  0  0  0  0  0
    0.7398   -5.0875   -0.6008 C   0  0  0  0  0  0  0  0  0  0  0  0
    0.1137   -5.7927   -1.1683 H   0  0  0  0  0  0  0  0  0  0  0  0
    0.8747   -5.2265    0.7899 C   0  0  0  0  0  0  0  0  0  0  0  0
    0.3536   -6.0389    1.3182 H   0  0  0  0  0  0  0  0  0  0  0  0
    1.6884   -4.3308    1.5015 C   0  0  0  0  0  0  0  0  0  0  0  0
    1.8037   -4.4359    2.5905 H   0  0  0  0  0  0  0  0  0  0  0  0
    2.3732   -3.3094    0.8259 C   0  0  0  0  0  0  0  0  0  0  0  0
    3.0258   -2.6280    1.3923 H   0  0  0  0  0  0  0  0  0  0  0  0
  1  7  1  0  0  0  0
  2  3  1  0  0  0  0
  2  4  1  0  0  0  0
  3  5  2  0  0  0  0
  4  1  1  0  0  0  0
  5  1  1  0  0  0  0
  5  6  1  0  0  0  0
  7  8  1  0  0  0  0
  7  9  1  0  0  0  0
 10 11  1  0  0  0  0
 10  7  1  0  0  0  0
 11 12  1  0  0  0  0
 13 14  1  0  0  0  0
 13 11  2  0  0  0  0
 15 13  1  0  0  0  0
 16 15  1  0  0  0  0
 17 15  2  0  0  0  0
 17 19  1  0  0  0  0
 18 17  1  0  0  0  0
 19 10  2  0  0  0  0
 20 19  1  0  0  0  0
 21 24  1  0  0  0  0
 21  2  1  0  0  0  0
 22 21  1  0  0  0  0
 23 21  1  0  0  0  0
 24 33  1  0  0  0  0
 25 27  1  0  0  0  0
 25 24  2  0  0  0  0
 26 25  1  0  0  0  0
 27 29  2  0  0  0  0
 28 27  1  0  0  0  0
 29 30  1  0  0  0  0
 29 31  1  0  0  0  0
 31 32  1  0  0  0  0
 33 34  1  0  0  0  0
 33 31  2  0  0  0  0
M  END
