15
q = -1.0

 16 16  0  0  0  0  0  0  0  0999 V2000
    4.7288    0.9031   -0.0113 S   0  0  0  0  0  0  0  0  0  0  0  0
    2.4770   -0.6100   -0.0094 C   0  0  0  0  0  2  0  0  0  0  0  0
    6.7495   -0.8799    0.0107 N   0  0  0  0  0  0  0  0  0  0  0  0
    8.0502   -1.2176    0.0203 C   0  0  0  0  0  0  0  0  0  0  0  0
    8.2677   -2.3010    0.0281 H   0  0  0  0  0  0  0  0  0  0  0  0
    3.9192   -0.7614   -0.0070 C   0  0  0  0  0  0  0  0  0  0  0  0
    4.2950   -1.3142   -0.8934 H   0  0  0  0  0  0  0  0  0  0  0  0
    4.2929   -1.3080    0.8840 H   0  0  0  0  0  0  0  0  0  0  0  0
    7.4120    1.4516    0.0004 C   0  0  0  0  0  0  0  0  0  0  0  0
    7.1079    2.5091   -0.0078 H   0  0  0  0  0  0  0  0  0  0  0  0
    8.7566    1.0812    0.0105 C   0  0  0  0  0  0  0  0  0  0  0  0
    9.5412    1.8536    0.0103 H   0  0  0  0  0  0  0  0  0  0  0  0
    9.0954   -0.2858    0.0208 C   0  0  0  0  0  0  0  0  0  0  0  0
   10.1436   -0.6179    0.0289 H   0  0  0  0  0  0  0  0  0  0  0  0
    1.2478   -0.4696   -0.0113 C   0  0  0  0  0  1  0  0  0  0  0  0
    6.4337    0.4239    0.0010 C   0  0  0  0  0  0  0  0  0  0  0  0
  1  6  1  0  0  0  0
  1 16  1  0  0  0  0
  2  6  1  0  0  0  0
  3  4  1  0  0  0  0
  4 13  2  0  0  0  0
  4  5  1  0  0  0  0
  6  8  1  0  0  0  0
  7  6  1  0  0  0  0
  9 16  1  0  0  0  0
  9 11  2  0  0  0  0
 10  9  1  0  0  0  0
 11 13  1  0  0  0  0
 12 11  1  0  0  0  0
 13 14  1  0  0  0  0
 15  2  1  0  0  0  0
 16  3  2  0  0  0  0
M  END
