11
q = 0.0, confidence = 0.996

 46 48  0  0  0  0  0  0  0  0999 V2000
    3.5119   -0.6996   -0.0249 C   0  0  0  0  0  3  0  0  0  0  0  0
    3.3661   -1.7899   -0.0418 H   0  0  0  0  0  0  0  0  0  0  0  0
    4.7791   -0.1196   -0.0207 C   0  0  0  0  0  0  0  0  0  0  0  0
    5.6753   -0.7566   -0.0338 H   0  0  0  0  0  0  0  0  0  0  0  0
    4.9330    1.2929   -0.0039 C   0  0  0  0  0  0  0  0  0  0  0  0
    5.9475    1.7196   -0.0068 H   0  0  0  0  0  0  0  0  0  0  0  0
    3.8386    2.1597    0.0132 C   0  0  0  0  0  0  0  0  0  0  0  0
    3.9766    3.2502    0.0203 H   0  0  0  0  0  0  0  0  0  0  0  0
    2.5579    1.5672    0.0179 C   0  0  0  0  0  0  0  0  0  0  0  0
    2.3831    0.1488   -0.0103 C   0  0  0  0  0  0  0  0  0  0  0  0
    0.9708   -0.1288   -0.0198 C   0  0  0  0  0  3  0  0  0  0  0  0
   -1.0231    1.3875    0.0295 C   0  0  0  0  0  0  0  0  0  0  0  0
   -1.6608    1.4870    1.2892 C   0  0  0  0  0  0  0  0  0  0  0  0
   -3.0387    1.7712    1.2894 C   0  0  0  0  0  0  0  0  0  0  0  0
   -3.5737    1.8452    2.2480 H   0  0  0  0  0  0  0  0  0  0  0  0
   -3.7391    1.9462    0.0892 C   0  0  0  0  0  0  0  0  0  0  0  0
   -4.8179    2.1622    0.1128 H   0  0  0  0  0  0  0  0  0  0  0  0
   -3.0784    1.8379   -1.1410 C   0  0  0  0  0  0  0  0  0  0  0  0
   -3.6446    1.9635   -2.0758 H   0  0  0  0  0  0  0  0  0  0  0  0
   -1.7013    1.5572   -1.2009 C   0  0  0  0  0  0  0  0  0  0  0  0
    0.9304    3.5214   -0.0803 C   0  0  0  0  0  0  0  0  0  0  0  0
    0.0568    3.7395    0.5629 H   0  0  0  0  0  0  0  0  0  0  0  0
    0.6783    3.7897   -1.1288 H   0  0  0  0  0  0  0  0  0  0  0  0
    1.7800    4.1424    0.2582 H   0  0  0  0  0  0  0  0  0  0  0  0
   -0.9961    1.3794   -2.5382 C   0  0  0  0  0  0  0  0  0  0  0  0
    0.0952    1.3391   -2.3409 H   0  0  0  0  0  0  0  0  0  0  0  0
   -1.3906    0.0307   -3.1676 C   0  0  0  0  0  0  0  0  0  0  0  0
   -1.1628   -0.8095   -2.4798 H   0  0  0  0  0  0  0  0  0  0  0  0
   -0.8373   -0.1342   -4.1144 H   0  0  0  0  0  0  0  0  0  0  0  0
   -2.4763    0.0013   -3.3942 H   0  0  0  0  0  0  0  0  0  0  0  0
   -1.2512    2.5528   -3.4970 C   0  0  0  0  0  0  0  0  0  0  0  0
   -0.9701    3.5259   -3.0440 H   0  0  0  0  0  0  0  0  0  0  0  0
   -2.3186    2.6184   -3.7917 H   0  0  0  0  0  0  0  0  0  0  0  0
   -0.6625    2.4243   -4.4276 H   0  0  0  0  0  0  0  0  0  0  0  0
   -0.9129    1.2453    2.5927 C   0  0  0  0  0  0  0  0  0  0  0  0
    0.1674    1.1682    2.3535 H   0  0  0  0  0  0  0  0  0  0  0  0
   -1.3377   -0.1005    3.2076 C   0  0  0  0  0  0  0  0  0  0  0  0
   -1.1698   -0.9322    2.4930 H   0  0  0  0  0  0  0  0  0  0  0  0
   -2.4135   -0.0939    3.4791 H   0  0  0  0  0  0  0  0  0  0  0  0
   -0.7538   -0.3091    4.1270 H   0  0  0  0  0  0  0  0  0  0  0  0
   -1.0840    2.4078    3.5836 C   0  0  0  0  0  0  0  0  0  0  0  0
   -0.7668    3.3753    3.1426 H   0  0  0  0  0  0  0  0  0  0  0  0
   -0.4753    2.2313    4.4933 H   0  0  0  0  0  0  0  0  0  0  0  0
   -2.1385    2.5180    3.9098 H   0  0  0  0  0  0  0  0  0  0  0  0
    0.3825    1.0945   -0.0019 N   0  0  0  0  0  0  0  0  0  0  0  0
    1.3130    2.1366    0.0512 N   0  0  0  0  0  0  0  0  0  0  0  0
  1  3  1  0  0  0  0
  1 10  1  0  0  0  0
  2  1  1  0  0  0  0
  3  5  2  0  0  0  0
  4  3  1  0  0  0  0
  5  7  1  0  0  0  0
  6  5  1  0  0  0  0
  7  9  2  0  0  0  0
  7  8  1  0  0  0  0
  9 46  1  0  0  0  0
 10  9  1  0  0  0  0
 11 10  2  0  0  0  0
 11 45  1  0  0  0  0
 12 13  1  0  0  0  0
 13 14  2  0  0  0  0
 13 35  1  0  0  0  0
 14 15  1  0  0  0  0
 16 17  1  0  0  0  0
 16 14  1  0  0  0  0
 18 16  2  0  0  0  0
 19 18  1  0  0  0  0
 20 18  1  0  0  0  0
 20 12  2  0  0  0  0
 21 46  1  0  0  0  0
 21 24  1  0  0  0  0
 21 22  1  0  0  0  0
 23 21  1  0  0  0  0
 25 26  1  0  0  0  0
 25 20  1  0  0  0  0
 27 25  1  0  0  0  0
 27 28  1  0  0  0  0
 29 27  1  0  0  0  0
 30 27  1  0  0  0  0
 31 32  1  0  0  0  0
 31 25  1  0  0  0  0
 33 31  1  0  0  0  0
 34 31  1  0  0  0  0
 35 37  1  0  0  0  0
 35 41  1  0  0  0  0
 36 35  1  0  0  0  0
 37 39  1  0  0  0  0
 37 40  1  0  0  0  0
 38 37  1  0  0  0  0
 41 44  1  0  0  0  0
 41 43  1  0  0  0  0
 42 41  1  0  0  0  0
 45 12  1  0  0  0  0
 45 46  1  0  0  0  0
M  END
