5
q = -1.0

 29 29  0  0  1  0  0  0  0  0999 V2000
    0.7740    2.1699   -0.9765 C   0  0  0  0  0  0  0  0  0  0  0  0
    1.4749    0.9762   -0.8802 C   0  0  0  0  0  0  0  0  0  0  0  0
    2.0909    0.4447    0.4028 C   0  0  1  0  0  0  0  0  0  0  0  0
    0.9573   -0.3095    1.1001 C   0  0  0  0  0  3  0  0  0  0  0  0
   -0.1079    0.2983    1.8111 C   0  0  0  0  0  3  0  0  0  0  0  0
   -0.6429    1.6107    1.5592 C   0  0  0  0  0  3  0  0  0  0  0  0
    0.1360    2.8600    1.3088 C   0  0  0  0  0  0  0  0  0  0  0  0
    0.7259    3.1483    0.1329 C   0  0  0  0  0  0  0  0  0  0  0  0
    3.6122   -0.6717    0.0770 Si  0  0  0  0  0  0  0  0  0  0  0  0
    3.0674   -2.1769   -0.9336 C   0  0  0  0  0  0  0  0  0  0  0  0
    4.3075   -1.2247    1.7464 C   0  0  0  0  0  0  0  0  0  0  0  0
    4.8932    0.3372   -0.8810 C   0  0  0  0  0  0  0  0  0  0  0  0
    2.3031   -2.7740   -0.3956 H   0  0  0  0  0  0  0  0  0  0  0  0
    2.6322   -1.8868   -1.9115 H   0  0  0  0  0  0  0  0  0  0  0  0
    3.9315   -2.8426   -1.1362 H   0  0  0  0  0  0  0  0  0  0  0  0
    3.5489   -1.7793    2.3357 H   0  0  0  0  0  0  0  0  0  0  0  0
    5.1822   -1.8934    1.6100 H   0  0  0  0  0  0  0  0  0  0  0  0
    4.6364   -0.3542    2.3502 H   0  0  0  0  0  0  0  0  0  0  0  0
    4.4811    0.6999   -1.8449 H   0  0  0  0  0  0  0  0  0  0  0  0
    5.2214    1.2222   -0.2979 H   0  0  0  0  0  0  0  0  0  0  0  0
    5.7921   -0.2723   -1.1073 H   0  0  0  0  0  0  0  0  0  0  0  0
    0.4705    2.5049   -1.9841 H   0  0  0  0  0  0  0  0  0  0  0  0
    1.6597    0.4122   -1.8093 H   0  0  0  0  0  0  0  0  0  0  0  0
    2.4237    1.2930    1.0398 H   0  0  0  0  0  0  0  0  0  0  0  0
    1.0868   -1.3888    1.2863 H   0  0  0  0  0  0  0  0  0  0  0  0
   -0.6934   -0.3663    2.4685 H   0  0  0  0  0  0  0  0  0  0  0  0
   -1.5873    1.7972    2.0996 H   0  0  0  0  0  0  0  0  0  0  0  0
    0.1808    3.5924    2.1357 H   0  0  0  0  0  0  0  0  0  0  0  0
    1.2448    4.1121   -0.0141 H   0  0  0  0  0  0  0  0  0  0  0  0
  1  2  2  0  0  0  0
  1  8  1  0  0  0  0
  2  3  1  0  0  0  0
  3 24  1  1  0  0  0
  3  4  1  0  0  0  0
  4 25  1  0  0  0  0
  4  5  1  0  0  0  0
  5 26  1  0  0  0  0
  6  5  1  0  0  0  0
  6 27  1  0  0  0  0
  7  6  1  0  0  0  0
  7 28  1  0  0  0  0
  8  7  2  0  0  0  0
  9  3  1  0  0  0  0
  9 11  1  0  0  0  0
 10 13  1  0  0  0  0
 10  9  1  0  0  0  0
 11 16  1  0  0  0  0
 11 18  1  0  0  0  0
 12 20  1  0  0  0  0
 12  9  1  0  0  0  0
 14 10  1  0  0  0  0
 15 10  1  0  0  0  0
 17 11  1  0  0  0  0
 19 12  1  0  0  0  0
 21 12  1  0  0  0  0
 22  1  1  0  0  0  0
 23  2  1  0  0  0  0
 29  8  1  0  0  0  0
M  END
