12
q = -1.0, confidence = 0.0

 27 29  0  0  1  0  0  0  0  0999 V2000
   -1.6162   -0.8040   -0.6167 O   0  0  0  0  0  0  0  0  0  0  0  0
   -2.6467    1.1947   -0.0088 N   0  0  0  0  0  0  0  0  0  0  0  0
   -2.5675    2.1470    0.3502 H   0  0  0  0  0  0  0  0  0  0  0  0
    0.3584    1.1696   -1.3834 C   0  0  0  0  0  3  0  0  0  0  0  0
   -0.0459    0.7295   -2.3010 H   0  0  0  0  0  0  0  0  0  0  0  0
    1.5458    1.9744   -1.2474 C   0  0  0  0  0  0  0  0  0  0  0  0
    2.2292    2.2536   -2.0582 H   0  0  0  0  0  0  0  0  0  0  0  0
    1.6756    2.3563    0.1239 C   0  0  0  0  0  0  0  0  0  0  0  0
    2.4739    2.9783    0.5459 H   0  0  0  0  0  0  0  0  0  0  0  0
    0.5720    1.7877    0.8566 C   0  0  0  0  0  3  0  0  0  0  0  0
    0.3690    1.9079    1.9273 H   0  0  0  0  0  0  0  0  0  0  0  0
   -0.2269    1.0426   -0.0802 C   0  0  1  0  0  3  0  0  0  0  0  0
   -1.5101    0.3188    0.2289 C   0  0  2  0  0  0  0  0  0  0  0  0
   -1.4848   -0.0280    1.2981 H   0  0  0  0  0  0  0  0  0  0  0  0
   -2.7381   -1.6163   -0.2788 C   0  0  0  0  0  0  0  0  0  0  0  0
   -2.5081   -2.2150    0.6372 H   0  0  0  0  0  0  0  0  0  0  0  0
   -2.8493   -2.3341   -1.1165 H   0  0  0  0  0  0  0  0  0  0  0  0
   -4.0054   -0.8071   -0.0932 C   0  0  0  0  0  0  0  0  0  0  0  0
   -5.2704   -1.4124   -0.0563 C   0  0  0  0  0  0  0  0  0  0  0  0
   -5.3400   -2.5069   -0.1676 H   0  0  0  0  0  0  0  0  0  0  0  0
   -6.4379   -0.6528    0.1112 C   0  0  0  0  0  0  0  0  0  0  0  0
   -7.4211   -1.1447    0.1360 H   0  0  0  0  0  0  0  0  0  0  0  0
   -6.3350    0.7428    0.2381 C   0  0  0  0  0  0  0  0  0  0  0  0
   -7.2410    1.3549    0.3646 H   0  0  0  0  0  0  0  0  0  0  0  0
   -5.0834    1.3678    0.2053 C   0  0  0  0  0  0  0  0  0  0  0  0
   -5.0042    2.4623    0.3025 H   0  0  0  0  0  0  0  0  0  0  0  0
   -3.9064    0.6027    0.0470 C   0  0  0  0  0  0  0  0  0  0  0  0
  1 15  1  0  0  0  0
  1 13  1  0  0  0  0
  2 27  1  0  0  0  0
  2 13  1  0  0  0  0
  2  3  1  0  0  0  0
  4  6  1  0  0  0  0
  5  4  1  0  0  0  0
  6  8  2  0  0  0  0
  7  6  1  0  0  0  0
  8  9  1  0  0  0  0
  8 10  1  0  0  0  0
 10 11  1  0  0  0  0
 12  4  1  6  0  0  0
 12 13  1  0  0  0  0
 12 10  1  0  0  0  0
 13 14  1  1  0  0  0
 15 18  1  0  0  0  0
 15 16  1  0  0  0  0
 17 15  1  0  0  0  0
 18 19  2  0  0  0  0
 18 27  1  0  0  0  0
 19 21  1  0  0  0  0
 20 19  1  0  0  0  0
 21 22  1  0  0  0  0
 21 23  2  0  0  0  0
 23 24  1  0  0  0  0
 25 23  1  0  0  0  0
 25 26  1  0  0  0  0
 27 25  2  0  0  0  0
M  END
