4
q = 0.0, confidence = 0.996

 37 38  0  0  1  0  0  0  0  0999 V2000
   -2.7914    0.1385    1.8422 O   0  0  0  0  0  0  0  0  0  0  0  0
   -2.0660   -2.0004    2.1867 O   0  0  0  0  0  0  0  0  0  0  0  0
   -1.0578    1.2023    0.6699 N   0  0  0  0  0  0  0  0  0  0  0  0
    0.2113    0.9120    0.3737 C   0  0  0  0  0  2  0  0  0  0  0  0
    1.1336    2.0803    0.4763 C   0  0  0  0  0  0  0  0  0  0  0  0
    1.8385    2.3227    1.6761 C   0  0  0  0  0  0  0  0  0  0  0  0
    2.7370    3.3947    1.7628 C   0  0  0  0  0  0  0  0  0  0  0  0
    2.9453    4.2373    0.6589 C   0  0  0  0  0  0  0  0  0  0  0  0
    2.2449    4.0015   -0.5347 C   0  0  0  0  0  0  0  0  0  0  0  0
    1.3406    2.9339   -0.6286 C   0  0  0  0  0  0  0  0  0  0  0  0
   -1.5582    2.5495    1.0000 C   0  0  0  0  0  0  0  0  0  0  0  0
   -2.1178    0.1826    0.5837 C   0  0  2  0  0  0  0  0  0  0  0  0
   -3.0848    0.4875   -0.5432 C   0  0  0  0  0  0  0  0  0  0  0  0
   -4.4654    0.6250   -0.3224 C   0  0  0  0  0  0  0  0  0  0  0  0
   -5.3273    0.8923   -1.3980 C   0  0  0  0  0  0  0  0  0  0  0  0
   -4.8157    1.0244   -2.6973 C   0  0  0  0  0  0  0  0  0  0  0  0
   -3.4355    0.8855   -2.9210 C   0  0  0  0  0  0  0  0  0  0  0  0
   -2.5729    0.6178   -1.8502 C   0  0  0  0  0  0  0  0  0  0  0  0
   -2.6722   -1.0286    2.5745 C   0  0  0  0  0  0  0  0  0  0  0  0
   -3.4104   -0.8925    3.8790 C   0  0  0  0  0  0  0  0  0  0  0  0
    1.6932    1.6465    2.5325 H   0  0  0  0  0  0  0  0  0  0  0  0
    3.2872    3.5666    2.7003 H   0  0  0  0  0  0  0  0  0  0  0  0
    3.6592    5.0716    0.7263 H   0  0  0  0  0  0  0  0  0  0  0  0
    2.4062    4.6524   -1.4074 H   0  0  0  0  0  0  0  0  0  0  0  0
    0.8050    2.7447   -1.5706 H   0  0  0  0  0  0  0  0  0  0  0  0
   -2.4138    2.4480    1.6911 H   0  0  0  0  0  0  0  0  0  0  0  0
   -1.8967    3.0660    0.0798 H   0  0  0  0  0  0  0  0  0  0  0  0
   -0.7597    3.1421    1.4758 H   0  0  0  0  0  0  0  0  0  0  0  0
   -1.6034   -0.7833    0.4226 H   0  0  0  0  0  0  0  0  0  0  0  0
   -4.8609    0.5204    0.6976 H   0  0  0  0  0  0  0  0  0  0  0  0
   -6.4077    0.9982   -1.2168 H   0  0  0  0  0  0  0  0  0  0  0  0
   -5.4929    1.2329   -3.5393 H   0  0  0  0  0  0  0  0  0  0  0  0
   -3.0268    0.9803   -3.9382 H   0  0  0  0  0  0  0  0  0  0  0  0
   -1.4928    0.5013   -2.0264 H   0  0  0  0  0  0  0  0  0  0  0  0
   -3.2791   -1.8120    4.4740 H   0  0  0  0  0  0  0  0  0  0  0  0
   -4.4878   -0.7173    3.6871 H   0  0  0  0  0  0  0  0  0  0  0  0
   -3.0328   -0.0151    4.4400 H   0  0  0  0  0  0  0  0  0  0  0  0
  1 19  1  0  0  0  0
  2 19  2  0  0  0  0
  3 11  1  0  0  0  0
  4  5  1  0  0  0  0
  4  3  1  0  0  0  0
  5  6  1  0  0  0  0
  6  7  2  0  0  0  0
  6 21  1  0  0  0  0
  7 22  1  0  0  0  0
  8 23  1  0  0  0  0
  8  7  1  0  0  0  0
  9  8  2  0  0  0  0
 10  9  1  0  0  0  0
 10  5  2  0  0  0  0
 11 28  1  0  0  0  0
 11 26  1  0  0  0  0
 12 29  1  6  0  0  0
 12  3  1  0  0  0  0
 12  1  1  0  0  0  0
 13 14  1  0  0  0  0
 13 12  1  0  0  0  0
 14 30  1  0  0  0  0
 15 31  1  0  0  0  0
 15 14  2  0  0  0  0
 16 15  1  0  0  0  0
 17 16  2  0  0  0  0
 17 18  1  0  0  0  0
 18 13  2  0  0  0  0
 19 20  1  0  0  0  0
 20 37  1  0  0  0  0
 20 35  1  0  0  0  0
 24  9  1  0  0  0  0
 25 10  1  0  0  0  0
 27 11  1  0  0  0  0
 32 16  1  0  0  0  0
 33 17  1  0  0  0  0
 34 18  1  0  0  0  0
 36 20  1  0  0  0  0
M  END
