10
q = -1.0

 30 32  0  0  1  0  0  0  0  0999 V2000
   -0.0444    2.7603    0.0331 O   0  0  0  0  0  0  0  0  0  0  0  0
   -2.4631    1.4473    0.4756 O   0  0  0  0  0  0  0  0  0  0  0  0
    1.5164    1.1084    2.1397 O   0  0  0  0  0  0  0  0  0  0  0  0
    1.4307    0.2301   -2.4137 O   0  0  0  0  0  0  0  0  0  0  0  0
    1.1308    0.8056   -0.1636 N   0  0  0  0  0  0  0  0  0  0  0  0
   -1.7824    3.7673   -1.3827 C   0  0  0  0  0  0  0  0  0  0  0  0
   -2.2897    2.7869    0.9243 C   0  0  0  0  0  0  0  0  0  0  0  0
   -1.2685    3.5049    0.0347 C   0  0  1  0  0  0  0  0  0  0  0  0
   -0.1916    1.3718   -0.2935 C   0  0  1  0  0  0  0  0  0  0  0  0
   -1.2465    0.7043    0.6032 C   0  0  0  0  0  3  0  0  0  0  0  0
    1.8959    0.7728    1.0342 C   0  0  0  0  0  0  0  0  0  0  0  0
    1.8575    0.3229   -1.2714 C   0  0  0  0  0  0  0  0  0  0  0  0
    3.2262    0.2177    0.6333 C   0  0  0  0  0  0  0  0  0  0  0  0
    4.3566   -0.0441    1.4075 C   0  0  0  0  0  0  0  0  0  0  0  0
    5.4778   -0.5914    0.7543 C   0  0  0  0  0  0  0  0  0  0  0  0
    5.4526   -0.8662   -0.6274 C   0  0  0  0  0  0  0  0  0  0  0  0
    4.3048   -0.6028   -1.3996 C   0  0  0  0  0  0  0  0  0  0  0  0
    3.2004   -0.0575   -0.7432 C   0  0  0  0  0  0  0  0  0  0  0  0
   -0.9656    4.1614   -2.0179 H   0  0  0  0  0  0  0  0  0  0  0  0
   -2.1764    2.8438   -1.8512 H   0  0  0  0  0  0  0  0  0  0  0  0
   -2.6055    4.5097   -1.3669 H   0  0  0  0  0  0  0  0  0  0  0  0
   -1.9292    2.7967    1.9804 H   0  0  0  0  0  0  0  0  0  0  0  0
   -3.2820    3.2812    0.8778 H   0  0  0  0  0  0  0  0  0  0  0  0
   -0.9986    4.4722    0.5105 H   0  0  0  0  0  0  0  0  0  0  0  0
   -0.4562    1.2582   -1.3680 H   0  0  0  0  0  0  0  0  0  0  0  0
   -0.8795    0.7972    1.6501 H   0  0  0  0  0  0  0  0  0  0  0  0
    4.3587    0.1713    2.4861 H   0  0  0  0  0  0  0  0  0  0  0  0
    6.3894   -0.8109    1.3304 H   0  0  0  0  0  0  0  0  0  0  0  0
    6.3451   -1.2945   -1.1081 H   0  0  0  0  0  0  0  0  0  0  0  0
    4.2692   -0.8144   -2.4784 H   0  0  0  0  0  0  0  0  0  0  0  0
  1  8  1  0  0  0  0
  2 10  1  0  0  0  0
  2  7  1  0  0  0  0
  4 12  2  0  0  0  0
  5 11  1  0  0  0  0
  6 21  1  0  0  0  0
  6  8  1  0  0  0  0
  7 22  1  0  0  0  0
  8 24  1  1  0  0  0
  8  7  1  0  0  0  0
  9 25  1  6  0  0  0
  9  5  1  0  0  0  0
  9  1  1  0  0  0  0
  9 10  1  0  0  0  0
 10 26  1  0  0  0  0
 11  3  2  0  0  0  0
 12 18  1  0  0  0  0
 12  5  1  0  0  0  0
 13 11  1  0  0  0  0
 13 14  1  0  0  0  0
 14 27  1  0  0  0  0
 15 28  1  0  0  0  0
 15 14  2  0  0  0  0
 16 15  1  0  0  0  0
 17 18  1  0  0  0  0
 17 16  2  0  0  0  0
 18 13  2  0  0  0  0
 19  6  1  0  0  0  0
 20  6  1  0  0  0  0
 23  7  1  0  0  0  0
 29 16  1  0  0  0  0
 30 17  1  0  0  0  0
M  END
