10
q = -1.0, confidence = 0.01

 30 32  0  0  1  0  0  0  0  0999 V2000
    0.1580    2.7153   -0.5520 O   0  0  0  0  0  0  0  0  0  0  0  0
    2.4970    1.3179    0.0504 O   0  0  0  0  0  0  0  0  0  0  0  0
   -1.4332    1.5803    1.8619 O   0  0  0  0  0  0  0  0  0  0  0  0
   -1.5840   -0.0958   -2.4602 O   0  0  0  0  0  0  0  0  0  0  0  0
   -1.1593    0.8473   -0.3590 N   0  0  0  0  0  0  0  0  0  0  0  0
    3.8765    3.2637   -0.0757 C   0  0  0  0  0  0  0  0  0  0  0  0
    2.4743    2.7456    0.1868 C   0  0  1  0  0  0  0  0  0  0  0  0
    1.4293    3.2941   -0.7856 C   0  0  0  0  0  0  0  0  0  0  0  0
    0.1905    1.2853   -0.6214 C   0  0  2  0  0  0  0  0  0  0  0  0
    1.2361    0.7178    0.3530 C   0  0  0  0  0  3  0  0  0  0  0  0
   -1.8769    1.0797    0.8464 C   0  0  0  0  0  0  0  0  0  0  0  0
   -1.9585    0.2272   -1.3420 C   0  0  0  0  0  0  0  0  0  0  0  0
   -3.2541    0.5554    0.5887 C   0  0  0  0  0  0  0  0  0  0  0  0
   -4.3670    0.5135    1.4286 C   0  0  0  0  0  0  0  0  0  0  0  0
   -5.5456   -0.0617    0.9153 C   0  0  0  0  0  0  0  0  0  0  0  0
   -5.5928   -0.5774   -0.3950 C   0  0  0  0  0  0  0  0  0  0  0  0
   -4.4623   -0.5347   -1.2337 C   0  0  0  0  0  0  0  0  0  0  0  0
   -3.3005    0.0401   -0.7165 C   0  0  0  0  0  0  0  0  0  0  0  0
    4.5932    2.7931    0.6247 H   0  0  0  0  0  0  0  0  0  0  0  0
    4.1953    3.0209   -1.1099 H   0  0  0  0  0  0  0  0  0  0  0  0
    3.9238    4.3625    0.0592 H   0  0  0  0  0  0  0  0  0  0  0  0
    2.1469    3.0043    1.2243 H   0  0  0  0  0  0  0  0  0  0  0  0
    1.3032    4.3899   -0.6679 H   0  0  0  0  0  0  0  0  0  0  0  0
    1.7739    3.0865   -1.8311 H   0  0  0  0  0  0  0  0  0  0  0  0
    0.4160    0.9738   -1.6676 H   0  0  0  0  0  0  0  0  0  0  0  0
    0.9206    1.0306    1.3733 H   0  0  0  0  0  0  0  0  0  0  0  0
   -4.3126    0.9157    2.4508 H   0  0  0  0  0  0  0  0  0  0  0  0
   -6.4456   -0.1124    1.5467 H   0  0  0  0  0  0  0  0  0  0  0  0
   -6.5291   -1.0209   -0.7662 H   0  0  0  0  0  0  0  0  0  0  0  0
   -4.4832   -0.9354   -2.2578 H   0  0  0  0  0  0  0  0  0  0  0  0
  2  7  1  0  0  0  0
  2 10  1  0  0  0  0
  4 12  2  0  0  0  0
  5 11  1  0  0  0  0
  6 21  1  0  0  0  0
  6  7  1  0  0  0  0
  6 19  1  0  0  0  0
  7 22  1  1  0  0  0
  8 23  1  0  0  0  0
  8  1  1  0  0  0  0
  8  7  1  0  0  0  0
  9 25  1  6  0  0  0
  9  1  1  0  0  0  0
  9  5  1  0  0  0  0
  9 10  1  0  0  0  0
 10 26  1  0  0  0  0
 11  3  2  0  0  0  0
 12 18  1  0  0  0  0
 12  5  1  0  0  0  0
 13 11  1  0  0  0  0
 13 14  1  0  0  0  0
 14 27  1  0  0  0  0
 15 14  2  0  0  0  0
 15 28  1  0  0  0  0
 16 15  1  0  0  0  0
 17 18  1  0  0  0  0
 17 16  2  0  0  0  0
 18 13  2  0  0  0  0
 20  6  1  0  0  0  0
 24  8  1  0  0  0  0
 29 16  1  0  0  0  0
 30 17  1  0  0  0  0
M  END
