12
q = -1.0

 12 11  0  0  0  0  0  0  0  0999 V2000
    8.0980   -0.7296    0.0153 C   0  0  0  0  0  0  0  0  0  0  0  0
    8.4610   -0.1931   -0.8868 H   0  0  0  0  0  0  0  0  0  0  0  0
    8.5876   -1.7241    0.0310 H   0  0  0  0  0  0  0  0  0  0  0  0
    8.4604   -0.1651    0.9004 H   0  0  0  0  0  0  0  0  0  0  0  0
    6.5747   -0.8494    0.0167 C   0  0  0  0  0  0  0  0  0  0  0  0
    6.2317   -1.4107    0.9120 H   0  0  0  0  0  0  0  0  0  0  0  0
    6.2322   -1.4385   -0.8607 H   0  0  0  0  0  0  0  0  0  0  0  0
    5.8656    0.5207   -0.0050 C   0  0  0  0  0  0  0  0  0  0  0  0
    6.2118    1.1201    0.8700 H   0  0  0  0  0  0  0  0  0  0  0  0
    6.2125    1.0924   -0.8980 H   0  0  0  0  0  0  0  0  0  0  0  0
    4.4071    0.4375   -0.0043 C   0  0  0  0  0  0  0  0  0  0  0  0
    3.1742    0.2876   -0.0022 C   0  0  0  0  0  3  0  0  0  0  0  0
  1  5  1  0  0  0  0
  1  3  1  0  0  0  0
  1  4  1  0  0  0  0
  2  1  1  0  0  0  0
  5  6  1  0  0  0  0
  7  5  1  0  0  0  0
  8 11  1  0  0  0  0
  8  5  1  0  0  0  0
  8  9  1  0  0  0  0
 10  8  1  0  0  0  0
 11 12  3  0  0  0  0
M  END
