10
q = 0.0, confidence = 0.894

 47 50  0  0  1  0  0  0  0  0999 V2000
   -3.1882   -2.5092   -0.3730 Si  0  0  0  0  0  0  0  0  0  0  0  0
   -1.6051    3.4514   -0.4313 C   0  0  0  0  0  0  0  0  0  0  0  0
   -2.5085    3.3675    0.5927 C   0  0  0  0  0  3  0  0  0  0  0  0
   -2.7269    2.1594    1.4182 C   0  0  0  0  0  0  0  0  0  0  0  0
   -1.7462    0.9810    1.2583 C   0  0  2  0  0  0  0  0  0  0  0  0
   -1.1784    0.9120   -0.1688 C   0  0  2  0  0  0  0  0  0  0  0  0
    0.1519    0.1161   -0.3879 C   0  0  2  0  0  0  0  0  0  0  0  0
    1.0284   -0.0790    0.8314 C   0  0  0  0  0  3  0  0  0  0  0  0
    1.9241    0.9454    1.2991 C   0  0  0  0  0  3  0  0  0  0  0  0
    2.6575    1.6170    0.2802 C   0  0  0  0  0  3  0  0  0  0  0  0
    2.3642    1.1701   -1.0559 C   0  0  0  0  0  3  0  0  0  0  0  0
    0.9019    0.9798   -1.4458 C   0  0  2  0  0  0  0  0  0  0  0  0
    0.2515    2.2996   -1.4942 N   0  0  0  0  0  2  0  0  0  0  0  0
   -0.7985    2.2623   -0.7393 C   0  0  0  0  0  0  0  0  0  0  0  0
   -2.4474   -0.3679    1.4524 C   0  0  0  0  0  0  0  0  0  0  0  0
   -3.1051   -0.6559    0.0740 C   0  0  1  0  0  0  0  0  0  0  0  0
   -2.3564    0.2514   -0.9537 C   0  0  0  0  0  0  0  0  0  0  0  0
   -1.4502   -3.2507   -0.5521 C   0  0  0  0  0  0  0  0  0  0  0  0
   -4.1232   -2.7109   -2.0072 C   0  0  0  0  0  0  0  0  0  0  0  0
   -4.1034   -3.4077    1.0197 C   0  0  0  0  0  0  0  0  0  0  0  0
   -1.3734    4.6915   -1.2370 C   0  0  0  0  0  0  0  0  0  0  0  0
   -3.6448    2.1136    2.2343 O   0  0  0  0  0  0  0  0  0  0  0  0
   -3.1465    4.2271    0.8546 H   0  0  0  0  0  0  0  0  0  0  0  0
   -0.9458    1.1638    2.0098 H   0  0  0  0  0  0  0  0  0  0  0  0
   -0.0898   -0.8831   -0.7917 H   0  0  0  0  0  0  0  0  0  0  0  0
    0.6267   -0.7643    1.5960 H   0  0  0  0  0  0  0  0  0  0  0  0
    2.1326    1.1163    2.3663 H   0  0  0  0  0  0  0  0  0  0  0  0
    3.4480    2.3438    0.5199 H   0  0  0  0  0  0  0  0  0  0  0  0
    3.0238    1.5310   -1.8608 H   0  0  0  0  0  0  0  0  0  0  0  0
    0.8567    0.5281   -2.4605 H   0  0  0  0  0  0  0  0  0  0  0  0
   -1.6953   -1.1393    1.7243 H   0  0  0  0  0  0  0  0  0  0  0  0
   -3.1854   -0.3136    2.2754 H   0  0  0  0  0  0  0  0  0  0  0  0
   -4.1629   -0.3187    0.1248 H   0  0  0  0  0  0  0  0  0  0  0  0
   -1.9683   -0.2871   -1.8438 H   0  0  0  0  0  0  0  0  0  0  0  0
   -3.0368    1.0367   -1.3417 H   0  0  0  0  0  0  0  0  0  0  0  0
   -0.9036   -2.8482   -1.4292 H   0  0  0  0  0  0  0  0  0  0  0  0
   -0.8260   -3.0751    0.3482 H   0  0  0  0  0  0  0  0  0  0  0  0
   -1.5239   -4.3493   -0.6908 H   0  0  0  0  0  0  0  0  0  0  0  0
   -5.1550   -2.3107   -1.9291 H   0  0  0  0  0  0  0  0  0  0  0  0
   -3.6129   -2.1729   -2.8327 H   0  0  0  0  0  0  0  0  0  0  0  0
   -4.1954   -3.7793   -2.2977 H   0  0  0  0  0  0  0  0  0  0  0  0
   -5.1245   -2.9958    1.1562 H   0  0  0  0  0  0  0  0  0  0  0  0
   -4.2002   -4.4918    0.8041 H   0  0  0  0  0  0  0  0  0  0  0  0
   -3.5658   -3.3019    1.9844 H   0  0  0  0  0  0  0  0  0  0  0  0
   -1.9634    5.5474   -0.8602 H   0  0  0  0  0  0  0  0  0  0  0  0
   -0.2939    4.9452   -1.2335 H   0  0  0  0  0  0  0  0  0  0  0  0
   -1.6298    4.5127   -2.3023 H   0  0  0  0  0  0  0  0  0  0  0  0
  1 16  1  0  0  0  0
  1 20  1  0  0  0  0
  2  3  1  0  0  0  0
  3 23  1  0  0  0  0
  3  4  1  0  0  0  0
  4 22  2  0  0  0  0
  5  4  1  0  0  0  0
  5 15  1  0  0  0  0
  5 24  1  1  0  0  0
  6 14  1  6  0  0  0
  6  5  1  0  0  0  0
  7 25  1  6  0  0  0
  7  6  1  0  0  0  0
  7  8  1  0  0  0  0
  8  9  1  0  0  0  0
  8 26  1  0  0  0  0
  9 27  1  0  0  0  0
 10 28  1  0  0  0  0
 10  9  1  0  0  0  0
 11 10  1  0  0  0  0
 12 30  1  6  0  0  0
 12 11  1  0  0  0  0
 12  7  1  0  0  0  0
 13 12  1  0  0  0  0
 13 14  1  0  0  0  0
 14  2  2  0  0  0  0
 15 31  1  0  0  0  0
 15 32  1  0  0  0  0
 16 33  1  1  0  0  0
 16 15  1  0  0  0  0
 17  6  1  0  0  0  0
 17 16  1  0  0  0  0
 18  1  1  0  0  0  0
 18 37  1  0  0  0  0
 19 39  1  0  0  0  0
 19  1  1  0  0  0  0
 20 42  1  0  0  0  0
 20 44  1  0  0  0  0
 21 46  1  0  0  0  0
 21 45  1  0  0  0  0
 21  2  1  0  0  0  0
 29 11  1  0  0  0  0
 34 17  1  0  0  0  0
 35 17  1  0  0  0  0
 36 18  1  0  0  0  0
 38 18  1  0  0  0  0
 40 19  1  0  0  0  0
 41 19  1  0  0  0  0
 43 20  1  0  0  0  0
 47 21  1  0  0  0  0
M  END
