1
q = -1.0, confidence = 0.002

 15 14  0  0  0  0  0  0  0  0999 V2000
   -0.7548   -1.7418   -0.2440 C   0  0  0  0  0  2  0  0  0  0  0  0
   -0.1828   -1.8108   -1.5096 O   0  0  0  0  0  0  0  0  0  0  0  0
   -0.4232   -2.8857   -2.4072 C   0  0  0  0  0  0  0  0  0  0  0  0
   -1.6207   -2.7838    0.0692 C   0  0  0  0  0  3  0  0  0  0  0  0
   -2.9970   -2.0625    1.9452 O   0  0  0  0  0  0  0  0  0  0  0  0
   -2.5834   -2.9045    1.1433 C   0  0  0  0  0  0  0  0  0  0  0  0
   -3.1159   -4.1821    1.1495 O   0  0  0  0  0  0  0  0  0  0  0  0
   -4.1441   -4.3983    2.1067 C   0  0  0  0  0  0  0  0  0  0  0  0
   -1.5033   -2.9899   -2.6475 H   0  0  0  0  0  0  0  0  0  0  0  0
   -0.0446   -3.8493   -2.0017 H   0  0  0  0  0  0  0  0  0  0  0  0
    0.1415   -2.6413   -3.3278 H   0  0  0  0  0  0  0  0  0  0  0  0
   -1.6719   -3.6465   -0.6101 H   0  0  0  0  0  0  0  0  0  0  0  0
   -4.4663   -5.4493    1.9849 H   0  0  0  0  0  0  0  0  0  0  0  0
   -5.0051   -3.7154    1.9429 H   0  0  0  0  0  0  0  0  0  0  0  0
   -3.7813   -4.2294    3.1427 H   0  0  0  0  0  0  0  0  0  0  0  0
  1  4  1  0  0  0  0
  2  1  1  0  0  0  0
  3 10  1  0  0  0  0
  3  2  1  0  0  0  0
  4  6  1  0  0  0  0
  6  7  1  0  0  0  0
  6  5  2  0  0  0  0
  7  8  1  0  0  0  0
  8 15  1  0  0  0  0
  9  3  1  0  0  0  0
 11  3  1  0  0  0  0
 12  4  1  0  0  0  0
 13  8  1  0  0  0  0
 14  8  1  0  0  0  0
M  END
