3
q = -1.0

 44 46  0  0  1  0  0  0  0  0999 V2000
    0.3185   -2.6567    1.7317 Br  0  0  0  0  0  0  0  0  0  0  0  0
   -1.6352    0.2107    0.9042 P   0  0  0  0  0  0  0  0  0  0  0  0
   -0.0491   -0.2368   -1.6059 C   0  0  0  0  0  3  0  0  0  0  0  0
   -0.4618    0.6009   -2.1809 H   0  0  0  0  0  0  0  0  0  0  0  0
   -0.3680   -0.5258   -0.2242 C   0  0  2  0  0  3  0  0  0  0  0  0
    0.4019   -1.7154    0.0981 C   0  0  0  0  0  0  0  0  0  0  0  0
    1.1531   -2.1386   -1.0402 C   0  0  0  0  0  0  0  0  0  0  0  0
    1.8006   -3.0215   -1.0851 H   0  0  0  0  0  0  0  0  0  0  0  0
    0.8636   -1.2172   -2.1121 C   0  0  0  0  0  3  0  0  0  0  0  0
    1.2594   -1.2725   -3.1330 H   0  0  0  0  0  0  0  0  0  0  0  0
   -1.6645    2.0038    0.3117 C   0  0  0  0  0  0  0  0  0  0  0  0
   -1.4489    2.0459   -0.7801 H   0  0  0  0  0  0  0  0  0  0  0  0
   -0.5700    2.7864    1.0639 C   0  0  0  0  0  0  0  0  0  0  0  0
   -0.7750    2.7125    2.1553 H   0  0  0  0  0  0  0  0  0  0  0  0
    0.4178    2.3112    0.9063 H   0  0  0  0  0  0  0  0  0  0  0  0
   -0.5337    4.2606    0.6451 C   0  0  0  0  0  0  0  0  0  0  0  0
   -0.2431    4.3289   -0.4269 H   0  0  0  0  0  0  0  0  0  0  0  0
    0.2564    4.7953    1.2123 H   0  0  0  0  0  0  0  0  0  0  0  0
   -1.8979    4.9276    0.8577 C   0  0  0  0  0  0  0  0  0  0  0  0
   -2.1174    4.9647    1.9485 H   0  0  0  0  0  0  0  0  0  0  0  0
   -1.8794    5.9808    0.5067 H   0  0  0  0  0  0  0  0  0  0  0  0
   -3.0132    4.1493    0.1491 C   0  0  0  0  0  0  0  0  0  0  0  0
   -4.0027    4.6091    0.3559 H   0  0  0  0  0  0  0  0  0  0  0  0
   -2.8624    4.2168   -0.9521 H   0  0  0  0  0  0  0  0  0  0  0  0
   -3.0338    2.6664    0.5531 C   0  0  0  0  0  0  0  0  0  0  0  0
   -3.8353    2.1429   -0.0065 H   0  0  0  0  0  0  0  0  0  0  0  0
   -3.2932    2.5777    1.6330 H   0  0  0  0  0  0  0  0  0  0  0  0
   -3.1908   -0.5281    0.1166 C   0  0  0  0  0  0  0  0  0  0  0  0
   -4.0059    0.0127    0.6522 H   0  0  0  0  0  0  0  0  0  0  0  0
   -3.3896   -0.3325   -1.3931 C   0  0  0  0  0  0  0  0  0  0  0  0
   -3.3206    0.7410   -1.6681 H   0  0  0  0  0  0  0  0  0  0  0  0
   -2.5678   -0.8510   -1.9337 H   0  0  0  0  0  0  0  0  0  0  0  0
   -4.7320   -0.9162   -1.8615 C   0  0  0  0  0  0  0  0  0  0  0  0
   -5.5630   -0.3453   -1.3890 H   0  0  0  0  0  0  0  0  0  0  0  0
   -4.8450   -0.7808   -2.9580 H   0  0  0  0  0  0  0  0  0  0  0  0
   -4.8565   -2.3981   -1.4860 C   0  0  0  0  0  0  0  0  0  0  0  0
   -5.8441   -2.7971   -1.7989 H   0  0  0  0  0  0  0  0  0  0  0  0
   -4.0917   -2.9798   -2.0489 H   0  0  0  0  0  0  0  0  0  0  0  0
   -4.6422   -2.6121    0.0178 C   0  0  0  0  0  0  0  0  0  0  0  0
   -4.6873   -3.6929    0.2678 H   0  0  0  0  0  0  0  0  0  0  0  0
   -5.4730   -2.1267    0.5780 H   0  0  0  0  0  0  0  0  0  0  0  0
   -3.3076   -2.0178    0.4908 C   0  0  0  0  0  0  0  0  0  0  0  0
   -3.1851   -2.1478    1.5861 H   0  0  0  0  0  0  0  0  0  0  0  0
   -2.4694   -2.5781    0.0182 H   0  0  0  0  0  0  0  0  0  0  0  0
  3  5  1  0  0  0  0
  4  3  1  0  0  0  0
  5  6  1  0  0  0  0
  5  2  1  6  0  0  0
  6  1  1  0  0  0  0
  7  6  2  0  0  0  0
  8  7  1  0  0  0  0
  9  3  1  0  0  0  0
  9  7  1  0  0  0  0
 10  9  1  0  0  0  0
 11 25  1  0  0  0  0
 11  2  1  0  0  0  0
 11 13  1  0  0  0  0
 12 11  1  0  0  0  0
 13 14  1  0  0  0  0
 15 13  1  0  0  0  0
 16 19  1  0  0  0  0
 16 13  1  0  0  0  0
 16 18  1  0  0  0  0
 17 16  1  0  0  0  0
 19 20  1  0  0  0  0
 21 19  1  0  0  0  0
 22 23  1  0  0  0  0
 22 25  1  0  0  0  0
 22 19  1  0  0  0  0
 24 22  1  0  0  0  0
 25 27  1  0  0  0  0
 26 25  1  0  0  0  0
 28 42  1  0  0  0  0
 28 29  1  0  0  0  0
 28  2  1  0  0  0  0
 30 28  1  0  0  0  0
 31 30  1  0  0  0  0
 32 30  1  0  0  0  0
 33 36  1  0  0  0  0
 33 30  1  0  0  0  0
 33 34  1  0  0  0  0
 35 33  1  0  0  0  0
 36 39  1  0  0  0  0
 37 36  1  0  0  0  0
 38 36  1  0  0  0  0
 39 40  1  0  0  0  0
 39 42  1  0  0  0  0
 39 41  1  0  0  0  0
 42 43  1  0  0  0  0
 44 42  1  0  0  0  0
M  END
