11
q = -1.0

 19 20  0  0  1  0  0  0  0  0999 V2000
    3.5081   -2.0487   -0.4664 F   0  0  0  0  0  0  0  0  0  0  0  0
    1.9379    1.8798    1.7878 F   0  0  0  0  0  0  0  0  0  0  0  0
    5.6584   -0.6095   -1.2117 F   0  0  0  0  0  0  0  0  0  0  0  0
    4.1621    3.1172    0.9137 F   0  0  0  0  0  0  0  0  0  0  0  0
    2.8348    1.1807    1.0681 C   0  0  0  0  0  0  0  0  0  0  0  0
    2.6132   -0.1794    0.7417 C   0  0  0  0  0  0  0  0  0  0  0  0
    4.9026    1.2394   -0.1320 N   0  0  0  0  0  0  0  0  0  0  0  0
   -0.1032   -2.6411    1.6478 C   0  0  0  0  0  3  0  0  0  0  0  0
   -0.5653   -3.6343    1.6999 H   0  0  0  0  0  0  0  0  0  0  0  0
    1.4185   -0.9190    1.1948 C   0  0  1  0  0  3  0  0  0  0  0  0
    1.1130   -2.3225    0.9553 C   0  0  0  0  0  3  0  0  0  0  0  0
    1.7414   -3.0334    0.4124 H   0  0  0  0  0  0  0  0  0  0  0  0
    3.6160   -0.7779   -0.0577 C   0  0  0  0  0  0  0  0  0  0  0  0
    0.3597   -0.4107    2.0483 C   0  0  0  0  0  0  0  0  0  0  0  0
    0.2790    0.6123    2.4262 H   0  0  0  0  0  0  0  0  0  0  0  0
    3.9886    1.8354    0.6053 C   0  0  0  0  0  0  0  0  0  0  0  0
    4.7346   -0.0257   -0.4610 C   0  0  0  0  0  0  0  0  0  0  0  0
   -0.5485   -1.4643    2.3249 C   0  0  0  0  0  0  0  0  0  0  0  0
   -1.4550   -1.3734    2.9367 H   0  0  0  0  0  0  0  0  0  0  0  0
  1 13  1  0  0  0  0
  3 17  1  0  0  0  0
  5  2  1  0  0  0  0
  6  5  1  0  0  0  0
  7 16  1  0  0  0  0
  8  9  1  0  0  0  0
  8 18  1  0  0  0  0
 10  6  1  1  0  0  0
 10 14  1  0  0  0  0
 11 10  1  0  0  0  0
 11  8  1  0  0  0  0
 12 11  1  0  0  0  0
 13  6  2  0  0  0  0
 14 18  2  0  0  0  0
 14 15  1  0  0  0  0
 16  4  1  0  0  0  0
 16  5  2  0  0  0  0
 17  7  2  0  0  0  0
 17 13  1  0  0  0  0
 18 19  1  0  0  0  0
M  END
