7
q = 0.0, confidence = 1.0

 45 46  0  0  1  0  0  0  0  0999 V2000
   -0.6910   -1.2661    0.0329 C   0  0  0  0  0  0  0  0  0  0  0  0
   -1.7209   -0.5604   -0.8774 C   0  0  2  0  0  0  0  0  0  0  0  0
   -1.0981    0.5665   -1.7095 C   0  0  0  0  0  0  0  0  0  0  0  0
    0.0524    0.0153   -2.5532 C   0  0  0  0  0  0  0  0  0  0  0  0
    1.1101   -0.6374   -1.6961 C   0  0  0  0  0  0  0  0  0  0  0  0
    2.4889   -0.6341   -2.0952 C   0  0  0  0  0  0  0  0  0  0  0  0
    3.4814   -1.1840   -1.2568 C   0  0  0  0  0  3  0  0  0  0  0  0
    3.1231   -1.7641    0.0007 C   0  0  0  0  0  0  0  0  0  0  0  0
    1.7584   -1.8057    0.3858 C   0  0  0  0  0  0  0  0  0  0  0  0
    0.7377   -1.2235   -0.4525 C   0  0  2  0  0  3  0  0  0  0  0  0
    1.3104   -2.3461    1.5433 O   0  0  0  0  0  0  0  0  0  0  0  0
    2.2538   -2.6034    2.5748 C   0  0  0  0  0  0  0  0  0  0  0  0
   -2.8914   -0.1377   -0.1001 N   0  0  0  0  0  0  0  0  0  0  0  0
   -4.0742   -0.8330   -0.2987 C   0  0  0  0  0  0  0  0  0  0  0  0
   -4.1681   -1.7386   -1.1312 O   0  0  0  0  0  0  0  0  0  0  0  0
   -5.2669   -0.4467    0.5795 C   0  0  0  0  0  0  0  0  0  0  0  0
   -6.5349   -1.1971    0.1860 C   0  0  0  0  0  0  0  0  0  0  0  0
   -2.7357    0.9327    0.8823 C   0  0  0  0  0  0  0  0  0  0  0  0
   -3.1197    2.3425    0.4059 C   0  0  0  0  0  0  0  0  0  0  0  0
   -2.8631    3.3893    1.4900 C   0  0  0  0  0  0  0  0  0  0  0  0
   -0.9878   -2.3280    0.1659 H   0  0  0  0  0  0  0  0  0  0  0  0
   -0.7133   -0.8399    1.0564 H   0  0  0  0  0  0  0  0  0  0  0  0
   -2.1334   -1.3086   -1.5839 H   0  0  0  0  0  0  0  0  0  0  0  0
   -0.7053    1.3760   -1.0595 H   0  0  0  0  0  0  0  0  0  0  0  0
   -1.8768    1.0086   -2.3625 H   0  0  0  0  0  0  0  0  0  0  0  0
    0.5162    0.8205   -3.1569 H   0  0  0  0  0  0  0  0  0  0  0  0
   -0.3382   -0.7388   -3.2736 H   0  0  0  0  0  0  0  0  0  0  0  0
    2.7743   -0.1414   -3.0350 H   0  0  0  0  0  0  0  0  0  0  0  0
    4.5404   -1.1265   -1.5432 H   0  0  0  0  0  0  0  0  0  0  0  0
    3.9059   -2.1573    0.6598 H   0  0  0  0  0  0  0  0  0  0  0  0
    1.6686   -2.9062    3.4618 H   0  0  0  0  0  0  0  0  0  0  0  0
    2.8379   -1.6868    2.8091 H   0  0  0  0  0  0  0  0  0  0  0  0
    2.9488   -3.4275    2.3029 H   0  0  0  0  0  0  0  0  0  0  0  0
   -5.4267    0.6511    0.5344 H   0  0  0  0  0  0  0  0  0  0  0  0
   -5.0016   -0.6583    1.6397 H   0  0  0  0  0  0  0  0  0  0  0  0
   -7.3783   -0.9218    0.8493 H   0  0  0  0  0  0  0  0  0  0  0  0
   -6.3792   -2.2913    0.2433 H   0  0  0  0  0  0  0  0  0  0  0  0
   -6.8209   -0.9700   -0.8594 H   0  0  0  0  0  0  0  0  0  0  0  0
   -1.6745    0.9468    1.2083 H   0  0  0  0  0  0  0  0  0  0  0  0
   -3.3128    0.6847    1.7972 H   0  0  0  0  0  0  0  0  0  0  0  0
   -2.5402    2.5919   -0.5061 H   0  0  0  0  0  0  0  0  0  0  0  0
   -4.1881    2.3554    0.1004 H   0  0  0  0  0  0  0  0  0  0  0  0
   -3.1273    4.4079    1.1438 H   0  0  0  0  0  0  0  0  0  0  0  0
   -1.7941    3.4007    1.7887 H   0  0  0  0  0  0  0  0  0  0  0  0
   -3.4583    3.1815    2.4040 H   0  0  0  0  0  0  0  0  0  0  0  0
  1 21  1  0  0  0  0
  1 22  1  0  0  0  0
  2 23  1  6  0  0  0
  2 13  1  0  0  0  0
  2  1  1  0  0  0  0
  3 24  1  0  0  0  0
  3  2  1  0  0  0  0
  4  3  1  0  0  0  0
  4  5  1  0  0  0  0
  6  5  2  0  0  0  0
  6  7  1  0  0  0  0
  7  8  1  0  0  0  0
  8  9  2  0  0  0  0
  8 30  1  0  0  0  0
  9 11  1  0  0  0  0
 10  5  1  6  0  0  0
 10  1  1  0  0  0  0
 10  9  1  0  0  0  0
 11 12  1  0  0  0  0
 12 32  1  0  0  0  0
 12 31  1  0  0  0  0
 13 18  1  0  0  0  0
 14 13  1  0  0  0  0
 14 16  1  0  0  0  0
 15 14  2  0  0  0  0
 16 35  1  0  0  0  0
 17 37  1  0  0  0  0
 17 16  1  0  0  0  0
 17 36  1  0  0  0  0
 18 39  1  0  0  0  0
 18 40  1  0  0  0  0
 19 18  1  0  0  0  0
 19 20  1  0  0  0  0
 20 44  1  0  0  0  0
 20 45  1  0  0  0  0
 25  3  1  0  0  0  0
 26  4  1  0  0  0  0
 27  4  1  0  0  0  0
 28  6  1  0  0  0  0
 29  7  1  0  0  0  0
 33 12  1  0  0  0  0
 34 16  1  0  0  0  0
 38 17  1  0  0  0  0
 41 19  1  0  0  0  0
 42 19  1  0  0  0  0
 43 20  1  0  0  0  0
M  END
