2
q = 0.0, confidence = 0.988

 15 15  0  0  0  0  0  0  0  0999 V2000
    1.2210    2.5226   -0.0831 N   0  0  0  0  0  0  0  0  0  0  0  0
    1.6369    1.2427   -0.1611 C   0  0  0  0  0  2  0  0  0  0  0  0
    3.1420    1.3253   -0.4236 C   0  0  0  0  0  0  0  0  0  0  0  0
    3.5566    2.7517   -0.0299 C   0  0  0  0  0  0  0  0  0  0  0  0
    2.2715    3.5385   -0.2692 C   0  0  0  0  0  0  0  0  0  0  0  0
   -0.1350    3.0120    0.0871 C   0  0  0  0  0  0  0  0  0  0  0  0
    3.2979    1.1454   -1.5110 H   0  0  0  0  0  0  0  0  0  0  0  0
    3.7066    0.5428    0.1135 H   0  0  0  0  0  0  0  0  0  0  0  0
    3.8252    2.7849    1.0456 H   0  0  0  0  0  0  0  0  0  0  0  0
    4.4171    3.1391   -0.6077 H   0  0  0  0  0  0  0  0  0  0  0  0
    2.2054    3.9553   -1.3012 H   0  0  0  0  0  0  0  0  0  0  0  0
    2.1147    4.3788    0.4381 H   0  0  0  0  0  0  0  0  0  0  0  0
   -0.1877    3.6674    0.9810 H   0  0  0  0  0  0  0  0  0  0  0  0
   -0.8318    2.1680    0.2114 H   0  0  0  0  0  0  0  0  0  0  0  0
   -0.4414    3.6016   -0.8023 H   0  0  0  0  0  0  0  0  0  0  0  0
  1  6  1  0  0  0  0
  2  1  1  0  0  0  0
  3  2  1  0  0  0  0
  3  4  1  0  0  0  0
  3  8  1  0  0  0  0
  4  9  1  0  0  0  0
  5  1  1  0  0  0  0
  5  4  1  0  0  0  0
  5 12  1  0  0  0  0
  6 14  1  0  0  0  0
  6 13  1  0  0  0  0
  7  3  1  0  0  0  0
 10  4  1  0  0  0  0
 11  5  1  0  0  0  0
 15  6  1  0  0  0  0
M  END
