1
q = -1.0, confidence = 0.0

 25 25  0  0  0  0  0  0  0  0999 V2000
    1.1923    0.7362    0.1395 C   0  0  0  0  0  3  0  0  0  0  0  0
    1.9276    0.8091   -1.0730 C   0  0  0  0  0  0  0  0  0  0  0  0
    3.3638    0.7656   -1.0372 C   0  0  0  0  0  0  0  0  0  0  0  0
    4.0334    0.6571    0.2023 C   0  0  0  0  0  0  0  0  0  0  0  0
    3.2675    0.5861    1.4011 C   0  0  0  0  0  0  0  0  0  0  0  0
    1.8545    0.6322    1.3686 C   0  0  0  0  0  0  0  0  0  0  0  0
    1.2382    0.8514   -2.3624 C   0  0  0  0  0  0  0  0  0  0  0  0
    5.2876    0.3194   -2.4744 C   0  0  0  0  0  0  0  0  0  0  0  0
    6.0665    1.7368    0.7618 C   0  0  0  0  0  0  0  0  0  0  0  0
    3.3173    0.3533    3.7788 C   0  0  0  0  0  0  0  0  0  0  0  0
    0.0085    0.9101   -2.5021 O   0  0  0  0  0  0  0  0  0  0  0  0
    3.9798    0.8479   -2.2361 O   0  0  0  0  0  0  0  0  0  0  0  0
    5.3995    0.5756    0.2625 O   0  0  0  0  0  0  0  0  0  0  0  0
    3.9947    0.4540    2.5334 O   0  0  0  0  0  0  0  0  0  0  0  0
    1.2828    0.5459    2.3015 H   0  0  0  0  0  0  0  0  0  0  0  0
    1.9002    0.8181   -3.2645 H   0  0  0  0  0  0  0  0  0  0  0  0
    5.3601    0.2084   -3.5731 H   0  0  0  0  0  0  0  0  0  0  0  0
    6.0823    1.0051   -2.1210 H   0  0  0  0  0  0  0  0  0  0  0  0
    5.4188   -0.6669   -1.9887 H   0  0  0  0  0  0  0  0  0  0  0  0
    7.1504    1.5194    0.7210 H   0  0  0  0  0  0  0  0  0  0  0  0
    5.8497    2.6275    0.1304 H   0  0  0  0  0  0  0  0  0  0  0  0
    5.7797    1.9516    1.8121 H   0  0  0  0  0  0  0  0  0  0  0  0
    4.1025    0.2453    4.5484 H   0  0  0  0  0  0  0  0  0  0  0  0
    2.7169    1.2640    3.9937 H   0  0  0  0  0  0  0  0  0  0  0  0
    2.6503   -0.5356    3.8103 H   0  0  0  0  0  0  0  0  0  0  0  0
  1  6  1  0  0  0  0
  2  3  1  0  0  0  0
  2  1  2  0  0  0  0
  3  4  2  0  0  0  0
  4 13  1  0  0  0  0
  4  5  1  0  0  0  0
  5 14  1  0  0  0  0
  6  5  2  0  0  0  0
  6 15  1  0  0  0  0
  7  2  1  0  0  0  0
  8 12  1  0  0  0  0
  8 18  1  0  0  0  0
  8 19  1  0  0  0  0
  9 22  1  0  0  0  0
 10 25  1  0  0  0  0
 10 24  1  0  0  0  0
 10 23  1  0  0  0  0
 11  7  2  0  0  0  0
 12  3  1  0  0  0  0
 13  9  1  0  0  0  0
 14 10  1  0  0  0  0
 16  7  1  0  0  0  0
 17  8  1  0  0  0  0
 20  9  1  0  0  0  0
 21  9  1  0  0  0  0
M  END
