4
q = -1.0

 17 17  0  0  0  0  0  0  0  0999 V2000
   -3.6187   -1.0554   -0.8925 F   0  0  0  0  0  0  0  0  0  0  0  0
   -5.3598    0.1099   -0.3022 F   0  0  0  0  0  0  0  0  0  0  0  0
   -4.4080   -1.2150    1.1363 F   0  0  0  0  0  0  0  0  0  0  0  0
   -1.3849   -0.8020    1.3824 C   0  0  0  0  0  3  0  0  0  0  0  0
   -2.1174   -1.6222    1.3023 H   0  0  0  0  0  0  0  0  0  0  0  0
   -0.9329   -0.8457    2.3943 H   0  0  0  0  0  0  0  0  0  0  0  0
   -1.9851    0.5482    1.1766 C   0  0  0  0  0  0  0  0  0  0  0  0
   -1.2528    1.6906    1.5912 C   0  0  0  0  0  0  0  0  0  0  0  0
   -0.2908    1.5264    2.0967 H   0  0  0  0  0  0  0  0  0  0  0  0
   -1.7024    2.9945    1.3703 C   0  0  0  0  0  0  0  0  0  0  0  0
   -1.0922    3.8473    1.7079 H   0  0  0  0  0  0  0  0  0  0  0  0
   -2.9350    3.2155    0.7336 C   0  0  0  0  0  0  0  0  0  0  0  0
   -3.3048    4.2365    0.5567 H   0  0  0  0  0  0  0  0  0  0  0  0
   -3.7059    2.1124    0.3534 C   0  0  0  0  0  0  0  0  0  0  0  0
   -4.6873    2.2630   -0.1164 H   0  0  0  0  0  0  0  0  0  0  0  0
   -3.2504    0.7970    0.5694 C   0  0  0  0  0  0  0  0  0  0  0  0
   -4.1547   -0.3347    0.1362 C   0  0  0  0  0  0  0  0  0  0  0  0
  1 17  1  0  0  0  0
  2 17  1  0  0  0  0
  4  6  1  0  0  0  0
  5  4  1  0  0  0  0
  7  4  1  0  0  0  0
  7  8  1  0  0  0  0
  8  9  1  0  0  0  0
 10  8  2  0  0  0  0
 10 11  1  0  0  0  0
 12 10  1  0  0  0  0
 13 12  1  0  0  0  0
 14 16  1  0  0  0  0
 14 12  2  0  0  0  0
 15 14  1  0  0  0  0
 16  7  2  0  0  0  0
 17 16  1  0  0  0  0
 17  3  1  0  0  0  0
M  END
