3
q = 0.0, confidence = 0.972

 16 15  0  0  0  0  0  0  0  0999 V2000
   -2.0902   -1.9153   -0.2786 O   0  0  0  0  0  0  0  0  0  0  0  0
   -2.5237   -0.7620    0.4871 C   0  0  0  0  0  0  0  0  0  0  0  0
   -1.4240    0.6026   -1.4423 C   0  0  0  0  0  3  0  0  0  0  0  0
   -1.8542    0.4733   -0.0989 C   0  0  0  0  0  3  0  0  0  0  0  0
   -2.1503   -0.9413    1.9637 C   0  0  0  0  0  0  0  0  0  0  0  0
   -4.0443   -0.6070    0.3127 C   0  0  0  0  0  0  0  0  0  0  0  0
   -2.6163   -2.6772    0.0290 H   0  0  0  0  0  0  0  0  0  0  0  0
   -1.4957   -0.2646   -2.1199 H   0  0  0  0  0  0  0  0  0  0  0  0
   -1.4180    1.5974   -1.9154 H   0  0  0  0  0  0  0  0  0  0  0  0
   -2.1214    1.3991    0.4402 H   0  0  0  0  0  0  0  0  0  0  0  0
   -1.0534   -1.0441    2.0791 H   0  0  0  0  0  0  0  0  0  0  0  0
   -2.4651   -0.0621    2.5594 H   0  0  0  0  0  0  0  0  0  0  0  0
   -2.6466   -1.8383    2.3886 H   0  0  0  0  0  0  0  0  0  0  0  0
   -4.5733   -1.4878    0.7354 H   0  0  0  0  0  0  0  0  0  0  0  0
   -4.4183    0.2916    0.8407 H   0  0  0  0  0  0  0  0  0  0  0  0
   -4.3005   -0.5176   -0.7605 H   0  0  0  0  0  0  0  0  0  0  0  0
  1  7  1  0  0  0  0
  1  2  1  0  0  0  0
  2  5  1  0  0  0  0
  3  4  1  0  0  0  0
  4 10  1  0  0  0  0
  4  2  1  0  0  0  0
  5 11  1  0  0  0  0
  5 13  1  0  0  0  0
  5 12  1  0  0  0  0
  6  2  1  0  0  0  0
  6 14  1  0  0  0  0
  6 15  1  0  0  0  0
  8  3  1  0  0  0  0
  9  3  1  0  0  0  0
 16  6  1  0  0  0  0
M  END
