5
q = 0.0, confidence = 0.954

 30 32  0  0  1  0  0  0  0  0999 V2000
    2.5504   -1.4067   -1.0047 C   0  0  0  0  0  0  0  0  0  0  0  0
    3.7438   -0.7145   -1.0559 C   0  0  0  0  0  0  0  0  0  0  0  0
    3.7441    0.7116   -1.0549 C   0  0  0  0  0  0  0  0  0  0  0  0
    2.5510    1.4041   -1.0030 C   0  0  0  0  0  0  0  0  0  0  0  0
    1.2766    0.7299   -1.0000 C   0  0  1  0  0  3  0  0  0  0  0  0
    1.2763   -0.7319   -1.0003 C   0  0  0  0  0  0  0  0  0  0  0  0
   -0.0506   -1.5523   -0.9423 B   0  0  0  0  0  0  0  0  0  0  0  0
   -0.0499    1.5511   -0.9433 B   0  0  0  0  0  0  0  0  0  0  0  0
   -2.6562   -1.4035   -0.8781 C   0  0  0  0  0  0  0  0  0  0  0  0
   -3.8530   -0.7117   -0.8648 C   0  0  0  0  0  0  0  0  0  0  0  0
   -3.8527    0.7116   -0.8631 C   0  0  0  0  0  0  0  0  0  0  0  0
   -2.6556    1.4028   -0.8752 C   0  0  0  0  0  0  0  0  0  0  0  0
   -1.3876    0.7270   -0.9432 C   0  0  0  0  0  0  0  0  0  0  0  0
   -1.3880   -0.7280   -0.9442 C   0  0  0  0  0  0  0  0  0  0  0  0
   -0.0521   -3.1431   -0.9496 C   0  0  0  0  0  0  0  0  0  0  0  0
   -0.0501    3.1419   -0.9552 C   0  0  0  0  0  0  0  0  0  0  0  0
    2.5639   -2.5064   -0.9973 H   0  0  0  0  0  0  0  0  0  0  0  0
    4.6994   -1.2598   -1.0991 H   0  0  0  0  0  0  0  0  0  0  0  0
    4.6999    1.2565   -1.0971 H   0  0  0  0  0  0  0  0  0  0  0  0
    2.5649    2.5039   -0.9944 H   0  0  0  0  0  0  0  0  0  0  0  0
   -2.6682   -2.5033   -0.8698 H   0  0  0  0  0  0  0  0  0  0  0  0
   -4.8091   -1.2579   -0.8568 H   0  0  0  0  0  0  0  0  0  0  0  0
   -4.8086    1.2582   -0.8539 H   0  0  0  0  0  0  0  0  0  0  0  0
   -2.6672    2.5027   -0.8649 H   0  0  0  0  0  0  0  0  0  0  0  0
   -0.9290   -3.5967   -0.4467 H   0  0  0  0  0  0  0  0  0  0  0  0
    0.8489   -3.5882   -0.4827 H   0  0  0  0  0  0  0  0  0  0  0  0
   -0.0708   -3.5019   -2.0029 H   0  0  0  0  0  0  0  0  0  0  0  0
   -0.9295    3.5984   -0.4592 H   0  0  0  0  0  0  0  0  0  0  0  0
   -0.0618    3.4969   -2.0099 H   0  0  0  0  0  0  0  0  0  0  0  0
    0.8486    3.5875   -0.4844 H   0  0  0  0  0  0  0  0  0  0  0  0
  1  6  1  0  0  0  0
  1 17  1  0  0  0  0
  2  3  1  0  0  0  0
  2  1  2  0  0  0  0
  3  4  2  0  0  0  0
  4 20  1  0  0  0  0
  5  4  1  1  0  0  0
  5  8  1  0  0  0  0
  6  5  1  0  0  0  0
  6  7  2  0  0  0  0
  8 13  1  0  0  0  0
  9 21  1  0  0  0  0
  9 10  1  0  0  0  0
 10 11  2  0  0  0  0
 10 22  1  0  0  0  0
 11 23  1  0  0  0  0
 12 24  1  0  0  0  0
 12 11  1  0  0  0  0
 13 12  2  0  0  0  0
 14 13  1  0  0  0  0
 14  7  1  0  0  0  0
 14  9  2  0  0  0  0
 15  7  1  0  0  0  0
 15 26  1  0  0  0  0
 15 25  1  0  0  0  0
 16  8  1  0  0  0  0
 16 30  1  0  0  0  0
 16 28  1  0  0  0  0
 18  2  1  0  0  0  0
 19  3  1  0  0  0  0
 27 15  1  0  0  0  0
 29 16  1  0  0  0  0
M  END
