11
q = -1.0, confidence = 0.006

 15 15  0  0  1  0  0  0  0  0999 V2000
    1.0373   -2.4071    0.4641 C   0  0  0  0  0  0  0  0  0  0  0  0
    1.8825   -2.9857    0.8556 H   0  0  0  0  0  0  0  0  0  0  0  0
   -2.4631    0.8251   -1.2792 F   0  0  0  0  0  0  0  0  0  0  0  0
    0.6924   -2.2604   -0.9112 C   0  0  0  0  0  0  0  0  0  0  0  0
    1.2298   -2.6993   -1.7605 H   0  0  0  0  0  0  0  0  0  0  0  0
    0.0937   -1.6749    1.2474 C   0  0  0  0  0  0  0  0  0  0  0  0
    0.0405   -1.6094    2.3399 H   0  0  0  0  0  0  0  0  0  0  0  0
   -2.2466   -0.0476    1.9891 O   0  0  0  0  0  0  0  0  0  0  0  0
   -4.0145    0.9058    0.2553 F   0  0  0  0  0  0  0  0  0  0  0  0
   -3.0573    0.1396   -0.2685 C   0  0  0  0  0  0  0  0  0  0  0  0
   -0.8769   -1.0921    0.3449 C   0  0  1  0  0  3  0  0  0  0  0  0
   -2.0289   -0.3020    0.8157 C   0  0  0  0  0  0  0  0  0  0  0  0
   -3.6321   -0.9627   -0.8143 F   0  0  0  0  0  0  0  0  0  0  0  0
   -0.4685   -1.4334   -1.0039 C   0  0  0  0  0  0  0  0  0  0  0  0
   -0.9935   -1.1562   -1.9241 H   0  0  0  0  0  0  0  0  0  0  0  0
  1  2  1  0  0  0  0
  1  6  2  0  0  0  0
  3 10  1  0  0  0  0
  4  1  1  0  0  0  0
  5  4  1  0  0  0  0
  6  7  1  0  0  0  0
 10  9  1  0  0  0  0
 10 12  1  0  0  0  0
 11 12  1  6  0  0  0
 11  6  1  0  0  0  0
 12  8  2  0  0  0  0
 13 10  1  0  0  0  0
 14  4  2  0  0  0  0
 14 11  1  0  0  0  0
 15 14  1  0  0  0  0
M  END
