16
q = -1.0, confidence = 0.0

 26 27  0  0  0  0  0  0  0  0999 V2000
   -2.3384    1.8693   -1.2625 C   0  0  0  0  0  0  0  0  0  0  0  0
   -3.0783    1.9369   -2.0687 H   0  0  0  0  0  0  0  0  0  0  0  0
    1.8052    0.6374   -0.6627 N   0  0  0  0  0  0  0  0  0  0  0  0
    3.1382    0.3445   -0.3565 C   0  0  0  0  0  0  0  0  0  0  0  0
    1.0363    1.2097    0.2051 C   0  0  0  0  0  0  0  0  0  0  0  0
    1.3665    1.4128    1.2515 H   0  0  0  0  0  0  0  0  0  0  0  0
    5.2900    0.8301    0.6954 C   0  0  0  0  0  0  0  0  0  0  0  0
    5.9145    1.5006    1.3073 H   0  0  0  0  0  0  0  0  0  0  0  0
    3.9577    1.1783    0.4407 C   0  0  0  0  0  0  0  0  0  0  0  0
    3.5539    2.1243    0.8318 H   0  0  0  0  0  0  0  0  0  0  0  0
    5.8543   -0.3529    0.1777 C   0  0  0  0  0  0  0  0  0  0  0  0
   -0.9712    1.4954   -1.4061 C   0  0  0  0  0  0  0  0  0  0  0  0
   -0.4591    1.1969   -2.3284 H   0  0  0  0  0  0  0  0  0  0  0  0
   -1.3358    2.0062    0.8257 C   0  0  0  0  0  0  0  0  0  0  0  0
   -1.1702    2.1707    1.8978 H   0  0  0  0  0  0  0  0  0  0  0  0
   -2.5701    2.1813    0.1256 C   0  0  0  0  0  3  0  0  0  0  0  0
   -3.5146    2.5294    0.5593 H   0  0  0  0  0  0  0  0  0  0  0  0
    3.7098   -0.8274   -0.9076 C   0  0  0  0  0  0  0  0  0  0  0  0
    3.0796   -1.4660   -1.5441 H   0  0  0  0  0  0  0  0  0  0  0  0
   -0.3361    1.5812   -0.1158 C   0  0  0  0  0  0  0  0  0  0  0  0
    7.2891   -0.7266    0.4483 C   0  0  0  0  0  0  0  0  0  0  0  0
    7.3652   -1.7402    0.8942 H   0  0  0  0  0  0  0  0  0  0  0  0
    7.7742   -0.0130    1.1418 H   0  0  0  0  0  0  0  0  0  0  0  0
    7.8857   -0.7452   -0.4884 H   0  0  0  0  0  0  0  0  0  0  0  0
    5.0336   -1.1733   -0.6284 C   0  0  0  0  0  0  0  0  0  0  0  0
    5.4499   -2.1004   -1.0542 H   0  0  0  0  0  0  0  0  0  0  0  0
  1 16  1  0  0  0  0
  2  1  1  0  0  0  0
  3  4  1  0  0  0  0
  3  5  2  0  0  0  0
  4  9  1  0  0  0  0
  5  6  1  0  0  0  0
  7  8  1  0  0  0  0
  9  7  2  0  0  0  0
  9 10  1  0  0  0  0
 11 21  1  0  0  0  0
 11  7  1  0  0  0  0
 12  1  2  0  0  0  0
 12 20  1  0  0  0  0
 13 12  1  0  0  0  0
 14 15  1  0  0  0  0
 16 17  1  0  0  0  0
 16 14  1  0  0  0  0
 18 25  1  0  0  0  0
 18  4  2  0  0  0  0
 19 18  1  0  0  0  0
 20  5  1  0  0  0  0
 20 14  2  0  0  0  0
 21 22  1  0  0  0  0
 21 23  1  0  0  0  0
 24 21  1  0  0  0  0
 25 11  2  0  0  0  0
 26 25  1  0  0  0  0
M  END
