1
q = -1.0, confidence = 0.0

 15 15  0  0  0  0  0  0  0  0999 V2000
    1.8011   -0.1956   -1.4583 C   0  0  0  0  0  3  0  0  0  0  0  0
    2.0272    0.2947   -2.5473 O   0  0  0  0  0  0  0  0  0  0  0  0
    2.9318   -0.7426   -0.5727 C   0  0  0  0  0  0  0  0  0  0  0  0
    3.3263   -0.0203    0.3448 O   0  0  0  0  0  0  0  0  0  0  0  0
    3.4771   -2.0940   -0.8491 C   0  0  0  0  0  0  0  0  0  0  0  0
    4.5866   -2.5402   -0.0976 C   0  0  0  0  0  0  0  0  0  0  0  0
    5.1317   -3.8044   -0.3383 C   0  0  0  0  0  0  0  0  0  0  0  0
    4.5655   -4.6341   -1.3247 C   0  0  0  0  0  0  0  0  0  0  0  0
    3.4545   -4.1987   -2.0651 C   0  0  0  0  0  0  0  0  0  0  0  0
    2.9076   -2.9287   -1.8351 C   0  0  0  0  0  0  0  0  0  0  0  0
    4.9980   -1.8658    0.6688 H   0  0  0  0  0  0  0  0  0  0  0  0
    6.0002   -4.1522    0.2418 H   0  0  0  0  0  0  0  0  0  0  0  0
    4.9935   -5.6310   -1.5132 H   0  0  0  0  0  0  0  0  0  0  0  0
    3.0062   -4.8555   -2.8257 H   0  0  0  0  0  0  0  0  0  0  0  0
    2.0145   -2.5990   -2.3894 H   0  0  0  0  0  0  0  0  0  0  0  0
  1  3  1  0  0  0  0
  2  1  2  0  0  0  0
  3  4  2  0  0  0  0
  5  3  1  0  0  0  0
  5  6  1  0  0  0  0
  6 11  1  0  0  0  0
  7  6  2  0  0  0  0
  7 12  1  0  0  0  0
  8  7  1  0  0  0  0
  9 10  1  0  0  0  0
  9  8  2  0  0  0  0
 10  5  2  0  0  0  0
 13  8  1  0  0  0  0
 14  9  1  0  0  0  0
 15 10  1  0  0  0  0
M  END
