7
q = -1.0, confidence = 0.002

 34 35  0  0  1  0  0  0  0  0999 V2000
   -4.9821    2.2843   -1.3536 O   0  0  0  0  0  0  0  0  0  0  0  0
   -6.5952    1.0466    0.1808 O   0  0  0  0  0  0  0  0  0  0  0  0
   -1.2586   -2.3962   -0.4373 O   0  0  0  0  0  0  0  0  0  0  0  0
   -5.8854   -1.3998    1.4503 O   0  0  0  0  0  0  0  0  0  0  0  0
   -3.7149   -1.2966    0.3559 C   0  0  0  0  0  0  0  0  0  0  0  0
   -3.3723   -2.2474    0.7827 H   0  0  0  0  0  0  0  0  0  0  0  0
   -0.3600   -0.3724   -1.2431 C   0  0  2  0  0  3  0  0  0  0  0  0
   -4.9935   -0.7922    0.6234 C   0  0  0  0  0  0  0  0  0  0  0  0
   -1.4928   -1.2085   -0.6853 C   0  0  0  0  0  0  0  0  0  0  0  0
   -2.8084   -0.5875   -0.4607 C   0  0  0  0  0  0  0  0  0  0  0  0
   -3.2045    0.6383   -1.0494 C   0  0  0  0  0  0  0  0  0  0  0  0
   -2.5385    1.1588   -1.7465 H   0  0  0  0  0  0  0  0  0  0  0  0
   -4.4912    1.1401   -0.8186 C   0  0  0  0  0  0  0  0  0  0  0  0
    0.6708   -0.9426   -2.0849 C   0  0  0  0  0  0  0  0  0  0  0  0
    0.6882   -1.9884   -2.4143 H   0  0  0  0  0  0  0  0  0  0  0  0
   -5.4119    0.4375    0.0250 C   0  0  0  0  0  0  0  0  0  0  0  0
    1.1173    1.3195   -1.8698 C   0  0  0  0  0  0  0  0  0  0  0  0
    1.6126    2.2954   -1.9586 H   0  0  0  0  0  0  0  0  0  0  0  0
   -0.0560    1.0366   -1.0953 C   0  0  0  0  0  0  0  0  0  0  0  0
   -0.6540    1.7630   -0.5329 H   0  0  0  0  0  0  0  0  0  0  0  0
    1.5558    0.1095   -2.4802 C   0  0  0  0  0  0  0  0  0  0  0  0
    2.4371    0.0041   -3.1263 H   0  0  0  0  0  0  0  0  0  0  0  0
   -7.7765    0.3848    0.6444 C   0  0  0  0  0  0  0  0  0  0  0  0
   -7.9474   -0.5645    0.0995 H   0  0  0  0  0  0  0  0  0  0  0  0
   -8.6018    1.0891    0.4314 H   0  0  0  0  0  0  0  0  0  0  0  0
   -7.7290    0.1772    1.7300 H   0  0  0  0  0  0  0  0  0  0  0  0
   -4.1489    3.0331   -2.2151 C   0  0  0  0  0  0  0  0  0  0  0  0
   -3.2256    3.3828   -1.6984 H   0  0  0  0  0  0  0  0  0  0  0  0
   -4.7370    3.9139   -2.5311 H   0  0  0  0  0  0  0  0  0  0  0  0
   -3.8549    2.4520   -3.1184 H   0  0  0  0  0  0  0  0  0  0  0  0
   -5.5268   -2.6413    2.0374 C   0  0  0  0  0  0  0  0  0  0  0  0
   -5.3220   -3.4158    1.2662 H   0  0  0  0  0  0  0  0  0  0  0  0
   -6.3928   -2.9552    2.6477 H   0  0  0  0  0  0  0  0  0  0  0  0
   -4.6346   -2.5410    2.6937 H   0  0  0  0  0  0  0  0  0  0  0  0
  1 13  1  0  0  0  0
  2 23  1  0  0  0  0
  4 31  1  0  0  0  0
  5  8  1  0  0  0  0
  5  6  1  0  0  0  0
  7 19  1  0  0  0  0
  7  9  1  1  0  0  0
  8  4  1  0  0  0  0
  9 10  1  0  0  0  0
  9  3  2  0  0  0  0
 10  5  2  0  0  0  0
 11 13  2  0  0  0  0
 11 10  1  0  0  0  0
 12 11  1  0  0  0  0
 13 16  1  0  0  0  0
 14  7  1  0  0  0  0
 15 14  1  0  0  0  0
 16  2  1  0  0  0  0
 16  8  2  0  0  0  0
 17 19  2  0  0  0  0
 18 17  1  0  0  0  0
 19 20  1  0  0  0  0
 21 14  2  0  0  0  0
 21 17  1  0  0  0  0
 22 21  1  0  0  0  0
 23 26  1  0  0  0  0
 24 23  1  0  0  0  0
 25 23  1  0  0  0  0
 27 28  1  0  0  0  0
 27  1  1  0  0  0  0
 29 27  1  0  0  0  0
 30 27  1  0  0  0  0
 31 33  1  0  0  0  0
 31 34  1  0  0  0  0
 32 31  1  0  0  0  0
M  END
