19
q = -1.0, confidence = 0.022

 28 29  0  0  1  0  0  0  0  0999 V2000
   -5.6586   -1.5327   -0.2715 O   0  0  0  0  0  0  0  0  0  0  0  0
   -3.0595   -0.5900   -0.2296 C   0  0  0  0  0  0  0  0  0  0  0  0
   -3.2432   -1.6566   -0.4169 H   0  0  0  0  0  0  0  0  0  0  0  0
   -1.7526   -0.0884   -0.2159 C   0  0  0  0  0  0  0  0  0  0  0  0
   -0.9158   -0.7810   -0.3643 H   0  0  0  0  0  0  0  0  0  0  0  0
   -6.5373    0.5053    0.1978 O   0  0  0  0  0  0  0  0  0  0  0  0
    0.0397    2.8899    0.8279 O   0  0  0  0  0  0  0  0  0  0  0  0
   -4.1493    0.2698    0.0100 C   0  0  0  0  0  0  0  0  0  0  0  0
   -5.5668   -0.2049   -0.0044 C   0  0  0  0  0  0  0  0  0  0  0  0
   -2.6095    2.1255    0.3217 C   0  0  0  0  0  0  0  0  0  0  0  0
   -2.4024    3.1791    0.5590 H   0  0  0  0  0  0  0  0  0  0  0  0
   -1.5125    1.2760    0.0519 C   0  0  0  0  0  0  0  0  0  0  0  0
   -3.9141    1.6325    0.2879 C   0  0  0  0  0  0  0  0  0  0  0  0
   -4.7804    2.2821    0.4809 H   0  0  0  0  0  0  0  0  0  0  0  0
    1.0338    0.4354   -1.7925 C   0  0  0  0  0  0  0  0  0  0  0  0
    0.1945   -0.1531   -2.1780 H   0  0  0  0  0  0  0  0  0  0  0  0
    3.1364    1.3936   -1.5884 C   0  0  0  0  0  0  0  0  0  0  0  0
    4.1901    1.6374   -1.7725 H   0  0  0  0  0  0  0  0  0  0  0  0
    0.9905    1.3787   -0.6972 C   0  0  1  0  0  3  0  0  0  0  0  0
    2.3088    1.9680   -0.5856 C   0  0  0  0  0  0  0  0  0  0  0  0
    2.5640    2.7593    0.1280 H   0  0  0  0  0  0  0  0  0  0  0  0
   -0.1454    1.8947    0.1277 C   0  0  0  0  0  0  0  0  0  0  0  0
    2.3518    0.4493   -2.3305 C   0  0  0  0  0  0  0  0  0  0  0  0
    2.7044   -0.1630   -3.1705 H   0  0  0  0  0  0  0  0  0  0  0  0
   -6.9894   -2.0581   -0.2947 C   0  0  0  0  0  0  0  0  0  0  0  0
   -7.4885   -1.9117    0.6846 H   0  0  0  0  0  0  0  0  0  0  0  0
   -6.8909   -3.1346   -0.5207 H   0  0  0  0  0  0  0  0  0  0  0  0
   -7.6001   -1.5528   -1.0702 H   0  0  0  0  0  0  0  0  0  0  0  0
  1  9  1  0  0  0  0
  2  4  2  0  0  0  0
  2  8  1  0  0  0  0
  3  2  1  0  0  0  0
  4 12  1  0  0  0  0
  5  4  1  0  0  0  0
  8 13  2  0  0  0  0
  9  8  1  0  0  0  0
  9  6  2  0  0  0  0
 10 11  1  0  0  0  0
 12 22  1  0  0  0  0
 12 10  2  0  0  0  0
 13 10  1  0  0  0  0
 13 14  1  0  0  0  0
 15 19  1  0  0  0  0
 16 15  1  0  0  0  0
 17 20  2  0  0  0  0
 18 17  1  0  0  0  0
 19 20  1  0  0  0  0
 19 22  1  6  0  0  0
 20 21  1  0  0  0  0
 22  7  2  0  0  0  0
 23 15  2  0  0  0  0
 23 17  1  0  0  0  0
 24 23  1  0  0  0  0
 25  1  1  0  0  0  0
 25 26  1  0  0  0  0
 27 25  1  0  0  0  0
 28 25  1  0  0  0  0
M  END
