2
q = -1.0

 34 37  0  0  1  0  0  0  0  0999 V2000
    0.4164   -1.0887   -2.0792 O   0  0  0  0  0  0  0  0  0  0  0  0
   -0.1978   -0.2903   -1.1187 C   0  0  0  0  0  3  0  0  0  0  0  0
   -1.5563   -0.5327   -1.0959 C   0  0  0  0  0  0  0  0  0  0  0  0
   -2.6279   -0.0406   -0.2457 C   0  0  0  0  0  0  0  0  0  0  0  0
   -2.8229    1.4131   -0.0246 C   0  0  0  0  0  0  0  0  0  0  0  0
   -2.8637    2.2833   -1.1397 C   0  0  0  0  0  0  0  0  0  0  0  0
   -3.1002    3.6551   -0.9812 C   0  0  0  0  0  0  0  0  0  0  0  0
   -3.2811    4.1955    0.3043 C   0  0  0  0  0  0  0  0  0  0  0  0
   -3.2327    3.3463    1.4223 C   0  0  0  0  0  0  0  0  0  0  0  0
   -3.0144    1.9696    1.2606 C   0  0  0  0  0  0  0  0  0  0  0  0
   -3.5344   -1.0017    0.1993 C   0  0  0  0  0  0  0  0  0  0  0  0
   -4.7787   -0.7133    0.8637 C   0  0  0  0  0  0  0  0  0  0  0  0
   -5.6245   -1.7097    1.2873 C   0  0  0  0  0  0  0  0  0  0  0  0
   -5.2957   -3.1056    1.0688 C   0  0  0  0  0  0  0  0  0  0  0  0
   -4.1566   -3.4635    0.4187 C   0  0  0  0  0  0  0  0  0  0  0  0
   -3.1767   -2.4552   -0.1084 C   0  0  1  0  0  0  0  0  0  0  0  0
   -2.9289   -2.6336   -1.6361 C   0  0  0  0  0  0  0  0  0  0  0  0
   -1.9094   -1.5914   -2.1484 C   0  0  2  0  0  0  0  0  0  0  0  0
   -0.5175   -2.1122   -2.5072 C   0  0  0  0  0  0  0  0  0  0  0  0
   -2.7253    1.8556   -2.1447 H   0  0  0  0  0  0  0  0  0  0  0  0
   -3.1412    4.3100   -1.8654 H   0  0  0  0  0  0  0  0  0  0  0  0
   -3.4585    5.2741    0.4330 H   0  0  0  0  0  0  0  0  0  0  0  0
   -3.3641    3.7607    2.4339 H   0  0  0  0  0  0  0  0  0  0  0  0
   -2.9573    1.3105    2.1384 H   0  0  0  0  0  0  0  0  0  0  0  0
   -5.0549    0.3408    1.0157 H   0  0  0  0  0  0  0  0  0  0  0  0
   -6.5705   -1.4534    1.7878 H   0  0  0  0  0  0  0  0  0  0  0  0
   -5.9892   -3.8800    1.4332 H   0  0  0  0  0  0  0  0  0  0  0  0
   -3.9230   -4.5272    0.2445 H   0  0  0  0  0  0  0  0  0  0  0  0
   -2.1811   -2.6530    0.3614 H   0  0  0  0  0  0  0  0  0  0  0  0
   -3.8987   -2.5240   -2.1609 H   0  0  0  0  0  0  0  0  0  0  0  0
   -2.5724   -3.6691   -1.8327 H   0  0  0  0  0  0  0  0  0  0  0  0
   -2.3545   -1.0687   -3.0255 H   0  0  0  0  0  0  0  0  0  0  0  0
   -0.2813   -3.0485   -1.9453 H   0  0  0  0  0  0  0  0  0  0  0  0
   -0.3539   -2.2985   -3.5867 H   0  0  0  0  0  0  0  0  0  0  0  0
  1  2  1  0  0  0  0
  2  3  2  0  0  0  0
  3  4  1  0  0  0  0
  4  5  1  0  0  0  0
  4 11  2  0  0  0  0
  5 10  1  0  0  0  0
  6  7  1  0  0  0  0
  6  5  2  0  0  0  0
  7  8  2  0  0  0  0
  8 22  1  0  0  0  0
  8  9  1  0  0  0  0
  9 23  1  0  0  0  0
 10  9  2  0  0  0  0
 10 24  1  0  0  0  0
 11 12  1  0  0  0  0
 12 25  1  0  0  0  0
 12 13  2  0  0  0  0
 13 26  1  0  0  0  0
 14 13  1  0  0  0  0
 14 27  1  0  0  0  0
 15 14  2  0  0  0  0
 16 11  1  0  0  0  0
 16 29  1  1  0  0  0
 16 15  1  0  0  0  0
 17 16  1  0  0  0  0
 18 32  1  6  0  0  0
 18 17  1  0  0  0  0
 18  3  1  0  0  0  0
 19 18  1  0  0  0  0
 19  1  1  0  0  0  0
 19 33  1  0  0  0  0
 20  6  1  0  0  0  0
 21  7  1  0  0  0  0
 28 15  1  0  0  0  0
 30 17  1  0  0  0  0
 31 17  1  0  0  0  0
 34 19  1  0  0  0  0
M  END
