13
q = -1.0

 41 42  0  0  1  0  0  0  0  0999 V2000
   -2.7199    0.0397    0.2398 N   0  3  0  0  0  0  0  0  0  0  0  0
   -3.0397    0.1667    1.2194 H   0  0  0  0  0  0  0  0  0  0  0  0
    0.2082   -1.8513    1.6667 O   0  0  0  0  0  0  0  0  0  0  0  0
   -1.1671   -1.5638    1.4428 C   0  0  0  0  0  0  0  0  0  0  0  0
   -1.7110   -2.5061    1.1985 H   0  0  0  0  0  0  0  0  0  0  0  0
   -1.5558   -1.1795    2.4096 H   0  0  0  0  0  0  0  0  0  0  0  0
   -1.3179   -0.5270    0.3249 C   0  0  1  0  0  0  0  0  0  0  0  0
   -0.6801    0.3361    0.5963 H   0  0  0  0  0  0  0  0  0  0  0  0
   -0.7798   -1.1102   -0.9782 C   0  0  0  0  0  0  0  0  0  0  0  0
   -0.8360   -0.3827   -1.8117 H   0  0  0  0  0  0  0  0  0  0  0  0
   -1.3470   -2.0175   -1.2786 H   0  0  0  0  0  0  0  0  0  0  0  0
    0.6719   -1.4433   -0.7100 C   0  0  1  0  0  3  0  0  0  0  0  0
    1.6762   -1.3513   -1.7316 C   0  0  0  0  0  3  0  0  0  0  0  0
    1.3737   -1.0912   -2.7563 H   0  0  0  0  0  0  0  0  0  0  0  0
    3.0437   -1.5384   -1.4277 C   0  0  0  0  0  0  0  0  0  0  0  0
    3.8027   -1.4228   -2.2124 H   0  0  0  0  0  0  0  0  0  0  0  0
    3.4366   -1.7892   -0.0758 C   0  0  0  0  0  0  0  0  0  0  0  0
    4.5020   -1.8685    0.1807 H   0  0  0  0  0  0  0  0  0  0  0  0
    2.4665   -1.8953    0.9459 C   0  0  0  0  0  0  0  0  0  0  0  0
    2.7470   -2.0594    1.9945 H   0  0  0  0  0  0  0  0  0  0  0  0
    1.0808   -1.7478    0.6227 C   0  0  0  0  0  0  0  0  0  0  0  0
   -3.7337   -0.8711   -0.4193 C   0  0  0  0  0  0  0  0  0  0  0  0
   -3.4635   -1.9105   -0.1477 H   0  0  0  0  0  0  0  0  0  0  0  0
   -3.5985   -0.7616   -1.5131 H   0  0  0  0  0  0  0  0  0  0  0  0
   -5.1626   -0.5648    0.0167 C   0  0  0  0  0  0  0  0  0  0  0  0
   -5.2326   -0.6605    1.1238 H   0  0  0  0  0  0  0  0  0  0  0  0
   -5.4226    0.4873   -0.2265 H   0  0  0  0  0  0  0  0  0  0  0  0
   -6.1648   -1.5099   -0.6501 C   0  0  0  0  0  0  0  0  0  0  0  0
   -7.1941   -1.2832   -0.3141 H   0  0  0  0  0  0  0  0  0  0  0  0
   -5.9564   -2.5694   -0.3988 H   0  0  0  0  0  0  0  0  0  0  0  0
   -6.1440   -1.4099   -1.7540 H   0  0  0  0  0  0  0  0  0  0  0  0
   -2.6852    1.4410   -0.3612 C   0  0  0  0  0  0  0  0  0  0  0  0
   -1.9955    1.3963   -1.2265 H   0  0  0  0  0  0  0  0  0  0  0  0
   -3.7023    1.6544   -0.7404 H   0  0  0  0  0  0  0  0  0  0  0  0
   -2.2440    2.4931    0.6499 C   0  0  0  0  0  0  0  0  0  0  0  0
   -2.9932    2.5461    1.4717 H   0  0  0  0  0  0  0  0  0  0  0  0
   -1.2772    2.2050    1.1163 H   0  0  0  0  0  0  0  0  0  0  0  0
   -2.0876    3.8630   -0.0153 C   0  0  0  0  0  0  0  0  0  0  0  0
   -1.8039    4.6244    0.7354 H   0  0  0  0  0  0  0  0  0  0  0  0
   -1.2926    3.8357   -0.7866 H   0  0  0  0  0  0  0  0  0  0  0  0
   -3.0301    4.1975   -0.4939 H   0  0  0  0  0  0  0  0  0  0  0  0
  1  7  1  0  0  0  0
  1  2  1  0  0  0  0
  4  3  1  0  0  0  0
  4  6  1  0  0  0  0
  5  4  1  0  0  0  0
  7  8  1  1  0  0  0
  7  4  1  0  0  0  0
  9 12  1  0  0  0  0
  9  7  1  0  0  0  0
 10  9  1  0  0  0  0
 11  9  1  0  0  0  0
 12 13  1  1  0  0  0
 12 21  1  0  0  0  0
 13 15  1  0  0  0  0
 14 13  1  0  0  0  0
 15 17  2  0  0  0  0
 16 15  1  0  0  0  0
 17 18  1  0  0  0  0
 17 19  1  0  0  0  0
 19 20  1  0  0  0  0
 21 19  2  0  0  0  0
 21  3  1  0  0  0  0
 22 23  1  0  0  0  0
 22 25  1  0  0  0  0
 22  1  1  0  0  0  0
 24 22  1  0  0  0  0
 25 26  1  0  0  0  0
 27 25  1  0  0  0  0
 28 30  1  0  0  0  0
 28 29  1  0  0  0  0
 28 25  1  0  0  0  0
 31 28  1  0  0  0  0
 32  1  1  0  0  0  0
 32 35  1  0  0  0  0
 33 32  1  0  0  0  0
 34 32  1  0  0  0  0
 35 37  1  0  0  0  0
 35 36  1  0  0  0  0
 38 35  1  0  0  0  0
 38 39  1  0  0  0  0
 40 38  1  0  0  0  0
 41 38  1  0  0  0  0
M  CHG  1   1   1
M  END
