6
q = -1.0

 40 42  0  0  0  0  0  0  0  0999 V2000
   -0.9405    0.2855   -2.0886 S   0  0  0  0  0  1  0  0  0  0  0  0
    0.4519   -1.2567    1.6187 S   0  0  0  0  0  0  0  0  0  0  0  0
    0.7411    0.4359   -0.9571 P   0  0  0  0  0  4  0  0  0  0  0  0
   -0.2158   -1.1682    2.9460 O   0  0  0  0  0  0  0  0  0  0  0  0
    0.2429   -2.4566    0.7598 O   0  0  0  0  0  0  0  0  0  0  0  0
    0.0449    0.2340    0.7133 C   0  0  0  0  0  3  0  0  0  0  0  0
    0.3188    1.0940    1.3554 H   0  0  0  0  0  0  0  0  0  0  0  0
    1.5884    2.0506   -1.0300 C   0  0  0  0  0  0  0  0  0  0  0  0
    1.3691    2.8994   -2.1280 C   0  0  0  0  0  0  0  0  0  0  0  0
    0.6310    2.6101   -2.8918 H   0  0  0  0  0  0  0  0  0  0  0  0
    2.0610    4.1153   -2.2109 C   0  0  0  0  0  0  0  0  0  0  0  0
    1.8827    4.7866   -3.0644 H   0  0  0  0  0  0  0  0  0  0  0  0
    2.9643    4.4848   -1.2008 C   0  0  0  0  0  0  0  0  0  0  0  0
    3.4988    5.4447   -1.2649 H   0  0  0  0  0  0  0  0  0  0  0  0
    3.1784    3.6358   -0.1029 C   0  0  0  0  0  0  0  0  0  0  0  0
    3.8792    3.9268    0.6941 H   0  0  0  0  0  0  0  0  0  0  0  0
    2.4919    2.4161   -0.0123 C   0  0  0  0  0  0  0  0  0  0  0  0
    2.6584    1.7544    0.8523 H   0  0  0  0  0  0  0  0  0  0  0  0
    2.0057   -0.7731   -1.5167 C   0  0  0  0  0  0  0  0  0  0  0  0
    3.3824   -0.4709   -1.5101 C   0  0  0  0  0  0  0  0  0  0  0  0
    3.7329    0.5152   -1.1744 H   0  0  0  0  0  0  0  0  0  0  0  0
    4.3109   -1.4314   -1.9367 C   0  0  0  0  0  0  0  0  0  0  0  0
    5.3841   -1.1885   -1.9319 H   0  0  0  0  0  0  0  0  0  0  0  0
    3.8731   -2.6938   -2.3664 C   0  0  0  0  0  0  0  0  0  0  0  0
    4.6042   -3.4464   -2.6995 H   0  0  0  0  0  0  0  0  0  0  0  0
    2.5002   -2.9924   -2.3831 C   0  0  0  0  0  0  0  0  0  0  0  0
    2.1518   -3.9777   -2.7272 H   0  0  0  0  0  0  0  0  0  0  0  0
    1.5659   -2.0355   -1.9660 C   0  0  0  0  0  0  0  0  0  0  0  0
    0.4894   -2.2541   -1.9902 H   0  0  0  0  0  0  0  0  0  0  0  0
    2.2284   -1.1507    1.9565 C   0  0  0  0  0  0  0  0  0  0  0  0
    2.6898   -0.1692    2.8502 C   0  0  0  0  0  0  0  0  0  0  0  0
    1.9731    0.5010    3.3481 H   0  0  0  0  0  0  0  0  0  0  0  0
    4.0653   -0.0775    3.1040 C   0  0  0  0  0  0  0  0  0  0  0  0
    4.4438    0.6883    3.7978 H   0  0  0  0  0  0  0  0  0  0  0  0
    4.9567   -0.9744    2.4873 C   0  0  0  0  0  0  0  0  0  0  0  0
    6.0354   -0.9015    2.6929 H   0  0  0  0  0  0  0  0  0  0  0  0
    4.4744   -1.9669    1.6200 C   0  0  0  0  0  0  0  0  0  0  0  0
    5.1713   -2.6724    1.1432 H   0  0  0  0  0  0  0  0  0  0  0  0
    3.1007   -2.0601    1.3468 C   0  0  0  0  0  0  0  0  0  0  0  0
    2.6937   -2.8192    0.6633 H   0  0  0  0  0  0  0  0  0  0  0  0
  1  3  1  0  0  0  0
  2 30  1  0  0  0  0
  2  4  2  0  0  0  0
  3  6  1  0  0  0  0
  5  2  2  0  0  0  0
  6  7  1  0  0  0  0
  6  2  1  0  0  0  0
  8  3  1  0  0  0  0
  8 17  1  0  0  0  0
  9  8  2  0  0  0  0
 10  9  1  0  0  0  0
 11  9  1  0  0  0  0
 11 13  2  0  0  0  0
 12 11  1  0  0  0  0
 13 15  1  0  0  0  0
 14 13  1  0  0  0  0
 15 17  2  0  0  0  0
 15 16  1  0  0  0  0
 17 18  1  0  0  0  0
 19 20  1  0  0  0  0
 19  3  1  0  0  0  0
 20 21  1  0  0  0  0
 22 23  1  0  0  0  0
 22 20  2  0  0  0  0
 24 22  1  0  0  0  0
 25 24  1  0  0  0  0
 26 24  2  0  0  0  0
 26 28  1  0  0  0  0
 27 26  1  0  0  0  0
 28 19  2  0  0  0  0
 29 28  1  0  0  0  0
 30 31  1  0  0  0  0
 31 33  2  0  0  0  0
 31 32  1  0  0  0  0
 33 34  1  0  0  0  0
 35 36  1  0  0  0  0
 35 33  1  0  0  0  0
 37 35  2  0  0  0  0
 38 37  1  0  0  0  0
 39 37  1  0  0  0  0
 39 30  2  0  0  0  0
 40 39  1  0  0  0  0
M  END
