1
q = -1.0

 11 11  0  0  0  0  0  0  0  0999 V2000
    0.0081    1.3770   -0.2296 C   0  0  0  0  0  3  0  0  0  0  0  0
   -0.0617    2.3152    0.8132 C   0  0  0  0  0  0  0  0  0  0  0  0
    0.0058    3.7062    0.6066 C   0  0  0  0  0  0  0  0  0  0  0  0
    0.1234    4.2220   -0.6867 C   0  0  0  0  0  0  0  0  0  0  0  0
    0.1729    5.3104   -0.8289 H   0  0  0  0  0  0  0  0  0  0  0  0
    0.1636    3.3272   -1.7688 C   0  0  0  0  0  0  0  0  0  0  0  0
    0.2368    3.6823   -2.8065 H   0  0  0  0  0  0  0  0  0  0  0  0
    0.0947    1.9561   -1.5107 C   0  0  0  0  0  0  0  0  0  0  0  0
   -0.2165    1.8984    2.0979 F   0  0  0  0  0  0  0  0  0  0  0  0
   -0.0564    4.5325    1.6691 F   0  0  0  0  0  0  0  0  0  0  0  0
    0.1030    1.1169   -2.5973 F   0  0  0  0  0  0  0  0  0  0  0  0
  1  2  1  0  0  0  0
  2  9  1  0  0  0  0
  3  2  2  0  0  0  0
  3 10  1  0  0  0  0
  4  3  1  0  0  0  0
  5  4  1  0  0  0  0
  6  8  1  0  0  0  0
  6  4  2  0  0  0  0
  7  6  1  0  0  0  0
  8  1  2  0  0  0  0
 11  8  1  0  0  0  0
M  END
