5
q = -1.0

 12 12  0  0  0  0  0  0  0  0999 V2000
    2.5736   -3.8406    0.6235 O   0  0  0  0  0  0  0  0  0  0  0  0
    1.4861   -3.5637    0.0913 C   0  0  0  0  0  0  0  0  0  0  0  0
    0.1829   -3.7170    0.7614 C   0  0  0  0  0  0  0  0  0  0  0  0
   -1.0121   -3.4772    0.0788 C   0  0  0  0  0  0  0  0  0  0  0  0
   -1.0469   -3.0527   -1.3013 C   0  0  0  0  0  3  0  0  0  0  0  0
    0.1790   -2.8457   -1.9980 C   0  0  0  0  0  3  0  0  0  0  0  0
    1.3852   -2.9173   -1.2481 C   0  0  0  0  0  3  0  0  0  0  0  0
    0.1820   -4.0898    1.7969 H   0  0  0  0  0  0  0  0  0  0  0  0
   -1.9749   -3.6148    0.5950 H   0  0  0  0  0  0  0  0  0  0  0  0
   -2.0149   -2.9395   -1.8088 H   0  0  0  0  0  0  0  0  0  0  0  0
    0.1854   -2.5791   -3.0660 H   0  0  0  0  0  0  0  0  0  0  0  0
    2.3443   -2.6799   -1.7323 H   0  0  0  0  0  0  0  0  0  0  0  0
  2  1  2  0  0  0  0
  2  3  1  0  0  0  0
  3  8  1  0  0  0  0
  4  9  1  0  0  0  0
  4  3  2  0  0  0  0
  5  4  1  0  0  0  0
  6  5  1  0  0  0  0
  6  7  1  0  0  0  0
  7  2  1  0  0  0  0
 10  5  1  0  0  0  0
 11  6  1  0  0  0  0
 12  7  1  0  0  0  0
M  END
