1
q = 0.0, confidence = 0.992

 22 24  0  0  1  0  0  0  0  0999 V2000
   -1.5273   -0.4571   -1.3203 C   0  0  0  0  0  3  0  0  0  0  0  0
   -2.3715    0.4469   -3.4144 C   0  0  0  0  0  0  0  0  0  0  0  0
   -2.1070    0.6268   -4.4653 H   0  0  0  0  0  0  0  0  0  0  0  0
   -3.5848    0.7966   -2.8699 C   0  0  0  0  0  0  0  0  0  0  0  0
   -4.3500    1.2738   -3.4966 H   0  0  0  0  0  0  0  0  0  0  0  0
   -3.8149    0.5591   -1.4793 C   0  0  0  0  0  0  0  0  0  0  0  0
   -2.7728   -0.0550   -0.7337 C   0  0  0  0  0  0  0  0  0  0  0  0
   -2.9045   -0.2391    0.6768 C   0  0  2  0  0  3  0  0  0  0  0  0
   -1.9170   -0.9308    2.6561 C   0  0  0  0  0  0  0  0  0  0  0  0
   -1.0389   -1.3506    3.1670 H   0  0  0  0  0  0  0  0  0  0  0  0
   -3.0654   -0.5775    3.4000 C   0  0  0  0  0  0  0  0  0  0  0  0
   -3.0689   -0.7380    4.4873 H   0  0  0  0  0  0  0  0  0  0  0  0
   -4.1634   -0.0265    2.7485 C   0  0  0  0  0  0  0  0  0  0  0  0
   -5.0681    0.2645    3.3032 H   0  0  0  0  0  0  0  0  0  0  0  0
   -4.0989    0.1642    1.3440 C   0  0  0  0  0  0  0  0  0  0  0  0
   -5.1545    0.7458    0.5605 C   0  0  0  0  0  0  0  0  0  0  0  0
   -6.0815    1.0461    1.0723 H   0  0  0  0  0  0  0  0  0  0  0  0
   -5.0201    0.9402   -0.7985 C   0  0  0  0  0  0  0  0  0  0  0  0
   -5.8354    1.3996   -1.3769 H   0  0  0  0  0  0  0  0  0  0  0  0
   -1.4086   -0.1589   -2.6441 N   0  0  0  0  0  0  0  0  0  0  0  0
   -0.5111   -0.3860   -3.0831 H   0  0  0  0  0  0  0  0  0  0  0  0
   -1.8267   -0.7773    1.3304 N   0  0  0  0  0  0  0  0  0  0  0  0
  1  7  2  0  0  0  0
  2  4  2  0  0  0  0
  2 20  1  0  0  0  0
  3  2  1  0  0  0  0
  4  6  1  0  0  0  0
  5  4  1  0  0  0  0
  6 18  2  0  0  0  0
  6  7  1  0  0  0  0
  8  7  1  1  0  0  0
  8 22  1  0  0  0  0
  8 15  1  0  0  0  0
  9 10  1  0  0  0  0
  9 11  1  0  0  0  0
 11 12  1  0  0  0  0
 13 14  1  0  0  0  0
 13 11  2  0  0  0  0
 15 13  1  0  0  0  0
 16 17  1  0  0  0  0
 16 15  2  0  0  0  0
 18 16  1  0  0  0  0
 19 18  1  0  0  0  0
 20  1  1  0  0  0  0
 21 20  1  0  0  0  0
 22  9  2  0  0  0  0
M  END
