3
q = 0.0, confidence = 0.986

 11 11  0  0  0  0  0  0  0  0999 V2000
    1.8754    0.8976    0.3092 S   0  0  0  0  0  0  0  0  0  0  0  0
    3.2820    0.0082   -0.1666 N   0  0  0  0  0  0  0  0  0  0  0  0
    0.7933   -0.3653   -0.1310 C   0  0  0  0  0  2  0  0  0  0  0  0
    1.5471   -1.4474   -0.6223 C   0  0  0  0  0  0  0  0  0  0  0  0
    1.1086   -2.3941   -0.9629 H   0  0  0  0  0  0  0  0  0  0  0  0
    2.9293   -1.2038   -0.6301 C   0  0  0  0  0  0  0  0  0  0  0  0
    3.7183   -1.8924   -0.9679 H   0  0  0  0  0  0  0  0  0  0  0  0
    4.6306    0.5536   -0.0381 C   0  0  0  0  0  0  0  0  0  0  0  0
    4.7363    1.4721   -0.6476 H   0  0  0  0  0  0  0  0  0  0  0  0
    5.3501   -0.2034   -0.4003 H   0  0  0  0  0  0  0  0  0  0  0  0
    4.8539    0.7848    1.0217 H   0  0  0  0  0  0  0  0  0  0  0  0
  2  8  1  0  0  0  0
  2  1  1  0  0  0  0
  3  1  1  0  0  0  0
  4  3  1  0  0  0  0
  5  4  1  0  0  0  0
  6  4  2  0  0  0  0
  6  2  1  0  0  0  0
  7  6  1  0  0  0  0
  8 11  1  0  0  0  0
  9  8  1  0  0  0  0
 10  8  1  0  0  0  0
M  END
