1
q = -1.0

 25 25  0  0  0  0  0  0  0  0999 V2000
   -1.2201   -1.7586   -0.0046 C   0  0  0  0  0  3  0  0  0  0  0  0
   -2.5013   -0.1149    1.4475 C   0  0  0  0  0  0  0  0  0  0  0  0
   -3.6093   -0.1739    1.4789 H   0  0  0  0  0  0  0  0  0  0  0  0
   -2.1103   -0.8537    2.1744 H   0  0  0  0  0  0  0  0  0  0  0  0
   -2.0017    1.2964    1.7694 C   0  0  0  0  0  0  0  0  0  0  0  0
   -2.6375    2.0541    1.2699 H   0  0  0  0  0  0  0  0  0  0  0  0
   -2.0711    1.4960    2.8568 H   0  0  0  0  0  0  0  0  0  0  0  0
   -0.3870    2.6994    0.4510 C   0  0  0  0  0  0  0  0  0  0  0  0
   -0.8267    3.5972    0.9353 H   0  0  0  0  0  0  0  0  0  0  0  0
    0.7068    2.8486    0.3654 H   0  0  0  0  0  0  0  0  0  0  0  0
   -1.0038    2.4925   -0.9292 C   0  0  0  0  0  0  0  0  0  0  0  0
   -0.6931    3.3152   -1.6030 H   0  0  0  0  0  0  0  0  0  0  0  0
   -2.1092    2.5404   -0.8739 H   0  0  0  0  0  0  0  0  0  0  0  0
   -1.7677    0.4543   -2.1698 C   0  0  0  0  0  0  0  0  0  0  0  0
   -1.3435   -0.3960   -2.7374 H   0  0  0  0  0  0  0  0  0  0  0  0
   -2.2994    1.1094   -2.8932 H   0  0  0  0  0  0  0  0  0  0  0  0
   -2.7406   -0.0428   -1.0932 C   0  0  0  0  0  0  0  0  0  0  0  0
   -3.4250    0.7640   -0.7659 H   0  0  0  0  0  0  0  0  0  0  0  0
   -3.3702   -0.8686   -1.4865 H   0  0  0  0  0  0  0  0  0  0  0  0
   -1.9991   -0.5082    0.1117 N   0  0  0  0  0  0  0  0  0  0  0  0
   -0.5846    1.4811    1.2951 N   0  0  0  0  0  0  0  0  0  0  0  0
    0.0413    1.5612    2.1086 H   0  0  0  0  0  0  0  0  0  0  0  0
   -0.6253    1.1626   -1.5178 N   0  0  0  0  0  0  0  0  0  0  0  0
    0.1281    1.3022   -2.2064 H   0  0  0  0  0  0  0  0  0  0  0  0
   -1.5679   -2.8967   -0.1041 O   0  0  0  0  0  0  0  0  0  0  0  0
  1 20  1  0  0  0  0
  2  3  1  0  0  0  0
  2  5  1  0  0  0  0
  2  4  1  0  0  0  0
  5  7  1  0  0  0  0
  6  5  1  0  0  0  0
  8  9  1  0  0  0  0
  8 21  1  0  0  0  0
 10  8  1  0  0  0  0
 11 13  1  0  0  0  0
 11  8  1  0  0  0  0
 12 11  1  0  0  0  0
 14 23  1  0  0  0  0
 14 17  1  0  0  0  0
 15 14  1  0  0  0  0
 16 14  1  0  0  0  0
 17 18  1  0  0  0  0
 17 20  1  0  0  0  0
 19 17  1  0  0  0  0
 20  2  1  0  0  0  0
 21  5  1  0  0  0  0
 21 22  1  0  0  0  0
 23 11  1  0  0  0  0
 24 23  1  0  0  0  0
 25  1  2  0  0  0  0
M  END
