9
q = -1.0

 27 28  0  0  0  0  0  0  0  0999 V2000
   -4.3224   -1.2988    0.6407 O   0  0  0  0  0  0  0  0  0  0  0  0
   -0.8920    2.7206   -1.0587 O   0  0  0  0  0  0  0  0  0  0  0  0
   -3.5558   -0.2383    0.2339 C   0  0  0  0  0  0  0  0  0  0  0  0
   -3.9189    1.1094    0.3875 C   0  0  0  0  0  0  0  0  0  0  0  0
   -3.0444    2.1262   -0.0414 C   0  0  0  0  0  0  0  0  0  0  0  0
   -1.8166    1.7991   -0.6323 C   0  0  0  0  0  0  0  0  0  0  0  0
   -1.4534    0.4367   -0.8149 C   0  0  0  0  0  0  0  0  0  0  0  0
   -0.1814    0.0787   -1.4733 C   0  0  0  0  0  3  0  0  0  0  0  0
    0.0013   -1.2721   -1.9095 C   0  0  0  0  0  3  0  0  0  0  0  0
   -0.5259   -2.2593   -1.0249 C   0  0  0  0  0  3  0  0  0  0  0  0
   -1.9081   -2.0356   -0.4384 C   0  0  0  0  0  0  0  0  0  0  0  0
   -2.3189   -0.5816   -0.3606 C   0  0  0  0  0  0  0  0  0  0  0  0
   -5.5512   -1.0258    1.2774 C   0  0  0  0  0  0  0  0  0  0  0  0
   -1.1905    4.0890   -0.8945 C   0  0  0  0  0  0  0  0  0  0  0  0
   -4.8730    1.3902    0.8519 H   0  0  0  0  0  0  0  0  0  0  0  0
   -3.3401    3.1739    0.1013 H   0  0  0  0  0  0  0  0  0  0  0  0
    0.3143    0.8920   -2.0220 H   0  0  0  0  0  0  0  0  0  0  0  0
    0.6236   -1.5197   -2.7817 H   0  0  0  0  0  0  0  0  0  0  0  0
   -0.2753   -3.3150   -1.2252 H   0  0  0  0  0  0  0  0  0  0  0  0
   -2.6558   -2.5881   -1.0574 H   0  0  0  0  0  0  0  0  0  0  0  0
   -2.0066   -2.4903    0.5713 H   0  0  0  0  0  0  0  0  0  0  0  0
   -5.4145   -0.4352    2.2121 H   0  0  0  0  0  0  0  0  0  0  0  0
   -6.2533   -0.4725    0.6120 H   0  0  0  0  0  0  0  0  0  0  0  0
   -5.9992   -2.0042    1.5343 H   0  0  0  0  0  0  0  0  0  0  0  0
   -2.1009    4.3883   -1.4627 H   0  0  0  0  0  0  0  0  0  0  0  0
   -1.3404    4.3576    0.1764 H   0  0  0  0  0  0  0  0  0  0  0  0
   -0.3216    4.6510   -1.2860 H   0  0  0  0  0  0  0  0  0  0  0  0
  1 13  1  0  0  0  0
  2 14  1  0  0  0  0
  2  6  1  0  0  0  0
  3  4  1  0  0  0  0
  3  1  1  0  0  0  0
  4 15  1  0  0  0  0
  5 16  1  0  0  0  0
  5  4  2  0  0  0  0
  6  5  1  0  0  0  0
  7  6  2  0  0  0  0
  7 12  1  0  0  0  0
  8  7  1  0  0  0  0
  9  8  1  0  0  0  0
  9 10  1  0  0  0  0
 10 11  1  0  0  0  0
 11 12  1  0  0  0  0
 11 21  1  0  0  0  0
 12  3  2  0  0  0  0
 13 24  1  0  0  0  0
 13 22  1  0  0  0  0
 14 26  1  0  0  0  0
 17  8  1  0  0  0  0
 18  9  1  0  0  0  0
 19 10  1  0  0  0  0
 20 11  1  0  0  0  0
 23 13  1  0  0  0  0
 25 14  1  0  0  0  0
 27 14  1  0  0  0  0
M  END
