11
q = 0.0, confidence = 0.946

 37 39  0  0  0  0  0  0  0  0999 V2000
   -3.0654    2.3793    0.5470 F   0  0  0  0  0  0  0  0  0  0  0  0
   -2.5244    4.9740    0.2187 F   0  0  0  0  0  0  0  0  0  0  0  0
    0.0600    5.8821    0.1355 F   0  0  0  0  0  0  0  0  0  0  0  0
    2.1405    4.0654    0.4079 F   0  0  0  0  0  0  0  0  0  0  0  0
    1.6342    1.4835    0.8193 F   0  0  0  0  0  0  0  0  0  0  0  0
   -2.8247   -1.5042    2.4005 F   0  0  0  0  0  0  0  0  0  0  0  0
   -5.2076   -2.4652    1.5841 F   0  0  0  0  0  0  0  0  0  0  0  0
   -6.1436   -1.9055   -0.9341 F   0  0  0  0  0  0  0  0  0  0  0  0
   -4.6490   -0.3527   -2.6343 F   0  0  0  0  0  0  0  0  0  0  0  0
   -2.2503    0.6239   -1.8292 F   0  0  0  0  0  0  0  0  0  0  0  0
    0.0954   -0.6136   -0.2616 C   0  0  0  0  0  3  0  0  0  0  0  0
    0.3041   -2.0329   -0.3008 C   0  0  0  0  0  0  0  0  0  0  0  0
    1.2227   -2.5854   -1.2676 C   0  0  0  0  0  0  0  0  0  0  0  0
    1.5783   -3.9645   -1.2495 C   0  0  0  0  0  0  0  0  0  0  0  0
    1.0496   -4.8093   -0.2832 C   0  0  0  0  0  0  0  0  0  0  0  0
    0.1330   -4.2848    0.6753 C   0  0  0  0  0  0  0  0  0  0  0  0
   -0.2136   -2.9438    0.6892 C   0  0  0  0  0  0  0  0  0  0  0  0
   -0.7543    1.7625    0.6275 C   0  0  0  0  0  0  0  0  0  0  0  0
   -1.7707    2.7303    0.5065 C   0  0  0  0  0  0  0  0  0  0  0  0
   -1.5154    4.1056    0.3393 C   0  0  0  0  0  0  0  0  0  0  0  0
   -0.1927    4.5798    0.2984 C   0  0  0  0  0  0  0  0  0  0  0  0
    0.8584    3.6611    0.4379 C   0  0  0  0  0  0  0  0  0  0  0  0
    0.5233    2.3141    0.6116 C   0  0  0  0  0  0  0  0  0  0  0  0
   -2.4401   -0.3750    0.3260 C   0  0  0  0  0  0  0  0  0  0  0  0
   -3.2392   -1.1748    1.1542 C   0  0  0  0  0  0  0  0  0  0  0  0
   -4.4823   -1.6992    0.7555 C   0  0  0  0  0  0  0  0  0  0  0  0
   -4.9625   -1.4181   -0.5325 C   0  0  0  0  0  0  0  0  0  0  0  0
   -4.1946   -0.6236   -1.4016 C   0  0  0  0  0  0  0  0  0  0  0  0
   -2.9589   -0.1343   -0.9553 C   0  0  0  0  0  0  0  0  0  0  0  0
   -0.9472    0.1381    0.7522 B   0  0  0  0  0  0  0  0  0  0  0  0
   -0.7199   -0.1757    1.9279 H   0  0  0  0  0  0  0  0  0  0  0  0
    0.1466   -0.1642   -1.2787 H   0  0  0  0  0  0  0  0  0  0  0  0
    1.3957   -2.0298   -2.1990 H   0  0  0  0  0  0  0  0  0  0  0  0
    2.2417   -4.3611   -2.0340 H   0  0  0  0  0  0  0  0  0  0  0  0
    1.3037   -5.8795   -0.2745 H   0  0  0  0  0  0  0  0  0  0  0  0
   -0.3149   -4.9642    1.4173 H   0  0  0  0  0  0  0  0  0  0  0  0
   -0.9244   -2.5601    1.4338 H   0  0  0  0  0  0  0  0  0  0  0  0
  2 20  1  0  0  0  0
  3 21  1  0  0  0  0
  4 22  1  0  0  0  0
  8 27  1  0  0  0  0
  9 28  1  0  0  0  0
 10 29  1  0  0  0  0
 11 30  1  0  0  0  0
 12 11  1  0  0  0  0
 12 17  1  0  0  0  0
 13 14  1  0  0  0  0
 13 12  2  0  0  0  0
 14 15  2  0  0  0  0
 15 35  1  0  0  0  0
 15 16  1  0  0  0  0
 16 17  2  0  0  0  0
 16 36  1  0  0  0  0
 17 37  1  0  0  0  0
 18 30  1  0  0  0  0
 19  1  1  0  0  0  0
 19 18  2  0  0  0  0
 20 19  1  0  0  0  0
 21 20  2  0  0  0  0
 21 22  1  0  0  0  0
 22 23  2  0  0  0  0
 23 18  1  0  0  0  0
 23  5  1  0  0  0  0
 24 30  1  0  0  0  0
 24 25  1  0  0  0  0
 25  6  1  0  0  0  0
 26 25  2  0  0  0  0
 26  7  1  0  0  0  0
 27 26  1  0  0  0  0
 28 29  1  0  0  0  0
 28 27  2  0  0  0  0
 29 24  2  0  0  0  0
 30 31  1  0  0  0  0
 32 11  1  0  0  0  0
 33 13  1  0  0  0  0
 34 14  1  0  0  0  0
M  END
