10
q = 0.0, confidence = 0.986

 20 21  0  0  0  0  0  0  0  0999 V2000
   -0.8096    1.7854    0.0011 O   0  0  0  0  0  0  0  0  0  0  0  0
   -2.8247    0.1253    0.0000 N   0  0  0  0  0  0  0  0  0  0  0  0
   -1.5045   -0.3412    0.0009 C   0  0  0  0  0  0  0  0  0  0  0  0
   -1.6151   -1.7635    0.0023 C   0  0  0  0  0  0  0  0  0  0  0  0
   -2.9715   -2.1289    0.0022 C   0  0  0  0  0  0  0  0  0  0  0  0
   -3.7071   -0.9255    0.0007 C   0  0  0  0  0  0  0  0  0  0  0  0
   -5.0543   -0.3881   -0.0006 C   0  0  0  0  0  0  0  0  0  0  0  0
   -4.9707    0.9727   -0.0020 C   0  0  0  0  0  0  0  0  0  0  0  0
   -3.5251    1.4019   -0.0016 C   0  0  0  0  0  0  0  0  0  0  0  0
   -0.3492    0.5194    0.0010 C   0  0  0  0  0  2  0  0  0  0  0  0
    0.0304    2.9371    0.0033 C   0  0  0  0  0  0  0  0  0  0  0  0
   -0.7700   -2.4563    0.0035 H   0  0  0  0  0  0  0  0  0  0  0  0
   -3.3817   -3.1438    0.0032 H   0  0  0  0  0  0  0  0  0  0  0  0
   -5.9698   -0.9917   -0.0005 H   0  0  0  0  0  0  0  0  0  0  0  0
   -5.8055    1.6852   -0.0032 H   0  0  0  0  0  0  0  0  0  0  0  0
   -3.2516    2.0108    0.8873 H   0  0  0  0  0  0  0  0  0  0  0  0
   -3.2505    2.0092   -0.8913 H   0  0  0  0  0  0  0  0  0  0  0  0
   -0.6554    3.8048   -0.0018 H   0  0  0  0  0  0  0  0  0  0  0  0
    0.6622    2.9695    0.9102 H   0  0  0  0  0  0  0  0  0  0  0  0
    0.6719    2.9665   -0.8969 H   0  0  0  0  0  0  0  0  0  0  0  0
  1 11  1  0  0  0  0
  2  6  1  0  0  0  0
  2  3  1  0  0  0  0
  3 10  1  0  0  0  0
  3  4  2  0  0  0  0
  4 12  1  0  0  0  0
  5  4  1  0  0  0  0
  5 13  1  0  0  0  0
  6  5  2  0  0  0  0
  7 14  1  0  0  0  0
  7  6  1  0  0  0  0
  8  9  1  0  0  0  0
  8  7  2  0  0  0  0
  9  2  1  0  0  0  0
  9 16  1  0  0  0  0
 10  1  1  0  0  0  0
 11 19  1  0  0  0  0
 15  8  1  0  0  0  0
 17  9  1  0  0  0  0
 18 11  1  0  0  0  0
 20 11  1  0  0  0  0
M  END
