2
q = 0.0, confidence = 0.966

 28 29  0  0  1  0  0  0  0  0999 V2000
   -3.2718    0.4113    0.0868 N   0  0  0  0  0  0  0  0  0  0  0  0
   -0.5881    0.6808   -0.9599 C   0  0  0  0  0  1  0  0  0  0  0  0
   -1.3611    1.7158   -0.5885 C   0  0  2  0  0  3  0  0  0  0  0  0
   -0.6128    3.0092   -0.5411 C   0  0  0  0  0  0  0  0  0  0  0  0
    0.0466    3.5004   -1.6873 C   0  0  0  0  0  0  0  0  0  0  0  0
    0.8238    4.6683   -1.6214 C   0  0  0  0  0  0  0  0  0  0  0  0
    0.9554    5.3543   -0.4042 C   0  0  0  0  0  0  0  0  0  0  0  0
    0.2955    4.8740    0.7415 C   0  0  0  0  0  0  0  0  0  0  0  0
   -0.4855    3.7139    0.6760 C   0  0  0  0  0  0  0  0  0  0  0  0
   -2.8047    1.6590   -0.2231 C   0  0  0  0  0  0  0  0  0  0  0  0
   -4.5714   -0.0517    0.3767 C   0  0  0  0  0  0  0  0  0  0  0  0
   -4.6648   -1.3652    0.9059 C   0  0  0  0  0  0  0  0  0  0  0  0
   -5.9133   -1.9235    1.1995 C   0  0  0  0  0  0  0  0  0  0  0  0
   -7.0935   -1.1947    0.9767 C   0  0  0  0  0  0  0  0  0  0  0  0
   -7.0011    0.1016    0.4482 C   0  0  0  0  0  0  0  0  0  0  0  0
   -5.7594    0.6796    0.1477 C   0  0  0  0  0  0  0  0  0  0  0  0
   -3.6783    3.0893   -0.2077 S   0  0  0  0  0  0  0  0  0  0  0  0
   -2.5582   -0.3398    0.1978 H   0  0  0  0  0  0  0  0  0  0  0  0
   -0.0652    2.9576   -2.6371 H   0  0  0  0  0  0  0  0  0  0  0  0
    1.3247    5.0449   -2.5265 H   0  0  0  0  0  0  0  0  0  0  0  0
    1.5669    6.2679   -0.3471 H   0  0  0  0  0  0  0  0  0  0  0  0
    0.3966    5.4061    1.6997 H   0  0  0  0  0  0  0  0  0  0  0  0
   -0.9942    3.3314    1.5716 H   0  0  0  0  0  0  0  0  0  0  0  0
   -3.7373   -1.9366    1.0649 H   0  0  0  0  0  0  0  0  0  0  0  0
   -5.9613   -2.9439    1.6104 H   0  0  0  0  0  0  0  0  0  0  0  0
   -8.0745   -1.6333    1.2136 H   0  0  0  0  0  0  0  0  0  0  0  0
   -7.9156    0.6867    0.2636 H   0  0  0  0  0  0  0  0  0  0  0  0
   -5.6918    1.6994   -0.2488 H   0  0  0  0  0  0  0  0  0  0  0  0
  1 18  1  0  0  0  0
  1 11  1  0  0  0  0
  3  2  1  1  0  0  0
  3  4  1  0  0  0  0
  3 10  1  0  0  0  0
  4  9  1  0  0  0  0
  5  6  1  0  0  0  0
  5  4  2  0  0  0  0
  6  7  2  0  0  0  0
  7 21  1  0  0  0  0
  7  8  1  0  0  0  0
  8 22  1  0  0  0  0
  9  8  2  0  0  0  0
  9 23  1  0  0  0  0
 10 17  2  0  0  0  0
 10  1  1  0  0  0  0
 11 12  1  0  0  0  0
 12 24  1  0  0  0  0
 12 13  2  0  0  0  0
 13 25  1  0  0  0  0
 14 13  1  0  0  0  0
 14 26  1  0  0  0  0
 15 14  2  0  0  0  0
 16 11  2  0  0  0  0
 16 15  1  0  0  0  0
 19  5  1  0  0  0  0
 20  6  1  0  0  0  0
 27 15  1  0  0  0  0
 28 16  1  0  0  0  0
M  END
