2
q = -1.0

 27 27  0  0  0  0  0  0  0  0999 V2000
    5.4201    0.0796   -0.1084 S   0  0  0  0  0  0  0  0  0  0  0  0
    1.7414   -1.9494   -0.5578 C   0  0  0  0  0  1  0  0  0  0  0  0
    2.9467   -2.2177   -0.6281 C   0  0  0  0  0  2  0  0  0  0  0  0
    4.4027   -2.3809   -0.5974 C   0  0  0  0  0  0  0  0  0  0  0  0
    4.8596   -2.1626   -1.5843 H   0  0  0  0  0  0  0  0  0  0  0  0
    4.6846   -3.4285   -0.3466 H   0  0  0  0  0  0  0  0  0  0  0  0
    5.0749   -1.5149    0.3881 N   0  0  0  0  0  0  0  0  0  0  0  0
    3.8845    1.0253   -0.0825 C   0  0  0  0  0  0  0  0  0  0  0  0
    6.2848    0.6454    0.9480 O   0  0  0  0  0  0  0  0  0  0  0  0
    3.1306    1.1538   -1.2568 C   0  0  0  0  0  0  0  0  0  0  0  0
    3.4765    0.6660   -2.1783 H   0  0  0  0  0  0  0  0  0  0  0  0
    3.4705    1.6379    1.1116 C   0  0  0  0  0  0  0  0  0  0  0  0
    4.0944    1.5491    2.0123 H   0  0  0  0  0  0  0  0  0  0  0  0
    1.9567    1.9182   -1.2339 C   0  0  0  0  0  0  0  0  0  0  0  0
    1.3648    2.0305   -2.1556 H   0  0  0  0  0  0  0  0  0  0  0  0
    1.5219    2.5600   -0.0560 C   0  0  0  0  0  0  0  0  0  0  0  0
    2.2910    2.3930    1.1174 C   0  0  0  0  0  0  0  0  0  0  0  0
    1.9734    2.8927    2.0470 H   0  0  0  0  0  0  0  0  0  0  0  0
    5.8532   -0.0220   -1.5176 O   0  0  0  0  0  0  0  0  0  0  0  0
    4.6720   -1.6801    1.7786 C   0  0  0  0  0  0  0  0  0  0  0  0
    3.5950   -1.4465    1.9476 H   0  0  0  0  0  0  0  0  0  0  0  0
    5.3066   -1.0334    2.4112 H   0  0  0  0  0  0  0  0  0  0  0  0
    4.8491   -2.7353    2.0717 H   0  0  0  0  0  0  0  0  0  0  0  0
    0.2964    3.4366   -0.0503 C   0  0  0  0  0  0  0  0  0  0  0  0
   -0.2327    3.4093   -1.0212 H   0  0  0  0  0  0  0  0  0  0  0  0
    0.5681    4.4924    0.1610 H   0  0  0  0  0  0  0  0  0  0  0  0
   -0.4229    3.1283    0.7358 H   0  0  0  0  0  0  0  0  0  0  0  0
  1  8  1  0  0  0  0
  1  7  1  0  0  0  0
  1  9  2  0  0  0  0
  3  4  1  0  0  0  0
  3  2  1  0  0  0  0
  4  6  1  0  0  0  0
  4  7  1  0  0  0  0
  5  4  1  0  0  0  0
  7 20  1  0  0  0  0
  8 12  1  0  0  0  0
 10 14  1  0  0  0  0
 10  8  2  0  0  0  0
 11 10  1  0  0  0  0
 12 17  2  0  0  0  0
 12 13  1  0  0  0  0
 14 16  2  0  0  0  0
 15 14  1  0  0  0  0
 16 24  1  0  0  0  0
 16 17  1  0  0  0  0
 17 18  1  0  0  0  0
 19  1  2  0  0  0  0
 20 21  1  0  0  0  0
 20 23  1  0  0  0  0
 20 22  1  0  0  0  0
 24 26  1  0  0  0  0
 24 27  1  0  0  0  0
 25 24  1  0  0  0  0
M  END
