7
q = 0.0, confidence = 0.988

 23 25  0  0  0  0  0  0  0  0999 V2000
   -3.6462    0.9496   -0.7358 N   0  0  0  0  0  0  0  0  0  0  0  0
   -2.7457   -0.0133   -0.7660 C   0  0  0  0  0  0  0  0  0  0  0  0
   -1.3414    0.2728   -1.1273 C   0  0  0  0  0  3  0  0  0  0  0  0
   -1.0933    1.3375   -1.2447 H   0  0  0  0  0  0  0  0  0  0  0  0
   -0.5910   -0.7110   -1.8644 C   0  0  0  0  0  3  0  0  0  0  0  0
    0.1767   -0.4436   -2.6071 H   0  0  0  0  0  0  0  0  0  0  0  0
   -0.8444   -2.0659   -1.5164 C   0  0  0  0  0  3  0  0  0  0  0  0
   -0.2915   -2.8976   -1.9785 H   0  0  0  0  0  0  0  0  0  0  0  0
   -1.8159   -2.2601   -0.4623 C   0  0  0  0  0  3  0  0  0  0  0  0
   -1.9213   -3.2742   -0.0453 H   0  0  0  0  0  0  0  0  0  0  0  0
   -2.9994   -1.3884   -0.4065 C   0  0  0  0  0  0  0  0  0  0  0  0
   -4.2731   -1.7316    0.0043 C   0  0  0  0  0  0  0  0  0  0  0  0
   -4.5154   -2.7631    0.3080 H   0  0  0  0  0  0  0  0  0  0  0  0
   -5.2843   -0.7215    0.0559 C   0  0  0  0  0  0  0  0  0  0  0  0
   -6.6178   -0.9787    0.4750 C   0  0  0  0  0  0  0  0  0  0  0  0
   -6.8911   -2.0033    0.7743 H   0  0  0  0  0  0  0  0  0  0  0  0
   -7.5634    0.0412    0.5056 C   0  0  0  0  0  0  0  0  0  0  0  0
   -8.5936   -0.1731    0.8285 H   0  0  0  0  0  0  0  0  0  0  0  0
   -7.2045    1.3581    0.1220 C   0  0  0  0  0  0  0  0  0  0  0  0
   -7.9592    2.1590    0.1494 H   0  0  0  0  0  0  0  0  0  0  0  0
   -5.9052    1.6412   -0.2860 C   0  0  0  0  0  0  0  0  0  0  0  0
   -5.5960    2.6534   -0.5850 H   0  0  0  0  0  0  0  0  0  0  0  0
   -4.9179    0.6199   -0.3323 C   0  0  0  0  0  0  0  0  0  0  0  0
  1 23  1  0  0  0  0
  2  1  2  0  0  0  0
  2 11  1  0  0  0  0
  3  2  1  0  0  0  0
  4  3  1  0  0  0  0
  5  7  1  0  0  0  0
  5  3  1  0  0  0  0
  6  5  1  0  0  0  0
  7  9  1  0  0  0  0
  8  7  1  0  0  0  0
  9 11  1  0  0  0  0
  9 10  1  0  0  0  0
 11 12  2  0  0  0  0
 12 14  1  0  0  0  0
 12 13  1  0  0  0  0
 14 15  1  0  0  0  0
 15 17  2  0  0  0  0
 15 16  1  0  0  0  0
 17 18  1  0  0  0  0
 19 20  1  0  0  0  0
 19 17  1  0  0  0  0
 21 19  2  0  0  0  0
 22 21  1  0  0  0  0
 23 21  1  0  0  0  0
 23 14  2  0  0  0  0
M  END
