5
q = -1.0, confidence = 0.002

 35 36  0  0  0  0  0  0  0  0999 V2000
   -0.2925    0.0584   -0.1371 P   0  0  0  0  0  0  0  0  0  0  0  0
    0.0406   -0.1296    1.5649 N   0  0  0  0  0  0  0  0  0  0  0  0
   -0.8211   -0.2440    2.6591 N   0  0  0  0  0  0  0  0  0  0  0  0
    2.1298   -0.5921    2.4926 O   0  0  0  0  0  0  0  0  0  0  0  0
    1.4409   -0.4018    1.5068 C   0  0  0  0  0  3  0  0  0  0  0  0
   -1.6820   -1.0514   -0.5628 C   0  0  0  0  0  0  0  0  0  0  0  0
   -2.8690   -1.0343    0.2030 C   0  0  0  0  0  0  0  0  0  0  0  0
   -3.9158   -1.9092   -0.1187 C   0  0  0  0  0  0  0  0  0  0  0  0
   -3.7935   -2.7871   -1.2097 C   0  0  0  0  0  0  0  0  0  0  0  0
   -2.6181   -2.7979   -1.9768 C   0  0  0  0  0  0  0  0  0  0  0  0
   -1.5596   -1.9359   -1.6516 C   0  0  0  0  0  0  0  0  0  0  0  0
   -1.0257    1.7278   -0.3450 C   0  0  0  0  0  0  0  0  0  0  0  0
   -0.5297    2.7980    0.4291 C   0  0  0  0  0  0  0  0  0  0  0  0
   -1.0249    4.0956    0.2401 C   0  0  0  0  0  0  0  0  0  0  0  0
   -2.0102    4.3393   -0.7319 C   0  0  0  0  0  0  0  0  0  0  0  0
   -2.5013    3.2796   -1.5102 C   0  0  0  0  0  0  0  0  0  0  0  0
   -2.0143    1.9771   -1.3177 C   0  0  0  0  0  0  0  0  0  0  0  0
   -0.8477   -1.6065    3.1921 C   0  0  0  0  0  0  0  0  0  0  0  0
   -0.5886    0.7842    3.6707 C   0  0  0  0  0  0  0  0  0  0  0  0
   -2.9502   -0.3488    1.0604 H   0  0  0  0  0  0  0  0  0  0  0  0
   -4.8365   -1.9052    0.4848 H   0  0  0  0  0  0  0  0  0  0  0  0
   -4.6207   -3.4682   -1.4619 H   0  0  0  0  0  0  0  0  0  0  0  0
   -2.5205   -3.4868   -2.8295 H   0  0  0  0  0  0  0  0  0  0  0  0
   -0.6276   -1.9457   -2.2370 H   0  0  0  0  0  0  0  0  0  0  0  0
    0.2447    2.6025    1.1868 H   0  0  0  0  0  0  0  0  0  0  0  0
   -0.6403    4.9230    0.8559 H   0  0  0  0  0  0  0  0  0  0  0  0
   -2.3974    5.3587   -0.8807 H   0  0  0  0  0  0  0  0  0  0  0  0
   -3.2746    3.4657   -2.2709 H   0  0  0  0  0  0  0  0  0  0  0  0
   -2.4113    1.1464   -1.9210 H   0  0  0  0  0  0  0  0  0  0  0  0
    0.1199   -1.9045    3.6586 H   0  0  0  0  0  0  0  0  0  0  0  0
   -1.6528   -1.6800    3.9510 H   0  0  0  0  0  0  0  0  0  0  0  0
   -1.0792   -2.3097    2.3687 H   0  0  0  0  0  0  0  0  0  0  0  0
   -0.6771    1.7839    3.2039 H   0  0  0  0  0  0  0  0  0  0  0  0
   -1.3712    0.7009    4.4519 H   0  0  0  0  0  0  0  0  0  0  0  0
    0.4132    0.6940    4.1520 H   0  0  0  0  0  0  0  0  0  0  0  0
  1  2  1  0  0  0  0
  2  3  1  0  0  0  0
  3 18  1  0  0  0  0
  3 19  1  0  0  0  0
  5  2  1  0  0  0  0
  5  4  2  0  0  0  0
  6  1  1  0  0  0  0
  6  7  1  0  0  0  0
  7 20  1  0  0  0  0
  8  7  2  0  0  0  0
  8 21  1  0  0  0  0
  9  8  1  0  0  0  0
 10 11  1  0  0  0  0
 10  9  2  0  0  0  0
 11  6  2  0  0  0  0
 12  1  1  0  0  0  0
 12 13  1  0  0  0  0
 13 25  1  0  0  0  0
 14 13  2  0  0  0  0
 14 26  1  0  0  0  0
 15 14  1  0  0  0  0
 16 17  1  0  0  0  0
 16 15  2  0  0  0  0
 17 12  2  0  0  0  0
 18 30  1  0  0  0  0
 18 31  1  0  0  0  0
 19 35  1  0  0  0  0
 19 34  1  0  0  0  0
 22  9  1  0  0  0  0
 23 10  1  0  0  0  0
 24 11  1  0  0  0  0
 27 15  1  0  0  0  0
 28 16  1  0  0  0  0
 29 17  1  0  0  0  0
 32 18  1  0  0  0  0
 33 19  1  0  0  0  0
M  END
