3
q = 0.0, confidence = 0.916

 12 12  0  0  1  0  0  0  0  0999 V2000
   -1.4780    1.3687    0.7164 C   0  0  0  0  0  0  0  0  0  0  0  0
   -1.4780    1.3687   -0.7163 C   0  0  0  0  0  0  0  0  0  0  0  0
   -1.8360   -0.0637   -0.7507 C   0  0  2  0  0  3  0  0  0  0  0  0
   -1.8360   -0.0637    0.7507 C   0  0  1  0  0  3  0  0  0  0  0  0
   -1.2777   -1.0720    1.5474 C   0  0  0  0  0  3  0  0  0  0  0  0
   -1.2776   -1.0719   -1.5474 C   0  0  0  0  0  3  0  0  0  0  0  0
   -1.3549    2.1399    1.4860 H   0  0  0  0  0  0  0  0  0  0  0  0
   -1.3550    2.1399   -1.4859 H   0  0  0  0  0  0  0  0  0  0  0  0
   -1.4494   -2.1289    1.2939 H   0  0  0  0  0  0  0  0  0  0  0  0
   -0.9982   -0.8541    2.5888 H   0  0  0  0  0  0  0  0  0  0  0  0
   -1.4492   -2.1288   -1.2939 H   0  0  0  0  0  0  0  0  0  0  0  0
   -0.9980   -0.8539   -2.5888 H   0  0  0  0  0  0  0  0  0  0  0  0
  1  4  1  0  0  0  0
  1  7  1  0  0  0  0
  2  1  2  0  0  0  0
  3  6  1  6  0  0  0
  3  2  1  0  0  0  0
  3  4  1  0  0  0  0
  4  5  1  1  0  0  0
  5 10  1  0  0  0  0
  6 11  1  0  0  0  0
  8  2  1  0  0  0  0
  9  5  1  0  0  0  0
 12  6  1  0  0  0  0
M  END
