3
q = 0.0, confidence = 0.996

 52 55  0  0  1  0  0  0  0  0999 V2000
   -1.8742    1.3335    0.7839 P   0  0  0  0  0  0  0  0  0  0  0  0
   -1.1446   -0.0986   -0.2424 C   0  0  2  0  0  3  0  0  0  0  0  0
    0.2443   -0.1608   -0.4643 C   0  0  0  0  0  3  0  0  0  0  0  0
    1.1827    0.4717   -1.2053 C   0  0  0  0  0  0  0  0  0  0  0  0
    0.7927    1.2686   -1.8684 H   0  0  0  0  0  0  0  0  0  0  0  0
   -2.1514   -0.6101   -1.2284 C   0  0  0  0  0  0  0  0  0  0  0  0
   -3.4853   -0.8689   -0.8372 C   0  0  0  0  0  0  0  0  0  0  0  0
   -3.7763   -0.7039    0.2109 H   0  0  0  0  0  0  0  0  0  0  0  0
   -4.4295   -1.3330   -1.7643 C   0  0  0  0  0  0  0  0  0  0  0  0
   -5.4606   -1.5319   -1.4339 H   0  0  0  0  0  0  0  0  0  0  0  0
   -4.0691   -1.5389   -3.1060 C   0  0  0  0  0  0  0  0  0  0  0  0
   -4.8128   -1.8977   -3.8333 H   0  0  0  0  0  0  0  0  0  0  0  0
   -2.7503   -1.2733   -3.5116 C   0  0  0  0  0  0  0  0  0  0  0  0
   -2.4559   -1.4213   -4.5622 H   0  0  0  0  0  0  0  0  0  0  0  0
   -1.8037   -0.8133   -2.5858 C   0  0  0  0  0  0  0  0  0  0  0  0
   -0.7698   -0.6093   -2.9038 H   0  0  0  0  0  0  0  0  0  0  0  0
    2.6295    0.2648   -1.3086 C   0  0  0  0  0  0  0  0  0  0  0  0
    3.3184    0.8245   -2.4123 C   0  0  0  0  0  0  0  0  0  0  0  0
    2.7484    1.4041   -3.1561 H   0  0  0  0  0  0  0  0  0  0  0  0
    4.6977    0.6548   -2.5772 C   0  0  0  0  0  0  0  0  0  0  0  0
    5.1983    1.1027   -3.4507 H   0  0  0  0  0  0  0  0  0  0  0  0
    5.4612   -0.0738   -1.6434 C   0  0  0  0  0  0  0  0  0  0  0  0
    4.7824   -0.6111   -0.5281 C   0  0  0  0  0  0  0  0  0  0  0  0
    5.3549   -1.1601    0.2372 H   0  0  0  0  0  0  0  0  0  0  0  0
    3.4040   -0.4483   -0.3604 C   0  0  0  0  0  0  0  0  0  0  0  0
    2.9204   -0.8445    0.5393 H   0  0  0  0  0  0  0  0  0  0  0  0
    6.9432   -0.2812   -1.8245 C   0  0  0  0  0  0  0  0  0  0  0  0
    7.1669   -1.3171   -2.1600 H   0  0  0  0  0  0  0  0  0  0  0  0
    7.4956   -0.1270   -0.8750 H   0  0  0  0  0  0  0  0  0  0  0  0
    7.3634    0.4088   -2.5820 H   0  0  0  0  0  0  0  0  0  0  0  0
   -1.6656    2.7629   -0.3798 C   0  0  0  0  0  0  0  0  0  0  0  0
   -1.6729    2.6435   -1.7860 C   0  0  0  0  0  0  0  0  0  0  0  0
   -1.7328    1.6535   -2.2560 H   0  0  0  0  0  0  0  0  0  0  0  0
   -1.6127    3.7839   -2.6036 C   0  0  0  0  0  0  0  0  0  0  0  0
   -1.6125    3.6635   -3.6981 H   0  0  0  0  0  0  0  0  0  0  0  0
   -1.5528    5.0648   -2.0360 C   0  0  0  0  0  0  0  0  0  0  0  0
   -1.5027    5.9569   -2.6786 H   0  0  0  0  0  0  0  0  0  0  0  0
   -1.5618    5.1975   -0.6375 C   0  0  0  0  0  0  0  0  0  0  0  0
   -1.5199    6.1966   -0.1767 H   0  0  0  0  0  0  0  0  0  0  0  0
   -1.6223    4.0616    0.1806 C   0  0  0  0  0  0  0  0  0  0  0  0
   -1.6245    4.1832    1.2750 H   0  0  0  0  0  0  0  0  0  0  0  0
   -0.5530    1.7346    2.0134 C   0  0  0  0  0  0  0  0  0  0  0  0
   -0.8410    1.4875    3.3725 C   0  0  0  0  0  0  0  0  0  0  0  0
   -1.8117    1.0450    3.6455 H   0  0  0  0  0  0  0  0  0  0  0  0
    0.0968    1.7997    4.3685 C   0  0  0  0  0  0  0  0  0  0  0  0
   -0.1388    1.5993    5.4249 H   0  0  0  0  0  0  0  0  0  0  0  0
    1.3302    2.3677    4.0163 C   0  0  0  0  0  0  0  0  0  0  0  0
    2.0680    2.6111    4.7962 H   0  0  0  0  0  0  0  0  0  0  0  0
    1.6218    2.6278    2.6669 C   0  0  0  0  0  0  0  0  0  0  0  0
    2.5891    3.0721    2.3865 H   0  0  0  0  0  0  0  0  0  0  0  0
    0.6867    2.3181    1.6708 C   0  0  0  0  0  0  0  0  0  0  0  0
    0.9157    2.5317    0.6176 H   0  0  0  0  0  0  0  0  0  0  0  0
  1 42  1  0  0  0  0
  2  3  1  6  0  0  0
  2  1  1  0  0  0  0
  4  3  2  0  0  0  0
  5  4  1  0  0  0  0
  6  7  1  0  0  0  0
  6  2  1  0  0  0  0
  7  8  1  0  0  0  0
  9 10  1  0  0  0  0
  9  7  2  0  0  0  0
 11  9  1  0  0  0  0
 12 11  1  0  0  0  0
 13 11  2  0  0  0  0
 13 15  1  0  0  0  0
 14 13  1  0  0  0  0
 15  6  2  0  0  0  0
 16 15  1  0  0  0  0
 17  4  1  0  0  0  0
 17 25  1  0  0  0  0
 18 17  2  0  0  0  0
 19 18  1  0  0  0  0
 20 18  1  0  0  0  0
 20 22  2  0  0  0  0
 21 20  1  0  0  0  0
 22 23  1  0  0  0  0
 23 25  2  0  0  0  0
 23 24  1  0  0  0  0
 25 26  1  0  0  0  0
 27 22  1  0  0  0  0
 27 29  1  0  0  0  0
 28 27  1  0  0  0  0
 30 27  1  0  0  0  0
 31 40  1  0  0  0  0
 31  1  1  0  0  0  0
 32 31  2  0  0  0  0
 33 32  1  0  0  0  0
 34 36  2  0  0  0  0
 34 32  1  0  0  0  0
 35 34  1  0  0  0  0
 36 38  1  0  0  0  0
 37 36  1  0  0  0  0
 38 39  1  0  0  0  0
 38 40  2  0  0  0  0
 40 41  1  0  0  0  0
 42 43  1  0  0  0  0
 43 44  1  0  0  0  0
 43 45  2  0  0  0  0
 45 46  1  0  0  0  0
 47 45  1  0  0  0  0
 47 48  1  0  0  0  0
 49 47  2  0  0  0  0
 50 49  1  0  0  0  0
 51 42  2  0  0  0  0
 51 49  1  0  0  0  0
 52 51  1  0  0  0  0
M  END
