3
q = 0.0, confidence = 0.994

 58 59  0  0  0  0  0  0  0  0999 V2000
    1.4245   -0.5411   -0.5119 Si  0  0  0  0  0  0  0  0  0  0  0  0
    0.5735    2.2240   -0.1034 N   0  0  0  0  0  0  0  0  0  0  0  0
    0.2201    0.9426   -0.2091 C   0  0  0  0  0  2  0  0  0  0  0  0
   -0.5228    3.2559   -0.0716 C   0  0  0  0  0  0  0  0  0  0  0  0
   -1.4118    2.6219    0.1444 H   0  0  0  0  0  0  0  0  0  0  0  0
   -0.3959    4.2977    1.0379 C   0  0  0  0  0  0  0  0  0  0  0  0
   -0.2180    3.8366    2.0286 H   0  0  0  0  0  0  0  0  0  0  0  0
   -1.3521    4.8557    1.0939 H   0  0  0  0  0  0  0  0  0  0  0  0
    0.4010    5.0435    0.8463 H   0  0  0  0  0  0  0  0  0  0  0  0
   -0.7728    3.8822   -1.4481 C   0  0  0  0  0  0  0  0  0  0  0  0
   -1.7449    4.4147   -1.4138 H   0  0  0  0  0  0  0  0  0  0  0  0
   -0.8601    3.0896   -2.2163 H   0  0  0  0  0  0  0  0  0  0  0  0
   -0.0014    4.6185   -1.7418 H   0  0  0  0  0  0  0  0  0  0  0  0
    2.0092    2.6390   -0.0658 C   0  0  0  0  0  0  0  0  0  0  0  0
    2.5480    1.6922   -0.2581 H   0  0  0  0  0  0  0  0  0  0  0  0
    2.4837    3.1235    1.3133 C   0  0  0  0  0  0  0  0  0  0  0  0
    2.2291    4.1814    1.5065 H   0  0  0  0  0  0  0  0  0  0  0  0
    3.5873    3.0315    1.3569 H   0  0  0  0  0  0  0  0  0  0  0  0
    2.0716    2.5041    2.1296 H   0  0  0  0  0  0  0  0  0  0  0  0
    2.4050    3.6274   -1.1646 C   0  0  0  0  0  0  0  0  0  0  0  0
    2.0711    3.2908   -2.1639 H   0  0  0  0  0  0  0  0  0  0  0  0
    3.5100    3.7146   -1.1834 H   0  0  0  0  0  0  0  0  0  0  0  0
    2.0001    4.6408   -0.9795 H   0  0  0  0  0  0  0  0  0  0  0  0
    2.4760   -0.4272   -2.1681 C   0  0  0  0  0  0  0  0  0  0  0  0
    1.6503    0.3141   -3.2378 C   0  0  0  0  0  0  0  0  0  0  0  0
    1.4553    1.3675   -2.9551 H   0  0  0  0  0  0  0  0  0  0  0  0
    0.6565   -0.1416   -3.4120 H   0  0  0  0  0  0  0  0  0  0  0  0
    2.2025    0.3193   -4.2040 H   0  0  0  0  0  0  0  0  0  0  0  0
    3.8328    0.2844   -1.9919 C   0  0  0  0  0  0  0  0  0  0  0  0
    4.4126    0.2041   -2.9380 H   0  0  0  0  0  0  0  0  0  0  0  0
    4.4514   -0.1575   -1.1863 H   0  0  0  0  0  0  0  0  0  0  0  0
    3.7277    1.3654   -1.7823 H   0  0  0  0  0  0  0  0  0  0  0  0
    2.7584   -1.8649   -2.6587 C   0  0  0  0  0  0  0  0  0  0  0  0
    3.3732   -1.8210   -3.5850 H   0  0  0  0  0  0  0  0  0  0  0  0
    1.8313   -2.4200   -2.8944 H   0  0  0  0  0  0  0  0  0  0  0  0
    3.3219   -2.4682   -1.9173 H   0  0  0  0  0  0  0  0  0  0  0  0
    2.5257   -0.7256    1.0346 C   0  0  0  0  0  0  0  0  0  0  0  0
    2.1482   -0.1500    2.2692 C   0  0  0  0  0  0  0  0  0  0  0  0
    1.2363    0.4644    2.3259 H   0  0  0  0  0  0  0  0  0  0  0  0
    2.9046   -0.3474    3.4355 C   0  0  0  0  0  0  0  0  0  0  0  0
    2.5826    0.1133    4.3822 H   0  0  0  0  0  0  0  0  0  0  0  0
    4.0667   -1.1324    3.3925 C   0  0  0  0  0  0  0  0  0  0  0  0
    4.6644   -1.2887    4.3035 H   0  0  0  0  0  0  0  0  0  0  0  0
    4.4578   -1.7240    2.1807 C   0  0  0  0  0  0  0  0  0  0  0  0
    5.3629   -2.3494    2.1389 H   0  0  0  0  0  0  0  0  0  0  0  0
    3.6928   -1.5257    1.0207 C   0  0  0  0  0  0  0  0  0  0  0  0
    4.0098   -2.0190    0.0890 H   0  0  0  0  0  0  0  0  0  0  0  0
    0.3980   -2.1460   -0.5973 C   0  0  0  0  0  0  0  0  0  0  0  0
   -0.4719   -2.4286   -1.6802 C   0  0  0  0  0  0  0  0  0  0  0  0
   -0.6805   -1.6548   -2.4345 H   0  0  0  0  0  0  0  0  0  0  0  0
   -1.1110   -3.6715   -1.7899 C   0  0  0  0  0  0  0  0  0  0  0  0
   -1.7820   -3.8634   -2.6414 H   0  0  0  0  0  0  0  0  0  0  0  0
   -0.9096   -4.6618   -0.8123 C   0  0  0  0  0  0  0  0  0  0  0  0
   -1.4159   -5.6358   -0.8967 H   0  0  0  0  0  0  0  0  0  0  0  0
   -0.0638   -4.3965    0.2748 C   0  0  0  0  0  0  0  0  0  0  0  0
    0.0979   -5.1623    1.0494 H   0  0  0  0  0  0  0  0  0  0  0  0
    0.5880   -3.1551    0.3743 C   0  0  0  0  0  0  0  0  0  0  0  0
    1.2608   -2.9739    1.2267 H   0  0  0  0  0  0  0  0  0  0  0  0
  1  3  1  0  0  0  0
  1 37  1  0  0  0  0
  2  4  1  0  0  0  0
  2 14  1  0  0  0  0
  3  2  1  0  0  0  0
  4  5  1  0  0  0  0
  4  6  1  0  0  0  0
  6  8  1  0  0  0  0
  6  7  1  0  0  0  0
  9  6  1  0  0  0  0
 10 11  1  0  0  0  0
 10  4  1  0  0  0  0
 12 10  1  0  0  0  0
 13 10  1  0  0  0  0
 14 16  1  0  0  0  0
 15 14  1  0  0  0  0
 16 18  1  0  0  0  0
 16 17  1  0  0  0  0
 16 19  1  0  0  0  0
 20 23  1  0  0  0  0
 20 14  1  0  0  0  0
 21 20  1  0  0  0  0
 22 20  1  0  0  0  0
 24 29  1  0  0  0  0
 24  1  1  0  0  0  0
 25 26  1  0  0  0  0
 25 24  1  0  0  0  0
 27 25  1  0  0  0  0
 28 25  1  0  0  0  0
 29 32  1  0  0  0  0
 29 31  1  0  0  0  0
 30 29  1  0  0  0  0
 33 24  1  0  0  0  0
 33 36  1  0  0  0  0
 34 33  1  0  0  0  0
 35 33  1  0  0  0  0
 37 38  1  0  0  0  0
 38 39  1  0  0  0  0
 38 40  2  0  0  0  0
 40 41  1  0  0  0  0
 42 40  1  0  0  0  0
 42 43  1  0  0  0  0
 44 42  2  0  0  0  0
 45 44  1  0  0  0  0
 46 37  2  0  0  0  0
 46 44  1  0  0  0  0
 47 46  1  0  0  0  0
 48  1  1  0  0  0  0
 48 57  1  0  0  0  0
 49 48  2  0  0  0  0
 50 49  1  0  0  0  0
 51 49  1  0  0  0  0
 51 53  2  0  0  0  0
 52 51  1  0  0  0  0
 53 55  1  0  0  0  0
 54 53  1  0  0  0  0
 55 57  2  0  0  0  0
 55 56  1  0  0  0  0
 57 58  1  0  0  0  0
M  END
