1
q = 0.0, confidence = 0.83

 16 16  0  0  0  0  0  0  0  0999 V2000
    0.4821    1.3003    0.2098 C   0  0  0  0  0  2  0  0  0  0  0  0
    1.1301    2.2232   -0.7938 C   0  0  0  0  0  0  0  0  0  0  0  0
    2.4918    2.7379   -0.3613 C   0  0  0  0  0  0  0  0  0  0  0  0
    2.6881    3.3131    0.9122 C   0  0  0  0  0  0  0  0  0  0  0  0
    3.9547    3.7630    1.3114 C   0  0  0  0  0  0  0  0  0  0  0  0
    5.0513    3.6538    0.4411 C   0  0  0  0  0  0  0  0  0  0  0  0
    4.8659    3.1011   -0.8352 C   0  0  0  0  0  0  0  0  0  0  0  0
    3.5976    2.6477   -1.2299 C   0  0  0  0  0  0  0  0  0  0  0  0
    1.8371    3.4114    1.6040 H   0  0  0  0  0  0  0  0  0  0  0  0
    4.0859    4.2052    2.3110 H   0  0  0  0  0  0  0  0  0  0  0  0
    6.0458    4.0055    0.7550 H   0  0  0  0  0  0  0  0  0  0  0  0
    5.7147    3.0208   -1.5316 H   0  0  0  0  0  0  0  0  0  0  0  0
    3.4588    2.2183   -2.2340 H   0  0  0  0  0  0  0  0  0  0  0  0
    0.5701    1.6569    1.2678 H   0  0  0  0  0  0  0  0  0  0  0  0
    0.4401    3.0968   -0.8760 H   0  0  0  0  0  0  0  0  0  0  0  0
    1.1675    1.7620   -1.7986 H   0  0  0  0  0  0  0  0  0  0  0  0
  1 14  1  0  0  0  0
  2  3  1  0  0  0  0
  2  1  1  0  0  0  0
  3  4  1  0  0  0  0
  4  5  2  0  0  0  0
  4  9  1  0  0  0  0
  5 10  1  0  0  0  0
  6 11  1  0  0  0  0
  6  5  1  0  0  0  0
  7  6  2  0  0  0  0
  8  7  1  0  0  0  0
  8  3  2  0  0  0  0
 12  7  1  0  0  0  0
 13  8  1  0  0  0  0
 15  2  1  0  0  0  0
 16  2  1  0  0  0  0
M  END
