2
q = 0.0, confidence = 0.926

 35 35  0  0  1  0  0  0  0  0999 V2000
   -0.4572    1.5795   -0.6824 C   0  0  2  0  0  3  0  0  0  0  0  0
   -0.9567    0.3417   -1.2199 C   0  0  1  0  0  3  0  0  0  0  0  0
   -1.4024   -0.4737   -0.0639 C   0  0  1  0  0  3  0  0  0  0  0  0
   -1.1451    0.3175    1.1109 C   0  0  1  0  0  3  0  0  0  0  0  0
   -1.0511    1.8063    0.7216 C   0  0  0  0  0  0  0  0  0  0  0  0
    0.1427    2.6782   -1.4981 C   0  0  0  0  0  0  0  0  0  0  0  0
   -1.0376   -0.0081   -2.6720 C   0  0  0  0  0  0  0  0  0  0  0  0
   -2.0719   -1.8319   -0.0903 C   0  0  0  0  0  0  0  0  0  0  0  0
   -3.4302   -1.7201   -0.8091 C   0  0  0  0  0  0  0  0  0  0  0  0
   -1.1970   -2.9640   -0.6516 C   0  0  0  0  0  0  0  0  0  0  0  0
   -1.3825   -0.1382    2.5142 C   0  0  0  0  0  0  0  0  0  0  0  0
   -0.1413    2.6250    1.6452 C   0  0  0  0  0  0  0  0  0  0  0  0
   -2.4520    2.4527    0.6407 C   0  0  0  0  0  0  0  0  0  0  0  0
    0.8232    3.2992   -0.8856 H   0  0  0  0  0  0  0  0  0  0  0  0
   -0.6546    3.3416   -1.9001 H   0  0  0  0  0  0  0  0  0  0  0  0
    0.7322    2.2804   -2.3450 H   0  0  0  0  0  0  0  0  0  0  0  0
   -0.9679   -1.0967   -2.8430 H   0  0  0  0  0  0  0  0  0  0  0  0
   -0.2243    0.4827   -3.2383 H   0  0  0  0  0  0  0  0  0  0  0  0
   -2.0038    0.3458   -3.0914 H   0  0  0  0  0  0  0  0  0  0  0  0
   -2.2823   -2.0847    0.9697 H   0  0  0  0  0  0  0  0  0  0  0  0
   -3.9920   -2.6708   -0.7141 H   0  0  0  0  0  0  0  0  0  0  0  0
   -3.3040   -1.5151   -1.8911 H   0  0  0  0  0  0  0  0  0  0  0  0
   -4.0563   -0.9116   -0.3796 H   0  0  0  0  0  0  0  0  0  0  0  0
   -0.2523   -3.0478   -0.0794 H   0  0  0  0  0  0  0  0  0  0  0  0
   -0.9331   -2.8039   -1.7159 H   0  0  0  0  0  0  0  0  0  0  0  0
   -1.7408   -3.9279   -0.5849 H   0  0  0  0  0  0  0  0  0  0  0  0
   -0.7287    0.4072    3.2207 H   0  0  0  0  0  0  0  0  0  0  0  0
   -1.1670   -1.2161    2.6331 H   0  0  0  0  0  0  0  0  0  0  0  0
   -2.4372    0.0526    2.8118 H   0  0  0  0  0  0  0  0  0  0  0  0
   -0.0367    3.6630    1.2715 H   0  0  0  0  0  0  0  0  0  0  0  0
    0.8692    2.1764    1.7192 H   0  0  0  0  0  0  0  0  0  0  0  0
   -0.5723    2.6865    2.6642 H   0  0  0  0  0  0  0  0  0  0  0  0
   -2.3834    3.4871    0.2470 H   0  0  0  0  0  0  0  0  0  0  0  0
   -2.9150    2.5078    1.6468 H   0  0  0  0  0  0  0  0  0  0  0  0
   -3.1237    1.8702   -0.0213 H   0  0  0  0  0  0  0  0  0  0  0  0
  1  6  1  6  0  0  0
  1  5  1  0  0  0  0
  2  7  1  6  0  0  0
  2  1  1  0  0  0  0
  2  3  1  0  0  0  0
  3  8  1  6  0  0  0
  3  4  1  0  0  0  0
  4 11  1  1  0  0  0
  5  4  1  0  0  0  0
  5 12  1  0  0  0  0
  6 14  1  0  0  0  0
  8 20  1  0  0  0  0
  9 21  1  0  0  0  0
  9 23  1  0  0  0  0
  9  8  1  0  0  0  0
 10 26  1  0  0  0  0
 10  8  1  0  0  0  0
 10 24  1  0  0  0  0
 11 28  1  0  0  0  0
 11 29  1  0  0  0  0
 11 27  1  0  0  0  0
 12 31  1  0  0  0  0
 12 32  1  0  0  0  0
 13  5  1  0  0  0  0
 13 34  1  0  0  0  0
 15  6  1  0  0  0  0
 16  6  1  0  0  0  0
 17  7  1  0  0  0  0
 18  7  1  0  0  0  0
 19  7  1  0  0  0  0
 22  9  1  0  0  0  0
 25 10  1  0  0  0  0
 30 12  1  0  0  0  0
 33 13  1  0  0  0  0
 35 13  1  0  0  0  0
M  END
