4
q = 0.0, confidence = 0.982

 36 38  0  0  1  0  0  0  0  0999 V2000
    1.6073   -0.0659   -1.1211 P   0  0  0  0  0  0  0  0  0  0  0  0
    0.0833   -0.5084   -0.0743 C   0  0  1  0  0  0  0  0  0  0  0  0
   -0.9562    0.5833   -0.2285 C   0  0  0  0  0  3  0  0  0  0  0  0
   -1.7620    0.6525   -1.4200 C   0  0  0  0  0  3  0  0  0  0  0  0
   -2.2787   -0.6020   -1.8547 C   0  0  0  0  0  3  0  0  0  0  0  0
   -1.9128   -1.7190   -1.0251 C   0  0  0  0  0  3  0  0  0  0  0  0
   -0.4895   -1.8707   -0.5248 C   0  0  0  0  0  0  0  0  0  0  0  0
    2.9194   -1.1362   -0.3733 C   0  0  0  0  0  0  0  0  0  0  0  0
    4.2125   -1.0261   -0.9348 C   0  0  0  0  0  0  0  0  0  0  0  0
    5.2741   -1.8034   -0.4546 C   0  0  0  0  0  0  0  0  0  0  0  0
    5.0596   -2.7246    0.5850 C   0  0  0  0  0  0  0  0  0  0  0  0
    3.7791   -2.8539    1.1414 C   0  0  0  0  0  0  0  0  0  0  0  0
    2.7171   -2.0635    0.6699 C   0  0  0  0  0  0  0  0  0  0  0  0
    2.0423    1.5696   -0.3593 C   0  0  0  0  0  0  0  0  0  0  0  0
    1.6728    2.7359   -1.0626 C   0  0  0  0  0  0  0  0  0  0  0  0
    1.9176    4.0065   -0.5187 C   0  0  0  0  0  0  0  0  0  0  0  0
    2.5476    4.1254    0.7301 C   0  0  0  0  0  0  0  0  0  0  0  0
    2.9303    2.9702    1.4323 C   0  0  0  0  0  0  0  0  0  0  0  0
    2.6798    1.6999    0.8925 C   0  0  0  0  0  0  0  0  0  0  0  0
    0.4002   -0.5411    0.9888 H   0  0  0  0  0  0  0  0  0  0  0  0
   -0.7067    1.5395    0.2579 H   0  0  0  0  0  0  0  0  0  0  0  0
   -2.0532    1.5991   -1.8994 H   0  0  0  0  0  0  0  0  0  0  0  0
   -2.9935   -0.6771   -2.6881 H   0  0  0  0  0  0  0  0  0  0  0  0
   -2.4521   -2.6639   -1.2042 H   0  0  0  0  0  0  0  0  0  0  0  0
    0.1324   -2.3217   -1.3337 H   0  0  0  0  0  0  0  0  0  0  0  0
   -0.4654   -2.5960    0.3137 H   0  0  0  0  0  0  0  0  0  0  0  0
    4.3848   -0.3144   -1.7586 H   0  0  0  0  0  0  0  0  0  0  0  0
    6.2751   -1.6962   -0.8999 H   0  0  0  0  0  0  0  0  0  0  0  0
    5.8904   -3.3427    0.9577 H   0  0  0  0  0  0  0  0  0  0  0  0
    3.6008   -3.5733    1.9555 H   0  0  0  0  0  0  0  0  0  0  0  0
    1.7264   -2.1772    1.1331 H   0  0  0  0  0  0  0  0  0  0  0  0
    1.1893    2.6400   -2.0483 H   0  0  0  0  0  0  0  0  0  0  0  0
    1.6225    4.9084   -1.0767 H   0  0  0  0  0  0  0  0  0  0  0  0
    2.7463    5.1209    1.1556 H   0  0  0  0  0  0  0  0  0  0  0  0
    3.4289    3.0598    2.4098 H   0  0  0  0  0  0  0  0  0  0  0  0
    2.9860    0.7979    1.4450 H   0  0  0  0  0  0  0  0  0  0  0  0
  1  8  1  0  0  0  0
  1 14  1  0  0  0  0
  1  2  1  0  0  0  0
  2 20  1  1  0  0  0
  3  2  1  0  0  0  0
  3 21  1  0  0  0  0
  4  3  1  0  0  0  0
  5  4  1  0  0  0  0
  5  6  1  0  0  0  0
  6  7  1  0  0  0  0
  7  2  1  0  0  0  0
  7 26  1  0  0  0  0
  8 13  1  0  0  0  0
  9 10  1  0  0  0  0
  9  8  2  0  0  0  0
 10 11  2  0  0  0  0
 11 29  1  0  0  0  0
 11 12  1  0  0  0  0
 12 30  1  0  0  0  0
 13 31  1  0  0  0  0
 13 12  2  0  0  0  0
 14 19  1  0  0  0  0
 15 16  1  0  0  0  0
 15 14  2  0  0  0  0
 16 17  2  0  0  0  0
 17 34  1  0  0  0  0
 17 18  1  0  0  0  0
 18 35  1  0  0  0  0
 19 18  2  0  0  0  0
 19 36  1  0  0  0  0
 22  4  1  0  0  0  0
 23  5  1  0  0  0  0
 24  6  1  0  0  0  0
 25  7  1  0  0  0  0
 27  9  1  0  0  0  0
 28 10  1  0  0  0  0
 32 15  1  0  0  0  0
 33 16  1  0  0  0  0
M  END
