4
q = 0.0, confidence = 0.988

 40 42  0  0  0  0  0  0  0  0999 V2000
   -1.0785    0.1536    0.5388 P   0  0  0  0  0  0  0  0  0  0  0  0
    2.0925    2.4973    0.2203 N   0  0  0  0  0  0  0  0  0  0  0  0
    1.1810    1.7319    2.0277 N   0  0  0  0  0  0  0  0  0  0  0  0
    1.5202    1.3713    0.7490 C   0  0  0  0  0  2  0  0  0  0  0  0
    2.1093    3.5325    1.1499 C   0  0  0  0  0  0  0  0  0  0  0  0
    2.5315    4.5159    0.9224 H   0  0  0  0  0  0  0  0  0  0  0  0
    1.5288    3.0496    2.2928 C   0  0  0  0  0  0  0  0  0  0  0  0
    1.3511    3.5247    3.2624 H   0  0  0  0  0  0  0  0  0  0  0  0
    0.3654    0.8670    2.8793 C   0  0  0  0  0  0  0  0  0  0  0  0
    0.3511    1.3002    3.8981 H   0  0  0  0  0  0  0  0  0  0  0  0
    0.8588   -0.1239    2.9331 H   0  0  0  0  0  0  0  0  0  0  0  0
   -1.0597    0.7272    2.3286 C   0  0  0  0  0  0  0  0  0  0  0  0
   -1.5963    1.6951    2.3880 H   0  0  0  0  0  0  0  0  0  0  0  0
   -1.6261   -0.0042    2.9367 H   0  0  0  0  0  0  0  0  0  0  0  0
    2.5361    2.6476   -1.1585 C   0  0  0  0  0  0  0  0  0  0  0  0
    3.6174    2.8838   -1.1990 H   0  0  0  0  0  0  0  0  0  0  0  0
    1.9664    3.4591   -1.6519 H   0  0  0  0  0  0  0  0  0  0  0  0
    2.3432    1.6992   -1.6898 H   0  0  0  0  0  0  0  0  0  0  0  0
   -1.7457    1.5751   -0.4090 C   0  0  0  0  0  0  0  0  0  0  0  0
   -1.0794    1.9725   -1.5859 C   0  0  0  0  0  0  0  0  0  0  0  0
   -0.1757    1.4231   -1.8981 H   0  0  0  0  0  0  0  0  0  0  0  0
   -1.5671    3.0460   -2.3472 C   0  0  0  0  0  0  0  0  0  0  0  0
   -1.0462    3.3485   -3.2682 H   0  0  0  0  0  0  0  0  0  0  0  0
   -2.7226    3.7279   -1.9352 C   0  0  0  0  0  0  0  0  0  0  0  0
   -3.1059    4.5707   -2.5296 H   0  0  0  0  0  0  0  0  0  0  0  0
   -3.3969    3.3298   -0.7679 C   0  0  0  0  0  0  0  0  0  0  0  0
   -4.3084    3.8581   -0.4508 H   0  0  0  0  0  0  0  0  0  0  0  0
   -2.9154    2.2546   -0.0079 C   0  0  0  0  0  0  0  0  0  0  0  0
   -3.4638    1.9375    0.8931 H   0  0  0  0  0  0  0  0  0  0  0  0
   -2.4100   -1.1066    0.4651 C   0  0  0  0  0  0  0  0  0  0  0  0
   -3.2892   -1.1451   -0.6373 C   0  0  0  0  0  0  0  0  0  0  0  0
   -3.2437   -0.3602   -1.4073 H   0  0  0  0  0  0  0  0  0  0  0  0
   -4.2350   -2.1760   -0.7471 C   0  0  0  0  0  0  0  0  0  0  0  0
   -4.9220   -2.1937   -1.6063 H   0  0  0  0  0  0  0  0  0  0  0  0
   -4.3104   -3.1752    0.2353 C   0  0  0  0  0  0  0  0  0  0  0  0
   -5.0560   -3.9794    0.1483 H   0  0  0  0  0  0  0  0  0  0  0  0
   -3.4313   -3.1473    1.3303 C   0  0  0  0  0  0  0  0  0  0  0  0
   -3.4849   -3.9294    2.1022 H   0  0  0  0  0  0  0  0  0  0  0  0
   -2.4800   -2.1235    1.4427 C   0  0  0  0  0  0  0  0  0  0  0  0
   -1.7861   -2.1268    2.2986 H   0  0  0  0  0  0  0  0  0  0  0  0
  1 12  1  0  0  0  0
  2  4  1  0  0  0  0
  2  5  1  0  0  0  0
  3  7  1  0  0  0  0
  3  9  1  0  0  0  0
  4  3  1  0  0  0  0
  5  7  2  0  0  0  0
  6  5  1  0  0  0  0
  7  8  1  0  0  0  0
  9 11  1  0  0  0  0
  9 10  1  0  0  0  0
 12 13  1  0  0  0  0
 12  9  1  0  0  0  0
 12 14  1  0  0  0  0
 15  2  1  0  0  0  0
 16 15  1  0  0  0  0
 17 15  1  0  0  0  0
 18 15  1  0  0  0  0
 19 28  1  0  0  0  0
 19  1  1  0  0  0  0
 20 19  2  0  0  0  0
 21 20  1  0  0  0  0
 22 24  2  0  0  0  0
 22 20  1  0  0  0  0
 23 22  1  0  0  0  0
 24 26  1  0  0  0  0
 25 24  1  0  0  0  0
 26 27  1  0  0  0  0
 26 28  2  0  0  0  0
 28 29  1  0  0  0  0
 30  1  1  0  0  0  0
 30 39  1  0  0  0  0
 31 30  2  0  0  0  0
 32 31  1  0  0  0  0
 33 31  1  0  0  0  0
 33 35  2  0  0  0  0
 34 33  1  0  0  0  0
 35 37  1  0  0  0  0
 36 35  1  0  0  0  0
 37 39  2  0  0  0  0
 37 38  1  0  0  0  0
 39 40  1  0  0  0  0
M  END
