11
q = -1.0

 61 63  0  0  1  0  0  0  0  0999 V2000
    4.8089    0.4123    0.0860 S   0  0  0  0  0  0  0  0  0  0  0  0
    0.0264   -1.8752    0.7346 N   0  0  0  0  0  0  0  0  0  0  0  0
   -1.6512    3.6523   -1.1571 N   0  0  0  0  0  0  0  0  0  0  0  0
    1.0871    0.2564   -0.0248 O   0  0  0  0  0  0  0  0  0  0  0  0
    3.5970    0.0899   -2.2945 O   0  0  0  0  0  0  0  0  0  0  0  0
    0.2633   -0.8083   -0.2862 B   0  0  0  0  0  0  0  0  0  0  0  0
   -0.5558   -1.2697   -1.5021 C   0  0  0  0  0  0  0  0  0  0  0  0
   -0.7569   -0.7742   -2.4590 H   0  0  0  0  0  0  0  0  0  0  0  0
   -0.9952   -2.6028   -1.2268 C   0  0  0  0  0  3  0  0  0  0  0  0
   -1.5018   -3.2931   -1.9134 H   0  0  0  0  0  0  0  0  0  0  0  0
   -0.6850   -2.9310    0.1244 C   0  0  0  0  0  3  0  0  0  0  0  0
   -0.8517   -3.8835    0.6357 H   0  0  0  0  0  0  0  0  0  0  0  0
    0.5884   -1.9255    2.1223 C   0  0  0  0  0  0  0  0  0  0  0  0
    2.1191   -2.0423    1.9873 C   0  0  0  0  0  0  0  0  0  0  0  0
    2.3907   -2.9632    1.4323 H   0  0  0  0  0  0  0  0  0  0  0  0
    2.5855   -2.0952    2.9911 H   0  0  0  0  0  0  0  0  0  0  0  0
    2.5433   -1.1718    1.4513 H   0  0  0  0  0  0  0  0  0  0  0  0
    0.2028   -0.6279    2.8509 C   0  0  0  0  0  0  0  0  0  0  0  0
    0.5434    0.2599    2.2876 H   0  0  0  0  0  0  0  0  0  0  0  0
    0.6672   -0.6095    3.8566 H   0  0  0  0  0  0  0  0  0  0  0  0
   -0.8969   -0.5627    2.9645 H   0  0  0  0  0  0  0  0  0  0  0  0
    0.0402   -3.1311    2.8982 C   0  0  0  0  0  0  0  0  0  0  0  0
   -1.0651   -3.1151    2.9620 H   0  0  0  0  0  0  0  0  0  0  0  0
    0.4353   -3.0952    3.9318 H   0  0  0  0  0  0  0  0  0  0  0  0
    0.3635   -4.0956    2.4580 H   0  0  0  0  0  0  0  0  0  0  0  0
    1.2241    1.3025   -1.0094 C   0  0  2  0  0  0  0  0  0  0  0  0
    1.1126    0.8640   -2.0251 H   0  0  0  0  0  0  0  0  0  0  0  0
    2.6662    1.8198   -0.8988 C   0  0  0  0  0  0  0  0  0  0  0  0
    2.8091    2.6336   -1.6391 H   0  0  0  0  0  0  0  0  0  0  0  0
    2.8600    2.2357    0.1088 H   0  0  0  0  0  0  0  0  0  0  0  0
    3.6439    0.7034   -1.2401 C   0  0  0  0  0  0  0  0  0  0  0  0
    5.8960   -0.9887   -0.5263 C   0  0  0  0  0  0  0  0  0  0  0  0
    6.6423   -0.5448   -1.7901 C   0  0  0  0  0  0  0  0  0  0  0  0
    7.3302   -1.3555   -2.1122 H   0  0  0  0  0  0  0  0  0  0  0  0
    7.2468    0.3638   -1.5989 H   0  0  0  0  0  0  0  0  0  0  0  0
    5.9357   -0.3412   -2.6159 H   0  0  0  0  0  0  0  0  0  0  0  0
    6.8757   -1.2223    0.6333 C   0  0  0  0  0  0  0  0  0  0  0  0
    7.5702   -2.0448    0.3625 H   0  0  0  0  0  0  0  0  0  0  0  0
    6.3451   -1.5140    1.5622 H   0  0  0  0  0  0  0  0  0  0  0  0
    7.4814   -0.3183    0.8455 H   0  0  0  0  0  0  0  0  0  0  0  0
    5.0431   -2.2381   -0.7769 C   0  0  0  0  0  0  0  0  0  0  0  0
    4.2974   -2.0568   -1.5729 H   0  0  0  0  0  0  0  0  0  0  0  0
    4.5165   -2.5532    0.1450 H   0  0  0  0  0  0  0  0  0  0  0  0
    5.7035   -3.0711   -1.0994 H   0  0  0  0  0  0  0  0  0  0  0  0
   -2.8968    4.1160   -1.7254 C   0  0  0  0  0  0  0  0  0  0  0  0
   -2.9710    5.2205   -1.6599 H   0  0  0  0  0  0  0  0  0  0  0  0
   -3.7648    3.6665   -1.1971 H   0  0  0  0  0  0  0  0  0  0  0  0
   -2.9433    3.8284   -2.7921 H   0  0  0  0  0  0  0  0  0  0  0  0
   -0.8275    2.6833   -1.6960 C   0  0  0  0  0  0  0  0  0  0  0  0
   -1.0233    2.2848   -2.6993 H   0  0  0  0  0  0  0  0  0  0  0  0
    0.1771    2.3481   -0.7999 C   0  0  0  0  0  0  0  0  0  0  0  0
   -0.0493    3.1441    0.3849 C   0  0  0  0  0  0  0  0  0  0  0  0
    0.5747    3.2430    1.6489 C   0  0  0  0  0  0  0  0  0  0  0  0
    1.4533    2.6265    1.8896 H   0  0  0  0  0  0  0  0  0  0  0  0
    0.0477    4.1232    2.5992 C   0  0  0  0  0  0  0  0  0  0  0  0
    0.5253    4.2047    3.5873 H   0  0  0  0  0  0  0  0  0  0  0  0
   -1.0985    4.9058    2.3179 C   0  0  0  0  0  0  0  0  0  0  0  0
   -1.4939    5.5832    3.0898 H   0  0  0  0  0  0  0  0  0  0  0  0
   -1.7455    4.8240    1.0799 C   0  0  0  0  0  0  0  0  0  0  0  0
   -2.6468    5.4184    0.8714 H   0  0  0  0  0  0  0  0  0  0  0  0
   -1.2085    3.9451    0.1237 C   0  0  0  0  0  0  0  0  0  0  0  0
  2 13  1  0  0  0  0
  3 61  1  0  0  0  0
  5 31  2  0  0  0  0
  6  4  1  0  0  0  0
  6  2  1  0  0  0  0
  7  9  1  0  0  0  0
  7  6  2  0  0  0  0
  8  7  1  0  0  0  0
  9 11  1  0  0  0  0
 10  9  1  0  0  0  0
 11 12  1  0  0  0  0
 11  2  1  0  0  0  0
 13 18  1  0  0  0  0
 13 22  1  0  0  0  0
 14 13  1  0  0  0  0
 14 16  1  0  0  0  0
 15 14  1  0  0  0  0
 17 14  1  0  0  0  0
 18 21  1  0  0  0  0
 18 20  1  0  0  0  0
 19 18  1  0  0  0  0
 22 23  1  0  0  0  0
 22 24  1  0  0  0  0
 25 22  1  0  0  0  0
 26 27  1  6  0  0  0
 26 28  1  0  0  0  0
 26 51  1  0  0  0  0
 26  4  1  0  0  0  0
 28 30  1  0  0  0  0
 29 28  1  0  0  0  0
 31 28  1  0  0  0  0
 31  1  1  0  0  0  0
 32  1  1  0  0  0  0
 32 37  1  0  0  0  0
 33 35  1  0  0  0  0
 33 32  1  0  0  0  0
 34 33  1  0  0  0  0
 36 33  1  0  0  0  0
 37 40  1  0  0  0  0
 37 39  1  0  0  0  0
 38 37  1  0  0  0  0
 41 32  1  0  0  0  0
 41 43  1  0  0  0  0
 42 41  1  0  0  0  0
 44 41  1  0  0  0  0
 45 46  1  0  0  0  0
 45 47  1  0  0  0  0
 45  3  1  0  0  0  0
 48 45  1  0  0  0  0
 49  3  1  0  0  0  0
 49 51  2  0  0  0  0
 50 49  1  0  0  0  0
 51 52  1  0  0  0  0
 52 53  1  0  0  0  0
 53 54  1  0  0  0  0
 53 55  2  0  0  0  0
 55 56  1  0  0  0  0
 57 55  1  0  0  0  0
 57 58  1  0  0  0  0
 59 57  2  0  0  0  0
 60 59  1  0  0  0  0
 61 52  2  0  0  0  0
 61 59  1  0  0  0  0
M  END
