8
q = -1.0, confidence = 0.0

 23 23  0  0  0  0  0  0  0  0999 V2000
    2.9437    0.5827   -0.0073 C   0  0  0  0  0  0  0  0  0  0  0  0
    1.7497   -0.1099   -0.5908 N   0  0  0  0  0  0  0  0  0  0  0  0
   -0.1044   -0.4636   -1.9546 C   0  0  0  0  0  3  0  0  0  0  0  0
   -0.8709   -0.2385   -2.7076 H   0  0  0  0  0  0  0  0  0  0  0  0
    0.0934   -1.6976   -1.2579 C   0  0  0  0  0  0  0  0  0  0  0  0
   -0.5862   -2.5510   -1.3767 H   0  0  0  0  0  0  0  0  0  0  0  0
    1.3859   -1.5519   -0.4367 B   0  0  0  0  0  0  0  0  0  0  0  0
    0.8588    0.4866   -1.5105 C   0  0  0  0  0  3  0  0  0  0  0  0
    1.0031    1.5094   -1.8703 H   0  0  0  0  0  0  0  0  0  0  0  0
    2.9116    2.0880   -0.3048 C   0  0  0  0  0  0  0  0  0  0  0  0
    2.9908    2.3040   -1.3890 H   0  0  0  0  0  0  0  0  0  0  0  0
    3.7810    2.5646    0.1876 H   0  0  0  0  0  0  0  0  0  0  0  0
    1.9970    2.5682    0.0941 H   0  0  0  0  0  0  0  0  0  0  0  0
    4.1892   -0.0546   -0.6530 C   0  0  0  0  0  0  0  0  0  0  0  0
    4.2387   -1.1366   -0.4255 H   0  0  0  0  0  0  0  0  0  0  0  0
    5.1085    0.4271   -0.2652 H   0  0  0  0  0  0  0  0  0  0  0  0
    4.1690    0.0748   -1.7540 H   0  0  0  0  0  0  0  0  0  0  0  0
    2.9473    0.3619    1.5141 C   0  0  0  0  0  0  0  0  0  0  0  0
    2.0536    0.8281    1.9723 H   0  0  0  0  0  0  0  0  0  0  0  0
    3.8540    0.8204    1.9558 H   0  0  0  0  0  0  0  0  0  0  0  0
    2.9424   -0.7162    1.7582 H   0  0  0  0  0  0  0  0  0  0  0  0
    2.1530   -2.4067    0.3277 O   0  0  0  0  0  0  0  0  0  0  0  0
    1.7574   -3.2931    0.3721 H   0  0  0  0  0  0  0  0  0  0  0  0
  1 18  1  0  0  0  0
  2  7  1  0  0  0  0
  2  1  1  0  0  0  0
  3  8  1  0  0  0  0
  3  5  1  0  0  0  0
  4  3  1  0  0  0  0
  5  7  2  0  0  0  0
  6  5  1  0  0  0  0
  7 22  1  0  0  0  0
  8  2  1  0  0  0  0
  9  8  1  0  0  0  0
 10  1  1  0  0  0  0
 10 13  1  0  0  0  0
 10 12  1  0  0  0  0
 11 10  1  0  0  0  0
 14 15  1  0  0  0  0
 14 16  1  0  0  0  0
 14  1  1  0  0  0  0
 17 14  1  0  0  0  0
 18 21  1  0  0  0  0
 18 20  1  0  0  0  0
 18 19  1  0  0  0  0
 22 23  1  0  0  0  0
M  END
