8
q = 0, confidence = 1.0

 42 42  0  0  0  0  0  0  0  0999 V2000
   -0.7429    1.8035    0.2718 P   0  0  0  0  0  4  0  0  0  0  0  0
   -1.8637   -0.4213    0.1559 P   0  0  0  0  0  4  0  0  0  0  0  0
   -0.7282    3.0335   -0.9197 N   0  0  0  0  0  0  0  0  0  0  0  0
    0.2057    2.4839    1.4908 N   0  0  0  0  0  0  0  0  0  0  0  0
   -2.0179   -1.6013    1.3583 N   0  0  0  0  0  0  0  0  0  0  0  0
   -2.7115   -1.1768   -1.1198 N   0  0  0  0  0  0  0  0  0  0  0  0
   -2.2646    1.1559    0.7666 C   0  0  0  0  0  3  0  0  0  0  0  0
   -0.2574    0.1910   -0.4598 C   0  0  0  0  0  3  0  0  0  0  0  0
    0.4987    3.1523   -1.7063 C   0  0  0  0  0  0  0  0  0  0  0  0
   -1.9438    3.2540   -1.6874 C   0  0  0  0  0  0  0  0  0  0  0  0
    0.4432    1.7020    2.6939 C   0  0  0  0  0  0  0  0  0  0  0  0
    0.7902    3.8133    1.4876 C   0  0  0  0  0  0  0  0  0  0  0  0
   -2.1300   -1.2664    2.7694 C   0  0  0  0  0  0  0  0  0  0  0  0
   -1.8582   -3.0241    1.0835 C   0  0  0  0  0  0  0  0  0  0  0  0
   -2.3434   -0.9652   -2.5115 C   0  0  0  0  0  0  0  0  0  0  0  0
   -4.1323   -1.4167   -0.8993 C   0  0  0  0  0  0  0  0  0  0  0  0
   -3.0985    1.5624    1.3513 H   0  0  0  0  0  0  0  0  0  0  0  0
   -0.3376    0.3346   -1.5544 H   0  0  0  0  0  0  0  0  0  0  0  0
    1.3880    2.9279   -1.0873 H   0  0  0  0  0  0  0  0  0  0  0  0
    0.6040    4.1897   -2.0899 H   0  0  0  0  0  0  0  0  0  0  0  0
    0.5131    2.4580   -2.5802 H   0  0  0  0  0  0  0  0  0  0  0  0
   -2.8336    3.0843   -1.0534 H   0  0  0  0  0  0  0  0  0  0  0  0
   -2.0214    2.5773   -2.5748 H   0  0  0  0  0  0  0  0  0  0  0  0
   -1.9654    4.3007   -2.0594 H   0  0  0  0  0  0  0  0  0  0  0  0
   -0.0200    0.7038    2.6057 H   0  0  0  0  0  0  0  0  0  0  0  0
    0.0030    2.2069    3.5841 H   0  0  0  0  0  0  0  0  0  0  0  0
    1.5297    1.5578    2.8737 H   0  0  0  0  0  0  0  0  0  0  0  0
    0.3676    4.4108    0.6606 H   0  0  0  0  0  0  0  0  0  0  0  0
    1.8982    3.7717    1.3874 H   0  0  0  0  0  0  0  0  0  0  0  0
    0.5483    4.3299    2.4432 H   0  0  0  0  0  0  0  0  0  0  0  0
   -2.2341   -0.1729    2.8913 H   0  0  0  0  0  0  0  0  0  0  0  0
   -1.2329   -1.6015    3.3342 H   0  0  0  0  0  0  0  0  0  0  0  0
   -3.0259   -1.7583    3.2111 H   0  0  0  0  0  0  0  0  0  0  0  0
   -1.7823   -3.1977   -0.0036 H   0  0  0  0  0  0  0  0  0  0  0  0
   -2.7342   -3.5915    1.4711 H   0  0  0  0  0  0  0  0  0  0  0  0
   -0.9435   -3.4240    1.5724 H   0  0  0  0  0  0  0  0  0  0  0  0
   -1.2543   -1.0847   -2.6556 H   0  0  0  0  0  0  0  0  0  0  0  0
   -2.6543    0.0324   -2.9078 H   0  0  0  0  0  0  0  0  0  0  0  0
   -2.8389   -1.7417   -3.1306 H   0  0  0  0  0  0  0  0  0  0  0  0
   -4.3196   -1.5942    0.1773 H   0  0  0  0  0  0  0  0  0  0  0  0
   -4.4588   -2.3201   -1.4576 H   0  0  0  0  0  0  0  0  0  0  0  0
   -4.7663   -0.5579   -1.2260 H   0  0  0  0  0  0  0  0  0  0  0  0
  1  7  1  0  0  0  0
  1  4  1  0  0  0  0
  2  7  1  0  0  0  0
  2  5  1  0  0  0  0
  3  1  1  0  0  0  0
  4 11  1  0  0  0  0
  5 13  1  0  0  0  0
  6 16  1  0  0  0  0
  6  2  1  0  0  0  0
  7 17  1  0  0  0  0
  8  2  1  0  0  0  0
  8  1  1  0  0  0  0
  9 19  1  0  0  0  0
  9  3  1  0  0  0  0
 10 22  1  0  0  0  0
 10  3  1  0  0  0  0
 11 27  1  0  0  0  0
 11 26  1  0  0  0  0
 12  4  1  0  0  0  0
 12 30  1  0  0  0  0
 13 31  1  0  0  0  0
 13 33  1  0  0  0  0
 13 32  1  0  0  0  0
 14  5  1  0  0  0  0
 14 35  1  0  0  0  0
 14 36  1  0  0  0  0
 15  6  1  0  0  0  0
 16 40  1  0  0  0  0
 18  8  1  0  0  0  0
 20  9  1  0  0  0  0
 21  9  1  0  0  0  0
 23 10  1  0  0  0  0
 24 10  1  0  0  0  0
 25 11  1  0  0  0  0
 28 12  1  0  0  0  0
 29 12  1  0  0  0  0
 34 14  1  0  0  0  0
 37 15  1  0  0  0  0
 38 15  1  0  0  0  0
 39 15  1  0  0  0  0
 41 16  1  0  0  0  0
 42 16  1  0  0  0  0
M  END
