1
q = 0, confidence = 1.0

 44 43  0  0  0  0  0  0  0  0999 V2000
   -1.5616    0.1577   -0.0664 C   0  0  0  0  0  3  0  0  0  0  0  0
   -0.3807    0.5923   -0.0296 C   0  0  0  0  0  0  0  0  0  0  0  0
    1.0235    1.5130   -0.0771 P   0  0  0  0  0  4  0  0  0  0  0  0
    1.4347    2.0509    1.4560 N   0  0  0  0  0  0  0  0  0  0  0  0
    2.7120    2.7422    1.6188 C   0  0  0  0  0  0  0  0  0  0  0  0
    2.9629    3.2895    0.6890 H   0  0  0  0  0  0  0  0  0  0  0  0
    3.5227    2.0228    1.8684 H   0  0  0  0  0  0  0  0  0  0  0  0
    2.6220    3.4918    2.4326 H   0  0  0  0  0  0  0  0  0  0  0  0
    0.9170    1.4002    2.6578 C   0  0  0  0  0  0  0  0  0  0  0  0
   -0.0227    0.8664    2.4216 H   0  0  0  0  0  0  0  0  0  0  0  0
    0.6984    2.1733    3.4246 H   0  0  0  0  0  0  0  0  0  0  0  0
    1.6561    0.6745    3.0580 H   0  0  0  0  0  0  0  0  0  0  0  0
    0.9057    2.9506   -0.9945 N   0  0  0  0  0  0  0  0  0  0  0  0
   -0.1428    3.8616   -0.5174 C   0  0  0  0  0  0  0  0  0  0  0  0
   -0.1265    3.8959    0.5878 H   0  0  0  0  0  0  0  0  0  0  0  0
   -1.1607    3.5492   -0.8468 H   0  0  0  0  0  0  0  0  0  0  0  0
    0.0633    4.8803   -0.9046 H   0  0  0  0  0  0  0  0  0  0  0  0
    0.9498    2.8529   -2.4522 C   0  0  0  0  0  0  0  0  0  0  0  0
    1.8217    2.2607   -2.7862 H   0  0  0  0  0  0  0  0  0  0  0  0
    1.0631    3.8733   -2.8720 H   0  0  0  0  0  0  0  0  0  0  0  0
    0.0249    2.4040   -2.8852 H   0  0  0  0  0  0  0  0  0  0  0  0
    2.4008    0.5849   -0.8542 C   0  0  0  0  0  0  0  0  0  0  0  0
    3.2525    1.2835   -0.9762 H   0  0  0  0  0  0  0  0  0  0  0  0
    2.0812    0.2250   -1.8516 H   0  0  0  0  0  0  0  0  0  0  0  0
    2.9181   -0.8616    0.1964 P   0  0  0  0  0  0  0  0  0  0  0  0
    3.3250   -0.4154    1.5848 O   0  0  0  0  0  0  0  0  0  0  0  0
    4.0822   -1.6162   -0.8056 N   0  0  0  0  0  0  0  0  0  0  0  0
    5.1864   -0.8338   -1.3468 C   0  0  0  0  0  0  0  0  0  0  0  0
    4.8369    0.1424   -1.7319 H   0  0  0  0  0  0  0  0  0  0  0  0
    5.6377   -1.3793   -2.2027 H   0  0  0  0  0  0  0  0  0  0  0  0
    5.9932   -0.6445   -0.5995 H   0  0  0  0  0  0  0  0  0  0  0  0
    4.4829   -2.9668   -0.4137 C   0  0  0  0  0  0  0  0  0  0  0  0
    3.6162   -3.5037    0.0147 H   0  0  0  0  0  0  0  0  0  0  0  0
    5.3018   -2.9654    0.3428 H   0  0  0  0  0  0  0  0  0  0  0  0
    4.8354   -3.5243   -1.3074 H   0  0  0  0  0  0  0  0  0  0  0  0
    1.6642   -1.9780    0.2066 N   0  0  0  0  0  0  0  0  0  0  0  0
    0.9480   -2.2767    1.4398 C   0  0  0  0  0  0  0  0  0  0  0  0
    1.4917   -1.8301    2.2923 H   0  0  0  0  0  0  0  0  0  0  0  0
    0.8951   -3.3774    1.5925 H   0  0  0  0  0  0  0  0  0  0  0  0
   -0.0872   -1.8725    1.4175 H   0  0  0  0  0  0  0  0  0  0  0  0
    1.0754   -2.4871   -1.0237 C   0  0  0  0  0  0  0  0  0  0  0  0
    1.7529   -2.2893   -1.8767 H   0  0  0  0  0  0  0  0  0  0  0  0
    0.0840   -2.0279   -1.2279 H   0  0  0  0  0  0  0  0  0  0  0  0
    0.9367   -3.5886   -0.9561 H   0  0  0  0  0  0  0  0  0  0  0  0
  1  2  3  0  0  0  0
  3  2  1  0  0  0  0
  3  4  1  0  0  0  0
  4  5  1  0  0  0  0
  4  9  1  0  0  0  0
  5  7  1  0  0  0  0
  5  8  1  0  0  0  0
  6  5  1  0  0  0  0
  9 12  1  0  0  0  0
  9 11  1  0  0  0  0
 10  9  1  0  0  0  0
 13 14  1  0  0  0  0
 13  3  1  0  0  0  0
 14 15  1  0  0  0  0
 16 14  1  0  0  0  0
 17 14  1  0  0  0  0
 18 13  1  0  0  0  0
 19 18  1  0  0  0  0
 20 18  1  0  0  0  0
 21 18  1  0  0  0  0
 22  3  1  0  0  0  0
 22 25  1  0  0  0  0
 23 22  1  0  0  0  0
 24 22  1  0  0  0  0
 25 36  1  0  0  0  0
 25 26  2  0  0  0  0
 27 32  1  0  0  0  0
 27 25  1  0  0  0  0
 28 27  1  0  0  0  0
 28 31  1  0  0  0  0
 29 28  1  0  0  0  0
 30 28  1  0  0  0  0
 32 33  1  0  0  0  0
 32 34  1  0  0  0  0
 35 32  1  0  0  0  0
 36 37  1  0  0  0  0
 37 39  1  0  0  0  0
 37 38  1  0  0  0  0
 40 37  1  0  0  0  0
 41 44  1  0  0  0  0
 41 36  1  0  0  0  0
 42 41  1  0  0  0  0
 43 41  1  0  0  0  0
M  END
