1
q = 0.0, confidence = 0.97

 35 37  0  0  0  0  0  0  0  0999 V2000
   -0.3929   -0.1835    0.7605 C   0  0  0  0  0  2  0  0  0  0  0  0
    1.0969    0.0361    0.2243 C   0  0  0  0  0  0  0  0  0  0  0  0
    1.4284   -0.1464    1.7185 C   0  0  0  0  0  0  0  0  0  0  0  0
    0.1061   -0.3910    2.0908 C   0  0  0  0  0  0  0  0  0  0  0  0
   -0.5420   -0.7226    3.3902 C   0  0  0  0  0  0  0  0  0  0  0  0
    2.8697   -0.0853    2.6527 S   0  0  0  0  0  0  0  0  0  0  0  0
    4.1472    0.3040    1.4140 C   0  0  0  0  0  0  0  0  0  0  0  0
    1.6543   -1.1190   -0.6036 C   0  0  0  0  0  0  0  0  0  0  0  0
    2.7363   -0.9499   -1.4938 C   0  0  0  0  0  0  0  0  0  0  0  0
    3.2670   -2.0405   -2.1991 C   0  0  0  0  0  0  0  0  0  0  0  0
    2.7253   -3.3239   -2.0304 C   0  0  0  0  0  0  0  0  0  0  0  0
    1.6570   -3.5080   -1.1393 C   0  0  0  0  0  0  0  0  0  0  0  0
    1.1352   -2.4191   -0.4279 C   0  0  0  0  0  0  0  0  0  0  0  0
    1.2756    1.4283   -0.3470 C   0  0  0  0  0  0  0  0  0  0  0  0
    1.1251    1.6727   -1.7299 C   0  0  0  0  0  0  0  0  0  0  0  0
    1.1812    2.9782   -2.2367 C   0  0  0  0  0  0  0  0  0  0  0  0
    1.3873    4.0669   -1.3756 C   0  0  0  0  0  0  0  0  0  0  0  0
    1.5278    3.8391    0.0014 C   0  0  0  0  0  0  0  0  0  0  0  0
    1.4655    2.5334    0.5094 C   0  0  0  0  0  0  0  0  0  0  0  0
    0.2020   -1.0664    4.1352 H   0  0  0  0  0  0  0  0  0  0  0  0
   -1.0700    0.1574    3.8114 H   0  0  0  0  0  0  0  0  0  0  0  0
   -1.3021   -1.5181    3.2583 H   0  0  0  0  0  0  0  0  0  0  0  0
    5.0858    0.4363    1.9834 H   0  0  0  0  0  0  0  0  0  0  0  0
    4.2547   -0.5285    0.6944 H   0  0  0  0  0  0  0  0  0  0  0  0
    3.8934    1.2409    0.8826 H   0  0  0  0  0  0  0  0  0  0  0  0
    3.1664    0.0507   -1.6447 H   0  0  0  0  0  0  0  0  0  0  0  0
    4.1085   -1.8824   -2.8909 H   0  0  0  0  0  0  0  0  0  0  0  0
    3.1356   -4.1778   -2.5902 H   0  0  0  0  0  0  0  0  0  0  0  0
    1.2236   -4.5090   -0.9934 H   0  0  0  0  0  0  0  0  0  0  0  0
    0.3081   -2.5832    0.2767 H   0  0  0  0  0  0  0  0  0  0  0  0
    0.9466    0.8340   -2.4167 H   0  0  0  0  0  0  0  0  0  0  0  0
    1.0522    3.1457   -3.3167 H   0  0  0  0  0  0  0  0  0  0  0  0
    1.4283    5.0912   -1.7755 H   0  0  0  0  0  0  0  0  0  0  0  0
    1.6774    4.6847    0.6897 H   0  0  0  0  0  0  0  0  0  0  0  0
    1.5532    2.3694    1.5948 H   0  0  0  0  0  0  0  0  0  0  0  0
  1  4  1  0  0  0  0
  2  1  1  0  0  0  0
  2  3  1  0  0  0  0
  3  4  2  0  0  0  0
  3  6  1  0  0  0  0
  4  5  1  0  0  0  0
  5 21  1  0  0  0  0
  5 20  1  0  0  0  0
  7 23  1  0  0  0  0
  7  6  1  0  0  0  0
  8 13  1  0  0  0  0
  8  2  1  0  0  0  0
  9  8  2  0  0  0  0
 10 11  2  0  0  0  0
 10  9  1  0  0  0  0
 11 12  1  0  0  0  0
 12 29  1  0  0  0  0
 12 13  2  0  0  0  0
 13 30  1  0  0  0  0
 14  2  1  0  0  0  0
 14 19  1  0  0  0  0
 15 14  2  0  0  0  0
 16 15  1  0  0  0  0
 16 17  2  0  0  0  0
 17 18  1  0  0  0  0
 18 19  2  0  0  0  0
 18 34  1  0  0  0  0
 19 35  1  0  0  0  0
 22  5  1  0  0  0  0
 24  7  1  0  0  0  0
 25  7  1  0  0  0  0
 26  9  1  0  0  0  0
 27 10  1  0  0  0  0
 28 11  1  0  0  0  0
 31 15  1  0  0  0  0
 32 16  1  0  0  0  0
 33 17  1  0  0  0  0
M  END
