6
q = -1.0

  8  7  0  0  0  0  0  0  0  0999 V2000
    0.3417   -1.6778   -2.0322 F   0  0  0  0  0  0  0  0  0  0  0  0
    2.8035   -2.5430   -1.5530 F   0  0  0  0  0  0  0  0  0  0  0  0
    2.5883   -0.5328    1.3484 F   0  0  0  0  0  0  0  0  0  0  0  0
    4.0641   -0.1582   -0.2144 F   0  0  0  0  0  0  0  0  0  0  0  0
    3.9798   -2.1104    0.7485 F   0  0  0  0  0  0  0  0  0  0  0  0
    1.0015   -1.1248   -0.9870 C   0  0  0  0  0  0  0  0  0  0  0  0
    2.2488   -1.6017   -0.7568 C   0  0  0  0  0  0  0  0  0  0  0  0
    3.2099   -1.1084    0.2881 C   0  0  0  0  0  0  0  0  0  0  0  0
  1  6  1  0  0  0  0
  2  7  1  0  0  0  0
  4  8  1  0  0  0  0
  6  7  2  0  0  0  0
  7  8  1  0  0  0  0
  8  5  1  0  0  0  0
  8  3  1  0  0  0  0
M  END
