1
q = 0.0, confidence = 0.956

 27 29  0  0  0  0  0  0  0  0999 V2000
    0.7302    1.2722   -0.2283 C   0  0  0  0  0  3  0  0  0  0  0  0
    1.4148    1.8522   -0.8615 H   0  0  0  0  0  0  0  0  0  0  0  0
   -0.7298    1.2726   -0.2282 C   0  0  0  0  0  3  0  0  0  0  0  0
   -1.4141    1.8531   -0.8613 H   0  0  0  0  0  0  0  0  0  0  0  0
    0.0005    1.8219    0.9727 C   0  0  0  0  0  0  0  0  0  0  0  0
    0.0002    1.1244    2.3124 C   0  0  0  0  0  0  0  0  0  0  0  0
   -1.2115    0.7994    2.9492 C   0  0  0  0  0  0  0  0  0  0  0  0
   -2.1590    1.0357    2.4399 H   0  0  0  0  0  0  0  0  0  0  0  0
   -1.2146    0.1463    4.1900 C   0  0  0  0  0  0  0  0  0  0  0  0
   -2.1709   -0.1171    4.6686 H   0  0  0  0  0  0  0  0  0  0  0  0
   -0.0000   -0.1838    4.8141 C   0  0  0  0  0  0  0  0  0  0  0  0
   -0.0001   -0.7021    5.7854 H   0  0  0  0  0  0  0  0  0  0  0  0
    1.2146    0.1483    4.1914 C   0  0  0  0  0  0  0  0  0  0  0  0
    2.1708   -0.1134    4.6710 H   0  0  0  0  0  0  0  0  0  0  0  0
    1.2118    0.8014    2.9505 C   0  0  0  0  0  0  0  0  0  0  0  0
    2.1595    1.0396    2.4424 H   0  0  0  0  0  0  0  0  0  0  0  0
    0.0010    3.3311    1.1106 C   0  0  0  0  0  0  0  0  0  0  0  0
   -1.2120    4.0440    1.1872 C   0  0  0  0  0  0  0  0  0  0  0  0
   -2.1643    3.4949    1.1210 H   0  0  0  0  0  0  0  0  0  0  0  0
   -1.2121    5.4394    1.3323 C   0  0  0  0  0  0  0  0  0  0  0  0
   -2.1679    5.9834    1.3864 H   0  0  0  0  0  0  0  0  0  0  0  0
    0.0017    6.1418    1.4030 C   0  0  0  0  0  0  0  0  0  0  0  0
    0.0020    7.2368    1.5152 H   0  0  0  0  0  0  0  0  0  0  0  0
    1.2151    5.4396    1.3245 C   0  0  0  0  0  0  0  0  0  0  0  0
    2.1712    5.9838    1.3725 H   0  0  0  0  0  0  0  0  0  0  0  0
    1.2143    4.0442    1.1794 C   0  0  0  0  0  0  0  0  0  0  0  0
    2.1663    3.4953    1.1071 H   0  0  0  0  0  0  0  0  0  0  0  0
  1  3  1  0  0  0  0
  1  5  1  0  0  0  0
  2  1  1  0  0  0  0
  3  5  1  0  0  0  0
  4  3  1  0  0  0  0
  5 17  1  0  0  0  0
  5  6  1  0  0  0  0
  6  7  2  0  0  0  0
  6 15  1  0  0  0  0
  7  9  1  0  0  0  0
  8  7  1  0  0  0  0
  9 10  1  0  0  0  0
  9 11  2  0  0  0  0
 11 12  1  0  0  0  0
 13 14  1  0  0  0  0
 13 11  1  0  0  0  0
 15 13  2  0  0  0  0
 16 15  1  0  0  0  0
 17 26  2  0  0  0  0
 17 18  1  0  0  0  0
 18 20  2  0  0  0  0
 19 18  1  0  0  0  0
 20 21  1  0  0  0  0
 20 22  1  0  0  0  0
 22 23  1  0  0  0  0
 24 25  1  0  0  0  0
 24 22  2  0  0  0  0
 26 24  1  0  0  0  0
 27 26  1  0  0  0  0
M  END
