5
q = -1.0

 11 11  0  0  0  0  0  0  0  0999 V2000
    1.7042    2.9365    0.8881 O   0  0  0  0  0  0  0  0  0  0  0  0
    3.6248   -0.6866   -0.8880 O   0  0  0  0  0  0  0  0  0  0  0  0
    2.7020    1.1930   -0.0998 O   0  0  0  0  0  0  0  0  0  0  0  0
    1.3651   -0.2720   -1.5460 C   0  0  0  0  0  3  0  0  0  0  0  0
    0.3881    0.7717   -1.7527 C   0  0  0  0  0  3  0  0  0  0  0  0
    0.3742    1.7086   -0.6689 C   0  0  0  0  0  3  0  0  0  0  0  0
    1.5933    2.0191    0.0996 C   0  0  0  0  0  0  0  0  0  0  0  0
    2.6391    0.0212   -0.8651 C   0  0  0  0  0  0  0  0  0  0  0  0
    1.4536   -1.0955   -2.2689 H   0  0  0  0  0  0  0  0  0  0  0  0
   -0.2311    0.8678   -2.6555 H   0  0  0  0  0  0  0  0  0  0  0  0
   -0.3721    2.5153   -0.6338 H   0  0  0  0  0  0  0  0  0  0  0  0
  2  8  2  0  0  0  0
  3  7  1  0  0  0  0
  4  8  1  0  0  0  0
  5  4  1  0  0  0  0
  5  6  1  0  0  0  0
  6 11  1  0  0  0  0
  6  7  1  0  0  0  0
  7  1  2  0  0  0  0
  8  3  1  0  0  0  0
  9  4  1  0  0  0  0
 10  5  1  0  0  0  0
M  END
