6
q = -1.0

 26 26  0  0  0  0  0  0  0  0999 V2000
    1.1342   -2.1204   -1.3558 N   0  0  0  0  0  4  0  0  0  0  0  0
   -1.8801   -3.0914    1.3412 O   0  0  0  0  0  0  0  0  0  0  0  0
   -2.6710   -1.6544    2.8932 O   0  0  0  0  0  0  0  0  0  0  0  0
   -1.8367   -1.9824    1.8643 C   0  0  0  0  0  0  0  0  0  0  0  0
   -0.9617   -0.8465    1.5099 C   0  0  0  0  0  3  0  0  0  0  0  0
    0.1627   -0.9560    0.5999 C   0  0  0  0  0  3  0  0  0  0  0  0
    0.1471   -1.9218   -0.4339 C   0  0  0  0  0  0  0  0  0  0  0  0
    2.0650   -1.0741   -1.7345 C   0  0  0  0  0  0  0  0  0  0  0  0
    3.2401   -0.8632   -0.7939 C   0  0  0  0  0  0  0  0  0  0  0  0
    3.4692   -1.6954    0.3153 C   0  0  0  0  0  0  0  0  0  0  0  0
    4.5511   -1.4527    1.1771 C   0  0  0  0  0  0  0  0  0  0  0  0
    5.4224   -0.3802    0.9358 C   0  0  0  0  0  0  0  0  0  0  0  0
    5.2111    0.4454   -0.1816 C   0  0  0  0  0  0  0  0  0  0  0  0
    4.1282    0.2036   -1.0378 C   0  0  0  0  0  0  0  0  0  0  0  0
    0.8781   -2.7633   -2.1057 H   0  0  0  0  0  0  0  0  0  0  0  0
   -3.2473   -2.4409    3.0045 H   0  0  0  0  0  0  0  0  0  0  0  0
   -0.8526   -0.1015    2.3118 H   0  0  0  0  0  0  0  0  0  0  0  0
    1.0479   -0.3194    0.7660 H   0  0  0  0  0  0  0  0  0  0  0  0
   -0.6147   -2.7143   -0.3680 H   0  0  0  0  0  0  0  0  0  0  0  0
    2.4494   -1.3128   -2.7473 H   0  0  0  0  0  0  0  0  0  0  0  0
    1.5018   -0.1120   -1.8317 H   0  0  0  0  0  0  0  0  0  0  0  0
    2.7863   -2.5372    0.5023 H   0  0  0  0  0  0  0  0  0  0  0  0
    4.7121   -2.1096    2.0455 H   0  0  0  0  0  0  0  0  0  0  0  0
    6.2686   -0.1895    1.6129 H   0  0  0  0  0  0  0  0  0  0  0  0
    5.8954    1.2828   -0.3873 H   0  0  0  0  0  0  0  0  0  0  0  0
    3.9707    0.8528   -1.9149 H   0  0  0  0  0  0  0  0  0  0  0  0
  1  7  2  0  0  0  0
  2  4  2  0  0  0  0
  3 16  1  0  0  0  0
  4  3  1  0  0  0  0
  5  4  1  0  0  0  0
  5 17  1  0  0  0  0
  6 18  1  0  0  0  0
  6  5  1  0  0  0  0
  7 19  1  0  0  0  0
  7  6  1  0  0  0  0
  8  1  1  0  0  0  0
  8  9  1  0  0  0  0
  9 10  1  0  0  0  0
 10 22  1  0  0  0  0
 10 11  2  0  0  0  0
 11 23  1  0  0  0  0
 12 11  1  0  0  0  0
 12 24  1  0  0  0  0
 13 12  2  0  0  0  0
 14  9  2  0  0  0  0
 14 13  1  0  0  0  0
 15  1  1  0  0  0  0
 20  8  1  0  0  0  0
 21  8  1  0  0  0  0
 25 13  1  0  0  0  0
 26 14  1  0  0  0  0
M  END
