1
q = 0.0, confidence = 0.904

 69 72  0  0  1  0  0  0  0  0999 V2000
   -1.7566    0.6031    0.8466 C   0  0  0  0  0  3  0  0  0  0  0  0
   -0.5671    0.0711    0.6592 C   0  0  0  0  0  0  0  0  0  0  0  0
    0.7198   -0.3337    0.4986 C   0  0  0  0  0  0  0  0  0  0  0  0
   -2.7131    0.1464    1.6975 O   0  0  0  0  0  0  0  0  0  0  0  0
   -2.2870   -0.8209    2.6708 C   0  0  0  0  0  0  0  0  0  0  0  0
   -1.5166   -0.3518    3.3246 H   0  0  0  0  0  0  0  0  0  0  0  0
   -1.8091   -1.6770    2.1486 H   0  0  0  0  0  0  0  0  0  0  0  0
   -3.5021   -1.2671    3.4562 C   0  0  0  0  0  0  0  0  0  0  0  0
   -3.9949   -0.4020    3.9425 H   0  0  0  0  0  0  0  0  0  0  0  0
   -3.2105   -1.9916    4.2427 H   0  0  0  0  0  0  0  0  0  0  0  0
   -4.2399   -1.7546    2.7881 H   0  0  0  0  0  0  0  0  0  0  0  0
    1.7963    0.0534    1.4615 C   0  0  0  0  0  0  0  0  0  0  0  0
    1.8037    1.3336    2.0573 C   0  0  0  0  0  0  0  0  0  0  0  0
    1.0214    2.0549    1.7865 H   0  0  0  0  0  0  0  0  0  0  0  0
    2.8006    1.6917    2.9731 C   0  0  0  0  0  0  0  0  0  0  0  0
    2.7927    2.7012    3.4120 H   0  0  0  0  0  0  0  0  0  0  0  0
    3.8074    0.7767    3.3259 C   0  0  0  0  0  0  0  0  0  0  0  0
    4.5911    1.0608    4.0445 H   0  0  0  0  0  0  0  0  0  0  0  0
    3.7950   -0.5085    2.7627 C   0  0  0  0  0  0  0  0  0  0  0  0
    4.5664   -1.2430    3.0413 H   0  0  0  0  0  0  0  0  0  0  0  0
    2.7970   -0.8663    1.8458 C   0  0  0  0  0  0  0  0  0  0  0  0
    2.7892   -1.8829    1.4250 H   0  0  0  0  0  0  0  0  0  0  0  0
    0.2077   -2.0477   -1.2924 N   0  0  0  0  0  0  0  0  0  0  0  0
    1.0449   -1.1577   -0.6591 C   0  0  1  0  0  3  0  0  0  0  0  0
    2.1980   -1.1266   -1.4177 N   0  0  0  0  0  0  0  0  0  0  0  0
    2.0554   -1.9645   -2.5211 C   0  0  0  0  0  0  0  0  0  0  0  0
    2.8487   -2.0567   -3.2667 H   0  0  0  0  0  0  0  0  0  0  0  0
    0.8166   -2.5351   -2.4435 C   0  0  0  0  0  0  0  0  0  0  0  0
    0.3075   -3.2506   -3.0936 H   0  0  0  0  0  0  0  0  0  0  0  0
   -1.0468   -2.5473   -0.7914 C   0  0  0  0  0  0  0  0  0  0  0  0
   -2.2362   -2.2564   -1.4974 C   0  0  0  0  0  0  0  0  0  0  0  0
   -3.4410   -2.7466   -0.9674 C   0  0  0  0  0  0  0  0  0  0  0  0
   -4.3806   -2.4830   -1.4770 H   0  0  0  0  0  0  0  0  0  0  0  0
   -3.4818   -3.5394    0.1936 C   0  0  0  0  0  0  0  0  0  0  0  0
   -2.2661   -3.8599    0.8232 C   0  0  0  0  0  0  0  0  0  0  0  0
   -2.2750   -4.4979    1.7213 H   0  0  0  0  0  0  0  0  0  0  0  0
   -1.0321   -3.3729    0.3555 C   0  0  0  0  0  0  0  0  0  0  0  0
   -2.2337   -1.4859   -2.7901 C   0  0  0  0  0  0  0  0  0  0  0  0
   -1.3940   -0.7736   -2.8641 H   0  0  0  0  0  0  0  0  0  0  0  0
   -3.1754   -0.9187   -2.9066 H   0  0  0  0  0  0  0  0  0  0  0  0
   -2.1595   -2.1789   -3.6562 H   0  0  0  0  0  0  0  0  0  0  0  0
   -4.8001   -4.0250    0.7395 C   0  0  0  0  0  0  0  0  0  0  0  0
   -5.4692   -3.1704    0.9709 H   0  0  0  0  0  0  0  0  0  0  0  0
   -4.6691   -4.6173    1.6652 H   0  0  0  0  0  0  0  0  0  0  0  0
   -5.3349   -4.6572    0.0006 H   0  0  0  0  0  0  0  0  0  0  0  0
    0.2423   -3.6916    1.0913 C   0  0  0  0  0  0  0  0  0  0  0  0
    1.0899   -3.8730    0.3996 H   0  0  0  0  0  0  0  0  0  0  0  0
    0.1174   -4.5893    1.7258 H   0  0  0  0  0  0  0  0  0  0  0  0
    0.5397   -2.8493    1.7521 H   0  0  0  0  0  0  0  0  0  0  0  0
    3.4141   -0.4119   -1.1258 C   0  0  0  0  0  0  0  0  0  0  0  0
    3.4296    0.9999   -1.1727 C   0  0  0  0  0  0  0  0  0  0  0  0
    4.6222    1.6450   -0.8019 C   0  0  0  0  0  0  0  0  0  0  0  0
    4.6445    2.7461   -0.8167 H   0  0  0  0  0  0  0  0  0  0  0  0
    5.7721    0.9366   -0.4134 C   0  0  0  0  0  0  0  0  0  0  0  0
    5.7248   -0.4689   -0.4336 C   0  0  0  0  0  0  0  0  0  0  0  0
    6.6188   -1.0436   -0.1433 H   0  0  0  0  0  0  0  0  0  0  0  0
    4.5589   -1.1693   -0.7818 C   0  0  0  0  0  0  0  0  0  0  0  0
    2.2254    1.7961   -1.5830 C   0  0  0  0  0  0  0  0  0  0  0  0
    1.5205    1.9176   -0.7353 H   0  0  0  0  0  0  0  0  0  0  0  0
    1.6549    1.3136   -2.3980 H   0  0  0  0  0  0  0  0  0  0  0  0
    2.5164    2.8113   -1.9113 H   0  0  0  0  0  0  0  0  0  0  0  0
    7.0057    1.6651    0.0520 C   0  0  0  0  0  0  0  0  0  0  0  0
    7.1473    2.6203   -0.4910 H   0  0  0  0  0  0  0  0  0  0  0  0
    7.9195    1.0522   -0.0735 H   0  0  0  0  0  0  0  0  0  0  0  0
    6.9193    1.9144    1.1317 H   0  0  0  0  0  0  0  0  0  0  0  0
    4.5437   -2.6774   -0.7486 C   0  0  0  0  0  0  0  0  0  0  0  0
    3.5926   -3.0778   -0.3436 H   0  0  0  0  0  0  0  0  0  0  0  0
    5.3717   -3.0616   -0.1234 H   0  0  0  0  0  0  0  0  0  0  0  0
    4.6653   -3.1178   -1.7607 H   0  0  0  0  0  0  0  0  0  0  0  0
  1  4  1  0  0  0  0
  2  1  2  0  0  0  0
  3  2  2  0  0  0  0
  3 12  1  0  0  0  0
  4  5  1  0  0  0  0
  5  6  1  0  0  0  0
  5  8  1  0  0  0  0
  7  5  1  0  0  0  0
  8  9  1  0  0  0  0
  8 10  1  0  0  0  0
 11  8  1  0  0  0  0
 12 21  2  0  0  0  0
 12 13  1  0  0  0  0
 13 15  2  0  0  0  0
 14 13  1  0  0  0  0
 15 17  1  0  0  0  0
 15 16  1  0  0  0  0
 17 18  1  0  0  0  0
 19 20  1  0  0  0  0
 19 17  2  0  0  0  0
 21 19  1  0  0  0  0
 22 21  1  0  0  0  0
 23 30  1  0  0  0  0
 23 24  1  0  0  0  0
 24  3  1  6  0  0  0
 25 50  1  0  0  0  0
 25 24  1  0  0  0  0
 26 28  2  0  0  0  0
 26 25  1  0  0  0  0
 27 26  1  0  0  0  0
 28 23  1  0  0  0  0
 29 28  1  0  0  0  0
 30 37  1  0  0  0  0
 31 32  1  0  0  0  0
 31 30  2  0  0  0  0
 32 34  2  0  0  0  0
 33 32  1  0  0  0  0
 34 42  1  0  0  0  0
 34 35  1  0  0  0  0
 35 36  1  0  0  0  0
 37 35  2  0  0  0  0
 37 46  1  0  0  0  0
 38 31  1  0  0  0  0
 39 38  1  0  0  0  0
 40 38  1  0  0  0  0
 41 38  1  0  0  0  0
 42 43  1  0  0  0  0
 42 44  1  0  0  0  0
 45 42  1  0  0  0  0
 46 48  1  0  0  0  0
 46 49  1  0  0  0  0
 47 46  1  0  0  0  0
 50 57  1  0  0  0  0
 51 50  2  0  0  0  0
 51 52  1  0  0  0  0
 52 54  2  0  0  0  0
 53 52  1  0  0  0  0
 54 62  1  0  0  0  0
 55 54  1  0  0  0  0
 55 56  1  0  0  0  0
 57 66  1  0  0  0  0
 57 55  2  0  0  0  0
 58 51  1  0  0  0  0
 58 59  1  0  0  0  0
 60 58  1  0  0  0  0
 61 58  1  0  0  0  0
 62 65  1  0  0  0  0
 63 62  1  0  0  0  0
 64 62  1  0  0  0  0
 66 67  1  0  0  0  0
 66 68  1  0  0  0  0
 69 66  1  0  0  0  0
M  END
