2
q = -1.0, confidence = 0.0

 23 23  0  0  0  0  0  0  0  0999 V2000
   -1.3080   -1.3912    0.4563 N   0  0  0  0  0  0  0  0  0  0  0  0
   -0.3991   -2.0439   -0.1446 C   0  0  0  0  0  3  0  0  0  0  0  0
   -0.1483   -3.4932   -0.3399 C   0  0  0  0  0  0  0  0  0  0  0  0
    0.1260   -3.6694   -1.3998 H   0  0  0  0  0  0  0  0  0  0  0  0
   -1.0740   -4.0751   -0.1360 H   0  0  0  0  0  0  0  0  0  0  0  0
    1.0026   -3.9646    0.5710 C   0  0  0  0  0  0  0  0  0  0  0  0
    1.9370   -3.4138    0.3496 H   0  0  0  0  0  0  0  0  0  0  0  0
    1.1902   -5.0440    0.4149 H   0  0  0  0  0  0  0  0  0  0  0  0
    0.7582   -3.8073    1.6399 H   0  0  0  0  0  0  0  0  0  0  0  0
   -2.6050   -1.7762    0.9891 C   0  0  0  0  0  0  0  0  0  0  0  0
   -2.6324   -1.5464    2.0750 H   0  0  0  0  0  0  0  0  0  0  0  0
   -2.7048   -2.8814    0.8953 H   0  0  0  0  0  0  0  0  0  0  0  0
   -3.7578   -1.0783    0.2929 C   0  0  0  0  0  0  0  0  0  0  0  0
   -3.6873   -0.7391   -1.0714 C   0  0  0  0  0  0  0  0  0  0  0  0
   -2.7833   -0.9647   -1.6537 H   0  0  0  0  0  0  0  0  0  0  0  0
   -4.7648   -0.0943   -1.6992 C   0  0  0  0  0  0  0  0  0  0  0  0
   -4.6901    0.1698   -2.7648 H   0  0  0  0  0  0  0  0  0  0  0  0
   -5.9275    0.2085   -0.9733 C   0  0  0  0  0  0  0  0  0  0  0  0
   -6.7720    0.7126   -1.4662 H   0  0  0  0  0  0  0  0  0  0  0  0
   -6.0106   -0.1404    0.3844 C   0  0  0  0  0  0  0  0  0  0  0  0
   -6.9211    0.0869    0.9587 H   0  0  0  0  0  0  0  0  0  0  0  0
   -4.9307   -0.7764    1.0145 C   0  0  0  0  0  0  0  0  0  0  0  0
   -5.0009   -1.0422    2.0818 H   0  0  0  0  0  0  0  0  0  0  0  0
  1 10  1  0  0  0  0
  2  1  2  0  0  0  0
  3  2  1  0  0  0  0
  3  5  1  0  0  0  0
  3  6  1  0  0  0  0
  4  3  1  0  0  0  0
  6  9  1  0  0  0  0
  7  6  1  0  0  0  0
  8  6  1  0  0  0  0
 10 11  1  0  0  0  0
 12 10  1  0  0  0  0
 13 10  1  0  0  0  0
 13 22  1  0  0  0  0
 14 13  2  0  0  0  0
 15 14  1  0  0  0  0
 16 14  1  0  0  0  0
 16 18  2  0  0  0  0
 17 16  1  0  0  0  0
 18 20  1  0  0  0  0
 19 18  1  0  0  0  0
 20 21  1  0  0  0  0
 20 22  2  0  0  0  0
 22 23  1  0  0  0  0
M  END
