9
q = -1.0

 17 17  0  0  0  0  0  0  0  0999 V2000
   -1.5473   -0.4292   -0.5486 C   0  0  0  0  0  0  0  0  0  0  0  0
   -1.1200   -1.0938    0.6425 C   0  0  0  0  0  3  0  0  0  0  0  0
   -1.6700   -0.8965    1.5748 H   0  0  0  0  0  0  0  0  0  0  0  0
   -0.3454   -2.3936    0.5085 C   0  0  0  0  0  0  0  0  0  0  0  0
    0.0381   -2.7092    1.4965 H   0  0  0  0  0  0  0  0  0  0  0  0
   -0.9551   -3.2378    0.1110 H   0  0  0  0  0  0  0  0  0  0  0  0
    0.7949   -2.0121   -0.4082 C   0  0  0  0  0  3  0  0  0  0  0  0
    1.7688   -2.5191   -0.3232 H   0  0  0  0  0  0  0  0  0  0  0  0
    0.5236   -1.2831   -1.5884 C   0  0  0  0  0  3  0  0  0  0  0  0
    1.2629   -1.2411   -2.4039 H   0  0  0  0  0  0  0  0  0  0  0  0
   -0.6423   -0.4611   -1.6743 C   0  0  0  0  0  0  0  0  0  0  0  0
   -0.8793    0.1277   -2.5712 H   0  0  0  0  0  0  0  0  0  0  0  0
   -2.5877    0.3821   -0.6683 O   0  0  0  0  0  0  0  0  0  0  0  0
   -3.4920    0.5674    0.4365 C   0  0  0  0  0  0  0  0  0  0  0  0
   -4.3317    1.1606    0.0359 H   0  0  0  0  0  0  0  0  0  0  0  0
   -2.9983    1.1334    1.2529 H   0  0  0  0  0  0  0  0  0  0  0  0
   -3.8641   -0.4072    0.8111 H   0  0  0  0  0  0  0  0  0  0  0  0
  1  2  1  0  0  0  0
  2  3  1  0  0  0  0
  4  2  1  0  0  0  0
  4  5  1  0  0  0  0
  6  4  1  0  0  0  0
  7  8  1  0  0  0  0
  7  4  1  0  0  0  0
  9  7  1  0  0  0  0
 10  9  1  0  0  0  0
 11  9  1  0  0  0  0
 11  1  2  0  0  0  0
 12 11  1  0  0  0  0
 13  1  1  0  0  0  0
 13 14  1  0  0  0  0
 14 17  1  0  0  0  0
 14 16  1  0  0  0  0
 15 14  1  0  0  0  0
M  END
