7
q = 0.0, confidence = 0.944

 34 35  0  0  1  0  0  0  0  0999 V2000
    5.0153   -2.5624    0.4620 O   0  0  0  0  0  0  0  0  0  0  0  0
    5.6960   -0.9295   -0.9530 O   0  0  0  0  0  0  0  0  0  0  0  0
    3.3373    1.3711    2.3122 O   0  0  0  0  0  0  0  0  0  0  0  0
    3.8074    3.0052    0.8180 O   0  0  0  0  0  0  0  0  0  0  0  0
    2.3966   -0.2859   -1.6930 N   0  0  0  0  0  0  0  0  0  0  0  0
    1.1080    0.7730    0.0315 C   0  0  0  0  0  3  0  0  0  0  0  0
    1.1296   -0.6667    0.3114 C   0  0  0  0  0  3  0  0  0  0  0  0
    2.3164   -1.1968   -0.5448 C   0  0  2  0  0  0  0  0  0  0  0  0
    3.5883   -0.6902    0.2668 C   0  0  2  0  0  0  0  0  0  0  0  0
    3.5862    0.8182   -0.0565 C   0  0  1  0  0  0  0  0  0  0  0  0
    2.2893    0.9776   -0.9575 C   0  0  1  0  0  0  0  0  0  0  0  0
    2.3242   -2.6539   -0.9656 C   0  0  0  0  0  0  0  0  0  0  0  0
    2.3131    2.1888   -1.8696 C   0  0  0  0  0  0  0  0  0  0  0  0
    4.8756   -1.3588   -0.1627 C   0  0  0  0  0  0  0  0  0  0  0  0
    3.5694    1.7063    1.1628 C   0  0  0  0  0  0  0  0  0  0  0  0
    6.1685   -3.3156    0.0790 C   0  0  0  0  0  0  0  0  0  0  0  0
    3.7411    3.9453    1.8935 C   0  0  0  0  0  0  0  0  0  0  0  0
    1.0856    1.4994    0.8611 H   0  0  0  0  0  0  0  0  0  0  0  0
    1.5817   -0.4092   -2.3085 H   0  0  0  0  0  0  0  0  0  0  0  0
    1.0889   -1.0311    1.3555 H   0  0  0  0  0  0  0  0  0  0  0  0
    3.4399   -0.8826    1.3457 H   0  0  0  0  0  0  0  0  0  0  0  0
    4.4635    1.0671   -0.6860 H   0  0  0  0  0  0  0  0  0  0  0  0
    2.3316   -3.3332   -0.0918 H   0  0  0  0  0  0  0  0  0  0  0  0
    3.2130   -2.8771   -1.5875 H   0  0  0  0  0  0  0  0  0  0  0  0
    1.4300   -2.8632   -1.5868 H   0  0  0  0  0  0  0  0  0  0  0  0
    1.3843    2.2397   -2.4706 H   0  0  0  0  0  0  0  0  0  0  0  0
    2.4277    3.1276   -1.2952 H   0  0  0  0  0  0  0  0  0  0  0  0
    3.1705    2.1116   -2.5669 H   0  0  0  0  0  0  0  0  0  0  0  0
    6.1360   -3.5704   -1.0005 H   0  0  0  0  0  0  0  0  0  0  0  0
    6.1537   -4.2361    0.6899 H   0  0  0  0  0  0  0  0  0  0  0  0
    7.0984   -2.7411    0.2656 H   0  0  0  0  0  0  0  0  0  0  0  0
    4.0361    4.9218    1.4690 H   0  0  0  0  0  0  0  0  0  0  0  0
    2.7121    4.0040    2.3065 H   0  0  0  0  0  0  0  0  0  0  0  0
    4.4240    3.6564    2.7173 H   0  0  0  0  0  0  0  0  0  0  0  0
  2 14  2  0  0  0  0
  4 15  1  0  0  0  0
  4 17  1  0  0  0  0
  5 11  1  0  0  0  0
  5  8  1  0  0  0  0
  6  7  1  0  0  0  0
  6 18  1  0  0  0  0
  7 20  1  0  0  0  0
  8 12  1  6  0  0  0
  8  9  1  0  0  0  0
  8  7  1  0  0  0  0
  9 21  1  1  0  0  0
 10 22  1  6  0  0  0
 10  9  1  0  0  0  0
 10 15  1  0  0  0  0
 11 13  1  6  0  0  0
 11 10  1  0  0  0  0
 11  6  1  0  0  0  0
 12 23  1  0  0  0  0
 13 27  1  0  0  0  0
 14  9  1  0  0  0  0
 14  1  1  0  0  0  0
 15  3  2  0  0  0  0
 16 31  1  0  0  0  0
 16  1  1  0  0  0  0
 16 30  1  0  0  0  0
 17 33  1  0  0  0  0
 17 34  1  0  0  0  0
 19  5  1  0  0  0  0
 24 12  1  0  0  0  0
 25 12  1  0  0  0  0
 26 13  1  0  0  0  0
 28 13  1  0  0  0  0
 29 16  1  0  0  0  0
 32 17  1  0  0  0  0
M  END
