5
q = 0.0, confidence = 0.998

 38 40  0  0  0  0  0  0  0  0999 V2000
    3.7615    0.9154   -0.1035 C   0  0  0  0  0  0  0  0  0  0  0  0
    2.5903    1.5992   -0.2405 N   0  0  0  0  0  0  0  0  0  0  0  0
    6.0253    0.8707   -0.5593 C   0  0  0  0  0  0  0  0  0  0  0  0
    1.4904    1.0772    0.2647 C   0  0  0  0  0  0  0  0  0  0  0  0
   -0.9739    1.3139   -0.0505 C   0  0  0  0  0  2  0  0  0  0  0  0
    0.3001    1.8344    0.0531 N   0  0  0  0  0  0  0  0  0  0  0  0
   -1.7651    2.4036   -0.2598 N   0  0  0  0  0  0  0  0  0  0  0  0
    4.8635    1.5093   -0.6373 N   0  0  0  0  0  0  0  0  0  0  0  0
    6.1627   -0.4126    0.0574 C   0  0  0  0  0  0  0  0  0  0  0  0
    7.1526   -0.8952    0.0820 H   0  0  0  0  0  0  0  0  0  0  0  0
    7.2343    1.5461   -1.1534 C   0  0  0  0  0  0  0  0  0  0  0  0
    6.9391    2.5179   -1.5880 H   0  0  0  0  0  0  0  0  0  0  0  0
    7.6938    0.9180   -1.9450 H   0  0  0  0  0  0  0  0  0  0  0  0
    8.0154    1.7148   -0.3828 H   0  0  0  0  0  0  0  0  0  0  0  0
    0.2941    3.2207   -0.1132 C   0  0  0  0  0  0  0  0  0  0  0  0
    1.2254    3.7916   -0.0889 H   0  0  0  0  0  0  0  0  0  0  0  0
    3.8089   -0.3673    0.5575 C   0  0  0  0  0  0  0  0  0  0  0  0
   -3.2338    2.3242   -0.3746 C   0  0  0  0  0  0  0  0  0  0  0  0
   -3.4277    1.2287   -0.3945 H   0  0  0  0  0  0  0  0  0  0  0  0
   -1.0118    3.5771   -0.2956 C   0  0  0  0  0  0  0  0  0  0  0  0
   -1.4633    4.5620   -0.4433 H   0  0  0  0  0  0  0  0  0  0  0  0
    1.4281   -0.1369    1.0062 C   0  0  0  0  0  0  0  0  0  0  0  0
    0.4831   -0.4564    1.4729 H   0  0  0  0  0  0  0  0  0  0  0  0
    2.6027   -0.8600    1.1295 C   0  0  0  0  0  0  0  0  0  0  0  0
    2.6015   -1.8037    1.6945 H   0  0  0  0  0  0  0  0  0  0  0  0
   -3.8986    2.9139    0.8698 C   0  0  0  0  0  0  0  0  0  0  0  0
   -3.5480    2.3777    1.7736 H   0  0  0  0  0  0  0  0  0  0  0  0
   -4.9982    2.7979    0.7994 H   0  0  0  0  0  0  0  0  0  0  0  0
   -3.6761    3.9962    0.9759 H   0  0  0  0  0  0  0  0  0  0  0  0
    5.0687   -1.0500    0.6255 C   0  0  0  0  0  0  0  0  0  0  0  0
    5.1888   -2.3948    1.2880 C   0  0  0  0  0  0  0  0  0  0  0  0
    6.2246   -2.7788    1.2324 H   0  0  0  0  0  0  0  0  0  0  0  0
    4.5193   -3.1415    0.8125 H   0  0  0  0  0  0  0  0  0  0  0  0
    4.9002   -2.3449    2.3588 H   0  0  0  0  0  0  0  0  0  0  0  0
   -3.7142    2.9504   -1.6841 C   0  0  0  0  0  0  0  0  0  0  0  0
   -3.5376    4.0459   -1.7088 H   0  0  0  0  0  0  0  0  0  0  0  0
   -4.8041    2.7889   -1.7979 H   0  0  0  0  0  0  0  0  0  0  0  0
   -3.2042    2.4975   -2.5573 H   0  0  0  0  0  0  0  0  0  0  0  0
  1 17  1  0  0  0  0
  2  1  2  0  0  0  0
  2  4  1  0  0  0  0
  3  9  1  0  0  0  0
  4 22  2  0  0  0  0
  5  6  1  0  0  0  0
  6  4  1  0  0  0  0
  7  5  1  0  0  0  0
  8  3  2  0  0  0  0
  8  1  1  0  0  0  0
  9 10  1  0  0  0  0
  9 30  2  0  0  0  0
 11  3  1  0  0  0  0
 11 14  1  0  0  0  0
 12 11  1  0  0  0  0
 13 11  1  0  0  0  0
 15 16  1  0  0  0  0
 15  6  1  0  0  0  0
 17 30  1  0  0  0  0
 17 24  2  0  0  0  0
 18  7  1  0  0  0  0
 18 26  1  0  0  0  0
 19 18  1  0  0  0  0
 20  7  1  0  0  0  0
 20 15  2  0  0  0  0
 21 20  1  0  0  0  0
 22 24  1  0  0  0  0
 22 23  1  0  0  0  0
 24 25  1  0  0  0  0
 26 29  1  0  0  0  0
 26 27  1  0  0  0  0
 28 26  1  0  0  0  0
 30 31  1  0  0  0  0
 31 34  1  0  0  0  0
 32 31  1  0  0  0  0
 33 31  1  0  0  0  0
 35 18  1  0  0  0  0
 36 35  1  0  0  0  0
 37 35  1  0  0  0  0
 38 35  1  0  0  0  0
M  END
