22
q = -1.0, confidence = 0.234

 26 28  0  0  1  0  0  0  0  0999 V2000
   -1.0327    1.0542   -0.9206 C   0  0  1  0  0  0  0  0  0  0  0  0
   -1.3866    2.2454   -1.2285 N   0  0  0  0  0  0  0  0  0  0  0  0
   -2.0605    3.3310   -0.9823 C   0  0  1  0  0  0  0  0  0  0  0  0
   -1.9247    4.9727   -1.0092 C   0  0  1  0  0  0  0  0  0  0  0  0
   -2.8100    4.2838   -1.8561 C   0  0  0  0  0  0  0  0  0  0  0  0
   -2.1247    4.2762    0.1816 C   0  0  0  0  0  0  0  0  0  0  0  0
    1.3394   -1.3556   -3.2447 F   0  0  0  0  0  0  0  0  0  0  0  0
    2.4087   -1.8851   -1.4133 F   0  0  0  0  0  0  0  0  0  0  0  0
    0.7572   -3.1111   -2.1015 F   0  0  0  0  0  0  0  0  0  0  0  0
    1.1901   -1.8396   -1.9949 C   0  0  0  0  0  0  0  0  0  0  0  0
    0.2163   -0.9639   -1.2188 C   0  0  1  0  0  0  0  0  0  0  0  0
    0.3148    0.4892   -1.1277 C   0  0  1  0  0  0  0  0  0  0  0  0
    1.3608    1.3553   -1.8166 C   0  0  0  0  0  0  0  0  0  0  0  0
    1.5359    2.5237   -1.1779 F   0  0  0  0  0  0  0  0  0  0  0  0
    2.5635    0.7505   -1.9127 F   0  0  0  0  0  0  0  0  0  0  0  0
    0.9369    1.6272   -3.0711 F   0  0  0  0  0  0  0  0  0  0  0  0
   -3.4417   -0.6370    1.3052 F   0  0  0  0  0  0  0  0  0  0  0  0
   -4.0727   -0.3047   -0.7659 F   0  0  0  0  0  0  0  0  0  0  0  0
   -3.4698    1.3720    0.4757 F   0  0  0  0  0  0  0  0  0  0  0  0
   -3.1949    0.0905    0.1846 C   0  0  0  0  0  0  0  0  0  0  0  0
   -1.7643   -0.0598   -0.2972 C   0  0  1  0  0  0  0  0  0  0  0  0
   -1.0989   -1.3029   -0.7051 C   0  0  1  0  0  0  0  0  0  0  0  0
   -1.8391   -2.6166   -0.9531 C   0  0  0  0  0  0  0  0  0  0  0  0
   -2.1388   -2.6909   -2.2633 F   0  0  0  0  0  0  0  0  0  0  0  0
   -2.9948   -2.6766   -0.2577 F   0  0  0  0  0  0  0  0  0  0  0  0
   -1.1479   -3.7282   -0.6202 F   0  0  0  0  0  0  0  0  0  0  0  0
  1  2  1  1  0  0  0
  1 21  1  0  0  0  0
  3  2  1  6  0  0  0
  3  6  1  0  0  0  0
  4  5  1  6  0  0  0
  4  3  1  0  0  0  0
  4  6  1  0  0  0  0
  5  3  1  0  0  0  0
  7 10  1  0  0  0  0
  9 10  1  0  0  0  0
 10  8  1  0  0  0  0
 11 10  1  6  0  0  0
 11 12  1  0  0  0  0
 11 22  1  0  0  0  0
 12 13  1  6  0  0  0
 12  1  1  0  0  0  0
 13 14  1  0  0  0  0
 15 13  1  0  0  0  0
 16 13  1  0  0  0  0
 18 20  1  0  0  0  0
 20 19  1  0  0  0  0
 20 17  1  0  0  0  0
 21 20  1  6  0  0  0
 22 23  1  6  0  0  0
 22 21  1  0  0  0  0
 23 26  1  0  0  0  0
 23 25  1  0  0  0  0
 24 23  1  0  0  0  0
M  END
