1
q = -1.0

  5  5  0  0  0  0  0  0  0  0999 V2000
   -0.0004   -1.8707   -2.6854 C   0  0  0  0  0  3  0  0  0  0  0  0
   -0.0011   -2.0469   -4.0501 C   0  0  0  0  0  0  0  0  0  0  0  0
   -0.0018   -1.4875   -5.0029 H   0  0  0  0  0  0  0  0  0  0  0  0
   -0.0003   -3.2222   -3.2465 C   0  0  0  0  0  0  0  0  0  0  0  0
    0.0002   -4.4319   -3.0953 O   0  0  0  0  0  0  0  0  0  0  0  0
  2  4  1  0  0  0  0
  2  1  2  0  0  0  0
  3  2  1  0  0  0  0
  4  5  2  0  0  0  0
  4  1  1  0  0  0  0
M  END
