23
q = 0.0, confidence = 1.0

 34 35  0  0  0  0  0  0  0  0999 V2000
    3.2663    3.1099   -1.5824 O   0  0  0  0  0  0  0  0  0  0  0  0
    2.3773    2.0121    0.2092 O   0  0  0  0  0  0  0  0  0  0  0  0
   -1.6538    1.5411    0.6769 N   0  0  0  0  0  0  0  0  0  0  0  0
   -0.1753    2.3484   -0.6956 N   0  0  0  0  0  0  0  0  0  0  0  0
   -2.4578    0.6115    1.4821 C   0  0  0  0  0  0  0  0  0  0  0  0
   -2.6622    1.0963    2.4562 H   0  0  0  0  0  0  0  0  0  0  0  0
   -1.8123   -0.2643    1.6899 H   0  0  0  0  0  0  0  0  0  0  0  0
   -3.7442    0.2209    0.7863 C   0  0  0  0  0  0  0  0  0  0  0  0
   -4.9844    0.4336    1.4152 C   0  0  0  0  0  0  0  0  0  0  0  0
   -5.0158    0.8939    2.4160 H   0  0  0  0  0  0  0  0  0  0  0  0
   -6.1787    0.0561    0.7807 C   0  0  0  0  0  0  0  0  0  0  0  0
   -7.1428    0.2244    1.2838 H   0  0  0  0  0  0  0  0  0  0  0  0
   -6.1398   -0.5311   -0.4925 C   0  0  0  0  0  0  0  0  0  0  0  0
   -7.0745   -0.8264   -0.9926 H   0  0  0  0  0  0  0  0  0  0  0  0
   -4.9038   -0.7422   -1.1271 C   0  0  0  0  0  0  0  0  0  0  0  0
   -4.8658   -1.2056   -2.1244 H   0  0  0  0  0  0  0  0  0  0  0  0
   -3.7106   -0.3709   -0.4932 C   0  0  0  0  0  0  0  0  0  0  0  0
   -2.7475   -0.5422   -1.0022 H   0  0  0  0  0  0  0  0  0  0  0  0
   -2.0107    2.8604    0.4365 C   0  0  0  0  0  0  0  0  0  0  0  0
   -2.9040    3.3080    0.8809 H   0  0  0  0  0  0  0  0  0  0  0  0
   -1.0739    3.3725   -0.4214 C   0  0  0  0  0  0  0  0  0  0  0  0
   -0.9714    4.3668   -0.8655 H   0  0  0  0  0  0  0  0  0  0  0  0
   -0.5299    1.2240   -0.0134 C   0  0  0  0  0  2  0  0  0  0  0  0
    0.9463    2.4725   -1.6202 C   0  0  0  0  0  0  0  0  0  0  0  0
    0.7789    3.3515   -2.2673 H   0  0  0  0  0  0  0  0  0  0  0  0
    0.9493    1.5687   -2.2710 H   0  0  0  0  0  0  0  0  0  0  0  0
    2.3362    2.5966   -0.9946 C   0  0  0  0  0  0  0  0  0  0  0  0
    3.6764    1.8768    0.8519 C   0  0  0  0  0  0  0  0  0  0  0  0
    4.2473    2.8106    0.6749 H   0  0  0  0  0  0  0  0  0  0  0  0
    3.4280    1.7799    1.9252 H   0  0  0  0  0  0  0  0  0  0  0  0
    4.4127    0.6560    0.3318 C   0  0  0  0  0  0  0  0  0  0  0  0
    3.8146   -0.2658    0.4775 H   0  0  0  0  0  0  0  0  0  0  0  0
    5.3679    0.5390    0.8821 H   0  0  0  0  0  0  0  0  0  0  0  0
    4.6505    0.7655   -0.7443 H   0  0  0  0  0  0  0  0  0  0  0  0
  1 27  2  0  0  0  0
  2 28  1  0  0  0  0
  3  5  1  0  0  0  0
  4 21  1  0  0  0  0
  4 23  1  0  0  0  0
  5  7  1  0  0  0  0
  5  6  1  0  0  0  0
  8  9  1  0  0  0  0
  8  5  1  0  0  0  0
  9 10  1  0  0  0  0
 11 12  1  0  0  0  0
 11  9  2  0  0  0  0
 13 11  1  0  0  0  0
 14 13  1  0  0  0  0
 15 17  1  0  0  0  0
 15 13  2  0  0  0  0
 16 15  1  0  0  0  0
 17  8  2  0  0  0  0
 18 17  1  0  0  0  0
 19  3  1  0  0  0  0
 19 20  1  0  0  0  0
 21 19  2  0  0  0  0
 22 21  1  0  0  0  0
 23  3  1  0  0  0  0
 24 27  1  0  0  0  0
 24  4  1  0  0  0  0
 25 24  1  0  0  0  0
 26 24  1  0  0  0  0
 27  2  1  0  0  0  0
 28 30  1  0  0  0  0
 29 28  1  0  0  0  0
 31 32  1  0  0  0  0
 31 28  1  0  0  0  0
 31 33  1  0  0  0  0
 34 31  1  0  0  0  0
M  END
