4
q = 0.0, confidence = 0.984

 43 44  0  0  1  0  0  0  0  0999 V2000
    1.1352    0.8977    1.0346 C   0  0  0  0  0  3  0  0  0  0  0  0
    0.6798    0.8907    2.0387 H   0  0  0  0  0  0  0  0  0  0  0  0
    0.2664    0.5281   -0.0610 C   0  0  1  0  0  3  0  0  0  0  0  0
    0.9918    0.2860   -1.2694 C   0  0  0  0  0  3  0  0  0  0  0  0
    0.4763   -0.0802   -2.1708 H   0  0  0  0  0  0  0  0  0  0  0  0
    2.4198    0.4287   -1.1827 C   0  0  0  0  0  3  0  0  0  0  0  0
    2.9924    0.0602   -2.0495 H   0  0  0  0  0  0  0  0  0  0  0  0
    3.0366    1.6098   -0.4464 C   0  0  2  0  0  0  0  0  0  0  0  0
    3.0657    2.4769   -1.1585 H   0  0  0  0  0  0  0  0  0  0  0  0
    4.3646    1.3635    0.0028 O   0  0  0  0  0  0  0  0  0  0  0  0
    5.3074    1.1155   -1.0125 C   0  0  0  0  0  0  0  0  0  0  0  0
    6.3086    1.1233   -0.5391 H   0  0  0  0  0  0  0  0  0  0  0  0
    5.2831    1.9026   -1.8061 H   0  0  0  0  0  0  0  0  0  0  0  0
    5.1688    0.1240   -1.5047 H   0  0  0  0  0  0  0  0  0  0  0  0
    2.2003    1.9485    0.7942 C   0  0  0  0  0  0  0  0  0  0  0  0
    2.8964    2.0149    1.6525 H   0  0  0  0  0  0  0  0  0  0  0  0
    1.7006    2.9338    0.6750 H   0  0  0  0  0  0  0  0  0  0  0  0
   -1.2118    0.3688    0.0228 C   0  0  0  0  0  0  0  0  0  0  0  0
   -2.0328    1.4386    0.4420 C   0  0  0  0  0  0  0  0  0  0  0  0
   -3.4337    1.2616    0.4511 C   0  0  0  0  0  0  0  0  0  0  0  0
   -4.0624    2.1078    0.7624 H   0  0  0  0  0  0  0  0  0  0  0  0
   -4.0339    0.0521    0.0755 C   0  0  0  0  0  0  0  0  0  0  0  0
   -3.2018   -1.0270   -0.3524 C   0  0  0  0  0  0  0  0  0  0  0  0
   -1.8155   -0.8423   -0.3847 C   0  0  0  0  0  0  0  0  0  0  0  0
   -1.1576   -1.6621   -0.7000 H   0  0  0  0  0  0  0  0  0  0  0  0
   -1.4561    2.7891    0.8274 C   0  0  0  0  0  0  0  0  0  0  0  0
   -2.2993    3.4943    1.0317 H   0  0  0  0  0  0  0  0  0  0  0  0
   -0.8580    2.7161    1.7587 H   0  0  0  0  0  0  0  0  0  0  0  0
   -0.5687    3.3450   -0.1312 O   0  0  0  0  0  0  0  0  0  0  0  0
   -1.1682    3.6023   -1.3818 C   0  0  0  0  0  0  0  0  0  0  0  0
   -0.3955    4.0628   -2.0274 H   0  0  0  0  0  0  0  0  0  0  0  0
   -2.0283    4.3103   -1.2930 H   0  0  0  0  0  0  0  0  0  0  0  0
   -1.5399    2.6729   -1.8735 H   0  0  0  0  0  0  0  0  0  0  0  0
   -5.3681   -0.1969    0.0782 O   0  0  0  0  0  0  0  0  0  0  0  0
   -6.2355    0.8324    0.5095 C   0  0  0  0  0  0  0  0  0  0  0  0
   -7.2611    0.4239    0.4485 H   0  0  0  0  0  0  0  0  0  0  0  0
   -6.1665    1.7341   -0.1407 H   0  0  0  0  0  0  0  0  0  0  0  0
   -6.0282    1.1369    1.5604 H   0  0  0  0  0  0  0  0  0  0  0  0
   -3.8414   -2.1748   -0.6887 O   0  0  0  0  0  0  0  0  0  0  0  0
   -3.0453   -3.2942   -1.0328 C   0  0  0  0  0  0  0  0  0  0  0  0
   -3.7449   -4.1290   -1.2218 H   0  0  0  0  0  0  0  0  0  0  0  0
   -2.3529   -3.5750   -0.2077 H   0  0  0  0  0  0  0  0  0  0  0  0
   -2.4445   -3.1105   -1.9522 H   0  0  0  0  0  0  0  0  0  0  0  0
  1  2  1  0  0  0  0
  3 18  1  1  0  0  0
  3  1  1  0  0  0  0
  4  6  1  0  0  0  0
  4  3  1  0  0  0  0
  5  4  1  0  0  0  0
  6  8  1  0  0  0  0
  7  6  1  0  0  0  0
  8  9  1  6  0  0  0
  8 10  1  0  0  0  0
  8 15  1  0  0  0  0
 11 12  1  0  0  0  0
 11 10  1  0  0  0  0
 13 11  1  0  0  0  0
 14 11  1  0  0  0  0
 15  1  1  0  0  0  0
 15 16  1  0  0  0  0
 17 15  1  0  0  0  0
 18 19  1  0  0  0  0
 19 20  2  0  0  0  0
 19 26  1  0  0  0  0
 20 21  1  0  0  0  0
 22 34  1  0  0  0  0
 22 20  1  0  0  0  0
 23 22  2  0  0  0  0
 24 23  1  0  0  0  0
 24 18  2  0  0  0  0
 25 24  1  0  0  0  0
 26 27  1  0  0  0  0
 26 28  1  0  0  0  0
 29 26  1  0  0  0  0
 30 32  1  0  0  0  0
 30 29  1  0  0  0  0
 31 30  1  0  0  0  0
 33 30  1  0  0  0  0
 34 35  1  0  0  0  0
 35 38  1  0  0  0  0
 36 35  1  0  0  0  0
 37 35  1  0  0  0  0
 39 23  1  0  0  0  0
 40 39  1  0  0  0  0
 40 42  1  0  0  0  0
 41 40  1  0  0  0  0
 43 40  1  0  0  0  0
M  END
