61
q = 0.0, confidence = 0.994

 63 67  0  0  0  0  0  0  0  0999 V2000
    0.3237   -1.1205    1.6797 N   0  0  0  0  0  0  0  0  0  0  0  0
    2.1581   -0.2110   -0.2845 O   0  0  0  0  0  0  0  0  0  0  0  0
   -2.6970    0.7262    1.0286 C   0  0  0  0  0  0  0  0  0  0  0  0
    1.6329   -1.6548    1.5228 C   0  0  0  0  0  0  0  0  0  0  0  0
   -3.7161   -1.3335   -0.1357 C   0  0  0  0  0  0  0  0  0  0  0  0
   -2.7161   -1.7572    0.0848 H   0  0  0  0  0  0  0  0  0  0  0  0
    3.0403    0.3324   -1.2858 C   0  0  0  0  0  0  0  0  0  0  0  0
    2.3538    0.9096   -1.9383 H   0  0  0  0  0  0  0  0  0  0  0  0
    3.4794   -0.4841   -1.8964 H   0  0  0  0  0  0  0  0  0  0  0  0
    4.1925   -2.8484    1.3137 C   0  0  0  0  0  0  0  0  0  0  0  0
    5.1819   -3.3166    1.2072 H   0  0  0  0  0  0  0  0  0  0  0  0
   -3.9754   -1.5777   -1.6297 C   0  0  0  0  0  0  0  0  0  0  0  0
   -5.0029   -1.2816   -1.9261 H   0  0  0  0  0  0  0  0  0  0  0  0
   -3.8547   -2.6543   -1.8612 H   0  0  0  0  0  0  0  0  0  0  0  0
   -3.2557   -1.0211   -2.2624 H   0  0  0  0  0  0  0  0  0  0  0  0
    5.4490    1.1072   -1.0376 C   0  0  0  0  0  0  0  0  0  0  0  0
    5.7564    0.3296   -1.7561 H   0  0  0  0  0  0  0  0  0  0  0  0
   -1.2338    4.1055    1.9548 C   0  0  0  0  0  0  0  0  0  0  0  0
   -2.0525    4.8310    2.1394 H   0  0  0  0  0  0  0  0  0  0  0  0
   -0.9476    4.1615    0.8872 H   0  0  0  0  0  0  0  0  0  0  0  0
   -0.3674    4.4323    2.5645 H   0  0  0  0  0  0  0  0  0  0  0  0
    3.7070    2.2309    0.2307 C   0  0  0  0  0  0  0  0  0  0  0  0
    2.6415    2.3336    0.4901 H   0  0  0  0  0  0  0  0  0  0  0  0
    3.8060   -1.8434    0.4153 C   0  0  0  0  0  0  0  0  0  0  0  0
    4.5049   -1.5123   -0.3611 H   0  0  0  0  0  0  0  0  0  0  0  0
    0.0992   -2.2366    3.8836 C   0  0  0  0  0  0  0  0  0  0  0  0
   -0.5053   -2.3957    4.7866 H   0  0  0  0  0  0  0  0  0  0  0  0
   -4.7329   -2.0800    0.7475 C   0  0  0  0  0  0  0  0  0  0  0  0
   -4.5095   -1.9505    1.8264 H   0  0  0  0  0  0  0  0  0  0  0  0
   -4.7163   -3.1659    0.5229 H   0  0  0  0  0  0  0  0  0  0  0  0
   -5.7647   -1.7102    0.5725 H   0  0  0  0  0  0  0  0  0  0  0  0
   -2.0956    2.6321    3.8136 C   0  0  0  0  0  0  0  0  0  0  0  0
   -3.0056    3.2508    3.9561 H   0  0  0  0  0  0  0  0  0  0  0  0
   -1.3045    3.0305    4.4814 H   0  0  0  0  0  0  0  0  0  0  0  0
   -2.3357    1.6046    4.1494 H   0  0  0  0  0  0  0  0  0  0  0  0
    1.2735   -2.8945    3.6594 C   0  0  0  0  0  0  0  0  0  0  0  0
    1.6609   -3.6214    4.3876 H   0  0  0  0  0  0  0  0  0  0  0  0
    3.3468   -3.2156    2.3549 C   0  0  0  0  0  0  0  0  0  0  0  0
    3.6583   -3.9583    3.1033 H   0  0  0  0  0  0  0  0  0  0  0  0
   -4.7818    2.3381    0.1619 C   0  0  0  0  0  0  0  0  0  0  0  0
   -5.6038    2.9799   -0.1895 H   0  0  0  0  0  0  0  0  0  0  0  0
    6.4099    1.9705   -0.4877 C   0  0  0  0  0  0  0  0  0  0  0  0
    7.4678    1.8661   -0.7726 H   0  0  0  0  0  0  0  0  0  0  0  0
    2.0752   -2.6093    2.4919 C   0  0  0  0  0  0  0  0  0  0  0  0
    4.0933    1.2301   -0.6841 C   0  0  0  0  0  0  0  0  0  0  0  0
   -1.6372    2.6755    2.3423 C   0  0  0  0  0  0  0  0  0  0  0  0
   -0.7301    2.0442    2.2404 H   0  0  0  0  0  0  0  0  0  0  0  0
   -2.7069    2.0862    1.4290 C   0  0  0  0  0  0  0  0  0  0  0  0
   -3.7004    0.1462    0.2199 C   0  0  0  0  0  0  0  0  0  0  0  0
   -0.3968   -1.3497    2.8827 C   0  0  0  0  0  0  0  0  0  0  0  0
    2.5474   -1.2238    0.5142 C   0  0  0  0  0  0  0  0  0  0  0  0
    4.6673    3.0868    0.7860 C   0  0  0  0  0  0  0  0  0  0  0  0
    4.3578    3.8670    1.4981 H   0  0  0  0  0  0  0  0  0  0  0  0
    6.0206    2.9591    0.4286 C   0  0  0  0  0  0  0  0  0  0  0  0
    6.7729    3.6340    0.8644 H   0  0  0  0  0  0  0  0  0  0  0  0
   -3.7779    2.8763    0.9765 C   0  0  0  0  0  0  0  0  0  0  0  0
   -3.8173    3.9385    1.2567 H   0  0  0  0  0  0  0  0  0  0  0  0
   -4.7427    0.9908   -0.2094 C   0  0  0  0  0  0  0  0  0  0  0  0
   -5.5367    0.5767   -0.8477 H   0  0  0  0  0  0  0  0  0  0  0  0
   -1.6093   -0.1061    1.5030 N   0  0  0  0  0  0  0  0  0  0  0  0
   -0.4672   -0.3985    0.8125 C   0  0  0  0  0  2  0  0  0  0  0  0
   -1.5975   -0.6809    2.7557 C   0  0  0  0  0  0  0  0  0  0  0  0
   -2.4479   -0.6070    3.4368 H   0  0  0  0  0  0  0  0  0  0  0  0
  1 50  1  0  0  0  0
  2 51  1  0  0  0  0
  3 48  1  0  0  0  0
  3 60  1  0  0  0  0
  4  1  1  0  0  0  0
  4 44  1  0  0  0  0
  5  6  1  0  0  0  0
  5 49  1  0  0  0  0
  5 28  1  0  0  0  0
  7 45  1  0  0  0  0
  7  2  1  0  0  0  0
  8  7  1  0  0  0  0
  9  7  1  0  0  0  0
 10 38  1  0  0  0  0
 11 10  1  0  0  0  0
 12  5  1  0  0  0  0
 13 12  1  0  0  0  0
 14 12  1  0  0  0  0
 15 12  1  0  0  0  0
 16 45  2  0  0  0  0
 16 42  1  0  0  0  0
 17 16  1  0  0  0  0
 18 19  1  0  0  0  0
 18 46  1  0  0  0  0
 18 21  1  0  0  0  0
 20 18  1  0  0  0  0
 22 23  1  0  0  0  0
 22 52  2  0  0  0  0
 24 51  1  0  0  0  0
 24 10  2  0  0  0  0
 25 24  1  0  0  0  0
 26 27  1  0  0  0  0
 28 29  1  0  0  0  0
 30 28  1  0  0  0  0
 31 28  1  0  0  0  0
 32 33  1  0  0  0  0
 32 35  1  0  0  0  0
 32 34  1  0  0  0  0
 36 26  2  0  0  0  0
 36 37  1  0  0  0  0
 38 44  2  0  0  0  0
 38 39  1  0  0  0  0
 40 56  1  0  0  0  0
 41 40  1  0  0  0  0
 42 54  2  0  0  0  0
 43 42  1  0  0  0  0
 44 36  1  0  0  0  0
 45 22  1  0  0  0  0
 46 32  1  0  0  0  0
 47 46  1  0  0  0  0
 48 46  1  0  0  0  0
 49  3  2  0  0  0  0
 50 26  1  0  0  0  0
 51  4  2  0  0  0  0
 52 53  1  0  0  0  0
 54 52  1  0  0  0  0
 54 55  1  0  0  0  0
 56 57  1  0  0  0  0
 56 48  2  0  0  0  0
 58 40  2  0  0  0  0
 58 49  1  0  0  0  0
 59 58  1  0  0  0  0
 60 62  1  0  0  0  0
 61 60  1  0  0  0  0
 61  1  1  0  0  0  0
 62 50  2  0  0  0  0
 62 63  1  0  0  0  0
M  END
