9
q = -1.0, confidence = 0.022

 74 74  0  0  0  0  0  0  0  0999 V2000
   -2.8494   -0.7260   -0.1356 P   0  0  0  0  0  0  0  0  0  0  0  0
    2.6906   -0.6731    0.2989 P   0  0  0  0  0  0  0  0  0  0  0  0
   -2.9819    2.3899    0.1373 Si  0  0  0  0  0  0  0  0  0  0  0  0
    2.9142    2.4032   -0.1072 Si  0  0  0  0  0  0  0  0  0  0  0  0
   -1.2277    2.1135   -0.4972 C   0  0  0  0  0  0  0  0  0  0  0  0
   -0.0282    2.4316    0.2045 C   0  0  0  0  0  0  0  0  0  0  0  0
    1.1160    2.1120   -0.5943 C   0  0  0  0  0  0  0  0  0  0  0  0
    0.6005    1.6248   -1.8431 C   0  0  0  0  0  0  0  0  0  0  0  0
   -0.8145    1.6096   -1.7819 C   0  0  0  0  0  3  0  0  0  0  0  0
   -3.9428    0.7799   -0.2153 C   0  0  0  0  0  0  0  0  0  0  0  0
    3.5008    0.8788    0.8834 C   0  0  0  0  0  0  0  0  0  0  0  0
   -3.7935    3.8029   -0.8240 C   0  0  0  0  0  0  0  0  0  0  0  0
   -2.9093    2.7886    1.9769 C   0  0  0  0  0  0  0  0  0  0  0  0
   -3.4946   -1.6832    1.3523 C   0  0  0  0  0  0  0  0  0  0  0  0
   -3.4588   -1.7478   -1.6023 C   0  0  0  0  0  0  0  0  0  0  0  0
   -3.3532   -0.8580    2.6347 C   0  0  0  0  0  0  0  0  0  0  0  0
   -4.9222   -2.2111    1.1804 C   0  0  0  0  0  0  0  0  0  0  0  0
   -2.8638   -3.1603   -1.5988 C   0  0  0  0  0  0  0  0  0  0  0  0
   -3.2310   -1.0469   -2.9463 C   0  0  0  0  0  0  0  0  0  0  0  0
    3.0136    3.9130    1.0225 C   0  0  0  0  0  0  0  0  0  0  0  0
    3.9138    2.6978   -1.6839 C   0  0  0  0  0  0  0  0  0  0  0  0
    3.1837   -2.0070    1.5341 C   0  0  0  0  0  0  0  0  0  0  0  0
    3.5477   -1.1310   -1.3200 C   0  0  0  0  0  0  0  0  0  0  0  0
    4.6946   -2.2512    1.6255 C   0  0  0  0  0  0  0  0  0  0  0  0
    2.5908   -1.7433    2.9219 C   0  0  0  0  0  0  0  0  0  0  0  0
    3.3219   -2.6171   -1.6358 C   0  0  0  0  0  0  0  0  0  0  0  0
    5.0201   -0.7283   -1.4583 C   0  0  0  0  0  0  0  0  0  0  0  0
    0.0117    2.8248    1.2256 H   0  0  0  0  0  0  0  0  0  0  0  0
    1.1982    1.2802   -2.6950 H   0  0  0  0  0  0  0  0  0  0  0  0
   -1.4781    1.2600   -2.5822 H   0  0  0  0  0  0  0  0  0  0  0  0
   -4.3522    0.8482   -1.2448 H   0  0  0  0  0  0  0  0  0  0  0  0
   -4.8159    0.6633    0.4604 H   0  0  0  0  0  0  0  0  0  0  0  0
    3.1091    1.0311    1.9129 H   0  0  0  0  0  0  0  0  0  0  0  0
    4.6055    0.7957    0.9512 H   0  0  0  0  0  0  0  0  0  0  0  0
   -3.8006    3.5899   -1.9126 H   0  0  0  0  0  0  0  0  0  0  0  0
   -4.8423    3.9588   -0.4968 H   0  0  0  0  0  0  0  0  0  0  0  0
   -3.2411    4.7517   -0.6675 H   0  0  0  0  0  0  0  0  0  0  0  0
   -2.4427    3.7826    2.1358 H   0  0  0  0  0  0  0  0  0  0  0  0
   -3.9255    2.8177    2.4204 H   0  0  0  0  0  0  0  0  0  0  0  0
   -2.3032    2.0366    2.5198 H   0  0  0  0  0  0  0  0  0  0  0  0
   -2.7783   -2.5309    1.4102 H   0  0  0  0  0  0  0  0  0  0  0  0
   -4.5558   -1.8070   -1.4247 H   0  0  0  0  0  0  0  0  0  0  0  0
   -4.0183    0.0306    2.6292 H   0  0  0  0  0  0  0  0  0  0  0  0
   -3.6441   -1.4786    3.5073 H   0  0  0  0  0  0  0  0  0  0  0  0
   -2.3120   -0.5183    2.7915 H   0  0  0  0  0  0  0  0  0  0  0  0
   -5.0218   -2.9351    0.3493 H   0  0  0  0  0  0  0  0  0  0  0  0
   -5.2337   -2.7330    2.1092 H   0  0  0  0  0  0  0  0  0  0  0  0
   -5.6515   -1.3903    1.0125 H   0  0  0  0  0  0  0  0  0  0  0  0
   -1.7667   -3.1255   -1.7449 H   0  0  0  0  0  0  0  0  0  0  0  0
   -3.0599   -3.7039   -0.6544 H   0  0  0  0  0  0  0  0  0  0  0  0
   -3.3075   -3.7494   -2.4286 H   0  0  0  0  0  0  0  0  0  0  0  0
   -2.1501   -0.9744   -3.1768 H   0  0  0  0  0  0  0  0  0  0  0  0
   -3.7102   -1.6377   -3.7543 H   0  0  0  0  0  0  0  0  0  0  0  0
   -3.6742   -0.0307   -2.9830 H   0  0  0  0  0  0  0  0  0  0  0  0
    2.6462    4.8222    0.5048 H   0  0  0  0  0  0  0  0  0  0  0  0
    2.3981    3.7625    1.9329 H   0  0  0  0  0  0  0  0  0  0  0  0
    4.0582    4.0990    1.3466 H   0  0  0  0  0  0  0  0  0  0  0  0
    4.9949    2.8191   -1.4685 H   0  0  0  0  0  0  0  0  0  0  0  0
    3.7993    1.8702   -2.4116 H   0  0  0  0  0  0  0  0  0  0  0  0
    3.5581    3.6274   -2.1738 H   0  0  0  0  0  0  0  0  0  0  0  0
    2.6784   -2.9053    1.1176 H   0  0  0  0  0  0  0  0  0  0  0  0
    2.9528   -0.5483   -2.0576 H   0  0  0  0  0  0  0  0  0  0  0  0
    5.2417   -1.3338    1.9273 H   0  0  0  0  0  0  0  0  0  0  0  0
    4.8957   -3.0180    2.4030 H   0  0  0  0  0  0  0  0  0  0  0  0
    5.1342   -2.6189    0.6802 H   0  0  0  0  0  0  0  0  0  0  0  0
    3.0126   -0.8250    3.3816 H   0  0  0  0  0  0  0  0  0  0  0  0
    1.4920   -1.6404    2.8878 H   0  0  0  0  0  0  0  0  0  0  0  0
    2.8453   -2.5919    3.5908 H   0  0  0  0  0  0  0  0  0  0  0  0
    3.9470   -3.2698   -0.9940 H   0  0  0  0  0  0  0  0  0  0  0  0
    2.2605   -2.9053   -1.5111 H   0  0  0  0  0  0  0  0  0  0  0  0
    3.6025   -2.8208   -2.6896 H   0  0  0  0  0  0  0  0  0  0  0  0
    5.1907    0.3471   -1.2669 H   0  0  0  0  0  0  0  0  0  0  0  0
    5.6794   -1.3009   -0.7786 H   0  0  0  0  0  0  0  0  0  0  0  0
    5.3597   -0.9348   -2.4953 H   0  0  0  0  0  0  0  0  0  0  0  0
  1 14  1  0  0  0  0
  2 11  1  0  0  0  0
  2 22  1  0  0  0  0
  3 13  1  0  0  0  0
  4 11  1  0  0  0  0
  4 20  1  0  0  0  0
  5  3  1  0  0  0  0
  5  6  2  0  0  0  0
  6 28  1  0  0  0  0
  7  4  1  0  0  0  0
  7  6  1  0  0  0  0
  8  9  1  0  0  0  0
  8  7  2  0  0  0  0
  9  5  1  0  0  0  0
 10  1  1  0  0  0  0
 10  3  1  0  0  0  0
 10 32  1  0  0  0  0
 11 34  1  0  0  0  0
 11 33  1  0  0  0  0
 12 37  1  0  0  0  0
 12 36  1  0  0  0  0
 12  3  1  0  0  0  0
 13 38  1  0  0  0  0
 13 39  1  0  0  0  0
 13 40  1  0  0  0  0
 14 41  1  0  0  0  0
 14 16  1  0  0  0  0
 15 18  1  0  0  0  0
 15 42  1  0  0  0  0
 15  1  1  0  0  0  0
 16 45  1  0  0  0  0
 16 44  1  0  0  0  0
 17 14  1  0  0  0  0
 17 47  1  0  0  0  0
 18 50  1  0  0  0  0
 19 15  1  0  0  0  0
 20 57  1  0  0  0  0
 20 56  1  0  0  0  0
 21 58  1  0  0  0  0
 21  4  1  0  0  0  0
 22 24  1  0  0  0  0
 22 25  1  0  0  0  0
 23  2  1  0  0  0  0
 24 63  1  0  0  0  0
 24 64  1  0  0  0  0
 25 66  1  0  0  0  0
 25 68  1  0  0  0  0
 26 70  1  0  0  0  0
 26 23  1  0  0  0  0
 26 69  1  0  0  0  0
 27 23  1  0  0  0  0
 27 72  1  0  0  0  0
 27 73  1  0  0  0  0
 29  8  1  0  0  0  0
 30  9  1  0  0  0  0
 31 10  1  0  0  0  0
 35 12  1  0  0  0  0
 43 16  1  0  0  0  0
 46 17  1  0  0  0  0
 48 17  1  0  0  0  0
 49 18  1  0  0  0  0
 51 18  1  0  0  0  0
 52 19  1  0  0  0  0
 53 19  1  0  0  0  0
 54 19  1  0  0  0  0
 55 20  1  0  0  0  0
 59 21  1  0  0  0  0
 60 21  1  0  0  0  0
 61 22  1  0  0  0  0
 62 23  1  0  0  0  0
 65 24  1  0  0  0  0
 67 25  1  0  0  0  0
 71 26  1  0  0  0  0
 74 27  1  0  0  0  0
M  END
