14
q = -1.0, confidence = 0.218

 44 46  0  0  1  0  0  0  0  0999 V2000
    2.8870   -0.0378    0.4564 C   0  0  2  0  0  0  0  0  0  0  0  0
    2.1149   -1.4023    0.7533 C   0  0  1  0  0  0  0  0  0  0  0  0
    1.9844   -1.6809    1.8066 H   0  0  0  0  0  0  0  0  0  0  0  0
    3.3145    0.8623    1.6209 C   0  0  0  0  0  0  0  0  0  0  0  0
    3.3459    0.2627    2.5514 H   0  0  0  0  0  0  0  0  0  0  0  0
    4.3562    1.1958    1.4471 H   0  0  0  0  0  0  0  0  0  0  0  0
    2.4643    2.1130    1.8201 C   0  0  0  0  0  0  0  0  0  0  0  0
    2.7538    2.6099    2.7762 H   0  0  0  0  0  0  0  0  0  0  0  0
    2.6452    2.8373    1.0001 H   0  0  0  0  0  0  0  0  0  0  0  0
    0.2458    3.0344    2.2126 C   0  0  0  0  0  0  0  0  0  0  0  0
    0.5644    3.4133    3.2101 H   0  0  0  0  0  0  0  0  0  0  0  0
   -0.8318    2.7928    2.2570 H   0  0  0  0  0  0  0  0  0  0  0  0
    0.4064    3.8316    1.4596 H   0  0  0  0  0  0  0  0  0  0  0  0
    0.6074    0.5622    2.4521 C   0  0  0  0  0  3  0  0  0  0  0  0
   -0.3605    0.6539    2.9697 H   0  0  0  0  0  0  0  0  0  0  0  0
    1.3676    0.1094    3.1114 H   0  0  0  0  0  0  0  0  0  0  0  0
   -0.1736   -2.9578   -0.1532 C   0  0  0  0  0  0  0  0  0  0  0  0
   -1.1209   -2.4481   -0.4130 H   0  0  0  0  0  0  0  0  0  0  0  0
   -0.2691   -3.3127    1.3383 C   0  0  0  0  0  0  0  0  0  0  0  0
   -1.1267   -3.9891    1.5380 H   0  0  0  0  0  0  0  0  0  0  0  0
   -0.4096   -2.4079    1.9671 H   0  0  0  0  0  0  0  0  0  0  0  0
    0.6461   -3.8331    1.6940 H   0  0  0  0  0  0  0  0  0  0  0  0
   -0.1199   -4.2319   -1.0097 C   0  0  0  0  0  0  0  0  0  0  0  0
   -0.9792   -4.8978   -0.7780 H   0  0  0  0  0  0  0  0  0  0  0  0
    0.8111   -4.8081   -0.8315 H   0  0  0  0  0  0  0  0  0  0  0  0
   -0.1555   -3.9993   -2.0919 H   0  0  0  0  0  0  0  0  0  0  0  0
    1.0066    1.8382    1.8437 N   0  0  0  0  0  0  0  0  0  0  0  0
    1.0483   -1.9126   -0.4669 B   0  0  0  0  0  2  0  0  0  0  0  0
    1.2673   -0.6225   -1.7192 B   0  0  0  0  0  2  0  0  0  0  0  0
    0.4198   -0.3299   -2.5419 H   0  0  0  0  0  0  0  0  0  0  0  0
    2.4210    0.5549   -1.0254 B   0  0  2  0  0  0  0  0  0  0  0  0
    2.4441    1.7621   -1.1576 H   0  0  0  0  0  0  0  0  0  0  0  0
    3.8057   -1.4761    0.3643 B   0  0  1  0  0  0  0  0  0  0  0  0
    4.5910   -1.7009    1.2535 H   0  0  0  0  0  0  0  0  0  0  0  0
    2.6613   -2.6572   -0.2631 B   0  0  2  0  0  0  0  0  0  0  0  0
    2.7188   -3.7791    0.1813 H   0  0  0  0  0  0  0  0  0  0  0  0
    2.1524   -2.1508   -1.8822 B   0  0  2  0  0  0  0  0  0  0  0  0
    1.8834   -2.9605   -2.7390 H   0  0  0  0  0  0  0  0  0  0  0  0
    2.9737   -0.6089   -2.2422 B   0  0  0  0  0  0  0  0  0  0  0  0
    3.2828   -0.2645   -3.3626 H   0  0  0  0  0  0  0  0  0  0  0  0
    3.9992   -0.2070   -0.8490 B   0  0  1  0  0  0  0  0  0  0  0  0
    5.0045    0.4647   -0.8138 H   0  0  0  0  0  0  0  0  0  0  0  0
    3.8410   -1.9005   -1.3562 B   0  0  0  0  0  2  0  0  0  0  0  0
    4.7769   -2.5253   -1.7996 H   0  0  0  0  0  0  0  0  0  0  0  0
  1  2  1  0  0  0  0
  1  4  1  1  0  0  0
  2  3  1  1  0  0  0
  4  7  1  0  0  0  0
  4  5  1  0  0  0  0
  6  4  1  0  0  0  0
  7 27  1  0  0  0  0
  7  8  1  0  0  0  0
  9  7  1  0  0  0  0
 10 12  1  0  0  0  0
 10 11  1  0  0  0  0
 13 10  1  0  0  0  0
 14 15  1  0  0  0  0
 14 16  1  0  0  0  0
 17 19  1  0  0  0  0
 18 17  1  0  0  0  0
 19 20  1  0  0  0  0
 19 22  1  0  0  0  0
 19 21  1  0  0  0  0
 23 25  1  0  0  0  0
 23 24  1  0  0  0  0
 23 17  1  0  0  0  0
 26 23  1  0  0  0  0
 27 10  1  0  0  0  0
 27 14  1  0  0  0  0
 28 17  1  0  0  0  0
 28  2  1  0  0  0  0
 30 29  1  0  0  0  0
 31 32  1  6  0  0  0
 31 41  1  0  0  0  0
 31  1  1  0  0  0  0
 33  1  1  0  0  0  0
 33 34  1  1  0  0  0
 35 36  1  1  0  0  0
 35 33  1  0  0  0  0
 35  2  1  0  0  0  0
 37 38  1  6  0  0  0
 37 29  1  0  0  0  0
 37 35  1  0  0  0  0
 39 37  1  0  0  0  0
 39 31  1  0  0  0  0
 40 39  1  0  0  0  0
 41 42  1  6  0  0  0
 41 33  1  0  0  0  0
 43 41  1  0  0  0  0
 44 43  1  0  0  0  0
M  END
