11
q = 0.0, confidence = 0.99

 35 36  0  0  1  0  0  0  0  0999 V2000
   -2.0675   -0.6129   -0.5328 N   0  0  0  0  0  2  0  0  0  0  0  0
   -3.2458    0.2503   -0.6562 C   0  0  2  0  0  0  0  0  0  0  0  0
   -3.0720    1.5544    0.1291 C   0  0  0  0  0  0  0  0  0  0  0  0
   -4.4909   -0.4960   -0.1787 C   0  0  0  0  0  0  0  0  0  0  0  0
   -5.7393   -0.2356   -0.7760 C   0  0  0  0  0  0  0  0  0  0  0  0
   -6.9040   -0.8653   -0.3117 C   0  0  0  0  0  0  0  0  0  0  0  0
   -6.8352   -1.7709    0.7588 C   0  0  0  0  0  0  0  0  0  0  0  0
   -5.5940   -2.0422    1.3568 C   0  0  0  0  0  0  0  0  0  0  0  0
   -4.4312   -1.4101    0.8915 C   0  0  0  0  0  0  0  0  0  0  0  0
   -1.8945   -1.4730   -1.5700 C   0  0  0  0  0  3  0  0  0  0  0  0
   -0.7271   -2.2951   -1.5409 C   0  0  0  0  0  3  0  0  0  0  0  0
    0.1065   -2.1768   -0.3832 C   0  0  0  0  0  3  0  0  0  0  0  0
    1.4027   -2.8482   -0.2147 C   0  0  0  0  0  0  0  0  0  0  0  0
    2.1684   -3.3440   -1.2992 C   0  0  0  0  0  0  0  0  0  0  0  0
    3.4246   -3.9268   -1.0867 C   0  0  0  0  0  0  0  0  0  0  0  0
    3.9512   -4.0319    0.2122 C   0  0  0  0  0  0  0  0  0  0  0  0
    3.1968   -3.5616    1.2999 C   0  0  0  0  0  0  0  0  0  0  0  0
    1.9388   -2.9839    1.0902 C   0  0  0  0  0  0  0  0  0  0  0  0
   -3.4233    0.5285   -1.7261 H   0  0  0  0  0  0  0  0  0  0  0  0
   -3.9894    2.1700    0.0554 H   0  0  0  0  0  0  0  0  0  0  0  0
   -2.8875    1.3477    1.2020 H   0  0  0  0  0  0  0  0  0  0  0  0
   -2.2225    2.1433   -0.2642 H   0  0  0  0  0  0  0  0  0  0  0  0
   -5.7956    0.4705   -1.6206 H   0  0  0  0  0  0  0  0  0  0  0  0
   -7.8707   -0.6525   -0.7938 H   0  0  0  0  0  0  0  0  0  0  0  0
   -7.7467   -2.2699    1.1217 H   0  0  0  0  0  0  0  0  0  0  0  0
   -5.5300   -2.7575    2.1914 H   0  0  0  0  0  0  0  0  0  0  0  0
   -3.4534   -1.6339    1.3437 H   0  0  0  0  0  0  0  0  0  0  0  0
   -2.6050   -1.5223   -2.4194 H   0  0  0  0  0  0  0  0  0  0  0  0
   -0.4916   -2.9413   -2.3994 H   0  0  0  0  0  0  0  0  0  0  0  0
   -0.4239   -1.9461    0.5535 H   0  0  0  0  0  0  0  0  0  0  0  0
    1.7898   -3.2493   -2.3272 H   0  0  0  0  0  0  0  0  0  0  0  0
    4.0028   -4.2972   -1.9472 H   0  0  0  0  0  0  0  0  0  0  0  0
    4.9419   -4.4828    0.3749 H   0  0  0  0  0  0  0  0  0  0  0  0
    3.5930   -3.6429    2.3238 H   0  0  0  0  0  0  0  0  0  0  0  0
    1.3558   -2.6136    1.9466 H   0  0  0  0  0  0  0  0  0  0  0  0
  2 19  1  6  0  0  0
  2  1  1  0  0  0  0
  2  4  1  0  0  0  0
  2  3  1  0  0  0  0
  3 21  1  0  0  0  0
  4  9  1  0  0  0  0
  5  6  1  0  0  0  0
  5  4  2  0  0  0  0
  6  7  2  0  0  0  0
  7 25  1  0  0  0  0
  7  8  1  0  0  0  0
  8 26  1  0  0  0  0
  9 27  1  0  0  0  0
  9  8  2  0  0  0  0
 10 11  1  0  0  0  0
 10  1  1  0  0  0  0
 11 12  1  0  0  0  0
 12 13  1  0  0  0  0
 12 30  1  0  0  0  0
 13 18  1  0  0  0  0
 14 15  1  0  0  0  0
 14 13  2  0  0  0  0
 15 16  2  0  0  0  0
 16 33  1  0  0  0  0
 16 17  1  0  0  0  0
 17 34  1  0  0  0  0
 18 17  2  0  0  0  0
 18 35  1  0  0  0  0
 20  3  1  0  0  0  0
 22  3  1  0  0  0  0
 23  5  1  0  0  0  0
 24  6  1  0  0  0  0
 28 10  1  0  0  0  0
 29 11  1  0  0  0  0
 31 14  1  0  0  0  0
 32 15  1  0  0  0  0
M  END
