1
q = -1.0

 16 15  0  0  0  0  0  0  0  0999 V2000
   -2.5863    1.4840   -1.3381 C   0  0  0  0  0  3  0  0  0  0  0  0
   -3.8322    1.7567    0.7178 O   0  0  0  0  0  0  0  0  0  0  0  0
   -4.3237    0.0345   -0.6862 O   0  0  0  0  0  0  0  0  0  0  0  0
   -3.6246    1.1499   -0.3237 C   0  0  0  0  0  0  0  0  0  0  0  0
   -5.2942   -0.4709    0.2682 C   0  0  0  0  0  0  0  0  0  0  0  0
   -6.6102    0.2846    0.1123 C   0  0  0  0  0  0  0  0  0  0  0  0
   -5.4096   -1.9661    0.0090 C   0  0  0  0  0  0  0  0  0  0  0  0
   -2.8167    1.0426   -2.3230 H   0  0  0  0  0  0  0  0  0  0  0  0
   -2.4563    2.5778   -1.4037 H   0  0  0  0  0  0  0  0  0  0  0  0
   -4.8867   -0.2752    1.2836 H   0  0  0  0  0  0  0  0  0  0  0  0
   -6.4630    1.3596    0.3298 H   0  0  0  0  0  0  0  0  0  0  0  0
   -7.0021    0.1740   -0.9195 H   0  0  0  0  0  0  0  0  0  0  0  0
   -7.3689   -0.1113    0.8173 H   0  0  0  0  0  0  0  0  0  0  0  0
   -6.1107   -2.4280    0.7325 H   0  0  0  0  0  0  0  0  0  0  0  0
   -5.7919   -2.1568   -1.0146 H   0  0  0  0  0  0  0  0  0  0  0  0
   -4.4231   -2.4590    0.1050 H   0  0  0  0  0  0  0  0  0  0  0  0
  1  4  1  0  0  0  0
  3  4  1  0  0  0  0
  3  5  1  0  0  0  0
  4  2  2  0  0  0  0
  5 10  1  0  0  0  0
  6  5  1  0  0  0  0
  6 11  1  0  0  0  0
  6 13  1  0  0  0  0
  7 16  1  0  0  0  0
  7  5  1  0  0  0  0
  7 14  1  0  0  0  0
  8  1  1  0  0  0  0
  9  1  1  0  0  0  0
 12  6  1  0  0  0  0
 15  7  1  0  0  0  0
M  END
