3
q = -1.0, confidence = 0.0

 34 35  0  0  1  0  0  0  0  0999 V2000
    6.2087   -0.9114   -0.0378 O   0  0  0  0  0  0  0  0  0  0  0  0
    2.9590    2.6523   -0.6902 N   0  0  0  0  0  0  0  0  0  0  0  0
   -0.6656   -1.1593    0.4753 C   0  0  0  0  0  3  0  0  0  0  0  0
   -0.2007   -0.3086   -0.5810 C   0  0  0  0  0  3  0  0  0  0  0  0
    0.7560    0.8334   -0.2595 C   0  0  1  0  0  0  0  0  0  0  0  0
    0.3655    1.5755    1.0461 C   0  0  0  0  0  0  0  0  0  0  0  0
   -0.0704    0.6312    2.1717 C   0  0  0  0  0  0  0  0  0  0  0  0
   -0.9786   -0.4926    1.7032 C   0  0  0  0  0  3  0  0  0  0  0  0
    2.2089    0.3640   -0.2273 C   0  0  0  0  0  0  0  0  0  0  0  0
    3.2468    1.3075   -0.4692 C   0  0  0  0  0  0  0  0  0  0  0  0
    4.5970    0.8875   -0.4154 C   0  0  0  0  0  0  0  0  0  0  0  0
    4.9256   -0.4416   -0.1085 C   0  0  0  0  0  0  0  0  0  0  0  0
    7.2694   -0.0142   -0.2845 C   0  0  0  0  0  0  0  0  0  0  0  0
    3.9129   -1.3978    0.1525 C   0  0  0  0  0  0  0  0  0  0  0  0
    4.2841   -2.8175    0.4851 C   0  0  0  0  0  0  0  0  0  0  0  0
    2.5836   -0.9575    0.0804 C   0  0  0  0  0  0  0  0  0  0  0  0
    3.6879    3.1898   -1.1607 H   0  0  0  0  0  0  0  0  0  0  0  0
    2.0244    2.8637   -1.0437 H   0  0  0  0  0  0  0  0  0  0  0  0
   -0.8082   -2.2429    0.3385 H   0  0  0  0  0  0  0  0  0  0  0  0
   -0.0224   -0.7863   -1.5600 H   0  0  0  0  0  0  0  0  0  0  0  0
    0.6689    1.5676   -1.0925 H   0  0  0  0  0  0  0  0  0  0  0  0
   -1.4217   -1.1076    2.5057 H   0  0  0  0  0  0  0  0  0  0  0  0
    5.3838    1.6306   -0.6061 H   0  0  0  0  0  0  0  0  0  0  0  0
    1.7915   -1.6959    0.2753 H   0  0  0  0  0  0  0  0  0  0  0  0
   -0.4641    2.2752    0.8241 H   0  0  0  0  0  0  0  0  0  0  0  0
    1.2205    2.1972    1.3790 H   0  0  0  0  0  0  0  0  0  0  0  0
   -0.5546    1.2145    2.9814 H   0  0  0  0  0  0  0  0  0  0  0  0
    0.8253    0.1488    2.6272 H   0  0  0  0  0  0  0  0  0  0  0  0
    8.2057   -0.5932   -0.1753 H   0  0  0  0  0  0  0  0  0  0  0  0
    7.2811    0.8294    0.4430 H   0  0  0  0  0  0  0  0  0  0  0  0
    7.2270    0.4102   -1.3137 H   0  0  0  0  0  0  0  0  0  0  0  0
    3.3809   -3.4330    0.6626 H   0  0  0  0  0  0  0  0  0  0  0  0
    4.9241   -2.8707    1.3912 H   0  0  0  0  0  0  0  0  0  0  0  0
    4.8715   -3.2890   -0.3312 H   0  0  0  0  0  0  0  0  0  0  0  0
  2 10  1  0  0  0  0
  3  8  1  0  0  0  0
  4  5  1  0  0  0  0
  4  3  1  0  0  0  0
  5 21  1  6  0  0  0
  5  9  1  0  0  0  0
  5  6  1  0  0  0  0
  6 26  1  0  0  0  0
  6  7  1  0  0  0  0
  7 28  1  0  0  0  0
  7 27  1  0  0  0  0
  8  7  1  0  0  0  0
  8 22  1  0  0  0  0
  9 16  1  0  0  0  0
 10 11  1  0  0  0  0
 10  9  2  0  0  0  0
 11 12  2  0  0  0  0
 12  1  1  0  0  0  0
 12 14  1  0  0  0  0
 13 29  1  0  0  0  0
 13  1  1  0  0  0  0
 13 30  1  0  0  0  0
 14 15  1  0  0  0  0
 15 32  1  0  0  0  0
 15 33  1  0  0  0  0
 16 14  2  0  0  0  0
 16 24  1  0  0  0  0
 17  2  1  0  0  0  0
 18  2  1  0  0  0  0
 19  3  1  0  0  0  0
 20  4  1  0  0  0  0
 23 11  1  0  0  0  0
 25  6  1  0  0  0  0
 31 13  1  0  0  0  0
 34 15  1  0  0  0  0
M  END
