3
q = -1.0

 24 25  0  0  0  0  0  0  0  0999 V2000
    6.6454   -1.8732    1.1633 F   0  0  0  0  0  0  0  0  0  0  0  0
    1.6499    2.0560    0.4872 C   0  0  0  0  0  3  0  0  0  0  0  0
    0.6045    2.9798    0.2230 C   0  0  0  0  0  3  0  0  0  0  0  0
   -0.3788    3.3483    1.2027 C   0  0  0  0  0  3  0  0  0  0  0  0
   -0.1115    3.5319    2.6227 C   0  0  0  0  0  0  0  0  0  0  0  0
    0.9792    3.1357    3.3611 C   0  0  0  0  0  0  0  0  0  0  0  0
    2.1105    2.3537    2.9606 C   0  0  0  0  0  0  0  0  0  0  0  0
    2.4002    1.8175    1.7167 C   0  0  0  0  0  0  0  0  0  0  0  0
    3.5563    0.8899    1.5860 C   0  0  0  0  0  0  0  0  0  0  0  0
    3.8099   -0.0826    2.5842 C   0  0  0  0  0  0  0  0  0  0  0  0
    4.8516   -1.0093    2.4521 C   0  0  0  0  0  0  0  0  0  0  0  0
    5.6548   -0.9719    1.3054 C   0  0  0  0  0  0  0  0  0  0  0  0
    5.4400   -0.0225    0.2992 C   0  0  0  0  0  0  0  0  0  0  0  0
    4.3950    0.8977    0.4452 C   0  0  0  0  0  0  0  0  0  0  0  0
    2.1850    1.7363   -0.4181 H   0  0  0  0  0  0  0  0  0  0  0  0
    0.4913    3.3738   -0.7972 H   0  0  0  0  0  0  0  0  0  0  0  0
   -1.2121    3.9467    0.8008 H   0  0  0  0  0  0  0  0  0  0  0  0
   -0.9008    4.0731    3.1697 H   0  0  0  0  0  0  0  0  0  0  0  0
    0.9681    3.4257    4.4244 H   0  0  0  0  0  0  0  0  0  0  0  0
    2.8359    2.1341    3.7597 H   0  0  0  0  0  0  0  0  0  0  0  0
    3.1373   -0.1445    3.4510 H   0  0  0  0  0  0  0  0  0  0  0  0
    5.0396   -1.7757    3.2180 H   0  0  0  0  0  0  0  0  0  0  0  0
    6.0911   -0.0145   -0.5866 H   0  0  0  0  0  0  0  0  0  0  0  0
    4.2387    1.6441   -0.3470 H   0  0  0  0  0  0  0  0  0  0  0  0
  1 12  1  0  0  0  0
  2  8  1  0  0  0  0
  3  2  1  0  0  0  0
  3  4  1  0  0  0  0
  4  5  1  0  0  0  0
  5 18  1  0  0  0  0
  5  6  2  0  0  0  0
  6 19  1  0  0  0  0
  7  6  1  0  0  0  0
  7 20  1  0  0  0  0
  8  7  2  0  0  0  0
  9  8  1  0  0  0  0
  9 10  1  0  0  0  0
 10 21  1  0  0  0  0
 11 10  2  0  0  0  0
 11 22  1  0  0  0  0
 12 11  1  0  0  0  0
 13 14  1  0  0  0  0
 13 12  2  0  0  0  0
 14  9  2  0  0  0  0
 15  2  1  0  0  0  0
 16  3  1  0  0  0  0
 17  4  1  0  0  0  0
 23 13  1  0  0  0  0
 24 14  1  0  0  0  0
M  END
