4
q = 0.0, confidence = 1.0

 37 39  0  0  0  0  0  0  0  0999 V2000
    0.6171   -2.7689   -1.2374 N   0  0  0  0  0  0  0  0  0  0  0  0
   -1.5228   -2.4015   -1.1457 N   0  0  0  0  0  0  0  0  0  0  0  0
    6.3637   -0.6527    0.1554 N   0  0  0  0  0  0  0  0  0  0  0  0
   -0.3142   -1.8545   -0.8569 C   0  0  0  0  0  2  0  0  0  0  0  0
    4.2543   -0.9747    0.3853 N   0  0  0  0  0  0  0  0  0  0  0  0
    5.1670   -0.0395    0.3052 N   0  0  0  0  0  0  0  0  0  0  0  0
    4.8379   -2.2095    0.2880 C   0  0  0  0  0  0  0  0  0  0  0  0
    7.5636    0.1084    0.0317 C   0  0  0  0  0  0  0  0  0  0  0  0
    6.2077   -2.0119    0.1366 C   0  0  0  0  0  0  0  0  0  0  0  0
    7.0446   -2.7003   -0.0089 H   0  0  0  0  0  0  0  0  0  0  0  0
    8.7832   -0.4273    0.4805 C   0  0  0  0  0  0  0  0  0  0  0  0
    8.8152   -1.4171    0.9579 H   0  0  0  0  0  0  0  0  0  0  0  0
    2.0653   -2.6525   -1.0516 C   0  0  0  0  0  0  0  0  0  0  0  0
    2.3311   -1.5789   -1.0847 H   0  0  0  0  0  0  0  0  0  0  0  0
    2.5458   -3.1409   -1.9236 H   0  0  0  0  0  0  0  0  0  0  0  0
    4.0457   -3.4838    0.3513 C   0  0  0  0  0  0  0  0  0  0  0  0
    4.2764   -4.0090    1.3030 H   0  0  0  0  0  0  0  0  0  0  0  0
    4.3903   -4.1677   -0.4547 H   0  0  0  0  0  0  0  0  0  0  0  0
   -2.8136   -1.7893   -0.8485 C   0  0  0  0  0  0  0  0  0  0  0  0
   -3.1425   -2.0635    0.1724 H   0  0  0  0  0  0  0  0  0  0  0  0
   -3.5640   -2.1333   -1.5810 H   0  0  0  0  0  0  0  0  0  0  0  0
   -2.7428   -0.6880   -0.9063 H   0  0  0  0  0  0  0  0  0  0  0  0
   -0.0066   -3.8938   -1.7578 C   0  0  0  0  0  0  0  0  0  0  0  0
    0.5594   -4.7504   -2.1351 H   0  0  0  0  0  0  0  0  0  0  0  0
    9.9111    1.6083   -0.2323 C   0  0  0  0  0  0  0  0  0  0  0  0
   10.8341    2.1969   -0.3384 H   0  0  0  0  0  0  0  0  0  0  0  0
   -1.3565   -3.6602   -1.7014 C   0  0  0  0  0  0  0  0  0  0  0  0
   -2.2061   -4.2719   -2.0183 H   0  0  0  0  0  0  0  0  0  0  0  0
    9.9564    0.3267    0.3382 C   0  0  0  0  0  0  0  0  0  0  0  0
   10.9123   -0.0894    0.6888 H   0  0  0  0  0  0  0  0  0  0  0  0
    2.5269   -3.2919    0.2640 C   0  0  0  0  0  0  0  0  0  0  0  0
    2.0423   -4.2845    0.3715 H   0  0  0  0  0  0  0  0  0  0  0  0
    2.1680   -2.6687    1.1092 H   0  0  0  0  0  0  0  0  0  0  0  0
    7.5055    1.3908   -0.5417 C   0  0  0  0  0  0  0  0  0  0  0  0
    6.5388    1.7809   -0.8866 H   0  0  0  0  0  0  0  0  0  0  0  0
    8.6842    2.1374   -0.6653 C   0  0  0  0  0  0  0  0  0  0  0  0
    8.6444    3.1402   -1.1158 H   0  0  0  0  0  0  0  0  0  0  0  0
  1 13  1  0  0  0  0
  1  4  1  0  0  0  0
  2  4  1  0  0  0  0
  2 19  1  0  0  0  0
  3  6  1  0  0  0  0
  6  5  2  0  0  0  0
  7 16  1  0  0  0  0
  7  5  1  0  0  0  0
  8  3  1  0  0  0  0
  8 11  1  0  0  0  0
  9  3  1  0  0  0  0
  9  7  2  0  0  0  0
 10  9  1  0  0  0  0
 11 12  1  0  0  0  0
 13 31  1  0  0  0  0
 14 13  1  0  0  0  0
 15 13  1  0  0  0  0
 16 17  1  0  0  0  0
 18 16  1  0  0  0  0
 19 20  1  0  0  0  0
 21 19  1  0  0  0  0
 22 19  1  0  0  0  0
 23 27  2  0  0  0  0
 23  1  1  0  0  0  0
 24 23  1  0  0  0  0
 25 29  1  0  0  0  0
 26 25  1  0  0  0  0
 27  2  1  0  0  0  0
 28 27  1  0  0  0  0
 29 11  2  0  0  0  0
 29 30  1  0  0  0  0
 31 16  1  0  0  0  0
 31 32  1  0  0  0  0
 31 33  1  0  0  0  0
 34  8  2  0  0  0  0
 35 34  1  0  0  0  0
 36 34  1  0  0  0  0
 36 25  2  0  0  0  0
 37 36  1  0  0  0  0
M  END
