2
q = 0.0, confidence = 0.904

 23 23  0  0  0  0  0  0  0  0999 V2000
   -2.3115   -1.9987   -0.3239 N   0  0  0  0  0  0  0  0  0  0  0  0
   -0.9719   -1.7935   -0.1454 C   0  0  0  0  0  2  0  0  0  0  0  0
   -4.8042    0.7207    0.8113 C   0  0  0  0  0  0  0  0  0  0  0  0
   -5.7486    0.2227    0.4969 H   0  0  0  0  0  0  0  0  0  0  0  0
   -5.0098    1.1409    1.8190 H   0  0  0  0  0  0  0  0  0  0  0  0
   -0.4343   -3.0458   -0.0538 N   0  0  0  0  0  0  0  0  0  0  0  0
   -4.5225    1.8100   -0.1221 C   0  0  0  0  0  0  0  0  0  0  0  0
   -3.3108   -0.9334   -0.4315 C   0  0  0  0  0  0  0  0  0  0  0  0
   -4.2025   -1.3680   -0.9255 H   0  0  0  0  0  0  0  0  0  0  0  0
   -2.9114   -0.1531   -1.1091 H   0  0  0  0  0  0  0  0  0  0  0  0
   -1.4176   -4.0159   -0.1670 C   0  0  0  0  0  0  0  0  0  0  0  0
   -1.1939   -5.0862   -0.1285 H   0  0  0  0  0  0  0  0  0  0  0  0
    0.9831   -3.3382    0.1189 C   0  0  0  0  0  0  0  0  0  0  0  0
    1.3726   -3.8948   -0.7553 H   0  0  0  0  0  0  0  0  0  0  0  0
    1.1392   -3.9404    1.0346 H   0  0  0  0  0  0  0  0  0  0  0  0
    1.5401   -2.3902    0.2155 H   0  0  0  0  0  0  0  0  0  0  0  0
   -3.6791   -0.3268    0.9245 C   0  0  0  0  0  0  0  0  0  0  0  0
   -2.7711    0.1351    1.3679 H   0  0  0  0  0  0  0  0  0  0  0  0
   -4.0046   -1.1290    1.6183 H   0  0  0  0  0  0  0  0  0  0  0  0
   -4.3011    2.7027   -0.9287 C   0  0  0  0  0  0  0  0  0  0  0  0
   -4.1467    3.4999   -1.6433 H   0  0  0  0  0  0  0  0  0  0  0  0
   -2.6063   -3.3526   -0.3335 C   0  0  0  0  0  0  0  0  0  0  0  0
   -3.6245   -3.7307   -0.4666 H   0  0  0  0  0  0  0  0  0  0  0  0
  1  2  1  0  0  0  0
  2  6  1  0  0  0  0
  3 17  1  0  0  0  0
  3  5  1  0  0  0  0
  4  3  1  0  0  0  0
  6 13  1  0  0  0  0
  7  3  1  0  0  0  0
  8  1  1  0  0  0  0
  8 17  1  0  0  0  0
  9  8  1  0  0  0  0
 10  8  1  0  0  0  0
 11 12  1  0  0  0  0
 11  6  1  0  0  0  0
 13 16  1  0  0  0  0
 13 15  1  0  0  0  0
 14 13  1  0  0  0  0
 17 18  1  0  0  0  0
 17 19  1  0  0  0  0
 20  7  3  0  0  0  0
 21 20  1  0  0  0  0
 22  1  1  0  0  0  0
 22 11  2  0  0  0  0
 23 22  1  0  0  0  0
M  END
