17
q = -1.0, confidence = 0.0

 27 30  0  0  1  0  0  0  0  0999 V2000
    0.3413    2.3916   -1.7100 O   0  0  0  0  0  0  0  0  0  0  0  0
    3.0477    2.4145   -0.5312 C   0  0  0  0  0  0  0  0  0  0  0  0
    2.3074    3.1213   -0.9223 H   0  0  0  0  0  0  0  0  0  0  0  0
    4.2818    2.8547    0.0082 C   0  0  0  0  0  0  0  0  0  0  0  0
    4.4871    3.9356    0.0372 H   0  0  0  0  0  0  0  0  0  0  0  0
    5.2284    1.9602    0.4889 C   0  0  0  0  0  0  0  0  0  0  0  0
    6.1839    2.3211    0.8985 H   0  0  0  0  0  0  0  0  0  0  0  0
    5.9108   -0.4137    0.9317 C   0  0  0  0  0  0  0  0  0  0  0  0
    6.8710   -0.0667    1.3428 H   0  0  0  0  0  0  0  0  0  0  0  0
    5.6146   -1.7712    0.8773 C   0  0  0  0  0  0  0  0  0  0  0  0
    6.3472   -2.5048    1.2468 H   0  0  0  0  0  0  0  0  0  0  0  0
    4.3811   -2.2268    0.3582 C   0  0  0  0  0  0  0  0  0  0  0  0
    4.1314   -3.2965    0.3190 H   0  0  0  0  0  0  0  0  0  0  0  0
    2.2092   -1.7800   -0.5941 N   0  0  0  0  0  0  0  0  0  0  0  0
   -0.0015   -1.1598   -1.5115 C   0  0  0  0  0  3  0  0  0  0  0  0
   -0.3062   -2.1497   -1.8720 H   0  0  0  0  0  0  0  0  0  0  0  0
   -0.5437    0.1064   -1.9261 C   0  0  2  0  0  3  0  0  0  0  0  0
    0.4627    1.1782   -1.6047 C   0  0  0  0  0  0  0  0  0  0  0  0
   -1.9207    0.3265   -2.2009 C   0  0  0  0  0  3  0  0  0  0  0  0
   -2.4990   -0.4375   -2.7397 H   0  0  0  0  0  0  0  0  0  0  0  0
   -2.2495    1.3741   -2.2965 H   0  0  0  0  0  0  0  0  0  0  0  0
    1.5940    0.4933   -1.1009 N   0  0  0  0  0  0  0  0  0  0  0  0
    2.7801    1.0434   -0.5756 C   0  0  0  0  0  0  0  0  0  0  0  0
    4.9784    0.5566    0.4562 C   0  0  0  0  0  0  0  0  0  0  0  0
    3.4334   -1.3135   -0.1192 C   0  0  0  0  0  0  0  0  0  0  0  0
    1.3584   -0.9070   -1.0340 C   0  0  0  0  0  0  0  0  0  0  0  0
    3.7298    0.0935   -0.0818 C   0  0  0  0  0  0  0  0  0  0  0  0
  1 18  2  0  0  0  0
  2  4  1  0  0  0  0
  3  2  1  0  0  0  0
  4  5  1  0  0  0  0
  4  6  2  0  0  0  0
  6  7  1  0  0  0  0
  8  9  1  0  0  0  0
 10  8  1  0  0  0  0
 10 11  1  0  0  0  0
 12 10  2  0  0  0  0
 13 12  1  0  0  0  0
 14 25  1  0  0  0  0
 15 26  1  0  0  0  0
 16 15  1  0  0  0  0
 17 19  1  1  0  0  0
 17 18  1  0  0  0  0
 17 15  1  0  0  0  0
 18 22  1  0  0  0  0
 20 19  1  0  0  0  0
 21 19  1  0  0  0  0
 22 26  1  0  0  0  0
 22 23  1  0  0  0  0
 23  2  2  0  0  0  0
 23 27  1  0  0  0  0
 24  6  1  0  0  0  0
 24  8  2  0  0  0  0
 25 27  2  0  0  0  0
 25 12  1  0  0  0  0
 26 14  2  0  0  0  0
 27 24  1  0  0  0  0
M  END
