2
q = -1.0, confidence = 0.0

 25 26  0  0  1  0  0  0  0  0999 V2000
    1.3666    1.7955   -1.3420 C   0  0  0  0  0  3  0  0  0  0  0  0
    0.0704    1.2812   -1.0907 C   0  0  1  0  0  3  0  0  0  0  0  0
   -0.2628   -0.0281   -1.5207 C   0  0  0  0  0  3  0  0  0  0  0  0
   -1.6487   -0.5388   -1.2515 C   0  0  0  0  0  0  0  0  0  0  0  0
   -2.2769    0.0591    0.0118 C   0  0  2  0  0  0  0  0  0  0  0  0
   -0.8880    2.0840   -0.2207 C   0  0  0  0  0  0  0  0  0  0  0  0
   -3.7620   -0.1993    0.0900 C   0  0  0  0  0  0  0  0  0  0  0  0
   -4.6629    0.5637   -0.6776 C   0  0  0  0  0  0  0  0  0  0  0  0
   -6.0347    0.2790   -0.6366 C   0  0  0  0  0  0  0  0  0  0  0  0
   -6.5138   -0.7728    0.1618 C   0  0  0  0  0  0  0  0  0  0  0  0
   -5.6190   -1.5341    0.9291 C   0  0  0  0  0  0  0  0  0  0  0  0
   -4.2467   -1.2436    0.8978 C   0  0  0  0  0  0  0  0  0  0  0  0
   -2.0601    1.5013    0.0931 O   0  0  0  0  0  0  0  0  0  0  0  0
   -0.6310    3.2212    0.1055 O   0  0  0  0  0  0  0  0  0  0  0  0
    1.5817    2.8089   -0.9709 H   0  0  0  0  0  0  0  0  0  0  0  0
    1.9194    1.4700   -2.2401 H   0  0  0  0  0  0  0  0  0  0  0  0
    0.2403   -0.4037   -2.4293 H   0  0  0  0  0  0  0  0  0  0  0  0
   -2.2764   -0.2774   -2.1350 H   0  0  0  0  0  0  0  0  0  0  0  0
   -1.6856   -1.6442   -1.1797 H   0  0  0  0  0  0  0  0  0  0  0  0
   -1.7951   -0.3849    0.9071 H   0  0  0  0  0  0  0  0  0  0  0  0
   -4.2917    1.4005   -1.2888 H   0  0  0  0  0  0  0  0  0  0  0  0
   -6.7363    0.8859   -1.2279 H   0  0  0  0  0  0  0  0  0  0  0  0
   -7.5911   -0.9935    0.1927 H   0  0  0  0  0  0  0  0  0  0  0  0
   -5.9920   -2.3499    1.5658 H   0  0  0  0  0  0  0  0  0  0  0  0
   -3.5475   -1.8300    1.5157 H   0  0  0  0  0  0  0  0  0  0  0  0
  1 15  1  0  0  0  0
  2  1  1  1  0  0  0
  2  6  1  0  0  0  0
  3  4  1  0  0  0  0
  3  2  1  0  0  0  0
  4 19  1  0  0  0  0
  4  5  1  0  0  0  0
  5  7  1  0  0  0  0
  5 13  1  0  0  0  0
  5 20  1  1  0  0  0
  6 13  1  0  0  0  0
  6 14  2  0  0  0  0
  7 12  1  0  0  0  0
  8  9  1  0  0  0  0
  8  7  2  0  0  0  0
  9 10  2  0  0  0  0
 10 23  1  0  0  0  0
 10 11  1  0  0  0  0
 11 24  1  0  0  0  0
 12 11  2  0  0  0  0
 12 25  1  0  0  0  0
 16  1  1  0  0  0  0
 17  3  1  0  0  0  0
 18  4  1  0  0  0  0
 21  8  1  0  0  0  0
 22  9  1  0  0  0  0
M  END
