3
q = 0.0, confidence = 0.708

 25 26  0  0  0  0  0  0  0  0999 V2000
    2.7316    0.3927    0.0461 N   0  0  0  0  0  0  0  0  0  0  0  0
    4.7977   -0.2367   -0.3326 N   0  0  0  0  0  0  0  0  0  0  0  0
   -0.5334    1.3400    1.7327 C   0  0  0  0  0  3  0  0  0  0  0  0
   -1.3648    2.1658    0.8952 C   0  0  0  0  0  3  0  0  0  0  0  0
   -0.9296    3.0507   -0.1556 C   0  0  0  0  0  0  0  0  0  0  0  0
    0.3141    3.1722   -0.7520 C   0  0  0  0  0  0  0  0  0  0  0  0
    1.4451    2.3191   -0.5975 C   0  0  0  0  0  0  0  0  0  0  0  0
    1.5629    1.2169    0.2354 C   0  0  0  0  0  0  0  0  0  0  0  0
    0.6589    0.7078    1.2501 C   0  0  0  0  0  3  0  0  0  0  0  0
    3.9944    0.8341   -0.1355 C   0  0  0  0  0  3  0  0  0  0  0  0
    2.7248   -0.9984   -0.0137 C   0  0  0  0  0  0  0  0  0  0  0  0
    4.0230   -1.3846   -0.2547 C   0  0  0  0  0  0  0  0  0  0  0  0
    6.2357   -0.1912   -0.5599 C   0  0  0  0  0  0  0  0  0  0  0  0
   -0.8691    1.1046    2.7561 H   0  0  0  0  0  0  0  0  0  0  0  0
   -2.3689    2.3736    1.2949 H   0  0  0  0  0  0  0  0  0  0  0  0
   -1.7164    3.7178   -0.5432 H   0  0  0  0  0  0  0  0  0  0  0  0
    0.4128    3.9475   -1.5272 H   0  0  0  0  0  0  0  0  0  0  0  0
    2.2678    2.4840   -1.3119 H   0  0  0  0  0  0  0  0  0  0  0  0
    1.0946   -0.0467    1.9235 H   0  0  0  0  0  0  0  0  0  0  0  0
    4.3150    1.8788   -0.0961 H   0  0  0  0  0  0  0  0  0  0  0  0
    1.7703   -1.5762    0.0641 H   0  0  0  0  0  0  0  0  0  0  0  0
    4.4509   -2.3821   -0.3929 H   0  0  0  0  0  0  0  0  0  0  0  0
    6.4826   -0.6749   -1.5248 H   0  0  0  0  0  0  0  0  0  0  0  0
    6.7690   -0.7146    0.2571 H   0  0  0  0  0  0  0  0  0  0  0  0
    6.5691    0.8612   -0.5912 H   0  0  0  0  0  0  0  0  0  0  0  0
  1  8  1  0  0  0  0
  2 12  1  0  0  0  0
  2 10  1  0  0  0  0
  3 14  1  0  0  0  0
  4 15  1  0  0  0  0
  4  3  1  0  0  0  0
  5  4  1  0  0  0  0
  6  7  1  0  0  0  0
  6  5  2  0  0  0  0
  7  8  2  0  0  0  0
  8  9  1  0  0  0  0
  9  3  1  0  0  0  0
  9 19  1  0  0  0  0
 10 20  1  0  0  0  0
 10  1  1  0  0  0  0
 11  1  1  0  0  0  0
 11 21  1  0  0  0  0
 12 11  2  0  0  0  0
 13  2  1  0  0  0  0
 13 24  1  0  0  0  0
 16  5  1  0  0  0  0
 17  6  1  0  0  0  0
 18  7  1  0  0  0  0
 22 12  1  0  0  0  0
 23 13  1  0  0  0  0
 25 13  1  0  0  0  0
M  END
