11
q = -1.0, confidence = 0.0

 24 24  0  0  0  0  0  0  0  0999 V2000
    1.8761   -0.0262    1.0158 N   0  0  0  0  0  0  0  0  0  0  0  0
    1.9413    0.9688    0.7873 H   0  0  0  0  0  0  0  0  0  0  0  0
    3.0221   -1.9322    1.5558 O   0  0  0  0  0  0  0  0  0  0  0  0
    0.2093    1.9039    1.9488 O   0  0  0  0  0  0  0  0  0  0  0  0
   -0.9199    0.3630    3.1747 O   0  0  0  0  0  0  0  0  0  0  0  0
   -1.5713    1.4447    3.8499 C   0  0  0  0  0  0  0  0  0  0  0  0
   -2.2347    0.9800    4.6009 H   0  0  0  0  0  0  0  0  0  0  0  0
   -2.1640    2.0591    3.1421 H   0  0  0  0  0  0  0  0  0  0  0  0
   -0.8295    2.1039    4.3438 H   0  0  0  0  0  0  0  0  0  0  0  0
   -0.0254    0.7301    2.2240 C   0  0  0  0  0  0  0  0  0  0  0  0
    0.6017   -0.4352    1.5258 C   0  0  0  0  0  3  0  0  0  0  0  0
    0.7196   -1.3263    2.1665 H   0  0  0  0  0  0  0  0  0  0  0  0
    3.0111   -0.7935    1.0795 C   0  0  0  0  0  0  0  0  0  0  0  0
    4.2577   -0.1646    0.5039 C   0  0  0  0  0  0  0  0  0  0  0  0
    4.2961    1.0876   -0.1455 C   0  0  0  0  0  0  0  0  0  0  0  0
    3.3838    1.6906   -0.2728 H   0  0  0  0  0  0  0  0  0  0  0  0
    5.5024    1.5864   -0.6584 C   0  0  0  0  0  0  0  0  0  0  0  0
    5.5186    2.5651   -1.1621 H   0  0  0  0  0  0  0  0  0  0  0  0
    6.6850    0.8401   -0.5309 C   0  0  0  0  0  0  0  0  0  0  0  0
    7.6308    1.2328   -0.9343 H   0  0  0  0  0  0  0  0  0  0  0  0
    6.6548   -0.4088    0.1114 C   0  0  0  0  0  0  0  0  0  0  0  0
    7.5786   -0.9987    0.2123 H   0  0  0  0  0  0  0  0  0  0  0  0
    5.4499   -0.9064    0.6228 C   0  0  0  0  0  0  0  0  0  0  0  0
    5.3888   -1.8826    1.1261 H   0  0  0  0  0  0  0  0  0  0  0  0
  1 13  1  0  0  0  0
  1 11  1  0  0  0  0
  2  1  1  0  0  0  0
  4 10  2  0  0  0  0
  5  6  1  0  0  0  0
  6  9  1  0  0  0  0
  6  7  1  0  0  0  0
  8  6  1  0  0  0  0
 10  5  1  0  0  0  0
 11 12  1  0  0  0  0
 11 10  1  0  0  0  0
 13  3  2  0  0  0  0
 14 23  1  0  0  0  0
 14 13  1  0  0  0  0
 15 14  2  0  0  0  0
 16 15  1  0  0  0  0
 17 19  2  0  0  0  0
 17 15  1  0  0  0  0
 18 17  1  0  0  0  0
 19 21  1  0  0  0  0
 20 19  1  0  0  0  0
 21 22  1  0  0  0  0
 21 23  2  0  0  0  0
 23 24  1  0  0  0  0
M  END
