3
q = -1.0

 31 31  0  0  1  0  0  0  0  0999 V2000
    4.2458    2.4714   -0.5021 C   0  0  0  0  0  0  0  0  0  0  0  0
    2.9804    1.9414    0.1102 C   0  0  0  0  0  3  0  0  0  0  0  0
    1.8654    1.5319   -0.6591 C   0  0  0  0  0  3  0  0  0  0  0  0
    0.7338    0.9711   -0.0084 C   0  0  0  0  0  3  0  0  0  0  0  0
   -0.3819    0.4290   -0.8543 C   0  0  0  0  0  0  0  0  0  0  0  0
   -2.6099   -0.6580   -0.7897 C   0  0  1  0  0  0  0  0  0  0  0  0
   -2.4593   -2.1824   -0.7509 C   0  0  0  0  0  0  0  0  0  0  0  0
   -3.9131   -0.1115   -0.2140 C   0  0  0  0  0  0  0  0  0  0  0  0
   -4.0963    1.2869   -0.1491 C   0  0  0  0  0  0  0  0  0  0  0  0
   -5.2789    1.8366    0.3612 C   0  0  0  0  0  0  0  0  0  0  0  0
   -6.3065    0.9954    0.8212 C   0  0  0  0  0  0  0  0  0  0  0  0
   -6.1367   -0.3946    0.7628 C   0  0  0  0  0  0  0  0  0  0  0  0
   -4.9492   -0.9436    0.2495 C   0  0  0  0  0  0  0  0  0  0  0  0
   -1.4753   -0.0006   -0.1455 N   0  0  0  0  0  0  0  0  0  0  0  0
   -0.3176    0.3781   -2.0850 O   0  0  0  0  0  0  0  0  0  0  0  0
   -2.5332   -0.3374   -1.8519 H   0  0  0  0  0  0  0  0  0  0  0  0
   -2.4967   -2.5698    0.2882 H   0  0  0  0  0  0  0  0  0  0  0  0
   -3.2595   -2.6796   -1.3339 H   0  0  0  0  0  0  0  0  0  0  0  0
   -1.4852   -2.4682   -1.1907 H   0  0  0  0  0  0  0  0  0  0  0  0
   -5.4026    2.9299    0.3986 H   0  0  0  0  0  0  0  0  0  0  0  0
   -3.2905    1.9477   -0.5050 H   0  0  0  0  0  0  0  0  0  0  0  0
   -4.8375   -2.0364    0.2120 H   0  0  0  0  0  0  0  0  0  0  0  0
   -6.9341   -1.0636    1.1210 H   0  0  0  0  0  0  0  0  0  0  0  0
   -7.2367    1.4245    1.2234 H   0  0  0  0  0  0  0  0  0  0  0  0
   -1.4401   -0.0002    0.8756 H   0  0  0  0  0  0  0  0  0  0  0  0
    4.4058    2.0811   -1.5260 H   0  0  0  0  0  0  0  0  0  0  0  0
    4.2034    3.5811   -0.5611 H   0  0  0  0  0  0  0  0  0  0  0  0
    5.1347    2.2163    0.1078 H   0  0  0  0  0  0  0  0  0  0  0  0
    0.4804    1.3019    1.0130 H   0  0  0  0  0  0  0  0  0  0  0  0
    1.9115    1.4565   -1.7587 H   0  0  0  0  0  0  0  0  0  0  0  0
    2.7859    2.2597    1.1488 H   0  0  0  0  0  0  0  0  0  0  0  0
  1 28  1  0  0  0  0
  1  2  1  0  0  0  0
  2 31  1  0  0  0  0
  3  4  1  0  0  0  0
  3  2  1  0  0  0  0
  4 29  1  0  0  0  0
  5 14  1  0  0  0  0
  5  4  1  0  0  0  0
  6 16  1  6  0  0  0
  6  7  1  0  0  0  0
  6  8  1  0  0  0  0
  6 14  1  0  0  0  0
  7 17  1  0  0  0  0
  8  9  2  0  0  0  0
  8 13  1  0  0  0  0
  9 10  1  0  0  0  0
 10 20  1  0  0  0  0
 10 11  2  0  0  0  0
 11 24  1  0  0  0  0
 12 11  1  0  0  0  0
 12 23  1  0  0  0  0
 13 12  2  0  0  0  0
 14 25  1  0  0  0  0
 15  5  2  0  0  0  0
 18  7  1  0  0  0  0
 19  7  1  0  0  0  0
 21  9  1  0  0  0  0
 22 13  1  0  0  0  0
 26  1  1  0  0  0  0
 27  1  1  0  0  0  0
 30  3  1  0  0  0  0
M  END
