12
q = 0.0, confidence = 0.964

 55 55  0  0  1  0  0  0  0  0999 V2000
    4.9411   -1.2885    2.1366 O   0  0  0  0  0  0  0  0  0  0  0  0
    5.8232   -0.9643    0.0660 O   0  0  0  0  0  0  0  0  0  0  0  0
   -0.7056   -0.3046   -2.1699 O   0  0  0  0  0  0  0  0  0  0  0  0
   -4.9201    0.1961    0.0366 O   0  0  0  0  0  0  0  0  0  0  0  0
   -3.7076    0.7486    1.8815 O   0  0  0  0  0  0  0  0  0  0  0  0
   -2.6974    2.9004   -0.4266 O   0  0  0  0  0  0  0  0  0  0  0  0
   -0.7142    2.0283    0.2492 O   0  0  0  0  0  0  0  0  0  0  0  0
    6.2567   -1.1356    2.6793 C   0  0  0  0  0  0  0  0  0  0  0  0
    4.8575   -1.1674    0.7858 C   0  0  0  0  0  0  0  0  0  0  0  0
    3.4525   -1.3055    0.3302 C   0  0  0  0  0  3  0  0  0  0  0  0
    3.2035   -1.4779   -1.0757 C   0  0  0  0  0  3  0  0  0  0  0  0
    1.8643   -1.3349   -1.5226 C   0  0  0  0  0  3  0  0  0  0  0  0
    0.8580   -1.0365   -0.5364 C   0  0  0  0  0  3  0  0  0  0  0  0
   -0.4893   -0.6123   -0.9968 C   0  0  0  0  0  0  0  0  0  0  0  0
   -1.6186   -0.6188    0.0390 C   0  0  1  0  0  0  0  0  0  0  0  0
   -2.5836    0.5455   -0.2575 C   0  0  0  0  0  0  0  0  0  0  0  0
   -3.7790    0.5237    0.6871 C   0  0  0  0  0  0  0  0  0  0  0  0
   -6.1076    0.0643    0.8542 C   0  0  0  0  0  0  0  0  0  0  0  0
   -6.1970   -1.3191    1.4779 C   0  0  0  0  0  0  0  0  0  0  0  0
   -1.8696    1.8872   -0.1064 C   0  0  0  0  0  0  0  0  0  0  0  0
   -2.1558    4.2387   -0.2924 C   0  0  0  0  0  0  0  0  0  0  0  0
   -2.2024    4.7147    1.1494 C   0  0  0  0  0  0  0  0  0  0  0  0
   -2.3501   -1.9862    0.0571 C   0  0  0  0  0  0  0  0  0  0  0  0
   -1.4873   -3.2314    0.3306 C   0  0  0  0  0  0  0  0  0  0  0  0
   -2.4733   -4.3791    0.0717 C   0  0  0  0  0  0  0  0  0  0  0  0
   -3.2956   -3.9109   -1.1577 C   0  0  0  0  0  0  0  0  0  0  0  0
   -3.1094   -2.3692   -1.2333 C   0  0  0  0  0  0  0  0  0  0  0  0
    6.6811   -0.1464    2.4125 H   0  0  0  0  0  0  0  0  0  0  0  0
    6.9393   -1.9180    2.2897 H   0  0  0  0  0  0  0  0  0  0  0  0
    6.1501   -1.2281    3.7747 H   0  0  0  0  0  0  0  0  0  0  0  0
    2.7666   -1.7259    1.0804 H   0  0  0  0  0  0  0  0  0  0  0  0
    4.0442   -1.5872   -1.7780 H   0  0  0  0  0  0  0  0  0  0  0  0
    1.6004   -1.3298   -2.5911 H   0  0  0  0  0  0  0  0  0  0  0  0
    0.8954   -1.5141    0.4540 H   0  0  0  0  0  0  0  0  0  0  0  0
   -1.1754   -0.4495    1.0419 H   0  0  0  0  0  0  0  0  0  0  0  0
   -2.9380    0.4757   -1.3040 H   0  0  0  0  0  0  0  0  0  0  0  0
   -6.0901    0.8520    1.6340 H   0  0  0  0  0  0  0  0  0  0  0  0
   -6.9464    0.2555    0.1574 H   0  0  0  0  0  0  0  0  0  0  0  0
   -7.1525   -1.4256    2.0299 H   0  0  0  0  0  0  0  0  0  0  0  0
   -6.1562   -2.1107    0.7029 H   0  0  0  0  0  0  0  0  0  0  0  0
   -5.3689   -1.4774    2.1959 H   0  0  0  0  0  0  0  0  0  0  0  0
   -2.7931    4.8579   -0.9525 H   0  0  0  0  0  0  0  0  0  0  0  0
   -1.1186    4.2374   -0.6848 H   0  0  0  0  0  0  0  0  0  0  0  0
   -1.8647    5.7690    1.2098 H   0  0  0  0  0  0  0  0  0  0  0  0
   -3.2324    4.6549    1.5533 H   0  0  0  0  0  0  0  0  0  0  0  0
   -1.5358    4.1011    1.7854 H   0  0  0  0  0  0  0  0  0  0  0  0
   -3.0878   -1.9296    0.8897 H   0  0  0  0  0  0  0  0  0  0  0  0
   -0.6498   -3.2846   -0.3987 H   0  0  0  0  0  0  0  0  0  0  0  0
   -1.0436   -3.2439    1.3475 H   0  0  0  0  0  0  0  0  0  0  0  0
   -1.9737   -5.3558   -0.0840 H   0  0  0  0  0  0  0  0  0  0  0  0
   -3.1373   -4.4951    0.9544 H   0  0  0  0  0  0  0  0  0  0  0  0
   -2.9287   -4.3932   -2.0860 H   0  0  0  0  0  0  0  0  0  0  0  0
   -4.3624   -4.1963   -1.0605 H   0  0  0  0  0  0  0  0  0  0  0  0
   -4.0670   -1.8215   -1.3206 H   0  0  0  0  0  0  0  0  0  0  0  0
   -2.4992   -2.0876   -2.1156 H   0  0  0  0  0  0  0  0  0  0  0  0
  1  8  1  0  0  0  0
  2  9  2  0  0  0  0
  3 14  2  0  0  0  0
  4 17  1  0  0  0  0
  4 18  1  0  0  0  0
  6 21  1  0  0  0  0
  6 20  1  0  0  0  0
  8 30  1  0  0  0  0
  9  1  1  0  0  0  0
 10  9  1  0  0  0  0
 10 31  1  0  0  0  0
 11 10  1  0  0  0  0
 12 11  1  0  0  0  0
 12 13  1  0  0  0  0
 13 34  1  0  0  0  0
 14 13  1  0  0  0  0
 14 15  1  0  0  0  0
 15 23  1  0  0  0  0
 15 35  1  1  0  0  0
 16 20  1  0  0  0  0
 16 15  1  0  0  0  0
 16 17  1  0  0  0  0
 17  5  2  0  0  0  0
 18 19  1  0  0  0  0
 18 37  1  0  0  0  0
 19 39  1  0  0  0  0
 19 41  1  0  0  0  0
 20  7  2  0  0  0  0
 21 22  1  0  0  0  0
 22 44  1  0  0  0  0
 22 45  1  0  0  0  0
 22 46  1  0  0  0  0
 23 24  1  0  0  0  0
 23 47  1  0  0  0  0
 24 49  1  0  0  0  0
 25 24  1  0  0  0  0
 25 51  1  0  0  0  0
 26 53  1  0  0  0  0
 26 25  1  0  0  0  0
 27 26  1  0  0  0  0
 27 23  1  0  0  0  0
 28  8  1  0  0  0  0
 29  8  1  0  0  0  0
 32 11  1  0  0  0  0
 33 12  1  0  0  0  0
 36 16  1  0  0  0  0
 38 18  1  0  0  0  0
 40 19  1  0  0  0  0
 42 21  1  0  0  0  0
 43 21  1  0  0  0  0
 48 24  1  0  0  0  0
 50 25  1  0  0  0  0
 52 26  1  0  0  0  0
 54 27  1  0  0  0  0
 55 27  1  0  0  0  0
M  END
