9
q = -1.0, confidence = 0.004

 41 43  0  0  0  0  0  0  0  0999 V2000
    0.6716    0.0201    0.0058 P   0  0  0  0  0  0  0  0  0  0  0  0
    0.6581   -1.2536   -1.3338 C   0  0  0  0  0  0  0  0  0  0  0  0
   -0.5541   -1.5690   -1.9943 C   0  0  0  0  0  0  0  0  0  0  0  0
   -0.5639   -2.6364   -2.9167 C   0  0  0  0  0  0  0  0  0  0  0  0
    0.6035   -3.3487   -3.2136 C   0  0  0  0  0  0  0  0  0  0  0  0
    1.8100   -3.0145   -2.5755 C   0  0  0  0  0  0  0  0  0  0  0  0
    1.8312   -1.9782   -1.6325 C   0  0  0  0  0  0  0  0  0  0  0  0
   -1.8738   -0.8316   -1.8127 C   0  0  0  0  0  0  0  0  0  0  0  0
   -1.8379    0.6115   -1.4727 C   0  0  0  0  0  3  0  0  0  0  0  0
   -2.9234   -1.4585   -2.0187 O   0  0  0  0  0  0  0  0  0  0  0  0
   -3.1164    1.3633   -1.8111 C   0  0  0  0  0  0  0  0  0  0  0  0
    1.6804    1.3973   -0.6897 C   0  0  0  0  0  0  0  0  0  0  0  0
    1.9366    2.5278    0.1171 C   0  0  0  0  0  0  0  0  0  0  0  0
    2.6722    3.6079   -0.3891 C   0  0  0  0  0  0  0  0  0  0  0  0
    3.1419    3.5830   -1.7124 C   0  0  0  0  0  0  0  0  0  0  0  0
    2.8744    2.4716   -2.5251 C   0  0  0  0  0  0  0  0  0  0  0  0
    2.1510    1.3804   -2.0178 C   0  0  0  0  0  0  0  0  0  0  0  0
    1.7910   -0.7864    1.2432 C   0  0  0  0  0  0  0  0  0  0  0  0
    2.9470   -0.1725    1.7611 C   0  0  0  0  0  0  0  0  0  0  0  0
    3.7247   -0.8293    2.7298 C   0  0  0  0  0  0  0  0  0  0  0  0
    3.3624   -2.1049    3.1851 C   0  0  0  0  0  0  0  0  0  0  0  0
    2.2176   -2.7298    2.6614 C   0  0  0  0  0  0  0  0  0  0  0  0
    1.4375   -2.0759    1.6993 C   0  0  0  0  0  0  0  0  0  0  0  0
   -1.5273   -2.8836   -3.3872 H   0  0  0  0  0  0  0  0  0  0  0  0
    0.5743   -4.1732   -3.9424 H   0  0  0  0  0  0  0  0  0  0  0  0
    2.7314   -3.5745   -2.7964 H   0  0  0  0  0  0  0  0  0  0  0  0
    2.7648   -1.7423   -1.0987 H   0  0  0  0  0  0  0  0  0  0  0  0
   -0.9574    1.0930   -1.9471 H   0  0  0  0  0  0  0  0  0  0  0  0
   -3.0465    2.4271   -1.5131 H   0  0  0  0  0  0  0  0  0  0  0  0
   -3.9965    0.9195   -1.3083 H   0  0  0  0  0  0  0  0  0  0  0  0
   -3.3219    1.3239   -2.9042 H   0  0  0  0  0  0  0  0  0  0  0  0
    1.5445    2.5693    1.1440 H   0  0  0  0  0  0  0  0  0  0  0  0
    2.8651    4.4820    0.2509 H   0  0  0  0  0  0  0  0  0  0  0  0
    3.7095    4.4367   -2.1126 H   0  0  0  0  0  0  0  0  0  0  0  0
    3.2298    2.4499   -3.5666 H   0  0  0  0  0  0  0  0  0  0  0  0
    1.9480    0.5123   -2.6615 H   0  0  0  0  0  0  0  0  0  0  0  0
    3.2546    0.8192    1.4004 H   0  0  0  0  0  0  0  0  0  0  0  0
    4.6268   -0.3373    3.1245 H   0  0  0  0  0  0  0  0  0  0  0  0
    3.9747   -2.6175    3.9423 H   0  0  0  0  0  0  0  0  0  0  0  0
    1.9322   -3.7368    3.0021 H   0  0  0  0  0  0  0  0  0  0  0  0
    0.5515   -2.5776    1.2821 H   0  0  0  0  0  0  0  0  0  0  0  0
  1 18  1  0  0  0  0
  2  1  1  0  0  0  0
  3  8  1  0  0  0  0
  3  2  2  0  0  0  0
  4  3  1  0  0  0  0
  5  4  2  0  0  0  0
  5  6  1  0  0  0  0
  6  7  2  0  0  0  0
  7  2  1  0  0  0  0
  7 27  1  0  0  0  0
  8  9  1  0  0  0  0
 10  8  2  0  0  0  0
 11 29  1  0  0  0  0
 11  9  1  0  0  0  0
 11 30  1  0  0  0  0
 12  1  1  0  0  0  0
 12 13  1  0  0  0  0
 13 32  1  0  0  0  0
 14 13  2  0  0  0  0
 14 33  1  0  0  0  0
 15 14  1  0  0  0  0
 16 17  1  0  0  0  0
 16 15  2  0  0  0  0
 17 12  2  0  0  0  0
 18 23  2  0  0  0  0
 18 19  1  0  0  0  0
 19 20  2  0  0  0  0
 20 38  1  0  0  0  0
 20 21  1  0  0  0  0
 21 39  1  0  0  0  0
 22 40  1  0  0  0  0
 22 21  2  0  0  0  0
 23 22  1  0  0  0  0
 24  4  1  0  0  0  0
 25  5  1  0  0  0  0
 26  6  1  0  0  0  0
 28  9  1  0  0  0  0
 31 11  1  0  0  0  0
 34 15  1  0  0  0  0
 35 16  1  0  0  0  0
 36 17  1  0  0  0  0
 37 19  1  0  0  0  0
 41 23  1  0  0  0  0
M  END
