1
q = 0.0, confidence = 0.988

 50 50  0  0  1  0  0  0  0  0999 V2000
   -1.0295   -1.5916   -0.9993 C   0  0  0  0  0  3  0  0  0  0  0  0
   -0.8496   -2.0292    0.3708 C   0  0  0  0  0  3  0  0  0  0  0  0
    0.1260   -1.1614    1.0359 C   0  0  0  0  0  0  0  0  0  0  0  0
    0.3479    0.0610    0.0689 C   0  0  2  0  0  0  0  0  0  0  0  0
   -0.6810   -0.1785   -1.0237 C   0  0  0  0  0  3  0  0  0  0  0  0
    0.7177   -1.3003    2.1007 O   0  0  0  0  0  0  0  0  0  0  0  0
    2.0842    0.1102   -0.5081 P   0  0  0  0  0  4  0  0  0  0  0  0
    2.2454    1.4743   -1.7193 C   0  0  0  0  0  0  0  0  0  0  0  0
    1.7001    2.8174   -1.2179 C   0  0  0  0  0  0  0  0  0  0  0  0
    1.8049    3.9336   -2.2639 C   0  0  0  0  0  0  0  0  0  0  0  0
    1.2118    5.2545   -1.7745 C   0  0  0  0  0  0  0  0  0  0  0  0
    2.5530   -1.4344   -1.3631 C   0  0  0  0  0  0  0  0  0  0  0  0
    2.7974   -2.6540   -0.4630 C   0  0  0  0  0  0  0  0  0  0  0  0
    3.0985   -3.9174   -1.2782 C   0  0  0  0  0  0  0  0  0  0  0  0
    3.3565   -5.1398   -0.3979 C   0  0  0  0  0  0  0  0  0  0  0  0
    3.1595    0.4121    0.9311 C   0  0  0  0  0  0  0  0  0  0  0  0
    4.6631    0.4349    0.6339 C   0  0  0  0  0  0  0  0  0  0  0  0
    5.5010    0.6530    1.9006 C   0  0  0  0  0  0  0  0  0  0  0  0
    7.0038    0.6732    1.6251 C   0  0  0  0  0  0  0  0  0  0  0  0
   -1.2513   -2.2310   -1.8644 H   0  0  0  0  0  0  0  0  0  0  0  0
   -1.0480   -3.0421    0.7461 H   0  0  0  0  0  0  0  0  0  0  0  0
    0.2231    0.9916    0.6629 H   0  0  0  0  0  0  0  0  0  0  0  0
   -0.6288    0.3723   -1.9780 H   0  0  0  0  0  0  0  0  0  0  0  0
    3.3196    1.5464   -1.9945 H   0  0  0  0  0  0  0  0  0  0  0  0
    1.7078    1.1428   -2.6337 H   0  0  0  0  0  0  0  0  0  0  0  0
    2.2428    3.1250   -0.2969 H   0  0  0  0  0  0  0  0  0  0  0  0
    0.6356    2.6973   -0.9200 H   0  0  0  0  0  0  0  0  0  0  0  0
    2.8708    4.0784   -2.5446 H   0  0  0  0  0  0  0  0  0  0  0  0
    1.2894    3.6088   -3.1944 H   0  0  0  0  0  0  0  0  0  0  0  0
    1.2856    6.0451   -2.5463 H   0  0  0  0  0  0  0  0  0  0  0  0
    1.7343    5.6231   -0.8677 H   0  0  0  0  0  0  0  0  0  0  0  0
    0.1370    5.1413   -1.5166 H   0  0  0  0  0  0  0  0  0  0  0  0
    1.7296   -1.6296   -2.0845 H   0  0  0  0  0  0  0  0  0  0  0  0
    3.4548   -1.2002   -1.9696 H   0  0  0  0  0  0  0  0  0  0  0  0
    3.6449   -2.4480    0.2257 H   0  0  0  0  0  0  0  0  0  0  0  0
    1.9180   -2.8342    0.1881 H   0  0  0  0  0  0  0  0  0  0  0  0
    3.9761   -3.7301   -1.9359 H   0  0  0  0  0  0  0  0  0  0  0  0
    2.2446   -4.1169   -1.9629 H   0  0  0  0  0  0  0  0  0  0  0  0
    3.5650   -6.0398   -1.0085 H   0  0  0  0  0  0  0  0  0  0  0  0
    2.4813   -5.3651    0.2456 H   0  0  0  0  0  0  0  0  0  0  0  0
    4.2274   -4.9801    0.2707 H   0  0  0  0  0  0  0  0  0  0  0  0
    2.8184    1.3727    1.3741 H   0  0  0  0  0  0  0  0  0  0  0  0
    2.8690   -0.3697    1.6675 H   0  0  0  0  0  0  0  0  0  0  0  0
    4.9701   -0.5208    0.1554 H   0  0  0  0  0  0  0  0  0  0  0  0
    4.8970    1.2353   -0.1026 H   0  0  0  0  0  0  0  0  0  0  0  0
    5.2576   -0.1472    2.6331 H   0  0  0  0  0  0  0  0  0  0  0  0
    5.1890    1.6064    2.3810 H   0  0  0  0  0  0  0  0  0  0  0  0
    7.5812    0.8306    2.5569 H   0  0  0  0  0  0  0  0  0  0  0  0
    7.2772    1.4869    0.9218 H   0  0  0  0  0  0  0  0  0  0  0  0
    7.3466   -0.2830    1.1785 H   0  0  0  0  0  0  0  0  0  0  0  0
  1  2  1  0  0  0  0
  2 21  1  0  0  0  0
  2  3  1  0  0  0  0
  3  6  2  0  0  0  0
  4 22  1  1  0  0  0
  4  3  1  0  0  0  0
  5  1  1  0  0  0  0
  5  4  1  0  0  0  0
  7  4  1  0  0  0  0
  7 16  1  0  0  0  0
  8  9  1  0  0  0  0
  8  7  1  0  0  0  0
  9 27  1  0  0  0  0
  9 26  1  0  0  0  0
 10 11  1  0  0  0  0
 10  9  1  0  0  0  0
 11 32  1  0  0  0  0
 11 31  1  0  0  0  0
 12  7  1  0  0  0  0
 12 13  1  0  0  0  0
 13 36  1  0  0  0  0
 13 35  1  0  0  0  0
 14 13  1  0  0  0  0
 14 15  1  0  0  0  0
 15 40  1  0  0  0  0
 15 41  1  0  0  0  0
 16 42  1  0  0  0  0
 16 43  1  0  0  0  0
 17 16  1  0  0  0  0
 17 18  1  0  0  0  0
 18 47  1  0  0  0  0
 18 46  1  0  0  0  0
 19 18  1  0  0  0  0
 19 48  1  0  0  0  0
 20  1  1  0  0  0  0
 23  5  1  0  0  0  0
 24  8  1  0  0  0  0
 25  8  1  0  0  0  0
 28 10  1  0  0  0  0
 29 10  1  0  0  0  0
 30 11  1  0  0  0  0
 33 12  1  0  0  0  0
 34 12  1  0  0  0  0
 37 14  1  0  0  0  0
 38 14  1  0  0  0  0
 39 15  1  0  0  0  0
 44 17  1  0  0  0  0
 45 17  1  0  0  0  0
 49 19  1  0  0  0  0
 50 19  1  0  0  0  0
M  END
