2
q = -1.0, confidence = 0.026

 19 19  0  0  1  0  0  0  0  0999 V2000
   -2.2449    2.4828   -0.1314 O   0  0  0  0  0  0  0  0  0  0  0  0
   -1.8446    0.5572    1.3083 C   0  0  0  0  0  3  0  0  0  0  0  0
   -3.6839    0.6391   -0.4775 C   0  0  0  0  0  0  0  0  0  0  0  0
   -2.0820   -0.8638    1.4501 C   0  0  0  0  0  3  0  0  0  0  0  0
   -2.4209    1.1624    0.1662 C   0  0  1  0  0  3  0  0  0  0  0  0
   -3.9291   -0.8658   -0.2984 C   0  0  0  0  0  0  0  0  0  0  0  0
   -3.4514   -1.3966    1.0553 C   0  0  0  0  0  0  0  0  0  0  0  0
   -1.5082    3.2946    0.7757 C   0  0  0  0  0  0  0  0  0  0  0  0
   -1.3044    1.1318    2.0728 H   0  0  0  0  0  0  0  0  0  0  0  0
   -3.6907    0.9096   -1.5535 H   0  0  0  0  0  0  0  0  0  0  0  0
   -4.5085    1.2264   -0.0095 H   0  0  0  0  0  0  0  0  0  0  0  0
   -1.6976   -1.3135    2.3805 H   0  0  0  0  0  0  0  0  0  0  0  0
   -3.4081   -1.4196   -1.1019 H   0  0  0  0  0  0  0  0  0  0  0  0
   -5.0098   -1.0772   -0.4311 H   0  0  0  0  0  0  0  0  0  0  0  0
   -4.1606   -1.0942    1.8608 H   0  0  0  0  0  0  0  0  0  0  0  0
   -3.4476   -2.5055    1.0461 H   0  0  0  0  0  0  0  0  0  0  0  0
   -1.4208    4.2893    0.3020 H   0  0  0  0  0  0  0  0  0  0  0  0
   -2.0461    3.3922    1.7442 H   0  0  0  0  0  0  0  0  0  0  0  0
   -0.4896    2.8942    0.9597 H   0  0  0  0  0  0  0  0  0  0  0  0
  1  8  1  0  0  0  0
  2  4  1  0  0  0  0
  2  9  1  0  0  0  0
  3  6  1  0  0  0  0
  3 11  1  0  0  0  0
  3  5  1  0  0  0  0
  4 12  1  0  0  0  0
  5  1  1  1  0  0  0
  5  2  1  0  0  0  0
  6  7  1  0  0  0  0
  7  4  1  0  0  0  0
  7 15  1  0  0  0  0
  8 19  1  0  0  0  0
  8 18  1  0  0  0  0
 10  3  1  0  0  0  0
 13  6  1  0  0  0  0
 14  6  1  0  0  0  0
 16  7  1  0  0  0  0
 17  8  1  0  0  0  0
M  END
