4
q = -1.0, confidence = 0.0

 39 41  0  0  1  0  0  0  0  0999 V2000
   -1.9327   -1.9182    1.0530 S   0  0  0  0  0  0  0  0  0  0  0  0
   -0.0785    2.2205   -0.3538 S   0  0  0  0  0  0  0  0  0  0  0  0
    1.1676    0.6264    1.6616 C   0  0  0  0  0  3  0  0  0  0  0  0
    0.4626    0.6802    0.4085 C   0  0  2  0  0  3  0  0  0  0  0  0
    0.2226   -0.6038   -0.2009 C   0  0  0  0  0  3  0  0  0  0  0  0
   -0.1062   -1.7962    0.6615 C   0  0  1  0  0  0  0  0  0  0  0  0
    0.6142   -1.8403    2.0185 C   0  0  0  0  0  0  0  0  0  0  0  0
    0.8048   -0.4606    2.6590 C   0  0  0  0  0  0  0  0  0  0  0  0
   -2.7603   -1.6915   -0.5350 C   0  0  0  0  0  0  0  0  0  0  0  0
   -2.7753   -2.7558   -1.4503 C   0  0  0  0  0  0  0  0  0  0  0  0
   -3.3968   -2.5640   -2.6927 C   0  0  0  0  0  0  0  0  0  0  0  0
   -4.0011   -1.3309   -2.9956 C   0  0  0  0  0  0  0  0  0  0  0  0
   -3.9947   -0.2864   -2.0568 C   0  0  0  0  0  0  0  0  0  0  0  0
   -3.3710   -0.4615   -0.8122 C   0  0  0  0  0  0  0  0  0  0  0  0
   -1.7403    2.4580    0.2637 C   0  0  0  0  0  0  0  0  0  0  0  0
   -2.1249    2.1557    1.5824 C   0  0  0  0  0  0  0  0  0  0  0  0
   -3.4480    2.3805    1.9882 C   0  0  0  0  0  0  0  0  0  0  0  0
   -4.3817    2.9408    1.1017 C   0  0  0  0  0  0  0  0  0  0  0  0
   -3.9875    3.2714   -0.2059 C   0  0  0  0  0  0  0  0  0  0  0  0
   -2.6753    3.0196   -0.6316 C   0  0  0  0  0  0  0  0  0  0  0  0
   -2.1616   -3.3202    1.4904 O   0  0  0  0  0  0  0  0  0  0  0  0
   -2.3077   -0.7785    1.9343 O   0  0  0  0  0  0  0  0  0  0  0  0
    1.4469    1.6010    2.0976 H   0  0  0  0  0  0  0  0  0  0  0  0
   -0.2423   -0.5948   -1.2008 H   0  0  0  0  0  0  0  0  0  0  0  0
    0.0517   -2.7467    0.1128 H   0  0  0  0  0  0  0  0  0  0  0  0
    1.6012   -2.3130    1.8490 H   0  0  0  0  0  0  0  0  0  0  0  0
    0.0643   -2.5212    2.6995 H   0  0  0  0  0  0  0  0  0  0  0  0
    1.5714   -0.5254    3.4570 H   0  0  0  0  0  0  0  0  0  0  0  0
   -0.1450   -0.1499    3.1466 H   0  0  0  0  0  0  0  0  0  0  0  0
   -2.3216   -3.7200   -1.1773 H   0  0  0  0  0  0  0  0  0  0  0  0
   -3.4193   -3.3849   -3.4252 H   0  0  0  0  0  0  0  0  0  0  0  0
   -4.4894   -1.1878   -3.9716 H   0  0  0  0  0  0  0  0  0  0  0  0
   -4.4769    0.6754   -2.2876 H   0  0  0  0  0  0  0  0  0  0  0  0
   -3.3578    0.3346   -0.0558 H   0  0  0  0  0  0  0  0  0  0  0  0
   -1.4032    1.7143    2.2811 H   0  0  0  0  0  0  0  0  0  0  0  0
   -3.7494    2.1056    3.0098 H   0  0  0  0  0  0  0  0  0  0  0  0
   -5.4175    3.1167    1.4282 H   0  0  0  0  0  0  0  0  0  0  0  0
   -4.7122    3.7109   -0.9085 H   0  0  0  0  0  0  0  0  0  0  0  0
   -2.3713    3.2378   -1.6668 H   0  0  0  0  0  0  0  0  0  0  0  0
  1 21  2  0  0  0  0
  1 22  2  0  0  0  0
  2 15  1  0  0  0  0
  3 23  1  0  0  0  0
  3  8  1  0  0  0  0
  4  2  1  6  0  0  0
  4  3  1  0  0  0  0
  5  4  1  0  0  0  0
  5  6  1  0  0  0  0
  6 25  1  6  0  0  0
  6  1  1  0  0  0  0
  6  7  1  0  0  0  0
  7  8  1  0  0  0  0
  7 27  1  0  0  0  0
  8 29  1  0  0  0  0
  8 28  1  0  0  0  0
  9  1  1  0  0  0  0
 10 30  1  0  0  0  0
 10  9  2  0  0  0  0
 11 10  1  0  0  0  0
 12 11  2  0  0  0  0
 12 13  1  0  0  0  0
 13 14  2  0  0  0  0
 14  9  1  0  0  0  0
 14 34  1  0  0  0  0
 15 16  1  0  0  0  0
 16 17  2  0  0  0  0
 16 35  1  0  0  0  0
 17 36  1  0  0  0  0
 18 37  1  0  0  0  0
 18 17  1  0  0  0  0
 19 18  2  0  0  0  0
 20 19  1  0  0  0  0
 20 15  2  0  0  0  0
 24  5  1  0  0  0  0
 26  7  1  0  0  0  0
 31 11  1  0  0  0  0
 32 12  1  0  0  0  0
 33 13  1  0  0  0  0
 38 19  1  0  0  0  0
 39 20  1  0  0  0  0
M  END
