5
q = -1.0

 23 23  0  0  0  0  0  0  0  0999 V2000
   -1.2860    2.6171    1.2816 O   0  0  0  0  0  0  0  0  0  0  0  0
   -4.5618   -2.2116    0.0437 O   0  0  0  0  0  0  0  0  0  0  0  0
   -3.4968   -0.8797   -1.4293 O   0  0  0  0  0  0  0  0  0  0  0  0
   -2.4015    1.4640   -0.3646 N   0  0  0  0  0  0  0  0  0  0  0  0
    0.2269    0.9766   -1.7445 C   0  0  0  0  0  3  0  0  0  0  0  0
    1.6316    0.9850   -2.0042 C   0  0  0  0  0  0  0  0  0  0  0  0
    2.2875    1.7197   -0.9521 C   0  0  0  0  0  0  0  0  0  0  0  0
    1.2750    2.1566   -0.0366 C   0  0  0  0  0  0  0  0  0  0  0  0
   -0.0024    1.7118   -0.5138 C   0  0  0  0  0  0  0  0  0  0  0  0
   -1.2812    1.9808    0.2265 C   0  0  0  0  0  0  0  0  0  0  0  0
   -3.6713    1.3891    0.3291 C   0  0  0  0  0  0  0  0  0  0  0  0
   -3.9804   -0.0363    0.8059 C   0  0  0  0  0  0  0  0  0  0  0  0
   -3.9799   -1.0519   -0.3175 C   0  0  0  0  0  0  0  0  0  0  0  0
   -0.5328    0.5095   -2.3832 H   0  0  0  0  0  0  0  0  0  0  0  0
    2.1248    0.5195   -2.8663 H   0  0  0  0  0  0  0  0  0  0  0  0
    3.3616    1.9239   -0.8789 H   0  0  0  0  0  0  0  0  0  0  0  0
    1.4080    2.7430    0.8803 H   0  0  0  0  0  0  0  0  0  0  0  0
   -2.3227    0.8277   -1.1636 H   0  0  0  0  0  0  0  0  0  0  0  0
   -3.6078    2.0747    1.1957 H   0  0  0  0  0  0  0  0  0  0  0  0
   -4.4840    1.7486   -0.3375 H   0  0  0  0  0  0  0  0  0  0  0  0
   -4.9528   -0.0859    1.3369 H   0  0  0  0  0  0  0  0  0  0  0  0
   -3.2134   -0.3750    1.5362 H   0  0  0  0  0  0  0  0  0  0  0  0
   -4.4505   -2.8182   -0.7216 H   0  0  0  0  0  0  0  0  0  0  0  0
  3 13  2  0  0  0  0
  4 10  1  0  0  0  0
  4 11  1  0  0  0  0
  5  9  1  0  0  0  0
  6  5  1  0  0  0  0
  6  7  2  0  0  0  0
  7 16  1  0  0  0  0
  7  8  1  0  0  0  0
  8 17  1  0  0  0  0
  9  8  2  0  0  0  0
  9 10  1  0  0  0  0
 10  1  2  0  0  0  0
 11 12  1  0  0  0  0
 11 19  1  0  0  0  0
 12 21  1  0  0  0  0
 12 22  1  0  0  0  0
 13  2  1  0  0  0  0
 13 12  1  0  0  0  0
 14  5  1  0  0  0  0
 15  6  1  0  0  0  0
 18  4  1  0  0  0  0
 20 11  1  0  0  0  0
 23  2  1  0  0  0  0
M  END
