3
q = 0.0, confidence = 0.99

 49 49  0  0  0  0  0  0  0  0999 V2000
   -0.5702   -1.7682    0.3063 N   0  0  0  0  0  0  0  0  0  0  0  0
   -1.5867   -1.8918    0.1645 H   0  0  0  0  0  0  0  0  0  0  0  0
   -0.0771   -0.5281    0.1524 C   0  0  0  0  0  2  0  0  0  0  0  0
   -0.9904    0.4871    0.1922 N   0  0  0  0  0  0  0  0  0  0  0  0
   -2.3529    0.3014    0.6867 C   0  0  0  0  0  0  0  0  0  0  0  0
   -2.6933    1.2588    1.1246 H   0  0  0  0  0  0  0  0  0  0  0  0
   -2.3464   -0.4534    1.5025 H   0  0  0  0  0  0  0  0  0  0  0  0
   -3.3924   -0.1109   -0.3739 C   0  0  0  0  0  0  0  0  0  0  0  0
   -3.1795    0.4102   -1.3339 H   0  0  0  0  0  0  0  0  0  0  0  0
   -3.2705   -1.5152   -0.5465 O   0  0  0  0  0  0  0  0  0  0  0  0
   -3.9092   -2.0207   -1.7134 C   0  0  0  0  0  0  0  0  0  0  0  0
   -3.8021   -3.1216   -1.6953 H   0  0  0  0  0  0  0  0  0  0  0  0
   -3.4323   -1.6224   -2.6376 H   0  0  0  0  0  0  0  0  0  0  0  0
   -4.9874   -1.7554   -1.7226 H   0  0  0  0  0  0  0  0  0  0  0  0
   -4.7068    0.2678   -0.0570 O   0  0  0  0  0  0  0  0  0  0  0  0
   -5.2163   -0.2407    1.1709 C   0  0  0  0  0  0  0  0  0  0  0  0
   -6.3056   -0.0476    1.1691 H   0  0  0  0  0  0  0  0  0  0  0  0
   -4.7734    0.2698    2.0561 H   0  0  0  0  0  0  0  0  0  0  0  0
   -5.0431   -1.3346    1.2655 H   0  0  0  0  0  0  0  0  0  0  0  0
   -0.5479    1.8847   -0.0121 C   0  0  0  0  0  0  0  0  0  0  0  0
    0.4477    1.7902   -0.4980 H   0  0  0  0  0  0  0  0  0  0  0  0
   -1.4575    2.6670   -0.9699 C   0  0  0  0  0  0  0  0  0  0  0  0
   -2.4865    2.7484   -0.5518 H   0  0  0  0  0  0  0  0  0  0  0  0
   -1.5406    2.1187   -1.9321 H   0  0  0  0  0  0  0  0  0  0  0  0
   -0.9029    4.0805   -1.2024 C   0  0  0  0  0  0  0  0  0  0  0  0
    0.0712    4.0038   -1.7340 H   0  0  0  0  0  0  0  0  0  0  0  0
   -1.5824    4.6456   -1.8735 H   0  0  0  0  0  0  0  0  0  0  0  0
   -0.6979    4.8312    0.1195 C   0  0  0  0  0  0  0  0  0  0  0  0
   -1.6873    4.9978    0.6034 H   0  0  0  0  0  0  0  0  0  0  0  0
   -0.2714    5.8376   -0.0724 H   0  0  0  0  0  0  0  0  0  0  0  0
    0.2065    4.0396    1.0723 C   0  0  0  0  0  0  0  0  0  0  0  0
    0.3234    4.5737    2.0378 H   0  0  0  0  0  0  0  0  0  0  0  0
    1.2256    3.9606    0.6336 H   0  0  0  0  0  0  0  0  0  0  0  0
   -0.3353    2.6252    1.3169 C   0  0  0  0  0  0  0  0  0  0  0  0
    0.3698    2.0354    1.9390 H   0  0  0  0  0  0  0  0  0  0  0  0
   -1.2968    2.6894    1.8760 H   0  0  0  0  0  0  0  0  0  0  0  0
    0.1803   -3.0528    0.3416 C   0  0  0  0  0  0  0  0  0  0  0  0
    1.1819   -3.0611    1.5074 C   0  0  0  0  0  0  0  0  0  0  0  0
    1.9566   -2.2792    1.3708 H   0  0  0  0  0  0  0  0  0  0  0  0
    1.6888   -4.0446    1.5638 H   0  0  0  0  0  0  0  0  0  0  0  0
    0.6641   -2.8736    2.4694 H   0  0  0  0  0  0  0  0  0  0  0  0
    0.8920   -3.2987   -1.0007 C   0  0  0  0  0  0  0  0  0  0  0  0
    0.1639   -3.2939   -1.8371 H   0  0  0  0  0  0  0  0  0  0  0  0
    1.4071   -4.2796   -0.9887 H   0  0  0  0  0  0  0  0  0  0  0  0
    1.6483   -2.5100   -1.1920 H   0  0  0  0  0  0  0  0  0  0  0  0
   -0.8848   -4.1386    0.5724 C   0  0  0  0  0  0  0  0  0  0  0  0
   -1.6276   -4.1545   -0.2524 H   0  0  0  0  0  0  0  0  0  0  0  0
   -1.4249   -3.9717    1.5267 H   0  0  0  0  0  0  0  0  0  0  0  0
   -0.4077   -5.1362    0.6168 H   0  0  0  0  0  0  0  0  0  0  0  0
  1 37  1  0  0  0  0
  2  1  1  0  0  0  0
  3  4  1  0  0  0  0
  3  1  1  0  0  0  0
  4  5  1  0  0  0  0
  5  6  1  0  0  0  0
  5  7  1  0  0  0  0
  8 15  1  0  0  0  0
  8  5  1  0  0  0  0
  9  8  1  0  0  0  0
 10  8  1  0  0  0  0
 11 12  1  0  0  0  0
 11 10  1  0  0  0  0
 13 11  1  0  0  0  0
 14 11  1  0  0  0  0
 15 16  1  0  0  0  0
 16 19  1  0  0  0  0
 16 18  1  0  0  0  0
 17 16  1  0  0  0  0
 20  4  1  0  0  0  0
 20 34  1  0  0  0  0
 21 20  1  0  0  0  0
 22 23  1  0  0  0  0
 22 20  1  0  0  0  0
 24 22  1  0  0  0  0
 25 22  1  0  0  0  0
 25 28  1  0  0  0  0
 26 25  1  0  0  0  0
 27 25  1  0  0  0  0
 28 29  1  0  0  0  0
 28 31  1  0  0  0  0
 30 28  1  0  0  0  0
 31 34  1  0  0  0  0
 31 32  1  0  0  0  0
 33 31  1  0  0  0  0
 34 36  1  0  0  0  0
 34 35  1  0  0  0  0
 37 46  1  0  0  0  0
 37 38  1  0  0  0  0
 38 40  1  0  0  0  0
 38 41  1  0  0  0  0
 39 38  1  0  0  0  0
 42 44  1  0  0  0  0
 42 37  1  0  0  0  0
 43 42  1  0  0  0  0
 45 42  1  0  0  0  0
 46 49  1  0  0  0  0
 46 48  1  0  0  0  0
 47 46  1  0  0  0  0
M  END
