1
q = -1.0

 40 39  0  0  0  0  0  0  0  0999 V2000
   -1.6092   -0.0101    0.0082 C   0  0  0  0  0  3  0  0  0  0  0  0
   -2.1704    1.6114   -0.8239 Si  0  0  0  0  0  0  0  0  0  0  0  0
   -4.0027    1.9828   -0.4828 C   0  0  0  0  0  0  0  0  0  0  0  0
   -1.9132    1.5873   -2.7081 C   0  0  0  0  0  0  0  0  0  0  0  0
   -1.1958    3.1422   -0.2563 C   0  0  0  0  0  0  0  0  0  0  0  0
   -2.0870   -0.1218    1.8499 Si  0  0  0  0  0  0  0  0  0  0  0  0
   -0.9158   -1.3011    2.7796 C   0  0  0  0  0  0  0  0  0  0  0  0
   -3.8783   -0.6989    2.1076 C   0  0  0  0  0  0  0  0  0  0  0  0
   -1.9013    1.5342    2.7633 C   0  0  0  0  0  0  0  0  0  0  0  0
   -2.1085   -1.5485   -1.0053 Si  0  0  0  0  0  0  0  0  0  0  0  0
   -3.8944   -1.4531   -1.6483 C   0  0  0  0  0  0  0  0  0  0  0  0
   -2.0067   -3.1731   -0.0234 C   0  0  0  0  0  0  0  0  0  0  0  0
   -0.9579   -1.7859   -2.5056 C   0  0  0  0  0  0  0  0  0  0  0  0
   -4.6647    1.1513   -0.7930 H   0  0  0  0  0  0  0  0  0  0  0  0
   -4.1831    2.1777    0.5937 H   0  0  0  0  0  0  0  0  0  0  0  0
   -4.3089    2.8915   -1.0416 H   0  0  0  0  0  0  0  0  0  0  0  0
   -2.5164    0.8202   -3.2317 H   0  0  0  0  0  0  0  0  0  0  0  0
   -2.2029    2.5772   -3.1184 H   0  0  0  0  0  0  0  0  0  0  0  0
   -0.8472    1.4201   -2.9686 H   0  0  0  0  0  0  0  0  0  0  0  0
   -1.6292    4.0354   -0.7540 H   0  0  0  0  0  0  0  0  0  0  0  0
   -1.2383    3.3143    0.8352 H   0  0  0  0  0  0  0  0  0  0  0  0
   -0.1295    3.0937   -0.5545 H   0  0  0  0  0  0  0  0  0  0  0  0
   -1.2205   -1.3729    3.8449 H   0  0  0  0  0  0  0  0  0  0  0  0
   -0.9119   -2.3254    2.3604 H   0  0  0  0  0  0  0  0  0  0  0  0
    0.1287   -0.9199    2.7656 H   0  0  0  0  0  0  0  0  0  0  0  0
   -4.1185   -0.7089    3.1910 H   0  0  0  0  0  0  0  0  0  0  0  0
   -4.5921   -0.0146    1.6073 H   0  0  0  0  0  0  0  0  0  0  0  0
   -4.0560   -1.7192    1.7144 H   0  0  0  0  0  0  0  0  0  0  0  0
   -2.1235    1.3706    3.8386 H   0  0  0  0  0  0  0  0  0  0  0  0
   -0.8659    1.9267    2.6946 H   0  0  0  0  0  0  0  0  0  0  0  0
   -2.5923    2.3184    2.3962 H   0  0  0  0  0  0  0  0  0  0  0  0
   -4.6143   -1.3506   -0.8115 H   0  0  0  0  0  0  0  0  0  0  0  0
   -4.0580   -0.6075   -2.3447 H   0  0  0  0  0  0  0  0  0  0  0  0
   -4.1387   -2.3892   -2.1924 H   0  0  0  0  0  0  0  0  0  0  0  0
   -2.6956   -3.1954    0.8437 H   0  0  0  0  0  0  0  0  0  0  0  0
   -2.2988   -4.0034   -0.7000 H   0  0  0  0  0  0  0  0  0  0  0  0
   -0.9855   -3.3894    0.3446 H   0  0  0  0  0  0  0  0  0  0  0  0
    0.1073   -1.8861   -2.2063 H   0  0  0  0  0  0  0  0  0  0  0  0
   -1.2326   -2.7155   -3.0469 H   0  0  0  0  0  0  0  0  0  0  0  0
   -1.0218   -0.9457   -3.2228 H   0  0  0  0  0  0  0  0  0  0  0  0
  1  6  1  0  0  0  0
  2  3  1  0  0  0  0
  2  5  1  0  0  0  0
  2  1  1  0  0  0  0
  3 15  1  0  0  0  0
  4  2  1  0  0  0  0
  5 21  1  0  0  0  0
  6  8  1  0  0  0  0
  6  9  1  0  0  0  0
  6  7  1  0  0  0  0
  7 23  1  0  0  0  0
  8 26  1  0  0  0  0
  9 29  1  0  0  0  0
 10 12  1  0  0  0  0
 10  1  1  0  0  0  0
 11 10  1  0  0  0  0
 11 32  1  0  0  0  0
 12 37  1  0  0  0  0
 12 35  1  0  0  0  0
 13 38  1  0  0  0  0
 13 10  1  0  0  0  0
 14  3  1  0  0  0  0
 16  3  1  0  0  0  0
 17  4  1  0  0  0  0
 18  4  1  0  0  0  0
 19  4  1  0  0  0  0
 20  5  1  0  0  0  0
 22  5  1  0  0  0  0
 24  7  1  0  0  0  0
 25  7  1  0  0  0  0
 27  8  1  0  0  0  0
 28  8  1  0  0  0  0
 30  9  1  0  0  0  0
 31  9  1  0  0  0  0
 33 11  1  0  0  0  0
 34 11  1  0  0  0  0
 36 12  1  0  0  0  0
 39 13  1  0  0  0  0
 40 13  1  0  0  0  0
M  END
