25
q = -2.0, confidence = 0.866

 38 41  0  0  1  0  0  0  0  0999 V2000
    0.5400   -2.3981    0.7653 B   0  0  0  0  0  0  0  0  0  0  0  0
    0.7593   -1.9251    1.8464 H   0  0  0  0  0  0  0  0  0  0  0  0
   -0.8952   -3.3174    0.3079 B   0  0  2  0  0  0  0  0  0  0  0  0
   -1.7588   -3.5067    1.1336 H   0  0  0  0  0  0  0  0  0  0  0  0
   -1.3123   -2.8879   -1.3498 B   0  0  2  0  0  0  0  0  0  0  0  0
   -2.4699   -2.7845   -1.6822 H   0  0  0  0  0  0  0  0  0  0  0  0
   -0.1391   -1.6966   -1.9162 B   0  0  1  0  0  0  0  0  0  0  0  0
   -0.3689   -0.7505   -2.6180 H   0  0  0  0  0  0  0  0  0  0  0  0
   -0.6669   -1.7173   -0.2728 C   0  0  1  0  0  0  0  0  0  0  0  0
    0.9513   -1.4770   -0.6134 C   0  0  1  0  0  0  0  0  0  0  0  0
    1.4319   -0.0596   -0.3814 C   0  0  0  0  0  0  0  0  0  0  0  0
    2.9327    0.1482   -0.4482 C   0  0  0  0  0  0  0  0  0  0  0  0
    3.1608    1.1395   -0.8897 H   0  0  0  0  0  0  0  0  0  0  0  0
    3.3914   -0.5995   -1.1267 H   0  0  0  0  0  0  0  0  0  0  0  0
    3.6056    0.0519    0.9352 C   0  0  0  0  0  0  0  0  0  0  0  0
    3.1731    0.8258    1.6081 H   0  0  0  0  0  0  0  0  0  0  0  0
    3.3528   -0.9253    1.3983 H   0  0  0  0  0  0  0  0  0  0  0  0
    5.1269    0.2119    0.8787 C   0  0  0  0  0  0  0  0  0  0  0  0
    5.5465   -0.5711    0.2090 H   0  0  0  0  0  0  0  0  0  0  0  0
    5.3747    1.1834    0.3951 H   0  0  0  0  0  0  0  0  0  0  0  0
    5.7943    0.1302    2.2517 C   0  0  0  0  0  0  0  0  0  0  0  0
    6.8947    0.2448    2.1820 H   0  0  0  0  0  0  0  0  0  0  0  0
    5.5897   -0.8455    2.7398 H   0  0  0  0  0  0  0  0  0  0  0  0
    5.4178    0.9233    2.9315 H   0  0  0  0  0  0  0  0  0  0  0  0
    0.5305    0.9169   -0.0596 C   0  0  0  0  0  3  0  0  0  0  0  0
    0.9900    2.3583    0.1008 C   0  0  0  0  0  0  0  0  0  0  0  0
    1.9343    2.4118    0.6894 H   0  0  0  0  0  0  0  0  0  0  0  0
    0.2520    2.9426    0.6952 H   0  0  0  0  0  0  0  0  0  0  0  0
    1.1970    3.1029   -1.2317 C   0  0  0  0  0  0  0  0  0  0  0  0
    0.2438    3.1160   -1.8019 H   0  0  0  0  0  0  0  0  0  0  0  0
    1.9092    2.5336   -1.8674 H   0  0  0  0  0  0  0  0  0  0  0  0
    1.6995    4.5386   -1.0541 C   0  0  0  0  0  0  0  0  0  0  0  0
    0.9882    5.0967   -0.4041 H   0  0  0  0  0  0  0  0  0  0  0  0
    2.6609    4.5200   -0.4940 H   0  0  0  0  0  0  0  0  0  0  0  0
    1.8847    5.2835   -2.3763 C   0  0  0  0  0  0  0  0  0  0  0  0
    2.2513    6.3177   -2.2186 H   0  0  0  0  0  0  0  0  0  0  0  0
    0.9302    5.3490   -2.9397 H   0  0  0  0  0  0  0  0  0  0  0  0
    2.6163    4.7653   -3.0306 H   0  0  0  0  0  0  0  0  0  0  0  0
  1  2  1  0  0  0  0
  3  1  1  0  0  0  0
  3  4  1  1  0  0  0
  5  6  1  6  0  0  0
  5  9  1  0  0  0  0
  5  3  1  0  0  0  0
  7  8  1  6  0  0  0
  7  5  1  0  0  0  0
  7 10  1  0  0  0  0
  7  9  1  0  0  0  0
  9  3  1  0  0  0  0
 10 11  1  0  0  0  0
 10  9  1  0  0  0  0
 10  1  1  0  0  0  0
 11 25  2  0  0  0  0
 12 11  1  0  0  0  0
 12 15  1  0  0  0  0
 13 12  1  0  0  0  0
 14 12  1  0  0  0  0
 15 17  1  0  0  0  0
 15 16  1  0  0  0  0
 18 15  1  0  0  0  0
 18 21  1  0  0  0  0
 19 18  1  0  0  0  0
 20 18  1  0  0  0  0
 21 23  1  0  0  0  0
 21 24  1  0  0  0  0
 22 21  1  0  0  0  0
 25 26  1  0  0  0  0
 26 27  1  0  0  0  0
 26 28  1  0  0  0  0
 29 32  1  0  0  0  0
 29 26  1  0  0  0  0
 30 29  1  0  0  0  0
 31 29  1  0  0  0  0
 32 34  1  0  0  0  0
 32 33  1  0  0  0  0
 35 36  1  0  0  0  0
 35 32  1  0  0  0  0
 37 35  1  0  0  0  0
 38 35  1  0  0  0  0
M  END
