18
q = -2.0, confidence = 0.962

 50 55  0  0  1  0  0  0  0  0999 V2000
    0.0019   -2.9209   -0.8307 Si  0  0  0  0  0  0  0  0  0  0  0  0
    1.4793    1.0605   -0.3331 C   0  0  2  0  0  0  0  0  0  0  0  0
    0.0338    1.8218    0.0111 C   0  0  1  0  0  0  0  0  0  0  0  0
    1.3738   -0.4590   -0.4146 C   0  0  1  0  0  3  0  0  0  0  0  0
    2.7132   -1.1685   -0.4348 C   0  0  0  0  0  0  0  0  0  0  0  0
    3.4640   -0.5502   -0.9663 H   0  0  0  0  0  0  0  0  0  0  0  0
    2.6284   -2.1151   -1.0052 H   0  0  0  0  0  0  0  0  0  0  0  0
    3.2244   -1.4959    0.9848 C   0  0  0  0  0  0  0  0  0  0  0  0
    3.3462   -0.5542    1.5594 H   0  0  0  0  0  0  0  0  0  0  0  0
    2.4414   -2.0789    1.5125 H   0  0  0  0  0  0  0  0  0  0  0  0
    4.5447   -2.2776    1.0006 C   0  0  0  0  0  0  0  0  0  0  0  0
    4.7629   -2.5740    2.0493 H   0  0  0  0  0  0  0  0  0  0  0  0
    4.4115   -3.2318    0.4412 H   0  0  0  0  0  0  0  0  0  0  0  0
    5.7424   -1.5124    0.4325 C   0  0  0  0  0  0  0  0  0  0  0  0
    6.6768   -2.1026    0.5192 H   0  0  0  0  0  0  0  0  0  0  0  0
    5.8982   -0.5550    0.9720 H   0  0  0  0  0  0  0  0  0  0  0  0
    5.6095   -1.2657   -0.6406 H   0  0  0  0  0  0  0  0  0  0  0  0
    0.1445   -1.0702   -0.4182 C   0  0  0  0  0  2  0  0  0  0  0  0
    0.6395   -3.2135   -2.5976 C   0  0  0  0  0  0  0  0  0  0  0  0
    1.7180   -2.9903   -2.7137 H   0  0  0  0  0  0  0  0  0  0  0  0
    0.0891   -2.5673   -3.3121 H   0  0  0  0  0  0  0  0  0  0  0  0
    0.4738   -4.2699   -2.8954 H   0  0  0  0  0  0  0  0  0  0  0  0
    0.8887   -4.0870    0.3842 C   0  0  0  0  0  0  0  0  0  0  0  0
    1.9911   -4.0018    0.3278 H   0  0  0  0  0  0  0  0  0  0  0  0
    0.6186   -5.1375    0.1477 H   0  0  0  0  0  0  0  0  0  0  0  0
    0.5917   -3.8927    1.4354 H   0  0  0  0  0  0  0  0  0  0  0  0
   -1.8029   -3.5383   -0.8810 C   0  0  0  0  0  0  0  0  0  0  0  0
   -2.3531   -3.1326   -1.7525 H   0  0  0  0  0  0  0  0  0  0  0  0
   -2.3942   -3.3278    0.0320 H   0  0  0  0  0  0  0  0  0  0  0  0
   -1.7747   -4.6413   -1.0034 H   0  0  0  0  0  0  0  0  0  0  0  0
    1.3111    1.8262    1.1818 B   0  0  2  0  0  0  0  0  0  0  0  0
    1.2529    1.1462    2.1681 H   0  0  0  0  0  0  0  0  0  0  0  0
    2.8264    1.9542    0.2713 B   0  0  2  0  0  0  0  0  0  0  0  0
    3.7900    1.3528    0.6707 H   0  0  0  0  0  0  0  0  0  0  0  0
    2.4273    1.9804   -1.4492 B   0  0  0  0  0  0  0  0  0  0  0  0
    3.0970    1.3766   -2.2510 H   0  0  0  0  0  0  0  0  0  0  0  0
    0.6648    1.8742   -1.5954 B   0  0  1  0  0  0  0  0  0  0  0  0
    0.1919    1.1892   -2.4601 H   0  0  0  0  0  0  0  0  0  0  0  0
    0.3419    3.2706    0.8704 B   0  0  1  0  0  0  0  0  0  0  0  0
   -0.4650    3.6237    1.6996 H   0  0  0  0  0  0  0  0  0  0  0  0
    2.1170    3.3959    1.0383 B   0  0  1  0  0  0  0  0  0  0  0  0
    2.6222    3.8956    2.0168 H   0  0  0  0  0  0  0  0  0  0  0  0
    2.8118    3.5009   -0.6059 B   0  0  1  0  0  0  0  0  0  0  0  0
    3.8449    4.0879   -0.8329 H   0  0  0  0  0  0  0  0  0  0  0  0
    1.4641    3.4449   -1.7761 B   0  0  0  0  0  2  0  0  0  0  0  0
    1.4887    3.9776   -2.8616 H   0  0  0  0  0  0  0  0  0  0  0  0
   -0.0507    3.3063   -0.8482 B   0  0  2  0  0  0  0  0  0  0  0  0
   -1.1316    3.6924   -1.2247 H   0  0  0  0  0  0  0  0  0  0  0  0
    1.2738    4.3258   -0.2323 B   0  0  1  0  0  0  0  0  0  0  0  0
    1.1621    5.5292   -0.1837 H   0  0  0  0  0  0  0  0  0  0  0  0
  1 18  1  0  0  0  0
  1 23  1  0  0  0  0
  2  4  1  6  0  0  0
  2  3  1  0  0  0  0
  2 31  1  0  0  0  0
  3 39  1  0  0  0  0
  5  4  1  0  0  0  0
  5  8  1  0  0  0  0
  6  5  1  0  0  0  0
  7  5  1  0  0  0  0
  8 11  1  0  0  0  0
  8 10  1  0  0  0  0
  8  9  1  0  0  0  0
 11 12  1  0  0  0  0
 13 11  1  0  0  0  0
 14 15  1  0  0  0  0
 14 16  1  0  0  0  0
 14 11  1  0  0  0  0
 17 14  1  0  0  0  0
 18  4  1  0  0  0  0
 19  1  1  0  0  0  0
 20 19  1  0  0  0  0
 21 19  1  0  0  0  0
 22 19  1  0  0  0  0
 23 26  1  0  0  0  0
 24 23  1  0  0  0  0
 25 23  1  0  0  0  0
 27  1  1  0  0  0  0
 27 29  1  0  0  0  0
 28 27  1  0  0  0  0
 30 27  1  0  0  0  0
 31 32  1  0  0  0  0
 33 34  1  0  0  0  0
 33 41  1  0  0  0  0
 35 43  1  0  0  0  0
 35 33  1  0  0  0  0
 36 35  1  0  0  0  0
 37 47  1  0  0  0  0
 37  2  1  0  0  0  0
 37  3  1  0  0  0  0
 38 37  1  0  0  0  0
 39 31  1  0  0  0  0
 39 40  1  0  0  0  0
 41 31  1  0  0  0  0
 41 42  1  0  0  0  0
 43 49  1  0  0  0  0
 43 33  1  0  0  0  0
 44 43  1  0  0  0  0
 45 49  1  0  0  0  0
 46 45  1  0  0  0  0
 47  3  1  0  0  0  0
 47 39  1  0  0  0  0
 48 47  1  0  0  0  0
 49 50  1  0  0  0  0
 49 41  1  0  0  0  0
M  END
