18
q = -2.0, confidence = 0.578

 60 68  0  0  1  0  0  0  0  0999 V2000
   -1.5103   -0.9253   -0.2235 P   0  0  0  0  0  0  0  0  0  0  0  0
    1.4851    1.6810    1.0047 C   0  0  2  0  0  0  0  0  0  0  0  0
    2.4993    0.5746    0.2017 C   0  0  1  0  0  0  0  0  0  0  0  0
    0.0303    1.3003    0.8827 C   0  0  0  0  0  0  0  0  0  0  0  0
   -1.0313    2.2718    1.3266 C   0  0  0  0  0  0  0  0  0  0  0  0
   -0.6511    2.9050    2.1547 H   0  0  0  0  0  0  0  0  0  0  0  0
   -1.8951    1.6965    1.7206 H   0  0  0  0  0  0  0  0  0  0  0  0
   -1.5264    3.1722    0.1758 C   0  0  0  0  0  0  0  0  0  0  0  0
   -0.6720    3.7519   -0.2322 H   0  0  0  0  0  0  0  0  0  0  0  0
   -1.8874    2.5263   -0.6514 H   0  0  0  0  0  0  0  0  0  0  0  0
   -2.6435    4.1260    0.6049 C   0  0  0  0  0  0  0  0  0  0  0  0
   -2.2718    4.7850    1.4205 H   0  0  0  0  0  0  0  0  0  0  0  0
   -3.4743    3.5325    1.0480 H   0  0  0  0  0  0  0  0  0  0  0  0
   -3.1777    4.9735   -0.5497 C   0  0  0  0  0  0  0  0  0  0  0  0
   -3.9797    5.6628   -0.2168 H   0  0  0  0  0  0  0  0  0  0  0  0
   -3.5958    4.3308   -1.3525 H   0  0  0  0  0  0  0  0  0  0  0  0
   -2.3732    5.5895   -1.0029 H   0  0  0  0  0  0  0  0  0  0  0  0
   -0.1638    0.0961    0.2947 C   0  0  0  0  0  3  0  0  0  0  0  0
   -2.9224    0.0447   -0.9170 C   0  0  0  0  0  0  0  0  0  0  0  0
   -3.9746    0.4721   -0.0780 C   0  0  0  0  0  0  0  0  0  0  0  0
   -3.9946    0.1626    0.9777 H   0  0  0  0  0  0  0  0  0  0  0  0
   -4.9879    1.3000   -0.5811 C   0  0  0  0  0  0  0  0  0  0  0  0
   -5.7974    1.6338    0.0857 H   0  0  0  0  0  0  0  0  0  0  0  0
   -4.9691    1.7078   -1.9253 C   0  0  0  0  0  0  0  0  0  0  0  0
   -5.7633    2.3618   -2.3155 H   0  0  0  0  0  0  0  0  0  0  0  0
   -3.9358    1.2718   -2.7687 C   0  0  0  0  0  0  0  0  0  0  0  0
   -3.9170    1.5787   -3.8254 H   0  0  0  0  0  0  0  0  0  0  0  0
   -2.9207    0.4407   -2.2704 C   0  0  0  0  0  0  0  0  0  0  0  0
   -2.1183    0.1097   -2.9425 H   0  0  0  0  0  0  0  0  0  0  0  0
   -2.2261   -1.7292    1.2642 C   0  0  0  0  0  0  0  0  0  0  0  0
   -3.1653   -2.7687    1.0922 C   0  0  0  0  0  0  0  0  0  0  0  0
   -3.4703   -3.0699    0.0771 H   0  0  0  0  0  0  0  0  0  0  0  0
   -3.7178   -3.4113    2.2092 C   0  0  0  0  0  0  0  0  0  0  0  0
   -4.4530   -4.2182    2.0678 H   0  0  0  0  0  0  0  0  0  0  0  0
   -3.3288   -3.0312    3.5049 C   0  0  0  0  0  0  0  0  0  0  0  0
   -3.7583   -3.5409    4.3805 H   0  0  0  0  0  0  0  0  0  0  0  0
   -2.3906   -2.0020    3.6802 C   0  0  0  0  0  0  0  0  0  0  0  0
   -2.0846   -1.6995    4.6931 H   0  0  0  0  0  0  0  0  0  0  0  0
   -1.8408   -1.3496    2.5651 C   0  0  0  0  0  0  0  0  0  0  0  0
   -1.1042   -0.5418    2.6966 H   0  0  0  0  0  0  0  0  0  0  0  0
    2.2346    2.1678   -0.4353 B   0  0  2  0  0  0  0  0  0  0  0  0
    1.5427    2.3220   -1.4071 H   0  0  0  0  0  0  0  0  0  0  0  0
    2.0690    3.2836    0.9482 B   0  0  2  0  0  0  0  0  0  0  0  0
    1.2636    4.1778    0.8661 H   0  0  0  0  0  0  0  0  0  0  0  0
    2.1928    2.3138    2.4246 B   0  0  2  0  0  0  0  0  0  0  0  0
    1.4675    2.5270    3.3668 H   0  0  0  0  0  0  0  0  0  0  0  0
    2.4431    0.6173    1.9298 B   0  0  1  0  0  0  0  0  0  0  0  0
    1.8967   -0.2663    2.5351 H   0  0  0  0  0  0  0  0  0  0  0  0
    3.8532    1.4681   -0.3863 B   0  0  1  0  0  0  0  0  0  0  0  0
    4.3814    1.1045   -1.4102 H   0  0  0  0  0  0  0  0  0  0  0  0
    3.6098    3.1763    0.0702 B   0  0  1  0  0  0  0  0  0  0  0  0
    3.9873    4.0791   -0.6411 H   0  0  0  0  0  0  0  0  0  0  0  0
    3.5929    3.2597    1.8611 B   0  0  1  0  0  0  0  0  0  0  0  0
    3.9657    4.2378    2.4679 H   0  0  0  0  0  0  0  0  0  0  0  0
    3.8190    1.5961    2.4838 B   0  0  0  0  0  0  0  0  0  0  0  0
    4.3501    1.3417    3.5406 H   0  0  0  0  0  0  0  0  0  0  0  0
    3.9829    0.5132    1.0773 B   0  0  2  0  0  0  0  0  0  0  0  0
    4.6104   -0.5183    1.0836 H   0  0  0  0  0  0  0  0  0  0  0  0
    4.7036    2.1438    1.0309 B   0  0  1  0  0  0  0  0  0  0  0  0
    5.9048    2.2889    1.0222 H   0  0  0  0  0  0  0  0  0  0  0  0
  1 18  1  0  0  0  0
  1 30  1  0  0  0  0
  2  4  1  6  0  0  0
  2 47  1  0  0  0  0
  3  2  1  0  0  0  0
  3 57  1  0  0  0  0
  3 47  1  0  0  0  0
  4  5  1  0  0  0  0
  5  7  1  0  0  0  0
  5  6  1  0  0  0  0
  8 11  1  0  0  0  0
  8  5  1  0  0  0  0
  9  8  1  0  0  0  0
 10  8  1  0  0  0  0
 11 13  1  0  0  0  0
 11 12  1  0  0  0  0
 14 15  1  0  0  0  0
 14 11  1  0  0  0  0
 16 14  1  0  0  0  0
 17 14  1  0  0  0  0
 18  4  2  0  0  0  0
 19  1  1  0  0  0  0
 19 20  1  0  0  0  0
 20 21  1  0  0  0  0
 22 20  2  0  0  0  0
 22 23  1  0  0  0  0
 24 22  1  0  0  0  0
 25 24  1  0  0  0  0
 26 28  1  0  0  0  0
 26 24  2  0  0  0  0
 27 26  1  0  0  0  0
 28 19  2  0  0  0  0
 29 28  1  0  0  0  0
 30 39  1  0  0  0  0
 31 30  2  0  0  0  0
 31 33  1  0  0  0  0
 32 31  1  0  0  0  0
 33 35  2  0  0  0  0
 34 33  1  0  0  0  0
 35 37  1  0  0  0  0
 35 36  1  0  0  0  0
 37 38  1  0  0  0  0
 39 40  1  0  0  0  0
 39 37  2  0  0  0  0
 41 49  1  0  0  0  0
 41 51  1  0  0  0  0
 41  2  1  0  0  0  0
 42 41  1  0  0  0  0
 43 53  1  0  0  0  0
 43 45  1  0  0  0  0
 44 43  1  0  0  0  0
 45 55  1  0  0  0  0
 45 46  1  0  0  0  0
 47 48  1  0  0  0  0
 49  3  1  0  0  0  0
 49 57  1  0  0  0  0
 50 49  1  0  0  0  0
 51 43  1  0  0  0  0
 51 59  1  0  0  0  0
 52 51  1  0  0  0  0
 53 45  1  0  0  0  0
 53 54  1  0  0  0  0
 55 56  1  0  0  0  0
 57 58  1  0  0  0  0
 57 47  1  0  0  0  0
 59 53  1  0  0  0  0
 59 55  1  0  0  0  0
 60 59  1  0  0  0  0
M  END
