5
q = 0.0, confidence = 0.956

 37 38  0  0  1  0  0  0  0  0999 V2000
   -1.9413    1.1637    1.6223 S   0  0  0  0  0  0  0  0  0  0  0  0
   -0.2899    0.6589    1.4413 N   0  0  0  0  0  0  0  0  0  0  0  0
    0.2441   -0.5154    2.0253 C   0  0  0  0  0  0  0  0  0  0  0  0
    1.7238   -0.4367    1.7898 C   0  0  0  0  0  3  0  0  0  0  0  0
    2.0081    0.7587    1.0666 C   0  0  0  0  0  3  0  0  0  0  0  0
    0.7120    1.5331    0.8122 C   0  0  1  0  0  0  0  0  0  0  0  0
   -0.3909   -1.3806    2.6005 O   0  0  0  0  0  0  0  0  0  0  0  0
    0.4278    1.7366   -0.5485 O   0  0  0  0  0  0  0  0  0  0  0  0
   -1.9534    2.5492    1.1066 O   0  0  0  0  0  0  0  0  0  0  0  0
   -2.3574    0.8482    2.9944 O   0  0  0  0  0  0  0  0  0  0  0  0
   -2.8032    0.0948    0.4823 C   0  0  0  0  0  0  0  0  0  0  0  0
    0.3364    3.1020   -1.0088 C   0  0  0  0  0  0  0  0  0  0  0  0
   -0.2791    3.0244   -2.3986 C   0  0  0  0  0  0  0  0  0  0  0  0
    1.7085    3.7762   -1.0155 C   0  0  0  0  0  0  0  0  0  0  0  0
   -3.0643   -1.2328    0.8578 C   0  0  0  0  0  0  0  0  0  0  0  0
   -3.7003   -2.0700   -0.0646 C   0  0  0  0  0  0  0  0  0  0  0  0
   -4.0862   -1.6020   -1.3406 C   0  0  0  0  0  0  0  0  0  0  0  0
   -3.8253   -0.2561   -1.6705 C   0  0  0  0  0  0  0  0  0  0  0  0
   -3.1808    0.5996   -0.7682 C   0  0  0  0  0  0  0  0  0  0  0  0
   -4.7424   -2.5313   -2.3282 C   0  0  0  0  0  0  0  0  0  0  0  0
    2.3728   -0.9173    2.5351 H   0  0  0  0  0  0  0  0  0  0  0  0
    2.9263    1.3518    1.1904 H   0  0  0  0  0  0  0  0  0  0  0  0
    0.7333    2.5114    1.3437 H   0  0  0  0  0  0  0  0  0  0  0  0
   -0.3554    3.6448   -0.3260 H   0  0  0  0  0  0  0  0  0  0  0  0
    0.3821    2.4531   -3.0816 H   0  0  0  0  0  0  0  0  0  0  0  0
   -1.2605    2.5143   -2.3600 H   0  0  0  0  0  0  0  0  0  0  0  0
   -0.4239    4.0391   -2.8178 H   0  0  0  0  0  0  0  0  0  0  0  0
    2.1533    3.8136   -0.0002 H   0  0  0  0  0  0  0  0  0  0  0  0
    2.4068    3.2315   -1.6830 H   0  0  0  0  0  0  0  0  0  0  0  0
    1.6247    4.8216   -1.3750 H   0  0  0  0  0  0  0  0  0  0  0  0
   -2.7443   -1.5924    1.8463 H   0  0  0  0  0  0  0  0  0  0  0  0
   -3.9061   -3.1160    0.2122 H   0  0  0  0  0  0  0  0  0  0  0  0
   -4.1325    0.1288   -2.6554 H   0  0  0  0  0  0  0  0  0  0  0  0
   -2.9743    1.6506   -1.0137 H   0  0  0  0  0  0  0  0  0  0  0  0
   -3.9958   -3.2276   -2.7668 H   0  0  0  0  0  0  0  0  0  0  0  0
   -5.5187   -3.1569   -1.8436 H   0  0  0  0  0  0  0  0  0  0  0  0
   -5.2127   -1.9782   -3.1637 H   0  0  0  0  0  0  0  0  0  0  0  0
  1 10  2  0  0  0  0
  2  1  1  0  0  0  0
  2  3  1  0  0  0  0
  3  7  2  0  0  0  0
  4  3  1  0  0  0  0
  4 21  1  0  0  0  0
  5 22  1  0  0  0  0
  5  4  1  0  0  0  0
  6  5  1  0  0  0  0
  6 23  1  1  0  0  0
  6  2  1  0  0  0  0
  8  6  1  0  0  0  0
  9  1  2  0  0  0  0
 11 15  1  0  0  0  0
 11  1  1  0  0  0  0
 12  8  1  0  0  0  0
 12 24  1  0  0  0  0
 13 26  1  0  0  0  0
 13 12  1  0  0  0  0
 14 12  1  0  0  0  0
 14 28  1  0  0  0  0
 15 31  1  0  0  0  0
 16 32  1  0  0  0  0
 16 15  2  0  0  0  0
 17 16  1  0  0  0  0
 18 17  2  0  0  0  0
 18 19  1  0  0  0  0
 19 11  2  0  0  0  0
 20 36  1  0  0  0  0
 20 17  1  0  0  0  0
 25 13  1  0  0  0  0
 27 13  1  0  0  0  0
 29 14  1  0  0  0  0
 30 14  1  0  0  0  0
 33 18  1  0  0  0  0
 34 19  1  0  0  0  0
 35 20  1  0  0  0  0
 37 20  1  0  0  0  0
M  END
