11
q = 0.0, confidence = 0.974

 17 17  0  0  0  0  0  0  0  0999 V2000
   -1.8654   -4.0767   -0.7832 O   0  0  0  0  0  0  0  0  0  0  0  0
   -1.3074   -4.4956   -0.0990 H   0  0  0  0  0  0  0  0  0  0  0  0
   -3.7789    0.8804    0.8751 O   0  0  0  0  0  0  0  0  0  0  0  0
   -4.4550    1.7700   -0.0162 C   0  0  0  0  0  0  0  0  0  0  0  0
   -4.7405    2.6482    0.5891 H   0  0  0  0  0  0  0  0  0  0  0  0
   -5.3707    1.3045   -0.4368 H   0  0  0  0  0  0  0  0  0  0  0  0
   -3.7796    2.0909   -0.8390 H   0  0  0  0  0  0  0  0  0  0  0  0
   -2.2273   -2.8452   -0.4048 C   0  0  0  0  0  0  0  0  0  0  0  0
   -2.9823   -2.0588   -1.3290 C   0  0  0  0  0  3  0  0  0  0  0  0
   -3.2220   -2.4759   -2.3158 H   0  0  0  0  0  0  0  0  0  0  0  0
   -3.4665   -0.7680   -0.9411 C   0  0  0  0  0  3  0  0  0  0  0  0
   -4.0633   -0.2008   -1.6676 H   0  0  0  0  0  0  0  0  0  0  0  0
   -3.2548   -0.2534    0.3847 C   0  0  0  0  0  0  0  0  0  0  0  0
   -2.3402   -0.9628    1.2134 C   0  0  0  0  0  0  0  0  0  0  0  0
   -2.0912   -0.5468    2.1984 H   0  0  0  0  0  0  0  0  0  0  0  0
   -1.8313   -2.2441    0.8269 C   0  0  0  0  0  0  0  0  0  0  0  0
   -1.1738   -2.7928    1.5172 H   0  0  0  0  0  0  0  0  0  0  0  0
  1  8  1  0  0  0  0
  1  2  1  0  0  0  0
  4  5  1  0  0  0  0
  4  3  1  0  0  0  0
  6  4  1  0  0  0  0
  7  4  1  0  0  0  0
  8 16  2  0  0  0  0
  9 11  1  0  0  0  0
  9  8  1  0  0  0  0
 10  9  1  0  0  0  0
 11 13  1  0  0  0  0
 12 11  1  0  0  0  0
 13  3  1  0  0  0  0
 13 14  2  0  0  0  0
 14 15  1  0  0  0  0
 16 14  1  0  0  0  0
 16 17  1  0  0  0  0
M  END
