3
q = 0.0, confidence = 0.996

 59 62  0  0  1  0  0  0  0  0999 V2000
   -0.6185    1.8165    0.6626 N   0  0  0  0  0  0  0  0  0  0  0  0
   -1.9056    0.0382    0.5419 N   0  0  0  0  0  0  0  0  0  0  0  0
   -0.6051    0.4712    0.4158 C   0  0  0  0  0  2  0  0  0  0  0  0
   -1.9638    2.3397    0.9339 C   0  0  0  0  0  0  0  0  0  0  0  0
   -2.2985    2.9923    0.0988 H   0  0  0  0  0  0  0  0  0  0  0  0
   -1.9627    2.9544    1.8583 H   0  0  0  0  0  0  0  0  0  0  0  0
   -2.8252    1.0725    1.0643 C   0  0  2  0  0  0  0  0  0  0  0  0
   -3.7112    1.1400    0.4011 H   0  0  0  0  0  0  0  0  0  0  0  0
   -3.3225    0.7333    2.4885 C   0  0  0  0  0  0  0  0  0  0  0  0
   -3.7754   -0.2798    2.4020 H   0  0  0  0  0  0  0  0  0  0  0  0
   -4.4328    1.7054    2.9025 C   0  0  0  0  0  0  0  0  0  0  0  0
   -4.8529    1.4295    3.8903 H   0  0  0  0  0  0  0  0  0  0  0  0
   -5.2643    1.7136    2.1678 H   0  0  0  0  0  0  0  0  0  0  0  0
   -4.0494    2.7447    2.9898 H   0  0  0  0  0  0  0  0  0  0  0  0
   -2.1998    0.6624    3.5274 C   0  0  0  0  0  0  0  0  0  0  0  0
   -2.5847    0.2625    4.4868 H   0  0  0  0  0  0  0  0  0  0  0  0
   -1.7825    1.6684    3.7418 H   0  0  0  0  0  0  0  0  0  0  0  0
   -1.3586    0.0172    3.2031 H   0  0  0  0  0  0  0  0  0  0  0  0
   -2.3597   -1.3004    0.3700 C   0  0  0  0  0  0  0  0  0  0  0  0
   -1.8045   -2.3414    1.1366 C   0  0  0  0  0  0  0  0  0  0  0  0
   -1.0045   -2.1050    1.8554 H   0  0  0  0  0  0  0  0  0  0  0  0
   -2.2781   -3.6549    1.0026 C   0  0  0  0  0  0  0  0  0  0  0  0
   -1.8254   -4.4586    1.6027 H   0  0  0  0  0  0  0  0  0  0  0  0
   -3.3386   -3.9308    0.1297 C   0  0  0  0  0  0  0  0  0  0  0  0
   -3.7242   -4.9561    0.0264 H   0  0  0  0  0  0  0  0  0  0  0  0
   -3.9073   -2.8907   -0.6198 C   0  0  0  0  0  0  0  0  0  0  0  0
   -4.7244   -3.1028   -1.3260 H   0  0  0  0  0  0  0  0  0  0  0  0
   -3.4251   -1.5697   -0.5328 C   0  0  0  0  0  0  0  0  0  0  0  0
   -4.0217   -0.5066   -1.3854 C   0  0  0  0  0  0  0  0  0  0  0  0
   -5.4116   -0.2596   -1.3527 C   0  0  0  0  0  0  0  0  0  0  0  0
   -6.0481   -0.8580   -0.6823 H   0  0  0  0  0  0  0  0  0  0  0  0
   -5.9769    0.7533   -2.1426 C   0  0  0  0  0  0  0  0  0  0  0  0
   -7.0609    0.9402   -2.0990 H   0  0  0  0  0  0  0  0  0  0  0  0
   -5.1609    1.5285   -2.9814 C   0  0  0  0  0  0  0  0  0  0  0  0
   -5.6025    2.3246   -3.6001 H   0  0  0  0  0  0  0  0  0  0  0  0
   -3.7796    1.2751   -3.0347 C   0  0  0  0  0  0  0  0  0  0  0  0
   -3.1373    1.8634   -3.7082 H   0  0  0  0  0  0  0  0  0  0  0  0
   -3.2095    0.2665   -2.2451 C   0  0  0  0  0  0  0  0  0  0  0  0
   -2.1322    0.0444   -2.3002 H   0  0  0  0  0  0  0  0  0  0  0  0
    0.4322    2.7454    0.3892 C   0  0  0  0  0  0  0  0  0  0  0  0
    0.6129    3.2004   -0.9397 C   0  0  0  0  0  0  0  0  0  0  0  0
    1.6535    4.1127   -1.1906 C   0  0  0  0  0  0  0  0  0  0  0  0
    1.8135    4.4622   -2.2234 H   0  0  0  0  0  0  0  0  0  0  0  0
    2.5052    4.5696   -0.1669 C   0  0  0  0  0  0  0  0  0  0  0  0
    2.2949    4.0904    1.1399 C   0  0  0  0  0  0  0  0  0  0  0  0
    2.9618    4.4242    1.9512 H   0  0  0  0  0  0  0  0  0  0  0  0
    1.2641    3.1833    1.4450 C   0  0  0  0  0  0  0  0  0  0  0  0
   -0.2144    2.6394   -2.0658 C   0  0  0  0  0  0  0  0  0  0  0  0
   -0.0229    3.1839   -3.0096 H   0  0  0  0  0  0  0  0  0  0  0  0
   -1.3016    2.6859   -1.8549 H   0  0  0  0  0  0  0  0  0  0  0  0
    0.0244    1.5655   -2.2291 H   0  0  0  0  0  0  0  0  0  0  0  0
    3.6006    5.5652   -0.4573 C   0  0  0  0  0  0  0  0  0  0  0  0
    3.9435    5.5016   -1.5087 H   0  0  0  0  0  0  0  0  0  0  0  0
    4.4764    5.4128    0.2041 H   0  0  0  0  0  0  0  0  0  0  0  0
    3.2458    6.6054   -0.2916 H   0  0  0  0  0  0  0  0  0  0  0  0
    1.0860    2.6412    2.8369 C   0  0  0  0  0  0  0  0  0  0  0  0
    1.8474    3.0547    3.5248 H   0  0  0  0  0  0  0  0  0  0  0  0
    1.1629    1.5332    2.8447 H   0  0  0  0  0  0  0  0  0  0  0  0
    0.0861    2.8928    3.2477 H   0  0  0  0  0  0  0  0  0  0  0  0
  1  4  1  0  0  0  0
  2  7  1  0  0  0  0
  3  2  1  0  0  0  0
  3  1  1  0  0  0  0
  4  7  1  0  0  0  0
  4  6  1  0  0  0  0
  5  4  1  0  0  0  0
  7  8  1  6  0  0  0
  7  9  1  0  0  0  0
  9 11  1  0  0  0  0
  9 15  1  0  0  0  0
 10  9  1  0  0  0  0
 11 14  1  0  0  0  0
 11 12  1  0  0  0  0
 13 11  1  0  0  0  0
 15 17  1  0  0  0  0
 15 16  1  0  0  0  0
 18 15  1  0  0  0  0
 19  2  1  0  0  0  0
 19 20  1  0  0  0  0
 20 21  1  0  0  0  0
 22 20  2  0  0  0  0
 22 23  1  0  0  0  0
 24 22  1  0  0  0  0
 25 24  1  0  0  0  0
 26 28  1  0  0  0  0
 26 24  2  0  0  0  0
 27 26  1  0  0  0  0
 28 19  2  0  0  0  0
 29 30  1  0  0  0  0
 29 28  1  0  0  0  0
 30 31  1  0  0  0  0
 32 33  1  0  0  0  0
 32 30  2  0  0  0  0
 34 32  1  0  0  0  0
 35 34  1  0  0  0  0
 36 34  2  0  0  0  0
 36 38  1  0  0  0  0
 37 36  1  0  0  0  0
 38 29  2  0  0  0  0
 39 38  1  0  0  0  0
 40  1  1  0  0  0  0
 40 47  1  0  0  0  0
 41 40  2  0  0  0  0
 42 41  1  0  0  0  0
 42 44  2  0  0  0  0
 43 42  1  0  0  0  0
 44 45  1  0  0  0  0
 45 47  2  0  0  0  0
 45 46  1  0  0  0  0
 47 56  1  0  0  0  0
 48 50  1  0  0  0  0
 48 41  1  0  0  0  0
 49 48  1  0  0  0  0
 51 48  1  0  0  0  0
 52 55  1  0  0  0  0
 52 44  1  0  0  0  0
 52 54  1  0  0  0  0
 53 52  1  0  0  0  0
 56 58  1  0  0  0  0
 56 59  1  0  0  0  0
 56 57  1  0  0  0  0
M  END
