2
q = -1.0

 27 28  0  0  0  0  0  0  0  0999 V2000
   -0.8188   -1.0068    0.0067 N   0  0  0  0  0  0  0  0  0  0  0  0
    2.1100   -0.9700   -0.0064 C   0  0  0  0  0  3  0  0  0  0  0  0
    3.5081   -1.0855   -0.0340 C   0  0  0  0  0  0  0  0  0  0  0  0
    4.1389   -0.1847   -0.0783 H   0  0  0  0  0  0  0  0  0  0  0  0
    4.1283   -2.3499   -0.0028 C   0  0  0  0  0  0  0  0  0  0  0  0
    5.2267   -2.4199   -0.0259 H   0  0  0  0  0  0  0  0  0  0  0  0
    3.3489   -3.5145    0.0607 C   0  0  0  0  0  0  0  0  0  0  0  0
    3.8298   -4.5037    0.0876 H   0  0  0  0  0  0  0  0  0  0  0  0
    1.9528   -3.4117    0.0905 C   0  0  0  0  0  0  0  0  0  0  0  0
    1.3321   -4.3213    0.1402 H   0  0  0  0  0  0  0  0  0  0  0  0
    1.3150   -2.1498    0.0539 C   0  0  0  0  0  0  0  0  0  0  0  0
   -0.1539   -2.1121    0.0789 C   0  0  0  0  0  0  0  0  0  0  0  0
   -0.6552   -3.1028    0.1706 H   0  0  0  0  0  0  0  0  0  0  0  0
   -2.2165   -0.9137   -0.0010 C   0  0  0  0  0  0  0  0  0  0  0  0
   -3.0964   -2.0106   -0.1817 C   0  0  0  0  0  0  0  0  0  0  0  0
   -2.6977   -3.0223   -0.3482 H   0  0  0  0  0  0  0  0  0  0  0  0
   -4.4782   -1.8153   -0.1741 C   0  0  0  0  0  0  0  0  0  0  0  0
   -5.1455   -2.6794   -0.3233 H   0  0  0  0  0  0  0  0  0  0  0  0
   -5.0420   -0.5312    0.0108 C   0  0  0  0  0  0  0  0  0  0  0  0
   -4.1604    0.5551    0.1755 C   0  0  0  0  0  0  0  0  0  0  0  0
   -4.5713    1.5682    0.3094 H   0  0  0  0  0  0  0  0  0  0  0  0
   -2.7722    0.3760    0.1626 C   0  0  0  0  0  0  0  0  0  0  0  0
   -2.0934    1.2363    0.2747 H   0  0  0  0  0  0  0  0  0  0  0  0
   -6.5367   -0.3441    0.0162 C   0  0  0  0  0  0  0  0  0  0  0  0
   -6.9898   -0.6912   -0.9361 H   0  0  0  0  0  0  0  0  0  0  0  0
   -6.8157    0.7174    0.1582 H   0  0  0  0  0  0  0  0  0  0  0  0
   -7.0127   -0.9331    0.8282 H   0  0  0  0  0  0  0  0  0  0  0  0
  1 12  2  0  0  0  0
  2 11  1  0  0  0  0
  3  2  2  0  0  0  0
  3  5  1  0  0  0  0
  4  3  1  0  0  0  0
  5  7  2  0  0  0  0
  6  5  1  0  0  0  0
  7  8  1  0  0  0  0
  7  9  1  0  0  0  0
  9 10  1  0  0  0  0
 11 12  1  0  0  0  0
 11  9  2  0  0  0  0
 12 13  1  0  0  0  0
 14  1  1  0  0  0  0
 14 22  1  0  0  0  0
 15 17  1  0  0  0  0
 15 14  2  0  0  0  0
 16 15  1  0  0  0  0
 17 19  2  0  0  0  0
 18 17  1  0  0  0  0
 19 24  1  0  0  0  0
 19 20  1  0  0  0  0
 20 21  1  0  0  0  0
 22 20  2  0  0  0  0
 22 23  1  0  0  0  0
 24 26  1  0  0  0  0
 24 27  1  0  0  0  0
 25 24  1  0  0  0  0
M  END
