2
q = -1.0, confidence = 0.002

 30 31  0  0  0  0  0  0  0  0999 V2000
   -0.4195    1.0566    0.0487 N   0  0  0  0  0  0  0  0  0  0  0  0
    2.5015    0.6451    0.0314 C   0  0  0  0  0  3  0  0  0  0  0  0
    3.9047    0.5918    0.0251 C   0  0  0  0  0  0  0  0  0  0  0  0
    4.4244   -0.3721   -0.0850 H   0  0  0  0  0  0  0  0  0  0  0  0
    4.6724    1.7649    0.1600 C   0  0  0  0  0  0  0  0  0  0  0  0
    5.7714    1.7022    0.1502 H   0  0  0  0  0  0  0  0  0  0  0  0
    4.0374    3.0067    0.3087 C   0  0  0  0  0  0  0  0  0  0  0  0
    4.6327    3.9256    0.4170 H   0  0  0  0  0  0  0  0  0  0  0  0
    2.6390    3.0710    0.3193 C   0  0  0  0  0  0  0  0  0  0  0  0
    2.1310    4.0424    0.4349 H   0  0  0  0  0  0  0  0  0  0  0  0
    1.8536    1.9028    0.1793 C   0  0  0  0  0  0  0  0  0  0  0  0
    0.3918    2.0520    0.1862 C   0  0  0  0  0  0  0  0  0  0  0  0
    0.0192    3.0929    0.3268 H   0  0  0  0  0  0  0  0  0  0  0  0
   -1.8120    1.2061   -0.0170 C   0  0  0  0  0  0  0  0  0  0  0  0
   -2.6038    0.0819    0.3051 C   0  0  0  0  0  0  0  0  0  0  0  0
   -2.1026   -0.8494    0.6046 H   0  0  0  0  0  0  0  0  0  0  0  0
   -4.0056    0.1184    0.2640 C   0  0  0  0  0  0  0  0  0  0  0  0
   -4.6525    1.3226   -0.1280 C   0  0  0  0  0  0  0  0  0  0  0  0
   -3.8590    2.4361   -0.4729 C   0  0  0  0  0  0  0  0  0  0  0  0
   -4.3579    3.3613   -0.8033 H   0  0  0  0  0  0  0  0  0  0  0  0
   -2.4626    2.3935   -0.4258 C   0  0  0  0  0  0  0  0  0  0  0  0
   -1.8783    3.2709   -0.7401 H   0  0  0  0  0  0  0  0  0  0  0  0
   -4.8022   -1.1112    0.6157 C   0  0  0  0  0  0  0  0  0  0  0  0
   -4.1404   -1.9771    0.8064 H   0  0  0  0  0  0  0  0  0  0  0  0
   -5.4997   -1.3881   -0.2026 H   0  0  0  0  0  0  0  0  0  0  0  0
   -5.4309   -0.9433    1.5164 H   0  0  0  0  0  0  0  0  0  0  0  0
   -6.1541    1.3985   -0.1938 C   0  0  0  0  0  0  0  0  0  0  0  0
   -6.4989    2.4048   -0.4993 H   0  0  0  0  0  0  0  0  0  0  0  0
   -6.6167    1.1607    0.7877 H   0  0  0  0  0  0  0  0  0  0  0  0
   -6.5688    0.6622   -0.9151 H   0  0  0  0  0  0  0  0  0  0  0  0
  1 12  2  0  0  0  0
  2 11  1  0  0  0  0
  3  2  2  0  0  0  0
  3  5  1  0  0  0  0
  4  3  1  0  0  0  0
  5  7  2  0  0  0  0
  6  5  1  0  0  0  0
  7  9  1  0  0  0  0
  7  8  1  0  0  0  0
  9 10  1  0  0  0  0
 11 12  1  0  0  0  0
 11  9  2  0  0  0  0
 12 13  1  0  0  0  0
 14  1  1  0  0  0  0
 14 15  1  0  0  0  0
 15 16  1  0  0  0  0
 17 15  2  0  0  0  0
 17 23  1  0  0  0  0
 18 17  1  0  0  0  0
 19 21  1  0  0  0  0
 19 18  2  0  0  0  0
 20 19  1  0  0  0  0
 21 14  2  0  0  0  0
 22 21  1  0  0  0  0
 23 24  1  0  0  0  0
 23 26  1  0  0  0  0
 25 23  1  0  0  0  0
 27 18  1  0  0  0  0
 27 29  1  0  0  0  0
 28 27  1  0  0  0  0
 30 27  1  0  0  0  0
M  END
