1
q = -1.0

 30 31  0  0  0  0  0  0  0  0999 V2000
   -0.4505   -0.6256   -0.4387 C   0  0  0  0  0  2  0  0  0  0  0  0
   -1.0343   -1.5555   -1.2859 C   0  0  0  0  0  3  0  0  0  0  0  0
   -2.4624   -1.6234   -1.0351 C   0  0  0  0  0  0  0  0  0  0  0  0
   -2.7030   -0.5824    0.0626 C   0  0  0  0  0  0  0  0  0  0  0  0
   -3.8751   -0.3612    0.7078 C   0  0  0  0  0  0  0  0  0  0  0  0
   -5.1329   -1.0722    0.3357 C   0  0  0  0  0  0  0  0  0  0  0  0
   -6.6272   -1.5082   -1.4292 C   0  0  0  0  0  0  0  0  0  0  0  0
   -0.4653    4.3081    4.0564 C   0  0  0  0  0  0  0  0  0  0  0  0
   -3.3265   -2.3683   -1.5040 O   0  0  0  0  0  0  0  0  0  0  0  0
   -5.7180   -1.8361    1.0830 O   0  0  0  0  0  0  0  0  0  0  0  0
   -5.5680   -0.7109   -0.8919 O   0  0  0  0  0  0  0  0  0  0  0  0
   -1.4447   -0.0261    0.3654 N   0  0  0  0  0  0  0  0  0  0  0  0
   -1.2235    1.0246    1.2897 C   0  0  0  0  0  0  0  0  0  0  0  0
   -2.0626    2.1585    1.3060 C   0  0  0  0  0  0  0  0  0  0  0  0
   -1.8262    3.2020    2.2117 C   0  0  0  0  0  0  0  0  0  0  0  0
   -0.7477    3.1636    3.1174 C   0  0  0  0  0  0  0  0  0  0  0  0
    0.0824    2.0234    3.0919 C   0  0  0  0  0  0  0  0  0  0  0  0
   -0.1496    0.9688    2.2022 C   0  0  0  0  0  0  0  0  0  0  0  0
   -2.9008    2.2249    0.5979 H   0  0  0  0  0  0  0  0  0  0  0  0
   -2.4938    4.0781    2.2039 H   0  0  0  0  0  0  0  0  0  0  0  0
    0.9316    1.9548    3.7903 H   0  0  0  0  0  0  0  0  0  0  0  0
    0.5040    0.0872    2.2056 H   0  0  0  0  0  0  0  0  0  0  0  0
   -0.5044   -2.1648   -2.0256 H   0  0  0  0  0  0  0  0  0  0  0  0
   -3.9192    0.2688    1.6100 H   0  0  0  0  0  0  0  0  0  0  0  0
    0.3709    4.9355    3.6785 H   0  0  0  0  0  0  0  0  0  0  0  0
   -1.3463    4.9684    4.1748 H   0  0  0  0  0  0  0  0  0  0  0  0
   -0.1672    3.9476    5.0615 H   0  0  0  0  0  0  0  0  0  0  0  0
   -7.4220   -1.6805   -0.6765 H   0  0  0  0  0  0  0  0  0  0  0  0
   -7.0234   -0.9567   -2.3007 H   0  0  0  0  0  0  0  0  0  0  0  0
   -6.2128   -2.4847   -1.7539 H   0  0  0  0  0  0  0  0  0  0  0  0
  1 12  1  0  0  0  0
  2  3  1  0  0  0  0
  2  1  1  0  0  0  0
  3  4  1  0  0  0  0
  4 12  1  0  0  0  0
  4  5  2  0  0  0  0
  5 24  1  0  0  0  0
  6  5  1  0  0  0  0
  6 10  2  0  0  0  0
  7 11  1  0  0  0  0
  7 28  1  0  0  0  0
  8 26  1  0  0  0  0
  8 27  1  0  0  0  0
  9  3  2  0  0  0  0
 11  6  1  0  0  0  0
 12 13  1  0  0  0  0
 13 14  2  0  0  0  0
 13 18  1  0  0  0  0
 14 15  1  0  0  0  0
 15 16  2  0  0  0  0
 16  8  1  0  0  0  0
 17 16  1  0  0  0  0
 17 21  1  0  0  0  0
 18 22  1  0  0  0  0
 18 17  2  0  0  0  0
 19 14  1  0  0  0  0
 20 15  1  0  0  0  0
 23  2  1  0  0  0  0
 25  8  1  0  0  0  0
 29  7  1  0  0  0  0
 30  7  1  0  0  0  0
M  END
