2
q = 0.0, confidence = 0.916

 13 12  0  0  0  0  0  0  0  0999 V2000
   -2.9831   -1.7986    0.7605 O   0  0  0  0  0  0  0  0  0  0  0  0
   -2.6698   -1.0869   -0.3765 C   0  0  0  0  0  3  0  0  0  0  0  0
   -2.8573    0.3576   -0.5083 C   0  0  0  0  0  3  0  0  0  0  0  0
   -3.5936    1.1703    0.5401 C   0  0  0  0  0  0  0  0  0  0  0  0
   -5.1015    0.8834    0.5128 C   0  0  0  0  0  0  0  0  0  0  0  0
   -2.8102   -1.7156   -1.2771 H   0  0  0  0  0  0  0  0  0  0  0  0
   -3.0791    0.6779   -1.5457 H   0  0  0  0  0  0  0  0  0  0  0  0
   -3.1778    0.9529    1.5443 H   0  0  0  0  0  0  0  0  0  0  0  0
   -3.4125    2.2515    0.3606 H   0  0  0  0  0  0  0  0  0  0  0  0
   -5.2934   -0.1851    0.7381 H   0  0  0  0  0  0  0  0  0  0  0  0
   -5.5423    1.1024   -0.4825 H   0  0  0  0  0  0  0  0  0  0  0  0
   -5.6430    1.4948    1.2635 H   0  0  0  0  0  0  0  0  0  0  0  0
   -2.5509   -1.3131    1.5187 H   0  0  0  0  0  0  0  0  0  0  0  0
  1 13  1  0  0  0  0
  2  1  1  0  0  0  0
  3  2  1  0  0  0  0
  3  4  1  0  0  0  0
  4  8  1  0  0  0  0
  5  4  1  0  0  0  0
  5 10  1  0  0  0  0
  5 12  1  0  0  0  0
  6  2  1  0  0  0  0
  7  3  1  0  0  0  0
  9  4  1  0  0  0  0
 11  5  1  0  0  0  0
M  END
