4
q = 0.0, confidence = 0.934

 23 23  0  0  1  0  0  0  0  0999 V2000
    1.6884    0.0009   -1.6604 C   0  0  0  0  0  0  0  0  0  0  0  0
    1.3253    1.1565   -0.7365 C   0  0  1  0  0  3  0  0  0  0  0  0
    1.5047    0.7412    0.6291 C   0  0  1  0  0  3  0  0  0  0  0  0
    1.5055   -0.7396    0.6291 C   0  0  1  0  0  3  0  0  0  0  0  0
    1.3265   -1.1551   -0.7365 C   0  0  2  0  0  3  0  0  0  0  0  0
    1.2100    2.5699   -1.2054 C   0  0  0  0  0  0  0  0  0  0  0  0
    1.6798    1.6173    1.8261 C   0  0  0  0  0  0  0  0  0  0  0  0
    1.6816   -1.6156    1.8260 C   0  0  0  0  0  0  0  0  0  0  0  0
    1.2127   -2.5687   -1.2053 C   0  0  0  0  0  0  0  0  0  0  0  0
    1.0881    0.0006   -2.5926 H   0  0  0  0  0  0  0  0  0  0  0  0
    2.7692    0.0015   -1.9503 H   0  0  0  0  0  0  0  0  0  0  0  0
    2.2200    3.0046   -1.3736 H   0  0  0  0  0  0  0  0  0  0  0  0
    0.6678    3.1995   -0.4751 H   0  0  0  0  0  0  0  0  0  0  0  0
    0.6579    2.6180   -2.1636 H   0  0  0  0  0  0  0  0  0  0  0  0
    1.1949    2.5993    1.6735 H   0  0  0  0  0  0  0  0  0  0  0  0
    1.2461    1.1574    2.7342 H   0  0  0  0  0  0  0  0  0  0  0  0
    2.7609    1.7943    2.0141 H   0  0  0  0  0  0  0  0  0  0  0  0
    1.1969   -2.5978    1.6737 H   0  0  0  0  0  0  0  0  0  0  0  0
    1.2480   -1.1558    2.7343 H   0  0  0  0  0  0  0  0  0  0  0  0
    2.7628   -1.7921    2.0135 H   0  0  0  0  0  0  0  0  0  0  0  0
    2.2232   -3.0025   -1.3731 H   0  0  0  0  0  0  0  0  0  0  0  0
    0.6708   -3.1987   -0.4752 H   0  0  0  0  0  0  0  0  0  0  0  0
    0.6611   -2.6174   -2.1637 H   0  0  0  0  0  0  0  0  0  0  0  0
  1  5  1  0  0  0  0
  1  2  1  0  0  0  0
  2  6  1  6  0  0  0
  2  3  1  0  0  0  0
  3  7  1  6  0  0  0
  4  3  1  0  0  0  0
  4  8  1  6  0  0  0
  5  9  1  6  0  0  0
  5  4  1  0  0  0  0
  6 13  1  0  0  0  0
  7 17  1  0  0  0  0
  7 16  1  0  0  0  0
  8 20  1  0  0  0  0
  8 19  1  0  0  0  0
  9 22  1  0  0  0  0
 10  1  1  0  0  0  0
 11  1  1  0  0  0  0
 12  6  1  0  0  0  0
 14  6  1  0  0  0  0
 15  7  1  0  0  0  0
 18  8  1  0  0  0  0
 21  9  1  0  0  0  0
 23  9  1  0  0  0  0
M  END
