5
q = -1.0, confidence = 0.0

 26 27  0  0  0  0  0  0  0  0999 V2000
    0.6272    0.3730    0.9169 C   0  0  0  0  0  0  0  0  0  0  0  0
   -0.0967    1.6159    0.7917 C   0  0  0  0  0  0  0  0  0  0  0  0
   -1.3319    1.4566    1.4840 C   0  0  0  0  0  0  0  0  0  0  0  0
   -2.1342    2.2021    1.5323 H   0  0  0  0  0  0  0  0  0  0  0  0
   -1.3730    0.1467    2.0456 C   0  0  0  0  0  3  0  0  0  0  0  0
   -2.2104   -0.2873    2.6064 H   0  0  0  0  0  0  0  0  0  0  0  0
   -0.1584   -0.5288    1.7209 C   0  0  0  0  0  0  0  0  0  0  0  0
    0.3654    2.8543    0.0894 C   0  0  0  0  0  0  0  0  0  0  0  0
    0.9278    3.5061    0.7912 H   0  0  0  0  0  0  0  0  0  0  0  0
   -0.4928    3.4372   -0.2961 H   0  0  0  0  0  0  0  0  0  0  0  0
    1.0317    2.6106   -0.7589 H   0  0  0  0  0  0  0  0  0  0  0  0
    0.2567   -1.8717    2.2319 C   0  0  0  0  0  0  0  0  0  0  0  0
   -0.6118   -2.5505    2.3247 H   0  0  0  0  0  0  0  0  0  0  0  0
    1.0041   -2.3529    1.5761 H   0  0  0  0  0  0  0  0  0  0  0  0
    0.7147   -1.7555    3.2373 H   0  0  0  0  0  0  0  0  0  0  0  0
    1.9657    0.0974    0.3476 C   0  0  0  0  0  0  0  0  0  0  0  0
    2.2067   -1.0253   -0.4760 C   0  0  0  0  0  0  0  0  0  0  0  0
    1.3725   -1.6940   -0.7359 H   0  0  0  0  0  0  0  0  0  0  0  0
    3.4877   -1.2684   -0.9889 C   0  0  0  0  0  0  0  0  0  0  0  0
    3.6559   -2.1425   -1.6361 H   0  0  0  0  0  0  0  0  0  0  0  0
    4.5479   -0.3968   -0.6924 C   0  0  0  0  0  0  0  0  0  0  0  0
    5.5522   -0.5886   -1.0995 H   0  0  0  0  0  0  0  0  0  0  0  0
    4.3192    0.7236    0.1211 C   0  0  0  0  0  0  0  0  0  0  0  0
    5.1445    1.4117    0.3594 H   0  0  0  0  0  0  0  0  0  0  0  0
    3.0383    0.9698    0.6358 C   0  0  0  0  0  0  0  0  0  0  0  0
    2.8665    1.8411    1.2853 H   0  0  0  0  0  0  0  0  0  0  0  0
  1  7  2  0  0  0  0
  2  1  1  0  0  0  0
  2  3  2  0  0  0  0
  3  4  1  0  0  0  0
  3  5  1  0  0  0  0
  5  6  1  0  0  0  0
  7  5  1  0  0  0  0
  7 12  1  0  0  0  0
  8  9  1  0  0  0  0
  8  2  1  0  0  0  0
 10  8  1  0  0  0  0
 11  8  1  0  0  0  0
 12 13  1  0  0  0  0
 12 15  1  0  0  0  0
 14 12  1  0  0  0  0
 16 25  1  0  0  0  0
 16  1  1  0  0  0  0
 17 16  2  0  0  0  0
 18 17  1  0  0  0  0
 19 21  2  0  0  0  0
 19 17  1  0  0  0  0
 20 19  1  0  0  0  0
 21 23  1  0  0  0  0
 22 21  1  0  0  0  0
 23 24  1  0  0  0  0
 23 25  2  0  0  0  0
 25 26  1  0  0  0  0
M  END
