11
q = -1.0

 16 15  0  0  0  0  0  0  0  0999 V2000
    3.7072   -1.2288    0.0361 O   0  0  0  0  0  0  0  0  0  0  0  0
    4.0139    0.8884    0.7976 O   0  0  0  0  0  0  0  0  0  0  0  0
    4.9996   -2.3680   -1.6026 C   0  0  0  0  0  0  0  0  0  0  0  0
    4.0645   -2.6014   -2.1494 H   0  0  0  0  0  0  0  0  0  0  0  0
    5.2154   -3.2122   -0.9171 H   0  0  0  0  0  0  0  0  0  0  0  0
    5.8319   -2.2889   -2.3302 H   0  0  0  0  0  0  0  0  0  0  0  0
    4.8390   -1.0702   -0.8357 C   0  0  0  0  0  0  0  0  0  0  0  0
    5.7370   -0.8160   -0.2322 H   0  0  0  0  0  0  0  0  0  0  0  0
    4.6431   -0.2106   -1.5112 H   0  0  0  0  0  0  0  0  0  0  0  0
    3.3458   -0.1390    0.7683 C   0  0  0  0  0  0  0  0  0  0  0  0
    2.0607   -0.3778    1.4859 C   0  0  0  0  0  3  0  0  0  0  0  0
    1.9187   -1.4679    1.6087 H   0  0  0  0  0  0  0  0  0  0  0  0
    2.0025    0.3473    2.8183 C   0  0  0  0  0  0  0  0  0  0  0  0
    2.2632    1.4167    2.7056 H   0  0  0  0  0  0  0  0  0  0  0  0
    2.7466   -0.0930    3.5190 H   0  0  0  0  0  0  0  0  0  0  0  0
    1.0088    0.2696    3.2954 H   0  0  0  0  0  0  0  0  0  0  0  0
  1 10  1  0  0  0  0
  3  5  1  0  0  0  0
  3  7  1  0  0  0  0
  4  3  1  0  0  0  0
  6  3  1  0  0  0  0
  7  8  1  0  0  0  0
  7  1  1  0  0  0  0
  9  7  1  0  0  0  0
 10  2  2  0  0  0  0
 10 11  1  0  0  0  0
 11 12  1  0  0  0  0
 11 13  1  0  0  0  0
 13 16  1  0  0  0  0
 13 15  1  0  0  0  0
 14 13  1  0  0  0  0
M  END
