2
q = -1.0

 21 21  0  0  0  0  0  0  0  0999 V2000
   -0.1967   -0.6128   -2.3677 C   0  0  0  0  0  3  0  0  0  0  0  0
   -1.0248    0.4651   -1.9166 C   0  0  0  0  0  3  0  0  0  0  0  0
   -2.0649    0.3187   -0.9674 C   0  0  0  0  0  3  0  0  0  0  0  0
   -2.7439    1.5740   -0.4392 C   0  0  0  0  0  0  0  0  0  0  0  0
   -3.4117    1.3737    0.9279 C   0  0  0  0  0  0  0  0  0  0  0  0
   -4.3415    0.1531    0.9280 C   0  0  0  0  0  0  0  0  0  0  0  0
   -3.6146   -1.1135    0.4573 C   0  0  0  0  0  0  0  0  0  0  0  0
   -2.9660   -0.9072   -0.9176 C   0  0  0  0  0  0  0  0  0  0  0  0
    0.6172   -0.3614   -3.0644 H   0  0  0  0  0  0  0  0  0  0  0  0
   -0.6258   -1.6157   -2.5167 H   0  0  0  0  0  0  0  0  0  0  0  0
   -0.6936    1.4985   -2.1367 H   0  0  0  0  0  0  0  0  0  0  0  0
   -2.0202    2.4153   -0.4035 H   0  0  0  0  0  0  0  0  0  0  0  0
   -3.5318    1.8666   -1.1746 H   0  0  0  0  0  0  0  0  0  0  0  0
   -2.6174    1.2290    1.6922 H   0  0  0  0  0  0  0  0  0  0  0  0
   -3.9727    2.2890    1.2124 H   0  0  0  0  0  0  0  0  0  0  0  0
   -4.7719   -0.0008    1.9399 H   0  0  0  0  0  0  0  0  0  0  0  0
   -5.2039    0.3522    0.2510 H   0  0  0  0  0  0  0  0  0  0  0  0
   -2.8222   -1.3855    1.1863 H   0  0  0  0  0  0  0  0  0  0  0  0
   -4.3206   -1.9688    0.4141 H   0  0  0  0  0  0  0  0  0  0  0  0
   -3.7783   -0.7342   -1.6660 H   0  0  0  0  0  0  0  0  0  0  0  0
   -2.4301   -1.8204   -1.2378 H   0  0  0  0  0  0  0  0  0  0  0  0
  1  2  1  0  0  0  0
  2  3  1  0  0  0  0
  3  8  1  0  0  0  0
  3  4  1  0  0  0  0
  4 12  1  0  0  0  0
  4  5  1  0  0  0  0
  5  6  1  0  0  0  0
  5 15  1  0  0  0  0
  5 14  1  0  0  0  0
  6 16  1  0  0  0  0
  7  6  1  0  0  0  0
  7 18  1  0  0  0  0
  8  7  1  0  0  0  0
  9  1  1  0  0  0  0
 10  1  1  0  0  0  0
 11  2  1  0  0  0  0
 13  4  1  0  0  0  0
 17  6  1  0  0  0  0
 19  7  1  0  0  0  0
 20  8  1  0  0  0  0
 21  8  1  0  0  0  0
M  END
