6
q = -1.0

 26 26  0  0  0  0  0  0  0  0999 V2000
   -4.1480   -0.0198    0.0009 N   0  0  0  0  0  0  0  0  0  0  0  0
   -2.9274   -0.7929    0.0002 B   0  0  0  0  0  0  0  0  0  0  0  0
   -2.1929   -1.2460    1.2893 C   0  0  0  0  0  0  0  0  0  0  0  0
   -2.4858   -0.9204    2.3041 H   0  0  0  0  0  0  0  0  0  0  0  0
   -1.1942   -2.2419    1.2466 C   0  0  0  0  0  0  0  0  0  0  0  0
   -0.6854   -2.7066   -0.0016 C   0  0  0  0  0  3  0  0  0  0  0  0
    0.1203   -3.4566   -0.0022 H   0  0  0  0  0  0  0  0  0  0  0  0
   -1.1948   -2.2404   -1.2489 C   0  0  0  0  0  0  0  0  0  0  0  0
   -2.1934   -1.2444   -1.2899 C   0  0  0  0  0  0  0  0  0  0  0  0
   -2.4869   -0.9176   -2.3042 H   0  0  0  0  0  0  0  0  0  0  0  0
   -0.6298   -2.8291    2.5205 C   0  0  0  0  0  0  0  0  0  0  0  0
    0.3783   -3.2599    2.3668 H   0  0  0  0  0  0  0  0  0  0  0  0
   -1.2921   -3.6443    2.8817 H   0  0  0  0  0  0  0  0  0  0  0  0
   -0.5668   -2.0714    3.3258 H   0  0  0  0  0  0  0  0  0  0  0  0
   -0.6310   -2.8258   -2.5238 C   0  0  0  0  0  0  0  0  0  0  0  0
   -1.2937   -3.6402   -2.8862 H   0  0  0  0  0  0  0  0  0  0  0  0
    0.3770   -3.2574   -2.3711 H   0  0  0  0  0  0  0  0  0  0  0  0
   -0.5678   -2.0670   -3.3281 H   0  0  0  0  0  0  0  0  0  0  0  0
   -4.8237    0.4124   -1.2011 C   0  0  0  0  0  0  0  0  0  0  0  0
   -4.3460   -0.0152   -2.1010 H   0  0  0  0  0  0  0  0  0  0  0  0
   -4.8253    1.5255   -1.3099 H   0  0  0  0  0  0  0  0  0  0  0  0
   -5.8932    0.0934   -1.2030 H   0  0  0  0  0  0  0  0  0  0  0  0
   -4.8235    0.4105    1.2037 C   0  0  0  0  0  0  0  0  0  0  0  0
   -4.3453   -0.0179    2.1029 H   0  0  0  0  0  0  0  0  0  0  0  0
   -5.8928    0.0908    1.2056 H   0  0  0  0  0  0  0  0  0  0  0  0
   -4.8259    1.5234    1.3138 H   0  0  0  0  0  0  0  0  0  0  0  0
  1 23  1  0  0  0  0
  2  1  1  0  0  0  0
  2  3  1  0  0  0  0
  3  4  1  0  0  0  0
  5  3  2  0  0  0  0
  5 11  1  0  0  0  0
  6  5  1  0  0  0  0
  7  6  1  0  0  0  0
  8  6  1  0  0  0  0
  9  8  2  0  0  0  0
  9  2  1  0  0  0  0
 10  9  1  0  0  0  0
 11 13  1  0  0  0  0
 11 14  1  0  0  0  0
 12 11  1  0  0  0  0
 15 17  1  0  0  0  0
 15  8  1  0  0  0  0
 16 15  1  0  0  0  0
 18 15  1  0  0  0  0
 19  1  1  0  0  0  0
 20 19  1  0  0  0  0
 21 19  1  0  0  0  0
 22 19  1  0  0  0  0
 23 25  1  0  0  0  0
 23 26  1  0  0  0  0
 23 24  1  0  0  0  0
M  END
