1
q = -1.0

 18 18  0  0  0  0  0  0  0  0999 V2000
    1.3169    1.2990   -0.8613 C   0  0  0  0  0  3  0  0  0  0  0  0
    2.5913    1.5712   -0.4404 N   0  0  0  0  0  0  0  0  0  0  0  0
    3.1352    2.5487   -1.2159 N   0  0  0  0  0  0  0  0  0  0  0  0
    2.2235    2.8678   -2.0831 N   0  0  0  0  0  0  0  0  0  0  0  0
    1.0903    2.1233   -1.8960 N   0  0  0  0  0  0  0  0  0  0  0  0
    3.3351    0.9883    0.6626 C   0  0  0  0  0  0  0  0  0  0  0  0
    3.6678    1.8081    1.3342 H   0  0  0  0  0  0  0  0  0  0  0  0
    2.6101    0.3641    1.2270 H   0  0  0  0  0  0  0  0  0  0  0  0
    4.5381    0.1594    0.2104 C   0  0  0  0  0  0  0  0  0  0  0  0
    5.2156    0.8116   -0.3803 H   0  0  0  0  0  0  0  0  0  0  0  0
    4.1891   -0.6335   -0.4870 H   0  0  0  0  0  0  0  0  0  0  0  0
    5.2903   -0.4789    1.3804 C   0  0  0  0  0  0  0  0  0  0  0  0
    5.6269    0.3199    2.0778 H   0  0  0  0  0  0  0  0  0  0  0  0
    4.5870   -1.1110    1.9685 H   0  0  0  0  0  0  0  0  0  0  0  0
    6.4894   -1.3174    0.9374 C   0  0  0  0  0  0  0  0  0  0  0  0
    7.0183   -1.7643    1.8026 H   0  0  0  0  0  0  0  0  0  0  0  0
    6.1755   -2.1485    0.2716 H   0  0  0  0  0  0  0  0  0  0  0  0
    7.2229   -0.7038    0.3745 H   0  0  0  0  0  0  0  0  0  0  0  0
  1  2  1  0  0  0  0
  2  6  1  0  0  0  0
  3  2  1  0  0  0  0
  4  5  1  0  0  0  0
  4  3  2  0  0  0  0
  5  1  2  0  0  0  0
  6  8  1  0  0  0  0
  6  7  1  0  0  0  0
  9  6  1  0  0  0  0
  9 12  1  0  0  0  0
 10  9  1  0  0  0  0
 11  9  1  0  0  0  0
 12 14  1  0  0  0  0
 12 13  1  0  0  0  0
 15 12  1  0  0  0  0
 15 16  1  0  0  0  0
 17 15  1  0  0  0  0
 18 15  1  0  0  0  0
M  END
