12
q = 0.0, confidence = 0.992

 25 26  0  0  1  0  0  0  0  0999 V2000
   -2.8676   -0.3793   -0.1785 N   0  0  0  0  0  0  0  0  0  0  0  0
   -4.0195   -0.3344    0.5049 C   0  0  0  0  0  0  0  0  0  0  0  0
   -4.4401    0.6664    0.6999 H   0  0  0  0  0  0  0  0  0  0  0  0
   -4.6434   -1.4973    0.9829 C   0  0  0  0  0  0  0  0  0  0  0  0
   -5.6001   -1.4328    1.5194 H   0  0  0  0  0  0  0  0  0  0  0  0
   -3.9930   -2.7302    0.7824 C   0  0  0  0  0  0  0  0  0  0  0  0
   -4.4381   -3.6576    1.1749 H   0  0  0  0  0  0  0  0  0  0  0  0
   -2.7916   -2.7828    0.0657 C   0  0  0  0  0  0  0  0  0  0  0  0
   -2.2664   -3.7308   -0.1149 H   0  0  0  0  0  0  0  0  0  0  0  0
   -2.2718   -1.5818   -0.4669 C   0  0  0  0  0  0  0  0  0  0  0  0
   -1.0891   -1.3588   -1.3063 C   0  0  2  0  0  3  0  0  0  0  0  0
   -1.2580   -0.2913   -2.2873 C   0  0  0  0  0  3  0  0  0  0  0  0
   -2.2608   -0.1428   -2.7292 H   0  0  0  0  0  0  0  0  0  0  0  0
   -0.4336   -0.1455   -3.0059 H   0  0  0  0  0  0  0  0  0  0  0  0
    0.0927   -2.2434   -1.2266 C   0  0  0  0  0  0  0  0  0  0  0  0
    0.8704   -2.5438   -2.3684 C   0  0  0  0  0  0  0  0  0  0  0  0
    0.5469   -2.1664   -3.3499 H   0  0  0  0  0  0  0  0  0  0  0  0
    2.0386   -3.3125   -2.2670 C   0  0  0  0  0  0  0  0  0  0  0  0
    2.6283   -3.5271   -3.1717 H   0  0  0  0  0  0  0  0  0  0  0  0
    2.4554   -3.8123   -1.0235 C   0  0  0  0  0  0  0  0  0  0  0  0
    3.3742   -4.4128   -0.9444 H   0  0  0  0  0  0  0  0  0  0  0  0
    1.6870   -3.5331    0.1204 C   0  0  0  0  0  0  0  0  0  0  0  0
    2.0061   -3.9105    1.1047 H   0  0  0  0  0  0  0  0  0  0  0  0
    0.5264   -2.7575    0.0215 C   0  0  0  0  0  0  0  0  0  0  0  0
   -0.0420   -2.5077    0.9304 H   0  0  0  0  0  0  0  0  0  0  0  0
  1  2  1  0  0  0  0
  2  3  1  0  0  0  0
  2  4  2  0  0  0  0
  4  5  1  0  0  0  0
  6  4  1  0  0  0  0
  6  7  1  0  0  0  0
  8  6  2  0  0  0  0
  9  8  1  0  0  0  0
 10  1  2  0  0  0  0
 10  8  1  0  0  0  0
 11 12  1  6  0  0  0
 11 15  1  0  0  0  0
 11 10  1  0  0  0  0
 13 12  1  0  0  0  0
 14 12  1  0  0  0  0
 15 24  1  0  0  0  0
 16 18  1  0  0  0  0
 16 15  2  0  0  0  0
 17 16  1  0  0  0  0
 18 20  2  0  0  0  0
 19 18  1  0  0  0  0
 20 21  1  0  0  0  0
 20 22  1  0  0  0  0
 22 23  1  0  0  0  0
 24 22  2  0  0  0  0
 24 25  1  0  0  0  0
M  END
