7
q = 0.0, confidence = 0.978

 78 80  0  0  0  0  0  0  0  0999 V2000
   -0.9513   -0.0123   -0.2719 N   0  0  0  0  0  0  0  0  0  0  0  0
    1.1125    0.5796   -0.5437 N   0  0  0  0  0  0  0  0  0  0  0  0
   -2.0349    1.1008   -2.1922 N   0  0  0  0  0  0  0  0  0  0  0  0
   -2.3856    3.4843   -0.2983 N   0  0  0  0  0  0  0  0  0  0  0  0
   -1.3229    3.9592   -0.6950 N   0  0  0  0  0  4  0  0  0  0  0  0
   -0.2913    4.4196   -0.9299 N   0  0  0  0  0  2  0  0  0  0  0  0
    0.3125   -0.1879    0.2476 C   0  0  0  0  0  2  0  0  0  0  0  0
   -0.9318    0.8445   -1.3863 C   0  0  0  0  0  0  0  0  0  0  0  0
    0.3885    1.2227   -1.5491 C   0  0  0  0  0  0  0  0  0  0  0  0
   -2.0618   -0.8075    0.1788 C   0  0  0  0  0  0  0  0  0  0  0  0
   -2.3544   -1.9990   -0.5247 C   0  0  0  0  0  0  0  0  0  0  0  0
   -3.4611   -2.7536   -0.0918 C   0  0  0  0  0  0  0  0  0  0  0  0
   -4.2277   -2.3440    1.0054 C   0  0  0  0  0  0  0  0  0  0  0  0
   -3.8914   -1.1786    1.7071 C   0  0  0  0  0  0  0  0  0  0  0  0
   -2.8002   -0.3836    1.3118 C   0  0  0  0  0  0  0  0  0  0  0  0
   -1.4635   -2.5061   -1.6499 C   0  0  0  0  0  0  0  0  0  0  0  0
   -2.2442   -2.7333   -2.9529 C   0  0  0  0  0  0  0  0  0  0  0  0
   -0.7017   -3.7643   -1.1918 C   0  0  0  0  0  0  0  0  0  0  0  0
   -2.3844    0.8404    2.1158 C   0  0  0  0  0  0  0  0  0  0  0  0
   -1.5446    0.3976    3.3286 C   0  0  0  0  0  0  0  0  0  0  0  0
   -3.5694    1.7181    2.5409 C   0  0  0  0  0  0  0  0  0  0  0  0
    2.5397    0.6531   -0.3839 C   0  0  0  0  0  0  0  0  0  0  0  0
    3.0732    1.7151    0.3857 C   0  0  0  0  0  0  0  0  0  0  0  0
    4.4721    1.7858    0.5091 C   0  0  0  0  0  0  0  0  0  0  0  0
    5.2968    0.8300   -0.1004 C   0  0  0  0  0  0  0  0  0  0  0  0
    4.7381   -0.2242   -0.8315 C   0  0  0  0  0  0  0  0  0  0  0  0
    3.3432   -0.3405   -0.9890 C   0  0  0  0  0  0  0  0  0  0  0  0
    2.1530    2.6686    1.1358 C   0  0  0  0  0  0  0  0  0  0  0  0
    1.8707    2.1005    2.5409 C   0  0  0  0  0  0  0  0  0  0  0  0
    2.6746    4.1089    1.1994 C   0  0  0  0  0  0  0  0  0  0  0  0
    2.7486   -1.5071   -1.7670 C   0  0  0  0  0  0  0  0  0  0  0  0
    3.1233   -1.4308   -3.2568 C   0  0  0  0  0  0  0  0  0  0  0  0
    3.1396   -2.8565   -1.1402 C   0  0  0  0  0  0  0  0  0  0  0  0
   -1.7315    1.6198   -3.5152 C   0  0  0  0  0  0  0  0  0  0  0  0
   -3.2888    1.5420   -1.5939 C   0  0  0  0  0  0  0  0  0  0  0  0
   -3.3808    3.0497   -1.2827 C   0  0  0  0  0  0  0  0  0  0  0  0
    0.8601    1.9021   -2.2615 H   0  0  0  0  0  0  0  0  0  0  0  0
   -3.7129   -3.6889   -0.6143 H   0  0  0  0  0  0  0  0  0  0  0  0
   -5.0867   -2.9503    1.3309 H   0  0  0  0  0  0  0  0  0  0  0  0
   -4.4835   -0.8831    2.5858 H   0  0  0  0  0  0  0  0  0  0  0  0
   -0.7048   -1.7251   -1.8579 H   0  0  0  0  0  0  0  0  0  0  0  0
   -1.5604   -3.0584   -3.7634 H   0  0  0  0  0  0  0  0  0  0  0  0
   -3.0178   -3.5205   -2.8382 H   0  0  0  0  0  0  0  0  0  0  0  0
   -2.7500   -1.8019   -3.2790 H   0  0  0  0  0  0  0  0  0  0  0  0
   -1.3979   -4.6063   -0.9972 H   0  0  0  0  0  0  0  0  0  0  0  0
    0.0141   -4.0908   -1.9741 H   0  0  0  0  0  0  0  0  0  0  0  0
   -0.1317   -3.5762   -0.2578 H   0  0  0  0  0  0  0  0  0  0  0  0
   -1.7350    1.4609    1.4646 H   0  0  0  0  0  0  0  0  0  0  0  0
   -0.6754   -0.2140    3.0042 H   0  0  0  0  0  0  0  0  0  0  0  0
   -1.1613    1.2762    3.8863 H   0  0  0  0  0  0  0  0  0  0  0  0
   -2.1484   -0.2213    4.0240 H   0  0  0  0  0  0  0  0  0  0  0  0
   -3.2027    2.6463    3.0225 H   0  0  0  0  0  0  0  0  0  0  0  0
   -4.2260    1.2044    3.2730 H   0  0  0  0  0  0  0  0  0  0  0  0
   -4.1933    2.0144    1.6735 H   0  0  0  0  0  0  0  0  0  0  0  0
    4.9230    2.5958    1.1006 H   0  0  0  0  0  0  0  0  0  0  0  0
    6.3898    0.9017    0.0086 H   0  0  0  0  0  0  0  0  0  0  0  0
    5.3953   -0.9810   -1.2858 H   0  0  0  0  0  0  0  0  0  0  0  0
    1.1889    2.6967    0.5879 H   0  0  0  0  0  0  0  0  0  0  0  0
    1.4709    1.0676    2.4799 H   0  0  0  0  0  0  0  0  0  0  0  0
    2.8015    2.0657    3.1440 H   0  0  0  0  0  0  0  0  0  0  0  0
    1.1320    2.7288    3.0804 H   0  0  0  0  0  0  0  0  0  0  0  0
    1.9153    4.7681    1.6662 H   0  0  0  0  0  0  0  0  0  0  0  0
    2.8930    4.5073    0.1887 H   0  0  0  0  0  0  0  0  0  0  0  0
    3.5969    4.1912    1.8108 H   0  0  0  0  0  0  0  0  0  0  0  0
    1.6449   -1.4271   -1.6983 H   0  0  0  0  0  0  0  0  0  0  0  0
    2.7986   -0.4711   -3.7082 H   0  0  0  0  0  0  0  0  0  0  0  0
    2.6445   -2.2571   -3.8215 H   0  0  0  0  0  0  0  0  0  0  0  0
    4.2200   -1.5170   -3.4041 H   0  0  0  0  0  0  0  0  0  0  0  0
    4.2370   -3.0178   -1.1717 H   0  0  0  0  0  0  0  0  0  0  0  0
    2.8082   -2.9243   -0.0830 H   0  0  0  0  0  0  0  0  0  0  0  0
    2.6639   -3.6894   -1.6975 H   0  0  0  0  0  0  0  0  0  0  0  0
   -0.9678    0.9781   -3.9978 H   0  0  0  0  0  0  0  0  0  0  0  0
   -2.6501    1.5972   -4.1345 H   0  0  0  0  0  0  0  0  0  0  0  0
   -1.3426    2.6675   -3.5138 H   0  0  0  0  0  0  0  0  0  0  0  0
   -4.1175    1.2844   -2.2882 H   0  0  0  0  0  0  0  0  0  0  0  0
   -3.4640    0.9658   -0.6669 H   0  0  0  0  0  0  0  0  0  0  0  0
   -3.3020    3.6537   -2.2137 H   0  0  0  0  0  0  0  0  0  0  0  0
   -4.3788    3.2503   -0.8432 H   0  0  0  0  0  0  0  0  0  0  0  0
  1 10  1  0  0  0  0
  1  7  1  0  0  0  0
  2 22  1  0  0  0  0
  2  7  1  0  0  0  0
  3 35  1  0  0  0  0
  3  8  1  0  0  0  0
  5  4  2  0  0  0  0
  6  5  2  0  0  0  0
  8  1  1  0  0  0  0
  9  8  2  0  0  0  0
  9  2  1  0  0  0  0
 10 15  1  0  0  0  0
 11 12  1  0  0  0  0
 11 10  2  0  0  0  0
 12 13  2  0  0  0  0
 13 39  1  0  0  0  0
 13 14  1  0  0  0  0
 14 40  1  0  0  0  0
 15 14  2  0  0  0  0
 15 19  1  0  0  0  0
 16 18  1  0  0  0  0
 16 11  1  0  0  0  0
 17 43  1  0  0  0  0
 17 16  1  0  0  0  0
 18 45  1  0  0  0  0
 18 47  1  0  0  0  0
 19 21  1  0  0  0  0
 19 20  1  0  0  0  0
 20 50  1  0  0  0  0
 20 51  1  0  0  0  0
 21 52  1  0  0  0  0
 21 53  1  0  0  0  0
 22 23  1  0  0  0  0
 23 24  2  0  0  0  0
 23 28  1  0  0  0  0
 24 55  1  0  0  0  0
 25 56  1  0  0  0  0
 25 24  1  0  0  0  0
 26 25  2  0  0  0  0
 27 26  1  0  0  0  0
 27 22  2  0  0  0  0
 28 30  1  0  0  0  0
 28 29  1  0  0  0  0
 29 61  1  0  0  0  0
 29 60  1  0  0  0  0
 30 62  1  0  0  0  0
 30 64  1  0  0  0  0
 31 65  1  0  0  0  0
 31 33  1  0  0  0  0
 31 27  1  0  0  0  0
 32 31  1  0  0  0  0
 33 70  1  0  0  0  0
 34 74  1  0  0  0  0
 34  3  1  0  0  0  0
 35 36  1  0  0  0  0
 35 76  1  0  0  0  0
 36 78  1  0  0  0  0
 36  4  1  0  0  0  0
 37  9  1  0  0  0  0
 38 12  1  0  0  0  0
 41 16  1  0  0  0  0
 42 17  1  0  0  0  0
 44 17  1  0  0  0  0
 46 18  1  0  0  0  0
 48 19  1  0  0  0  0
 49 20  1  0  0  0  0
 54 21  1  0  0  0  0
 57 26  1  0  0  0  0
 58 28  1  0  0  0  0
 59 29  1  0  0  0  0
 63 30  1  0  0  0  0
 66 32  1  0  0  0  0
 67 32  1  0  0  0  0
 68 32  1  0  0  0  0
 69 33  1  0  0  0  0
 71 33  1  0  0  0  0
 72 34  1  0  0  0  0
 73 34  1  0  0  0  0
 75 35  1  0  0  0  0
 77 36  1  0  0  0  0
M  END
