4
q = -1.0

 11 11  0  0  0  0  0  0  0  0999 V2000
   -2.1913    0.1730   -0.0181 C   0  0  0  0  0  0  0  0  0  0  0  0
   -1.7740   -0.5314    1.1635 C   0  0  0  0  0  0  0  0  0  0  0  0
   -1.9774   -0.2343    2.1992 H   0  0  0  0  0  0  0  0  0  0  0  0
   -1.1585   -1.7692    0.7300 C   0  0  0  0  0  3  0  0  0  0  0  0
   -0.7861   -2.5608    1.3904 H   0  0  0  0  0  0  0  0  0  0  0  0
   -1.1553   -1.7888   -0.6971 C   0  0  0  0  0  0  0  0  0  0  0  0
   -0.7765   -2.5998   -1.3299 H   0  0  0  0  0  0  0  0  0  0  0  0
   -1.7640   -0.5648   -1.1718 C   0  0  0  0  0  0  0  0  0  0  0  0
   -1.9591   -0.2804   -2.2111 H   0  0  0  0  0  0  0  0  0  0  0  0
   -2.8805    1.3272   -0.1033 O   0  0  0  0  0  0  0  0  0  0  0  0
   -2.9539    1.7223    0.7857 H   0  0  0  0  0  0  0  0  0  0  0  0
  1  2  2  0  0  0  0
  2  3  1  0  0  0  0
  4  2  1  0  0  0  0
  4  5  1  0  0  0  0
  6  4  1  0  0  0  0
  7  6  1  0  0  0  0
  8  6  2  0  0  0  0
  8  1  1  0  0  0  0
  9  8  1  0  0  0  0
 10  1  1  0  0  0  0
 10 11  1  0  0  0  0
M  END
