5
q = -1.0

 31 32  0  0  1  0  0  0  0  0999 V2000
   -0.5692    1.8579    0.4966 N   0  0  0  0  0  0  0  0  0  0  0  0
    0.6751    1.7035   -0.2819 C   0  0  1  0  0  0  0  0  0  0  0  0
    1.4052    2.4677    0.0819 H   0  0  0  0  0  0  0  0  0  0  0  0
    1.2889    0.3095   -0.0733 C   0  0  0  0  0  0  0  0  0  0  0  0
    0.4746   -0.8260   -0.0089 C   0  0  0  0  0  3  0  0  0  0  0  0
    1.0408   -2.1264    0.1157 C   0  0  0  0  0  0  0  0  0  0  0  0
    0.3859   -3.0090    0.1674 H   0  0  0  0  0  0  0  0  0  0  0  0
    2.4139   -2.2940    0.1748 C   0  0  0  0  0  0  0  0  0  0  0  0
    2.8505   -3.3001    0.2754 H   0  0  0  0  0  0  0  0  0  0  0  0
    3.2850   -1.1715    0.0986 C   0  0  0  0  0  0  0  0  0  0  0  0
    4.7009   -1.3350    0.1445 C   0  0  0  0  0  0  0  0  0  0  0  0
    5.1059   -2.3534    0.2517 H   0  0  0  0  0  0  0  0  0  0  0  0
    5.5520   -0.2459    0.0520 C   0  0  0  0  0  0  0  0  0  0  0  0
    6.6426   -0.3877    0.0865 H   0  0  0  0  0  0  0  0  0  0  0  0
    5.0100    1.0577   -0.0915 C   0  0  0  0  0  0  0  0  0  0  0  0
    5.6841    1.9242   -0.1692 H   0  0  0  0  0  0  0  0  0  0  0  0
    3.6367    1.2507   -0.1343 C   0  0  0  0  0  0  0  0  0  0  0  0
    3.2529    2.2734   -0.2501 H   0  0  0  0  0  0  0  0  0  0  0  0
    2.7230    0.1549   -0.0359 C   0  0  0  0  0  0  0  0  0  0  0  0
    0.4788    1.9346   -1.7878 C   0  0  0  0  0  0  0  0  0  0  0  0
    1.4243    1.7077   -2.3164 H   0  0  0  0  0  0  0  0  0  0  0  0
    0.2004    2.9798   -2.0236 H   0  0  0  0  0  0  0  0  0  0  0  0
   -0.3007    1.2569   -2.1931 H   0  0  0  0  0  0  0  0  0  0  0  0
   -0.2914    1.8765    1.9297 C   0  0  0  0  0  0  0  0  0  0  0  0
   -1.2425    1.8602    2.4980 H   0  0  0  0  0  0  0  0  0  0  0  0
    0.2849    2.7861    2.2372 H   0  0  0  0  0  0  0  0  0  0  0  0
    0.3008    0.9849    2.2140 H   0  0  0  0  0  0  0  0  0  0  0  0
   -1.4174    2.9791    0.1133 C   0  0  0  0  0  0  0  0  0  0  0  0
   -1.7529    2.8862   -0.9357 H   0  0  0  0  0  0  0  0  0  0  0  0
   -0.9140    3.9720    0.2413 H   0  0  0  0  0  0  0  0  0  0  0  0
   -2.3265    2.9684    0.7461 H   0  0  0  0  0  0  0  0  0  0  0  0
  1 24  1  0  0  0  0
  2  4  1  0  0  0  0
  2  3  1  1  0  0  0
  2  1  1  0  0  0  0
  4 19  2  0  0  0  0
  4  5  1  0  0  0  0
  5  6  2  0  0  0  0
  6  7  1  0  0  0  0
  6  8  1  0  0  0  0
  8  9  1  0  0  0  0
 10 11  1  0  0  0  0
 10  8  2  0  0  0  0
 11 12  1  0  0  0  0
 13 14  1  0  0  0  0
 13 11  2  0  0  0  0
 15 13  1  0  0  0  0
 16 15  1  0  0  0  0
 17 15  2  0  0  0  0
 17 19  1  0  0  0  0
 18 17  1  0  0  0  0
 19 10  1  0  0  0  0
 20  2  1  0  0  0  0
 21 20  1  0  0  0  0
 22 20  1  0  0  0  0
 23 20  1  0  0  0  0
 24 27  1  0  0  0  0
 24 26  1  0  0  0  0
 24 25  1  0  0  0  0
 28 30  1  0  0  0  0
 28  1  1  0  0  0  0
 28 31  1  0  0  0  0
 29 28  1  0  0  0  0
M  END
