1
q = 0.0, confidence = 0.99

 26 29  0  0  0  0  0  0  0  0999 V2000
    1.9982    0.7185    1.6380 C   0  0  0  0  0  3  0  0  0  0  0  0
    3.0123    1.1050    1.8122 H   0  0  0  0  0  0  0  0  0  0  0  0
    1.6545   -0.5799    2.0974 C   0  0  0  0  0  0  0  0  0  0  0  0
    2.4200   -1.1864    2.6006 H   0  0  0  0  0  0  0  0  0  0  0  0
    0.3777   -1.1757    1.8053 C   0  0  0  0  0  0  0  0  0  0  0  0
    0.1804   -2.2147    2.1031 H   0  0  0  0  0  0  0  0  0  0  0  0
   -0.5878   -0.4100    1.1117 C   0  0  0  0  0  0  0  0  0  0  0  0
   -1.9593   -0.6303    0.6226 C   0  0  0  0  0  0  0  0  0  0  0  0
   -2.7985   -1.7489    0.6987 C   0  0  0  0  0  0  0  0  0  0  0  0
   -2.4582   -2.6750    1.1859 H   0  0  0  0  0  0  0  0  0  0  0  0
   -4.0829   -1.6714    0.1344 C   0  0  0  0  0  0  0  0  0  0  0  0
   -4.7519   -2.5435    0.1853 H   0  0  0  0  0  0  0  0  0  0  0  0
   -4.5240   -0.4930   -0.4990 C   0  0  0  0  0  0  0  0  0  0  0  0
   -5.5331   -0.4571   -0.9361 H   0  0  0  0  0  0  0  0  0  0  0  0
   -3.6911    0.6347   -0.5817 C   0  0  0  0  0  0  0  0  0  0  0  0
   -4.0412    1.5507   -1.0812 H   0  0  0  0  0  0  0  0  0  0  0  0
   -2.4072    0.5750   -0.0196 C   0  0  0  0  0  0  0  0  0  0  0  0
   -1.3259    1.5676    0.0336 C   0  0  0  0  0  0  0  0  0  0  0  0
   -1.1357    2.8644   -0.4278 C   0  0  0  0  0  3  0  0  0  0  0  0
   -1.9272    3.4012   -0.9721 H   0  0  0  0  0  0  0  0  0  0  0  0
    0.1228    3.5011   -0.2040 C   0  0  0  0  0  0  0  0  0  0  0  0
    0.2678    4.5236   -0.5840 H   0  0  0  0  0  0  0  0  0  0  0  0
    1.1774    2.8775    0.4587 C   0  0  0  0  0  0  0  0  0  0  0  0
    2.1341    3.4015    0.6015 H   0  0  0  0  0  0  0  0  0  0  0  0
    1.0150    1.5509    0.9760 C   0  0  0  0  0  0  0  0  0  0  0  0
   -0.2463    0.9401    0.7383 C   0  0  0  0  0  0  0  0  0  0  0  0
  1  2  1  0  0  0  0
  1  3  1  0  0  0  0
  3  4  1  0  0  0  0
  5  3  2  0  0  0  0
  5  6  1  0  0  0  0
  7  5  1  0  0  0  0
  8  9  1  0  0  0  0
  8  7  2  0  0  0  0
  9 10  1  0  0  0  0
 11 12  1  0  0  0  0
 11  9  2  0  0  0  0
 13 11  1  0  0  0  0
 14 13  1  0  0  0  0
 15 13  2  0  0  0  0
 15 17  1  0  0  0  0
 16 15  1  0  0  0  0
 17 18  2  0  0  0  0
 17  8  1  0  0  0  0
 18 26  1  0  0  0  0
 19 21  1  0  0  0  0
 19 18  1  0  0  0  0
 20 19  1  0  0  0  0
 21 23  2  0  0  0  0
 22 21  1  0  0  0  0
 23 24  1  0  0  0  0
 23 25  1  0  0  0  0
 25  1  1  0  0  0  0
 26 25  2  0  0  0  0
 26  7  1  0  0  0  0
M  END
