11
q = -1.0, confidence = 0.466

 39 44  0  0  1  0  0  0  0  0999 V2000
    1.5262   -0.9298    0.7790 C   0  0  2  0  0  0  0  0  0  0  0  0
    1.1966   -0.3980    2.2206 C   0  0  0  0  0  0  0  0  0  0  0  0
    2.4396   -0.0950    3.0769 C   0  0  0  0  0  0  0  0  0  0  0  0
    3.1708    0.5562    2.5607 H   0  0  0  0  0  0  0  0  0  0  0  0
    2.9637   -1.0283    3.3539 H   0  0  0  0  0  0  0  0  0  0  0  0
    2.1247    0.4247    4.0046 H   0  0  0  0  0  0  0  0  0  0  0  0
    0.3161   -1.3954    2.9904 C   0  0  0  0  0  0  0  0  0  0  0  0
   -0.0510   -0.9224    3.9237 H   0  0  0  0  0  0  0  0  0  0  0  0
    0.8954   -2.2999    3.2531 H   0  0  0  0  0  0  0  0  0  0  0  0
   -0.5544   -1.7193    2.3917 H   0  0  0  0  0  0  0  0  0  0  0  0
    0.4269    0.8885    1.9552 C   0  0  1  0  0  3  0  0  0  0  0  0
    1.0167    2.1379    1.5654 C   0  0  0  0  0  3  0  0  0  0  0  0
    2.0821    2.3936    1.6082 H   0  0  0  0  0  0  0  0  0  0  0  0
   -0.0307    3.0230    1.1667 C   0  0  0  0  0  0  0  0  0  0  0  0
    0.1037    4.0428    0.7900 H   0  0  0  0  0  0  0  0  0  0  0  0
   -1.2522    2.3235    1.2658 C   0  0  0  0  0  0  0  0  0  0  0  0
   -2.2405    2.7116    0.9965 H   0  0  0  0  0  0  0  0  0  0  0  0
   -0.9775    1.0019    1.7341 C   0  0  0  0  0  3  0  0  0  0  0  0
   -1.7244    0.2115    1.8706 H   0  0  0  0  0  0  0  0  0  0  0  0
    2.5692   -0.1305   -0.1006 C   0  0  2  0  0  0  0  0  0  0  0  0
    3.1331    0.6751    0.3904 H   0  0  0  0  0  0  0  0  0  0  0  0
    2.1973   -0.0988   -1.7270 B   0  0  0  0  0  0  0  0  0  0  0  0
    2.5929    0.8233   -2.4029 H   0  0  0  0  0  0  0  0  0  0  0  0
    0.7292   -1.0638   -1.8932 B   0  0  2  0  0  0  0  0  0  0  0  0
   -0.0676   -0.9480   -2.8045 H   0  0  0  0  0  0  0  0  0  0  0  0
    0.3143   -1.5180   -0.2263 B   0  0  1  0  0  0  0  0  0  0  0  0
   -0.7900   -1.6747    0.2502 H   0  0  0  0  0  0  0  0  0  0  0  0
    3.0613   -1.6677    0.5096 B   0  0  1  0  0  0  0  0  0  0  0  0
    3.8600   -1.7368    1.4108 H   0  0  0  0  0  0  0  0  0  0  0  0
    3.4978   -1.1446   -1.1204 B   0  0  1  0  0  0  0  0  0  0  0  0
    4.6618   -0.8746   -1.3218 H   0  0  0  0  0  0  0  0  0  0  0  0
    2.3059   -1.8003   -2.2584 B   0  0  2  0  0  0  0  0  0  0  0  0
    2.6329   -2.1049   -3.3881 H   0  0  0  0  0  0  0  0  0  0  0  0
    1.0898   -2.7030   -1.3063 B   0  0  0  0  0  0  0  0  0  0  0  0
    0.4999   -3.6835   -1.7157 H   0  0  0  0  0  0  0  0  0  0  0  0
    1.5664   -2.6073    0.4065 B   0  0  1  0  0  0  0  0  0  0  0  0
    1.3330   -3.4181    1.2730 H   0  0  0  0  0  0  0  0  0  0  0  0
    2.8216   -2.7730   -0.8462 B   0  0  0  0  0  0  0  0  0  0  0  0
    3.5084   -3.7702   -0.9262 H   0  0  0  0  0  0  0  0  0  0  0  0
  1  2  1  1  0  0  0
  2  7  1  0  0  0  0
  2  3  1  0  0  0  0
  3  5  1  0  0  0  0
  3  6  1  0  0  0  0
  4  3  1  0  0  0  0
  7  9  1  0  0  0  0
  7  8  1  0  0  0  0
 10  7  1  0  0  0  0
 11  2  1  6  0  0  0
 12 13  1  0  0  0  0
 12 11  1  0  0  0  0
 14 16  2  0  0  0  0
 14 12  1  0  0  0  0
 15 14  1  0  0  0  0
 16 18  1  0  0  0  0
 17 16  1  0  0  0  0
 18 19  1  0  0  0  0
 18 11  1  0  0  0  0
 20 21  1  1  0  0  0
 20  1  1  0  0  0  0
 22 20  1  0  0  0  0
 23 22  1  0  0  0  0
 24 25  1  6  0  0  0
 24 22  1  0  0  0  0
 24 34  1  0  0  0  0
 24 26  1  0  0  0  0
 26 27  1  1  0  0  0
 26 36  1  0  0  0  0
 26  1  1  0  0  0  0
 28 29  1  1  0  0  0
 30 31  1  6  0  0  0
 30 20  1  0  0  0  0
 30 28  1  0  0  0  0
 32 33  1  6  0  0  0
 32 34  1  0  0  0  0
 32 30  1  0  0  0  0
 32 38  1  0  0  0  0
 35 34  1  0  0  0  0
 36 28  1  0  0  0  0
 36  1  1  0  0  0  0
 36 37  1  1  0  0  0
 38 28  1  0  0  0  0
 39 38  1  0  0  0  0
M  END
