13
q = -1.0

 39 44  0  0  1  0  0  0  0  0999 V2000
    2.7978   -0.8469    0.4606 C   0  0  2  0  0  0  0  0  0  0  0  0
    1.7619   -1.6741   -0.5895 B   0  0  1  0  0  0  0  0  0  0  0  0
    1.0218   -2.5123   -0.1132 H   0  0  0  0  0  0  0  0  0  0  0  0
    2.6764   -1.0002    2.0220 C   0  0  0  0  0  0  0  0  0  0  0  0
    2.6442   -2.4805    2.4342 C   0  0  0  0  0  0  0  0  0  0  0  0
    1.9153   -3.0614    1.8406 H   0  0  0  0  0  0  0  0  0  0  0  0
    2.3731   -2.5615    3.5056 H   0  0  0  0  0  0  0  0  0  0  0  0
    3.6365   -2.9438    2.2855 H   0  0  0  0  0  0  0  0  0  0  0  0
    3.8001   -0.3041    2.8093 C   0  0  0  0  0  0  0  0  0  0  0  0
    3.9489    0.7529    2.5158 H   0  0  0  0  0  0  0  0  0  0  0  0
    4.7628   -0.8267    2.6649 H   0  0  0  0  0  0  0  0  0  0  0  0
    3.5507   -0.3188    3.8890 H   0  0  0  0  0  0  0  0  0  0  0  0
    1.3386   -0.3373    2.3261 C   0  0  1  0  0  3  0  0  0  0  0  0
    1.1092    1.0764    2.4208 C   0  0  0  0  0  3  0  0  0  0  0  0
    1.8851    1.8451    2.5210 H   0  0  0  0  0  0  0  0  0  0  0  0
   -0.3032    1.2998    2.4436 C   0  0  0  0  0  0  0  0  0  0  0  0
   -0.8060    2.2718    2.5204 H   0  0  0  0  0  0  0  0  0  0  0  0
   -0.9480    0.0473    2.3363 C   0  0  0  0  0  0  0  0  0  0  0  0
   -2.0280   -0.1308    2.2942 H   0  0  0  0  0  0  0  0  0  0  0  0
    0.0556   -0.9623    2.2490 C   0  0  0  0  0  3  0  0  0  0  0  0
   -0.1335   -2.0354    2.1346 H   0  0  0  0  0  0  0  0  0  0  0  0
    1.4477   -0.6190   -1.9832 B   0  0  1  0  0  0  0  0  0  0  0  0
    0.4672   -0.6941   -2.7064 H   0  0  0  0  0  0  0  0  0  0  0  0
    2.2966    0.8720   -1.5816 B   0  0  1  0  0  0  0  0  0  0  0  0
    2.0635    2.0179   -1.9037 H   0  0  0  0  0  0  0  0  0  0  0  0
    3.0781    0.5870   -0.1338 C   0  0  2  0  0  0  0  0  0  0  0  0
    3.3301    1.3862    0.5782 H   0  0  0  0  0  0  0  0  0  0  0  0
    2.6622   -1.9110   -2.1065 B   0  0  0  0  0  0  0  0  0  0  0  0
    2.4885   -2.8875   -2.8025 H   0  0  0  0  0  0  0  0  0  0  0  0
    3.0171   -0.2786   -2.7419 B   0  0  0  0  0  0  0  0  0  0  0  0
    3.1158   -0.0221   -3.9221 H   0  0  0  0  0  0  0  0  0  0  0  0
    4.0412    0.5477   -1.5498 B   0  0  1  0  0  0  0  0  0  0  0  0
    4.8351    1.4398   -1.7385 H   0  0  0  0  0  0  0  0  0  0  0  0
    4.3624   -0.5641   -0.2154 B   0  0  1  0  0  0  0  0  0  0  0  0
    5.3144   -0.4556    0.5125 H   0  0  0  0  0  0  0  0  0  0  0  0
    3.4878   -2.0693   -0.5324 B   0  0  1  0  0  0  0  0  0  0  0  0
    3.8847   -3.0906   -0.0283 H   0  0  0  0  0  0  0  0  0  0  0  0
    4.2827   -1.1915   -1.8645 B   0  0  0  0  0  0  0  0  0  0  0  0
    5.2918   -1.6094   -2.3843 H   0  0  0  0  0  0  0  0  0  0  0  0
  1  4  1  1  0  0  0
  2 36  1  0  0  0  0
  2  3  1  1  0  0  0
  2  1  1  0  0  0  0
  4  5  1  0  0  0  0
  4  9  1  0  0  0  0
  5  7  1  0  0  0  0
  6  5  1  0  0  0  0
  8  5  1  0  0  0  0
  9 12  1  0  0  0  0
 10  9  1  0  0  0  0
 11  9  1  0  0  0  0
 13  4  1  6  0  0  0
 13 14  1  0  0  0  0
 14 16  1  0  0  0  0
 14 15  1  0  0  0  0
 16 17  1  0  0  0  0
 18 16  2  0  0  0  0
 19 18  1  0  0  0  0
 20 13  1  0  0  0  0
 20 18  1  0  0  0  0
 21 20  1  0  0  0  0
 22 23  1  6  0  0  0
 22 24  1  0  0  0  0
 22  2  1  0  0  0  0
 24 25  1  6  0  0  0
 24 32  1  0  0  0  0
 24 26  1  0  0  0  0
 26  1  1  0  0  0  0
 26 27  1  1  0  0  0
 28 38  1  0  0  0  0
 29 28  1  0  0  0  0
 30 28  1  0  0  0  0
 30 22  1  0  0  0  0
 31 30  1  0  0  0  0
 32 33  1  6  0  0  0
 32 34  1  0  0  0  0
 32 26  1  0  0  0  0
 34 35  1  1  0  0  0
 36 34  1  0  0  0  0
 36 37  1  1  0  0  0
 36  1  1  0  0  0  0
 38 34  1  0  0  0  0
 39 38  1  0  0  0  0
M  END
