6
q = -1.0

 46 46  0  0  1  0  0  0  0  0999 V2000
    0.8350    0.9964    0.1938 C   0  0  0  0  0  0  0  0  0  0  0  0
   -0.5904    1.1128    0.2507 C   0  0  0  0  0  0  0  0  0  0  0  0
   -1.0993    0.0281    1.0837 C   0  0  0  0  0  0  0  0  0  0  0  0
    0.0099   -0.7438    1.5038 C   0  0  0  0  0  0  0  0  0  0  0  0
   -0.0398   -1.6576    2.1050 H   0  0  0  0  0  0  0  0  0  0  0  0
    1.2129   -0.2008    0.9344 C   0  0  2  0  0  3  0  0  0  0  0  0
    1.7743    2.0558   -0.3579 C   0  0  0  0  0  0  0  0  0  0  0  0
    1.1487    2.7239   -0.9804 H   0  0  0  0  0  0  0  0  0  0  0  0
    2.9202    1.5703   -1.2591 C   0  0  0  0  0  0  0  0  0  0  0  0
    3.4361    2.4465   -1.7011 H   0  0  0  0  0  0  0  0  0  0  0  0
    2.5431    0.9345   -2.0816 H   0  0  0  0  0  0  0  0  0  0  0  0
    3.6822    0.9956   -0.6978 H   0  0  0  0  0  0  0  0  0  0  0  0
    2.3062    2.9077    0.8147 C   0  0  0  0  0  0  0  0  0  0  0  0
    2.8958    3.7646    0.4296 H   0  0  0  0  0  0  0  0  0  0  0  0
    2.9708    2.3171    1.4777 H   0  0  0  0  0  0  0  0  0  0  0  0
    1.4824    3.3073    1.4380 H   0  0  0  0  0  0  0  0  0  0  0  0
   -1.4761    2.1789   -0.3747 C   0  0  0  0  0  0  0  0  0  0  0  0
   -2.5173    1.8427   -0.1878 H   0  0  0  0  0  0  0  0  0  0  0  0
   -1.3452    2.3274   -1.9019 C   0  0  0  0  0  0  0  0  0  0  0  0
   -2.0690    3.0839   -2.2670 H   0  0  0  0  0  0  0  0  0  0  0  0
   -1.5606    1.3728   -2.4175 H   0  0  0  0  0  0  0  0  0  0  0  0
   -0.3353    2.6595   -2.2129 H   0  0  0  0  0  0  0  0  0  0  0  0
   -1.3136    3.5382    0.3357 C   0  0  0  0  0  0  0  0  0  0  0  0
   -2.1015    4.2424   -0.0007 H   0  0  0  0  0  0  0  0  0  0  0  0
   -0.3344    4.0044    0.1085 H   0  0  0  0  0  0  0  0  0  0  0  0
   -1.3906    3.4395    1.4370 H   0  0  0  0  0  0  0  0  0  0  0  0
   -2.5349   -0.1832    1.5038 C   0  0  0  0  0  0  0  0  0  0  0  0
   -3.1714    0.0390    0.6199 H   0  0  0  0  0  0  0  0  0  0  0  0
   -2.8216   -1.6278    1.9289 C   0  0  0  0  0  0  0  0  0  0  0  0
   -3.8975   -1.7531    2.1623 H   0  0  0  0  0  0  0  0  0  0  0  0
   -2.2539   -1.9033    2.8418 H   0  0  0  0  0  0  0  0  0  0  0  0
   -2.5606   -2.3452    1.1261 H   0  0  0  0  0  0  0  0  0  0  0  0
   -2.9024    0.8080    2.6257 C   0  0  0  0  0  0  0  0  0  0  0  0
   -3.9653    0.6858    2.9171 H   0  0  0  0  0  0  0  0  0  0  0  0
   -2.7539    1.8605    2.3150 H   0  0  0  0  0  0  0  0  0  0  0  0
   -2.2784    0.6304    3.5258 H   0  0  0  0  0  0  0  0  0  0  0  0
    2.6243   -0.6727    1.2675 C   0  0  0  0  0  0  0  0  0  0  0  0
    3.2577    0.2378    1.2306 H   0  0  0  0  0  0  0  0  0  0  0  0
    2.6950   -1.2217    2.7010 C   0  0  0  0  0  0  0  0  0  0  0  0
    3.7479   -1.4246    2.9816 H   0  0  0  0  0  0  0  0  0  0  0  0
    2.1423   -2.1789    2.7934 H   0  0  0  0  0  0  0  0  0  0  0  0
    2.2722   -0.5087    3.4369 H   0  0  0  0  0  0  0  0  0  0  0  0
    3.2239   -1.6838    0.2725 C   0  0  0  0  0  0  0  0  0  0  0  0
    4.2811   -1.8914    0.5352 H   0  0  0  0  0  0  0  0  0  0  0  0
    3.1952   -1.3074   -0.7680 H   0  0  0  0  0  0  0  0  0  0  0  0
    2.6634   -2.6387    0.2938 H   0  0  0  0  0  0  0  0  0  0  0  0
  1  2  2  0  0  0  0
  1  6  1  0  0  0  0
  2  3  1  0  0  0  0
  3 27  1  0  0  0  0
  3  4  2  0  0  0  0
  4  5  1  0  0  0  0
  6 37  1  1  0  0  0
  6  4  1  0  0  0  0
  7  1  1  0  0  0  0
  7 13  1  0  0  0  0
  8  7  1  0  0  0  0
  9 12  1  0  0  0  0
  9  7  1  0  0  0  0
 10  9  1  0  0  0  0
 11  9  1  0  0  0  0
 13 16  1  0  0  0  0
 13 15  1  0  0  0  0
 14 13  1  0  0  0  0
 17 18  1  0  0  0  0
 17  2  1  0  0  0  0
 17 23  1  0  0  0  0
 19 17  1  0  0  0  0
 20 19  1  0  0  0  0
 21 19  1  0  0  0  0
 22 19  1  0  0  0  0
 23 26  1  0  0  0  0
 24 23  1  0  0  0  0
 25 23  1  0  0  0  0
 27 29  1  0  0  0  0
 27 33  1  0  0  0  0
 28 27  1  0  0  0  0
 29 30  1  0  0  0  0
 29 31  1  0  0  0  0
 32 29  1  0  0  0  0
 33 34  1  0  0  0  0
 33 36  1  0  0  0  0
 35 33  1  0  0  0  0
 37 39  1  0  0  0  0
 38 37  1  0  0  0  0
 39 41  1  0  0  0  0
 39 40  1  0  0  0  0
 39 42  1  0  0  0  0
 43 46  1  0  0  0  0
 43 44  1  0  0  0  0
 43 37  1  0  0  0  0
 45 43  1  0  0  0  0
M  END
