11
q = 0.0, confidence = 0.97

 26 26  0  0  1  0  0  0  0  0999 V2000
   -2.0142   -1.6287   -1.7506 O   0  0  0  0  0  0  0  0  0  0  0  0
   -0.1711    3.1697   -0.1933 O   0  0  0  0  0  0  0  0  0  0  0  0
    2.5649   -0.0529   -1.4667 C   0  0  0  0  0  3  0  0  0  0  0  0
    3.6578   -0.0584   -1.3320 H   0  0  0  0  0  0  0  0  0  0  0  0
    2.2091   -0.6539   -2.3163 H   0  0  0  0  0  0  0  0  0  0  0  0
    1.8590    1.1248   -1.0434 C   0  0  2  0  0  3  0  0  0  0  0  0
    2.5913    2.3654   -0.6108 C   0  0  0  0  0  0  0  0  0  0  0  0
    2.6122    3.0806   -1.4598 H   0  0  0  0  0  0  0  0  0  0  0  0
    3.6390    2.1241   -0.3466 H   0  0  0  0  0  0  0  0  0  0  0  0
    2.0906    2.8871    0.2225 H   0  0  0  0  0  0  0  0  0  0  0  0
    0.4263    0.9769   -0.9812 C   0  0  1  0  0  3  0  0  0  0  0  0
   -0.1144   -0.3052   -1.3743 C   0  0  0  0  0  3  0  0  0  0  0  0
    0.2936   -0.8425   -2.2440 H   0  0  0  0  0  0  0  0  0  0  0  0
   -1.5459   -0.6456   -1.1747 C   0  0  0  0  0  0  0  0  0  0  0  0
   -2.3714    0.2775   -0.3011 C   0  0  0  0  0  0  0  0  0  0  0  0
   -3.6937   -0.1095    0.2309 C   0  0  0  0  0  0  0  0  0  0  0  0
   -4.2883   -1.2965   -0.0654 C   0  0  0  0  0  0  0  0  0  0  0  0
   -4.3745    0.8627    1.1663 C   0  0  0  0  0  0  0  0  0  0  0  0
   -5.3329    0.4481    1.5300 H   0  0  0  0  0  0  0  0  0  0  0  0
   -4.5919    1.8307    0.6678 H   0  0  0  0  0  0  0  0  0  0  0  0
   -3.7392    1.0892    2.0481 H   0  0  0  0  0  0  0  0  0  0  0  0
   -1.8444    1.5170   -0.0244 C   0  0  0  0  0  0  0  0  0  0  0  0
   -2.4226    2.2688    0.5317 H   0  0  0  0  0  0  0  0  0  0  0  0
   -0.5001    1.9966   -0.3917 C   0  0  0  0  0  0  0  0  0  0  0  0
   -3.8248   -2.0131   -0.7540 H   0  0  0  0  0  0  0  0  0  0  0  0
   -5.2629   -1.5422    0.3854 H   0  0  0  0  0  0  0  0  0  0  0  0
  1 14  2  0  0  0  0
  3  4  1  0  0  0  0
  5  3  1  0  0  0  0
  6  3  1  1  0  0  0
  6  7  1  0  0  0  0
  7  9  1  0  0  0  0
  7 10  1  0  0  0  0
  8  7  1  0  0  0  0
 11  6  1  1  0  0  0
 11 24  1  0  0  0  0
 12 14  1  0  0  0  0
 12 11  1  0  0  0  0
 13 12  1  0  0  0  0
 14 15  1  0  0  0  0
 15 22  2  0  0  0  0
 15 16  1  0  0  0  0
 16 18  1  0  0  0  0
 17 16  2  0  0  0  0
 17 26  1  0  0  0  0
 18 19  1  0  0  0  0
 18 21  1  0  0  0  0
 20 18  1  0  0  0  0
 22 23  1  0  0  0  0
 24  2  2  0  0  0  0
 24 22  1  0  0  0  0
 25 17  1  0  0  0  0
M  END
