14
q = -1.0

 19 20  0  0  0  0  0  0  0  0999 V2000
   -4.2019   -0.6043   -0.6587 Br  0  0  0  0  0  0  0  0  0  0  0  0
   -0.3211   -1.4782    1.9585 C   0  0  0  0  0  0  0  0  0  0  0  0
   -1.4451   -1.4503    1.0835 C   0  0  0  0  0  0  0  0  0  0  0  0
   -1.9096   -2.3172    0.6011 H   0  0  0  0  0  0  0  0  0  0  0  0
   -1.9047   -0.1003    0.9806 C   0  0  0  0  0  0  0  0  0  0  0  0
   -3.0173    0.4978    0.3254 C   0  0  0  0  0  0  0  0  0  0  0  0
   -3.2131    1.8681    0.3987 C   0  0  0  0  0  0  0  0  0  0  0  0
   -4.0735    2.3222   -0.1119 H   0  0  0  0  0  0  0  0  0  0  0  0
   -2.3030    2.6876    1.1265 C   0  0  0  0  0  0  0  0  0  0  0  0
   -2.4928    3.7704    1.1711 H   0  0  0  0  0  0  0  0  0  0  0  0
   -1.2029    2.1541    1.7840 C   0  0  0  0  0  0  0  0  0  0  0  0
   -0.5340    2.7972    2.3711 H   0  0  0  0  0  0  0  0  0  0  0  0
   -0.9887    0.7449    1.7332 C   0  0  0  0  0  0  0  0  0  0  0  0
    0.0030   -0.1289    2.3110 C   0  0  0  0  0  3  0  0  0  0  0  0
    0.7796    0.1670    3.0237 H   0  0  0  0  0  0  0  0  0  0  0  0
    0.3765   -2.7140    2.4444 C   0  0  0  0  0  0  0  0  0  0  0  0
   -0.1887   -3.1587    3.2905 H   0  0  0  0  0  0  0  0  0  0  0  0
    1.3979   -2.4933    2.8083 H   0  0  0  0  0  0  0  0  0  0  0  0
    0.4459   -3.4754    1.6440 H   0  0  0  0  0  0  0  0  0  0  0  0
  1  6  1  0  0  0  0
  2 14  1  0  0  0  0
  2 16  1  0  0  0  0
  3  2  2  0  0  0  0
  4  3  1  0  0  0  0
  5  3  1  0  0  0  0
  5 13  1  0  0  0  0
  6  7  1  0  0  0  0
  6  5  2  0  0  0  0
  7  9  2  0  0  0  0
  8  7  1  0  0  0  0
  9 10  1  0  0  0  0
  9 11  1  0  0  0  0
 11 12  1  0  0  0  0
 13 11  2  0  0  0  0
 13 14  1  0  0  0  0
 14 15  1  0  0  0  0
 16 18  1  0  0  0  0
 16 17  1  0  0  0  0
 19 16  1  0  0  0  0
M  END
