1
q = -1.0, confidence = 0.0

 20 20  0  0  0  0  0  0  0  0999 V2000
   -1.0560    0.0010   -1.4288 C   0  0  0  0  0  3  0  0  0  0  0  0
   -1.0103    0.8773   -2.1039 H   0  0  0  0  0  0  0  0  0  0  0  0
   -1.0112   -0.8754   -2.1040 H   0  0  0  0  0  0  0  0  0  0  0  0
   -2.3571    0.0016   -0.6346 C   0  0  0  0  0  0  0  0  0  0  0  0
   -2.4037    0.8807    0.0425 H   0  0  0  0  0  0  0  0  0  0  0  0
   -2.4041   -0.8769    0.0432 H   0  0  0  0  0  0  0  0  0  0  0  0
   -3.6234    0.0016   -1.5227 C   0  0  0  0  0  0  0  0  0  0  0  0
   -3.5969    0.8919   -2.1874 H   0  0  0  0  0  0  0  0  0  0  0  0
   -3.5974   -0.8892   -2.1867 H   0  0  0  0  0  0  0  0  0  0  0  0
   -4.8932    0.0022   -0.7082 C   0  0  0  0  0  0  0  0  0  0  0  0
   -5.4812    1.2123   -0.2857 C   0  0  0  0  0  0  0  0  0  0  0  0
   -5.0352    2.1672   -0.6091 H   0  0  0  0  0  0  0  0  0  0  0  0
   -6.6219    1.2160    0.5308 C   0  0  0  0  0  0  0  0  0  0  0  0
   -7.0680    2.1725    0.8447 H   0  0  0  0  0  0  0  0  0  0  0  0
   -7.1966    0.0035    0.9440 C   0  0  0  0  0  0  0  0  0  0  0  0
   -8.0930    0.0039    1.5826 H   0  0  0  0  0  0  0  0  0  0  0  0
   -6.6217   -1.2097    0.5330 C   0  0  0  0  0  0  0  0  0  0  0  0
   -7.0675   -2.1657    0.8486 H   0  0  0  0  0  0  0  0  0  0  0  0
   -5.4809   -1.2072   -0.2835 C   0  0  0  0  0  0  0  0  0  0  0  0
   -5.0347   -2.1626   -0.6052 H   0  0  0  0  0  0  0  0  0  0  0  0
  1  4  1  0  0  0  0
  2  1  1  0  0  0  0
  3  1  1  0  0  0  0
  4  5  1  0  0  0  0
  4  6  1  0  0  0  0
  7 10  1  0  0  0  0
  7  4  1  0  0  0  0
  8  7  1  0  0  0  0
  9  7  1  0  0  0  0
 10 11  2  0  0  0  0
 10 19  1  0  0  0  0
 11 13  1  0  0  0  0
 12 11  1  0  0  0  0
 13 14  1  0  0  0  0
 13 15  2  0  0  0  0
 15 16  1  0  0  0  0
 17 18  1  0  0  0  0
 17 15  1  0  0  0  0
 19 17  2  0  0  0  0
 20 19  1  0  0  0  0
M  END
