6
q = -1.0, confidence = 0.0

 26 27  0  0  0  0  0  0  0  0999 V2000
   -2.1988    1.0853    0.6609 C   0  0  0  0  0  0  0  0  0  0  0  0
   -1.5937    2.0298   -0.2507 C   0  0  0  0  0  0  0  0  0  0  0  0
   -0.3866    2.5163    0.3545 C   0  0  0  0  0  0  0  0  0  0  0  0
   -0.2090    1.8236    1.5899 C   0  0  0  0  0  0  0  0  0  0  0  0
    0.6026    2.0022    2.3057 H   0  0  0  0  0  0  0  0  0  0  0  0
   -1.3212    0.9500    1.7820 C   0  0  0  0  0  3  0  0  0  0  0  0
   -1.5208    0.3437    2.6725 H   0  0  0  0  0  0  0  0  0  0  0  0
   -2.1112    2.4633   -1.5899 C   0  0  0  0  0  0  0  0  0  0  0  0
   -2.7441    3.3731   -1.5071 H   0  0  0  0  0  0  0  0  0  0  0  0
   -2.7114    1.6639   -2.0635 H   0  0  0  0  0  0  0  0  0  0  0  0
   -1.2722    2.7036   -2.2717 H   0  0  0  0  0  0  0  0  0  0  0  0
    0.4749    3.6246   -0.1650 C   0  0  0  0  0  0  0  0  0  0  0  0
    0.6476    3.5359   -1.2546 H   0  0  0  0  0  0  0  0  0  0  0  0
    1.4655    3.6309    0.3287 H   0  0  0  0  0  0  0  0  0  0  0  0
   -0.0126    4.6041    0.0282 H   0  0  0  0  0  0  0  0  0  0  0  0
   -3.5062    0.4085    0.5387 C   0  0  0  0  0  0  0  0  0  0  0  0
   -3.6980   -0.8954    1.0510 C   0  0  0  0  0  0  0  0  0  0  0  0
   -2.8439   -1.4325    1.4896 H   0  0  0  0  0  0  0  0  0  0  0  0
   -4.9459   -1.5239    0.9782 C   0  0  0  0  0  0  0  0  0  0  0  0
   -5.0673   -2.5432    1.3755 H   0  0  0  0  0  0  0  0  0  0  0  0
   -6.0359   -0.8633    0.3874 C   0  0  0  0  0  0  0  0  0  0  0  0
   -7.0163   -1.3588    0.3233 H   0  0  0  0  0  0  0  0  0  0  0  0
   -5.8633    0.4326   -0.1206 C   0  0  0  0  0  0  0  0  0  0  0  0
   -6.7122    0.9635   -0.5776 H   0  0  0  0  0  0  0  0  0  0  0  0
   -4.6127    1.0632   -0.0449 C   0  0  0  0  0  0  0  0  0  0  0  0
   -4.4997    2.0882   -0.4234 H   0  0  0  0  0  0  0  0  0  0  0  0
  1  6  1  0  0  0  0
  2  3  1  0  0  0  0
  2  1  2  0  0  0  0
  3  4  2  0  0  0  0
  4  6  1  0  0  0  0
  4  5  1  0  0  0  0
  6  7  1  0  0  0  0
  8  9  1  0  0  0  0
  8  2  1  0  0  0  0
 10  8  1  0  0  0  0
 11  8  1  0  0  0  0
 12 15  1  0  0  0  0
 12 14  1  0  0  0  0
 12  3  1  0  0  0  0
 13 12  1  0  0  0  0
 16  1  1  0  0  0  0
 16 17  1  0  0  0  0
 17 18  1  0  0  0  0
 19 17  2  0  0  0  0
 19 20  1  0  0  0  0
 21 19  1  0  0  0  0
 22 21  1  0  0  0  0
 23 25  1  0  0  0  0
 23 21  2  0  0  0  0
 24 23  1  0  0  0  0
 25 16  2  0  0  0  0
 26 25  1  0  0  0  0
M  END
