6
q = -1.0

 32 34  0  0  0  0  0  0  0  0999 V2000
   -0.1840    1.5338   -1.1698 C   0  0  0  0  0  0  0  0  0  0  0  0
   -1.4381    1.9321   -1.7629 C   0  0  0  0  0  0  0  0  0  0  0  0
   -1.9833    0.8012   -2.4539 C   0  0  0  0  0  0  0  0  0  0  0  0
   -1.0482   -0.2747   -2.3391 C   0  0  0  0  0  0  0  0  0  0  0  0
   -1.1727   -1.2779   -2.7632 H   0  0  0  0  0  0  0  0  0  0  0  0
    0.0477    0.1643   -1.5524 C   0  0  0  0  0  3  0  0  0  0  0  0
    0.9162   -0.4424   -1.2806 H   0  0  0  0  0  0  0  0  0  0  0  0
   -2.0284    3.3078   -1.7988 C   0  0  0  0  0  0  0  0  0  0  0  0
   -2.4491    3.5150   -2.8031 H   0  0  0  0  0  0  0  0  0  0  0  0
   -1.2646    4.0766   -1.5766 H   0  0  0  0  0  0  0  0  0  0  0  0
   -2.8537    3.4206   -1.0640 H   0  0  0  0  0  0  0  0  0  0  0  0
   -3.2704    0.7902   -3.2219 C   0  0  0  0  0  0  0  0  0  0  0  0
   -3.1404    1.2619   -4.2198 H   0  0  0  0  0  0  0  0  0  0  0  0
   -4.0633    1.3503   -2.6884 H   0  0  0  0  0  0  0  0  0  0  0  0
   -3.6309   -0.2444   -3.3739 H   0  0  0  0  0  0  0  0  0  0  0  0
    0.6924    2.3655   -0.3141 C   0  0  0  0  0  0  0  0  0  0  0  0
    0.1179    3.2148    0.6399 C   0  0  0  0  0  0  0  0  0  0  0  0
   -0.9780    3.2753    0.7098 H   0  0  0  0  0  0  0  0  0  0  0  0
    0.9049    3.9288    1.5750 C   0  0  0  0  0  0  0  0  0  0  0  0
    0.4091    4.5777    2.3126 H   0  0  0  0  0  0  0  0  0  0  0  0
    2.2821    3.7759    1.5890 C   0  0  0  0  0  0  0  0  0  0  0  0
    2.8995    4.2957    2.3380 H   0  0  0  0  0  0  0  0  0  0  0  0
    2.9248    2.9389    0.6319 C   0  0  0  0  0  0  0  0  0  0  0  0
    4.3417    2.7693    0.6367 C   0  0  0  0  0  0  0  0  0  0  0  0
    4.9270    3.2881    1.4120 H   0  0  0  0  0  0  0  0  0  0  0  0
    4.9726    1.9801   -0.3113 C   0  0  0  0  0  0  0  0  0  0  0  0
    6.0656    1.8536   -0.2896 H   0  0  0  0  0  0  0  0  0  0  0  0
    4.2068    1.3540   -1.3285 C   0  0  0  0  0  0  0  0  0  0  0  0
    4.7096    0.7546   -2.1020 H   0  0  0  0  0  0  0  0  0  0  0  0
    2.8270    1.4929   -1.3570 C   0  0  0  0  0  0  0  0  0  0  0  0
    2.2559    1.0244   -2.1681 H   0  0  0  0  0  0  0  0  0  0  0  0
    2.1334    2.2525   -0.3663 C   0  0  0  0  0  0  0  0  0  0  0  0
  1 16  1  0  0  0  0
  2  1  2  0  0  0  0
  3  4  2  0  0  0  0
  3  2  1  0  0  0  0
  4  6  1  0  0  0  0
  5  4  1  0  0  0  0
  6  7  1  0  0  0  0
  6  1  1  0  0  0  0
  8  2  1  0  0  0  0
  8 10  1  0  0  0  0
  8 11  1  0  0  0  0
  9  8  1  0  0  0  0
 12 14  1  0  0  0  0
 12  3  1  0  0  0  0
 13 12  1  0  0  0  0
 15 12  1  0  0  0  0
 16 17  1  0  0  0  0
 17 18  1  0  0  0  0
 17 19  2  0  0  0  0
 19 21  1  0  0  0  0
 19 20  1  0  0  0  0
 21 22  1  0  0  0  0
 23 24  1  0  0  0  0
 23 21  2  0  0  0  0
 24 25  1  0  0  0  0
 26 27  1  0  0  0  0
 26 24  2  0  0  0  0
 28 26  1  0  0  0  0
 29 28  1  0  0  0  0
 30 28  2  0  0  0  0
 30 32  1  0  0  0  0
 31 30  1  0  0  0  0
 32 16  2  0  0  0  0
 32 23  1  0  0  0  0
M  END
