4
q = -1.0

 32 33  0  0  0  0  0  0  0  0999 V2000
   -1.1388   -1.5626    0.4061 C   0  0  0  0  0  0  0  0  0  0  0  0
   -0.2230   -2.5772   -0.0722 C   0  0  0  0  0  0  0  0  0  0  0  0
    0.7987   -2.7519    0.9189 C   0  0  0  0  0  0  0  0  0  0  0  0
    0.5802   -1.7853    1.9484 C   0  0  0  0  0  3  0  0  0  0  0  0
    1.1974   -1.6535    2.8452 H   0  0  0  0  0  0  0  0  0  0  0  0
   -0.6155   -1.0699    1.6404 C   0  0  0  0  0  0  0  0  0  0  0  0
   -1.0876   -0.2890    2.2475 H   0  0  0  0  0  0  0  0  0  0  0  0
   -2.4781   -1.2016   -0.1132 C   0  0  0  0  0  0  0  0  0  0  0  0
   -3.5074   -0.9303    0.8195 C   0  0  0  0  0  0  0  0  0  0  0  0
   -3.2860   -0.9785    1.8955 H   0  0  0  0  0  0  0  0  0  0  0  0
   -4.8060   -0.6212    0.3973 C   0  0  0  0  0  0  0  0  0  0  0  0
   -5.5858   -0.4147    1.1459 H   0  0  0  0  0  0  0  0  0  0  0  0
   -5.1111   -0.5772   -0.9718 C   0  0  0  0  0  0  0  0  0  0  0  0
   -6.1319   -0.3379   -1.3068 H   0  0  0  0  0  0  0  0  0  0  0  0
   -4.1008   -0.8432   -1.9098 C   0  0  0  0  0  0  0  0  0  0  0  0
   -4.3243   -0.8051   -2.9870 H   0  0  0  0  0  0  0  0  0  0  0  0
   -2.8007   -1.1541   -1.4886 C   0  0  0  0  0  0  0  0  0  0  0  0
   -2.0146   -1.3217   -2.2347 H   0  0  0  0  0  0  0  0  0  0  0  0
   -0.3878   -3.4579   -1.2816 C   0  0  0  0  0  0  0  0  0  0  0  0
    0.5827   -3.9493   -1.4963 H   0  0  0  0  0  0  0  0  0  0  0  0
   -0.6047   -2.8393   -2.1745 H   0  0  0  0  0  0  0  0  0  0  0  0
   -1.4807   -4.5204   -1.0901 C   0  0  0  0  0  0  0  0  0  0  0  0
   -1.2594   -5.1720   -0.2203 H   0  0  0  0  0  0  0  0  0  0  0  0
   -1.5670   -5.1667   -1.9867 H   0  0  0  0  0  0  0  0  0  0  0  0
   -2.4686   -4.0498   -0.9135 H   0  0  0  0  0  0  0  0  0  0  0  0
    1.8403   -3.8386    0.9165 C   0  0  0  0  0  0  0  0  0  0  0  0
    2.3994   -3.8072   -0.0419 H   0  0  0  0  0  0  0  0  0  0  0  0
    1.3032   -4.8135    0.9266 H   0  0  0  0  0  0  0  0  0  0  0  0
    2.8259   -3.7772    2.0820 C   0  0  0  0  0  0  0  0  0  0  0  0
    3.3938   -2.8254    2.0661 H   0  0  0  0  0  0  0  0  0  0  0  0
    3.5596   -4.6045    2.0196 H   0  0  0  0  0  0  0  0  0  0  0  0
    2.3116   -3.8593    3.0615 H   0  0  0  0  0  0  0  0  0  0  0  0
  1  6  2  0  0  0  0
  2  1  1  0  0  0  0
  2  3  2  0  0  0  0
  3  4  1  0  0  0  0
  4  5  1  0  0  0  0
  6  4  1  0  0  0  0
  6  7  1  0  0  0  0
  8  1  1  0  0  0  0
  8  9  1  0  0  0  0
  9 10  1  0  0  0  0
 11  9  2  0  0  0  0
 11 12  1  0  0  0  0
 13 11  1  0  0  0  0
 14 13  1  0  0  0  0
 15 17  1  0  0  0  0
 15 13  2  0  0  0  0
 16 15  1  0  0  0  0
 17  8  2  0  0  0  0
 18 17  1  0  0  0  0
 19 22  1  0  0  0  0
 19  2  1  0  0  0  0
 20 19  1  0  0  0  0
 21 19  1  0  0  0  0
 22 25  1  0  0  0  0
 22 23  1  0  0  0  0
 24 22  1  0  0  0  0
 26  3  1  0  0  0  0
 26 28  1  0  0  0  0
 26 29  1  0  0  0  0
 27 26  1  0  0  0  0
 29 32  1  0  0  0  0
 30 29  1  0  0  0  0
 31 29  1  0  0  0  0
M  END
