6
q = -1.0

 26 27  0  0  0  0  0  0  0  0999 V2000
    2.4783   -0.3766   -0.3301 C   0  0  0  0  0  0  0  0  0  0  0  0
    2.1635   -1.0918   -1.5441 C   0  0  0  0  0  0  0  0  0  0  0  0
    1.7678   -2.4185   -1.1832 C   0  0  0  0  0  0  0  0  0  0  0  0
    1.9008   -2.5456    0.2372 C   0  0  0  0  0  0  0  0  0  0  0  0
    1.6828   -3.4519    0.8152 H   0  0  0  0  0  0  0  0  0  0  0  0
    2.3462   -1.3063    0.7608 C   0  0  0  0  0  3  0  0  0  0  0  0
    2.5829   -1.0938    1.8068 H   0  0  0  0  0  0  0  0  0  0  0  0
    2.3495   -0.6148   -2.9511 C   0  0  0  0  0  0  0  0  0  0  0  0
    2.7318   -1.4397   -3.5844 H   0  0  0  0  0  0  0  0  0  0  0  0
    3.0735    0.2207   -2.9964 H   0  0  0  0  0  0  0  0  0  0  0  0
    1.3945   -0.2646   -3.3969 H   0  0  0  0  0  0  0  0  0  0  0  0
    1.3786   -3.5021   -2.1428 C   0  0  0  0  0  0  0  0  0  0  0  0
    2.2803   -3.9748   -2.5885 H   0  0  0  0  0  0  0  0  0  0  0  0
    0.7625   -3.1059   -2.9734 H   0  0  0  0  0  0  0  0  0  0  0  0
    0.7922   -4.2893   -1.6333 H   0  0  0  0  0  0  0  0  0  0  0  0
    2.9153    1.0302   -0.2380 C   0  0  0  0  0  0  0  0  0  0  0  0
    3.8892    1.4415    0.6996 C   0  0  0  0  0  0  0  0  0  0  0  0
    4.4325    0.5258    1.5334 F   0  0  0  0  0  0  0  0  0  0  0  0
    4.3227    2.7661    0.8085 C   0  0  0  0  0  0  0  0  0  0  0  0
    5.0880    3.0108    1.5589 H   0  0  0  0  0  0  0  0  0  0  0  0
    3.7735    3.7392   -0.0386 C   0  0  0  0  0  0  0  0  0  0  0  0
    4.1068    4.7844    0.0430 H   0  0  0  0  0  0  0  0  0  0  0  0
    2.7959    3.3730   -0.9778 C   0  0  0  0  0  0  0  0  0  0  0  0
    2.3476    4.1319   -1.6357 H   0  0  0  0  0  0  0  0  0  0  0  0
    2.3741    2.0404   -1.0707 C   0  0  0  0  0  0  0  0  0  0  0  0
    1.5761    1.7662   -1.7761 H   0  0  0  0  0  0  0  0  0  0  0  0
  1 16  1  0  0  0  0
  1  6  1  0  0  0  0
  2  3  1  0  0  0  0
  2  1  2  0  0  0  0
  3  4  2  0  0  0  0
  4  6  1  0  0  0  0
  4  5  1  0  0  0  0
  6  7  1  0  0  0  0
  8  2  1  0  0  0  0
  9  8  1  0  0  0  0
 10  8  1  0  0  0  0
 11  8  1  0  0  0  0
 12 15  1  0  0  0  0
 12  3  1  0  0  0  0
 13 12  1  0  0  0  0
 14 12  1  0  0  0  0
 16 17  1  0  0  0  0
 17 19  2  0  0  0  0
 17 18  1  0  0  0  0
 19 20  1  0  0  0  0
 21 22  1  0  0  0  0
 21 19  1  0  0  0  0
 23 21  2  0  0  0  0
 24 23  1  0  0  0  0
 25 23  1  0  0  0  0
 25 16  2  0  0  0  0
 26 25  1  0  0  0  0
M  END
