2
q = -1.0, confidence = 0.0

 35 36  0  0  0  0  0  0  0  0999 V2000
    1.5289    0.5663   -1.2088 C   0  0  0  0  0  0  0  0  0  0  0  0
    0.1748    0.9378   -1.5134 C   0  0  0  0  0  3  0  0  0  0  0  0
   -0.3314    1.8552   -1.1914 H   0  0  0  0  0  0  0  0  0  0  0  0
   -0.4052   -0.0906   -2.3014 C   0  0  0  0  0  0  0  0  0  0  0  0
   -1.4370   -0.1056   -2.6694 H   0  0  0  0  0  0  0  0  0  0  0  0
    0.5803   -1.1043   -2.5223 C   0  0  0  0  0  0  0  0  0  0  0  0
    1.7797   -0.7023   -1.8510 C   0  0  0  0  0  0  0  0  0  0  0  0
    0.4264   -2.3504   -3.3589 C   0  0  0  0  0  0  0  0  0  0  0  0
    1.2960   -2.4098   -4.0494 H   0  0  0  0  0  0  0  0  0  0  0  0
    0.5075   -3.2447   -2.7032 H   0  0  0  0  0  0  0  0  0  0  0  0
   -0.8749   -2.4178   -4.1574 C   0  0  0  0  0  0  0  0  0  0  0  0
   -1.7512   -2.4377   -3.4803 H   0  0  0  0  0  0  0  0  0  0  0  0
   -0.9083   -3.3356   -4.7768 H   0  0  0  0  0  0  0  0  0  0  0  0
   -0.9798   -1.5466   -4.8365 H   0  0  0  0  0  0  0  0  0  0  0  0
    3.1099   -1.3838   -2.0122 C   0  0  0  0  0  0  0  0  0  0  0  0
    2.9464   -2.4647   -2.1934 H   0  0  0  0  0  0  0  0  0  0  0  0
    3.6952   -1.3284   -1.0759 H   0  0  0  0  0  0  0  0  0  0  0  0
    3.9130   -0.7598   -3.1642 C   0  0  0  0  0  0  0  0  0  0  0  0
    3.3627   -0.8249   -4.1250 H   0  0  0  0  0  0  0  0  0  0  0  0
    4.8870   -1.2736   -3.2932 H   0  0  0  0  0  0  0  0  0  0  0  0
    4.1156    0.3127   -2.9685 H   0  0  0  0  0  0  0  0  0  0  0  0
    2.4830    1.3972   -0.4431 C   0  0  0  0  0  0  0  0  0  0  0  0
    2.4879    2.7994   -0.6138 C   0  0  0  0  0  0  0  0  0  0  0  0
    1.8041    3.2535   -1.3470 H   0  0  0  0  0  0  0  0  0  0  0  0
    3.3586    3.6144    0.1223 C   0  0  0  0  0  0  0  0  0  0  0  0
    3.3407    4.7047   -0.0346 H   0  0  0  0  0  0  0  0  0  0  0  0
    4.2618    3.0664    1.0544 C   0  0  0  0  0  0  0  0  0  0  0  0
    4.2500    1.6661    1.2294 C   0  0  0  0  0  0  0  0  0  0  0  0
    4.9305    1.2082    1.9652 H   0  0  0  0  0  0  0  0  0  0  0  0
    3.3808    0.8460    0.5017 C   0  0  0  0  0  0  0  0  0  0  0  0
    3.3631   -0.2369    0.6961 H   0  0  0  0  0  0  0  0  0  0  0  0
    5.2220    3.9364    1.8248 C   0  0  0  0  0  0  0  0  0  0  0  0
    5.3101    3.6101    2.8808 H   0  0  0  0  0  0  0  0  0  0  0  0
    4.9096    4.9988    1.8164 H   0  0  0  0  0  0  0  0  0  0  0  0
    6.2427    3.8883    1.3877 H   0  0  0  0  0  0  0  0  0  0  0  0
  1 22  1  0  0  0  0
  2  1  1  0  0  0  0
  2  3  1  0  0  0  0
  4  2  1  0  0  0  0
  5  4  1  0  0  0  0
  6  4  2  0  0  0  0
  6  7  1  0  0  0  0
  7  1  2  0  0  0  0
  8 10  1  0  0  0  0
  8  6  1  0  0  0  0
  9  8  1  0  0  0  0
 11 12  1  0  0  0  0
 11  8  1  0  0  0  0
 13 11  1  0  0  0  0
 14 11  1  0  0  0  0
 15  7  1  0  0  0  0
 15 17  1  0  0  0  0
 16 15  1  0  0  0  0
 18 21  1  0  0  0  0
 18 15  1  0  0  0  0
 19 18  1  0  0  0  0
 20 18  1  0  0  0  0
 22 30  1  0  0  0  0
 23 22  2  0  0  0  0
 23 25  1  0  0  0  0
 24 23  1  0  0  0  0
 25 27  2  0  0  0  0
 26 25  1  0  0  0  0
 27 28  1  0  0  0  0
 27 32  1  0  0  0  0
 28 29  1  0  0  0  0
 30 31  1  0  0  0  0
 30 28  2  0  0  0  0
 32 33  1  0  0  0  0
 34 32  1  0  0  0  0
 35 32  1  0  0  0  0
M  END
