6
q = 0.0, confidence = 0.94

 16 17  0  0  0  0  0  0  0  0999 V2000
   -3.3752    0.3690   -1.8559 N   0  0  0  0  0  0  0  0  0  0  0  0
   -3.5564   -1.7864    0.0008 N   0  0  0  0  0  0  0  0  0  0  0  0
   -2.2949   -0.2718   -1.4068 C   0  0  0  0  0  0  0  0  0  0  0  0
   -0.9248    0.1454   -1.7396 C   0  0  0  0  0  3  0  0  0  0  0  0
   -0.8755    1.0570   -2.3553 H   0  0  0  0  0  0  0  0  0  0  0  0
    0.0707   -0.8949   -1.9683 C   0  0  0  0  0  3  0  0  0  0  0  0
    0.8142   -0.8539   -2.7767 H   0  0  0  0  0  0  0  0  0  0  0  0
   -0.0399   -2.0295   -1.1016 C   0  0  0  0  0  3  0  0  0  0  0  0
    0.6211   -2.9001   -1.2162 H   0  0  0  0  0  0  0  0  0  0  0  0
   -1.1013   -1.9896   -0.1243 C   0  0  0  0  0  3  0  0  0  0  0  0
   -1.1469   -2.7917    0.6269 H   0  0  0  0  0  0  0  0  0  0  0  0
   -2.3864   -1.3833   -0.5029 C   0  0  0  0  0  0  0  0  0  0  0  0
   -4.6505   -1.0990   -0.4271 C   0  0  0  0  0  0  0  0  0  0  0  0
   -5.6242   -1.3980   -0.0013 H   0  0  0  0  0  0  0  0  0  0  0  0
   -4.5647   -0.0610   -1.3534 C   0  0  0  0  0  0  0  0  0  0  0  0
   -5.4722    0.4664   -1.6962 H   0  0  0  0  0  0  0  0  0  0  0  0
  1  3  2  0  0  0  0
  1 15  1  0  0  0  0
  3 12  1  0  0  0  0
  4  3  1  0  0  0  0
  5  4  1  0  0  0  0
  6  4  1  0  0  0  0
  6  8  1  0  0  0  0
  7  6  1  0  0  0  0
  8 10  1  0  0  0  0
  9  8  1  0  0  0  0
 10 11  1  0  0  0  0
 12 10  1  0  0  0  0
 12  2  2  0  0  0  0
 13 14  1  0  0  0  0
 13  2  1  0  0  0  0
 15 13  2  0  0  0  0
 16 15  1  0  0  0  0
M  END
