11
q = -1.0

 11 11  0  0  0  0  0  0  0  0999 V2000
   -1.8840   -2.4762   -0.2554 Br  0  0  0  0  0  0  0  0  0  0  0  0
   -0.8777    2.7164    0.4841 F   0  0  0  0  0  0  0  0  0  0  0  0
   -3.4629    3.2905    0.4845 F   0  0  0  0  0  0  0  0  0  0  0  0
   -5.3489    1.3187    0.0915 F   0  0  0  0  0  0  0  0  0  0  0  0
   -4.5448   -1.2411   -0.2658 F   0  0  0  0  0  0  0  0  0  0  0  0
   -1.7230    1.6743    0.2466 C   0  0  0  0  0  0  0  0  0  0  0  0
   -3.0824    2.0224    0.2712 C   0  0  0  0  0  0  0  0  0  0  0  0
   -4.0431    1.0238    0.0752 C   0  0  0  0  0  0  0  0  0  0  0  0
   -3.6079   -0.2948   -0.1191 C   0  0  0  0  0  0  0  0  0  0  0  0
   -2.2326   -0.6063   -0.1303 C   0  0  0  0  0  0  0  0  0  0  0  0
   -1.2192    0.3809    0.0102 C   0  0  0  0  0  0  0  0  0  0  0  0
  1 10  1  0  0  0  0
  5  9  1  0  0  0  0
  6  7  1  0  0  0  0
  6  2  1  0  0  0  0
  7  3  1  0  0  0  0
  8  4  1  0  0  0  0
  8  7  2  0  0  0  0
  9  8  1  0  0  0  0
 10  9  2  0  0  0  0
 10 11  1  0  0  0  0
 11  6  2  0  0  0  0
M  END
