15
q = -1.0, confidence = 0.0

 41 46  0  0  1  0  0  0  0  0999 V2000
    2.0240   -1.1377   -0.0892 C   0  0  0  0  0  0  0  0  0  0  0  0
    1.7489   -1.9705    1.1785 C   0  0  0  0  0  0  0  0  0  0  0  0
    1.7686   -1.3648    2.1022 H   0  0  0  0  0  0  0  0  0  0  0  0
    2.4923   -2.7815    1.2801 H   0  0  0  0  0  0  0  0  0  0  0  0
    0.7443   -2.4248    1.0924 H   0  0  0  0  0  0  0  0  0  0  0  0
    1.9613   -2.0922   -1.2966 C   0  0  0  0  0  0  0  0  0  0  0  0
    2.6422   -2.9484   -1.1442 H   0  0  0  0  0  0  0  0  0  0  0  0
    2.2469   -1.5973   -2.2428 H   0  0  0  0  0  0  0  0  0  0  0  0
    0.9306   -2.4789   -1.3938 H   0  0  0  0  0  0  0  0  0  0  0  0
    0.9840   -0.0264   -0.2277 C   0  0  0  0  0  0  0  0  0  0  0  0
    0.3772    0.4220   -1.4446 C   0  0  0  0  0  0  0  0  0  0  0  0
    0.4675   -0.0685   -2.4199 H   0  0  0  0  0  0  0  0  0  0  0  0
   -0.3606    1.6065   -1.1812 C   0  0  0  0  0  0  0  0  0  0  0  0
   -0.8984    2.1990   -1.9285 H   0  0  0  0  0  0  0  0  0  0  0  0
   -0.2359    1.8994    0.2155 C   0  0  0  0  0  3  0  0  0  0  0  0
   -0.6607    2.7596    0.7446 H   0  0  0  0  0  0  0  0  0  0  0  0
    0.5816    0.8891    0.7956 C   0  0  0  0  0  0  0  0  0  0  0  0
    0.8538    0.8266    1.8537 H   0  0  0  0  0  0  0  0  0  0  0  0
    3.6064    1.1872   -0.0356 C   0  0  2  0  0  0  0  0  0  0  0  0
    2.6560    1.7301   -0.0805 H   0  0  0  0  0  0  0  0  0  0  0  0
    3.4666   -0.4686   -0.0214 C   0  0  2  0  0  0  0  0  0  0  0  0
    4.0325    0.3403   -1.4460 B   0  0  0  0  0  0  0  0  0  0  0  0
    3.2889    0.3981   -2.3891 H   0  0  0  0  0  0  0  0  0  0  0  0
    4.9675    1.7433   -0.8763 B   0  0  1  0  0  0  0  0  0  0  0  0
    4.8615    2.7699   -1.4999 H   0  0  0  0  0  0  0  0  0  0  0  0
    4.8952    1.7618    0.9014 B   0  0  2  0  0  0  0  0  0  0  0  0
    4.7409    2.8002    1.4948 H   0  0  0  0  0  0  0  0  0  0  0  0
    3.9195    0.3686    1.4241 B   0  0  2  0  0  0  0  0  0  0  0  0
    3.1163    0.4429    2.3141 H   0  0  0  0  0  0  0  0  0  0  0  0
    4.8278   -1.1285   -0.8500 B   0  0  1  0  0  0  0  0  0  0  0  0
    4.6928   -2.1545   -1.4609 H   0  0  0  0  0  0  0  0  0  0  0  0
    5.8050    0.2604   -1.3878 B   0  0  1  0  0  0  0  0  0  0  0  0
    6.4348    0.2157   -2.4176 H   0  0  0  0  0  0  0  0  0  0  0  0
    6.3462    1.1410    0.0761 B   0  0  0  0  0  2  0  0  0  0  0  0
    7.3880    1.7520    0.1122 H   0  0  0  0  0  0  0  0  0  0  0  0
    5.6885    0.2888    1.5086 B   0  0  0  0  0  0  0  0  0  0  0  0
    6.2334    0.2663    2.5864 H   0  0  0  0  0  0  0  0  0  0  0  0
    4.7540   -1.1128    0.9223 B   0  0  2  0  0  0  0  0  0  0  0  0
    4.5620   -2.1270    1.5394 H   0  0  0  0  0  0  0  0  0  0  0  0
    6.2558   -0.6391    0.0902 B   0  0  1  0  0  0  0  0  0  0  0  0
    7.2284   -1.3547    0.1363 H   0  0  0  0  0  0  0  0  0  0  0  0
  1  2  1  0  0  0  0
  2  4  1  0  0  0  0
  2  3  1  0  0  0  0
  5  2  1  0  0  0  0
  6  7  1  0  0  0  0
  6  1  1  0  0  0  0
  8  6  1  0  0  0  0
  9  6  1  0  0  0  0
 10  1  1  0  0  0  0
 10 17  2  0  0  0  0
 11 13  2  0  0  0  0
 11 10  1  0  0  0  0
 12 11  1  0  0  0  0
 13 15  1  0  0  0  0
 14 13  1  0  0  0  0
 15 16  1  0  0  0  0
 15 17  1  0  0  0  0
 17 18  1  0  0  0  0
 19 20  1  6  0  0  0
 19 21  1  0  0  0  0
 19 26  1  0  0  0  0
 21  1  1  6  0  0  0
 21 38  1  0  0  0  0
 22 32  1  0  0  0  0
 22 30  1  0  0  0  0
 23 22  1  0  0  0  0
 24 25  1  6  0  0  0
 24 19  1  0  0  0  0
 24 26  1  0  0  0  0
 26 28  1  0  0  0  0
 26 27  1  1  0  0  0
 28 36  1  0  0  0  0
 28 29  1  1  0  0  0
 30 31  1  6  0  0  0
 30 21  1  0  0  0  0
 30 38  1  0  0  0  0
 32 33  1  6  0  0  0
 32 24  1  0  0  0  0
 32 40  1  0  0  0  0
 34 40  1  0  0  0  0
 34 35  1  0  0  0  0
 36 37  1  0  0  0  0
 38 28  1  0  0  0  0
 38 39  1  1  0  0  0
 40 41  1  1  0  0  0
 40 36  1  0  0  0  0
M  END
