6
q = -1.0

 32 32  0  0  1  0  0  0  0  0999 V2000
   -2.2968   -0.3265    0.0728 O   0  0  0  0  0  0  0  0  0  0  0  0
   -0.3775    0.8089    1.5255 C   0  0  0  0  0  0  0  0  0  0  0  0
    0.5518    1.6506    0.8350 C   0  0  0  0  0  0  0  0  0  0  0  0
    1.7679    0.9110    0.6770 C   0  0  0  0  0  0  0  0  0  0  0  0
    1.5838   -0.3913    1.2615 C   0  0  0  0  0  0  0  0  0  0  0  0
    0.2541   -0.4527    1.7930 C   0  0  1  0  0  3  0  0  0  0  0  0
   -1.8018    1.1431    1.8735 C   0  0  0  0  0  0  0  0  0  0  0  0
   -1.8924    2.2028    2.1869 H   0  0  0  0  0  0  0  0  0  0  0  0
   -2.1198    0.5211    2.7333 H   0  0  0  0  0  0  0  0  0  0  0  0
   -2.7303    0.8921    0.6851 C   0  0  0  0  0  0  0  0  0  0  0  0
   -3.7905    0.7839    1.0068 H   0  0  0  0  0  0  0  0  0  0  0  0
   -2.6692    1.7154   -0.0624 H   0  0  0  0  0  0  0  0  0  0  0  0
   -3.2125   -0.8053   -0.9138 C   0  0  0  0  0  0  0  0  0  0  0  0
   -4.2084   -0.9736   -0.4497 H   0  0  0  0  0  0  0  0  0  0  0  0
   -2.8029   -1.7618   -1.2847 H   0  0  0  0  0  0  0  0  0  0  0  0
   -3.2996   -0.0811   -1.7523 H   0  0  0  0  0  0  0  0  0  0  0  0
    0.3480    3.0819    0.4476 C   0  0  0  0  0  0  0  0  0  0  0  0
    0.8332    3.7530    1.1889 H   0  0  0  0  0  0  0  0  0  0  0  0
   -0.7240    3.3474    0.3946 H   0  0  0  0  0  0  0  0  0  0  0  0
    0.7854    3.2987   -0.5456 H   0  0  0  0  0  0  0  0  0  0  0  0
    3.0377    1.4567    0.1073 C   0  0  0  0  0  0  0  0  0  0  0  0
    3.5867    2.0272    0.8880 H   0  0  0  0  0  0  0  0  0  0  0  0
    2.8418    2.1418   -0.7394 H   0  0  0  0  0  0  0  0  0  0  0  0
    3.6989    0.6521   -0.2619 H   0  0  0  0  0  0  0  0  0  0  0  0
    2.6113   -1.4785    1.3043 C   0  0  0  0  0  0  0  0  0  0  0  0
    3.3081   -1.3317    2.1572 H   0  0  0  0  0  0  0  0  0  0  0  0
    3.2058   -1.4933    0.3707 H   0  0  0  0  0  0  0  0  0  0  0  0
    2.1400   -2.4733    1.4122 H   0  0  0  0  0  0  0  0  0  0  0  0
   -0.3627   -1.5856    2.5531 C   0  0  0  0  0  0  0  0  0  0  0  0
   -0.3659   -1.3641    3.6422 H   0  0  0  0  0  0  0  0  0  0  0  0
    0.1943   -2.5272    2.3972 H   0  0  0  0  0  0  0  0  0  0  0  0
   -1.4051   -1.7638    2.2279 H   0  0  0  0  0  0  0  0  0  0  0  0
  1 10  1  0  0  0  0
  2  6  1  0  0  0  0
  2  7  1  0  0  0  0
  3  2  2  0  0  0  0
  4  3  1  0  0  0  0
  4  5  2  0  0  0  0
  5 25  1  0  0  0  0
  5  6  1  0  0  0  0
  6 29  1  1  0  0  0
  7  8  1  0  0  0  0
  7  9  1  0  0  0  0
 10 11  1  0  0  0  0
 10  7  1  0  0  0  0
 12 10  1  0  0  0  0
 13 14  1  0  0  0  0
 13  1  1  0  0  0  0
 15 13  1  0  0  0  0
 16 13  1  0  0  0  0
 17  3  1  0  0  0  0
 17 18  1  0  0  0  0
 19 17  1  0  0  0  0
 20 17  1  0  0  0  0
 21  4  1  0  0  0  0
 21 22  1  0  0  0  0
 23 21  1  0  0  0  0
 24 21  1  0  0  0  0
 25 28  1  0  0  0  0
 25 26  1  0  0  0  0
 27 25  1  0  0  0  0
 29 30  1  0  0  0  0
 31 29  1  0  0  0  0
 32 29  1  0  0  0  0
M  END
