1
q = 0.0, confidence = 0.982

  9  9  0  0  0  0  0  0  0  0999 V2000
    2.0377    0.0000   -0.0000 C   0  0  0  0  0  2  0  0  0  0  0  0
    4.2115    0.4851    0.4854 C   0  0  0  0  0  0  0  0  0  0  0  0
    5.0377    0.9919    0.9925 H   0  0  0  0  0  0  0  0  0  0  0  0
    4.2115   -0.4852   -0.4854 C   0  0  0  0  0  0  0  0  0  0  0  0
    5.0377   -0.9919   -0.9925 H   0  0  0  0  0  0  0  0  0  0  0  0
    2.8806    0.7553    0.7557 N   0  0  0  0  0  0  0  0  0  0  0  0
    2.5493    1.4385    1.4393 H   0  0  0  0  0  0  0  0  0  0  0  0
    2.8807   -0.7553   -0.7557 N   0  0  0  0  0  0  0  0  0  0  0  0
    2.5493   -1.4385   -1.4393 H   0  0  0  0  0  0  0  0  0  0  0  0
  1  6  1  0  0  0  0
  2  6  1  0  0  0  0
  2  3  1  0  0  0  0
  4  2  2  0  0  0  0
  5  4  1  0  0  0  0
  6  7  1  0  0  0  0
  8  4  1  0  0  0  0
  8  1  1  0  0  0  0
  9  8  1  0  0  0  0
M  END
