3
q = 0.0, confidence = 1.0

 39 40  0  0  0  0  0  0  0  0999 V2000
   -1.5875    1.1089   -0.2531 N   0  0  0  0  0  0  0  0  0  0  0  0
   -1.6195   -1.0905    0.0267 N   0  0  0  0  0  0  0  0  0  0  0  0
   -0.8026   -0.0221   -0.2722 C   0  0  0  0  0  2  0  0  0  0  0  0
   -2.9043    0.7689    0.0933 C   0  0  0  0  0  0  0  0  0  0  0  0
   -2.9288   -0.6381    0.2548 C   0  0  0  0  0  0  0  0  0  0  0  0
   -4.0695    1.5336    0.2990 C   0  0  0  0  0  0  0  0  0  0  0  0
   -4.0715    2.6243    0.2030 H   0  0  0  0  0  0  0  0  0  0  0  0
   -5.2529    0.8687    0.6412 C   0  0  0  0  0  0  0  0  0  0  0  0
   -6.1686    1.4554    0.8052 H   0  0  0  0  0  0  0  0  0  0  0  0
   -5.2836   -0.5322    0.7747 C   0  0  0  0  0  0  0  0  0  0  0  0
   -6.2250   -1.0375    1.0354 H   0  0  0  0  0  0  0  0  0  0  0  0
   -4.1281   -1.2994    0.5849 C   0  0  0  0  0  0  0  0  0  0  0  0
   -4.1789   -2.3875    0.6949 H   0  0  0  0  0  0  0  0  0  0  0  0
   -1.1960    2.5325   -0.5757 C   0  0  0  0  0  0  0  0  0  0  0  0
   -2.0821    3.0108   -1.7460 C   0  0  0  0  0  0  0  0  0  0  0  0
   -1.8792    2.3869   -2.6387 H   0  0  0  0  0  0  0  0  0  0  0  0
   -1.8247    4.0594   -1.9917 H   0  0  0  0  0  0  0  0  0  0  0  0
   -3.1651    2.9683   -1.5387 H   0  0  0  0  0  0  0  0  0  0  0  0
   -1.3655    3.3689    0.7080 C   0  0  0  0  0  0  0  0  0  0  0  0
   -0.6879    2.9786    1.4935 H   0  0  0  0  0  0  0  0  0  0  0  0
   -2.3950    3.3587    1.1093 H   0  0  0  0  0  0  0  0  0  0  0  0
   -1.0898    4.4220    0.5037 H   0  0  0  0  0  0  0  0  0  0  0  0
    0.2565    2.6871   -1.0447 C   0  0  0  0  0  0  0  0  0  0  0  0
    0.9798    2.4315   -0.2482 H   0  0  0  0  0  0  0  0  0  0  0  0
    0.3959    3.7543   -1.3129 H   0  0  0  0  0  0  0  0  0  0  0  0
    0.4700    2.0681   -1.9378 H   0  0  0  0  0  0  0  0  0  0  0  0
   -1.2750   -2.5626    0.0651 C   0  0  0  0  0  0  0  0  0  0  0  0
   -2.0875   -3.2547   -1.0489 C   0  0  0  0  0  0  0  0  0  0  0  0
   -1.7770   -2.8458   -2.0307 H   0  0  0  0  0  0  0  0  0  0  0  0
   -3.1798   -3.1230   -0.9492 H   0  0  0  0  0  0  0  0  0  0  0  0
   -1.8725   -4.3411   -1.0403 H   0  0  0  0  0  0  0  0  0  0  0  0
   -1.5886   -3.0959    1.4786 C   0  0  0  0  0  0  0  0  0  0  0  0
   -0.9346   -2.5952    2.2198 H   0  0  0  0  0  0  0  0  0  0  0  0
   -1.3738   -4.1818    1.5129 H   0  0  0  0  0  0  0  0  0  0  0  0
   -2.6361   -2.9487    1.7946 H   0  0  0  0  0  0  0  0  0  0  0  0
    0.2036   -2.8598   -0.2082 C   0  0  0  0  0  0  0  0  0  0  0  0
    0.8643   -2.4073    0.5544 H   0  0  0  0  0  0  0  0  0  0  0  0
    0.5131   -2.5116   -1.2122 H   0  0  0  0  0  0  0  0  0  0  0  0
    0.3236   -3.9615   -0.1635 H   0  0  0  0  0  0  0  0  0  0  0  0
  1  4  1  0  0  0  0
  2 27  1  0  0  0  0
  2  5  1  0  0  0  0
  3  1  1  0  0  0  0
  3  2  1  0  0  0  0
  4  5  2  0  0  0  0
  4  6  1  0  0  0  0
  5 12  1  0  0  0  0
  6  8  2  0  0  0  0
  7  6  1  0  0  0  0
  8 10  1  0  0  0  0
  8  9  1  0  0  0  0
 10 11  1  0  0  0  0
 12 13  1  0  0  0  0
 12 10  2  0  0  0  0
 14  1  1  0  0  0  0
 14 19  1  0  0  0  0
 15 18  1  0  0  0  0
 15 14  1  0  0  0  0
 16 15  1  0  0  0  0
 17 15  1  0  0  0  0
 19 21  1  0  0  0  0
 19 20  1  0  0  0  0
 22 19  1  0  0  0  0
 23 14  1  0  0  0  0
 23 24  1  0  0  0  0
 25 23  1  0  0  0  0
 26 23  1  0  0  0  0
 27 32  1  0  0  0  0
 28 31  1  0  0  0  0
 28 30  1  0  0  0  0
 28 27  1  0  0  0  0
 29 28  1  0  0  0  0
 32 34  1  0  0  0  0
 32 35  1  0  0  0  0
 32 33  1  0  0  0  0
 36 39  1  0  0  0  0
 36 27  1  0  0  0  0
 36 37  1  0  0  0  0
 38 36  1  0  0  0  0
M  END
