10
q = 0.0, confidence = 0.912

 37 39  0  0  1  0  0  0  0  0999 V2000
   -3.5128   -0.9606    0.4414 S   0  0  0  0  0  0  0  0  0  0  0  0
   -2.6134    2.7827    0.0800 O   0  0  0  0  0  0  0  0  0  0  0  0
    0.9106    3.8200    0.9418 O   0  0  0  0  0  0  0  0  0  0  0  0
   -4.2328    1.9165    1.4267 O   0  0  0  0  0  0  0  0  0  0  0  0
   -3.0531   -1.8312   -0.6681 O   0  0  0  0  0  0  0  0  0  0  0  0
   -3.1668   -1.3042    1.8379 O   0  0  0  0  0  0  0  0  0  0  0  0
   -2.8969    0.5816    0.0256 N   0  0  0  0  0  0  0  0  0  0  0  0
    0.3351    2.8713    0.3997 C   0  0  0  0  0  0  0  0  0  0  0  0
    0.3859    1.5021    0.9214 C   0  0  0  0  0  3  0  0  0  0  0  0
   -0.4386    0.4175    0.3904 C   0  0  0  0  0  3  0  0  0  0  0  0
   -1.5683    0.7566   -0.5961 C   0  0  2  0  0  0  0  0  0  0  0  0
   -1.5213    0.1541   -1.5213 H   0  0  0  0  0  0  0  0  0  0  0  0
   -3.3456    1.7787    0.6161 C   0  0  0  0  0  0  0  0  0  0  0  0
   -1.7219    2.2648   -0.9748 C   0  0  2  0  0  0  0  0  0  0  0  0
   -0.4479    3.0898   -0.8918 C   0  0  0  0  0  0  0  0  0  0  0  0
    0.1876    2.8620   -1.7714 H   0  0  0  0  0  0  0  0  0  0  0  0
   -0.7093    4.1647   -0.9428 H   0  0  0  0  0  0  0  0  0  0  0  0
   -2.4286    2.4238   -2.3177 C   0  0  0  0  0  0  0  0  0  0  0  0
   -3.3641    1.8299   -2.3444 H   0  0  0  0  0  0  0  0  0  0  0  0
   -1.7594    2.0760   -3.1291 H   0  0  0  0  0  0  0  0  0  0  0  0
   -2.6781    3.4879   -2.4929 H   0  0  0  0  0  0  0  0  0  0  0  0
   -5.2752   -0.7378    0.3030 C   0  0  0  0  0  0  0  0  0  0  0  0
   -5.8657   -0.8609   -0.9626 C   0  0  0  0  0  0  0  0  0  0  0  0
   -5.2420   -1.0871   -1.8392 H   0  0  0  0  0  0  0  0  0  0  0  0
   -7.2534   -0.7081   -1.0718 C   0  0  0  0  0  0  0  0  0  0  0  0
   -7.7321   -0.8045   -2.0586 H   0  0  0  0  0  0  0  0  0  0  0  0
   -8.0496   -0.4409    0.0618 C   0  0  0  0  0  0  0  0  0  0  0  0
   -7.4175   -0.3353    1.3206 C   0  0  0  0  0  0  0  0  0  0  0  0
   -8.0250   -0.1290    2.2154 H   0  0  0  0  0  0  0  0  0  0  0  0
   -6.0332   -0.4779    1.4537 C   0  0  0  0  0  0  0  0  0  0  0  0
   -5.5322   -0.3810    2.4256 H   0  0  0  0  0  0  0  0  0  0  0  0
   -9.5395   -0.2554   -0.0600 C   0  0  0  0  0  0  0  0  0  0  0  0
  -10.0844   -0.8591    0.6938 H   0  0  0  0  0  0  0  0  0  0  0  0
   -9.9091   -0.5381   -1.0641 H   0  0  0  0  0  0  0  0  0  0  0  0
   -9.8189    0.8050    0.1162 H   0  0  0  0  0  0  0  0  0  0  0  0
    0.7246    1.4525    1.9704 H   0  0  0  0  0  0  0  0  0  0  0  0
   -0.7999   -0.2960    1.1510 H   0  0  0  0  0  0  0  0  0  0  0  0
  1  6  2  0  0  0  0
  2 13  1  0  0  0  0
  5  1  2  0  0  0  0
  7  1  1  0  0  0  0
  7 13  1  0  0  0  0
  8  9  1  0  0  0  0
  8  3  2  0  0  0  0
  9 36  1  0  0  0  0
 10  9  1  0  0  0  0
 10 37  1  0  0  0  0
 11 12  1  6  0  0  0
 11  7  1  0  0  0  0
 11 10  1  0  0  0  0
 13  4  2  0  0  0  0
 14 18  1  6  0  0  0
 14 15  1  0  0  0  0
 14 11  1  0  0  0  0
 14  2  1  0  0  0  0
 15  8  1  0  0  0  0
 16 15  1  0  0  0  0
 17 15  1  0  0  0  0
 19 18  1  0  0  0  0
 20 18  1  0  0  0  0
 21 18  1  0  0  0  0
 22  1  1  0  0  0  0
 22 30  1  0  0  0  0
 23 22  2  0  0  0  0
 24 23  1  0  0  0  0
 25 23  1  0  0  0  0
 25 27  2  0  0  0  0
 26 25  1  0  0  0  0
 27 28  1  0  0  0  0
 28 30  2  0  0  0  0
 28 29  1  0  0  0  0
 30 31  1  0  0  0  0
 32 27  1  0  0  0  0
 32 35  1  0  0  0  0
 32 33  1  0  0  0  0
 34 32  1  0  0  0  0
M  END
