7
q = -1.0, confidence = 0.0

 19 19  0  0  1  0  0  0  0  0999 V2000
    0.2901    1.4975   -1.0609 C   0  0  0  0  0  0  0  0  0  0  0  0
   -0.6567    1.4970    0.0227 C   0  0  0  0  0  0  0  0  0  0  0  0
   -1.5962    0.4257    0.1294 C   0  0  2  0  0  3  0  0  0  0  0  0
   -1.8312   -0.5189   -1.0090 C   0  0  0  0  0  0  0  0  0  0  0  0
   -0.6132   -0.6701   -1.8276 C   0  0  0  0  0  3  0  0  0  0  0  0
   -0.5524   -1.5364   -2.5012 H   0  0  0  0  0  0  0  0  0  0  0  0
    0.3299    0.3809   -1.9450 C   0  0  0  0  0  3  0  0  0  0  0  0
    1.1255    0.3318   -2.7077 H   0  0  0  0  0  0  0  0  0  0  0  0
   -0.6514    2.6489    0.9920 C   0  0  0  0  0  0  0  0  0  0  0  0
   -1.4561    3.3624    0.7157 H   0  0  0  0  0  0  0  0  0  0  0  0
    0.3096    3.1919    0.9659 H   0  0  0  0  0  0  0  0  0  0  0  0
   -0.8473    2.3144    2.0267 H   0  0  0  0  0  0  0  0  0  0  0  0
   -2.5982    0.3728    1.2462 C   0  0  0  0  0  0  0  0  0  0  0  0
   -2.1349    0.5335    2.2381 H   0  0  0  0  0  0  0  0  0  0  0  0
   -3.1090   -0.6082    1.2238 H   0  0  0  0  0  0  0  0  0  0  0  0
   -3.3799    1.1505    1.1084 H   0  0  0  0  0  0  0  0  0  0  0  0
    1.1156    2.5691   -1.1844 O   0  0  0  0  0  0  0  0  0  0  0  0
    1.7944    2.3715   -1.8567 H   0  0  0  0  0  0  0  0  0  0  0  0
   -2.8353   -1.2230   -1.1103 O   0  0  0  0  0  0  0  0  0  0  0  0
  1  2  2  0  0  0  0
  2  3  1  0  0  0  0
  2  9  1  0  0  0  0
  3 13  1  6  0  0  0
  4  3  1  0  0  0  0
  5  4  1  0  0  0  0
  6  5  1  0  0  0  0
  7  5  1  0  0  0  0
  7  1  1  0  0  0  0
  8  7  1  0  0  0  0
  9 12  1  0  0  0  0
 10  9  1  0  0  0  0
 11  9  1  0  0  0  0
 13 14  1  0  0  0  0
 15 13  1  0  0  0  0
 16 13  1  0  0  0  0
 17  1  1  0  0  0  0
 18 17  1  0  0  0  0
 19  4  2  0  0  0  0
M  END
