2
q = -1.0

 17 17  0  0  1  0  0  0  0  0999 V2000
    3.4747   -1.7187   -0.9326 F   0  0  0  0  0  0  0  0  0  0  0  0
    2.6725    0.3488    0.0328 C   0  0  0  0  0  3  0  0  0  0  0  0
    2.7485    1.4411   -0.1592 H   0  0  0  0  0  0  0  0  0  0  0  0
    3.3696    0.0541    1.3616 C   0  0  0  0  0  0  0  0  0  0  0  0
    2.8383    0.5375    2.2029 H   0  0  0  0  0  0  0  0  0  0  0  0
    3.3531   -1.0378    1.5598 H   0  0  0  0  0  0  0  0  0  0  0  0
    4.8330    0.5369    1.3243 C   0  0  0  0  0  0  0  0  0  0  0  0
    4.8448    1.6469    1.2302 H   0  0  0  0  0  0  0  0  0  0  0  0
    5.3361    0.2990    2.2861 H   0  0  0  0  0  0  0  0  0  0  0  0
    5.6025   -0.0793    0.1504 C   0  0  0  0  0  0  0  0  0  0  0  0
    6.6396    0.3148    0.1049 H   0  0  0  0  0  0  0  0  0  0  0  0
    5.6845   -1.1766    0.3038 H   0  0  0  0  0  0  0  0  0  0  0  0
    4.8802    0.1673   -1.1792 C   0  0  0  0  0  0  0  0  0  0  0  0
    4.8761    1.2511   -1.4263 H   0  0  0  0  0  0  0  0  0  0  0  0
    5.3922   -0.3526   -2.0164 H   0  0  0  0  0  0  0  0  0  0  0  0
    3.4238   -0.3122   -1.1151 C   0  0  1  0  0  0  0  0  0  0  0  0
    2.9185   -0.1356   -2.0870 H   0  0  0  0  0  0  0  0  0  0  0  0
  2  4  1  0  0  0  0
  3  2  1  0  0  0  0
  4  6  1  0  0  0  0
  4  5  1  0  0  0  0
  7  4  1  0  0  0  0
  7  9  1  0  0  0  0
  8  7  1  0  0  0  0
 10 12  1  0  0  0  0
 10  7  1  0  0  0  0
 11 10  1  0  0  0  0
 13 16  1  0  0  0  0
 13 10  1  0  0  0  0
 14 13  1  0  0  0  0
 15 13  1  0  0  0  0
 16 17  1  6  0  0  0
 16  1  1  0  0  0  0
 16  2  1  0  0  0  0
M  END
