2
q = -1.0

 16 15  0  0  0  0  0  0  0  0999 V2000
    0.2184   -4.6040   -1.7282 O   0  0  0  0  0  0  0  0  0  0  0  0
    0.3375   -2.8486    0.0550 C   0  0  0  0  0  3  0  0  0  0  0  0
    0.2768   -3.7938   -0.8810 C   0  0  0  0  0  0  0  0  0  0  0  0
    0.5854   -3.1072    1.5585 C   0  0  0  0  0  0  0  0  0  0  0  0
    0.8092   -1.7641    2.2805 C   0  0  0  0  0  0  0  0  0  0  0  0
    0.9654   -1.9411    3.3634 H   0  0  0  0  0  0  0  0  0  0  0  0
   -0.0715   -1.0946    2.1970 H   0  0  0  0  0  0  0  0  0  0  0  0
    1.7071   -1.2398    1.9014 H   0  0  0  0  0  0  0  0  0  0  0  0
    1.8333   -3.9926    1.7272 C   0  0  0  0  0  0  0  0  0  0  0  0
    2.0208   -4.1882    2.8032 H   0  0  0  0  0  0  0  0  0  0  0  0
    2.7291   -3.4952    1.3055 H   0  0  0  0  0  0  0  0  0  0  0  0
    1.7059   -4.9714    1.2209 H   0  0  0  0  0  0  0  0  0  0  0  0
   -0.6712   -3.7957    2.1280 C   0  0  0  0  0  0  0  0  0  0  0  0
   -0.5501   -3.9680    3.2179 H   0  0  0  0  0  0  0  0  0  0  0  0
   -0.8449   -4.7773    1.6423 H   0  0  0  0  0  0  0  0  0  0  0  0
   -1.5695   -3.1671    1.9717 H   0  0  0  0  0  0  0  0  0  0  0  0
  1  3  2  0  0  0  0
  2  4  1  0  0  0  0
  3  2  2  0  0  0  0
  4  9  1  0  0  0  0
  4 13  1  0  0  0  0
  4  5  1  0  0  0  0
  5  6  1  0  0  0  0
  7  5  1  0  0  0  0
  8  5  1  0  0  0  0
  9 10  1  0  0  0  0
 11  9  1  0  0  0  0
 12  9  1  0  0  0  0
 13 14  1  0  0  0  0
 15 13  1  0  0  0  0
 16 13  1  0  0  0  0
M  END
