5
q = 0.0, confidence = 1.0

 54 57  0  0  0  0  0  0  0  0999 V2000
    1.4927    0.4463    0.7548 P   0  0  0  0  0  0  0  0  0  0  0  0
   -3.1092    3.0836   -0.5964 O   0  0  0  0  0  0  0  0  0  0  0  0
   -2.4075   -1.6346    1.6068 N   0  0  0  0  0  0  0  0  0  0  0  0
   -0.6072   -1.2240    2.7266 N   0  0  0  0  0  0  0  0  0  0  0  0
   -1.0800   -1.3281    1.4393 C   0  0  0  0  0  2  0  0  0  0  0  0
   -3.3578   -1.7573    0.5025 C   0  0  0  0  0  0  0  0  0  0  0  0
   -4.1224   -2.5060    0.7860 H   0  0  0  0  0  0  0  0  0  0  0  0
   -2.7811   -2.1664   -0.3530 H   0  0  0  0  0  0  0  0  0  0  0  0
   -4.0168   -0.4415    0.1264 C   0  0  0  0  0  0  0  0  0  0  0  0
   -3.2281    0.7173   -0.0161 C   0  0  0  0  0  0  0  0  0  0  0  0
   -2.1430    0.6452    0.1679 H   0  0  0  0  0  0  0  0  0  0  0  0
   -3.8103    1.9312   -0.4230 C   0  0  0  0  0  0  0  0  0  0  0  0
   -5.1987    1.9875   -0.6813 C   0  0  0  0  0  0  0  0  0  0  0  0
   -5.6372    2.9454   -0.9958 H   0  0  0  0  0  0  0  0  0  0  0  0
   -5.9765    0.8364   -0.5326 C   0  0  0  0  0  0  0  0  0  0  0  0
   -7.0578    0.8856   -0.7326 H   0  0  0  0  0  0  0  0  0  0  0  0
   -5.3966   -0.3806   -0.1274 C   0  0  0  0  0  0  0  0  0  0  0  0
   -6.0196   -1.2813   -0.0150 H   0  0  0  0  0  0  0  0  0  0  0  0
   -1.7167    3.0656   -0.3245 C   0  0  0  0  0  0  0  0  0  0  0  0
   -1.5079    2.8189    0.7409 H   0  0  0  0  0  0  0  0  0  0  0  0
   -1.3368    4.0813   -0.5376 H   0  0  0  0  0  0  0  0  0  0  0  0
   -1.1702    2.3324   -0.9580 H   0  0  0  0  0  0  0  0  0  0  0  0
   -2.7558   -1.7019    2.9476 C   0  0  0  0  0  0  0  0  0  0  0  0
   -3.7735   -1.9254    3.2808 H   0  0  0  0  0  0  0  0  0  0  0  0
   -1.6131   -1.4485    3.6596 C   0  0  0  0  0  0  0  0  0  0  0  0
   -1.4311   -1.4277    4.7385 H   0  0  0  0  0  0  0  0  0  0  0  0
    0.7715   -0.8822    3.0815 C   0  0  0  0  0  0  0  0  0  0  0  0
    1.4522   -1.6584    2.6725 H   0  0  0  0  0  0  0  0  0  0  0  0
    0.8422   -0.9359    4.1850 H   0  0  0  0  0  0  0  0  0  0  0  0
    1.1969    0.5116    2.5930 C   0  0  0  0  0  0  0  0  0  0  0  0
    2.1141    0.8369    3.1256 H   0  0  0  0  0  0  0  0  0  0  0  0
    0.3895    1.2422    2.8057 H   0  0  0  0  0  0  0  0  0  0  0  0
    1.8249    2.1684    0.2283 C   0  0  0  0  0  0  0  0  0  0  0  0
    2.2547    2.3418   -1.1090 C   0  0  0  0  0  0  0  0  0  0  0  0
    2.4310    1.4600   -1.7496 H   0  0  0  0  0  0  0  0  0  0  0  0
    2.4479    3.6314   -1.6192 C   0  0  0  0  0  0  0  0  0  0  0  0
    2.7868    3.7574   -2.6587 H   0  0  0  0  0  0  0  0  0  0  0  0
    2.2039    4.7591   -0.8145 C   0  0  0  0  0  0  0  0  0  0  0  0
    2.3495    5.7708   -1.2226 H   0  0  0  0  0  0  0  0  0  0  0  0
    1.7755    4.5908    0.5104 C   0  0  0  0  0  0  0  0  0  0  0  0
    1.5874    5.4692    1.1467 H   0  0  0  0  0  0  0  0  0  0  0  0
    1.5896    3.3000    1.0344 C   0  0  0  0  0  0  0  0  0  0  0  0
    1.2584    3.1861    2.0774 H   0  0  0  0  0  0  0  0  0  0  0  0
    3.1379   -0.3697    0.6563 C   0  0  0  0  0  0  0  0  0  0  0  0
    4.3109    0.2880    1.0831 C   0  0  0  0  0  0  0  0  0  0  0  0
    4.2569    1.3224    1.4588 H   0  0  0  0  0  0  0  0  0  0  0  0
    5.5475   -0.3667    1.0084 C   0  0  0  0  0  0  0  0  0  0  0  0
    6.4620    0.1508    1.3364 H   0  0  0  0  0  0  0  0  0  0  0  0
    5.6213   -1.6773    0.5043 C   0  0  0  0  0  0  0  0  0  0  0  0
    6.5954   -2.1855    0.4384 H   0  0  0  0  0  0  0  0  0  0  0  0
    4.4582   -2.3311    0.0718 C   0  0  0  0  0  0  0  0  0  0  0  0
    4.5133   -3.3488   -0.3423 H   0  0  0  0  0  0  0  0  0  0  0  0
    3.2171   -1.6794    0.1433 C   0  0  0  0  0  0  0  0  0  0  0  0
    2.3030   -2.1777   -0.2179 H   0  0  0  0  0  0  0  0  0  0  0  0
  1 30  1  0  0  0  0
  2 12  1  0  0  0  0
  2 19  1  0  0  0  0
  3 23  1  0  0  0  0
  4 27  1  0  0  0  0
  4 25  1  0  0  0  0
  5  3  1  0  0  0  0
  5  4  1  0  0  0  0
  6  7  1  0  0  0  0
  6  3  1  0  0  0  0
  8  6  1  0  0  0  0
  9  6  1  0  0  0  0
 10  9  1  0  0  0  0
 10 11  1  0  0  0  0
 12 10  2  0  0  0  0
 13 15  2  0  0  0  0
 13 12  1  0  0  0  0
 14 13  1  0  0  0  0
 15 17  1  0  0  0  0
 16 15  1  0  0  0  0
 17 18  1  0  0  0  0
 17  9  2  0  0  0  0
 19 20  1  0  0  0  0
 21 19  1  0  0  0  0
 22 19  1  0  0  0  0
 23 24  1  0  0  0  0
 23 25  2  0  0  0  0
 25 26  1  0  0  0  0
 27 29  1  0  0  0  0
 28 27  1  0  0  0  0
 30 32  1  0  0  0  0
 30 27  1  0  0  0  0
 30 31  1  0  0  0  0
 33  1  1  0  0  0  0
 33 42  1  0  0  0  0
 34 33  2  0  0  0  0
 35 34  1  0  0  0  0
 36 34  1  0  0  0  0
 36 38  2  0  0  0  0
 37 36  1  0  0  0  0
 38 40  1  0  0  0  0
 39 38  1  0  0  0  0
 40 42  2  0  0  0  0
 40 41  1  0  0  0  0
 42 43  1  0  0  0  0
 44  1  1  0  0  0  0
 44 45  1  0  0  0  0
 45 46  1  0  0  0  0
 47 45  2  0  0  0  0
 47 48  1  0  0  0  0
 49 47  1  0  0  0  0
 50 49  1  0  0  0  0
 51 53  1  0  0  0  0
 51 49  2  0  0  0  0
 52 51  1  0  0  0  0
 53 44  2  0  0  0  0
 54 53  1  0  0  0  0
M  END
