4
q = 0.0, confidence = 1.0

 50 53  0  0  0  0  0  0  0  0999 V2000
   -1.8685   -0.7503    0.2109 P   0  0  0  0  0  0  0  0  0  0  0  0
    0.9451   -2.0420    1.4577 N   0  0  0  0  0  0  0  0  0  0  0  0
    2.5857   -1.6072    0.1221 N   0  0  0  0  0  0  0  0  0  0  0  0
    1.2850   -1.2522    0.3823 C   0  0  0  0  0  2  0  0  0  0  0  0
    3.0460   -2.5692    1.0078 C   0  0  0  0  0  0  0  0  0  0  0  0
    4.0677   -2.9578    0.9738 H   0  0  0  0  0  0  0  0  0  0  0  0
    2.0064   -2.8466    1.8544 C   0  0  0  0  0  0  0  0  0  0  0  0
    1.9380   -3.5342    2.7029 H   0  0  0  0  0  0  0  0  0  0  0  0
   -0.3518   -2.0394    2.1402 C   0  0  0  0  0  0  0  0  0  0  0  0
   -0.4797   -1.0748    2.6767 H   0  0  0  0  0  0  0  0  0  0  0  0
   -0.3043   -2.8331    2.9104 H   0  0  0  0  0  0  0  0  0  0  0  0
   -1.5461   -2.2884    1.2094 C   0  0  0  0  0  0  0  0  0  0  0  0
   -2.4384   -2.5542    1.8129 H   0  0  0  0  0  0  0  0  0  0  0  0
   -1.3218   -3.1297    0.5219 H   0  0  0  0  0  0  0  0  0  0  0  0
   -3.3028   -1.1312   -0.8617 C   0  0  0  0  0  0  0  0  0  0  0  0
   -3.8257   -2.4263   -1.0460 C   0  0  0  0  0  0  0  0  0  0  0  0
   -3.3997   -3.2848   -0.5058 H   0  0  0  0  0  0  0  0  0  0  0  0
   -4.9019   -2.6330   -1.9254 C   0  0  0  0  0  0  0  0  0  0  0  0
   -5.3046   -3.6480   -2.0645 H   0  0  0  0  0  0  0  0  0  0  0  0
   -5.4632   -1.5511   -2.6192 C   0  0  0  0  0  0  0  0  0  0  0  0
   -6.3075   -1.7151   -3.3058 H   0  0  0  0  0  0  0  0  0  0  0  0
   -4.9437   -0.2571   -2.4362 C   0  0  0  0  0  0  0  0  0  0  0  0
   -5.3811    0.5955   -2.9777 H   0  0  0  0  0  0  0  0  0  0  0  0
   -3.8653   -0.0425   -1.5690 C   0  0  0  0  0  0  0  0  0  0  0  0
   -3.4569    0.9744   -1.4333 H   0  0  0  0  0  0  0  0  0  0  0  0
   -2.5950    0.3602    1.4904 C   0  0  0  0  0  0  0  0  0  0  0  0
   -1.8420    1.4532    1.9622 C   0  0  0  0  0  0  0  0  0  0  0  0
   -0.8490    1.6570    1.5310 H   0  0  0  0  0  0  0  0  0  0  0  0
   -2.3677    2.2929    2.9566 C   0  0  0  0  0  0  0  0  0  0  0  0
   -1.7774    3.1525    3.3072 H   0  0  0  0  0  0  0  0  0  0  0  0
   -3.6458    2.0485    3.4798 C   0  0  0  0  0  0  0  0  0  0  0  0
   -4.0613    2.7131    4.2526 H   0  0  0  0  0  0  0  0  0  0  0  0
   -4.4041    0.9633    3.0065 C   0  0  0  0  0  0  0  0  0  0  0  0
   -5.4122    0.7775    3.4077 H   0  0  0  0  0  0  0  0  0  0  0  0
   -3.8836    0.1223    2.0137 C   0  0  0  0  0  0  0  0  0  0  0  0
   -4.4880   -0.7147    1.6291 H   0  0  0  0  0  0  0  0  0  0  0  0
    3.3825   -1.0701   -0.9900 C   0  0  0  0  0  0  0  0  0  0  0  0
    2.7441   -0.2896   -1.4452 H   0  0  0  0  0  0  0  0  0  0  0  0
    3.5259   -1.8811   -1.7343 H   0  0  0  0  0  0  0  0  0  0  0  0
    4.7154   -0.5131   -0.5454 C   0  0  0  0  0  0  0  0  0  0  0  0
    5.8719   -1.3181   -0.5761 C   0  0  0  0  0  0  0  0  0  0  0  0
    5.8090   -2.3464   -0.9695 H   0  0  0  0  0  0  0  0  0  0  0  0
    7.1037   -0.8178   -0.1271 C   0  0  0  0  0  0  0  0  0  0  0  0
    8.0006   -1.4552   -0.1592 H   0  0  0  0  0  0  0  0  0  0  0  0
    7.1891    0.4987    0.3523 C   0  0  0  0  0  0  0  0  0  0  0  0
    8.1543    0.8961    0.7018 H   0  0  0  0  0  0  0  0  0  0  0  0
    6.0435    1.3110    0.3702 C   0  0  0  0  0  0  0  0  0  0  0  0
    6.1078    2.3503    0.7265 H   0  0  0  0  0  0  0  0  0  0  0  0
    4.8099    0.8128   -0.0755 C   0  0  0  0  0  0  0  0  0  0  0  0
    3.9263    1.4739   -0.0849 H   0  0  0  0  0  0  0  0  0  0  0  0
  1 12  1  0  0  0  0
  1 26  1  0  0  0  0
  2  7  1  0  0  0  0
  2  9  1  0  0  0  0
  3  4  1  0  0  0  0
  3  5  1  0  0  0  0
  4  2  1  0  0  0  0
  5  7  2  0  0  0  0
  6  5  1  0  0  0  0
  7  8  1  0  0  0  0
  9 10  1  0  0  0  0
  9 11  1  0  0  0  0
 12 13  1  0  0  0  0
 12  9  1  0  0  0  0
 14 12  1  0  0  0  0
 15  1  1  0  0  0  0
 16 15  1  0  0  0  0
 16 17  1  0  0  0  0
 18 16  2  0  0  0  0
 19 18  1  0  0  0  0
 20 22  2  0  0  0  0
 20 18  1  0  0  0  0
 21 20  1  0  0  0  0
 22 24  1  0  0  0  0
 23 22  1  0  0  0  0
 24 25  1  0  0  0  0
 24 15  2  0  0  0  0
 26 27  2  0  0  0  0
 26 35  1  0  0  0  0
 27 29  1  0  0  0  0
 28 27  1  0  0  0  0
 29 30  1  0  0  0  0
 29 31  2  0  0  0  0
 31 32  1  0  0  0  0
 33 34  1  0  0  0  0
 33 31  1  0  0  0  0
 35 33  2  0  0  0  0
 36 35  1  0  0  0  0
 37 40  1  0  0  0  0
 37  3  1  0  0  0  0
 38 37  1  0  0  0  0
 39 37  1  0  0  0  0
 40 49  1  0  0  0  0
 41 40  2  0  0  0  0
 41 43  1  0  0  0  0
 42 41  1  0  0  0  0
 43 45  2  0  0  0  0
 44 43  1  0  0  0  0
 45 47  1  0  0  0  0
 45 46  1  0  0  0  0
 47 48  1  0  0  0  0
 49 47  2  0  0  0  0
 50 49  1  0  0  0  0
M  END
