26
q = -1.0, confidence = 0.0

 28 28  0  0  1  0  0  0  0  0999 V2000
    0.9927    1.8558   -0.5896 C   0  0  0  0  0  3  0  0  0  0  0  0
    4.6840    0.5127    0.9639 C   0  0  0  0  0  0  0  0  0  0  0  0
    5.5657    1.1451    1.1960 H   0  0  0  0  0  0  0  0  0  0  0  0
    3.9139    0.7537    1.7282 H   0  0  0  0  0  0  0  0  0  0  0  0
    5.0518   -0.9736    1.0601 C   0  0  0  0  0  0  0  0  0  0  0  0
    6.0403   -1.1572    0.5758 H   0  0  0  0  0  0  0  0  0  0  0  0
    5.1964   -1.2733    2.1215 H   0  0  0  0  0  0  0  0  0  0  0  0
    1.3693    2.3386   -1.9780 C   0  0  0  0  0  0  0  0  0  0  0  0
    2.3080    2.9372   -1.9536 H   0  0  0  0  0  0  0  0  0  0  0  0
    0.5728    2.9928   -2.3840 H   0  0  0  0  0  0  0  0  0  0  0  0
    1.5090    1.5087   -2.6948 H   0  0  0  0  0  0  0  0  0  0  0  0
    4.1292    0.8493   -0.4238 C   0  0  0  0  0  0  0  0  0  0  0  0
    4.8874    0.5986   -1.1975 H   0  0  0  0  0  0  0  0  0  0  0  0
    3.9310    1.9371   -0.5135 H   0  0  0  0  0  0  0  0  0  0  0  0
    1.6627    0.7300   -0.0157 C   0  0  2  0  0  3  0  0  0  0  0  0
    4.0238   -1.8626    0.4114 C   0  0  0  0  0  0  0  0  0  0  0  0
    4.1193   -2.9491    0.5816 H   0  0  0  0  0  0  0  0  0  0  0  0
    3.0253   -1.4120   -0.3770 C   0  0  0  0  0  0  0  0  0  0  0  0
    2.3165   -2.1274   -0.8216 H   0  0  0  0  0  0  0  0  0  0  0  0
    0.4596    2.9849    0.2807 C   0  0  0  0  0  0  0  0  0  0  0  0
    0.2481    2.6866    1.3226 H   0  0  0  0  0  0  0  0  0  0  0  0
   -0.4642    3.4257   -0.1459 H   0  0  0  0  0  0  0  0  0  0  0  0
    1.2174    3.8019    0.3206 H   0  0  0  0  0  0  0  0  0  0  0  0
    2.8369    0.0463   -0.7285 C   0  0  2  0  0  0  0  0  0  0  0  0
    2.6436    0.0998   -1.8188 H   0  0  0  0  0  0  0  0  0  0  0  0
    1.1401    0.1862    1.2072 C   0  0  0  0  0  3  0  0  0  0  0  0
    1.6177   -0.7273    1.5935 H   0  0  0  0  0  0  0  0  0  0  0  0
    0.7732    0.8724    1.9899 H   0  0  0  0  0  0  0  0  0  0  0  0
  1 20  1  0  0  0  0
  2  5  1  0  0  0  0
  2  3  1  0  0  0  0
  2  4  1  0  0  0  0
  5  7  1  0  0  0  0
  6  5  1  0  0  0  0
  8  9  1  0  0  0  0
  8  1  1  0  0  0  0
 10  8  1  0  0  0  0
 11  8  1  0  0  0  0
 12  2  1  0  0  0  0
 13 12  1  0  0  0  0
 14 12  1  0  0  0  0
 15  1  1  6  0  0  0
 15 26  1  0  0  0  0
 16 17  1  0  0  0  0
 16  5  1  0  0  0  0
 18 16  2  0  0  0  0
 19 18  1  0  0  0  0
 20 23  1  0  0  0  0
 20 21  1  0  0  0  0
 22 20  1  0  0  0  0
 24 25  1  6  0  0  0
 24 12  1  0  0  0  0
 24 18  1  0  0  0  0
 24 15  1  0  0  0  0
 26 27  1  0  0  0  0
 26 28  1  0  0  0  0
M  END
