5
q = 0.0, confidence = 1.0

 43 45  0  0  0  0  0  0  0  0999 V2000
   -1.1322   -1.5506   -1.6552 N   0  0  0  0  0  0  0  0  0  0  0  0
    0.9851   -1.2954   -1.9865 N   0  0  0  0  0  0  0  0  0  0  0  0
   -4.9779    3.0704    0.5247 O   0  0  0  0  0  0  0  0  0  0  0  0
    3.8796    3.9622    0.1924 O   0  0  0  0  0  0  0  0  0  0  0  0
    0.0811   -1.6994   -1.0449 C   0  0  0  0  0  2  0  0  0  0  0  0
   -0.9939   -1.0452   -2.9393 C   0  0  0  0  0  0  0  0  0  0  0  0
   -1.8518   -0.8459   -3.5882 H   0  0  0  0  0  0  0  0  0  0  0  0
    0.3520   -0.8841   -3.1498 C   0  0  0  0  0  0  0  0  0  0  0  0
    0.9020   -0.5232   -4.0238 H   0  0  0  0  0  0  0  0  0  0  0  0
   -2.4198   -1.7925   -0.9902 C   0  0  0  0  0  0  0  0  0  0  0  0
   -2.1911   -2.4394   -0.1199 H   0  0  0  0  0  0  0  0  0  0  0  0
   -3.0647   -2.3661   -1.6852 H   0  0  0  0  0  0  0  0  0  0  0  0
   -3.1000   -0.5132   -0.5596 C   0  0  0  0  0  0  0  0  0  0  0  0
   -2.5909    0.2349    0.5174 C   0  0  0  0  0  0  0  0  0  0  0  0
   -1.7041   -0.1308    1.0618 H   0  0  0  0  0  0  0  0  0  0  0  0
   -3.1876    1.4396    0.9129 C   0  0  0  0  0  0  0  0  0  0  0  0
   -2.7647    1.9928    1.7616 H   0  0  0  0  0  0  0  0  0  0  0  0
   -4.3229    1.9184    0.2231 C   0  0  0  0  0  0  0  0  0  0  0  0
   -4.8433    1.1734   -0.8573 C   0  0  0  0  0  0  0  0  0  0  0  0
   -5.7313    1.5595   -1.3779 H   0  0  0  0  0  0  0  0  0  0  0  0
   -4.2342   -0.0242   -1.2393 C   0  0  0  0  0  0  0  0  0  0  0  0
   -4.6552   -0.5981   -2.0809 H   0  0  0  0  0  0  0  0  0  0  0  0
   -4.5037    3.8529    1.6055 C   0  0  0  0  0  0  0  0  0  0  0  0
   -4.5381    3.2951    2.5680 H   0  0  0  0  0  0  0  0  0  0  0  0
   -5.1738    4.7296    1.6741 H   0  0  0  0  0  0  0  0  0  0  0  0
   -3.4619    4.2064    1.4359 H   0  0  0  0  0  0  0  0  0  0  0  0
    2.4340   -1.2016   -1.7401 C   0  0  0  0  0  0  0  0  0  0  0  0
    2.9453   -1.4272   -2.6969 H   0  0  0  0  0  0  0  0  0  0  0  0
    2.6793   -2.0054   -1.0197 H   0  0  0  0  0  0  0  0  0  0  0  0
    2.8550    0.1476   -1.2039 C   0  0  0  0  0  0  0  0  0  0  0  0
    2.8827    0.3919    0.1806 C   0  0  0  0  0  0  0  0  0  0  0  0
    2.6305   -0.4174    0.8865 H   0  0  0  0  0  0  0  0  0  0  0  0
    3.2197    1.6539    0.6914 C   0  0  0  0  0  0  0  0  0  0  0  0
    3.2324    1.8018    1.7792 H   0  0  0  0  0  0  0  0  0  0  0  0
    3.5390    2.7046   -0.1942 C   0  0  0  0  0  0  0  0  0  0  0  0
    3.5212    2.4680   -1.5871 C   0  0  0  0  0  0  0  0  0  0  0  0
    3.7840    3.2965   -2.2603 H   0  0  0  0  0  0  0  0  0  0  0  0
    3.1836    1.2057   -2.0777 C   0  0  0  0  0  0  0  0  0  0  0  0
    3.1824    1.0367   -3.1670 H   0  0  0  0  0  0  0  0  0  0  0  0
    3.9236    4.2514    1.5781 C   0  0  0  0  0  0  0  0  0  0  0  0
    2.9321    4.1090    2.0633 H   0  0  0  0  0  0  0  0  0  0  0  0
    4.2184    5.3134    1.6665 H   0  0  0  0  0  0  0  0  0  0  0  0
    4.6724    3.6223    2.1093 H   0  0  0  0  0  0  0  0  0  0  0  0
  1  5  1  0  0  0  0
  1 10  1  0  0  0  0
  2 27  1  0  0  0  0
  2  5  1  0  0  0  0
  3 23  1  0  0  0  0
  4 40  1  0  0  0  0
  6  1  1  0  0  0  0
  7  6  1  0  0  0  0
  8  6  2  0  0  0  0
  8  2  1  0  0  0  0
  9  8  1  0  0  0  0
 10 13  1  0  0  0  0
 10 11  1  0  0  0  0
 12 10  1  0  0  0  0
 13 14  1  0  0  0  0
 14 16  2  0  0  0  0
 14 15  1  0  0  0  0
 16 17  1  0  0  0  0
 18  3  1  0  0  0  0
 18 16  1  0  0  0  0
 19 18  2  0  0  0  0
 20 19  1  0  0  0  0
 21 19  1  0  0  0  0
 21 13  2  0  0  0  0
 22 21  1  0  0  0  0
 23 25  1  0  0  0  0
 23 24  1  0  0  0  0
 26 23  1  0  0  0  0
 27 30  1  0  0  0  0
 27 29  1  0  0  0  0
 28 27  1  0  0  0  0
 30 31  1  0  0  0  0
 31 33  2  0  0  0  0
 31 32  1  0  0  0  0
 33 34  1  0  0  0  0
 35  4  1  0  0  0  0
 35 33  1  0  0  0  0
 36 35  2  0  0  0  0
 37 36  1  0  0  0  0
 38 36  1  0  0  0  0
 38 30  2  0  0  0  0
 39 38  1  0  0  0  0
 40 42  1  0  0  0  0
 40 41  1  0  0  0  0
 40 43  1  0  0  0  0
M  END
