6
q = -1.0

 17 17  0  0  0  0  0  0  0  0999 V2000
   -0.7222   -3.2064    0.2899 F   0  0  0  0  0  0  0  0  0  0  0  0
   -1.6040   -1.8303    1.7898 F   0  0  0  0  0  0  0  0  0  0  0  0
   -3.3911   -2.7650   -0.0509 F   0  0  0  0  0  0  0  0  0  0  0  0
   -2.1354   -1.9991   -1.7041 F   0  0  0  0  0  0  0  0  0  0  0  0
   -4.6355    3.3925    0.3248 F   0  0  0  0  0  0  0  0  0  0  0  0
   -1.1938   -1.8963    0.4561 C   0  0  0  0  0  3  0  0  0  0  0  0
   -2.4834   -1.7840   -0.3848 C   0  0  0  0  0  0  0  0  0  0  0  0
   -3.1203   -0.4189   -0.2371 C   0  0  0  0  0  0  0  0  0  0  0  0
   -3.9492   -0.1439    0.8638 C   0  0  0  0  0  0  0  0  0  0  0  0
   -4.4648    1.1446    1.0602 C   0  0  0  0  0  0  0  0  0  0  0  0
   -4.1443    2.1508    0.1409 C   0  0  0  0  0  0  0  0  0  0  0  0
   -3.3269    1.8994   -0.9690 C   0  0  0  0  0  0  0  0  0  0  0  0
   -2.8127    0.6065   -1.1496 C   0  0  0  0  0  0  0  0  0  0  0  0
   -4.1757   -0.9472    1.5779 H   0  0  0  0  0  0  0  0  0  0  0  0
   -5.1128    1.3834    1.9155 H   0  0  0  0  0  0  0  0  0  0  0  0
   -3.1186    2.7117   -1.6807 H   0  0  0  0  0  0  0  0  0  0  0  0
   -2.1778    0.3785   -2.0178 H   0  0  0  0  0  0  0  0  0  0  0  0
  1  6  1  0  0  0  0
  4  7  1  0  0  0  0
  6  2  1  0  0  0  0
  7  8  1  0  0  0  0
  7  3  1  0  0  0  0
  7  6  1  0  0  0  0
  8  9  1  0  0  0  0
  9 10  2  0  0  0  0
  9 14  1  0  0  0  0
 10 15  1  0  0  0  0
 11  5  1  0  0  0  0
 11 10  1  0  0  0  0
 12 11  2  0  0  0  0
 13 12  1  0  0  0  0
 13  8  2  0  0  0  0
 16 12  1  0  0  0  0
 17 13  1  0  0  0  0
M  END
