1
q = -1.0

 62 68  0  0  0  0  0  0  0  0999 V2000
   -0.0446   -1.4514   -1.2218 C   0  0  0  0  0  3  0  0  0  0  0  0
   -0.0532   -2.4926   -1.5596 H   0  0  0  0  0  0  0  0  0  0  0  0
    1.1004   -0.5912   -1.1669 C   0  0  0  0  0  0  0  0  0  0  0  0
    0.6864    0.7289   -0.7219 C   0  0  0  0  0  0  0  0  0  0  0  0
   -0.7981    0.7347   -0.7600 C   0  0  0  0  0  0  0  0  0  0  0  0
   -1.2084   -0.6159   -1.0852 C   0  0  0  0  0  0  0  0  0  0  0  0
    2.4520   -0.8865   -1.5164 C   0  0  0  0  0  0  0  0  0  0  0  0
    2.7744   -2.2500   -2.0843 C   0  0  0  0  0  0  0  0  0  0  0  0
    2.3547   -2.3137   -3.1153 H   0  0  0  0  0  0  0  0  0  0  0  0
    2.2292   -3.0307   -1.5116 H   0  0  0  0  0  0  0  0  0  0  0  0
    4.2737   -2.5496   -2.1147 C   0  0  0  0  0  0  0  0  0  0  0  0
    4.6378   -2.7465   -1.0814 H   0  0  0  0  0  0  0  0  0  0  0  0
    4.4703   -3.4704   -2.7007 H   0  0  0  0  0  0  0  0  0  0  0  0
    5.0256   -1.3528   -2.6961 C   0  0  0  0  0  0  0  0  0  0  0  0
    4.6418   -1.1478   -3.7200 H   0  0  0  0  0  0  0  0  0  0  0  0
    6.1074   -1.5721   -2.8042 H   0  0  0  0  0  0  0  0  0  0  0  0
    4.8337   -0.1106   -1.8212 C   0  0  0  0  0  0  0  0  0  0  0  0
    5.4769   -0.1909   -0.9139 H   0  0  0  0  0  0  0  0  0  0  0  0
    5.2143    0.7851   -2.3549 H   0  0  0  0  0  0  0  0  0  0  0  0
    3.4006    0.1264   -1.3840 C   0  0  0  0  0  0  0  0  0  0  0  0
    3.0498    1.3774   -0.7487 C   0  0  0  0  0  0  0  0  0  0  0  0
    4.2004    2.3174   -0.4222 C   0  0  0  0  0  0  0  0  0  0  0  0
    4.9186    1.7682    0.2293 H   0  0  0  0  0  0  0  0  0  0  0  0
    4.7767    2.5286   -1.3484 H   0  0  0  0  0  0  0  0  0  0  0  0
    3.8127    3.6331    0.2562 C   0  0  0  0  0  0  0  0  0  0  0  0
    4.7004    4.0734    0.7549 H   0  0  0  0  0  0  0  0  0  0  0  0
    3.4831    4.3717   -0.5071 H   0  0  0  0  0  0  0  0  0  0  0  0
    2.6660    3.3984    1.2331 C   0  0  0  0  0  0  0  0  0  0  0  0
    2.9606    2.6382    1.9916 H   0  0  0  0  0  0  0  0  0  0  0  0
    2.4130    4.3232    1.7906 H   0  0  0  0  0  0  0  0  0  0  0  0
    1.4448    2.9149    0.4529 C   0  0  0  0  0  0  0  0  0  0  0  0
    1.1027    3.7492   -0.1936 H   0  0  0  0  0  0  0  0  0  0  0  0
    0.6086    2.6898    1.1413 H   0  0  0  0  0  0  0  0  0  0  0  0
    1.7262    1.6798   -0.3817 C   0  0  0  0  0  0  0  0  0  0  0  0
   -2.5770   -0.9852   -1.2319 C   0  0  0  0  0  0  0  0  0  0  0  0
   -2.9063   -2.3906   -1.6750 C   0  0  0  0  0  0  0  0  0  0  0  0
   -2.2527   -2.6582   -2.5339 H   0  0  0  0  0  0  0  0  0  0  0  0
   -2.6219   -3.0852   -0.8531 H   0  0  0  0  0  0  0  0  0  0  0  0
   -4.3798   -2.5853   -2.0388 C   0  0  0  0  0  0  0  0  0  0  0  0
   -4.6132   -3.6671   -2.1138 H   0  0  0  0  0  0  0  0  0  0  0  0
   -4.5860   -2.1463   -3.0404 H   0  0  0  0  0  0  0  0  0  0  0  0
   -5.2620   -1.8982   -0.9973 C   0  0  0  0  0  0  0  0  0  0  0  0
   -5.0204   -2.3070    0.0083 H   0  0  0  0  0  0  0  0  0  0  0  0
   -6.3368   -2.1036   -1.1796 H   0  0  0  0  0  0  0  0  0  0  0  0
   -5.0128   -0.3878   -0.9992 C   0  0  0  0  0  0  0  0  0  0  0  0
   -5.5241    0.0744   -0.1291 H   0  0  0  0  0  0  0  0  0  0  0  0
   -5.4951    0.0751   -1.8917 H   0  0  0  0  0  0  0  0  0  0  0  0
   -3.5436   -0.0153   -0.9708 C   0  0  0  0  0  0  0  0  0  0  0  0
   -3.1589    1.3516   -0.7213 C   0  0  0  0  0  0  0  0  0  0  0  0
   -4.2813    2.3642   -0.5712 C   0  0  0  0  0  0  0  0  0  0  0  0
   -4.8671    2.3873   -1.5190 H   0  0  0  0  0  0  0  0  0  0  0  0
   -4.9984    1.9944    0.1922 H   0  0  0  0  0  0  0  0  0  0  0  0
   -3.8347    3.7809   -0.2116 C   0  0  0  0  0  0  0  0  0  0  0  0
   -4.6667    4.4946   -0.3820 H   0  0  0  0  0  0  0  0  0  0  0  0
   -3.5868    3.8322    0.8713 H   0  0  0  0  0  0  0  0  0  0  0  0
   -2.5953    4.1497   -1.0194 C   0  0  0  0  0  0  0  0  0  0  0  0
   -2.2955    5.2039   -0.8465 H   0  0  0  0  0  0  0  0  0  0  0  0
   -2.8131    4.0517   -2.1063 H   0  0  0  0  0  0  0  0  0  0  0  0
   -1.4525    3.2161   -0.6235 C   0  0  0  0  0  0  0  0  0  0  0  0
   -0.5727    3.3854   -1.2752 H   0  0  0  0  0  0  0  0  0  0  0  0
   -1.1307    3.4758    0.4063 H   0  0  0  0  0  0  0  0  0  0  0  0
   -1.8131    1.7488   -0.6757 C   0  0  0  0  0  0  0  0  0  0  0  0
  1  3  1  0  0  0  0
  1  6  1  0  0  0  0
  2  1  1  0  0  0  0
  3  4  1  0  0  0  0
  4 34  2  0  0  0  0
  5  4  1  0  0  0  0
  5 62  1  0  0  0  0
  6  5  2  0  0  0  0
  7 20  1  0  0  0  0
  7  3  2  0  0  0  0
  8  7  1  0  0  0  0
  8 10  1  0  0  0  0
  9  8  1  0  0  0  0
 11  8  1  0  0  0  0
 11 12  1  0  0  0  0
 13 11  1  0  0  0  0
 14 11  1  0  0  0  0
 14 17  1  0  0  0  0
 15 14  1  0  0  0  0
 16 14  1  0  0  0  0
 17 20  1  0  0  0  0
 17 18  1  0  0  0  0
 19 17  1  0  0  0  0
 20 21  2  0  0  0  0
 21 22  1  0  0  0  0
 21 34  1  0  0  0  0
 22 23  1  0  0  0  0
 22 25  1  0  0  0  0
 24 22  1  0  0  0  0
 25 26  1  0  0  0  0
 25 28  1  0  0  0  0
 27 25  1  0  0  0  0
 28 30  1  0  0  0  0
 28 29  1  0  0  0  0
 31 33  1  0  0  0  0
 31 28  1  0  0  0  0
 32 31  1  0  0  0  0
 34 31  1  0  0  0  0
 35  6  1  0  0  0  0
 35 48  2  0  0  0  0
 36 35  1  0  0  0  0
 36 38  1  0  0  0  0
 37 36  1  0  0  0  0
 39 36  1  0  0  0  0
 39 42  1  0  0  0  0
 40 39  1  0  0  0  0
 41 39  1  0  0  0  0
 42 43  1  0  0  0  0
 44 42  1  0  0  0  0
 45 42  1  0  0  0  0
 45 48  1  0  0  0  0
 45 46  1  0  0  0  0
 47 45  1  0  0  0  0
 48 49  1  0  0  0  0
 49 62  2  0  0  0  0
 49 50  1  0  0  0  0
 50 53  1  0  0  0  0
 50 52  1  0  0  0  0
 51 50  1  0  0  0  0
 53 55  1  0  0  0  0
 54 53  1  0  0  0  0
 56 57  1  0  0  0  0
 56 59  1  0  0  0  0
 56 53  1  0  0  0  0
 58 56  1  0  0  0  0
 59 61  1  0  0  0  0
 60 59  1  0  0  0  0
 62 59  1  0  0  0  0
M  END
