2
q = -1.0, confidence = 0.0

 14 14  0  0  0  0  0  0  0  0999 V2000
   -6.0898    1.9482    0.0872 F   0  0  0  0  0  0  0  0  0  0  0  0
   -2.5445   -0.8367   -1.8003 C   0  0  0  0  0  3  0  0  0  0  0  0
   -2.5745   -0.1540   -2.6680 H   0  0  0  0  0  0  0  0  0  0  0  0
   -2.4562   -1.8798   -2.1524 H   0  0  0  0  0  0  0  0  0  0  0  0
   -3.7209   -0.6556   -0.9117 C   0  0  0  0  0  0  0  0  0  0  0  0
   -4.3727    0.5959   -0.8159 C   0  0  0  0  0  0  0  0  0  0  0  0
   -4.0224    1.4658   -1.3894 H   0  0  0  0  0  0  0  0  0  0  0  0
   -5.4835    0.7443    0.0178 C   0  0  0  0  0  0  0  0  0  0  0  0
   -5.9914   -0.3158    0.7790 C   0  0  0  0  0  0  0  0  0  0  0  0
   -6.8684   -0.1541    1.4213 H   0  0  0  0  0  0  0  0  0  0  0  0
   -5.3529   -1.5621    0.6794 C   0  0  0  0  0  0  0  0  0  0  0  0
   -5.7379   -2.4151    1.2589 H   0  0  0  0  0  0  0  0  0  0  0  0
   -4.2375   -1.7325   -0.1507 C   0  0  0  0  0  0  0  0  0  0  0  0
   -3.7535   -2.7179   -0.2166 H   0  0  0  0  0  0  0  0  0  0  0  0
  2  5  1  0  0  0  0
  3  2  1  0  0  0  0
  4  2  1  0  0  0  0
  5  6  2  0  0  0  0
  5 13  1  0  0  0  0
  6  8  1  0  0  0  0
  7  6  1  0  0  0  0
  8  1  1  0  0  0  0
  8  9  2  0  0  0  0
  9 10  1  0  0  0  0
 11  9  1  0  0  0  0
 11 12  1  0  0  0  0
 13 11  2  0  0  0  0
 14 13  1  0  0  0  0
M  END
