6
q = -1.0

 23 23  0  0  0  0  0  0  0  0999 V2000
   -2.4978   -0.7949   -0.0628 C   0  0  0  0  0  0  0  0  0  0  0  0
   -2.1131   -1.7638    0.9224 C   0  0  0  0  0  0  0  0  0  0  0  0
   -2.2923   -1.6813    1.9992 H   0  0  0  0  0  0  0  0  0  0  0  0
   -1.4516   -2.8377    0.2762 C   0  0  0  0  0  0  0  0  0  0  0  0
   -1.0858   -3.7498    0.7592 H   0  0  0  0  0  0  0  0  0  0  0  0
   -1.3771   -2.5287   -1.1193 C   0  0  0  0  0  3  0  0  0  0  0  0
   -0.9400   -3.1505   -1.9085 H   0  0  0  0  0  0  0  0  0  0  0  0
   -2.0337   -1.2841   -1.3174 C   0  0  0  0  0  0  0  0  0  0  0  0
   -2.1400   -0.7785   -2.2826 H   0  0  0  0  0  0  0  0  0  0  0  0
   -3.4059    0.4126    0.1419 C   0  0  0  0  0  0  0  0  0  0  0  0
   -3.7771    0.5872    1.6239 C   0  0  0  0  0  0  0  0  0  0  0  0
   -4.3289   -0.2974    1.9999 H   0  0  0  0  0  0  0  0  0  0  0  0
   -4.4340    1.4708    1.7465 H   0  0  0  0  0  0  0  0  0  0  0  0
   -2.8739    0.7352    2.2461 H   0  0  0  0  0  0  0  0  0  0  0  0
   -4.6917    0.1566   -0.6797 C   0  0  0  0  0  0  0  0  0  0  0  0
   -5.1840   -0.7795   -0.3497 H   0  0  0  0  0  0  0  0  0  0  0  0
   -4.4738    0.0670   -1.7627 H   0  0  0  0  0  0  0  0  0  0  0  0
   -5.4049    0.9940   -0.5426 H   0  0  0  0  0  0  0  0  0  0  0  0
   -2.7065    1.7089   -0.3778 C   0  0  0  0  0  0  0  0  0  0  0  0
   -1.7988    1.9013    0.2310 H   0  0  0  0  0  0  0  0  0  0  0  0
   -2.3500    1.5734   -1.4198 H   0  0  0  0  0  0  0  0  0  0  0  0
   -3.5744    2.8813   -0.3280 C   0  0  0  0  0  0  0  0  0  0  0  0
   -4.2906    3.8076   -0.2784 N   0  0  0  0  0  0  0  0  0  0  0  0
  1 10  1  0  0  0  0
  1  2  1  0  0  0  0
  2  3  1  0  0  0  0
  4  5  1  0  0  0  0
  4  2  2  0  0  0  0
  6  4  1  0  0  0  0
  7  6  1  0  0  0  0
  8  6  1  0  0  0  0
  8  1  2  0  0  0  0
  9  8  1  0  0  0  0
 10 11  1  0  0  0  0
 11 13  1  0  0  0  0
 11 12  1  0  0  0  0
 11 14  1  0  0  0  0
 15 18  1  0  0  0  0
 15 16  1  0  0  0  0
 15 10  1  0  0  0  0
 17 15  1  0  0  0  0
 19 22  1  0  0  0  0
 19 10  1  0  0  0  0
 19 20  1  0  0  0  0
 21 19  1  0  0  0  0
 22 23  3  0  0  0  0
M  END
