11
q = -1.0

 25 26  0  0  1  0  0  0  0  0999 V2000
    2.7076   -0.4521    0.3346 C   0  0  0  0  0  0  0  0  0  0  0  0
    1.1389   -1.7811    1.3963 C   0  0  0  0  0  0  0  0  0  0  0  0
    0.8735   -0.4205    1.7949 C   0  0  0  0  0  0  0  0  0  0  0  0
    1.8503    0.3804    1.1252 C   0  0  0  0  0  0  0  0  0  0  0  0
    2.3352    2.0553    1.0419 S   0  0  0  0  0  0  0  0  0  0  0  0
   -0.1119    0.0460    2.8171 C   0  0  0  0  0  0  0  0  0  0  0  0
    0.4018   -2.9930    1.8787 C   0  0  0  0  0  0  0  0  0  0  0  0
    3.6699    1.6434   -0.0543 C   0  0  0  0  0  0  0  0  0  0  0  0
    3.7394    0.2971   -0.3285 C   0  0  0  0  0  0  0  0  0  0  0  0
    2.8707   -3.0230   -0.1335 C   0  0  0  0  0  0  0  0  0  0  0  0
    2.2414   -1.8069    0.4714 C   0  0  2  0  0  3  0  0  0  0  0  0
    4.5091    2.7474   -0.6125 C   0  0  0  0  0  0  0  0  0  0  0  0
    0.3339    0.0082    3.8339 H   0  0  0  0  0  0  0  0  0  0  0  0
    5.3756    2.3267   -1.1576 H   0  0  0  0  0  0  0  0  0  0  0  0
    3.6004   -3.4781    0.5712 H   0  0  0  0  0  0  0  0  0  0  0  0
    3.4138   -2.7716   -1.0650 H   0  0  0  0  0  0  0  0  0  0  0  0
   -0.5765   -2.7289    2.3210 H   0  0  0  0  0  0  0  0  0  0  0  0
   -1.0247   -0.5791    2.8220 H   0  0  0  0  0  0  0  0  0  0  0  0
    2.1120   -3.7874   -0.3873 H   0  0  0  0  0  0  0  0  0  0  0  0
    0.9909   -3.5252    2.6564 H   0  0  0  0  0  0  0  0  0  0  0  0
    4.8923    3.4235    0.1794 H   0  0  0  0  0  0  0  0  0  0  0  0
    0.2158   -3.7020    1.0484 H   0  0  0  0  0  0  0  0  0  0  0  0
   -0.4218    1.0909    2.6234 H   0  0  0  0  0  0  0  0  0  0  0  0
    3.9258    3.3660   -1.3270 H   0  0  0  0  0  0  0  0  0  0  0  0
    4.4878   -0.1315   -1.0077 H   0  0  0  0  0  0  0  0  0  0  0  0
  1 11  1  0  0  0  0
  1  4  2  0  0  0  0
  2  3  2  0  0  0  0
  2  7  1  0  0  0  0
  3  6  1  0  0  0  0
  4  3  1  0  0  0  0
  5  4  1  0  0  0  0
  6 18  1  0  0  0  0
  6 13  1  0  0  0  0
  7 17  1  0  0  0  0
  7 20  1  0  0  0  0
  8  5  1  0  0  0  0
  9  8  2  0  0  0  0
  9  1  1  0  0  0  0
 10 15  1  0  0  0  0
 11 10  1  1  0  0  0
 11  2  1  0  0  0  0
 12  8  1  0  0  0  0
 12 21  1  0  0  0  0
 14 12  1  0  0  0  0
 16 10  1  0  0  0  0
 19 10  1  0  0  0  0
 22  7  1  0  0  0  0
 23  6  1  0  0  0  0
 24 12  1  0  0  0  0
 25  9  1  0  0  0  0
M  END
