3
q = 0.0, confidence = 0.99

 33 35  0  0  0  0  0  0  0  0999 V2000
    7.2694    2.2569   -0.3161 O   0  0  0  0  0  0  0  0  0  0  0  0
   -0.3527   -6.5416    0.2571 O   0  0  0  0  0  0  0  0  0  0  0  0
    0.9389    0.0846    0.7652 C   0  0  0  0  0  2  0  0  0  0  0  0
    2.2722   -0.1611    0.4001 C   0  0  0  0  0  0  0  0  0  0  0  0
    1.3829   -1.2160    0.4738 C   0  0  0  0  0  0  0  0  0  0  0  0
    3.5703    0.4066    0.1918 C   0  0  0  0  0  0  0  0  0  0  0  0
    3.8170    1.7237    0.6681 C   0  0  0  0  0  0  0  0  0  0  0  0
    3.0152    2.2382    1.2232 H   0  0  0  0  0  0  0  0  0  0  0  0
    5.0649    2.3066    0.4868 C   0  0  0  0  0  0  0  0  0  0  0  0
    5.2864    3.3169    0.8594 H   0  0  0  0  0  0  0  0  0  0  0  0
    6.0942    1.5998   -0.1823 C   0  0  0  0  0  0  0  0  0  0  0  0
    5.8587    0.2873   -0.6572 C   0  0  0  0  0  0  0  0  0  0  0  0
    6.6459   -0.2755   -1.1754 H   0  0  0  0  0  0  0  0  0  0  0  0
    4.6063   -0.2997   -0.4593 C   0  0  0  0  0  0  0  0  0  0  0  0
    4.4173   -1.3190   -0.8289 H   0  0  0  0  0  0  0  0  0  0  0  0
    1.0096   -2.6002    0.4189 C   0  0  0  0  0  0  0  0  0  0  0  0
    1.8620   -3.6016   -0.0945 C   0  0  0  0  0  0  0  0  0  0  0  0
    2.8660   -3.3256   -0.4502 H   0  0  0  0  0  0  0  0  0  0  0  0
    1.4429   -4.9339   -0.1679 C   0  0  0  0  0  0  0  0  0  0  0  0
    2.1230   -5.6929   -0.5758 H   0  0  0  0  0  0  0  0  0  0  0  0
    0.1497   -5.2862    0.2858 C   0  0  0  0  0  0  0  0  0  0  0  0
   -0.7088   -4.2898    0.8133 C   0  0  0  0  0  0  0  0  0  0  0  0
   -1.7077   -4.5885    1.1618 H   0  0  0  0  0  0  0  0  0  0  0  0
   -0.2838   -2.9692    0.8797 C   0  0  0  0  0  0  0  0  0  0  0  0
   -0.9470   -2.1908    1.2874 H   0  0  0  0  0  0  0  0  0  0  0  0
    8.3509    1.6068   -0.9627 C   0  0  0  0  0  0  0  0  0  0  0  0
    8.6548    0.6809   -0.4263 H   0  0  0  0  0  0  0  0  0  0  0  0
    9.1936    2.3219   -0.9533 H   0  0  0  0  0  0  0  0  0  0  0  0
    8.1058    1.3489   -2.0168 H   0  0  0  0  0  0  0  0  0  0  0  0
    0.4547   -7.5934   -0.2472 C   0  0  0  0  0  0  0  0  0  0  0  0
    0.7291   -7.4271   -1.3124 H   0  0  0  0  0  0  0  0  0  0  0  0
   -0.1515   -8.5142   -0.1704 H   0  0  0  0  0  0  0  0  0  0  0  0
    1.3847   -7.7200    0.3495 H   0  0  0  0  0  0  0  0  0  0  0  0
  1 11  1  0  0  0  0
  2 21  1  0  0  0  0
  4  5  2  0  0  0  0
  4  3  1  0  0  0  0
  5  3  1  0  0  0  0
  6  4  1  0  0  0  0
  6  7  1  0  0  0  0
  7  8  1  0  0  0  0
  9  7  2  0  0  0  0
  9 10  1  0  0  0  0
 11  9  1  0  0  0  0
 12 14  1  0  0  0  0
 12 11  2  0  0  0  0
 13 12  1  0  0  0  0
 14  6  2  0  0  0  0
 15 14  1  0  0  0  0
 16  5  1  0  0  0  0
 16 24  1  0  0  0  0
 17 16  2  0  0  0  0
 18 17  1  0  0  0  0
 19 17  1  0  0  0  0
 19 21  2  0  0  0  0
 20 19  1  0  0  0  0
 21 22  1  0  0  0  0
 22 24  2  0  0  0  0
 22 23  1  0  0  0  0
 24 25  1  0  0  0  0
 26 28  1  0  0  0  0
 26 27  1  0  0  0  0
 26  1  1  0  0  0  0
 29 26  1  0  0  0  0
 30 32  1  0  0  0  0
 30  2  1  0  0  0  0
 30 33  1  0  0  0  0
 31 30  1  0  0  0  0
M  END
