11
q = 0.0, confidence = 0.964

 29 30  0  0  1  0  0  0  0  0999 V2000
    1.1901   -2.5878   -1.0354 Br  0  0  0  0  0  0  0  0  0  0  0  0
   -2.2946    1.2761   -1.8395 O   0  0  0  0  0  0  0  0  0  0  0  0
   -1.4887    2.8194   -0.3962 O   0  0  0  0  0  0  0  0  0  0  0  0
   -2.6064    0.2370    1.0212 O   0  0  0  0  0  0  0  0  0  0  0  0
   -1.8501   -1.7842    0.2742 O   0  0  0  0  0  0  0  0  0  0  0  0
   -0.9842   -0.8322   -0.3305 C   0  0  2  0  0  0  0  0  0  0  0  0
   -1.1189   -0.7975   -1.4326 H   0  0  0  0  0  0  0  0  0  0  0  0
    0.4548   -1.1564    0.0179 C   0  0  1  0  0  3  0  0  0  0  0  0
    0.8511   -1.0950    1.4002 C   0  0  0  0  0  3  0  0  0  0  0  0
    1.5020   -1.8410    1.8776 H   0  0  0  0  0  0  0  0  0  0  0  0
    0.4017    0.0743    2.0707 C   0  0  0  0  0  3  0  0  0  0  0  0
    0.7101    0.2891    3.1049 H   0  0  0  0  0  0  0  0  0  0  0  0
   -0.3326    1.0137    1.2673 C   0  0  0  0  0  3  0  0  0  0  0  0
   -1.3982    0.5255    0.3080 C   0  0  2  0  0  0  0  0  0  0  0  0
   -1.7667    1.5585   -0.7798 C   0  0  0  0  0  0  0  0  0  0  0  0
   -1.8173    3.8381   -1.3529 C   0  0  0  0  0  0  0  0  0  0  0  0
   -1.2236    3.6962   -2.2781 H   0  0  0  0  0  0  0  0  0  0  0  0
   -1.5646    4.7998   -0.8733 H   0  0  0  0  0  0  0  0  0  0  0  0
   -2.8934    3.7990   -1.6132 H   0  0  0  0  0  0  0  0  0  0  0  0
   -3.0287   -1.1125    0.7110 C   0  0  0  0  0  0  0  0  0  0  0  0
   -3.5028   -1.7671    1.9995 C   0  0  0  0  0  0  0  0  0  0  0  0
   -3.7923   -2.8179    1.8075 H   0  0  0  0  0  0  0  0  0  0  0  0
   -4.3781   -1.2239    2.4033 H   0  0  0  0  0  0  0  0  0  0  0  0
   -2.6851   -1.7460    2.7439 H   0  0  0  0  0  0  0  0  0  0  0  0
   -4.0930   -1.0912   -0.3873 C   0  0  0  0  0  0  0  0  0  0  0  0
   -3.7041   -0.5862   -1.2914 H   0  0  0  0  0  0  0  0  0  0  0  0
   -4.9879   -0.5393   -0.0393 H   0  0  0  0  0  0  0  0  0  0  0  0
   -4.3888   -2.1268   -0.6452 H   0  0  0  0  0  0  0  0  0  0  0  0
   -0.5288    2.0069    1.6964 H   0  0  0  0  0  0  0  0  0  0  0  0
  2 15  2  0  0  0  0
  5 20  1  0  0  0  0
  6  7  1  6  0  0  0
  6  8  1  0  0  0  0
  6  5  1  0  0  0  0
  6 14  1  0  0  0  0
  8  1  1  1  0  0  0
  8  9  1  0  0  0  0
  9 10  1  0  0  0  0
  9 11  1  0  0  0  0
 11 12  1  0  0  0  0
 13 29  1  0  0  0  0
 13 11  1  0  0  0  0
 14 15  1  6  0  0  0
 14  4  1  0  0  0  0
 14 13  1  0  0  0  0
 15  3  1  0  0  0  0
 16 18  1  0  0  0  0
 16  3  1  0  0  0  0
 17 16  1  0  0  0  0
 19 16  1  0  0  0  0
 20  4  1  0  0  0  0
 20 21  1  0  0  0  0
 21 23  1  0  0  0  0
 21 24  1  0  0  0  0
 22 21  1  0  0  0  0
 25 27  1  0  0  0  0
 25 20  1  0  0  0  0
 26 25  1  0  0  0  0
 28 25  1  0  0  0  0
M  END
