16
q = -1.0

 58 61  0  0  1  0  0  0  0  0999 V2000
    6.9377   -1.1895   -0.0376 S   0  0  0  0  0  0  0  0  0  0  0  0
   -5.0363    2.4709   -0.4826 O   0  0  0  0  0  0  0  0  0  0  0  0
   -5.1528    2.2611    1.7899 O   0  0  0  0  0  0  0  0  0  0  0  0
    2.1388    0.7706   -0.1816 O   0  0  0  0  0  0  0  0  0  0  0  0
    7.6648    1.3394   -0.0443 N   0  0  0  0  0  0  0  0  0  0  0  0
   11.3912   -1.8008    0.0826 N   0  0  0  0  0  0  0  0  0  0  0  0
   13.6342   -1.1587    0.1337 N   0  0  0  0  0  0  0  0  0  0  0  0
   -7.5496    1.1719   -0.8676 C   0  0  0  0  0  0  0  0  0  0  0  0
   -7.1801    1.5429   -1.8297 H   0  0  0  0  0  0  0  0  0  0  0  0
   -8.7381    0.4195   -0.6369 C   0  0  0  0  0  0  0  0  0  0  0  0
   -9.4564    0.1023   -1.4025 H   0  0  0  0  0  0  0  0  0  0  0  0
   -8.8451    0.1598    0.7812 C   0  0  0  0  0  0  0  0  0  0  0  0
   -9.6586   -0.3803    1.2787 H   0  0  0  0  0  0  0  0  0  0  0  0
   -7.7125    0.7531    1.4193 C   0  0  0  0  0  0  0  0  0  0  0  0
   -7.4772    0.7511    2.4902 H   0  0  0  0  0  0  0  0  0  0  0  0
   -6.9049    1.3893    0.4113 C   0  0  1  0  0  3  0  0  0  0  0  0
   -5.6203    2.0819    0.6791 C   0  0  0  0  0  0  0  0  0  0  0  0
   -3.7027    3.0110   -0.3730 C   0  0  0  0  0  0  0  0  0  0  0  0
   -3.6431    3.6477    0.5335 H   0  0  0  0  0  0  0  0  0  0  0  0
   -3.5759    3.6444   -1.2732 H   0  0  0  0  0  0  0  0  0  0  0  0
   -2.6624    1.8973   -0.3239 C   0  0  0  0  0  0  0  0  0  0  0  0
   -2.8453    1.2809    0.5817 H   0  0  0  0  0  0  0  0  0  0  0  0
   -2.8059    1.2281   -1.1990 H   0  0  0  0  0  0  0  0  0  0  0  0
   -1.2307    2.4382   -0.2982 C   0  0  0  0  0  0  0  0  0  0  0  0
   -1.1048    3.1100    0.5805 H   0  0  0  0  0  0  0  0  0  0  0  0
   -1.0580    3.0761   -1.1946 H   0  0  0  0  0  0  0  0  0  0  0  0
   -0.1765    1.3300   -0.2499 C   0  0  0  0  0  0  0  0  0  0  0  0
   -0.3334    0.6914    0.6455 H   0  0  0  0  0  0  0  0  0  0  0  0
   -0.2823    0.6616   -1.1309 H   0  0  0  0  0  0  0  0  0  0  0  0
    1.2437    1.8737   -0.2183 C   0  0  0  0  0  0  0  0  0  0  0  0
    1.4421    2.5031   -1.1186 H   0  0  0  0  0  0  0  0  0  0  0  0
    1.3938    2.5244    0.6761 H   0  0  0  0  0  0  0  0  0  0  0  0
    3.4808    1.0057   -0.1491 C   0  0  0  0  0  0  0  0  0  0  0  0
    4.0593    2.3014   -0.1472 C   0  0  0  0  0  0  0  0  0  0  0  0
    3.4211    3.1941   -0.1723 H   0  0  0  0  0  0  0  0  0  0  0  0
    5.4488    2.4593   -0.1128 C   0  0  0  0  0  0  0  0  0  0  0  0
    5.9037    3.4602   -0.1109 H   0  0  0  0  0  0  0  0  0  0  0  0
    6.2885    1.3290   -0.0798 C   0  0  0  0  0  0  0  0  0  0  0  0
    5.6839    0.0288   -0.0824 C   0  0  0  0  0  0  0  0  0  0  0  0
    4.2975   -0.1436   -0.1165 C   0  0  0  0  0  0  0  0  0  0  0  0
    3.8208   -1.1332   -0.1187 H   0  0  0  0  0  0  0  0  0  0  0  0
    8.1629    0.1288   -0.0193 C   0  0  0  0  0  0  0  0  0  0  0  0
   10.0968   -1.4945    0.0459 C   0  0  0  0  0  0  0  0  0  0  0  0
    9.3994   -2.3539    0.0355 H   0  0  0  0  0  0  0  0  0  0  0  0
    9.5861   -0.1779    0.0207 C   0  0  0  0  0  0  0  0  0  0  0  0
   10.5449    0.8658    0.0372 C   0  0  0  0  0  0  0  0  0  0  0  0
   10.1868    1.9055    0.0195 H   0  0  0  0  0  0  0  0  0  0  0  0
   11.9002    0.5700    0.0756 C   0  0  0  0  0  0  0  0  0  0  0  0
   12.6349    1.3848    0.0894 H   0  0  0  0  0  0  0  0  0  0  0  0
   12.3057   -0.8018    0.0973 C   0  0  0  0  0  0  0  0  0  0  0  0
   14.0401   -2.5520    0.1674 C   0  0  0  0  0  0  0  0  0  0  0  0
   13.1282   -3.1743    0.1447 H   0  0  0  0  0  0  0  0  0  0  0  0
   14.6147   -2.7805    1.0922 H   0  0  0  0  0  0  0  0  0  0  0  0
   14.6769   -2.8047   -0.7089 H   0  0  0  0  0  0  0  0  0  0  0  0
   14.6659   -0.1429    0.1528 C   0  0  0  0  0  0  0  0  0  0  0  0
   14.6268    0.5113   -0.7467 H   0  0  0  0  0  0  0  0  0  0  0  0
   15.6554   -0.6349    0.1690 H   0  0  0  0  0  0  0  0  0  0  0  0
   14.5965    0.5111    1.0510 H   0  0  0  0  0  0  0  0  0  0  0  0
  1 42  1  0  0  0  0
  2 18  1  0  0  0  0
  2 17  1  0  0  0  0
  4 33  1  0  0  0  0
  5 42  2  0  0  0  0
  6 50  1  0  0  0  0
  7 55  1  0  0  0  0
  7 51  1  0  0  0  0
  8 10  2  0  0  0  0
  8 16  1  0  0  0  0
  9  8  1  0  0  0  0
 10 12  1  0  0  0  0
 11 10  1  0  0  0  0
 12 13  1  0  0  0  0
 12 14  2  0  0  0  0
 14 15  1  0  0  0  0
 16 17  1  6  0  0  0
 16 14  1  0  0  0  0
 17  3  2  0  0  0  0
 18 21  1  0  0  0  0
 18 19  1  0  0  0  0
 20 18  1  0  0  0  0
 21 24  1  0  0  0  0
 21 22  1  0  0  0  0
 23 21  1  0  0  0  0
 24 27  1  0  0  0  0
 24 25  1  0  0  0  0
 26 24  1  0  0  0  0
 27 30  1  0  0  0  0
 27 28  1  0  0  0  0
 29 27  1  0  0  0  0
 30  4  1  0  0  0  0
 30 32  1  0  0  0  0
 31 30  1  0  0  0  0
 33 34  2  0  0  0  0
 33 40  1  0  0  0  0
 34 36  1  0  0  0  0
 35 34  1  0  0  0  0
 36 37  1  0  0  0  0
 36 38  2  0  0  0  0
 38  5  1  0  0  0  0
 39 38  1  0  0  0  0
 39  1  1  0  0  0  0
 40 39  2  0  0  0  0
 41 40  1  0  0  0  0
 42 45  1  0  0  0  0
 43  6  2  0  0  0  0
 44 43  1  0  0  0  0
 45 46  2  0  0  0  0
 45 43  1  0  0  0  0
 46 48  1  0  0  0  0
 47 46  1  0  0  0  0
 48 49  1  0  0  0  0
 48 50  2  0  0  0  0
 50  7  1  0  0  0  0
 51 53  1  0  0  0  0
 52 51  1  0  0  0  0
 54 51  1  0  0  0  0
 55 57  1  0  0  0  0
 55 58  1  0  0  0  0
 56 55  1  0  0  0  0
M  END
