3
q = 0.0, confidence = 0.942

 10  9  0  0  0  0  0  0  0  0999 V2000
    0.8137   -2.9144   -0.1007 C   0  0  0  0  0  3  0  0  0  0  0  0
    0.5221   -3.9724   -0.1341 H   0  0  0  0  0  0  0  0  0  0  0  0
    1.8829   -2.1451   -0.0326 C   0  0  0  0  0  3  0  0  0  0  0  0
    3.3429   -2.2016    0.0337 C   0  0  0  0  0  0  0  0  0  0  0  0
    4.0434   -3.1818   -0.1651 O   0  0  0  0  0  0  0  0  0  0  0  0
    3.8781   -0.9750    0.3493 O   0  0  0  0  0  0  0  0  0  0  0  0
    5.3025   -0.9498    0.4292 C   0  0  0  0  0  0  0  0  0  0  0  0
    5.6739   -1.6526    1.2034 H   0  0  0  0  0  0  0  0  0  0  0  0
    5.5790    0.0885    0.6896 H   0  0  0  0  0  0  0  0  0  0  0  0
    5.7626   -1.2395   -0.5382 H   0  0  0  0  0  0  0  0  0  0  0  0
  1  3  2  0  0  0  0
  2  1  1  0  0  0  0
  3  4  1  0  0  0  0
  4  6  1  0  0  0  0
  5  4  2  0  0  0  0
  6  7  1  0  0  0  0
  7  9  1  0  0  0  0
  7  8  1  0  0  0  0
 10  7  1  0  0  0  0
M  END
