4
q = 0.0, confidence = 1.0

 37 38  0  0  1  0  0  0  0  0999 V2000
    0.1698    0.7774   -1.6955 O   0  0  0  0  0  0  0  0  0  0  0  0
    0.7051    1.0714    0.4201 N   0  0  0  0  0  0  0  0  0  0  0  0
    1.3416    1.7040   -1.7168 N   0  0  0  0  0  0  0  0  0  0  0  0
   -0.1752    0.5810   -0.4356 C   0  0  0  0  0  2  0  0  0  0  0  0
    1.8965    1.5280   -0.3667 C   0  0  2  0  0  0  0  0  0  0  0  0
    2.2344    2.5164   -0.0030 H   0  0  0  0  0  0  0  0  0  0  0  0
    0.6696    1.0387    1.9296 C   0  0  0  0  0  0  0  0  0  0  0  0
   -0.7709    1.2451    2.4238 C   0  0  0  0  0  0  0  0  0  0  0  0
   -1.2722    2.0873    1.9097 H   0  0  0  0  0  0  0  0  0  0  0  0
   -0.7429    1.4509    3.5112 H   0  0  0  0  0  0  0  0  0  0  0  0
   -1.3922    0.3398    2.2802 H   0  0  0  0  0  0  0  0  0  0  0  0
    1.5449    2.1951    2.4393 C   0  0  0  0  0  0  0  0  0  0  0  0
    2.6089    2.0702    2.1579 H   0  0  0  0  0  0  0  0  0  0  0  0
    1.4996    2.2071    3.5446 H   0  0  0  0  0  0  0  0  0  0  0  0
    1.1787    3.1769    2.0767 H   0  0  0  0  0  0  0  0  0  0  0  0
    1.2175   -0.3115    2.4229 C   0  0  0  0  0  0  0  0  0  0  0  0
    0.6459   -1.1488    1.9758 H   0  0  0  0  0  0  0  0  0  0  0  0
    1.1142   -0.3601    3.5249 H   0  0  0  0  0  0  0  0  0  0  0  0
    2.2864   -0.4368    2.1667 H   0  0  0  0  0  0  0  0  0  0  0  0
    3.0390    0.5370   -0.3172 C   0  0  0  0  0  0  0  0  0  0  0  0
    4.3425    1.0009   -0.0757 C   0  0  0  0  0  0  0  0  0  0  0  0
    4.5176    2.0750    0.0996 H   0  0  0  0  0  0  0  0  0  0  0  0
    5.4256    0.1097   -0.0576 C   0  0  0  0  0  0  0  0  0  0  0  0
    6.4405    0.4905    0.1362 H   0  0  0  0  0  0  0  0  0  0  0  0
    5.2331   -1.2668   -0.2815 C   0  0  0  0  0  0  0  0  0  0  0  0
    6.3873   -2.2352   -0.2705 C   0  0  0  0  0  0  0  0  0  0  0  0
    7.3389   -1.7383   -0.0016 H   0  0  0  0  0  0  0  0  0  0  0  0
    6.5196   -2.7068   -1.2668 H   0  0  0  0  0  0  0  0  0  0  0  0
    6.2133   -3.0596    0.4513 H   0  0  0  0  0  0  0  0  0  0  0  0
    3.9164   -1.7213   -0.5193 C   0  0  0  0  0  0  0  0  0  0  0  0
    3.7364   -2.7948   -0.6870 H   0  0  0  0  0  0  0  0  0  0  0  0
    2.8312   -0.8404   -0.5369 C   0  0  0  0  0  0  0  0  0  0  0  0
    1.8180   -1.2441   -0.6937 H   0  0  0  0  0  0  0  0  0  0  0  0
    0.7623    3.0235   -1.9642 C   0  0  0  0  0  0  0  0  0  0  0  0
    0.2801    3.0117   -2.9591 H   0  0  0  0  0  0  0  0  0  0  0  0
    1.6000    3.7476   -1.9945 H   0  0  0  0  0  0  0  0  0  0  0  0
    0.0119    3.3343   -1.2006 H   0  0  0  0  0  0  0  0  0  0  0  0
  1  4  1  0  0  0  0
  2  7  1  0  0  0  0
  3  1  1  0  0  0  0
  3  5  1  0  0  0  0
  4  2  1  0  0  0  0
  5 20  1  0  0  0  0
  5  6  1  1  0  0  0
  5  2  1  0  0  0  0
  7 16  1  0  0  0  0
  7  8  1  0  0  0  0
  7 12  1  0  0  0  0
  8 10  1  0  0  0  0
  9  8  1  0  0  0  0
 11  8  1  0  0  0  0
 12 14  1  0  0  0  0
 13 12  1  0  0  0  0
 15 12  1  0  0  0  0
 16 18  1  0  0  0  0
 17 16  1  0  0  0  0
 19 16  1  0  0  0  0
 20 21  1  0  0  0  0
 21 23  2  0  0  0  0
 21 22  1  0  0  0  0
 23 24  1  0  0  0  0
 25 26  1  0  0  0  0
 25 23  1  0  0  0  0
 26 27  1  0  0  0  0
 26 29  1  0  0  0  0
 28 26  1  0  0  0  0
 30 25  2  0  0  0  0
 31 30  1  0  0  0  0
 32 30  1  0  0  0  0
 32 20  2  0  0  0  0
 33 32  1  0  0  0  0
 34  3  1  0  0  0  0
 34 37  1  0  0  0  0
 35 34  1  0  0  0  0
 36 34  1  0  0  0  0
M  END
