10
q = 0.0, confidence = 0.948

 21 21  0  0  1  0  0  0  0  0999 V2000
    2.2534    3.0488   -1.0073 F   0  0  0  0  0  0  0  0  0  0  0  0
    3.7234    2.1990   -2.3707 F   0  0  0  0  0  0  0  0  0  0  0  0
    4.2749    2.6197   -0.2983 F   0  0  0  0  0  0  0  0  0  0  0  0
    0.3072   -3.2194   -1.9715 F   0  0  0  0  0  0  0  0  0  0  0  0
    0.3347   -1.5160   -3.3538 F   0  0  0  0  0  0  0  0  0  0  0  0
    2.1394   -2.6913   -3.0249 F   0  0  0  0  0  0  0  0  0  0  0  0
    4.7009   -1.5265    2.2780 F   0  0  0  0  0  0  0  0  0  0  0  0
    3.2889   -3.1759    2.0081 F   0  0  0  0  0  0  0  0  0  0  0  0
    2.6639   -1.3546    3.0373 F   0  0  0  0  0  0  0  0  0  0  0  0
    1.4453   -1.2570   -1.2565 C   0  0  2  0  0  3  0  0  0  0  0  0
    1.7662    0.1715   -1.4937 C   0  0  0  0  0  3  0  0  0  0  0  0
    1.6172    0.5786   -2.5076 H   0  0  0  0  0  0  0  0  0  0  0  0
    2.8349    0.7657   -0.7050 C   0  0  0  0  0  0  0  0  0  0  0  0
    3.3936    0.1148    0.3693 C   0  0  0  0  0  0  0  0  0  0  0  0
    4.1733    0.5968    0.9728 H   0  0  0  0  0  0  0  0  0  0  0  0
    2.9591   -1.2181    0.6940 C   0  0  0  0  0  0  0  0  0  0  0  0
    2.0696   -1.8950   -0.1135 C   0  0  0  0  0  0  0  0  0  0  0  0
    1.8197   -2.9424    0.1092 H   0  0  0  0  0  0  0  0  0  0  0  0
    3.4116   -1.8271    1.9873 C   0  0  0  0  0  0  0  0  0  0  0  0
    3.2852    2.1458   -1.0875 C   0  0  0  0  0  0  0  0  0  0  0  0
    1.0566   -2.1597   -2.3977 C   0  0  0  0  0  0  0  0  0  0  0  0
  2 20  1  0  0  0  0
  5 21  1  0  0  0  0
  6 21  1  0  0  0  0
 10 21  1  6  0  0  0
 10 17  1  0  0  0  0
 11 10  1  0  0  0  0
 11 13  1  0  0  0  0
 12 11  1  0  0  0  0
 13 14  2  0  0  0  0
 14 16  1  0  0  0  0
 14 15  1  0  0  0  0
 16 19  1  0  0  0  0
 17 18  1  0  0  0  0
 17 16  2  0  0  0  0
 19  8  1  0  0  0  0
 19  7  1  0  0  0  0
 19  9  1  0  0  0  0
 20  1  1  0  0  0  0
 20 13  1  0  0  0  0
 20  3  1  0  0  0  0
 21  4  1  0  0  0  0
M  END
