7
q = -1.0

 17 17  0  0  0  0  0  0  0  0999 V2000
    1.9952    4.1149    1.3699 F   0  0  0  0  0  0  0  0  0  0  0  0
    0.3605    3.4978    0.0812 F   0  0  0  0  0  0  0  0  0  0  0  0
    0.6371    2.5454    2.0219 F   0  0  0  0  0  0  0  0  0  0  0  0
    4.5983   -1.3918   -2.4733 F   0  0  0  0  0  0  0  0  0  0  0  0
    4.9864   -1.9952   -0.4159 F   0  0  0  0  0  0  0  0  0  0  0  0
    6.2472   -0.4838   -1.3623 F   0  0  0  0  0  0  0  0  0  0  0  0
    1.6960    0.8132   -0.3071 C   0  0  0  0  0  3  0  0  0  0  0  0
    2.6477   -0.0723   -0.8551 C   0  0  0  0  0  0  0  0  0  0  0  0
    2.3099   -0.9706   -1.3907 H   0  0  0  0  0  0  0  0  0  0  0  0
    4.0317    0.1452   -0.7520 C   0  0  0  0  0  0  0  0  0  0  0  0
    4.5194    1.2993   -0.1233 C   0  0  0  0  0  0  0  0  0  0  0  0
    5.6004    1.4779   -0.0450 H   0  0  0  0  0  0  0  0  0  0  0  0
    3.6010    2.2218    0.3879 C   0  0  0  0  0  0  0  0  0  0  0  0
    3.9640    3.1424    0.8644 H   0  0  0  0  0  0  0  0  0  0  0  0
    2.2131    1.9890    0.3071 C   0  0  0  0  0  0  0  0  0  0  0  0
    1.3041    3.0347    0.9247 C   0  0  0  0  0  0  0  0  0  0  0  0
    4.9706   -0.9192   -1.2589 C   0  0  0  0  0  0  0  0  0  0  0  0
  2 16  1  0  0  0  0
  4 17  1  0  0  0  0
  6 17  1  0  0  0  0
  7 15  1  0  0  0  0
  8 10  1  0  0  0  0
  8  7  2  0  0  0  0
  9  8  1  0  0  0  0
 10 11  2  0  0  0  0
 11 12  1  0  0  0  0
 11 13  1  0  0  0  0
 13 14  1  0  0  0  0
 15 13  2  0  0  0  0
 15 16  1  0  0  0  0
 16  1  1  0  0  0  0
 16  3  1  0  0  0  0
 17 10  1  0  0  0  0
 17  5  1  0  0  0  0
M  END
