2
q = 0.0, confidence = 0.912

 23 24  0  0  1  0  0  0  0  0999 V2000
   -0.9686   -0.5434    0.0038 C   0  0  2  0  0  3  0  0  0  0  0  0
   -0.6769    0.7330   -0.5652 C   0  0  0  0  0  3  0  0  0  0  0  0
   -1.4872    1.9092   -0.0914 C   0  0  0  0  0  0  0  0  0  0  0  0
   -2.9299    1.6008   -0.5938 C   0  0  0  0  0  0  0  0  0  0  0  0
   -3.4504    0.1478   -0.3720 C   0  0  1  0  0  0  0  0  0  0  0  0
   -2.9169   -0.9323   -1.3647 C   0  0  0  0  0  0  0  0  0  0  0  0
   -1.5288   -1.5565   -0.9673 C   0  0  0  0  0  0  0  0  0  0  0  0
   -1.6964   -0.5889    1.3402 C   0  0  0  0  0  0  0  0  0  0  0  0
   -3.2155   -0.3436    1.0667 C   0  0  0  0  0  0  0  0  0  0  0  0
   -0.5941    0.7160   -1.6655 H   0  0  0  0  0  0  0  0  0  0  0  0
   -1.1305    2.8695   -0.5131 H   0  0  0  0  0  0  0  0  0  0  0  0
   -1.4781    2.0155    1.0104 H   0  0  0  0  0  0  0  0  0  0  0  0
   -2.9961    1.8370   -1.6766 H   0  0  0  0  0  0  0  0  0  0  0  0
   -3.6215    2.3027   -0.0830 H   0  0  0  0  0  0  0  0  0  0  0  0
   -4.5446    0.2026   -0.5420 H   0  0  0  0  0  0  0  0  0  0  0  0
   -2.8489   -0.4959   -2.3818 H   0  0  0  0  0  0  0  0  0  0  0  0
   -3.6615   -1.7511   -1.4254 H   0  0  0  0  0  0  0  0  0  0  0  0
   -1.6482   -2.5490   -0.4895 H   0  0  0  0  0  0  0  0  0  0  0  0
   -0.8938   -1.6890   -1.8638 H   0  0  0  0  0  0  0  0  0  0  0  0
   -1.2996    0.1671    2.0426 H   0  0  0  0  0  0  0  0  0  0  0  0
   -1.5542   -1.5768    1.8192 H   0  0  0  0  0  0  0  0  0  0  0  0
   -3.7730   -1.2893    1.2191 H   0  0  0  0  0  0  0  0  0  0  0  0
   -3.6191    0.3807    1.8024 H   0  0  0  0  0  0  0  0  0  0  0  0
  1  2  1  6  0  0  0
  1  8  1  0  0  0  0
  2  3  1  0  0  0  0
  3 12  1  0  0  0  0
  4  5  1  0  0  0  0
  4  3  1  0  0  0  0
  4 14  1  0  0  0  0
  5 15  1  6  0  0  0
  5  9  1  0  0  0  0
  6  7  1  0  0  0  0
  6  5  1  0  0  0  0
  7 18  1  0  0  0  0
  7  1  1  0  0  0  0
  8 21  1  0  0  0  0
  8 20  1  0  0  0  0
  9 22  1  0  0  0  0
  9  8  1  0  0  0  0
  9 23  1  0  0  0  0
 10  2  1  0  0  0  0
 11  3  1  0  0  0  0
 13  4  1  0  0  0  0
 16  6  1  0  0  0  0
 17  6  1  0  0  0  0
 19  7  1  0  0  0  0
M  END
