2
q = 0.0, confidence = 0.96

 33 34  0  0  0  0  0  0  0  0999 V2000
    3.1215    0.2302    0.8731 Si  0  0  0  0  0  0  0  0  0  0  0  0
    0.7699   -1.4181    1.0558 C   0  0  0  0  0  2  0  0  0  0  0  0
    1.1889   -2.5316    1.9884 C   0  0  0  0  0  0  0  0  0  0  0  0
    1.8303   -0.8024    0.4843 O   0  0  0  0  0  0  0  0  0  0  0  0
    3.1894    0.6017    2.7174 C   0  0  0  0  0  0  0  0  0  0  0  0
    4.6639   -0.6701    0.2823 C   0  0  0  0  0  0  0  0  0  0  0  0
    4.5919   -1.9811   -0.2380 C   0  0  0  0  0  0  0  0  0  0  0  0
    5.7489   -2.6513   -0.6658 C   0  0  0  0  0  0  0  0  0  0  0  0
    6.9994   -2.0196   -0.5794 C   0  0  0  0  0  0  0  0  0  0  0  0
    7.0903   -0.7154   -0.0656 C   0  0  0  0  0  0  0  0  0  0  0  0
    5.9316   -0.0483    0.3597 C   0  0  0  0  0  0  0  0  0  0  0  0
    2.8995    1.8427   -0.0766 C   0  0  0  0  0  0  0  0  0  0  0  0
    1.9929    2.8231    0.3875 C   0  0  0  0  0  0  0  0  0  0  0  0
    1.8400    4.0401   -0.2921 C   0  0  0  0  0  0  0  0  0  0  0  0
    2.5866    4.2985   -1.4532 C   0  0  0  0  0  0  0  0  0  0  0  0
    3.4835    3.3323   -1.9336 C   0  0  0  0  0  0  0  0  0  0  0  0
    3.6383    2.1171   -1.2487 C   0  0  0  0  0  0  0  0  0  0  0  0
    0.3464   -2.9184    2.5879 H   0  0  0  0  0  0  0  0  0  0  0  0
    1.5685   -3.3700    1.3601 H   0  0  0  0  0  0  0  0  0  0  0  0
    2.0249   -2.2239    2.6545 H   0  0  0  0  0  0  0  0  0  0  0  0
    4.0920    1.2134    2.9228 H   0  0  0  0  0  0  0  0  0  0  0  0
    2.3054    1.1816    3.0491 H   0  0  0  0  0  0  0  0  0  0  0  0
    3.2590   -0.3217    3.3252 H   0  0  0  0  0  0  0  0  0  0  0  0
    3.6118   -2.4777   -0.3115 H   0  0  0  0  0  0  0  0  0  0  0  0
    5.6734   -3.6723   -1.0705 H   0  0  0  0  0  0  0  0  0  0  0  0
    7.9074   -2.5440   -0.9152 H   0  0  0  0  0  0  0  0  0  0  0  0
    8.0692   -0.2161    0.0018 H   0  0  0  0  0  0  0  0  0  0  0  0
    6.0185    0.9788    0.7524 H   0  0  0  0  0  0  0  0  0  0  0  0
    1.3942    2.6402    1.2943 H   0  0  0  0  0  0  0  0  0  0  0  0
    1.1373    4.7960    0.0914 H   0  0  0  0  0  0  0  0  0  0  0  0
    2.4672    5.2552   -1.9849 H   0  0  0  0  0  0  0  0  0  0  0  0
    4.0684    3.5274   -2.8458 H   0  0  0  0  0  0  0  0  0  0  0  0
    4.3505    1.3680   -1.6302 H   0  0  0  0  0  0  0  0  0  0  0  0
  1  5  1  0  0  0  0
  2  3  1  0  0  0  0
  3 18  1  0  0  0  0
  3 20  1  0  0  0  0
  4  1  1  0  0  0  0
  4  2  1  0  0  0  0
  5 21  1  0  0  0  0
  5 22  1  0  0  0  0
  5 23  1  0  0  0  0
  6 11  1  0  0  0  0
  6  1  1  0  0  0  0
  7  6  2  0  0  0  0
  8  9  2  0  0  0  0
  8  7  1  0  0  0  0
  9 10  1  0  0  0  0
 10 27  1  0  0  0  0
 10 11  2  0  0  0  0
 11 28  1  0  0  0  0
 12 13  1  0  0  0  0
 12  1  1  0  0  0  0
 13 29  1  0  0  0  0
 14 30  1  0  0  0  0
 14 13  2  0  0  0  0
 15 14  1  0  0  0  0
 16 15  2  0  0  0  0
 16 17  1  0  0  0  0
 17 12  2  0  0  0  0
 19  3  1  0  0  0  0
 24  7  1  0  0  0  0
 25  8  1  0  0  0  0
 26  9  1  0  0  0  0
 31 15  1  0  0  0  0
 32 16  1  0  0  0  0
 33 17  1  0  0  0  0
M  END
