3
q = -1

 27 26  0  0  0  0  0  0  0  0999 V2000
   -1.9735    0.0261   -0.1675 P   0  0  0  0  0  4  0  0  0  0  0  0
    0.2819    0.1742   -1.8290 C   0  0  0  0  0  3  0  0  0  0  0  0
   -0.3947   -0.5585   -0.7991 C   0  0  0  0  0  3  0  0  0  0  0  0
   -3.3040   -0.5537   -1.2937 C   0  0  0  0  0  0  0  0  0  0  0  0
   -3.4941   -2.0702   -1.3720 C   0  0  0  0  0  0  0  0  0  0  0  0
   -2.2976   -0.6094    1.5227 C   0  0  0  0  0  0  0  0  0  0  0  0
   -1.6868   -1.9823    1.8216 C   0  0  0  0  0  0  0  0  0  0  0  0
   -2.0649    1.8556   -0.1687 C   0  0  0  0  0  0  0  0  0  0  0  0
   -3.3167    2.4201    0.5119 C   0  0  0  0  0  0  0  0  0  0  0  0
    0.7461   -0.3784   -2.6598 H   0  0  0  0  0  0  0  0  0  0  0  0
   -0.0796    1.1700   -2.1317 H   0  0  0  0  0  0  0  0  0  0  0  0
   -0.4079   -1.6593   -0.8702 H   0  0  0  0  0  0  0  0  0  0  0  0
   -3.0469   -0.1259   -2.2866 H   0  0  0  0  0  0  0  0  0  0  0  0
   -4.2366   -0.0500   -0.9612 H   0  0  0  0  0  0  0  0  0  0  0  0
   -4.2737   -2.3098   -2.1208 H   0  0  0  0  0  0  0  0  0  0  0  0
   -3.8269   -2.4973   -0.4060 H   0  0  0  0  0  0  0  0  0  0  0  0
   -2.5680   -2.5920   -1.6844 H   0  0  0  0  0  0  0  0  0  0  0  0
   -3.4010   -0.6125    1.6470 H   0  0  0  0  0  0  0  0  0  0  0  0
   -1.8972    0.1534    2.2208 H   0  0  0  0  0  0  0  0  0  0  0  0
   -1.9300   -2.2771    2.8607 H   0  0  0  0  0  0  0  0  0  0  0  0
   -0.5839   -1.9539    1.7292 H   0  0  0  0  0  0  0  0  0  0  0  0
   -2.0715   -2.7754    1.1519 H   0  0  0  0  0  0  0  0  0  0  0  0
   -2.0110    2.1649   -1.2338 H   0  0  0  0  0  0  0  0  0  0  0  0
   -1.1442    2.2289    0.3215 H   0  0  0  0  0  0  0  0  0  0  0  0
   -3.3601    2.1537    1.5859 H   0  0  0  0  0  0  0  0  0  0  0  0
   -4.2538    2.0791    0.0293 H   0  0  0  0  0  0  0  0  0  0  0  0
   -3.3010    3.5253    0.4494 H   0  0  0  0  0  0  0  0  0  0  0  0
  1  6  1  0  0  0  0
  2  3  1  0  0  0  0
  3  1  1  0  0  0  0
  4 14  1  0  0  0  0
  4  1  1  0  0  0  0
  5  4  1  0  0  0  0
  5 16  1  0  0  0  0
  6 18  1  0  0  0  0
  6  7  1  0  0  0  0
  6 19  1  0  0  0  0
  7 20  1  0  0  0  0
  8  1  1  0  0  0  0
  8 24  1  0  0  0  0
  8  9  1  0  0  0  0
  9 25  1  0  0  0  0
 10  2  1  0  0  0  0
 11  2  1  0  0  0  0
 12  3  1  0  0  0  0
 13  4  1  0  0  0  0
 15  5  1  0  0  0  0
 17  5  1  0  0  0  0
 21  7  1  0  0  0  0
 22  7  1  0  0  0  0
 23  8  1  0  0  0  0
 26  9  1  0  0  0  0
 27  9  1  0  0  0  0
M  END
