29
q = -1.0

 78 82  0  0  1  0  0  0  0  0999 V2000
    2.6396   -1.4224    2.8953 O   0  0  0  0  0  0  0  0  0  0  0  0
    1.1078   -3.6959    2.6310 O   0  0  0  0  0  0  0  0  0  0  0  0
   -7.4664    1.1157    1.3131 O   0  0  0  0  0  0  0  0  0  0  0  0
   -8.3221    1.3598   -1.1329 O   0  0  0  0  0  0  0  0  0  0  0  0
    5.3463    4.0959    0.4157 O   0  0  0  0  0  0  0  0  0  0  0  0
    5.7462    2.8110   -1.8199 O   0  0  0  0  0  0  0  0  0  0  0  0
   -0.6051    1.2963    0.6608 C   0  0  1  0  0  0  0  0  0  0  0  0
   -2.1161    1.5502    0.6083 C   0  0  2  0  0  0  0  0  0  0  0  0
   -2.7638    0.3791   -0.1958 C   0  0  1  0  0  0  0  0  0  0  0  0
   -2.5638   -1.0234    0.4608 C   0  0  2  0  0  0  0  0  0  0  0  0
   -0.6876   -2.4308    1.5485 C   0  0  0  0  0  0  0  0  0  0  0  0
    0.5908   -2.5369    2.1311 C   0  0  0  0  0  0  0  0  0  0  0  0
    1.4333   -1.3862    2.2495 C   0  0  0  0  0  0  0  0  0  0  0  0
    0.9528   -0.1756    1.7360 C   0  0  0  0  0  0  0  0  0  0  0  0
    1.5838    1.1984    1.7786 C   0  0  2  0  0  0  0  0  0  0  0  0
    0.3263    2.1401    1.5826 C   0  0  2  0  0  0  0  0  0  0  0  0
   -0.3123   -0.1053    1.1219 C   0  0  0  0  0  0  0  0  0  0  0  0
   -1.1678   -1.2034    1.0384 C   0  0  0  0  0  0  0  0  0  0  0  0
   -4.2323    0.6309   -0.4851 C   0  0  0  0  0  0  0  0  0  0  0  0
   -5.1584    0.7455    0.5796 C   0  0  0  0  0  0  0  0  0  0  0  0
   -6.5178    0.9904    0.3457 C   0  0  0  0  0  0  0  0  0  0  0  0
   -6.9885    1.1259   -0.9974 C   0  0  0  0  0  0  0  0  0  0  0  0
   -6.0720    1.0121   -2.0514 C   0  0  0  0  0  0  0  0  0  0  0  0
   -4.7080    0.7680   -1.7940 C   0  0  0  0  0  0  0  0  0  0  0  0
    3.5137    2.6017    1.0502 C   0  0  0  0  0  0  0  0  0  0  0  0
    4.5256    3.0379    0.1888 C   0  0  0  0  0  0  0  0  0  0  0  0
    4.7465    2.3333   -1.0329 C   0  0  0  0  0  0  0  0  0  0  0  0
    3.9450    1.2215   -1.3235 C   0  0  0  0  0  0  0  0  0  0  0  0
    2.9223    0.7899   -0.4400 C   0  0  0  0  0  3  0  0  0  0  0  0
    2.6904    1.4833    0.7614 C   0  0  0  0  0  0  0  0  0  0  0  0
   -0.3088    2.4739    2.9343 C   0  0  0  0  0  0  0  0  0  0  0  0
   -2.4418    2.9187    0.0068 C   0  0  0  0  0  0  0  0  0  0  0  0
   -2.9411   -2.1405   -0.5235 C   0  0  0  0  0  0  0  0  0  0  0  0
   -8.8365    1.4996   -2.4402 C   0  0  0  0  0  0  0  0  0  0  0  0
   -7.0583    0.9905    2.6588 C   0  0  0  0  0  0  0  0  0  0  0  0
    0.3874   -4.8953    2.4134 C   0  0  0  0  0  0  0  0  0  0  0  0
    3.6698   -2.1825    2.2676 C   0  0  0  0  0  0  0  0  0  0  0  0
    5.1688    4.8295    1.6106 C   0  0  0  0  0  0  0  0  0  0  0  0
    6.0071    2.1445   -3.0382 C   0  0  0  0  0  0  0  0  0  0  0  0
   -0.2245    1.4165   -0.3833 H   0  0  0  0  0  0  0  0  0  0  0  0
   -2.5148    1.5058    1.6473 H   0  0  0  0  0  0  0  0  0  0  0  0
   -2.2385    0.3506   -1.1782 H   0  0  0  0  0  0  0  0  0  0  0  0
   -3.2726   -1.0791    1.3207 H   0  0  0  0  0  0  0  0  0  0  0  0
   -1.3248   -3.3222    1.4879 H   0  0  0  0  0  0  0  0  0  0  0  0
    2.0271    1.3753    2.7808 H   0  0  0  0  0  0  0  0  0  0  0  0
    0.6373    3.0788    1.0806 H   0  0  0  0  0  0  0  0  0  0  0  0
   -4.7985    0.6463    1.6132 H   0  0  0  0  0  0  0  0  0  0  0  0
   -6.4135    1.1120   -3.0903 H   0  0  0  0  0  0  0  0  0  0  0  0
   -4.0067    0.6826   -2.6381 H   0  0  0  0  0  0  0  0  0  0  0  0
    3.3401    3.1378    1.9941 H   0  0  0  0  0  0  0  0  0  0  0  0
    4.1233    0.6749   -2.2591 H   0  0  0  0  0  0  0  0  0  0  0  0
   -1.1989    3.1247    2.8222 H   0  0  0  0  0  0  0  0  0  0  0  0
    0.4134    3.0046    3.5874 H   0  0  0  0  0  0  0  0  0  0  0  0
   -0.6263    1.5522    3.4649 H   0  0  0  0  0  0  0  0  0  0  0  0
   -3.5290    3.1269    0.0188 H   0  0  0  0  0  0  0  0  0  0  0  0
   -2.1029    2.9705   -1.0496 H   0  0  0  0  0  0  0  0  0  0  0  0
   -1.9281    3.7303    0.5609 H   0  0  0  0  0  0  0  0  0  0  0  0
   -3.9569   -1.9742   -0.9325 H   0  0  0  0  0  0  0  0  0  0  0  0
   -2.9333   -3.1356   -0.0368 H   0  0  0  0  0  0  0  0  0  0  0  0
   -2.2193   -2.1787   -1.3649 H   0  0  0  0  0  0  0  0  0  0  0  0
   -9.9224    1.6806   -2.3332 H   0  0  0  0  0  0  0  0  0  0  0  0
   -8.6817    0.5802   -3.0501 H   0  0  0  0  0  0  0  0  0  0  0  0
   -8.3781    2.3601   -2.9793 H   0  0  0  0  0  0  0  0  0  0  0  0
   -7.9666    1.1215    3.2761 H   0  0  0  0  0  0  0  0  0  0  0  0
   -6.3127    1.7680    2.9431 H   0  0  0  0  0  0  0  0  0  0  0  0
   -6.6186   -0.0110    2.8703 H   0  0  0  0  0  0  0  0  0  0  0  0
    1.0118   -5.7126    2.8197 H   0  0  0  0  0  0  0  0  0  0  0  0
    0.2087   -5.0713    1.3293 H   0  0  0  0  0  0  0  0  0  0  0  0
   -0.5911   -4.8941    2.9443 H   0  0  0  0  0  0  0  0  0  0  0  0
    4.5583   -2.1143    2.9236 H   0  0  0  0  0  0  0  0  0  0  0  0
    3.9285   -1.7532    1.2726 H   0  0  0  0  0  0  0  0  0  0  0  0
    3.3819   -3.2473    2.1467 H   0  0  0  0  0  0  0  0  0  0  0  0
    5.9242    5.6369    1.5975 H   0  0  0  0  0  0  0  0  0  0  0  0
    5.3287    4.1983    2.5141 H   0  0  0  0  0  0  0  0  0  0  0  0
    4.1538    5.2839    1.6727 H   0  0  0  0  0  0  0  0  0  0  0  0
    6.8424    2.6863   -3.5194 H   0  0  0  0  0  0  0  0  0  0  0  0
    5.1256    2.1606   -3.7189 H   0  0  0  0  0  0  0  0  0  0  0  0
    6.3091    1.0846   -2.8766 H   0  0  0  0  0  0  0  0  0  0  0  0
  3 35  1  0  0  0  0
  4 22  1  0  0  0  0
  5 38  1  0  0  0  0
  6 27  1  0  0  0  0
  7 40  1  6  0  0  0
  7 17  1  0  0  0  0
  7 16  1  0  0  0  0
  8  7  1  0  0  0  0
  8 41  1  1  0  0  0
  9 42  1  6  0  0  0
  9 10  1  0  0  0  0
  9  8  1  0  0  0  0
 10 18  1  0  0  0  0
 10 43  1  1  0  0  0
 11 12  1  0  0  0  0
 12 13  2  0  0  0  0
 12  2  1  0  0  0  0
 13  1  1  0  0  0  0
 14 15  1  0  0  0  0
 14 13  1  0  0  0  0
 15 45  1  1  0  0  0
 16 46  1  6  0  0  0
 16 15  1  0  0  0  0
 16 31  1  0  0  0  0
 17 14  2  0  0  0  0
 18 17  1  0  0  0  0
 18 11  2  0  0  0  0
 19  9  1  0  0  0  0
 19 20  1  0  0  0  0
 20 47  1  0  0  0  0
 21 20  2  0  0  0  0
 21  3  1  0  0  0  0
 22 21  1  0  0  0  0
 23 24  1  0  0  0  0
 23 22  2  0  0  0  0
 24 19  2  0  0  0  0
 25 50  1  0  0  0  0
 26  5  1  0  0  0  0
 26 25  2  0  0  0  0
 27 26  1  0  0  0  0
 28 27  2  0  0  0  0
 28 29  1  0  0  0  0
 29 30  2  0  0  0  0
 30 25  1  0  0  0  0
 30 15  1  0  0  0  0
 31 54  1  0  0  0  0
 31 53  1  0  0  0  0
 32 55  1  0  0  0  0
 32 57  1  0  0  0  0
 32  8  1  0  0  0  0
 33 59  1  0  0  0  0
 33 10  1  0  0  0  0
 34 61  1  0  0  0  0
 34  4  1  0  0  0  0
 35 66  1  0  0  0  0
 35 65  1  0  0  0  0
 35 64  1  0  0  0  0
 36  2  1  0  0  0  0
 36 67  1  0  0  0  0
 36 69  1  0  0  0  0
 37  1  1  0  0  0  0
 37 70  1  0  0  0  0
 38 75  1  0  0  0  0
 38 74  1  0  0  0  0
 39 78  1  0  0  0  0
 39  6  1  0  0  0  0
 44 11  1  0  0  0  0
 48 23  1  0  0  0  0
 49 24  1  0  0  0  0
 51 28  1  0  0  0  0
 52 31  1  0  0  0  0
 56 32  1  0  0  0  0
 58 33  1  0  0  0  0
 60 33  1  0  0  0  0
 62 34  1  0  0  0  0
 63 34  1  0  0  0  0
 68 36  1  0  0  0  0
 71 37  1  0  0  0  0
 72 37  1  0  0  0  0
 73 38  1  0  0  0  0
 76 39  1  0  0  0  0
 77 39  1  0  0  0  0
M  END
