8
q = 0.0, confidence = 0.558

 19 19  0  0  1  0  0  0  0  0999 V2000
   -0.3911    1.6577   -0.6878 C   0  0  2  0  0  3  0  0  0  0  0  0
   -0.9120    1.4363    0.6587 C   0  0  0  0  0  3  0  0  0  0  0  0
   -2.2154    1.0511    1.1787 C   0  0  0  0  0  0  0  0  0  0  0  0
   -3.2248    0.2221    0.7524 C   0  0  0  0  0  0  0  0  0  0  0  0
   -3.2606   -0.7660   -0.2793 C   0  0  0  0  0  0  0  0  0  0  0  0
   -2.2932   -1.1882   -1.1588 C   0  0  0  0  0  0  0  0  0  0  0  0
   -0.9900   -0.6839   -1.5589 C   0  0  0  0  0  3  0  0  0  0  0  0
   -0.4383    0.6512   -1.7018 C   0  0  0  0  0  3  0  0  0  0  0  0
    0.2885    2.9714   -0.9935 C   0  0  0  0  0  0  0  0  0  0  0  0
   -0.4420    2.1565    1.3507 H   0  0  0  0  0  0  0  0  0  0  0  0
   -2.4204    1.5435    2.1454 H   0  0  0  0  0  0  0  0  0  0  0  0
   -4.1258    0.2413    1.3880 H   0  0  0  0  0  0  0  0  0  0  0  0
   -4.1842   -1.3681   -0.2946 H   0  0  0  0  0  0  0  0  0  0  0  0
   -2.5439   -2.1229   -1.6898 H   0  0  0  0  0  0  0  0  0  0  0  0
   -0.5530   -1.3484   -2.3232 H   0  0  0  0  0  0  0  0  0  0  0  0
    0.1170    0.8714   -2.6294 H   0  0  0  0  0  0  0  0  0  0  0  0
   -0.4760    3.7225   -1.2866 H   0  0  0  0  0  0  0  0  0  0  0  0
    1.0154    2.8792   -1.8243 H   0  0  0  0  0  0  0  0  0  0  0  0
    0.8149    3.3709   -0.1051 H   0  0  0  0  0  0  0  0  0  0  0  0
  1  9  1  1  0  0  0
  1  2  1  0  0  0  0
  2  3  1  0  0  0  0
  2 10  1  0  0  0  0
  3 11  1  0  0  0  0
  4  3  2  0  0  0  0
  4 12  1  0  0  0  0
  5  4  1  0  0  0  0
  6  5  2  0  0  0  0
  7  6  1  0  0  0  0
  8  7  1  0  0  0  0
  8  1  1  0  0  0  0
  9 19  1  0  0  0  0
 13  5  1  0  0  0  0
 14  6  1  0  0  0  0
 15  7  1  0  0  0  0
 16  8  1  0  0  0  0
 17  9  1  0  0  0  0
 18  9  1  0  0  0  0
M  END
