3
q = -1.0

 31 30  0  0  0  0  0  0  0  0999 V2000
   -3.4851   -0.1271   -1.0668 Si  0  0  0  0  0  0  0  0  0  0  0  0
   -0.4721   -0.9476    1.1359 N   0  0  0  0  0  0  0  0  0  0  0  0
   -1.2605   -0.0513    0.6890 C   0  0  0  0  0  3  0  0  0  0  0  0
   -2.7051    0.2018    0.6844 C   0  0  0  0  0  0  0  0  0  0  0  0
   -3.0019    1.2624   -2.2393 C   0  0  0  0  0  0  0  0  0  0  0  0
   -2.8991   -1.7729   -1.7742 C   0  0  0  0  0  0  0  0  0  0  0  0
   -5.3543   -0.1462   -0.7653 C   0  0  0  0  0  0  0  0  0  0  0  0
   -0.6752   -2.1347    2.0024 C   0  0  0  0  0  0  0  0  0  0  0  0
   -1.5729   -3.1518    1.2791 C   0  0  0  0  0  0  0  0  0  0  0  0
   -1.3251   -1.6663    3.3187 C   0  0  0  0  0  0  0  0  0  0  0  0
    0.6923   -2.7596    2.3085 C   0  0  0  0  0  0  0  0  0  0  0  0
   -2.8984    1.2837    0.8438 H   0  0  0  0  0  0  0  0  0  0  0  0
   -3.2710   -0.3805    1.4434 H   0  0  0  0  0  0  0  0  0  0  0  0
   -3.5436    1.1564   -3.2018 H   0  0  0  0  0  0  0  0  0  0  0  0
   -1.9129    1.2002   -2.4380 H   0  0  0  0  0  0  0  0  0  0  0  0
   -3.2298    2.2641   -1.8230 H   0  0  0  0  0  0  0  0  0  0  0  0
   -3.2929   -1.8925   -2.8047 H   0  0  0  0  0  0  0  0  0  0  0  0
   -3.2349   -2.6446   -1.1796 H   0  0  0  0  0  0  0  0  0  0  0  0
   -1.7916   -1.7857   -1.8327 H   0  0  0  0  0  0  0  0  0  0  0  0
   -5.8988   -0.2973   -1.7204 H   0  0  0  0  0  0  0  0  0  0  0  0
   -5.7030    0.8116   -0.3270 H   0  0  0  0  0  0  0  0  0  0  0  0
   -5.6476   -0.9652   -0.0767 H   0  0  0  0  0  0  0  0  0  0  0  0
   -1.1325   -3.4369    0.3044 H   0  0  0  0  0  0  0  0  0  0  0  0
   -2.5843   -2.7401    1.0966 H   0  0  0  0  0  0  0  0  0  0  0  0
   -1.6819   -4.0670    1.8952 H   0  0  0  0  0  0  0  0  0  0  0  0
   -2.3341   -1.2410    3.1552 H   0  0  0  0  0  0  0  0  0  0  0  0
   -0.6983   -0.8940    3.8080 H   0  0  0  0  0  0  0  0  0  0  0  0
   -1.4250   -2.5220    4.0160 H   0  0  0  0  0  0  0  0  0  0  0  0
    1.2105   -3.0565    1.3787 H   0  0  0  0  0  0  0  0  0  0  0  0
    0.5645   -3.6579    2.9446 H   0  0  0  0  0  0  0  0  0  0  0  0
    1.3416   -2.0420    2.8467 H   0  0  0  0  0  0  0  0  0  0  0  0
  1  7  1  0  0  0  0
  1  4  1  0  0  0  0
  2  8  1  0  0  0  0
  3  2  2  0  0  0  0
  4  3  1  0  0  0  0
  4 12  1  0  0  0  0
  4 13  1  0  0  0  0
  5 16  1  0  0  0  0
  5  1  1  0  0  0  0
  6 18  1  0  0  0  0
  6  1  1  0  0  0  0
  7 21  1  0  0  0  0
  7 22  1  0  0  0  0
  8 11  1  0  0  0  0
  8 10  1  0  0  0  0
  9 25  1  0  0  0  0
  9  8  1  0  0  0  0
 10 27  1  0  0  0  0
 10 28  1  0  0  0  0
 11 31  1  0  0  0  0
 11 30  1  0  0  0  0
 14  5  1  0  0  0  0
 15  5  1  0  0  0  0
 17  6  1  0  0  0  0
 19  6  1  0  0  0  0
 20  7  1  0  0  0  0
 23  9  1  0  0  0  0
 24  9  1  0  0  0  0
 26 10  1  0  0  0  0
 29 11  1  0  0  0  0
M  END
