2
q = -1.0, confidence = 0.048

 49 51  0  0  1  0  0  0  0  0999 V2000
    0.2975    0.9535   -0.4794 C   0  0  0  0  0  3  0  0  0  0  0  0
   -0.3886    1.2770    0.7517 C   0  0  0  0  0  3  0  0  0  0  0  0
   -0.2226    0.3039    1.7676 C   0  0  1  0  0  3  0  0  0  0  0  0
    1.0947   -0.4515    1.8874 C   0  0  2  0  0  0  0  0  0  0  0  0
    2.1630    0.4839    2.5309 C   0  0  0  0  0  0  0  0  0  0  0  0
    2.4635    1.6398    1.6033 C   0  0  0  0  0  0  0  0  0  0  0  0
    2.7552    1.2389    0.1630 C   0  0  1  0  0  0  0  0  0  0  0  0
    1.6515    0.2668   -0.3671 C   0  0  1  0  0  0  0  0  0  0  0  0
    2.4134    2.9303    1.9857 C   0  0  0  0  0  0  0  0  0  0  0  0
    4.2145    2.7361   -0.9721 C   0  0  0  0  0  0  0  0  0  0  0  0
    4.1941    3.9063   -1.9367 C   0  0  0  0  0  0  0  0  0  0  0  0
   -1.5727    1.5742    3.2826 C   0  0  0  0  0  0  0  0  0  0  0  0
    2.4517   -1.9106    0.5177 C   0  0  0  0  0  0  0  0  0  0  0  0
    4.1825   -2.7943   -0.8458 C   0  0  0  0  0  0  0  0  0  0  0  0
    5.3248   -1.8291   -0.6300 C   0  0  0  0  0  0  0  0  0  0  0  0
    5.8976   -1.1427   -1.7185 C   0  0  0  0  0  0  0  0  0  0  0  0
    6.8786   -0.1612   -1.5094 C   0  0  0  0  0  0  0  0  0  0  0  0
    7.2936    0.1501   -0.2042 C   0  0  0  0  0  0  0  0  0  0  0  0
    6.7301   -0.5302    0.8877 C   0  0  0  0  0  0  0  0  0  0  0  0
    5.7537   -1.5156    0.6774 C   0  0  0  0  0  0  0  0  0  0  0  0
    1.5889   -0.8434    0.5769 N   0  0  0  0  0  0  0  0  0  0  0  0
    2.8720    2.3315   -0.7233 O   0  0  0  0  0  0  0  0  0  0  0  0
   -0.7944    0.4155    3.0053 O   0  0  0  0  0  0  0  0  0  0  0  0
    2.9352   -2.0736   -0.7520 O   0  0  0  0  0  0  0  0  0  0  0  0
    2.7540   -2.6193    1.4700 O   0  0  0  0  0  0  0  0  0  0  0  0
    0.3059    1.7378   -1.2513 H   0  0  0  0  0  0  0  0  0  0  0  0
   -0.9212    2.2260    0.8944 H   0  0  0  0  0  0  0  0  0  0  0  0
    0.9663   -1.3648    2.4969 H   0  0  0  0  0  0  0  0  0  0  0  0
    1.8179    0.8466    3.5190 H   0  0  0  0  0  0  0  0  0  0  0  0
    3.0667   -0.1432    2.6925 H   0  0  0  0  0  0  0  0  0  0  0  0
    3.6984    0.6376    0.1544 H   0  0  0  0  0  0  0  0  0  0  0  0
    1.9724   -0.1163   -1.3502 H   0  0  0  0  0  0  0  0  0  0  0  0
    2.5893    3.7375    1.2594 H   0  0  0  0  0  0  0  0  0  0  0  0
    2.1875    3.2054    3.0281 H   0  0  0  0  0  0  0  0  0  0  0  0
    4.7955    1.8819   -1.3964 H   0  0  0  0  0  0  0  0  0  0  0  0
    4.7175    3.0211   -0.0168 H   0  0  0  0  0  0  0  0  0  0  0  0
    3.6888    3.6217   -2.8814 H   0  0  0  0  0  0  0  0  0  0  0  0
    5.2262    4.2313   -2.1753 H   0  0  0  0  0  0  0  0  0  0  0  0
    3.6487    4.7684   -1.5027 H   0  0  0  0  0  0  0  0  0  0  0  0
   -0.9377    2.4867    3.2728 H   0  0  0  0  0  0  0  0  0  0  0  0
   -1.9973    1.4289    4.2927 H   0  0  0  0  0  0  0  0  0  0  0  0
   -2.4042    1.6957    2.5571 H   0  0  0  0  0  0  0  0  0  0  0  0
    4.1970   -3.2190   -1.8669 H   0  0  0  0  0  0  0  0  0  0  0  0
    4.1853   -3.6113   -0.0978 H   0  0  0  0  0  0  0  0  0  0  0  0
    5.5631   -1.3778   -2.7415 H   0  0  0  0  0  0  0  0  0  0  0  0
    7.3209    0.3648   -2.3694 H   0  0  0  0  0  0  0  0  0  0  0  0
    8.0607    0.9218   -0.0381 H   0  0  0  0  0  0  0  0  0  0  0  0
    7.0554   -0.2925    1.9121 H   0  0  0  0  0  0  0  0  0  0  0  0
    5.2986   -2.0447    1.5285 H   0  0  0  0  0  0  0  0  0  0  0  0
  1  8  1  0  0  0  0
  1  2  1  0  0  0  0
  2 27  1  0  0  0  0
  2  3  1  0  0  0  0
  3  4  1  0  0  0  0
  3 23  1  1  0  0  0
  4 28  1  1  0  0  0
  4  5  1  0  0  0  0
  5 30  1  0  0  0  0
  5 29  1  0  0  0  0
  6  9  2  0  0  0  0
  6  5  1  0  0  0  0
  7 31  1  6  0  0  0
  7  6  1  0  0  0  0
  8 32  1  6  0  0  0
  8  7  1  0  0  0  0
  8 21  1  0  0  0  0
  9 34  1  0  0  0  0
 10 22  1  0  0  0  0
 10 36  1  0  0  0  0
 11 39  1  0  0  0  0
 11 10  1  0  0  0  0
 12 41  1  0  0  0  0
 13 21  1  0  0  0  0
 13 25  2  0  0  0  0
 14 24  1  0  0  0  0
 14 15  1  0  0  0  0
 14 44  1  0  0  0  0
 15 20  1  0  0  0  0
 16 17  1  0  0  0  0
 16 15  2  0  0  0  0
 17 18  2  0  0  0  0
 18 47  1  0  0  0  0
 18 19  1  0  0  0  0
 19 48  1  0  0  0  0
 20 19  2  0  0  0  0
 20 49  1  0  0  0  0
 21  4  1  0  0  0  0
 22  7  1  0  0  0  0
 23 12  1  0  0  0  0
 24 13  1  0  0  0  0
 26  1  1  0  0  0  0
 33  9  1  0  0  0  0
 35 10  1  0  0  0  0
 37 11  1  0  0  0  0
 38 11  1  0  0  0  0
 40 12  1  0  0  0  0
 42 12  1  0  0  0  0
 43 14  1  0  0  0  0
 45 16  1  0  0  0  0
 46 17  1  0  0  0  0
M  END
