5
q = -1.0

 35 36  0  0  0  0  0  0  0  0999 V2000
    0.5500    1.3046   -2.1151 C   0  0  0  0  0  0  0  0  0  0  0  0
   -0.4039    1.3067   -2.6914 H   0  0  0  0  0  0  0  0  0  0  0  0
    1.3818    1.0617   -2.8089 H   0  0  0  0  0  0  0  0  0  0  0  0
    0.7427    2.3476   -1.7805 H   0  0  0  0  0  0  0  0  0  0  0  0
    0.5008    0.3588   -0.9400 C   0  0  0  0  0  3  0  0  0  0  0  0
   -0.6931   -0.1779   -0.5234 C   0  0  0  0  0  0  0  0  0  0  0  0
   -0.8178   -1.0783    0.5683 C   0  0  0  0  0  0  0  0  0  0  0  0
   -1.0431   -1.8633    1.4908 C   0  0  0  0  0  0  0  0  0  0  0  0
   -1.3568   -2.7977    2.5600 C   0  0  0  0  0  0  0  0  0  0  0  0
   -0.8087   -3.7582    2.4474 H   0  0  0  0  0  0  0  0  0  0  0  0
   -2.4428   -3.0342    2.5612 H   0  0  0  0  0  0  0  0  0  0  0  0
   -1.1019   -2.3870    3.5608 H   0  0  0  0  0  0  0  0  0  0  0  0
   -2.3008    0.2564   -1.4057 P   0  0  0  0  0  0  0  0  0  0  0  0
   -3.4483   -1.0136   -0.7079 C   0  0  0  0  0  0  0  0  0  0  0  0
   -3.6371   -2.1870   -1.4672 C   0  0  0  0  0  0  0  0  0  0  0  0
   -3.1452   -2.2787   -2.4491 H   0  0  0  0  0  0  0  0  0  0  0  0
   -4.4390   -3.2321   -0.9831 C   0  0  0  0  0  0  0  0  0  0  0  0
   -4.5736   -4.1439   -1.5852 H   0  0  0  0  0  0  0  0  0  0  0  0
   -5.0791   -3.1077    0.2599 C   0  0  0  0  0  0  0  0  0  0  0  0
   -5.7180   -3.9213    0.6365 H   0  0  0  0  0  0  0  0  0  0  0  0
   -4.9089   -1.9358    1.0173 C   0  0  0  0  0  0  0  0  0  0  0  0
   -5.4127   -1.8311    1.9911 H   0  0  0  0  0  0  0  0  0  0  0  0
   -4.0948   -0.8980    0.5408 C   0  0  0  0  0  0  0  0  0  0  0  0
   -3.9518    0.0106    1.1444 H   0  0  0  0  0  0  0  0  0  0  0  0
   -2.8223    1.7826   -0.4968 C   0  0  0  0  0  0  0  0  0  0  0  0
   -1.9224    2.5765    0.2427 C   0  0  0  0  0  0  0  0  0  0  0  0
   -0.8799    2.2439    0.3554 H   0  0  0  0  0  0  0  0  0  0  0  0
   -2.3460    3.7769    0.8354 C   0  0  0  0  0  0  0  0  0  0  0  0
   -1.6288    4.3805    1.4134 H   0  0  0  0  0  0  0  0  0  0  0  0
   -3.6757    4.2029    0.7001 C   0  0  0  0  0  0  0  0  0  0  0  0
   -4.0083    5.1421    1.1676 H   0  0  0  0  0  0  0  0  0  0  0  0
   -4.5797    3.4224   -0.0409 C   0  0  0  0  0  0  0  0  0  0  0  0
   -5.6248    3.7490   -0.1566 H   0  0  0  0  0  0  0  0  0  0  0  0
   -4.1559    2.2293   -0.6417 C   0  0  0  0  0  0  0  0  0  0  0  0
   -4.8716    1.6283   -1.2252 H   0  0  0  0  0  0  0  0  0  0  0  0
  1  4  1  0  0  0  0
  1  5  1  0  0  0  0
  2  1  1  0  0  0  0
  3  1  1  0  0  0  0
  5  6  2  0  0  0  0
  6  7  1  0  0  0  0
  7  8  3  0  0  0  0
  8  9  1  0  0  0  0
  9 11  1  0  0  0  0
  9 12  1  0  0  0  0
 10  9  1  0  0  0  0
 13 14  1  0  0  0  0
 13  6  1  0  0  0  0
 13 25  1  0  0  0  0
 14 23  1  0  0  0  0
 15 17  1  0  0  0  0
 15 14  2  0  0  0  0
 16 15  1  0  0  0  0
 17 19  2  0  0  0  0
 18 17  1  0  0  0  0
 19 20  1  0  0  0  0
 19 21  1  0  0  0  0
 21 22  1  0  0  0  0
 23 21  2  0  0  0  0
 23 24  1  0  0  0  0
 25 26  1  0  0  0  0
 26 27  1  0  0  0  0
 26 28  2  0  0  0  0
 28 29  1  0  0  0  0
 30 28  1  0  0  0  0
 30 31  1  0  0  0  0
 32 30  2  0  0  0  0
 33 32  1  0  0  0  0
 34 25  2  0  0  0  0
 34 32  1  0  0  0  0
 35 34  1  0  0  0  0
M  END
