6
q = -1.0

 48 52  0  0  1  0  0  0  0  0999 V2000
   -0.4526   -0.9171   -2.9515 O   0  0  0  0  0  0  0  0  0  0  0  0
   -0.0512   -1.8668    0.1800 O   0  0  0  0  0  0  0  0  0  0  0  0
   -2.4502   -1.1152    1.3607 O   0  0  0  0  0  0  0  0  0  0  0  0
   -0.1533    0.4943    1.5539 O   0  0  0  0  0  0  0  0  0  0  0  0
   -1.5938    2.0975   -1.3734 O   0  0  0  0  0  0  0  0  0  0  0  0
    0.3533    0.6453   -1.3115 C   0  0  0  0  0  3  0  0  0  0  0  0
    0.7950    1.1464   -2.1927 H   0  0  0  0  0  0  0  0  0  0  0  0
   -0.4147   -0.5529   -1.7836 C   0  0  0  0  0  0  0  0  0  0  0  0
   -1.1270   -1.3453   -0.6481 C   0  0  2  0  0  0  0  0  0  0  0  0
   -2.0240   -0.3866    0.1957 C   0  0  2  0  0  0  0  0  0  0  0  0
   -1.2300    0.8848    0.6823 C   0  0  2  0  0  0  0  0  0  0  0  0
   -0.5433    1.6191   -0.5097 C   0  0  2  0  0  0  0  0  0  0  0  0
   -0.0705   -3.2991    0.1782 C   0  0  0  0  0  0  0  0  0  0  0  0
   -0.6359   -3.6608    1.0681 H   0  0  0  0  0  0  0  0  0  0  0  0
    0.9779   -3.6511    0.2571 H   0  0  0  0  0  0  0  0  0  0  0  0
   -0.7746   -3.6795   -1.1191 C   0  0  0  0  0  0  0  0  0  0  0  0
   -0.0796   -3.5978   -1.9791 H   0  0  0  0  0  0  0  0  0  0  0  0
   -1.1948   -4.7042   -1.1033 H   0  0  0  0  0  0  0  0  0  0  0  0
   -1.8472   -2.5876   -1.1986 C   0  0  0  0  0  0  0  0  0  0  0  0
   -2.6935   -2.8530   -0.5391 H   0  0  0  0  0  0  0  0  0  0  0  0
   -2.2115   -2.4136   -2.2271 H   0  0  0  0  0  0  0  0  0  0  0  0
   -3.8746   -1.1666    1.4493 C   0  0  0  0  0  0  0  0  0  0  0  0
   -4.2455   -0.3950    2.1673 H   0  0  0  0  0  0  0  0  0  0  0  0
   -4.1587   -2.1596    1.8565 H   0  0  0  0  0  0  0  0  0  0  0  0
   -4.4108   -0.9085    0.0382 C   0  0  0  0  0  0  0  0  0  0  0  0
   -5.4026   -0.4153    0.0488 H   0  0  0  0  0  0  0  0  0  0  0  0
   -4.5220   -1.8584   -0.5200 H   0  0  0  0  0  0  0  0  0  0  0  0
   -3.3211   -0.0186   -0.5824 C   0  0  0  0  0  0  0  0  0  0  0  0
   -3.5556    1.0516   -0.4505 H   0  0  0  0  0  0  0  0  0  0  0  0
   -3.2017   -0.1673   -1.6715 H   0  0  0  0  0  0  0  0  0  0  0  0
   -0.5168    0.7243    2.9148 C   0  0  0  0  0  0  0  0  0  0  0  0
    0.4211    0.8123    3.4980 H   0  0  0  0  0  0  0  0  0  0  0  0
   -1.1081   -0.1355    3.2997 H   0  0  0  0  0  0  0  0  0  0  0  0
   -1.3535    2.0017    2.8620 C   0  0  0  0  0  0  0  0  0  0  0  0
   -0.6887    2.8883    2.8125 H   0  0  0  0  0  0  0  0  0  0  0  0
   -2.0179    2.1236    3.7399 H   0  0  0  0  0  0  0  0  0  0  0  0
   -2.1296    1.8151    1.5475 C   0  0  0  0  0  0  0  0  0  0  0  0
   -2.3530    2.7622    1.0216 H   0  0  0  0  0  0  0  0  0  0  0  0
   -3.0994    1.3271    1.7506 H   0  0  0  0  0  0  0  0  0  0  0  0
   -1.1516    3.2576   -2.0897 C   0  0  0  0  0  0  0  0  0  0  0  0
   -1.9458    4.0301   -1.9996 H   0  0  0  0  0  0  0  0  0  0  0  0
   -1.0350    3.0192   -3.1700 H   0  0  0  0  0  0  0  0  0  0  0  0
    0.1792    3.7043   -1.4476 C   0  0  0  0  0  0  0  0  0  0  0  0
    0.2264    4.7984   -1.2861 H   0  0  0  0  0  0  0  0  0  0  0  0
    1.0404    3.4316   -2.0896 H   0  0  0  0  0  0  0  0  0  0  0  0
    0.2098    2.9120   -0.1330 C   0  0  0  0  0  0  0  0  0  0  0  0
   -0.3530    3.4522    0.6533 H   0  0  0  0  0  0  0  0  0  0  0  0
    1.2309    2.7284    0.2483 H   0  0  0  0  0  0  0  0  0  0  0  0
  1  8  2  0  0  0  0
  3 22  1  0  0  0  0
  4 31  1  0  0  0  0
  6 12  1  0  0  0  0
  7  6  1  0  0  0  0
  8  6  1  0  0  0  0
  9  8  1  6  0  0  0
  9  2  1  0  0  0  0
  9 10  1  0  0  0  0
 10 11  1  0  0  0  0
 10  3  1  1  0  0  0
 11 37  1  0  0  0  0
 11  4  1  1  0  0  0
 12  5  1  6  0  0  0
 12 46  1  0  0  0  0
 12 11  1  0  0  0  0
 13  2  1  0  0  0  0
 13 15  1  0  0  0  0
 13 14  1  0  0  0  0
 16 18  1  0  0  0  0
 16 13  1  0  0  0  0
 17 16  1  0  0  0  0
 19 16  1  0  0  0  0
 19  9  1  0  0  0  0
 19 20  1  0  0  0  0
 21 19  1  0  0  0  0
 22 24  1  0  0  0  0
 22 23  1  0  0  0  0
 25 26  1  0  0  0  0
 25 22  1  0  0  0  0
 27 25  1  0  0  0  0
 28 29  1  0  0  0  0
 28 25  1  0  0  0  0
 28 10  1  0  0  0  0
 30 28  1  0  0  0  0
 31 33  1  0  0  0  0
 31 32  1  0  0  0  0
 34 31  1  0  0  0  0
 34 36  1  0  0  0  0
 35 34  1  0  0  0  0
 37 39  1  0  0  0  0
 37 34  1  0  0  0  0
 38 37  1  0  0  0  0
 40 41  1  0  0  0  0
 40 43  1  0  0  0  0
 40  5  1  0  0  0  0
 42 40  1  0  0  0  0
 43 44  1  0  0  0  0
 43 46  1  0  0  0  0
 45 43  1  0  0  0  0
 46 48  1  0  0  0  0
 46 47  1  0  0  0  0
M  END
