3
q = -1.0

 26 27  0  0  1  0  0  0  0  0999 V2000
    2.5288    0.3245   -0.5109 C   0  0  0  0  0  0  0  0  0  0  0  0
    1.8791    0.7986   -1.6865 C   0  0  0  0  0  0  0  0  0  0  0  0
    1.2678    2.0549   -1.3989 C   0  0  0  0  0  3  0  0  0  0  0  0
    1.5711    2.3849   -0.0392 C   0  0  0  0  0  0  0  0  0  0  0  0
    2.3267    1.3151    0.5083 C   0  0  0  0  0  0  0  0  0  0  0  0
    3.3411   -0.9406   -0.3446 C   0  0  1  0  0  0  0  0  0  0  0  0
    3.2221   -1.8860   -1.5504 C   0  0  0  0  0  0  0  0  0  0  0  0
    4.7993   -0.6098   -0.0412 C   0  0  0  0  0  0  0  0  0  0  0  0
    5.4758   -1.2659    1.0046 C   0  0  0  0  0  0  0  0  0  0  0  0
    6.8295   -0.9997    1.2650 C   0  0  0  0  0  0  0  0  0  0  0  0
    7.5271   -0.0686    0.4806 C   0  0  0  0  0  0  0  0  0  0  0  0
    6.8615    0.5945   -0.5638 C   0  0  0  0  0  0  0  0  0  0  0  0
    5.5095    0.3259   -0.8205 C   0  0  0  0  0  0  0  0  0  0  0  0
    1.8207    0.2674   -2.6420 H   0  0  0  0  0  0  0  0  0  0  0  0
    0.7049    2.6724   -2.1097 H   0  0  0  0  0  0  0  0  0  0  0  0
    1.2794    3.3025    0.4849 H   0  0  0  0  0  0  0  0  0  0  0  0
    2.7077    1.2478    1.5346 H   0  0  0  0  0  0  0  0  0  0  0  0
    2.9334   -1.4669    0.5447 H   0  0  0  0  0  0  0  0  0  0  0  0
    3.7826   -2.8213   -1.3589 H   0  0  0  0  0  0  0  0  0  0  0  0
    2.1621   -2.1433   -1.7485 H   0  0  0  0  0  0  0  0  0  0  0  0
    3.6486   -1.4251   -2.4649 H   0  0  0  0  0  0  0  0  0  0  0  0
    4.9286   -1.9945    1.6242 H   0  0  0  0  0  0  0  0  0  0  0  0
    7.3407   -1.5209    2.0890 H   0  0  0  0  0  0  0  0  0  0  0  0
    8.5876    0.1439    0.6846 H   0  0  0  0  0  0  0  0  0  0  0  0
    7.4002    1.3298   -1.1813 H   0  0  0  0  0  0  0  0  0  0  0  0
    4.9898    0.8557   -1.6348 H   0  0  0  0  0  0  0  0  0  0  0  0
  1  6  1  0  0  0  0
  1  5  1  0  0  0  0
  2  3  1  0  0  0  0
  2  1  2  0  0  0  0
  3  4  1  0  0  0  0
  4 16  1  0  0  0  0
  4  5  2  0  0  0  0
  5 17  1  0  0  0  0
  6  8  1  0  0  0  0
  6 18  1  1  0  0  0
  7 19  1  0  0  0  0
  7  6  1  0  0  0  0
  8  9  1  0  0  0  0
  9 10  2  0  0  0  0
  9 22  1  0  0  0  0
 10 23  1  0  0  0  0
 11 24  1  0  0  0  0
 11 10  1  0  0  0  0
 12 11  2  0  0  0  0
 13 12  1  0  0  0  0
 13  8  2  0  0  0  0
 14  2  1  0  0  0  0
 15  3  1  0  0  0  0
 20  7  1  0  0  0  0
 21  7  1  0  0  0  0
 25 12  1  0  0  0  0
 26 13  1  0  0  0  0
M  END
