7
q = 0.0, confidence = 0.974

 21 21  0  0  1  0  0  0  0  0999 V2000
    3.2365   -1.9867    0.4958 N   0  0  0  0  0  0  0  0  0  0  0  0
    2.8211   -2.8761    0.7695 H   0  0  0  0  0  0  0  0  0  0  0  0
    3.2761   -0.0907   -0.6638 N   0  0  0  0  0  0  0  0  0  0  0  0
    2.6059    1.8180    1.3230 N   0  0  0  0  0  0  0  0  0  0  0  0
    1.5843    1.6989    1.3601 H   0  0  0  0  0  0  0  0  0  0  0  0
    2.8408    2.5035    2.0497 H   0  0  0  0  0  0  0  0  0  0  0  0
   -0.1420   -0.6660   -0.0396 C   0  0  0  0  0  3  0  0  0  0  0  0
    1.0832   -0.9558   -0.0363 C   0  0  0  0  0  0  0  0  0  0  0  0
    2.4628   -1.0129   -0.0641 C   0  0  2  0  0  3  0  0  0  0  0  0
    4.6359   -1.8227    0.1200 C   0  0  0  0  0  0  0  0  0  0  0  0
    4.9019   -2.4692   -0.7485 H   0  0  0  0  0  0  0  0  0  0  0  0
    5.3209   -2.0608    0.9568 H   0  0  0  0  0  0  0  0  0  0  0  0
    4.6609   -0.3295   -0.2560 C   0  0  0  0  0  0  0  0  0  0  0  0
    4.8976    0.2999    0.6323 H   0  0  0  0  0  0  0  0  0  0  0  0
    5.3727   -0.0961   -1.0721 H   0  0  0  0  0  0  0  0  0  0  0  0
    2.8019    1.2227   -1.0604 C   0  0  0  0  0  0  0  0  0  0  0  0
    1.7207    1.1090   -1.2785 H   0  0  0  0  0  0  0  0  0  0  0  0
    3.3020    1.5222   -2.0056 H   0  0  0  0  0  0  0  0  0  0  0  0
    3.0203    2.3021    0.0160 C   0  0  0  0  0  0  0  0  0  0  0  0
    4.1017    2.5593    0.0658 H   0  0  0  0  0  0  0  0  0  0  0  0
    2.5064    3.2261   -0.3534 H   0  0  0  0  0  0  0  0  0  0  0  0
  1  2  1  0  0  0  0
  3 13  1  0  0  0  0
  3  9  1  0  0  0  0
  4  5  1  0  0  0  0
  4  6  1  0  0  0  0
  7  8  3  0  0  0  0
  9  8  1  1  0  0  0
  9  1  1  0  0  0  0
 10  1  1  0  0  0  0
 10 12  1  0  0  0  0
 11 10  1  0  0  0  0
 13 10  1  0  0  0  0
 13 14  1  0  0  0  0
 15 13  1  0  0  0  0
 16  3  1  0  0  0  0
 16 19  1  0  0  0  0
 17 16  1  0  0  0  0
 18 16  1  0  0  0  0
 19 20  1  0  0  0  0
 19  4  1  0  0  0  0
 21 19  1  0  0  0  0
M  END
