6
q = -1.0

 57 62  0  0  1  0  0  0  0  0999 V2000
    1.5881    1.5469    1.9674 O   0  0  0  0  0  0  0  0  0  0  0  0
    0.3586    1.2249   -1.4596 O   0  0  0  0  0  0  0  0  0  0  0  0
    2.4797   -0.5394   -1.7786 O   0  0  0  0  0  0  0  0  0  0  0  0
   -0.0237   -1.4190   -1.1225 O   0  0  0  0  0  0  0  0  0  0  0  0
   -0.8592   -2.0846    1.3488 O   0  0  0  0  0  0  0  0  0  0  0  0
   -0.3819    0.2850    1.2204 C   0  0  0  0  0  3  0  0  0  0  0  0
   -0.8624    0.4975    2.1964 H   0  0  0  0  0  0  0  0  0  0  0  0
    0.6010    1.4259    0.8964 C   0  0  2  0  0  0  0  0  0  0  0  0
    1.3635    1.1324   -0.4361 C   0  0  1  0  0  0  0  0  0  0  0  0
    2.0165   -0.3046   -0.4327 C   0  0  1  0  0  0  0  0  0  0  0  0
    0.9742   -1.4256   -0.0806 C   0  0  1  0  0  0  0  0  0  0  0  0
    0.2340   -1.1254    1.2655 C   0  0  2  0  0  0  0  0  0  0  0  0
    2.4125    2.2245   -0.8017 C   0  0  0  0  0  0  0  0  0  0  0  0
    2.6207    2.8909    0.0563 H   0  0  0  0  0  0  0  0  0  0  0  0
    3.3680    1.7512   -1.0845 H   0  0  0  0  0  0  0  0  0  0  0  0
    1.8188    2.9562   -2.0184 C   0  0  0  0  0  0  0  0  0  0  0  0
    1.2375    3.8485   -1.7070 H   0  0  0  0  0  0  0  0  0  0  0  0
    2.5929    3.2928   -2.7361 H   0  0  0  0  0  0  0  0  0  0  0  0
    0.8819    1.8975   -2.6017 C   0  0  0  0  0  0  0  0  0  0  0  0
    0.0220    2.3114   -3.1653 H   0  0  0  0  0  0  0  0  0  0  0  0
    1.4317    1.1804   -3.2501 H   0  0  0  0  0  0  0  0  0  0  0  0
    3.2929   -0.3661    0.4652 C   0  0  0  0  0  0  0  0  0  0  0  0
    3.3632    0.5221    1.1153 H   0  0  0  0  0  0  0  0  0  0  0  0
    3.2539   -1.2414    1.1370 H   0  0  0  0  0  0  0  0  0  0  0  0
    4.4738   -0.4944   -0.5143 C   0  0  0  0  0  0  0  0  0  0  0  0
    4.9385    0.4930   -0.7102 H   0  0  0  0  0  0  0  0  0  0  0  0
    5.2735   -1.1605   -0.1342 H   0  0  0  0  0  0  0  0  0  0  0  0
    3.8129   -1.0366   -1.7835 C   0  0  0  0  0  0  0  0  0  0  0  0
    4.2995   -0.6928   -2.7200 H   0  0  0  0  0  0  0  0  0  0  0  0
    3.8190   -2.1536   -1.7974 H   0  0  0  0  0  0  0  0  0  0  0  0
    1.5604   -2.8656   -0.1240 C   0  0  0  0  0  0  0  0  0  0  0  0
    2.6524   -2.9021    0.0392 H   0  0  0  0  0  0  0  0  0  0  0  0
    1.0852   -3.4678    0.6751 H   0  0  0  0  0  0  0  0  0  0  0  0
    1.1320   -3.4102   -1.4910 C   0  0  0  0  0  0  0  0  0  0  0  0
    1.8303   -3.0758   -2.2833 H   0  0  0  0  0  0  0  0  0  0  0  0
    1.0665   -4.5158   -1.5164 H   0  0  0  0  0  0  0  0  0  0  0  0
   -0.2168   -2.7236   -1.6634 C   0  0  0  0  0  0  0  0  0  0  0  0
   -0.5379   -2.6039   -2.7176 H   0  0  0  0  0  0  0  0  0  0  0  0
   -1.0165   -3.2601   -1.1019 H   0  0  0  0  0  0  0  0  0  0  0  0
    1.0451   -1.3765    2.5604 C   0  0  0  0  0  0  0  0  0  0  0  0
    1.5921   -0.4723    2.8773 H   0  0  0  0  0  0  0  0  0  0  0  0
    1.7725   -2.1994    2.4061 H   0  0  0  0  0  0  0  0  0  0  0  0
   -0.0346   -1.8326    3.5479 C   0  0  0  0  0  0  0  0  0  0  0  0
    0.3715   -2.3935    4.4124 H   0  0  0  0  0  0  0  0  0  0  0  0
   -0.5971   -0.9626    3.9451 H   0  0  0  0  0  0  0  0  0  0  0  0
   -0.9252   -2.6846    2.6442 C   0  0  0  0  0  0  0  0  0  0  0  0
   -0.5505   -3.7358    2.5950 H   0  0  0  0  0  0  0  0  0  0  0  0
   -1.9871   -2.7200    2.9664 H   0  0  0  0  0  0  0  0  0  0  0  0
   -0.1031    2.8034    0.9047 C   0  0  0  0  0  0  0  0  0  0  0  0
    0.4728    3.5287    0.2972 H   0  0  0  0  0  0  0  0  0  0  0  0
   -1.1260    2.7626    0.4901 H   0  0  0  0  0  0  0  0  0  0  0  0
   -0.0512    3.2055    2.3811 C   0  0  0  0  0  0  0  0  0  0  0  0
   -0.8456    2.6889    2.9578 H   0  0  0  0  0  0  0  0  0  0  0  0
   -0.1724    4.2942    2.5434 H   0  0  0  0  0  0  0  0  0  0  0  0
    1.3331    2.6965    2.7815 C   0  0  0  0  0  0  0  0  0  0  0  0
    2.1149    3.4687    2.5856 H   0  0  0  0  0  0  0  0  0  0  0  0
    1.4078    2.4056    3.8512 H   0  0  0  0  0  0  0  0  0  0  0  0
  1 55  1  0  0  0  0
  5 46  1  0  0  0  0
  6  7  1  0  0  0  0
  8 49  1  0  0  0  0
  8  6  1  1  0  0  0
  8  1  1  0  0  0  0
  9  2  1  6  0  0  0
  9 10  1  0  0  0  0
  9  8  1  0  0  0  0
 10  3  1  6  0  0  0
 10 11  1  0  0  0  0
 10 22  1  0  0  0  0
 11  4  1  6  0  0  0
 11 12  1  0  0  0  0
 12  6  1  6  0  0  0
 12  5  1  0  0  0  0
 12 40  1  0  0  0  0
 13  9  1  0  0  0  0
 13 14  1  0  0  0  0
 15 13  1  0  0  0  0
 16 17  1  0  0  0  0
 16 13  1  0  0  0  0
 18 16  1  0  0  0  0
 19 16  1  0  0  0  0
 19  2  1  0  0  0  0
 20 19  1  0  0  0  0
 21 19  1  0  0  0  0
 22 23  1  0  0  0  0
 22 24  1  0  0  0  0
 25 27  1  0  0  0  0
 25 22  1  0  0  0  0
 26 25  1  0  0  0  0
 28  3  1  0  0  0  0
 28 25  1  0  0  0  0
 29 28  1  0  0  0  0
 30 28  1  0  0  0  0
 31 11  1  0  0  0  0
 31 32  1  0  0  0  0
 31 33  1  0  0  0  0
 34 31  1  0  0  0  0
 35 34  1  0  0  0  0
 36 34  1  0  0  0  0
 37 34  1  0  0  0  0
 37  4  1  0  0  0  0
 37 39  1  0  0  0  0
 38 37  1  0  0  0  0
 40 41  1  0  0  0  0
 40 43  1  0  0  0  0
 42 40  1  0  0  0  0
 43 45  1  0  0  0  0
 43 44  1  0  0  0  0
 46 48  1  0  0  0  0
 46 43  1  0  0  0  0
 47 46  1  0  0  0  0
 49 52  1  0  0  0  0
 50 49  1  0  0  0  0
 51 49  1  0  0  0  0
 52 54  1  0  0  0  0
 52 55  1  0  0  0  0
 52 53  1  0  0  0  0
 55 57  1  0  0  0  0
 56 55  1  0  0  0  0
M  END
