1
q = -1.0

 29 34  0  0  0  0  0  0  0  0999 V2000
   -0.3174    0.5473    0.2296 C   0  0  0  0  0  3  0  0  0  0  0  0
   -1.2262    0.5011   -0.9131 C   0  0  0  0  0  0  0  0  0  0  0  0
   -1.0866   -0.2474   -2.1491 C   0  0  0  0  0  0  0  0  0  0  0  0
   -0.0843   -0.6118   -2.4237 H   0  0  0  0  0  0  0  0  0  0  0  0
   -2.1869   -0.6274   -2.9255 C   0  0  0  0  0  0  0  0  0  0  0  0
   -2.0165   -1.2812   -3.7964 H   0  0  0  0  0  0  0  0  0  0  0  0
   -3.5440   -0.2886   -2.5414 C   0  0  0  0  0  0  0  0  0  0  0  0
   -4.7946   -0.9355   -2.8884 C   0  0  0  0  0  0  0  0  0  0  0  0
   -4.8249   -1.6226   -3.7496 H   0  0  0  0  0  0  0  0  0  0  0  0
   -5.9391   -0.8144   -2.0922 C   0  0  0  0  0  0  0  0  0  0  0  0
   -6.8274   -1.4110   -2.3557 H   0  0  0  0  0  0  0  0  0  0  0  0
   -5.9456   -0.0328   -0.8708 C   0  0  0  0  0  0  0  0  0  0  0  0
   -6.8070   -0.1382    0.2912 C   0  0  0  0  0  0  0  0  0  0  0  0
   -7.7605   -0.6844    0.2085 H   0  0  0  0  0  0  0  0  0  0  0  0
   -6.4094    0.3238    1.5511 C   0  0  0  0  0  0  0  0  0  0  0  0
   -7.0648    0.1221    2.4139 H   0  0  0  0  0  0  0  0  0  0  0  0
   -5.1154    0.9396    1.7727 C   0  0  0  0  0  0  0  0  0  0  0  0
   -4.3385    1.0497    2.9932 C   0  0  0  0  0  0  0  0  0  0  0  0
   -4.8371    0.9016    3.9649 H   0  0  0  0  0  0  0  0  0  0  0  0
   -2.9492    1.2143    2.9755 C   0  0  0  0  0  0  0  0  0  0  0  0
   -2.4059    1.1858    3.9342 H   0  0  0  0  0  0  0  0  0  0  0  0
   -2.1953    1.2827    1.7361 C   0  0  0  0  0  0  0  0  0  0  0  0
   -0.8047    0.9566    1.4910 C   0  0  0  0  0  0  0  0  0  0  0  0
   -0.1220    0.8931    2.3543 H   0  0  0  0  0  0  0  0  0  0  0  0
   -2.5096    1.0183   -0.6987 C   0  0  0  0  0  0  0  0  0  0  0  0
   -3.6348    0.6235   -1.4850 C   0  0  0  0  0  0  0  0  0  0  0  0
   -4.8017    0.7485   -0.6770 C   0  0  0  0  0  0  0  0  0  0  0  0
   -4.3992    1.2231    0.6054 C   0  0  0  0  0  0  0  0  0  0  0  0
   -2.9859    1.3991    0.5880 C   0  0  0  0  0  0  0  0  0  0  0  0
  1 23  1  0  0  0  0
  2 25  1  0  0  0  0
  2  1  2  0  0  0  0
  3  2  1  0  0  0  0
  4  3  1  0  0  0  0
  5  7  1  0  0  0  0
  5  3  2  0  0  0  0
  6  5  1  0  0  0  0
  7 26  1  0  0  0  0
  8  7  2  0  0  0  0
  8 10  1  0  0  0  0
  9  8  1  0  0  0  0
 10 12  2  0  0  0  0
 11 10  1  0  0  0  0
 12 27  1  0  0  0  0
 12 13  1  0  0  0  0
 13 15  2  0  0  0  0
 14 13  1  0  0  0  0
 15 17  1  0  0  0  0
 15 16  1  0  0  0  0
 17 18  1  0  0  0  0
 18 19  1  0  0  0  0
 20 18  2  0  0  0  0
 20 21  1  0  0  0  0
 22 20  1  0  0  0  0
 23 22  2  0  0  0  0
 23 24  1  0  0  0  0
 25 29  2  0  0  0  0
 26 25  1  0  0  0  0
 26 27  2  0  0  0  0
 27 28  1  0  0  0  0
 28 17  2  0  0  0  0
 29 28  1  0  0  0  0
 29 22  1  0  0  0  0
M  END
