9
q = 0.0, confidence = 0.998

 48 50  0  0  0  0  0  0  0  0999 V2000
   -0.6422    1.6123   -0.8284 O   0  0  0  0  0  0  0  0  0  0  0  0
   -0.7044   -0.8629   -1.5839 O   0  0  0  0  0  0  0  0  0  0  0  0
    3.3642    1.2340   -0.4183 O   0  0  0  0  0  0  0  0  0  0  0  0
    3.0039   -1.2628    0.0026 O   0  0  0  0  0  0  0  0  0  0  0  0
   -1.8720    1.1088   -1.0269 C   0  0  0  0  0  0  0  0  0  0  0  0
   -1.9071   -0.2755   -1.4592 C   0  0  0  0  0  0  0  0  0  0  0  0
   -3.1602   -0.8978   -1.6938 C   0  0  0  0  0  0  0  0  0  0  0  0
   -4.3798   -0.1675   -1.5157 C   0  0  0  0  0  3  0  0  0  0  0  0
   -4.3425    1.1777   -1.0883 C   0  0  0  0  0  3  0  0  0  0  0  0
   -3.0864    1.8179   -0.8398 C   0  0  0  0  0  0  0  0  0  0  0  0
   -0.4631    2.7002    0.0913 C   0  0  0  0  0  0  0  0  0  0  0  0
    1.0141    2.7342    0.4480 C   0  0  0  0  0  0  0  0  0  0  0  0
    1.9277    3.0739   -0.7373 C   0  0  0  0  0  0  0  0  0  0  0  0
    3.3729    2.6511   -0.5024 C   0  0  0  0  0  0  0  0  0  0  0  0
    2.6299   -2.5841    0.3711 C   0  0  0  0  0  0  0  0  0  0  0  0
    1.1424   -2.7108    0.0742 C   0  0  0  0  0  0  0  0  0  0  0  0
    0.8185   -2.6823   -1.4261 C   0  0  0  0  0  0  0  0  0  0  0  0
   -0.6212   -2.2873   -1.7261 C   0  0  0  0  0  0  0  0  0  0  0  0
    4.2714   -0.8299    0.2249 C   0  0  0  0  0  0  0  0  0  0  0  0
    5.3433   -1.6198    0.6635 C   0  0  0  0  0  0  0  0  0  0  0  0
    6.6153   -1.0431    0.8581 C   0  0  0  0  0  0  0  0  0  0  0  0
    6.8144    0.3190    0.6187 C   0  0  0  0  0  0  0  0  0  0  0  0
    5.7431    1.1261    0.1836 C   0  0  0  0  0  0  0  0  0  0  0  0
    4.4740    0.5647   -0.0128 C   0  0  0  0  0  0  0  0  0  0  0  0
   -3.2006   -1.9540   -1.9872 H   0  0  0  0  0  0  0  0  0  0  0  0
   -5.3416   -0.6758   -1.6654 H   0  0  0  0  0  0  0  0  0  0  0  0
   -5.2761    1.7261   -0.9035 H   0  0  0  0  0  0  0  0  0  0  0  0
   -3.0623    2.8530   -0.4769 H   0  0  0  0  0  0  0  0  0  0  0  0
   -0.7966    3.6535   -0.3811 H   0  0  0  0  0  0  0  0  0  0  0  0
   -1.0908    2.5144    0.9907 H   0  0  0  0  0  0  0  0  0  0  0  0
    1.1614    3.4575    1.2783 H   0  0  0  0  0  0  0  0  0  0  0  0
    1.2820    1.7293    0.8345 H   0  0  0  0  0  0  0  0  0  0  0  0
    1.8968    4.1606   -0.9657 H   0  0  0  0  0  0  0  0  0  0  0  0
    1.5660    2.5376   -1.6391 H   0  0  0  0  0  0  0  0  0  0  0  0
    3.7753    3.0913    0.4413 H   0  0  0  0  0  0  0  0  0  0  0  0
    4.0305    2.9896   -1.3371 H   0  0  0  0  0  0  0  0  0  0  0  0
    2.8354   -2.7508    1.4536 H   0  0  0  0  0  0  0  0  0  0  0  0
    3.2265   -3.3331   -0.2038 H   0  0  0  0  0  0  0  0  0  0  0  0
    0.6338   -1.8692    0.5870 H   0  0  0  0  0  0  0  0  0  0  0  0
    0.7597   -3.6457    0.5356 H   0  0  0  0  0  0  0  0  0  0  0  0
    1.4754   -1.9444   -1.9323 H   0  0  0  0  0  0  0  0  0  0  0  0
    1.0241   -3.6713   -1.8880 H   0  0  0  0  0  0  0  0  0  0  0  0
   -1.3294   -2.7718   -1.0150 H   0  0  0  0  0  0  0  0  0  0  0  0
   -0.9166   -2.5707   -2.7615 H   0  0  0  0  0  0  0  0  0  0  0  0
    5.1928   -2.6905    0.8579 H   0  0  0  0  0  0  0  0  0  0  0  0
    7.4476   -1.6750    1.2017 H   0  0  0  0  0  0  0  0  0  0  0  0
    7.8056    0.7717    0.7695 H   0  0  0  0  0  0  0  0  0  0  0  0
    5.9039    2.1972   -0.0015 H   0  0  0  0  0  0  0  0  0  0  0  0
  1 11  1  0  0  0  0
  2  6  1  0  0  0  0
  3 24  1  0  0  0  0
  4 19  1  0  0  0  0
  4 15  1  0  0  0  0
  5 10  2  0  0  0  0
  5  1  1  0  0  0  0
  6  5  1  0  0  0  0
  7  8  1  0  0  0  0
  7  6  2  0  0  0  0
  8  9  1  0  0  0  0
  9 27  1  0  0  0  0
  9 10  1  0  0  0  0
 10 28  1  0  0  0  0
 11 12  1  0  0  0  0
 11 30  1  0  0  0  0
 12 32  1  0  0  0  0
 12 31  1  0  0  0  0
 13 14  1  0  0  0  0
 13 12  1  0  0  0  0
 14  3  1  0  0  0  0
 14 35  1  0  0  0  0
 15 37  1  0  0  0  0
 16 15  1  0  0  0  0
 16 40  1  0  0  0  0
 16 39  1  0  0  0  0
 17 16  1  0  0  0  0
 18  2  1  0  0  0  0
 18 17  1  0  0  0  0
 18 43  1  0  0  0  0
 19 20  1  0  0  0  0
 20 45  1  0  0  0  0
 20 21  2  0  0  0  0
 21 46  1  0  0  0  0
 22 47  1  0  0  0  0
 22 21  1  0  0  0  0
 23 22  2  0  0  0  0
 24 23  1  0  0  0  0
 24 19  2  0  0  0  0
 25  7  1  0  0  0  0
 26  8  1  0  0  0  0
 29 11  1  0  0  0  0
 33 13  1  0  0  0  0
 34 13  1  0  0  0  0
 36 14  1  0  0  0  0
 38 15  1  0  0  0  0
 41 17  1  0  0  0  0
 42 17  1  0  0  0  0
 44 18  1  0  0  0  0
 48 23  1  0  0  0  0
M  END
