16
q = 0.0, confidence = 0.984

 34 34  0  0  1  0  0  0  0  0999 V2000
    1.5085    3.9461    0.2982 F   0  0  0  0  0  0  0  0  0  0  0  0
    3.4864    3.4648   -0.4738 F   0  0  0  0  0  0  0  0  0  0  0  0
    2.9696    2.9699    1.5889 F   0  0  0  0  0  0  0  0  0  0  0  0
    4.9782   -2.4623    1.2909 O   0  0  0  0  0  0  0  0  0  0  0  0
    5.9353   -0.7412    0.1822 O   0  0  0  0  0  0  0  0  0  0  0  0
    1.9953    1.6309   -0.1430 C   0  0  1  0  0  0  0  0  0  0  0  0
    1.6463    1.7887   -1.1853 H   0  0  0  0  0  0  0  0  0  0  0  0
    3.2093    0.6795   -0.2051 C   0  0  0  0  0  0  0  0  0  0  0  0
    3.8966    1.0399   -0.9928 H   0  0  0  0  0  0  0  0  0  0  0  0
    3.7635    0.7448    0.7558 H   0  0  0  0  0  0  0  0  0  0  0  0
    2.7922   -0.7778   -0.4365 C   0  0  2  0  0  0  0  0  0  0  0  0
    2.1253   -0.8071   -1.3251 H   0  0  0  0  0  0  0  0  0  0  0  0
    1.9974   -1.2207    0.7969 C   0  0  0  0  0  0  0  0  0  0  0  0
    1.6328   -2.2608    0.6987 H   0  0  0  0  0  0  0  0  0  0  0  0
    2.6900   -1.2460    1.6696 H   0  0  0  0  0  0  0  0  0  0  0  0
    0.8421   -0.2903    1.1204 C   0  0  0  0  0  3  0  0  0  0  0  0
    0.8498    1.1152    0.7527 C   0  0  0  0  0  3  0  0  0  0  0  0
    2.4935    2.9901    0.3195 C   0  0  0  0  0  0  0  0  0  0  0  0
    3.9866   -1.7282   -0.8229 C   0  0  0  0  0  0  0  0  0  0  0  0
    5.0023   -1.7201    0.3245 C   0  0  0  0  0  0  0  0  0  0  0  0
    6.8613   -0.6167    1.2665 C   0  0  0  0  0  0  0  0  0  0  0  0
    6.3331   -0.3630    2.2081 H   0  0  0  0  0  0  0  0  0  0  0  0
    7.5563    0.1946    0.9855 H   0  0  0  0  0  0  0  0  0  0  0  0
    7.4129   -1.5649    1.4268 H   0  0  0  0  0  0  0  0  0  0  0  0
    4.6164   -1.2639   -2.1496 C   0  0  0  0  0  0  0  0  0  0  0  0
    5.0471   -0.2492   -2.0814 H   0  0  0  0  0  0  0  0  0  0  0  0
    3.8437   -1.2635   -2.9452 H   0  0  0  0  0  0  0  0  0  0  0  0
    5.4301   -1.9500   -2.4593 H   0  0  0  0  0  0  0  0  0  0  0  0
    3.4753   -3.1698   -0.9971 C   0  0  0  0  0  0  0  0  0  0  0  0
    4.2838   -3.8254   -1.3779 H   0  0  0  0  0  0  0  0  0  0  0  0
    2.6484   -3.1891   -1.7362 H   0  0  0  0  0  0  0  0  0  0  0  0
    3.1252   -3.5988   -0.0411 H   0  0  0  0  0  0  0  0  0  0  0  0
    0.4166   -0.5030    2.1198 H   0  0  0  0  0  0  0  0  0  0  0  0
    0.5722    1.8267    1.5513 H   0  0  0  0  0  0  0  0  0  0  0  0
  1 18  1  0  0  0  0
  2 18  1  0  0  0  0
  5 20  1  0  0  0  0
  5 21  1  0  0  0  0
  6  7  1  6  0  0  0
  6 18  1  0  0  0  0
  6 17  1  0  0  0  0
  8  6  1  0  0  0  0
  8 10  1  0  0  0  0
  9  8  1  0  0  0  0
 11 12  1  6  0  0  0
 11  8  1  0  0  0  0
 11 13  1  0  0  0  0
 13 16  1  0  0  0  0
 13 15  1  0  0  0  0
 14 13  1  0  0  0  0
 16 33  1  0  0  0  0
 17 16  1  0  0  0  0
 17 34  1  0  0  0  0
 18  3  1  0  0  0  0
 19 11  1  0  0  0  0
 19 20  1  0  0  0  0
 20  4  2  0  0  0  0
 21 24  1  0  0  0  0
 21 22  1  0  0  0  0
 23 21  1  0  0  0  0
 25 26  1  0  0  0  0
 25 19  1  0  0  0  0
 27 25  1  0  0  0  0
 28 25  1  0  0  0  0
 29 19  1  0  0  0  0
 29 32  1  0  0  0  0
 30 29  1  0  0  0  0
 31 29  1  0  0  0  0
M  END
