2
q = -1.0

 20 20  0  0  1  0  0  0  0  0999 V2000
    1.8221    0.9290    0.3693 C   0  0  2  0  0  3  0  0  0  0  0  0
    0.7920    1.5449    1.1793 C   0  0  0  0  0  3  0  0  0  0  0  0
   -0.1022    2.2744    0.3077 C   0  0  0  0  0  3  0  0  0  0  0  0
    0.3133    2.0772   -1.0535 C   0  0  0  0  0  0  0  0  0  0  0  0
    1.4953    1.2706   -0.9964 C   0  0  0  0  0  0  0  0  0  0  0  0
    1.3827   -1.4250    0.7693 B   0  0  1  0  0  0  0  0  0  0  0  0
    1.0718   -1.8167   -0.8610 B   0  0  0  0  0  0  0  0  0  0  0  0
    2.7241   -1.6821   -0.2440 B   0  0  0  0  0  2  0  0  0  0  0  0
    2.7613   -0.2578    0.8144 B   0  0  0  0  0  0  0  0  0  0  0  0
    1.0887   -2.0832    1.7459 H   0  0  0  0  0  0  0  0  0  0  0  0
    0.6629   -2.8561   -1.3396 H   0  0  0  0  0  0  0  0  0  0  0  0
    3.5058   -2.6069   -0.2283 H   0  0  0  0  0  0  0  0  0  0  0  0
    3.5628   -0.1839    1.7245 H   0  0  0  0  0  0  0  0  0  0  0  0
    0.3697   -0.8354   -1.5816 H   0  0  0  0  0  0  0  0  0  0  0  0
    2.2352   -1.5698   -1.5301 H   0  0  0  0  0  0  0  0  0  0  0  0
    3.4765   -0.5316   -0.2993 H   0  0  0  0  0  0  0  0  0  0  0  0
    0.7386    1.4913    2.2730 H   0  0  0  0  0  0  0  0  0  0  0  0
   -0.9473    2.8940    0.6272 H   0  0  0  0  0  0  0  0  0  0  0  0
   -0.1237    2.5305   -1.9497 H   0  0  0  0  0  0  0  0  0  0  0  0
    2.0605    0.9368   -1.8754 H   0  0  0  0  0  0  0  0  0  0  0  0
  1  9  1  6  0  0  0
  1  2  1  0  0  0  0
  2 17  1  0  0  0  0
  3 18  1  0  0  0  0
  3  2  1  0  0  0  0
  4  5  2  0  0  0  0
  4  3  1  0  0  0  0
  5  1  1  0  0  0  0
  6  9  1  0  0  0  0
  6 10  1  1  0  0  0
  7  6  1  0  0  0  0
  8 12  1  0  0  0  0
  8  6  1  0  0  0  0
  9 13  1  0  0  0  0
 11  7  1  0  0  0  0
 14  7  1  0  0  0  0
 15  7  1  0  0  0  0
 16  9  1  0  0  0  0
 19  4  1  0  0  0  0
 20  5  1  0  0  0  0
M  END
