2
q = -1.0

  4  3  0  0  0  0  0  0  0  0999 V2000
   -0.9187   -5.5407   -0.9497 N   0  0  0  0  0  0  0  0  0  0  0  0
   -0.2805   -2.0505    0.4212 C   0  0  0  0  0  0  0  0  0  0  0  0
   -0.4672   -3.2159   -0.0042 C   0  0  0  0  0  0  0  0  0  0  0  0
   -0.7026   -4.4631   -0.5031 C   0  0  0  0  0  0  0  0  0  0  0  0
  1  4  3  0  0  0  0
  3  2  3  0  0  0  0
  4  3  1  0  0  0  0
M  END
