7
q = -1.0

 33 32  0  0  0  0  0  0  0  0999 V2000
   -0.6426   -0.1985   -1.1968 P   0  0  0  0  0  2  0  0  0  0  0  0
   -2.7052    1.7062   -0.0579 Si  0  0  0  0  0  0  0  0  0  0  0  0
   -3.2196   -1.4870    0.0831 Si  0  0  0  0  0  0  0  0  0  0  0  0
    2.4178   -2.4738   -1.8605 O   0  0  0  0  0  0  0  0  0  0  0  0
    0.3082   -1.6504   -0.7732 C   0  0  0  0  0  3  0  0  0  0  0  0
   -1.9491   -0.0522    0.1378 C   0  0  0  0  0  0  0  0  0  0  0  0
    1.6317   -1.7471   -1.3090 C   0  0  0  0  0  3  0  0  0  0  0  0
   -1.3823    2.9324   -0.6490 C   0  0  0  0  0  0  0  0  0  0  0  0
   -4.0780    1.7342   -1.3631 C   0  0  0  0  0  0  0  0  0  0  0  0
   -3.3815    2.2920    1.6132 C   0  0  0  0  0  0  0  0  0  0  0  0
   -4.7534   -1.0637    1.1197 C   0  0  0  0  0  0  0  0  0  0  0  0
   -2.4785   -3.0551    0.8583 C   0  0  0  0  0  0  0  0  0  0  0  0
   -3.7238   -1.8839   -1.6950 C   0  0  0  0  0  0  0  0  0  0  0  0
    0.0163   -2.3510    0.0279 H   0  0  0  0  0  0  0  0  0  0  0  0
   -1.4830   -0.0967    1.1470 H   0  0  0  0  0  0  0  0  0  0  0  0
   -1.1217    2.7555   -1.7122 H   0  0  0  0  0  0  0  0  0  0  0  0
   -1.7573    3.9728   -0.5549 H   0  0  0  0  0  0  0  0  0  0  0  0
   -0.4448    2.8412   -0.0681 H   0  0  0  0  0  0  0  0  0  0  0  0
   -3.6903    1.3687   -2.3360 H   0  0  0  0  0  0  0  0  0  0  0  0
   -4.9570    1.1185   -1.0887 H   0  0  0  0  0  0  0  0  0  0  0  0
   -4.4279    2.7768   -1.5111 H   0  0  0  0  0  0  0  0  0  0  0  0
   -3.8256    3.3039    1.5096 H   0  0  0  0  0  0  0  0  0  0  0  0
   -4.1660    1.6152    2.0043 H   0  0  0  0  0  0  0  0  0  0  0  0
   -2.5757    2.3559    2.3726 H   0  0  0  0  0  0  0  0  0  0  0  0
   -4.4793   -0.8547    2.1743 H   0  0  0  0  0  0  0  0  0  0  0  0
   -5.3094   -0.1879    0.7312 H   0  0  0  0  0  0  0  0  0  0  0  0
   -5.4480   -1.9295    1.1197 H   0  0  0  0  0  0  0  0  0  0  0  0
   -2.0114   -2.8506    1.8438 H   0  0  0  0  0  0  0  0  0  0  0  0
   -3.2843   -3.8014    1.0191 H   0  0  0  0  0  0  0  0  0  0  0  0
   -1.7183   -3.5267    0.2046 H   0  0  0  0  0  0  0  0  0  0  0  0
   -4.4087   -2.7569   -1.7097 H   0  0  0  0  0  0  0  0  0  0  0  0
   -4.2401   -1.0344   -2.1827 H   0  0  0  0  0  0  0  0  0  0  0  0
   -2.8336   -2.1362   -2.3068 H   0  0  0  0  0  0  0  0  0  0  0  0
  1  5  1  0  0  0  0
  1  6  1  0  0  0  0
  2  6  1  0  0  0  0
  2 10  1  0  0  0  0
  3  6  1  0  0  0  0
  3 12  1  0  0  0  0
  3 11  1  0  0  0  0
  4  7  2  0  0  0  0
  5 14  1  0  0  0  0
  6 15  1  0  0  0  0
  7  5  1  0  0  0  0
  8 17  1  0  0  0  0
  8 18  1  0  0  0  0
  8  2  1  0  0  0  0
  9 20  1  0  0  0  0
  9  2  1  0  0  0  0
 10 23  1  0  0  0  0
 10 24  1  0  0  0  0
 11 27  1  0  0  0  0
 11 25  1  0  0  0  0
 12 29  1  0  0  0  0
 12 28  1  0  0  0  0
 13  3  1  0  0  0  0
 16  8  1  0  0  0  0
 19  9  1  0  0  0  0
 21  9  1  0  0  0  0
 22 10  1  0  0  0  0
 26 11  1  0  0  0  0
 30 12  1  0  0  0  0
 31 13  1  0  0  0  0
 32 13  1  0  0  0  0
 33 13  1  0  0  0  0
M  END
