1
q = -1.0, confidence = 0.034

  7  6  0  0  0  0  0  0  0  0999 V2000
   -1.1469   -0.6631   -0.6642 C   0  0  0  0  0  3  0  0  0  0  0  0
   -3.3208   -1.5368   -0.9022 C   0  0  0  0  0  0  0  0  0  0  0  0
   -2.4044   -0.6180   -0.3746 N   0  0  0  0  0  0  0  0  0  0  0  0
   -4.3035   -0.8856   -1.5820 F   0  0  0  0  0  0  0  0  0  0  0  0
   -3.9228   -2.2316    0.1012 F   0  0  0  0  0  0  0  0  0  0  0  0
   -2.8143   -2.4712   -1.7632 F   0  0  0  0  0  0  0  0  0  0  0  0
   -0.7665   -1.4652   -1.3478 H   0  0  0  0  0  0  0  0  0  0  0  0
  1  3  2  0  0  0  0
  2  3  1  0  0  0  0
  2  5  1  0  0  0  0
  4  2  1  0  0  0  0
  6  2  1  0  0  0  0
  7  1  1  0  0  0  0
M  END
