4
q = -1.0

 18 18  0  0  0  0  0  0  0  0999 V2000
   -0.1573    0.1364   -2.5006 O   0  0  0  0  0  0  0  0  0  0  0  0
   -1.4538   -1.7526   -2.2321 N   0  0  0  0  0  0  0  0  0  0  0  0
   -1.3856   -2.7616   -2.0871 H   0  0  0  0  0  0  0  0  0  0  0  0
    0.9667   -1.9648   -2.1805 C   0  0  0  0  0  3  0  0  0  0  0  0
    1.8163   -1.5314   -2.7392 H   0  0  0  0  0  0  0  0  0  0  0  0
    0.8015   -3.0126   -2.5012 H   0  0  0  0  0  0  0  0  0  0  0  0
   -0.2311   -1.0890   -2.3528 C   0  0  0  0  0  0  0  0  0  0  0  0
   -2.7222   -1.2025   -1.9995 C   0  0  0  0  0  0  0  0  0  0  0  0
   -3.0073    0.1743   -2.1571 C   0  0  0  0  0  0  0  0  0  0  0  0
   -2.2094    0.8378   -2.5079 H   0  0  0  0  0  0  0  0  0  0  0  0
   -4.2841    0.6575   -1.8382 C   0  0  0  0  0  0  0  0  0  0  0  0
   -4.4877    1.7333   -1.9550 H   0  0  0  0  0  0  0  0  0  0  0  0
   -5.2952   -0.1997   -1.3760 C   0  0  0  0  0  0  0  0  0  0  0  0
   -6.2918    0.1918   -1.1240 H   0  0  0  0  0  0  0  0  0  0  0  0
   -5.0193   -1.5702   -1.2424 C   0  0  0  0  0  0  0  0  0  0  0  0
   -5.7984   -2.2590   -0.8826 H   0  0  0  0  0  0  0  0  0  0  0  0
   -3.7488   -2.0682   -1.5512 C   0  0  0  0  0  0  0  0  0  0  0  0
   -3.5343   -3.1423   -1.4286 H   0  0  0  0  0  0  0  0  0  0  0  0
  1  7  2  0  0  0  0
  2  3  1  0  0  0  0
  2  8  1  0  0  0  0
  5  4  1  0  0  0  0
  6  4  1  0  0  0  0
  7  2  1  0  0  0  0
  7  4  1  0  0  0  0
  8 17  1  0  0  0  0
  9  8  2  0  0  0  0
  9 11  1  0  0  0  0
 10  9  1  0  0  0  0
 11 13  2  0  0  0  0
 12 11  1  0  0  0  0
 13 15  1  0  0  0  0
 13 14  1  0  0  0  0
 15 16  1  0  0  0  0
 17 18  1  0  0  0  0
 17 15  2  0  0  0  0
M  END
