2
q = -1.0, confidence = 0.006

 13 12  0  0  0  0  0  0  0  0999 V2000
   -0.4269    0.8334    2.2425 C   0  0  0  0  0  3  0  0  0  0  0  0
    0.7416    0.1221    1.8529 C   0  0  0  0  0  3  0  0  0  0  0  0
    1.5947    0.6850    0.8517 C   0  0  0  0  0  3  0  0  0  0  0  0
    2.7192   -0.1202    0.2907 C   0  0  0  0  0  0  0  0  0  0  0  0
    3.6795    0.6289   -0.6124 C   0  0  0  0  0  0  0  0  0  0  0  0
    2.8638   -1.3173    0.5419 O   0  0  0  0  0  0  0  0  0  0  0  0
   -0.4081    1.9333    2.2772 H   0  0  0  0  0  0  0  0  0  0  0  0
   -1.1295    0.3567    2.9441 H   0  0  0  0  0  0  0  0  0  0  0  0
    0.9613   -0.8976    2.2096 H   0  0  0  0  0  0  0  0  0  0  0  0
    1.6916    1.7805    0.7864 H   0  0  0  0  0  0  0  0  0  0  0  0
    4.4081   -0.0736   -1.0552 H   0  0  0  0  0  0  0  0  0  0  0  0
    4.2214    1.4027   -0.0288 H   0  0  0  0  0  0  0  0  0  0  0  0
    3.1253    1.1659   -1.4100 H   0  0  0  0  0  0  0  0  0  0  0  0
  1  7  1  0  0  0  0
  1  8  1  0  0  0  0
  2  9  1  0  0  0  0
  2  1  1  0  0  0  0
  3  2  1  0  0  0  0
  4  6  2  0  0  0  0
  4  3  1  0  0  0  0
  5 12  1  0  0  0  0
  5  4  1  0  0  0  0
 10  3  1  0  0  0  0
 11  5  1  0  0  0  0
 13  5  1  0  0  0  0
M  END
