16
q = -1.0, confidence = 0.074

 35 35  0  0  1  0  0  0  0  0999 V2000
    1.1110   -0.2462    0.9046 S   0  0  0  0  0  0  0  0  0  0  0  0
   -1.4651    0.2561    2.9805 F   0  0  0  0  0  0  0  0  0  0  0  0
   -0.5420    2.2322    2.8700 F   0  0  0  0  0  0  0  0  0  0  0  0
   -2.6932    2.0078    2.5584 F   0  0  0  0  0  0  0  0  0  0  0  0
   -1.8061    3.8461   -1.3322 F   0  0  0  0  0  0  0  0  0  0  0  0
    0.0152    4.3946   -0.2537 F   0  0  0  0  0  0  0  0  0  0  0  0
   -1.8202    3.9623    0.8406 F   0  0  0  0  0  0  0  0  0  0  0  0
    2.7743    2.2376    0.3483 F   0  0  0  0  0  0  0  0  0  0  0  0
    5.4788    2.4124    0.1265 F   0  0  0  0  0  0  0  0  0  0  0  0
    7.0218    0.1744    0.4323 F   0  0  0  0  0  0  0  0  0  0  0  0
    5.8605   -2.2494    0.9209 F   0  0  0  0  0  0  0  0  0  0  0  0
    3.1615   -2.4510    1.1169 F   0  0  0  0  0  0  0  0  0  0  0  0
    1.7731   -1.8075   -1.3749 O   0  0  0  0  0  0  0  0  0  0  0  0
    1.1476   -0.4864   -3.0933 O   0  0  0  0  0  0  0  0  0  0  0  0
   -1.4887    1.4379    2.3138 C   0  0  0  0  0  0  0  0  0  0  0  0
   -1.2526    1.2329    0.8519 C   0  0  0  0  0  2  0  0  0  0  0  0
   -0.6609    2.1239   -0.1086 C   0  0  0  0  0  0  0  0  0  0  0  0
   -1.0684    3.5904   -0.2075 C   0  0  0  0  0  0  0  0  0  0  0  0
    0.7455    2.2958   -2.2529 C   0  0  0  0  0  0  0  0  0  0  0  0
    0.2294    1.5474   -1.0560 C   0  0  0  0  0  0  0  0  0  0  0  0
    0.5937    0.1463   -0.8032 C   0  0  1  0  0  3  0  0  0  0  0  0
    1.1903   -0.7067   -1.8873 C   0  0  0  0  0  0  0  0  0  0  0  0
    2.2806   -2.7630   -2.3120 C   0  0  0  0  0  0  0  0  0  0  0  0
    2.8836   -0.1123    0.7413 C   0  0  0  0  0  0  0  0  0  0  0  0
    3.5086    1.1260    0.4965 C   0  0  0  0  0  0  0  0  0  0  0  0
    4.9020    1.2332    0.3712 C   0  0  0  0  0  0  0  0  0  0  0  0
    5.6967    0.0841    0.5344 C   0  0  0  0  0  0  0  0  0  0  0  0
    5.0965   -1.1621    0.7875 C   0  0  0  0  0  0  0  0  0  0  0  0
    3.6988   -1.2523    0.8945 C   0  0  0  0  0  0  0  0  0  0  0  0
    0.1551    3.1942   -2.4976 H   0  0  0  0  0  0  0  0  0  0  0  0
    0.8264    1.6302   -3.1297 H   0  0  0  0  0  0  0  0  0  0  0  0
    1.7747    2.6263   -1.9978 H   0  0  0  0  0  0  0  0  0  0  0  0
    2.9480   -2.2773   -3.0504 H   0  0  0  0  0  0  0  0  0  0  0  0
    1.4447   -3.2552   -2.8470 H   0  0  0  0  0  0  0  0  0  0  0  0
    2.8305   -3.5032   -1.7048 H   0  0  0  0  0  0  0  0  0  0  0  0
  5 18  1  0  0  0  0
  6 18  1  0  0  0  0
  8 25  1  0  0  0  0
  9 26  1  0  0  0  0
 10 27  1  0  0  0  0
 14 22  2  0  0  0  0
 15  4  1  0  0  0  0
 15  3  1  0  0  0  0
 15  2  1  0  0  0  0
 16 15  1  0  0  0  0
 17 16  1  0  0  0  0
 18 17  1  0  0  0  0
 18  7  1  0  0  0  0
 19 32  1  0  0  0  0
 19 20  1  0  0  0  0
 20 21  1  0  0  0  0
 20 17  2  0  0  0  0
 21 22  1  6  0  0  0
 21  1  1  0  0  0  0
 22 13  1  0  0  0  0
 23 35  1  0  0  0  0
 23 13  1  0  0  0  0
 24 29  1  0  0  0  0
 24  1  1  0  0  0  0
 25 24  2  0  0  0  0
 26 25  1  0  0  0  0
 26 27  2  0  0  0  0
 27 28  1  0  0  0  0
 28 29  2  0  0  0  0
 28 11  1  0  0  0  0
 29 12  1  0  0  0  0
 30 19  1  0  0  0  0
 31 19  1  0  0  0  0
 33 23  1  0  0  0  0
 34 23  1  0  0  0  0
M  END
