11
q = -1.0

 30 34  0  0  0  0  0  0  0  0999 V2000
    1.2335   -3.2981   -1.8546 C   0  0  0  0  0  0  0  0  0  0  0  0
   -0.0148   -3.7085   -2.3847 C   0  0  0  0  0  0  0  0  0  0  0  0
   -1.2598   -3.2882   -1.8546 C   0  0  0  0  0  0  0  0  0  0  0  0
   -1.2601   -2.3301   -0.8197 C   0  0  0  0  0  0  0  0  0  0  0  0
   -2.1676   -1.8556    0.2416 C   0  0  0  0  0  0  0  0  0  0  0  0
   -3.5386   -2.0770    0.4516 C   0  0  0  0  0  0  0  0  0  0  0  0
   -4.1469   -1.5860    1.6174 C   0  0  0  0  0  0  0  0  0  0  0  0
   -3.3940   -0.8785    2.5748 C   0  0  0  0  0  0  0  0  0  0  0  0
   -2.0258   -0.6272    2.3758 C   0  0  0  0  0  0  0  0  0  0  0  0
   -1.3998   -1.0979    1.2110 C   0  0  0  0  0  0  0  0  0  0  0  0
   -0.0038   -0.9254    0.6887 C   0  0  0  0  0  3  0  0  0  0  0  0
    1.3909   -1.1089    1.2110 C   0  0  0  0  0  0  0  0  0  0  0  0
    2.0207   -0.6432    2.3758 C   0  0  0  0  0  0  0  0  0  0  0  0
    3.3868   -0.9055    2.5749 C   0  0  0  0  0  0  0  0  0  0  0  0
    4.1340   -1.6190    1.6175 C   0  0  0  0  0  0  0  0  0  0  0  0
    3.5219   -2.1050    0.4517 C   0  0  0  0  0  0  0  0  0  0  0  0
    2.1527   -1.8727    0.2416 C   0  0  0  0  0  0  0  0  0  0  0  0
    1.2414   -2.3400   -0.8197 C   0  0  0  0  0  0  0  0  0  0  0  0
   -0.0072   -1.7969   -0.4831 C   0  0  0  0  0  0  0  0  0  0  0  0
    2.1576   -3.7812   -2.2080 H   0  0  0  0  0  0  0  0  0  0  0  0
   -0.0178   -4.4599   -3.1894 H   0  0  0  0  0  0  0  0  0  0  0  0
   -2.1876   -3.7641   -2.2078 H   0  0  0  0  0  0  0  0  0  0  0  0
   -4.1261   -2.6452   -0.2859 H   0  0  0  0  0  0  0  0  0  0  0  0
   -5.2192   -1.7628    1.7902 H   0  0  0  0  0  0  0  0  0  0  0  0
   -3.8830   -0.5184    3.4929 H   0  0  0  0  0  0  0  0  0  0  0  0
   -1.4539   -0.0657    3.1296 H   0  0  0  0  0  0  0  0  0  0  0  0
    1.4533   -0.0771    3.1296 H   0  0  0  0  0  0  0  0  0  0  0  0
    3.8786   -0.5493    3.4929 H   0  0  0  0  0  0  0  0  0  0  0  0
    5.2049   -1.8044    1.7903 H   0  0  0  0  0  0  0  0  0  0  0  0
    4.1048   -2.6779   -0.2858 H   0  0  0  0  0  0  0  0  0  0  0  0
  1 18  1  0  0  0  0
  2  1  2  0  0  0  0
  2  3  1  0  0  0  0
  3  4  2  0  0  0  0
  4 19  1  0  0  0  0
  4  5  1  0  0  0  0
  5  6  2  0  0  0  0
  5 10  1  0  0  0  0
  6  7  1  0  0  0  0
  7 24  1  0  0  0  0
  7  8  2  0  0  0  0
  8 25  1  0  0  0  0
  9  8  1  0  0  0  0
  9 26  1  0  0  0  0
 10  9  2  0  0  0  0
 11 10  1  0  0  0  0
 11 12  1  0  0  0  0
 12 13  1  0  0  0  0
 13 14  2  0  0  0  0
 13 27  1  0  0  0  0
 14 28  1  0  0  0  0
 15 29  1  0  0  0  0
 15 14  1  0  0  0  0
 16 15  2  0  0  0  0
 17 16  1  0  0  0  0
 17 12  2  0  0  0  0
 18 19  2  0  0  0  0
 18 17  1  0  0  0  0
 19 11  1  0  0  0  0
 20  1  1  0  0  0  0
 21  2  1  0  0  0  0
 22  3  1  0  0  0  0
 23  6  1  0  0  0  0
 30 16  1  0  0  0  0
M  END
