18
q = -1.0

 46 48  0  0  1  0  0  0  0  0999 V2000
   -1.7667    0.0436   -1.6113 S   0  0  0  0  0  0  0  0  0  0  0  0
   -0.3116   -3.2534    0.1173 F   0  0  0  0  0  0  0  0  0  0  0  0
   -2.3648   -2.5304    0.2579 F   0  0  0  0  0  0  0  0  0  0  0  0
   -1.4372   -2.8489   -1.6829 F   0  0  0  0  0  0  0  0  0  0  0  0
    0.6112   -0.4672    2.9535 F   0  0  0  0  0  0  0  0  0  0  0  0
   -0.7837   -1.9841    2.2724 F   0  0  0  0  0  0  0  0  0  0  0  0
   -1.5077    0.0145    2.6653 F   0  0  0  0  0  0  0  0  0  0  0  0
   -4.1659   -1.7671   -2.0690 F   0  0  0  0  0  0  0  0  0  0  0  0
   -6.5656   -1.6976   -0.7981 F   0  0  0  0  0  0  0  0  0  0  0  0
   -7.0185    0.1417    1.1672 F   0  0  0  0  0  0  0  0  0  0  0  0
   -5.0714    1.9344    1.8635 F   0  0  0  0  0  0  0  0  0  0  0  0
   -2.6876    1.9141    0.5705 F   0  0  0  0  0  0  0  0  0  0  0  0
   -1.1943   -2.3941   -0.4236 C   0  0  0  0  0  0  0  0  0  0  0  0
   -0.7087   -0.9419   -0.4677 C   0  0  2  0  0  3  0  0  0  0  0  0
   -0.2251   -0.2161    0.7207 C   0  0  0  0  0  0  0  0  0  0  0  0
   -0.4523   -0.6923    2.1572 C   0  0  0  0  0  0  0  0  0  0  0  0
    0.3923    1.0584    0.5335 C   0  0  0  0  0  0  0  0  0  0  0  0
    0.7674    1.3709   -0.8126 C   0  0  0  0  0  2  0  0  0  0  0  0
    0.7996    2.0100    1.6116 C   0  0  0  0  0  0  0  0  0  0  0  0
   -0.1560    2.6266    2.4462 C   0  0  0  0  0  0  0  0  0  0  0  0
    0.2445    3.5917    3.3812 C   0  0  0  0  0  0  0  0  0  0  0  0
    1.5954    3.9521    3.4986 C   0  0  0  0  0  0  0  0  0  0  0  0
    2.5485    3.3509    2.6618 C   0  0  0  0  0  0  0  0  0  0  0  0
    2.1527    2.3947    1.7181 C   0  0  0  0  0  0  0  0  0  0  0  0
    0.8135    2.6996   -1.4163 C   0  0  0  0  0  0  0  0  0  0  0  0
    2.0344    3.2773   -1.8385 C   0  0  0  0  0  0  0  0  0  0  0  0
    2.0593    4.5573   -2.4073 C   0  0  0  0  0  0  0  0  0  0  0  0
    0.8675    5.2812   -2.5708 C   0  0  0  0  0  0  0  0  0  0  0  0
   -0.3479    4.7263   -2.1364 C   0  0  0  0  0  0  0  0  0  0  0  0
   -0.3779    3.4539   -1.5527 C   0  0  0  0  0  0  0  0  0  0  0  0
   -3.3383    0.0472   -0.7663 C   0  0  0  0  0  0  0  0  0  0  0  0
   -4.3639   -0.8532   -1.1218 C   0  0  0  0  0  0  0  0  0  0  0  0
   -5.6056   -0.8324   -0.4661 C   0  0  0  0  0  0  0  0  0  0  0  0
   -5.8420    0.1157    0.5452 C   0  0  0  0  0  0  0  0  0  0  0  0
   -4.8383    1.0316    0.9085 C   0  0  0  0  0  0  0  0  0  0  0  0
   -3.6091    0.9999    0.2352 C   0  0  0  0  0  0  0  0  0  0  0  0
   -1.2155    2.3609    2.3516 H   0  0  0  0  0  0  0  0  0  0  0  0
   -0.5119    4.0680    4.0233 H   0  0  0  0  0  0  0  0  0  0  0  0
    1.9049    4.7052    4.2390 H   0  0  0  0  0  0  0  0  0  0  0  0
    3.6107    3.6269    2.7418 H   0  0  0  0  0  0  0  0  0  0  0  0
    2.8969    1.9326    1.0558 H   0  0  0  0  0  0  0  0  0  0  0  0
    2.9697    2.7267   -1.6639 H   0  0  0  0  0  0  0  0  0  0  0  0
    3.0201    4.9974   -2.7148 H   0  0  0  0  0  0  0  0  0  0  0  0
    0.8876    6.2847   -3.0220 H   0  0  0  0  0  0  0  0  0  0  0  0
   -1.2833    5.2962   -2.2441 H   0  0  0  0  0  0  0  0  0  0  0  0
   -1.3223    3.0201   -1.1970 H   0  0  0  0  0  0  0  0  0  0  0  0
  1 31  1  0  0  0  0
  4 13  1  0  0  0  0
  8 32  1  0  0  0  0
  9 33  1  0  0  0  0
 13  2  1  0  0  0  0
 13  3  1  0  0  0  0
 14  1  1  1  0  0  0
 14 13  1  0  0  0  0
 14 15  1  0  0  0  0
 15 16  1  0  0  0  0
 16  6  1  0  0  0  0
 16  7  1  0  0  0  0
 16  5  1  0  0  0  0
 17 15  2  0  0  0  0
 17 19  1  0  0  0  0
 18 17  1  0  0  0  0
 19 24  2  0  0  0  0
 19 20  1  0  0  0  0
 20 21  2  0  0  0  0
 21 22  1  0  0  0  0
 21 38  1  0  0  0  0
 22 39  1  0  0  0  0
 23 40  1  0  0  0  0
 23 22  2  0  0  0  0
 24 23  1  0  0  0  0
 25 18  1  0  0  0  0
 26 42  1  0  0  0  0
 26 25  2  0  0  0  0
 27 26  1  0  0  0  0
 28 27  2  0  0  0  0
 28 29  1  0  0  0  0
 29 30  2  0  0  0  0
 30 25  1  0  0  0  0
 30 46  1  0  0  0  0
 31 36  1  0  0  0  0
 32 31  2  0  0  0  0
 32 33  1  0  0  0  0
 33 34  2  0  0  0  0
 34 35  1  0  0  0  0
 34 10  1  0  0  0  0
 35 11  1  0  0  0  0
 36 12  1  0  0  0  0
 36 35  2  0  0  0  0
 37 20  1  0  0  0  0
 41 24  1  0  0  0  0
 43 27  1  0  0  0  0
 44 28  1  0  0  0  0
 45 29  1  0  0  0  0
M  END
