4
q = -1.0, confidence = 0.004

 27 27  0  0  1  0  0  0  0  0999 V2000
   -1.0279   -1.2941   -2.0652 O   0  0  0  0  0  0  0  0  0  0  0  0
   -4.1060   -2.2737    0.6257 O   0  0  0  0  0  0  0  0  0  0  0  0
    3.0589   -1.6644   -0.8134 C   0  0  0  0  0  3  0  0  0  0  0  0
    1.7437   -1.6633   -1.3530 C   0  0  0  0  0  3  0  0  0  0  0  0
    0.6424   -1.9641   -0.4910 C   0  0  0  0  0  3  0  0  0  0  0  0
   -0.7544   -1.7760   -0.9621 C   0  0  0  0  0  0  0  0  0  0  0  0
   -1.8357   -2.2222    0.0062 C   0  0  0  0  0  0  0  0  0  0  0  0
   -3.2086   -1.5995   -0.2528 C   0  0  2  0  0  0  0  0  0  0  0  0
   -3.2174   -0.0950   -0.0150 C   0  0  0  0  0  0  0  0  0  0  0  0
   -3.2759    0.8131   -1.0893 C   0  0  0  0  0  0  0  0  0  0  0  0
   -3.3072    2.1968   -0.8536 C   0  0  0  0  0  0  0  0  0  0  0  0
   -3.2734    2.6883    0.4617 C   0  0  0  0  0  0  0  0  0  0  0  0
   -3.2063    1.7883    1.5397 C   0  0  0  0  0  0  0  0  0  0  0  0
   -3.1818    0.4060    1.3025 C   0  0  0  0  0  0  0  0  0  0  0  0
   -4.9701   -1.8297    0.5409 H   0  0  0  0  0  0  0  0  0  0  0  0
    3.3241   -2.3876   -0.0275 H   0  0  0  0  0  0  0  0  0  0  0  0
    3.8957   -1.3392   -1.4514 H   0  0  0  0  0  0  0  0  0  0  0  0
    1.5247   -1.3302   -2.3806 H   0  0  0  0  0  0  0  0  0  0  0  0
    0.7882   -2.6663    0.3452 H   0  0  0  0  0  0  0  0  0  0  0  0
   -1.5187   -2.0291    1.0521 H   0  0  0  0  0  0  0  0  0  0  0  0
   -1.9366   -3.3281   -0.0773 H   0  0  0  0  0  0  0  0  0  0  0  0
   -3.4668   -1.7811   -1.3222 H   0  0  0  0  0  0  0  0  0  0  0  0
   -3.2881    0.4222   -2.1181 H   0  0  0  0  0  0  0  0  0  0  0  0
   -3.3571    2.8963   -1.7021 H   0  0  0  0  0  0  0  0  0  0  0  0
   -3.2986    3.7728    0.6476 H   0  0  0  0  0  0  0  0  0  0  0  0
   -3.1766    2.1668    2.5730 H   0  0  0  0  0  0  0  0  0  0  0  0
   -3.1478   -0.3037    2.1431 H   0  0  0  0  0  0  0  0  0  0  0  0
  1  6  2  0  0  0  0
  3 16  1  0  0  0  0
  4  3  1  0  0  0  0
  4  5  1  0  0  0  0
  5 19  1  0  0  0  0
  6  5  1  0  0  0  0
  6  7  1  0  0  0  0
  7 20  1  0  0  0  0
  8 22  1  6  0  0  0
  8  9  1  0  0  0  0
  8  7  1  0  0  0  0
  8  2  1  0  0  0  0
  9 14  1  0  0  0  0
 10 11  1  0  0  0  0
 10  9  2  0  0  0  0
 11 12  2  0  0  0  0
 12 25  1  0  0  0  0
 12 13  1  0  0  0  0
 13 26  1  0  0  0  0
 14 13  2  0  0  0  0
 14 27  1  0  0  0  0
 15  2  1  0  0  0  0
 17  3  1  0  0  0  0
 18  4  1  0  0  0  0
 21  7  1  0  0  0  0
 23 10  1  0  0  0  0
 24 11  1  0  0  0  0
M  END
