9
q = -1.0, confidence = 0.0

 28 29  0  0  1  0  0  0  0  0999 V2000
    1.3418    0.6094   -0.9559 C   0  0  0  0  0  3  0  0  0  0  0  0
    0.8011    1.0587   -1.8036 H   0  0  0  0  0  0  0  0  0  0  0  0
    2.4277    1.4899   -0.4743 C   0  0  0  0  0  0  0  0  0  0  0  0
    2.4653    2.8142   -0.9769 C   0  0  0  0  0  0  0  0  0  0  0  0
    3.4488    3.7263   -0.5759 C   0  0  0  0  0  0  0  0  0  0  0  0
    4.4360    3.3416    0.3456 C   0  0  0  0  0  0  0  0  0  0  0  0
    4.4221    2.0314    0.8519 C   0  0  0  0  0  0  0  0  0  0  0  0
    3.4351    1.1210    0.4513 C   0  0  0  0  0  0  0  0  0  0  0  0
    1.2902   -0.8408   -0.9258 C   0  0  1  0  0  3  0  0  0  0  0  0
    0.0369   -1.3385   -1.4678 C   0  0  0  0  0  3  0  0  0  0  0  0
   -0.0392   -2.4306   -1.5922 H   0  0  0  0  0  0  0  0  0  0  0  0
   -0.3840   -0.7680   -2.3139 H   0  0  0  0  0  0  0  0  0  0  0  0
    2.4421   -1.7761   -0.7586 C   0  0  0  0  0  0  0  0  0  0  0  0
    3.6897   -1.4640   -1.3434 C   0  0  0  0  0  0  0  0  0  0  0  0
    4.7643   -2.3633   -1.2751 C   0  0  0  0  0  0  0  0  0  0  0  0
    4.6155   -3.6016   -0.6322 C   0  0  0  0  0  0  0  0  0  0  0  0
    3.3745   -3.9351   -0.0637 C   0  0  0  0  0  0  0  0  0  0  0  0
    2.3049   -3.0325   -0.1267 C   0  0  0  0  0  0  0  0  0  0  0  0
    1.6919    3.1220   -1.6974 H   0  0  0  0  0  0  0  0  0  0  0  0
    3.4454    4.7477   -0.9877 H   0  0  0  0  0  0  0  0  0  0  0  0
    5.2117    4.0543    0.6643 H   0  0  0  0  0  0  0  0  0  0  0  0
    5.1932    1.7100    1.5693 H   0  0  0  0  0  0  0  0  0  0  0  0
    3.4548    0.1020    0.8573 H   0  0  0  0  0  0  0  0  0  0  0  0
    3.8112   -0.5021   -1.8617 H   0  0  0  0  0  0  0  0  0  0  0  0
    5.7273   -2.0927   -1.7351 H   0  0  0  0  0  0  0  0  0  0  0  0
    5.4595   -4.3057   -0.5771 H   0  0  0  0  0  0  0  0  0  0  0  0
    3.2400   -4.9058    0.4382 H   0  0  0  0  0  0  0  0  0  0  0  0
    1.3383   -3.2930    0.3298 H   0  0  0  0  0  0  0  0  0  0  0  0
  1  9  1  0  0  0  0
  1  3  1  0  0  0  0
  2  1  1  0  0  0  0
  3  8  1  0  0  0  0
  4  5  1  0  0  0  0
  4  3  2  0  0  0  0
  5  6  2  0  0  0  0
  6 21  1  0  0  0  0
  6  7  1  0  0  0  0
  7 22  1  0  0  0  0
  8  7  2  0  0  0  0
  8 23  1  0  0  0  0
  9 10  1  6  0  0  0
  9 13  1  0  0  0  0
 11 10  1  0  0  0  0
 12 10  1  0  0  0  0
 13 18  1  0  0  0  0
 14 15  1  0  0  0  0
 14 13  2  0  0  0  0
 15 16  2  0  0  0  0
 16 26  1  0  0  0  0
 16 17  1  0  0  0  0
 17 27  1  0  0  0  0
 18 17  2  0  0  0  0
 18 28  1  0  0  0  0
 19  4  1  0  0  0  0
 20  5  1  0  0  0  0
 24 14  1  0  0  0  0
 25 15  1  0  0  0  0
M  END
