3
q = -1.0, confidence = 0.002

 36 37  0  0  1  0  0  0  0  0999 V2000
   -1.8666    0.4303    0.7167 C   0  0  0  0  0  0  0  0  0  0  0  0
   -1.1368   -0.3047    1.7502 C   0  0  0  0  0  0  0  0  0  0  0  0
   -0.1462    0.5826    2.3035 C   0  0  1  0  0  3  0  0  0  0  0  0
   -0.2556    1.8664    1.6304 C   0  0  0  0  0  0  0  0  0  0  0  0
   -1.4035    1.8157    0.7585 C   0  0  0  0  0  0  0  0  0  0  0  0
   -1.9233    2.7582    0.0222 O   0  0  0  0  0  0  0  0  0  0  0  0
   -1.2253    4.0341   -0.0832 C   0  0  0  0  0  0  0  0  0  0  0  0
    0.7696    0.1836    3.4194 C   0  0  0  0  0  0  0  0  0  0  0  0
    0.8374   -1.3460    3.5394 C   0  0  0  0  0  0  0  0  0  0  0  0
   -0.5711   -1.9550    3.5632 C   0  0  0  0  0  0  0  0  0  0  0  0
   -1.3484   -1.7034    2.2585 C   0  0  0  0  0  0  0  0  0  0  0  0
   -3.0513   -0.0005   -0.0751 C   0  0  0  0  0  0  0  0  0  0  0  0
   -3.8199    0.7500   -0.6359 O   0  0  0  0  0  0  0  0  0  0  0  0
   -3.1711   -1.3589   -0.0782 O   0  0  0  0  0  0  0  0  0  0  0  0
   -4.3332   -1.8798   -0.7827 C   0  0  0  0  0  0  0  0  0  0  0  0
   -1.9567    4.8740   -1.1030 C   0  0  0  0  0  0  0  0  0  0  0  0
   -4.2959   -3.3898   -0.6979 C   0  0  0  0  0  0  0  0  0  0  0  0
    0.3333    2.7624    1.8559 H   0  0  0  0  0  0  0  0  0  0  0  0
   -1.2166    4.5049    0.9240 H   0  0  0  0  0  0  0  0  0  0  0  0
   -0.1845    3.8129   -0.4023 H   0  0  0  0  0  0  0  0  0  0  0  0
    0.3729    0.6214    4.3633 H   0  0  0  0  0  0  0  0  0  0  0  0
    1.7757    0.6305    3.2777 H   0  0  0  0  0  0  0  0  0  0  0  0
    1.3940   -1.6245    4.4556 H   0  0  0  0  0  0  0  0  0  0  0  0
    1.4127   -1.7559    2.6791 H   0  0  0  0  0  0  0  0  0  0  0  0
   -1.1342   -1.5178    4.4162 H   0  0  0  0  0  0  0  0  0  0  0  0
   -0.5204   -3.0449    3.7546 H   0  0  0  0  0  0  0  0  0  0  0  0
   -2.4355   -1.8713    2.3983 H   0  0  0  0  0  0  0  0  0  0  0  0
   -1.0525   -2.4322    1.4746 H   0  0  0  0  0  0  0  0  0  0  0  0
   -5.2423   -1.4526   -0.3119 H   0  0  0  0  0  0  0  0  0  0  0  0
   -1.4593    5.8591   -1.1954 H   0  0  0  0  0  0  0  0  0  0  0  0
   -3.0093    5.0403   -0.8030 H   0  0  0  0  0  0  0  0  0  0  0  0
   -1.9408    4.3784   -2.0925 H   0  0  0  0  0  0  0  0  0  0  0  0
   -5.1837   -3.8127   -1.2074 H   0  0  0  0  0  0  0  0  0  0  0  0
   -4.3089   -3.7365    0.3543 H   0  0  0  0  0  0  0  0  0  0  0  0
   -3.3949   -3.8061   -1.1926 H   0  0  0  0  0  0  0  0  0  0  0  0
   -4.3064   -1.5067   -1.8274 H   0  0  0  0  0  0  0  0  0  0  0  0
  1  5  1  0  0  0  0
  1  2  2  0  0  0  0
  2 11  1  0  0  0  0
  2  3  1  0  0  0  0
  3  4  1  1  0  0  0
  3  8  1  0  0  0  0
  4 18  1  0  0  0  0
  5  4  2  0  0  0  0
  6  5  1  0  0  0  0
  7  6  1  0  0  0  0
  7 19  1  0  0  0  0
  8  9  1  0  0  0  0
  8 21  1  0  0  0  0
  9 10  1  0  0  0  0
  9 23  1  0  0  0  0
 10 26  1  0  0  0  0
 10 25  1  0  0  0  0
 11 27  1  0  0  0  0
 11 10  1  0  0  0  0
 12  1  1  0  0  0  0
 13 12  2  0  0  0  0
 14 12  1  0  0  0  0
 15 17  1  0  0  0  0
 15 29  1  0  0  0  0
 15 14  1  0  0  0  0
 16 31  1  0  0  0  0
 16  7  1  0  0  0  0
 17 34  1  0  0  0  0
 20  7  1  0  0  0  0
 22  8  1  0  0  0  0
 24  9  1  0  0  0  0
 28 11  1  0  0  0  0
 30 16  1  0  0  0  0
 32 16  1  0  0  0  0
 33 17  1  0  0  0  0
 35 17  1  0  0  0  0
 36 15  1  0  0  0  0
M  END
