20
q = 0.0, confidence = 0.998

 46 48  0  0  0  0  0  0  0  0999 V2000
    2.4855   -0.9491   -1.2433 C   0  0  0  0  0  0  0  0  0  0  0  0
   -3.4878    0.0515   -0.0009 C   0  0  0  0  0  0  0  0  0  0  0  0
   -4.8661    0.2939   -0.0011 C   0  0  0  0  0  0  0  0  0  0  0  0
   -3.0651   -1.2900    0.0005 C   0  0  0  0  0  0  0  0  0  0  0  0
    3.8187   -0.4984    1.2146 C   0  0  0  0  0  0  0  0  0  0  0  0
   -5.7594   -0.7884    0.0001 C   0  0  0  0  0  0  0  0  0  0  0  0
   -6.8481   -0.6348    0.0000 H   0  0  0  0  0  0  0  0  0  0  0  0
   -1.2653   -2.9870    0.0018 C   0  0  0  0  0  0  0  0  0  0  0  0
    0.1008   -2.9706    0.0018 C   0  0  0  0  0  0  0  0  0  0  0  0
   -1.6762   -1.6511    0.0008 N   0  0  0  0  0  0  0  0  0  0  0  0
    4.4807   -0.2812    0.0003 C   0  0  0  0  0  0  0  0  0  0  0  0
   -3.9037   -2.3305    0.0015 N   0  0  0  0  0  0  0  0  0  0  0  0
    0.4818   -1.6306    0.0009 N   0  0  0  0  0  0  0  0  0  0  0  0
    3.8192   -0.5010   -1.2137 C   0  0  0  0  0  0  0  0  0  0  0  0
    1.8483   -1.1690    0.0007 C   0  0  0  0  0  0  0  0  0  0  0  0
    2.4850   -0.9465    1.2446 C   0  0  0  0  0  0  0  0  0  0  0  0
   -5.2214   -2.0835    0.0014 C   0  0  0  0  0  0  0  0  0  0  0  0
    1.7600   -1.1227    2.5722 C   0  0  0  0  0  0  0  0  0  0  0  0
    1.7609   -1.1278   -2.5709 C   0  0  0  0  0  0  0  0  0  0  0  0
   -0.5969   -0.7953    0.0002 C   0  0  0  0  0  2  0  0  0  0  0  0
    1.5208    0.2378   -3.2397 C   0  0  0  0  0  0  0  0  0  0  0  0
    0.9357    0.1178   -4.1742 H   0  0  0  0  0  0  0  0  0  0  0  0
    2.4798    0.7314   -3.4998 H   0  0  0  0  0  0  0  0  0  0  0  0
    0.9650    0.9235   -2.5671 H   0  0  0  0  0  0  0  0  0  0  0  0
    2.5003   -2.0990   -3.5054 C   0  0  0  0  0  0  0  0  0  0  0  0
    2.4982   -2.0936    3.5079 C   0  0  0  0  0  0  0  0  0  0  0  0
    2.6496   -3.0830    3.0310 H   0  0  0  0  0  0  0  0  0  0  0  0
    1.9197   -2.2463    4.4415 H   0  0  0  0  0  0  0  0  0  0  0  0
    3.4956   -1.7038    3.7979 H   0  0  0  0  0  0  0  0  0  0  0  0
    1.5213    0.2440    3.2395 C   0  0  0  0  0  0  0  0  0  0  0  0
    0.9664    0.9296    2.5659 H   0  0  0  0  0  0  0  0  0  0  0  0
    2.4808    0.7368    3.4993 H   0  0  0  0  0  0  0  0  0  0  0  0
    0.9358    0.1257    4.1739 H   0  0  0  0  0  0  0  0  0  0  0  0
    5.5222    0.0742    0.0002 H   0  0  0  0  0  0  0  0  0  0  0  0
    0.8351   -3.7808    0.0024 H   0  0  0  0  0  0  0  0  0  0  0  0
    4.3440   -0.3105   -2.1619 H   0  0  0  0  0  0  0  0  0  0  0  0
   -2.0023   -3.7927    0.0023 H   0  0  0  0  0  0  0  0  0  0  0  0
    4.3431   -0.3059    2.1626 H   0  0  0  0  0  0  0  0  0  0  0  0
    0.7661   -1.5689   -2.3578 H   0  0  0  0  0  0  0  0  0  0  0  0
   -2.7608    0.8790   -0.0018 H   0  0  0  0  0  0  0  0  0  0  0  0
   -5.8819   -2.9679    0.0023 H   0  0  0  0  0  0  0  0  0  0  0  0
   -5.2336    1.3309   -0.0021 H   0  0  0  0  0  0  0  0  0  0  0  0
    0.7647   -1.5628    2.3595 H   0  0  0  0  0  0  0  0  0  0  0  0
    3.4972   -1.7084   -3.7960 H   0  0  0  0  0  0  0  0  0  0  0  0
    2.6530   -3.0876   -3.0273 H   0  0  0  0  0  0  0  0  0  0  0  0
    1.9220   -2.2536   -4.4388 H   0  0  0  0  0  0  0  0  0  0  0  0
  1 14  2  0  0  0  0
  1 15  1  0  0  0  0
  2  4  1  0  0  0  0
  3  2  2  0  0  0  0
  3  6  1  0  0  0  0
  4 10  1  0  0  0  0
  4 12  2  0  0  0  0
  5 16  1  0  0  0  0
  5 38  1  0  0  0  0
  6 17  2  0  0  0  0
  7  6  1  0  0  0  0
  8  9  2  0  0  0  0
  8 37  1  0  0  0  0
  9 35  1  0  0  0  0
 10  8  1  0  0  0  0
 11  5  2  0  0  0  0
 13  9  1  0  0  0  0
 14 11  1  0  0  0  0
 15 13  1  0  0  0  0
 15 16  2  0  0  0  0
 16 18  1  0  0  0  0
 17 12  1  0  0  0  0
 17 41  1  0  0  0  0
 18 30  1  0  0  0  0
 18 26  1  0  0  0  0
 19 39  1  0  0  0  0
 19  1  1  0  0  0  0
 20 10  1  0  0  0  0
 20 13  1  0  0  0  0
 21 19  1  0  0  0  0
 21 24  1  0  0  0  0
 22 21  1  0  0  0  0
 23 21  1  0  0  0  0
 25 45  1  0  0  0  0
 25 19  1  0  0  0  0
 26 29  1  0  0  0  0
 26 28  1  0  0  0  0
 27 26  1  0  0  0  0
 30 32  1  0  0  0  0
 30 33  1  0  0  0  0
 31 30  1  0  0  0  0
 34 11  1  0  0  0  0
 36 14  1  0  0  0  0
 40  2  1  0  0  0  0
 42  3  1  0  0  0  0
 43 18  1  0  0  0  0
 44 25  1  0  0  0  0
 46 25  1  0  0  0  0
M  END
