1
q = -1.0

 15 15  0  0  0  0  0  0  0  0999 V2000
    0.1162    0.3495    0.5007 C   0  0  0  0  0  0  0  0  0  0  0  0
   -0.6407    1.3972    0.0966 C   0  0  0  0  0  0  0  0  0  0  0  0
   -2.0528    1.6799    0.3746 C   0  0  0  0  0  0  0  0  0  0  0  0
   -3.1011    0.8916    0.0154 C   0  0  0  0  0  0  0  0  0  0  0  0
   -2.9965   -0.3709   -0.7096 C   0  0  0  0  0  0  0  0  0  0  0  0
   -2.2551   -1.4437   -0.3287 C   0  0  0  0  0  0  0  0  0  0  0  0
   -1.4785   -1.5661    0.8962 C   0  0  0  0  0  0  0  0  0  0  0  0
   -0.4728   -0.7302    1.2805 C   0  0  0  0  0  0  0  0  0  0  0  0
   -0.0907    2.4063   -0.6396 F   0  0  0  0  0  0  0  0  0  0  0  0
   -2.3002    2.8728    0.9420 F   0  0  0  0  0  0  0  0  0  0  0  0
   -4.3589    1.3166    0.2366 F   0  0  0  0  0  0  0  0  0  0  0  0
   -3.7117   -0.4316   -1.8486 F   0  0  0  0  0  0  0  0  0  0  0  0
   -2.2440   -2.5381   -1.1259 F   0  0  0  0  0  0  0  0  0  0  0  0
   -1.7716   -2.6536    1.6432 F   0  0  0  0  0  0  0  0  0  0  0  0
    0.1331   -1.0131    2.4537 F   0  0  0  0  0  0  0  0  0  0  0  0
  1  8  1  0  0  0  0
  2  3  1  0  0  0  0
  2  1  2  0  0  0  0
  3 10  1  0  0  0  0
  4 11  1  0  0  0  0
  4  3  2  0  0  0  0
  5  6  2  0  0  0  0
  5  4  1  0  0  0  0
  6  7  1  0  0  0  0
  7  8  2  0  0  0  0
  7 14  1  0  0  0  0
  8 15  1  0  0  0  0
  9  2  1  0  0  0  0
 12  5  1  0  0  0  0
 13  6  1  0  0  0  0
M  END
