1
q = -1.0

 15 15  0  0  1  0  0  0  0  0999 V2000
    0.4434    0.0343   -0.0822 C   0  0  0  0  0  0  0  0  0  0  0  0
    1.1409    1.1808    0.1208 C   0  0  1  0  0  0  0  0  0  0  0  0
    2.3911    1.6154   -0.5097 C   0  0  0  0  0  0  0  0  0  0  0  0
    3.6220    1.0966   -0.2883 C   0  0  0  0  0  0  0  0  0  0  0  0
    3.8897   -0.0197    0.6132 C   0  0  0  0  0  0  0  0  0  0  0  0
    3.2854   -1.2372    0.5555 C   0  0  0  0  0  0  0  0  0  0  0  0
    2.2994   -1.6703   -0.4252 C   0  0  0  0  0  0  0  0  0  0  0  0
    1.1001   -1.0866   -0.7270 C   0  0  0  0  0  0  0  0  0  0  0  0
    0.5947    2.2115    0.8346 F   0  0  0  0  0  0  0  0  0  0  0  0
    2.2477    2.6645   -1.3546 F   0  0  0  0  0  0  0  0  0  0  0  0
    4.7059    1.6289   -0.8856 F   0  0  0  0  0  0  0  0  0  0  0  0
    4.8448    0.2029    1.5345 F   0  0  0  0  0  0  0  0  0  0  0  0
    3.6778   -2.1963    1.4161 F   0  0  0  0  0  0  0  0  0  0  0  0
    2.6108   -2.8465   -1.0148 F   0  0  0  0  0  0  0  0  0  0  0  0
    0.3679   -1.7483   -1.6634 F   0  0  0  0  0  0  0  0  0  0  0  0
  1  2  1  0  0  0  0
  2  9  1  6  0  0  0
  3  4  2  0  0  0  0
  3  2  1  0  0  0  0
  4  5  1  0  0  0  0
  5 12  1  0  0  0  0
  6  5  2  0  0  0  0
  6 13  1  0  0  0  0
  7  6  1  0  0  0  0
  8  7  2  0  0  0  0
  8  1  1  0  0  0  0
 10  3  1  0  0  0  0
 11  4  1  0  0  0  0
 14  7  1  0  0  0  0
 15  8  1  0  0  0  0
M  END
