4
q = 0.0, confidence = 1.0

 53 56  0  0  1  0  0  0  0  0999 V2000
    1.5944    1.1687   -0.5510 S   0  0  0  0  0  0  0  0  0  0  0  0
    0.1358    0.6180    2.2201 N   0  0  0  0  0  0  0  0  0  0  0  0
   -1.7656   -0.0126    1.3890 N   0  0  0  0  0  0  0  0  0  0  0  0
   -0.4042   -0.1622    1.2352 C   0  0  0  0  0  2  0  0  0  0  0  0
   -0.8307    1.2369    2.9943 C   0  0  0  0  0  0  0  0  0  0  0  0
   -0.5913    1.8740    3.8501 H   0  0  0  0  0  0  0  0  0  0  0  0
   -2.0547    0.8350    2.4898 C   0  0  0  0  0  0  0  0  0  0  0  0
   -3.4111    1.0842    2.8673 C   0  0  0  0  0  0  0  0  0  0  0  0
   -3.6047    1.7151    3.7454 H   0  0  0  0  0  0  0  0  0  0  0  0
   -4.4248    0.5317    2.1328 C   0  0  0  0  0  0  0  0  0  0  0  0
   -5.4745    0.7034    2.4118 H   0  0  0  0  0  0  0  0  0  0  0  0
   -4.1467   -0.2648    0.9579 C   0  0  0  0  0  0  0  0  0  0  0  0
   -5.1855   -0.7841    0.1456 C   0  0  0  0  0  0  0  0  0  0  0  0
   -6.2274   -0.5945    0.4443 H   0  0  0  0  0  0  0  0  0  0  0  0
   -4.9055   -1.5101   -1.0121 C   0  0  0  0  0  0  0  0  0  0  0  0
   -5.7270   -1.9019   -1.6291 H   0  0  0  0  0  0  0  0  0  0  0  0
   -3.5672   -1.7250   -1.3963 C   0  0  0  0  0  0  0  0  0  0  0  0
   -3.3387   -2.2778   -2.3198 H   0  0  0  0  0  0  0  0  0  0  0  0
   -2.5201   -1.2310   -0.6138 C   0  0  0  0  0  0  0  0  0  0  0  0
   -1.4642   -1.3890   -0.9018 H   0  0  0  0  0  0  0  0  0  0  0  0
   -2.7983   -0.5220    0.5675 C   0  0  0  0  0  0  0  0  0  0  0  0
    1.5690    0.8717    2.2733 C   0  0  0  0  0  0  0  0  0  0  0  0
    2.0895   -0.1030    2.2104 H   0  0  0  0  0  0  0  0  0  0  0  0
    1.8065    1.3332    3.2522 H   0  0  0  0  0  0  0  0  0  0  0  0
    2.0508    1.8056    1.1498 C   0  0  1  0  0  0  0  0  0  0  0  0
    1.5079    2.7694    1.2377 H   0  0  0  0  0  0  0  0  0  0  0  0
    3.5713    2.0764    1.2293 C   0  0  0  0  0  0  0  0  0  0  0  0
    3.7566    2.3568    2.2920 H   0  0  0  0  0  0  0  0  0  0  0  0
    4.4245    0.8404    0.9132 C   0  0  0  0  0  0  0  0  0  0  0  0
    4.1717   -0.0338    1.5459 H   0  0  0  0  0  0  0  0  0  0  0  0
    5.4971    1.0640    1.0732 H   0  0  0  0  0  0  0  0  0  0  0  0
    4.3058    0.5402   -0.1485 H   0  0  0  0  0  0  0  0  0  0  0  0
    3.9749    3.2695    0.3563 C   0  0  0  0  0  0  0  0  0  0  0  0
    3.4163    4.1868    0.6314 H   0  0  0  0  0  0  0  0  0  0  0  0
    3.7830    3.0588   -0.7158 H   0  0  0  0  0  0  0  0  0  0  0  0
    5.0550    3.4870    0.4687 H   0  0  0  0  0  0  0  0  0  0  0  0
    0.1249    2.2342   -0.9558 C   0  0  0  0  0  0  0  0  0  0  0  0
   -0.5324    2.2064   -0.0596 H   0  0  0  0  0  0  0  0  0  0  0  0
    0.5330    3.6777   -1.2613 C   0  0  0  0  0  0  0  0  0  0  0  0
    1.0584    4.1353   -0.3977 H   0  0  0  0  0  0  0  0  0  0  0  0
    1.2552    3.6738   -2.1067 H   0  0  0  0  0  0  0  0  0  0  0  0
   -0.7058    4.5110   -1.6314 C   0  0  0  0  0  0  0  0  0  0  0  0
   -1.3739    4.5836   -0.7441 H   0  0  0  0  0  0  0  0  0  0  0  0
   -0.3952    5.5480   -1.8722 H   0  0  0  0  0  0  0  0  0  0  0  0
   -1.4766    3.8884   -2.8017 C   0  0  0  0  0  0  0  0  0  0  0  0
   -0.8478    3.9316   -3.7185 H   0  0  0  0  0  0  0  0  0  0  0  0
   -2.3878    4.4810   -3.0213 H   0  0  0  0  0  0  0  0  0  0  0  0
   -1.8472    2.4286   -2.5126 C   0  0  0  0  0  0  0  0  0  0  0  0
   -2.5763    2.3851   -1.6726 H   0  0  0  0  0  0  0  0  0  0  0  0
   -2.3528    1.9687   -3.3861 H   0  0  0  0  0  0  0  0  0  0  0  0
   -0.6108    1.5979   -2.1394 C   0  0  0  0  0  0  0  0  0  0  0  0
    0.0823    1.5417   -3.0086 H   0  0  0  0  0  0  0  0  0  0  0  0
   -0.9014    0.5563   -1.8886 H   0  0  0  0  0  0  0  0  0  0  0  0
  1 25  1  0  0  0  0
  2 22  1  0  0  0  0
  2  5  1  0  0  0  0
  3  7  1  0  0  0  0
  4  3  1  0  0  0  0
  4  2  1  0  0  0  0
  5  6  1  0  0  0  0
  7  8  1  0  0  0  0
  7  5  2  0  0  0  0
  8  9  1  0  0  0  0
 10 11  1  0  0  0  0
 10  8  2  0  0  0  0
 12 10  1  0  0  0  0
 13 14  1  0  0  0  0
 13 12  2  0  0  0  0
 15 13  1  0  0  0  0
 16 15  1  0  0  0  0
 17 15  2  0  0  0  0
 17 19  1  0  0  0  0
 18 17  1  0  0  0  0
 19 21  2  0  0  0  0
 20 19  1  0  0  0  0
 21 12  1  0  0  0  0
 21  3  1  0  0  0  0
 22 24  1  0  0  0  0
 23 22  1  0  0  0  0
 25 27  1  0  0  0  0
 25 26  1  1  0  0  0
 25 22  1  0  0  0  0
 27 28  1  0  0  0  0
 29 31  1  0  0  0  0
 29 27  1  0  0  0  0
 29 30  1  0  0  0  0
 32 29  1  0  0  0  0
 33 36  1  0  0  0  0
 33 34  1  0  0  0  0
 33 27  1  0  0  0  0
 35 33  1  0  0  0  0
 37  1  1  0  0  0  0
 37 38  1  0  0  0  0
 39 37  1  0  0  0  0
 39 40  1  0  0  0  0
 41 39  1  0  0  0  0
 42 39  1  0  0  0  0
 42 43  1  0  0  0  0
 44 42  1  0  0  0  0
 45 48  1  0  0  0  0
 45 42  1  0  0  0  0
 46 45  1  0  0  0  0
 47 45  1  0  0  0  0
 48 51  1  0  0  0  0
 48 49  1  0  0  0  0
 50 48  1  0  0  0  0
 51 53  1  0  0  0  0
 51 37  1  0  0  0  0
 52 51  1  0  0  0  0
M  END
