3
q = -1.0, confidence = 0.062

 46 46  0  0  0  0  0  0  0  0999 V2000
   -0.8749    0.3949    1.1087 C   0  0  0  0  0  0  0  0  0  0  0  0
   -0.8962   -0.9797    0.6360 C   0  0  0  0  0  0  0  0  0  0  0  0
    0.4588   -1.4564    0.7018 C   0  0  0  0  0  3  0  0  0  0  0  0
    0.7892   -2.4576    0.3918 H   0  0  0  0  0  0  0  0  0  0  0  0
    1.3315   -0.4336    1.1999 C   0  0  0  0  0  0  0  0  0  0  0  0
    0.4880    0.6942    1.4497 C   0  0  0  0  0  0  0  0  0  0  0  0
    0.8372    1.6653    1.8241 H   0  0  0  0  0  0  0  0  0  0  0  0
   -2.2670    1.6633    1.4085 Si  0  0  0  0  0  0  0  0  0  0  0  0
   -3.1251    2.2071   -0.1835 C   0  0  0  0  0  0  0  0  0  0  0  0
   -2.4062    2.7237   -0.8513 H   0  0  0  0  0  0  0  0  0  0  0  0
   -3.5650    1.3636   -0.7470 H   0  0  0  0  0  0  0  0  0  0  0  0
   -3.9364    2.9236    0.0619 H   0  0  0  0  0  0  0  0  0  0  0  0
   -3.4947    0.9131    2.6398 C   0  0  0  0  0  0  0  0  0  0  0  0
   -2.9731    0.6134    3.5716 H   0  0  0  0  0  0  0  0  0  0  0  0
   -4.2720    1.6586    2.9067 H   0  0  0  0  0  0  0  0  0  0  0  0
   -4.0084    0.0188    2.2361 H   0  0  0  0  0  0  0  0  0  0  0  0
   -1.4526    3.1799    2.1912 C   0  0  0  0  0  0  0  0  0  0  0  0
   -0.7019    3.6244    1.5063 H   0  0  0  0  0  0  0  0  0  0  0  0
   -2.2194    3.9546    2.3977 H   0  0  0  0  0  0  0  0  0  0  0  0
   -0.9527    2.9355    3.1504 H   0  0  0  0  0  0  0  0  0  0  0  0
   -2.3161   -2.1936    0.2602 Si  0  0  0  0  0  0  0  0  0  0  0  0
   -2.7144   -3.0181    1.9195 C   0  0  0  0  0  0  0  0  0  0  0  0
   -3.0719   -2.2747    2.6606 H   0  0  0  0  0  0  0  0  0  0  0  0
   -3.5038   -3.7885    1.7975 H   0  0  0  0  0  0  0  0  0  0  0  0
   -1.8148   -3.5105    2.3414 H   0  0  0  0  0  0  0  0  0  0  0  0
   -1.6616   -3.4859   -0.9557 C   0  0  0  0  0  0  0  0  0  0  0  0
   -0.7767   -4.0255   -0.5618 H   0  0  0  0  0  0  0  0  0  0  0  0
   -2.4467   -4.2423   -1.1619 H   0  0  0  0  0  0  0  0  0  0  0  0
   -1.3822   -3.0145   -1.9197 H   0  0  0  0  0  0  0  0  0  0  0  0
   -3.8861   -1.4248   -0.4518 C   0  0  0  0  0  0  0  0  0  0  0  0
   -4.3453   -0.6732    0.2184 H   0  0  0  0  0  0  0  0  0  0  0  0
   -3.6910   -0.9505   -1.4328 H   0  0  0  0  0  0  0  0  0  0  0  0
   -4.6296   -2.2351   -0.6028 H   0  0  0  0  0  0  0  0  0  0  0  0
    3.1892   -0.5493    1.5822 Si  0  0  0  0  0  0  0  0  0  0  0  0
    4.1009    0.8898    0.7656 C   0  0  0  0  0  0  0  0  0  0  0  0
    3.6465    1.8642    1.0383 H   0  0  0  0  0  0  0  0  0  0  0  0
    5.1627    0.9079    1.0870 H   0  0  0  0  0  0  0  0  0  0  0  0
    4.0757    0.7990   -0.3385 H   0  0  0  0  0  0  0  0  0  0  0  0
    3.3476   -0.4199    3.4645 C   0  0  0  0  0  0  0  0  0  0  0  0
    2.9401    0.5437    3.8332 H   0  0  0  0  0  0  0  0  0  0  0  0
    2.7952   -1.2384    3.9690 H   0  0  0  0  0  0  0  0  0  0  0  0
    4.4114   -0.4803    3.7744 H   0  0  0  0  0  0  0  0  0  0  0  0
    3.8318   -2.2149    0.9738 C   0  0  0  0  0  0  0  0  0  0  0  0
    3.7006   -2.3088   -0.1227 H   0  0  0  0  0  0  0  0  0  0  0  0
    4.9123   -2.3211    1.2016 H   0  0  0  0  0  0  0  0  0  0  0  0
    3.2998   -3.0556    1.4645 H   0  0  0  0  0  0  0  0  0  0  0  0
  1  8  1  0  0  0  0
  1  6  1  0  0  0  0
  2  3  1  0  0  0  0
  2  1  2  0  0  0  0
  3  5  1  0  0  0  0
  4  3  1  0  0  0  0
  5  6  2  0  0  0  0
  5 34  1  0  0  0  0
  6  7  1  0  0  0  0
  8 17  1  0  0  0  0
  8 13  1  0  0  0  0
  9 12  1  0  0  0  0
  9  8  1  0  0  0  0
 10  9  1  0  0  0  0
 11  9  1  0  0  0  0
 13 15  1  0  0  0  0
 13 14  1  0  0  0  0
 16 13  1  0  0  0  0
 17 19  1  0  0  0  0
 17 20  1  0  0  0  0
 18 17  1  0  0  0  0
 21  2  1  0  0  0  0
 21 22  1  0  0  0  0
 22 25  1  0  0  0  0
 22 23  1  0  0  0  0
 24 22  1  0  0  0  0
 26 27  1  0  0  0  0
 26 21  1  0  0  0  0
 28 26  1  0  0  0  0
 29 26  1  0  0  0  0
 30 31  1  0  0  0  0
 30 21  1  0  0  0  0
 32 30  1  0  0  0  0
 33 30  1  0  0  0  0
 34 39  1  0  0  0  0
 35 36  1  0  0  0  0
 35 37  1  0  0  0  0
 35 34  1  0  0  0  0
 38 35  1  0  0  0  0
 39 42  1  0  0  0  0
 39 40  1  0  0  0  0
 39 41  1  0  0  0  0
 43 45  1  0  0  0  0
 43 46  1  0  0  0  0
 43 34  1  0  0  0  0
 44 43  1  0  0  0  0
M  END
