5
q = -1.0, confidence = 0.0

 10  9  0  0  0  0  0  0  0  0999 V2000
    0.7244    0.1169    2.2821 S   0  0  0  0  0  0  0  0  0  0  0  0
   -2.3435   -0.0344    1.8582 S   0  0  0  0  0  0  0  0  0  0  0  0
   -1.9202   -0.0404   -1.0752 S   0  0  0  0  0  0  0  0  0  0  0  0
   -4.7322   -0.0811    0.1299 S   0  0  0  0  0  0  0  0  0  0  0  0
   -0.6979    0.0075    1.4082 C   0  0  0  0  0  3  0  0  0  0  0  0
   -2.9926   -0.0509    0.2223 C   0  0  0  0  0  0  0  0  0  0  0  0
   -5.0072   -0.1200   -1.6617 C   0  0  0  0  0  0  0  0  0  0  0  0
   -4.5474   -1.0237   -2.1062 H   0  0  0  0  0  0  0  0  0  0  0  0
   -4.5956    0.7908   -2.1377 H   0  0  0  0  0  0  0  0  0  0  0  0
   -6.1060   -0.1510   -1.7863 H   0  0  0  0  0  0  0  0  0  0  0  0
  3  6  2  0  0  0  0
  4  6  1  0  0  0  0
  5  2  1  0  0  0  0
  5  1  2  0  0  0  0
  6  2  1  0  0  0  0
  7  4  1  0  0  0  0
  8  7  1  0  0  0  0
  9  7  1  0  0  0  0
 10  7  1  0  0  0  0
M  END
