3
q = 0.0, confidence = 0.93

 12 12  0  0  0  0  0  0  0  0999 V2000
   -1.9672    0.2734   -1.3522 C   0  0  0  0  0  3  0  0  0  0  0  0
   -1.0935   -0.8058   -1.6669 C   0  0  0  0  0  3  0  0  0  0  0  0
   -0.8824   -1.7826   -0.6367 C   0  0  0  0  0  3  0  0  0  0  0  0
   -1.4661   -1.4221    0.6174 C   0  0  0  0  0  3  0  0  0  0  0  0
   -2.8257   -0.7561    0.5931 C   0  0  0  0  0  0  0  0  0  0  0  0
   -2.9132    0.2621   -0.4239 O   0  0  0  0  0  0  0  0  0  0  0  0
   -2.0965    1.1096   -2.0582 H   0  0  0  0  0  0  0  0  0  0  0  0
   -0.6546   -0.8777   -2.6721 H   0  0  0  0  0  0  0  0  0  0  0  0
   -0.3256   -2.7124   -0.8147 H   0  0  0  0  0  0  0  0  0  0  0  0
   -1.2876   -2.0748    1.4871 H   0  0  0  0  0  0  0  0  0  0  0  0
   -3.0841   -0.2618    1.5495 H   0  0  0  0  0  0  0  0  0  0  0  0
   -3.6096   -1.5144    0.3746 H   0  0  0  0  0  0  0  0  0  0  0  0
  1  6  1  0  0  0  0
  2  1  1  0  0  0  0
  2  3  1  0  0  0  0
  3  4  1  0  0  0  0
  4 10  1  0  0  0  0
  5  4  1  0  0  0  0
  5 11  1  0  0  0  0
  6  5  1  0  0  0  0
  7  1  1  0  0  0  0
  8  2  1  0  0  0  0
  9  3  1  0  0  0  0
 12  5  1  0  0  0  0
M  END
