7
q = -1.0

 31 31  0  0  1  0  0  0  0  0999 V2000
    0.4741   -3.9343    0.8000 O   0  0  0  0  0  0  0  0  0  0  0  0
   -0.8853   -2.9613    2.3390 O   0  0  0  0  0  0  0  0  0  0  0  0
    3.3082   -2.6470    0.7656 O   0  0  0  0  0  0  0  0  0  0  0  0
    2.8199   -2.4983   -1.4439 O   0  0  0  0  0  0  0  0  0  0  0  0
    0.3963   -1.5188    1.0177 C   0  0  0  0  0  3  0  0  0  0  0  0
    1.4923   -1.2423    0.1123 C   0  0  2  0  0  3  0  0  0  0  0  0
    1.4570    0.0196   -0.5765 C   0  0  0  0  0  2  0  0  0  0  0  0
    2.2499    1.0786   -0.8527 C   0  0  0  0  0  3  0  0  0  0  0  0
    0.0522   -2.9194    1.3381 C   0  0  0  0  0  0  0  0  0  0  0  0
   -1.3313   -4.2711    2.6920 C   0  0  0  0  0  0  0  0  0  0  0  0
    2.6033   -2.2265   -0.1334 C   0  0  0  0  0  0  0  0  0  0  0  0
    3.9643   -3.3213   -1.7015 C   0  0  0  0  0  0  0  0  0  0  0  0
    3.5111    1.4385   -0.1924 C   0  0  0  0  0  0  0  0  0  0  0  0
    4.0343    0.7362    0.9237 C   0  0  0  0  0  0  0  0  0  0  0  0
    5.2340    1.1376    1.5226 C   0  0  0  0  0  0  0  0  0  0  0  0
    5.9427    2.2509    1.0368 C   0  0  0  0  0  0  0  0  0  0  0  0
    5.4330    2.9632   -0.0606 C   0  0  0  0  0  0  0  0  0  0  0  0
    4.2338    2.5629   -0.6638 C   0  0  0  0  0  0  0  0  0  0  0  0
    0.1118   -0.7888    1.7862 H   0  0  0  0  0  0  0  0  0  0  0  0
    1.9011    1.7926   -1.6184 H   0  0  0  0  0  0  0  0  0  0  0  0
   -2.0529   -4.1395    3.5186 H   0  0  0  0  0  0  0  0  0  0  0  0
   -0.4830   -4.9065    3.0178 H   0  0  0  0  0  0  0  0  0  0  0  0
   -1.8205   -4.7737    1.8313 H   0  0  0  0  0  0  0  0  0  0  0  0
    4.0198   -3.4342   -2.7990 H   0  0  0  0  0  0  0  0  0  0  0  0
    3.8523   -4.3109   -1.2145 H   0  0  0  0  0  0  0  0  0  0  0  0
    4.8862   -2.8439   -1.3127 H   0  0  0  0  0  0  0  0  0  0  0  0
    3.4967   -0.1332    1.3277 H   0  0  0  0  0  0  0  0  0  0  0  0
    5.6202    0.5727    2.3851 H   0  0  0  0  0  0  0  0  0  0  0  0
    6.8844    2.5624    1.5138 H   0  0  0  0  0  0  0  0  0  0  0  0
    5.9743    3.8396   -0.4500 H   0  0  0  0  0  0  0  0  0  0  0  0
    3.8367    3.1261   -1.5236 H   0  0  0  0  0  0  0  0  0  0  0  0
  1  9  2  0  0  0  0
  2 10  1  0  0  0  0
  4 11  1  0  0  0  0
  5  9  1  0  0  0  0
  5 19  1  0  0  0  0
  6  7  1  6  0  0  0
  6  5  1  0  0  0  0
  8  7  1  0  0  0  0
  8 13  1  0  0  0  0
  9  2  1  0  0  0  0
 10 22  1  0  0  0  0
 10 21  1  0  0  0  0
 11  6  1  0  0  0  0
 11  3  2  0  0  0  0
 12  4  1  0  0  0  0
 12 26  1  0  0  0  0
 12 25  1  0  0  0  0
 13 14  1  0  0  0  0
 14 27  1  0  0  0  0
 14 15  2  0  0  0  0
 15 28  1  0  0  0  0
 16 29  1  0  0  0  0
 16 15  1  0  0  0  0
 17 16  2  0  0  0  0
 18 13  2  0  0  0  0
 18 17  1  0  0  0  0
 20  8  1  0  0  0  0
 23 10  1  0  0  0  0
 24 12  1  0  0  0  0
 30 17  1  0  0  0  0
 31 18  1  0  0  0  0
M  END
