2
q = -1.0

 24 23  0  0  0  0  0  0  0  0999 V2000
   -1.5216   -0.0693    2.3313 C   0  0  0  0  0  3  0  0  0  0  0  0
   -0.2921   -0.6938    2.0002 C   0  0  0  0  0  3  0  0  0  0  0  0
    0.6835    0.0836    1.3108 C   0  0  0  0  0  3  0  0  0  0  0  0
    1.9384   -0.6167    0.8712 C   0  0  0  0  0  0  0  0  0  0  0  0
    4.1044   -0.5583   -0.2317 C   0  0  0  0  0  0  0  0  0  0  0  0
    2.7142    1.5206   -0.1890 C   0  0  0  0  0  0  0  0  0  0  0  0
    3.9630   -1.1591   -1.6317 C   0  0  0  0  0  0  0  0  0  0  0  0
    3.2684    2.5330    0.8169 C   0  0  0  0  0  0  0  0  0  0  0  0
    2.8933    0.1319    0.2113 N   0  0  0  0  0  0  0  0  0  0  0  0
    2.1054   -1.8217    1.0931 O   0  0  0  0  0  0  0  0  0  0  0  0
   -1.5176    1.0009    2.5972 H   0  0  0  0  0  0  0  0  0  0  0  0
   -2.3265   -0.6633    2.7891 H   0  0  0  0  0  0  0  0  0  0  0  0
   -0.1152   -1.7747    2.1099 H   0  0  0  0  0  0  0  0  0  0  0  0
    0.7325    1.1603    1.5438 H   0  0  0  0  0  0  0  0  0  0  0  0
    4.9489    0.1623   -0.1887 H   0  0  0  0  0  0  0  0  0  0  0  0
    4.3054   -1.3637    0.5007 H   0  0  0  0  0  0  0  0  0  0  0  0
    3.2113    1.6559   -1.1736 H   0  0  0  0  0  0  0  0  0  0  0  0
    1.6374    1.7014   -0.3736 H   0  0  0  0  0  0  0  0  0  0  0  0
    4.8973   -1.6746   -1.9335 H   0  0  0  0  0  0  0  0  0  0  0  0
    3.7471   -0.3806   -2.3930 H   0  0  0  0  0  0  0  0  0  0  0  0
    3.1361   -1.8955   -1.6455 H   0  0  0  0  0  0  0  0  0  0  0  0
    3.1441    3.5709    0.4455 H   0  0  0  0  0  0  0  0  0  0  0  0
    4.3492    2.3653    0.9989 H   0  0  0  0  0  0  0  0  0  0  0  0
    2.7497    2.4501    1.7937 H   0  0  0  0  0  0  0  0  0  0  0  0
  1 11  1  0  0  0  0
  1 12  1  0  0  0  0
  2 13  1  0  0  0  0
  2  1  1  0  0  0  0
  3 14  1  0  0  0  0
  3  2  1  0  0  0  0
  4 10  2  0  0  0  0
  4  3  1  0  0  0  0
  5 15  1  0  0  0  0
  5  9  1  0  0  0  0
  5 16  1  0  0  0  0
  6  9  1  0  0  0  0
  6  8  1  0  0  0  0
  7  5  1  0  0  0  0
  8 23  1  0  0  0  0
  8 24  1  0  0  0  0
  9  4  1  0  0  0  0
 17  6  1  0  0  0  0
 18  6  1  0  0  0  0
 19  7  1  0  0  0  0
 20  7  1  0  0  0  0
 21  7  1  0  0  0  0
 22  8  1  0  0  0  0
M  END
