4
q = -1.0

 31 32  0  0  0  0  0  0  0  0999 V2000
    1.0063    4.3453    0.7201 O   0  0  0  0  0  0  0  0  0  0  0  0
    0.3776    3.6072    1.0837 H   0  0  0  0  0  0  0  0  0  0  0  0
   -0.2476    2.1689    1.0188 N   0  0  0  0  0  2  0  0  0  0  0  0
    0.3241    1.6450   -0.0234 C   0  0  0  0  0  2  0  0  0  0  0  0
    1.2145    2.4904   -0.8286 C   0  0  0  0  0  0  0  0  0  0  0  0
    1.5310    3.8257   -0.3880 C   0  0  0  0  0  0  0  0  0  0  0  0
    2.4398    4.6025   -1.1480 C   0  0  0  0  0  0  0  0  0  0  0  0
    2.6795    5.6109   -0.7805 H   0  0  0  0  0  0  0  0  0  0  0  0
    2.9947    4.1003   -2.3259 C   0  0  0  0  0  0  0  0  0  0  0  0
    3.6934    4.7264   -2.9025 H   0  0  0  0  0  0  0  0  0  0  0  0
    2.6637    2.8083   -2.7870 C   0  0  0  0  0  0  0  0  0  0  0  0
    3.0897    2.4231   -3.7245 H   0  0  0  0  0  0  0  0  0  0  0  0
    1.7848    2.0247   -2.0376 C   0  0  0  0  0  0  0  0  0  0  0  0
    1.5113    1.0129   -2.3776 H   0  0  0  0  0  0  0  0  0  0  0  0
   -1.1826    1.5490    1.8686 C   0  0  0  0  0  0  0  0  0  0  0  0
   -0.7981    0.5929    2.8443 C   0  0  0  0  0  0  0  0  0  0  0  0
   -1.8006    0.0596    3.6783 C   0  0  0  0  0  0  0  0  0  0  0  0
   -1.5133   -0.6820    4.4404 H   0  0  0  0  0  0  0  0  0  0  0  0
   -3.1393    0.4536    3.5576 C   0  0  0  0  0  0  0  0  0  0  0  0
   -3.9045    0.0187    4.2180 H   0  0  0  0  0  0  0  0  0  0  0  0
   -3.4986    1.4169    2.6024 C   0  0  0  0  0  0  0  0  0  0  0  0
   -4.5474    1.7389    2.5074 H   0  0  0  0  0  0  0  0  0  0  0  0
   -2.5316    1.9901    1.7612 C   0  0  0  0  0  0  0  0  0  0  0  0
    0.6354    0.1555    3.0056 C   0  0  0  0  0  0  0  0  0  0  0  0
    0.8519   -0.1015    4.0610 H   0  0  0  0  0  0  0  0  0  0  0  0
    1.3438    0.9422    2.6806 H   0  0  0  0  0  0  0  0  0  0  0  0
    0.8479   -0.7470    2.3940 H   0  0  0  0  0  0  0  0  0  0  0  0
   -2.8887    3.0449    0.7482 C   0  0  0  0  0  0  0  0  0  0  0  0
   -2.2617    3.9515    0.8765 H   0  0  0  0  0  0  0  0  0  0  0  0
   -3.9544    3.3332    0.8237 H   0  0  0  0  0  0  0  0  0  0  0  0
   -2.6948    2.6941   -0.2870 H   0  0  0  0  0  0  0  0  0  0  0  0
  1  2  1  0  0  0  0
  3 15  1  0  0  0  0
  4  3  1  0  0  0  0
  5  6  1  0  0  0  0
  5  4  1  0  0  0  0
  6  1  1  0  0  0  0
  7  8  1  0  0  0  0
  7  6  2  0  0  0  0
  9  7  1  0  0  0  0
 10  9  1  0  0  0  0
 11  9  2  0  0  0  0
 11 13  1  0  0  0  0
 12 11  1  0  0  0  0
 13  5  2  0  0  0  0
 14 13  1  0  0  0  0
 15 16  1  0  0  0  0
 16 24  1  0  0  0  0
 16 17  2  0  0  0  0
 17 18  1  0  0  0  0
 19 17  1  0  0  0  0
 19 20  1  0  0  0  0
 21 19  2  0  0  0  0
 22 21  1  0  0  0  0
 23 15  2  0  0  0  0
 23 21  1  0  0  0  0
 24 25  1  0  0  0  0
 26 24  1  0  0  0  0
 27 24  1  0  0  0  0
 28 30  1  0  0  0  0
 28 29  1  0  0  0  0
 28 23  1  0  0  0  0
 31 28  1  0  0  0  0
M  END
