7
q = 0.0, confidence = 0.602

 48 47  0  0  0  0  0  0  0  0999 V2000
    0.6273   -0.1564    0.8026 Si  0  0  0  0  0  3  0  0  0  0  0  0
    0.4703    0.8130    1.9449 H   0  0  0  0  0  0  0  0  0  0  0  0
    2.5902    2.0567    0.0307 Si  0  0  0  0  0  0  0  0  0  0  0  0
    2.4536   -0.5756   -1.7669 Si  0  0  0  0  0  0  0  0  0  0  0  0
    3.5884   -0.7269    1.1987 Si  0  0  0  0  0  0  0  0  0  0  0  0
    0.4146   -1.8467    1.3728 N   0  0  0  0  0  2  0  0  0  0  0  0
   -0.7270   -2.0323    0.7853 C   0  0  0  0  0  2  0  0  0  0  0  0
   -1.3672   -3.3989    0.7609 C   0  0  0  0  0  0  0  0  0  0  0  0
   -1.3051   -3.8003   -0.2732 H   0  0  0  0  0  0  0  0  0  0  0  0
   -2.4434   -3.3637    1.0141 H   0  0  0  0  0  0  0  0  0  0  0  0
   -0.8344   -4.0875    1.4476 H   0  0  0  0  0  0  0  0  0  0  0  0
    2.3267    0.1484    0.0146 C   0  0  0  0  0  0  0  0  0  0  0  0
    1.0243    2.9886   -0.5147 C   0  0  0  0  0  0  0  0  0  0  0  0
    0.2147    2.8649    0.2322 H   0  0  0  0  0  0  0  0  0  0  0  0
    0.6332    2.6672   -1.4983 H   0  0  0  0  0  0  0  0  0  0  0  0
    1.2582    4.0723   -0.5733 H   0  0  0  0  0  0  0  0  0  0  0  0
    4.0021    2.6345   -1.0984 C   0  0  0  0  0  0  0  0  0  0  0  0
    3.7949    2.4407   -2.1690 H   0  0  0  0  0  0  0  0  0  0  0  0
    4.9677    2.1580   -0.8417 H   0  0  0  0  0  0  0  0  0  0  0  0
    4.1202    3.7312   -0.9735 H   0  0  0  0  0  0  0  0  0  0  0  0
    2.9542    2.7439    1.7657 C   0  0  0  0  0  0  0  0  0  0  0  0
    3.0255    3.8493    1.6898 H   0  0  0  0  0  0  0  0  0  0  0  0
    3.9036    2.3757    2.1997 H   0  0  0  0  0  0  0  0  0  0  0  0
    2.1364    2.5070    2.4748 H   0  0  0  0  0  0  0  0  0  0  0  0
    4.2485   -0.6674   -2.3861 C   0  0  0  0  0  0  0  0  0  0  0  0
    4.8583   -1.3707   -1.7850 H   0  0  0  0  0  0  0  0  0  0  0  0
    4.7602    0.3132   -2.3968 H   0  0  0  0  0  0  0  0  0  0  0  0
    4.2309   -1.0534   -3.4272 H   0  0  0  0  0  0  0  0  0  0  0  0
    1.5058    0.4931   -3.0214 C   0  0  0  0  0  0  0  0  0  0  0  0
    1.5380   -0.0146   -4.0077 H   0  0  0  0  0  0  0  0  0  0  0  0
    1.9534    1.4989   -3.1465 H   0  0  0  0  0  0  0  0  0  0  0  0
    0.4408    0.6181   -2.7452 H   0  0  0  0  0  0  0  0  0  0  0  0
    1.7801   -2.3488   -1.8897 C   0  0  0  0  0  0  0  0  0  0  0  0
    0.9789   -2.5633   -1.1596 H   0  0  0  0  0  0  0  0  0  0  0  0
    2.5877   -3.0859   -1.7172 H   0  0  0  0  0  0  0  0  0  0  0  0
    1.3685   -2.5168   -2.9050 H   0  0  0  0  0  0  0  0  0  0  0  0
    5.3385   -0.0048    1.0193 C   0  0  0  0  0  0  0  0  0  0  0  0
    6.0196   -0.5874    1.6744 H   0  0  0  0  0  0  0  0  0  0  0  0
    5.4087    1.0565    1.3275 H   0  0  0  0  0  0  0  0  0  0  0  0
    5.7174   -0.0874   -0.0178 H   0  0  0  0  0  0  0  0  0  0  0  0
    3.7094   -2.5886    0.8770 C   0  0  0  0  0  0  0  0  0  0  0  0
    4.1499   -2.8453   -0.1056 H   0  0  0  0  0  0  0  0  0  0  0  0
    2.7018   -3.0423    0.9567 H   0  0  0  0  0  0  0  0  0  0  0  0
    4.3549   -3.0331    1.6634 H   0  0  0  0  0  0  0  0  0  0  0  0
    3.0660   -0.5688    3.0174 C   0  0  0  0  0  0  0  0  0  0  0  0
    2.1405   -1.1521    3.1983 H   0  0  0  0  0  0  0  0  0  0  0  0
    2.9033    0.4733    3.3491 H   0  0  0  0  0  0  0  0  0  0  0  0
    3.8687   -1.0071    3.6471 H   0  0  0  0  0  0  0  0  0  0  0  0
  1  6  1  0  0  0  0
  1  2  1  0  0  0  0
  3 21  1  0  0  0  0
  4 12  1  0  0  0  0
  5 45  1  0  0  0  0
  7  6  1  0  0  0  0
  8  7  1  0  0  0  0
  8 10  1  0  0  0  0
  8 11  1  0  0  0  0
  9  8  1  0  0  0  0
 12  3  1  0  0  0  0
 12  1  1  0  0  0  0
 12  5  1  0  0  0  0
 13  3  1  0  0  0  0
 13 14  1  0  0  0  0
 15 13  1  0  0  0  0
 16 13  1  0  0  0  0
 17 20  1  0  0  0  0
 17 19  1  0  0  0  0
 17  3  1  0  0  0  0
 18 17  1  0  0  0  0
 21 23  1  0  0  0  0
 21 24  1  0  0  0  0
 22 21  1  0  0  0  0
 25 26  1  0  0  0  0
 25  4  1  0  0  0  0
 27 25  1  0  0  0  0
 28 25  1  0  0  0  0
 29 32  1  0  0  0  0
 29  4  1  0  0  0  0
 30 29  1  0  0  0  0
 31 29  1  0  0  0  0
 33  4  1  0  0  0  0
 33 35  1  0  0  0  0
 33 34  1  0  0  0  0
 36 33  1  0  0  0  0
 37  5  1  0  0  0  0
 37 39  1  0  0  0  0
 37 38  1  0  0  0  0
 40 37  1  0  0  0  0
 41 43  1  0  0  0  0
 41  5  1  0  0  0  0
 41 44  1  0  0  0  0
 42 41  1  0  0  0  0
 45 46  1  0  0  0  0
 45 47  1  0  0  0  0
 45 48  1  0  0  0  0
M  END
