2
q = -1.0

 13 13  0  0  0  0  0  0  0  0999 V2000
   -3.4141   -1.1218   -0.1306 N   0  0  0  0  0  0  0  0  0  0  0  0
   -0.2540    0.0652   -1.8407 C   0  0  0  0  0  3  0  0  0  0  0  0
   -0.1266   -0.8420   -2.4505 H   0  0  0  0  0  0  0  0  0  0  0  0
   -0.0602    0.9871   -2.4097 H   0  0  0  0  0  0  0  0  0  0  0  0
   -1.5261    0.0941   -1.0981 C   0  0  0  0  0  0  0  0  0  0  0  0
   -2.1038    1.3002   -0.6171 C   0  0  0  0  0  0  0  0  0  0  0  0
   -1.5845    2.2525   -0.7972 H   0  0  0  0  0  0  0  0  0  0  0  0
   -3.3089    1.2774    0.0881 C   0  0  0  0  0  0  0  0  0  0  0  0
   -3.7747    2.1963    0.4713 H   0  0  0  0  0  0  0  0  0  0  0  0
   -3.9142    0.0253    0.2934 C   0  0  0  0  0  0  0  0  0  0  0  0
   -5.4565   -0.0336    1.1715 Cl  0  0  0  0  0  0  0  0  0  0  0  0
   -2.2521   -1.0915   -0.8021 C   0  0  0  0  0  0  0  0  0  0  0  0
   -1.8478   -2.0635   -1.1310 H   0  0  0  0  0  0  0  0  0  0  0  0
  1 10  1  0  0  0  0
  2  5  1  0  0  0  0
  3  2  1  0  0  0  0
  4  2  1  0  0  0  0
  5 12  1  0  0  0  0
  5  6  2  0  0  0  0
  6  8  1  0  0  0  0
  7  6  1  0  0  0  0
  8 10  2  0  0  0  0
  8  9  1  0  0  0  0
 10 11  1  0  0  0  0
 12  1  2  0  0  0  0
 13 12  1  0  0  0  0
M  END
