9
q = -2.0, confidence = 0.718

 65 70  0  0  1  0  0  0  0  0999 V2000
    0.0116    3.6005    0.5236 Si  0  0  0  0  0  0  0  0  0  0  0  0
   -1.8392    0.8282    2.4802 S   0  0  0  0  0  0  0  0  0  0  0  0
    1.8217    0.8120    2.4859 S   0  0  0  0  0  0  0  0  0  0  0  0
   -2.7688   -0.6254    2.0900 C   0  0  0  0  0  0  0  0  0  0  0  0
   -3.0723   -0.7420    0.7412 C   0  0  0  0  0  0  0  0  0  0  0  0
   -2.5030    0.8617   -1.3427 C   0  0  0  0  0  0  0  0  0  0  0  0
   -2.9417    0.3803   -2.2238 H   0  0  0  0  0  0  0  0  0  0  0  0
   -1.8419    2.1305   -1.3429 C   0  0  0  0  0  0  0  0  0  0  0  0
   -1.3893    2.4405    0.0033 C   0  0  1  0  0  3  0  0  0  0  0  0
   -2.5255    0.3667   -0.0075 C   0  0  0  0  0  0  0  0  0  0  0  0
   -1.8129    1.3159    0.7985 C   0  0  0  0  0  0  0  0  0  0  0  0
   -3.0476   -1.5882    3.2016 C   0  0  0  0  0  0  0  0  0  0  0  0
   -2.1773   -1.6700    3.8835 H   0  0  0  0  0  0  0  0  0  0  0  0
   -3.9208   -1.2802    3.8159 H   0  0  0  0  0  0  0  0  0  0  0  0
   -3.2599   -2.5933    2.7897 H   0  0  0  0  0  0  0  0  0  0  0  0
   -3.7950   -1.8656    0.1135 C   0  0  0  0  0  0  0  0  0  0  0  0
   -4.9704   -2.4038    0.6858 C   0  0  0  0  0  0  0  0  0  0  0  0
   -5.3772   -1.9554    1.6041 H   0  0  0  0  0  0  0  0  0  0  0  0
   -5.6408   -3.4738    0.0761 C   0  0  0  0  0  0  0  0  0  0  0  0
   -6.5578   -3.8748    0.5347 H   0  0  0  0  0  0  0  0  0  0  0  0
   -5.1542   -4.0228   -1.1205 C   0  0  0  0  0  0  0  0  0  0  0  0
   -5.6818   -4.8614   -1.6000 H   0  0  0  0  0  0  0  0  0  0  0  0
   -3.9926   -3.4912   -1.7042 C   0  0  0  0  0  0  0  0  0  0  0  0
   -3.6003   -3.9170   -2.6404 H   0  0  0  0  0  0  0  0  0  0  0  0
   -3.3188   -2.4234   -1.0972 C   0  0  0  0  0  0  0  0  0  0  0  0
   -2.3927   -2.0343   -1.5449 H   0  0  0  0  0  0  0  0  0  0  0  0
   -1.7419    3.0045   -2.5619 C   0  0  0  0  0  0  0  0  0  0  0  0
   -0.8092    3.5937   -2.5961 H   0  0  0  0  0  0  0  0  0  0  0  0
   -1.7838    2.3935   -3.4833 H   0  0  0  0  0  0  0  0  0  0  0  0
   -2.5866    3.7253   -2.5842 H   0  0  0  0  0  0  0  0  0  0  0  0
   -0.0082    5.2943   -0.3026 C   0  0  0  0  0  0  0  0  0  0  0  0
   -0.1530    5.2628   -1.3980 H   0  0  0  0  0  0  0  0  0  0  0  0
   -0.8370    5.8935    0.1275 H   0  0  0  0  0  0  0  0  0  0  0  0
    0.9424    5.8264   -0.0936 H   0  0  0  0  0  0  0  0  0  0  0  0
    2.7428   -0.6477    2.1005 C   0  0  0  0  0  0  0  0  0  0  0  0
    3.0552   -0.7650    0.7537 C   0  0  0  0  0  0  0  0  0  0  0  0
    2.5200    0.8478   -1.3315 C   0  0  0  0  0  0  0  0  0  0  0  0
    2.9685    0.3659   -2.2074 H   0  0  0  0  0  0  0  0  0  0  0  0
    1.8844    2.1302   -1.3313 C   0  0  0  0  0  0  0  0  0  0  0  0
    1.4164    2.4394    0.0081 C   0  0  0  0  0  0  0  0  0  0  0  0
    2.5229    0.3492    0.0026 C   0  0  2  0  0  3  0  0  0  0  0  0
    1.8115    1.3033    0.8043 C   0  0  0  0  0  0  0  0  0  0  0  0
    1.8329    3.0200   -2.5429 C   0  0  0  0  0  0  0  0  0  0  0  0
    1.2476    3.9382   -2.3612 H   0  0  0  0  0  0  0  0  0  0  0  0
    2.8613    3.3404   -2.8112 H   0  0  0  0  0  0  0  0  0  0  0  0
    1.4092    2.4922   -3.4204 H   0  0  0  0  0  0  0  0  0  0  0  0
    3.7735   -1.8930    0.1292 C   0  0  0  0  0  0  0  0  0  0  0  0
    3.3031   -2.4431   -1.0873 C   0  0  0  0  0  0  0  0  0  0  0  0
    2.3844   -2.0447   -1.5421 H   0  0  0  0  0  0  0  0  0  0  0  0
    3.9730   -3.5147   -1.6919 C   0  0  0  0  0  0  0  0  0  0  0  0
    3.5852   -3.9343   -2.6327 H   0  0  0  0  0  0  0  0  0  0  0  0
    5.1251   -4.0579   -1.0999 C   0  0  0  0  0  0  0  0  0  0  0  0
    5.6497   -4.8993   -1.5775 H   0  0  0  0  0  0  0  0  0  0  0  0
    5.6060   -3.5166    0.1026 C   0  0  0  0  0  0  0  0  0  0  0  0
    6.5157   -3.9266    0.5676 H   0  0  0  0  0  0  0  0  0  0  0  0
    4.9394   -2.4429    0.7098 C   0  0  0  0  0  0  0  0  0  0  0  0
    5.3422   -2.0006    1.6329 H   0  0  0  0  0  0  0  0  0  0  0  0
    3.0052   -1.6147    3.2124 C   0  0  0  0  0  0  0  0  0  0  0  0
    2.1300   -1.6886    3.8889 H   0  0  0  0  0  0  0  0  0  0  0  0
    3.2098   -2.6214    2.8004 H   0  0  0  0  0  0  0  0  0  0  0  0
    3.8778   -1.3164    3.8323 H   0  0  0  0  0  0  0  0  0  0  0  0
    0.0152    3.8321    2.3928 C   0  0  0  0  0  0  0  0  0  0  0  0
    0.0242    2.8713    2.9443 H   0  0  0  0  0  0  0  0  0  0  0  0
    0.9102    4.4088    2.7040 H   0  0  0  0  0  0  0  0  0  0  0  0
   -0.8871    4.3947    2.7084 H   0  0  0  0  0  0  0  0  0  0  0  0
  1 62  1  0  0  0  0
  4  2  1  0  0  0  0
  4 12  1  0  0  0  0
  5  4  2  0  0  0  0
  6 10  1  0  0  0  0
  7  6  1  0  0  0  0
  8  6  2  0  0  0  0
  8  9  1  0  0  0  0
  9  1  1  6  0  0  0
  9 11  1  0  0  0  0
 10  5  1  0  0  0  0
 10 11  2  0  0  0  0
 11  2  1  0  0  0  0
 12 14  1  0  0  0  0
 12 13  1  0  0  0  0
 15 12  1  0  0  0  0
 16 17  1  0  0  0  0
 16  5  1  0  0  0  0
 17 18  1  0  0  0  0
 19 20  1  0  0  0  0
 19 17  2  0  0  0  0
 21 19  1  0  0  0  0
 22 21  1  0  0  0  0
 23 21  2  0  0  0  0
 23 25  1  0  0  0  0
 24 23  1  0  0  0  0
 25 16  2  0  0  0  0
 26 25  1  0  0  0  0
 27  8  1  0  0  0  0
 28 27  1  0  0  0  0
 29 27  1  0  0  0  0
 30 27  1  0  0  0  0
 31 34  1  0  0  0  0
 31 33  1  0  0  0  0
 31  1  1  0  0  0  0
 32 31  1  0  0  0  0
 35  3  1  0  0  0  0
 35 58  1  0  0  0  0
 36 35  2  0  0  0  0
 37 39  2  0  0  0  0
 38 37  1  0  0  0  0
 39 40  1  0  0  0  0
 40  1  1  0  0  0  0
 40 42  2  0  0  0  0
 41 37  1  1  0  0  0
 41 36  1  0  0  0  0
 41 42  1  0  0  0  0
 42  3  1  0  0  0  0
 43 44  1  0  0  0  0
 43 39  1  0  0  0  0
 45 43  1  0  0  0  0
 46 43  1  0  0  0  0
 47 56  1  0  0  0  0
 47 36  1  0  0  0  0
 48 47  2  0  0  0  0
 49 48  1  0  0  0  0
 50 52  2  0  0  0  0
 50 48  1  0  0  0  0
 51 50  1  0  0  0  0
 52 54  1  0  0  0  0
 53 52  1  0  0  0  0
 54 55  1  0  0  0  0
 54 56  2  0  0  0  0
 56 57  1  0  0  0  0
 58 61  1  0  0  0  0
 58 59  1  0  0  0  0
 60 58  1  0  0  0  0
 62 64  1  0  0  0  0
 62 65  1  0  0  0  0
 62 63  1  0  0  0  0
M  END
