6
q = 0.0, confidence = 0.99

 43 43  0  0  1  0  0  0  0  0999 V2000
   -5.3692   -0.0824    0.0000 N   0  3  0  0  0  0  0  0  0  0  0  0
    0.3970    0.8472    1.1729 C   0  0  0  0  0  0  0  0  0  0  0  0
    1.4568    1.7119    0.7284 C   0  0  0  0  0  0  0  0  0  0  0  0
    1.4568    1.7122   -0.7276 C   0  0  0  0  0  0  0  0  0  0  0  0
    0.3971    0.8477   -1.1727 C   0  0  0  0  0  0  0  0  0  0  0  0
   -0.2543    0.2935    0.0000 C   0  0  2  0  0  3  0  0  0  0  0  0
   -0.0240    0.6288    2.5967 C   0  0  0  0  0  0  0  0  0  0  0  0
    2.3334    2.5627    1.5980 C   0  0  0  0  0  0  0  0  0  0  0  0
    2.3336    2.5632   -1.5968 C   0  0  0  0  0  0  0  0  0  0  0  0
   -0.0239    0.6301   -2.5965 C   0  0  0  0  0  0  0  0  0  0  0  0
   -1.4706   -0.5882   -0.0002 C   0  0  0  0  0  0  0  0  0  0  0  0
   -2.7878    0.2234    0.0001 C   0  0  0  0  0  0  0  0  0  0  0  0
   -3.9770   -0.7244   -0.0002 C   0  0  0  0  0  0  0  0  0  0  0  0
   -6.3916   -1.1870   -0.0001 C   0  0  0  0  0  0  0  0  0  0  0  0
   -5.5636    0.7633   -1.2278 C   0  0  0  0  0  0  0  0  0  0  0  0
   -5.5635    0.7629    1.2282 C   0  0  0  0  0  0  0  0  0  0  0  0
    0.8326    0.7096    3.2921 H   0  0  0  0  0  0  0  0  0  0  0  0
   -0.4735   -0.3717    2.7478 H   0  0  0  0  0  0  0  0  0  0  0  0
   -0.7706    1.3913    2.9083 H   0  0  0  0  0  0  0  0  0  0  0  0
    2.4619    2.1233    2.6051 H   0  0  0  0  0  0  0  0  0  0  0  0
    1.8958    3.5760    1.7262 H   0  0  0  0  0  0  0  0  0  0  0  0
    3.3414    2.6923    1.1602 H   0  0  0  0  0  0  0  0  0  0  0  0
    2.4628    2.1239   -2.6038 H   0  0  0  0  0  0  0  0  0  0  0  0
    3.3413    2.6932   -1.1585 H   0  0  0  0  0  0  0  0  0  0  0  0
    1.8957    3.5764   -1.7252 H   0  0  0  0  0  0  0  0  0  0  0  0
   -0.4730   -0.3705   -2.7483 H   0  0  0  0  0  0  0  0  0  0  0  0
    0.8326    0.7118   -3.2919 H   0  0  0  0  0  0  0  0  0  0  0  0
   -0.7709    1.3925   -2.9076 H   0  0  0  0  0  0  0  0  0  0  0  0
   -1.4499   -1.2555   -0.8868 H   0  0  0  0  0  0  0  0  0  0  0  0
   -1.4499   -1.2562    0.8859 H   0  0  0  0  0  0  0  0  0  0  0  0
   -2.7967    0.8804    0.8941 H   0  0  0  0  0  0  0  0  0  0  0  0
   -2.7968    0.8811   -0.8934 H   0  0  0  0  0  0  0  0  0  0  0  0
   -3.9552   -1.3801   -0.8938 H   0  0  0  0  0  0  0  0  0  0  0  0
   -3.9551   -1.3807    0.8930 H   0  0  0  0  0  0  0  0  0  0  0  0
   -6.2512   -1.8065    0.9035 H   0  0  0  0  0  0  0  0  0  0  0  0
   -6.2511   -1.8063   -0.9039 H   0  0  0  0  0  0  0  0  0  0  0  0
   -7.4035   -0.7436   -0.0001 H   0  0  0  0  0  0  0  0  0  0  0  0
   -5.3953    0.1392   -2.1238 H   0  0  0  0  0  0  0  0  0  0  0  0
   -6.5965    1.1550   -1.2308 H   0  0  0  0  0  0  0  0  0  0  0  0
   -4.8471    1.6019   -1.2128 H   0  0  0  0  0  0  0  0  0  0  0  0
   -4.8472    1.6016    1.2133 H   0  0  0  0  0  0  0  0  0  0  0  0
   -5.3947    0.1385    2.1240 H   0  0  0  0  0  0  0  0  0  0  0  0
   -6.5965    1.1543    1.2316 H   0  0  0  0  0  0  0  0  0  0  0  0
  1 16  1  0  0  0  0
  2  7  1  0  0  0  0
  3  2  2  0  0  0  0
  3  8  1  0  0  0  0
  4  3  1  0  0  0  0
  5  4  2  0  0  0  0
  5  6  1  0  0  0  0
  6 11  1  1  0  0  0
  6  2  1  0  0  0  0
  7 18  1  0  0  0  0
  7 19  1  0  0  0  0
  7 17  1  0  0  0  0
  8 21  1  0  0  0  0
  8 20  1  0  0  0  0
  9 24  1  0  0  0  0
  9  4  1  0  0  0  0
 10  5  1  0  0  0  0
 11 12  1  0  0  0  0
 11 30  1  0  0  0  0
 12 31  1  0  0  0  0
 13  1  1  0  0  0  0
 13 12  1  0  0  0  0
 13 34  1  0  0  0  0
 14  1  1  0  0  0  0
 14 35  1  0  0  0  0
 15 40  1  0  0  0  0
 15  1  1  0  0  0  0
 16 43  1  0  0  0  0
 16 42  1  0  0  0  0
 22  8  1  0  0  0  0
 23  9  1  0  0  0  0
 25  9  1  0  0  0  0
 26 10  1  0  0  0  0
 27 10  1  0  0  0  0
 28 10  1  0  0  0  0
 29 11  1  0  0  0  0
 32 12  1  0  0  0  0
 33 13  1  0  0  0  0
 36 14  1  0  0  0  0
 37 14  1  0  0  0  0
 38 15  1  0  0  0  0
 39 15  1  0  0  0  0
 41 16  1  0  0  0  0
M  CHG  1   1   1
M  END
