3
q = -1.0, confidence = 0.01

 28 29  0  0  0  0  0  0  0  0999 V2000
   -2.9749    0.0879   -0.7137 P   0  0  0  0  0  0  0  0  0  0  0  0
   -0.3880   -1.5704    1.4275 O   0  0  0  0  0  0  0  0  0  0  0  0
   -0.5470   -0.7420    0.5291 C   0  0  0  0  0  3  0  0  0  0  0  0
   -1.7101    0.2389    0.6664 C   0  0  0  0  0  0  0  0  0  0  0  0
   -4.0320    1.5340   -0.2339 C   0  0  0  0  0  0  0  0  0  0  0  0
   -3.6267    2.7938   -0.7293 C   0  0  0  0  0  0  0  0  0  0  0  0
   -4.3461    3.9520   -0.4014 C   0  0  0  0  0  0  0  0  0  0  0  0
   -5.4913    3.8651    0.4077 C   0  0  0  0  0  0  0  0  0  0  0  0
   -5.9061    2.6150    0.8939 C   0  0  0  0  0  0  0  0  0  0  0  0
   -5.1797    1.4553    0.5803 C   0  0  0  0  0  0  0  0  0  0  0  0
   -3.9930   -1.3480   -0.1612 C   0  0  0  0  0  0  0  0  0  0  0  0
   -3.6182   -2.2311    0.8750 C   0  0  0  0  0  0  0  0  0  0  0  0
   -4.4135   -3.3513    1.1728 C   0  0  0  0  0  0  0  0  0  0  0  0
   -5.5925   -3.6008    0.4554 C   0  0  0  0  0  0  0  0  0  0  0  0
   -5.9720   -2.7280   -0.5791 C   0  0  0  0  0  0  0  0  0  0  0  0
   -5.1727   -1.6213   -0.8926 C   0  0  0  0  0  0  0  0  0  0  0  0
   -2.1840    0.1458    1.6668 H   0  0  0  0  0  0  0  0  0  0  0  0
   -1.3158    1.2704    0.5621 H   0  0  0  0  0  0  0  0  0  0  0  0
   -2.7345    2.8599   -1.3741 H   0  0  0  0  0  0  0  0  0  0  0  0
   -4.0171    4.9280   -0.7907 H   0  0  0  0  0  0  0  0  0  0  0  0
   -6.0628    4.7724    0.6564 H   0  0  0  0  0  0  0  0  0  0  0  0
   -6.8020    2.5409    1.5298 H   0  0  0  0  0  0  0  0  0  0  0  0
   -5.5055    0.4797    0.9721 H   0  0  0  0  0  0  0  0  0  0  0  0
   -2.6945   -2.0609    1.4487 H   0  0  0  0  0  0  0  0  0  0  0  0
   -4.1051   -4.0324    1.9812 H   0  0  0  0  0  0  0  0  0  0  0  0
   -6.2142   -4.4765    0.6967 H   0  0  0  0  0  0  0  0  0  0  0  0
   -6.8934   -2.9167   -1.1515 H   0  0  0  0  0  0  0  0  0  0  0  0
   -5.4690   -0.9493   -1.7147 H   0  0  0  0  0  0  0  0  0  0  0  0
  1  5  1  0  0  0  0
  1 11  1  0  0  0  0
  1  4  1  0  0  0  0
  3  4  1  0  0  0  0
  3  2  2  0  0  0  0
  4 17  1  0  0  0  0
  5 10  1  0  0  0  0
  6  7  1  0  0  0  0
  6  5  2  0  0  0  0
  7  8  2  0  0  0  0
  8 21  1  0  0  0  0
  8  9  1  0  0  0  0
  9 22  1  0  0  0  0
 10  9  2  0  0  0  0
 10 23  1  0  0  0  0
 11 12  1  0  0  0  0
 12 13  2  0  0  0  0
 12 24  1  0  0  0  0
 13 25  1  0  0  0  0
 14 26  1  0  0  0  0
 14 13  1  0  0  0  0
 15 14  2  0  0  0  0
 16 15  1  0  0  0  0
 16 11  2  0  0  0  0
 18  4  1  0  0  0  0
 19  6  1  0  0  0  0
 20  7  1  0  0  0  0
 27 15  1  0  0  0  0
 28 16  1  0  0  0  0
M  END
