4
q = -1.0, confidence = 0.0

 68 73  0  0  1  0  0  0  0  0999 V2000
   -1.8977   -0.8630   -2.8118 O   0  0  0  0  0  0  0  0  0  0  0  0
   -5.3255    0.8815    1.1830 O   0  0  0  0  0  0  0  0  0  0  0  0
   -0.8159    0.1026   -0.5147 C   0  0  0  0  0  0  0  0  0  0  0  0
    0.0061    1.3057   -0.5148 C   0  0  1  0  0  3  0  0  0  0  0  0
    1.4001    0.8990   -0.5490 C   0  0  0  0  0  0  0  0  0  0  0  0
    1.4342   -0.5629   -0.5536 C   0  0  0  0  0  0  0  0  0  0  0  0
    0.0704   -1.0371   -0.5757 C   0  0  0  0  0  0  0  0  0  0  0  0
   -2.2898    0.0434   -0.6635 C   0  0  0  0  0  0  0  0  0  0  0  0
   -2.8172   -0.5051   -1.8677 C   0  0  0  0  0  0  0  0  0  0  0  0
   -4.2057   -0.6255   -2.0243 C   0  0  0  0  0  0  0  0  0  0  0  0
   -5.0834   -0.1735   -1.0219 C   0  0  0  0  0  0  0  0  0  0  0  0
   -4.5702    0.4051    0.1527 C   0  0  0  0  0  0  0  0  0  0  0  0
   -3.1727    0.4985    0.3207 C   0  0  0  0  0  0  0  0  0  0  0  0
   -0.5063    2.6915   -0.6352 C   0  0  0  0  0  0  0  0  0  0  0  0
   -1.4643    2.9869   -1.6284 C   0  0  0  0  0  0  0  0  0  0  0  0
   -1.9301    4.2992   -1.7956 C   0  0  0  0  0  0  0  0  0  0  0  0
   -1.4459    5.3304   -0.9764 C   0  0  0  0  0  0  0  0  0  0  0  0
   -0.4892    5.0437    0.0117 C   0  0  0  0  0  0  0  0  0  0  0  0
   -0.0231    3.7346    0.1823 C   0  0  0  0  0  0  0  0  0  0  0  0
    2.5641    1.7904   -0.7744 C   0  0  0  0  0  0  0  0  0  0  0  0
    2.4754    2.7985   -1.7604 C   0  0  0  0  0  0  0  0  0  0  0  0
    3.5768    3.6176   -2.0460 C   0  0  0  0  0  0  0  0  0  0  0  0
    4.7852    3.4426   -1.3548 C   0  0  0  0  0  0  0  0  0  0  0  0
    4.8870    2.4358   -0.3811 C   0  0  0  0  0  0  0  0  0  0  0  0
    3.7891    1.6147   -0.0950 C   0  0  0  0  0  0  0  0  0  0  0  0
    2.6485   -1.4088   -0.6426 C   0  0  0  0  0  0  0  0  0  0  0  0
    3.5735   -1.2110   -1.6901 C   0  0  0  0  0  0  0  0  0  0  0  0
    4.7070   -2.0300   -1.7977 C   0  0  0  0  0  0  0  0  0  0  0  0
    4.9285   -3.0542   -0.8636 C   0  0  0  0  0  0  0  0  0  0  0  0
    4.0103   -3.2558    0.1805 C   0  0  0  0  0  0  0  0  0  0  0  0
    2.8768   -2.4401    0.2939 C   0  0  0  0  0  0  0  0  0  0  0  0
   -0.3719   -2.4341   -0.7432 C   0  0  0  0  0  0  0  0  0  0  0  0
    0.2955   -3.2672   -1.6691 C   0  0  0  0  0  0  0  0  0  0  0  0
   -0.1742   -4.5615   -1.9275 C   0  0  0  0  0  0  0  0  0  0  0  0
   -1.3105   -5.0465   -1.2594 C   0  0  0  0  0  0  0  0  0  0  0  0
   -1.9742   -4.2276   -0.3320 C   0  0  0  0  0  0  0  0  0  0  0  0
   -1.5117   -2.9305   -0.0734 C   0  0  0  0  0  0  0  0  0  0  0  0
   -2.3141   -1.7075   -3.8673 C   0  0  0  0  0  0  0  0  0  0  0  0
   -6.7305    0.7897    1.0759 C   0  0  0  0  0  0  0  0  0  0  0  0
   -4.6258   -1.0652   -2.9388 H   0  0  0  0  0  0  0  0  0  0  0  0
   -6.1651   -0.2823   -1.1759 H   0  0  0  0  0  0  0  0  0  0  0  0
   -2.7923    0.9180    1.2605 H   0  0  0  0  0  0  0  0  0  0  0  0
   -1.8340    2.1813   -2.2789 H   0  0  0  0  0  0  0  0  0  0  0  0
   -2.6789    4.5154   -2.5726 H   0  0  0  0  0  0  0  0  0  0  0  0
   -1.8162    6.3588   -1.1049 H   0  0  0  0  0  0  0  0  0  0  0  0
   -0.1075    5.8461    0.6608 H   0  0  0  0  0  0  0  0  0  0  0  0
    0.7213    3.5051    0.9590 H   0  0  0  0  0  0  0  0  0  0  0  0
    1.5349    2.9356   -2.3124 H   0  0  0  0  0  0  0  0  0  0  0  0
    3.4873    4.3984   -2.8163 H   0  0  0  0  0  0  0  0  0  0  0  0
    5.6484    4.0887   -1.5755 H   0  0  0  0  0  0  0  0  0  0  0  0
    5.8308    2.2873    0.1648 H   0  0  0  0  0  0  0  0  0  0  0  0
    3.8852    0.8282    0.6648 H   0  0  0  0  0  0  0  0  0  0  0  0
    3.3992   -0.4102   -2.4239 H   0  0  0  0  0  0  0  0  0  0  0  0
    5.4223   -1.8652   -2.6178 H   0  0  0  0  0  0  0  0  0  0  0  0
    5.8195   -3.6948   -0.9478 H   0  0  0  0  0  0  0  0  0  0  0  0
    4.1799   -4.0538    0.9191 H   0  0  0  0  0  0  0  0  0  0  0  0
    2.1563   -2.5873    1.1147 H   0  0  0  0  0  0  0  0  0  0  0  0
    1.1766   -2.8880   -2.2050 H   0  0  0  0  0  0  0  0  0  0  0  0
    0.3529   -5.1960   -2.6561 H   0  0  0  0  0  0  0  0  0  0  0  0
   -1.6752   -6.0660   -1.4581 H   0  0  0  0  0  0  0  0  0  0  0  0
   -2.8583   -4.6037    0.2045 H   0  0  0  0  0  0  0  0  0  0  0  0
   -2.0183   -2.3016    0.6695 H   0  0  0  0  0  0  0  0  0  0  0  0
   -1.4006   -1.9825   -4.4264 H   0  0  0  0  0  0  0  0  0  0  0  0
   -2.7917   -2.6341   -3.4788 H   0  0  0  0  0  0  0  0  0  0  0  0
   -3.0201   -1.1954   -4.5598 H   0  0  0  0  0  0  0  0  0  0  0  0
   -7.1461    1.2242    2.0040 H   0  0  0  0  0  0  0  0  0  0  0  0
   -7.1209    1.3622    0.2035 H   0  0  0  0  0  0  0  0  0  0  0  0
   -7.0741   -0.2664    0.9875 H   0  0  0  0  0  0  0  0  0  0  0  0
  1  9  1  0  0  0  0
  4 14  1  6  0  0  0
  4  3  1  0  0  0  0
  5  4  1  0  0  0  0
  6  5  2  0  0  0  0
  7  6  1  0  0  0  0
  7  3  2  0  0  0  0
  8  3  1  0  0  0  0
  8 13  1  0  0  0  0
  9  8  2  0  0  0  0
 10  9  1  0  0  0  0
 10 11  2  0  0  0  0
 11 12  1  0  0  0  0
 12 13  2  0  0  0  0
 12  2  1  0  0  0  0
 13 42  1  0  0  0  0
 14 19  1  0  0  0  0
 15 14  2  0  0  0  0
 16 15  1  0  0  0  0
 16 17  2  0  0  0  0
 17 18  1  0  0  0  0
 18 19  2  0  0  0  0
 18 46  1  0  0  0  0
 19 47  1  0  0  0  0
 20  5  1  0  0  0  0
 20 25  1  0  0  0  0
 21 20  2  0  0  0  0
 22 21  1  0  0  0  0
 22 23  2  0  0  0  0
 23 24  1  0  0  0  0
 24 25  2  0  0  0  0
 24 51  1  0  0  0  0
 25 52  1  0  0  0  0
 26  6  1  0  0  0  0
 26 31  1  0  0  0  0
 27 26  2  0  0  0  0
 28 27  1  0  0  0  0
 28 29  2  0  0  0  0
 29 30  1  0  0  0  0
 30 31  2  0  0  0  0
 30 56  1  0  0  0  0
 31 57  1  0  0  0  0
 32  7  1  0  0  0  0
 32 37  1  0  0  0  0
 33 32  2  0  0  0  0
 34 33  1  0  0  0  0
 34 35  2  0  0  0  0
 35 36  1  0  0  0  0
 36 37  2  0  0  0  0
 36 61  1  0  0  0  0
 37 62  1  0  0  0  0
 38 64  1  0  0  0  0
 38  1  1  0  0  0  0
 39  2  1  0  0  0  0
 39 66  1  0  0  0  0
 40 10  1  0  0  0  0
 41 11  1  0  0  0  0
 43 15  1  0  0  0  0
 44 16  1  0  0  0  0
 45 17  1  0  0  0  0
 48 21  1  0  0  0  0
 49 22  1  0  0  0  0
 50 23  1  0  0  0  0
 53 27  1  0  0  0  0
 54 28  1  0  0  0  0
 55 29  1  0  0  0  0
 58 33  1  0  0  0  0
 59 34  1  0  0  0  0
 60 35  1  0  0  0  0
 63 38  1  0  0  0  0
 65 38  1  0  0  0  0
 67 39  1  0  0  0  0
 68 39  1  0  0  0  0
M  END
