1
q = 0.0, confidence = 1.0

 28 28  0  0  0  0  0  0  0  0999 V2000
    2.7074   -0.7647    0.0888 C   0  0  0  0  0  2  0  0  0  0  0  0
    3.7015    0.1361   -0.1064 N   0  0  0  0  0  0  0  0  0  0  0  0
    4.6839   -0.1392    0.0270 H   0  0  0  0  0  0  0  0  0  0  0  0
    4.9000    2.0675   -0.2845 N   0  0  0  0  0  0  0  0  0  0  0  0
    3.6755    1.5206   -0.3840 C   0  0  0  0  0  0  0  0  0  0  0  0
    2.5267    2.2500   -0.7343 C   0  0  0  0  0  0  0  0  0  0  0  0
    1.5502    1.7544   -0.8276 H   0  0  0  0  0  0  0  0  0  0  0  0
    2.6704    3.6249   -0.9441 C   0  0  0  0  0  0  0  0  0  0  0  0
    1.7815    4.2221   -1.1956 H   0  0  0  0  0  0  0  0  0  0  0  0
    3.9392    4.2151   -0.8305 C   0  0  0  0  0  0  0  0  0  0  0  0
    4.0897    5.2920   -0.9926 H   0  0  0  0  0  0  0  0  0  0  0  0
    5.0225    3.3834   -0.5082 C   0  0  0  0  0  0  0  0  0  0  0  0
    6.0425    3.7974   -0.4221 H   0  0  0  0  0  0  0  0  0  0  0  0
    3.1247   -2.0206    0.3549 N   0  0  0  0  0  0  0  0  0  0  0  0
    2.1615   -3.1003    0.6263 C   0  0  0  0  0  0  0  0  0  0  0  0
    1.2194   -2.6296    0.9668 H   0  0  0  0  0  0  0  0  0  0  0  0
    2.5599   -3.6953    1.4760 H   0  0  0  0  0  0  0  0  0  0  0  0
    1.8913   -3.9853   -0.5862 C   0  0  0  0  0  0  0  0  0  0  0  0
    1.4270   -3.3941   -1.3987 H   0  0  0  0  0  0  0  0  0  0  0  0
    1.1807   -4.7885   -0.3092 H   0  0  0  0  0  0  0  0  0  0  0  0
    2.8142   -4.4643   -0.9730 H   0  0  0  0  0  0  0  0  0  0  0  0
    4.5396   -2.4209    0.4120 C   0  0  0  0  0  0  0  0  0  0  0  0
    5.0986   -1.9211   -0.4085 H   0  0  0  0  0  0  0  0  0  0  0  0
    4.5821   -3.5014    0.1724 H   0  0  0  0  0  0  0  0  0  0  0  0
    5.1897   -2.1539    1.7723 C   0  0  0  0  0  0  0  0  0  0  0  0
    5.1919   -1.0752    2.0264 H   0  0  0  0  0  0  0  0  0  0  0  0
    6.2396   -2.5080    1.7737 H   0  0  0  0  0  0  0  0  0  0  0  0
    4.6472   -2.6864    2.5786 H   0  0  0  0  0  0  0  0  0  0  0  0
  1 14  1  0  0  0  0
  2  3  1  0  0  0  0
  2  1  1  0  0  0  0
  5  4  1  0  0  0  0
  5  2  1  0  0  0  0
  6  5  2  0  0  0  0
  7  6  1  0  0  0  0
  8 10  2  0  0  0  0
  8  6  1  0  0  0  0
  9  8  1  0  0  0  0
 10 12  1  0  0  0  0
 11 10  1  0  0  0  0
 12 13  1  0  0  0  0
 12  4  2  0  0  0  0
 14 22  1  0  0  0  0
 14 15  1  0  0  0  0
 15 16  1  0  0  0  0
 15 17  1  0  0  0  0
 18 20  1  0  0  0  0
 18 15  1  0  0  0  0
 19 18  1  0  0  0  0
 21 18  1  0  0  0  0
 22 25  1  0  0  0  0
 23 22  1  0  0  0  0
 24 22  1  0  0  0  0
 25 27  1  0  0  0  0
 25 26  1  0  0  0  0
 25 28  1  0  0  0  0
M  END
