1
q = -1.0, confidence = 0.026

  8  7  0  0  0  0  0  0  0  0999 V2000
   -0.4418    0.1115    1.2979 C   0  0  0  0  0  1  0  0  0  0  0  0
   -0.6411    0.1339    2.7580 C   0  0  0  0  0  0  0  0  0  0  0  0
    0.3000   -0.2240    3.2318 H   0  0  0  0  0  0  0  0  0  0  0  0
   -1.4192   -0.6281    2.9945 H   0  0  0  0  0  0  0  0  0  0  0  0
   -1.0370    1.5050    3.3261 C   0  0  0  0  0  0  0  0  0  0  0  0
   -0.2550    2.2598    3.1186 H   0  0  0  0  0  0  0  0  0  0  0  0
   -1.1708    1.4356    4.4241 H   0  0  0  0  0  0  0  0  0  0  0  0
   -1.9856    1.8582    2.8805 H   0  0  0  0  0  0  0  0  0  0  0  0
  1  2  1  0  0  0  0
  2  4  1  0  0  0  0
  2  3  1  0  0  0  0
  2  5  1  0  0  0  0
  5  7  1  0  0  0  0
  6  5  1  0  0  0  0
  8  5  1  0  0  0  0
M  END
