5
q = 0.0, confidence = 0.998

 70 76  0  0  1  0  0  0  0  0999 V2000
   -0.5795   -0.1380   -0.3376 P   0  0  0  0  0  0  0  0  0  0  0  0
    0.3495   -0.0089    1.0276 O   0  0  0  0  0  0  0  0  0  0  0  0
    0.6155   -0.2519   -1.5208 O   0  0  0  0  0  0  0  0  0  0  0  0
   -1.2198    1.4340   -0.4028 N   0  0  0  0  0  0  0  0  0  0  0  0
   -3.1455    0.2350   -1.4067 C   0  0  1  0  0  3  0  0  0  0  0  0
   -2.9016   -0.6625   -2.5234 C   0  0  0  0  0  0  0  0  0  0  0  0
   -2.2278   -0.3752   -3.3406 H   0  0  0  0  0  0  0  0  0  0  0  0
   -3.3928   -1.9961   -2.4604 C   0  0  0  0  0  0  0  0  0  0  0  0
   -3.0655   -2.7195   -3.2212 H   0  0  0  0  0  0  0  0  0  0  0  0
   -4.2462   -2.4329   -1.3883 C   0  0  0  0  0  0  0  0  0  0  0  0
   -4.5701   -3.4799   -1.3265 H   0  0  0  0  0  0  0  0  0  0  0  0
   -4.5327   -1.5203   -0.3396 C   0  0  0  0  0  0  0  0  0  0  0  0
   -5.0695   -1.8729    0.5533 H   0  0  0  0  0  0  0  0  0  0  0  0
   -4.0266   -0.1805   -0.3489 C   0  0  0  0  0  3  0  0  0  0  0  0
   -4.1975    0.4828    0.5109 H   0  0  0  0  0  0  0  0  0  0  0  0
   -2.4069    1.5829   -1.2759 C   0  0  2  0  0  0  0  0  0  0  0  0
   -3.0990    2.2705   -0.7426 H   0  0  0  0  0  0  0  0  0  0  0  0
   -2.0686    2.1852   -2.6452 C   0  0  0  0  0  0  0  0  0  0  0  0
   -1.6321    3.1936   -2.5315 H   0  0  0  0  0  0  0  0  0  0  0  0
   -2.9785    2.2674   -3.2734 H   0  0  0  0  0  0  0  0  0  0  0  0
   -1.3271    1.5629   -3.1819 H   0  0  0  0  0  0  0  0  0  0  0  0
   -0.8973    2.5142    0.5620 C   0  0  1  0  0  0  0  0  0  0  0  0
   -0.0513    2.1164    1.1546 H   0  0  0  0  0  0  0  0  0  0  0  0
   -0.4080    3.7945   -0.1165 C   0  0  0  0  0  0  0  0  0  0  0  0
    0.4374    3.5608   -0.7917 H   0  0  0  0  0  0  0  0  0  0  0  0
   -0.0540    4.5175    0.6447 H   0  0  0  0  0  0  0  0  0  0  0  0
   -1.2005    4.2953   -0.7079 H   0  0  0  0  0  0  0  0  0  0  0  0
   -2.0699    2.6931    1.5310 C   0  0  0  0  0  0  0  0  0  0  0  0
   -2.7673    3.9069    1.6751 C   0  0  0  0  0  0  0  0  0  0  0  0
   -2.4596    4.7928    1.1007 H   0  0  0  0  0  0  0  0  0  0  0  0
   -3.8616    4.0082    2.5528 C   0  0  0  0  0  0  0  0  0  0  0  0
   -4.3953    4.9662    2.6490 H   0  0  0  0  0  0  0  0  0  0  0  0
   -4.2719    2.8958    3.3001 C   0  0  0  0  0  0  0  0  0  0  0  0
   -5.1290    2.9746    3.9862 H   0  0  0  0  0  0  0  0  0  0  0  0
   -3.5776    1.6802    3.1679 C   0  0  0  0  0  0  0  0  0  0  0  0
   -3.8830    0.7947    3.7463 H   0  0  0  0  0  0  0  0  0  0  0  0
   -2.4878    1.5795    2.2936 C   0  0  0  0  0  0  0  0  0  0  0  0
   -1.9767    0.6077    2.1959 H   0  0  0  0  0  0  0  0  0  0  0  0
    1.6679    0.6509   -1.4705 C   0  0  0  0  0  0  0  0  0  0  0  0
    1.7195    1.6591   -2.4675 C   0  0  0  0  0  0  0  0  0  0  0  0
    0.9471    1.6607   -3.2483 H   0  0  0  0  0  0  0  0  0  0  0  0
    2.7328    2.6008   -2.4479 C   0  0  0  0  0  0  0  0  0  0  0  0
    2.7860    3.3768   -3.2269 H   0  0  0  0  0  0  0  0  0  0  0  0
    3.7050    2.5998   -1.4059 C   0  0  0  0  0  0  0  0  0  0  0  0
    4.7135    3.6051   -1.3277 C   0  0  0  0  0  0  0  0  0  0  0  0
    4.7446    4.3790   -2.1106 H   0  0  0  0  0  0  0  0  0  0  0  0
    5.6274    3.6195   -0.2859 C   0  0  0  0  0  0  0  0  0  0  0  0
    6.3980    4.4034   -0.2354 H   0  0  0  0  0  0  0  0  0  0  0  0
    5.5585    2.6273    0.7278 C   0  0  0  0  0  0  0  0  0  0  0  0
    6.2693    2.6543    1.5674 H   0  0  0  0  0  0  0  0  0  0  0  0
    4.5997    1.6266    0.6733 C   0  0  0  0  0  0  0  0  0  0  0  0
    4.5508    0.8680    1.4663 H   0  0  0  0  0  0  0  0  0  0  0  0
    3.6568    1.5672   -0.3970 C   0  0  0  0  0  0  0  0  0  0  0  0
    2.6475    0.5406   -0.4749 C   0  0  0  0  0  0  0  0  0  0  0  0
    2.6071   -0.6108    0.4642 C   0  0  0  0  0  0  0  0  0  0  0  0
    3.7125   -1.5240    0.6193 C   0  0  0  0  0  0  0  0  0  0  0  0
    4.9036   -1.4318   -0.1611 C   0  0  0  0  0  0  0  0  0  0  0  0
    4.9843   -0.6447   -0.9228 H   0  0  0  0  0  0  0  0  0  0  0  0
    5.9487   -2.3266    0.0181 C   0  0  0  0  0  0  0  0  0  0  0  0
    6.8540   -2.2365   -0.6012 H   0  0  0  0  0  0  0  0  0  0  0  0
    5.8558   -3.3619    0.9847 C   0  0  0  0  0  0  0  0  0  0  0  0
    6.6930   -4.0629    1.1212 H   0  0  0  0  0  0  0  0  0  0  0  0
    4.7007   -3.4983    1.7384 C   0  0  0  0  0  0  0  0  0  0  0  0
    4.6048   -4.3126    2.4734 H   0  0  0  0  0  0  0  0  0  0  0  0
    3.6025   -2.6042    1.5720 C   0  0  0  0  0  0  0  0  0  0  0  0
    2.3893   -2.7792    2.3002 C   0  0  0  0  0  0  0  0  0  0  0  0
    2.3108   -3.6186    3.0079 H   0  0  0  0  0  0  0  0  0  0  0  0
    1.3090   -1.9411    2.0972 C   0  0  0  0  0  0  0  0  0  0  0  0
    0.3343   -2.0896    2.5823 H   0  0  0  0  0  0  0  0  0  0  0  0
    1.4402   -0.8692    1.1848 C   0  0  0  0  0  0  0  0  0  0  0  0
  1  2  1  0  0  0  0
  2 70  1  0  0  0  0
  3 39  1  0  0  0  0
  3  1  1  0  0  0  0
  4  1  1  0  0  0  0
  4 22  1  0  0  0  0
  5 16  1  1  0  0  0
  5 14  1  0  0  0  0
  6  8  2  0  0  0  0
  6  5  1  0  0  0  0
  7  6  1  0  0  0  0
  8 10  1  0  0  0  0
  9  8  1  0  0  0  0
 10 11  1  0  0  0  0
 10 12  2  0  0  0  0
 12 13  1  0  0  0  0
 14 12  1  0  0  0  0
 14 15  1  0  0  0  0
 16 17  1  1  0  0  0
 16  4  1  0  0  0  0
 18 19  1  0  0  0  0
 18 16  1  0  0  0  0
 20 18  1  0  0  0  0
 21 18  1  0  0  0  0
 22 23  1  1  0  0  0
 22 28  1  0  0  0  0
 24 22  1  0  0  0  0
 24 26  1  0  0  0  0
 25 24  1  0  0  0  0
 27 24  1  0  0  0  0
 28 29  2  0  0  0  0
 28 37  1  0  0  0  0
 29 31  1  0  0  0  0
 30 29  1  0  0  0  0
 31 32  1  0  0  0  0
 31 33  2  0  0  0  0
 33 34  1  0  0  0  0
 35 33  1  0  0  0  0
 35 36  1  0  0  0  0
 37 35  2  0  0  0  0
 38 37  1  0  0  0  0
 39 54  1  0  0  0  0
 40 42  1  0  0  0  0
 40 39  2  0  0  0  0
 41 40  1  0  0  0  0
 42 44  2  0  0  0  0
 43 42  1  0  0  0  0
 44 45  1  0  0  0  0
 44 53  1  0  0  0  0
 45 47  2  0  0  0  0
 46 45  1  0  0  0  0
 47 48  1  0  0  0  0
 47 49  1  0  0  0  0
 49 50  1  0  0  0  0
 51 49  2  0  0  0  0
 51 52  1  0  0  0  0
 53 51  1  0  0  0  0
 54 53  2  0  0  0  0
 54 55  1  0  0  0  0
 55 56  2  0  0  0  0
 55 70  1  0  0  0  0
 56 65  1  0  0  0  0
 57 59  2  0  0  0  0
 57 56  1  0  0  0  0
 58 57  1  0  0  0  0
 59 61  1  0  0  0  0
 60 59  1  0  0  0  0
 61 62  1  0  0  0  0
 61 63  2  0  0  0  0
 63 64  1  0  0  0  0
 65 63  1  0  0  0  0
 65 66  2  0  0  0  0
 66 67  1  0  0  0  0
 68 66  1  0  0  0  0
 68 69  1  0  0  0  0
 70 68  2  0  0  0  0
M  END
