7
q = -1.0, confidence = 0.0

 14 14  0  0  0  0  0  0  0  0999 V2000
    5.2349   -1.9851   -0.5783 Cl  0  0  0  0  0  0  0  0  0  0  0  0
    1.4009   -2.7860    0.3684 C   0  0  0  0  0  0  0  0  0  0  0  0
    0.8507   -3.1584    1.2457 H   0  0  0  0  0  0  0  0  0  0  0  0
    0.6774   -2.3819   -0.7788 C   0  0  0  0  0  0  0  0  0  0  0  0
    1.4209   -1.8805   -1.8742 C   0  0  0  0  0  0  0  0  0  0  0  0
    0.8817   -1.5510   -2.7762 H   0  0  0  0  0  0  0  0  0  0  0  0
   -0.7984   -2.4517   -0.8253 C   0  0  0  0  0  3  0  0  0  0  0  0
    2.8164   -1.7773   -1.8325 C   0  0  0  0  0  0  0  0  0  0  0  0
    3.3798   -1.3731   -2.6854 H   0  0  0  0  0  0  0  0  0  0  0  0
    2.7954   -2.6911    0.4300 C   0  0  0  0  0  0  0  0  0  0  0  0
    3.3423   -2.9884    1.3354 H   0  0  0  0  0  0  0  0  0  0  0  0
    3.4977   -2.1795   -0.6725 C   0  0  0  0  0  0  0  0  0  0  0  0
   -1.1632   -2.5939   -1.8591 H   0  0  0  0  0  0  0  0  0  0  0  0
   -1.1911   -3.2522   -0.1718 H   0  0  0  0  0  0  0  0  0  0  0  0
  2 10  1  0  0  0  0
  2  3  1  0  0  0  0
  4  2  2  0  0  0  0
  5  8  2  0  0  0  0
  5  4  1  0  0  0  0
  6  5  1  0  0  0  0
  7  4  1  0  0  0  0
  7 14  1  0  0  0  0
  8 12  1  0  0  0  0
  9  8  1  0  0  0  0
 10 11  1  0  0  0  0
 12  1  1  0  0  0  0
 12 10  2  0  0  0  0
 13  7  1  0  0  0  0
M  END
