5
q = -1.0, confidence = 0.272

 79 82  0  0  0  0  0  0  0  0999 V2000
    1.1572    1.6085    0.7738 N   0  0  0  0  0  0  0  0  0  0  0  0
    0.1899   -0.0196    1.8261 N   0  0  0  0  0  0  0  0  0  0  0  0
   -1.7826   -1.5551    0.3758 N   0  0  0  0  0  0  0  0  0  0  0  0
   -3.7072   -0.6022   -0.0322 N   0  0  0  0  0  0  0  0  0  0  0  0
    1.1309    0.2358    0.8535 C   0  0  0  0  0  2  0  0  0  0  0  0
    0.2920    2.1848    1.7003 C   0  0  0  0  0  0  0  0  0  0  0  0
    0.2067    3.2688    1.8100 H   0  0  0  0  0  0  0  0  0  0  0  0
   -0.3256    1.1569    2.3605 C   0  0  0  0  0  0  0  0  0  0  0  0
   -1.0534    1.1603    3.1770 H   0  0  0  0  0  0  0  0  0  0  0  0
   -0.1772   -1.3599    2.2613 C   0  0  0  0  0  0  0  0  0  0  0  0
   -0.9355   -1.2591    3.0632 H   0  0  0  0  0  0  0  0  0  0  0  0
    0.7400   -1.8521    2.6680 H   0  0  0  0  0  0  0  0  0  0  0  0
   -0.6883   -2.2174    1.1028 C   0  0  0  0  0  0  0  0  0  0  0  0
    0.1471   -2.3714    0.3793 H   0  0  0  0  0  0  0  0  0  0  0  0
   -1.0362   -3.2022    1.4693 H   0  0  0  0  0  0  0  0  0  0  0  0
   -3.0328   -1.3741    0.8455 C   0  0  0  0  0  3  0  0  0  0  0  0
   -3.4434   -1.7740    1.7774 H   0  0  0  0  0  0  0  0  0  0  0  0
   -2.8568   -0.2822   -1.0830 C   0  0  0  0  0  0  0  0  0  0  0  0
   -3.1839    0.3481   -1.9146 H   0  0  0  0  0  0  0  0  0  0  0  0
   -1.6424   -0.8793   -0.8263 C   0  0  0  0  0  0  0  0  0  0  0  0
   -0.6744   -0.8500   -1.3888 H   0  0  0  0  0  0  0  0  0  0  0  0
    1.9105    2.3769   -0.1875 C   0  0  0  0  0  0  0  0  0  0  0  0
    1.1958    3.0221   -1.2288 C   0  0  0  0  0  0  0  0  0  0  0  0
    1.9357    3.7865   -2.1475 C   0  0  0  0  0  0  0  0  0  0  0  0
    1.4124    4.2959   -2.9706 H   0  0  0  0  0  0  0  0  0  0  0  0
    3.3280    3.8893   -2.0450 C   0  0  0  0  0  0  0  0  0  0  0  0
    3.8906    4.4812   -2.7830 H   0  0  0  0  0  0  0  0  0  0  0  0
    4.0049    3.2351   -1.0114 C   0  0  0  0  0  0  0  0  0  0  0  0
    5.0995    3.3168   -0.9389 H   0  0  0  0  0  0  0  0  0  0  0  0
    3.3155    2.4662   -0.0535 C   0  0  0  0  0  0  0  0  0  0  0  0
   -0.3217    2.9327   -1.3683 C   0  0  0  0  0  0  0  0  0  0  0  0
   -0.6749    2.1315   -0.6866 H   0  0  0  0  0  0  0  0  0  0  0  0
   -0.9894    4.2526   -0.9399 C   0  0  0  0  0  0  0  0  0  0  0  0
   -2.0943    4.1817   -1.0149 H   0  0  0  0  0  0  0  0  0  0  0  0
   -0.7341    4.5313    0.1024 H   0  0  0  0  0  0  0  0  0  0  0  0
   -0.6613    5.0884   -1.5915 H   0  0  0  0  0  0  0  0  0  0  0  0
   -0.7607    2.5359   -2.7864 C   0  0  0  0  0  0  0  0  0  0  0  0
   -1.8649    2.4171   -2.8277 H   0  0  0  0  0  0  0  0  0  0  0  0
   -0.4945    3.3108   -3.5339 H   0  0  0  0  0  0  0  0  0  0  0  0
   -0.2811    1.5827   -3.0846 H   0  0  0  0  0  0  0  0  0  0  0  0
    4.0812    1.8164    1.0895 C   0  0  0  0  0  0  0  0  0  0  0  0
    3.4022    1.1200    1.6191 H   0  0  0  0  0  0  0  0  0  0  0  0
    4.5330    2.8824    2.1040 C   0  0  0  0  0  0  0  0  0  0  0  0
    5.0482    2.4023    2.9609 H   0  0  0  0  0  0  0  0  0  0  0  0
    5.2386    3.6066    1.6449 H   0  0  0  0  0  0  0  0  0  0  0  0
    3.6721    3.4594    2.5009 H   0  0  0  0  0  0  0  0  0  0  0  0
    5.2590    0.9667    0.5890 C   0  0  0  0  0  0  0  0  0  0  0  0
    4.9184    0.2068   -0.1429 H   0  0  0  0  0  0  0  0  0  0  0  0
    6.0498    1.5868    0.1171 H   0  0  0  0  0  0  0  0  0  0  0  0
    5.7126    0.4189    1.4384 H   0  0  0  0  0  0  0  0  0  0  0  0
   -5.0710   -0.1530    0.1286 C   0  0  0  0  0  0  0  0  0  0  0  0
   -5.2897    1.0661    0.8129 C   0  0  0  0  0  0  0  0  0  0  0  0
   -6.6274    1.4776    0.9645 C   0  0  0  0  0  0  0  0  0  0  0  0
   -6.8450    2.4173    1.4931 H   0  0  0  0  0  0  0  0  0  0  0  0
   -7.6812    0.7120    0.4506 C   0  0  0  0  0  0  0  0  0  0  0  0
   -8.7188    1.0544    0.5810 H   0  0  0  0  0  0  0  0  0  0  0  0
   -7.4248   -0.4832   -0.2331 C   0  0  0  0  0  0  0  0  0  0  0  0
   -8.2630   -1.0699   -0.6363 H   0  0  0  0  0  0  0  0  0  0  0  0
   -6.1083   -0.9457   -0.4165 C   0  0  0  0  0  0  0  0  0  0  0  0
   -4.1481    1.8882    1.3997 C   0  0  0  0  0  0  0  0  0  0  0  0
   -3.1935    1.5188    0.9700 H   0  0  0  0  0  0  0  0  0  0  0  0
   -4.0732    1.6886    2.9249 C   0  0  0  0  0  0  0  0  0  0  0  0
   -3.9143    0.6241    3.1931 H   0  0  0  0  0  0  0  0  0  0  0  0
   -3.2405    2.2809    3.3550 H   0  0  0  0  0  0  0  0  0  0  0  0
   -5.0111    2.0182    3.4169 H   0  0  0  0  0  0  0  0  0  0  0  0
   -4.2535    3.3777    1.0381 C   0  0  0  0  0  0  0  0  0  0  0  0
   -4.3458    3.5238   -0.0562 H   0  0  0  0  0  0  0  0  0  0  0  0
   -5.1267    3.8612    1.5215 H   0  0  0  0  0  0  0  0  0  0  0  0
   -3.3466    3.9168    1.3765 H   0  0  0  0  0  0  0  0  0  0  0  0
   -5.8275   -2.2645   -1.1261 C   0  0  0  0  0  0  0  0  0  0  0  0
   -4.7535   -2.2769   -1.4057 H   0  0  0  0  0  0  0  0  0  0  0  0
   -6.0702   -3.4479   -0.1698 C   0  0  0  0  0  0  0  0  0  0  0  0
   -5.8267   -4.4090   -0.6658 H   0  0  0  0  0  0  0  0  0  0  0  0
   -5.4506   -3.3702    0.7465 H   0  0  0  0  0  0  0  0  0  0  0  0
   -7.1320   -3.4867    0.1496 H   0  0  0  0  0  0  0  0  0  0  0  0
   -6.6322   -2.4215   -2.4251 C   0  0  0  0  0  0  0  0  0  0  0  0
   -6.4774   -1.5618   -3.1066 H   0  0  0  0  0  0  0  0  0  0  0  0
   -6.3206   -3.3419   -2.9577 H   0  0  0  0  0  0  0  0  0  0  0  0
   -7.7203   -2.5103   -2.2298 H   0  0  0  0  0  0  0  0  0  0  0  0
  1  5  1  0  0  0  0
  1  6  1  0  0  0  0
  2 10  1  0  0  0  0
  2  8  1  0  0  0  0
  3 16  1  0  0  0  0
  3 13  1  0  0  0  0
  4 51  1  0  0  0  0
  4 16  1  0  0  0  0
  5  2  1  0  0  0  0
  6  7  1  0  0  0  0
  6  8  2  0  0  0  0
  8  9  1  0  0  0  0
 10 12  1  0  0  0  0
 10 11  1  0  0  0  0
 13 15  1  0  0  0  0
 13 10  1  0  0  0  0
 14 13  1  0  0  0  0
 16 17  1  0  0  0  0
 18 20  2  0  0  0  0
 18  4  1  0  0  0  0
 19 18  1  0  0  0  0
 20  3  1  0  0  0  0
 21 20  1  0  0  0  0
 22 30  1  0  0  0  0
 22  1  1  0  0  0  0
 23 22  2  0  0  0  0
 24 26  2  0  0  0  0
 24 23  1  0  0  0  0
 25 24  1  0  0  0  0
 26 28  1  0  0  0  0
 27 26  1  0  0  0  0
 28 29  1  0  0  0  0
 28 30  2  0  0  0  0
 30 41  1  0  0  0  0
 31 23  1  0  0  0  0
 31 33  1  0  0  0  0
 31 32  1  0  0  0  0
 33 35  1  0  0  0  0
 34 33  1  0  0  0  0
 36 33  1  0  0  0  0
 37 31  1  0  0  0  0
 38 37  1  0  0  0  0
 39 37  1  0  0  0  0
 40 37  1  0  0  0  0
 41 42  1  0  0  0  0
 41 43  1  0  0  0  0
 43 46  1  0  0  0  0
 43 44  1  0  0  0  0
 45 43  1  0  0  0  0
 47 41  1  0  0  0  0
 47 50  1  0  0  0  0
 48 47  1  0  0  0  0
 49 47  1  0  0  0  0
 51 52  1  0  0  0  0
 52 53  2  0  0  0  0
 52 60  1  0  0  0  0
 53 54  1  0  0  0  0
 55 56  1  0  0  0  0
 55 53  1  0  0  0  0
 57 55  2  0  0  0  0
 58 57  1  0  0  0  0
 59 57  1  0  0  0  0
 59 51  2  0  0  0  0
 60 62  1  0  0  0  0
 61 60  1  0  0  0  0
 62 63  1  0  0  0  0
 62 64  1  0  0  0  0
 62 65  1  0  0  0  0
 66 69  1  0  0  0  0
 66 60  1  0  0  0  0
 66 68  1  0  0  0  0
 67 66  1  0  0  0  0
 70 59  1  0  0  0  0
 70 72  1  0  0  0  0
 71 70  1  0  0  0  0
 72 75  1  0  0  0  0
 72 74  1  0  0  0  0
 73 72  1  0  0  0  0
 76 79  1  0  0  0  0
 76 70  1  0  0  0  0
 77 76  1  0  0  0  0
 78 76  1  0  0  0  0
M  END
