1
q = 0.0, confidence = 0.998

 50 52  0  0  0  0  0  0  0  0999 V2000
   -0.2025    0.7005   -0.4221 C   0  0  0  0  0  2  0  0  0  0  0  0
    1.8124    1.7648   -0.5615 C   0  0  0  0  0  0  0  0  0  0  0  0
    0.8056    2.6405   -1.0485 C   0  0  0  0  0  0  0  0  0  0  0  0
    1.1008    3.9277   -1.5171 C   0  0  0  0  0  0  0  0  0  0  0  0
    0.3099    4.5970   -1.8838 H   0  0  0  0  0  0  0  0  0  0  0  0
    2.4451    4.3271   -1.4913 C   0  0  0  0  0  0  0  0  0  0  0  0
    2.7170    5.3313   -1.8486 H   0  0  0  0  0  0  0  0  0  0  0  0
    3.4510    3.4613   -1.0129 C   0  0  0  0  0  0  0  0  0  0  0  0
    4.4968    3.8022   -1.0055 H   0  0  0  0  0  0  0  0  0  0  0  0
    3.1586    2.1710   -0.5434 C   0  0  0  0  0  0  0  0  0  0  0  0
    3.9538    1.5103   -0.1802 H   0  0  0  0  0  0  0  0  0  0  0  0
    1.6819   -0.5780    0.5361 C   0  0  0  0  0  0  0  0  0  0  0  0
    1.0804   -1.4432    0.1874 H   0  0  0  0  0  0  0  0  0  0  0  0
    1.4081   -0.4420    1.5989 H   0  0  0  0  0  0  0  0  0  0  0  0
    3.1624   -0.8149    0.3583 C   0  0  0  0  0  0  0  0  0  0  0  0
    4.0465   -0.5120    1.4269 C   0  0  0  0  0  0  0  0  0  0  0  0
    5.4366   -0.7203    1.2438 C   0  0  0  0  0  0  0  0  0  0  0  0
    5.8876   -1.2075    0.0049 C   0  0  0  0  0  0  0  0  0  0  0  0
    6.9703   -1.3604   -0.1358 H   0  0  0  0  0  0  0  0  0  0  0  0
    5.0252   -1.5120   -1.0617 C   0  0  0  0  0  0  0  0  0  0  0  0
    3.6339   -1.3190   -0.8805 C   0  0  0  0  0  0  0  0  0  0  0  0
    3.5147    0.0555    2.7241 C   0  0  0  0  0  0  0  0  0  0  0  0
    4.3272    0.3425    3.4141 H   0  0  0  0  0  0  0  0  0  0  0  0
    2.8716   -0.6717    3.2630 H   0  0  0  0  0  0  0  0  0  0  0  0
    2.8931    0.9587    2.5546 H   0  0  0  0  0  0  0  0  0  0  0  0
    6.4411   -0.4270    2.3332 C   0  0  0  0  0  0  0  0  0  0  0  0
    6.4328    0.6423    2.6321 H   0  0  0  0  0  0  0  0  0  0  0  0
    7.4678   -0.6696    1.9982 H   0  0  0  0  0  0  0  0  0  0  0  0
    6.2412   -1.0166    3.2521 H   0  0  0  0  0  0  0  0  0  0  0  0
    2.6525   -1.6346   -1.9835 C   0  0  0  0  0  0  0  0  0  0  0  0
    3.1487   -2.0111   -2.8946 H   0  0  0  0  0  0  0  0  0  0  0  0
    2.0576   -0.7434   -2.2704 H   0  0  0  0  0  0  0  0  0  0  0  0
    1.9216   -2.4067   -1.6621 H   0  0  0  0  0  0  0  0  0  0  0  0
    5.5998   -2.0320   -2.3578 C   0  0  0  0  0  0  0  0  0  0  0  0
    5.2119   -3.0413   -2.6100 H   0  0  0  0  0  0  0  0  0  0  0  0
    6.7026   -2.1057   -2.2989 H   0  0  0  0  0  0  0  0  0  0  0  0
    5.3549   -1.3714   -3.2157 H   0  0  0  0  0  0  0  0  0  0  0  0
   -1.7187    2.5355   -1.1518 C   0  0  0  0  0  0  0  0  0  0  0  0
   -2.4205    1.6876   -1.2690 H   0  0  0  0  0  0  0  0  0  0  0  0
   -1.7242    3.1319   -2.0864 H   0  0  0  0  0  0  0  0  0  0  0  0
   -2.1680    3.3838    0.0548 C   0  0  0  0  0  0  0  0  0  0  0  0
   -1.9290    2.8190    0.9871 H   0  0  0  0  0  0  0  0  0  0  0  0
   -1.6132    4.3454    0.0802 H   0  0  0  0  0  0  0  0  0  0  0  0
   -4.3755    2.6653    0.4682 C   0  0  0  0  0  0  0  0  0  0  0  0
   -4.2450    1.6957   -0.0708 H   0  0  0  0  0  0  0  0  0  0  0  0
   -5.4232    3.0006    0.3419 H   0  0  0  0  0  0  0  0  0  0  0  0
   -4.1788    2.4636    1.5467 H   0  0  0  0  0  0  0  0  0  0  0  0
   -0.4014    1.9502   -0.9539 N   0  0  0  0  0  0  0  0  0  0  0  0
    1.1481    0.5856   -0.1975 N   0  0  0  0  0  0  0  0  0  0  0  0
   -3.5419    3.6934   -0.0344 O   0  0  0  0  0  0  0  0  0  0  0  0
  1 49  1  0  0  0  0
  2 10  1  0  0  0  0
  2 49  1  0  0  0  0
  3 48  1  0  0  0  0
  3  2  2  0  0  0  0
  4  6  2  0  0  0  0
  4  3  1  0  0  0  0
  5  4  1  0  0  0  0
  6  8  1  0  0  0  0
  7  6  1  0  0  0  0
  8  9  1  0  0  0  0
  8 10  2  0  0  0  0
 10 11  1  0  0  0  0
 12 14  1  0  0  0  0
 13 12  1  0  0  0  0
 15 12  1  0  0  0  0
 15 16  1  0  0  0  0
 16 22  1  0  0  0  0
 17 16  2  0  0  0  0
 17 26  1  0  0  0  0
 18 17  1  0  0  0  0
 19 18  1  0  0  0  0
 20 21  1  0  0  0  0
 20 18  2  0  0  0  0
 21 15  2  0  0  0  0
 22 24  1  0  0  0  0
 22 23  1  0  0  0  0
 25 22  1  0  0  0  0
 26 27  1  0  0  0  0
 26 29  1  0  0  0  0
 28 26  1  0  0  0  0
 30 33  1  0  0  0  0
 30 21  1  0  0  0  0
 31 30  1  0  0  0  0
 32 30  1  0  0  0  0
 34 36  1  0  0  0  0
 34 20  1  0  0  0  0
 35 34  1  0  0  0  0
 37 34  1  0  0  0  0
 38 48  1  0  0  0  0
 38 41  1  0  0  0  0
 39 38  1  0  0  0  0
 40 38  1  0  0  0  0
 41 43  1  0  0  0  0
 41 42  1  0  0  0  0
 44 47  1  0  0  0  0
 45 44  1  0  0  0  0
 46 44  1  0  0  0  0
 48  1  1  0  0  0  0
 49 12  1  0  0  0  0
 50 41  1  0  0  0  0
 50 44  1  0  0  0  0
M  END
