14
q = 0.0, confidence = 0.986

 18 19  0  0  1  0  0  0  0  0999 V2000
   -1.3491    3.3345    0.2770 O   0  0  0  0  0  0  0  0  0  0  0  0
   -3.0574    0.7701   -0.9960 O   0  0  0  0  0  0  0  0  0  0  0  0
   -1.4842   -2.4491    0.4992 O   0  0  0  0  0  0  0  0  0  0  0  0
   -1.3149    2.1359    0.3668 C   0  0  0  0  0  0  0  0  0  0  0  0
   -2.1282    0.9100   -0.2415 C   0  0  0  0  0  0  0  0  0  0  0  0
   -1.2614    0.0037    0.6299 C   0  0  1  0  0  3  0  0  0  0  0  0
   -0.8557   -1.3420    0.9015 C   0  0  0  0  0  0  0  0  0  0  0  0
    0.3627   -1.5022    1.6321 C   0  0  0  0  0  0  0  0  0  0  0  0
    0.7461   -2.5214    1.7736 H   0  0  0  0  0  0  0  0  0  0  0  0
    1.0893   -0.3786    2.1418 C   0  0  0  0  0  0  0  0  0  0  0  0
    2.0354   -0.5687    2.6690 H   0  0  0  0  0  0  0  0  0  0  0  0
    0.6489    0.9639    1.9563 C   0  0  0  0  0  0  0  0  0  0  0  0
    1.2298    1.8188    2.3253 H   0  0  0  0  0  0  0  0  0  0  0  0
   -0.5152    1.1162    1.1675 C   0  0  1  0  0  3  0  0  0  0  0  0
   -2.5765   -2.3004   -0.4213 C   0  0  0  0  0  0  0  0  0  0  0  0
   -3.0153   -3.3070   -0.5353 H   0  0  0  0  0  0  0  0  0  0  0  0
   -2.2118   -1.9354   -1.4017 H   0  0  0  0  0  0  0  0  0  0  0  0
   -3.3368   -1.5920   -0.0366 H   0  0  0  0  0  0  0  0  0  0  0  0
  1  4  2  0  0  0  0
  2  5  2  0  0  0  0
  3  7  1  0  0  0  0
  5  4  1  0  0  0  0
  6  5  1  6  0  0  0
  6  7  1  0  0  0  0
  6 14  1  0  0  0  0
  7  8  2  0  0  0  0
  8  9  1  0  0  0  0
  8 10  1  0  0  0  0
 10 11  1  0  0  0  0
 12 10  2  0  0  0  0
 12 13  1  0  0  0  0
 14  4  1  6  0  0  0
 14 12  1  0  0  0  0
 15 18  1  0  0  0  0
 15  3  1  0  0  0  0
 16 15  1  0  0  0  0
 17 15  1  0  0  0  0
M  END
