3
q = -1.0

 16 15  0  0  0  0  0  0  0  0999 V2000
   -3.4665    0.1379   -0.6651 O   0  0  0  0  0  0  0  0  0  0  0  0
   -3.2409   -2.0875   -0.3013 O   0  0  0  0  0  0  0  0  0  0  0  0
   -2.7416   -0.9875   -0.4037 C   0  0  0  0  0  3  0  0  0  0  0  0
   -4.9038   -0.0321   -0.7422 C   0  0  0  0  0  0  0  0  0  0  0  0
   -5.5355   -0.0232    0.6462 C   0  0  0  0  0  0  0  0  0  0  0  0
   -7.0660   -0.1412    0.6256 C   0  0  0  0  0  0  0  0  0  0  0  0
   -7.7914    1.0471   -0.0125 C   0  0  0  0  0  0  0  0  0  0  0  0
   -5.2477    0.8204   -1.3595 H   0  0  0  0  0  0  0  0  0  0  0  0
   -5.1314   -0.9817   -1.2698 H   0  0  0  0  0  0  0  0  0  0  0  0
   -5.2296    0.9087    1.1705 H   0  0  0  0  0  0  0  0  0  0  0  0
   -5.1071   -0.8705    1.2200 H   0  0  0  0  0  0  0  0  0  0  0  0
   -7.4191   -0.2648    1.6715 H   0  0  0  0  0  0  0  0  0  0  0  0
   -7.3527   -1.0805    0.1022 H   0  0  0  0  0  0  0  0  0  0  0  0
   -8.8919    0.9349    0.0610 H   0  0  0  0  0  0  0  0  0  0  0  0
   -7.5480    1.1599   -1.0890 H   0  0  0  0  0  0  0  0  0  0  0  0
   -7.5188    1.9996    0.4890 H   0  0  0  0  0  0  0  0  0  0  0  0
  1  3  1  0  0  0  0
  3  2  2  0  0  0  0
  4  1  1  0  0  0  0
  4  5  1  0  0  0  0
  5 10  1  0  0  0  0
  5 11  1  0  0  0  0
  6  5  1  0  0  0  0
  6 12  1  0  0  0  0
  7 14  1  0  0  0  0
  7 16  1  0  0  0  0
  7  6  1  0  0  0  0
  8  4  1  0  0  0  0
  9  4  1  0  0  0  0
 13  6  1  0  0  0  0
 15  7  1  0  0  0  0
M  END
