3
q = 0.0, confidence = 0.938

 26 26  0  0  0  0  0  0  0  0999 V2000
   -0.0571    2.8149   -0.1015 Si  0  0  0  0  0  0  0  0  0  0  0  0
   -0.0823    0.9661   -0.1159 C   0  0  0  0  0  3  0  0  0  0  0  0
   -0.7866   -0.1529   -0.0939 C   0  0  0  0  0  3  0  0  0  0  0  0
   -2.1618   -0.6193   -0.0701 C   0  0  0  0  0  0  0  0  0  0  0  0
   -3.2496    0.2802    0.0759 C   0  0  0  0  0  0  0  0  0  0  0  0
   -4.5684   -0.1856    0.1066 C   0  0  0  0  0  0  0  0  0  0  0  0
   -4.8374   -1.5616   -0.0107 C   0  0  0  0  0  0  0  0  0  0  0  0
   -3.7740   -2.4676   -0.1543 C   0  0  0  0  0  0  0  0  0  0  0  0
   -2.4526   -2.0016   -0.1791 C   0  0  0  0  0  0  0  0  0  0  0  0
   -0.4986    3.4064    1.6481 C   0  0  0  0  0  0  0  0  0  0  0  0
   -1.2738    3.5493   -1.3595 C   0  0  0  0  0  0  0  0  0  0  0  0
    1.6944    3.4039   -0.5316 C   0  0  0  0  0  0  0  0  0  0  0  0
   -3.0350    1.3555    0.1699 H   0  0  0  0  0  0  0  0  0  0  0  0
   -5.3987    0.5283    0.2232 H   0  0  0  0  0  0  0  0  0  0  0  0
   -5.8758   -1.9258    0.0129 H   0  0  0  0  0  0  0  0  0  0  0  0
   -3.9778   -3.5459   -0.2439 H   0  0  0  0  0  0  0  0  0  0  0  0
   -1.6109   -2.7041   -0.2859 H   0  0  0  0  0  0  0  0  0  0  0  0
   -1.5144    3.0661    1.9356 H   0  0  0  0  0  0  0  0  0  0  0  0
   -0.4739    4.5140    1.7153 H   0  0  0  0  0  0  0  0  0  0  0  0
    0.2165    3.0031    2.3941 H   0  0  0  0  0  0  0  0  0  0  0  0
   -2.3181    3.2494   -1.1384 H   0  0  0  0  0  0  0  0  0  0  0  0
   -1.0361    3.1991   -2.3849 H   0  0  0  0  0  0  0  0  0  0  0  0
   -1.2265    4.6585   -1.3574 H   0  0  0  0  0  0  0  0  0  0  0  0
    2.4337    2.9791    0.1788 H   0  0  0  0  0  0  0  0  0  0  0  0
    1.7783    4.5096   -0.4941 H   0  0  0  0  0  0  0  0  0  0  0  0
    1.9837    3.0761   -1.5515 H   0  0  0  0  0  0  0  0  0  0  0  0
  1 10  1  0  0  0  0
  2  1  1  0  0  0  0
  2  3  2  0  0  0  0
  3  4  1  0  0  0  0
  4  5  1  0  0  0  0
  5  6  2  0  0  0  0
  5 13  1  0  0  0  0
  6 14  1  0  0  0  0
  7 15  1  0  0  0  0
  7  6  1  0  0  0  0
  8  7  2  0  0  0  0
  9  8  1  0  0  0  0
  9  4  2  0  0  0  0
 10 19  1  0  0  0  0
 10 18  1  0  0  0  0
 10 20  1  0  0  0  0
 11 23  1  0  0  0  0
 11 21  1  0  0  0  0
 11  1  1  0  0  0  0
 12 25  1  0  0  0  0
 12  1  1  0  0  0  0
 12 24  1  0  0  0  0
 16  8  1  0  0  0  0
 17  9  1  0  0  0  0
 22 11  1  0  0  0  0
 26 12  1  0  0  0  0
M  END
