2
q = 0.0, confidence = 0.994

 37 37  0  0  0  0  0  0  0  0999 V2000
   -2.5912    0.7294    0.9449 C   0  0  0  0  0  3  0  0  0  0  0  0
   -2.6161    1.7090   -0.1071 C   0  0  0  0  0  3  0  0  0  0  0  0
   -1.3685    2.0953   -0.6702 C   0  0  0  0  0  3  0  0  0  0  0  0
   -0.1710    1.4932   -0.1526 C   0  0  0  0  0  3  0  0  0  0  0  0
    1.1198    1.6434   -0.8374 C   0  0  0  0  0  0  0  0  0  0  0  0
    2.2945    1.4025   -0.2716 C   0  0  0  0  0  0  0  0  0  0  0  0
    3.4585    1.1249    0.3058 C   0  0  0  0  0  0  0  0  0  0  0  0
    4.2480    2.2185    1.0113 C   0  0  0  0  0  0  0  0  0  0  0  0
    3.5654    3.5822    1.0623 C   0  0  0  0  0  0  0  0  0  0  0  0
    4.0099   -0.2606    0.2752 C   0  0  0  0  0  0  0  0  0  0  0  0
    3.2335   -1.3367   -0.2174 C   0  0  0  0  0  0  0  0  0  0  0  0
    3.7373   -2.6401   -0.2398 C   0  0  0  0  0  0  0  0  0  0  0  0
    5.0361   -2.9063    0.2292 C   0  0  0  0  0  0  0  0  0  0  0  0
    5.8183   -1.8519    0.7207 C   0  0  0  0  0  0  0  0  0  0  0  0
    5.3116   -0.5430    0.7465 C   0  0  0  0  0  0  0  0  0  0  0  0
   -3.8767    0.1227    1.3704 C   0  0  0  0  0  0  0  0  0  0  0  0
   -4.9383    0.2102    0.7726 O   0  0  0  0  0  0  0  0  0  0  0  0
   -3.7248   -0.5643    2.5326 O   0  0  0  0  0  0  0  0  0  0  0  0
   -4.9065   -1.2143    3.0119 C   0  0  0  0  0  0  0  0  0  0  0  0
   -1.8184    0.7583    1.7274 H   0  0  0  0  0  0  0  0  0  0  0  0
   -3.5748    2.0565   -0.5207 H   0  0  0  0  0  0  0  0  0  0  0  0
   -1.3390    2.7521   -1.5542 H   0  0  0  0  0  0  0  0  0  0  0  0
   -0.0982    1.3019    0.9291 H   0  0  0  0  0  0  0  0  0  0  0  0
    1.0909    1.9511   -1.9018 H   0  0  0  0  0  0  0  0  0  0  0  0
    5.2362    2.3098    0.5075 H   0  0  0  0  0  0  0  0  0  0  0  0
    4.4767    1.8655    2.0412 H   0  0  0  0  0  0  0  0  0  0  0  0
    4.1993    4.3199    1.5927 H   0  0  0  0  0  0  0  0  0  0  0  0
    2.5916    3.5258    1.5893 H   0  0  0  0  0  0  0  0  0  0  0  0
    3.3649    3.9721    0.0442 H   0  0  0  0  0  0  0  0  0  0  0  0
    2.2131   -1.1377   -0.5769 H   0  0  0  0  0  0  0  0  0  0  0  0
    3.1068   -3.4584   -0.6195 H   0  0  0  0  0  0  0  0  0  0  0  0
    5.4330   -3.9326    0.2141 H   0  0  0  0  0  0  0  0  0  0  0  0
    6.8364   -2.0460    1.0915 H   0  0  0  0  0  0  0  0  0  0  0  0
    5.9468    0.2645    1.1366 H   0  0  0  0  0  0  0  0  0  0  0  0
   -4.6127   -1.7447    3.9350 H   0  0  0  0  0  0  0  0  0  0  0  0
   -5.2958   -1.9302    2.2597 H   0  0  0  0  0  0  0  0  0  0  0  0
   -5.7050   -0.4756    3.2277 H   0  0  0  0  0  0  0  0  0  0  0  0
  1 16  1  0  0  0  0
  1 20  1  0  0  0  0
  2  1  1  0  0  0  0
  3  4  1  0  0  0  0
  3  2  1  0  0  0  0
  4 23  1  0  0  0  0
  5  6  2  0  0  0  0
  5  4  1  0  0  0  0
  6  7  2  0  0  0  0
  7  8  1  0  0  0  0
  8  9  1  0  0  0  0
  8 26  1  0  0  0  0
  9 28  1  0  0  0  0
  9 27  1  0  0  0  0
 10  7  1  0  0  0  0
 10 15  1  0  0  0  0
 11 10  2  0  0  0  0
 12 11  1  0  0  0  0
 12 13  2  0  0  0  0
 13 14  1  0  0  0  0
 14 15  2  0  0  0  0
 14 33  1  0  0  0  0
 15 34  1  0  0  0  0
 16 18  1  0  0  0  0
 17 16  2  0  0  0  0
 18 19  1  0  0  0  0
 19 37  1  0  0  0  0
 19 35  1  0  0  0  0
 21  2  1  0  0  0  0
 22  3  1  0  0  0  0
 24  5  1  0  0  0  0
 25  8  1  0  0  0  0
 29  9  1  0  0  0  0
 30 11  1  0  0  0  0
 31 12  1  0  0  0  0
 32 13  1  0  0  0  0
 36 19  1  0  0  0  0
M  END
