1
q = 0.0, confidence = 0.944

 15 14  0  0  0  0  0  0  0  0999 V2000
    1.4093    1.0492    1.4292 C   0  0  0  0  0  3  0  0  0  0  0  0
    2.7219    0.6819    0.9921 C   0  0  0  0  0  3  0  0  0  0  0  0
    3.6103    1.5982    0.1621 C   0  0  0  0  0  0  0  0  0  0  0  0
    4.6535    0.8211   -0.6483 C   0  0  0  0  0  0  0  0  0  0  0  0
    4.2827    2.6170    1.0998 C   0  0  0  0  0  0  0  0  0  0  0  0
    1.0526    0.7126    2.4168 H   0  0  0  0  0  0  0  0  0  0  0  0
    0.9882    2.0249    1.1373 H   0  0  0  0  0  0  0  0  0  0  0  0
    3.3007    0.0495    1.6906 H   0  0  0  0  0  0  0  0  0  0  0  0
    2.9596    2.1611   -0.5446 H   0  0  0  0  0  0  0  0  0  0  0  0
    5.3016    1.5084   -1.2267 H   0  0  0  0  0  0  0  0  0  0  0  0
    5.3145    0.2328    0.0231 H   0  0  0  0  0  0  0  0  0  0  0  0
    4.1832    0.1187   -1.3652 H   0  0  0  0  0  0  0  0  0  0  0  0
    3.5343    3.2036    1.6686 H   0  0  0  0  0  0  0  0  0  0  0  0
    4.9427    2.1075    1.8325 H   0  0  0  0  0  0  0  0  0  0  0  0
    4.9096    3.3258    0.5224 H   0  0  0  0  0  0  0  0  0  0  0  0
  1  6  1  0  0  0  0
  2  1  1  0  0  0  0
  2  8  1  0  0  0  0
  3  2  1  0  0  0  0
  3  5  1  0  0  0  0
  4 11  1  0  0  0  0
  4  3  1  0  0  0  0
  5 13  1  0  0  0  0
  5 14  1  0  0  0  0
  7  1  1  0  0  0  0
  9  3  1  0  0  0  0
 10  4  1  0  0  0  0
 12  4  1  0  0  0  0
 15  5  1  0  0  0  0
M  END
