3
q = 0.0, confidence = 0.994

 73 75  0  0  0  0  0  0  0  0999 V2000
    1.1844    0.8392    1.2190 N   0  0  0  0  0  0  0  0  0  0  0  0
   -1.1491    1.0603    1.1205 N   0  0  0  0  0  0  0  0  0  0  0  0
    0.0004    0.5246    0.6477 C   0  0  0  0  0  2  0  0  0  0  0  0
    1.3304    1.4627    2.5502 C   0  0  0  0  0  0  0  0  0  0  0  0
    2.3536    1.2372    2.9044 H   0  0  0  0  0  0  0  0  0  0  0  0
    0.6352    0.9405    3.2420 H   0  0  0  0  0  0  0  0  0  0  0  0
    1.0654    2.9655    2.5624 C   0  0  0  0  0  0  0  0  0  0  0  0
    1.9010    3.5075    2.0742 H   0  0  0  0  0  0  0  0  0  0  0  0
    1.0512    3.2997    3.6215 H   0  0  0  0  0  0  0  0  0  0  0  0
   -0.2634    3.3103    1.8690 C   0  0  0  0  0  0  0  0  0  0  0  0
   -0.6661    4.2630    2.2687 H   0  0  0  0  0  0  0  0  0  0  0  0
   -0.1007    3.4837    0.7844 H   0  0  0  0  0  0  0  0  0  0  0  0
   -1.3393    2.2351    2.0145 C   0  0  0  0  0  0  0  0  0  0  0  0
   -1.4522    1.9047    3.0715 H   0  0  0  0  0  0  0  0  0  0  0  0
   -2.3202    2.6585    1.7253 H   0  0  0  0  0  0  0  0  0  0  0  0
    2.3945    0.3617    0.5838 C   0  0  0  0  0  0  0  0  0  0  0  0
    2.9374   -0.8838    0.9904 C   0  0  0  0  0  0  0  0  0  0  0  0
    4.1431   -1.2991    0.3965 C   0  0  0  0  0  0  0  0  0  0  0  0
    4.5816   -2.2654    0.6882 H   0  0  0  0  0  0  0  0  0  0  0  0
    4.7794   -0.5165   -0.5741 C   0  0  0  0  0  0  0  0  0  0  0  0
    5.7186   -0.8634   -1.0308 H   0  0  0  0  0  0  0  0  0  0  0  0
    4.2104    0.6958   -0.9797 C   0  0  0  0  0  0  0  0  0  0  0  0
    4.7023    1.2920   -1.7632 H   0  0  0  0  0  0  0  0  0  0  0  0
    3.0097    1.1610   -0.4114 C   0  0  0  0  0  0  0  0  0  0  0  0
    2.2361   -1.7861    1.9983 C   0  0  0  0  0  0  0  0  0  0  0  0
    1.2600   -1.3199    2.2431 H   0  0  0  0  0  0  0  0  0  0  0  0
    1.9312   -3.1656    1.3889 C   0  0  0  0  0  0  0  0  0  0  0  0
    1.3639   -3.0686    0.4404 H   0  0  0  0  0  0  0  0  0  0  0  0
    1.3307   -3.7765    2.0930 H   0  0  0  0  0  0  0  0  0  0  0  0
    2.8617   -3.7277    1.1682 H   0  0  0  0  0  0  0  0  0  0  0  0
    3.0387   -1.9118    3.3049 C   0  0  0  0  0  0  0  0  0  0  0  0
    2.4952   -2.5400    4.0402 H   0  0  0  0  0  0  0  0  0  0  0  0
    3.2265   -0.9232    3.7714 H   0  0  0  0  0  0  0  0  0  0  0  0
    4.0256   -2.3859    3.1242 H   0  0  0  0  0  0  0  0  0  0  0  0
    2.3756    2.4489   -0.9193 C   0  0  0  0  0  0  0  0  0  0  0  0
    1.5144    2.6715   -0.2597 H   0  0  0  0  0  0  0  0  0  0  0  0
    1.8154    2.2497   -2.3388 C   0  0  0  0  0  0  0  0  0  0  0  0
    1.1059    1.3975   -2.3698 H   0  0  0  0  0  0  0  0  0  0  0  0
    2.6265    2.0326   -3.0639 H   0  0  0  0  0  0  0  0  0  0  0  0
    1.2835    3.1605   -2.6843 H   0  0  0  0  0  0  0  0  0  0  0  0
    3.3339    3.6472   -0.8446 C   0  0  0  0  0  0  0  0  0  0  0  0
    3.7220    3.7958    0.1840 H   0  0  0  0  0  0  0  0  0  0  0  0
    2.8185    4.5783   -1.1574 H   0  0  0  0  0  0  0  0  0  0  0  0
    4.2086    3.5158   -1.5142 H   0  0  0  0  0  0  0  0  0  0  0  0
   -2.3858    0.5072    0.6053 C   0  0  0  0  0  0  0  0  0  0  0  0
   -2.9485    1.0505   -0.5775 C   0  0  0  0  0  0  0  0  0  0  0  0
   -4.1732    0.5187   -1.0206 C   0  0  0  0  0  0  0  0  0  0  0  0
   -4.6280    0.9117   -1.9424 H   0  0  0  0  0  0  0  0  0  0  0  0
   -4.8111   -0.5127   -0.3209 C   0  0  0  0  0  0  0  0  0  0  0  0
   -5.7655   -0.9176   -0.6896 H   0  0  0  0  0  0  0  0  0  0  0  0
   -4.2284   -1.0412    0.8367 C   0  0  0  0  0  0  0  0  0  0  0  0
   -4.7262   -1.8665    1.3679 H   0  0  0  0  0  0  0  0  0  0  0  0
   -3.0066   -0.5419    1.3254 C   0  0  0  0  0  0  0  0  0  0  0  0
   -2.2587    2.1507   -1.3749 C   0  0  0  0  0  0  0  0  0  0  0  0
   -1.2506    2.2947   -0.9362 H   0  0  0  0  0  0  0  0  0  0  0  0
   -2.0513    1.7424   -2.8430 C   0  0  0  0  0  0  0  0  0  0  0  0
   -1.5218    0.7702   -2.9185 H   0  0  0  0  0  0  0  0  0  0  0  0
   -1.4501    2.5075   -3.3751 H   0  0  0  0  0  0  0  0  0  0  0  0
   -3.0165    1.6442   -3.3810 H   0  0  0  0  0  0  0  0  0  0  0  0
   -3.0161    3.4858   -1.2627 C   0  0  0  0  0  0  0  0  0  0  0  0
   -3.1279    3.8118   -0.2082 H   0  0  0  0  0  0  0  0  0  0  0  0
   -4.0355    3.4036   -1.6933 H   0  0  0  0  0  0  0  0  0  0  0  0
   -2.4823    4.2874   -1.8135 H   0  0  0  0  0  0  0  0  0  0  0  0
   -2.3467   -1.1758    2.5433 C   0  0  0  0  0  0  0  0  0  0  0  0
   -1.5015   -0.5210    2.8409 H   0  0  0  0  0  0  0  0  0  0  0  0
   -3.2944   -1.2784    3.7476 C   0  0  0  0  0  0  0  0  0  0  0  0
   -3.7166   -0.2899    4.0198 H   0  0  0  0  0  0  0  0  0  0  0  0
   -2.7577   -1.6804    4.6312 H   0  0  0  0  0  0  0  0  0  0  0  0
   -4.1445   -1.9613    3.5438 H   0  0  0  0  0  0  0  0  0  0  0  0
   -1.7484   -2.5434    2.1678 C   0  0  0  0  0  0  0  0  0  0  0  0
   -1.0508   -2.4508    1.3107 H   0  0  0  0  0  0  0  0  0  0  0  0
   -2.5441   -3.2569    1.8702 H   0  0  0  0  0  0  0  0  0  0  0  0
   -1.1961   -2.9834    3.0239 H   0  0  0  0  0  0  0  0  0  0  0  0
  1  4  1  0  0  0  0
  2 13  1  0  0  0  0
  3  2  1  0  0  0  0
  3  1  1  0  0  0  0
  4  7  1  0  0  0  0
  4  5  1  0  0  0  0
  4  6  1  0  0  0  0
  7  9  1  0  0  0  0
  8  7  1  0  0  0  0
 10 13  1  0  0  0  0
 10 11  1  0  0  0  0
 10  7  1  0  0  0  0
 12 10  1  0  0  0  0
 13 14  1  0  0  0  0
 15 13  1  0  0  0  0
 16 17  1  0  0  0  0
 16  1  1  0  0  0  0
 17 25  1  0  0  0  0
 18 19  1  0  0  0  0
 18 17  2  0  0  0  0
 20 18  1  0  0  0  0
 21 20  1  0  0  0  0
 22 20  2  0  0  0  0
 22 24  1  0  0  0  0
 23 22  1  0  0  0  0
 24 16  2  0  0  0  0
 25 26  1  0  0  0  0
 25 31  1  0  0  0  0
 27 25  1  0  0  0  0
 27 29  1  0  0  0  0
 28 27  1  0  0  0  0
 30 27  1  0  0  0  0
 31 33  1  0  0  0  0
 31 32  1  0  0  0  0
 34 31  1  0  0  0  0
 35 41  1  0  0  0  0
 35 24  1  0  0  0  0
 35 36  1  0  0  0  0
 37 35  1  0  0  0  0
 38 37  1  0  0  0  0
 39 37  1  0  0  0  0
 40 37  1  0  0  0  0
 41 42  1  0  0  0  0
 43 41  1  0  0  0  0
 44 41  1  0  0  0  0
 45  2  1  0  0  0  0
 45 53  1  0  0  0  0
 46 45  2  0  0  0  0
 47 46  1  0  0  0  0
 47 49  2  0  0  0  0
 48 47  1  0  0  0  0
 49 51  1  0  0  0  0
 50 49  1  0  0  0  0
 51 53  2  0  0  0  0
 51 52  1  0  0  0  0
 53 64  1  0  0  0  0
 54 60  1  0  0  0  0
 54 55  1  0  0  0  0
 54 46  1  0  0  0  0
 56 54  1  0  0  0  0
 57 56  1  0  0  0  0
 58 56  1  0  0  0  0
 59 56  1  0  0  0  0
 60 61  1  0  0  0  0
 62 60  1  0  0  0  0
 63 60  1  0  0  0  0
 64 65  1  0  0  0  0
 64 66  1  0  0  0  0
 66 67  1  0  0  0  0
 66 68  1  0  0  0  0
 69 66  1  0  0  0  0
 70 64  1  0  0  0  0
 70 73  1  0  0  0  0
 71 70  1  0  0  0  0
 72 70  1  0  0  0  0
M  END
