4
q = 0.0, confidence = 1.0

 30 33  0  0  0  0  0  0  0  0999 V2000
    0.3523    2.0815   -0.0191 N   0  0  0  0  0  0  0  0  0  0  0  0
   -0.4495    3.1711   -0.2289 N   0  0  0  0  0  0  0  0  0  0  0  0
   -1.6262    1.2705   -0.0537 N   0  0  0  0  0  0  0  0  0  0  0  0
   -0.3036    0.8855    0.0794 C   0  0  0  0  0  2  0  0  0  0  0  0
   -1.6693    2.6639   -0.2459 C   0  0  0  0  0  0  0  0  0  0  0  0
   -2.9187    3.3343   -0.4253 C   0  0  0  0  0  0  0  0  0  0  0  0
   -2.9067    4.4226   -0.5667 H   0  0  0  0  0  0  0  0  0  0  0  0
   -4.0687    2.5916   -0.4111 C   0  0  0  0  0  0  0  0  0  0  0  0
   -5.0463    3.0783   -0.5454 H   0  0  0  0  0  0  0  0  0  0  0  0
   -4.0406    1.1594   -0.2162 C   0  0  0  0  0  0  0  0  0  0  0  0
   -2.7953    0.4843   -0.0291 C   0  0  0  0  0  0  0  0  0  0  0  0
   -2.7541   -0.9060    0.1721 C   0  0  0  0  0  0  0  0  0  0  0  0
   -1.7674   -1.3876    0.3194 H   0  0  0  0  0  0  0  0  0  0  0  0
   -3.9440   -1.6366    0.1832 C   0  0  0  0  0  0  0  0  0  0  0  0
   -3.9035   -2.7245    0.3440 H   0  0  0  0  0  0  0  0  0  0  0  0
   -5.1852   -0.9941   -0.0018 C   0  0  0  0  0  0  0  0  0  0  0  0
   -6.1175   -1.5779    0.0118 H   0  0  0  0  0  0  0  0  0  0  0  0
   -5.2280    0.3858   -0.1975 C   0  0  0  0  0  0  0  0  0  0  0  0
   -6.1904    0.9006   -0.3395 H   0  0  0  0  0  0  0  0  0  0  0  0
    1.7685    2.2642    0.0465 C   0  0  0  0  0  0  0  0  0  0  0  0
    2.5246    1.5292    0.9757 C   0  0  0  0  0  0  0  0  0  0  0  0
    2.0152    0.8578    1.6854 H   0  0  0  0  0  0  0  0  0  0  0  0
    3.9182    1.6882    0.9868 C   0  0  0  0  0  0  0  0  0  0  0  0
    4.5167    1.1167    1.7121 H   0  0  0  0  0  0  0  0  0  0  0  0
    4.5438    2.5776    0.0979 C   0  0  0  0  0  0  0  0  0  0  0  0
    5.6377    2.6960    0.1139 H   0  0  0  0  0  0  0  0  0  0  0  0
    3.7691    3.3285   -0.8020 C   0  0  0  0  0  0  0  0  0  0  0  0
    4.2527    4.0352   -1.4929 H   0  0  0  0  0  0  0  0  0  0  0  0
    2.3759    3.1766   -0.8319 C   0  0  0  0  0  0  0  0  0  0  0  0
    1.7489    3.7516   -1.5271 H   0  0  0  0  0  0  0  0  0  0  0  0
  1 20  1  0  0  0  0
  1  4  1  0  0  0  0
  2  1  1  0  0  0  0
  3 11  1  0  0  0  0
  3  4  1  0  0  0  0
  5  2  2  0  0  0  0
  5  3  1  0  0  0  0
  6  8  2  0  0  0  0
  6  5  1  0  0  0  0
  7  6  1  0  0  0  0
  8 10  1  0  0  0  0
  9  8  1  0  0  0  0
 10 18  2  0  0  0  0
 10 11  1  0  0  0  0
 11 12  2  0  0  0  0
 12 14  1  0  0  0  0
 12 13  1  0  0  0  0
 14 15  1  0  0  0  0
 16 17  1  0  0  0  0
 16 14  2  0  0  0  0
 18 16  1  0  0  0  0
 19 18  1  0  0  0  0
 20 21  1  0  0  0  0
 21 23  2  0  0  0  0
 21 22  1  0  0  0  0
 23 24  1  0  0  0  0
 25 26  1  0  0  0  0
 25 23  1  0  0  0  0
 27 25  2  0  0  0  0
 28 27  1  0  0  0  0
 29 27  1  0  0  0  0
 29 20  2  0  0  0  0
 30 29  1  0  0  0  0
M  END
