2
q = -1.0

 13 12  0  0  0  0  0  0  0  0999 V2000
   -6.9038   -0.6490   -0.2227 Cl  0  0  0  0  0  0  0  0  0  0  0  0
   -1.8884    1.0699   -0.4644 C   0  0  0  0  0  3  0  0  0  0  0  0
   -2.2250    1.9200    0.1614 H   0  0  0  0  0  0  0  0  0  0  0  0
   -2.0191    1.3967   -1.5157 H   0  0  0  0  0  0  0  0  0  0  0  0
   -2.7704   -0.1439   -0.1770 C   0  0  0  0  0  0  0  0  0  0  0  0
   -2.5932   -0.5430    0.8426 H   0  0  0  0  0  0  0  0  0  0  0  0
   -2.5127   -0.9797   -0.8578 H   0  0  0  0  0  0  0  0  0  0  0  0
   -4.2648    0.1857   -0.3287 C   0  0  0  0  0  0  0  0  0  0  0  0
   -4.5543    0.9930    0.3789 H   0  0  0  0  0  0  0  0  0  0  0  0
   -4.4688    0.5799   -1.3474 H   0  0  0  0  0  0  0  0  0  0  0  0
   -5.1403   -1.0319   -0.0780 C   0  0  0  0  0  0  0  0  0  0  0  0
   -4.9874   -1.4397    0.9413 H   0  0  0  0  0  0  0  0  0  0  0  0
   -4.9296   -1.8406   -0.8056 H   0  0  0  0  0  0  0  0  0  0  0  0
  1 11  1  0  0  0  0
  2  5  1  0  0  0  0
  2  3  1  0  0  0  0
  4  2  1  0  0  0  0
  5  6  1  0  0  0  0
  7  5  1  0  0  0  0
  8  5  1  0  0  0  0
  8 11  1  0  0  0  0
  8  9  1  0  0  0  0
 10  8  1  0  0  0  0
 11 12  1  0  0  0  0
 13 11  1  0  0  0  0
M  END
