3
q = -1.0

 17 18  0  0  0  0  0  0  0  0999 V2000
   -5.1656   -2.8279    0.9283 Br  0  0  0  0  0  0  0  0  0  0  0  0
   -3.1205    3.7310   -1.6437 Br  0  0  0  0  0  0  0  0  0  0  0  0
   -0.9087   -0.7405    0.3203 C   0  0  0  0  0  3  0  0  0  0  0  0
   -1.0723   -2.0091    0.8796 C   0  0  0  0  0  0  0  0  0  0  0  0
   -0.1979   -2.5680    1.2368 H   0  0  0  0  0  0  0  0  0  0  0  0
   -2.3354   -2.6245    1.0507 C   0  0  0  0  0  0  0  0  0  0  0  0
   -2.3971   -3.6295    1.4918 H   0  0  0  0  0  0  0  0  0  0  0  0
   -3.4859   -1.9553    0.6734 C   0  0  0  0  0  0  0  0  0  0  0  0
   -4.5848    0.0906   -0.2481 C   0  0  0  0  0  0  0  0  0  0  0  0
   -5.5628   -0.3890   -0.0993 H   0  0  0  0  0  0  0  0  0  0  0  0
   -4.5189    1.3718   -0.7666 C   0  0  0  0  0  0  0  0  0  0  0  0
   -5.4305    1.9236   -1.0342 H   0  0  0  0  0  0  0  0  0  0  0  0
   -3.2429    1.9596   -0.9470 C   0  0  0  0  0  0  0  0  0  0  0  0
   -2.0833    1.2800   -0.6216 C   0  0  0  0  0  0  0  0  0  0  0  0
   -1.1139    1.7432   -0.8195 H   0  0  0  0  0  0  0  0  0  0  0  0
   -3.4171   -0.6425    0.1172 C   0  0  0  0  0  0  0  0  0  0  0  0
   -2.1048   -0.0346   -0.0703 C   0  0  0  0  0  0  0  0  0  0  0  0
  2 13  1  0  0  0  0
  3  4  1  0  0  0  0
  4  6  2  0  0  0  0
  4  5  1  0  0  0  0
  6  7  1  0  0  0  0
  8  1  1  0  0  0  0
  8  6  1  0  0  0  0
  9 10  1  0  0  0  0
  9 16  1  0  0  0  0
 11  9  2  0  0  0  0
 12 11  1  0  0  0  0
 13 11  1  0  0  0  0
 13 14  2  0  0  0  0
 14 17  1  0  0  0  0
 15 14  1  0  0  0  0
 16  8  2  0  0  0  0
 17 16  1  0  0  0  0
 17  3  2  0  0  0  0
M  END
