2
q = -1.0

 39 42  0  0  1  0  0  0  0  0999 V2000
    0.0018   -0.6640    1.8518 S   0  0  0  0  0  0  0  0  0  0  0  0
    1.2629    0.4768   -0.6587 C   0  0  2  0  0  3  0  0  0  0  0  0
    0.6793   -0.0662   -1.8703 C   0  0  0  0  0  0  0  0  0  0  0  0
   -0.3719    0.8443   -2.2715 C   0  0  0  0  0  0  0  0  0  0  0  0
   -1.0121    0.7124   -3.1527 H   0  0  0  0  0  0  0  0  0  0  0  0
   -0.2479    2.0751   -1.4925 C   0  0  0  0  0  0  0  0  0  0  0  0
   -0.9463    3.3047   -1.5263 C   0  0  0  0  0  0  0  0  0  0  0  0
   -1.7246    3.4844   -2.2821 H   0  0  0  0  0  0  0  0  0  0  0  0
   -0.6076    4.2890   -0.5939 C   0  0  0  0  0  0  0  0  0  0  0  0
   -1.1232    5.2607   -0.6254 H   0  0  0  0  0  0  0  0  0  0  0  0
    0.4012    4.0772    0.3819 C   0  0  0  0  0  0  0  0  0  0  0  0
    0.6502    4.8868    1.0835 H   0  0  0  0  0  0  0  0  0  0  0  0
    1.0914    2.8649    0.4482 C   0  0  0  0  0  0  0  0  0  0  0  0
    1.8930    2.7007    1.1840 H   0  0  0  0  0  0  0  0  0  0  0  0
    0.7712    1.8590   -0.4918 C   0  0  0  0  0  0  0  0  0  0  0  0
    2.2389   -0.1572    0.2681 C   0  0  0  0  0  0  0  0  0  0  0  0
    1.7848   -0.6585    1.4907 C   0  0  0  0  0  0  0  0  0  0  0  0
    2.6671   -1.2378    2.4396 C   0  0  0  0  0  0  0  0  0  0  0  0
    2.2696   -1.6525    3.3780 H   0  0  0  0  0  0  0  0  0  0  0  0
    4.0220   -1.2966    2.1559 C   0  0  0  0  0  0  0  0  0  0  0  0
    4.7159   -1.7502    2.8798 H   0  0  0  0  0  0  0  0  0  0  0  0
    4.5414   -0.7935    0.9269 C   0  0  0  0  0  0  0  0  0  0  0  0
    5.9320   -0.8509    0.6199 C   0  0  0  0  0  0  0  0  0  0  0  0
    6.6177   -1.3019    1.3531 H   0  0  0  0  0  0  0  0  0  0  0  0
    6.4155   -0.3456   -0.5775 C   0  0  0  0  0  0  0  0  0  0  0  0
    7.4913   -0.3949   -0.8015 H   0  0  0  0  0  0  0  0  0  0  0  0
    5.5280    0.2420   -1.5184 C   0  0  0  0  0  0  0  0  0  0  0  0
    5.9250    0.6469   -2.4611 H   0  0  0  0  0  0  0  0  0  0  0  0
    4.1678    0.3099   -1.2555 C   0  0  0  0  0  0  0  0  0  0  0  0
    3.4863    0.7727   -1.9846 H   0  0  0  0  0  0  0  0  0  0  0  0
    3.6386   -0.2082   -0.0371 C   0  0  0  0  0  0  0  0  0  0  0  0
   -0.1251    0.6843    3.0833 C   0  0  0  0  0  0  0  0  0  0  0  0
    0.4984    0.4306    3.9612 H   0  0  0  0  0  0  0  0  0  0  0  0
   -1.1895    0.7236    3.3839 H   0  0  0  0  0  0  0  0  0  0  0  0
    0.1853    1.6485    2.6403 H   0  0  0  0  0  0  0  0  0  0  0  0
    1.1307   -1.2835   -2.6059 C   0  0  0  0  0  0  0  0  0  0  0  0
    1.7999   -0.9721   -3.4357 H   0  0  0  0  0  0  0  0  0  0  0  0
    0.2829   -1.8395   -3.0473 H   0  0  0  0  0  0  0  0  0  0  0  0
    1.7140   -1.9622   -1.9560 H   0  0  0  0  0  0  0  0  0  0  0  0
  1 32  1  0  0  0  0
  2 15  1  0  0  0  0
  2 16  1  6  0  0  0
  3  2  1  0  0  0  0
  4  3  2  0  0  0  0
  4  6  1  0  0  0  0
  5  4  1  0  0  0  0
  6 15  1  0  0  0  0
  7  6  2  0  0  0  0
  7  9  1  0  0  0  0
  8  7  1  0  0  0  0
  9 11  2  0  0  0  0
 10  9  1  0  0  0  0
 11 13  1  0  0  0  0
 11 12  1  0  0  0  0
 13 14  1  0  0  0  0
 15 13  2  0  0  0  0
 16 17  1  0  0  0  0
 17  1  1  0  0  0  0
 17 18  2  0  0  0  0
 18 19  1  0  0  0  0
 20 18  1  0  0  0  0
 20 21  1  0  0  0  0
 22 20  2  0  0  0  0
 23 22  1  0  0  0  0
 23 24  1  0  0  0  0
 25 23  2  0  0  0  0
 26 25  1  0  0  0  0
 27 29  2  0  0  0  0
 27 25  1  0  0  0  0
 28 27  1  0  0  0  0
 29 31  1  0  0  0  0
 30 29  1  0  0  0  0
 31 16  2  0  0  0  0
 31 22  1  0  0  0  0
 32 34  1  0  0  0  0
 32 33  1  0  0  0  0
 35 32  1  0  0  0  0
 36 39  1  0  0  0  0
 36  3  1  0  0  0  0
 37 36  1  0  0  0  0
 38 36  1  0  0  0  0
M  END
