4
q = -1.0

 41 42  0  0  0  0  0  0  0  0999 V2000
   -2.0118   -0.0892    0.3190 Si  0  0  0  0  0  0  0  0  0  0  0  0
   -1.7131   -0.2539    1.9934 O   0  0  0  0  0  0  0  0  0  0  0  0
   -0.5256   -0.8427   -0.5104 C   0  0  0  0  0  3  0  0  0  0  0  0
    0.2700   -1.7927    0.2163 C   0  0  0  0  0  3  0  0  0  0  0  0
    1.2267   -2.6291   -0.4446 C   0  0  0  0  0  3  0  0  0  0  0  0
    2.0884   -3.5267    0.4173 C   0  0  0  0  0  0  0  0  0  0  0  0
    0.9423   -3.1961   -1.8214 C   0  0  0  0  0  0  0  0  0  0  0  0
   -2.6823   -0.0049    2.9926 C   0  0  0  0  0  0  0  0  0  0  0  0
   -3.5419   -1.1406   -0.0488 C   0  0  0  0  0  0  0  0  0  0  0  0
   -3.6304   -2.4409    0.5019 C   0  0  0  0  0  0  0  0  0  0  0  0
   -4.7297   -3.2682    0.2303 C   0  0  0  0  0  0  0  0  0  0  0  0
   -5.7628   -2.8100   -0.6048 C   0  0  0  0  0  0  0  0  0  0  0  0
   -5.6914   -1.5241   -1.1625 C   0  0  0  0  0  0  0  0  0  0  0  0
   -4.5910   -0.6970   -0.8837 C   0  0  0  0  0  0  0  0  0  0  0  0
   -2.3809    1.6945   -0.1680 C   0  0  0  0  0  0  0  0  0  0  0  0
   -3.4574    2.3956    0.4252 C   0  0  0  0  0  0  0  0  0  0  0  0
   -3.7208    3.7338    0.0938 C   0  0  0  0  0  0  0  0  0  0  0  0
   -2.9198    4.3931   -0.8531 C   0  0  0  0  0  0  0  0  0  0  0  0
   -1.8612    3.7069   -1.4693 C   0  0  0  0  0  0  0  0  0  0  0  0
   -1.5939    2.3719   -1.1259 C   0  0  0  0  0  0  0  0  0  0  0  0
   -0.7414   -1.0864   -1.5651 H   0  0  0  0  0  0  0  0  0  0  0  0
    0.1828   -1.8461    1.3145 H   0  0  0  0  0  0  0  0  0  0  0  0
    3.0998   -3.6562   -0.0189 H   0  0  0  0  0  0  0  0  0  0  0  0
    1.6346   -4.5404    0.4863 H   0  0  0  0  0  0  0  0  0  0  0  0
    2.1999   -3.1308    1.4450 H   0  0  0  0  0  0  0  0  0  0  0  0
    0.3777   -2.4958   -2.4639 H   0  0  0  0  0  0  0  0  0  0  0  0
    0.3406   -4.1262   -1.7125 H   0  0  0  0  0  0  0  0  0  0  0  0
    1.8770   -3.4679   -2.3504 H   0  0  0  0  0  0  0  0  0  0  0  0
   -2.8160    1.0864    3.1757 H   0  0  0  0  0  0  0  0  0  0  0  0
   -2.3421   -0.4686    3.9424 H   0  0  0  0  0  0  0  0  0  0  0  0
   -3.6753   -0.4381    2.7332 H   0  0  0  0  0  0  0  0  0  0  0  0
   -2.8226   -2.8093    1.1558 H   0  0  0  0  0  0  0  0  0  0  0  0
   -4.7828   -4.2767    0.6693 H   0  0  0  0  0  0  0  0  0  0  0  0
   -6.6257   -3.4587   -0.8212 H   0  0  0  0  0  0  0  0  0  0  0  0
   -6.4990   -1.1619   -1.8176 H   0  0  0  0  0  0  0  0  0  0  0  0
   -4.5469    0.3126   -1.3228 H   0  0  0  0  0  0  0  0  0  0  0  0
   -4.1101    1.8885    1.1541 H   0  0  0  0  0  0  0  0  0  0  0  0
   -4.5586    4.2643    0.5723 H   0  0  0  0  0  0  0  0  0  0  0  0
   -3.1274    5.4417   -1.1166 H   0  0  0  0  0  0  0  0  0  0  0  0
   -1.2377    4.2119   -2.2233 H   0  0  0  0  0  0  0  0  0  0  0  0
   -0.7561    1.8497   -1.6088 H   0  0  0  0  0  0  0  0  0  0  0  0
  1  2  1  0  0  0  0
  2  8  1  0  0  0  0
  3  4  1  0  0  0  0
  3  1  1  0  0  0  0
  4 22  1  0  0  0  0
  5  4  1  0  0  0  0
  5  6  1  0  0  0  0
  6 24  1  0  0  0  0
  6 25  1  0  0  0  0
  7 27  1  0  0  0  0
  7  5  1  0  0  0  0
  8 29  1  0  0  0  0
  8 30  1  0  0  0  0
  9  1  1  0  0  0  0
  9 10  1  0  0  0  0
 10 32  1  0  0  0  0
 11 10  2  0  0  0  0
 11 33  1  0  0  0  0
 12 11  1  0  0  0  0
 13 14  1  0  0  0  0
 13 12  2  0  0  0  0
 14  9  2  0  0  0  0
 15  1  1  0  0  0  0
 15 16  1  0  0  0  0
 16 37  1  0  0  0  0
 17 16  2  0  0  0  0
 17 38  1  0  0  0  0
 18 17  1  0  0  0  0
 19 20  1  0  0  0  0
 19 18  2  0  0  0  0
 20 15  2  0  0  0  0
 21  3  1  0  0  0  0
 23  6  1  0  0  0  0
 26  7  1  0  0  0  0
 28  7  1  0  0  0  0
 31  8  1  0  0  0  0
 34 12  1  0  0  0  0
 35 13  1  0  0  0  0
 36 14  1  0  0  0  0
 39 18  1  0  0  0  0
 40 19  1  0  0  0  0
 41 20  1  0  0  0  0
M  END
