6
q = -1.0

 25 27  0  0  0  0  0  0  0  0999 V2000
   -2.5233   -1.2219   -0.5984 C   0  0  0  0  0  0  0  0  0  0  0  0
   -2.3226   -0.2661   -1.6557 N   0  0  0  0  0  0  0  0  0  0  0  0
   -3.3407    0.0702   -2.4958 N   0  0  0  0  0  0  0  0  0  0  0  0
   -2.7723    0.9280   -3.3537 C   0  0  0  0  0  0  0  0  0  0  0  0
   -1.3955    1.1307   -3.0645 C   0  0  0  0  0  0  0  0  0  0  0  0
   -1.1113    0.3341   -1.9456 C   0  0  0  0  0  3  0  0  0  0  0  0
   -3.6142   -0.8726    0.2933 N   0  0  0  0  0  0  0  0  0  0  0  0
   -3.3427   -0.7717    1.6159 N   0  0  0  0  0  0  0  0  0  0  0  0
   -4.5242   -0.5025    2.1809 C   0  0  0  0  0  0  0  0  0  0  0  0
   -5.5676   -0.4349    1.2176 C   0  0  0  0  0  0  0  0  0  0  0  0
   -4.9395   -0.6820    0.0022 C   0  0  0  0  0  0  0  0  0  0  0  0
   -2.6351   -2.5831   -1.1119 N   0  0  0  0  0  0  0  0  0  0  0  0
   -2.0247   -3.5803   -0.4334 N   0  0  0  0  0  0  0  0  0  0  0  0
   -2.3423   -4.6918   -1.1098 C   0  0  0  0  0  0  0  0  0  0  0  0
   -3.1679   -4.4081   -2.2300 C   0  0  0  0  0  0  0  0  0  0  0  0
   -3.3386   -3.0276   -2.1992 C   0  0  0  0  0  0  0  0  0  0  0  0
   -1.6111   -1.2006    0.0281 H   0  0  0  0  0  0  0  0  0  0  0  0
   -3.3803    1.3709   -4.1543 H   0  0  0  0  0  0  0  0  0  0  0  0
   -0.6878    1.7792   -3.5917 H   0  0  0  0  0  0  0  0  0  0  0  0
   -4.5826   -0.3565    3.2669 H   0  0  0  0  0  0  0  0  0  0  0  0
   -6.6302   -0.2259    1.3804 H   0  0  0  0  0  0  0  0  0  0  0  0
   -5.2915   -0.6985   -1.0335 H   0  0  0  0  0  0  0  0  0  0  0  0
   -1.9534   -5.6610   -0.7718 H   0  0  0  0  0  0  0  0  0  0  0  0
   -3.5739   -5.1072   -2.9684 H   0  0  0  0  0  0  0  0  0  0  0  0
   -3.8618   -2.3173   -2.8490 H   0  0  0  0  0  0  0  0  0  0  0  0
  1 17  1  0  0  0  0
  1  7  1  0  0  0  0
  2  1  1  0  0  0  0
  3  2  1  0  0  0  0
  4  5  1  0  0  0  0
  4  3  2  0  0  0  0
  5  6  2  0  0  0  0
  6  2  1  0  0  0  0
  7  8  1  0  0  0  0
  8  9  2  0  0  0  0
  9 20  1  0  0  0  0
 10 21  1  0  0  0  0
 10  9  1  0  0  0  0
 11  7  1  0  0  0  0
 11 10  2  0  0  0  0
 12  1  1  0  0  0  0
 12 13  1  0  0  0  0
 14 23  1  0  0  0  0
 14 13  2  0  0  0  0
 15 16  2  0  0  0  0
 15 14  1  0  0  0  0
 16 12  1  0  0  0  0
 18  4  1  0  0  0  0
 19  5  1  0  0  0  0
 22 11  1  0  0  0  0
 24 15  1  0  0  0  0
 25 16  1  0  0  0  0
M  END
