35
q = -1.0

 53 55  0  0  0  0  0  0  0  0999 V2000
    2.5689    0.1079    0.9233 P   0  0  0  0  0  0  0  0  0  0  0  0
    0.0222   -0.6643    0.2235 C   0  0  0  0  0  0  0  0  0  0  0  0
    3.6855    1.4444    0.1820 C   0  0  0  0  0  0  0  0  0  0  0  0
    3.4675    1.5496   -0.9042 H   0  0  0  0  0  0  0  0  0  0  0  0
    2.9268   -1.4132   -0.1496 C   0  0  0  0  0  0  0  0  0  0  0  0
    1.9730   -1.9790   -0.0744 H   0  0  0  0  0  0  0  0  0  0  0  0
   -0.4009   -1.3024   -0.9844 C   0  0  0  0  0  0  0  0  0  0  0  0
   -0.3885   -0.8572   -1.9842 H   0  0  0  0  0  0  0  0  0  0  0  0
    5.1651    1.0355    0.3423 C   0  0  0  0  0  0  0  0  0  0  0  0
    5.3678    0.8361    1.4191 H   0  0  0  0  0  0  0  0  0  0  0  0
    5.3659    0.0860   -0.1912 H   0  0  0  0  0  0  0  0  0  0  0  0
    3.4508    2.8056    0.8679 C   0  0  0  0  0  0  0  0  0  0  0  0
    2.4065    3.1449    0.7194 H   0  0  0  0  0  0  0  0  0  0  0  0
    3.5811    2.6771    1.9664 H   0  0  0  0  0  0  0  0  0  0  0  0
    0.1992    1.4737    1.5230 C   0  0  0  0  0  0  0  0  0  0  0  0
    0.2915    0.9399    2.4890 H   0  0  0  0  0  0  0  0  0  0  0  0
   -0.8708    1.6929    1.3362 H   0  0  0  0  0  0  0  0  0  0  0  0
    0.7386    2.4339    1.6337 H   0  0  0  0  0  0  0  0  0  0  0  0
    0.7686    0.6413    0.3550 C   0  0  0  0  0  0  0  0  0  0  0  0
    5.8758    3.4670    0.5151 C   0  0  0  0  0  0  0  0  0  0  0  0
    6.1163    3.3777    1.5986 H   0  0  0  0  0  0  0  0  0  0  0  0
    6.5541    4.2454    0.1066 H   0  0  0  0  0  0  0  0  0  0  0  0
    0.7107    1.4506   -0.9479 C   0  0  0  0  0  0  0  0  0  0  0  0
    1.2111    2.4307   -0.8357 H   0  0  0  0  0  0  0  0  0  0  0  0
   -0.3466    1.6349   -1.2230 H   0  0  0  0  0  0  0  0  0  0  0  0
    1.1936    0.9250   -1.7931 H   0  0  0  0  0  0  0  0  0  0  0  0
   -0.2764   -1.5669    1.2916 C   0  0  0  0  0  0  0  0  0  0  0  0
   -0.0447   -1.3967    2.3482 H   0  0  0  0  0  0  0  0  0  0  0  0
    3.2139   -1.2183   -1.6474 C   0  0  0  0  0  0  0  0  0  0  0  0
    2.4102   -0.6201   -2.1215 H   0  0  0  0  0  0  0  0  0  0  0  0
    4.1546   -0.6403   -1.7822 H   0  0  0  0  0  0  0  0  0  0  0  0
    6.1261    2.1190   -0.1679 C   0  0  0  0  0  0  0  0  0  0  0  0
    5.9905    2.2349   -1.2671 H   0  0  0  0  0  0  0  0  0  0  0  0
    7.1764    1.7915   -0.0164 H   0  0  0  0  0  0  0  0  0  0  0  0
   -0.8347   -2.7621    0.7391 C   0  0  0  0  0  3  0  0  0  0  0  0
   -1.1495   -3.6517    1.2959 H   0  0  0  0  0  0  0  0  0  0  0  0
   -0.8997   -2.5949   -0.6690 C   0  0  0  0  0  0  0  0  0  0  0  0
   -1.3177   -3.3101   -1.3832 H   0  0  0  0  0  0  0  0  0  0  0  0
    4.4117    3.8894    0.3585 C   0  0  0  0  0  0  0  0  0  0  0  0
    4.2005    4.0847   -0.7172 H   0  0  0  0  0  0  0  0  0  0  0  0
    4.2197    4.8443    0.8920 H   0  0  0  0  0  0  0  0  0  0  0  0
    3.9924   -2.3118    0.5144 C   0  0  0  0  0  0  0  0  0  0  0  0
    4.9825   -1.8060    0.5071 H   0  0  0  0  0  0  0  0  0  0  0  0
    3.7349   -2.4655    1.5832 H   0  0  0  0  0  0  0  0  0  0  0  0
    4.1126   -3.6574   -0.2149 C   0  0  0  0  0  0  0  0  0  0  0  0
    4.9001   -4.2812    0.2585 H   0  0  0  0  0  0  0  0  0  0  0  0
    3.1566   -4.2170   -0.1001 H   0  0  0  0  0  0  0  0  0  0  0  0
    3.3462   -2.5694   -2.3680 C   0  0  0  0  0  0  0  0  0  0  0  0
    2.3608   -3.0872   -2.3395 H   0  0  0  0  0  0  0  0  0  0  0  0
    3.5849   -2.4088   -3.4408 H   0  0  0  0  0  0  0  0  0  0  0  0
    4.4035   -3.4630   -1.7084 C   0  0  0  0  0  0  0  0  0  0  0  0
    5.4054   -2.9905   -1.8258 H   0  0  0  0  0  0  0  0  0  0  0  0
    4.4599   -4.4441   -2.2254 H   0  0  0  0  0  0  0  0  0  0  0  0
  2 19  1  0  0  0  0
  2 27  2  0  0  0  0
  3  9  1  0  0  0  0
  3 12  1  0  0  0  0
  3  1  1  0  0  0  0
  4  3  1  0  0  0  0
  5  6  1  0  0  0  0
  5 42  1  0  0  0  0
  5  1  1  0  0  0  0
  7 37  2  0  0  0  0
  7  2  1  0  0  0  0
  8  7  1  0  0  0  0
  9 10  1  0  0  0  0
 11  9  1  0  0  0  0
 12 14  1  0  0  0  0
 13 12  1  0  0  0  0
 15 18  1  0  0  0  0
 15 16  1  0  0  0  0
 17 15  1  0  0  0  0
 19  1  1  0  0  0  0
 19 15  1  0  0  0  0
 20 21  1  0  0  0  0
 22 20  1  0  0  0  0
 23 24  1  0  0  0  0
 23 19  1  0  0  0  0
 25 23  1  0  0  0  0
 26 23  1  0  0  0  0
 27 28  1  0  0  0  0
 29  5  1  0  0  0  0
 30 29  1  0  0  0  0
 31 29  1  0  0  0  0
 32 34  1  0  0  0  0
 32  9  1  0  0  0  0
 32 20  1  0  0  0  0
 33 32  1  0  0  0  0
 35 27  1  0  0  0  0
 35 36  1  0  0  0  0
 37 35  1  0  0  0  0
 38 37  1  0  0  0  0
 39 20  1  0  0  0  0
 39 12  1  0  0  0  0
 39 41  1  0  0  0  0
 40 39  1  0  0  0  0
 42 44  1  0  0  0  0
 43 42  1  0  0  0  0
 45 47  1  0  0  0  0
 45 46  1  0  0  0  0
 45 42  1  0  0  0  0
 48 49  1  0  0  0  0
 48 51  1  0  0  0  0
 48 29  1  0  0  0  0
 50 48  1  0  0  0  0
 51 45  1  0  0  0  0
 52 51  1  0  0  0  0
 53 51  1  0  0  0  0
M  END
