2
q = -1.0

 10  9  0  0  0  0  0  0  0  0999 V2000
   -4.8751   -3.2611    0.3245 Cl  0  0  0  0  0  0  0  0  0  0  0  0
   -0.9158   -2.0370    0.0505 C   0  0  0  0  0  3  0  0  0  0  0  0
   -0.6160   -2.6415   -0.8239 H   0  0  0  0  0  0  0  0  0  0  0  0
   -0.4722   -2.5125    0.9507 H   0  0  0  0  0  0  0  0  0  0  0  0
   -2.4354   -1.9776    0.1320 C   0  0  0  0  0  0  0  0  0  0  0  0
   -2.7691   -1.4281    1.0357 H   0  0  0  0  0  0  0  0  0  0  0  0
   -2.8269   -1.4280   -0.7487 H   0  0  0  0  0  0  0  0  0  0  0  0
   -3.0680   -3.3622    0.1651 C   0  0  0  0  0  0  0  0  0  0  0  0
   -2.7105   -3.9618    1.0263 H   0  0  0  0  0  0  0  0  0  0  0  0
   -2.8634   -3.9297   -0.7641 H   0  0  0  0  0  0  0  0  0  0  0  0
  2  5  1  0  0  0  0
  2  4  1  0  0  0  0
  3  2  1  0  0  0  0
  5  8  1  0  0  0  0
  5  6  1  0  0  0  0
  7  5  1  0  0  0  0
  8  1  1  0  0  0  0
  8  9  1  0  0  0  0
 10  8  1  0  0  0  0
M  END
