39
q = 0.0, confidence = 0.934

 39 38  0  0  0  0  0  0  0  0999 V2000
    0.3733    1.5904    1.0131 N   0  0  0  0  0  2  0  0  0  0  0  0
   -0.9566    1.7406    1.4813 C   0  0  0  0  0  0  0  0  0  0  0  0
   -1.1852    2.8278    1.5217 H   0  0  0  0  0  0  0  0  0  0  0  0
   -0.9958    1.3674    2.5277 H   0  0  0  0  0  0  0  0  0  0  0  0
   -1.9796    1.0037    0.6047 C   0  0  0  0  0  0  0  0  0  0  0  0
   -1.7083   -0.0726    0.5650 H   0  0  0  0  0  0  0  0  0  0  0  0
   -1.9022    1.3864   -0.4351 H   0  0  0  0  0  0  0  0  0  0  0  0
   -3.4078    1.1720    1.1276 C   0  0  0  0  0  0  0  0  0  0  0  0
   -3.4669    0.7977    2.1745 H   0  0  0  0  0  0  0  0  0  0  0  0
   -3.6597    2.2552    1.1801 H   0  0  0  0  0  0  0  0  0  0  0  0
   -4.4520    0.4499    0.2715 C   0  0  0  0  0  0  0  0  0  0  0  0
   -4.1967   -0.6322    0.2157 H   0  0  0  0  0  0  0  0  0  0  0  0
   -4.3924    0.8253   -0.7747 H   0  0  0  0  0  0  0  0  0  0  0  0
   -5.8844    0.6082    0.7877 C   0  0  0  0  0  0  0  0  0  0  0  0
   -5.9425    0.2314    1.8341 H   0  0  0  0  0  0  0  0  0  0  0  0
   -6.1372    1.6911    0.8465 H   0  0  0  0  0  0  0  0  0  0  0  0
   -6.9306   -0.1104   -0.0683 C   0  0  0  0  0  0  0  0  0  0  0  0
   -6.8724    0.2675   -1.1141 H   0  0  0  0  0  0  0  0  0  0  0  0
   -6.6758   -1.1927   -0.1289 H   0  0  0  0  0  0  0  0  0  0  0  0
   -8.3638    0.0442    0.4470 C   0  0  0  0  0  0  0  0  0  0  0  0
   -8.4218   -0.3353    1.4924 H   0  0  0  0  0  0  0  0  0  0  0  0
   -8.6175    1.1268    0.5096 H   0  0  0  0  0  0  0  0  0  0  0  0
   -9.4105   -0.6720   -0.4103 C   0  0  0  0  0  0  0  0  0  0  0  0
   -9.3524   -0.2917   -1.4554 H   0  0  0  0  0  0  0  0  0  0  0  0
   -9.1557   -1.7543   -0.4739 H   0  0  0  0  0  0  0  0  0  0  0  0
  -10.8440   -0.5192    0.1048 C   0  0  0  0  0  0  0  0  0  0  0  0
  -11.0978    0.5633    0.1698 H   0  0  0  0  0  0  0  0  0  0  0  0
  -10.9018   -0.9006    1.1497 H   0  0  0  0  0  0  0  0  0  0  0  0
  -11.8913   -1.2336   -0.7531 C   0  0  0  0  0  0  0  0  0  0  0  0
  -11.6371   -2.3162   -0.8188 H   0  0  0  0  0  0  0  0  0  0  0  0
  -11.8336   -0.8518   -1.7980 H   0  0  0  0  0  0  0  0  0  0  0  0
  -13.3258   -1.0818   -0.2382 C   0  0  0  0  0  0  0  0  0  0  0  0
  -13.3796   -1.4635    0.8059 H   0  0  0  0  0  0  0  0  0  0  0  0
  -13.5757    0.0007   -0.1721 H   0  0  0  0  0  0  0  0  0  0  0  0
  -14.3638   -1.7982   -1.1027 C   0  0  0  0  0  0  0  0  0  0  0  0
  -14.3579   -1.4114   -2.1434 H   0  0  0  0  0  0  0  0  0  0  0  0
  -15.3908   -1.6703   -0.7050 H   0  0  0  0  0  0  0  0  0  0  0  0
  -14.1600   -2.8882   -1.1572 H   0  0  0  0  0  0  0  0  0  0  0  0
    1.4524    1.4212    0.5662 C   0  0  0  0  0  1  0  0  0  0  0  0
  1  2  1  0  0  0  0
  2  3  1  0  0  0  0
  2  4  1  0  0  0  0
  5  8  1  0  0  0  0
  5  2  1  0  0  0  0
  6  5  1  0  0  0  0
  7  5  1  0  0  0  0
  8 10  1  0  0  0  0
  8  9  1  0  0  0  0
 11 14  1  0  0  0  0
 11  8  1  0  0  0  0
 12 11  1  0  0  0  0
 13 11  1  0  0  0  0
 14 16  1  0  0  0  0
 14 15  1  0  0  0  0
 17 20  1  0  0  0  0
 17 14  1  0  0  0  0
 18 17  1  0  0  0  0
 19 17  1  0  0  0  0
 20 22  1  0  0  0  0
 20 21  1  0  0  0  0
 23 26  1  0  0  0  0
 23 20  1  0  0  0  0
 24 23  1  0  0  0  0
 25 23  1  0  0  0  0
 26 27  1  0  0  0  0
 26 28  1  0  0  0  0
 29 32  1  0  0  0  0
 29 26  1  0  0  0  0
 30 29  1  0  0  0  0
 31 29  1  0  0  0  0
 32 34  1  0  0  0  0
 32 33  1  0  0  0  0
 35 37  1  0  0  0  0
 35 32  1  0  0  0  0
 36 35  1  0  0  0  0
 38 35  1  0  0  0  0
 39  1  1  0  0  0  0
M  END
