7
q = -1.0, confidence = 0.0

 26 25  0  0  1  0  0  0  0  0999 V2000
   -1.3372    1.6467   -0.9844 S   0  0  0  0  0  0  0  0  0  0  0  0
   -3.5751    0.0941   -0.7052 O   0  0  0  0  0  0  0  0  0  0  0  0
   -0.3835    3.1671   -1.3067 C   0  0  0  0  0  0  0  0  0  0  0  0
   -0.1513    3.1381   -2.3884 H   0  0  0  0  0  0  0  0  0  0  0  0
    0.5525    3.2162   -0.7250 H   0  0  0  0  0  0  0  0  0  0  0  0
   -1.0289    4.0434   -1.1062 H   0  0  0  0  0  0  0  0  0  0  0  0
   -1.2088    1.4419    0.8052 C   0  0  2  0  0  3  0  0  0  0  0  0
   -1.5296    0.1391    1.3317 C   0  0  1  0  0  3  0  0  0  0  0  0
   -1.7520   -0.9673    0.4103 C   0  0  2  0  0  3  0  0  0  0  0  0
   -2.7421   -0.8075   -0.7256 C   0  0  0  0  0  0  0  0  0  0  0  0
   -2.6980   -1.8163   -1.8561 C   0  0  0  0  0  0  0  0  0  0  0  0
   -1.6693   -2.1636   -2.0741 H   0  0  0  0  0  0  0  0  0  0  0  0
   -3.1517   -1.3608   -2.7552 H   0  0  0  0  0  0  0  0  0  0  0  0
   -3.3086   -2.7049   -1.5908 H   0  0  0  0  0  0  0  0  0  0  0  0
   -1.0094    2.6377    1.6892 C   0  0  0  0  0  0  0  0  0  0  0  0
   -0.5189    3.4810    1.1738 H   0  0  0  0  0  0  0  0  0  0  0  0
   -0.3872    2.3791    2.5669 H   0  0  0  0  0  0  0  0  0  0  0  0
   -1.9898    2.9957    2.0693 H   0  0  0  0  0  0  0  0  0  0  0  0
   -1.5349   -0.0386    2.8296 C   0  0  0  0  0  0  0  0  0  0  0  0
   -1.5657   -1.1033    3.1164 H   0  0  0  0  0  0  0  0  0  0  0  0
   -2.4475    0.4413    3.2429 H   0  0  0  0  0  0  0  0  0  0  0  0
   -0.6658    0.4297    3.3302 H   0  0  0  0  0  0  0  0  0  0  0  0
   -1.6981   -2.3889    0.9369 C   0  0  0  0  0  0  0  0  0  0  0  0
   -0.9108   -2.5352    1.6979 H   0  0  0  0  0  0  0  0  0  0  0  0
   -1.5128   -3.1076    0.1180 H   0  0  0  0  0  0  0  0  0  0  0  0
   -2.6701   -2.6719    1.3969 H   0  0  0  0  0  0  0  0  0  0  0  0
  3  6  1  0  0  0  0
  3  1  1  0  0  0  0
  3  5  1  0  0  0  0
  4  3  1  0  0  0  0
  7  1  1  6  0  0  0
  7  8  1  0  0  0  0
  7 15  1  0  0  0  0
  8 19  1  1  0  0  0
  9 10  1  1  0  0  0
  9 23  1  0  0  0  0
  9  8  1  0  0  0  0
 10  2  2  0  0  0  0
 11 14  1  0  0  0  0
 11 10  1  0  0  0  0
 12 11  1  0  0  0  0
 13 11  1  0  0  0  0
 15 18  1  0  0  0  0
 15 17  1  0  0  0  0
 16 15  1  0  0  0  0
 19 20  1  0  0  0  0
 19 21  1  0  0  0  0
 19 22  1  0  0  0  0
 23 26  1  0  0  0  0
 23 24  1  0  0  0  0
 25 23  1  0  0  0  0
M  END
