13
q = -1.0, confidence = 0.0

 17 17  0  0  0  0  0  0  0  0999 V2000
   -3.6698    1.2367   -1.6882 O   0  0  0  0  0  0  0  0  0  0  0  0
   -4.3899   -0.5319   -0.3613 N   0  0  0  0  0  0  0  0  0  0  0  0
   -5.7603    0.3383   -2.0183 N   0  0  0  0  0  0  0  0  0  0  0  0
   -1.9600   -0.4468   -0.0104 C   0  0  0  0  0  0  0  0  0  0  0  0
   -1.8308   -0.1701   -1.0636 H   0  0  0  0  0  0  0  0  0  0  0  0
   -3.2632   -0.6742    0.4768 C   0  0  0  0  0  0  0  0  0  0  0  0
   -3.4481   -1.0586    1.8218 C   0  0  0  0  0  0  0  0  0  0  0  0
   -4.4640   -1.2452    2.2060 H   0  0  0  0  0  0  0  0  0  0  0  0
   -2.3350   -1.1965    2.6625 C   0  0  0  0  0  0  0  0  0  0  0  0
   -2.4823   -1.5145    3.7068 H   0  0  0  0  0  0  0  0  0  0  0  0
   -1.0381   -0.9208    2.1930 C   0  0  0  0  0  0  0  0  0  0  0  0
   -0.1753   -1.0300    2.8673 H   0  0  0  0  0  0  0  0  0  0  0  0
   -0.8527   -0.5194    0.8533 C   0  0  0  0  0  3  0  0  0  0  0  0
   -4.5218    0.4054   -1.3845 C   0  0  0  0  0  0  0  0  0  0  0  0
   -6.2265   -0.5681   -2.0893 H   0  0  0  0  0  0  0  0  0  0  0  0
   -5.8035    0.9035   -2.8672 H   0  0  0  0  0  0  0  0  0  0  0  0
   -5.2527   -0.9519   -0.0123 H   0  0  0  0  0  0  0  0  0  0  0  0
  1 14  2  0  0  0  0
  2 17  1  0  0  0  0
  2  6  1  0  0  0  0
  3 14  1  0  0  0  0
  4  6  2  0  0  0  0
  4 13  1  0  0  0  0
  5  4  1  0  0  0  0
  6  7  1  0  0  0  0
  7  8  1  0  0  0  0
  7  9  2  0  0  0  0
  9 10  1  0  0  0  0
 11  9  1  0  0  0  0
 11 12  1  0  0  0  0
 13 11  2  0  0  0  0
 14  2  1  0  0  0  0
 15  3  1  0  0  0  0
 16  3  1  0  0  0  0
M  END
