5
q = 0.0, confidence = 0.984

 66 71  0  0  0  0  0  0  0  0999 V2000
    1.9590   -0.0086    0.3843 P   0  0  0  0  0  4  0  0  0  0  0  0
    0.4377    0.4223   -0.4237 C   0  0  0  0  0  0  0  0  0  0  0  0
   -0.6577   -0.5107   -0.6916 C   0  0  0  0  0  0  0  0  0  0  0  0
   -1.7543    0.2473   -1.2361 C   0  0  0  0  0  0  0  0  0  0  0  0
   -1.3551    1.6369   -1.2437 C   0  0  0  0  0  3  0  0  0  0  0  0
   -1.9522    2.4615   -1.6502 H   0  0  0  0  0  0  0  0  0  0  0  0
   -0.0147    1.7706   -0.7772 C   0  0  0  0  0  0  0  0  0  0  0  0
    0.7649    3.0300   -0.8121 C   0  0  0  0  0  0  0  0  0  0  0  0
    0.2809    4.1995   -0.1857 C   0  0  0  0  0  0  0  0  0  0  0  0
   -0.6622    4.1410    0.3789 H   0  0  0  0  0  0  0  0  0  0  0  0
    1.0060    5.3965   -0.2498 C   0  0  0  0  0  0  0  0  0  0  0  0
    0.6158    6.2942    0.2532 H   0  0  0  0  0  0  0  0  0  0  0  0
    2.2345    5.4480   -0.9295 C   0  0  0  0  0  0  0  0  0  0  0  0
    2.8090    6.3860   -0.9662 H   0  0  0  0  0  0  0  0  0  0  0  0
    2.7241    4.2941   -1.5611 C   0  0  0  0  0  0  0  0  0  0  0  0
    3.6797    4.3247   -2.1069 H   0  0  0  0  0  0  0  0  0  0  0  0
    1.9913    3.0986   -1.5110 C   0  0  0  0  0  0  0  0  0  0  0  0
    2.3716    2.2058   -2.0282 H   0  0  0  0  0  0  0  0  0  0  0  0
   -0.5673   -1.9956   -0.6372 C   0  0  0  0  0  0  0  0  0  0  0  0
    0.2612   -2.6644   -1.5662 C   0  0  0  0  0  0  0  0  0  0  0  0
    0.8363   -2.0777   -2.2966 H   0  0  0  0  0  0  0  0  0  0  0  0
    0.3447   -4.0642   -1.5796 C   0  0  0  0  0  0  0  0  0  0  0  0
    0.9944   -4.5655   -2.3135 H   0  0  0  0  0  0  0  0  0  0  0  0
   -0.4017   -4.8203   -0.6623 C   0  0  0  0  0  0  0  0  0  0  0  0
   -0.3371   -5.9191   -0.6676 H   0  0  0  0  0  0  0  0  0  0  0  0
   -1.2356   -4.1652    0.2579 C   0  0  0  0  0  0  0  0  0  0  0  0
   -1.8254   -4.7477    0.9815 H   0  0  0  0  0  0  0  0  0  0  0  0
   -1.3228   -2.7662    0.2688 C   0  0  0  0  0  0  0  0  0  0  0  0
   -1.9694   -2.2553    0.9935 H   0  0  0  0  0  0  0  0  0  0  0  0
   -3.0355   -0.2591   -1.7740 C   0  0  0  0  0  0  0  0  0  0  0  0
   -3.1121   -1.4856   -2.4728 C   0  0  0  0  0  0  0  0  0  0  0  0
   -2.2077   -2.0935   -2.6083 H   0  0  0  0  0  0  0  0  0  0  0  0
   -4.3291   -1.9293   -3.0099 C   0  0  0  0  0  0  0  0  0  0  0  0
   -4.3644   -2.8884   -3.5492 H   0  0  0  0  0  0  0  0  0  0  0  0
   -5.4922   -1.1577   -2.8693 C   0  0  0  0  0  0  0  0  0  0  0  0
   -6.4469   -1.5093   -3.2891 H   0  0  0  0  0  0  0  0  0  0  0  0
   -5.4269    0.0674   -2.1845 C   0  0  0  0  0  0  0  0  0  0  0  0
   -6.3332    0.6791   -2.0578 H   0  0  0  0  0  0  0  0  0  0  0  0
   -4.2152    0.5109   -1.6421 C   0  0  0  0  0  0  0  0  0  0  0  0
   -4.1859    1.4518   -1.0733 H   0  0  0  0  0  0  0  0  0  0  0  0
    2.6776    1.3705    1.3324 C   0  0  0  0  0  0  0  0  0  0  0  0
    1.9589    1.7377    2.0881 H   0  0  0  0  0  0  0  0  0  0  0  0
    2.9335    2.1957    0.6432 H   0  0  0  0  0  0  0  0  0  0  0  0
    3.5914    0.9890    1.8266 H   0  0  0  0  0  0  0  0  0  0  0  0
    3.2411   -0.4688   -0.8431 C   0  0  0  0  0  0  0  0  0  0  0  0
    4.5204   -0.8813   -0.4155 C   0  0  0  0  0  0  0  0  0  0  0  0
    4.7474   -0.9664    0.6586 H   0  0  0  0  0  0  0  0  0  0  0  0
    5.5039   -1.2031   -1.3612 C   0  0  0  0  0  0  0  0  0  0  0  0
    6.4997   -1.5280   -1.0245 H   0  0  0  0  0  0  0  0  0  0  0  0
    5.2181   -1.1133   -2.7340 C   0  0  0  0  0  0  0  0  0  0  0  0
    5.9925   -1.3666   -3.4737 H   0  0  0  0  0  0  0  0  0  0  0  0
    3.9465   -0.7021   -3.1623 C   0  0  0  0  0  0  0  0  0  0  0  0
    3.7197   -0.6308   -4.2365 H   0  0  0  0  0  0  0  0  0  0  0  0
    2.9580   -0.3809   -2.2193 C   0  0  0  0  0  0  0  0  0  0  0  0
    1.9577   -0.0573   -2.5469 H   0  0  0  0  0  0  0  0  0  0  0  0
    1.7835   -1.4281    1.5068 C   0  0  0  0  0  0  0  0  0  0  0  0
    2.1664   -2.7229    1.1040 C   0  0  0  0  0  0  0  0  0  0  0  0
    2.6134   -2.8889    0.1147 H   0  0  0  0  0  0  0  0  0  0  0  0
    1.9389   -3.8090    1.9598 C   0  0  0  0  0  0  0  0  0  0  0  0
    2.2157   -4.8223    1.6339 H   0  0  0  0  0  0  0  0  0  0  0  0
    1.3410   -3.6054    3.2135 C   0  0  0  0  0  0  0  0  0  0  0  0
    1.1506   -4.4630    3.8764 H   0  0  0  0  0  0  0  0  0  0  0  0
    0.9782   -2.3124    3.6217 C   0  0  0  0  0  0  0  0  0  0  0  0
    0.4970   -2.1481    4.5962 H   0  0  0  0  0  0  0  0  0  0  0  0
    1.1998   -1.2193    2.7732 C   0  0  0  0  0  0  0  0  0  0  0  0
    0.8809   -0.2137    3.0805 H   0  0  0  0  0  0  0  0  0  0  0  0
  1 41  1  0  0  0  0
  1 56  1  0  0  0  0
  2  1  1  0  0  0  0
  3 19  1  0  0  0  0
  3  2  1  0  0  0  0
  4  3  2  0  0  0  0
  5  4  1  0  0  0  0
  5  7  1  0  0  0  0
  6  5  1  0  0  0  0
  7  2  2  0  0  0  0
  8  7  1  0  0  0  0
  8  9  1  0  0  0  0
  9 10  1  0  0  0  0
 11  9  2  0  0  0  0
 11 12  1  0  0  0  0
 13 11  1  0  0  0  0
 14 13  1  0  0  0  0
 15 17  1  0  0  0  0
 15 13  2  0  0  0  0
 16 15  1  0  0  0  0
 17  8  2  0  0  0  0
 18 17  1  0  0  0  0
 19 28  1  0  0  0  0
 20 19  2  0  0  0  0
 21 20  1  0  0  0  0
 22 20  1  0  0  0  0
 22 24  2  0  0  0  0
 23 22  1  0  0  0  0
 24 26  1  0  0  0  0
 25 24  1  0  0  0  0
 26 28  2  0  0  0  0
 26 27  1  0  0  0  0
 28 29  1  0  0  0  0
 30 39  1  0  0  0  0
 30  4  1  0  0  0  0
 31 30  2  0  0  0  0
 32 31  1  0  0  0  0
 33 35  2  0  0  0  0
 33 31  1  0  0  0  0
 34 33  1  0  0  0  0
 35 37  1  0  0  0  0
 36 35  1  0  0  0  0
 37 38  1  0  0  0  0
 37 39  2  0  0  0  0
 39 40  1  0  0  0  0
 41 44  1  0  0  0  0
 41 42  1  0  0  0  0
 43 41  1  0  0  0  0
 45 46  1  0  0  0  0
 45  1  1  0  0  0  0
 46 47  1  0  0  0  0
 48 49  1  0  0  0  0
 48 46  2  0  0  0  0
 50 48  1  0  0  0  0
 51 50  1  0  0  0  0
 52 50  2  0  0  0  0
 52 54  1  0  0  0  0
 53 52  1  0  0  0  0
 54 45  2  0  0  0  0
 55 54  1  0  0  0  0
 56 65  1  0  0  0  0
 57 56  2  0  0  0  0
 57 59  1  0  0  0  0
 58 57  1  0  0  0  0
 59 61  2  0  0  0  0
 60 59  1  0  0  0  0
 61 63  1  0  0  0  0
 61 62  1  0  0  0  0
 63 64  1  0  0  0  0
 65 66  1  0  0  0  0
 65 63  2  0  0  0  0
M  END
