3
q = -1.0

 48 50  0  0  1  0  0  0  0  0999 V2000
   -0.4983    0.7064    1.3968 C   0  0  0  0  0  0  0  0  0  0  0  0
    0.2030    0.7701    0.1289 C   0  0  0  0  0  0  0  0  0  0  0  0
   -0.6441    1.5000   -0.7920 C   0  0  1  0  0  3  0  0  0  0  0  0
   -1.8369    1.9089   -0.0813 C   0  0  0  0  0  0  0  0  0  0  0  0
   -1.7466    1.4149    1.2641 C   0  0  0  0  0  0  0  0  0  0  0  0
   -2.9061    2.8138   -0.6095 C   0  0  0  0  0  0  0  0  0  0  0  0
   -2.7285    1.6806    2.3665 C   0  0  0  0  0  0  0  0  0  0  0  0
    0.0163    0.1515    2.6947 C   0  0  0  0  0  0  0  0  0  0  0  0
   -0.3088    1.8992   -2.1991 C   0  0  0  0  0  0  0  0  0  0  0  0
    1.6299    0.3676   -0.1779 C   0  0  1  0  0  0  0  0  0  0  0  0
    2.6496    1.3468    0.5066 C   0  0  1  0  0  0  0  0  0  0  0  0
    3.9977    0.6470    0.7777 C   0  0  2  0  0  0  0  0  0  0  0  0
    4.4450   -0.3924   -0.3215 C   0  0  0  0  0  0  0  0  0  0  0  0
    3.4502   -1.3654    0.4086 C   0  0  2  0  0  0  0  0  0  0  0  0
    1.9862   -1.1389    0.0063 C   0  0  0  0  0  0  0  0  0  0  0  0
    2.7880    2.6526   -0.2821 C   0  0  0  0  0  0  0  0  0  0  0  0
    4.2824   -0.1152   -1.8191 C   0  0  0  0  0  0  0  0  0  0  0  0
    5.9092   -0.8125   -0.1041 C   0  0  0  0  0  0  0  0  0  0  0  0
    3.7235   -0.5640    1.7075 C   0  0  0  0  0  0  0  0  0  0  0  0
   -3.0419    2.7045   -1.7016 H   0  0  0  0  0  0  0  0  0  0  0  0
   -3.8836    2.6215   -0.1268 H   0  0  0  0  0  0  0  0  0  0  0  0
   -2.6422    3.8754   -0.4130 H   0  0  0  0  0  0  0  0  0  0  0  0
   -3.7572    1.8024    1.9769 H   0  0  0  0  0  0  0  0  0  0  0  0
   -2.7469    0.8577    3.1063 H   0  0  0  0  0  0  0  0  0  0  0  0
   -2.4654    2.6126    2.9122 H   0  0  0  0  0  0  0  0  0  0  0  0
   -0.8116   -0.2015    3.3386 H   0  0  0  0  0  0  0  0  0  0  0  0
    0.7064   -0.6970    2.5436 H   0  0  0  0  0  0  0  0  0  0  0  0
    0.5685    0.9328    3.2599 H   0  0  0  0  0  0  0  0  0  0  0  0
    0.4104    1.1996   -2.6655 H   0  0  0  0  0  0  0  0  0  0  0  0
   -1.2122    1.9186   -2.8393 H   0  0  0  0  0  0  0  0  0  0  0  0
    0.1398    2.9148   -2.2334 H   0  0  0  0  0  0  0  0  0  0  0  0
    3.4695    3.3575    0.2362 H   0  0  0  0  0  0  0  0  0  0  0  0
    3.1964    2.4762   -1.2977 H   0  0  0  0  0  0  0  0  0  0  0  0
    1.8073    3.1581   -0.3939 H   0  0  0  0  0  0  0  0  0  0  0  0
    4.5831   -1.0114   -2.4012 H   0  0  0  0  0  0  0  0  0  0  0  0
    3.2558    0.1434   -2.1309 H   0  0  0  0  0  0  0  0  0  0  0  0
    4.9474    0.7150   -2.1367 H   0  0  0  0  0  0  0  0  0  0  0  0
    6.5947   -0.0055   -0.4373 H   0  0  0  0  0  0  0  0  0  0  0  0
    6.1498   -1.0379    0.9519 H   0  0  0  0  0  0  0  0  0  0  0  0
    6.1440   -1.7179   -0.7015 H   0  0  0  0  0  0  0  0  0  0  0  0
    2.2468    1.6155    1.5087 H   0  0  0  0  0  0  0  0  0  0  0  0
    1.7371    0.5632   -1.2601 H   0  0  0  0  0  0  0  0  0  0  0  0
    1.7460   -1.6711   -0.9376 H   0  0  0  0  0  0  0  0  0  0  0  0
    1.3456   -1.6085    0.7774 H   0  0  0  0  0  0  0  0  0  0  0  0
    3.6998   -2.4476    0.3938 H   0  0  0  0  0  0  0  0  0  0  0  0
    4.7594    1.3915    1.0958 H   0  0  0  0  0  0  0  0  0  0  0  0
    2.8837   -0.4609    2.4234 H   0  0  0  0  0  0  0  0  0  0  0  0
    4.6143   -0.9104    2.2616 H   0  0  0  0  0  0  0  0  0  0  0  0
  1  8  1  0  0  0  0
  2  1  2  0  0  0  0
  3  9  1  1  0  0  0
  3  4  1  0  0  0  0
  3  2  1  0  0  0  0
  4  5  2  0  0  0  0
  5  1  1  0  0  0  0
  5  7  1  0  0  0  0
  6 22  1  0  0  0  0
  6 21  1  0  0  0  0
  6  4  1  0  0  0  0
  7 25  1  0  0  0  0
  7 24  1  0  0  0  0
  8 28  1  0  0  0  0
  8 26  1  0  0  0  0
 10 42  1  6  0  0  0
 10 15  1  0  0  0  0
 10  2  1  0  0  0  0
 10 11  1  0  0  0  0
 11 12  1  0  0  0  0
 11 41  1  1  0  0  0
 12 46  1  1  0  0  0
 12 19  1  0  0  0  0
 13 18  1  0  0  0  0
 13 14  1  0  0  0  0
 13 12  1  0  0  0  0
 14 45  1  1  0  0  0
 14 19  1  0  0  0  0
 15 14  1  0  0  0  0
 15 44  1  0  0  0  0
 16 32  1  0  0  0  0
 16 11  1  0  0  0  0
 17 13  1  0  0  0  0
 18 39  1  0  0  0  0
 19 48  1  0  0  0  0
 19 47  1  0  0  0  0
 20  6  1  0  0  0  0
 23  7  1  0  0  0  0
 27  8  1  0  0  0  0
 29  9  1  0  0  0  0
 30  9  1  0  0  0  0
 31  9  1  0  0  0  0
 33 16  1  0  0  0  0
 34 16  1  0  0  0  0
 35 17  1  0  0  0  0
 36 17  1  0  0  0  0
 37 17  1  0  0  0  0
 38 18  1  0  0  0  0
 40 18  1  0  0  0  0
 43 15  1  0  0  0  0
M  END
