1
q = -1.0

 26 25  0  0  0  0  0  0  0  0999 V2000
   -1.6640   -2.0052   -0.0972 C   0  0  0  0  0  3  0  0  0  0  0  0
   -3.4565   -1.5100   -0.2092 Si  0  0  0  0  0  0  0  0  0  0  0  0
   -4.4702   -2.1627    1.2547 C   0  0  0  0  0  0  0  0  0  0  0  0
   -4.2551   -2.1075   -1.8187 C   0  0  0  0  0  0  0  0  0  0  0  0
   -3.5695    0.1912   -0.1973 O   0  0  0  0  0  0  0  0  0  0  0  0
   -4.7116    1.3899    0.0979 Si  0  0  0  0  0  0  0  0  0  0  0  0
   -4.9309    1.6023    1.9616 C   0  0  0  0  0  0  0  0  0  0  0  0
   -4.0441    2.9816   -0.6649 C   0  0  0  0  0  0  0  0  0  0  0  0
   -6.3617    0.9349   -0.7024 C   0  0  0  0  0  0  0  0  0  0  0  0
   -1.4022   -2.6290   -0.9804 H   0  0  0  0  0  0  0  0  0  0  0  0
   -1.5085   -2.6242    0.8142 H   0  0  0  0  0  0  0  0  0  0  0  0
   -4.0573   -1.8213    2.2264 H   0  0  0  0  0  0  0  0  0  0  0  0
   -5.5272   -1.8282    1.2008 H   0  0  0  0  0  0  0  0  0  0  0  0
   -4.4670   -3.2723    1.2638 H   0  0  0  0  0  0  0  0  0  0  0  0
   -4.2569   -3.2163   -1.8641 H   0  0  0  0  0  0  0  0  0  0  0  0
   -5.3045   -1.7586   -1.9040 H   0  0  0  0  0  0  0  0  0  0  0  0
   -3.7025   -1.7391   -2.7075 H   0  0  0  0  0  0  0  0  0  0  0  0
   -3.9678    1.8553    2.4505 H   0  0  0  0  0  0  0  0  0  0  0  0
   -5.6518    2.4144    2.1908 H   0  0  0  0  0  0  0  0  0  0  0  0
   -5.3116    0.6697    2.4257 H   0  0  0  0  0  0  0  0  0  0  0  0
   -3.8275    2.8407   -1.7436 H   0  0  0  0  0  0  0  0  0  0  0  0
   -4.7765    3.8093   -0.5678 H   0  0  0  0  0  0  0  0  0  0  0  0
   -3.1067    3.3063   -0.1680 H   0  0  0  0  0  0  0  0  0  0  0  0
   -6.7709   -0.0032   -0.2740 H   0  0  0  0  0  0  0  0  0  0  0  0
   -7.1161    1.7335   -0.5455 H   0  0  0  0  0  0  0  0  0  0  0  0
   -6.2448    0.7864   -1.7955 H   0  0  0  0  0  0  0  0  0  0  0  0
  1 11  1  0  0  0  0
  2  5  1  0  0  0  0
  2  1  1  0  0  0  0
  2  3  1  0  0  0  0
  3 14  1  0  0  0  0
  3 12  1  0  0  0  0
  4  2  1  0  0  0  0
  5  6  1  0  0  0  0
  6  7  1  0  0  0  0
  7 19  1  0  0  0  0
  7 20  1  0  0  0  0
  7 18  1  0  0  0  0
  8 22  1  0  0  0  0
  8 23  1  0  0  0  0
  8  6  1  0  0  0  0
  9 25  1  0  0  0  0
  9 24  1  0  0  0  0
  9  6  1  0  0  0  0
 10  1  1  0  0  0  0
 13  3  1  0  0  0  0
 15  4  1  0  0  0  0
 16  4  1  0  0  0  0
 17  4  1  0  0  0  0
 21  8  1  0  0  0  0
 26  9  1  0  0  0  0
M  END
