12
q = -1.0, confidence = 0.0

 34 34  0  0  0  0  0  0  0  0999 V2000
    1.2713    0.8628   -0.0444 P   0  0  0  0  0  0  0  0  0  0  0  0
    2.5614   -0.4273    0.0428 C   0  0  0  0  0  0  0  0  0  0  0  0
    2.0299   -1.7037    0.3363 C   0  0  0  0  0  0  0  0  0  0  0  0
    2.9265   -2.7914    0.4047 C   0  0  0  0  0  0  0  0  0  0  0  0
    2.5315   -3.7978    0.6167 H   0  0  0  0  0  0  0  0  0  0  0  0
    4.3014   -2.6076    0.2037 C   0  0  0  0  0  0  0  0  0  0  0  0
    4.9817   -3.4719    0.2558 H   0  0  0  0  0  0  0  0  0  0  0  0
    4.8166   -1.3284   -0.0722 C   0  0  0  0  0  0  0  0  0  0  0  0
    5.8954   -1.1878   -0.2379 H   0  0  0  0  0  0  0  0  0  0  0  0
    3.9429   -0.2354   -0.1536 C   0  0  0  0  0  0  0  0  0  0  0  0
    4.3388    0.7637   -0.3940 H   0  0  0  0  0  0  0  0  0  0  0  0
    0.5506   -1.8564    0.5979 C   0  0  0  0  0  3  0  0  0  0  0  0
    0.4041   -1.9852    1.6947 H   0  0  0  0  0  0  0  0  0  0  0  0
    0.1873   -2.7885    0.1153 H   0  0  0  0  0  0  0  0  0  0  0  0
    1.7521    2.0048   -1.4546 C   0  0  0  0  0  0  0  0  0  0  0  0
    2.6742    2.5136   -1.0979 H   0  0  0  0  0  0  0  0  0  0  0  0
    2.0760    1.2637   -2.7548 C   0  0  0  0  0  0  0  0  0  0  0  0
    2.8789    0.5144   -2.6167 H   0  0  0  0  0  0  0  0  0  0  0  0
    2.4140    1.9960   -3.5182 H   0  0  0  0  0  0  0  0  0  0  0  0
    1.1877    0.7238   -3.1346 H   0  0  0  0  0  0  0  0  0  0  0  0
    0.6516    3.0512   -1.6572 C   0  0  0  0  0  0  0  0  0  0  0  0
   -0.2910    2.5530   -1.9623 H   0  0  0  0  0  0  0  0  0  0  0  0
    0.9401    3.7624   -2.4587 H   0  0  0  0  0  0  0  0  0  0  0  0
    0.4462    3.6411   -0.7412 H   0  0  0  0  0  0  0  0  0  0  0  0
    1.5320    1.9042    1.5120 C   0  0  0  0  0  0  0  0  0  0  0  0
    0.5766    2.4677    1.5995 H   0  0  0  0  0  0  0  0  0  0  0  0
    2.6947    2.8991    1.4644 C   0  0  0  0  0  0  0  0  0  0  0  0
    3.6600    2.3826    1.2839 H   0  0  0  0  0  0  0  0  0  0  0  0
    2.7833    3.4198    2.4412 H   0  0  0  0  0  0  0  0  0  0  0  0
    2.5658    3.6777    0.6877 H   0  0  0  0  0  0  0  0  0  0  0  0
    1.6566    0.9588    2.7128 C   0  0  0  0  0  0  0  0  0  0  0  0
    0.8676    0.1830    2.6981 H   0  0  0  0  0  0  0  0  0  0  0  0
    1.5754    1.5247    3.6638 H   0  0  0  0  0  0  0  0  0  0  0  0
    2.6373    0.4418    2.7030 H   0  0  0  0  0  0  0  0  0  0  0  0
  1  2  1  0  0  0  0
  1 25  1  0  0  0  0
  2  3  1  0  0  0  0
  3  4  2  0  0  0  0
  3 12  1  0  0  0  0
  4  5  1  0  0  0  0
  6  7  1  0  0  0  0
  6  4  1  0  0  0  0
  8  6  2  0  0  0  0
  9  8  1  0  0  0  0
 10  8  1  0  0  0  0
 10  2  2  0  0  0  0
 11 10  1  0  0  0  0
 12 13  1  0  0  0  0
 14 12  1  0  0  0  0
 15 16  1  0  0  0  0
 15  1  1  0  0  0  0
 17 18  1  0  0  0  0
 17 15  1  0  0  0  0
 19 17  1  0  0  0  0
 20 17  1  0  0  0  0
 21 15  1  0  0  0  0
 21 24  1  0  0  0  0
 22 21  1  0  0  0  0
 23 21  1  0  0  0  0
 25 26  1  0  0  0  0
 25 31  1  0  0  0  0
 27 25  1  0  0  0  0
 27 29  1  0  0  0  0
 28 27  1  0  0  0  0
 30 27  1  0  0  0  0
 31 33  1  0  0  0  0
 32 31  1  0  0  0  0
 34 31  1  0  0  0  0
M  END
