3
q = -1.0

 33 33  0  0  0  0  0  0  0  0999 V2000
    1.2737    0.9758    0.0299 P   0  0  0  0  0  0  0  0  0  0  0  0
    0.1178   -2.8642    0.7313 O   0  0  0  0  0  0  0  0  0  0  0  0
    0.5316   -1.7757    0.3375 C   0  0  0  0  0  3  0  0  0  0  0  0
    2.0210   -1.6149    0.0922 C   0  0  0  0  0  0  0  0  0  0  0  0
    2.5498   -0.3251   -0.1232 C   0  0  0  0  0  0  0  0  0  0  0  0
    3.9236   -0.1537   -0.3669 C   0  0  0  0  0  0  0  0  0  0  0  0
    4.3413    0.8483   -0.5493 H   0  0  0  0  0  0  0  0  0  0  0  0
    4.7680   -1.2760   -0.3900 C   0  0  0  0  0  0  0  0  0  0  0  0
    5.8428   -1.1471   -0.5896 H   0  0  0  0  0  0  0  0  0  0  0  0
    4.2446   -2.5613   -0.1587 C   0  0  0  0  0  0  0  0  0  0  0  0
    4.9140   -3.4352   -0.1767 H   0  0  0  0  0  0  0  0  0  0  0  0
    2.8757   -2.7315    0.0868 C   0  0  0  0  0  0  0  0  0  0  0  0
    2.4343   -3.7224    0.2710 H   0  0  0  0  0  0  0  0  0  0  0  0
    1.7495    2.3361   -1.1657 C   0  0  0  0  0  0  0  0  0  0  0  0
    2.7315    2.7056   -0.7970 H   0  0  0  0  0  0  0  0  0  0  0  0
    1.9189    1.8357   -2.6027 C   0  0  0  0  0  0  0  0  0  0  0  0
    2.6749    1.0302   -2.6753 H   0  0  0  0  0  0  0  0  0  0  0  0
    2.2454    2.6774   -3.2490 H   0  0  0  0  0  0  0  0  0  0  0  0
    0.9709    1.4211   -2.9959 H   0  0  0  0  0  0  0  0  0  0  0  0
    0.7229    3.4699   -1.0747 C   0  0  0  0  0  0  0  0  0  0  0  0
   -0.2689    3.1132   -1.4154 H   0  0  0  0  0  0  0  0  0  0  0  0
    1.0244    4.3147   -1.7277 H   0  0  0  0  0  0  0  0  0  0  0  0
    0.6090    3.8664   -0.0448 H   0  0  0  0  0  0  0  0  0  0  0  0
    1.6097    1.7134    1.7357 C   0  0  0  0  0  0  0  0  0  0  0  0
    0.7211    2.3571    1.9096 H   0  0  0  0  0  0  0  0  0  0  0  0
    2.8751    2.5701    1.8353 C   0  0  0  0  0  0  0  0  0  0  0  0
    3.7805    1.9836    1.5758 H   0  0  0  0  0  0  0  0  0  0  0  0
    3.0053    2.9245    2.8793 H   0  0  0  0  0  0  0  0  0  0  0  0
    2.8425    3.4673    1.1871 H   0  0  0  0  0  0  0  0  0  0  0  0
    1.6129    0.5916    2.7811 C   0  0  0  0  0  0  0  0  0  0  0  0
    0.7512   -0.0923    2.6503 H   0  0  0  0  0  0  0  0  0  0  0  0
    1.5738    1.0197    3.8039 H   0  0  0  0  0  0  0  0  0  0  0  0
    2.5356   -0.0184    2.7030 H   0  0  0  0  0  0  0  0  0  0  0  0
  1 24  1  0  0  0  0
  3  2  2  0  0  0  0
  4  3  1  0  0  0  0
  5  1  1  0  0  0  0
  5  4  2  0  0  0  0
  6  5  1  0  0  0  0
  7  6  1  0  0  0  0
  8  6  2  0  0  0  0
  8 10  1  0  0  0  0
  9  8  1  0  0  0  0
 10 12  2  0  0  0  0
 11 10  1  0  0  0  0
 12  4  1  0  0  0  0
 12 13  1  0  0  0  0
 14 20  1  0  0  0  0
 14 15  1  0  0  0  0
 14  1  1  0  0  0  0
 16 14  1  0  0  0  0
 17 16  1  0  0  0  0
 18 16  1  0  0  0  0
 19 16  1  0  0  0  0
 20 23  1  0  0  0  0
 21 20  1  0  0  0  0
 22 20  1  0  0  0  0
 24 26  1  0  0  0  0
 24 25  1  0  0  0  0
 24 30  1  0  0  0  0
 26 28  1  0  0  0  0
 27 26  1  0  0  0  0
 29 26  1  0  0  0  0
 30 32  1  0  0  0  0
 31 30  1  0  0  0  0
 33 30  1  0  0  0  0
M  END
