34
q = -1.0, confidence = 0.006

 48 49  0  0  0  0  0  0  0  0999 V2000
   -0.9665    1.3861   -0.6377 P   0  0  0  0  0  0  0  0  0  0  0  0
   -2.7494    1.8902   -0.9285 C   0  0  0  0  0  0  0  0  0  0  0  0
   -3.1766    1.7555    0.0882 H   0  0  0  0  0  0  0  0  0  0  0  0
   -3.4570    0.8973   -1.8618 C   0  0  0  0  0  0  0  0  0  0  0  0
   -4.5556    1.0478   -1.8112 H   0  0  0  0  0  0  0  0  0  0  0  0
   -3.2241   -0.1505   -1.5927 H   0  0  0  0  0  0  0  0  0  0  0  0
   -3.1458    1.0359   -2.9145 H   0  0  0  0  0  0  0  0  0  0  0  0
   -2.9790    3.3451   -1.3618 C   0  0  0  0  0  0  0  0  0  0  0  0
   -2.6509    3.5135   -2.4053 H   0  0  0  0  0  0  0  0  0  0  0  0
   -2.4522    4.0789   -0.7230 H   0  0  0  0  0  0  0  0  0  0  0  0
   -4.0639    3.5777   -1.3198 H   0  0  0  0  0  0  0  0  0  0  0  0
    0.0990    2.0639   -2.0471 C   0  0  0  0  0  0  0  0  0  0  0  0
    0.9925    1.4127   -1.9656 H   0  0  0  0  0  0  0  0  0  0  0  0
    0.5427    3.5148   -1.8302 C   0  0  0  0  0  0  0  0  0  0  0  0
    1.2235    3.8136   -2.6549 H   0  0  0  0  0  0  0  0  0  0  0  0
    1.0883    3.6473   -0.8769 H   0  0  0  0  0  0  0  0  0  0  0  0
   -0.3113    4.2208   -1.8361 H   0  0  0  0  0  0  0  0  0  0  0  0
   -0.5126    1.8377   -3.4353 C   0  0  0  0  0  0  0  0  0  0  0  0
   -1.3838    2.4952   -3.6263 H   0  0  0  0  0  0  0  0  0  0  0  0
   -0.8089    0.7811   -3.5770 H   0  0  0  0  0  0  0  0  0  0  0  0
    0.2501    2.0816   -4.2044 H   0  0  0  0  0  0  0  0  0  0  0  0
   -0.4081    2.2830    0.8599 C   0  0  0  0  0  0  0  0  0  0  0  0
   -1.2001    3.1929    1.5837 C   0  0  0  0  0  0  0  0  0  0  0  0
   -2.2249    3.4183    1.2564 H   0  0  0  0  0  0  0  0  0  0  0  0
   -0.7003    3.8355    2.7285 C   0  0  0  0  0  0  0  0  0  0  0  0
   -1.3357    4.5415    3.2839 H   0  0  0  0  0  0  0  0  0  0  0  0
    0.6197    3.5878    3.1378 C   0  0  0  0  0  0  0  0  0  0  0  0
    1.0318    4.1042    4.0182 H   0  0  0  0  0  0  0  0  0  0  0  0
    1.4097    2.6704    2.4346 C   0  0  0  0  0  0  0  0  0  0  0  0
    2.4374    2.4581    2.7699 H   0  0  0  0  0  0  0  0  0  0  0  0
    0.9107    1.9635    1.3139 C   0  0  0  0  0  0  0  0  0  0  0  0
    1.7438    0.9440    0.6723 C   0  0  0  0  0  0  0  0  0  0  0  0
    2.8313    1.0826    0.8112 H   0  0  0  0  0  0  0  0  0  0  0  0
    1.3115   -0.1630   -0.0122 C   0  0  0  0  0  3  0  0  0  0  0  0
    2.3086   -1.0921   -0.6885 C   0  0  0  0  0  0  0  0  0  0  0  0
    2.1611   -2.1200   -0.2937 H   0  0  0  0  0  0  0  0  0  0  0  0
    1.9947   -1.1678   -1.7539 H   0  0  0  0  0  0  0  0  0  0  0  0
    3.7611   -0.6978   -0.5836 C   0  0  0  0  0  0  0  0  0  0  0  0
    4.3242    0.2160   -1.4982 C   0  0  0  0  0  0  0  0  0  0  0  0
    3.6974    0.6083   -2.3153 H   0  0  0  0  0  0  0  0  0  0  0  0
    5.6602    0.6261   -1.3793 C   0  0  0  0  0  0  0  0  0  0  0  0
    6.0820    1.3375   -2.1061 H   0  0  0  0  0  0  0  0  0  0  0  0
    6.4607    0.1274   -0.3384 C   0  0  0  0  0  0  0  0  0  0  0  0
    7.5100    0.4462   -0.2448 H   0  0  0  0  0  0  0  0  0  0  0  0
    5.9140   -0.7835    0.5794 C   0  0  0  0  0  0  0  0  0  0  0  0
    6.5352   -1.1830    1.3961 H   0  0  0  0  0  0  0  0  0  0  0  0
    4.5760   -1.1889    0.4561 C   0  0  0  0  0  0  0  0  0  0  0  0
    4.1490   -1.9022    1.1796 H   0  0  0  0  0  0  0  0  0  0  0  0
  1 22  1  0  0  0  0
  2  1  1  0  0  0  0
  2  3  1  0  0  0  0
  4  5  1  0  0  0  0
  4  6  1  0  0  0  0
  4  2  1  0  0  0  0
  7  4  1  0  0  0  0
  8 11  1  0  0  0  0
  8  2  1  0  0  0  0
  8 10  1  0  0  0  0
  9  8  1  0  0  0  0
 12 13  1  0  0  0  0
 12 14  1  0  0  0  0
 12  1  1  0  0  0  0
 14 16  1  0  0  0  0
 15 14  1  0  0  0  0
 17 14  1  0  0  0  0
 18 12  1  0  0  0  0
 19 18  1  0  0  0  0
 20 18  1  0  0  0  0
 21 18  1  0  0  0  0
 22 31  2  0  0  0  0
 22 23  1  0  0  0  0
 23 25  2  0  0  0  0
 24 23  1  0  0  0  0
 25 27  1  0  0  0  0
 25 26  1  0  0  0  0
 27 28  1  0  0  0  0
 29 30  1  0  0  0  0
 29 27  2  0  0  0  0
 31 29  1  0  0  0  0
 32 33  1  0  0  0  0
 32 31  1  0  0  0  0
 34 32  2  0  0  0  0
 35 38  1  0  0  0  0
 35 36  1  0  0  0  0
 35 34  1  0  0  0  0
 37 35  1  0  0  0  0
 38 47  1  0  0  0  0
 39 41  1  0  0  0  0
 39 38  2  0  0  0  0
 40 39  1  0  0  0  0
 41 43  2  0  0  0  0
 42 41  1  0  0  0  0
 43 44  1  0  0  0  0
 43 45  1  0  0  0  0
 45 46  1  0  0  0  0
 47 45  2  0  0  0  0
 47 48  1  0  0  0  0
M  END
