5
q = 0.0, confidence = 0.94

 12 12  0  0  1  0  0  0  0  0999 V2000
   -2.1053   -1.9797    0.2725 O   0  0  0  0  0  0  0  0  0  0  0  0
   -3.4309   -0.6636    1.5802 O   0  0  0  0  0  0  0  0  0  0  0  0
   -0.7843   -2.7473   -1.4209 O   0  0  0  0  0  0  0  0  0  0  0  0
   -1.3668   -1.8119   -0.9161 C   0  0  0  0  0  0  0  0  0  0  0  0
   -1.4436   -0.3943   -1.3163 C   0  0  0  0  0  3  0  0  0  0  0  0
   -1.3103   -0.1370   -2.3764 H   0  0  0  0  0  0  0  0  0  0  0  0
   -2.2780    0.2883   -0.3647 C   0  0  2  0  0  3  0  0  0  0  0  0
   -2.6968   -0.7545    0.6246 C   0  0  0  0  0  0  0  0  0  0  0  0
   -3.2049    1.4523   -0.5746 C   0  0  0  0  0  0  0  0  0  0  0  0
   -2.8146    2.1614   -1.3277 H   0  0  0  0  0  0  0  0  0  0  0  0
   -3.3612    1.9974    0.3768 H   0  0  0  0  0  0  0  0  0  0  0  0
   -4.2030    1.0978   -0.9126 H   0  0  0  0  0  0  0  0  0  0  0  0
  1  8  1  0  0  0  0
  3  4  2  0  0  0  0
  4  1  1  0  0  0  0
  5  4  1  0  0  0  0
  5  7  1  0  0  0  0
  6  5  1  0  0  0  0
  7  9  1  6  0  0  0
  7  8  1  0  0  0  0
  8  2  2  0  0  0  0
  9 11  1  0  0  0  0
 10  9  1  0  0  0  0
 12  9  1  0  0  0  0
M  END
