1
q = -1.0

 33 34  0  0  0  0  0  0  0  0999 V2000
    0.5927   -1.4742   -0.4185 C   0  0  0  0  0  3  0  0  0  0  0  0
   -0.4275   -1.9515   -1.2807 C   0  0  0  0  0  0  0  0  0  0  0  0
   -1.4696   -2.5356   -0.4839 C   0  0  0  0  0  0  0  0  0  0  0  0
   -1.0830   -2.3825    0.8757 C   0  0  0  0  0  0  0  0  0  0  0  0
    0.1905   -1.7225    0.9410 C   0  0  0  0  0  0  0  0  0  0  0  0
    0.9406   -1.3617    2.1663 C   0  0  0  0  0  0  0  0  0  0  0  0
    2.4049   -1.1126    2.0315 C   0  0  0  0  0  0  0  0  0  0  0  0
    3.2189   -1.9287    1.2129 C   0  0  0  0  0  0  0  0  0  0  0  0
    4.5926   -1.6813    1.0911 C   0  0  0  0  0  0  0  0  0  0  0  0
    5.1836   -0.6105    1.7799 C   0  0  0  0  0  0  0  0  0  0  0  0
    4.3897    0.2081    2.5980 C   0  0  0  0  0  0  0  0  0  0  0  0
    3.0158   -0.0402    2.7215 C   0  0  0  0  0  0  0  0  0  0  0  0
    0.3218   -1.2457    3.3712 C   0  0  0  0  0  0  0  0  0  0  0  0
   -2.6840   -3.2564   -1.0214 C   0  0  0  0  0  0  0  0  0  0  0  0
   -2.2717   -4.6410   -1.5571 C   0  0  0  0  0  0  0  0  0  0  0  0
   -3.8158   -3.3660    0.0051 C   0  0  0  0  0  0  0  0  0  0  0  0
    1.5277   -1.0003   -0.7344 H   0  0  0  0  0  0  0  0  0  0  0  0
   -0.4267   -1.8793   -2.3754 H   0  0  0  0  0  0  0  0  0  0  0  0
   -1.6633   -2.7146    1.7423 H   0  0  0  0  0  0  0  0  0  0  0  0
    2.7658   -2.7749    0.6758 H   0  0  0  0  0  0  0  0  0  0  0  0
    5.2069   -2.3290    0.4476 H   0  0  0  0  0  0  0  0  0  0  0  0
    6.2602   -0.4095    1.6722 H   0  0  0  0  0  0  0  0  0  0  0  0
    4.8409    1.0561    3.1355 H   0  0  0  0  0  0  0  0  0  0  0  0
    2.3908    0.6208    3.3412 H   0  0  0  0  0  0  0  0  0  0  0  0
    0.9006   -1.0394    4.2834 H   0  0  0  0  0  0  0  0  0  0  0  0
   -0.7687   -1.3500    3.4702 H   0  0  0  0  0  0  0  0  0  0  0  0
   -3.0540   -2.6522   -1.8782 H   0  0  0  0  0  0  0  0  0  0  0  0
   -1.4777   -4.5617   -2.3265 H   0  0  0  0  0  0  0  0  0  0  0  0
   -1.8854   -5.2825   -0.7378 H   0  0  0  0  0  0  0  0  0  0  0  0
   -3.1411   -5.1570   -2.0136 H   0  0  0  0  0  0  0  0  0  0  0  0
   -3.5202   -4.0021    0.8659 H   0  0  0  0  0  0  0  0  0  0  0  0
   -4.1039   -2.3717    0.3994 H   0  0  0  0  0  0  0  0  0  0  0  0
   -4.7106   -3.8308   -0.4546 H   0  0  0  0  0  0  0  0  0  0  0  0
  1  5  1  0  0  0  0
  2  3  2  0  0  0  0
  2  1  1  0  0  0  0
  3  4  1  0  0  0  0
  4  5  2  0  0  0  0
  4 19  1  0  0  0  0
  5  6  1  0  0  0  0
  6 13  2  0  0  0  0
  7  6  1  0  0  0  0
  7 12  1  0  0  0  0
  8  7  2  0  0  0  0
  9  8  1  0  0  0  0
  9 10  2  0  0  0  0
 10 11  1  0  0  0  0
 11 12  2  0  0  0  0
 11 23  1  0  0  0  0
 12 24  1  0  0  0  0
 13 26  1  0  0  0  0
 13 25  1  0  0  0  0
 14  3  1  0  0  0  0
 14 16  1  0  0  0  0
 15 14  1  0  0  0  0
 15 29  1  0  0  0  0
 16 32  1  0  0  0  0
 16 31  1  0  0  0  0
 17  1  1  0  0  0  0
 18  2  1  0  0  0  0
 20  8  1  0  0  0  0
 21  9  1  0  0  0  0
 22 10  1  0  0  0  0
 27 14  1  0  0  0  0
 28 15  1  0  0  0  0
 30 15  1  0  0  0  0
 33 16  1  0  0  0  0
M  END
