5
q = 0.0, confidence = 1.0

 51 54  0  0  0  0  0  0  0  0999 V2000
    1.0923    1.2729   -0.0179 N   0  0  0  0  0  0  0  0  0  0  0  0
    6.5389   -0.2369   -0.0138 N   0  0  0  0  0  0  0  0  0  0  0  0
   -1.0923    1.2729    0.0179 N   0  0  0  0  0  0  0  0  0  0  0  0
   -6.5389   -0.2370    0.0132 N   0  0  0  0  0  0  0  0  0  0  0  0
    0.0000    0.4244   -0.0001 C   0  0  0  0  0  2  0  0  0  0  0  0
    0.7044    2.6162   -0.0115 C   0  0  0  0  0  0  0  0  0  0  0  0
    1.4403    3.8087   -0.0272 C   0  0  0  0  0  0  0  0  0  0  0  0
    0.7066    5.0053   -0.0139 C   0  0  0  0  0  0  0  0  0  0  0  0
    2.4712    0.8919   -0.0275 C   0  0  0  0  0  0  0  0  0  0  0  0
    3.1027    0.5080   -1.2218 C   0  0  0  0  0  0  0  0  0  0  0  0
    4.4470    0.1359   -1.2222 C   0  0  0  0  0  0  0  0  0  0  0  0
    5.2151    0.1529   -0.0218 C   0  0  0  0  0  0  0  0  0  0  0  0
    4.5644    0.5841    1.1704 C   0  0  0  0  0  0  0  0  0  0  0  0
    3.2177    0.9472    1.1604 C   0  0  0  0  0  0  0  0  0  0  0  0
    7.1512   -0.7405   -1.2266 C   0  0  0  0  0  0  0  0  0  0  0  0
    7.2709   -0.2820    1.2356 C   0  0  0  0  0  0  0  0  0  0  0  0
   -0.7044    2.6162    0.0115 C   0  0  0  0  0  0  0  0  0  0  0  0
   -1.4403    3.8087    0.0273 C   0  0  0  0  0  0  0  0  0  0  0  0
   -0.7067    5.0053    0.0141 C   0  0  0  0  0  0  0  0  0  0  0  0
   -2.4711    0.8918    0.0274 C   0  0  0  0  0  0  0  0  0  0  0  0
   -3.2174    0.9467   -1.1608 C   0  0  0  0  0  0  0  0  0  0  0  0
   -4.5641    0.5836   -1.1709 C   0  0  0  0  0  0  0  0  0  0  0  0
   -5.2150    0.1528    0.0213 C   0  0  0  0  0  0  0  0  0  0  0  0
   -4.4472    0.1364    1.2219 C   0  0  0  0  0  0  0  0  0  0  0  0
   -3.1029    0.5085    1.2217 C   0  0  0  0  0  0  0  0  0  0  0  0
   -7.2707   -0.2822   -1.2363 C   0  0  0  0  0  0  0  0  0  0  0  0
   -7.1513   -0.7402    1.2261 C   0  0  0  0  0  0  0  0  0  0  0  0
    2.5388    3.7952   -0.0476 H   0  0  0  0  0  0  0  0  0  0  0  0
    1.2443    5.9651   -0.0256 H   0  0  0  0  0  0  0  0  0  0  0  0
    2.5242    0.4755   -2.1555 H   0  0  0  0  0  0  0  0  0  0  0  0
    4.9008   -0.1834   -2.1682 H   0  0  0  0  0  0  0  0  0  0  0  0
    5.1097    0.6155    2.1215 H   0  0  0  0  0  0  0  0  0  0  0  0
    2.7222    1.2516    2.0941 H   0  0  0  0  0  0  0  0  0  0  0  0
    8.2059   -0.9994   -1.0237 H   0  0  0  0  0  0  0  0  0  0  0  0
    6.6416   -1.6540   -1.6110 H   0  0  0  0  0  0  0  0  0  0  0  0
    7.1413    0.0167   -2.0421 H   0  0  0  0  0  0  0  0  0  0  0  0
    6.8150   -0.9868    1.9686 H   0  0  0  0  0  0  0  0  0  0  0  0
    8.3060   -0.6158    1.0414 H   0  0  0  0  0  0  0  0  0  0  0  0
    7.3254    0.7179    1.7214 H   0  0  0  0  0  0  0  0  0  0  0  0
   -2.5389    3.7951    0.0477 H   0  0  0  0  0  0  0  0  0  0  0  0
   -1.2444    5.9650    0.0258 H   0  0  0  0  0  0  0  0  0  0  0  0
   -2.7217    1.2507   -2.0945 H   0  0  0  0  0  0  0  0  0  0  0  0
   -5.1092    0.6145   -2.1221 H   0  0  0  0  0  0  0  0  0  0  0  0
   -4.9012   -0.1825    2.1680 H   0  0  0  0  0  0  0  0  0  0  0  0
   -2.5246    0.4764    2.1555 H   0  0  0  0  0  0  0  0  0  0  0  0
   -7.3250    0.7176   -1.7222 H   0  0  0  0  0  0  0  0  0  0  0  0
   -6.8149   -0.9872   -1.9691 H   0  0  0  0  0  0  0  0  0  0  0  0
   -8.3059   -0.6158   -1.0421 H   0  0  0  0  0  0  0  0  0  0  0  0
   -8.2059   -0.9997    1.0229 H   0  0  0  0  0  0  0  0  0  0  0  0
   -6.6415   -1.6532    1.6111 H   0  0  0  0  0  0  0  0  0  0  0  0
   -7.1421    0.0175    2.0411 H   0  0  0  0  0  0  0  0  0  0  0  0
  1  6  1  0  0  0  0
  1  5  1  0  0  0  0
  2 16  1  0  0  0  0
  3 20  1  0  0  0  0
  4 23  1  0  0  0  0
  4 27  1  0  0  0  0
  5  3  1  0  0  0  0
  6 17  1  0  0  0  0
  7  8  1  0  0  0  0
  7  6  2  0  0  0  0
  8 19  2  0  0  0  0
  9  1  1  0  0  0  0
  9 14  1  0  0  0  0
 10  9  2  0  0  0  0
 11 10  1  0  0  0  0
 11 12  2  0  0  0  0
 12  2  1  0  0  0  0
 12 13  1  0  0  0  0
 13 32  1  0  0  0  0
 14 13  2  0  0  0  0
 14 33  1  0  0  0  0
 15 34  1  0  0  0  0
 15  2  1  0  0  0  0
 16 39  1  0  0  0  0
 16 37  1  0  0  0  0
 17  3  1  0  0  0  0
 17 18  2  0  0  0  0
 18 40  1  0  0  0  0
 19 41  1  0  0  0  0
 19 18  1  0  0  0  0
 20 25  1  0  0  0  0
 21 20  2  0  0  0  0
 22 21  1  0  0  0  0
 22 23  2  0  0  0  0
 23 24  1  0  0  0  0
 24 44  1  0  0  0  0
 25 24  2  0  0  0  0
 25 45  1  0  0  0  0
 26 48  1  0  0  0  0
 26  4  1  0  0  0  0
 27 50  1  0  0  0  0
 27 51  1  0  0  0  0
 28  7  1  0  0  0  0
 29  8  1  0  0  0  0
 30 10  1  0  0  0  0
 31 11  1  0  0  0  0
 35 15  1  0  0  0  0
 36 15  1  0  0  0  0
 38 16  1  0  0  0  0
 42 21  1  0  0  0  0
 43 22  1  0  0  0  0
 46 26  1  0  0  0  0
 47 26  1  0  0  0  0
 49 27  1  0  0  0  0
M  END
