4
q = -1.0

 20 21  0  0  0  0  0  0  0  0999 V2000
   -1.6273    2.4532   -0.9584 N   0  0  0  0  0  0  0  0  0  0  0  0
   -2.4433    3.5539   -0.8788 N   0  0  0  0  0  0  0  0  0  0  0  0
   -3.1409    3.4299    0.2162 N   0  0  0  0  0  0  0  0  0  0  0  0
   -1.7873    1.5980    0.1045 C   0  0  0  0  0  3  0  0  0  0  0  0
   -2.7808    2.2645    0.8407 C   0  0  0  0  0  0  0  0  0  0  0  0
   -3.2552    1.9530    1.7798 H   0  0  0  0  0  0  0  0  0  0  0  0
   -0.7210    2.3411   -2.0837 C   0  0  0  0  0  0  0  0  0  0  0  0
   -1.1694    2.9550   -2.8931 H   0  0  0  0  0  0  0  0  0  0  0  0
   -0.6993    1.2858   -2.4203 H   0  0  0  0  0  0  0  0  0  0  0  0
    0.6891    2.8177   -1.7985 C   0  0  0  0  0  0  0  0  0  0  0  0
    0.9062    3.9920   -1.0508 C   0  0  0  0  0  0  0  0  0  0  0  0
    0.0357    4.5387   -0.6551 H   0  0  0  0  0  0  0  0  0  0  0  0
    2.2107    4.4547   -0.8229 C   0  0  0  0  0  0  0  0  0  0  0  0
    2.3691    5.3723   -0.2356 H   0  0  0  0  0  0  0  0  0  0  0  0
    3.3123    3.7562   -1.3461 C   0  0  0  0  0  0  0  0  0  0  0  0
    4.3351    4.1200   -1.1657 H   0  0  0  0  0  0  0  0  0  0  0  0
    3.1022    2.5899   -2.0970 C   0  0  0  0  0  0  0  0  0  0  0  0
    3.9597    2.0270   -2.4950 H   0  0  0  0  0  0  0  0  0  0  0  0
    1.7968    2.1227   -2.3156 C   0  0  0  0  0  0  0  0  0  0  0  0
    1.6325    1.1996   -2.8950 H   0  0  0  0  0  0  0  0  0  0  0  0
  1  2  1  0  0  0  0
  1  4  1  0  0  0  0
  2  3  2  0  0  0  0
  3  5  1  0  0  0  0
  4  5  2  0  0  0  0
  5  6  1  0  0  0  0
  7 10  1  0  0  0  0
  7  1  1  0  0  0  0
  8  7  1  0  0  0  0
  9  7  1  0  0  0  0
 10 11  1  0  0  0  0
 11 13  2  0  0  0  0
 11 12  1  0  0  0  0
 13 14  1  0  0  0  0
 15 16  1  0  0  0  0
 15 13  1  0  0  0  0
 17 15  2  0  0  0  0
 18 17  1  0  0  0  0
 19 17  1  0  0  0  0
 19 10  2  0  0  0  0
 20 19  1  0  0  0  0
M  END
