1
q = 0.0, confidence = 0.996

 66 68  0  0  0  0  0  0  0  0999 V2000
   -0.6917    0.3330    0.1243 C   0  0  0  0  0  2  0  0  0  0  0  0
   -0.6418    1.6681    0.4156 N   0  0  0  0  0  0  0  0  0  0  0  0
    0.5900    2.0131    0.9530 C   0  0  0  0  0  0  0  0  0  0  0  0
    0.8464    3.0371    1.2369 H   0  0  0  0  0  0  0  0  0  0  0  0
    1.3509    0.8708    1.0008 C   0  0  0  0  0  0  0  0  0  0  0  0
    0.5449   -0.1445    0.4748 N   0  0  0  0  0  0  0  0  0  0  0  0
    2.7686    0.6549    1.4006 C   0  0  0  0  0  0  0  0  0  0  0  0
    2.9454   -0.3925    1.7142 H   0  0  0  0  0  0  0  0  0  0  0  0
    3.0197    1.2922    2.2745 H   0  0  0  0  0  0  0  0  0  0  0  0
    3.5403    1.7841   -0.6212 O   0  0  0  0  0  0  0  0  0  0  0  0
    3.7644    1.0229    0.2980 C   0  0  0  0  0  0  0  0  0  0  0  0
    4.9433    0.3935    0.5128 O   0  0  0  0  0  0  0  0  0  0  0  0
    6.0273    0.7548   -0.3906 C   0  0  0  0  0  0  0  0  0  0  0  0
    5.6132    0.9095   -1.4062 H   0  0  0  0  0  0  0  0  0  0  0  0
    6.6880   -0.1342   -0.3867 H   0  0  0  0  0  0  0  0  0  0  0  0
    6.7428    1.9799    0.0982 C   0  0  0  0  0  0  0  0  0  0  0  0
    7.3040    1.8727    1.0435 H   0  0  0  0  0  0  0  0  0  0  0  0
    6.7067    3.1629   -0.5374 C   0  0  0  0  0  0  0  0  0  0  0  0
    6.1314    3.2910   -1.4689 H   0  0  0  0  0  0  0  0  0  0  0  0
    7.2448    4.0421   -0.1497 H   0  0  0  0  0  0  0  0  0  0  0  0
   -1.7758    2.5806    0.2225 C   0  0  0  0  0  0  0  0  0  0  0  0
   -2.5205    1.9690   -0.3322 H   0  0  0  0  0  0  0  0  0  0  0  0
   -1.3953    3.7929   -0.6371 C   0  0  0  0  0  0  0  0  0  0  0  0
   -0.9758    3.4438   -1.6030 H   0  0  0  0  0  0  0  0  0  0  0  0
   -0.5935    4.3735   -0.1279 H   0  0  0  0  0  0  0  0  0  0  0  0
   -2.6144    4.6988   -0.8566 C   0  0  0  0  0  0  0  0  0  0  0  0
   -2.3218    5.5855   -1.4557 H   0  0  0  0  0  0  0  0  0  0  0  0
   -3.3699    4.1489   -1.4605 H   0  0  0  0  0  0  0  0  0  0  0  0
   -3.2445    5.1274    0.4752 C   0  0  0  0  0  0  0  0  0  0  0  0
   -2.5241    5.7694    1.0312 H   0  0  0  0  0  0  0  0  0  0  0  0
   -4.1428    5.7528    0.2928 H   0  0  0  0  0  0  0  0  0  0  0  0
   -3.6080    3.9114    1.3375 C   0  0  0  0  0  0  0  0  0  0  0  0
   -4.4097    3.3286    0.8323 H   0  0  0  0  0  0  0  0  0  0  0  0
   -4.0256    4.2330    2.3138 H   0  0  0  0  0  0  0  0  0  0  0  0
   -2.3968    2.9972    1.5635 C   0  0  0  0  0  0  0  0  0  0  0  0
   -1.6308    3.5299    2.1711 H   0  0  0  0  0  0  0  0  0  0  0  0
   -2.6847    2.0859    2.1275 H   0  0  0  0  0  0  0  0  0  0  0  0
    0.9302   -1.5271    0.3619 C   0  0  0  0  0  0  0  0  0  0  0  0
    0.6268   -2.3997    1.4335 C   0  0  0  0  0  0  0  0  0  0  0  0
    1.0185   -3.7454    1.3028 C   0  0  0  0  0  0  0  0  0  0  0  0
    0.7912   -4.4537    2.1138 H   0  0  0  0  0  0  0  0  0  0  0  0
    1.6807   -4.1952    0.1547 C   0  0  0  0  0  0  0  0  0  0  0  0
    1.9740   -5.2526    0.0702 H   0  0  0  0  0  0  0  0  0  0  0  0
    1.9646   -3.3077   -0.8908 C   0  0  0  0  0  0  0  0  0  0  0  0
    2.4757   -3.6756   -1.7925 H   0  0  0  0  0  0  0  0  0  0  0  0
    1.5965   -1.9518   -0.8126 C   0  0  0  0  0  0  0  0  0  0  0  0
   -0.1149   -1.9310    2.6781 C   0  0  0  0  0  0  0  0  0  0  0  0
   -0.2997   -0.8431    2.5716 H   0  0  0  0  0  0  0  0  0  0  0  0
    1.8485   -1.0049   -1.9781 C   0  0  0  0  0  0  0  0  0  0  0  0
    1.7575    0.0332   -1.5999 H   0  0  0  0  0  0  0  0  0  0  0  0
    0.7298   -2.1323    3.9475 C   0  0  0  0  0  0  0  0  0  0  0  0
    0.1980   -1.7357    4.8363 H   0  0  0  0  0  0  0  0  0  0  0  0
    0.9348   -3.2066    4.1347 H   0  0  0  0  0  0  0  0  0  0  0  0
    1.7076   -1.6135    3.8731 H   0  0  0  0  0  0  0  0  0  0  0  0
   -1.4895   -2.6130    2.7870 C   0  0  0  0  0  0  0  0  0  0  0  0
   -2.0466   -2.2264    3.6648 H   0  0  0  0  0  0  0  0  0  0  0  0
   -2.0977   -2.4237    1.8789 H   0  0  0  0  0  0  0  0  0  0  0  0
   -1.3884   -3.7113    2.9080 H   0  0  0  0  0  0  0  0  0  0  0  0
    3.2619   -1.1511   -2.5618 C   0  0  0  0  0  0  0  0  0  0  0  0
    3.4581   -0.3433   -3.2949 H   0  0  0  0  0  0  0  0  0  0  0  0
    4.0358   -1.0945   -1.7705 H   0  0  0  0  0  0  0  0  0  0  0  0
    3.3926   -2.1166   -3.0926 H   0  0  0  0  0  0  0  0  0  0  0  0
    0.7673   -1.1966   -3.0582 C   0  0  0  0  0  0  0  0  0  0  0  0
    0.9131   -0.4760   -3.8887 H   0  0  0  0  0  0  0  0  0  0  0  0
    0.8083   -2.2221   -3.4802 H   0  0  0  0  0  0  0  0  0  0  0  0
   -0.2491   -1.0468   -2.6394 H   0  0  0  0  0  0  0  0  0  0  0  0
  1  2  1  0  0  0  0
  1  6  1  0  0  0  0
  2  3  1  0  0  0  0
  3  5  2  0  0  0  0
  3  4  1  0  0  0  0
  5  7  1  0  0  0  0
  6  5  1  0  0  0  0
  7  8  1  0  0  0  0
  7  9  1  0  0  0  0
 10 11  2  0  0  0  0
 11 12  1  0  0  0  0
 11  7  1  0  0  0  0
 13 15  1  0  0  0  0
 13 16  1  0  0  0  0
 13 12  1  0  0  0  0
 14 13  1  0  0  0  0
 16 17  1  0  0  0  0
 18 20  1  0  0  0  0
 18 16  2  0  0  0  0
 19 18  1  0  0  0  0
 21  2  1  0  0  0  0
 21 35  1  0  0  0  0
 22 21  1  0  0  0  0
 23 25  1  0  0  0  0
 23 21  1  0  0  0  0
 24 23  1  0  0  0  0
 26 23  1  0  0  0  0
 26 29  1  0  0  0  0
 27 26  1  0  0  0  0
 28 26  1  0  0  0  0
 29 30  1  0  0  0  0
 29 32  1  0  0  0  0
 31 29  1  0  0  0  0
 32 35  1  0  0  0  0
 32 34  1  0  0  0  0
 33 32  1  0  0  0  0
 35 37  1  0  0  0  0
 35 36  1  0  0  0  0
 38  6  1  0  0  0  0
 38 39  1  0  0  0  0
 39 47  1  0  0  0  0
 40 39  2  0  0  0  0
 40 41  1  0  0  0  0
 42 40  1  0  0  0  0
 43 42  1  0  0  0  0
 44 46  1  0  0  0  0
 44 42  2  0  0  0  0
 45 44  1  0  0  0  0
 46 38  2  0  0  0  0
 47 55  1  0  0  0  0
 47 51  1  0  0  0  0
 48 47  1  0  0  0  0
 49 50  1  0  0  0  0
 49 46  1  0  0  0  0
 51 53  1  0  0  0  0
 51 52  1  0  0  0  0
 54 51  1  0  0  0  0
 55 58  1  0  0  0  0
 55 56  1  0  0  0  0
 57 55  1  0  0  0  0
 59 49  1  0  0  0  0
 59 61  1  0  0  0  0
 60 59  1  0  0  0  0
 62 59  1  0  0  0  0
 63 66  1  0  0  0  0
 63 49  1  0  0  0  0
 64 63  1  0  0  0  0
 65 63  1  0  0  0  0
M  END
