2
q = 0.0, confidence = 0.99

 25 27  0  0  0  0  0  0  0  0999 V2000
   -0.5299    0.2559   -0.8660 C   0  0  0  0  0  0  0  0  0  0  0  0
   -0.5525   -0.8116    0.0726 C   0  0  0  0  0  2  0  0  0  0  0  0
   -1.4926   -1.5180    0.7266 C   0  0  0  0  0  0  0  0  0  0  0  0
   -2.8952   -1.3960    0.3201 C   0  0  0  0  0  0  0  0  0  0  0  0
   -3.7284   -2.5352    0.4163 C   0  0  0  0  0  0  0  0  0  0  0  0
   -5.0498   -2.5201   -0.0368 C   0  0  0  0  0  0  0  0  0  0  0  0
   -5.5686   -1.3406   -0.5946 C   0  0  0  0  0  0  0  0  0  0  0  0
   -4.7752   -0.1888   -0.6469 C   0  0  0  0  0  0  0  0  0  0  0  0
   -3.4392   -0.1655   -0.1775 C   0  0  0  0  0  0  0  0  0  0  0  0
   -2.7568    1.1677   -0.1296 C   0  0  0  0  0  0  0  0  0  0  0  0
   -3.5451    2.2776    0.2682 C   0  0  0  0  0  0  0  0  0  0  0  0
   -3.0427    3.5832    0.2841 C   0  0  0  0  0  0  0  0  0  0  0  0
   -1.7193    3.8230   -0.1135 C   0  0  0  0  0  0  0  0  0  0  0  0
   -0.9130    2.7410   -0.4856 C   0  0  0  0  0  0  0  0  0  0  0  0
   -1.3961    1.4179   -0.4873 C   0  0  0  0  0  0  0  0  0  0  0  0
   -0.4625   -0.0086   -1.9395 H   0  0  0  0  0  0  0  0  0  0  0  0
   -1.2290   -2.2309    1.5266 H   0  0  0  0  0  0  0  0  0  0  0  0
   -3.3005   -3.4585    0.8369 H   0  0  0  0  0  0  0  0  0  0  0  0
   -5.6692   -3.4271    0.0308 H   0  0  0  0  0  0  0  0  0  0  0  0
   -6.5973   -1.3137   -0.9847 H   0  0  0  0  0  0  0  0  0  0  0  0
   -5.1976    0.7313   -1.0769 H   0  0  0  0  0  0  0  0  0  0  0  0
   -4.5785    2.0983    0.5992 H   0  0  0  0  0  0  0  0  0  0  0  0
   -3.6866    4.4131    0.6122 H   0  0  0  0  0  0  0  0  0  0  0  0
   -1.3137    4.8461   -0.1236 H   0  0  0  0  0  0  0  0  0  0  0  0
    0.1268    2.9140   -0.7933 H   0  0  0  0  0  0  0  0  0  0  0  0
  1 15  2  0  0  0  0
  1  2  1  0  0  0  0
  2  3  1  0  0  0  0
  3 17  1  0  0  0  0
  4  5  1  0  0  0  0
  4  3  2  0  0  0  0
  5 18  1  0  0  0  0
  6 19  1  0  0  0  0
  6  5  2  0  0  0  0
  7  6  1  0  0  0  0
  8  7  2  0  0  0  0
  8  9  1  0  0  0  0
  9 10  2  0  0  0  0
  9  4  1  0  0  0  0
 10 11  1  0  0  0  0
 11 12  2  0  0  0  0
 11 22  1  0  0  0  0
 12 23  1  0  0  0  0
 13 12  1  0  0  0  0
 14 13  2  0  0  0  0
 15 14  1  0  0  0  0
 15 10  1  0  0  0  0
 16  1  1  0  0  0  0
 20  7  1  0  0  0  0
 21  8  1  0  0  0  0
 24 13  1  0  0  0  0
 25 14  1  0  0  0  0
M  END
