2
q = -1.0

 39 41  0  0  1  0  0  0  0  0999 V2000
   -0.4973    0.6387    1.0203 C   0  0  0  0  0  3  0  0  0  0  0  0
   -0.8371    1.3199   -0.1934 C   0  0  0  0  0  3  0  0  0  0  0  0
   -0.5607    0.5929   -1.3940 C   0  0  0  0  0  3  0  0  0  0  0  0
    0.7267   -0.2043   -1.4865 C   0  0  0  0  0  0  0  0  0  0  0  0
    1.0639   -0.9729   -0.1995 C   0  0  2  0  0  0  0  0  0  0  0  0
    0.8007   -0.1508    1.0953 C   0  0  1  0  0  0  0  0  0  0  0  0
    1.9710    0.7705    1.5570 C   0  0  1  0  0  0  0  0  0  0  0  0
    2.3241    1.9220    0.6305 C   0  0  0  0  0  0  0  0  0  0  0  0
    3.3923    1.8098   -0.2816 C   0  0  0  0  0  0  0  0  0  0  0  0
    3.7069    2.8641   -1.1522 C   0  0  0  0  0  0  0  0  0  0  0  0
    2.9647    4.0556   -1.1135 C   0  0  0  0  0  0  0  0  0  0  0  0
    1.9194    4.1907   -0.1856 C   0  0  0  0  0  0  0  0  0  0  0  0
    1.6051    3.1340    0.6815 C   0  0  0  0  0  0  0  0  0  0  0  0
    2.4094   -1.6828   -0.2059 C   0  0  0  0  0  0  0  0  0  0  0  0
    3.3540   -1.5380   -1.2412 C   0  0  0  0  0  0  0  0  0  0  0  0
    4.5799   -2.2242   -1.2063 C   0  0  0  0  0  0  0  0  0  0  0  0
    4.8869   -3.0731   -0.1340 C   0  0  0  0  0  0  0  0  0  0  0  0
    3.9483   -3.2417    0.8979 C   0  0  0  0  0  0  0  0  0  0  0  0
    2.7258   -2.5591    0.8569 C   0  0  0  0  0  0  0  0  0  0  0  0
    1.5865    1.2378    2.8508 O   0  0  0  0  0  0  0  0  0  0  0  0
    2.2890    1.8431    3.1517 H   0  0  0  0  0  0  0  0  0  0  0  0
   -0.7644    1.1302    1.9699 H   0  0  0  0  0  0  0  0  0  0  0  0
   -1.3127    2.3123   -0.2024 H   0  0  0  0  0  0  0  0  0  0  0  0
   -0.8933    1.0476   -2.3428 H   0  0  0  0  0  0  0  0  0  0  0  0
    0.6841   -0.9190   -2.3342 H   0  0  0  0  0  0  0  0  0  0  0  0
    1.5289    0.5275   -1.7300 H   0  0  0  0  0  0  0  0  0  0  0  0
    0.3134   -1.7881   -0.1452 H   0  0  0  0  0  0  0  0  0  0  0  0
    0.7149   -0.8718    1.9354 H   0  0  0  0  0  0  0  0  0  0  0  0
    2.8675    0.1110    1.6315 H   0  0  0  0  0  0  0  0  0  0  0  0
    3.9816    0.8804   -0.3059 H   0  0  0  0  0  0  0  0  0  0  0  0
    4.5442    2.7581   -1.8590 H   0  0  0  0  0  0  0  0  0  0  0  0
    3.2119    4.8846   -1.7941 H   0  0  0  0  0  0  0  0  0  0  0  0
    1.3465    5.1297   -0.1347 H   0  0  0  0  0  0  0  0  0  0  0  0
    0.8037    3.2427    1.4266 H   0  0  0  0  0  0  0  0  0  0  0  0
    3.1364   -0.8790   -2.0933 H   0  0  0  0  0  0  0  0  0  0  0  0
    5.2994   -2.0928   -2.0294 H   0  0  0  0  0  0  0  0  0  0  0  0
    5.8477   -3.6091   -0.1054 H   0  0  0  0  0  0  0  0  0  0  0  0
    4.1677   -3.9176    1.7388 H   0  0  0  0  0  0  0  0  0  0  0  0
    1.9905   -2.7145    1.6624 H   0  0  0  0  0  0  0  0  0  0  0  0
  1  6  1  0  0  0  0
  1 22  1  0  0  0  0
  2  1  1  0  0  0  0
  3  2  1  0  0  0  0
  4  3  1  0  0  0  0
  4  5  1  0  0  0  0
  5 27  1  1  0  0  0
  5  6  1  0  0  0  0
  6  7  1  0  0  0  0
  6 28  1  1  0  0  0
  7 29  1  1  0  0  0
  7 20  1  0  0  0  0
  8 13  1  0  0  0  0
  8  7  1  0  0  0  0
  9  8  2  0  0  0  0
 10 11  2  0  0  0  0
 10  9  1  0  0  0  0
 11 12  1  0  0  0  0
 12 33  1  0  0  0  0
 12 13  2  0  0  0  0
 13 34  1  0  0  0  0
 14  5  1  0  0  0  0
 14 19  1  0  0  0  0
 15 16  1  0  0  0  0
 15 14  2  0  0  0  0
 16 17  2  0  0  0  0
 17 37  1  0  0  0  0
 17 18  1  0  0  0  0
 18 38  1  0  0  0  0
 19 18  2  0  0  0  0
 19 39  1  0  0  0  0
 20 21  1  0  0  0  0
 23  2  1  0  0  0  0
 24  3  1  0  0  0  0
 25  4  1  0  0  0  0
 26  4  1  0  0  0  0
 30  9  1  0  0  0  0
 31 10  1  0  0  0  0
 32 11  1  0  0  0  0
 35 15  1  0  0  0  0
 36 16  1  0  0  0  0
M  END
