3
q = -1.0

  7  7  0  0  0  0  0  0  0  0999 V2000
    0.1389   -2.7329    1.0675 O   0  0  0  0  0  0  0  0  0  0  0  0
   -0.1450   -2.7514   -1.1439 N   0  0  0  0  0  0  0  0  0  0  0  0
   -0.0134   -1.9594   -0.0913 C   0  0  0  0  0  3  0  0  0  0  0  0
    0.0926   -4.0479    0.6719 C   0  0  0  0  0  0  0  0  0  0  0  0
   -0.0809   -4.0613   -0.6854 C   0  0  0  0  0  0  0  0  0  0  0  0
    0.1923   -4.8090    1.4514 H   0  0  0  0  0  0  0  0  0  0  0  0
   -0.1626   -4.9225   -1.3600 H   0  0  0  0  0  0  0  0  0  0  0  0
  2  5  1  0  0  0  0
  2  3  2  0  0  0  0
  3  1  1  0  0  0  0
  4  1  1  0  0  0  0
  4  6  1  0  0  0  0
  5  4  2  0  0  0  0
  7  5  1  0  0  0  0
M  END
