3
q = 0.0, confidence = 0.996

 28 29  0  0  0  0  0  0  0  0999 V2000
   -0.0568   -1.3459    0.0682 N   0  0  0  0  0  0  0  0  0  0  0  0
    1.2748   -1.6619   -1.6432 F   0  0  0  0  0  0  0  0  0  0  0  0
    1.1112   -0.9921   -0.4748 C   0  0  0  0  0  2  0  0  0  0  0  0
   -0.5499   -0.7732    1.3254 C   0  0  0  0  0  0  0  0  0  0  0  0
   -1.8516   -0.0020    1.0976 C   0  0  0  0  0  0  0  0  0  0  0  0
   -2.9254   -0.8794    0.4245 C   0  0  0  0  0  0  0  0  0  0  0  0
   -2.3417   -1.5244   -0.8493 C   0  0  0  0  0  0  0  0  0  0  0  0
   -1.0294   -2.2597   -0.5635 C   0  0  0  0  0  0  0  0  0  0  0  0
   -4.2145   -0.1268    0.1517 C   0  0  0  0  0  0  0  0  0  0  0  0
   -5.4304   -0.5602    0.7148 C   0  0  0  0  0  0  0  0  0  0  0  0
   -6.6292    0.1246    0.4624 C   0  0  0  0  0  0  0  0  0  0  0  0
   -6.6298    1.2596   -0.3620 C   0  0  0  0  0  0  0  0  0  0  0  0
   -5.4248    1.7034   -0.9303 C   0  0  0  0  0  0  0  0  0  0  0  0
   -4.2295    1.0161   -0.6752 C   0  0  0  0  0  0  0  0  0  0  0  0
   -0.7145   -1.6154    2.0331 H   0  0  0  0  0  0  0  0  0  0  0  0
    0.2351   -0.1277    1.7493 H   0  0  0  0  0  0  0  0  0  0  0  0
   -1.6344    0.8883    0.4713 H   0  0  0  0  0  0  0  0  0  0  0  0
   -2.2224    0.3788    2.0707 H   0  0  0  0  0  0  0  0  0  0  0  0
   -3.1663   -1.7072    1.1296 H   0  0  0  0  0  0  0  0  0  0  0  0
   -3.0713   -2.2361   -1.2867 H   0  0  0  0  0  0  0  0  0  0  0  0
   -2.1577   -0.7422   -1.6164 H   0  0  0  0  0  0  0  0  0  0  0  0
   -0.5874   -2.6783   -1.4819 H   0  0  0  0  0  0  0  0  0  0  0  0
   -1.2041   -3.0977    0.1464 H   0  0  0  0  0  0  0  0  0  0  0  0
   -5.4349   -1.4508    1.3640 H   0  0  0  0  0  0  0  0  0  0  0  0
   -7.5679   -0.2311    0.9139 H   0  0  0  0  0  0  0  0  0  0  0  0
   -7.5678    1.7996   -0.5615 H   0  0  0  0  0  0  0  0  0  0  0  0
   -5.4148    2.5938   -1.5771 H   0  0  0  0  0  0  0  0  0  0  0  0
   -3.2934    1.3802   -1.1278 H   0  0  0  0  0  0  0  0  0  0  0  0
  1  4  1  0  0  0  0
  2  3  1  0  0  0  0
  3  1  1  0  0  0  0
  4 16  1  0  0  0  0
  4 15  1  0  0  0  0
  5  4  1  0  0  0  0
  5 18  1  0  0  0  0
  6  5  1  0  0  0  0
  6 19  1  0  0  0  0
  7  8  1  0  0  0  0
  7  6  1  0  0  0  0
  8  1  1  0  0  0  0
  8 23  1  0  0  0  0
  9  6  1  0  0  0  0
  9 10  1  0  0  0  0
 10 24  1  0  0  0  0
 11 10  2  0  0  0  0
 11 25  1  0  0  0  0
 12 11  1  0  0  0  0
 13 14  1  0  0  0  0
 13 12  2  0  0  0  0
 14  9  2  0  0  0  0
 17  5  1  0  0  0  0
 20  7  1  0  0  0  0
 21  7  1  0  0  0  0
 22  8  1  0  0  0  0
 26 12  1  0  0  0  0
 27 13  1  0  0  0  0
 28 14  1  0  0  0  0
M  END
