2
q = -1.0, confidence = 0.0

 40 40  0  0  1  0  0  0  0  0999 V2000
   -3.8328   -0.5582   -0.0756 Si  0  0  0  0  0  0  0  0  0  0  0  0
   -2.2800    0.5319    0.0944 C   0  0  1  0  0  3  0  0  0  0  0  0
   -1.8239    1.5542   -0.8203 C   0  0  2  0  0  3  0  0  0  0  0  0
   -0.8356    2.3455   -0.1565 C   0  0  0  0  0  0  0  0  0  0  0  0
   -0.6272    1.8046    1.1479 C   0  0  0  0  0  0  0  0  0  0  0  0
   -1.5393    0.7058    1.3148 C   0  0  1  0  0  3  0  0  0  0  0  0
   -2.3378    1.8519   -2.1947 C   0  0  0  0  0  0  0  0  0  0  0  0
   -3.2705    2.4539   -2.1418 H   0  0  0  0  0  0  0  0  0  0  0  0
   -2.5525    0.9238   -2.7522 H   0  0  0  0  0  0  0  0  0  0  0  0
   -1.5922    2.4267   -2.7752 H   0  0  0  0  0  0  0  0  0  0  0  0
   -0.2535    3.6273   -0.6574 C   0  0  0  0  0  0  0  0  0  0  0  0
   -0.9836    4.4513   -0.5003 H   0  0  0  0  0  0  0  0  0  0  0  0
   -0.0196    3.5758   -1.7370 H   0  0  0  0  0  0  0  0  0  0  0  0
    0.6769    3.8972   -0.1232 H   0  0  0  0  0  0  0  0  0  0  0  0
    0.1270    2.5215    2.2281 C   0  0  0  0  0  0  0  0  0  0  0  0
    1.1701    2.7513    1.9397 H   0  0  0  0  0  0  0  0  0  0  0  0
    0.1473    1.9602    3.1776 H   0  0  0  0  0  0  0  0  0  0  0  0
   -0.3687    3.4946    2.4347 H   0  0  0  0  0  0  0  0  0  0  0  0
   -1.8939    0.1139    2.6458 C   0  0  0  0  0  0  0  0  0  0  0  0
   -1.0249    0.0283    3.3231 H   0  0  0  0  0  0  0  0  0  0  0  0
   -2.3611   -0.8817    2.5600 H   0  0  0  0  0  0  0  0  0  0  0  0
   -2.6279    0.7786    3.1513 H   0  0  0  0  0  0  0  0  0  0  0  0
   -3.5231   -2.3649    0.4052 C   0  0  0  0  0  0  0  0  0  0  0  0
   -4.4107   -2.9781    0.1474 H   0  0  0  0  0  0  0  0  0  0  0  0
   -3.3283   -2.5010    1.4877 H   0  0  0  0  0  0  0  0  0  0  0  0
   -2.6596   -2.7521   -0.1700 H   0  0  0  0  0  0  0  0  0  0  0  0
   -4.6034   -0.5471   -1.8021 C   0  0  0  0  0  0  0  0  0  0  0  0
   -3.8968   -0.9566   -2.5487 H   0  0  0  0  0  0  0  0  0  0  0  0
   -4.9178    0.4633   -2.1272 H   0  0  0  0  0  0  0  0  0  0  0  0
   -5.5040   -1.1953   -1.7859 H   0  0  0  0  0  0  0  0  0  0  0  0
   -5.1076    0.2151    1.1426 C   0  0  0  0  0  0  0  0  0  0  0  0
   -4.6851    0.0645    2.1616 H   0  0  0  0  0  0  0  0  0  0  0  0
   -5.2626    1.7256    0.9099 C   0  0  0  0  0  0  0  0  0  0  0  0
   -5.6554    1.9394   -0.1075 H   0  0  0  0  0  0  0  0  0  0  0  0
   -4.2962    2.2619    1.0065 H   0  0  0  0  0  0  0  0  0  0  0  0
   -5.9757    2.1796    1.6323 H   0  0  0  0  0  0  0  0  0  0  0  0
   -6.4612   -0.5093    1.0852 C   0  0  0  0  0  0  0  0  0  0  0  0
   -7.1717   -0.0999    1.8361 H   0  0  0  0  0  0  0  0  0  0  0  0
   -6.3651   -1.5974    1.2805 H   0  0  0  0  0  0  0  0  0  0  0  0
   -6.9413   -0.3932    0.0906 H   0  0  0  0  0  0  0  0  0  0  0  0
  1 23  1  0  0  0  0
  1 31  1  0  0  0  0
  2  1  1  1  0  0  0
  2  6  1  0  0  0  0
  3  7  1  1  0  0  0
  3  4  1  0  0  0  0
  3  2  1  0  0  0  0
  4  5  2  0  0  0  0
  5  6  1  0  0  0  0
  5 15  1  0  0  0  0
  6 19  1  1  0  0  0
  7  8  1  0  0  0  0
  9  7  1  0  0  0  0
 10  7  1  0  0  0  0
 11 12  1  0  0  0  0
 11  4  1  0  0  0  0
 11 14  1  0  0  0  0
 13 11  1  0  0  0  0
 15 18  1  0  0  0  0
 15 17  1  0  0  0  0
 16 15  1  0  0  0  0
 19 22  1  0  0  0  0
 19 20  1  0  0  0  0
 21 19  1  0  0  0  0
 23 25  1  0  0  0  0
 24 23  1  0  0  0  0
 26 23  1  0  0  0  0
 27 30  1  0  0  0  0
 27  1  1  0  0  0  0
 28 27  1  0  0  0  0
 29 27  1  0  0  0  0
 31 32  1  0  0  0  0
 33 35  1  0  0  0  0
 33 31  1  0  0  0  0
 33 36  1  0  0  0  0
 34 33  1  0  0  0  0
 37 31  1  0  0  0  0
 37 39  1  0  0  0  0
 37 38  1  0  0  0  0
 40 37  1  0  0  0  0
M  END
