4
q = -1.0, confidence = 0.008

 61 63  0  0  0  0  0  0  0  0999 V2000
   -0.2920    1.7143   -0.6726 Si  0  0  0  0  0  0  0  0  0  0  0  0
   -2.1503    0.3252    1.5624 Si  0  0  0  0  0  0  0  0  0  0  0  0
    1.0321    0.4741    1.9653 Si  0  0  0  0  0  0  0  0  0  0  0  0
   -0.4281    0.3865    0.7160 C   0  0  0  0  0  3  0  0  0  0  0  0
   -1.2752    1.2757   -2.2344 C   0  0  0  0  0  0  0  0  0  0  0  0
   -0.8916    3.4140   -0.0890 C   0  0  0  0  0  0  0  0  0  0  0  0
    1.5130    1.8643   -1.2533 C   0  0  0  0  0  0  0  0  0  0  0  0
    2.1260    0.7975   -1.9504 C   0  0  0  0  0  0  0  0  0  0  0  0
    3.4332    0.8990   -2.4442 C   0  0  0  0  0  0  0  0  0  0  0  0
    4.1622    2.0846   -2.2553 C   0  0  0  0  0  0  0  0  0  0  0  0
    3.5751    3.1599   -1.5721 C   0  0  0  0  0  0  0  0  0  0  0  0
    2.2639    3.0476   -1.0796 C   0  0  0  0  0  0  0  0  0  0  0  0
   -2.3385    1.7003    2.8532 C   0  0  0  0  0  0  0  0  0  0  0  0
   -2.4958   -1.3408    2.4053 C   0  0  0  0  0  0  0  0  0  0  0  0
   -3.5206    0.5214    0.2592 C   0  0  0  0  0  0  0  0  0  0  0  0
   -4.2523    1.7203    0.1094 C   0  0  0  0  0  0  0  0  0  0  0  0
   -5.2259    1.8617   -0.8931 C   0  0  0  0  0  0  0  0  0  0  0  0
   -5.4959    0.7955   -1.7651 C   0  0  0  0  0  0  0  0  0  0  0  0
   -4.7981   -0.4147   -1.6202 C   0  0  0  0  0  0  0  0  0  0  0  0
   -3.8265   -0.5461   -0.6169 C   0  0  0  0  0  0  0  0  0  0  0  0
    0.7221   -0.5875    3.5086 C   0  0  0  0  0  0  0  0  0  0  0  0
    1.3281    2.2544    2.5407 C   0  0  0  0  0  0  0  0  0  0  0  0
    2.6594   -0.1939    1.2387 C   0  0  0  0  0  0  0  0  0  0  0  0
    2.8096   -1.5660    0.9305 C   0  0  0  0  0  0  0  0  0  0  0  0
    4.0049   -2.0741    0.3991 C   0  0  0  0  0  0  0  0  0  0  0  0
    5.0952   -1.2152    0.1888 C   0  0  0  0  0  0  0  0  0  0  0  0
    4.9797    0.1441    0.5173 C   0  0  0  0  0  0  0  0  0  0  0  0
    3.7755    0.6459    1.0343 C   0  0  0  0  0  0  0  0  0  0  0  0
   -1.0526    2.0444   -3.0032 H   0  0  0  0  0  0  0  0  0  0  0  0
   -0.9820    0.2939   -2.6609 H   0  0  0  0  0  0  0  0  0  0  0  0
   -2.3670    1.2598   -2.0585 H   0  0  0  0  0  0  0  0  0  0  0  0
   -0.6972    4.1613   -0.8858 H   0  0  0  0  0  0  0  0  0  0  0  0
   -1.9856    3.3918    0.0822 H   0  0  0  0  0  0  0  0  0  0  0  0
   -0.3992    3.7605    0.8393 H   0  0  0  0  0  0  0  0  0  0  0  0
    1.5762   -0.1450   -2.1170 H   0  0  0  0  0  0  0  0  0  0  0  0
    3.8880    0.0473   -2.9719 H   0  0  0  0  0  0  0  0  0  0  0  0
    5.1901    2.1682   -2.6405 H   0  0  0  0  0  0  0  0  0  0  0  0
    4.1392    4.0940   -1.4243 H   0  0  0  0  0  0  0  0  0  0  0  0
    1.8181    3.9084   -0.5555 H   0  0  0  0  0  0  0  0  0  0  0  0
   -3.3745    1.6979    3.2499 H   0  0  0  0  0  0  0  0  0  0  0  0
   -1.6517    1.5408    3.7081 H   0  0  0  0  0  0  0  0  0  0  0  0
   -2.1305    2.7041    2.4349 H   0  0  0  0  0  0  0  0  0  0  0  0
   -3.5104   -1.3081    2.8537 H   0  0  0  0  0  0  0  0  0  0  0  0
   -2.4853   -2.1833    1.6830 H   0  0  0  0  0  0  0  0  0  0  0  0
   -1.7708   -1.5746    3.2066 H   0  0  0  0  0  0  0  0  0  0  0  0
   -4.0617    2.5675    0.7875 H   0  0  0  0  0  0  0  0  0  0  0  0
   -5.7776    2.8092   -0.9934 H   0  0  0  0  0  0  0  0  0  0  0  0
   -6.2553    0.9048   -2.5545 H   0  0  0  0  0  0  0  0  0  0  0  0
   -5.0098   -1.2595   -2.2934 H   0  0  0  0  0  0  0  0  0  0  0  0
   -3.2936   -1.5082   -0.5269 H   0  0  0  0  0  0  0  0  0  0  0  0
    1.6257   -0.5331    4.1498 H   0  0  0  0  0  0  0  0  0  0  0  0
   -0.1430   -0.2429    4.1087 H   0  0  0  0  0  0  0  0  0  0  0  0
    0.5614   -1.6539    3.2513 H   0  0  0  0  0  0  0  0  0  0  0  0
    2.1194    2.2610    3.3182 H   0  0  0  0  0  0  0  0  0  0  0  0
    1.6604    2.9084    1.7114 H   0  0  0  0  0  0  0  0  0  0  0  0
    0.4119    2.6919    2.9822 H   0  0  0  0  0  0  0  0  0  0  0  0
    1.9830   -2.2743    1.1163 H   0  0  0  0  0  0  0  0  0  0  0  0
    4.0841   -3.1445    0.1552 H   0  0  0  0  0  0  0  0  0  0  0  0
    6.0358   -1.6073   -0.2278 H   0  0  0  0  0  0  0  0  0  0  0  0
    5.8291    0.8252    0.3555 H   0  0  0  0  0  0  0  0  0  0  0  0
    3.7038    1.7204    1.2589 H   0  0  0  0  0  0  0  0  0  0  0  0
  1  6  1  0  0  0  0
  1  4  1  0  0  0  0
  2 14  1  0  0  0  0
  2 13  1  0  0  0  0
  3 22  1  0  0  0  0
  3 21  1  0  0  0  0
  4  2  1  0  0  0  0
  4  3  1  0  0  0  0
  5 31  1  0  0  0  0
  5  1  1  0  0  0  0
  6 33  1  0  0  0  0
  6 34  1  0  0  0  0
  7 12  1  0  0  0  0
  7  1  1  0  0  0  0
  8  7  2  0  0  0  0
  9 10  2  0  0  0  0
  9  8  1  0  0  0  0
 10 11  1  0  0  0  0
 11 38  1  0  0  0  0
 11 12  2  0  0  0  0
 12 39  1  0  0  0  0
 13 40  1  0  0  0  0
 13 41  1  0  0  0  0
 14 43  1  0  0  0  0
 14 45  1  0  0  0  0
 15  2  1  0  0  0  0
 16 15  1  0  0  0  0
 16 46  1  0  0  0  0
 17 16  2  0  0  0  0
 18 19  2  0  0  0  0
 18 17  1  0  0  0  0
 19 20  1  0  0  0  0
 20 50  1  0  0  0  0
 20 15  2  0  0  0  0
 21 52  1  0  0  0  0
 21 51  1  0  0  0  0
 22 56  1  0  0  0  0
 22 54  1  0  0  0  0
 23  3  1  0  0  0  0
 24 57  1  0  0  0  0
 24 23  2  0  0  0  0
 25 24  1  0  0  0  0
 26 25  2  0  0  0  0
 26 27  1  0  0  0  0
 27 28  2  0  0  0  0
 28 23  1  0  0  0  0
 28 61  1  0  0  0  0
 29  5  1  0  0  0  0
 30  5  1  0  0  0  0
 32  6  1  0  0  0  0
 35  8  1  0  0  0  0
 36  9  1  0  0  0  0
 37 10  1  0  0  0  0
 42 13  1  0  0  0  0
 44 14  1  0  0  0  0
 47 17  1  0  0  0  0
 48 18  1  0  0  0  0
 49 19  1  0  0  0  0
 53 21  1  0  0  0  0
 55 22  1  0  0  0  0
 58 25  1  0  0  0  0
 59 26  1  0  0  0  0
 60 27  1  0  0  0  0
M  END
