1
q = -1.0

 19 19  0  0  0  0  0  0  0  0999 V2000
   -1.0713   -0.1983   -0.0962 C   0  0  0  0  0  3  0  0  0  0  0  0
   -2.3062   -0.2776   -0.1174 C   0  0  0  0  0  0  0  0  0  0  0  0
   -3.7284   -0.3659   -0.1550 C   0  0  0  0  0  0  0  0  0  0  0  0
   -4.4073   -1.4717    0.4178 C   0  0  0  0  0  0  0  0  0  0  0  0
   -3.8240   -2.2701    0.8993 H   0  0  0  0  0  0  0  0  0  0  0  0
   -5.8016   -1.5448    0.3754 C   0  0  0  0  0  0  0  0  0  0  0  0
   -6.3122   -2.4108    0.8254 H   0  0  0  0  0  0  0  0  0  0  0  0
   -6.5716   -0.5332   -0.2382 C   0  0  0  0  0  0  0  0  0  0  0  0
   -5.8912    0.5649   -0.8075 C   0  0  0  0  0  0  0  0  0  0  0  0
   -6.4721    1.3635   -1.2953 H   0  0  0  0  0  0  0  0  0  0  0  0
   -4.4978    0.6547   -0.7708 C   0  0  0  0  0  0  0  0  0  0  0  0
   -3.9840    1.5133   -1.2273 H   0  0  0  0  0  0  0  0  0  0  0  0
   -8.0800   -0.5944   -0.2336 C   0  0  0  0  0  0  0  0  0  0  0  0
   -8.4706   -0.1083   -1.1521 H   0  0  0  0  0  0  0  0  0  0  0  0
   -8.4053   -1.6550   -0.2743 H   0  0  0  0  0  0  0  0  0  0  0  0
   -8.6906    0.0826    1.0048 C   0  0  0  0  0  0  0  0  0  0  0  0
   -9.7970    0.0240    0.9838 H   0  0  0  0  0  0  0  0  0  0  0  0
   -8.4054    1.1529    1.0566 H   0  0  0  0  0  0  0  0  0  0  0  0
   -8.3396   -0.4011    1.9387 H   0  0  0  0  0  0  0  0  0  0  0  0
  2  1  3  0  0  0  0
  3  2  1  0  0  0  0
  3  4  1  0  0  0  0
  4  5  1  0  0  0  0
  6  4  2  0  0  0  0
  6  7  1  0  0  0  0
  8 13  1  0  0  0  0
  8  6  1  0  0  0  0
  9 11  1  0  0  0  0
  9  8  2  0  0  0  0
 10  9  1  0  0  0  0
 11  3  2  0  0  0  0
 12 11  1  0  0  0  0
 13 16  1  0  0  0  0
 14 13  1  0  0  0  0
 15 13  1  0  0  0  0
 16 18  1  0  0  0  0
 16 19  1  0  0  0  0
 17 16  1  0  0  0  0
M  END
