19
q = -1.0

 49 52  0  0  0  0  0  0  0  0999 V2000
    0.5205    0.6253    0.1081 P   0  0  0  0  0  0  0  0  0  0  0  0
   -1.2523    0.2018   -0.1993 C   0  0  0  0  0  0  0  0  0  0  0  0
   -1.4688   -1.1496   -0.1412 C   0  0  0  0  0  0  0  0  0  0  0  0
    0.6729    2.8989    1.8758 C   0  0  0  0  0  0  0  0  0  0  0  0
    0.9665    3.5069    1.0079 H   0  0  0  0  0  0  0  0  0  0  0  0
   -2.8207   -1.7535   -0.0855 C   0  0  0  0  0  0  0  0  0  0  0  0
    1.0378    1.8982   -1.1123 C   0  0  0  0  0  0  0  0  0  0  0  0
   -2.4290    2.4076    0.2748 C   0  0  0  0  0  0  0  0  0  0  0  0
   -1.7667    2.5909    1.1298 H   0  0  0  0  0  0  0  0  0  0  0  0
    0.4000    1.5272    1.7198 C   0  0  0  0  0  0  0  0  0  0  0  0
   -0.4245   -3.2697   -0.3275 O   0  0  0  0  0  0  0  0  0  0  0  0
   -2.2961    1.2154   -0.4729 C   0  0  0  0  0  0  0  0  0  0  0  0
   -3.1823    1.0033   -1.5596 C   0  0  0  0  0  0  0  0  0  0  0  0
   -3.0889    0.0819   -2.1526 H   0  0  0  0  0  0  0  0  0  0  0  0
   -3.7629   -1.2529    0.8433 C   0  0  0  0  0  0  0  0  0  0  0  0
   -3.4728   -0.4237    1.5056 H   0  0  0  0  0  0  0  0  0  0  0  0
   -3.1945   -2.8341   -0.9164 C   0  0  0  0  0  0  0  0  0  0  0  0
   -2.4689   -3.2411   -1.6316 H   0  0  0  0  0  0  0  0  0  0  0  0
   -0.2558   -2.0745   -0.1250 C   0  0  0  0  0  3  0  0  0  0  0  0
    2.8366    3.3349   -1.9273 C   0  0  0  0  0  0  0  0  0  0  0  0
    3.8436    3.7606   -1.8003 H   0  0  0  0  0  0  0  0  0  0  0  0
    0.0112    0.7606    2.8379 C   0  0  0  0  0  0  0  0  0  0  0  0
   -0.1782   -0.3178    2.7175 H   0  0  0  0  0  0  0  0  0  0  0  0
    2.3326    2.4477   -0.9668 C   0  0  0  0  0  0  0  0  0  0  0  0
    2.9513    2.1690   -0.0997 H   0  0  0  0  0  0  0  0  0  0  0  0
    0.5541    3.4970    3.1412 C   0  0  0  0  0  0  0  0  0  0  0  0
    0.7739    4.5692    3.2576 H   0  0  0  0  0  0  0  0  0  0  0  0
   -0.1171    1.3650    4.0948 C   0  0  0  0  0  0  0  0  0  0  0  0
   -0.4230    0.7598    4.9614 H   0  0  0  0  0  0  0  0  0  0  0  0
    0.2678    2.2380   -2.2421 C   0  0  0  0  0  0  0  0  0  0  0  0
   -0.7386    1.8186   -2.3741 H   0  0  0  0  0  0  0  0  0  0  0  0
   -3.4162    3.3489   -0.0508 C   0  0  0  0  0  0  0  0  0  0  0  0
   -3.5071    4.2651    0.5523 H   0  0  0  0  0  0  0  0  0  0  0  0
   -4.4842   -3.3782   -0.8324 C   0  0  0  0  0  0  0  0  0  0  0  0
   -4.7647   -4.2129   -1.4928 H   0  0  0  0  0  0  0  0  0  0  0  0
    0.1560    2.7351    4.2497 C   0  0  0  0  0  0  0  0  0  0  0  0
    0.0634    3.2075    5.2393 H   0  0  0  0  0  0  0  0  0  0  0  0
   -4.2825    3.1291   -1.1319 C   0  0  0  0  0  0  0  0  0  0  0  0
   -5.0525    3.8728   -1.3870 H   0  0  0  0  0  0  0  0  0  0  0  0
   -5.0450   -1.8069    0.9315 C   0  0  0  0  0  0  0  0  0  0  0  0
   -5.7625   -1.4077    1.6643 H   0  0  0  0  0  0  0  0  0  0  0  0
    0.7840    3.1189   -3.2069 C   0  0  0  0  0  0  0  0  0  0  0  0
    0.1735    3.3761   -4.0858 H   0  0  0  0  0  0  0  0  0  0  0  0
   -4.1590    1.9500   -1.8864 C   0  0  0  0  0  0  0  0  0  0  0  0
   -4.8314    1.7650   -2.7379 H   0  0  0  0  0  0  0  0  0  0  0  0
   -5.4125   -2.8694    0.0890 C   0  0  0  0  0  0  0  0  0  0  0  0
   -6.4218   -3.3037    0.1549 H   0  0  0  0  0  0  0  0  0  0  0  0
    2.0639    3.6714   -3.0520 C   0  0  0  0  0  0  0  0  0  0  0  0
    2.4633    4.3626   -3.8095 H   0  0  0  0  0  0  0  0  0  0  0  0
  1 10  1  0  0  0  0
  2  3  2  0  0  0  0
  2  1  1  0  0  0  0
  3 19  1  0  0  0  0
  3  6  1  0  0  0  0
  4 26  1  0  0  0  0
  5  4  1  0  0  0  0
  6 15  1  0  0  0  0
  7 24  1  0  0  0  0
  7  1  1  0  0  0  0
  8  9  1  0  0  0  0
 10  4  2  0  0  0  0
 10 22  1  0  0  0  0
 11 19  2  0  0  0  0
 12  2  1  0  0  0  0
 12  8  2  0  0  0  0
 13 12  1  0  0  0  0
 14 13  1  0  0  0  0
 15 40  2  0  0  0  0
 15 16  1  0  0  0  0
 17 34  1  0  0  0  0
 17  6  2  0  0  0  0
 18 17  1  0  0  0  0
 20 21  1  0  0  0  0
 20 24  2  0  0  0  0
 22 28  2  0  0  0  0
 23 22  1  0  0  0  0
 24 25  1  0  0  0  0
 26 27  1  0  0  0  0
 26 36  2  0  0  0  0
 28 36  1  0  0  0  0
 28 29  1  0  0  0  0
 30  7  2  0  0  0  0
 31 30  1  0  0  0  0
 32  8  1  0  0  0  0
 32 33  1  0  0  0  0
 34 46  2  0  0  0  0
 35 34  1  0  0  0  0
 36 37  1  0  0  0  0
 38 32  2  0  0  0  0
 39 38  1  0  0  0  0
 40 41  1  0  0  0  0
 42 48  2  0  0  0  0
 42 30  1  0  0  0  0
 43 42  1  0  0  0  0
 44 13  2  0  0  0  0
 44 38  1  0  0  0  0
 45 44  1  0  0  0  0
 46 47  1  0  0  0  0
 46 40  1  0  0  0  0
 48 20  1  0  0  0  0
 49 48  1  0  0  0  0
M  END
