4
q = -1.0, confidence = 0.0

 24 24  0  0  0  0  0  0  0  0999 V2000
    0.0009    2.4651   -0.2190 C   0  0  0  0  0  0  0  0  0  0  0  0
    0.0011    3.2300    0.5653 H   0  0  0  0  0  0  0  0  0  0  0  0
    1.1700    1.9039   -0.8238 C   0  0  0  0  0  0  0  0  0  0  0  0
    0.7161    0.8822   -1.7208 C   0  0  0  0  0  3  0  0  0  0  0  0
    1.3605    0.2459   -2.3385 H   0  0  0  0  0  0  0  0  0  0  0  0
   -0.7150    0.8827   -1.7209 C   0  0  0  0  0  0  0  0  0  0  0  0
   -1.3597    0.2468   -2.3388 H   0  0  0  0  0  0  0  0  0  0  0  0
   -1.1684    1.9047   -0.8240 C   0  0  0  0  0  0  0  0  0  0  0  0
    2.5708    2.3081   -0.6045 C   0  0  0  0  0  0  0  0  0  0  0  0
    2.8757    3.4212    0.1020 C   0  0  0  0  0  0  0  0  0  0  0  0
    3.9234    3.7209    0.2548 H   0  0  0  0  0  0  0  0  0  0  0  0
    2.1020    4.0614    0.5495 H   0  0  0  0  0  0  0  0  0  0  0  0
    3.6398    1.4434   -1.2185 C   0  0  0  0  0  0  0  0  0  0  0  0
    4.6495    1.8318   -0.9891 H   0  0  0  0  0  0  0  0  0  0  0  0
    3.5345    1.3890   -2.3228 H   0  0  0  0  0  0  0  0  0  0  0  0
    3.5707    0.4019   -0.8435 H   0  0  0  0  0  0  0  0  0  0  0  0
   -2.5689    2.3099   -0.6052 C   0  0  0  0  0  0  0  0  0  0  0  0
   -2.8731    3.4239    0.1002 C   0  0  0  0  0  0  0  0  0  0  0  0
   -2.0989    4.0642    0.5469 H   0  0  0  0  0  0  0  0  0  0  0  0
   -3.9206    3.7245    0.2528 H   0  0  0  0  0  0  0  0  0  0  0  0
   -3.6384    1.4453   -1.2184 C   0  0  0  0  0  0  0  0  0  0  0  0
   -4.6479    1.8341   -0.9887 H   0  0  0  0  0  0  0  0  0  0  0  0
   -3.5695    0.4040   -0.8430 H   0  0  0  0  0  0  0  0  0  0  0  0
   -3.5335    1.3905   -2.3227 H   0  0  0  0  0  0  0  0  0  0  0  0
  1  2  1  0  0  0  0
  3  9  1  0  0  0  0
  3  1  2  0  0  0  0
  4  3  1  0  0  0  0
  5  4  1  0  0  0  0
  6  4  1  0  0  0  0
  6  8  2  0  0  0  0
  7  6  1  0  0  0  0
  8 17  1  0  0  0  0
  8  1  1  0  0  0  0
  9 10  2  0  0  0  0
 10 11  1  0  0  0  0
 10 12  1  0  0  0  0
 13 14  1  0  0  0  0
 13 16  1  0  0  0  0
 13  9  1  0  0  0  0
 15 13  1  0  0  0  0
 17 18  2  0  0  0  0
 18 20  1  0  0  0  0
 18 19  1  0  0  0  0
 21 22  1  0  0  0  0
 21 23  1  0  0  0  0
 21 17  1  0  0  0  0
 24 21  1  0  0  0  0
M  END
