7
q = -1.0

 15 14  0  0  0  0  0  0  0  0999 V2000
    3.2877   -2.2278   -0.4049 F   0  0  0  0  0  0  0  0  0  0  0  0
    4.9199   -0.4406   -1.9231 F   0  0  0  0  0  0  0  0  0  0  0  0
    3.6195    1.2173   -1.2525 F   0  0  0  0  0  0  0  0  0  0  0  0
    5.5645   -1.0537    0.6217 F   0  0  0  0  0  0  0  0  0  0  0  0
    4.0934    0.3543    1.4170 F   0  0  0  0  0  0  0  0  0  0  0  0
    5.7893    1.0820    0.2482 F   0  0  0  0  0  0  0  0  0  0  0  0
    0.3421   -0.5220   -1.4197 C   0  0  0  0  0  3  0  0  0  0  0  0
    1.6221   -0.7107   -1.1453 C   0  0  0  0  0  0  0  0  0  0  0  0
    2.8759   -0.9781   -0.8404 C   0  0  0  0  0  0  0  0  0  0  0  0
    4.0498   -0.0466   -0.9404 C   0  0  0  0  0  0  0  0  0  0  0  0
    4.9007    0.0804    0.3616 C   0  0  0  0  0  0  0  0  0  0  0  0
   -0.1753   -0.7332   -2.8227 C   0  0  0  0  0  0  0  0  0  0  0  0
    0.6391   -0.9427   -3.5454 H   0  0  0  0  0  0  0  0  0  0  0  0
   -0.7487    0.1535   -3.1628 H   0  0  0  0  0  0  0  0  0  0  0  0
   -0.9008   -1.5726   -2.8257 H   0  0  0  0  0  0  0  0  0  0  0  0
  2 10  1  0  0  0  0
  3 10  1  0  0  0  0
  6 11  1  0  0  0  0
  7  8  2  0  0  0  0
  8  9  2  0  0  0  0
  9  1  1  0  0  0  0
 10  9  1  0  0  0  0
 10 11  1  0  0  0  0
 11  4  1  0  0  0  0
 11  5  1  0  0  0  0
 12  7  1  0  0  0  0
 13 12  1  0  0  0  0
 14 12  1  0  0  0  0
 15 12  1  0  0  0  0
M  END
