4
q = -1.0, confidence = 0.004

 40 41  0  0  1  0  0  0  0  0999 V2000
   -1.4751    0.6499   -1.7311 C   0  0  0  0  0  0  0  0  0  0  0  0
   -1.8893   -0.7078   -1.6728 C   0  0  0  0  0  0  0  0  0  0  0  0
   -1.8160   -1.4108   -2.5100 H   0  0  0  0  0  0  0  0  0  0  0  0
   -2.4381   -1.0351   -0.3943 C   0  0  1  0  0  3  0  0  0  0  0  0
   -2.4183    0.1950    0.3880 C   0  0  0  0  0  0  0  0  0  0  0  0
   -2.8860    0.4986    1.7166 C   0  0  0  0  0  0  0  0  0  0  0  0
   -2.8012    1.8241    2.1282 C   0  0  0  0  0  0  0  0  0  0  0  0
   -3.1534    2.0870    3.1378 H   0  0  0  0  0  0  0  0  0  0  0  0
   -2.3004    2.8557    1.2869 C   0  0  0  0  0  0  0  0  0  0  0  0
   -2.3154    3.8932    1.6576 H   0  0  0  0  0  0  0  0  0  0  0  0
   -1.8193    2.6160    0.0046 C   0  0  0  0  0  0  0  0  0  0  0  0
   -1.8397    1.2489   -0.4561 C   0  0  0  0  0  0  0  0  0  0  0  0
   -0.9752    1.3273   -2.9937 C   0  0  0  0  0  0  0  0  0  0  0  0
   -0.3279    2.1778   -2.7001 H   0  0  0  0  0  0  0  0  0  0  0  0
   -2.1692    1.8776   -3.8001 C   0  0  0  0  0  0  0  0  0  0  0  0
   -2.8043    1.0425   -4.1619 H   0  0  0  0  0  0  0  0  0  0  0  0
   -1.8215    2.4509   -4.6840 H   0  0  0  0  0  0  0  0  0  0  0  0
   -2.8146    2.5398   -3.1903 H   0  0  0  0  0  0  0  0  0  0  0  0
   -0.1247    0.4003   -3.8728 C   0  0  0  0  0  0  0  0  0  0  0  0
    0.7340   -0.0083   -3.3080 H   0  0  0  0  0  0  0  0  0  0  0  0
    0.2662    0.9541   -4.7497 H   0  0  0  0  0  0  0  0  0  0  0  0
   -0.7165   -0.4540   -4.2611 H   0  0  0  0  0  0  0  0  0  0  0  0
   -3.2439   -2.2937   -0.1238 C   0  0  0  0  0  0  0  0  0  0  0  0
   -3.1909   -2.5236    0.9575 H   0  0  0  0  0  0  0  0  0  0  0  0
   -4.7206   -2.0252   -0.4763 C   0  0  0  0  0  0  0  0  0  0  0  0
   -4.8317   -1.8263   -1.5624 H   0  0  0  0  0  0  0  0  0  0  0  0
   -5.1165   -1.1417    0.0633 H   0  0  0  0  0  0  0  0  0  0  0  0
   -5.3542   -2.8997   -0.2217 H   0  0  0  0  0  0  0  0  0  0  0  0
   -2.7201   -3.5236   -0.8751 C   0  0  0  0  0  0  0  0  0  0  0  0
   -2.7826   -3.3905   -1.9749 H   0  0  0  0  0  0  0  0  0  0  0  0
   -3.3275   -4.4150   -0.6206 H   0  0  0  0  0  0  0  0  0  0  0  0
   -1.6659   -3.7400   -0.6171 H   0  0  0  0  0  0  0  0  0  0  0  0
   -3.4504   -0.5466    2.6411 C   0  0  0  0  0  0  0  0  0  0  0  0
   -3.7016   -0.1007    3.6224 H   0  0  0  0  0  0  0  0  0  0  0  0
   -2.7298   -1.3706    2.8166 H   0  0  0  0  0  0  0  0  0  0  0  0
   -4.3741   -1.0083    2.2354 H   0  0  0  0  0  0  0  0  0  0  0  0
   -1.3899    3.7615   -0.8731 C   0  0  0  0  0  0  0  0  0  0  0  0
   -2.0423    3.8529   -1.7654 H   0  0  0  0  0  0  0  0  0  0  0  0
   -0.3545    3.6390   -1.2446 H   0  0  0  0  0  0  0  0  0  0  0  0
   -1.4442    4.7182   -0.3197 H   0  0  0  0  0  0  0  0  0  0  0  0
  1  2  2  0  0  0  0
  1 12  1  0  0  0  0
  2  4  1  0  0  0  0
  3  2  1  0  0  0  0
  4 23  1  6  0  0  0
  4  5  1  0  0  0  0
  5  6  1  0  0  0  0
  6  7  2  0  0  0  0
  6 33  1  0  0  0  0
  7  8  1  0  0  0  0
  9 10  1  0  0  0  0
  9  7  1  0  0  0  0
 11  9  2  0  0  0  0
 12 11  1  0  0  0  0
 12  5  2  0  0  0  0
 13 14  1  0  0  0  0
 13  1  1  0  0  0  0
 15 18  1  0  0  0  0
 15 13  1  0  0  0  0
 16 15  1  0  0  0  0
 17 15  1  0  0  0  0
 19 20  1  0  0  0  0
 19 13  1  0  0  0  0
 21 19  1  0  0  0  0
 22 19  1  0  0  0  0
 23 24  1  0  0  0  0
 25 28  1  0  0  0  0
 25 23  1  0  0  0  0
 25 27  1  0  0  0  0
 26 25  1  0  0  0  0
 29 31  1  0  0  0  0
 29 32  1  0  0  0  0
 29 23  1  0  0  0  0
 30 29  1  0  0  0  0
 33 35  1  0  0  0  0
 33 34  1  0  0  0  0
 36 33  1  0  0  0  0
 37 40  1  0  0  0  0
 37 11  1  0  0  0  0
 38 37  1  0  0  0  0
 39 37  1  0  0  0  0
M  END
