5
q = 0.0, confidence = 0.976

 34 33  0  0  1  0  0  0  0  0999 V2000
    2.2675    2.6551   -1.2667 O   0  0  0  0  0  0  0  0  0  0  0  0
    3.0706    0.7280   -2.1633 O   0  0  0  0  0  0  0  0  0  0  0  0
   -1.4412   -0.7837   -1.1466 C   0  0  0  0  0  3  0  0  0  0  0  0
   -1.5980    0.6451   -0.9826 C   0  0  1  0  0  3  0  0  0  0  0  0
   -0.4154    1.4239   -1.1945 C   0  0  0  0  0  3  0  0  0  0  0  0
    0.7951    0.7652   -1.6106 C   0  0  0  0  0  3  0  0  0  0  0  0
    2.0634    1.5085   -1.6488 C   0  0  0  0  0  0  0  0  0  0  0  0
    4.3522    1.3548   -2.1972 C   0  0  0  0  0  0  0  0  0  0  0  0
   -2.5098   -1.8208   -0.8216 C   0  0  0  0  0  0  0  0  0  0  0  0
   -1.8751   -3.2186   -0.7440 C   0  0  0  0  0  0  0  0  0  0  0  0
   -3.6552   -1.8481   -1.8525 C   0  0  0  0  0  0  0  0  0  0  0  0
   -2.9244    1.3284   -0.6719 C   0  0  0  0  0  0  0  0  0  0  0  0
   -2.8533    2.5419    0.2613 C   0  0  0  0  0  0  0  0  0  0  0  0
   -3.5575    1.7484   -2.0166 C   0  0  0  0  0  0  0  0  0  0  0  0
   -0.8288   -1.1028   -2.0134 H   0  0  0  0  0  0  0  0  0  0  0  0
   -0.4038    2.5058   -0.9927 H   0  0  0  0  0  0  0  0  0  0  0  0
    0.7509   -0.0747   -2.3222 H   0  0  0  0  0  0  0  0  0  0  0  0
    4.6883    1.6353   -1.1772 H   0  0  0  0  0  0  0  0  0  0  0  0
    4.3322    2.2785   -2.8115 H   0  0  0  0  0  0  0  0  0  0  0  0
    5.0471    0.6174   -2.6395 H   0  0  0  0  0  0  0  0  0  0  0  0
   -2.9504   -1.5883    0.1737 H   0  0  0  0  0  0  0  0  0  0  0  0
   -1.4428   -3.4983   -1.7291 H   0  0  0  0  0  0  0  0  0  0  0  0
   -2.6270   -3.9895   -0.4785 H   0  0  0  0  0  0  0  0  0  0  0  0
   -1.0562   -3.2538   -0.0012 H   0  0  0  0  0  0  0  0  0  0  0  0
   -4.3589   -2.6801   -1.6408 H   0  0  0  0  0  0  0  0  0  0  0  0
   -3.2538   -2.0018   -2.8767 H   0  0  0  0  0  0  0  0  0  0  0  0
   -4.2406   -0.9098   -1.8601 H   0  0  0  0  0  0  0  0  0  0  0  0
   -3.5887    0.5735   -0.1999 H   0  0  0  0  0  0  0  0  0  0  0  0
   -3.8664    2.9681    0.4078 H   0  0  0  0  0  0  0  0  0  0  0  0
   -2.2209    3.3480   -0.1626 H   0  0  0  0  0  0  0  0  0  0  0  0
   -2.4459    2.2777    1.2523 H   0  0  0  0  0  0  0  0  0  0  0  0
   -2.9572    2.5558   -2.4847 H   0  0  0  0  0  0  0  0  0  0  0  0
   -4.5871    2.1328   -1.8653 H   0  0  0  0  0  0  0  0  0  0  0  0
   -3.6024    0.9096   -2.7372 H   0  0  0  0  0  0  0  0  0  0  0  0
  2  7  1  0  0  0  0
  3  4  1  0  0  0  0
  3  9  1  0  0  0  0
  4  5  1  6  0  0  0
  4 12  1  0  0  0  0
  5 16  1  0  0  0  0
  6  5  1  0  0  0  0
  7  6  1  0  0  0  0
  7  1  2  0  0  0  0
  8  2  1  0  0  0  0
  8 18  1  0  0  0  0
  9 10  1  0  0  0  0
  9 21  1  0  0  0  0
 10 23  1  0  0  0  0
 10 24  1  0  0  0  0
 11 25  1  0  0  0  0
 11  9  1  0  0  0  0
 12 28  1  0  0  0  0
 12 13  1  0  0  0  0
 13 29  1  0  0  0  0
 13 31  1  0  0  0  0
 14 33  1  0  0  0  0
 14 12  1  0  0  0  0
 15  3  1  0  0  0  0
 17  6  1  0  0  0  0
 19  8  1  0  0  0  0
 20  8  1  0  0  0  0
 22 10  1  0  0  0  0
 26 11  1  0  0  0  0
 27 11  1  0  0  0  0
 30 13  1  0  0  0  0
 32 14  1  0  0  0  0
 34 14  1  0  0  0  0
M  END
