7
q = 0.0, confidence = 0.974

 26 25  0  0  0  0  0  0  0  0999 V2000
   -3.6932   -1.8099   -0.5928 O   0  0  0  0  0  0  0  0  0  0  0  0
   -4.1642    0.3302    0.0330 N   0  0  0  0  0  0  0  0  0  0  0  0
    1.4580   -0.5799    4.6105 C   0  0  0  0  0  0  0  0  0  0  0  0
    1.5785   -1.0119    3.1437 C   0  0  0  0  0  0  0  0  0  0  0  0
    0.2527   -0.9705    2.4159 C   0  0  0  0  0  3  0  0  0  0  0  0
   -0.5652   -2.1373    2.2828 C   0  0  0  0  0  3  0  0  0  0  0  0
   -1.7516   -2.0749    1.4955 C   0  0  0  0  0  3  0  0  0  0  0  0
   -2.1554   -0.8084    0.9404 C   0  0  0  0  0  3  0  0  0  0  0  0
   -3.3717   -0.8144    0.0785 C   0  0  0  0  0  0  0  0  0  0  0  0
   -4.0247    1.5065    0.8650 C   0  0  0  0  0  0  0  0  0  0  0  0
   -5.2776    0.3591   -0.8964 C   0  0  0  0  0  0  0  0  0  0  0  0
    2.4395   -0.6036    5.1274 H   0  0  0  0  0  0  0  0  0  0  0  0
    0.7626   -1.2415    5.1673 H   0  0  0  0  0  0  0  0  0  0  0  0
    1.0638    0.4552    4.6824 H   0  0  0  0  0  0  0  0  0  0  0  0
    2.0215   -2.0283    3.0826 H   0  0  0  0  0  0  0  0  0  0  0  0
    2.2982   -0.3342    2.6352 H   0  0  0  0  0  0  0  0  0  0  0  0
   -0.2788   -0.0135    2.5579 H   0  0  0  0  0  0  0  0  0  0  0  0
   -0.2259   -3.1195    2.6519 H   0  0  0  0  0  0  0  0  0  0  0  0
   -2.3346   -2.9823    1.2774 H   0  0  0  0  0  0  0  0  0  0  0  0
   -1.9820    0.0780    1.5667 H   0  0  0  0  0  0  0  0  0  0  0  0
   -3.4187    1.2943    1.7624 H   0  0  0  0  0  0  0  0  0  0  0  0
   -5.0267    1.8342    1.2170 H   0  0  0  0  0  0  0  0  0  0  0  0
   -3.5664    2.3604    0.3139 H   0  0  0  0  0  0  0  0  0  0  0  0
   -6.2527    0.3803   -0.3592 H   0  0  0  0  0  0  0  0  0  0  0  0
   -5.2315   -0.5536   -1.5168 H   0  0  0  0  0  0  0  0  0  0  0  0
   -5.2256    1.2638   -1.5412 H   0  0  0  0  0  0  0  0  0  0  0  0
  1  9  2  0  0  0  0
  2  9  1  0  0  0  0
  2 10  1  0  0  0  0
  3 14  1  0  0  0  0
  3 12  1  0  0  0  0
  3 13  1  0  0  0  0
  4  3  1  0  0  0  0
  5 17  1  0  0  0  0
  5  4  1  0  0  0  0
  6  5  1  0  0  0  0
  6 18  1  0  0  0  0
  7  6  1  0  0  0  0
  8  7  1  0  0  0  0
  8 20  1  0  0  0  0
  9  8  1  0  0  0  0
 10 22  1  0  0  0  0
 10 21  1  0  0  0  0
 11 24  1  0  0  0  0
 11  2  1  0  0  0  0
 15  4  1  0  0  0  0
 16  4  1  0  0  0  0
 19  7  1  0  0  0  0
 23 10  1  0  0  0  0
 25 11  1  0  0  0  0
 26 11  1  0  0  0  0
M  END
