3
q = 0.0, confidence = 0.972

 28 27  0  0  0  0  0  0  0  0999 V2000
    4.5507   -0.1182    1.6307 O   0  0  0  0  0  0  0  0  0  0  0  0
    5.8155    0.1645   -0.2289 O   0  0  0  0  0  0  0  0  0  0  0  0
   -1.2890   -0.3288   -2.4228 C   0  0  0  0  0  3  0  0  0  0  0  0
   -0.8207   -1.5467   -1.8003 C   0  0  0  0  0  0  0  0  0  0  0  0
    0.3674   -1.4558   -0.9896 C   0  0  0  0  0  0  0  0  0  0  0  0
    0.9706   -0.1449   -0.8802 C   0  0  0  0  0  3  0  0  0  0  0  0
    2.1318    0.1460    0.0426 C   0  0  0  0  0  0  0  0  0  0  0  0
    3.4953   -0.2250   -0.5591 C   0  0  0  0  0  0  0  0  0  0  0  0
    4.6389   -0.0526    0.4183 C   0  0  0  0  0  0  0  0  0  0  0  0
    6.9637    0.2792    0.6190 C   0  0  0  0  0  0  0  0  0  0  0  0
   -1.5526   -2.8554   -1.9707 C   0  0  0  0  0  0  0  0  0  0  0  0
    0.9149   -2.6706   -0.2832 C   0  0  0  0  0  0  0  0  0  0  0  0
   -2.2780   -0.3837   -2.9126 H   0  0  0  0  0  0  0  0  0  0  0  0
   -0.5771    0.3319   -2.9494 H   0  0  0  0  0  0  0  0  0  0  0  0
    1.0207    0.4426   -1.8170 H   0  0  0  0  0  0  0  0  0  0  0  0
    2.0294   -0.3686    1.0186 H   0  0  0  0  0  0  0  0  0  0  0  0
    2.1336    1.2303    0.2858 H   0  0  0  0  0  0  0  0  0  0  0  0
    3.4959   -1.2958   -0.8640 H   0  0  0  0  0  0  0  0  0  0  0  0
    3.7137    0.3443   -1.4853 H   0  0  0  0  0  0  0  0  0  0  0  0
    7.1135   -0.6454    1.2131 H   0  0  0  0  0  0  0  0  0  0  0  0
    6.8511    1.1251    1.3272 H   0  0  0  0  0  0  0  0  0  0  0  0
    7.8257    0.4496   -0.0506 H   0  0  0  0  0  0  0  0  0  0  0  0
   -1.6328   -3.4362   -1.0316 H   0  0  0  0  0  0  0  0  0  0  0  0
   -1.0208   -3.4918   -2.7113 H   0  0  0  0  0  0  0  0  0  0  0  0
   -2.5748   -2.6893   -2.3610 H   0  0  0  0  0  0  0  0  0  0  0  0
    0.1226   -3.2977    0.1682 H   0  0  0  0  0  0  0  0  0  0  0  0
    1.6274   -2.4001    0.5174 H   0  0  0  0  0  0  0  0  0  0  0  0
    1.4611   -3.3101   -1.0104 H   0  0  0  0  0  0  0  0  0  0  0  0
  2  9  1  0  0  0  0
  2 10  1  0  0  0  0
  3  4  1  0  0  0  0
  4  5  2  0  0  0  0
  5  6  1  0  0  0  0
  5 12  1  0  0  0  0
  6  7  1  0  0  0  0
  7 17  1  0  0  0  0
  7 16  1  0  0  0  0
  8  7  1  0  0  0  0
  8  9  1  0  0  0  0
  9  1  2  0  0  0  0
 10 20  1  0  0  0  0
 10 21  1  0  0  0  0
 11  4  1  0  0  0  0
 11 23  1  0  0  0  0
 12 26  1  0  0  0  0
 12 27  1  0  0  0  0
 13  3  1  0  0  0  0
 14  3  1  0  0  0  0
 15  6  1  0  0  0  0
 18  8  1  0  0  0  0
 19  8  1  0  0  0  0
 22 10  1  0  0  0  0
 24 11  1  0  0  0  0
 25 11  1  0  0  0  0
 28 12  1  0  0  0  0
M  END
