3
q = 0.0, confidence = 0.714

 52 55  0  0  1  0  0  0  0  0999 V2000
   -0.7661   -2.6222   -0.2223 O   0  0  0  0  0  0  0  0  0  0  0  0
   -5.3148   -0.0019   -0.1262 O   0  0  0  0  0  0  0  0  0  0  0  0
    2.0230   -0.1218   -0.0239 C   0  0  0  0  0  2  0  0  0  0  0  0
    1.4057    1.1772    0.3250 C   0  0  0  0  0  0  0  0  0  0  0  0
    1.3498    2.2446   -0.6034 C   0  0  0  0  0  0  0  0  0  0  0  0
    1.7802    2.1065   -1.6059 H   0  0  0  0  0  0  0  0  0  0  0  0
    0.7343    3.4575   -0.2623 C   0  0  0  0  0  0  0  0  0  0  0  0
    0.6901    4.2688   -1.0055 H   0  0  0  0  0  0  0  0  0  0  0  0
    0.1918    3.6469    1.0202 C   0  0  0  0  0  0  0  0  0  0  0  0
   -0.2738    4.6067    1.2912 H   0  0  0  0  0  0  0  0  0  0  0  0
    0.2783    2.6080    1.9631 C   0  0  0  0  0  0  0  0  0  0  0  0
   -0.1241    2.7500    2.9780 H   0  0  0  0  0  0  0  0  0  0  0  0
    0.8702    1.3859    1.6203 C   0  0  0  0  0  0  0  0  0  0  0  0
    0.9241    0.5686    2.3554 H   0  0  0  0  0  0  0  0  0  0  0  0
    1.2211   -1.2611   -0.1893 C   0  0  0  0  0  0  0  0  0  0  0  0
    1.7648   -2.2081   -0.3146 H   0  0  0  0  0  0  0  0  0  0  0  0
   -0.2001   -1.3886   -0.2406 C   0  0  0  0  0  0  0  0  0  0  0  0
    0.0262   -3.7872   -0.0046 C   0  0  0  0  0  0  0  0  0  0  0  0
    0.7140   -3.9812   -0.8543 H   0  0  0  0  0  0  0  0  0  0  0  0
   -0.6896   -4.6255    0.0805 H   0  0  0  0  0  0  0  0  0  0  0  0
    0.6188   -3.7080    0.9308 H   0  0  0  0  0  0  0  0  0  0  0  0
   -1.1067   -0.3027   -0.3498 C   0  0  0  0  0  3  0  0  0  0  0  0
   -0.6289    0.6741   -0.4727 H   0  0  0  0  0  0  0  0  0  0  0  0
   -2.5054   -0.2809   -0.2873 C   0  0  0  0  0  0  0  0  0  0  0  0
   -3.3882   -1.4112   -0.1381 C   0  0  0  0  0  0  0  0  0  0  0  0
   -2.9639   -2.4167   -0.0677 H   0  0  0  0  0  0  0  0  0  0  0  0
   -4.7497   -1.2470   -0.0737 C   0  0  1  0  0  3  0  0  0  0  0  0
   -5.7479   -2.3171    0.0765 C   0  0  0  0  0  0  0  0  0  0  0  0
   -7.0726   -2.0097    0.4663 C   0  0  0  0  0  0  0  0  0  0  0  0
   -7.3462   -0.9639    0.6614 H   0  0  0  0  0  0  0  0  0  0  0  0
   -8.0218   -3.0276    0.6217 C   0  0  0  0  0  0  0  0  0  0  0  0
   -9.0464   -2.7725    0.9314 H   0  0  0  0  0  0  0  0  0  0  0  0
   -7.6698   -4.3661    0.3888 C   0  0  0  0  0  0  0  0  0  0  0  0
   -8.4173   -5.1645    0.5095 H   0  0  0  0  0  0  0  0  0  0  0  0
   -6.3577   -4.6814   -0.0039 C   0  0  0  0  0  0  0  0  0  0  0  0
   -6.0764   -5.7272   -0.1985 H   0  0  0  0  0  0  0  0  0  0  0  0
   -5.4055   -3.6691   -0.1608 C   0  0  0  0  0  0  0  0  0  0  0  0
   -4.3897   -3.9283   -0.4923 H   0  0  0  0  0  0  0  0  0  0  0  0
   -3.1691    0.9986   -0.3485 C   0  0  0  0  0  0  0  0  0  0  0  0
   -2.5612    1.9051   -0.4684 H   0  0  0  0  0  0  0  0  0  0  0  0
   -4.5310    1.1155   -0.2508 C   0  0  0  0  0  0  0  0  0  0  0  0
   -5.3064    2.3637   -0.2775 C   0  0  0  0  0  0  0  0  0  0  0  0
   -4.6752    3.6132   -0.0700 C   0  0  0  0  0  0  0  0  0  0  0  0
   -3.5974    3.6580    0.1451 H   0  0  0  0  0  0  0  0  0  0  0  0
   -5.4183    4.7975   -0.1080 C   0  0  0  0  0  0  0  0  0  0  0  0
   -4.9136    5.7605    0.0608 H   0  0  0  0  0  0  0  0  0  0  0  0
   -6.8025    4.7596   -0.3484 C   0  0  0  0  0  0  0  0  0  0  0  0
   -7.3842    5.6932   -0.3758 H   0  0  0  0  0  0  0  0  0  0  0  0
   -7.4391    3.5248   -0.5488 C   0  0  0  0  0  0  0  0  0  0  0  0
   -8.5222    3.4870   -0.7392 H   0  0  0  0  0  0  0  0  0  0  0  0
   -6.7009    2.3352   -0.5127 C   0  0  0  0  0  0  0  0  0  0  0  0
   -7.1979    1.3702   -0.6826 H   0  0  0  0  0  0  0  0  0  0  0  0
  1 18  1  0  0  0  0
  2 27  1  0  0  0  0
  3  4  1  0  0  0  0
  4 13  1  0  0  0  0
  5  7  1  0  0  0  0
  5  4  2  0  0  0  0
  6  5  1  0  0  0  0
  7  9  2  0  0  0  0
  8  7  1  0  0  0  0
  9 10  1  0  0  0  0
  9 11  1  0  0  0  0
 11 12  1  0  0  0  0
 13 11  2  0  0  0  0
 13 14  1  0  0  0  0
 15  3  1  0  0  0  0
 16 15  1  0  0  0  0
 17  1  1  0  0  0  0
 17 15  2  0  0  0  0
 18 20  1  0  0  0  0
 18 21  1  0  0  0  0
 19 18  1  0  0  0  0
 22 24  1  0  0  0  0
 22 17  1  0  0  0  0
 23 22  1  0  0  0  0
 24 25  2  0  0  0  0
 25 27  1  0  0  0  0
 25 26  1  0  0  0  0
 27 28  1  1  0  0  0
 28 29  1  0  0  0  0
 29 31  2  0  0  0  0
 29 30  1  0  0  0  0
 31 32  1  0  0  0  0
 33 34  1  0  0  0  0
 33 31  1  0  0  0  0
 35 33  2  0  0  0  0
 36 35  1  0  0  0  0
 37 35  1  0  0  0  0
 37 28  2  0  0  0  0
 38 37  1  0  0  0  0
 39 24  1  0  0  0  0
 39 41  2  0  0  0  0
 40 39  1  0  0  0  0
 41  2  1  0  0  0  0
 42 41  1  0  0  0  0
 42 43  1  0  0  0  0
 43 44  1  0  0  0  0
 45 43  2  0  0  0  0
 45 46  1  0  0  0  0
 47 45  1  0  0  0  0
 48 47  1  0  0  0  0
 49 51  1  0  0  0  0
 49 47  2  0  0  0  0
 50 49  1  0  0  0  0
 51 42  2  0  0  0  0
 52 51  1  0  0  0  0
M  END
