22
q = 0.0, confidence = 1.0

 55 59  0  0  1  0  0  0  0  0999 V2000
    0.2949   -0.6566    0.0406 P   0  0  0  0  0  0  0  0  0  0  0  0
   -0.8376    0.4208   -0.7208 O   0  0  0  0  0  0  0  0  0  0  0  0
   -0.9458    1.7770   -0.6077 C   0  0  0  0  0  0  0  0  0  0  0  0
    0.1803    2.6472   -0.6132 C   0  0  0  0  0  0  0  0  0  0  0  0
   -0.0342    4.0354   -0.4791 C   0  0  0  0  0  0  0  0  0  0  0  0
   -1.3235    4.5646   -0.3621 C   0  0  0  0  0  0  0  0  0  0  0  0
   -2.4258    3.7022   -0.3891 C   0  0  0  0  0  0  0  0  0  0  0  0
   -2.2652    2.3068   -0.5096 C   0  0  0  0  0  0  0  0  0  0  0  0
   -0.6496   -1.1927    1.5248 C   0  0  0  0  0  0  0  0  0  0  0  0
   -0.0006   -2.0669    2.4220 C   0  0  0  0  0  0  0  0  0  0  0  0
   -0.6727   -2.5261    3.5627 C   0  0  0  0  0  0  0  0  0  0  0  0
   -1.9880   -2.1069    3.8248 C   0  0  0  0  0  0  0  0  0  0  0  0
   -2.6314   -1.2311    2.9375 C   0  0  0  0  0  0  0  0  0  0  0  0
   -1.9684   -0.7767    1.7865 C   0  0  0  0  0  0  0  0  0  0  0  0
   -0.0540   -2.0154   -1.1559 C   0  0  0  0  0  0  0  0  0  0  0  0
    0.9548   -2.4456   -2.0373 C   0  0  0  0  0  0  0  0  0  0  0  0
    0.6858   -3.4458   -2.9848 C   0  0  0  0  0  0  0  0  0  0  0  0
   -0.5934   -4.0180   -3.0576 C   0  0  0  0  0  0  0  0  0  0  0  0
   -1.6037   -3.5922   -2.1778 C   0  0  0  0  0  0  0  0  0  0  0  0
   -1.3370   -2.5984   -1.2265 C   0  0  0  0  0  0  0  0  0  0  0  0
    1.5701    2.1477   -0.7439 C   0  0  1  0  0  3  0  0  0  0  0  0
    1.9498    1.2276   -1.8062 C   0  0  0  0  0  3  0  0  0  0  0  0
    3.2840    0.7665   -1.9216 C   0  0  0  0  0  0  0  0  0  0  0  0
    4.2662    1.1390   -0.9418 C   0  0  0  0  0  0  0  0  0  0  0  0
    3.9220    2.0578    0.0895 C   0  0  0  0  0  0  0  0  0  0  0  0
    2.5818    2.5629    0.1737 C   0  0  0  0  0  0  0  0  0  0  0  0
   -3.4592    1.4212   -0.5102 C   0  0  0  0  0  0  0  0  0  0  0  0
   -4.4926    1.6301    0.4322 C   0  0  0  0  0  0  0  0  0  0  0  0
   -5.6183    0.7945    0.4657 C   0  0  0  0  0  0  0  0  0  0  0  0
   -5.7366   -0.2659   -0.4466 C   0  0  0  0  0  0  0  0  0  0  0  0
   -4.7245   -0.4756   -1.3975 C   0  0  0  0  0  0  0  0  0  0  0  0
   -3.5979    0.3568   -1.4309 C   0  0  0  0  0  0  0  0  0  0  0  0
    0.8398    4.7039   -0.4980 H   0  0  0  0  0  0  0  0  0  0  0  0
   -1.4707    5.6511   -0.2759 H   0  0  0  0  0  0  0  0  0  0  0  0
   -3.4467    4.1094   -0.3375 H   0  0  0  0  0  0  0  0  0  0  0  0
    1.0353   -2.3845    2.2267 H   0  0  0  0  0  0  0  0  0  0  0  0
   -0.1609   -3.2095    4.2571 H   0  0  0  0  0  0  0  0  0  0  0  0
   -2.5099   -2.4624    4.7264 H   0  0  0  0  0  0  0  0  0  0  0  0
   -3.6614   -0.8955    3.1331 H   0  0  0  0  0  0  0  0  0  0  0  0
   -2.4825   -0.1022    1.0903 H   0  0  0  0  0  0  0  0  0  0  0  0
    1.9554   -1.9918   -1.9662 H   0  0  0  0  0  0  0  0  0  0  0  0
    1.4817   -3.7822   -3.6665 H   0  0  0  0  0  0  0  0  0  0  0  0
   -0.8040   -4.8043   -3.7986 H   0  0  0  0  0  0  0  0  0  0  0  0
   -2.6067   -4.0431   -2.2291 H   0  0  0  0  0  0  0  0  0  0  0  0
   -2.1282   -2.2727   -0.5349 H   0  0  0  0  0  0  0  0  0  0  0  0
    1.1909    0.9054   -2.5323 H   0  0  0  0  0  0  0  0  0  0  0  0
    3.5498    0.0711   -2.7299 H   0  0  0  0  0  0  0  0  0  0  0  0
    5.2838    0.7302   -1.0006 H   0  0  0  0  0  0  0  0  0  0  0  0
    4.6688    2.3620    0.8349 H   0  0  0  0  0  0  0  0  0  0  0  0
    2.3025    3.2276    1.0030 H   0  0  0  0  0  0  0  0  0  0  0  0
   -4.3901    2.4407    1.1698 H   0  0  0  0  0  0  0  0  0  0  0  0
   -6.4041    0.9678    1.2168 H   0  0  0  0  0  0  0  0  0  0  0  0
   -6.6157   -0.9272   -0.4167 H   0  0  0  0  0  0  0  0  0  0  0  0
   -4.8102   -1.2995   -2.1227 H   0  0  0  0  0  0  0  0  0  0  0  0
   -2.8078    0.1782   -2.1721 H   0  0  0  0  0  0  0  0  0  0  0  0
  1  9  1  0  0  0  0
  2  3  1  0  0  0  0
  2  1  1  0  0  0  0
  3  8  1  0  0  0  0
  4  3  2  0  0  0  0
  4  5  1  0  0  0  0
  5  6  2  0  0  0  0
  6 34  1  0  0  0  0
  7  6  1  0  0  0  0
  7 35  1  0  0  0  0
  8  7  2  0  0  0  0
  9 14  2  0  0  0  0
  9 10  1  0  0  0  0
 10 11  2  0  0  0  0
 11 12  1  0  0  0  0
 11 37  1  0  0  0  0
 12 38  1  0  0  0  0
 13 39  1  0  0  0  0
 13 12  2  0  0  0  0
 14 13  1  0  0  0  0
 15  1  1  0  0  0  0
 16 41  1  0  0  0  0
 16 15  2  0  0  0  0
 17 16  1  0  0  0  0
 18 17  2  0  0  0  0
 18 19  1  0  0  0  0
 19 20  2  0  0  0  0
 20 15  1  0  0  0  0
 20 45  1  0  0  0  0
 21  4  1  6  0  0  0
 21 26  1  0  0  0  0
 22 21  1  0  0  0  0
 23 22  1  0  0  0  0
 23 24  2  0  0  0  0
 24 25  1  0  0  0  0
 25 26  2  0  0  0  0
 25 49  1  0  0  0  0
 26 50  1  0  0  0  0
 27  8  1  0  0  0  0
 27 28  1  0  0  0  0
 28 29  2  0  0  0  0
 28 51  1  0  0  0  0
 29 52  1  0  0  0  0
 30 53  1  0  0  0  0
 30 29  1  0  0  0  0
 31 30  2  0  0  0  0
 32 31  1  0  0  0  0
 32 27  2  0  0  0  0
 33  5  1  0  0  0  0
 36 10  1  0  0  0  0
 40 14  1  0  0  0  0
 42 17  1  0  0  0  0
 43 18  1  0  0  0  0
 44 19  1  0  0  0  0
 46 22  1  0  0  0  0
 47 23  1  0  0  0  0
 48 24  1  0  0  0  0
 54 31  1  0  0  0  0
 55 32  1  0  0  0  0
M  END
