4
q = 0.0, confidence = 0.986

 48 50  0  0  1  0  0  0  0  0999 V2000
    0.3537   -1.5250   -0.4528 O   0  0  0  0  0  0  0  0  0  0  0  0
   -1.5699   -2.2780    1.8918 O   0  0  0  0  0  0  0  0  0  0  0  0
   -1.9863   -0.4760    0.5149 N   0  0  0  0  0  0  0  0  0  0  0  0
    0.9258   -0.3313   -0.5622 C   0  0  0  0  0  3  0  0  0  0  0  0
    1.0526   -2.7852   -0.5046 C   0  0  0  0  0  0  0  0  0  0  0  0
    0.0103   -3.8785   -0.6249 C   0  0  0  0  0  0  0  0  0  0  0  0
   -0.0877    0.7137   -0.4923 C   0  0  0  0  0  0  0  0  0  0  0  0
   -1.4271    0.6396   -0.1535 C   0  0  2  0  0  3  0  0  0  0  0  0
   -2.3493    1.7606   -0.4362 C   0  0  0  0  0  0  0  0  0  0  0  0
   -2.0895    2.6682   -1.4907 C   0  0  0  0  0  0  0  0  0  0  0  0
   -2.9485    3.7464   -1.7314 C   0  0  0  0  0  0  0  0  0  0  0  0
   -4.0883    3.9354   -0.9317 C   0  0  0  0  0  0  0  0  0  0  0  0
   -4.3650    3.0347    0.1101 C   0  0  0  0  0  0  0  0  0  0  0  0
   -3.5072    1.9563    0.3540 C   0  0  0  0  0  0  0  0  0  0  0  0
   -3.0708   -1.1550   -0.1278 C   0  0  0  0  0  0  0  0  0  0  0  0
   -3.0842   -1.2490   -1.5318 C   0  0  0  0  0  0  0  0  0  0  0  0
   -4.1524   -1.8832   -2.1813 C   0  0  0  0  0  0  0  0  0  0  0  0
   -5.2005   -2.4430   -1.4353 C   0  0  0  0  0  0  0  0  0  0  0  0
   -5.1753   -2.3612   -0.0326 C   0  0  0  0  0  0  0  0  0  0  0  0
   -4.1201   -1.7171    0.6244 C   0  0  0  0  0  0  0  0  0  0  0  0
   -1.3353   -1.1099    1.6057 C   0  0  0  0  0  0  0  0  0  0  0  0
   -0.3920   -0.2808    2.4230 C   0  0  0  0  0  0  0  0  0  0  0  0
   -0.6285    1.0722    2.7422 C   0  0  0  0  0  0  0  0  0  0  0  0
    0.2597    1.7627    3.5761 C   0  0  0  0  0  0  0  0  0  0  0  0
    1.4005    1.1176    4.0812 C   0  0  0  0  0  0  0  0  0  0  0  0
    1.6379   -0.2310    3.7716 C   0  0  0  0  0  0  0  0  0  0  0  0
    0.7353   -0.9318    2.9621 C   0  0  0  0  0  0  0  0  0  0  0  0
    1.6514   -2.8858    0.4229 H   0  0  0  0  0  0  0  0  0  0  0  0
    1.7511   -2.7701   -1.3631 H   0  0  0  0  0  0  0  0  0  0  0  0
    0.5104   -4.8668   -0.6428 H   0  0  0  0  0  0  0  0  0  0  0  0
   -0.5735   -3.7664   -1.5599 H   0  0  0  0  0  0  0  0  0  0  0  0
   -0.6920   -3.8444    0.2306 H   0  0  0  0  0  0  0  0  0  0  0  0
    0.2659    1.7149   -0.7666 H   0  0  0  0  0  0  0  0  0  0  0  0
   -1.2171    2.5092   -2.1419 H   0  0  0  0  0  0  0  0  0  0  0  0
   -2.7337    4.4392   -2.5588 H   0  0  0  0  0  0  0  0  0  0  0  0
   -4.7654    4.7808   -1.1259 H   0  0  0  0  0  0  0  0  0  0  0  0
   -5.2574    3.1744    0.7385 H   0  0  0  0  0  0  0  0  0  0  0  0
   -3.7258    1.2531    1.1705 H   0  0  0  0  0  0  0  0  0  0  0  0
   -2.2468   -0.8285   -2.1069 H   0  0  0  0  0  0  0  0  0  0  0  0
   -4.1579   -1.9477   -3.2798 H   0  0  0  0  0  0  0  0  0  0  0  0
   -6.0360   -2.9456   -1.9449 H   0  0  0  0  0  0  0  0  0  0  0  0
   -5.9925   -2.7995    0.5598 H   0  0  0  0  0  0  0  0  0  0  0  0
   -4.1029   -1.6529    1.7206 H   0  0  0  0  0  0  0  0  0  0  0  0
   -1.5146    1.5880    2.3451 H   0  0  0  0  0  0  0  0  0  0  0  0
    0.0673    2.8171    3.8237 H   0  0  0  0  0  0  0  0  0  0  0  0
    2.1087    1.6707    4.7162 H   0  0  0  0  0  0  0  0  0  0  0  0
    2.5333   -0.7403    4.1574 H   0  0  0  0  0  0  0  0  0  0  0  0
    0.8925   -1.9953    2.7317 H   0  0  0  0  0  0  0  0  0  0  0  0
  3 21  1  0  0  0  0
  4  7  2  0  0  0  0
  4  1  1  0  0  0  0
  5  1  1  0  0  0  0
  5 28  1  0  0  0  0
  6  5  1  0  0  0  0
  6 32  1  0  0  0  0
  8  7  1  1  0  0  0
  8  3  1  0  0  0  0
  9  8  1  0  0  0  0
  9 14  1  0  0  0  0
 10  9  2  0  0  0  0
 11 10  1  0  0  0  0
 11 12  2  0  0  0  0
 12 13  1  0  0  0  0
 13 14  2  0  0  0  0
 13 37  1  0  0  0  0
 14 38  1  0  0  0  0
 15  3  1  0  0  0  0
 15 20  1  0  0  0  0
 16 15  2  0  0  0  0
 17 16  1  0  0  0  0
 17 18  2  0  0  0  0
 18 19  1  0  0  0  0
 19 42  1  0  0  0  0
 19 20  2  0  0  0  0
 20 43  1  0  0  0  0
 21  2  2  0  0  0  0
 21 22  1  0  0  0  0
 22 23  2  0  0  0  0
 22 27  1  0  0  0  0
 23 24  1  0  0  0  0
 24 45  1  0  0  0  0
 24 25  2  0  0  0  0
 25 46  1  0  0  0  0
 26 25  1  0  0  0  0
 26 47  1  0  0  0  0
 27 26  2  0  0  0  0
 29  5  1  0  0  0  0
 30  6  1  0  0  0  0
 31  6  1  0  0  0  0
 33  7  1  0  0  0  0
 34 10  1  0  0  0  0
 35 11  1  0  0  0  0
 36 12  1  0  0  0  0
 39 16  1  0  0  0  0
 40 17  1  0  0  0  0
 41 18  1  0  0  0  0
 44 23  1  0  0  0  0
 48 27  1  0  0  0  0
M  END
