12
q = -1.0

 46 47  0  0  1  0  0  0  0  0999 V2000
    0.4803    1.7768   -0.6391 N   0  0  0  0  0  0  0  0  0  0  0  0
   -0.1802    3.1018   -0.5296 C   0  0  0  0  0  0  0  0  0  0  0  0
    0.8473    1.5731   -2.0606 C   0  0  0  0  0  0  0  0  0  0  0  0
    1.4638    2.1077    1.6686 C   0  0  0  0  0  0  0  0  0  0  0  0
    1.7285    1.7492    0.1999 C   0  0  1  0  0  0  0  0  0  0  0  0
    2.5663    0.4766    0.0635 C   0  0  0  0  0  0  0  0  0  0  0  0
    3.9618    0.6608   -0.0488 C   0  0  0  0  0  0  0  0  0  0  0  0
    4.8553   -0.4147   -0.1141 C   0  0  0  0  0  0  0  0  0  0  0  0
    4.3634   -1.7274   -0.0810 C   0  0  0  0  0  0  0  0  0  0  0  0
    2.9835   -1.9355    0.0187 C   0  0  0  0  0  0  0  0  0  0  0  0
    2.0757   -0.8560    0.1017 C   0  0  0  0  0  0  0  0  0  0  0  0
    0.6388   -1.2094    0.1848 C   0  0  1  0  0  3  0  0  0  0  0  0
   -0.1792   -1.6419   -0.9457 C   0  0  2  0  0  3  0  0  0  0  0  0
   -1.5121   -1.9123   -0.4239 C   0  0  0  0  0  0  0  0  0  0  0  0
   -1.5132   -1.6581    0.9949 C   0  0  0  0  0  0  0  0  0  0  0  0
   -0.1659   -1.2448    1.3896 C   0  0  1  0  0  3  0  0  0  0  0  0
    0.2532   -1.8756   -2.3571 C   0  0  0  0  0  0  0  0  0  0  0  0
   -2.6580   -2.3781   -1.2586 C   0  0  0  0  0  0  0  0  0  0  0  0
   -2.6547   -1.8092    1.9447 C   0  0  0  0  0  0  0  0  0  0  0  0
    0.2738   -1.0016    2.7951 C   0  0  0  0  0  0  0  0  0  0  0  0
   -0.5879    3.2393    0.4854 H   0  0  0  0  0  0  0  0  0  0  0  0
   -1.0307    3.1105   -1.2345 H   0  0  0  0  0  0  0  0  0  0  0  0
    0.5469    3.9055   -0.7867 H   0  0  0  0  0  0  0  0  0  0  0  0
    1.4167    0.6356   -2.1764 H   0  0  0  0  0  0  0  0  0  0  0  0
    1.4805    2.4183   -2.4140 H   0  0  0  0  0  0  0  0  0  0  0  0
   -0.0846    1.5177   -2.6533 H   0  0  0  0  0  0  0  0  0  0  0  0
    2.3536    1.8576    2.2768 H   0  0  0  0  0  0  0  0  0  0  0  0
    0.5798    1.5680    2.0568 H   0  0  0  0  0  0  0  0  0  0  0  0
    1.2666    3.1898    1.7868 H   0  0  0  0  0  0  0  0  0  0  0  0
    2.3733    2.5560   -0.2240 H   0  0  0  0  0  0  0  0  0  0  0  0
    4.3546    1.6891   -0.0889 H   0  0  0  0  0  0  0  0  0  0  0  0
    5.9357   -0.2254   -0.2013 H   0  0  0  0  0  0  0  0  0  0  0  0
    5.0494   -2.5857   -0.1386 H   0  0  0  0  0  0  0  0  0  0  0  0
    2.5801   -2.9597    0.0377 H   0  0  0  0  0  0  0  0  0  0  0  0
    1.2948   -1.5409   -2.5221 H   0  0  0  0  0  0  0  0  0  0  0  0
   -0.4104   -1.3376   -3.0635 H   0  0  0  0  0  0  0  0  0  0  0  0
    0.2062   -2.9568   -2.6087 H   0  0  0  0  0  0  0  0  0  0  0  0
   -3.5931   -2.4364   -0.6724 H   0  0  0  0  0  0  0  0  0  0  0  0
   -2.4409   -3.3833   -1.6774 H   0  0  0  0  0  0  0  0  0  0  0  0
   -2.8293   -1.6720   -2.0963 H   0  0  0  0  0  0  0  0  0  0  0  0
   -3.6024   -2.0114    1.4127 H   0  0  0  0  0  0  0  0  0  0  0  0
   -2.7851   -0.8732    2.5250 H   0  0  0  0  0  0  0  0  0  0  0  0
   -2.4638   -2.6437    2.6523 H   0  0  0  0  0  0  0  0  0  0  0  0
    1.3149   -0.6326    2.8358 H   0  0  0  0  0  0  0  0  0  0  0  0
    0.2188   -1.9429    3.3823 H   0  0  0  0  0  0  0  0  0  0  0  0
   -0.3906   -0.2580    3.2810 H   0  0  0  0  0  0  0  0  0  0  0  0
  1  2  1  0  0  0  0
  1  5  1  0  0  0  0
  2 21  1  0  0  0  0
  3  1  1  0  0  0  0
  4 29  1  0  0  0  0
  4 28  1  0  0  0  0
  4 27  1  0  0  0  0
  5 30  1  6  0  0  0
  5  4  1  0  0  0  0
  6 11  1  0  0  0  0
  6  5  1  0  0  0  0
  7  6  2  0  0  0  0
  8  9  2  0  0  0  0
  8  7  1  0  0  0  0
  9 10  1  0  0  0  0
 10 34  1  0  0  0  0
 10 11  2  0  0  0  0
 12 11  1  1  0  0  0
 12 16  1  0  0  0  0
 13 17  1  1  0  0  0
 13 14  1  0  0  0  0
 13 12  1  0  0  0  0
 14 15  2  0  0  0  0
 15 16  1  0  0  0  0
 15 19  1  0  0  0  0
 16 20  1  1  0  0  0
 18 38  1  0  0  0  0
 18 14  1  0  0  0  0
 19 42  1  0  0  0  0
 19 43  1  0  0  0  0
 20 44  1  0  0  0  0
 20 46  1  0  0  0  0
 20 45  1  0  0  0  0
 22  2  1  0  0  0  0
 23  2  1  0  0  0  0
 24  3  1  0  0  0  0
 25  3  1  0  0  0  0
 26  3  1  0  0  0  0
 31  7  1  0  0  0  0
 32  8  1  0  0  0  0
 33  9  1  0  0  0  0
 35 17  1  0  0  0  0
 36 17  1  0  0  0  0
 37 17  1  0  0  0  0
 39 18  1  0  0  0  0
 40 18  1  0  0  0  0
 41 19  1  0  0  0  0
M  END
