8
q = -1.0

 17 18  0  0  0  0  0  0  0  0999 V2000
    0.9515   -2.0112    0.0484 F   0  0  0  0  0  0  0  0  0  0  0  0
    3.3641   -2.8347   -0.0045 F   0  0  0  0  0  0  0  0  0  0  0  0
    5.9919   -2.2619   -0.0346 F   0  0  0  0  0  0  0  0  0  0  0  0
    6.8729    0.3066   -0.0325 F   0  0  0  0  0  0  0  0  0  0  0  0
    5.1271    2.3726   -0.0001 F   0  0  0  0  0  0  0  0  0  0  0  0
    2.6471    3.1994    0.0480 F   0  0  0  0  0  0  0  0  0  0  0  0
    0.0757    2.6725    0.0880 F   0  0  0  0  0  0  0  0  0  0  0  0
    0.3739    0.2863    0.0457 C   0  0  0  0  0  0  0  0  0  0  0  0
    1.3523   -0.7034    0.0394 C   0  0  0  0  0  0  0  0  0  0  0  0
    2.7654   -0.4952    0.0202 C   0  0  0  0  0  0  0  0  0  0  0  0
    3.7329   -1.5454    0.0013 C   0  0  0  0  0  0  0  0  0  0  0  0
    5.0951   -1.2692   -0.0161 C   0  0  0  0  0  0  0  0  0  0  0  0
    5.5565    0.0717   -0.0153 C   0  0  0  0  0  0  0  0  0  0  0  0
    4.6465    1.1217    0.0013 C   0  0  0  0  0  0  0  0  0  0  0  0
    3.2438    0.8743    0.0196 C   0  0  0  0  0  0  0  0  0  0  0  0
    2.2659    1.9088    0.0410 C   0  0  0  0  0  0  0  0  0  0  0  0
    0.9132    1.5999    0.0553 C   0  0  0  0  0  0  0  0  0  0  0  0
  2 11  1  0  0  0  0
  3 12  1  0  0  0  0
  4 13  1  0  0  0  0
  5 14  1  0  0  0  0
  8 17  1  0  0  0  0
  9  8  2  0  0  0  0
  9  1  1  0  0  0  0
 10  9  1  0  0  0  0
 11 10  2  0  0  0  0
 12 13  2  0  0  0  0
 12 11  1  0  0  0  0
 13 14  1  0  0  0  0
 14 15  2  0  0  0  0
 15 10  1  0  0  0  0
 15 16  1  0  0  0  0
 16  6  1  0  0  0  0
 16 17  2  0  0  0  0
 17  7  1  0  0  0  0
M  END
