3
q = -1.0, confidence = 0.002

 25 28  0  0  0  0  0  0  0  0999 V2000
   -2.5287   -1.1879   -0.0073 C   0  0  0  0  0  0  0  0  0  0  0  0
   -1.9950   -2.1495    0.0721 H   0  0  0  0  0  0  0  0  0  0  0  0
   -1.7995    0.0171   -0.1296 C   0  0  0  0  0  3  0  0  0  0  0  0
   -4.6725    0.0095   -0.0825 C   0  0  0  0  0  0  0  0  0  0  0  0
   -6.8161   -1.2355    0.0665 C   0  0  0  0  0  0  0  0  0  0  0  0
   -4.6850   -2.4487    0.1439 C   0  0  0  0  0  0  0  0  0  0  0  0
   -4.1218   -3.3925    0.2216 H   0  0  0  0  0  0  0  0  0  0  0  0
   -6.0591   -2.4565    0.1668 C   0  0  0  0  0  0  0  0  0  0  0  0
   -6.6101   -3.4054    0.2631 H   0  0  0  0  0  0  0  0  0  0  0  0
   -4.7054    2.4675   -0.3084 C   0  0  0  0  0  0  0  0  0  0  0  0
   -4.1502    3.4142   -0.4046 H   0  0  0  0  0  0  0  0  0  0  0  0
   -6.1017    0.0056   -0.0593 C   0  0  0  0  0  0  0  0  0  0  0  0
   -3.9523    1.2443   -0.2078 C   0  0  0  0  0  0  0  0  0  0  0  0
   -3.9421   -1.2215    0.0189 C   0  0  0  0  0  0  0  0  0  0  0  0
   -2.5387    1.2182   -0.2278 C   0  0  0  0  0  0  0  0  0  0  0  0
   -2.0130    2.1826   -0.3244 H   0  0  0  0  0  0  0  0  0  0  0  0
   -8.2290   -1.2127    0.0870 C   0  0  0  0  0  0  0  0  0  0  0  0
   -8.7766   -2.1633    0.1834 H   0  0  0  0  0  0  0  0  0  0  0  0
   -6.0795    2.4679   -0.2866 C   0  0  0  0  0  0  0  0  0  0  0  0
   -6.6385    3.4138   -0.3650 H   0  0  0  0  0  0  0  0  0  0  0  0
   -8.2391    1.2125   -0.1365 C   0  0  0  0  0  0  0  0  0  0  0  0
   -8.7946    2.1602   -0.2152 H   0  0  0  0  0  0  0  0  0  0  0  0
   -6.8264    1.2429   -0.1618 C   0  0  0  0  0  0  0  0  0  0  0  0
   -8.9285   -0.0019   -0.0135 C   0  0  0  0  0  0  0  0  0  0  0  0
  -10.0291   -0.0049    0.0042 H   0  0  0  0  0  0  0  0  0  0  0  0
  1 14  1  0  0  0  0
  1  2  1  0  0  0  0
  3  1  2  0  0  0  0
  4 12  2  0  0  0  0
  4 14  1  0  0  0  0
  5 17  1  0  0  0  0
  5  8  2  0  0  0  0
  6  8  1  0  0  0  0
  6  7  1  0  0  0  0
  8  9  1  0  0  0  0
 10 19  2  0  0  0  0
 10 13  1  0  0  0  0
 11 10  1  0  0  0  0
 12  5  1  0  0  0  0
 13  4  1  0  0  0  0
 14  6  2  0  0  0  0
 15 13  2  0  0  0  0
 15  3  1  0  0  0  0
 16 15  1  0  0  0  0
 17 18  1  0  0  0  0
 19 23  1  0  0  0  0
 20 19  1  0  0  0  0
 21 24  1  0  0  0  0
 22 21  1  0  0  0  0
 23 21  2  0  0  0  0
 23 12  1  0  0  0  0
 24 25  1  0  0  0  0
 24 17  2  0  0  0  0
M  END
