5
q = -1.0

 50 53  0  0  0  0  0  0  0  0999 V2000
    0.3171   -1.8812   -1.7957 Se  0  0  0  0  0  1  0  0  0  0  0  0
    0.3757    1.6990   -1.9366 Se  0  0  0  0  0  1  0  0  0  0  0  0
   -0.8147   -1.5479    0.0413 P   0  0  0  0  0  4  0  0  0  0  0  0
   -0.7669    1.6141   -0.0768 P   0  0  0  0  0  4  0  0  0  0  0  0
   -0.2146    0.0448    0.6050 C   0  0  0  0  0  3  0  0  0  0  0  0
   -0.3847   -2.7355    1.3687 C   0  0  0  0  0  0  0  0  0  0  0  0
   -0.4768   -2.3826    2.7305 C   0  0  0  0  0  0  0  0  0  0  0  0
   -0.1668   -3.3293    3.7189 C   0  0  0  0  0  0  0  0  0  0  0  0
    0.2191   -4.6292    3.3532 C   0  0  0  0  0  0  0  0  0  0  0  0
    0.2922   -4.9849    1.9967 C   0  0  0  0  0  0  0  0  0  0  0  0
   -0.0053   -4.0408    1.0038 C   0  0  0  0  0  0  0  0  0  0  0  0
   -2.6218   -1.6878   -0.1906 C   0  0  0  0  0  0  0  0  0  0  0  0
   -3.1417   -2.2081   -1.3888 C   0  0  0  0  0  0  0  0  0  0  0  0
   -4.5308   -2.3247   -1.5484 C   0  0  0  0  0  0  0  0  0  0  0  0
   -5.3932   -1.9056   -0.5238 C   0  0  0  0  0  0  0  0  0  0  0  0
   -4.8711   -1.3740    0.6682 C   0  0  0  0  0  0  0  0  0  0  0  0
   -3.4857   -1.2703    0.8423 C   0  0  0  0  0  0  0  0  0  0  0  0
   -0.2715    2.8862    1.1404 C   0  0  0  0  0  0  0  0  0  0  0  0
    0.1292    4.1481    0.6614 C   0  0  0  0  0  0  0  0  0  0  0  0
    0.4916    5.1556    1.5662 C   0  0  0  0  0  0  0  0  0  0  0  0
    0.4635    4.9064    2.9483 C   0  0  0  0  0  0  0  0  0  0  0  0
    0.0568    3.6509    3.4284 C   0  0  0  0  0  0  0  0  0  0  0  0
   -0.3180    2.6411    2.5283 C   0  0  0  0  0  0  0  0  0  0  0  0
   -2.5654    1.8040   -0.3198 C   0  0  0  0  0  0  0  0  0  0  0  0
   -3.3766    2.3734    0.6841 C   0  0  0  0  0  0  0  0  0  0  0  0
   -4.7651    2.4341    0.4991 C   0  0  0  0  0  0  0  0  0  0  0  0
   -5.3419    1.9313   -0.6785 C   0  0  0  0  0  0  0  0  0  0  0  0
   -4.5317    1.3701   -1.6792 C   0  0  0  0  0  0  0  0  0  0  0  0
   -3.1431    1.3064   -1.5060 C   0  0  0  0  0  0  0  0  0  0  0  0
   -0.0416    0.0803    1.6944 H   0  0  0  0  0  0  0  0  0  0  0  0
   -0.7928   -1.3726    3.0328 H   0  0  0  0  0  0  0  0  0  0  0  0
   -0.2318   -3.0505    4.7812 H   0  0  0  0  0  0  0  0  0  0  0  0
    0.4606   -5.3692    4.1307 H   0  0  0  0  0  0  0  0  0  0  0  0
    0.5902   -6.0039    1.7082 H   0  0  0  0  0  0  0  0  0  0  0  0
    0.0784   -4.3027   -0.0628 H   0  0  0  0  0  0  0  0  0  0  0  0
   -2.4567   -2.5073   -2.1982 H   0  0  0  0  0  0  0  0  0  0  0  0
   -4.9402   -2.7383   -2.4821 H   0  0  0  0  0  0  0  0  0  0  0  0
   -6.4825   -1.9896   -0.6544 H   0  0  0  0  0  0  0  0  0  0  0  0
   -5.5487   -1.0375    1.4666 H   0  0  0  0  0  0  0  0  0  0  0  0
   -3.0812   -0.8540    1.7779 H   0  0  0  0  0  0  0  0  0  0  0  0
    0.1778    4.3260   -0.4245 H   0  0  0  0  0  0  0  0  0  0  0  0
    0.8058    6.1401    1.1889 H   0  0  0  0  0  0  0  0  0  0  0  0
    0.7570    5.6958    3.6562 H   0  0  0  0  0  0  0  0  0  0  0  0
    0.0263    3.4566    4.5109 H   0  0  0  0  0  0  0  0  0  0  0  0
   -0.6522    1.6675    2.9177 H   0  0  0  0  0  0  0  0  0  0  0  0
   -2.9263    2.7813    1.6014 H   0  0  0  0  0  0  0  0  0  0  0  0
   -5.3995    2.8872    1.2755 H   0  0  0  0  0  0  0  0  0  0  0  0
   -6.4317    1.9846   -0.8208 H   0  0  0  0  0  0  0  0  0  0  0  0
   -4.9836    0.9803   -2.6030 H   0  0  0  0  0  0  0  0  0  0  0  0
   -2.4979    0.8753   -2.2875 H   0  0  0  0  0  0  0  0  0  0  0  0
  1  3  1  0  0  0  0
  2  4  1  0  0  0  0
  3  5  1  0  0  0  0
  3  6  1  0  0  0  0
  4  5  1  0  0  0  0
  4 18  1  0  0  0  0
  5 30  1  0  0  0  0
  6  7  1  0  0  0  0
  7 31  1  0  0  0  0
  7  8  2  0  0  0  0
  8 32  1  0  0  0  0
  9  8  1  0  0  0  0
  9 33  1  0  0  0  0
 10  9  2  0  0  0  0
 11  6  2  0  0  0  0
 11 10  1  0  0  0  0
 12  3  1  0  0  0  0
 12 17  1  0  0  0  0
 13 12  2  0  0  0  0
 14 13  1  0  0  0  0
 14 15  2  0  0  0  0
 15 16  1  0  0  0  0
 16 17  2  0  0  0  0
 16 39  1  0  0  0  0
 17 40  1  0  0  0  0
 18 23  1  0  0  0  0
 19 18  2  0  0  0  0
 19 20  1  0  0  0  0
 20 21  2  0  0  0  0
 21 22  1  0  0  0  0
 21 43  1  0  0  0  0
 22 44  1  0  0  0  0
 23 45  1  0  0  0  0
 23 22  2  0  0  0  0
 24  4  1  0  0  0  0
 24 25  1  0  0  0  0
 25 46  1  0  0  0  0
 26 25  2  0  0  0  0
 26 47  1  0  0  0  0
 27 26  1  0  0  0  0
 28 29  1  0  0  0  0
 28 27  2  0  0  0  0
 29 24  2  0  0  0  0
 34 10  1  0  0  0  0
 35 11  1  0  0  0  0
 36 13  1  0  0  0  0
 37 14  1  0  0  0  0
 38 15  1  0  0  0  0
 41 19  1  0  0  0  0
 42 20  1  0  0  0  0
 48 27  1  0  0  0  0
 49 28  1  0  0  0  0
 50 29  1  0  0  0  0
M  END
