23
q = 0.0, confidence = 0.968

 44 47  0  0  1  0  0  0  0  0999 V2000
    3.6788    0.0827   -0.0449 O   0  0  0  0  0  0  0  0  0  0  0  0
   -0.7138    0.9992    1.7987 O   0  0  0  0  0  0  0  0  0  0  0  0
    4.2258   -2.1944    0.0353 O   0  0  0  0  0  0  0  0  0  0  0  0
    1.4836    0.9959    0.1168 C   0  0  2  0  0  0  0  0  0  0  0  0
    1.5307    0.9381    1.2211 H   0  0  0  0  0  0  0  0  0  0  0  0
    2.3213   -0.1572   -0.4336 C   0  0  2  0  0  0  0  0  0  0  0  0
    2.2685   -0.1612   -1.5547 H   0  0  0  0  0  0  0  0  0  0  0  0
    0.0020    0.9609   -0.3781 C   0  0  1  0  0  0  0  0  0  0  0  0
   -0.1009    0.2890   -1.2528 H   0  0  0  0  0  0  0  0  0  0  0  0
    4.5514   -0.9349   -0.5029 C   0  0  2  0  0  0  0  0  0  0  0  0
    4.4470   -0.9948   -1.6248 H   0  0  0  0  0  0  0  0  0  0  0  0
    1.2687    3.4080    0.5509 C   0  0  0  0  0  0  0  0  0  0  0  0
    1.7298    3.9106    1.4132 H   0  0  0  0  0  0  0  0  0  0  0  0
   -0.0375    3.4187    0.1983 C   0  0  0  0  0  0  0  0  0  0  0  0
   -0.8638    3.9357    0.7058 H   0  0  0  0  0  0  0  0  0  0  0  0
   -1.5567    0.8928    2.9508 C   0  0  0  0  0  0  0  0  0  0  0  0
   -1.0773    1.5093    3.7325 H   0  0  0  0  0  0  0  0  0  0  0  0
   -1.6098   -0.1618    3.2815 H   0  0  0  0  0  0  0  0  0  0  0  0
   -2.5744    1.2658    2.7307 H   0  0  0  0  0  0  0  0  0  0  0  0
    5.9721   -0.5701   -0.1327 C   0  0  0  0  0  0  0  0  0  0  0  0
    6.8897   -1.5662    0.2447 C   0  0  0  0  0  0  0  0  0  0  0  0
    6.5479   -2.6089    0.3023 H   0  0  0  0  0  0  0  0  0  0  0  0
   -1.0886    0.5980    0.5972 C   0  0  0  0  0  2  0  0  0  0  0  0
    1.9764    2.4174   -0.3550 C   0  0  2  0  0  0  0  0  0  0  0  0
    3.0766    2.4919   -0.4065 H   0  0  0  0  0  0  0  0  0  0  0  0
   -0.1973    2.4483   -0.9543 C   0  0  1  0  0  0  0  0  0  0  0  0
   -1.1062    2.5483   -1.5712 H   0  0  0  0  0  0  0  0  0  0  0  0
    8.2152   -1.2233    0.5515 C   0  0  0  0  0  0  0  0  0  0  0  0
    8.9267   -2.0086    0.8495 H   0  0  0  0  0  0  0  0  0  0  0  0
    1.1691    2.6016   -1.6566 C   0  0  0  0  0  0  0  0  0  0  0  0
    1.2979    3.6063   -2.1043 H   0  0  0  0  0  0  0  0  0  0  0  0
    1.3611    1.8248   -2.4251 H   0  0  0  0  0  0  0  0  0  0  0  0
    1.8887   -1.5354    0.0822 C   0  0  0  0  0  0  0  0  0  0  0  0
    1.8423   -1.4986    1.1909 H   0  0  0  0  0  0  0  0  0  0  0  0
    0.8848   -1.8066   -0.2981 H   0  0  0  0  0  0  0  0  0  0  0  0
    8.6331    0.1148    0.4836 C   0  0  0  0  0  0  0  0  0  0  0  0
    9.6733    0.3825    0.7244 H   0  0  0  0  0  0  0  0  0  0  0  0
    2.9127   -2.5860   -0.3494 C   0  0  0  0  0  0  0  0  0  0  0  0
    2.7198   -3.5679    0.1249 H   0  0  0  0  0  0  0  0  0  0  0  0
    2.8677   -2.7263   -1.4590 H   0  0  0  0  0  0  0  0  0  0  0  0
    6.3922    0.7712   -0.1978 C   0  0  0  0  0  0  0  0  0  0  0  0
    5.6683    1.5481   -0.4831 H   0  0  0  0  0  0  0  0  0  0  0  0
    7.7175    1.1115    0.1088 C   0  0  0  0  0  0  0  0  0  0  0  0
    8.0375    2.1635    0.0579 H   0  0  0  0  0  0  0  0  0  0  0  0
  2 16  1  0  0  0  0
  4  5  1  1  0  0  0
  6  7  1  6  0  0  0
  6  1  1  0  0  0  0
  6 33  1  0  0  0  0
  6  4  1  0  0  0  0
  8  9  1  6  0  0  0
  8  4  1  0  0  0  0
  8 23  1  0  0  0  0
 10 11  1  6  0  0  0
 10 20  1  0  0  0  0
 10  1  1  0  0  0  0
 10  3  1  0  0  0  0
 12 13  1  0  0  0  0
 14 12  2  0  0  0  0
 14 15  1  0  0  0  0
 16 18  1  0  0  0  0
 16 17  1  0  0  0  0
 19 16  1  0  0  0  0
 20 21  1  0  0  0  0
 21 22  1  0  0  0  0
 21 28  2  0  0  0  0
 23  2  1  0  0  0  0
 24 25  1  6  0  0  0
 24  4  1  0  0  0  0
 24 12  1  0  0  0  0
 26 27  1  6  0  0  0
 26  8  1  0  0  0  0
 26 14  1  0  0  0  0
 28 29  1  0  0  0  0
 30 26  1  0  0  0  0
 30 24  1  0  0  0  0
 31 30  1  0  0  0  0
 32 30  1  0  0  0  0
 33 34  1  0  0  0  0
 35 33  1  0  0  0  0
 36 28  1  0  0  0  0
 36 37  1  0  0  0  0
 38  3  1  0  0  0  0
 38 33  1  0  0  0  0
 38 39  1  0  0  0  0
 40 38  1  0  0  0  0
 41 20  2  0  0  0  0
 41 43  1  0  0  0  0
 42 41  1  0  0  0  0
 43 36  2  0  0  0  0
 44 43  1  0  0  0  0
M  END
