2
q = 0.0, confidence = 0.99

 45 48  0  0  1  0  0  0  0  0999 V2000
    1.3987    0.4523   -0.9557 P   0  0  0  0  0  0  0  0  0  0  0  0
   -1.0492   -1.3836   -1.6398 C   0  0  0  0  0  3  0  0  0  0  0  0
   -0.1677   -1.8615   -2.0922 H   0  0  0  0  0  0  0  0  0  0  0  0
   -2.3036   -2.2239   -1.4439 C   0  0  0  0  0  0  0  0  0  0  0  0
   -2.4442   -2.9041   -2.3155 H   0  0  0  0  0  0  0  0  0  0  0  0
   -2.2619   -2.8609   -0.5373 H   0  0  0  0  0  0  0  0  0  0  0  0
   -3.4071   -1.1941   -1.3882 C   0  0  0  0  0  0  0  0  0  0  0  0
   -4.7739   -1.3477   -1.1380 C   0  0  0  0  0  0  0  0  0  0  0  0
   -5.1961   -2.3433   -0.9272 H   0  0  0  0  0  0  0  0  0  0  0  0
   -5.6106   -0.2142   -1.1735 C   0  0  0  0  0  0  0  0  0  0  0  0
   -6.6889   -0.3252   -0.9814 H   0  0  0  0  0  0  0  0  0  0  0  0
   -5.0826    1.0548   -1.4692 C   0  0  0  0  0  0  0  0  0  0  0  0
   -5.7516    1.9284   -1.5057 H   0  0  0  0  0  0  0  0  0  0  0  0
   -3.7081    1.2167   -1.7141 C   0  0  0  0  0  0  0  0  0  0  0  0
   -3.2942    2.2111   -1.9402 H   0  0  0  0  0  0  0  0  0  0  0  0
   -2.8703    0.0922   -1.6525 C   0  0  0  0  0  0  0  0  0  0  0  0
   -1.4023   -0.0121   -1.8292 C   0  0  2  0  0  3  0  0  0  0  0  0
   -0.6503    1.0270   -2.6373 C   0  0  0  0  0  0  0  0  0  0  0  0
   -0.8164    2.0226   -2.1734 H   0  0  0  0  0  0  0  0  0  0  0  0
   -1.0877    1.0779   -3.6603 H   0  0  0  0  0  0  0  0  0  0  0  0
    0.8506    0.7399   -2.7161 C   0  0  0  0  0  0  0  0  0  0  0  0
    1.4218    1.5618   -3.1893 H   0  0  0  0  0  0  0  0  0  0  0  0
    1.0430   -0.1826   -3.2992 H   0  0  0  0  0  0  0  0  0  0  0  0
    2.8697   -0.6585   -1.0394 C   0  0  0  0  0  0  0  0  0  0  0  0
    2.9660   -1.6943   -1.9908 C   0  0  0  0  0  0  0  0  0  0  0  0
    2.2013   -1.8029   -2.7742 H   0  0  0  0  0  0  0  0  0  0  0  0
    4.0331   -2.6047   -1.9497 C   0  0  0  0  0  0  0  0  0  0  0  0
    4.0974   -3.4028   -2.7050 H   0  0  0  0  0  0  0  0  0  0  0  0
    5.0104   -2.5019   -0.9469 C   0  0  0  0  0  0  0  0  0  0  0  0
    5.8467   -3.2167   -0.9143 H   0  0  0  0  0  0  0  0  0  0  0  0
    4.9122   -1.4847    0.0163 C   0  0  0  0  0  0  0  0  0  0  0  0
    5.6694   -1.4011    0.8108 H   0  0  0  0  0  0  0  0  0  0  0  0
    3.8494   -0.5713   -0.0276 C   0  0  0  0  0  0  0  0  0  0  0  0
    3.7768    0.2203    0.7334 H   0  0  0  0  0  0  0  0  0  0  0  0
    2.1513    2.0573   -0.4409 C   0  0  0  0  0  0  0  0  0  0  0  0
    3.1937    2.6283   -1.2022 C   0  0  0  0  0  0  0  0  0  0  0  0
    3.5716    2.1071   -2.0965 H   0  0  0  0  0  0  0  0  0  0  0  0
    3.7650    3.8486   -0.8167 C   0  0  0  0  0  0  0  0  0  0  0  0
    4.5776    4.2874   -1.4160 H   0  0  0  0  0  0  0  0  0  0  0  0
    3.3032    4.5070    0.3362 C   0  0  0  0  0  0  0  0  0  0  0  0
    3.7523    5.4654    0.6392 H   0  0  0  0  0  0  0  0  0  0  0  0
    2.2733    3.9383    1.1005 C   0  0  0  0  0  0  0  0  0  0  0  0
    1.9128    4.4493    2.0067 H   0  0  0  0  0  0  0  0  0  0  0  0
    1.6945    2.7167    0.7169 C   0  0  0  0  0  0  0  0  0  0  0  0
    0.8897    2.2592    1.3090 H   0  0  0  0  0  0  0  0  0  0  0  0
  1 35  1  0  0  0  0
  2  4  1  0  0  0  0
  3  2  1  0  0  0  0
  4  7  1  0  0  0  0
  4  6  1  0  0  0  0
  5  4  1  0  0  0  0
  7  8  1  0  0  0  0
  8  9  1  0  0  0  0
 10  8  2  0  0  0  0
 10 11  1  0  0  0  0
 12 10  1  0  0  0  0
 13 12  1  0  0  0  0
 14 16  1  0  0  0  0
 14 12  2  0  0  0  0
 15 14  1  0  0  0  0
 16  7  2  0  0  0  0
 17 18  1  6  0  0  0
 17 16  1  0  0  0  0
 17  2  1  0  0  0  0
 18 19  1  0  0  0  0
 20 18  1  0  0  0  0
 21 18  1  0  0  0  0
 21  1  1  0  0  0  0
 22 21  1  0  0  0  0
 23 21  1  0  0  0  0
 24  1  1  0  0  0  0
 24 33  1  0  0  0  0
 25 27  1  0  0  0  0
 25 24  2  0  0  0  0
 26 25  1  0  0  0  0
 27 29  2  0  0  0  0
 28 27  1  0  0  0  0
 29 30  1  0  0  0  0
 29 31  1  0  0  0  0
 31 32  1  0  0  0  0
 33 31  2  0  0  0  0
 33 34  1  0  0  0  0
 35 44  1  0  0  0  0
 36 38  1  0  0  0  0
 36 35  2  0  0  0  0
 37 36  1  0  0  0  0
 38 40  2  0  0  0  0
 39 38  1  0  0  0  0
 40 41  1  0  0  0  0
 40 42  1  0  0  0  0
 42 43  1  0  0  0  0
 44 42  2  0  0  0  0
 44 45  1  0  0  0  0
M  END
