2
q = 0.0, confidence = 0.976

 26 26  0  0  0  0  0  0  0  0999 V2000
    2.1161   -0.0034   -0.2683 N   0  0  0  0  0  0  0  0  0  0  0  0
    1.0101    0.9153   -0.5385 C   0  0  0  0  0  3  0  0  0  0  0  0
    1.2698    2.3941   -0.1046 C   0  0  0  0  0  0  0  0  0  0  0  0
    2.5974   -0.1996    0.9962 C   0  0  0  0  0  3  0  0  0  0  0  0
    3.6028   -1.1223    1.2622 C   0  0  0  0  0  0  0  0  0  0  0  0
    4.1389   -1.8985    0.2231 C   0  0  0  0  0  0  0  0  0  0  0  0
    3.6425   -1.6911   -1.0718 C   0  0  0  0  0  0  0  0  0  0  0  0
    2.6590   -0.7321   -1.2909 C   0  0  0  0  0  0  0  0  0  0  0  0
    1.1854    2.6713    1.4104 C   0  0  0  0  0  0  0  0  0  0  0  0
    2.6545    2.8475   -0.6213 C   0  0  0  0  0  0  0  0  0  0  0  0
    0.1911    3.2392   -0.8114 C   0  0  0  0  0  0  0  0  0  0  0  0
    0.9533    0.9354   -1.6435 H   0  0  0  0  0  0  0  0  0  0  0  0
    2.1055    0.3771    1.7839 H   0  0  0  0  0  0  0  0  0  0  0  0
    3.9404   -1.2405    2.3010 H   0  0  0  0  0  0  0  0  0  0  0  0
    4.9186   -2.6478    0.4186 H   0  0  0  0  0  0  0  0  0  0  0  0
    4.0190   -2.2629   -1.9311 H   0  0  0  0  0  0  0  0  0  0  0  0
    2.2462   -0.5232   -2.2860 H   0  0  0  0  0  0  0  0  0  0  0  0
    1.1088    3.7629    1.5910 H   0  0  0  0  0  0  0  0  0  0  0  0
    2.0872    2.3326    1.9590 H   0  0  0  0  0  0  0  0  0  0  0  0
    0.2963    2.1897    1.8599 H   0  0  0  0  0  0  0  0  0  0  0  0
    2.8303    3.9168   -0.3840 H   0  0  0  0  0  0  0  0  0  0  0  0
    3.4816    2.2699   -0.1579 H   0  0  0  0  0  0  0  0  0  0  0  0
    2.7310    2.7308   -1.7225 H   0  0  0  0  0  0  0  0  0  0  0  0
    0.3820    4.3184   -0.6434 H   0  0  0  0  0  0  0  0  0  0  0  0
    0.1871    3.0600   -1.9062 H   0  0  0  0  0  0  0  0  0  0  0  0
   -0.8197    3.0051   -0.4289 H   0  0  0  0  0  0  0  0  0  0  0  0
  1  4  1  0  0  0  0
  2  1  1  0  0  0  0
  2  3  1  0  0  0  0
  3  9  1  0  0  0  0
  4  5  1  0  0  0  0
  4 13  1  0  0  0  0
  5 14  1  0  0  0  0
  6 15  1  0  0  0  0
  6  5  2  0  0  0  0
  7  6  1  0  0  0  0
  8  7  2  0  0  0  0
  8  1  1  0  0  0  0
  9 18  1  0  0  0  0
  9 20  1  0  0  0  0
  9 19  1  0  0  0  0
 10 21  1  0  0  0  0
 10 22  1  0  0  0  0
 10  3  1  0  0  0  0
 11 24  1  0  0  0  0
 11 26  1  0  0  0  0
 11  3  1  0  0  0  0
 12  2  1  0  0  0  0
 16  7  1  0  0  0  0
 17  8  1  0  0  0  0
 23 10  1  0  0  0  0
 25 11  1  0  0  0  0
M  END
