34
q = 0.0, confidence = 1.0

 46 47  0  0  0  0  0  0  0  0999 V2000
   -4.6513    3.5476   -0.7649 O   0  0  0  0  0  0  0  0  0  0  0  0
   -1.8603    0.1525    1.4688 N   0  0  0  0  0  0  0  0  0  0  0  0
   -2.2812    0.6619    2.2537 H   0  0  0  0  0  0  0  0  0  0  0  0
   -2.4903    1.9001    0.0786 N   0  0  0  0  0  0  0  0  0  0  0  0
   -1.0747   -0.9947    1.8483 C   0  0  0  0  0  0  0  0  0  0  0  0
    0.1245   -0.7550    2.5730 C   0  0  0  0  0  0  0  0  0  0  0  0
    0.8827   -1.8667    2.9788 C   0  0  0  0  0  0  0  0  0  0  0  0
    1.8202   -1.7148    3.5314 H   0  0  0  0  0  0  0  0  0  0  0  0
    0.4673   -3.1693    2.6713 C   0  0  0  0  0  0  0  0  0  0  0  0
    1.0805   -4.0277    2.9850 H   0  0  0  0  0  0  0  0  0  0  0  0
   -0.7194   -3.3794    1.9642 C   0  0  0  0  0  0  0  0  0  0  0  0
   -1.0397   -4.4050    1.7306 H   0  0  0  0  0  0  0  0  0  0  0  0
   -1.5258   -2.3017    1.5451 C   0  0  0  0  0  0  0  0  0  0  0  0
    0.5496    0.6672    2.9231 C   0  0  0  0  0  0  0  0  0  0  0  0
    0.2818    1.3064    2.0528 H   0  0  0  0  0  0  0  0  0  0  0  0
   -0.2310    1.1895    4.1462 C   0  0  0  0  0  0  0  0  0  0  0  0
   -1.3313    1.1474    4.0058 H   0  0  0  0  0  0  0  0  0  0  0  0
    0.0368    2.2427    4.3694 H   0  0  0  0  0  0  0  0  0  0  0  0
    0.0008    0.5783    5.0423 H   0  0  0  0  0  0  0  0  0  0  0  0
    2.0568    0.8207    3.1605 C   0  0  0  0  0  0  0  0  0  0  0  0
    2.6516    0.4231    2.3151 H   0  0  0  0  0  0  0  0  0  0  0  0
    2.3821    0.2971    4.0826 H   0  0  0  0  0  0  0  0  0  0  0  0
    2.3169    1.8902    3.2889 H   0  0  0  0  0  0  0  0  0  0  0  0
   -2.8611   -2.5648    0.8675 C   0  0  0  0  0  0  0  0  0  0  0  0
   -3.1724   -1.6400    0.3449 H   0  0  0  0  0  0  0  0  0  0  0  0
   -3.9285   -2.8862    1.9299 C   0  0  0  0  0  0  0  0  0  0  0  0
   -4.9180   -3.0363    1.4517 H   0  0  0  0  0  0  0  0  0  0  0  0
   -4.0270   -2.0657    2.6707 H   0  0  0  0  0  0  0  0  0  0  0  0
   -3.6755   -3.8112    2.4897 H   0  0  0  0  0  0  0  0  0  0  0  0
   -2.7783   -3.6548   -0.2096 C   0  0  0  0  0  0  0  0  0  0  0  0
   -1.9818   -3.4249   -0.9446 H   0  0  0  0  0  0  0  0  0  0  0  0
   -3.7345   -3.7028   -0.7665 H   0  0  0  0  0  0  0  0  0  0  0  0
   -2.5887   -4.6602    0.2218 H   0  0  0  0  0  0  0  0  0  0  0  0
   -1.8586    0.7278    0.2495 C   0  0  0  0  0  2  0  0  0  0  0  0
   -2.4399    2.6242   -1.1997 C   0  0  0  0  0  0  0  0  0  0  0  0
   -1.8468    2.0211   -1.9146 H   0  0  0  0  0  0  0  0  0  0  0  0
   -1.9230    3.5946   -1.0246 H   0  0  0  0  0  0  0  0  0  0  0  0
   -3.8508    2.8685   -1.7301 C   0  0  0  0  0  0  0  0  0  0  0  0
   -3.8127    3.5121   -2.6304 H   0  0  0  0  0  0  0  0  0  0  0  0
   -4.2966    1.8839   -2.0017 H   0  0  0  0  0  0  0  0  0  0  0  0
   -4.7522    2.7822    0.4139 C   0  0  0  0  0  0  0  0  0  0  0  0
   -5.2150    1.7856    0.2068 H   0  0  0  0  0  0  0  0  0  0  0  0
   -5.4040    3.3383    1.1178 H   0  0  0  0  0  0  0  0  0  0  0  0
   -3.3739    2.5509    1.0537 C   0  0  0  0  0  0  0  0  0  0  0  0
   -2.9299    3.5248    1.3569 H   0  0  0  0  0  0  0  0  0  0  0  0
   -3.4986    1.9330    1.9634 H   0  0  0  0  0  0  0  0  0  0  0  0
  1 41  1  0  0  0  0
  2  5  1  0  0  0  0
  2  3  1  0  0  0  0
  4 34  1  0  0  0  0
  4 44  1  0  0  0  0
  5  6  1  0  0  0  0
  6 14  1  0  0  0  0
  6  7  2  0  0  0  0
  7  8  1  0  0  0  0
  9  7  1  0  0  0  0
  9 10  1  0  0  0  0
 11  9  2  0  0  0  0
 12 11  1  0  0  0  0
 13  5  2  0  0  0  0
 13 11  1  0  0  0  0
 14 20  1  0  0  0  0
 14 16  1  0  0  0  0
 15 14  1  0  0  0  0
 16 18  1  0  0  0  0
 16 19  1  0  0  0  0
 17 16  1  0  0  0  0
 20 23  1  0  0  0  0
 20 22  1  0  0  0  0
 21 20  1  0  0  0  0
 24 13  1  0  0  0  0
 24 26  1  0  0  0  0
 25 24  1  0  0  0  0
 26 29  1  0  0  0  0
 26 28  1  0  0  0  0
 27 26  1  0  0  0  0
 30 33  1  0  0  0  0
 30 24  1  0  0  0  0
 31 30  1  0  0  0  0
 32 30  1  0  0  0  0
 34  2  1  0  0  0  0
 35 37  1  0  0  0  0
 35  4  1  0  0  0  0
 36 35  1  0  0  0  0
 38 35  1  0  0  0  0
 38  1  1  0  0  0  0
 39 38  1  0  0  0  0
 40 38  1  0  0  0  0
 41 44  1  0  0  0  0
 41 43  1  0  0  0  0
 42 41  1  0  0  0  0
 44 45  1  0  0  0  0
 44 46  1  0  0  0  0
M  END
