4
q = -1.0, confidence = 0.094

 40 43  0  0  0  0  0  0  0  0999 V2000
   -8.6608    0.0012    0.0018 N   0  0  0  0  0  0  0  0  0  0  0  0
   -8.0568   -3.5792   -0.0552 N   0  0  0  0  0  0  0  0  0  0  0  0
   -8.0498    3.5806    0.0560 N   0  0  0  0  0  0  0  0  0  0  0  0
    1.1882   -0.0054   -0.0147 C   0  0  0  0  0  1  0  0  0  0  0  0
   -0.0534   -0.0052   -0.0143 C   0  0  0  0  0  2  0  0  0  0  0  0
   -1.4774   -0.0047   -0.0128 C   0  0  0  0  0  0  0  0  0  0  0  0
   -2.2119   -1.1020    0.5105 C   0  0  0  0  0  0  0  0  0  0  0  0
   -1.6610   -1.9576    0.9268 H   0  0  0  0  0  0  0  0  0  0  0  0
   -3.6073   -1.0982    0.5074 C   0  0  0  0  0  0  0  0  0  0  0  0
   -4.1456   -1.9552    0.9387 H   0  0  0  0  0  0  0  0  0  0  0  0
   -4.3395   -0.0027   -0.0080 C   0  0  0  0  0  0  0  0  0  0  0  0
   -3.6075    1.0916   -0.5262 C   0  0  0  0  0  0  0  0  0  0  0  0
   -4.1462    1.9494   -0.9555 H   0  0  0  0  0  0  0  0  0  0  0  0
   -2.2122    1.0934   -0.5339 C   0  0  0  0  0  0  0  0  0  0  0  0
   -1.6615    1.9484   -0.9519 H   0  0  0  0  0  0  0  0  0  0  0  0
   -5.8204   -0.0014   -0.0049 C   0  0  0  0  0  0  0  0  0  0  0  0
   -6.5622   -1.2009   -0.0229 C   0  0  0  0  0  0  0  0  0  0  0  0
   -6.0856   -2.1893   -0.0627 H   0  0  0  0  0  0  0  0  0  0  0  0
   -7.9691   -1.1536   -0.0171 C   0  0  0  0  0  0  0  0  0  0  0  0
   -7.9669    1.1548    0.0173 C   0  0  0  0  0  0  0  0  0  0  0  0
   -6.5598    1.1994    0.0166 C   0  0  0  0  0  0  0  0  0  0  0  0
   -6.0813    2.1869    0.0542 H   0  0  0  0  0  0  0  0  0  0  0  0
   -8.7539   -2.4233   -0.0386 C   0  0  0  0  0  0  0  0  0  0  0  0
  -10.1653   -2.3945   -0.0405 C   0  0  0  0  0  0  0  0  0  0  0  0
  -10.6719   -1.4203   -0.0269 H   0  0  0  0  0  0  0  0  0  0  0  0
  -10.8644   -3.6058   -0.0601 C   0  0  0  0  0  0  0  0  0  0  0  0
  -11.9654   -3.6143   -0.0620 H   0  0  0  0  0  0  0  0  0  0  0  0
  -10.1396   -4.8074   -0.0777 C   0  0  0  0  0  0  0  0  0  0  0  0
  -10.6458   -5.7840   -0.0938 H   0  0  0  0  0  0  0  0  0  0  0  0
   -8.7363   -4.7317   -0.0744 C   0  0  0  0  0  0  0  0  0  0  0  0
   -8.1309   -5.6562   -0.0881 H   0  0  0  0  0  0  0  0  0  0  0  0
   -8.7491    2.4260    0.0427 C   0  0  0  0  0  0  0  0  0  0  0  0
  -10.1606    2.3998    0.0515 C   0  0  0  0  0  0  0  0  0  0  0  0
  -10.6691    1.4266    0.0402 H   0  0  0  0  0  0  0  0  0  0  0  0
  -10.8572    3.6125    0.0746 C   0  0  0  0  0  0  0  0  0  0  0  0
  -11.9582    3.6230    0.0819 H   0  0  0  0  0  0  0  0  0  0  0  0
  -10.1301    4.8127    0.0889 C   0  0  0  0  0  0  0  0  0  0  0  0
  -10.6344    5.7902    0.1076 H   0  0  0  0  0  0  0  0  0  0  0  0
   -8.7270    4.7343    0.0788 C   0  0  0  0  0  0  0  0  0  0  0  0
   -8.1198    5.6577    0.0897 H   0  0  0  0  0  0  0  0  0  0  0  0
  1 20  1  0  0  0  0
  2 23  1  0  0  0  0
  3 39  1  0  0  0  0
  4  5  1  0  0  0  0
  5  6  1  0  0  0  0
  6  7  1  0  0  0  0
  7  8  1  0  0  0  0
  9  7  2  0  0  0  0
  9 10  1  0  0  0  0
 11 16  1  0  0  0  0
 11  9  1  0  0  0  0
 12 11  2  0  0  0  0
 13 12  1  0  0  0  0
 14 12  1  0  0  0  0
 14  6  2  0  0  0  0
 15 14  1  0  0  0  0
 16 21  1  0  0  0  0
 17 19  1  0  0  0  0
 17 16  2  0  0  0  0
 18 17  1  0  0  0  0
 19  1  2  0  0  0  0
 20 32  1  0  0  0  0
 21 20  2  0  0  0  0
 21 22  1  0  0  0  0
 23 19  1  0  0  0  0
 24 23  2  0  0  0  0
 24 25  1  0  0  0  0
 26 24  1  0  0  0  0
 27 26  1  0  0  0  0
 28 30  1  0  0  0  0
 28 26  2  0  0  0  0
 29 28  1  0  0  0  0
 30  2  2  0  0  0  0
 31 30  1  0  0  0  0
 32 33  1  0  0  0  0
 32  3  2  0  0  0  0
 33 35  2  0  0  0  0
 34 33  1  0  0  0  0
 35 36  1  0  0  0  0
 35 37  1  0  0  0  0
 37 38  1  0  0  0  0
 39 37  2  0  0  0  0
 39 40  1  0  0  0  0
M  END
