6
q = -1.0

 51 54  0  0  1  0  0  0  0  0999 V2000
    0.2951   -0.2386    2.4448 O   0  0  0  0  0  0  0  0  0  0  0  0
   -1.7039    1.3763    1.6470 O   0  0  0  0  0  0  0  0  0  0  0  0
    0.9029   -2.0003    0.8399 C   0  0  0  0  0  3  0  0  0  0  0  0
    0.3647   -0.7323    1.1720 C   0  0  0  0  0  0  0  0  0  0  0  0
   -0.2802    0.0680    0.1566 C   0  0  0  0  0  0  0  0  0  0  0  0
   -0.2729   -0.4863   -1.1668 C   0  0  0  0  0  3  0  0  0  0  0  0
    0.3403   -1.7284   -1.4348 C   0  0  0  0  0  3  0  0  0  0  0  0
    1.4796   -2.2123   -0.5464 C   0  0  1  0  0  0  0  0  0  0  0  0
    2.8279   -1.5603   -0.8487 C   0  0  0  0  0  0  0  0  0  0  0  0
    3.4458   -0.6563    0.0347 C   0  0  0  0  0  0  0  0  0  0  0  0
    4.6678   -0.0476   -0.2971 C   0  0  0  0  0  0  0  0  0  0  0  0
    5.2899   -0.3339   -1.5208 C   0  0  0  0  0  0  0  0  0  0  0  0
    4.6856   -1.2403   -2.4087 C   0  0  0  0  0  0  0  0  0  0  0  0
    3.4690   -1.8485   -2.0720 C   0  0  0  0  0  0  0  0  0  0  0  0
    0.7308   -1.0521    3.5301 C   0  0  0  0  0  0  0  0  0  0  0  0
   -0.8625    1.4559    0.5021 C   0  0  0  0  0  0  0  0  0  0  0  0
   -1.7497    1.9576   -0.6475 C   0  0  0  0  0  0  0  0  0  0  0  0
   -1.2262    2.6798   -1.7369 C   0  0  0  0  0  0  0  0  0  0  0  0
   -2.0563    3.0572   -2.8039 C   0  0  0  0  0  0  0  0  0  0  0  0
   -3.4191    2.7215   -2.7921 C   0  0  0  0  0  0  0  0  0  0  0  0
   -3.9480    2.0126   -1.7023 C   0  0  0  0  0  0  0  0  0  0  0  0
   -3.1198    1.6355   -0.6355 C   0  0  0  0  0  0  0  0  0  0  0  0
    0.3058    2.4304    0.7615 C   0  0  0  0  0  0  0  0  0  0  0  0
    0.1033    3.5107    1.6408 C   0  0  0  0  0  0  0  0  0  0  0  0
    1.1321    4.4311    1.8857 C   0  0  0  0  0  0  0  0  0  0  0  0
    2.3790    4.2855    1.2547 C   0  0  0  0  0  0  0  0  0  0  0  0
    2.5868    3.2130    0.3746 C   0  0  0  0  0  0  0  0  0  0  0  0
    1.5557    2.2919    0.1287 C   0  0  0  0  0  0  0  0  0  0  0  0
   -1.1719    0.9155    2.3300 H   0  0  0  0  0  0  0  0  0  0  0  0
    1.2276   -2.6614    1.6549 H   0  0  0  0  0  0  0  0  0  0  0  0
   -0.8656    0.0252   -1.9389 H   0  0  0  0  0  0  0  0  0  0  0  0
    0.2070   -2.1676   -2.4346 H   0  0  0  0  0  0  0  0  0  0  0  0
    1.5895   -3.3048   -0.7053 H   0  0  0  0  0  0  0  0  0  0  0  0
    2.9661   -0.4128    0.9939 H   0  0  0  0  0  0  0  0  0  0  0  0
    5.1319    0.6583    0.4088 H   0  0  0  0  0  0  0  0  0  0  0  0
    6.2458    0.1444   -1.7830 H   0  0  0  0  0  0  0  0  0  0  0  0
    5.1690   -1.4769   -3.3689 H   0  0  0  0  0  0  0  0  0  0  0  0
    3.0031   -2.5610   -2.7720 H   0  0  0  0  0  0  0  0  0  0  0  0
    0.6298   -0.4284    4.4363 H   0  0  0  0  0  0  0  0  0  0  0  0
    1.7926   -1.3516    3.4058 H   0  0  0  0  0  0  0  0  0  0  0  0
    0.0952   -1.9567    3.6344 H   0  0  0  0  0  0  0  0  0  0  0  0
   -0.1616    2.9552   -1.7501 H   0  0  0  0  0  0  0  0  0  0  0  0
   -1.6334    3.6231   -3.6480 H   0  0  0  0  0  0  0  0  0  0  0  0
   -4.0693    3.0171   -3.6296 H   0  0  0  0  0  0  0  0  0  0  0  0
   -5.0153    1.7450   -1.6819 H   0  0  0  0  0  0  0  0  0  0  0  0
   -3.5232    1.0869    0.2255 H   0  0  0  0  0  0  0  0  0  0  0  0
   -0.8745    3.6087    2.1337 H   0  0  0  0  0  0  0  0  0  0  0  0
    0.9594    5.2708    2.5766 H   0  0  0  0  0  0  0  0  0  0  0  0
    3.1868    5.0071    1.4501 H   0  0  0  0  0  0  0  0  0  0  0  0
    3.5590    3.0817   -0.1253 H   0  0  0  0  0  0  0  0  0  0  0  0
    1.7382    1.4541   -0.5597 H   0  0  0  0  0  0  0  0  0  0  0  0
  1 15  1  0  0  0  0
  2 29  1  0  0  0  0
  3  4  1  0  0  0  0
  3 30  1  0  0  0  0
  4  1  1  0  0  0  0
  5 16  1  0  0  0  0
  5  4  2  0  0  0  0
  6  5  1  0  0  0  0
  7  6  1  0  0  0  0
  7  8  1  0  0  0  0
  8 33  1  6  0  0  0
  8  3  1  0  0  0  0
  9  8  1  0  0  0  0
  9 10  1  0  0  0  0
 10 34  1  0  0  0  0
 11 10  2  0  0  0  0
 11 35  1  0  0  0  0
 12 11  1  0  0  0  0
 13 14  1  0  0  0  0
 13 12  2  0  0  0  0
 14  9  2  0  0  0  0
 15 41  1  0  0  0  0
 15 39  1  0  0  0  0
 16 23  1  0  0  0  0
 16  2  1  0  0  0  0
 17 22  1  0  0  0  0
 17 16  1  0  0  0  0
 18 17  2  0  0  0  0
 19 20  2  0  0  0  0
 19 18  1  0  0  0  0
 20 21  1  0  0  0  0
 21 45  1  0  0  0  0
 21 22  2  0  0  0  0
 22 46  1  0  0  0  0
 23 24  1  0  0  0  0
 24 25  2  0  0  0  0
 24 47  1  0  0  0  0
 25 48  1  0  0  0  0
 26 49  1  0  0  0  0
 26 25  1  0  0  0  0
 27 26  2  0  0  0  0
 28 27  1  0  0  0  0
 28 23  2  0  0  0  0
 31  6  1  0  0  0  0
 32  7  1  0  0  0  0
 36 12  1  0  0  0  0
 37 13  1  0  0  0  0
 38 14  1  0  0  0  0
 40 15  1  0  0  0  0
 42 18  1  0  0  0  0
 43 19  1  0  0  0  0
 44 20  1  0  0  0  0
 50 27  1  0  0  0  0
 51 28  1  0  0  0  0
M  END
