6
q = -1.0

 18 18  0  0  0  0  0  0  0  0999 V2000
   -2.9817   -1.1011   -0.6275 S   0  0  0  0  0  0  0  0  0  0  0  0
   -2.8109   -1.0602   -2.1017 O   0  0  0  0  0  0  0  0  0  0  0  0
   -3.2796   -2.3805    0.0710 O   0  0  0  0  0  0  0  0  0  0  0  0
   -1.7074   -0.1676    2.7202 N   0  0  0  0  0  0  0  0  0  0  0  0
   -1.6294   -0.2255    1.5464 C   0  0  0  0  0  0  0  0  0  0  0  0
   -1.4887   -0.3200    0.1187 C   0  0  0  0  0  3  0  0  0  0  0  0
   -4.3012    0.0620   -0.2104 C   0  0  0  0  0  0  0  0  0  0  0  0
   -5.0108   -0.1074    0.9876 C   0  0  0  0  0  0  0  0  0  0  0  0
   -6.0054    0.8255    1.3170 C   0  0  0  0  0  0  0  0  0  0  0  0
   -6.2783    1.9009    0.4555 C   0  0  0  0  0  0  0  0  0  0  0  0
   -5.5629    2.0489   -0.7451 C   0  0  0  0  0  0  0  0  0  0  0  0
   -4.5658    1.1244   -1.0878 C   0  0  0  0  0  0  0  0  0  0  0  0
   -1.4804    0.6932   -0.3295 H   0  0  0  0  0  0  0  0  0  0  0  0
   -4.7798   -0.9626    1.6382 H   0  0  0  0  0  0  0  0  0  0  0  0
   -6.5724    0.7098    2.2529 H   0  0  0  0  0  0  0  0  0  0  0  0
   -7.0602    2.6289    0.7199 H   0  0  0  0  0  0  0  0  0  0  0  0
   -5.7886    2.8863   -1.4228 H   0  0  0  0  0  0  0  0  0  0  0  0
   -4.0001    1.2015   -2.0280 H   0  0  0  0  0  0  0  0  0  0  0  0
  1  7  1  0  0  0  0
  1  3  2  0  0  0  0
  1  6  1  0  0  0  0
  2  1  2  0  0  0  0
  5  4  3  0  0  0  0
  6  5  1  0  0  0  0
  7  8  1  0  0  0  0
  8  9  2  0  0  0  0
  8 14  1  0  0  0  0
  9 15  1  0  0  0  0
 10 16  1  0  0  0  0
 10  9  1  0  0  0  0
 11 10  2  0  0  0  0
 12 11  1  0  0  0  0
 12  7  2  0  0  0  0
 13  6  1  0  0  0  0
 17 11  1  0  0  0  0
 18 12  1  0  0  0  0
M  END
