5
q = 0.0, confidence = 1.0

 37 39  0  0  0  0  0  0  0  0999 V2000
    1.6929    4.2242    0.1415 O   0  0  0  0  0  0  0  0  0  0  0  0
    1.2857   -0.4647   -0.6390 N   0  0  0  0  0  0  0  0  0  0  0  0
    1.1263    1.3611    0.5621 N   0  0  0  0  0  0  0  0  0  0  0  0
    2.2624   -3.5888   -0.7115 N   0  0  0  0  0  0  0  0  0  0  0  0
    0.3865    0.3857   -0.0540 C   0  0  0  0  0  2  0  0  0  0  0  0
    2.5945   -0.0559   -0.3800 C   0  0  0  0  0  0  0  0  0  0  0  0
    3.8355   -0.6133   -0.7223 C   0  0  0  0  0  0  0  0  0  0  0  0
    3.8946   -1.5735   -1.2537 H   0  0  0  0  0  0  0  0  0  0  0  0
    4.9749    0.0878   -0.3030 C   0  0  0  0  0  0  0  0  0  0  0  0
    5.9701   -0.3132   -0.5455 H   0  0  0  0  0  0  0  0  0  0  0  0
    4.8754    1.2960    0.4255 C   0  0  0  0  0  0  0  0  0  0  0  0
    5.7954    1.8201    0.7243 H   0  0  0  0  0  0  0  0  0  0  0  0
    3.6343    1.8453    0.7768 C   0  0  0  0  0  0  0  0  0  0  0  0
    3.5503    2.8004    1.3108 H   0  0  0  0  0  0  0  0  0  0  0  0
    2.4922    1.1401    0.3700 C   0  0  0  0  0  0  0  0  0  0  0  0
    0.9206   -1.6700   -1.3824 C   0  0  0  0  0  0  0  0  0  0  0  0
    1.5617   -1.7334   -2.2825 H   0  0  0  0  0  0  0  0  0  0  0  0
   -0.1344   -1.5403   -1.6910 H   0  0  0  0  0  0  0  0  0  0  0  0
    1.0983   -2.9306   -0.5573 C   0  0  0  0  0  0  0  0  0  0  0  0
    0.0940   -3.3460    0.3385 C   0  0  0  0  0  0  0  0  0  0  0  0
   -0.8397   -2.7680    0.4280 H   0  0  0  0  0  0  0  0  0  0  0  0
    0.3169   -4.4979    1.1042 C   0  0  0  0  0  0  0  0  0  0  0  0
   -0.4479   -4.8533    1.8113 H   0  0  0  0  0  0  0  0  0  0  0  0
    1.5280   -5.1879    0.9476 C   0  0  0  0  0  0  0  0  0  0  0  0
    1.7460   -6.0979    1.5260 H   0  0  0  0  0  0  0  0  0  0  0  0
    2.4649   -4.6911    0.0276 C   0  0  0  0  0  0  0  0  0  0  0  0
    3.4285   -5.2096   -0.1219 H   0  0  0  0  0  0  0  0  0  0  0  0
    0.5394    2.4801    1.2915 C   0  0  0  0  0  0  0  0  0  0  0  0
    1.1650    2.6813    2.1845 H   0  0  0  0  0  0  0  0  0  0  0  0
   -0.4642    2.1565    1.6304 H   0  0  0  0  0  0  0  0  0  0  0  0
    0.4063    3.7399    0.4498 C   0  0  0  0  0  0  0  0  0  0  0  0
   -0.1743    3.5029   -0.4764 H   0  0  0  0  0  0  0  0  0  0  0  0
   -0.1881    4.4943    1.0247 H   0  0  0  0  0  0  0  0  0  0  0  0
    1.6797    5.3224   -0.7421 C   0  0  0  0  0  0  0  0  0  0  0  0
    2.7310    5.6129   -0.9306 H   0  0  0  0  0  0  0  0  0  0  0  0
    1.1377    6.1996   -0.3124 H   0  0  0  0  0  0  0  0  0  0  0  0
    1.1986    5.0670   -1.7168 H   0  0  0  0  0  0  0  0  0  0  0  0
  1 31  1  0  0  0  0
  2  6  1  0  0  0  0
  2  5  1  0  0  0  0
  3 28  1  0  0  0  0
  4 19  2  0  0  0  0
  4 26  1  0  0  0  0
  5  3  1  0  0  0  0
  6 15  1  0  0  0  0
  7  6  2  0  0  0  0
  7  9  1  0  0  0  0
  8  7  1  0  0  0  0
  9 11  2  0  0  0  0
 10  9  1  0  0  0  0
 11 12  1  0  0  0  0
 11 13  1  0  0  0  0
 13 14  1  0  0  0  0
 15  3  1  0  0  0  0
 15 13  2  0  0  0  0
 16  2  1  0  0  0  0
 16 19  1  0  0  0  0
 17 16  1  0  0  0  0
 18 16  1  0  0  0  0
 19 20  1  0  0  0  0
 20 21  1  0  0  0  0
 20 22  2  0  0  0  0
 22 23  1  0  0  0  0
 24 22  1  0  0  0  0
 24 25  1  0  0  0  0
 26 24  2  0  0  0  0
 27 26  1  0  0  0  0
 28 30  1  0  0  0  0
 28 29  1  0  0  0  0
 31 33  1  0  0  0  0
 31 28  1  0  0  0  0
 32 31  1  0  0  0  0
 34 36  1  0  0  0  0
 34  1  1  0  0  0  0
 35 34  1  0  0  0  0
 37 34  1  0  0  0  0
M  END
