1
q = -1.0

 32 32  0  0  1  0  0  0  0  0999 V2000
   -2.1959    0.8441    0.1010 C   0  0  1  0  0  3  0  0  0  0  0  0
   -1.6210    1.7686   -0.8425 C   0  0  2  0  0  3  0  0  0  0  0  0
   -0.5079    2.4020   -0.2116 C   0  0  0  0  0  0  0  0  0  0  0  0
   -2.1358    2.1115   -2.2043 C   0  0  0  0  0  0  0  0  0  0  0  0
   -2.7655    3.0269   -2.1687 H   0  0  0  0  0  0  0  0  0  0  0  0
   -2.7375    1.2884   -2.6314 H   0  0  0  0  0  0  0  0  0  0  0  0
   -1.2955    2.2997   -2.9011 H   0  0  0  0  0  0  0  0  0  0  0  0
    0.2455    3.5815   -0.7357 C   0  0  0  0  0  0  0  0  0  0  0  0
   -0.2868    4.5150   -0.4470 H   0  0  0  0  0  0  0  0  0  0  0  0
    0.3315    3.5587   -1.8372 H   0  0  0  0  0  0  0  0  0  0  0  0
    1.2691    3.6402   -0.3190 H   0  0  0  0  0  0  0  0  0  0  0  0
   -0.3557    1.8481    1.0970 C   0  0  0  0  0  0  0  0  0  0  0  0
   -1.4250    0.9057    1.3056 C   0  0  1  0  0  3  0  0  0  0  0  0
   -3.5357    0.1579   -0.0965 C   0  0  1  0  0  0  0  0  0  0  0  0
   -3.6648    0.0852   -1.1992 H   0  0  0  0  0  0  0  0  0  0  0  0
   -3.5815   -1.2745    0.3805 C   0  0  0  0  0  0  0  0  0  0  0  0
   -2.8082   -1.9103   -0.0828 H   0  0  0  0  0  0  0  0  0  0  0  0
   -4.4711   -1.8207    1.2290 C   0  0  0  0  0  0  0  0  0  0  0  0
   -5.2687   -1.2325    1.7102 H   0  0  0  0  0  0  0  0  0  0  0  0
   -4.4331   -2.8939    1.4734 H   0  0  0  0  0  0  0  0  0  0  0  0
   -4.6570    1.0505    0.4582 C   0  0  0  0  0  0  0  0  0  0  0  0
   -4.5868    1.1540    1.5601 H   0  0  0  0  0  0  0  0  0  0  0  0
   -5.6547    0.6315    0.2172 H   0  0  0  0  0  0  0  0  0  0  0  0
   -4.5956    2.0665    0.0216 H   0  0  0  0  0  0  0  0  0  0  0  0
    0.5186    2.4572    2.1539 C   0  0  0  0  0  0  0  0  0  0  0  0
    1.5898    2.4673    1.8755 H   0  0  0  0  0  0  0  0  0  0  0  0
    0.4269    1.9402    3.1244 H   0  0  0  0  0  0  0  0  0  0  0  0
    0.2162    3.5144    2.3159 H   0  0  0  0  0  0  0  0  0  0  0  0
   -1.8554    0.4039    2.6507 C   0  0  0  0  0  0  0  0  0  0  0  0
   -2.4553    1.1961    3.1505 H   0  0  0  0  0  0  0  0  0  0  0  0
   -1.0024    0.1849    3.3182 H   0  0  0  0  0  0  0  0  0  0  0  0
   -2.4926   -0.4937    2.5829 H   0  0  0  0  0  0  0  0  0  0  0  0
  1 14  1  1  0  0  0
  1 13  1  0  0  0  0
  2  4  1  1  0  0  0
  2  3  1  0  0  0  0
  2  1  1  0  0  0  0
  3 12  2  0  0  0  0
  4  5  1  0  0  0  0
  6  4  1  0  0  0  0
  7  4  1  0  0  0  0
  8  9  1  0  0  0  0
  8 11  1  0  0  0  0
  8  3  1  0  0  0  0
 10  8  1  0  0  0  0
 12 13  1  0  0  0  0
 12 25  1  0  0  0  0
 13 29  1  1  0  0  0
 14 15  1  6  0  0  0
 14 16  1  0  0  0  0
 14 21  1  0  0  0  0
 16 18  2  0  0  0  0
 17 16  1  0  0  0  0
 18 20  1  0  0  0  0
 18 19  1  0  0  0  0
 21 22  1  0  0  0  0
 23 21  1  0  0  0  0
 24 21  1  0  0  0  0
 25 28  1  0  0  0  0
 25 27  1  0  0  0  0
 26 25  1  0  0  0  0
 29 30  1  0  0  0  0
 29 31  1  0  0  0  0
 32 29  1  0  0  0  0
M  END
