13
q = 0.0, confidence = 0.55

 21 20  0  0  0  0  0  0  0  0999 V2000
   -0.9170   -2.0262   -0.6599 S   0  0  0  0  0  0  0  0  0  0  0  0
    0.1712    1.3029    0.0648 S   0  0  0  0  0  1  0  0  0  0  0  0
   -4.2351    0.0439   -0.3036 O   0  0  0  0  0  0  0  0  0  0  0  0
   -3.6633   -2.1297   -0.5965 O   0  0  0  0  0  0  0  0  0  0  0  0
   -2.7079    2.5896   -1.0088 O   0  0  0  0  0  0  0  0  0  0  0  0
   -2.8451    2.0324    1.1936 O   0  0  0  0  0  0  0  0  0  0  0  0
   -1.9038   -0.5748   -0.4139 C   0  0  0  0  0  0  0  0  0  0  0  0
   -3.3661   -0.8100   -0.4308 C   0  0  0  0  0  0  0  0  0  0  0  0
   -5.0556   -2.4429   -0.6121 C   0  0  0  0  0  0  0  0  0  0  0  0
   -1.4427    0.7047   -0.1737 C   0  0  0  0  0  0  0  0  0  0  0  0
   -2.4264    1.8586   -0.0810 C   0  0  0  0  0  0  0  0  0  0  0  0
   -3.8549    3.0320    1.3545 C   0  0  0  0  0  0  0  0  0  0  0  0
    0.7071   -1.3683   -1.0607 C   0  0  0  0  0  3  0  0  0  0  0  0
   -5.5422   -2.1458    0.3397 H   0  0  0  0  0  0  0  0  0  0  0  0
   -5.5727   -1.9146   -1.4391 H   0  0  0  0  0  0  0  0  0  0  0  0
   -5.1226   -3.5367   -0.7532 H   0  0  0  0  0  0  0  0  0  0  0  0
   -4.0464    3.1068    2.4402 H   0  0  0  0  0  0  0  0  0  0  0  0
   -3.5216    4.0088    0.9490 H   0  0  0  0  0  0  0  0  0  0  0  0
   -4.7771    2.7230    0.8211 H   0  0  0  0  0  0  0  0  0  0  0  0
    1.3058   -2.2709   -1.3065 H   0  0  0  0  0  0  0  0  0  0  0  0
    0.6040   -0.7484   -1.9696 H   0  0  0  0  0  0  0  0  0  0  0  0
  1  7  1  0  0  0  0
  4  8  1  0  0  0  0
  5 11  2  0  0  0  0
  6 12  1  0  0  0  0
  7 10  2  0  0  0  0
  8  7  1  0  0  0  0
  8  3  2  0  0  0  0
  9  4  1  0  0  0  0
  9 14  1  0  0  0  0
 10 11  1  0  0  0  0
 10  2  1  0  0  0  0
 11  6  1  0  0  0  0
 12 17  1  0  0  0  0
 13  1  1  0  0  0  0
 15  9  1  0  0  0  0
 16  9  1  0  0  0  0
 18 12  1  0  0  0  0
 19 12  1  0  0  0  0
 20 13  1  0  0  0  0
 21 13  1  0  0  0  0
M  END
