3
q = -1.0, confidence = 0.142

  6  5  0  0  0  0  0  0  0  0999 V2000
    3.7461    1.3046    0.5721 F   0  0  0  0  0  0  0  0  0  0  0  0
    3.6682   -2.1154    0.2424 O   0  0  0  0  0  0  0  0  0  0  0  0
    3.1817   -1.0215    0.0928 C   0  0  0  0  0  0  0  0  0  0  0  0
    4.3294    0.4729   -1.3630 F   0  0  0  0  0  0  0  0  0  0  0  0
    4.1800    0.1854   -0.0492 C   0  0  0  0  0  0  0  0  0  0  0  0
    5.3850   -0.1237    0.4531 F   0  0  0  0  0  0  0  0  0  0  0  0
  3  2  2  0  0  0  0
  4  5  1  0  0  0  0
  5  3  1  0  0  0  0
  5  6  1  0  0  0  0
  5  1  1  0  0  0  0
M  END
