8
q = -1.0

 78 82  0  0  0  0  0  0  0  0999 V2000
    2.5691   -0.0968   -0.4119 P   0  0  0  0  0  0  0  0  0  0  0  0
   -2.5095   -0.2064    0.5198 P   0  0  0  0  0  0  0  0  0  0  0  0
    2.8280    2.8873   -0.5397 Si  0  0  0  0  0  0  0  0  0  0  0  0
   -2.9514    2.8447    0.4778 Si  0  0  0  0  0  0  0  0  0  0  0  0
    0.9872    2.6011   -0.8276 C   0  0  0  0  0  0  0  0  0  0  0  0
   -0.0588    2.9477    0.0711 C   0  0  0  0  0  0  0  0  0  0  0  0
   -1.3250    2.5101   -0.4212 C   0  0  0  0  0  0  0  0  0  0  0  0
   -1.0715    1.8824   -1.7026 C   0  0  0  0  0  3  0  0  0  0  0  0
    0.3539    1.9440   -1.9533 C   0  0  0  0  0  0  0  0  0  0  0  0
    3.5397    1.2664   -1.2169 C   0  0  0  0  0  0  0  0  0  0  0  0
   -3.4569    1.1888    1.2718 C   0  0  0  0  0  0  0  0  0  0  0  0
    3.1365    3.0935    1.3044 C   0  0  0  0  0  0  0  0  0  0  0  0
    3.4555    4.3647   -1.5371 C   0  0  0  0  0  0  0  0  0  0  0  0
   -2.6174    4.0857    1.8576 C   0  0  0  0  0  0  0  0  0  0  0  0
   -4.2145    3.5297   -0.7517 C   0  0  0  0  0  0  0  0  0  0  0  0
    2.8941   -1.5545   -1.5021 C   0  0  0  0  0  0  0  0  0  0  0  0
    2.8471   -1.4208   -2.9037 C   0  0  0  0  0  0  0  0  0  0  0  0
    3.0299   -2.5360   -3.7336 C   0  0  0  0  0  0  0  0  0  0  0  0
    3.2534   -3.8022   -3.1712 C   0  0  0  0  0  0  0  0  0  0  0  0
    3.2904   -3.9457   -1.7756 C   0  0  0  0  0  0  0  0  0  0  0  0
    3.1103   -2.8313   -0.9436 C   0  0  0  0  0  0  0  0  0  0  0  0
    3.6168   -0.5101    1.0561 C   0  0  0  0  0  0  0  0  0  0  0  0
    3.0452   -0.6595    2.3328 C   0  0  0  0  0  0  0  0  0  0  0  0
    3.8580   -0.9902    3.4301 C   0  0  0  0  0  0  0  0  0  0  0  0
    5.2371   -1.1795    3.2630 C   0  0  0  0  0  0  0  0  0  0  0  0
    5.8100   -1.0440    1.9866 C   0  0  0  0  0  0  0  0  0  0  0  0
    5.0043   -0.7148    0.8887 C   0  0  0  0  0  0  0  0  0  0  0  0
   -2.8453   -1.5816    1.7101 C   0  0  0  0  0  0  0  0  0  0  0  0
   -2.0542   -1.6929    2.8729 C   0  0  0  0  0  0  0  0  0  0  0  0
   -2.3479   -2.6773    3.8267 C   0  0  0  0  0  0  0  0  0  0  0  0
   -3.4219   -3.5607    3.6317 C   0  0  0  0  0  0  0  0  0  0  0  0
   -4.2097   -3.4521    2.4760 C   0  0  0  0  0  0  0  0  0  0  0  0
   -3.9254   -2.4664    1.5177 C   0  0  0  0  0  0  0  0  0  0  0  0
   -3.4803   -0.7225   -0.9548 C   0  0  0  0  0  0  0  0  0  0  0  0
   -3.0536   -1.8789   -1.6461 C   0  0  0  0  0  0  0  0  0  0  0  0
   -3.7229   -2.2999   -2.8013 C   0  0  0  0  0  0  0  0  0  0  0  0
   -4.8226   -1.5722   -3.2885 C   0  0  0  0  0  0  0  0  0  0  0  0
   -5.2591   -0.4301   -2.6019 C   0  0  0  0  0  0  0  0  0  0  0  0
   -4.5962   -0.0107   -1.4356 C   0  0  0  0  0  0  0  0  0  0  0  0
    0.0977    3.4097    1.0518 H   0  0  0  0  0  0  0  0  0  0  0  0
   -1.8349    1.5237   -2.4040 H   0  0  0  0  0  0  0  0  0  0  0  0
    0.8484    1.6509   -2.8870 H   0  0  0  0  0  0  0  0  0  0  0  0
    4.6301    1.1255   -1.0851 H   0  0  0  0  0  0  0  0  0  0  0  0
    3.3281    1.2417   -2.3061 H   0  0  0  0  0  0  0  0  0  0  0  0
   -4.5421    0.9697    1.3382 H   0  0  0  0  0  0  0  0  0  0  0  0
   -3.0578    1.2259    2.3078 H   0  0  0  0  0  0  0  0  0  0  0  0
    2.8169    4.0981    1.6497 H   0  0  0  0  0  0  0  0  0  0  0  0
    2.5636    2.3347    1.8768 H   0  0  0  0  0  0  0  0  0  0  0  0
    4.2133    2.9767    1.5421 H   0  0  0  0  0  0  0  0  0  0  0  0
    3.2471    4.2377   -2.6188 H   0  0  0  0  0  0  0  0  0  0  0  0
    2.9629    5.3001   -1.2016 H   0  0  0  0  0  0  0  0  0  0  0  0
    4.5503    4.4923   -1.4096 H   0  0  0  0  0  0  0  0  0  0  0  0
   -2.2275    5.0454    1.4620 H   0  0  0  0  0  0  0  0  0  0  0  0
   -3.5454    4.3005    2.4262 H   0  0  0  0  0  0  0  0  0  0  0  0
   -1.8721    3.6640    2.5628 H   0  0  0  0  0  0  0  0  0  0  0  0
   -4.2808    2.9103   -1.6678 H   0  0  0  0  0  0  0  0  0  0  0  0
   -5.2261    3.5931   -0.3007 H   0  0  0  0  0  0  0  0  0  0  0  0
   -3.9149    4.5530   -1.0583 H   0  0  0  0  0  0  0  0  0  0  0  0
    2.6531   -0.4398   -3.3635 H   0  0  0  0  0  0  0  0  0  0  0  0
    2.9905   -2.4137   -4.8266 H   0  0  0  0  0  0  0  0  0  0  0  0
    3.3951   -4.6786   -3.8219 H   0  0  0  0  0  0  0  0  0  0  0  0
    3.4586   -4.9362   -1.3261 H   0  0  0  0  0  0  0  0  0  0  0  0
    3.1366   -2.9512    0.1485 H   0  0  0  0  0  0  0  0  0  0  0  0
    1.9660   -0.4968    2.4688 H   0  0  0  0  0  0  0  0  0  0  0  0
    3.4008   -1.0973    4.4256 H   0  0  0  0  0  0  0  0  0  0  0  0
    5.8699   -1.4383    4.1259 H   0  0  0  0  0  0  0  0  0  0  0  0
    6.8901   -1.2023    1.8442 H   0  0  0  0  0  0  0  0  0  0  0  0
    5.4593   -0.6385   -0.1115 H   0  0  0  0  0  0  0  0  0  0  0  0
   -1.2065   -1.0055    3.0180 H   0  0  0  0  0  0  0  0  0  0  0  0
   -1.7221   -2.7589    4.7287 H   0  0  0  0  0  0  0  0  0  0  0  0
   -3.6441   -4.3365    4.3805 H   0  0  0  0  0  0  0  0  0  0  0  0
   -5.0541   -4.1397    2.3139 H   0  0  0  0  0  0  0  0  0  0  0  0
   -4.5493   -2.3907    0.6152 H   0  0  0  0  0  0  0  0  0  0  0  0
   -2.1915   -2.4493   -1.2674 H   0  0  0  0  0  0  0  0  0  0  0  0
   -3.3766   -3.2005   -3.3303 H   0  0  0  0  0  0  0  0  0  0  0  0
   -5.3420   -1.9003   -4.2016 H   0  0  0  0  0  0  0  0  0  0  0  0
   -6.1272    0.1389   -2.9686 H   0  0  0  0  0  0  0  0  0  0  0  0
   -4.9646    0.8726   -0.8968 H   0  0  0  0  0  0  0  0  0  0  0  0
  1 22  1  0  0  0  0
  2 11  1  0  0  0  0
  2 28  1  0  0  0  0
  3 12  1  0  0  0  0
  4 11  1  0  0  0  0
  4 14  1  0  0  0  0
  5  3  1  0  0  0  0
  5  6  1  0  0  0  0
  6 40  1  0  0  0  0
  7  6  2  0  0  0  0
  7  4  1  0  0  0  0
  8  7  1  0  0  0  0
  9  8  1  0  0  0  0
  9  5  2  0  0  0  0
 10 43  1  0  0  0  0
 10  3  1  0  0  0  0
 10  1  1  0  0  0  0
 11 45  1  0  0  0  0
 11 46  1  0  0  0  0
 12 49  1  0  0  0  0
 12 47  1  0  0  0  0
 12 48  1  0  0  0  0
 13 52  1  0  0  0  0
 13 51  1  0  0  0  0
 13  3  1  0  0  0  0
 14 54  1  0  0  0  0
 14 55  1  0  0  0  0
 15 57  1  0  0  0  0
 15  4  1  0  0  0  0
 16 21  1  0  0  0  0
 16  1  1  0  0  0  0
 17 16  2  0  0  0  0
 18 19  2  0  0  0  0
 18 17  1  0  0  0  0
 19 20  1  0  0  0  0
 20 62  1  0  0  0  0
 20 21  2  0  0  0  0
 21 63  1  0  0  0  0
 22 23  1  0  0  0  0
 23 64  1  0  0  0  0
 23 24  2  0  0  0  0
 24 65  1  0  0  0  0
 25 24  1  0  0  0  0
 25 66  1  0  0  0  0
 26 25  2  0  0  0  0
 27 22  2  0  0  0  0
 27 26  1  0  0  0  0
 28 29  1  0  0  0  0
 29 69  1  0  0  0  0
 29 30  2  0  0  0  0
 30 70  1  0  0  0  0
 31 30  1  0  0  0  0
 31 71  1  0  0  0  0
 32 31  2  0  0  0  0
 33 28  2  0  0  0  0
 33 32  1  0  0  0  0
 34  2  1  0  0  0  0
 35 74  1  0  0  0  0
 35 34  2  0  0  0  0
 36 35  1  0  0  0  0
 37 36  2  0  0  0  0
 37 38  1  0  0  0  0
 38 39  2  0  0  0  0
 39 34  1  0  0  0  0
 39 78  1  0  0  0  0
 41  8  1  0  0  0  0
 42  9  1  0  0  0  0
 44 10  1  0  0  0  0
 50 13  1  0  0  0  0
 53 14  1  0  0  0  0
 56 15  1  0  0  0  0
 58 15  1  0  0  0  0
 59 17  1  0  0  0  0
 60 18  1  0  0  0  0
 61 19  1  0  0  0  0
 67 26  1  0  0  0  0
 68 27  1  0  0  0  0
 72 32  1  0  0  0  0
 73 33  1  0  0  0  0
 75 36  1  0  0  0  0
 76 37  1  0  0  0  0
 77 38  1  0  0  0  0
M  END
