1
q = -1.0

 33 35  0  0  0  0  0  0  0  0999 V2000
   -1.5853    0.4740   -0.2177 C   0  0  0  0  0  2  0  0  0  0  0  0
   -0.3956    1.0810   -0.6009 C   0  0  0  0  0  0  0  0  0  0  0  0
   -0.3976    2.5405   -0.9926 C   0  0  0  0  0  0  0  0  0  0  0  0
   -0.6756    2.6672   -2.0680 H   0  0  0  0  0  0  0  0  0  0  0  0
    0.6083    2.9769   -0.8500 H   0  0  0  0  0  0  0  0  0  0  0  0
   -1.3025    3.3042   -0.1881 O   0  0  0  0  0  0  0  0  0  0  0  0
   -2.5432    2.7733   -0.0923 C   0  0  0  0  0  0  0  0  0  0  0  0
   -3.6111    3.6589    0.1405 C   0  0  0  0  0  0  0  0  0  0  0  0
   -3.3823    4.7299    0.2373 H   0  0  0  0  0  0  0  0  0  0  0  0
   -4.9210    3.1741    0.2056 C   0  0  0  0  0  0  0  0  0  0  0  0
   -5.7535    3.8759    0.3662 H   0  0  0  0  0  0  0  0  0  0  0  0
   -5.1738    1.7990    0.0440 C   0  0  0  0  0  0  0  0  0  0  0  0
   -6.2045    1.4166    0.0685 H   0  0  0  0  0  0  0  0  0  0  0  0
   -4.1051    0.9163   -0.1268 C   0  0  0  0  0  0  0  0  0  0  0  0
   -4.3038   -0.1587   -0.2243 H   0  0  0  0  0  0  0  0  0  0  0  0
   -2.7588    1.3574   -0.1739 C   0  0  0  0  0  0  0  0  0  0  0  0
    0.8367    0.3605   -0.7402 C   0  0  0  0  0  0  0  0  0  0  0  0
    0.8066   -0.7175   -0.5023 H   0  0  0  0  0  0  0  0  0  0  0  0
    1.9550    0.8894   -1.1598 N   0  0  0  0  0  2  0  0  0  0  0  0
    3.2184   -0.2808   -1.3016 S   0  0  0  0  0  0  0  0  0  0  0  0
    2.7186   -1.6512   -0.9759 O   0  0  0  0  0  0  0  0  0  0  0  0
    3.8935   -0.0219   -2.5869 O   0  0  0  0  0  0  0  0  0  0  0  0
    4.2954    0.2344    0.0421 C   0  0  0  0  0  0  0  0  0  0  0  0
    4.0183   -0.1939    1.3498 C   0  0  0  0  0  0  0  0  0  0  0  0
    3.1540   -0.8449    1.5464 H   0  0  0  0  0  0  0  0  0  0  0  0
    4.8636    0.2274    2.3855 C   0  0  0  0  0  0  0  0  0  0  0  0
    4.6626   -0.0957    3.4180 H   0  0  0  0  0  0  0  0  0  0  0  0
    5.9653    1.0549    2.1067 C   0  0  0  0  0  0  0  0  0  0  0  0
    6.6256    1.3802    2.9249 H   0  0  0  0  0  0  0  0  0  0  0  0
    6.2294    1.4666    0.7902 C   0  0  0  0  0  0  0  0  0  0  0  0
    7.0959    2.1101    0.5757 H   0  0  0  0  0  0  0  0  0  0  0  0
    5.3900    1.0570   -0.2568 C   0  0  0  0  0  0  0  0  0  0  0  0
    5.5695    1.3535   -1.3003 H   0  0  0  0  0  0  0  0  0  0  0  0
  1 16  1  0  0  0  0
  2  1  1  0  0  0  0
  3  5  1  0  0  0  0
  3  2  1  0  0  0  0
  3  6  1  0  0  0  0
  4  3  1  0  0  0  0
  6  7  1  0  0  0  0
  7  8  1  0  0  0  0
  8 10  2  0  0  0  0
  8  9  1  0  0  0  0
 10 11  1  0  0  0  0
 12 13  1  0  0  0  0
 12 10  1  0  0  0  0
 14 12  2  0  0  0  0
 15 14  1  0  0  0  0
 16 14  1  0  0  0  0
 16  7  2  0  0  0  0
 17  2  2  0  0  0  0
 17 18  1  0  0  0  0
 19 17  1  0  0  0  0
 20 19  1  0  0  0  0
 20 21  2  0  0  0  0
 20 23  1  0  0  0  0
 22 20  2  0  0  0  0
 23 24  1  0  0  0  0
 24 25  1  0  0  0  0
 24 26  2  0  0  0  0
 26 27  1  0  0  0  0
 28 26  1  0  0  0  0
 28 29  1  0  0  0  0
 30 28  2  0  0  0  0
 31 30  1  0  0  0  0
 32 23  2  0  0  0  0
 32 30  1  0  0  0  0
 33 32  1  0  0  0  0
M  END
