1
q = -1.0

 28 29  0  0  0  0  0  0  0  0999 V2000
   -1.8451    1.2311    0.3295 C   0  0  0  0  0  2  0  0  0  0  0  0
   -0.5756    1.6862    0.0354 C   0  0  0  0  0  0  0  0  0  0  0  0
   -0.4398    3.1822    0.2436 C   0  0  0  0  0  0  0  0  0  0  0  0
    0.1481    3.6659   -0.5623 H   0  0  0  0  0  0  0  0  0  0  0  0
    0.1112    3.3799    1.1908 H   0  0  0  0  0  0  0  0  0  0  0  0
   -1.9076    3.6548    0.3195 C   0  0  0  0  0  0  0  0  0  0  0  0
   -2.2518    3.9523   -0.6933 H   0  0  0  0  0  0  0  0  0  0  0  0
   -2.0574    4.5280    0.9846 H   0  0  0  0  0  0  0  0  0  0  0  0
   -2.6961    2.4038    0.7720 C   0  0  0  0  0  0  0  0  0  0  0  0
   -2.8070    2.3614    1.8818 H   0  0  0  0  0  0  0  0  0  0  0  0
   -3.7313    2.3591    0.3725 H   0  0  0  0  0  0  0  0  0  0  0  0
    0.4760    0.8357   -0.4404 C   0  0  0  0  0  0  0  0  0  0  0  0
    0.2213   -0.2371   -0.5484 H   0  0  0  0  0  0  0  0  0  0  0  0
    1.6693    1.2443   -0.7715 N   0  0  0  0  0  2  0  0  0  0  0  0
    2.6396   -0.0399   -1.4082 S   0  0  0  0  0  0  0  0  0  0  0  0
    3.8184   -0.2554   -0.0666 C   0  0  0  0  0  0  0  0  0  0  0  0
    3.4800   -1.0736    1.0224 C   0  0  0  0  0  0  0  0  0  0  0  0
    2.5058   -1.5837    1.0455 H   0  0  0  0  0  0  0  0  0  0  0  0
    4.4065   -1.2205    2.0640 C   0  0  0  0  0  0  0  0  0  0  0  0
    4.1600   -1.8570    2.9272 H   0  0  0  0  0  0  0  0  0  0  0  0
    5.6472   -0.5622    2.0044 C   0  0  0  0  0  0  0  0  0  0  0  0
    6.3706   -0.6836    2.8249 H   0  0  0  0  0  0  0  0  0  0  0  0
    5.9697    0.2468    0.9024 C   0  0  0  0  0  0  0  0  0  0  0  0
    6.9443    0.7559    0.8572 H   0  0  0  0  0  0  0  0  0  0  0  0
    5.0512    0.4064   -0.1460 C   0  0  0  0  0  0  0  0  0  0  0  0
    5.2720    1.0248   -1.0280 H   0  0  0  0  0  0  0  0  0  0  0  0
    1.8548   -1.3063   -1.5215 O   0  0  0  0  0  0  0  0  0  0  0  0
    3.3442    0.5072   -2.5830 O   0  0  0  0  0  0  0  0  0  0  0  0
  1  9  1  0  0  0  0
  2  3  1  0  0  0  0
  2  1  1  0  0  0  0
  3  6  1  0  0  0  0
  3  5  1  0  0  0  0
  4  3  1  0  0  0  0
  6  9  1  0  0  0  0
  6  8  1  0  0  0  0
  7  6  1  0  0  0  0
  9 10  1  0  0  0  0
 11  9  1  0  0  0  0
 12  2  2  0  0  0  0
 13 12  1  0  0  0  0
 14 12  1  0  0  0  0
 15 14  1  0  0  0  0
 15 16  1  0  0  0  0
 16 17  1  0  0  0  0
 17 18  1  0  0  0  0
 17 19  2  0  0  0  0
 19 20  1  0  0  0  0
 21 19  1  0  0  0  0
 21 22  1  0  0  0  0
 23 21  2  0  0  0  0
 24 23  1  0  0  0  0
 25 16  2  0  0  0  0
 25 23  1  0  0  0  0
 26 25  1  0  0  0  0
 27 15  2  0  0  0  0
 28 15  2  0  0  0  0
M  END
