3
q = 0.0, confidence = 0.982

 74 77  0  0  0  0  0  0  0  0999 V2000
   -0.4737    0.9536    0.2968 N   0  0  0  0  0  0  0  0  0  0  0  0
    1.5640    0.5186    0.1424 N   0  0  0  0  0  0  0  0  0  0  0  0
   -0.4700   -0.3315   -0.2135 C   0  0  0  0  0  3  0  0  0  0  0  0
   -1.6441    1.7418    0.5980 C   0  0  0  0  0  0  0  0  0  0  0  0
   -2.0915    2.6691   -0.3681 C   0  0  0  0  0  0  0  0  0  0  0  0
   -1.4215    2.7939   -1.7300 C   0  0  0  0  0  0  0  0  0  0  0  0
   -0.3990    2.3731   -1.6412 H   0  0  0  0  0  0  0  0  0  0  0  0
   -1.2660    4.2503   -2.1895 C   0  0  0  0  0  0  0  0  0  0  0  0
   -2.2473    4.7304   -2.3822 H   0  0  0  0  0  0  0  0  0  0  0  0
   -0.6950    4.2921   -3.1393 H   0  0  0  0  0  0  0  0  0  0  0  0
   -0.7287    4.8610   -1.4366 H   0  0  0  0  0  0  0  0  0  0  0  0
   -2.1838    1.9462   -2.7664 C   0  0  0  0  0  0  0  0  0  0  0  0
   -2.2615    0.8880   -2.4425 H   0  0  0  0  0  0  0  0  0  0  0  0
   -1.6709    1.9747   -3.7497 H   0  0  0  0  0  0  0  0  0  0  0  0
   -3.2152    2.3308   -2.9048 H   0  0  0  0  0  0  0  0  0  0  0  0
   -3.2414    3.4148   -0.0479 C   0  0  0  0  0  0  0  0  0  0  0  0
   -3.6306    4.1438   -0.7734 H   0  0  0  0  0  0  0  0  0  0  0  0
   -3.9025    3.2304    1.1722 C   0  0  0  0  0  0  0  0  0  0  0  0
   -4.8028    3.8210    1.3998 H   0  0  0  0  0  0  0  0  0  0  0  0
   -3.4347    2.2916    2.1014 C   0  0  0  0  0  0  0  0  0  0  0  0
   -3.9726    2.1500    3.0493 H   0  0  0  0  0  0  0  0  0  0  0  0
   -2.2904    1.5193    1.8355 C   0  0  0  0  0  0  0  0  0  0  0  0
   -1.7420    0.5154    2.8411 C   0  0  0  0  0  0  0  0  0  0  0  0
   -1.2231   -0.2750    2.2591 H   0  0  0  0  0  0  0  0  0  0  0  0
   -0.7015    1.1911    3.7553 C   0  0  0  0  0  0  0  0  0  0  0  0
    0.1099    1.6628    3.1657 H   0  0  0  0  0  0  0  0  0  0  0  0
   -0.2447    0.4512    4.4444 H   0  0  0  0  0  0  0  0  0  0  0  0
   -1.1757    1.9841    4.3701 H   0  0  0  0  0  0  0  0  0  0  0  0
   -2.8381   -0.1904    3.6480 C   0  0  0  0  0  0  0  0  0  0  0  0
   -3.3662    0.5042    4.3335 H   0  0  0  0  0  0  0  0  0  0  0  0
   -2.3922   -0.9880    4.2755 H   0  0  0  0  0  0  0  0  0  0  0  0
   -3.5869   -0.6593    2.9793 H   0  0  0  0  0  0  0  0  0  0  0  0
    0.7308    1.4777    0.5250 N   0  0  0  0  0  2  0  0  0  0  0  0
    2.9786    0.7433    0.3043 C   0  0  0  0  0  0  0  0  0  0  0  0
    3.6324    0.1331    1.3972 C   0  0  0  0  0  0  0  0  0  0  0  0
    2.9002   -0.7251    2.4205 C   0  0  0  0  0  0  0  0  0  0  0  0
    1.8274   -0.7529    2.1419 H   0  0  0  0  0  0  0  0  0  0  0  0
    2.9855   -0.1014    3.8245 C   0  0  0  0  0  0  0  0  0  0  0  0
    4.0316   -0.0705    4.1927 H   0  0  0  0  0  0  0  0  0  0  0  0
    2.3940   -0.6988    4.5476 H   0  0  0  0  0  0  0  0  0  0  0  0
    2.5913    0.9339    3.8316 H   0  0  0  0  0  0  0  0  0  0  0  0
    3.4157   -2.1750    2.4088 C   0  0  0  0  0  0  0  0  0  0  0  0
    3.3316   -2.6277    1.4017 H   0  0  0  0  0  0  0  0  0  0  0  0
    2.8295   -2.7970    3.1150 H   0  0  0  0  0  0  0  0  0  0  0  0
    4.4793   -2.2261    2.7207 H   0  0  0  0  0  0  0  0  0  0  0  0
    5.0177    0.3583    1.5140 C   0  0  0  0  0  0  0  0  0  0  0  0
    5.5673   -0.1002    2.3497 H   0  0  0  0  0  0  0  0  0  0  0  0
    5.7010    1.1568    0.5899 C   0  0  0  0  0  0  0  0  0  0  0  0
    6.7835    1.3199    0.7032 H   0  0  0  0  0  0  0  0  0  0  0  0
    5.0166    1.7510   -0.4796 C   0  0  0  0  0  0  0  0  0  0  0  0
    5.5670    2.3753   -1.1981 H   0  0  0  0  0  0  0  0  0  0  0  0
    3.6352    1.5537   -0.6524 C   0  0  0  0  0  0  0  0  0  0  0  0
    2.8757    2.2016   -1.8032 C   0  0  0  0  0  0  0  0  0  0  0  0
    1.9366    1.6258   -1.9480 H   0  0  0  0  0  0  0  0  0  0  0  0
    3.6433    2.1476   -3.1318 C   0  0  0  0  0  0  0  0  0  0  0  0
    4.5556    2.7781   -3.1105 H   0  0  0  0  0  0  0  0  0  0  0  0
    3.0055    2.5273   -3.9548 H   0  0  0  0  0  0  0  0  0  0  0  0
    3.9496    1.1130   -3.3871 H   0  0  0  0  0  0  0  0  0  0  0  0
    2.4782    3.6445   -1.4378 C   0  0  0  0  0  0  0  0  0  0  0  0
    1.8660    3.6661   -0.5154 H   0  0  0  0  0  0  0  0  0  0  0  0
    1.8892    4.1057   -2.2563 H   0  0  0  0  0  0  0  0  0  0  0  0
    3.3802    4.2682   -1.2693 H   0  0  0  0  0  0  0  0  0  0  0  0
    0.9119   -0.6125   -0.3183 C   0  0  0  0  0  0  0  0  0  0  0  0
    1.5851   -1.8428   -0.7511 C   0  0  0  0  0  0  0  0  0  0  0  0
    2.8365   -1.8347   -1.4105 C   0  0  0  0  0  0  0  0  0  0  0  0
    3.3311   -0.8841   -1.6486 H   0  0  0  0  0  0  0  0  0  0  0  0
    3.4514   -3.0390   -1.7766 C   0  0  0  0  0  0  0  0  0  0  0  0
    4.4240   -3.0155   -2.2905 H   0  0  0  0  0  0  0  0  0  0  0  0
    2.8293   -4.2668   -1.4993 C   0  0  0  0  0  0  0  0  0  0  0  0
    3.3161   -5.2105   -1.7882 H   0  0  0  0  0  0  0  0  0  0  0  0
    1.5784   -4.2834   -0.8613 C   0  0  0  0  0  0  0  0  0  0  0  0
    1.0773   -5.2393   -0.6480 H   0  0  0  0  0  0  0  0  0  0  0  0
    0.9591   -3.0845   -0.4894 C   0  0  0  0  0  0  0  0  0  0  0  0
   -0.0225   -3.0944    0.0086 H   0  0  0  0  0  0  0  0  0  0  0  0
  1 33  1  0  0  0  0
  1  4  1  0  0  0  0
  2 34  1  0  0  0  0
  2 33  1  0  0  0  0
  3  1  1  0  0  0  0
  4 22  1  0  0  0  0
  5 16  1  0  0  0  0
  5  4  2  0  0  0  0
  6  7  1  0  0  0  0
  6  5  1  0  0  0  0
  8  6  1  0  0  0  0
  8 11  1  0  0  0  0
  9  8  1  0  0  0  0
 10  8  1  0  0  0  0
 12 13  1  0  0  0  0
 12  6  1  0  0  0  0
 14 12  1  0  0  0  0
 15 12  1  0  0  0  0
 16 18  2  0  0  0  0
 17 16  1  0  0  0  0
 18 19  1  0  0  0  0
 18 20  1  0  0  0  0
 20 21  1  0  0  0  0
 22 20  2  0  0  0  0
 22 23  1  0  0  0  0
 23 29  1  0  0  0  0
 23 25  1  0  0  0  0
 24 23  1  0  0  0  0
 25 28  1  0  0  0  0
 25 27  1  0  0  0  0
 26 25  1  0  0  0  0
 29 31  1  0  0  0  0
 29 30  1  0  0  0  0
 32 29  1  0  0  0  0
 34 35  1  0  0  0  0
 35 46  2  0  0  0  0
 35 36  1  0  0  0  0
 36 38  1  0  0  0  0
 37 36  1  0  0  0  0
 38 41  1  0  0  0  0
 38 39  1  0  0  0  0
 38 40  1  0  0  0  0
 42 36  1  0  0  0  0
 42 45  1  0  0  0  0
 42 44  1  0  0  0  0
 43 42  1  0  0  0  0
 46 47  1  0  0  0  0
 48 49  1  0  0  0  0
 48 46  1  0  0  0  0
 50 48  2  0  0  0  0
 51 50  1  0  0  0  0
 52 50  1  0  0  0  0
 52 34  2  0  0  0  0
 53 59  1  0  0  0  0
 53 52  1  0  0  0  0
 54 53  1  0  0  0  0
 55 56  1  0  0  0  0
 55 53  1  0  0  0  0
 57 55  1  0  0  0  0
 58 55  1  0  0  0  0
 59 62  1  0  0  0  0
 59 60  1  0  0  0  0
 61 59  1  0  0  0  0
 63  3  2  0  0  0  0
 63  2  1  0  0  0  0
 64 73  1  0  0  0  0
 64 63  1  0  0  0  0
 65 64  2  0  0  0  0
 66 65  1  0  0  0  0
 67 69  2  0  0  0  0
 67 65  1  0  0  0  0
 68 67  1  0  0  0  0
 69 71  1  0  0  0  0
 70 69  1  0  0  0  0
 71 72  1  0  0  0  0
 71 73  2  0  0  0  0
 73 74  1  0  0  0  0
M  END
