19
q = 0.0, confidence = 0.996

 49 51  0  0  1  0  0  0  0  0999 V2000
   -3.2700   -0.2753   -1.3503 C   0  0  0  0  0  0  0  0  0  0  0  0
   -2.8429   -0.9161   -0.1610 C   0  0  0  0  0  0  0  0  0  0  0  0
   -1.3788   -0.8678    0.2184 C   0  0  0  0  0  0  0  0  0  0  0  0
   -1.1117   -1.6523    0.9535 H   0  0  0  0  0  0  0  0  0  0  0  0
   -0.7324   -1.0532   -0.6626 H   0  0  0  0  0  0  0  0  0  0  0  0
   -0.9900    0.4402    0.7535 N   0  0  0  0  0  0  0  0  0  0  0  0
   -3.7832   -1.5733    0.6716 C   0  0  0  0  0  0  0  0  0  0  0  0
   -5.5801   -0.9983   -0.9145 C   0  0  0  0  0  0  0  0  0  0  0  0
   -2.2984    0.4742   -2.2321 C   0  0  0  0  0  0  0  0  0  0  0  0
   -2.2633    0.0419   -3.2547 H   0  0  0  0  0  0  0  0  0  0  0  0
   -1.2622    0.5020   -1.8527 H   0  0  0  0  0  0  0  0  0  0  0  0
   -2.6167    1.5302   -2.3658 H   0  0  0  0  0  0  0  0  0  0  0  0
   -5.1446   -1.6305    0.2794 C   0  0  0  0  0  0  0  0  0  0  0  0
   -4.6379   -0.3207   -1.7319 C   0  0  0  0  0  0  0  0  0  0  0  0
   -5.0204    0.3653   -3.0231 C   0  0  0  0  0  0  0  0  0  0  0  0
   -6.0845    0.2499   -3.2884 H   0  0  0  0  0  0  0  0  0  0  0  0
   -4.4267   -0.0280   -3.8746 H   0  0  0  0  0  0  0  0  0  0  0  0
   -4.8056    1.4544   -2.9825 H   0  0  0  0  0  0  0  0  0  0  0  0
    0.2848    0.8527    0.8630 C   0  0  0  0  0  2  0  0  0  0  0  0
   -3.3944   -2.2117    1.9865 C   0  0  0  0  0  0  0  0  0  0  0  0
   -4.0426   -1.8484    2.8109 H   0  0  0  0  0  0  0  0  0  0  0  0
   -2.3498   -2.0153    2.2833 H   0  0  0  0  0  0  0  0  0  0  0  0
   -3.5252   -3.3150    1.9599 H   0  0  0  0  0  0  0  0  0  0  0  0
   -7.0502   -1.0593   -1.2724 C   0  0  0  0  0  0  0  0  0  0  0  0
   -7.3049   -0.4506   -2.1560 H   0  0  0  0  0  0  0  0  0  0  0  0
   -7.6851   -0.6964   -0.4385 H   0  0  0  0  0  0  0  0  0  0  0  0
   -7.3755   -2.0987   -1.4905 H   0  0  0  0  0  0  0  0  0  0  0  0
   -6.1162   -2.3737    1.1676 C   0  0  0  0  0  0  0  0  0  0  0  0
   -6.2455   -1.8653    2.1481 H   0  0  0  0  0  0  0  0  0  0  0  0
   -5.7498   -3.3948    1.4007 H   0  0  0  0  0  0  0  0  0  0  0  0
   -7.1184   -2.4792    0.7194 H   0  0  0  0  0  0  0  0  0  0  0  0
    0.3280    2.0111    1.5496 N   0  0  2  0  0  0  0  0  0  0  0  0
   -1.0322    2.5543    1.7513 C   0  0  2  0  0  0  0  0  0  0  0  0
   -1.1268    2.9260    2.7944 H   0  0  0  0  0  0  0  0  0  0  0  0
   -1.9018    1.3060    1.5119 C   0  0  0  0  0  0  0  0  0  0  0  0
   -2.1998    0.8114    2.4634 H   0  0  0  0  0  0  0  0  0  0  0  0
   -2.8209    1.5244    0.9335 H   0  0  0  0  0  0  0  0  0  0  0  0
   -1.2580    3.7107    0.7660 C   0  0  0  0  0  0  0  0  0  0  0  0
   -2.2553    4.1633    0.9494 H   0  0  0  0  0  0  0  0  0  0  0  0
   -1.2652    3.2921   -0.2644 H   0  0  0  0  0  0  0  0  0  0  0  0
    1.4604    2.9222    1.6155 C   0  0  0  0  0  0  0  0  0  0  0  0
    1.5727    3.2602    2.6701 H   0  0  0  0  0  0  0  0  0  0  0  0
    2.3658    2.3457    1.3416 H   0  0  0  0  0  0  0  0  0  0  0  0
   -0.1391    4.7542    0.8976 C   0  0  0  0  0  0  0  0  0  0  0  0
   -0.1864    5.2143    1.9114 H   0  0  0  0  0  0  0  0  0  0  0  0
   -0.3003    5.5794    0.1740 H   0  0  0  0  0  0  0  0  0  0  0  0
    1.2421    4.1183    0.6793 C   0  0  0  0  0  0  0  0  0  0  0  0
    1.3282    3.7501   -0.3655 H   0  0  0  0  0  0  0  0  0  0  0  0
    2.0486    4.8636    0.8392 H   0  0  0  0  0  0  0  0  0  0  0  0
  1  2  1  0  0  0  0
  2  3  1  0  0  0  0
  2  7  2  0  0  0  0
  3  6  1  0  0  0  0
  3  4  1  0  0  0  0
  5  3  1  0  0  0  0
  6 19  1  0  0  0  0
  6 35  1  0  0  0  0
  7 20  1  0  0  0  0
  8 13  2  0  0  0  0
  9 11  1  0  0  0  0
  9  1  1  0  0  0  0
 10  9  1  0  0  0  0
 12  9  1  0  0  0  0
 13  7  1  0  0  0  0
 13 28  1  0  0  0  0
 14  1  2  0  0  0  0
 14  8  1  0  0  0  0
 15 18  1  0  0  0  0
 15 14  1  0  0  0  0
 16 15  1  0  0  0  0
 17 15  1  0  0  0  0
 20 22  1  0  0  0  0
 20 21  1  0  0  0  0
 23 20  1  0  0  0  0
 24  8  1  0  0  0  0
 24 26  1  0  0  0  0
 25 24  1  0  0  0  0
 27 24  1  0  0  0  0
 28 30  1  0  0  0  0
 28 29  1  0  0  0  0
 31 28  1  0  0  0  0
 32 19  1  6  0  0  0
 32 41  1  0  0  0  0
 32 33  1  0  0  0  0
 33 34  1  1  0  0  0
 35 33  1  0  0  0  0
 35 36  1  0  0  0  0
 37 35  1  0  0  0  0
 38 44  1  0  0  0  0
 38 39  1  0  0  0  0
 38 33  1  0  0  0  0
 40 38  1  0  0  0  0
 41 42  1  0  0  0  0
 43 41  1  0  0  0  0
 44 45  1  0  0  0  0
 46 44  1  0  0  0  0
 47 49  1  0  0  0  0
 47 44  1  0  0  0  0
 47 41  1  0  0  0  0
 48 47  1  0  0  0  0
M  END
