1
q = -1.0

 75 79  0  0  1  0  0  0  0  0999 V2000
    1.3056    0.8205    2.4385 C   0  0  2  0  0  3  0  0  0  0  0  0
   -0.2568   -0.6824    3.3336 C   0  0  0  0  0  0  0  0  0  0  0  0
   -0.9664    0.5020    2.9452 C   0  0  0  0  0  0  0  0  0  0  0  0
   -0.0056    1.4360    2.3619 C   0  0  1  0  0  3  0  0  0  0  0  0
    1.1549   -0.5055    3.0031 C   0  0  2  0  0  3  0  0  0  0  0  0
    2.2179   -1.5090    3.3083 C   0  0  0  0  0  0  0  0  0  0  0  0
    2.3873   -1.5762    4.4035 H   0  0  0  0  0  0  0  0  0  0  0  0
    3.1785   -1.2562    2.8262 H   0  0  0  0  0  0  0  0  0  0  0  0
    1.9115   -2.5133    2.9538 H   0  0  0  0  0  0  0  0  0  0  0  0
   -0.8061   -1.9071    3.9813 C   0  0  0  0  0  0  0  0  0  0  0  0
   -0.3024   -2.0770    4.9552 H   0  0  0  0  0  0  0  0  0  0  0  0
   -0.6164   -2.7971    3.3458 H   0  0  0  0  0  0  0  0  0  0  0  0
   -1.8932   -1.8359    4.1582 H   0  0  0  0  0  0  0  0  0  0  0  0
   -2.4072    0.8042    3.1981 C   0  0  0  0  0  0  0  0  0  0  0  0
   -2.5060    1.3808    4.1424 H   0  0  0  0  0  0  0  0  0  0  0  0
   -3.0115   -0.1142    3.2935 H   0  0  0  0  0  0  0  0  0  0  0  0
   -2.8481    1.4215    2.3936 H   0  0  0  0  0  0  0  0  0  0  0  0
   -0.2699    2.8646    2.0145 C   0  0  0  0  0  0  0  0  0  0  0  0
   -0.0580    3.5095    2.8947 H   0  0  0  0  0  0  0  0  0  0  0  0
   -1.3274    3.0279    1.7384 H   0  0  0  0  0  0  0  0  0  0  0  0
    0.3714    3.2150    1.1844 H   0  0  0  0  0  0  0  0  0  0  0  0
    2.5992    1.5103    2.1398 C   0  0  0  0  0  0  0  0  0  0  0  0
    3.4314    0.8305    2.4134 H   0  0  0  0  0  0  0  0  0  0  0  0
    2.6765    2.3711    2.8339 H   0  0  0  0  0  0  0  0  0  0  0  0
    0.7137    0.0027   -2.2254 C   0  0  0  0  0  0  0  0  0  0  0  0
    0.7900    1.0709   -2.4833 H   0  0  0  0  0  0  0  0  0  0  0  0
    1.2549   -0.5658   -3.0006 H   0  0  0  0  0  0  0  0  0  0  0  0
   -0.7401   -0.4422   -2.1468 C   0  0  0  0  0  0  0  0  0  0  0  0
   -0.8066   -1.5488   -2.1877 H   0  0  0  0  0  0  0  0  0  0  0  0
   -1.3360   -0.0287   -2.9803 H   0  0  0  0  0  0  0  0  0  0  0  0
    1.6002   -0.1878   -0.5860 P   0  0  2  0  0  0  0  0  0  0  0  0
    2.6898    1.2934   -0.4646 C   0  0  0  0  0  0  0  0  0  0  0  0
    3.2984    1.7515   -1.6484 C   0  0  0  0  0  0  0  0  0  0  0  0
    3.2041    1.0457   -2.7867 F   0  0  0  0  0  0  0  0  0  0  0  0
    4.0154    2.9580   -1.7077 C   0  0  0  0  0  0  0  0  0  0  0  0
    4.5488    3.3713   -2.8501 F   0  0  0  0  0  0  0  0  0  0  0  0
    4.1625    3.7134   -0.5362 C   0  0  0  0  0  0  0  0  0  0  0  0
    4.8293    4.8577   -0.5561 F   0  0  0  0  0  0  0  0  0  0  0  0
    3.6107    3.2308    0.6647 C   0  0  0  0  0  0  0  0  0  0  0  0
    3.8288    3.9544    1.7719 F   0  0  0  0  0  0  0  0  0  0  0  0
    2.8965    2.0221    0.7397 C   0  0  0  0  0  0  0  0  0  0  0  0
    2.7436   -1.6158   -0.7749 C   0  0  0  0  0  0  0  0  0  0  0  0
    3.9130   -1.7049    0.0062 C   0  0  0  0  0  0  0  0  0  0  0  0
    4.2703   -0.6954    0.8235 F   0  0  0  0  0  0  0  0  0  0  0  0
    4.7471   -2.8309   -0.0070 C   0  0  0  0  0  0  0  0  0  0  0  0
    5.8393   -2.8673    0.7505 F   0  0  0  0  0  0  0  0  0  0  0  0
    4.4072   -3.9285   -0.8178 C   0  0  0  0  0  0  0  0  0  0  0  0
    5.1821   -5.0019   -0.8418 F   0  0  0  0  0  0  0  0  0  0  0  0
    3.2459   -3.8775   -1.6089 C   0  0  0  0  0  0  0  0  0  0  0  0
    2.9189   -4.9109   -2.3762 F   0  0  0  0  0  0  0  0  0  0  0  0
    2.4263   -2.7391   -1.5681 C   0  0  0  0  0  0  0  0  0  0  0  0
    1.3271   -2.7603   -2.3335 F   0  0  0  0  0  0  0  0  0  0  0  0
   -1.5644   -0.0705   -0.5129 P   0  0  0  0  0  0  0  0  0  0  0  0
   -2.3198    1.6171   -0.5956 C   0  0  0  0  0  0  0  0  0  0  0  0
   -1.5366    2.7197   -0.9897 C   0  0  0  0  0  0  0  0  0  0  0  0
   -0.2399    2.5448   -1.3120 F   0  0  0  0  0  0  0  0  0  0  0  0
   -2.0179    4.0349   -1.0171 C   0  0  0  0  0  0  0  0  0  0  0  0
   -1.2237    5.0342   -1.3881 F   0  0  0  0  0  0  0  0  0  0  0  0
   -3.3399    4.2886   -0.6093 C   0  0  0  0  0  0  0  0  0  0  0  0
   -3.8160    5.5234   -0.6204 F   0  0  0  0  0  0  0  0  0  0  0  0
   -4.1473    3.2216   -0.1774 C   0  0  0  0  0  0  0  0  0  0  0  0
   -5.3896    3.4516    0.2305 F   0  0  0  0  0  0  0  0  0  0  0  0
   -3.6315    1.9131   -0.1611 C   0  0  0  0  0  0  0  0  0  0  0  0
   -4.4472    0.9617    0.3101 F   0  0  0  0  0  0  0  0  0  0  0  0
   -3.0220   -1.1874   -0.5677 C   0  0  0  0  0  0  0  0  0  0  0  0
   -3.4177   -1.9764    0.5288 C   0  0  0  0  0  0  0  0  0  0  0  0
   -2.7937   -1.8918    1.7077 F   0  0  0  0  0  0  0  0  0  0  0  0
   -4.4941   -2.8730    0.4449 C   0  0  0  0  0  0  0  0  0  0  0  0
   -4.8283   -3.6173    1.4947 F   0  0  0  0  0  0  0  0  0  0  0  0
   -5.2459   -2.9480   -0.7406 C   0  0  0  0  0  0  0  0  0  0  0  0
   -6.2748   -3.7770   -0.8231 F   0  0  0  0  0  0  0  0  0  0  0  0
   -4.9027   -2.1404   -1.8407 C   0  0  0  0  0  0  0  0  0  0  0  0
   -5.6239   -2.1886   -2.9554 F   0  0  0  0  0  0  0  0  0  0  0  0
   -3.8202   -1.2564   -1.7288 C   0  0  0  0  0  0  0  0  0  0  0  0
   -3.5671   -0.4521   -2.7741 F   0  0  0  0  0  0  0  0  0  0  0  0
  1 22  1  1  0  0  0
  1  5  1  0  0  0  0
  2 10  1  0  0  0  0
  3 14  1  0  0  0  0
  3  2  2  0  0  0  0
  4 18  1  1  0  0  0
  4  1  1  0  0  0  0
  4  3  1  0  0  0  0
  5  6  1  1  0  0  0
  5  2  1  0  0  0  0
  6  7  1  0  0  0  0
  8  6  1  0  0  0  0
  9  6  1  0  0  0  0
 10 13  1  0  0  0  0
 10 11  1  0  0  0  0
 12 10  1  0  0  0  0
 14 16  1  0  0  0  0
 14 15  1  0  0  0  0
 17 14  1  0  0  0  0
 18 19  1  0  0  0  0
 20 18  1  0  0  0  0
 21 18  1  0  0  0  0
 22 23  1  0  0  0  0
 22 24  1  0  0  0  0
 25 28  1  0  0  0  0
 26 25  1  0  0  0  0
 27 25  1  0  0  0  0
 28 53  1  0  0  0  0
 29 28  1  0  0  0  0
 30 28  1  0  0  0  0
 31 25  1  6  0  0  0
 31 32  1  0  0  0  0
 32 41  1  0  0  0  0
 33 32  2  0  0  0  0
 34 33  1  0  0  0  0
 35 33  1  0  0  0  0
 35 37  2  0  0  0  0
 36 35  1  0  0  0  0
 37 39  1  0  0  0  0
 38 37  1  0  0  0  0
 39 41  2  0  0  0  0
 39 40  1  0  0  0  0
 41 22  1  0  0  0  0
 42 31  1  0  0  0  0
 42 43  1  0  0  0  0
 43 44  1  0  0  0  0
 45 43  2  0  0  0  0
 45 46  1  0  0  0  0
 47 45  1  0  0  0  0
 48 47  1  0  0  0  0
 49 51  1  0  0  0  0
 49 47  2  0  0  0  0
 50 49  1  0  0  0  0
 51 42  2  0  0  0  0
 52 51  1  0  0  0  0
 54 53  1  0  0  0  0
 54 63  1  0  0  0  0
 55 54  2  0  0  0  0
 56 55  1  0  0  0  0
 57 55  1  0  0  0  0
 57 59  2  0  0  0  0
 58 57  1  0  0  0  0
 59 61  1  0  0  0  0
 60 59  1  0  0  0  0
 61 63  2  0  0  0  0
 61 62  1  0  0  0  0
 63 64  1  0  0  0  0
 65 53  1  0  0  0  0
 65 66  1  0  0  0  0
 66 67  1  0  0  0  0
 68 66  2  0  0  0  0
 68 69  1  0  0  0  0
 70 68  1  0  0  0  0
 71 70  1  0  0  0  0
 72 74  1  0  0  0  0
 72 70  2  0  0  0  0
 73 72  1  0  0  0  0
 74 65  2  0  0  0  0
 75 74  1  0  0  0  0
M  END
