4
q = -1.0

 21 21  0  0  0  0  0  0  0  0999 V2000
    4.0525    1.2929    0.3948 O   0  0  0  0  0  0  0  0  0  0  0  0
    4.6290   -0.8592   -0.2033 N   0  0  0  0  0  0  0  0  0  0  0  0
    4.2256   -1.7283   -0.5559 H   0  0  0  0  0  0  0  0  0  0  0  0
    1.2916    0.3712    0.5950 C   0  0  0  0  0  3  0  0  0  0  0  0
    1.5763    1.4088    0.8572 H   0  0  0  0  0  0  0  0  0  0  0  0
    1.3014   -0.2369    1.5220 H   0  0  0  0  0  0  0  0  0  0  0  0
    2.2940   -0.1645   -0.4164 C   0  0  0  0  0  0  0  0  0  0  0  0
    2.1315    0.3070   -1.4111 H   0  0  0  0  0  0  0  0  0  0  0  0
    2.1795   -1.2579   -0.5721 H   0  0  0  0  0  0  0  0  0  0  0  0
    3.7320    0.1827   -0.0213 C   0  0  0  0  0  0  0  0  0  0  0  0
    6.0188   -0.8858    0.0002 C   0  0  0  0  0  0  0  0  0  0  0  0
    6.7482    0.2253    0.4822 C   0  0  0  0  0  0  0  0  0  0  0  0
    6.2068    1.1514    0.7071 H   0  0  0  0  0  0  0  0  0  0  0  0
    8.1344    0.1154    0.6589 C   0  0  0  0  0  0  0  0  0  0  0  0
    8.6916    0.9875    1.0348 H   0  0  0  0  0  0  0  0  0  0  0  0
    8.8161   -1.0767    0.3676 C   0  0  0  0  0  0  0  0  0  0  0  0
    9.9045   -1.1476    0.5117 H   0  0  0  0  0  0  0  0  0  0  0  0
    8.0896   -2.1791   -0.1106 C   0  0  0  0  0  0  0  0  0  0  0  0
    8.6040   -3.1235   -0.3456 H   0  0  0  0  0  0  0  0  0  0  0  0
    6.7052   -2.0869   -0.2933 C   0  0  0  0  0  0  0  0  0  0  0  0
    6.1407   -2.9557   -0.6700 H   0  0  0  0  0  0  0  0  0  0  0  0
  2 10  1  0  0  0  0
  2 11  1  0  0  0  0
  3  2  1  0  0  0  0
  4  5  1  0  0  0  0
  4  6  1  0  0  0  0
  7 10  1  0  0  0  0
  7  4  1  0  0  0  0
  8  7  1  0  0  0  0
  9  7  1  0  0  0  0
 10  1  2  0  0  0  0
 11 12  1  0  0  0  0
 12 14  2  0  0  0  0
 12 13  1  0  0  0  0
 14 15  1  0  0  0  0
 16 17  1  0  0  0  0
 16 14  1  0  0  0  0
 18 16  2  0  0  0  0
 19 18  1  0  0  0  0
 20 18  1  0  0  0  0
 20 11  2  0  0  0  0
 21 20  1  0  0  0  0
M  END
