7
q = 0.0, confidence = 0.98

 70 72  0  0  0  0  0  0  0  0999 V2000
    0.8543    1.1625   -0.0003 N   0  0  0  0  0  0  0  0  0  0  0  0
    0.9295   -1.1649   -0.0000 N   0  0  0  0  0  0  0  0  0  0  0  0
   -1.1412    2.3007   -0.0003 O   0  0  0  0  0  0  0  0  0  0  0  0
    1.5457    0.0189   -0.0004 C   0  0  0  0  0  3  0  0  0  0  0  0
    2.6437    0.0475   -0.0008 H   0  0  0  0  0  0  0  0  0  0  0  0
   -0.6159    1.1993   -0.0001 C   0  0  0  0  0  0  0  0  0  0  0  0
   -1.2713   -0.1150    0.0004 C   0  0  0  0  0  3  0  0  0  0  0  0
   -0.4844   -1.2619    0.0005 C   0  0  0  0  0  0  0  0  0  0  0  0
    1.5890    2.4107   -0.0005 C   0  0  0  0  0  0  0  0  0  0  0  0
    1.9260    2.9916   -1.2458 C   0  0  0  0  0  0  0  0  0  0  0  0
    2.6533    4.1962   -1.2154 C   0  0  0  0  0  0  0  0  0  0  0  0
    2.9328    4.6804   -2.1625 H   0  0  0  0  0  0  0  0  0  0  0  0
    3.0168    4.7900   -0.0007 C   0  0  0  0  0  0  0  0  0  0  0  0
    3.5842    5.7330   -0.0008 H   0  0  0  0  0  0  0  0  0  0  0  0
    2.6540    4.1960    1.2141 C   0  0  0  0  0  0  0  0  0  0  0  0
    2.9340    4.6801    2.1611 H   0  0  0  0  0  0  0  0  0  0  0  0
    1.9267    2.9915    1.2447 C   0  0  0  0  0  0  0  0  0  0  0  0
    1.4591    2.3964   -2.5682 C   0  0  0  0  0  0  0  0  0  0  0  0
    1.1654    1.3418   -2.3830 H   0  0  0  0  0  0  0  0  0  0  0  0
    2.5595    2.3782   -3.6394 C   0  0  0  0  0  0  0  0  0  0  0  0
    2.2017    1.8495   -4.5459 H   0  0  0  0  0  0  0  0  0  0  0  0
    3.4762    1.8669   -3.2823 H   0  0  0  0  0  0  0  0  0  0  0  0
    2.8446    3.4026   -3.9546 H   0  0  0  0  0  0  0  0  0  0  0  0
    0.2009    3.1402   -3.0591 C   0  0  0  0  0  0  0  0  0  0  0  0
   -0.5932    3.1347   -2.2878 H   0  0  0  0  0  0  0  0  0  0  0  0
   -0.1974    2.6679   -3.9800 H   0  0  0  0  0  0  0  0  0  0  0  0
    0.4430    4.1976   -3.2931 H   0  0  0  0  0  0  0  0  0  0  0  0
    1.4605    2.3960    2.5674 C   0  0  0  0  0  0  0  0  0  0  0  0
    1.1674    1.3413    2.3823 H   0  0  0  0  0  0  0  0  0  0  0  0
    0.2019    3.1391    3.0584 C   0  0  0  0  0  0  0  0  0  0  0  0
   -0.1960    2.6667    3.9794 H   0  0  0  0  0  0  0  0  0  0  0  0
   -0.5924    3.1333    2.2873 H   0  0  0  0  0  0  0  0  0  0  0  0
    0.4435    4.1967    3.2923 H   0  0  0  0  0  0  0  0  0  0  0  0
    2.5610    2.3787    3.6384 C   0  0  0  0  0  0  0  0  0  0  0  0
    3.4780    1.8680    3.2811 H   0  0  0  0  0  0  0  0  0  0  0  0
    2.2037    1.8497    4.5449 H   0  0  0  0  0  0  0  0  0  0  0  0
    2.8454    3.4033    3.9536 H   0  0  0  0  0  0  0  0  0  0  0  0
   -1.0365   -2.6555    0.0014 C   0  0  0  0  0  0  0  0  0  0  0  0
   -0.7099   -3.2305   -0.8898 H   0  0  0  0  0  0  0  0  0  0  0  0
   -2.1396   -2.5861    0.0018 H   0  0  0  0  0  0  0  0  0  0  0  0
   -0.7091   -3.2296    0.8929 H   0  0  0  0  0  0  0  0  0  0  0  0
    1.7730   -2.3483   -0.0002 C   0  0  0  0  0  0  0  0  0  0  0  0
    2.1621   -2.8916    1.2454 C   0  0  0  0  0  0  0  0  0  0  0  0
    3.0024   -4.0204    1.2155 C   0  0  0  0  0  0  0  0  0  0  0  0
    3.3335   -4.4719    2.1622 H   0  0  0  0  0  0  0  0  0  0  0  0
    3.4190   -4.5767   -0.0007 C   0  0  0  0  0  0  0  0  0  0  0  0
    4.0758   -5.4596   -0.0009 H   0  0  0  0  0  0  0  0  0  0  0  0
    3.0006   -4.0211   -1.2167 C   0  0  0  0  0  0  0  0  0  0  0  0
    3.3303   -4.4733   -2.1636 H   0  0  0  0  0  0  0  0  0  0  0  0
    2.1602   -2.8924   -1.2461 C   0  0  0  0  0  0  0  0  0  0  0  0
    1.7242   -2.2664    2.5647 C   0  0  0  0  0  0  0  0  0  0  0  0
    0.8754   -1.5841    2.3504 H   0  0  0  0  0  0  0  0  0  0  0  0
    1.2173   -3.3095    3.5720 C   0  0  0  0  0  0  0  0  0  0  0  0
    2.0269   -3.9896    3.9069 H   0  0  0  0  0  0  0  0  0  0  0  0
    0.4073   -3.9309    3.1408 H   0  0  0  0  0  0  0  0  0  0  0  0
    0.8166   -2.8062    4.4743 H   0  0  0  0  0  0  0  0  0  0  0  0
    2.8606   -1.4155    3.1615 C   0  0  0  0  0  0  0  0  0  0  0  0
    3.7427   -2.0443    3.4015 H   0  0  0  0  0  0  0  0  0  0  0  0
    2.5301   -0.9169    4.0949 H   0  0  0  0  0  0  0  0  0  0  0  0
    3.1959   -0.6261    2.4590 H   0  0  0  0  0  0  0  0  0  0  0  0
    1.7206   -2.2678   -2.5651 C   0  0  0  0  0  0  0  0  0  0  0  0
    0.8717   -1.5858   -2.3501 H   0  0  0  0  0  0  0  0  0  0  0  0
    1.2132   -3.3114   -3.5716 C   0  0  0  0  0  0  0  0  0  0  0  0
    0.8113   -2.8085   -4.4736 H   0  0  0  0  0  0  0  0  0  0  0  0
    0.4039   -3.9331   -3.1395 H   0  0  0  0  0  0  0  0  0  0  0  0
    2.0227   -3.9912   -3.9073 H   0  0  0  0  0  0  0  0  0  0  0  0
    2.8561   -1.4165   -3.1633 C   0  0  0  0  0  0  0  0  0  0  0  0
    3.1918   -0.6269   -2.4613 H   0  0  0  0  0  0  0  0  0  0  0  0
    2.5243   -0.9182   -4.0964 H   0  0  0  0  0  0  0  0  0  0  0  0
    3.7381   -2.0450   -3.4042 H   0  0  0  0  0  0  0  0  0  0  0  0
  1  6  1  0  0  0  0
  2  8  1  0  0  0  0
  3  6  2  0  0  0  0
  4  1  1  0  0  0  0
  4  2  1  0  0  0  0
  5  4  1  0  0  0  0
  6  7  1  0  0  0  0
  7  8  2  0  0  0  0
  8 38  1  0  0  0  0
  9  1  1  0  0  0  0
  9 17  1  0  0  0  0
 10 11  1  0  0  0  0
 10  9  2  0  0  0  0
 11 13  2  0  0  0  0
 12 11  1  0  0  0  0
 13 15  1  0  0  0  0
 14 13  1  0  0  0  0
 15 17  2  0  0  0  0
 15 16  1  0  0  0  0
 17 28  1  0  0  0  0
 18 19  1  0  0  0  0
 18 10  1  0  0  0  0
 20 22  1  0  0  0  0
 20 18  1  0  0  0  0
 21 20  1  0  0  0  0
 23 20  1  0  0  0  0
 24 18  1  0  0  0  0
 24 25  1  0  0  0  0
 26 24  1  0  0  0  0
 27 24  1  0  0  0  0
 28 30  1  0  0  0  0
 28 34  1  0  0  0  0
 29 28  1  0  0  0  0
 30 33  1  0  0  0  0
 30 31  1  0  0  0  0
 32 30  1  0  0  0  0
 34 37  1  0  0  0  0
 34 36  1  0  0  0  0
 35 34  1  0  0  0  0
 38 40  1  0  0  0  0
 38 41  1  0  0  0  0
 39 38  1  0  0  0  0
 42  2  1  0  0  0  0
 42 43  1  0  0  0  0
 43 51  1  0  0  0  0
 44 43  2  0  0  0  0
 44 45  1  0  0  0  0
 46 44  1  0  0  0  0
 47 46  1  0  0  0  0
 48 46  2  0  0  0  0
 49 48  1  0  0  0  0
 50 48  1  0  0  0  0
 50 42  2  0  0  0  0
 51 57  1  0  0  0  0
 51 53  1  0  0  0  0
 52 51  1  0  0  0  0
 53 54  1  0  0  0  0
 53 56  1  0  0  0  0
 55 53  1  0  0  0  0
 57 58  1  0  0  0  0
 57 59  1  0  0  0  0
 60 57  1  0  0  0  0
 61 62  1  0  0  0  0
 61 50  1  0  0  0  0
 63 65  1  0  0  0  0
 63 61  1  0  0  0  0
 64 63  1  0  0  0  0
 66 63  1  0  0  0  0
 67 61  1  0  0  0  0
 67 68  1  0  0  0  0
 69 67  1  0  0  0  0
 70 67  1  0  0  0  0
M  END
