12
q = 0.0, confidence = 0.988

 37 39  0  0  1  0  0  0  0  0999 V2000
   -0.2641    3.7914   -0.3089 C   0  0  0  0  0  0  0  0  0  0  0  0
    2.2700    3.6152   -0.4320 N   0  0  0  0  0  0  0  0  0  0  0  0
    4.2113    0.0319    0.4751 C   0  0  0  0  0  0  0  0  0  0  0  0
    3.2261    2.7025   -0.5349 N   0  0  0  0  0  2  0  0  0  0  0  0
    3.2829    0.2737   -0.7057 C   0  0  1  0  0  0  0  0  0  0  0  0
    2.4551   -0.4680   -0.6427 H   0  0  0  0  0  0  0  0  0  0  0  0
    2.5555    1.5532   -0.5460 N   0  0  0  0  0  0  0  0  0  0  0  0
    2.6556    5.0170   -0.4153 C   0  0  0  0  0  0  0  0  0  0  0  0
    2.7587    5.3836    0.6248 H   0  0  0  0  0  0  0  0  0  0  0  0
    1.8820    5.6096   -0.9364 H   0  0  0  0  0  0  0  0  0  0  0  0
    3.6256    5.1100   -0.9343 H   0  0  0  0  0  0  0  0  0  0  0  0
    1.1932    1.6688   -0.4559 C   0  0  0  0  0  3  0  0  0  0  0  0
    1.0059    3.0605   -0.3795 C   0  0  0  0  0  0  0  0  0  0  0  0
    3.8926    0.1986   -2.1013 C   0  0  0  0  0  0  0  0  0  0  0  0
    3.0898    0.3319   -2.8525 H   0  0  0  0  0  0  0  0  0  0  0  0
    4.3497   -0.7970   -2.2586 H   0  0  0  0  0  0  0  0  0  0  0  0
    4.6662    0.9772   -2.2517 H   0  0  0  0  0  0  0  0  0  0  0  0
   -1.3515    3.2972   -1.0700 C   0  0  0  0  0  0  0  0  0  0  0  0
   -1.1912    2.4209   -1.7193 H   0  0  0  0  0  0  0  0  0  0  0  0
   -0.4597    4.9202    0.5173 C   0  0  0  0  0  0  0  0  0  0  0  0
    0.3584    5.2893    1.1529 H   0  0  0  0  0  0  0  0  0  0  0  0
   -1.7136    5.5453    0.5772 C   0  0  0  0  0  0  0  0  0  0  0  0
   -1.8565    6.4168    1.2338 H   0  0  0  0  0  0  0  0  0  0  0  0
    5.5896   -0.1935    0.3160 C   0  0  0  0  0  0  0  0  0  0  0  0
    6.0423   -0.1629   -0.6854 H   0  0  0  0  0  0  0  0  0  0  0  0
    6.4007   -0.4641    1.4310 C   0  0  0  0  0  0  0  0  0  0  0  0
    7.4784   -0.6396    1.2908 H   0  0  0  0  0  0  0  0  0  0  0  0
    4.4635   -0.2830    2.8811 C   0  0  0  0  0  0  0  0  0  0  0  0
    4.0123   -0.3215    3.8845 H   0  0  0  0  0  0  0  0  0  0  0  0
    5.8410   -0.5101    2.7158 C   0  0  0  0  0  0  0  0  0  0  0  0
    6.4766   -0.7238    3.5888 H   0  0  0  0  0  0  0  0  0  0  0  0
   -2.6014    3.9236   -0.9983 C   0  0  0  0  0  0  0  0  0  0  0  0
   -3.4394    3.5299   -1.5940 H   0  0  0  0  0  0  0  0  0  0  0  0
   -2.7877    5.0487   -0.1775 C   0  0  0  0  0  0  0  0  0  0  0  0
   -3.7726    5.5365   -0.1215 H   0  0  0  0  0  0  0  0  0  0  0  0
    3.6520   -0.0146    1.7708 C   0  0  0  0  0  0  0  0  0  0  0  0
    2.5677    0.1463    1.9075 H   0  0  0  0  0  0  0  0  0  0  0  0
  1 20  1  0  0  0  0
  2  8  1  0  0  0  0
  2 13  1  0  0  0  0
  3 36  1  0  0  0  0
  4  2  1  0  0  0  0
  5  6  1  1  0  0  0
  5  7  1  0  0  0  0
  5  3  1  0  0  0  0
  7  4  1  0  0  0  0
  7 12  1  0  0  0  0
  8  9  1  0  0  0  0
 10  8  1  0  0  0  0
 11  8  1  0  0  0  0
 12 13  2  0  0  0  0
 13  1  1  0  0  0  0
 14  5  1  0  0  0  0
 15 14  1  0  0  0  0
 16 14  1  0  0  0  0
 17 14  1  0  0  0  0
 18 32  1  0  0  0  0
 18  1  2  0  0  0  0
 19 18  1  0  0  0  0
 20 22  2  0  0  0  0
 20 21  1  0  0  0  0
 22 23  1  0  0  0  0
 24  3  2  0  0  0  0
 24 26  1  0  0  0  0
 25 24  1  0  0  0  0
 26 30  2  0  0  0  0
 27 26  1  0  0  0  0
 28 29  1  0  0  0  0
 30 28  1  0  0  0  0
 30 31  1  0  0  0  0
 32 34  2  0  0  0  0
 33 32  1  0  0  0  0
 34 35  1  0  0  0  0
 34 22  1  0  0  0  0
 36 37  1  0  0  0  0
 36 28  2  0  0  0  0
M  END
