23
q = 0.0, confidence = 0.996

 24 25  0  0  0  0  0  0  0  0999 V2000
    1.5507   -1.6083    1.1820 N   0  0  0  0  0  0  0  0  0  0  0  0
    0.7889   -1.1520    1.6976 H   0  0  0  0  0  0  0  0  0  0  0  0
    1.9219   -2.4057    1.7050 H   0  0  0  0  0  0  0  0  0  0  0  0
    2.5312   -0.8176    0.5644 C   0  0  0  0  0  0  0  0  0  0  0  0
    3.8272   -1.3563    0.3915 C   0  0  0  0  0  0  0  0  0  0  0  0
    4.0521   -2.3406    0.8314 H   0  0  0  0  0  0  0  0  0  0  0  0
    4.8147   -0.6748   -0.3241 C   0  0  0  0  0  0  0  0  0  0  0  0
    5.8129   -1.1249   -0.4294 H   0  0  0  0  0  0  0  0  0  0  0  0
    4.5359    0.5740   -0.9037 C   0  0  0  0  0  0  0  0  0  0  0  0
    5.3078    1.1190   -1.4648 H   0  0  0  0  0  0  0  0  0  0  0  0
    3.2597    1.1209   -0.7467 C   0  0  0  0  0  0  0  0  0  0  0  0
    3.0343    2.1086   -1.1780 H   0  0  0  0  0  0  0  0  0  0  0  0
    2.2493    0.4586   -0.0119 C   0  0  0  0  0  0  0  0  0  0  0  0
    0.9411    1.1527    0.1131 C   0  0  0  0  0  0  0  0  0  0  0  0
    0.2922    1.3561    1.3682 C   0  0  0  0  0  0  0  0  0  0  0  0
    0.7572    0.9698    2.2867 H   0  0  0  0  0  0  0  0  0  0  0  0
   -1.0021    1.9809    1.4488 C   0  0  0  0  0  0  0  0  0  0  0  0
   -1.5167    2.0324    2.4188 H   0  0  0  0  0  0  0  0  0  0  0  0
   -1.6624    2.4158    0.2736 C   0  0  0  0  0  0  0  0  0  0  0  0
   -2.6782    2.8331    0.3372 H   0  0  0  0  0  0  0  0  0  0  0  0
   -1.0241    2.2318   -1.0055 C   0  0  0  0  0  3  0  0  0  0  0  0
   -1.5448    2.5169   -1.9324 H   0  0  0  0  0  0  0  0  0  0  0  0
    0.2550    1.6155   -1.0814 C   0  0  0  0  0  3  0  0  0  0  0  0
    0.7071    1.4212   -2.0658 H   0  0  0  0  0  0  0  0  0  0  0  0
  1  2  1  0  0  0  0
  1  3  1  0  0  0  0
  4  1  1  0  0  0  0
  5  4  1  0  0  0  0
  5  6  1  0  0  0  0
  7  5  2  0  0  0  0
  8  7  1  0  0  0  0
  9 11  2  0  0  0  0
  9  7  1  0  0  0  0
 10  9  1  0  0  0  0
 11 13  1  0  0  0  0
 12 11  1  0  0  0  0
 13 14  1  0  0  0  0
 13  4  2  0  0  0  0
 14 15  2  0  0  0  0
 15 17  1  0  0  0  0
 15 16  1  0  0  0  0
 17 18  1  0  0  0  0
 19 20  1  0  0  0  0
 19 17  2  0  0  0  0
 21 19  1  0  0  0  0
 22 21  1  0  0  0  0
 23 21  1  0  0  0  0
 23 14  1  0  0  0  0
 24 23  1  0  0  0  0
M  END
