2
q = 0.0, confidence = 0.922

 15 15  0  0  0  0  0  0  0  0999 V2000
   -1.5233   -1.2752    0.2592 O   0  0  0  0  0  0  0  0  0  0  0  0
   -0.8804   -0.1364    0.4684 C   0  0  0  0  0  2  0  0  0  0  0  0
   -1.7165    0.9884    1.0275 C   0  0  0  0  0  0  0  0  0  0  0  0
   -1.0474    1.7713    1.4248 H   0  0  0  0  0  0  0  0  0  0  0  0
   -2.3426    0.6321    1.8765 H   0  0  0  0  0  0  0  0  0  0  0  0
   -2.6332    1.6013   -0.0526 C   0  0  0  0  0  0  0  0  0  0  0  0
   -3.0914    2.5295    0.3541 H   0  0  0  0  0  0  0  0  0  0  0  0
   -2.0148    1.9453   -0.9125 H   0  0  0  0  0  0  0  0  0  0  0  0
   -3.7254    0.6971   -0.5456 C   0  0  0  0  0  0  0  0  0  0  0  0
   -4.4747    1.1689   -1.2043 H   0  0  0  0  0  0  0  0  0  0  0  0
   -3.8687   -0.6165   -0.2771 C   0  0  0  0  0  0  0  0  0  0  0  0
   -4.7301   -1.1496   -0.7119 H   0  0  0  0  0  0  0  0  0  0  0  0
   -2.9449   -1.4651    0.5534 C   0  0  0  0  0  0  0  0  0  0  0  0
   -3.0964   -1.3230    1.6462 H   0  0  0  0  0  0  0  0  0  0  0  0
   -3.1061   -2.5371    0.3384 H   0  0  0  0  0  0  0  0  0  0  0  0
  1  2  1  0  0  0  0
  1 13  1  0  0  0  0
  2  3  1  0  0  0  0
  3  4  1  0  0  0  0
  3  5  1  0  0  0  0
  6  7  1  0  0  0  0
  6  3  1  0  0  0  0
  8  6  1  0  0  0  0
  9 11  2  0  0  0  0
  9  6  1  0  0  0  0
 10  9  1  0  0  0  0
 11 13  1  0  0  0  0
 12 11  1  0  0  0  0
 13 14  1  0  0  0  0
 15 13  1  0  0  0  0
M  END
