7
q = 0.0, confidence = 0.946

 44 45  0  0  1  0  0  0  0  0999 V2000
    5.6375   -0.6387   -0.6672 O   0  0  0  0  0  0  0  0  0  0  0  0
    4.1659    0.0796    1.1085 O   0  0  0  0  0  0  0  0  0  0  0  0
    5.2428   -0.6418    0.6499 B   0  0  0  0  0  0  0  0  0  0  0  0
    0.6814    1.1078    0.1190 C   0  0  0  0  0  3  0  0  0  0  0  0
    0.6621    2.1486    0.4755 H   0  0  0  0  0  0  0  0  0  0  0  0
    0.2775    0.9223   -1.2553 C   0  0  2  0  0  3  0  0  0  0  0  0
    0.1550   -0.4765   -1.5793 C   0  0  0  0  0  3  0  0  0  0  0  0
   -0.1736   -0.7927   -2.5788 H   0  0  0  0  0  0  0  0  0  0  0  0
    0.4547   -1.4236   -0.5416 C   0  0  0  0  0  3  0  0  0  0  0  0
    0.1872   -2.4763   -0.7313 H   0  0  0  0  0  0  0  0  0  0  0  0
    1.5400   -1.2016    0.4281 C   0  0  0  0  0  0  0  0  0  0  0  0
    1.8105    0.2672    0.7099 C   0  0  1  0  0  0  0  0  0  0  0  0
    1.8248    0.4149    1.8108 H   0  0  0  0  0  0  0  0  0  0  0  0
    3.2351    0.7578    0.2456 C   0  0  2  0  0  0  0  0  0  0  0  0
    3.4916    0.3802   -1.2277 C   0  0  0  0  0  0  0  0  0  0  0  0
    3.0126    1.1221   -1.8961 H   0  0  0  0  0  0  0  0  0  0  0  0
    2.9906   -0.5900   -1.4168 H   0  0  0  0  0  0  0  0  0  0  0  0
    4.9679    0.1938   -1.6371 C   0  0  0  0  0  0  0  0  0  0  0  0
    0.1118    2.0243   -2.2630 C   0  0  0  0  0  0  0  0  0  0  0  0
    1.1051    2.3626   -2.6333 H   0  0  0  0  0  0  0  0  0  0  0  0
   -0.4042    2.8926   -1.8111 H   0  0  0  0  0  0  0  0  0  0  0  0
   -0.4744    1.6881   -3.1413 H   0  0  0  0  0  0  0  0  0  0  0  0
    2.1626   -2.2243    1.0609 C   0  0  0  0  0  0  0  0  0  0  0  0
    3.3730    2.2591    0.5315 C   0  0  0  0  0  0  0  0  0  0  0  0
    3.0515    2.4781    1.5695 H   0  0  0  0  0  0  0  0  0  0  0  0
    2.7602    2.8648   -0.1634 H   0  0  0  0  0  0  0  0  0  0  0  0
    4.4251    2.5819    0.4340 H   0  0  0  0  0  0  0  0  0  0  0  0
    5.0263   -0.5677   -2.9664 C   0  0  0  0  0  0  0  0  0  0  0  0
    4.5445    0.0145   -3.7773 H   0  0  0  0  0  0  0  0  0  0  0  0
    4.5069   -1.5417   -2.8743 H   0  0  0  0  0  0  0  0  0  0  0  0
    6.0801   -0.7618   -3.2476 H   0  0  0  0  0  0  0  0  0  0  0  0
    5.7600    1.5036   -1.7582 C   0  0  0  0  0  0  0  0  0  0  0  0
    5.2768    2.1975   -2.4750 H   0  0  0  0  0  0  0  0  0  0  0  0
    6.7859    1.2870   -2.1161 H   0  0  0  0  0  0  0  0  0  0  0  0
    5.8487    2.0173   -0.7831 H   0  0  0  0  0  0  0  0  0  0  0  0
    6.0609   -1.5198    1.6840 C   0  0  0  0  0  0  0  0  0  0  0  0
    5.8427   -2.5848    1.4359 H   0  0  0  0  0  0  0  0  0  0  0  0
    7.1453   -1.4053    1.4653 H   0  0  0  0  0  0  0  0  0  0  0  0
    5.7643   -1.2515    3.1628 C   0  0  0  0  0  0  0  0  0  0  0  0
    6.3342   -1.9247    3.8362 H   0  0  0  0  0  0  0  0  0  0  0  0
    4.6869   -1.3841    3.3912 H   0  0  0  0  0  0  0  0  0  0  0  0
    6.0162   -0.2083    3.4446 H   0  0  0  0  0  0  0  0  0  0  0  0
    2.9255   -2.0412    1.8292 H   0  0  0  0  0  0  0  0  0  0  0  0
    1.9038   -3.2696    0.8291 H   0  0  0  0  0  0  0  0  0  0  0  0
  1  3  1  0  0  0  0
  3  2  1  0  0  0  0
  3 36  1  0  0  0  0
  4  5  1  0  0  0  0
  4 12  1  0  0  0  0
  6 19  1  6  0  0  0
  6  4  1  0  0  0  0
  7  6  1  0  0  0  0
  7  9  1  0  0  0  0
  8  7  1  0  0  0  0
  9 11  1  0  0  0  0
 10  9  1  0  0  0  0
 11 12  1  0  0  0  0
 11 23  2  0  0  0  0
 12 13  1  1  0  0  0
 14 24  1  1  0  0  0
 14 12  1  0  0  0  0
 14  2  1  0  0  0  0
 15 14  1  0  0  0  0
 16 15  1  0  0  0  0
 17 15  1  0  0  0  0
 18 15  1  0  0  0  0
 18  1  1  0  0  0  0
 19 21  1  0  0  0  0
 20 19  1  0  0  0  0
 22 19  1  0  0  0  0
 23 43  1  0  0  0  0
 24 25  1  0  0  0  0
 26 24  1  0  0  0  0
 27 24  1  0  0  0  0
 28 30  1  0  0  0  0
 28 18  1  0  0  0  0
 29 28  1  0  0  0  0
 31 28  1  0  0  0  0
 32 18  1  0  0  0  0
 32 35  1  0  0  0  0
 33 32  1  0  0  0  0
 34 32  1  0  0  0  0
 36 39  1  0  0  0  0
 37 36  1  0  0  0  0
 38 36  1  0  0  0  0
 39 41  1  0  0  0  0
 39 42  1  0  0  0  0
 39 40  1  0  0  0  0
 44 23  1  0  0  0  0
M  END
