1
q = -1.0

 25 25  0  0  0  0  0  0  0  0999 V2000
   -0.8751   -1.0032   -1.2021 C   0  0  0  0  0  1  0  0  0  0  0  0
   -1.9637   -1.9044   -1.2428 C   0  0  0  0  0  0  0  0  0  0  0  0
   -1.8205   -2.8669   -0.7100 H   0  0  0  0  0  0  0  0  0  0  0  0
   -3.1680   -1.6971   -1.8767 C   0  0  0  0  0  0  0  0  0  0  0  0
   -3.4541   -0.4014   -2.5960 C   0  0  0  0  0  0  0  0  0  0  0  0
   -4.2450   -0.5543   -3.3601 H   0  0  0  0  0  0  0  0  0  0  0  0
   -2.5385   -0.0938   -3.1404 H   0  0  0  0  0  0  0  0  0  0  0  0
   -3.8578    0.7674   -1.6674 C   0  0  0  0  0  0  0  0  0  0  0  0
   -3.8619    1.6955   -2.2764 H   0  0  0  0  0  0  0  0  0  0  0  0
   -3.0448    0.8933   -0.9191 H   0  0  0  0  0  0  0  0  0  0  0  0
   -5.1941    0.6392   -0.9246 C   0  0  0  0  0  0  0  0  0  0  0  0
   -6.0316    0.5696   -1.6553 H   0  0  0  0  0  0  0  0  0  0  0  0
   -5.3583    1.5967   -0.3867 H   0  0  0  0  0  0  0  0  0  0  0  0
   -5.2650   -0.5231    0.0889 C   0  0  0  0  0  0  0  0  0  0  0  0
   -4.2325   -0.8037    0.3817 H   0  0  0  0  0  0  0  0  0  0  0  0
   -5.7347   -0.1662    1.0286 H   0  0  0  0  0  0  0  0  0  0  0  0
   -6.0378   -1.7726   -0.3638 C   0  0  0  0  0  0  0  0  0  0  0  0
   -7.1255   -1.5383   -0.3768 H   0  0  0  0  0  0  0  0  0  0  0  0
   -5.9110   -2.5641    0.4085 H   0  0  0  0  0  0  0  0  0  0  0  0
   -5.6708   -2.3480   -1.7366 C   0  0  0  0  0  0  0  0  0  0  0  0
   -6.3205   -3.2253   -1.9406 H   0  0  0  0  0  0  0  0  0  0  0  0
   -5.9262   -1.6109   -2.5279 H   0  0  0  0  0  0  0  0  0  0  0  0
   -4.2086   -2.7889   -1.9082 C   0  0  0  0  0  0  0  0  0  0  0  0
   -3.9506   -3.5703   -1.1610 H   0  0  0  0  0  0  0  0  0  0  0  0
   -4.1265   -3.2851   -2.9051 H   0  0  0  0  0  0  0  0  0  0  0  0
  2  1  1  0  0  0  0
  2  3  1  0  0  0  0
  4  2  2  0  0  0  0
  5  4  1  0  0  0  0
  5  8  1  0  0  0  0
  6  5  1  0  0  0  0
  7  5  1  0  0  0  0
  8 11  1  0  0  0  0
  8 10  1  0  0  0  0
  9  8  1  0  0  0  0
 11 13  1  0  0  0  0
 11 14  1  0  0  0  0
 12 11  1  0  0  0  0
 14 15  1  0  0  0  0
 14 16  1  0  0  0  0
 17 14  1  0  0  0  0
 17 19  1  0  0  0  0
 18 17  1  0  0  0  0
 20 17  1  0  0  0  0
 21 20  1  0  0  0  0
 22 20  1  0  0  0  0
 23  4  1  0  0  0  0
 23 20  1  0  0  0  0
 23 24  1  0  0  0  0
 25 23  1  0  0  0  0
M  END
