2
q = -1.0

 25 25  0  0  0  0  0  0  0  0999 V2000
   -0.6672    1.6441   -1.6743 O   0  0  0  0  0  0  0  0  0  0  0  0
   -0.3396    1.8279   -0.4728 C   0  0  0  0  0  3  0  0  0  0  0  0
    0.2634    3.1207   -0.0251 C   0  0  0  0  0  0  0  0  0  0  0  0
   -0.5084    3.6356    0.5888 H   0  0  0  0  0  0  0  0  0  0  0  0
    0.4457    3.7573   -0.9163 H   0  0  0  0  0  0  0  0  0  0  0  0
    1.5472    2.9637    0.8429 C   0  0  0  0  0  0  0  0  0  0  0  0
    2.1243    4.3732    1.0984 C   0  0  0  0  0  0  0  0  0  0  0  0
    1.3881    5.0117    1.6304 H   0  0  0  0  0  0  0  0  0  0  0  0
    2.3977    4.8778    0.1507 H   0  0  0  0  0  0  0  0  0  0  0  0
    3.0393    4.3054    1.7201 H   0  0  0  0  0  0  0  0  0  0  0  0
    1.1609    2.3315    2.1886 C   0  0  0  0  0  0  0  0  0  0  0  0
    0.3955    2.9546    2.6948 H   0  0  0  0  0  0  0  0  0  0  0  0
    2.0313    2.2601    2.8695 H   0  0  0  0  0  0  0  0  0  0  0  0
    0.7448    1.3156    2.0460 H   0  0  0  0  0  0  0  0  0  0  0  0
    2.5888    2.1276    0.0766 C   0  0  0  0  0  0  0  0  0  0  0  0
    3.2655    1.0428    0.6659 C   0  0  0  0  0  0  0  0  0  0  0  0
    3.0349    0.7343    1.6937 H   0  0  0  0  0  0  0  0  0  0  0  0
    4.2293    0.3122   -0.0461 C   0  0  0  0  0  0  0  0  0  0  0  0
    4.7174   -0.5475    0.4357 H   0  0  0  0  0  0  0  0  0  0  0  0
    4.5376    0.6519   -1.3697 C   0  0  0  0  0  0  0  0  0  0  0  0
    5.2816    0.0687   -1.9329 H   0  0  0  0  0  0  0  0  0  0  0  0
    3.8725    1.7300   -1.9750 C   0  0  0  0  0  0  0  0  0  0  0  0
    4.0976    2.0051   -3.0169 H   0  0  0  0  0  0  0  0  0  0  0  0
    2.9125    2.4575   -1.2586 C   0  0  0  0  0  0  0  0  0  0  0  0
    2.4031    3.2955   -1.7583 H   0  0  0  0  0  0  0  0  0  0  0  0
  1  2  2  0  0  0  0
  2  3  1  0  0  0  0
  3  4  1  0  0  0  0
  3  6  1  0  0  0  0
  5  3  1  0  0  0  0
  6  7  1  0  0  0  0
  6 11  1  0  0  0  0
  7  8  1  0  0  0  0
  7 10  1  0  0  0  0
  9  7  1  0  0  0  0
 11 12  1  0  0  0  0
 11 13  1  0  0  0  0
 14 11  1  0  0  0  0
 15 16  1  0  0  0  0
 15  6  1  0  0  0  0
 16 17  1  0  0  0  0
 18 19  1  0  0  0  0
 18 16  2  0  0  0  0
 20 18  1  0  0  0  0
 21 20  1  0  0  0  0
 22 20  2  0  0  0  0
 22 24  1  0  0  0  0
 23 22  1  0  0  0  0
 24 15  2  0  0  0  0
 25 24  1  0  0  0  0
M  END
