5
q = -1.0

 22 22  0  0  0  0  0  0  0  0999 V2000
   -5.7837   -0.6528    0.2962 O   0  0  0  0  0  0  0  0  0  0  0  0
    1.6811   -1.0257   -2.4028 C   0  0  0  0  0  3  0  0  0  0  0  0
    2.3436   -0.3327   -2.9449 H   0  0  0  0  0  0  0  0  0  0  0  0
    1.9649   -2.0884   -2.4428 H   0  0  0  0  0  0  0  0  0  0  0  0
    0.3031   -0.6813   -2.2452 C   0  0  0  0  0  3  0  0  0  0  0  0
   -0.1015    0.2576   -2.6546 H   0  0  0  0  0  0  0  0  0  0  0  0
   -0.4702   -1.5301   -1.3951 C   0  0  0  0  0  3  0  0  0  0  0  0
   -0.1343   -2.5768   -1.3184 H   0  0  0  0  0  0  0  0  0  0  0  0
   -1.8390   -1.2923   -0.9561 C   0  0  0  0  0  0  0  0  0  0  0  0
   -2.5478   -2.3265   -0.2971 C   0  0  0  0  0  0  0  0  0  0  0  0
   -2.0579   -3.3005   -0.1443 H   0  0  0  0  0  0  0  0  0  0  0  0
   -3.8637   -2.1606    0.1420 C   0  0  0  0  0  0  0  0  0  0  0  0
   -4.3780   -2.9934    0.6389 H   0  0  0  0  0  0  0  0  0  0  0  0
   -4.5215   -0.9274   -0.0797 C   0  0  0  0  0  0  0  0  0  0  0  0
   -3.8338    0.1133   -0.7544 C   0  0  0  0  0  0  0  0  0  0  0  0
   -4.3700    1.0563   -0.9328 H   0  0  0  0  0  0  0  0  0  0  0  0
   -2.5247   -0.0675   -1.1798 C   0  0  0  0  0  0  0  0  0  0  0  0
   -2.0183    0.7561   -1.6988 H   0  0  0  0  0  0  0  0  0  0  0  0
   -6.5483   -1.6570    0.9549 C   0  0  0  0  0  0  0  0  0  0  0  0
   -7.5372   -1.2083    1.1564 H   0  0  0  0  0  0  0  0  0  0  0  0
   -6.0808   -1.9584    1.9171 H   0  0  0  0  0  0  0  0  0  0  0  0
   -6.6786   -2.5543    0.3124 H   0  0  0  0  0  0  0  0  0  0  0  0
  1 19  1  0  0  0  0
  2  5  1  0  0  0  0
  3  2  1  0  0  0  0
  4  2  1  0  0  0  0
  5  7  1  0  0  0  0
  6  5  1  0  0  0  0
  7  8  1  0  0  0  0
  7  9  1  0  0  0  0
  9 10  1  0  0  0  0
 10 11  1  0  0  0  0
 10 12  2  0  0  0  0
 12 13  1  0  0  0  0
 14 12  1  0  0  0  0
 14  1  1  0  0  0  0
 15 14  2  0  0  0  0
 16 15  1  0  0  0  0
 17  9  2  0  0  0  0
 17 15  1  0  0  0  0
 18 17  1  0  0  0  0
 19 20  1  0  0  0  0
 19 21  1  0  0  0  0
 22 19  1  0  0  0  0
M  END
