2
q = -1.0

 36 38  0  0  0  0  0  0  0  0999 V2000
    0.9896   -0.0572    0.0624 P   0  0  0  0  0  0  0  0  0  0  0  0
   -0.8126   -2.2439    0.0674 C   0  0  0  0  0  3  0  0  0  0  0  0
   -1.6015   -2.8877    0.5095 H   0  0  0  0  0  0  0  0  0  0  0  0
   -0.8567   -2.4005   -1.0355 H   0  0  0  0  0  0  0  0  0  0  0  0
    0.5425   -2.6685    0.5659 C   0  0  0  0  0  0  0  0  0  0  0  0
    0.8383   -3.9750    1.0102 C   0  0  0  0  0  0  0  0  0  0  0  0
    0.0371   -4.7313    1.0166 H   0  0  0  0  0  0  0  0  0  0  0  0
    2.1276   -4.3148    1.4462 C   0  0  0  0  0  0  0  0  0  0  0  0
    2.3321   -5.3372    1.8005 H   0  0  0  0  0  0  0  0  0  0  0  0
    3.1573   -3.3578    1.4425 C   0  0  0  0  0  0  0  0  0  0  0  0
    4.1646   -3.6247    1.7964 H   0  0  0  0  0  0  0  0  0  0  0  0
    2.8879   -2.0513    1.0085 C   0  0  0  0  0  0  0  0  0  0  0  0
    3.6813   -1.2893    1.0324 H   0  0  0  0  0  0  0  0  0  0  0  0
    1.5910   -1.7134    0.5882 C   0  0  0  0  0  0  0  0  0  0  0  0
    2.0030    1.2044    0.9490 C   0  0  0  0  0  0  0  0  0  0  0  0
    1.3800    2.0084    1.9225 C   0  0  0  0  0  0  0  0  0  0  0  0
    0.3031    1.8715    2.1078 H   0  0  0  0  0  0  0  0  0  0  0  0
    2.1216    2.9642    2.6342 C   0  0  0  0  0  0  0  0  0  0  0  0
    1.6248    3.5861    3.3944 H   0  0  0  0  0  0  0  0  0  0  0  0
    3.4913    3.1270    2.3755 C   0  0  0  0  0  0  0  0  0  0  0  0
    4.0734    3.8767    2.9329 H   0  0  0  0  0  0  0  0  0  0  0  0
    4.1179    2.3364    1.3974 C   0  0  0  0  0  0  0  0  0  0  0  0
    5.1902    2.4671    1.1860 H   0  0  0  0  0  0  0  0  0  0  0  0
    3.3784    1.3823    0.6834 C   0  0  0  0  0  0  0  0  0  0  0  0
    3.8696    0.7847   -0.0999 H   0  0  0  0  0  0  0  0  0  0  0  0
    1.5856    0.1081   -1.6781 C   0  0  0  0  0  0  0  0  0  0  0  0
    1.8942    1.3670   -2.2360 C   0  0  0  0  0  0  0  0  0  0  0  0
    1.8949    2.2631   -1.5976 H   0  0  0  0  0  0  0  0  0  0  0  0
    2.2145    1.4819   -3.5977 C   0  0  0  0  0  0  0  0  0  0  0  0
    2.4564    2.4697   -4.0192 H   0  0  0  0  0  0  0  0  0  0  0  0
    2.2315    0.3426   -4.4183 C   0  0  0  0  0  0  0  0  0  0  0  0
    2.4834    0.4336   -5.4857 H   0  0  0  0  0  0  0  0  0  0  0  0
    1.9349   -0.9148   -3.8672 C   0  0  0  0  0  0  0  0  0  0  0  0
    1.9576   -1.8142   -4.5015 H   0  0  0  0  0  0  0  0  0  0  0  0
    1.6144   -1.0331   -2.5069 C   0  0  0  0  0  0  0  0  0  0  0  0
    1.3916   -2.0219   -2.0783 H   0  0  0  0  0  0  0  0  0  0  0  0
  1 14  1  0  0  0  0
  1 15  1  0  0  0  0
  2  3  1  0  0  0  0
  2  5  1  0  0  0  0
  4  2  1  0  0  0  0
  5 14  2  0  0  0  0
  5  6  1  0  0  0  0
  6  7  1  0  0  0  0
  6  8  2  0  0  0  0
  8  9  1  0  0  0  0
 10  8  1  0  0  0  0
 10 11  1  0  0  0  0
 12 13  1  0  0  0  0
 12 10  2  0  0  0  0
 14 12  1  0  0  0  0
 15 16  1  0  0  0  0
 16 17  1  0  0  0  0
 16 18  2  0  0  0  0
 18 19  1  0  0  0  0
 20 18  1  0  0  0  0
 20 21  1  0  0  0  0
 22 20  2  0  0  0  0
 23 22  1  0  0  0  0
 24 15  2  0  0  0  0
 24 22  1  0  0  0  0
 25 24  1  0  0  0  0
 26  1  1  0  0  0  0
 27 26  1  0  0  0  0
 27 28  1  0  0  0  0
 29 27  2  0  0  0  0
 30 29  1  0  0  0  0
 31 33  2  0  0  0  0
 31 29  1  0  0  0  0
 32 31  1  0  0  0  0
 33 35  1  0  0  0  0
 34 33  1  0  0  0  0
 35 36  1  0  0  0  0
 35 26  2  0  0  0  0
M  END
