6
q = -1.0, confidence = 0.17

 28 28  0  0  1  0  0  0  0  0999 V2000
   -1.8569    2.1634   -1.1332 P   0  0  0  0  0  4  0  0  0  0  0  0
   -3.4851    2.3410   -1.9631 C   0  0  0  0  0  0  0  0  0  0  0  0
   -1.9040    3.3603    0.2391 C   0  0  0  0  0  0  0  0  0  0  0  0
   -0.6263    2.7610   -2.3234 C   0  0  0  0  0  0  0  0  0  0  0  0
   -1.6003    0.4808   -0.6192 C   0  0  2  0  0  3  0  0  0  0  0  0
   -1.2482   -0.4419   -1.7437 C   0  0  0  0  0  3  0  0  0  0  0  0
   -2.6582    0.0530    0.3699 C   0  0  0  0  0  0  0  0  0  0  0  0
   -3.7762   -0.7125   -0.0463 C   0  0  0  0  0  0  0  0  0  0  0  0
   -4.7678   -1.1133    0.8617 C   0  0  0  0  0  0  0  0  0  0  0  0
   -4.6795   -0.7493    2.2149 C   0  0  0  0  0  0  0  0  0  0  0  0
   -3.5841    0.0170    2.6458 C   0  0  0  0  0  0  0  0  0  0  0  0
   -2.5884    0.4083    1.7395 C   0  0  0  0  0  0  0  0  0  0  0  0
   -1.8807   -1.3415   -1.8287 H   0  0  0  0  0  0  0  0  0  0  0  0
   -1.0661   -0.0103   -2.7458 H   0  0  0  0  0  0  0  0  0  0  0  0
   -3.6759    3.3900   -2.2633 H   0  0  0  0  0  0  0  0  0  0  0  0
   -4.2776    1.9995   -1.2688 H   0  0  0  0  0  0  0  0  0  0  0  0
   -3.4953    1.6902   -2.8588 H   0  0  0  0  0  0  0  0  0  0  0  0
   -2.1372    4.3680   -0.1563 H   0  0  0  0  0  0  0  0  0  0  0  0
   -2.6819    3.0539    0.9638 H   0  0  0  0  0  0  0  0  0  0  0  0
   -0.9202    3.3760    0.7437 H   0  0  0  0  0  0  0  0  0  0  0  0
   -0.9587    3.7414   -2.7164 H   0  0  0  0  0  0  0  0  0  0  0  0
   -0.5240    2.0386   -3.1536 H   0  0  0  0  0  0  0  0  0  0  0  0
    0.3561    2.8574   -1.8290 H   0  0  0  0  0  0  0  0  0  0  0  0
   -3.8617   -0.9999   -1.1052 H   0  0  0  0  0  0  0  0  0  0  0  0
   -5.6205   -1.7128    0.5064 H   0  0  0  0  0  0  0  0  0  0  0  0
   -5.4557   -1.0640    2.9286 H   0  0  0  0  0  0  0  0  0  0  0  0
   -3.4919    0.2996    3.7060 H   0  0  0  0  0  0  0  0  0  0  0  0
   -1.7109    0.9636    2.0971 H   0  0  0  0  0  0  0  0  0  0  0  0
  1  5  1  0  0  0  0
  1  3  1  0  0  0  0
  2 16  1  0  0  0  0
  2  1  1  0  0  0  0
  3 20  1  0  0  0  0
  3 19  1  0  0  0  0
  4 23  1  0  0  0  0
  4  1  1  0  0  0  0
  5  6  1  6  0  0  0
  5  7  1  0  0  0  0
  7 12  1  0  0  0  0
  8  7  2  0  0  0  0
  8  9  1  0  0  0  0
  9 10  2  0  0  0  0
 10 11  1  0  0  0  0
 10 26  1  0  0  0  0
 11 27  1  0  0  0  0
 12 28  1  0  0  0  0
 12 11  2  0  0  0  0
 13  6  1  0  0  0  0
 14  6  1  0  0  0  0
 15  2  1  0  0  0  0
 17  2  1  0  0  0  0
 18  3  1  0  0  0  0
 21  4  1  0  0  0  0
 22  4  1  0  0  0  0
 24  8  1  0  0  0  0
 25  9  1  0  0  0  0
M  END
