3
q = -1.0

 33 33  0  0  0  0  0  0  0  0999 V2000
    0.8129    1.9083    0.5750 N   0  0  0  0  0  0  0  0  0  0  0  0
   -0.6539    2.1265    0.7105 C   0  0  0  0  0  0  0  0  0  0  0  0
   -1.2228    0.7323    0.9394 C   0  0  0  0  0  3  0  0  0  0  0  0
    1.4305    1.8099    1.9297 C   0  0  0  0  0  0  0  0  0  0  0  0
    2.8823    1.4301    1.9338 C   0  0  0  0  0  0  0  0  0  0  0  0
    3.8181    2.0626    2.6620 C   0  0  0  0  0  0  0  0  0  0  0  0
    1.4831    3.0032   -0.1892 C   0  0  0  0  0  0  0  0  0  0  0  0
    0.9589    3.2034   -1.5793 C   0  0  0  0  0  0  0  0  0  0  0  0
    0.3647    4.3344   -1.9980 C   0  0  0  0  0  0  0  0  0  0  0  0
   -2.7044    0.6542    0.6943 C   0  0  0  0  0  0  0  0  0  0  0  0
   -3.5910    0.5915    1.7957 C   0  0  0  0  0  0  0  0  0  0  0  0
   -4.9818    0.5479    1.6225 C   0  0  0  0  0  0  0  0  0  0  0  0
   -5.5298    0.5762    0.3309 C   0  0  0  0  0  0  0  0  0  0  0  0
   -4.6684    0.6563   -0.7749 C   0  0  0  0  0  0  0  0  0  0  0  0
   -3.2769    0.6957   -0.5984 C   0  0  0  0  0  0  0  0  0  0  0  0
   -0.8798    2.8738    1.5134 H   0  0  0  0  0  0  0  0  0  0  0  0
   -1.0191    2.5418   -0.2477 H   0  0  0  0  0  0  0  0  0  0  0  0
   -1.0515    0.4543    2.0023 H   0  0  0  0  0  0  0  0  0  0  0  0
    1.2822    2.7789    2.4636 H   0  0  0  0  0  0  0  0  0  0  0  0
    0.8508    1.0457    2.4883 H   0  0  0  0  0  0  0  0  0  0  0  0
    3.1586    0.5692    1.3009 H   0  0  0  0  0  0  0  0  0  0  0  0
    4.8643    1.7204    2.6711 H   0  0  0  0  0  0  0  0  0  0  0  0
    3.5732    2.9442    3.2786 H   0  0  0  0  0  0  0  0  0  0  0  0
    1.3777    3.9417    0.4044 H   0  0  0  0  0  0  0  0  0  0  0  0
    2.5592    2.7410   -0.2330 H   0  0  0  0  0  0  0  0  0  0  0  0
    1.1222    2.3666   -2.2775 H   0  0  0  0  0  0  0  0  0  0  0  0
    0.0327    4.4539   -3.0408 H   0  0  0  0  0  0  0  0  0  0  0  0
    0.1934    5.1849   -1.3158 H   0  0  0  0  0  0  0  0  0  0  0  0
   -3.1718    0.5749    2.8151 H   0  0  0  0  0  0  0  0  0  0  0  0
   -5.6409    0.4937    2.5030 H   0  0  0  0  0  0  0  0  0  0  0  0
   -6.6204    0.5383    0.1872 H   0  0  0  0  0  0  0  0  0  0  0  0
   -5.0822    0.6825   -1.7949 H   0  0  0  0  0  0  0  0  0  0  0  0
   -2.6314    0.7447   -1.4845 H   0  0  0  0  0  0  0  0  0  0  0  0
  1  2  1  0  0  0  0
  1  4  1  0  0  0  0
  2  3  1  0  0  0  0
  2 16  1  0  0  0  0
  3 18  1  0  0  0  0
  4  5  1  0  0  0  0
  4 19  1  0  0  0  0
  4 20  1  0  0  0  0
  5  6  2  0  0  0  0
  6 22  1  0  0  0  0
  6 23  1  0  0  0  0
  7 24  1  0  0  0  0
  7  1  1  0  0  0  0
  8  7  1  0  0  0  0
  9  8  2  0  0  0  0
  9 28  1  0  0  0  0
 10  3  1  0  0  0  0
 10 11  1  0  0  0  0
 11 29  1  0  0  0  0
 12 11  2  0  0  0  0
 12 30  1  0  0  0  0
 13 12  1  0  0  0  0
 14 15  1  0  0  0  0
 14 13  2  0  0  0  0
 15 10  2  0  0  0  0
 17  2  1  0  0  0  0
 21  5  1  0  0  0  0
 25  7  1  0  0  0  0
 26  8  1  0  0  0  0
 27  9  1  0  0  0  0
 31 13  1  0  0  0  0
 32 14  1  0  0  0  0
 33 15  1  0  0  0  0
M  END
