29
q = -1.0

 32 34  0  0  1  0  0  0  0  0999 V2000
   -0.8863   -2.4725   -0.7319 C   0  0  0  0  0  0  0  0  0  0  0  0
   -2.1085   -3.0643   -0.7125 N   0  0  0  0  0  0  0  0  0  0  0  0
   -3.0864   -2.8691   -1.7776 C   0  0  0  0  0  0  0  0  0  0  0  0
   -4.2706   -3.7332   -1.3275 C   0  0  0  0  0  0  0  0  0  0  0  0
   -4.2034   -3.6317    0.2046 C   0  0  0  0  0  0  0  0  0  0  0  0
   -2.6962   -3.6409    0.4981 C   0  0  0  0  0  0  0  0  0  0  0  0
   -2.3086   -4.6728    0.6700 H   0  0  0  0  0  0  0  0  0  0  0  0
   -2.4440   -3.0247    1.3859 H   0  0  0  0  0  0  0  0  0  0  0  0
   -4.6293   -2.6629    0.5360 H   0  0  0  0  0  0  0  0  0  0  0  0
   -4.7462   -4.4450    0.7242 H   0  0  0  0  0  0  0  0  0  0  0  0
   -4.1188   -4.7840   -1.6532 H   0  0  0  0  0  0  0  0  0  0  0  0
   -5.2334   -3.3857   -1.7494 H   0  0  0  0  0  0  0  0  0  0  0  0
   -3.3697   -1.7915   -1.8520 H   0  0  0  0  0  0  0  0  0  0  0  0
   -2.6725   -3.1812   -2.7610 H   0  0  0  0  0  0  0  0  0  0  0  0
    0.0750   -2.4552    0.3299 C   0  0  0  0  0  0  0  0  0  0  0  0
    1.2970   -1.8651   -0.1557 C   0  0  1  0  0  3  0  0  0  0  0  0
   -0.0603   -2.9202    1.3108 H   0  0  0  0  0  0  0  0  0  0  0  0
    2.5907   -1.8320    0.5508 C   0  0  0  0  0  0  0  0  0  0  0  0
    2.6955   -2.2438    1.8994 C   0  0  0  0  0  0  0  0  0  0  0  0
    3.9312   -2.2447    2.5571 C   0  0  0  0  0  0  0  0  0  0  0  0
    5.0935   -1.8347    1.8838 C   0  0  0  0  0  0  0  0  0  0  0  0
    5.0032   -1.4204    0.5459 C   0  0  0  0  0  0  0  0  0  0  0  0
    3.7673   -1.4180   -0.1123 C   0  0  0  0  0  0  0  0  0  0  0  0
    3.7201   -1.0798   -1.1572 H   0  0  0  0  0  0  0  0  0  0  0  0
    5.9023   -1.0877    0.0058 H   0  0  0  0  0  0  0  0  0  0  0  0
    6.0651   -1.8373    2.4010 H   0  0  0  0  0  0  0  0  0  0  0  0
    3.9861   -2.5645    3.6089 H   0  0  0  0  0  0  0  0  0  0  0  0
    1.7936   -2.5482    2.4475 H   0  0  0  0  0  0  0  0  0  0  0  0
    1.0314   -1.3801   -1.4691 C   0  0  0  0  0  3  0  0  0  0  0  0
   -0.3296   -1.6969   -1.8097 C   0  0  0  0  0  3  0  0  0  0  0  0
    1.7572   -0.8892   -2.1265 H   0  0  0  0  0  0  0  0  0  0  0  0
   -0.8104   -1.5027   -2.7747 H   0  0  0  0  0  0  0  0  0  0  0  0
  1  2  1  0  0  0  0
  1 15  2  0  0  0  0
  2  6  1  0  0  0  0
  3  4  1  0  0  0  0
  3  2  1  0  0  0  0
  4  5  1  0  0  0  0
  5  6  1  0  0  0  0
  5  9  1  0  0  0  0
  5 10  1  0  0  0  0
  6  7  1  0  0  0  0
  6  8  1  0  0  0  0
 11  4  1  0  0  0  0
 12  4  1  0  0  0  0
 13  3  1  0  0  0  0
 14  3  1  0  0  0  0
 15 17  1  0  0  0  0
 16 15  1  0  0  0  0
 16 18  1  6  0  0  0
 18 19  1  0  0  0  0
 19 28  1  0  0  0  0
 19 20  2  0  0  0  0
 20 27  1  0  0  0  0
 21 26  1  0  0  0  0
 21 20  1  0  0  0  0
 22 21  2  0  0  0  0
 23 22  1  0  0  0  0
 23 18  2  0  0  0  0
 24 23  1  0  0  0  0
 25 22  1  0  0  0  0
 29 16  1  0  0  0  0
 30 29  1  0  0  0  0
 30  1  1  0  0  0  0
 31 29  1  0  0  0  0
 32 30  1  0  0  0  0
M  END
