5
q = -1.0

 20 21  0  0  0  0  0  0  0  0999 V2000
    2.3968    1.4907   -0.0278 C   0  0  0  0  0  0  0  0  0  0  0  0
    2.9468    1.9365    0.8086 H   0  0  0  0  0  0  0  0  0  0  0  0
    1.9260    2.1821   -1.1822 C   0  0  0  0  0  0  0  0  0  0  0  0
    2.0535    3.2508   -1.3836 H   0  0  0  0  0  0  0  0  0  0  0  0
    1.1983    1.2631   -1.9779 C   0  0  0  0  0  3  0  0  0  0  0  0
    0.7189    1.4822   -2.9382 H   0  0  0  0  0  0  0  0  0  0  0  0
    1.2190   -0.0043   -1.3103 C   0  0  0  0  0  0  0  0  0  0  0  0
    0.7679   -0.9384   -1.6665 H   0  0  0  0  0  0  0  0  0  0  0  0
    1.9994    0.1268   -0.1252 C   0  0  0  0  0  0  0  0  0  0  0  0
    2.4178   -0.9935    0.7853 C   0  0  0  0  0  0  0  0  0  0  0  0
    2.3829   -0.6492    1.8369 H   0  0  0  0  0  0  0  0  0  0  0  0
    1.6821   -1.8218    0.7070 H   0  0  0  0  0  0  0  0  0  0  0  0
    3.8111   -1.4756    0.4812 C   0  0  0  0  0  0  0  0  0  0  0  0
    4.8960   -1.5627    1.3364 C   0  0  0  0  0  0  0  0  0  0  0  0
    4.8377   -1.2653    2.3930 H   0  0  0  0  0  0  0  0  0  0  0  0
    6.0735   -2.0744    0.7066 C   0  0  0  0  0  0  0  0  0  0  0  0
    7.0345   -2.2185    1.2195 H   0  0  0  0  0  0  0  0  0  0  0  0
    5.8759   -2.3675   -0.6279 C   0  0  0  0  0  0  0  0  0  0  0  0
    6.5947   -2.7651   -1.3546 H   0  0  0  0  0  0  0  0  0  0  0  0
    4.2512   -2.0183   -1.1202 S   0  0  0  0  0  0  0  0  0  0  0  0
  1  2  1  0  0  0  0
  3  1  2  0  0  0  0
  4  3  1  0  0  0  0
  5  7  1  0  0  0  0
  5  3  1  0  0  0  0
  6  5  1  0  0  0  0
  7  9  2  0  0  0  0
  8  7  1  0  0  0  0
  9  1  1  0  0  0  0
  9 10  1  0  0  0  0
 10 11  1  0  0  0  0
 12 10  1  0  0  0  0
 13 10  1  0  0  0  0
 13 14  2  0  0  0  0
 14 15  1  0  0  0  0
 16 17  1  0  0  0  0
 16 14  1  0  0  0  0
 18 16  2  0  0  0  0
 19 18  1  0  0  0  0
 20 18  1  0  0  0  0
 20 13  1  0  0  0  0
M  END
