12
q = 0.0, confidence = 0.69

 25 27  0  0  1  0  0  0  0  0999 V2000
   -0.0703    0.0524    2.4145 S   0  0  0  0  0  0  0  0  0  0  0  0
   -2.5021    1.8492   -0.9900 C   0  0  0  0  0  0  0  0  0  0  0  0
   -2.3419    2.9297   -1.1155 H   0  0  0  0  0  0  0  0  0  0  0  0
   -1.7652    1.2547   -0.0309 N   0  0  0  0  0  0  0  0  0  0  0  0
   -0.6370    1.7555    2.1247 C   0  0  0  0  0  0  0  0  0  0  0  0
   -1.6156    1.9034    2.6246 H   0  0  0  0  0  0  0  0  0  0  0  0
    0.1021    2.4156    2.6180 H   0  0  0  0  0  0  0  0  0  0  0  0
   -3.5153   -0.2336   -1.6081 C   0  0  0  0  0  0  0  0  0  0  0  0
   -4.1911   -0.8297   -2.2402 H   0  0  0  0  0  0  0  0  0  0  0  0
   -1.8750   -0.1097    0.2357 C   0  0  0  0  0  0  0  0  0  0  0  0
   -1.1515   -0.7637    1.2841 C   0  0  0  0  0  0  0  0  0  0  0  0
    0.5834    2.0978   -0.1474 C   0  0  0  0  0  3  0  0  0  0  0  0
    1.3054    2.7674    0.3622 H   0  0  0  0  0  0  0  0  0  0  0  0
    0.4116    2.5117   -1.1611 H   0  0  0  0  0  0  0  0  0  0  0  0
   -3.4020    1.1378   -1.7926 C   0  0  0  0  0  0  0  0  0  0  0  0
   -3.9818    1.6743   -2.5555 H   0  0  0  0  0  0  0  0  0  0  0  0
   -0.7278    2.1093    0.6435 C   0  0  1  0  0  0  0  0  0  0  0  0
   -1.1516    3.1354    0.6003 H   0  0  0  0  0  0  0  0  0  0  0  0
   -2.7587   -0.8922   -0.6041 C   0  0  0  0  0  0  0  0  0  0  0  0
   -1.2623   -2.1561    1.4069 C   0  0  0  0  0  0  0  0  0  0  0  0
   -0.6930   -2.6582    2.2041 H   0  0  0  0  0  0  0  0  0  0  0  0
   -2.8465   -2.2983   -0.4234 C   0  0  0  0  0  3  0  0  0  0  0  0
   -3.5194   -2.8747   -1.0741 H   0  0  0  0  0  0  0  0  0  0  0  0
   -2.0875   -2.9206    0.5571 C   0  0  0  0  0  0  0  0  0  0  0  0
   -2.1385   -4.0101    0.6947 H   0  0  0  0  0  0  0  0  0  0  0  0
  2  4  1  0  0  0  0
  3  2  1  0  0  0  0
  4 10  1  0  0  0  0
  4 17  1  0  0  0  0
  5  1  1  0  0  0  0
  5  7  1  0  0  0  0
  5  6  1  0  0  0  0
  8 19  2  0  0  0  0
  9  8  1  0  0  0  0
 10 11  2  0  0  0  0
 11 20  1  0  0  0  0
 11  1  1  0  0  0  0
 12 13  1  0  0  0  0
 12 17  1  0  0  0  0
 14 12  1  0  0  0  0
 15  8  1  0  0  0  0
 15  2  2  0  0  0  0
 16 15  1  0  0  0  0
 17 18  1  6  0  0  0
 17  5  1  0  0  0  0
 19 22  1  0  0  0  0
 19 10  1  0  0  0  0
 20 21  1  0  0  0  0
 22 24  1  0  0  0  0
 23 22  1  0  0  0  0
 24 25  1  0  0  0  0
 24 20  2  0  0  0  0
M  END
