3
q = -1.0

 33 33  0  0  0  0  0  0  0  0999 V2000
    0.5220   -0.1428    1.4749 O   0  0  0  0  0  0  0  0  0  0  0  0
    3.2416    0.2206   -0.6344 N   0  3  0  0  0  0  0  0  0  0  0  0
   -1.7045   -1.9064   -0.6738 C   0  0  0  0  0  2  0  0  0  0  0  0
   -0.7692   -1.1739   -0.2394 C   0  0  0  0  0  2  0  0  0  0  0  0
    0.5441   -0.5861    0.1304 C   0  0  0  0  0  0  0  0  0  0  0  0
    0.8031    0.5818   -0.8653 C   0  0  0  0  0  0  0  0  0  0  0  0
    2.1325    1.3094   -0.6707 C   0  0  0  0  0  0  0  0  0  0  0  0
    2.4660    2.1654   -1.8988 C   0  0  0  0  0  0  0  0  0  0  0  0
    2.1968    2.1655    0.5952 C   0  0  0  0  0  0  0  0  0  0  0  0
    3.0994   -1.0642    0.2149 C   0  0  0  0  0  0  0  0  0  0  0  0
    3.4095   -0.7507    1.6818 C   0  0  0  0  0  0  0  0  0  0  0  0
    4.1541   -2.0246   -0.3520 C   0  0  0  0  0  0  0  0  0  0  0  0
    1.6805   -1.6218   -0.0075 C   0  0  0  0  0  0  0  0  0  0  0  0
   -2.2365   -2.7527   -1.1048 H   0  0  0  0  0  0  0  0  0  0  0  0
    0.7360    0.1859   -1.9016 H   0  0  0  0  0  0  0  0  0  0  0  0
   -0.0270    1.3093   -0.7251 H   0  0  0  0  0  0  0  0  0  0  0  0
    2.4723    1.5671   -2.8345 H   0  0  0  0  0  0  0  0  0  0  0  0
    3.4407    2.6864   -1.7916 H   0  0  0  0  0  0  0  0  0  0  0  0
    1.6839    2.9398   -2.0126 H   0  0  0  0  0  0  0  0  0  0  0  0
    1.4127    2.9425    0.5146 H   0  0  0  0  0  0  0  0  0  0  0  0
    3.1820    2.6681    0.6976 H   0  0  0  0  0  0  0  0  0  0  0  0
    1.9535    1.5817    1.4963 H   0  0  0  0  0  0  0  0  0  0  0  0
    4.1388    0.6740   -0.3843 H   0  0  0  0  0  0  0  0  0  0  0  0
    3.3505   -0.0939   -1.6147 H   0  0  0  0  0  0  0  0  0  0  0  0
    2.5756   -0.2095    2.1592 H   0  0  0  0  0  0  0  0  0  0  0  0
    4.3617   -0.1890    1.7862 H   0  0  0  0  0  0  0  0  0  0  0  0
    3.5311   -1.7105    2.2194 H   0  0  0  0  0  0  0  0  0  0  0  0
    5.1861   -1.6448   -0.1985 H   0  0  0  0  0  0  0  0  0  0  0  0
    3.9984   -2.2215   -1.4339 H   0  0  0  0  0  0  0  0  0  0  0  0
    4.0770   -2.9967    0.1711 H   0  0  0  0  0  0  0  0  0  0  0  0
    1.6120   -2.0734   -1.0192 H   0  0  0  0  0  0  0  0  0  0  0  0
    1.5125   -2.4356    0.7247 H   0  0  0  0  0  0  0  0  0  0  0  0
   -0.2724    0.4899    1.5264 H   0  0  0  0  0  0  0  0  0  0  0  0
  1 33  1  0  0  0  0
  2 23  1  0  0  0  0
  2 10  1  0  0  0  0
  3  4  1  0  0  0  0
  4  5  1  0  0  0  0
  5  1  1  0  0  0  0
  6 16  1  0  0  0  0
  6  7  1  0  0  0  0
  6  5  1  0  0  0  0
  7  2  1  0  0  0  0
  7  9  1  0  0  0  0
  8 18  1  0  0  0  0
  8  7  1  0  0  0  0
  9 21  1  0  0  0  0
  9 22  1  0  0  0  0
 10 11  1  0  0  0  0
 11 26  1  0  0  0  0
 11 25  1  0  0  0  0
 11 27  1  0  0  0  0
 12 28  1  0  0  0  0
 12 30  1  0  0  0  0
 12 10  1  0  0  0  0
 13  5  1  0  0  0  0
 13 10  1  0  0  0  0
 13 32  1  0  0  0  0
 14  3  1  0  0  0  0
 15  6  1  0  0  0  0
 17  8  1  0  0  0  0
 19  8  1  0  0  0  0
 20  9  1  0  0  0  0
 24  2  1  0  0  0  0
 29 12  1  0  0  0  0
 31 13  1  0  0  0  0
M  CHG  1   2   1
M  END
