24
q = -1.0

 24 25  0  0  0  0  0  0  0  0999 V2000
    7.8260   -3.7318   -0.3179 S   0  0  0  0  0  0  0  0  0  0  0  0
    8.1766   -0.8865    0.4310 S   0  0  0  0  0  0  0  0  0  0  0  0
    4.6848   -3.1310   -1.1261 S   0  0  0  0  0  0  0  0  0  0  0  0
    5.0392   -0.2764   -0.3955 S   0  0  0  0  0  0  0  0  0  0  0  0
   10.1307   -4.4920    1.0292 C   0  0  0  0  0  0  0  0  0  0  0  0
   11.0563   -4.1508    1.5293 H   0  0  0  0  0  0  0  0  0  0  0  0
   10.4239   -5.0485    0.1136 H   0  0  0  0  0  0  0  0  0  0  0  0
    9.6238   -5.2158    1.7021 H   0  0  0  0  0  0  0  0  0  0  0  0
    9.2361   -3.3376    0.6916 C   0  0  0  0  0  0  0  0  0  0  0  0
    9.3978   -2.0298    1.0353 C   0  0  0  0  0  0  0  0  0  0  0  0
   10.5100   -1.4231    1.8363 C   0  0  0  0  0  0  0  0  0  0  0  0
   11.3014   -2.1650    2.0521 H   0  0  0  0  0  0  0  0  0  0  0  0
   10.1422   -1.0223    2.8046 H   0  0  0  0  0  0  0  0  0  0  0  0
   10.9776   -0.5766    1.2895 H   0  0  0  0  0  0  0  0  0  0  0  0
    7.0786   -2.1327   -0.1805 C   0  0  0  0  0  0  0  0  0  0  0  0
    5.7788   -1.8771   -0.5186 C   0  0  0  0  0  0  0  0  0  0  0  0
    1.9031   -2.8667   -1.2004 C   0  0  0  0  0  0  0  0  0  0  0  0
    1.0913   -2.1143   -1.1913 H   0  0  0  0  0  0  0  0  0  0  0  0
    1.6762   -3.6396   -0.4351 H   0  0  0  0  0  0  0  0  0  0  0  0
    1.9057   -3.3724   -2.1892 H   0  0  0  0  0  0  0  0  0  0  0  0
    3.2096   -2.1900   -0.9321 C   0  0  0  0  0  0  0  0  0  0  0  0
    3.3550   -0.8637   -0.5863 C   0  0  0  0  0  0  0  0  0  0  0  0
    2.3118    0.0625   -0.4303 C   0  0  0  0  0  0  0  0  0  0  0  0
    1.3792    0.8769   -0.2989 C   0  0  0  0  0  3  0  0  0  0  0  0
  1 15  1  0  0  0  0
  1  9  1  0  0  0  0
  2 10  1  0  0  0  0
  3 21  1  0  0  0  0
  3 16  1  0  0  0  0
  5  6  1  0  0  0  0
  5  8  1  0  0  0  0
  7  5  1  0  0  0  0
  9  5  1  0  0  0  0
  9 10  2  0  0  0  0
 10 11  1  0  0  0  0
 11 12  1  0  0  0  0
 11 13  1  0  0  0  0
 14 11  1  0  0  0  0
 15  2  1  0  0  0  0
 16  4  1  0  0  0  0
 16 15  2  0  0  0  0
 17 18  1  0  0  0  0
 17 21  1  0  0  0  0
 17 19  1  0  0  0  0
 20 17  1  0  0  0  0
 21 22  2  0  0  0  0
 22 23  1  0  0  0  0
 22  4  1  0  0  0  0
 23 24  3  0  0  0  0
M  END
