3
q = -1.0

 40 40  0  0  1  0  0  0  0  0999 V2000
   -1.1972   -0.0565    1.3690 B   0  0  0  0  0  0  0  0  0  0  0  0
   -1.1386   -0.8868    2.2741 H   0  0  0  0  0  0  0  0  0  0  0  0
   -0.0856    1.0032    1.3034 C   0  0  0  0  0  3  0  0  0  0  0  0
    0.6340    1.0832    2.1402 H   0  0  0  0  0  0  0  0  0  0  0  0
    0.1989    1.8082    0.1392 C   0  0  0  0  0  3  0  0  0  0  0  0
   -0.6522    1.9830   -0.5427 H   0  0  0  0  0  0  0  0  0  0  0  0
    1.3751    3.2824    0.1047 Si  0  0  0  0  0  0  0  0  0  0  0  0
   -2.6493    0.0815    0.7772 C   0  0  1  0  0  3  0  0  0  0  0  0
   -3.5086   -0.9625    0.5565 N   0  0  0  0  0  0  0  0  0  0  0  0
   -4.7126   -0.5219    0.0121 C   0  0  0  0  0  0  0  0  0  0  0  0
   -4.6173    0.8493   -0.0898 C   0  0  0  0  0  0  0  0  0  0  0  0
   -3.3548    1.1964    0.4022 N   0  0  0  0  0  0  0  0  0  0  0  0
   -3.2213   -2.3510    0.8676 C   0  0  0  0  0  0  0  0  0  0  0  0
   -3.8428   -2.6919    1.7212 H   0  0  0  0  0  0  0  0  0  0  0  0
   -2.1559   -2.4292    1.1390 H   0  0  0  0  0  0  0  0  0  0  0  0
   -3.4084   -2.9867   -0.0164 H   0  0  0  0  0  0  0  0  0  0  0  0
   -5.7998   -1.4585   -0.3836 C   0  0  0  0  0  0  0  0  0  0  0  0
   -6.6689   -0.8995   -0.7764 H   0  0  0  0  0  0  0  0  0  0  0  0
   -6.1524   -2.0732    0.4710 H   0  0  0  0  0  0  0  0  0  0  0  0
   -5.4614   -2.1586   -1.1767 H   0  0  0  0  0  0  0  0  0  0  0  0
   -5.5854    1.8577   -0.6033 C   0  0  0  0  0  0  0  0  0  0  0  0
   -6.4913    1.3560   -0.9908 H   0  0  0  0  0  0  0  0  0  0  0  0
   -5.1540    2.4589   -1.4311 H   0  0  0  0  0  0  0  0  0  0  0  0
   -5.9110    2.5704    0.1845 H   0  0  0  0  0  0  0  0  0  0  0  0
   -2.9345    2.5712    0.6092 C   0  0  0  0  0  0  0  0  0  0  0  0
   -2.0439    2.5687    1.2604 H   0  0  0  0  0  0  0  0  0  0  0  0
   -3.7515    3.1414    1.0935 H   0  0  0  0  0  0  0  0  0  0  0  0
   -2.6721    3.0644   -0.3478 H   0  0  0  0  0  0  0  0  0  0  0  0
    2.0495    3.6504    1.8407 C   0  0  0  0  0  0  0  0  0  0  0  0
    1.2201    3.8048    2.5610 H   0  0  0  0  0  0  0  0  0  0  0  0
    2.6693    4.5710    1.8300 H   0  0  0  0  0  0  0  0  0  0  0  0
    2.6816    2.8261    2.2253 H   0  0  0  0  0  0  0  0  0  0  0  0
    0.3305    4.7717   -0.4535 C   0  0  0  0  0  0  0  0  0  0  0  0
   -0.0936    4.5920   -1.4636 H   0  0  0  0  0  0  0  0  0  0  0  0
    0.9355    5.7009   -0.5017 H   0  0  0  0  0  0  0  0  0  0  0  0
   -0.5143    4.9530    0.2435 H   0  0  0  0  0  0  0  0  0  0  0  0
    2.8161    3.1067   -1.1118 C   0  0  0  0  0  0  0  0  0  0  0  0
    3.5211    2.3166   -0.7854 H   0  0  0  0  0  0  0  0  0  0  0  0
    3.3822    4.0576   -1.1923 H   0  0  0  0  0  0  0  0  0  0  0  0
    2.4475    2.8278   -2.1188 H   0  0  0  0  0  0  0  0  0  0  0  0
  1  2  1  0  0  0  0
  3  1  1  0  0  0  0
  3  4  1  0  0  0  0
  5  3  1  0  0  0  0
  6  5  1  0  0  0  0
  7  5  1  0  0  0  0
  7 29  1  0  0  0  0
  8  1  1  1  0  0  0
  9  8  1  0  0  0  0
  9 13  1  0  0  0  0
 10  9  1  0  0  0  0
 11 10  2  0  0  0  0
 11 12  1  0  0  0  0
 12 25  1  0  0  0  0
 12  8  1  0  0  0  0
 13 15  1  0  0  0  0
 13 14  1  0  0  0  0
 16 13  1  0  0  0  0
 17 10  1  0  0  0  0
 17 19  1  0  0  0  0
 18 17  1  0  0  0  0
 20 17  1  0  0  0  0
 21 11  1  0  0  0  0
 21 24  1  0  0  0  0
 22 21  1  0  0  0  0
 23 21  1  0  0  0  0
 25 27  1  0  0  0  0
 25 26  1  0  0  0  0
 28 25  1  0  0  0  0
 29 32  1  0  0  0  0
 29 30  1  0  0  0  0
 31 29  1  0  0  0  0
 33  7  1  0  0  0  0
 33 36  1  0  0  0  0
 34 33  1  0  0  0  0
 35 33  1  0  0  0  0
 37 38  1  0  0  0  0
 37  7  1  0  0  0  0
 39 37  1  0  0  0  0
 40 37  1  0  0  0  0
M  END
