9
q = -1.0

 21 22  0  0  0  0  0  0  0  0999 V2000
   -0.1383   -1.6401    2.0234 F   0  0  0  0  0  0  0  0  0  0  0  0
   -2.7826   -1.1773    2.1059 F   0  0  0  0  0  0  0  0  0  0  0  0
   -2.6956    0.1787   -2.4505 F   0  0  0  0  0  0  0  0  0  0  0  0
   -0.0515   -0.2700   -2.5427 F   0  0  0  0  0  0  0  0  0  0  0  0
   -4.7845   -2.4193    0.5823 F   0  0  0  0  0  0  0  0  0  0  0  0
   -7.4280   -1.8551    0.7294 F   0  0  0  0  0  0  0  0  0  0  0  0
   -6.5639    2.5959   -0.6804 F   0  0  0  0  0  0  0  0  0  0  0  0
   -3.9170    2.0556   -0.7892 F   0  0  0  0  0  0  0  0  0  0  0  0
   -0.0115   -0.9630   -0.2599 C   0  0  0  0  0  3  0  0  0  0  0  0
   -0.7549   -1.2375    0.8922 C   0  0  0  0  0  0  0  0  0  0  0  0
   -2.1334   -0.9959    0.9457 C   0  0  0  0  0  0  0  0  0  0  0  0
   -2.8272   -0.5017   -0.1754 C   0  0  0  0  0  0  0  0  0  0  0  0
   -2.0819   -0.2712   -1.3476 C   0  0  0  0  0  0  0  0  0  0  0  0
   -0.6995   -0.5119   -1.3880 C   0  0  0  0  0  0  0  0  0  0  0  0
   -4.2739   -0.2024   -0.1119 C   0  0  0  0  0  0  0  0  0  0  0  0
   -5.2034   -1.1864    0.2823 C   0  0  0  0  0  0  0  0  0  0  0  0
   -6.5760   -0.8940    0.3530 C   0  0  0  0  0  0  0  0  0  0  0  0
   -7.0502    0.3796    0.0241 C   0  0  0  0  0  0  0  0  0  0  0  0
   -8.1239    0.6038    0.0761 H   0  0  0  0  0  0  0  0  0  0  0  0
   -6.1386    1.3636   -0.3704 C   0  0  0  0  0  0  0  0  0  0  0  0
   -4.7654    1.0788   -0.4350 C   0  0  0  0  0  0  0  0  0  0  0  0
  3 13  1  0  0  0  0
  4 14  1  0  0  0  0
  7 20  1  0  0  0  0
  8 21  1  0  0  0  0
  9 10  1  0  0  0  0
 10 11  2  0  0  0  0
 10  1  1  0  0  0  0
 11  2  1  0  0  0  0
 12 15  1  0  0  0  0
 12 11  1  0  0  0  0
 13 12  2  0  0  0  0
 14 13  1  0  0  0  0
 14  9  2  0  0  0  0
 15 16  1  0  0  0  0
 16 17  2  0  0  0  0
 16  5  1  0  0  0  0
 17  6  1  0  0  0  0
 18 19  1  0  0  0  0
 18 17  1  0  0  0  0
 20 18  2  0  0  0  0
 21 20  1  0  0  0  0
 21 15  2  0  0  0  0
M  END
