4
q = 0.0, confidence = 1.0

 29 29  0  0  0  0  0  0  0  0999 V2000
   -2.2817   -1.7349   -0.2975 N   0  0  0  0  0  0  0  0  0  0  0  0
   -2.5877    0.1586    0.7185 N   0  0  0  0  0  0  0  0  0  0  0  0
   -0.4509    1.8106   -1.2093 N   0  0  0  0  0  0  0  0  0  0  0  0
   -1.6276   -0.5862    0.0722 C   0  0  0  0  0  2  0  0  0  0  0  0
   -3.6133   -1.6961    0.0953 C   0  0  0  0  0  0  0  0  0  0  0  0
   -4.3021   -2.5212   -0.1088 H   0  0  0  0  0  0  0  0  0  0  0  0
   -3.8097   -0.5018    0.7309 C   0  0  0  0  0  0  0  0  0  0  0  0
   -4.7047   -0.0711    1.1898 H   0  0  0  0  0  0  0  0  0  0  0  0
   -1.6900   -2.9164   -0.9171 C   0  0  0  0  0  0  0  0  0  0  0  0
   -0.7682   -2.6218   -1.4481 H   0  0  0  0  0  0  0  0  0  0  0  0
   -2.4051   -3.3383   -1.6471 H   0  0  0  0  0  0  0  0  0  0  0  0
   -1.4708   -3.6811   -0.1451 H   0  0  0  0  0  0  0  0  0  0  0  0
   -2.3636    1.4456    1.3769 C   0  0  0  0  0  0  0  0  0  0  0  0
   -1.4589    1.3496    2.0025 H   0  0  0  0  0  0  0  0  0  0  0  0
   -3.2230    1.5965    2.0574 H   0  0  0  0  0  0  0  0  0  0  0  0
   -2.2357    2.6539    0.4489 C   0  0  0  0  0  0  0  0  0  0  0  0
   -2.3898    3.5572    1.0754 H   0  0  0  0  0  0  0  0  0  0  0  0
   -3.0714    2.6608   -0.2801 H   0  0  0  0  0  0  0  0  0  0  0  0
   -0.8923    2.8635   -0.2462 C   0  0  0  0  0  0  0  0  0  0  0  0
   -0.9460    3.8277   -0.8020 H   0  0  0  0  0  0  0  0  0  0  0  0
   -0.0863    2.9709    0.5066 H   0  0  0  0  0  0  0  0  0  0  0  0
   -1.5277    1.5400   -2.1996 C   0  0  0  0  0  0  0  0  0  0  0  0
   -1.8228    2.4887   -2.6975 H   0  0  0  0  0  0  0  0  0  0  0  0
   -2.4103    1.0971   -1.7098 H   0  0  0  0  0  0  0  0  0  0  0  0
   -1.1457    0.8220   -2.9453 H   0  0  0  0  0  0  0  0  0  0  0  0
    0.7204    2.3427   -1.9597 C   0  0  0  0  0  0  0  0  0  0  0  0
    0.4178    3.2327   -2.5535 H   0  0  0  0  0  0  0  0  0  0  0  0
    1.0992    1.5527   -2.6324 H   0  0  0  0  0  0  0  0  0  0  0  0
    1.5115    2.6390   -1.2514 H   0  0  0  0  0  0  0  0  0  0  0  0
  1  4  1  0  0  0  0
  1  5  1  0  0  0  0
  2  7  1  0  0  0  0
  2 13  1  0  0  0  0
  3 19  1  0  0  0  0
  4  2  1  0  0  0  0
  5  7  2  0  0  0  0
  6  5  1  0  0  0  0
  7  8  1  0  0  0  0
  9  1  1  0  0  0  0
  9 12  1  0  0  0  0
 10  9  1  0  0  0  0
 11  9  1  0  0  0  0
 13 14  1  0  0  0  0
 13 15  1  0  0  0  0
 16 17  1  0  0  0  0
 16 13  1  0  0  0  0
 18 16  1  0  0  0  0
 19 16  1  0  0  0  0
 19 21  1  0  0  0  0
 20 19  1  0  0  0  0
 22 24  1  0  0  0  0
 22  3  1  0  0  0  0
 23 22  1  0  0  0  0
 25 22  1  0  0  0  0
 26 29  1  0  0  0  0
 26  3  1  0  0  0  0
 27 26  1  0  0  0  0
 28 26  1  0  0  0  0
M  END
