11
q = -1.0

 22 22  0  0  1  0  0  0  0  0999 V2000
    1.4547    2.0028    0.6195 O   0  0  0  0  0  0  0  0  0  0  0  0
   -3.7113    2.5732    1.5242 C   0  0  0  0  0  0  0  0  0  0  0  0
   -3.8784    3.5738    1.0770 H   0  0  0  0  0  0  0  0  0  0  0  0
   -4.6732    2.0907    1.7710 H   0  0  0  0  0  0  0  0  0  0  0  0
   -3.0953    2.6974    2.4374 H   0  0  0  0  0  0  0  0  0  0  0  0
    2.2025    2.0497   -1.5302 O   0  0  0  0  0  0  0  0  0  0  0  0
    1.3060    1.7560   -0.5626 C   0  0  0  0  0  0  0  0  0  0  0  0
   -1.3424    3.1892    0.4722 O   0  0  0  0  0  0  0  0  0  0  0  0
   -3.0581    1.7001    0.5940 O   0  0  0  0  0  0  0  0  0  0  0  0
   -1.8528    2.1363    0.1474 C   0  0  0  0  0  0  0  0  0  0  0  0
   -1.2658    1.1691   -0.8230 C   0  0  1  0  0  3  0  0  0  0  0  0
   -1.0866   -0.3535   -2.5614 C   0  0  0  0  0  0  0  0  0  0  0  0
   -1.3475   -1.0868   -3.3346 H   0  0  0  0  0  0  0  0  0  0  0  0
   -2.0079    0.3003   -1.6922 C   0  0  0  0  0  0  0  0  0  0  0  0
   -3.0976    0.1863   -1.6818 H   0  0  0  0  0  0  0  0  0  0  0  0
    0.1363    1.0538   -1.1755 C   0  0  0  0  0  0  0  0  0  0  0  0
    0.2302    0.1107   -2.2489 C   0  0  0  0  0  0  0  0  0  0  0  0
    1.1704   -0.1805   -2.7297 H   0  0  0  0  0  0  0  0  0  0  0  0
    3.4590    2.5706   -1.0766 C   0  0  0  0  0  0  0  0  0  0  0  0
    4.0391    1.7555   -0.6004 H   0  0  0  0  0  0  0  0  0  0  0  0
    3.9819    2.9377   -1.9775 H   0  0  0  0  0  0  0  0  0  0  0  0
    3.3057    3.3919   -0.3494 H   0  0  0  0  0  0  0  0  0  0  0  0
  2  4  1  0  0  0  0
  2  5  1  0  0  0  0
  3  2  1  0  0  0  0
  6 19  1  0  0  0  0
  6  7  1  0  0  0  0
  7  1  2  0  0  0  0
  9  2  1  0  0  0  0
 10  8  2  0  0  0  0
 10  9  1  0  0  0  0
 11 10  1  6  0  0  0
 12 17  1  0  0  0  0
 12 14  2  0  0  0  0
 13 12  1  0  0  0  0
 14 15  1  0  0  0  0
 14 11  1  0  0  0  0
 16 11  1  0  0  0  0
 16  7  1  0  0  0  0
 17 16  2  0  0  0  0
 18 17  1  0  0  0  0
 19 20  1  0  0  0  0
 19 22  1  0  0  0  0
 21 19  1  0  0  0  0
M  END
