6
q = 0.0, confidence = 1.0

 55 60  0  0  0  0  0  0  0  0999 V2000
    3.7872    1.3815   -1.8070 O   0  0  0  0  0  0  0  0  0  0  0  0
   -1.8551    2.3642    0.5280 N   0  0  0  0  0  0  0  0  0  0  0  0
   -0.1824    1.2008   -0.2897 N   0  0  0  0  0  0  0  0  0  0  0  0
    4.6123    0.2710    0.1159 N   0  0  0  0  0  0  0  0  0  0  0  0
    5.4673   -0.2552   -1.8835 N   0  0  0  0  0  0  0  0  0  0  0  0
   -1.4827    1.0944    0.1718 C   0  0  0  0  0  2  0  0  0  0  0  0
    0.2492    2.5352   -0.2579 C   0  0  0  0  0  0  0  0  0  0  0  0
   -0.8305    3.2762    0.2764 C   0  0  0  0  0  0  0  0  0  0  0  0
   -0.7502    4.6632    0.4586 C   0  0  0  0  0  0  0  0  0  0  0  0
   -1.5935    5.2387    0.8652 H   0  0  0  0  0  0  0  0  0  0  0  0
    0.4539    5.2833    0.0884 C   0  0  0  0  0  0  0  0  0  0  0  0
    0.5585    6.3712    0.2144 H   0  0  0  0  0  0  0  0  0  0  0  0
    1.5263    4.5399   -0.4509 C   0  0  0  0  0  0  0  0  0  0  0  0
    2.4523    5.0604   -0.7368 H   0  0  0  0  0  0  0  0  0  0  0  0
    1.4469    3.1505   -0.6399 C   0  0  0  0  0  0  0  0  0  0  0  0
    2.2802    2.5723   -1.0664 H   0  0  0  0  0  0  0  0  0  0  0  0
    0.5729    0.0478   -0.6811 C   0  0  0  0  0  0  0  0  0  0  0  0
    0.0533   -0.7413   -1.7216 C   0  0  0  0  0  0  0  0  0  0  0  0
   -0.8511   -0.3964   -2.2435 H   0  0  0  0  0  0  0  0  0  0  0  0
    0.6791   -1.9434   -2.0745 C   0  0  0  0  0  0  0  0  0  0  0  0
    0.2638   -2.5537   -2.8900 H   0  0  0  0  0  0  0  0  0  0  0  0
    1.8187   -2.3644   -1.3726 C   0  0  0  0  0  0  0  0  0  0  0  0
    2.3033   -3.3213   -1.6186 H   0  0  0  0  0  0  0  0  0  0  0  0
    2.3466   -1.5661   -0.3508 C   0  0  0  0  0  0  0  0  0  0  0  0
    3.2277   -1.9156    0.2063 H   0  0  0  0  0  0  0  0  0  0  0  0
    1.7497   -0.3357    0.0123 C   0  0  0  0  0  0  0  0  0  0  0  0
    2.3487    0.4860    1.0999 C   0  0  0  0  0  0  0  0  0  0  0  0
    1.5615    0.9968    2.1558 C   0  0  0  0  0  0  0  0  0  0  0  0
    0.4872    0.7682    2.1770 H   0  0  0  0  0  0  0  0  0  0  0  0
    2.1193    1.7641    3.1848 C   0  0  0  0  0  0  0  0  0  0  0  0
    1.4743    2.1389    3.9933 H   0  0  0  0  0  0  0  0  0  0  0  0
    3.4922    2.0523    3.1835 C   0  0  0  0  0  0  0  0  0  0  0  0
    3.9365    2.6635    3.9830 H   0  0  0  0  0  0  0  0  0  0  0  0
    4.2967    1.5610    2.1487 C   0  0  0  0  0  0  0  0  0  0  0  0
    5.3739    1.7803    2.1166 H   0  0  0  0  0  0  0  0  0  0  0  0
    3.7390    0.7820    1.1198 C   0  0  0  0  0  0  0  0  0  0  0  0
    4.5220    0.5698   -1.2598 C   0  0  0  0  0  0  0  0  0  0  0  0
    6.1237   -1.0407   -0.9452 C   0  0  0  0  0  0  0  0  0  0  0  0
    5.5863   -0.7105    0.3270 C   0  0  0  0  0  0  0  0  0  0  0  0
    6.0155   -1.3598    1.4872 C   0  0  0  0  0  0  0  0  0  0  0  0
    5.5842   -1.1096    2.4665 H   0  0  0  0  0  0  0  0  0  0  0  0
    7.0180   -2.3409    1.3500 C   0  0  0  0  0  0  0  0  0  0  0  0
    7.3793   -2.8665    2.2461 H   0  0  0  0  0  0  0  0  0  0  0  0
    7.5615   -2.6591    0.0922 C   0  0  0  0  0  0  0  0  0  0  0  0
    8.3441   -3.4284    0.0181 H   0  0  0  0  0  0  0  0  0  0  0  0
    7.1188   -2.0140   -1.0796 C   0  0  0  0  0  0  0  0  0  0  0  0
    7.5356   -2.2690   -2.0642 H   0  0  0  0  0  0  0  0  0  0  0  0
   -3.1735    2.7202    1.0168 C   0  0  0  0  0  0  0  0  0  0  0  0
   -3.7055    3.3438    0.2707 H   0  0  0  0  0  0  0  0  0  0  0  0
   -3.0920    3.2720    1.9749 H   0  0  0  0  0  0  0  0  0  0  0  0
   -3.7409    1.7804    1.1615 H   0  0  0  0  0  0  0  0  0  0  0  0
    5.6703   -0.2609   -3.3124 C   0  0  0  0  0  0  0  0  0  0  0  0
    5.4491   -1.2608   -3.7408 H   0  0  0  0  0  0  0  0  0  0  0  0
    6.7129    0.0182   -3.5709 H   0  0  0  0  0  0  0  0  0  0  0  0
    4.9744    0.4817   -3.7459 H   0  0  0  0  0  0  0  0  0  0  0  0
  1 37  2  0  0  0  0
  2 48  1  0  0  0  0
  3  7  1  0  0  0  0
  3  6  1  0  0  0  0
  4 39  1  0  0  0  0
  4 36  1  0  0  0  0
  5 37  1  0  0  0  0
  5 38  1  0  0  0  0
  6  2  1  0  0  0  0
  7  8  1  0  0  0  0
  8  9  2  0  0  0  0
  8  2  1  0  0  0  0
  9 10  1  0  0  0  0
 11 12  1  0  0  0  0
 11  9  1  0  0  0  0
 13 11  2  0  0  0  0
 14 13  1  0  0  0  0
 15 13  1  0  0  0  0
 15  7  2  0  0  0  0
 16 15  1  0  0  0  0
 17  3  1  0  0  0  0
 17 26  1  0  0  0  0
 18 17  2  0  0  0  0
 19 18  1  0  0  0  0
 20 18  1  0  0  0  0
 20 22  2  0  0  0  0
 21 20  1  0  0  0  0
 22 24  1  0  0  0  0
 23 22  1  0  0  0  0
 24 26  2  0  0  0  0
 24 25  1  0  0  0  0
 26 27  1  0  0  0  0
 27 36  2  0  0  0  0
 27 28  1  0  0  0  0
 28 29  1  0  0  0  0
 28 30  2  0  0  0  0
 30 31  1  0  0  0  0
 32 30  1  0  0  0  0
 32 33  1  0  0  0  0
 34 32  2  0  0  0  0
 35 34  1  0  0  0  0
 36 34  1  0  0  0  0
 37  4  1  0  0  0  0
 38 39  1  0  0  0  0
 39 40  2  0  0  0  0
 40 41  1  0  0  0  0
 42 40  1  0  0  0  0
 42 43  1  0  0  0  0
 44 42  2  0  0  0  0
 45 44  1  0  0  0  0
 46 38  2  0  0  0  0
 46 44  1  0  0  0  0
 47 46  1  0  0  0  0
 48 51  1  0  0  0  0
 48 50  1  0  0  0  0
 49 48  1  0  0  0  0
 52  5  1  0  0  0  0
 53 52  1  0  0  0  0
 54 52  1  0  0  0  0
 55 52  1  0  0  0  0
M  END
