13
q = -1.0

 22 22  0  0  1  0  0  0  0  0999 V2000
    2.1550   -0.6371    1.5692 F   0  0  0  0  0  0  0  0  0  0  0  0
    1.9572    1.3460    0.5910 F   0  0  0  0  0  0  0  0  0  0  0  0
    3.3497   -1.5597   -0.8399 F   0  0  0  0  0  0  0  0  0  0  0  0
    3.3392    0.5346   -1.5411 F   0  0  0  0  0  0  0  0  0  0  0  0
    4.5817    1.1348    1.0675 F   0  0  0  0  0  0  0  0  0  0  0  0
    4.8639   -1.0495    1.2102 F   0  0  0  0  0  0  0  0  0  0  0  0
    7.0421    0.0505    0.2342 F   0  0  0  0  0  0  0  0  0  0  0  0
    5.9508    1.2495   -1.2242 F   0  0  0  0  0  0  0  0  0  0  0  0
    5.9973   -0.9293   -1.4146 F   0  0  0  0  0  0  0  0  0  0  0  0
    0.1855    0.1429   -1.4901 C   0  0  0  0  0  0  0  0  0  0  0  0
   -0.7501   -0.7632   -2.0417 C   0  0  0  0  0  0  0  0  0  0  0  0
   -0.7036   -2.0061   -1.3113 C   0  0  0  0  0  3  0  0  0  0  0  0
    0.3335   -1.8550   -0.3187 C   0  0  0  0  0  3  0  0  0  0  0  0
    0.8386   -0.4928   -0.3772 C   0  0  1  0  0  3  0  0  0  0  0  0
    2.0369    0.0141    0.3607 C   0  0  0  0  0  0  0  0  0  0  0  0
    3.3559   -0.2610   -0.4384 C   0  0  0  0  0  0  0  0  0  0  0  0
    4.6781   -0.0139    0.3575 C   0  0  0  0  0  0  0  0  0  0  0  0
    5.9505    0.0947   -0.5452 C   0  0  0  0  0  0  0  0  0  0  0  0
    0.3407    1.1786   -1.8064 H   0  0  0  0  0  0  0  0  0  0  0  0
   -1.4410   -0.5298   -2.8574 H   0  0  0  0  0  0  0  0  0  0  0  0
   -1.2541   -2.9185   -1.5620 H   0  0  0  0  0  0  0  0  0  0  0  0
    0.7606   -2.6522    0.2923 H   0  0  0  0  0  0  0  0  0  0  0  0
  3 16  1  0  0  0  0
  4 16  1  0  0  0  0
  8 18  1  0  0  0  0
  9 18  1  0  0  0  0
 10 14  1  0  0  0  0
 11 10  2  0  0  0  0
 11 12  1  0  0  0  0
 12 13  1  0  0  0  0
 13 22  1  0  0  0  0
 14 13  1  0  0  0  0
 14 15  1  6  0  0  0
 15  2  1  0  0  0  0
 15  1  1  0  0  0  0
 16 17  1  0  0  0  0
 16 15  1  0  0  0  0
 17  5  1  0  0  0  0
 17  6  1  0  0  0  0
 18  7  1  0  0  0  0
 18 17  1  0  0  0  0
 19 10  1  0  0  0  0
 20 11  1  0  0  0  0
 21 12  1  0  0  0  0
M  END
