3
q = 0.0, confidence = 0.992

 20 20  0  0  0  0  0  0  0  0999 V2000
    3.4904   -0.8346    0.0030 N   0  0  0  0  0  0  0  0  0  0  0  0
   -0.0625    2.3396   -0.0528 O   0  0  0  0  0  0  0  0  0  0  0  0
    0.2237    1.0255   -0.0248 C   0  0  0  0  0  3  0  0  0  0  0  0
    1.6552    0.8675   -0.0063 C   0  0  0  0  0  0  0  0  0  0  0  0
    2.3160    2.2359    0.0746 C   0  0  0  0  0  0  0  0  0  0  0  0
    3.1077    2.3880   -0.6860 H   0  0  0  0  0  0  0  0  0  0  0  0
    2.7716    2.4165    1.0727 H   0  0  0  0  0  0  0  0  0  0  0  0
    1.1245    3.1721   -0.1677 C   0  0  0  0  0  0  0  0  0  0  0  0
    1.0288    3.9932    0.5682 H   0  0  0  0  0  0  0  0  0  0  0  0
    1.1196    3.6091   -1.1880 H   0  0  0  0  0  0  0  0  0  0  0  0
    2.2128   -0.4008   -0.0400 C   0  0  0  0  0  3  0  0  0  0  0  0
    1.4864   -1.2204   -0.1239 H   0  0  0  0  0  0  0  0  0  0  0  0
    3.7759   -2.2538   -0.1494 C   0  0  0  0  0  0  0  0  0  0  0  0
    2.8344   -2.8189   -0.2710 H   0  0  0  0  0  0  0  0  0  0  0  0
    4.3163   -2.6433    0.7403 H   0  0  0  0  0  0  0  0  0  0  0  0
    4.4125   -2.4324   -1.0434 H   0  0  0  0  0  0  0  0  0  0  0  0
    4.6643    0.0079    0.1519 C   0  0  0  0  0  0  0  0  0  0  0  0
    5.2600    0.0323   -0.7874 H   0  0  0  0  0  0  0  0  0  0  0  0
    5.3163   -0.3970    0.9546 H   0  0  0  0  0  0  0  0  0  0  0  0
    4.3825    1.0366    0.4218 H   0  0  0  0  0  0  0  0  0  0  0  0
  1 17  1  0  0  0  0
  2  3  1  0  0  0  0
  3  4  2  0  0  0  0
  4  5  1  0  0  0  0
  5  7  1  0  0  0  0
  6  5  1  0  0  0  0
  8  2  1  0  0  0  0
  8  5  1  0  0  0  0
  8  9  1  0  0  0  0
 10  8  1  0  0  0  0
 11  4  1  0  0  0  0
 11  1  1  0  0  0  0
 12 11  1  0  0  0  0
 13  1  1  0  0  0  0
 13 15  1  0  0  0  0
 14 13  1  0  0  0  0
 16 13  1  0  0  0  0
 17 20  1  0  0  0  0
 17 19  1  0  0  0  0
 18 17  1  0  0  0  0
M  END
