1
q = 0.0, confidence = 0.98

 28 28  0  0  0  0  0  0  0  0999 V2000
   -1.6142    1.1757   -0.0185 C   0  0  0  0  0  3  0  0  0  0  0  0
   -2.3622    2.2931   -0.0380 O   0  0  0  0  0  0  0  0  0  0  0  0
    2.2210    1.0305    0.0025 C   0  0  0  0  0  0  0  0  0  0  0  0
    2.4994    2.0983    0.0273 H   0  0  0  0  0  0  0  0  0  0  0  0
    5.5606   -0.6728    0.0023 C   0  0  0  0  0  0  0  0  0  0  0  0
    5.2022   -1.7150   -0.0448 H   0  0  0  0  0  0  0  0  0  0  0  0
    3.2314    0.0823   -0.0038 C   0  0  0  0  0  3  0  0  0  0  0  0
    2.9234   -0.9798   -0.0250 H   0  0  0  0  0  0  0  0  0  0  0  0
   -0.2216    1.5553   -0.0120 C   0  0  0  0  0  0  0  0  0  0  0  0
    4.6272    0.3497    0.0133 C   0  0  0  0  0  0  0  0  0  0  0  0
    4.9536    1.4016    0.0307 H   0  0  0  0  0  0  0  0  0  0  0  0
   -0.1054    3.0695    0.0265 C   0  0  0  0  0  0  0  0  0  0  0  0
    0.3515    3.4128    0.9793 H   0  0  0  0  0  0  0  0  0  0  0  0
    0.5274    3.4613   -0.7962 H   0  0  0  0  0  0  0  0  0  0  0  0
    0.8466    0.6768   -0.0179 C   0  0  0  0  0  0  0  0  0  0  0  0
    0.6118   -0.3983   -0.0411 H   0  0  0  0  0  0  0  0  0  0  0  0
    6.9116   -0.5471    0.0539 N   0  0  0  0  0  0  0  0  0  0  0  0
   -1.5658    3.5138   -0.1042 C   0  0  0  0  0  0  0  0  0  0  0  0
   -1.9183    4.1774    0.7095 H   0  0  0  0  0  0  0  0  0  0  0  0
   -1.7967    3.9972   -1.0755 H   0  0  0  0  0  0  0  0  0  0  0  0
    7.7799   -1.6942   -0.1369 C   0  0  0  0  0  0  0  0  0  0  0  0
    7.1854   -2.6253   -0.0861 H   0  0  0  0  0  0  0  0  0  0  0  0
    8.5595   -1.7349    0.6530 H   0  0  0  0  0  0  0  0  0  0  0  0
    8.2924   -1.6650   -1.1252 H   0  0  0  0  0  0  0  0  0  0  0  0
    7.5257    0.7664    0.1111 C   0  0  0  0  0  0  0  0  0  0  0  0
    7.4108    1.3210   -0.8478 H   0  0  0  0  0  0  0  0  0  0  0  0
    8.6047    0.6613    0.3277 H   0  0  0  0  0  0  0  0  0  0  0  0
    7.0661    1.3758    0.9165 H   0  0  0  0  0  0  0  0  0  0  0  0
  1  9  2  0  0  0  0
  2  1  1  0  0  0  0
  3  4  1  0  0  0  0
  5 10  2  0  0  0  0
  5 17  1  0  0  0  0
  6  5  1  0  0  0  0
  7  3  1  0  0  0  0
  7 10  1  0  0  0  0
  8  7  1  0  0  0  0
  9 12  1  0  0  0  0
 10 11  1  0  0  0  0
 12 13  1  0  0  0  0
 14 12  1  0  0  0  0
 15  9  1  0  0  0  0
 15  3  2  0  0  0  0
 16 15  1  0  0  0  0
 17 25  1  0  0  0  0
 18  2  1  0  0  0  0
 18 12  1  0  0  0  0
 18 19  1  0  0  0  0
 20 18  1  0  0  0  0
 21 22  1  0  0  0  0
 21 17  1  0  0  0  0
 21 23  1  0  0  0  0
 24 21  1  0  0  0  0
 25 27  1  0  0  0  0
 25 28  1  0  0  0  0
 26 25  1  0  0  0  0
M  END
