5
q = -1.0

 44 46  0  0  0  0  0  0  0  0999 V2000
   -1.4673    0.3500   -0.0034 As  0  0  0  0  0  0  0  0  0  0  0  0
    0.6325    3.8982   -0.3923 O   0  0  0  0  0  0  0  0  0  0  0  0
    2.2536    1.9138   -0.1235 N   0  0  0  0  0  0  0  0  0  0  0  0
    1.9445    2.9158   -0.2421 H   0  0  0  0  0  0  0  0  0  0  0  0
    1.2103    1.0661   -0.0817 C   0  0  0  0  0  3  0  0  0  0  0  0
   -0.0995    1.6705   -0.1507 C   0  0  0  0  0  0  0  0  0  0  0  0
   -0.3316    3.0946   -0.3508 C   0  0  0  0  0  0  0  0  0  0  0  0
   -1.7219    3.6785   -0.5452 C   0  0  0  0  0  0  0  0  0  0  0  0
   -2.2620    3.2020   -1.3861 H   0  0  0  0  0  0  0  0  0  0  0  0
   -1.5979    4.7561   -0.7550 H   0  0  0  0  0  0  0  0  0  0  0  0
   -2.3545    3.5555    0.3557 H   0  0  0  0  0  0  0  0  0  0  0  0
    3.6391    1.6672   -0.0714 C   0  0  0  0  0  0  0  0  0  0  0  0
    4.2119    0.5209    0.5173 C   0  0  0  0  0  0  0  0  0  0  0  0
    3.5613   -0.2437    0.9688 H   0  0  0  0  0  0  0  0  0  0  0  0
    5.6040    0.3645    0.5302 C   0  0  0  0  0  0  0  0  0  0  0  0
    6.0355   -0.5379    0.9893 H   0  0  0  0  0  0  0  0  0  0  0  0
    6.4439    1.3461   -0.0204 C   0  0  0  0  0  0  0  0  0  0  0  0
    7.5363    1.2160   -0.0033 H   0  0  0  0  0  0  0  0  0  0  0  0
    5.8758    2.4995   -0.5853 C   0  0  0  0  0  0  0  0  0  0  0  0
    6.5203    3.2809   -1.0158 H   0  0  0  0  0  0  0  0  0  0  0  0
    4.4855    2.6615   -0.6119 C   0  0  0  0  0  0  0  0  0  0  0  0
    4.0360    3.5588   -1.0647 H   0  0  0  0  0  0  0  0  0  0  0  0
   -1.2156   -0.6877    1.6153 C   0  0  0  0  0  0  0  0  0  0  0  0
   -0.7734   -0.0007    2.7622 C   0  0  0  0  0  0  0  0  0  0  0  0
   -0.5253    1.0707    2.7049 H   0  0  0  0  0  0  0  0  0  0  0  0
   -0.6031   -0.7050    3.9630 C   0  0  0  0  0  0  0  0  0  0  0  0
   -0.2464   -0.1753    4.8591 H   0  0  0  0  0  0  0  0  0  0  0  0
   -0.8641   -2.0838    4.0130 C   0  0  0  0  0  0  0  0  0  0  0  0
   -0.7133   -2.6372    4.9520 H   0  0  0  0  0  0  0  0  0  0  0  0
   -1.2936   -2.7618    2.8614 C   0  0  0  0  0  0  0  0  0  0  0  0
   -1.4643   -3.8479    2.8889 H   0  0  0  0  0  0  0  0  0  0  0  0
   -1.4759   -2.0677    1.6573 C   0  0  0  0  0  0  0  0  0  0  0  0
   -1.7531   -2.6168    0.7469 H   0  0  0  0  0  0  0  0  0  0  0  0
   -1.6529   -0.7814   -1.5659 C   0  0  0  0  0  0  0  0  0  0  0  0
   -2.6972   -1.7237   -1.6247 C   0  0  0  0  0  0  0  0  0  0  0  0
   -3.4184   -1.8160   -0.7984 H   0  0  0  0  0  0  0  0  0  0  0  0
   -2.8235   -2.5425   -2.7573 C   0  0  0  0  0  0  0  0  0  0  0  0
   -3.6306   -3.2889   -2.8031 H   0  0  0  0  0  0  0  0  0  0  0  0
   -1.9240   -2.4075   -3.8266 C   0  0  0  0  0  0  0  0  0  0  0  0
   -2.0232   -3.0543   -4.7113 H   0  0  0  0  0  0  0  0  0  0  0  0
   -0.8995   -1.4491   -3.7710 C   0  0  0  0  0  0  0  0  0  0  0  0
   -0.1951   -1.3420   -4.6091 H   0  0  0  0  0  0  0  0  0  0  0  0
   -0.7570   -0.6335   -2.6393 C   0  0  0  0  0  0  0  0  0  0  0  0
    0.0565    0.1047   -2.5799 H   0  0  0  0  0  0  0  0  0  0  0  0
  1 23  1  0  0  0  0
  2  7  2  0  0  0  0
  3  5  1  0  0  0  0
  3 12  1  0  0  0  0
  4  3  1  0  0  0  0
  6  5  2  0  0  0  0
  6  1  1  0  0  0  0
  7  6  1  0  0  0  0
  8  7  1  0  0  0  0
  8 11  1  0  0  0  0
  9  8  1  0  0  0  0
 10  8  1  0  0  0  0
 12 13  1  0  0  0  0
 13 15  2  0  0  0  0
 13 14  1  0  0  0  0
 15 16  1  0  0  0  0
 17 18  1  0  0  0  0
 17 15  1  0  0  0  0
 19 17  2  0  0  0  0
 20 19  1  0  0  0  0
 21 19  1  0  0  0  0
 21 12  2  0  0  0  0
 22 21  1  0  0  0  0
 23 32  2  0  0  0  0
 23 24  1  0  0  0  0
 24 26  2  0  0  0  0
 25 24  1  0  0  0  0
 26 28  1  0  0  0  0
 26 27  1  0  0  0  0
 28 29  1  0  0  0  0
 30 31  1  0  0  0  0
 30 28  2  0  0  0  0
 32 30  1  0  0  0  0
 33 32  1  0  0  0  0
 34  1  1  0  0  0  0
 35 34  1  0  0  0  0
 35 36  1  0  0  0  0
 37 35  2  0  0  0  0
 38 37  1  0  0  0  0
 39 41  2  0  0  0  0
 39 37  1  0  0  0  0
 40 39  1  0  0  0  0
 41 43  1  0  0  0  0
 42 41  1  0  0  0  0
 43 44  1  0  0  0  0
 43 34  2  0  0  0  0
M  END
