5
q = 0.0, confidence = 0.912

 55 58  0  0  0  0  0  0  0  0999 V2000
   -1.5696    0.3415   -0.0044 P   0  0  0  0  0  4  0  0  0  0  0  0
    0.3703    3.7821   -0.7701 O   0  0  0  0  0  0  0  0  0  0  0  0
    2.0393    1.9128   -0.2225 N   0  0  0  0  0  0  0  0  0  0  0  0
    1.6899    2.8926   -0.4080 H   0  0  0  0  0  0  0  0  0  0  0  0
    1.0372    1.0216   -0.1641 C   0  0  0  0  0  3  0  0  0  0  0  0
   -0.3032    1.5623   -0.3071 C   0  0  0  0  0  0  0  0  0  0  0  0
   -0.5548    2.9344   -0.7439 C   0  0  0  0  0  0  0  0  0  0  0  0
   -1.9100    3.3927   -1.2618 C   0  0  0  0  0  0  0  0  0  0  0  0
   -1.7432    4.3401   -1.8059 H   0  0  0  0  0  0  0  0  0  0  0  0
   -2.6172    3.5882   -0.4313 H   0  0  0  0  0  0  0  0  0  0  0  0
   -2.3848    2.6546   -1.9351 H   0  0  0  0  0  0  0  0  0  0  0  0
    3.4343    1.7293   -0.1475 C   0  0  0  0  0  0  0  0  0  0  0  0
    4.2431    2.7279   -0.7346 C   0  0  0  0  0  0  0  0  0  0  0  0
    3.7606    3.5770   -1.2430 H   0  0  0  0  0  0  0  0  0  0  0  0
    5.6387    2.6284   -0.6837 C   0  0  0  0  0  0  0  0  0  0  0  0
    6.2550    3.4113   -1.1513 H   0  0  0  0  0  0  0  0  0  0  0  0
    6.2478    1.5347   -0.0475 C   0  0  0  0  0  0  0  0  0  0  0  0
    7.3445    1.4535   -0.0111 H   0  0  0  0  0  0  0  0  0  0  0  0
    5.4439    0.5495    0.5487 C   0  0  0  0  0  0  0  0  0  0  0  0
    5.9079   -0.3062    1.0622 H   0  0  0  0  0  0  0  0  0  0  0  0
    4.0467    0.6432    0.5108 C   0  0  0  0  0  0  0  0  0  0  0  0
    3.4216   -0.1234    0.9935 H   0  0  0  0  0  0  0  0  0  0  0  0
   -1.8410   -0.8353   -1.3734 C   0  0  0  0  0  0  0  0  0  0  0  0
   -1.0080   -0.7676   -2.5074 C   0  0  0  0  0  0  0  0  0  0  0  0
   -0.2026   -0.0196   -2.5457 H   0  0  0  0  0  0  0  0  0  0  0  0
   -1.1997   -1.6654   -3.5665 C   0  0  0  0  0  0  0  0  0  0  0  0
   -0.5397   -1.6168   -4.4450 H   0  0  0  0  0  0  0  0  0  0  0  0
   -2.2161   -2.6307   -3.4982 C   0  0  0  0  0  0  0  0  0  0  0  0
   -2.3553   -3.3420   -4.3261 H   0  0  0  0  0  0  0  0  0  0  0  0
   -3.0581   -2.6892   -2.3761 C   0  0  0  0  0  0  0  0  0  0  0  0
   -3.8612   -3.4394   -2.3249 H   0  0  0  0  0  0  0  0  0  0  0  0
   -2.8790   -1.7899   -1.3154 C   0  0  0  0  0  0  0  0  0  0  0  0
   -3.5570   -1.8256   -0.4497 H   0  0  0  0  0  0  0  0  0  0  0  0
   -1.2050   -0.5432    1.5587 C   0  0  0  0  0  0  0  0  0  0  0  0
   -1.4854   -1.9124    1.7285 C   0  0  0  0  0  0  0  0  0  0  0  0
   -1.8429   -2.5190    0.8863 H   0  0  0  0  0  0  0  0  0  0  0  0
   -1.2175   -2.5286    2.9579 C   0  0  0  0  0  0  0  0  0  0  0  0
   -1.4039   -3.6064    3.0716 H   0  0  0  0  0  0  0  0  0  0  0  0
   -0.6837   -1.7870    4.0226 C   0  0  0  0  0  0  0  0  0  0  0  0
   -0.4655   -2.2793    4.9821 H   0  0  0  0  0  0  0  0  0  0  0  0
   -0.4039   -0.4214    3.8538 C   0  0  0  0  0  0  0  0  0  0  0  0
    0.0368    0.1601    4.6774 H   0  0  0  0  0  0  0  0  0  0  0  0
   -0.6577    0.2027    2.6258 C   0  0  0  0  0  0  0  0  0  0  0  0
   -0.3852    1.2581    2.4743 H   0  0  0  0  0  0  0  0  0  0  0  0
   -3.2189    1.1019    0.2943 C   0  0  0  0  0  0  0  0  0  0  0  0
   -4.2218    1.0869   -0.6961 C   0  0  0  0  0  0  0  0  0  0  0  0
   -4.0367    0.5956   -1.6620 H   0  0  0  0  0  0  0  0  0  0  0  0
   -5.4555    1.7101   -0.4587 C   0  0  0  0  0  0  0  0  0  0  0  0
   -6.2312    1.6939   -1.2388 H   0  0  0  0  0  0  0  0  0  0  0  0
   -5.6973    2.3550    0.7639 C   0  0  0  0  0  0  0  0  0  0  0  0
   -6.6651    2.8455    0.9471 H   0  0  0  0  0  0  0  0  0  0  0  0
   -4.7030    2.3676    1.7555 C   0  0  0  0  0  0  0  0  0  0  0  0
   -4.8886    2.8648    2.7193 H   0  0  0  0  0  0  0  0  0  0  0  0
   -3.4707    1.7401    1.5263 C   0  0  0  0  0  0  0  0  0  0  0  0
   -2.7048    1.7433    2.3147 H   0  0  0  0  0  0  0  0  0  0  0  0
  1 45  1  0  0  0  0
  1 34  1  0  0  0  0
  2  7  2  0  0  0  0
  3  5  1  0  0  0  0
  3 12  1  0  0  0  0
  4  3  1  0  0  0  0
  6  5  2  0  0  0  0
  6  1  1  0  0  0  0
  7  6  1  0  0  0  0
  8  7  1  0  0  0  0
  8 10  1  0  0  0  0
  9  8  1  0  0  0  0
 11  8  1  0  0  0  0
 12 21  1  0  0  0  0
 13 15  1  0  0  0  0
 13 12  2  0  0  0  0
 14 13  1  0  0  0  0
 15 17  2  0  0  0  0
 16 15  1  0  0  0  0
 17 18  1  0  0  0  0
 17 19  1  0  0  0  0
 19 20  1  0  0  0  0
 21 19  2  0  0  0  0
 21 22  1  0  0  0  0
 23 32  1  0  0  0  0
 23  1  1  0  0  0  0
 24 23  2  0  0  0  0
 25 24  1  0  0  0  0
 26 28  2  0  0  0  0
 26 24  1  0  0  0  0
 27 26  1  0  0  0  0
 28 30  1  0  0  0  0
 29 28  1  0  0  0  0
 30 31  1  0  0  0  0
 30 32  2  0  0  0  0
 32 33  1  0  0  0  0
 34 35  2  0  0  0  0
 34 43  1  0  0  0  0
 35 37  1  0  0  0  0
 36 35  1  0  0  0  0
 37 38  1  0  0  0  0
 37 39  2  0  0  0  0
 39 40  1  0  0  0  0
 41 39  1  0  0  0  0
 41 42  1  0  0  0  0
 43 41  2  0  0  0  0
 44 43  1  0  0  0  0
 45 54  1  0  0  0  0
 46 48  1  0  0  0  0
 46 45  2  0  0  0  0
 47 46  1  0  0  0  0
 48 50  2  0  0  0  0
 49 48  1  0  0  0  0
 50 51  1  0  0  0  0
 50 52  1  0  0  0  0
 52 53  1  0  0  0  0
 54 52  2  0  0  0  0
 54 55  1  0  0  0  0
M  END
