5
q = 0.0, confidence = 0.87

 77 80  0  0  0  0  0  0  0  0999 V2000
   -0.8887   -1.3483    0.0004 N   0  0  0  0  0  0  0  0  0  0  0  0
    0.5659    0.2980   -0.0003 N   0  0  0  0  0  0  0  0  0  0  0  0
   -1.6983    1.0112   -0.0017 N   0  0  0  0  0  0  0  0  0  0  0  0
   -2.9329    0.6589   -0.0019 N   0  0  0  0  0  2  0  0  0  0  0  0
    1.3384   -0.8616    0.0010 C   0  0  0  0  0  3  0  0  0  0  0  0
    0.3790   -1.8894    0.0014 C   0  0  0  0  0  0  0  0  0  0  0  0
    0.5184   -2.9747    0.0024 H   0  0  0  0  0  0  0  0  0  0  0  0
   -0.7772    0.0198   -0.0007 C   0  0  0  0  0  0  0  0  0  0  0  0
   -2.1080   -2.1187    0.0009 C   0  0  0  0  0  0  0  0  0  0  0  0
   -2.6653   -2.4868    1.2464 C   0  0  0  0  0  0  0  0  0  0  0  0
   -3.8455   -3.2519    1.2169 C   0  0  0  0  0  0  0  0  0  0  0  0
   -4.3146   -3.5544    2.1651 H   0  0  0  0  0  0  0  0  0  0  0  0
   -4.4312   -3.6301    0.0017 C   0  0  0  0  0  0  0  0  0  0  0  0
   -5.3544   -4.2292    0.0021 H   0  0  0  0  0  0  0  0  0  0  0  0
   -3.8442   -3.2552   -1.2138 C   0  0  0  0  0  0  0  0  0  0  0  0
   -4.3123   -3.5603   -2.1618 H   0  0  0  0  0  0  0  0  0  0  0  0
   -2.6640   -2.4902   -1.2443 C   0  0  0  0  0  0  0  0  0  0  0  0
   -2.0644   -2.0274    2.5688 C   0  0  0  0  0  0  0  0  0  0  0  0
   -1.0730   -1.5775    2.3542 H   0  0  0  0  0  0  0  0  0  0  0  0
   -1.8263   -3.1941    3.5394 C   0  0  0  0  0  0  0  0  0  0  0  0
   -2.7782   -3.6747    3.8455 H   0  0  0  0  0  0  0  0  0  0  0  0
   -1.3284   -2.8325    4.4615 H   0  0  0  0  0  0  0  0  0  0  0  0
   -1.1831   -3.9745    3.0861 H   0  0  0  0  0  0  0  0  0  0  0  0
   -2.9373   -0.9274    3.2010 C   0  0  0  0  0  0  0  0  0  0  0  0
   -3.1013   -0.0916    2.4933 H   0  0  0  0  0  0  0  0  0  0  0  0
   -2.4564   -0.5231    4.1150 H   0  0  0  0  0  0  0  0  0  0  0  0
   -3.9329   -1.3257    3.4865 H   0  0  0  0  0  0  0  0  0  0  0  0
   -2.0619   -2.0339   -2.5672 C   0  0  0  0  0  0  0  0  0  0  0  0
   -1.0700   -1.5849   -2.3529 H   0  0  0  0  0  0  0  0  0  0  0  0
   -1.8250   -3.2025   -3.5358 C   0  0  0  0  0  0  0  0  0  0  0  0
   -2.7774   -3.6821   -3.8420 H   0  0  0  0  0  0  0  0  0  0  0  0
   -1.1833   -3.9832   -3.0809 H   0  0  0  0  0  0  0  0  0  0  0  0
   -1.3260   -2.8430   -4.4582 H   0  0  0  0  0  0  0  0  0  0  0  0
   -2.9332   -0.9338   -3.2015 C   0  0  0  0  0  0  0  0  0  0  0  0
   -3.9292   -1.3315   -3.4868 H   0  0  0  0  0  0  0  0  0  0  0  0
   -2.4514   -0.5317   -4.1160 H   0  0  0  0  0  0  0  0  0  0  0  0
   -3.0966   -0.0967   -2.4954 H   0  0  0  0  0  0  0  0  0  0  0  0
    1.0909    1.6394   -0.0005 C   0  0  0  0  0  0  0  0  0  0  0  0
    1.3428    2.2578   -1.2441 C   0  0  0  0  0  0  0  0  0  0  0  0
    1.8481    3.5704   -1.2160 C   0  0  0  0  0  0  0  0  0  0  0  0
    2.0584    4.0877   -2.1642 H   0  0  0  0  0  0  0  0  0  0  0  0
    2.0930    4.2221   -0.0005 C   0  0  0  0  0  0  0  0  0  0  0  0
    2.4922    5.2477   -0.0005 H   0  0  0  0  0  0  0  0  0  0  0  0
    1.8435    3.5723    1.2151 C   0  0  0  0  0  0  0  0  0  0  0  0
    2.0502    4.0909    2.1633 H   0  0  0  0  0  0  0  0  0  0  0  0
    1.3381    2.2597    1.2432 C   0  0  0  0  0  0  0  0  0  0  0  0
    1.0628    1.5503   -2.5626 C   0  0  0  0  0  0  0  0  0  0  0  0
    0.8270    0.4916   -2.3303 H   0  0  0  0  0  0  0  0  0  0  0  0
   -0.1713    2.1571   -3.2539 C   0  0  0  0  0  0  0  0  0  0  0  0
   -1.0573    2.1305   -2.5874 H   0  0  0  0  0  0  0  0  0  0  0  0
   -0.4169    1.5995   -4.1813 H   0  0  0  0  0  0  0  0  0  0  0  0
    0.0071    3.2162   -3.5336 H   0  0  0  0  0  0  0  0  0  0  0  0
    2.2979    1.5335   -3.4758 C   0  0  0  0  0  0  0  0  0  0  0  0
    2.5944    2.5563   -3.7870 H   0  0  0  0  0  0  0  0  0  0  0  0
    2.0887    0.9540   -4.3980 H   0  0  0  0  0  0  0  0  0  0  0  0
    3.1611    1.0659   -2.9612 H   0  0  0  0  0  0  0  0  0  0  0  0
    1.0542    1.5539    2.5618 C   0  0  0  0  0  0  0  0  0  0  0  0
    0.8153    0.4959    2.3300 H   0  0  0  0  0  0  0  0  0  0  0  0
    2.2885    1.5339    3.4761 C   0  0  0  0  0  0  0  0  0  0  0  0
    3.1504    1.0628    2.9627 H   0  0  0  0  0  0  0  0  0  0  0  0
    2.0766    0.9563    4.3988 H   0  0  0  0  0  0  0  0  0  0  0  0
    2.5883    2.5562    3.7860 H   0  0  0  0  0  0  0  0  0  0  0  0
   -0.1787    2.1650    3.2514 C   0  0  0  0  0  0  0  0  0  0  0  0
    0.0025    3.2237    3.5308 H   0  0  0  0  0  0  0  0  0  0  0  0
   -0.4268    1.6087    4.1790 H   0  0  0  0  0  0  0  0  0  0  0  0
   -1.0642    2.1404    2.5842 H   0  0  0  0  0  0  0  0  0  0  0  0
   -3.8480    1.7181   -0.0028 C   0  0  0  0  0  0  0  0  0  0  0  0
   -5.2127    1.3428   -0.0032 C   0  0  0  0  0  0  0  0  0  0  0  0
   -5.4508    0.2686   -0.0027 H   0  0  0  0  0  0  0  0  0  0  0  0
   -6.2087    2.3250   -0.0040 C   0  0  0  0  0  0  0  0  0  0  0  0
   -7.2696    2.0331   -0.0043 H   0  0  0  0  0  0  0  0  0  0  0  0
   -5.8521    3.6846   -0.0045 C   0  0  0  0  0  0  0  0  0  0  0  0
   -6.6348    4.4582   -0.0052 H   0  0  0  0  0  0  0  0  0  0  0  0
   -4.4933    4.0612   -0.0042 C   0  0  0  0  0  0  0  0  0  0  0  0
   -4.2222    5.1280   -0.0046 H   0  0  0  0  0  0  0  0  0  0  0  0
   -3.4898    3.0910   -0.0034 C   0  0  0  0  0  0  0  0  0  0  0  0
   -2.4238    3.3595   -0.0031 H   0  0  0  0  0  0  0  0  0  0  0  0
  1  9  1  0  0  0  0
  1  6  1  0  0  0  0
  2  5  1  0  0  0  0
  3  8  2  0  0  0  0
  4  3  1  0  0  0  0
  5  6  2  0  0  0  0
  6  7  1  0  0  0  0
  8  2  1  0  0  0  0
  8  1  1  0  0  0  0
  9 10  1  0  0  0  0
 10 18  1  0  0  0  0
 11 10  2  0  0  0  0
 11 12  1  0  0  0  0
 13 14  1  0  0  0  0
 13 11  1  0  0  0  0
 15 13  2  0  0  0  0
 16 15  1  0  0  0  0
 17 15  1  0  0  0  0
 17  9  2  0  0  0  0
 18 24  1  0  0  0  0
 18 20  1  0  0  0  0
 19 18  1  0  0  0  0
 20 21  1  0  0  0  0
 20 22  1  0  0  0  0
 23 20  1  0  0  0  0
 24 27  1  0  0  0  0
 24 26  1  0  0  0  0
 25 24  1  0  0  0  0
 28 29  1  0  0  0  0
 28 17  1  0  0  0  0
 30 32  1  0  0  0  0
 30 28  1  0  0  0  0
 31 30  1  0  0  0  0
 33 30  1  0  0  0  0
 34 28  1  0  0  0  0
 34 37  1  0  0  0  0
 35 34  1  0  0  0  0
 36 34  1  0  0  0  0
 38  2  1  0  0  0  0
 38 46  1  0  0  0  0
 39 40  1  0  0  0  0
 39 38  2  0  0  0  0
 40 42  2  0  0  0  0
 41 40  1  0  0  0  0
 42 44  1  0  0  0  0
 43 42  1  0  0  0  0
 44 46  2  0  0  0  0
 44 45  1  0  0  0  0
 46 57  1  0  0  0  0
 47 48  1  0  0  0  0
 47 39  1  0  0  0  0
 49 50  1  0  0  0  0
 49 47  1  0  0  0  0
 51 49  1  0  0  0  0
 52 49  1  0  0  0  0
 53 56  1  0  0  0  0
 53 47  1  0  0  0  0
 54 53  1  0  0  0  0
 55 53  1  0  0  0  0
 57 63  1  0  0  0  0
 57 59  1  0  0  0  0
 58 57  1  0  0  0  0
 59 62  1  0  0  0  0
 59 61  1  0  0  0  0
 60 59  1  0  0  0  0
 63 64  1  0  0  0  0
 63 65  1  0  0  0  0
 66 63  1  0  0  0  0
 67  4  1  0  0  0  0
 68 67  1  0  0  0  0
 68 69  1  0  0  0  0
 70 68  2  0  0  0  0
 71 70  1  0  0  0  0
 72 74  2  0  0  0  0
 72 70  1  0  0  0  0
 73 72  1  0  0  0  0
 74 76  1  0  0  0  0
 75 74  1  0  0  0  0
 76 77  1  0  0  0  0
 76 67  2  0  0  0  0
M  END
