5
q = 0.0, confidence = 0.908

 71 74  0  0  0  0  0  0  0  0999 V2000
   -0.3646   -1.6504   -0.0527 N   0  0  0  0  0  0  0  0  0  0  0  0
    0.9742    0.0919    0.0150 N   0  0  0  0  0  0  0  0  0  0  0  0
   -1.3219    0.6583    0.0168 N   0  0  0  0  0  0  0  0  0  0  0  0
   -2.5347    0.2436   -0.0664 N   0  0  0  0  0  2  0  0  0  0  0  0
    1.8263   -1.0130   -0.0044 C   0  0  0  0  0  3  0  0  0  0  0  0
    0.9436   -2.1021   -0.0447 C   0  0  0  0  0  0  0  0  0  0  0  0
    1.1584   -3.1749   -0.0680 H   0  0  0  0  0  0  0  0  0  0  0  0
   -0.3461   -0.2799   -0.0149 C   0  0  0  0  0  0  0  0  0  0  0  0
   -1.5149   -2.5156   -0.0762 C   0  0  0  0  0  0  0  0  0  0  0  0
   -1.9819   -3.0463    1.1429 C   0  0  0  0  0  0  0  0  0  0  0  0
   -3.0582   -3.9509    1.0847 C   0  0  0  0  0  0  0  0  0  0  0  0
   -3.4407   -4.3770    2.0258 H   0  0  0  0  0  0  0  0  0  0  0  0
   -3.6566   -4.3200   -0.1333 C   0  0  0  0  0  0  0  0  0  0  0  0
   -3.1617   -3.7491   -1.3232 C   0  0  0  0  0  0  0  0  0  0  0  0
   -3.6264   -4.0163   -2.2858 H   0  0  0  0  0  0  0  0  0  0  0  0
   -2.0903   -2.8423   -1.3229 C   0  0  0  0  0  0  0  0  0  0  0  0
   -1.3801   -2.6122    2.4533 C   0  0  0  0  0  0  0  0  0  0  0  0
   -0.2821   -2.7667    2.4811 H   0  0  0  0  0  0  0  0  0  0  0  0
   -1.8276   -3.1637    3.3009 H   0  0  0  0  0  0  0  0  0  0  0  0
   -1.5533   -1.5276    2.6223 H   0  0  0  0  0  0  0  0  0  0  0  0
   -4.8206   -5.2772   -0.1729 C   0  0  0  0  0  0  0  0  0  0  0  0
   -5.7527   -4.7564   -0.4787 H   0  0  0  0  0  0  0  0  0  0  0  0
   -5.0040   -5.7411    0.8151 H   0  0  0  0  0  0  0  0  0  0  0  0
   -4.6517   -6.0898   -0.9085 H   0  0  0  0  0  0  0  0  0  0  0  0
   -1.6016   -2.1833   -2.5838 C   0  0  0  0  0  0  0  0  0  0  0  0
   -2.0660   -2.6342   -3.4805 H   0  0  0  0  0  0  0  0  0  0  0  0
   -0.4996   -2.2513   -2.6900 H   0  0  0  0  0  0  0  0  0  0  0  0
   -1.8602   -1.1021   -2.5714 H   0  0  0  0  0  0  0  0  0  0  0  0
    1.3896    1.4699    0.0472 C   0  0  0  0  0  0  0  0  0  0  0  0
    1.7286    2.1010   -1.1666 C   0  0  0  0  0  0  0  0  0  0  0  0
    2.1104    3.4523   -1.1086 C   0  0  0  0  0  0  0  0  0  0  0  0
    2.3815    3.9647   -2.0455 H   0  0  0  0  0  0  0  0  0  0  0  0
    2.1623    4.1604    0.1066 C   0  0  0  0  0  0  0  0  0  0  0  0
    1.8159    3.4842    1.2919 C   0  0  0  0  0  0  0  0  0  0  0  0
    1.8564    4.0212    2.2531 H   0  0  0  0  0  0  0  0  0  0  0  0
    1.4274    2.1339    1.2898 C   0  0  0  0  0  0  0  0  0  0  0  0
    1.6964    1.3399   -2.4644 C   0  0  0  0  0  0  0  0  0  0  0  0
    2.4525    0.5258   -2.4536 H   0  0  0  0  0  0  0  0  0  0  0  0
    1.9115    2.0031   -3.3228 H   0  0  0  0  0  0  0  0  0  0  0  0
    0.7094    0.8604   -2.6353 H   0  0  0  0  0  0  0  0  0  0  0  0
    2.6193    5.5968    0.1432 C   0  0  0  0  0  0  0  0  0  0  0  0
    3.7219    5.6543    0.2691 H   0  0  0  0  0  0  0  0  0  0  0  0
    2.1653    6.1501    0.9886 H   0  0  0  0  0  0  0  0  0  0  0  0
    2.3709    6.1294   -0.7958 H   0  0  0  0  0  0  0  0  0  0  0  0
    1.0608    1.4089    2.5567 C   0  0  0  0  0  0  0  0  0  0  0  0
   -0.0140    1.1266    2.5592 H   0  0  0  0  0  0  0  0  0  0  0  0
    1.2489    2.0387    3.4461 H   0  0  0  0  0  0  0  0  0  0  0  0
    1.6490    0.4737    2.6618 H   0  0  0  0  0  0  0  0  0  0  0  0
   -3.5445    1.2024   -0.0429 C   0  0  0  0  0  0  0  0  0  0  0  0
   -4.8530    0.6407    0.1454 C   0  0  0  0  0  0  0  0  0  0  0  0
   -5.9676    1.5020    0.2185 C   0  0  0  0  0  0  0  0  0  0  0  0
   -5.7603    2.8835    0.0811 C   0  0  0  0  0  0  0  0  0  0  0  0
   -6.6325    3.5546    0.1447 H   0  0  0  0  0  0  0  0  0  0  0  0
   -4.4926    3.4555   -0.1427 C   0  0  0  0  0  0  0  0  0  0  0  0
   -3.3522    2.6213   -0.2154 C   0  0  0  0  0  0  0  0  0  0  0  0
   -5.0500   -0.8429    0.2985 C   0  0  0  0  0  0  0  0  0  0  0  0
   -4.1153   -1.3986    0.1244 H   0  0  0  0  0  0  0  0  0  0  0  0
   -5.8257   -1.2135   -0.4036 H   0  0  0  0  0  0  0  0  0  0  0  0
   -5.4143   -1.0920    1.3187 H   0  0  0  0  0  0  0  0  0  0  0  0
   -7.3532    0.9556    0.4461 C   0  0  0  0  0  0  0  0  0  0  0  0
   -8.1043    1.7670    0.4928 H   0  0  0  0  0  0  0  0  0  0  0  0
   -7.4153    0.3777    1.3922 H   0  0  0  0  0  0  0  0  0  0  0  0
   -7.6563    0.2580   -0.3632 H   0  0  0  0  0  0  0  0  0  0  0  0
   -4.3926    4.9556   -0.2953 C   0  0  0  0  0  0  0  0  0  0  0  0
   -3.6909    5.4028    0.4385 H   0  0  0  0  0  0  0  0  0  0  0  0
   -5.3809    5.4313   -0.1485 H   0  0  0  0  0  0  0  0  0  0  0  0
   -4.0297    5.2480   -1.3031 H   0  0  0  0  0  0  0  0  0  0  0  0
   -2.0061    3.2348   -0.5007 C   0  0  0  0  0  0  0  0  0  0  0  0
   -2.1069    4.2797   -0.8438 H   0  0  0  0  0  0  0  0  0  0  0  0
   -1.4453    2.6644   -1.2658 H   0  0  0  0  0  0  0  0  0  0  0  0
   -1.3402    3.2220    0.3861 H   0  0  0  0  0  0  0  0  0  0  0  0
  1  6  1  0  0  0  0
  1  8  1  0  0  0  0
  2 29  1  0  0  0  0
  4 49  1  0  0  0  0
  4  3  1  0  0  0  0
  5  2  1  0  0  0  0
  6  5  2  0  0  0  0
  7  6  1  0  0  0  0
  8  2  1  0  0  0  0
  8  3  2  0  0  0  0
  9  1  1  0  0  0  0
  9 10  1  0  0  0  0
 10 17  1  0  0  0  0
 11 10  2  0  0  0  0
 11 12  1  0  0  0  0
 13 11  1  0  0  0  0
 14 16  1  0  0  0  0
 14 13  2  0  0  0  0
 15 14  1  0  0  0  0
 16  9  2  0  0  0  0
 17 18  1  0  0  0  0
 17 20  1  0  0  0  0
 17 19  1  0  0  0  0
 21 13  1  0  0  0  0
 21 23  1  0  0  0  0
 22 21  1  0  0  0  0
 24 21  1  0  0  0  0
 25 28  1  0  0  0  0
 25 16  1  0  0  0  0
 26 25  1  0  0  0  0
 27 25  1  0  0  0  0
 29 36  1  0  0  0  0
 30 31  1  0  0  0  0
 30 29  2  0  0  0  0
 31 33  2  0  0  0  0
 32 31  1  0  0  0  0
 33 41  1  0  0  0  0
 33 34  1  0  0  0  0
 34 35  1  0  0  0  0
 36 34  2  0  0  0  0
 36 45  1  0  0  0  0
 37 38  1  0  0  0  0
 37 30  1  0  0  0  0
 39 37  1  0  0  0  0
 40 37  1  0  0  0  0
 41 42  1  0  0  0  0
 41 43  1  0  0  0  0
 44 41  1  0  0  0  0
 45 46  1  0  0  0  0
 45 48  1  0  0  0  0
 45 47  1  0  0  0  0
 49 50  1  0  0  0  0
 50 51  2  0  0  0  0
 50 56  1  0  0  0  0
 51 60  1  0  0  0  0
 52 53  1  0  0  0  0
 52 51  1  0  0  0  0
 54 52  2  0  0  0  0
 55 54  1  0  0  0  0
 55 49  2  0  0  0  0
 56 59  1  0  0  0  0
 57 56  1  0  0  0  0
 58 56  1  0  0  0  0
 60 61  1  0  0  0  0
 60 62  1  0  0  0  0
 63 60  1  0  0  0  0
 64 66  1  0  0  0  0
 64 54  1  0  0  0  0
 64 65  1  0  0  0  0
 67 64  1  0  0  0  0
 68 55  1  0  0  0  0
 68 71  1  0  0  0  0
 69 68  1  0  0  0  0
 70 68  1  0  0  0  0
M  END
