5
q = -1.0

 39 39  0  0  1  0  0  0  0  0999 V2000
    1.2890   -2.3050   -0.3872 P   0  0  0  0  0  0  0  0  0  0  0  0
    1.9650   -0.8440   -1.1821 C   0  0  0  0  0  0  0  0  0  0  0  0
    2.3356    0.1313   -0.2217 C   0  0  0  0  0  0  0  0  0  0  0  0
    2.0904   -0.2885    1.1424 C   0  0  0  0  0  0  0  0  0  0  0  0
    1.5029   -1.5810    1.2411 C   0  0  2  0  0  3  0  0  0  0  0  0
    2.3572   -0.8562   -2.6727 C   0  0  0  0  0  0  0  0  0  0  0  0
    1.8888   -2.1605   -3.3524 C   0  0  0  0  0  0  0  0  0  0  0  0
    2.3503   -3.0519   -2.8825 H   0  0  0  0  0  0  0  0  0  0  0  0
    2.1709   -2.1525   -4.4250 H   0  0  0  0  0  0  0  0  0  0  0  0
    0.7899   -2.2892   -3.2927 H   0  0  0  0  0  0  0  0  0  0  0  0
    1.7849    0.3278   -3.4804 C   0  0  0  0  0  0  0  0  0  0  0  0
    0.6818    0.2814   -3.5237 H   0  0  0  0  0  0  0  0  0  0  0  0
    2.1710    0.2985   -4.5206 H   0  0  0  0  0  0  0  0  0  0  0  0
    2.0511    1.3101   -3.0486 H   0  0  0  0  0  0  0  0  0  0  0  0
    3.9044   -0.8420   -2.7570 C   0  0  0  0  0  0  0  0  0  0  0  0
    4.3379    0.0997   -2.3726 H   0  0  0  0  0  0  0  0  0  0  0  0
    4.2299   -0.9573   -3.8121 H   0  0  0  0  0  0  0  0  0  0  0  0
    4.3320   -1.6798   -2.1703 H   0  0  0  0  0  0  0  0  0  0  0  0
    3.1170    1.3952   -0.4733 C   0  0  0  0  0  0  0  0  0  0  0  0
    4.1873    1.2378   -0.2137 H   0  0  0  0  0  0  0  0  0  0  0  0
    2.7572    2.2355    0.1483 H   0  0  0  0  0  0  0  0  0  0  0  0
    3.0733    1.7308   -1.5209 H   0  0  0  0  0  0  0  0  0  0  0  0
    2.7191    0.5107    2.2604 C   0  0  0  0  0  0  0  0  0  0  0  0
    2.3889    0.1994    3.2648 H   0  0  0  0  0  0  0  0  0  0  0  0
    2.5340    1.5979    2.1542 H   0  0  0  0  0  0  0  0  0  0  0  0
    3.8235    0.3835    2.2282 H   0  0  0  0  0  0  0  0  0  0  0  0
    1.3740   -2.4541    2.5056 C   0  0  0  0  0  0  0  0  0  0  0  0
    0.6539   -3.7806    2.1823 C   0  0  0  0  0  0  0  0  0  0  0  0
    0.6004   -4.4131    3.0918 H   0  0  0  0  0  0  0  0  0  0  0  0
    1.1888   -4.3546    1.3994 H   0  0  0  0  0  0  0  0  0  0  0  0
   -0.3821   -3.6073    1.8292 H   0  0  0  0  0  0  0  0  0  0  0  0
    0.6036   -1.7905    3.6670 C   0  0  0  0  0  0  0  0  0  0  0  0
    1.0798   -0.8610    4.0296 H   0  0  0  0  0  0  0  0  0  0  0  0
    0.5544   -2.4875    4.5289 H   0  0  0  0  0  0  0  0  0  0  0  0
   -0.4316   -1.5488    3.3659 H   0  0  0  0  0  0  0  0  0  0  0  0
    2.8083   -2.8060    2.9731 C   0  0  0  0  0  0  0  0  0  0  0  0
    3.3813   -1.9071    3.2717 H   0  0  0  0  0  0  0  0  0  0  0  0
    3.3676   -3.3097    2.1594 H   0  0  0  0  0  0  0  0  0  0  0  0
    2.7729   -3.4907    3.8464 H   0  0  0  0  0  0  0  0  0  0  0  0
  1  5  1  0  0  0  0
  2  1  2  0  0  0  0
  2  3  1  0  0  0  0
  3  4  2  0  0  0  0
  4  5  1  0  0  0  0
  4 23  1  0  0  0  0
  5 27  1  1  0  0  0
  6  2  1  0  0  0  0
  7 10  1  0  0  0  0
  7  8  1  0  0  0  0
  7  6  1  0  0  0  0
  9  7  1  0  0  0  0
 11 14  1  0  0  0  0
 11  6  1  0  0  0  0
 12 11  1  0  0  0  0
 13 11  1  0  0  0  0
 15  6  1  0  0  0  0
 15 16  1  0  0  0  0
 15 18  1  0  0  0  0
 17 15  1  0  0  0  0
 19  3  1  0  0  0  0
 19 20  1  0  0  0  0
 19 21  1  0  0  0  0
 22 19  1  0  0  0  0
 23 24  1  0  0  0  0
 25 23  1  0  0  0  0
 26 23  1  0  0  0  0
 27 36  1  0  0  0  0
 27 32  1  0  0  0  0
 28 27  1  0  0  0  0
 28 29  1  0  0  0  0
 30 28  1  0  0  0  0
 31 28  1  0  0  0  0
 32 33  1  0  0  0  0
 32 34  1  0  0  0  0
 35 32  1  0  0  0  0
 36 37  1  0  0  0  0
 36 39  1  0  0  0  0
 38 36  1  0  0  0  0
M  END
