8
q = -1.0

 47 49  0  0  0  0  0  0  0  0999 V2000
   -0.7677   -0.4763   -1.1452 N   0  0  0  0  0  0  0  0  0  0  0  0
   -0.0034    0.2061   -1.1151 H   0  0  0  0  0  0  0  0  0  0  0  0
   -2.8078   -0.9212   -0.0801 N   0  0  0  0  0  0  0  0  0  0  0  0
   -2.1070    1.3085   -0.3760 N   0  0  0  0  0  0  0  0  0  0  0  0
   -3.0634    1.5426   -0.0911 H   0  0  0  0  0  0  0  0  0  0  0  0
   -1.9228   -0.0644   -0.5096 C   0  0  0  0  0  0  0  0  0  0  0  0
   -0.3135   -1.8310   -1.1795 C   0  0  0  0  0  0  0  0  0  0  0  0
    0.8913   -2.1423   -0.5030 C   0  0  0  0  0  3  0  0  0  0  0  0
    1.3654   -3.4674   -0.5388 C   0  0  0  0  0  0  0  0  0  0  0  0
    2.2953   -3.7311   -0.0088 H   0  0  0  0  0  0  0  0  0  0  0  0
    0.6587   -4.4605   -1.2384 C   0  0  0  0  0  0  0  0  0  0  0  0
    1.0323   -5.4964   -1.2543 H   0  0  0  0  0  0  0  0  0  0  0  0
   -0.5119   -4.1265   -1.9311 C   0  0  0  0  0  0  0  0  0  0  0  0
   -1.0514   -4.8973   -2.5035 H   0  0  0  0  0  0  0  0  0  0  0  0
   -1.0149   -2.8100   -1.9301 C   0  0  0  0  0  0  0  0  0  0  0  0
   -2.2495   -2.4642   -2.7127 C   0  0  0  0  0  0  0  0  0  0  0  0
   -2.4467   -3.2131   -3.5038 H   0  0  0  0  0  0  0  0  0  0  0  0
   -2.1589   -1.4616   -3.1780 H   0  0  0  0  0  0  0  0  0  0  0  0
   -3.1253   -2.4126   -2.0346 H   0  0  0  0  0  0  0  0  0  0  0  0
   -3.9972   -0.4523    0.4923 C   0  0  0  0  0  0  0  0  0  0  0  0
   -4.1545   -0.4623    1.8994 C   0  0  0  0  0  0  0  0  0  0  0  0
   -3.3188   -0.8299    2.5119 H   0  0  0  0  0  0  0  0  0  0  0  0
   -5.3386   -0.0218    2.5037 C   0  0  0  0  0  0  0  0  0  0  0  0
   -5.4313   -0.0405    3.6006 H   0  0  0  0  0  0  0  0  0  0  0  0
   -6.3982    0.4443    1.7109 C   0  0  0  0  0  0  0  0  0  0  0  0
   -7.3317    0.7963    2.1748 H   0  0  0  0  0  0  0  0  0  0  0  0
   -6.2583    0.4508    0.3151 C   0  0  0  0  0  0  0  0  0  0  0  0
   -7.0915    0.8043   -0.3140 H   0  0  0  0  0  0  0  0  0  0  0  0
   -5.0818    0.0061   -0.3188 C   0  0  0  0  0  0  0  0  0  0  0  0
   -4.9826   -0.0320   -1.8226 C   0  0  0  0  0  0  0  0  0  0  0  0
   -4.0606    0.4550   -2.2007 H   0  0  0  0  0  0  0  0  0  0  0  0
   -5.8523    0.4666   -2.2920 H   0  0  0  0  0  0  0  0  0  0  0  0
   -4.9487   -1.0787   -2.1906 H   0  0  0  0  0  0  0  0  0  0  0  0
   -1.2447    2.3968   -0.6302 C   0  0  0  0  0  0  0  0  0  0  0  0
    0.1040    2.3922   -0.2143 C   0  0  0  0  0  0  0  0  0  0  0  0
    0.5219    1.5207    0.3165 H   0  0  0  0  0  0  0  0  0  0  0  0
    0.9224    3.5120   -0.4245 C   0  0  0  0  0  0  0  0  0  0  0  0
    1.9635    3.4997   -0.0662 H   0  0  0  0  0  0  0  0  0  0  0  0
    0.3931    4.6544   -1.0412 C   0  0  0  0  0  0  0  0  0  0  0  0
    1.0241    5.5417   -1.1987 H   0  0  0  0  0  0  0  0  0  0  0  0
   -0.9520    4.6665   -1.4411 C   0  0  0  0  0  0  0  0  0  0  0  0
   -1.3718    5.5650   -1.9209 H   0  0  0  0  0  0  0  0  0  0  0  0
   -1.7915    3.5545   -1.2509 C   0  0  0  0  0  0  0  0  0  0  0  0
   -3.2346    3.5806   -1.6832 C   0  0  0  0  0  0  0  0  0  0  0  0
   -3.4697    2.7406   -2.3698 H   0  0  0  0  0  0  0  0  0  0  0  0
   -3.4773    4.5274   -2.2014 H   0  0  0  0  0  0  0  0  0  0  0  0
   -3.9361    3.4895   -0.8242 H   0  0  0  0  0  0  0  0  0  0  0  0
  1  2  1  0  0  0  0
  1  6  1  0  0  0  0
  3 20  1  0  0  0  0
  4  5  1  0  0  0  0
  6  4  1  0  0  0  0
  6  3  2  0  0  0  0
  7  1  1  0  0  0  0
  7  8  1  0  0  0  0
  9  8  2  0  0  0  0
  9 10  1  0  0  0  0
 11  9  1  0  0  0  0
 12 11  1  0  0  0  0
 13 15  1  0  0  0  0
 13 11  2  0  0  0  0
 14 13  1  0  0  0  0
 15  7  2  0  0  0  0
 16 19  1  0  0  0  0
 16 15  1  0  0  0  0
 17 16  1  0  0  0  0
 18 16  1  0  0  0  0
 20 21  1  0  0  0  0
 21 23  2  0  0  0  0
 21 22  1  0  0  0  0
 23 24  1  0  0  0  0
 25 26  1  0  0  0  0
 25 23  1  0  0  0  0
 27 25  2  0  0  0  0
 28 27  1  0  0  0  0
 29 27  1  0  0  0  0
 29 20  2  0  0  0  0
 30 29  1  0  0  0  0
 31 30  1  0  0  0  0
 32 30  1  0  0  0  0
 33 30  1  0  0  0  0
 34  4  1  0  0  0  0
 34 35  1  0  0  0  0
 35 36  1  0  0  0  0
 37 35  2  0  0  0  0
 37 38  1  0  0  0  0
 39 37  1  0  0  0  0
 40 39  1  0  0  0  0
 41 43  1  0  0  0  0
 41 39  2  0  0  0  0
 42 41  1  0  0  0  0
 43 34  2  0  0  0  0
 44 43  1  0  0  0  0
 44 47  1  0  0  0  0
 45 44  1  0  0  0  0
 46 44  1  0  0  0  0
M  END
