4
q = -1.0

 19 19  0  0  0  0  0  0  0  0999 V2000
   -6.0085   -1.5750    0.4507 O   0  0  0  0  0  0  0  0  0  0  0  0
   -6.2809    0.4061   -0.4221 O   0  0  0  0  0  0  0  0  0  0  0  0
   -5.5648   -0.5038    0.0175 N   0  0  0  0  0  0  0  0  0  0  0  0
   -1.2855    0.1069    0.0168 C   0  0  0  0  0  3  0  0  0  0  0  0
   -1.8706   -1.1645   -0.2147 C   0  0  0  0  0  0  0  0  0  0  0  0
   -1.2186   -2.0316   -0.4050 H   0  0  0  0  0  0  0  0  0  0  0  0
   -3.2551   -1.4078   -0.2017 C   0  0  0  0  0  0  0  0  0  0  0  0
   -4.1156   -0.2998    0.0252 C   0  0  0  0  0  0  0  0  0  0  0  0
   -3.6026    1.0039    0.2663 C   0  0  0  0  0  0  0  0  0  0  0  0
   -2.2064    1.1559    0.2766 C   0  0  0  0  0  0  0  0  0  0  0  0
   -1.8243    2.1660    0.5039 H   0  0  0  0  0  0  0  0  0  0  0  0
   -3.7448   -2.8141   -0.4444 C   0  0  0  0  0  0  0  0  0  0  0  0
   -4.1115   -3.2761    0.4935 H   0  0  0  0  0  0  0  0  0  0  0  0
   -2.9192   -3.4323   -0.8477 H   0  0  0  0  0  0  0  0  0  0  0  0
   -4.5987   -2.8530   -1.1487 H   0  0  0  0  0  0  0  0  0  0  0  0
   -4.4696    2.2115    0.5267 C   0  0  0  0  0  0  0  0  0  0  0  0
   -4.9557    2.5654   -0.4039 H   0  0  0  0  0  0  0  0  0  0  0  0
   -3.8522    3.0332    0.9414 H   0  0  0  0  0  0  0  0  0  0  0  0
   -5.2977    1.9990    1.2309 H   0  0  0  0  0  0  0  0  0  0  0  0
  2  3  2  0  0  0  0
  3  8  1  0  0  0  0
  3  1  2  0  0  0  0
  4 10  1  0  0  0  0
  5  7  1  0  0  0  0
  5  4  2  0  0  0  0
  6  5  1  0  0  0  0
  7  8  2  0  0  0  0
  8  9  1  0  0  0  0
  9 10  2  0  0  0  0
  9 16  1  0  0  0  0
 10 11  1  0  0  0  0
 12  7  1  0  0  0  0
 12 13  1  0  0  0  0
 14 12  1  0  0  0  0
 15 12  1  0  0  0  0
 16 18  1  0  0  0  0
 16 19  1  0  0  0  0
 17 16  1  0  0  0  0
M  END
