1
q = -1.0, confidence = 0.0

 44 48  0  0  1  0  0  0  0  0999 V2000
   -0.2261   -0.4451   -1.5957 C   0  0  0  0  0  3  0  0  0  0  0  0
    0.8976   -0.9004   -0.7937 C   0  0  0  0  0  0  0  0  0  0  0  0
    0.4678   -1.0044    0.5617 C   0  0  0  0  0  0  0  0  0  0  0  0
   -0.9334   -0.6476    0.6260 C   0  0  0  0  0  0  0  0  0  0  0  0
   -1.3650   -0.3440   -0.7103 C   0  0  0  0  0  0  0  0  0  0  0  0
    2.2193   -1.5249   -1.1411 C   0  0  1  0  0  0  0  0  0  0  0  0
    3.3479   -1.2470   -0.0629 C   0  0  0  0  0  0  0  0  0  0  0  0
    2.5779   -2.2885    0.8279 C   0  0  1  0  0  0  0  0  0  0  0  0
    1.3878   -1.6313    1.5697 C   0  0  0  0  0  0  0  0  0  0  0  0
    2.0978   -2.9535   -0.4947 C   0  0  0  0  0  0  0  0  0  0  0  0
    3.5904    0.1467    0.5035 C   0  0  0  0  0  0  0  0  0  0  0  0
    4.6967   -1.7941   -0.5595 C   0  0  0  0  0  0  0  0  0  0  0  0
   -2.8419   -0.1830   -0.9202 C   0  0  1  0  0  0  0  0  0  0  0  0
   -3.5223   -1.4658   -0.2596 C   0  0  0  0  0  0  0  0  0  0  0  0
   -3.3665   -0.6816    1.1012 C   0  0  1  0  0  0  0  0  0  0  0  0
   -1.9570   -0.8250    1.7146 C   0  0  0  0  0  0  0  0  0  0  0  0
   -3.4351    0.6268    0.2705 C   0  0  0  0  0  0  0  0  0  0  0  0
   -2.8466   -2.8279   -0.4161 C   0  0  0  0  0  0  0  0  0  0  0  0
   -4.9919   -1.5985   -0.6772 C   0  0  0  0  0  0  0  0  0  0  0  0
   -0.2387   -0.3273   -2.6859 H   0  0  0  0  0  0  0  0  0  0  0  0
    2.4871   -1.4248   -2.2114 H   0  0  0  0  0  0  0  0  0  0  0  0
    3.1874   -2.8988    1.5253 H   0  0  0  0  0  0  0  0  0  0  0  0
   -3.1182    0.0866   -1.9584 H   0  0  0  0  0  0  0  0  0  0  0  0
   -4.1514   -0.8565    1.8649 H   0  0  0  0  0  0  0  0  0  0  0  0
    0.8220   -2.3983    2.1422 H   0  0  0  0  0  0  0  0  0  0  0  0
    1.7248   -0.8744    2.3115 H   0  0  0  0  0  0  0  0  0  0  0  0
    2.8316   -3.6721   -0.8998 H   0  0  0  0  0  0  0  0  0  0  0  0
    1.0915   -3.4198   -0.5088 H   0  0  0  0  0  0  0  0  0  0  0  0
    2.7034    0.6220    0.9611 H   0  0  0  0  0  0  0  0  0  0  0  0
    3.9777    0.8288   -0.2801 H   0  0  0  0  0  0  0  0  0  0  0  0
    4.3682    0.0849    1.2933 H   0  0  0  0  0  0  0  0  0  0  0  0
    5.1236   -1.1121   -1.3233 H   0  0  0  0  0  0  0  0  0  0  0  0
    4.6344   -2.8027   -1.0102 H   0  0  0  0  0  0  0  0  0  0  0  0
    5.4187   -1.8456    0.2811 H   0  0  0  0  0  0  0  0  0  0  0  0
   -1.8285   -1.8293    2.1753 H   0  0  0  0  0  0  0  0  0  0  0  0
   -1.8034   -0.0840    2.5281 H   0  0  0  0  0  0  0  0  0  0  0  0
   -2.8470    1.4861    0.6415 H   0  0  0  0  0  0  0  0  0  0  0  0
   -4.4702    0.9581    0.0751 H   0  0  0  0  0  0  0  0  0  0  0  0
   -2.9266   -3.1833   -1.4645 H   0  0  0  0  0  0  0  0  0  0  0  0
   -3.3511   -3.5790    0.2266 H   0  0  0  0  0  0  0  0  0  0  0  0
   -1.7733   -2.8228   -0.1479 H   0  0  0  0  0  0  0  0  0  0  0  0
   -5.5033   -2.3525   -0.0438 H   0  0  0  0  0  0  0  0  0  0  0  0
   -5.0665   -1.9405   -1.7302 H   0  0  0  0  0  0  0  0  0  0  0  0
   -5.5572   -0.6512   -0.5911 H   0  0  0  0  0  0  0  0  0  0  0  0
  1  2  1  0  0  0  0
  1  5  1  0  0  0  0
  2  3  2  0  0  0  0
  3  4  1  0  0  0  0
  3  9  1  0  0  0  0
  4 16  1  0  0  0  0
  5  4  2  0  0  0  0
  6 21  1  6  0  0  0
  6  2  1  0  0  0  0
  6 10  1  0  0  0  0
  6  7  1  0  0  0  0
  7 11  1  0  0  0  0
  7  8  1  0  0  0  0
  8 22  1  1  0  0  0
  8  9  1  0  0  0  0
  9 25  1  0  0  0  0
  9 26  1  0  0  0  0
 10  8  1  0  0  0  0
 11 29  1  0  0  0  0
 11 31  1  0  0  0  0
 12  7  1  0  0  0  0
 12 34  1  0  0  0  0
 13 23  1  6  0  0  0
 13  5  1  0  0  0  0
 13 14  1  0  0  0  0
 13 17  1  0  0  0  0
 14 15  1  0  0  0  0
 15 16  1  0  0  0  0
 15 24  1  1  0  0  0
 16 35  1  0  0  0  0
 16 36  1  0  0  0  0
 17 37  1  0  0  0  0
 17 15  1  0  0  0  0
 18 14  1  0  0  0  0
 18 41  1  0  0  0  0
 18 40  1  0  0  0  0
 19 44  1  0  0  0  0
 19 14  1  0  0  0  0
 19 42  1  0  0  0  0
 20  1  1  0  0  0  0
 27 10  1  0  0  0  0
 28 10  1  0  0  0  0
 30 11  1  0  0  0  0
 32 12  1  0  0  0  0
 33 12  1  0  0  0  0
 38 17  1  0  0  0  0
 39 18  1  0  0  0  0
 43 19  1  0  0  0  0
M  END
