3
q = -1.0, confidence = 0.0

 11 10  0  0  0  0  0  0  0  0999 V2000
    5.7492   -0.5112   -1.5677 O   0  0  0  0  0  0  0  0  0  0  0  0
    5.6825    0.2269    0.5814 O   0  0  0  0  0  0  0  0  0  0  0  0
    2.7916    0.0755    0.4141 C   0  0  0  0  0  3  0  0  0  0  0  0
    3.3266    0.4168    1.3228 H   0  0  0  0  0  0  0  0  0  0  0  0
    3.6294   -0.2479   -0.6044 C   0  0  0  0  0  0  0  0  0  0  0  0
    3.2780   -0.5968   -1.5889 H   0  0  0  0  0  0  0  0  0  0  0  0
    5.0900   -0.1388   -0.4257 C   0  0  0  0  0  0  0  0  0  0  0  0
    7.1708   -0.4390   -1.4899 C   0  0  0  0  0  0  0  0  0  0  0  0
    7.5097    0.5948   -1.2695 H   0  0  0  0  0  0  0  0  0  0  0  0
    7.5535   -0.7649   -2.4745 H   0  0  0  0  0  0  0  0  0  0  0  0
    7.5639   -1.0985   -0.6882 H   0  0  0  0  0  0  0  0  0  0  0  0
  1  8  1  0  0  0  0
  1  7  1  0  0  0  0
  3  4  1  0  0  0  0
  5  7  1  0  0  0  0
  5  3  2  0  0  0  0
  6  5  1  0  0  0  0
  7  2  2  0  0  0  0
  8  9  1  0  0  0  0
  8 11  1  0  0  0  0
 10  8  1  0  0  0  0
M  END
