3
q = -1.0

 29 29  0  0  0  0  0  0  0  0999 V2000
    1.8361   -1.2888    0.3099 Si  0  0  0  0  0  0  0  0  0  0  0  0
    0.4592    1.1321   -0.1485 N   0  0  0  0  0  0  0  0  0  0  0  0
   -2.8341   -1.4845   -0.4380 C   0  0  0  0  0  3  0  0  0  0  0  0
   -1.5763   -2.1539   -0.3515 C   0  0  0  0  0  3  0  0  0  0  0  0
   -0.5321   -1.7760   -1.2435 C   0  0  0  0  0  3  0  0  0  0  0  0
    0.8967   -2.2252   -1.0666 C   0  0  0  0  0  0  0  0  0  0  0  0
    1.1015   -1.6193    2.0168 C   0  0  0  0  0  0  0  0  0  0  0  0
    3.6574   -1.7952    0.2700 C   0  0  0  0  0  0  0  0  0  0  0  0
    1.7054    0.5857   -0.0479 C   0  0  0  0  0  0  0  0  0  0  0  0
    2.8442    1.4061   -0.1615 C   0  0  0  0  0  0  0  0  0  0  0  0
    2.7042    2.7841   -0.3830 C   0  0  0  0  0  0  0  0  0  0  0  0
    1.4137    3.3198   -0.4683 C   0  0  0  0  0  0  0  0  0  0  0  0
    0.3144    2.4623   -0.3379 C   0  0  0  0  0  0  0  0  0  0  0  0
   -3.2401   -1.1866   -1.4205 H   0  0  0  0  0  0  0  0  0  0  0  0
   -3.5808   -1.6336    0.3565 H   0  0  0  0  0  0  0  0  0  0  0  0
   -1.3391   -2.7735    0.5326 H   0  0  0  0  0  0  0  0  0  0  0  0
   -0.8244   -1.4422   -2.2562 H   0  0  0  0  0  0  0  0  0  0  0  0
    1.4693   -2.0982   -2.0078 H   0  0  0  0  0  0  0  0  0  0  0  0
    0.9487   -3.3075   -0.8096 H   0  0  0  0  0  0  0  0  0  0  0  0
    1.0715   -2.7064    2.2362 H   0  0  0  0  0  0  0  0  0  0  0  0
    0.0720   -1.2116    2.0881 H   0  0  0  0  0  0  0  0  0  0  0  0
    1.7160   -1.1265    2.7976 H   0  0  0  0  0  0  0  0  0  0  0  0
    3.7521   -2.8856    0.4520 H   0  0  0  0  0  0  0  0  0  0  0  0
    4.2420   -1.2778    1.0581 H   0  0  0  0  0  0  0  0  0  0  0  0
    4.1266   -1.5766   -0.7110 H   0  0  0  0  0  0  0  0  0  0  0  0
    3.8448    0.9582   -0.0714 H   0  0  0  0  0  0  0  0  0  0  0  0
    3.5908    3.4294   -0.4798 H   0  0  0  0  0  0  0  0  0  0  0  0
    1.2455    4.3946   -0.6284 H   0  0  0  0  0  0  0  0  0  0  0  0
   -0.7291    2.8203   -0.3402 H   0  0  0  0  0  0  0  0  0  0  0  0
  1  7  1  0  0  0  0
  2  9  1  0  0  0  0
  3  4  1  0  0  0  0
  3 15  1  0  0  0  0
  4 16  1  0  0  0  0
  5  6  1  0  0  0  0
  5  4  1  0  0  0  0
  6 19  1  0  0  0  0
  6  1  1  0  0  0  0
  7 21  1  0  0  0  0
  7 20  1  0  0  0  0
  7 22  1  0  0  0  0
  8  1  1  0  0  0  0
  8 23  1  0  0  0  0
  8 24  1  0  0  0  0
  9  1  1  0  0  0  0
 10 26  1  0  0  0  0
 10  9  2  0  0  0  0
 11 10  1  0  0  0  0
 12 11  2  0  0  0  0
 12 13  1  0  0  0  0
 13  2  2  0  0  0  0
 14  3  1  0  0  0  0
 17  5  1  0  0  0  0
 18  6  1  0  0  0  0
 25  8  1  0  0  0  0
 27 11  1  0  0  0  0
 28 12  1  0  0  0  0
 29 13  1  0  0  0  0
M  END
