43
q = 0.0, confidence = 0.994

 58 60  0  0  1  0  0  0  0  0999 V2000
   -1.7290   -0.0626   -1.9888 O   0  0  0  0  0  0  0  0  0  0  0  0
   -1.4514   -3.7128    0.2336 O   0  0  0  0  0  0  0  0  0  0  0  0
   -2.2544   -3.3552    1.3391 C   0  0  0  0  0  0  0  0  0  0  0  0
   -1.7516   -2.6238    2.0159 H   0  0  0  0  0  0  0  0  0  0  0  0
   -2.4575   -4.2813    1.9114 H   0  0  0  0  0  0  0  0  0  0  0  0
   -3.2240   -2.9037    1.0218 H   0  0  0  0  0  0  0  0  0  0  0  0
   -0.3408   -0.2145    0.0219 C   0  0  0  0  0  0  0  0  0  0  0  0
   -0.2103   -1.6510    0.0030 C   0  0  0  0  0  0  0  0  0  0  0  0
   -1.1911   -2.6324   -0.6619 C   0  0  1  0  0  0  0  0  0  0  0  0
   -2.1378   -2.0925   -0.8739 H   0  0  0  0  0  0  0  0  0  0  0  0
    0.0243    3.8309   -1.8386 C   0  0  0  0  0  0  0  0  0  0  0  0
    0.7997    4.1555   -2.5485 H   0  0  0  0  0  0  0  0  0  0  0  0
   -1.9332    2.9670   -0.0301 C   0  0  0  0  0  0  0  0  0  0  0  0
   -2.7052    2.6397    0.6800 H   0  0  0  0  0  0  0  0  0  0  0  0
   -0.2777    2.4676   -1.7239 C   0  0  0  0  0  0  0  0  0  0  0  0
    0.2793    1.7529   -2.3466 H   0  0  0  0  0  0  0  0  0  0  0  0
   -2.7851    0.1657    1.5170 C   0  0  0  0  0  0  0  0  0  0  0  0
   -1.8394    0.3016    2.0621 H   0  0  0  0  0  0  0  0  0  0  0  0
   -1.2547    2.0136   -0.8119 C   0  0  0  0  0  0  0  0  0  0  0  0
    2.5500    0.8032    2.4700 C   0  0  0  0  0  0  0  0  0  0  0  0
   -2.7981    0.2156    0.1095 C   0  0  0  0  0  0  0  0  0  0  0  0
   -1.6349    4.3349   -0.1468 C   0  0  0  0  0  0  0  0  0  0  0  0
   -2.1804    5.0631    0.4727 H   0  0  0  0  0  0  0  0  0  0  0  0
   -3.9693   -0.0647    2.2337 C   0  0  0  0  0  0  0  0  0  0  0  0
   -3.9416   -0.1034    3.3333 H   0  0  0  0  0  0  0  0  0  0  0  0
   -5.2007   -0.2018    0.1489 C   0  0  0  0  0  0  0  0  0  0  0  0
   -6.1465   -0.3476   -0.3950 H   0  0  0  0  0  0  0  0  0  0  0  0
   -0.6525    4.7720   -1.0463 C   0  0  0  0  0  0  0  0  0  0  0  0
   -0.4158    5.8431   -1.1339 H   0  0  0  0  0  0  0  0  0  0  0  0
   -1.5176    0.4952   -0.6940 C   0  0  0  0  0  0  0  0  0  0  0  0
   -4.0188    0.0358   -0.5680 C   0  0  0  0  0  0  0  0  0  0  0  0
   -4.0224    0.0754   -1.6655 H   0  0  0  0  0  0  0  0  0  0  0  0
    0.8685   -2.2285    0.7176 C   0  0  0  0  0  0  0  0  0  0  0  0
    0.9839   -3.3206    0.6798 H   0  0  0  0  0  0  0  0  0  0  0  0
   -0.6699   -3.2467   -1.9549 C   0  0  0  0  0  0  0  0  0  0  0  0
    0.3348   -3.6904   -1.8106 H   0  0  0  0  0  0  0  0  0  0  0  0
   -0.6057   -2.4834   -2.7492 H   0  0  0  0  0  0  0  0  0  0  0  0
   -1.3678   -4.0436   -2.2769 H   0  0  0  0  0  0  0  0  0  0  0  0
   -5.1811   -0.2552    1.5518 C   0  0  0  0  0  0  0  0  0  0  0  0
   -6.1088   -0.4437    2.1130 H   0  0  0  0  0  0  0  0  0  0  0  0
    1.7836   -1.4434    1.4778 C   0  0  0  0  0  0  0  0  0  0  0  0
    2.6159   -1.9451    1.9888 H   0  0  0  0  0  0  0  0  0  0  0  0
    0.5694    0.5490    0.8070 C   0  0  0  0  0  3  0  0  0  0  0  0
    0.4579    1.6385    0.7951 H   0  0  0  0  0  0  0  0  0  0  0  0
    1.6394   -0.0351    1.5593 C   0  0  1  0  0  3  0  0  0  0  0  0
    2.0999    0.5190    3.9235 C   0  0  0  0  0  0  0  0  0  0  0  0
    2.2208   -0.5518    4.1841 H   0  0  0  0  0  0  0  0  0  0  0  0
    1.0336    0.7866    4.0707 H   0  0  0  0  0  0  0  0  0  0  0  0
    2.7044    1.1159    4.6366 H   0  0  0  0  0  0  0  0  0  0  0  0
    4.0293    0.4028    2.2999 C   0  0  0  0  0  0  0  0  0  0  0  0
    4.3796    0.5987    1.2685 H   0  0  0  0  0  0  0  0  0  0  0  0
    4.2060   -0.6676    2.5233 H   0  0  0  0  0  0  0  0  0  0  0  0
    4.6585    0.9907    2.9981 H   0  0  0  0  0  0  0  0  0  0  0  0
    2.4122    2.3120    2.1939 C   0  0  0  0  0  0  0  0  0  0  0  0
    3.1035    2.8712    2.8552 H   0  0  0  0  0  0  0  0  0  0  0  0
    1.3893    2.6840    2.4032 H   0  0  0  0  0  0  0  0  0  0  0  0
    2.6692    2.5658    1.1474 H   0  0  0  0  0  0  0  0  0  0  0  0
   -0.9730    0.1807   -2.5563 H   0  0  0  0  0  0  0  0  0  0  0  0
  1 30  1  0  0  0  0
  2  3  1  0  0  0  0
  3  5  1  0  0  0  0
  3  4  1  0  0  0  0
  6  3  1  0  0  0  0
  7 43  1  0  0  0  0
  8  7  2  0  0  0  0
  8 33  1  0  0  0  0
  9 10  1  6  0  0  0
  9  8  1  0  0  0  0
  9  2  1  0  0  0  0
 11 15  2  0  0  0  0
 11 28  1  0  0  0  0
 12 11  1  0  0  0  0
 13 14  1  0  0  0  0
 15 19  1  0  0  0  0
 16 15  1  0  0  0  0
 17 18  1  0  0  0  0
 17 24  1  0  0  0  0
 19 30  1  0  0  0  0
 19 13  2  0  0  0  0
 20 46  1  0  0  0  0
 21 17  2  0  0  0  0
 22 13  1  0  0  0  0
 22 23  1  0  0  0  0
 24 25  1  0  0  0  0
 26 39  1  0  0  0  0
 27 26  1  0  0  0  0
 28 22  2  0  0  0  0
 29 28  1  0  0  0  0
 30  7  1  0  0  0  0
 30 21  1  0  0  0  0
 31 21  1  0  0  0  0
 31 26  2  0  0  0  0
 32 31  1  0  0  0  0
 33 41  2  0  0  0  0
 34 33  1  0  0  0  0
 35 36  1  0  0  0  0
 35  9  1  0  0  0  0
 37 35  1  0  0  0  0
 38 35  1  0  0  0  0
 39 40  1  0  0  0  0
 39 24  2  0  0  0  0
 41 45  1  0  0  0  0
 41 42  1  0  0  0  0
 43 45  1  0  0  0  0
 44 43  1  0  0  0  0
 45 20  1  1  0  0  0
 46 48  1  0  0  0  0
 46 47  1  0  0  0  0
 46 49  1  0  0  0  0
 50 20  1  0  0  0  0
 50 52  1  0  0  0  0
 50 53  1  0  0  0  0
 51 50  1  0  0  0  0
 54 56  1  0  0  0  0
 54 20  1  0  0  0  0
 54 55  1  0  0  0  0
 57 54  1  0  0  0  0
 58  1  1  0  0  0  0
M  END
