4
q = -1.0

 25 25  0  0  0  0  0  0  0  0999 V2000
    1.7213    0.4304   -0.2839 C   0  0  0  0  0  0  0  0  0  0  0  0
    1.0199    1.2664    0.6212 C   0  0  0  0  0  0  0  0  0  0  0  0
    1.0906    1.2029    1.7114 H   0  0  0  0  0  0  0  0  0  0  0  0
    0.2523    2.2167   -0.1279 C   0  0  0  0  0  3  0  0  0  0  0  0
   -0.3765    3.0167    0.2768 H   0  0  0  0  0  0  0  0  0  0  0  0
    0.5004    1.9760   -1.5051 C   0  0  0  0  0  0  0  0  0  0  0  0
    0.0405    2.5276   -2.3337 H   0  0  0  0  0  0  0  0  0  0  0  0
    1.3657    0.8568   -1.6081 C   0  0  0  0  0  0  0  0  0  0  0  0
    1.7035    0.3739   -2.5329 H   0  0  0  0  0  0  0  0  0  0  0  0
    2.7115   -0.6323    0.0829 C   0  0  0  0  0  0  0  0  0  0  0  0
    2.6464   -1.4530   -0.6596 H   0  0  0  0  0  0  0  0  0  0  0  0
    2.4207   -1.0765    1.0584 H   0  0  0  0  0  0  0  0  0  0  0  0
    4.1907   -0.1506    0.1859 C   0  0  0  0  0  0  0  0  0  0  0  0
    5.0458   -1.3722    0.5678 C   0  0  0  0  0  0  0  0  0  0  0  0
    4.9630   -2.1729   -0.1957 H   0  0  0  0  0  0  0  0  0  0  0  0
    4.7230   -1.7993    1.5400 H   0  0  0  0  0  0  0  0  0  0  0  0
    6.1167   -1.0958    0.6573 H   0  0  0  0  0  0  0  0  0  0  0  0
    4.6731    0.4057   -1.1651 C   0  0  0  0  0  0  0  0  0  0  0  0
    4.5666   -0.3503   -1.9706 H   0  0  0  0  0  0  0  0  0  0  0  0
    5.7435    0.6928   -1.1102 H   0  0  0  0  0  0  0  0  0  0  0  0
    4.0972    1.3047   -1.4639 H   0  0  0  0  0  0  0  0  0  0  0  0
    4.3351    0.9320    1.2694 C   0  0  0  0  0  0  0  0  0  0  0  0
    3.9884    0.5604    2.2566 H   0  0  0  0  0  0  0  0  0  0  0  0
    3.7453    1.8373    1.0207 H   0  0  0  0  0  0  0  0  0  0  0  0
    5.3958    1.2388    1.3792 H   0  0  0  0  0  0  0  0  0  0  0  0
  1 10  1  0  0  0  0
  1  2  2  0  0  0  0
  2  3  1  0  0  0  0
  4  5  1  0  0  0  0
  4  2  1  0  0  0  0
  6  4  1  0  0  0  0
  7  6  1  0  0  0  0
  8  6  2  0  0  0  0
  8  1  1  0  0  0  0
  9  8  1  0  0  0  0
 10 13  1  0  0  0  0
 10 12  1  0  0  0  0
 11 10  1  0  0  0  0
 13 14  1  0  0  0  0
 13 22  1  0  0  0  0
 14 17  1  0  0  0  0
 14 16  1  0  0  0  0
 15 14  1  0  0  0  0
 18 20  1  0  0  0  0
 18 13  1  0  0  0  0
 19 18  1  0  0  0  0
 21 18  1  0  0  0  0
 22 25  1  0  0  0  0
 22 23  1  0  0  0  0
 24 22  1  0  0  0  0
M  END
