3
q = -1.0, confidence = 0.002

 16 16  0  0  0  0  0  0  0  0999 V2000
    2.3446   -1.8957   -0.5411 C   0  0  0  0  0  0  0  0  0  0  0  0
    1.0363   -2.1551   -0.0315 C   0  0  0  0  0  0  0  0  0  0  0  0
    0.9694   -1.6739    1.3091 C   0  0  0  0  0  3  0  0  0  0  0  0
    2.2271   -1.0953    1.6503 C   0  0  0  0  0  0  0  0  0  0  0  0
    3.0584   -1.2098    0.4901 C   0  0  0  0  0  0  0  0  0  0  0  0
    2.8908   -2.3326   -1.8639 C   0  0  0  0  0  0  0  0  0  0  0  0
    2.6216   -0.5423    2.9847 C   0  0  0  0  0  0  0  0  0  0  0  0
    0.2167   -2.6410   -0.5742 H   0  0  0  0  0  0  0  0  0  0  0  0
    0.0952   -1.7387    1.9640 H   0  0  0  0  0  0  0  0  0  0  0  0
    4.0789   -0.8141    0.3994 H   0  0  0  0  0  0  0  0  0  0  0  0
    3.3879   -3.3201   -1.7547 H   0  0  0  0  0  0  0  0  0  0  0  0
    2.0884   -2.4366   -2.6187 H   0  0  0  0  0  0  0  0  0  0  0  0
    3.6334   -1.6118   -2.2545 H   0  0  0  0  0  0  0  0  0  0  0  0
    3.3421    0.2908    2.8807 H   0  0  0  0  0  0  0  0  0  0  0  0
    1.7423   -0.1657    3.5420 H   0  0  0  0  0  0  0  0  0  0  0  0
    3.0970   -1.3371    3.5979 H   0  0  0  0  0  0  0  0  0  0  0  0
  1  2  2  0  0  0  0
  1  5  1  0  0  0  0
  2  3  1  0  0  0  0
  3  4  1  0  0  0  0
  3  9  1  0  0  0  0
  4  7  1  0  0  0  0
  5  4  2  0  0  0  0
  6 11  1  0  0  0  0
  6  1  1  0  0  0  0
  7 15  1  0  0  0  0
  7 16  1  0  0  0  0
  8  2  1  0  0  0  0
 10  5  1  0  0  0  0
 12  6  1  0  0  0  0
 13  6  1  0  0  0  0
 14  7  1  0  0  0  0
M  END
