5
q = 0.0, confidence = 0.996

 69 73  0  0  0  0  0  0  0  0999 V2000
   -0.5793   -1.1285    0.1065 N   0  0  0  0  0  0  0  0  0  0  0  0
   -0.3769    1.0163   -0.1783 N   0  0  0  0  0  0  0  0  0  0  0  0
   -6.5705   -3.7880    0.3450 O   0  0  0  0  0  0  0  0  0  0  0  0
   -5.7446    4.7860   -0.1142 O   0  0  0  0  0  0  0  0  0  0  0  0
    0.3452   -0.1368   -0.0579 C   0  0  0  0  0  2  0  0  0  0  0  0
   -1.8872   -0.6097    0.0853 C   0  0  0  0  0  0  0  0  0  0  0  0
   -1.7575    0.7608   -0.0853 C   0  0  0  0  0  0  0  0  0  0  0  0
   -0.2468   -2.5259    0.2237 C   0  0  0  0  0  0  0  0  0  0  0  0
    0.2118   -3.0051    1.4728 C   0  0  0  0  0  0  0  0  0  0  0  0
    0.5409   -4.3717    1.5587 C   0  0  0  0  0  0  0  0  0  0  0  0
    0.9035   -4.7705    2.5187 H   0  0  0  0  0  0  0  0  0  0  0  0
    0.3991   -5.2187    0.4520 C   0  0  0  0  0  0  0  0  0  0  0  0
    0.6623   -6.2839    0.5397 H   0  0  0  0  0  0  0  0  0  0  0  0
   -0.0899   -4.7183   -0.7615 C   0  0  0  0  0  0  0  0  0  0  0  0
   -0.2113   -5.3873   -1.6271 H   0  0  0  0  0  0  0  0  0  0  0  0
   -0.4281   -3.3597   -0.9031 C   0  0  0  0  0  0  0  0  0  0  0  0
    0.3144   -2.1039    2.6726 C   0  0  0  0  0  0  0  0  0  0  0  0
   -0.6015   -1.4893    2.8010 H   0  0  0  0  0  0  0  0  0  0  0  0
    1.1525   -1.3791    2.5773 H   0  0  0  0  0  0  0  0  0  0  0  0
    0.4679   -2.6946    3.5954 H   0  0  0  0  0  0  0  0  0  0  0  0
   -0.9632   -2.8181   -2.1998 C   0  0  0  0  0  0  0  0  0  0  0  0
   -0.9228   -3.5892   -2.9919 H   0  0  0  0  0  0  0  0  0  0  0  0
   -0.3574   -1.9505   -2.5313 H   0  0  0  0  0  0  0  0  0  0  0  0
   -2.0181   -2.4891   -2.0949 H   0  0  0  0  0  0  0  0  0  0  0  0
    0.2146    2.3233   -0.3164 C   0  0  0  0  0  0  0  0  0  0  0  0
    0.2599    3.1663    0.8172 C   0  0  0  0  0  0  0  0  0  0  0  0
    0.8520    4.4326    0.6560 C   0  0  0  0  0  0  0  0  0  0  0  0
    0.9107    5.1044    1.5260 H   0  0  0  0  0  0  0  0  0  0  0  0
    1.3669    4.8373   -0.5821 C   0  0  0  0  0  0  0  0  0  0  0  0
    1.8314    5.8299   -0.6848 H   0  0  0  0  0  0  0  0  0  0  0  0
    1.2807    3.9892   -1.6937 C   0  0  0  0  0  0  0  0  0  0  0  0
    1.6651    4.3172   -2.6718 H   0  0  0  0  0  0  0  0  0  0  0  0
    0.6930    2.7138   -1.5886 C   0  0  0  0  0  0  0  0  0  0  0  0
   -0.3033    2.7288    2.1411 C   0  0  0  0  0  0  0  0  0  0  0  0
    0.1364    1.7563    2.4417 H   0  0  0  0  0  0  0  0  0  0  0  0
   -1.4063    2.6145    2.0924 H   0  0  0  0  0  0  0  0  0  0  0  0
   -0.0706    3.4698    2.9288 H   0  0  0  0  0  0  0  0  0  0  0  0
    0.5527    1.8206   -2.7907 C   0  0  0  0  0  0  0  0  0  0  0  0
    0.7770    2.3761   -3.7208 H   0  0  0  0  0  0  0  0  0  0  0  0
   -0.4738    1.4051   -2.8726 H   0  0  0  0  0  0  0  0  0  0  0  0
    1.2306    0.9407   -2.7361 H   0  0  0  0  0  0  0  0  0  0  0  0
   -3.1017   -1.4331    0.1556 C   0  0  0  0  0  0  0  0  0  0  0  0
   -3.2468   -2.4959    1.0806 C   0  0  0  0  0  0  0  0  0  0  0  0
   -2.4367   -2.7235    1.7858 H   0  0  0  0  0  0  0  0  0  0  0  0
   -4.4119   -3.2612    1.1171 C   0  0  0  0  0  0  0  0  0  0  0  0
   -4.5273   -4.0869    1.8337 H   0  0  0  0  0  0  0  0  0  0  0  0
   -5.4774   -2.9877    0.2322 C   0  0  0  0  0  0  0  0  0  0  0  0
   -5.3508   -1.9304   -0.6938 C   0  0  0  0  0  0  0  0  0  0  0  0
   -6.1571   -1.6961   -1.4012 H   0  0  0  0  0  0  0  0  0  0  0  0
   -4.1730   -1.1735   -0.7270 C   0  0  0  0  0  0  0  0  0  0  0  0
   -4.0772   -0.3612   -1.4622 H   0  0  0  0  0  0  0  0  0  0  0  0
   -7.6645   -3.5607   -0.5234 C   0  0  0  0  0  0  0  0  0  0  0  0
   -8.4323   -4.3126   -0.2636 H   0  0  0  0  0  0  0  0  0  0  0  0
   -7.3801   -3.6892   -1.5920 H   0  0  0  0  0  0  0  0  0  0  0  0
   -8.0959   -2.5429   -0.3906 H   0  0  0  0  0  0  0  0  0  0  0  0
   -2.7914    1.8042   -0.0954 C   0  0  0  0  0  0  0  0  0  0  0  0
   -3.8457    1.7509    0.8424 C   0  0  0  0  0  0  0  0  0  0  0  0
   -3.8708    0.9310    1.5749 H   0  0  0  0  0  0  0  0  0  0  0  0
   -4.8552    2.7212    0.8674 C   0  0  0  0  0  0  0  0  0  0  0  0
   -5.6540    2.6427    1.6165 H   0  0  0  0  0  0  0  0  0  0  0  0
   -4.8224    3.7890   -0.0548 C   0  0  0  0  0  0  0  0  0  0  0  0
   -3.7708    3.8574   -0.9943 C   0  0  0  0  0  0  0  0  0  0  0  0
   -3.7610    4.6946   -1.7066 H   0  0  0  0  0  0  0  0  0  0  0  0
   -2.7752    2.8813   -1.0153 C   0  0  0  0  0  0  0  0  0  0  0  0
   -1.9734    2.9528   -1.7618 H   0  0  0  0  0  0  0  0  0  0  0  0
   -6.8160    4.7689    0.8101 C   0  0  0  0  0  0  0  0  0  0  0  0
   -7.4363    5.6567    0.5872 H   0  0  0  0  0  0  0  0  0  0  0  0
   -6.4579    4.8334    1.8621 H   0  0  0  0  0  0  0  0  0  0  0  0
   -7.4422    3.8545    0.7034 H   0  0  0  0  0  0  0  0  0  0  0  0
  1  8  1  0  0  0  0
  2  7  1  0  0  0  0
  2  5  1  0  0  0  0
  4 61  1  0  0  0  0
  4 66  1  0  0  0  0
  5  1  1  0  0  0  0
  6  1  1  0  0  0  0
  6 42  1  0  0  0  0
  7  6  2  0  0  0  0
  8  9  1  0  0  0  0
  9 10  2  0  0  0  0
  9 17  1  0  0  0  0
 10 11  1  0  0  0  0
 12 13  1  0  0  0  0
 12 10  1  0  0  0  0
 14 12  2  0  0  0  0
 15 14  1  0  0  0  0
 16 14  1  0  0  0  0
 16  8  2  0  0  0  0
 17 18  1  0  0  0  0
 17 20  1  0  0  0  0
 19 17  1  0  0  0  0
 21 24  1  0  0  0  0
 21 16  1  0  0  0  0
 22 21  1  0  0  0  0
 23 21  1  0  0  0  0
 25  2  1  0  0  0  0
 25 26  1  0  0  0  0
 26 34  1  0  0  0  0
 27 26  2  0  0  0  0
 27 28  1  0  0  0  0
 29 27  1  0  0  0  0
 30 29  1  0  0  0  0
 31 33  1  0  0  0  0
 31 29  2  0  0  0  0
 32 31  1  0  0  0  0
 33 25  2  0  0  0  0
 34 35  1  0  0  0  0
 34 37  1  0  0  0  0
 36 34  1  0  0  0  0
 38 41  1  0  0  0  0
 38 33  1  0  0  0  0
 39 38  1  0  0  0  0
 40 38  1  0  0  0  0
 42 43  1  0  0  0  0
 43 45  2  0  0  0  0
 43 44  1  0  0  0  0
 45 46  1  0  0  0  0
 47  3  1  0  0  0  0
 47 45  1  0  0  0  0
 48 47  2  0  0  0  0
 49 48  1  0  0  0  0
 50 48  1  0  0  0  0
 50 42  2  0  0  0  0
 51 50  1  0  0  0  0
 52 55  1  0  0  0  0
 52 53  1  0  0  0  0
 52  3  1  0  0  0  0
 54 52  1  0  0  0  0
 56  7  1  0  0  0  0
 56 57  1  0  0  0  0
 57 59  2  0  0  0  0
 57 58  1  0  0  0  0
 59 60  1  0  0  0  0
 61 59  1  0  0  0  0
 62 61  2  0  0  0  0
 63 62  1  0  0  0  0
 64 62  1  0  0  0  0
 64 56  2  0  0  0  0
 65 64  1  0  0  0  0
 66 68  1  0  0  0  0
 67 66  1  0  0  0  0
 69 66  1  0  0  0  0
M  END
