2
q = -1.0, confidence = 0.0

 34 35  0  0  1  0  0  0  0  0999 V2000
   -5.8483    0.4092   -0.1122 N   0  0  0  0  0  0  0  0  0  0  0  0
   -1.1546    0.5659   -1.6006 C   0  0  2  0  0  3  0  0  0  0  0  0
    0.2084    1.0194   -1.5249 C   0  0  0  0  0  0  0  0  0  0  0  0
    0.5621    1.9643   -1.0960 H   0  0  0  0  0  0  0  0  0  0  0  0
    1.0590    0.0511   -2.1316 C   0  0  0  0  0  0  0  0  0  0  0  0
    0.2263   -1.0330   -2.5863 C   0  0  0  0  0  0  0  0  0  0  0  0
   -1.1179   -0.7062   -2.2614 C   0  0  0  0  0  0  0  0  0  0  0  0
   -1.9862   -1.3332   -2.4904 H   0  0  0  0  0  0  0  0  0  0  0  0
    2.5339    0.1725   -2.3635 C   0  0  0  0  0  0  0  0  0  0  0  0
    3.0769   -0.7219   -1.9981 H   0  0  0  0  0  0  0  0  0  0  0  0
    2.9523    1.0611   -1.8563 H   0  0  0  0  0  0  0  0  0  0  0  0
    2.7398    0.2643   -3.4516 H   0  0  0  0  0  0  0  0  0  0  0  0
    0.6943   -2.2338   -3.3476 C   0  0  0  0  0  0  0  0  0  0  0  0
   -0.1039   -2.9966   -3.4228 H   0  0  0  0  0  0  0  0  0  0  0  0
    1.5702   -2.7019   -2.8556 H   0  0  0  0  0  0  0  0  0  0  0  0
    0.9959   -1.9484   -4.3782 H   0  0  0  0  0  0  0  0  0  0  0  0
   -2.3585    1.2658   -1.1117 C   0  0  0  0  0  0  0  0  0  0  0  0
   -2.3346    2.6550   -0.8476 C   0  0  0  0  0  0  0  0  0  0  0  0
   -1.4290    3.2439   -1.0511 H   0  0  0  0  0  0  0  0  0  0  0  0
   -3.4911    3.2775   -0.3586 C   0  0  0  0  0  0  0  0  0  0  0  0
   -3.4823    4.3605   -0.1600 H   0  0  0  0  0  0  0  0  0  0  0  0
   -4.6680    2.5569   -0.1207 C   0  0  0  0  0  0  0  0  0  0  0  0
   -5.5481    3.0845    0.2678 H   0  0  0  0  0  0  0  0  0  0  0  0
   -4.7145    1.1565   -0.3759 C   0  0  0  0  0  0  0  0  0  0  0  0
   -3.5430    0.5395   -0.8874 C   0  0  0  0  0  0  0  0  0  0  0  0
   -3.5263   -0.5436   -1.0513 H   0  0  0  0  0  0  0  0  0  0  0  0
   -7.0473    1.0616    0.3669 C   0  0  0  0  0  0  0  0  0  0  0  0
   -6.8793    1.5854    1.3355 H   0  0  0  0  0  0  0  0  0  0  0  0
   -7.8365    0.3052    0.5283 H   0  0  0  0  0  0  0  0  0  0  0  0
   -7.4408    1.8159   -0.3538 H   0  0  0  0  0  0  0  0  0  0  0  0
   -5.8597   -1.0112   -0.4018 C   0  0  0  0  0  0  0  0  0  0  0  0
   -5.7486   -1.2254   -1.4905 H   0  0  0  0  0  0  0  0  0  0  0  0
   -6.8191   -1.4448   -0.0663 H   0  0  0  0  0  0  0  0  0  0  0  0
   -5.0397   -1.5494    0.1230 H   0  0  0  0  0  0  0  0  0  0  0  0
  1 27  1  0  0  0  0
  2  3  1  0  0  0  0
  2 17  1  6  0  0  0
  3  4  1  0  0  0  0
  5  3  2  0  0  0  0
  6  7  2  0  0  0  0
  6  5  1  0  0  0  0
  7  2  1  0  0  0  0
  8  7  1  0  0  0  0
  9  5  1  0  0  0  0
  9 10  1  0  0  0  0
  9 11  1  0  0  0  0
 12  9  1  0  0  0  0
 13 15  1  0  0  0  0
 13  6  1  0  0  0  0
 14 13  1  0  0  0  0
 16 13  1  0  0  0  0
 17 25  2  0  0  0  0
 17 18  1  0  0  0  0
 18 20  2  0  0  0  0
 19 18  1  0  0  0  0
 20 21  1  0  0  0  0
 20 22  1  0  0  0  0
 22 23  1  0  0  0  0
 24 22  2  0  0  0  0
 24  1  1  0  0  0  0
 25 24  1  0  0  0  0
 26 25  1  0  0  0  0
 27 29  1  0  0  0  0
 27 28  1  0  0  0  0
 30 27  1  0  0  0  0
 31  1  1  0  0  0  0
 31 33  1  0  0  0  0
 31 34  1  0  0  0  0
 32 31  1  0  0  0  0
M  END
