38
q = 0.0, confidence = 0.986

 43 44  0  0  0  0  0  0  0  0999 V2000
   -0.3786   -1.2079   -0.6843 P   0  0  0  0  0  0  0  0  0  0  0  0
   -0.7351   -0.4804    2.4648 N   0  0  0  0  0  0  0  0  0  0  0  0
   -3.2362   -0.5013    2.2269 C   0  0  0  0  0  0  0  0  0  0  0  0
   -3.4310   -1.1738    3.0907 H   0  0  0  0  0  0  0  0  0  0  0  0
   -3.3827    0.5370    2.6007 H   0  0  0  0  0  0  0  0  0  0  0  0
   -1.8461   -0.6662    1.6554 C   0  0  0  0  0  0  0  0  0  0  0  0
   -1.8983   -0.9964    0.3080 C   0  0  0  0  0  0  0  0  0  0  0  0
   -3.3219   -1.1141   -0.0720 C   0  0  0  0  0  0  0  0  0  0  0  0
   -3.9686   -1.4412   -1.2826 C   0  0  0  0  0  0  0  0  0  0  0  0
   -3.3975   -1.6868   -2.1858 H   0  0  0  0  0  0  0  0  0  0  0  0
   -5.3721   -1.4571   -1.3404 C   0  0  0  0  0  0  0  0  0  0  0  0
   -5.8653   -1.7126   -2.2908 H   0  0  0  0  0  0  0  0  0  0  0  0
   -6.1522   -1.1540   -0.2125 C   0  0  0  0  0  0  0  0  0  0  0  0
   -7.2502   -1.1711   -0.2788 H   0  0  0  0  0  0  0  0  0  0  0  0
   -5.5225   -0.8285    1.0033 C   0  0  0  0  0  0  0  0  0  0  0  0
   -6.1217   -0.5904    1.8964 H   0  0  0  0  0  0  0  0  0  0  0  0
   -4.1289   -0.8102    1.0617 C   0  0  0  0  0  0  0  0  0  0  0  0
   -0.8760   -0.6364   -2.4123 C   0  0  0  0  0  0  0  0  0  0  0  0
   -1.6688   -1.3404   -2.7332 H   0  0  0  0  0  0  0  0  0  0  0  0
   -1.4505    0.7821   -2.4190 C   0  0  0  0  0  0  0  0  0  0  0  0
   -1.8951    1.0025   -3.4118 H   0  0  0  0  0  0  0  0  0  0  0  0
   -0.6549    1.5299   -2.2414 H   0  0  0  0  0  0  0  0  0  0  0  0
   -2.2383    0.9256   -1.6550 H   0  0  0  0  0  0  0  0  0  0  0  0
    0.3002   -0.7728   -3.3784 C   0  0  0  0  0  0  0  0  0  0  0  0
    0.0031   -0.4404   -4.3949 H   0  0  0  0  0  0  0  0  0  0  0  0
    0.6621   -1.8170   -3.4589 H   0  0  0  0  0  0  0  0  0  0  0  0
    1.1448   -0.1398   -3.0437 H   0  0  0  0  0  0  0  0  0  0  0  0
   -0.2424   -3.0959   -0.8862 C   0  0  0  0  0  0  0  0  0  0  0  0
    0.7331   -3.2084   -1.4096 H   0  0  0  0  0  0  0  0  0  0  0  0
   -0.1176   -3.7238    0.5056 C   0  0  0  0  0  0  0  0  0  0  0  0
    0.1452   -4.7996    0.4292 H   0  0  0  0  0  0  0  0  0  0  0  0
   -1.0791   -3.6478    1.0551 H   0  0  0  0  0  0  0  0  0  0  0  0
    0.6576   -3.2098    1.1070 H   0  0  0  0  0  0  0  0  0  0  0  0
   -1.3320   -3.7858   -1.7102 C   0  0  0  0  0  0  0  0  0  0  0  0
   -1.1277   -4.8761   -1.7714 H   0  0  0  0  0  0  0  0  0  0  0  0
   -1.3907   -3.4082   -2.7502 H   0  0  0  0  0  0  0  0  0  0  0  0
   -2.3294   -3.6651   -1.2414 H   0  0  0  0  0  0  0  0  0  0  0  0
    0.5656   -0.4207    2.0010 C   0  0  0  0  0  2  0  0  0  0  0  0
    1.2262   -0.3671    2.8960 H   0  0  0  0  0  0  0  0  0  0  0  0
   -0.9847   -0.2432    3.8883 C   0  0  0  0  0  0  0  0  0  0  0  0
   -1.6000   -1.0500    4.3348 H   0  0  0  0  0  0  0  0  0  0  0  0
   -1.5033    0.7250    4.0483 H   0  0  0  0  0  0  0  0  0  0  0  0
   -0.0140   -0.2072    4.4132 H   0  0  0  0  0  0  0  0  0  0  0  0
  1  7  1  0  0  0  0
  2 40  1  0  0  0  0
  3  5  1  0  0  0  0
  3  4  1  0  0  0  0
  6  3  1  0  0  0  0
  6  2  1  0  0  0  0
  7  6  2  0  0  0  0
  8  7  1  0  0  0  0
  8 17  1  0  0  0  0
  9  8  2  0  0  0  0
 10  9  1  0  0  0  0
 11  9  1  0  0  0  0
 11 13  2  0  0  0  0
 12 11  1  0  0  0  0
 13 15  1  0  0  0  0
 14 13  1  0  0  0  0
 15 17  2  0  0  0  0
 15 16  1  0  0  0  0
 17  3  1  0  0  0  0
 18  1  1  0  0  0  0
 19 18  1  0  0  0  0
 20 18  1  0  0  0  0
 20 22  1  0  0  0  0
 20 23  1  0  0  0  0
 21 20  1  0  0  0  0
 24 27  1  0  0  0  0
 24 18  1  0  0  0  0
 25 24  1  0  0  0  0
 26 24  1  0  0  0  0
 28  1  1  0  0  0  0
 28 30  1  0  0  0  0
 29 28  1  0  0  0  0
 30 32  1  0  0  0  0
 30 33  1  0  0  0  0
 31 30  1  0  0  0  0
 34 37  1  0  0  0  0
 34 28  1  0  0  0  0
 35 34  1  0  0  0  0
 36 34  1  0  0  0  0
 38  2  1  0  0  0  0
 38 39  1  0  0  0  0
 40 42  1  0  0  0  0
 40 41  1  0  0  0  0
 40 43  1  0  0  0  0
M  END
