18
q = -1.0, confidence = 0.0

 37 37  0  0  0  0  0  0  0  0999 V2000
    6.8049    1.8731    0.9128 O   0  0  0  0  0  0  0  0  0  0  0  0
    8.1113   -1.9906   -1.2005 O   0  0  0  0  0  0  0  0  0  0  0  0
    5.1703    0.2963    0.4701 N   0  0  0  0  0  0  0  0  0  0  0  0
    7.4032   -0.0813   -0.1370 N   0  0  0  0  0  0  0  0  0  0  0  0
    6.4908    0.7828    0.4488 C   0  0  0  0  0  0  0  0  0  0  0  0
    7.1782   -1.3541   -0.7186 C   0  0  0  0  0  0  0  0  0  0  0  0
    5.7830   -1.7530   -0.6676 C   0  0  0  0  0  0  0  0  0  0  0  0
    4.8255   -0.9382   -0.0957 C   0  0  0  0  0  0  0  0  0  0  0  0
    4.1476    1.1480    1.0867 C   0  0  0  0  0  0  0  0  0  0  0  0
    3.3021    1.9324    0.0739 C   0  0  0  0  0  0  0  0  0  0  0  0
    1.9885    2.4209    0.6873 C   0  0  0  0  0  0  0  0  0  0  0  0
    1.0805    3.1650   -0.2942 C   0  0  0  0  0  0  0  0  0  0  0  0
   -0.2536    3.6004    0.3171 C   0  0  0  0  0  0  0  0  0  0  0  0
   -1.1428    4.4101   -0.6285 C   0  0  0  0  0  0  0  0  0  0  0  0
   -2.4714    4.8454   -0.0035 C   0  0  0  0  0  0  0  0  0  0  0  0
   -3.3342    5.6958   -0.9360 C   0  0  0  0  0  0  0  0  0  0  0  0
    3.4444   -1.2781   -0.0647 C   0  0  0  0  0  2  0  0  0  0  0  0
    2.2126   -1.4239   -0.0305 C   0  0  0  0  0  1  0  0  0  0  0  0
    8.3697    0.2561   -0.1560 H   0  0  0  0  0  0  0  0  0  0  0  0
    5.5001   -2.7161   -1.1052 H   0  0  0  0  0  0  0  0  0  0  0  0
    3.4926    0.4925    1.6936 H   0  0  0  0  0  0  0  0  0  0  0  0
    4.6885    1.8363    1.7625 H   0  0  0  0  0  0  0  0  0  0  0  0
    3.0682    1.2734   -0.7876 H   0  0  0  0  0  0  0  0  0  0  0  0
    3.8942    2.7852   -0.3219 H   0  0  0  0  0  0  0  0  0  0  0  0
    1.4400    1.5352    1.0847 H   0  0  0  0  0  0  0  0  0  0  0  0
    2.1972    3.0711    1.5671 H   0  0  0  0  0  0  0  0  0  0  0  0
    0.8850    2.5139   -1.1763 H   0  0  0  0  0  0  0  0  0  0  0  0
    1.6152    4.0574   -0.6908 H   0  0  0  0  0  0  0  0  0  0  0  0
   -0.8132    2.6996    0.6559 H   0  0  0  0  0  0  0  0  0  0  0  0
   -0.0591    4.1961    1.2382 H   0  0  0  0  0  0  0  0  0  0  0  0
   -1.3478    3.8107   -1.5436 H   0  0  0  0  0  0  0  0  0  0  0  0
   -0.5868    5.3108   -0.9754 H   0  0  0  0  0  0  0  0  0  0  0  0
   -3.0356    3.9392    0.3110 H   0  0  0  0  0  0  0  0  0  0  0  0
   -2.2674    5.4098    0.9338 H   0  0  0  0  0  0  0  0  0  0  0  0
   -3.5660    5.1519   -1.8756 H   0  0  0  0  0  0  0  0  0  0  0  0
   -2.8131    6.6328   -1.2235 H   0  0  0  0  0  0  0  0  0  0  0  0
   -4.2973    5.9808   -0.4657 H   0  0  0  0  0  0  0  0  0  0  0  0
  2  6  2  0  0  0  0
  3  9  1  0  0  0  0
  4  5  1  0  0  0  0
  5  3  1  0  0  0  0
  5  1  2  0  0  0  0
  6  7  1  0  0  0  0
  6  4  1  0  0  0  0
  7  8  2  0  0  0  0
  8 17  1  0  0  0  0
  8  3  1  0  0  0  0
  9 21  1  0  0  0  0
  9 22  1  0  0  0  0
 10 11  1  0  0  0  0
 10  9  1  0  0  0  0
 11 25  1  0  0  0  0
 11 26  1  0  0  0  0
 12 13  1  0  0  0  0
 12 11  1  0  0  0  0
 13 29  1  0  0  0  0
 13 30  1  0  0  0  0
 14 15  1  0  0  0  0
 14 13  1  0  0  0  0
 15 33  1  0  0  0  0
 15 34  1  0  0  0  0
 16 37  1  0  0  0  0
 16 15  1  0  0  0  0
 17 18  1  0  0  0  0
 19  4  1  0  0  0  0
 20  7  1  0  0  0  0
 23 10  1  0  0  0  0
 24 10  1  0  0  0  0
 27 12  1  0  0  0  0
 28 12  1  0  0  0  0
 31 14  1  0  0  0  0
 32 14  1  0  0  0  0
 35 16  1  0  0  0  0
 36 16  1  0  0  0  0
M  END
