6
q = -1.0

 13 13  0  0  0  0  0  0  0  0999 V2000
    1.8882   -0.7607    0.1151 C   0  0  0  0  0  0  0  0  0  0  0  0
    2.7853   -0.8020    0.9785 O   0  0  0  0  0  0  0  0  0  0  0  0
    1.6964    0.5394   -0.5871 C   0  0  0  0  0  0  0  0  0  0  0  0
    2.5230    1.4846   -0.1605 O   0  0  0  0  0  0  0  0  0  0  0  0
    0.7830    0.7021   -1.6453 C   0  0  0  0  0  0  0  0  0  0  0  0
   -0.0356   -0.4008   -2.0601 C   0  0  0  0  0  3  0  0  0  0  0  0
    0.0204   -1.6160   -1.3247 C   0  0  0  0  0  0  0  0  0  0  0  0
    0.8642   -1.7465   -0.1820 C   0  0  0  0  0  0  0  0  0  0  0  0
    3.0310    0.9771    0.5532 H   0  0  0  0  0  0  0  0  0  0  0  0
    0.7086    1.6779   -2.1475 H   0  0  0  0  0  0  0  0  0  0  0  0
   -0.7151   -0.2925   -2.9154 H   0  0  0  0  0  0  0  0  0  0  0  0
   -0.6442   -2.4470   -1.6038 H   0  0  0  0  0  0  0  0  0  0  0  0
    0.8400   -2.6657    0.4199 H   0  0  0  0  0  0  0  0  0  0  0  0
  1  2  2  0  0  0  0
  3  4  1  0  0  0  0
  3  1  1  0  0  0  0
  4  9  1  0  0  0  0
  5  3  2  0  0  0  0
  6  5  1  0  0  0  0
  6  7  1  0  0  0  0
  7  8  2  0  0  0  0
  8  1  1  0  0  0  0
  8 13  1  0  0  0  0
 10  5  1  0  0  0  0
 11  6  1  0  0  0  0
 12  7  1  0  0  0  0
M  END
