1
q = 0.0, confidence = 1.0

 52 54  0  0  0  0  0  0  0  0999 V2000
    0.6215   -0.6737    1.0490 C   0  0  0  0  0  2  0  0  0  0  0  0
   -0.7122    0.0709    2.7470 C   0  0  0  0  0  0  0  0  0  0  0  0
   -1.2529    0.8128    3.3406 H   0  0  0  0  0  0  0  0  0  0  0  0
   -0.6789   -1.2940    2.8205 C   0  0  0  0  0  0  0  0  0  0  0  0
   -1.2347   -1.9872    3.4577 H   0  0  0  0  0  0  0  0  0  0  0  0
    0.3581   -3.1226    1.4121 C   0  0  0  0  0  0  0  0  0  0  0  0
    0.9037   -3.6508    2.2222 H   0  0  0  0  0  0  0  0  0  0  0  0
    1.0137   -3.0862    0.5178 H   0  0  0  0  0  0  0  0  0  0  0  0
   -0.9679   -3.8483    1.0988 C   0  0  0  0  0  0  0  0  0  0  0  0
   -0.7209   -4.7985    0.5777 H   0  0  0  0  0  0  0  0  0  0  0  0
   -1.5134   -4.1048    2.0289 H   0  0  0  0  0  0  0  0  0  0  0  0
   -2.9596   -2.4518    0.9075 C   0  0  0  0  0  0  0  0  0  0  0  0
   -3.6770   -1.4168    0.0926 C   0  0  0  0  0  0  0  0  0  0  0  0
   -3.5055   -1.2339   -1.2986 C   0  0  0  0  0  0  0  0  0  0  0  0
   -2.8275   -1.8815   -1.8722 H   0  0  0  0  0  0  0  0  0  0  0  0
   -4.1791   -0.2147   -1.9704 C   0  0  0  0  0  0  0  0  0  0  0  0
   -4.0487   -0.0604   -3.0511 H   0  0  0  0  0  0  0  0  0  0  0  0
   -5.0409    0.6562   -1.2674 C   0  0  0  0  0  0  0  0  0  0  0  0
   -5.2333    0.4748    0.1195 C   0  0  0  0  0  0  0  0  0  0  0  0
   -5.9034    1.1322    0.6893 H   0  0  0  0  0  0  0  0  0  0  0  0
   -4.5579   -0.5603    0.7782 C   0  0  0  0  0  0  0  0  0  0  0  0
   -4.6932   -0.7286    1.8569 H   0  0  0  0  0  0  0  0  0  0  0  0
   -6.5094    2.5324   -1.3543 C   0  0  0  0  0  0  0  0  0  0  0  0
   -7.3817    2.0096   -0.9015 H   0  0  0  0  0  0  0  0  0  0  0  0
   -6.8734    3.2324   -2.1292 H   0  0  0  0  0  0  0  0  0  0  0  0
   -5.9913    3.1126   -0.5577 H   0  0  0  0  0  0  0  0  0  0  0  0
    0.3400    1.7933    1.2679 C   0  0  0  0  0  0  0  0  0  0  0  0
   -0.3117    2.3068    0.1228 C   0  0  0  0  0  0  0  0  0  0  0  0
    0.0056    3.6211   -0.2660 C   0  0  0  0  0  0  0  0  0  0  0  0
   -0.4889    4.0354   -1.1594 H   0  0  0  0  0  0  0  0  0  0  0  0
    0.9176    4.4187    0.4501 C   0  0  0  0  0  0  0  0  0  0  0  0
    1.4992    3.8840    1.6140 C   0  0  0  0  0  0  0  0  0  0  0  0
    2.1962    4.5010    2.2037 H   0  0  0  0  0  0  0  0  0  0  0  0
    1.2208    2.5757    2.0488 C   0  0  0  0  0  0  0  0  0  0  0  0
   -1.3243    1.4946   -0.6341 C   0  0  0  0  0  0  0  0  0  0  0  0
   -1.8679    2.1203   -1.3663 H   0  0  0  0  0  0  0  0  0  0  0  0
   -2.0703    1.0359    0.0462 H   0  0  0  0  0  0  0  0  0  0  0  0
   -0.8554    0.6494   -1.1829 H   0  0  0  0  0  0  0  0  0  0  0  0
    1.2699    5.8049   -0.0284 C   0  0  0  0  0  0  0  0  0  0  0  0
    1.6697    6.4334    0.7912 H   0  0  0  0  0  0  0  0  0  0  0  0
    0.3918    6.3210   -0.4651 H   0  0  0  0  0  0  0  0  0  0  0  0
    2.0472    5.7637   -0.8216 H   0  0  0  0  0  0  0  0  0  0  0  0
    1.8390    2.0362    3.3150 C   0  0  0  0  0  0  0  0  0  0  0  0
    2.7139    2.6422    3.6175 H   0  0  0  0  0  0  0  0  0  0  0  0
    2.1666    0.9833    3.2024 H   0  0  0  0  0  0  0  0  0  0  0  0
    1.1154    2.0510    4.1574 H   0  0  0  0  0  0  0  0  0  0  0  0
    0.0920    0.4347    1.6665 N   0  0  0  0  0  0  0  0  0  0  0  0
    0.1428   -1.7270    1.7844 N   0  0  0  0  0  0  0  0  0  0  0  0
   -1.8641   -3.0345    0.3130 N   0  0  0  0  0  0  0  0  0  0  0  0
   -3.3224   -2.7353    2.0587 O   0  0  0  0  0  0  0  0  0  0  0  0
   -5.6339    1.6324   -2.0061 O   0  0  0  0  0  0  0  0  0  0  0  0
   -1.4534   -2.5997   -0.5330 H   0  0  0  0  0  0  0  0  0  0  0  0
  1 47  1  0  0  0  0
  1 48  1  0  0  0  0
  2  4  2  0  0  0  0
  2  3  1  0  0  0  0
  4  5  1  0  0  0  0
  6 48  1  0  0  0  0
  6  7  1  0  0  0  0
  8  6  1  0  0  0  0
  9  6  1  0  0  0  0
  9 11  1  0  0  0  0
 10  9  1  0  0  0  0
 12 50  2  0  0  0  0
 13 21  1  0  0  0  0
 13 12  1  0  0  0  0
 14 13  2  0  0  0  0
 15 14  1  0  0  0  0
 16 14  1  0  0  0  0
 16 18  2  0  0  0  0
 17 16  1  0  0  0  0
 18 19  1  0  0  0  0
 19 20  1  0  0  0  0
 19 21  2  0  0  0  0
 21 22  1  0  0  0  0
 23 24  1  0  0  0  0
 23 26  1  0  0  0  0
 25 23  1  0  0  0  0
 27 47  1  0  0  0  0
 27 34  1  0  0  0  0
 28 27  2  0  0  0  0
 29 28  1  0  0  0  0
 29 31  2  0  0  0  0
 30 29  1  0  0  0  0
 31 32  1  0  0  0  0
 32 34  2  0  0  0  0
 32 33  1  0  0  0  0
 34 43  1  0  0  0  0
 35 37  1  0  0  0  0
 35 28  1  0  0  0  0
 36 35  1  0  0  0  0
 38 35  1  0  0  0  0
 39 31  1  0  0  0  0
 39 40  1  0  0  0  0
 41 39  1  0  0  0  0
 42 39  1  0  0  0  0
 43 44  1  0  0  0  0
 43 46  1  0  0  0  0
 45 43  1  0  0  0  0
 47  2  1  0  0  0  0
 48  4  1  0  0  0  0
 49 12  1  0  0  0  0
 49  9  1  0  0  0  0
 51 23  1  0  0  0  0
 51 18  1  0  0  0  0
 52 49  1  0  0  0  0
M  END
