3
q = -1.0

 15 16  0  0  0  0  0  0  0  0999 V2000
    1.3674   -1.2437   -1.8127 C   0  0  0  0  0  3  0  0  0  0  0  0
    1.1911   -2.3001   -2.0427 H   0  0  0  0  0  0  0  0  0  0  0  0
    0.6785   -0.1363   -2.3719 C   0  0  0  0  0  3  0  0  0  0  0  0
   -0.1166   -0.2098   -3.1229 H   0  0  0  0  0  0  0  0  0  0  0  0
    1.1663    1.0761   -1.7890 C   0  0  0  0  0  3  0  0  0  0  0  0
    0.8698    2.0980   -2.0452 H   0  0  0  0  0  0  0  0  0  0  0  0
    2.2715    0.7260   -0.9415 C   0  0  0  0  0  0  0  0  0  0  0  0
    3.1037    1.5595   -0.2644 N   0  0  0  0  0  0  0  0  0  0  0  0
    4.0071    0.9647    0.5009 C   0  0  0  0  0  0  0  0  0  0  0  0
    4.6946    1.6300    1.0543 H   0  0  0  0  0  0  0  0  0  0  0  0
    4.1527   -0.4513    0.6526 C   0  0  0  0  0  0  0  0  0  0  0  0
    4.9235   -0.8393    1.3341 H   0  0  0  0  0  0  0  0  0  0  0  0
    3.3337   -1.3143   -0.0572 C   0  0  0  0  0  0  0  0  0  0  0  0
    3.4219   -2.4071    0.0311 H   0  0  0  0  0  0  0  0  0  0  0  0
    2.3633   -0.7258   -0.9139 C   0  0  0  0  0  0  0  0  0  0  0  0
  1 15  1  0  0  0  0
  2  1  1  0  0  0  0
  3  1  1  0  0  0  0
  3  5  1  0  0  0  0
  4  3  1  0  0  0  0
  5  7  1  0  0  0  0
  6  5  1  0  0  0  0
  7 15  2  0  0  0  0
  7  8  1  0  0  0  0
  8  9  2  0  0  0  0
  9 11  1  0  0  0  0
  9 10  1  0  0  0  0
 11 12  1  0  0  0  0
 13 14  1  0  0  0  0
 13 11  2  0  0  0  0
 15 13  1  0  0  0  0
M  END
