2
q = 0.0, confidence = 0.564

  4  3  0  0  0  0  0  0  0  0999 V2000
   -2.6537   -1.0601   -0.1181 S   0  0  0  0  0  1  0  0  0  0  0  0
   -1.5534   -2.4222   -0.1401 C   0  0  0  0  0  3  0  0  0  0  0  0
   -1.5428   -3.0686    0.7554 H   0  0  0  0  0  0  0  0  0  0  0  0
   -1.4554   -2.9738   -1.0923 H   0  0  0  0  0  0  0  0  0  0  0  0
  2  1  1  0  0  0  0
  2  3  1  0  0  0  0
  4  2  1  0  0  0  0
M  END
