5
q = -1.0

 46 48  0  0  0  0  0  0  0  0999 V2000
   -0.1052    1.2371   -1.9972 S   0  0  0  0  0  0  0  0  0  0  0  0
    3.1722   -2.3255    2.2005 C   0  0  0  0  0  0  0  0  0  0  0  0
    3.3366   -2.9245    3.1081 H   0  0  0  0  0  0  0  0  0  0  0  0
   -1.7246    1.3366    2.0303 O   0  0  0  0  0  0  0  0  0  0  0  0
    0.4415   -0.0912    0.7077 C   0  0  0  0  0  3  0  0  0  0  0  0
    2.4633   -0.0036   -1.1967 O   0  0  0  0  0  0  0  0  0  0  0  0
    0.6579    1.4068    0.6533 C   0  0  0  0  0  0  0  0  0  0  0  0
    0.3796    2.1482   -0.5122 C   0  0  0  0  0  0  0  0  0  0  0  0
   -1.9354    0.0211    1.7678 C   0  0  0  0  0  0  0  0  0  0  0  0
    1.7177   -0.8562    0.8743 C   0  0  0  0  0  0  0  0  0  0  0  0
   -2.2356   -2.7438    1.1465 C   0  0  0  0  0  0  0  0  0  0  0  0
   -2.3456   -3.8106    0.9074 H   0  0  0  0  0  0  0  0  0  0  0  0
    1.1978    2.0914    1.7606 C   0  0  0  0  0  0  0  0  0  0  0  0
    1.4476    1.5172    2.6654 H   0  0  0  0  0  0  0  0  0  0  0  0
   -0.8027   -0.6939    1.2104 C   0  0  0  0  0  0  0  0  0  0  0  0
    1.9631   -1.6365    2.0220 C   0  0  0  0  0  0  0  0  0  0  0  0
    1.1782   -1.6917    2.7913 H   0  0  0  0  0  0  0  0  0  0  0  0
    2.7467   -0.7671   -0.1094 C   0  0  0  0  0  0  0  0  0  0  0  0
    0.5739    3.5392   -0.5609 C   0  0  0  0  0  0  0  0  0  0  0  0
    0.3647    4.0919   -1.4895 H   0  0  0  0  0  0  0  0  0  0  0  0
   -3.2865   -2.0220    1.6891 C   0  0  0  0  0  0  0  0  0  0  0  0
   -4.2541   -2.5081    1.8826 H   0  0  0  0  0  0  0  0  0  0  0  0
    3.3935    0.0731   -2.2609 C   0  0  0  0  0  0  0  0  0  0  0  0
    2.9197    0.7092   -3.0310 H   0  0  0  0  0  0  0  0  0  0  0  0
    3.6013   -0.9295   -2.6947 H   0  0  0  0  0  0  0  0  0  0  0  0
    4.3517    0.5371   -1.9379 H   0  0  0  0  0  0  0  0  0  0  0  0
   -0.9920   -2.1028    0.8966 C   0  0  0  0  0  0  0  0  0  0  0  0
   -0.1111   -2.7210    0.6674 H   0  0  0  0  0  0  0  0  0  0  0  0
   -3.1353   -0.6460    2.0062 C   0  0  0  0  0  0  0  0  0  0  0  0
   -3.9874   -0.1029    2.4360 H   0  0  0  0  0  0  0  0  0  0  0  0
    1.3808    3.4792    1.7289 C   0  0  0  0  0  0  0  0  0  0  0  0
    1.7816    3.9986    2.6125 H   0  0  0  0  0  0  0  0  0  0  0  0
    4.1667   -2.2345    1.2176 C   0  0  0  0  0  0  0  0  0  0  0  0
    5.1207   -2.7691    1.3417 H   0  0  0  0  0  0  0  0  0  0  0  0
    3.9596   -1.4590    0.0654 C   0  0  0  0  0  0  0  0  0  0  0  0
    4.7470   -1.3993   -0.6974 H   0  0  0  0  0  0  0  0  0  0  0  0
    1.0553    4.2090    0.5717 C   0  0  0  0  0  0  0  0  0  0  0  0
    1.2026    5.2991    0.5419 H   0  0  0  0  0  0  0  0  0  0  0  0
   -1.7305    1.9753   -2.3992 C   0  0  0  0  0  0  0  0  0  0  0  0
   -1.6017    2.9350   -2.9347 H   0  0  0  0  0  0  0  0  0  0  0  0
   -2.3161    2.1048   -1.4709 H   0  0  0  0  0  0  0  0  0  0  0  0
   -2.2222    1.2169   -3.0407 H   0  0  0  0  0  0  0  0  0  0  0  0
   -2.7971    2.1190    2.5153 C   0  0  0  0  0  0  0  0  0  0  0  0
   -2.4036    3.1466    2.6243 H   0  0  0  0  0  0  0  0  0  0  0  0
   -3.1588    1.7592    3.5047 H   0  0  0  0  0  0  0  0  0  0  0  0
   -3.6534    2.1261    1.8041 H   0  0  0  0  0  0  0  0  0  0  0  0
  1  8  1  0  0  0  0
  2  3  1  0  0  0  0
  4 43  1  0  0  0  0
  5 10  1  0  0  0  0
  5 15  1  0  0  0  0
  6 18  1  0  0  0  0
  7  5  1  0  0  0  0
  7 13  1  0  0  0  0
  8  7  2  0  0  0  0
  9 29  1  0  0  0  0
  9  4  1  0  0  0  0
 10 16  2  0  0  0  0
 11 21  1  0  0  0  0
 12 11  1  0  0  0  0
 13 14  1  0  0  0  0
 15  9  2  0  0  0  0
 16  2  1  0  0  0  0
 16 17  1  0  0  0  0
 18 35  2  0  0  0  0
 18 10  1  0  0  0  0
 19  8  1  0  0  0  0
 19 37  2  0  0  0  0
 20 19  1  0  0  0  0
 21 22  1  0  0  0  0
 21 29  2  0  0  0  0
 23 26  1  0  0  0  0
 23  6  1  0  0  0  0
 24 23  1  0  0  0  0
 25 23  1  0  0  0  0
 27 11  2  0  0  0  0
 27 15  1  0  0  0  0
 28 27  1  0  0  0  0
 29 30  1  0  0  0  0
 31 13  2  0  0  0  0
 31 32  1  0  0  0  0
 33 34  1  0  0  0  0
 33  2  2  0  0  0  0
 35 33  1  0  0  0  0
 36 35  1  0  0  0  0
 37 31  1  0  0  0  0
 38 37  1  0  0  0  0
 39  1  1  0  0  0  0
 39 41  1  0  0  0  0
 40 39  1  0  0  0  0
 42 39  1  0  0  0  0
 43 44  1  0  0  0  0
 43 45  1  0  0  0  0
 46 43  1  0  0  0  0
M  END
