11
q = 0.0, confidence = 0.986

 49 54  0  0  1  0  0  0  0  0999 V2000
    3.0867    3.1540    1.7190 C   0  0  0  0  0  0  0  0  0  0  0  0
    3.4152    3.8711    2.4985 H   0  0  0  0  0  0  0  0  0  0  0  0
    3.9133    3.0979    0.9751 H   0  0  0  0  0  0  0  0  0  0  0  0
    2.8667    1.7569    2.3455 C   0  0  0  0  0  0  0  0  0  0  0  0
    2.1499    1.8475    3.1893 H   0  0  0  0  0  0  0  0  0  0  0  0
    3.8174    1.3753    2.7654 H   0  0  0  0  0  0  0  0  0  0  0  0
    1.1036    1.2210    0.7475 N   0  0  0  0  0  0  0  0  0  0  0  0
    2.3145    0.6799    1.3649 C   0  0  1  0  0  0  0  0  0  0  0  0
    2.0131   -0.2080    1.9554 H   0  0  0  0  0  0  0  0  0  0  0  0
   -0.7277    1.5777   -0.3952 N   0  0  0  0  0  0  0  0  0  0  0  0
    0.0676    0.5677    0.1047 C   0  0  0  0  0  2  0  0  0  0  0  0
   -1.9371    1.4703   -1.2126 C   0  0  2  0  0  0  0  0  0  0  0  0
   -1.7610    0.6294   -1.9149 H   0  0  0  0  0  0  0  0  0  0  0  0
   -2.0723    2.7795   -2.0459 C   0  0  0  0  0  0  0  0  0  0  0  0
   -1.2813    2.7538   -2.8247 H   0  0  0  0  0  0  0  0  0  0  0  0
   -3.0478    2.7436   -2.5686 H   0  0  0  0  0  0  0  0  0  0  0  0
   -1.9423    4.0982   -1.2440 C   0  0  0  0  0  0  0  0  0  0  0  0
   -1.9825    4.9640   -1.9355 H   0  0  0  0  0  0  0  0  0  0  0  0
   -2.8133    4.2068   -0.5586 H   0  0  0  0  0  0  0  0  0  0  0  0
   -0.6579    4.0914   -0.4475 C   0  0  0  0  0  0  0  0  0  0  0  0
    0.1749    5.1474   -0.0202 C   0  0  0  0  0  0  0  0  0  0  0  0
   -0.1055    6.1847   -0.2614 H   0  0  0  0  0  0  0  0  0  0  0  0
    0.9740    2.5959    0.6154 C   0  0  0  0  0  0  0  0  0  0  0  0
   -0.2006    2.8211   -0.0959 C   0  0  0  0  0  0  0  0  0  0  0  0
    1.8243    3.6201    1.0321 C   0  0  0  0  0  0  0  0  0  0  0  0
    1.3801    4.9182    0.7006 C   0  0  0  0  0  0  0  0  0  0  0  0
    1.9905    5.7860    0.9956 H   0  0  0  0  0  0  0  0  0  0  0  0
    3.3414    0.2213    0.3371 C   0  0  0  0  0  0  0  0  0  0  0  0
    3.2660    0.5775   -1.0199 C   0  0  0  0  0  0  0  0  0  0  0  0
    2.4201    1.1727   -1.3901 H   0  0  0  0  0  0  0  0  0  0  0  0
    4.2394    0.1293   -1.9262 C   0  0  0  0  0  0  0  0  0  0  0  0
    4.1499    0.3981   -2.9892 H   0  0  0  0  0  0  0  0  0  0  0  0
    5.3002   -0.6752   -1.4872 C   0  0  0  0  0  0  0  0  0  0  0  0
    6.0581   -1.0315   -2.2013 H   0  0  0  0  0  0  0  0  0  0  0  0
    5.3804   -1.0397   -0.1328 C   0  0  0  0  0  0  0  0  0  0  0  0
    6.2006   -1.6837    0.2196 H   0  0  0  0  0  0  0  0  0  0  0  0
    4.4051   -0.5961    0.7703 C   0  0  0  0  0  0  0  0  0  0  0  0
    4.4614   -0.9018    1.8280 H   0  0  0  0  0  0  0  0  0  0  0  0
   -3.1620    1.1581   -0.3701 C   0  0  0  0  0  0  0  0  0  0  0  0
   -3.3390    1.7049    0.9159 C   0  0  0  0  0  0  0  0  0  0  0  0
   -2.5556    2.3456    1.3497 H   0  0  0  0  0  0  0  0  0  0  0  0
   -4.4928    1.4155    1.6604 C   0  0  0  0  0  0  0  0  0  0  0  0
   -4.6147    1.8440    2.6669 H   0  0  0  0  0  0  0  0  0  0  0  0
   -5.4848    0.5766    1.1283 C   0  0  0  0  0  0  0  0  0  0  0  0
   -6.3865    0.3449    1.7151 H   0  0  0  0  0  0  0  0  0  0  0  0
   -5.3154    0.0272   -0.1526 C   0  0  0  0  0  0  0  0  0  0  0  0
   -6.0820   -0.6421   -0.5720 H   0  0  0  0  0  0  0  0  0  0  0  0
   -4.1600    0.3150   -0.8941 C   0  0  0  0  0  0  0  0  0  0  0  0
   -4.0159   -0.1346   -1.8893 H   0  0  0  0  0  0  0  0  0  0  0  0
  1  4  1  0  0  0  0
  1  2  1  0  0  0  0
  3  1  1  0  0  0  0
  4  6  1  0  0  0  0
  4  5  1  0  0  0  0
  7  8  1  0  0  0  0
  8  9  1  1  0  0  0
  8  4  1  0  0  0  0
 10 24  1  0  0  0  0
 10 11  1  0  0  0  0
 11  7  1  0  0  0  0
 12 13  1  6  0  0  0
 12 10  1  0  0  0  0
 12 39  1  0  0  0  0
 14 17  1  0  0  0  0
 14 12  1  0  0  0  0
 15 14  1  0  0  0  0
 16 14  1  0  0  0  0
 17 19  1  0  0  0  0
 17 20  1  0  0  0  0
 18 17  1  0  0  0  0
 20 24  2  0  0  0  0
 20 21  1  0  0  0  0
 21 26  2  0  0  0  0
 22 21  1  0  0  0  0
 23  7  1  0  0  0  0
 23 25  2  0  0  0  0
 24 23  1  0  0  0  0
 25  1  1  0  0  0  0
 26 27  1  0  0  0  0
 26 25  1  0  0  0  0
 28 37  1  0  0  0  0
 28  8  1  0  0  0  0
 29 28  2  0  0  0  0
 30 29  1  0  0  0  0
 31 33  2  0  0  0  0
 31 29  1  0  0  0  0
 32 31  1  0  0  0  0
 33 35  1  0  0  0  0
 34 33  1  0  0  0  0
 35 36  1  0  0  0  0
 35 37  2  0  0  0  0
 37 38  1  0  0  0  0
 39 40  1  0  0  0  0
 40 41  1  0  0  0  0
 40 42  2  0  0  0  0
 42 43  1  0  0  0  0
 44 42  1  0  0  0  0
 44 45  1  0  0  0  0
 46 44  2  0  0  0  0
 47 46  1  0  0  0  0
 48 39  2  0  0  0  0
 48 46  1  0  0  0  0
 49 48  1  0  0  0  0
M  END
