5
q = -1.0

 46 46  0  0  0  0  0  0  0  0999 V2000
    0.1564    1.7349   -0.9300 Si  0  0  0  0  0  0  0  0  0  0  0  0
   -2.6116    0.1653   -0.8326 Si  0  0  0  0  0  0  0  0  0  0  0  0
   -1.0526    0.9390    1.8743 Si  0  0  0  0  0  0  0  0  0  0  0  0
    2.3538    0.1598   -0.2545 N   0  0  0  0  0  0  0  0  0  0  0  0
   -0.9301    0.4970    0.0132 C   0  0  0  0  0  3  0  0  0  0  0  0
   -0.2678    3.5512   -0.5876 C   0  0  0  0  0  0  0  0  0  0  0  0
    0.3528    4.2131   -1.2266 H   0  0  0  0  0  0  0  0  0  0  0  0
   -0.0953    3.8338    0.4693 H   0  0  0  0  0  0  0  0  0  0  0  0
   -1.3291    3.7581   -0.8274 H   0  0  0  0  0  0  0  0  0  0  0  0
    0.1522    1.4800   -2.8104 C   0  0  0  0  0  0  0  0  0  0  0  0
    0.8744    2.1829   -3.2743 H   0  0  0  0  0  0  0  0  0  0  0  0
   -0.8424    1.6647   -3.2628 H   0  0  0  0  0  0  0  0  0  0  0  0
    0.4685    0.4500   -3.0709 H   0  0  0  0  0  0  0  0  0  0  0  0
    1.9975    1.4522   -0.4417 C   0  0  0  0  0  0  0  0  0  0  0  0
    2.9624    2.4759   -0.3405 C   0  0  0  0  0  0  0  0  0  0  0  0
    2.6716    3.5267   -0.4932 H   0  0  0  0  0  0  0  0  0  0  0  0
    4.2916    2.1456   -0.0357 C   0  0  0  0  0  0  0  0  0  0  0  0
    5.0559    2.9332    0.0552 H   0  0  0  0  0  0  0  0  0  0  0  0
    4.6338    0.7984    0.1549 C   0  0  0  0  0  0  0  0  0  0  0  0
    5.6639    0.4980    0.3970 H   0  0  0  0  0  0  0  0  0  0  0  0
    3.6225   -0.1668    0.0318 C   0  0  0  0  0  0  0  0  0  0  0  0
    3.8233   -1.2442    0.1693 H   0  0  0  0  0  0  0  0  0  0  0  0
   -2.4290   -0.9355   -2.3701 C   0  0  0  0  0  0  0  0  0  0  0  0
   -1.7167   -0.5305   -3.1138 H   0  0  0  0  0  0  0  0  0  0  0  0
   -3.4152   -1.0440   -2.8686 H   0  0  0  0  0  0  0  0  0  0  0  0
   -2.0862   -1.9538   -2.0901 H   0  0  0  0  0  0  0  0  0  0  0  0
   -3.8234   -0.7541    0.3020 C   0  0  0  0  0  0  0  0  0  0  0  0
   -4.0937   -0.1822    1.2114 H   0  0  0  0  0  0  0  0  0  0  0  0
   -3.4101   -1.7331    0.6196 H   0  0  0  0  0  0  0  0  0  0  0  0
   -4.7594   -0.9527   -0.2606 H   0  0  0  0  0  0  0  0  0  0  0  0
   -3.4407    1.7910   -1.3656 C   0  0  0  0  0  0  0  0  0  0  0  0
   -3.5772    2.4818   -0.5101 H   0  0  0  0  0  0  0  0  0  0  0  0
   -4.4430    1.5749   -1.7905 H   0  0  0  0  0  0  0  0  0  0  0  0
   -2.8579    2.3224   -2.1449 H   0  0  0  0  0  0  0  0  0  0  0  0
    0.6009    1.5869    2.5508 C   0  0  0  0  0  0  0  0  0  0  0  0
    1.4059    0.8345    2.4269 H   0  0  0  0  0  0  0  0  0  0  0  0
    0.4887    1.7861    3.6371 H   0  0  0  0  0  0  0  0  0  0  0  0
    0.9440    2.5243    2.0707 H   0  0  0  0  0  0  0  0  0  0  0  0
   -2.3746    2.2682    2.1838 C   0  0  0  0  0  0  0  0  0  0  0  0
   -3.3918    1.9106    1.9273 H   0  0  0  0  0  0  0  0  0  0  0  0
   -2.1811    3.1899    1.6006 H   0  0  0  0  0  0  0  0  0  0  0  0
   -2.3774    2.5416    3.2595 H   0  0  0  0  0  0  0  0  0  0  0  0
   -1.4677   -0.5739    2.9442 C   0  0  0  0  0  0  0  0  0  0  0  0
   -0.6501   -1.3245    2.9123 H   0  0  0  0  0  0  0  0  0  0  0  0
   -2.4027   -1.0783    2.6359 H   0  0  0  0  0  0  0  0  0  0  0  0
   -1.5832   -0.2567    4.0019 H   0  0  0  0  0  0  0  0  0  0  0  0
  1  6  1  0  0  0  0
  1 14  1  0  0  0  0
  1  5  1  0  0  0  0
  2  5  1  0  0  0  0
  2 27  1  0  0  0  0
  3 39  1  0  0  0  0
  3 35  1  0  0  0  0
  3 43  1  0  0  0  0
  4 21  1  0  0  0  0
  5  3  1  0  0  0  0
  6  8  1  0  0  0  0
  7  6  1  0  0  0  0
  9  6  1  0  0  0  0
 10  1  1  0  0  0  0
 11 10  1  0  0  0  0
 12 10  1  0  0  0  0
 13 10  1  0  0  0  0
 14 15  1  0  0  0  0
 14  4  2  0  0  0  0
 15 17  2  0  0  0  0
 16 15  1  0  0  0  0
 17 18  1  0  0  0  0
 17 19  1  0  0  0  0
 19 20  1  0  0  0  0
 21 19  2  0  0  0  0
 21 22  1  0  0  0  0
 23 26  1  0  0  0  0
 23  2  1  0  0  0  0
 24 23  1  0  0  0  0
 25 23  1  0  0  0  0
 27 29  1  0  0  0  0
 27 28  1  0  0  0  0
 30 27  1  0  0  0  0
 31  2  1  0  0  0  0
 31 32  1  0  0  0  0
 33 31  1  0  0  0  0
 34 31  1  0  0  0  0
 35 37  1  0  0  0  0
 36 35  1  0  0  0  0
 38 35  1  0  0  0  0
 39 42  1  0  0  0  0
 40 39  1  0  0  0  0
 41 39  1  0  0  0  0
 43 46  1  0  0  0  0
 44 43  1  0  0  0  0
 45 43  1  0  0  0  0
M  END
