2
q = -1.0, confidence = 0.0

 19 20  0  0  0  0  0  0  0  0999 V2000
    2.5723   -1.9520    0.9882 S   0  0  0  0  0  0  0  0  0  0  0  0
    1.1692    0.5693    1.7850 C   0  0  0  0  0  3  0  0  0  0  0  0
    1.9383   -0.3160    0.9659 C   0  0  0  0  0  0  0  0  0  0  0  0
    3.4860   -1.6360   -0.4815 C   0  0  0  0  0  0  0  0  0  0  0  0
    3.3342   -0.3664   -0.9750 C   0  0  0  0  0  0  0  0  0  0  0  0
    2.4542    0.4216   -0.1530 C   0  0  0  0  0  0  0  0  0  0  0  0
    1.9571    1.7634   -0.0694 C   0  0  0  0  0  0  0  0  0  0  0  0
    1.2081    1.8590    1.1541 C   0  0  0  0  0  0  0  0  0  0  0  0
    2.2691    2.8869   -1.0081 C   0  0  0  0  0  0  0  0  0  0  0  0
    0.6304    3.1218    1.7216 C   0  0  0  0  0  0  0  0  0  0  0  0
    0.7286    0.3573    2.7631 H   0  0  0  0  0  0  0  0  0  0  0  0
    4.0714   -2.4576   -0.9136 H   0  0  0  0  0  0  0  0  0  0  0  0
    3.8169   -0.0126   -1.8943 H   0  0  0  0  0  0  0  0  0  0  0  0
    1.3799    3.5276   -1.1698 H   0  0  0  0  0  0  0  0  0  0  0  0
    2.5885    2.5034   -1.9960 H   0  0  0  0  0  0  0  0  0  0  0  0
    3.0858    3.5262   -0.6087 H   0  0  0  0  0  0  0  0  0  0  0  0
   -0.0909    2.9086    2.5337 H   0  0  0  0  0  0  0  0  0  0  0  0
    0.1084    3.7138    0.9446 H   0  0  0  0  0  0  0  0  0  0  0  0
    1.4377    3.7551    2.1473 H   0  0  0  0  0  0  0  0  0  0  0  0
  2 11  1  0  0  0  0
  3  1  1  0  0  0  0
  3  2  1  0  0  0  0
  4  1  1  0  0  0  0
  5  4  2  0  0  0  0
  5  6  1  0  0  0  0
  6  7  1  0  0  0  0
  6  3  2  0  0  0  0
  7  8  2  0  0  0  0
  8 10  1  0  0  0  0
  8  2  1  0  0  0  0
  9 16  1  0  0  0  0
  9  7  1  0  0  0  0
 10 19  1  0  0  0  0
 10 17  1  0  0  0  0
 12  4  1  0  0  0  0
 13  5  1  0  0  0  0
 14  9  1  0  0  0  0
 15  9  1  0  0  0  0
 18 10  1  0  0  0  0
M  END
