32
q = -2.0, confidence = 0.946

 42 43  0  0  1  0  0  0  0  0999 V2000
    2.9940   -1.0354   -0.1849 Si  0  0  0  0  0  0  0  0  0  0  0  0
    1.4026   -1.4326   -0.9378 N   0  0  0  0  0  0  0  0  0  0  0  0
    2.4595    0.4370    0.8328 C   0  0  0  0  0  0  0  0  0  0  0  0
    1.6783    0.3116    2.0446 C   0  0  2  0  0  3  0  0  0  0  0  0
    0.8826    1.4869    2.1892 C   0  0  0  0  0  0  0  0  0  0  0  0
    1.1699    2.3550    1.0810 C   0  0  0  0  0  0  0  0  0  0  0  0
    2.1410    1.7195    0.2513 C   0  0  0  0  0  0  0  0  0  0  0  0
    1.6963   -0.8479    3.0048 C   0  0  0  0  0  0  0  0  0  0  0  0
    1.0352   -0.6587    3.8715 H   0  0  0  0  0  0  0  0  0  0  0  0
    2.7183   -1.0294    3.3973 H   0  0  0  0  0  0  0  0  0  0  0  0
    1.3538   -1.7976    2.5445 H   0  0  0  0  0  0  0  0  0  0  0  0
   -0.0320    1.8122    3.3353 C   0  0  0  0  0  0  0  0  0  0  0  0
   -0.4205    0.8987    3.8255 H   0  0  0  0  0  0  0  0  0  0  0  0
   -0.9134    2.4001    3.0068 H   0  0  0  0  0  0  0  0  0  0  0  0
    0.4833    2.4154    4.1149 H   0  0  0  0  0  0  0  0  0  0  0  0
    0.6447    3.7520    0.9064 C   0  0  0  0  0  0  0  0  0  0  0  0
    1.4011    4.5097    1.2075 H   0  0  0  0  0  0  0  0  0  0  0  0
   -0.2504    3.9361    1.5327 H   0  0  0  0  0  0  0  0  0  0  0  0
    0.3690    3.9789   -0.1437 H   0  0  0  0  0  0  0  0  0  0  0  0
    2.7681    2.3493   -0.9652 C   0  0  0  0  0  0  0  0  0  0  0  0
    2.4036    3.3855   -1.1076 H   0  0  0  0  0  0  0  0  0  0  0  0
    2.5513    1.7948   -1.9005 H   0  0  0  0  0  0  0  0  0  0  0  0
    3.8723    2.4046   -0.8662 H   0  0  0  0  0  0  0  0  0  0  0  0
    3.5584   -2.5470    0.7950 C   0  0  0  0  0  0  0  0  0  0  0  0
    2.7388   -3.0118    1.3746 H   0  0  0  0  0  0  0  0  0  0  0  0
    4.3606   -2.2627    1.5062 H   0  0  0  0  0  0  0  0  0  0  0  0
    3.9734   -3.3132    0.1085 H   0  0  0  0  0  0  0  0  0  0  0  0
    4.2997   -0.6718   -1.5013 C   0  0  0  0  0  0  0  0  0  0  0  0
    4.5598   -1.6044   -2.0433 H   0  0  0  0  0  0  0  0  0  0  0  0
    5.2253   -0.2817   -1.0295 H   0  0  0  0  0  0  0  0  0  0  0  0
    3.9586    0.0727   -2.2450 H   0  0  0  0  0  0  0  0  0  0  0  0
    0.8150   -0.4431   -1.8785 C   0  0  0  0  0  3  0  0  0  0  0  0
    1.5344   -0.0722   -2.6428 H   0  0  0  0  0  0  0  0  0  0  0  0
   -0.3427   -1.2274   -2.4919 C   0  0  0  0  0  0  0  0  0  0  0  0
   -0.6752   -0.8117   -3.4641 H   0  0  0  0  0  0  0  0  0  0  0  0
   -1.2352   -1.2264   -1.8161 H   0  0  0  0  0  0  0  0  0  0  0  0
    0.1901   -2.6700   -2.5930 C   0  0  0  0  0  0  0  0  0  0  0  0
   -0.5985   -3.4441   -2.6930 H   0  0  0  0  0  0  0  0  0  0  0  0
    0.8598   -2.7535   -3.4745 H   0  0  0  0  0  0  0  0  0  0  0  0
    1.0024   -2.8260   -1.2975 C   0  0  0  0  0  0  0  0  0  0  0  0
    0.3901   -3.2712   -0.4845 H   0  0  0  0  0  0  0  0  0  0  0  0
    1.8889   -3.4809   -1.4405 H   0  0  0  0  0  0  0  0  0  0  0  0
  1 24  1  0  0  0  0
  1  3  1  0  0  0  0
  2  1  1  0  0  0  0
  3  4  1  0  0  0  0
  4  5  1  0  0  0  0
  4  8  1  1  0  0  0
  5 12  1  0  0  0  0
  6  5  2  0  0  0  0
  7  3  2  0  0  0  0
  7  6  1  0  0  0  0
  8 10  1  0  0  0  0
  8  9  1  0  0  0  0
 11  8  1  0  0  0  0
 12 13  1  0  0  0  0
 12 15  1  0  0  0  0
 14 12  1  0  0  0  0
 16  6  1  0  0  0  0
 16 17  1  0  0  0  0
 16 18  1  0  0  0  0
 19 16  1  0  0  0  0
 20 23  1  0  0  0  0
 20  7  1  0  0  0  0
 21 20  1  0  0  0  0
 22 20  1  0  0  0  0
 24 25  1  0  0  0  0
 24 26  1  0  0  0  0
 27 24  1  0  0  0  0
 28 30  1  0  0  0  0
 28  1  1  0  0  0  0
 29 28  1  0  0  0  0
 31 28  1  0  0  0  0
 32  2  1  0  0  0  0
 33 32  1  0  0  0  0
 34 32  1  0  0  0  0
 34 36  1  0  0  0  0
 35 34  1  0  0  0  0
 37 34  1  0  0  0  0
 37 40  1  0  0  0  0
 38 37  1  0  0  0  0
 39 37  1  0  0  0  0
 40  2  1  0  0  0  0
 40 41  1  0  0  0  0
 42 40  1  0  0  0  0
M  END
