6
q = 0.0, confidence = 0.988

 38 40  0  0  1  0  0  0  0  0999 V2000
   -1.5246    2.5144   -0.0038 Si  0  0  0  0  0  0  0  0  0  0  0  0
   -0.7840    0.2580    2.5730 O   0  0  0  0  0  0  0  0  0  0  0  0
   -1.0634    0.9697   -0.6225 O   0  0  0  0  0  0  0  0  0  0  0  0
   -0.4692   -0.2804    1.5362 C   0  0  0  0  0  0  0  0  0  0  0  0
   -1.0567   -0.2497    0.0356 C   0  0  2  0  0  0  0  0  0  0  0  0
    0.1690   -1.1375   -0.2727 C   0  0  1  0  0  3  0  0  0  0  0  0
    0.8800   -1.7501   -1.3331 C   0  0  0  0  0  0  0  0  0  0  0  0
    0.5811   -1.6492   -2.3850 H   0  0  0  0  0  0  0  0  0  0  0  0
    2.0575   -2.4626   -0.9635 C   0  0  0  0  0  0  0  0  0  0  0  0
    2.6787   -2.9184   -1.7476 H   0  0  0  0  0  0  0  0  0  0  0  0
    2.5004   -2.5550    0.4027 C   0  0  0  0  0  3  0  0  0  0  0  0
    3.4469   -3.0713    0.6163 H   0  0  0  0  0  0  0  0  0  0  0  0
    1.8022   -1.9041    1.4547 C   0  0  0  0  0  0  0  0  0  0  0  0
    2.1815   -1.9174    2.4853 H   0  0  0  0  0  0  0  0  0  0  0  0
    0.6041   -1.2200    1.0844 C   0  0  0  0  0  0  0  0  0  0  0  0
   -2.3723   -1.0103   -0.1210 C   0  0  0  0  0  0  0  0  0  0  0  0
   -3.2840   -0.6218   -1.1201 C   0  0  0  0  0  0  0  0  0  0  0  0
   -3.0327    0.2386   -1.7564 H   0  0  0  0  0  0  0  0  0  0  0  0
   -4.4870   -1.3217   -1.2965 C   0  0  0  0  0  0  0  0  0  0  0  0
   -5.1909   -1.0063   -2.0819 H   0  0  0  0  0  0  0  0  0  0  0  0
   -4.7946   -2.4173   -0.4750 C   0  0  0  0  0  0  0  0  0  0  0  0
   -5.7409   -2.9627   -0.6095 H   0  0  0  0  0  0  0  0  0  0  0  0
   -3.8880   -2.8124    0.5219 C   0  0  0  0  0  0  0  0  0  0  0  0
   -4.1222   -3.6677    1.1738 H   0  0  0  0  0  0  0  0  0  0  0  0
   -2.6832   -2.1168    0.6950 C   0  0  0  0  0  0  0  0  0  0  0  0
   -1.9830   -2.4386    1.4817 H   0  0  0  0  0  0  0  0  0  0  0  0
   -3.0797    2.3299    1.0387 C   0  0  0  0  0  0  0  0  0  0  0  0
   -3.9150    1.8903    0.4581 H   0  0  0  0  0  0  0  0  0  0  0  0
   -3.4047    3.3179    1.4260 H   0  0  0  0  0  0  0  0  0  0  0  0
   -2.8690    1.6724    1.9063 H   0  0  0  0  0  0  0  0  0  0  0  0
   -1.7990    3.4969   -1.5813 C   0  0  0  0  0  0  0  0  0  0  0  0
   -2.6449    3.0901   -2.1715 H   0  0  0  0  0  0  0  0  0  0  0  0
   -0.8851    3.4559   -2.2080 H   0  0  0  0  0  0  0  0  0  0  0  0
   -2.0165    4.5608   -1.3551 H   0  0  0  0  0  0  0  0  0  0  0  0
   -0.1182    3.2497    1.0064 C   0  0  0  0  0  0  0  0  0  0  0  0
    0.1135    2.6303    1.8949 H   0  0  0  0  0  0  0  0  0  0  0  0
   -0.4056    4.2601    1.3659 H   0  0  0  0  0  0  0  0  0  0  0  0
    0.8005    3.3546    0.3964 H   0  0  0  0  0  0  0  0  0  0  0  0
  1 35  1  0  0  0  0
  1 27  1  0  0  0  0
  3  1  1  0  0  0  0
  4  2  2  0  0  0  0
  5  3  1  6  0  0  0
  5  4  1  0  0  0  0
  6  7  1  6  0  0  0
  6  5  1  0  0  0  0
  6 15  1  0  0  0  0
  7  9  2  0  0  0  0
  8  7  1  0  0  0  0
  9 11  1  0  0  0  0
 10  9  1  0  0  0  0
 11 12  1  0  0  0  0
 11 13  1  0  0  0  0
 13 14  1  0  0  0  0
 15 13  2  0  0  0  0
 15  4  1  0  0  0  0
 16  5  1  0  0  0  0
 16 25  1  0  0  0  0
 17 16  2  0  0  0  0
 18 17  1  0  0  0  0
 19 17  1  0  0  0  0
 19 21  2  0  0  0  0
 20 19  1  0  0  0  0
 21 23  1  0  0  0  0
 22 21  1  0  0  0  0
 23 25  2  0  0  0  0
 23 24  1  0  0  0  0
 25 26  1  0  0  0  0
 27 29  1  0  0  0  0
 27 30  1  0  0  0  0
 28 27  1  0  0  0  0
 31 34  1  0  0  0  0
 31  1  1  0  0  0  0
 32 31  1  0  0  0  0
 33 31  1  0  0  0  0
 35 37  1  0  0  0  0
 35 36  1  0  0  0  0
 38 35  1  0  0  0  0
M  END
