4
q = -1.0, confidence = 0.006

 35 34  0  0  0  0  0  0  0  0999 V2000
   -1.8188   -1.6439    0.7392 N   0  0  0  0  0  0  0  0  0  0  0  0
   -2.7013    1.1139   -0.4562 N   0  0  0  0  0  0  0  0  0  0  0  0
    1.1398   -1.6384    0.7066 O   0  0  0  0  0  0  0  0  0  0  0  0
    0.4372   -0.6939    0.2803 C   0  0  0  0  0  3  0  0  0  0  0  0
   -0.9904   -0.5768    0.2505 C   0  0  0  0  0  0  0  0  0  0  0  0
   -1.4609    0.6392   -0.2415 C   0  0  0  0  0  0  0  0  0  0  0  0
   -0.6631    1.3520   -0.5050 H   0  0  0  0  0  0  0  0  0  0  0  0
   -1.7544   -1.7941    2.2028 C   0  0  0  0  0  0  0  0  0  0  0  0
   -0.7254   -2.0927    2.5263 H   0  0  0  0  0  0  0  0  0  0  0  0
   -2.4225   -2.6417    2.4686 H   0  0  0  0  0  0  0  0  0  0  0  0
   -2.1898   -0.5439    2.9592 C   0  0  0  0  0  0  0  0  0  0  0  0
   -2.1326   -0.7188    4.0518 H   0  0  0  0  0  0  0  0  0  0  0  0
   -3.2328   -0.2593    2.7113 H   0  0  0  0  0  0  0  0  0  0  0  0
   -1.5350    0.3197    2.7238 H   0  0  0  0  0  0  0  0  0  0  0  0
   -1.5971   -2.9259    0.0469 C   0  0  0  0  0  0  0  0  0  0  0  0
   -2.3137   -3.6532    0.4860 H   0  0  0  0  0  0  0  0  0  0  0  0
   -0.5728   -3.3188    0.2604 H   0  0  0  0  0  0  0  0  0  0  0  0
   -1.8070   -2.8359   -1.4594 C   0  0  0  0  0  0  0  0  0  0  0  0
   -1.6310   -3.8242   -1.9280 H   0  0  0  0  0  0  0  0  0  0  0  0
   -1.1046   -2.1155   -1.9250 H   0  0  0  0  0  0  0  0  0  0  0  0
   -2.8405   -2.5177   -1.7057 H   0  0  0  0  0  0  0  0  0  0  0  0
   -2.8499    2.5225   -0.8396 C   0  0  0  0  0  0  0  0  0  0  0  0
   -1.9857    2.8007   -1.4771 H   0  0  0  0  0  0  0  0  0  0  0  0
   -3.7515    2.6111   -1.4790 H   0  0  0  0  0  0  0  0  0  0  0  0
   -2.9532    3.4585    0.3652 C   0  0  0  0  0  0  0  0  0  0  0  0
   -3.0915    4.5071    0.0338 H   0  0  0  0  0  0  0  0  0  0  0  0
   -2.0324    3.4110    0.9812 H   0  0  0  0  0  0  0  0  0  0  0  0
   -3.8118    3.1920    1.0141 H   0  0  0  0  0  0  0  0  0  0  0  0
   -3.9278    0.3323   -0.2631 C   0  0  0  0  0  0  0  0  0  0  0  0
   -4.6102    0.9079    0.4008 H   0  0  0  0  0  0  0  0  0  0  0  0
   -3.6256   -0.5940    0.2656 H   0  0  0  0  0  0  0  0  0  0  0  0
   -4.6234   -0.0129   -1.5799 C   0  0  0  0  0  0  0  0  0  0  0  0
   -5.5298   -0.6182   -1.3782 H   0  0  0  0  0  0  0  0  0  0  0  0
   -3.9529   -0.6057   -2.2331 H   0  0  0  0  0  0  0  0  0  0  0  0
   -4.9448    0.8856   -2.1452 H   0  0  0  0  0  0  0  0  0  0  0  0
  1  8  1  0  0  0  0
  2 29  1  0  0  0  0
  2  6  1  0  0  0  0
  4  3  2  0  0  0  0
  5  4  1  0  0  0  0
  5  1  1  0  0  0  0
  6  5  2  0  0  0  0
  7  6  1  0  0  0  0
  8 10  1  0  0  0  0
  8  9  1  0  0  0  0
  8 11  1  0  0  0  0
 11 12  1  0  0  0  0
 13 11  1  0  0  0  0
 14 11  1  0  0  0  0
 15 17  1  0  0  0  0
 15 16  1  0  0  0  0
 15  1  1  0  0  0  0
 18 15  1  0  0  0  0
 19 18  1  0  0  0  0
 20 18  1  0  0  0  0
 21 18  1  0  0  0  0
 22  2  1  0  0  0  0
 22 25  1  0  0  0  0
 23 22  1  0  0  0  0
 24 22  1  0  0  0  0
 25 27  1  0  0  0  0
 25 28  1  0  0  0  0
 26 25  1  0  0  0  0
 29 31  1  0  0  0  0
 29 30  1  0  0  0  0
 32 33  1  0  0  0  0
 32 29  1  0  0  0  0
 34 32  1  0  0  0  0
 35 32  1  0  0  0  0
M  END
