14
q = 0.0, confidence = 0.99

 62 64  0  0  1  0  0  0  0  0999 V2000
   -3.4590    1.2678    1.1465 S   0  0  0  0  0  0  0  0  0  0  0  0
    2.9306    1.3887   -0.8270 C   0  0  2  0  0  0  0  0  0  0  0  0
    3.6266    0.8084   -1.4639 H   0  0  0  0  0  0  0  0  0  0  0  0
    1.9617    2.1529   -1.7439 C   0  0  0  0  0  0  0  0  0  0  0  0
    1.6355    1.4426   -2.5277 H   0  0  0  0  0  0  0  0  0  0  0  0
    2.5343    2.9514   -2.2536 H   0  0  0  0  0  0  0  0  0  0  0  0
    0.7169    2.7432   -1.0419 C   0  0  0  0  0  0  0  0  0  0  0  0
    0.8002    3.8456   -0.9757 H   0  0  0  0  0  0  0  0  0  0  0  0
   -0.1711    2.5418   -1.6740 H   0  0  0  0  0  0  0  0  0  0  0  0
    0.4409    2.2087    0.3853 C   0  0  2  0  0  0  0  0  0  0  0  0
    1.1032    2.7820    1.0751 H   0  0  0  0  0  0  0  0  0  0  0  0
    0.1920   -0.1623    1.3917 C   0  0  0  0  0  0  0  0  0  0  0  0
   -0.8050    0.0728    1.7910 H   0  0  0  0  0  0  0  0  0  0  0  0
    0.7187   -1.4575    1.6623 C   0  0  1  0  0  3  0  0  0  0  0  0
    2.0177   -1.8045    1.1714 C   0  0  0  0  0  0  0  0  0  0  0  0
    2.7540   -0.8654    0.3708 C   0  0  0  0  0  0  0  0  0  0  0  0
    2.1803    0.4092    0.0448 C   0  0  1  0  0  3  0  0  0  0  0  0
    0.9061    0.7720    0.5910 C   0  0  0  0  0  0  0  0  0  0  0  0
   -0.9941    2.5073    0.8878 C   0  0  2  0  0  0  0  0  0  0  0  0
   -1.0448    2.1274    1.9309 H   0  0  0  0  0  0  0  0  0  0  0  0
   -2.0561    1.7414    0.0820 C   0  0  0  0  0  0  0  0  0  0  0  0
   -1.6725    0.7776   -0.3004 H   0  0  0  0  0  0  0  0  0  0  0  0
   -2.4862    2.3158   -0.7612 H   0  0  0  0  0  0  0  0  0  0  0  0
   -1.3111    4.0067    0.9408 C   0  0  0  0  0  0  0  0  0  0  0  0
   -1.3066    4.4610   -0.0707 H   0  0  0  0  0  0  0  0  0  0  0  0
   -0.5735    4.5512    1.5646 H   0  0  0  0  0  0  0  0  0  0  0  0
   -2.3187    4.1598    1.3735 H   0  0  0  0  0  0  0  0  0  0  0  0
   -0.0571   -2.4306    2.5088 C   0  0  0  0  0  0  0  0  0  0  0  0
    0.1538   -3.4744    2.2131 H   0  0  0  0  0  0  0  0  0  0  0  0
   -1.1426   -2.2369    2.4236 H   0  0  0  0  0  0  0  0  0  0  0  0
    0.2147   -2.3128    3.5790 H   0  0  0  0  0  0  0  0  0  0  0  0
    3.8202    2.3035    0.0299 C   0  0  0  0  0  0  0  0  0  0  0  0
    3.2061    2.9181    0.7371 H   0  0  0  0  0  0  0  0  0  0  0  0
    4.4975    1.6729    0.6586 H   0  0  0  0  0  0  0  0  0  0  0  0
    5.3982    4.0350   -0.1387 C   0  0  0  0  0  0  0  0  0  0  0  0
    4.8187    4.7215    0.5274 H   0  0  0  0  0  0  0  0  0  0  0  0
    5.9355    4.6446   -0.8910 H   0  0  0  0  0  0  0  0  0  0  0  0
    6.1525    3.5077    0.4961 H   0  0  0  0  0  0  0  0  0  0  0  0
    4.5295   -2.3715   -0.3856 C   0  0  0  0  0  0  0  0  0  0  0  0
    3.7669   -3.0239   -0.8477 H   0  0  0  0  0  0  0  0  0  0  0  0
    4.9362   -2.8606    0.5218 H   0  0  0  0  0  0  0  0  0  0  0  0
    5.3520   -2.1994   -1.1053 H   0  0  0  0  0  0  0  0  0  0  0  0
    3.2800   -3.0249    2.7213 C   0  0  0  0  0  0  0  0  0  0  0  0
    4.1456   -2.3254    2.6883 H   0  0  0  0  0  0  0  0  0  0  0  0
    3.6511   -4.0555    2.8758 H   0  0  0  0  0  0  0  0  0  0  0  0
    2.6297   -2.7414    3.5774 H   0  0  0  0  0  0  0  0  0  0  0  0
   -4.3829    0.1381    0.0895 C   0  0  0  0  0  0  0  0  0  0  0  0
   -3.8667   -1.1460   -0.1398 C   0  0  0  0  0  0  0  0  0  0  0  0
   -2.9351   -1.4673    0.3454 H   0  0  0  0  0  0  0  0  0  0  0  0
   -4.5587   -2.0075   -1.0011 C   0  0  0  0  0  0  0  0  0  0  0  0
   -4.1491   -3.0088   -1.1999 H   0  0  0  0  0  0  0  0  0  0  0  0
   -5.7578   -1.5843   -1.6003 C   0  0  0  0  0  0  0  0  0  0  0  0
   -6.3006   -2.2636   -2.2750 H   0  0  0  0  0  0  0  0  0  0  0  0
   -6.2687   -0.3005   -1.3450 C   0  0  0  0  0  0  0  0  0  0  0  0
   -7.2113    0.0215   -1.8128 H   0  0  0  0  0  0  0  0  0  0  0  0
   -5.5765    0.5784   -0.4973 C   0  0  0  0  0  0  0  0  0  0  0  0
   -5.9432    1.5917   -0.2772 H   0  0  0  0  0  0  0  0  0  0  0  0
    2.5611   -3.0268    1.4882 O   0  0  0  0  0  0  0  0  0  0  0  0
    4.0068   -1.0695   -0.0937 O   0  0  0  0  0  0  0  0  0  0  0  0
    4.5649    3.1375   -0.8285 O   0  0  0  0  0  0  0  0  0  0  0  0
   -2.8907    0.4713    2.2751 O   0  0  0  0  0  0  0  0  0  0  0  0
   -4.3020    2.4582    1.4248 O   0  0  0  0  0  0  0  0  0  0  0  0
  1 62  2  0  0  0  0
  1 61  2  0  0  0  0
  2  3  1  6  0  0  0
  2 32  1  0  0  0  0
  2 17  1  0  0  0  0
  4  7  1  0  0  0  0
  4  2  1  0  0  0  0
  5  4  1  0  0  0  0
  6  4  1  0  0  0  0
  7  8  1  0  0  0  0
  7 10  1  0  0  0  0
  9  7  1  0  0  0  0
 10 18  1  0  0  0  0
 10 19  1  0  0  0  0
 10 11  1  1  0  0  0
 12 14  1  0  0  0  0
 12 13  1  0  0  0  0
 14 28  1  1  0  0  0
 15 58  1  0  0  0  0
 15 14  1  0  0  0  0
 16 15  2  0  0  0  0
 17 16  1  1  0  0  0
 17 18  1  0  0  0  0
 18 12  2  0  0  0  0
 19 24  1  0  0  0  0
 19 20  1  1  0  0  0
 21 19  1  0  0  0  0
 21  1  1  0  0  0  0
 22 21  1  0  0  0  0
 23 21  1  0  0  0  0
 24 27  1  0  0  0  0
 24 26  1  0  0  0  0
 25 24  1  0  0  0  0
 28 31  1  0  0  0  0
 29 28  1  0  0  0  0
 30 28  1  0  0  0  0
 32 34  1  0  0  0  0
 32 33  1  0  0  0  0
 35 38  1  0  0  0  0
 35 36  1  0  0  0  0
 37 35  1  0  0  0  0
 39 59  1  0  0  0  0
 39 41  1  0  0  0  0
 40 39  1  0  0  0  0
 42 39  1  0  0  0  0
 43 45  1  0  0  0  0
 43 46  1  0  0  0  0
 44 43  1  0  0  0  0
 47  1  1  0  0  0  0
 48 47  1  0  0  0  0
 48 49  1  0  0  0  0
 50 48  2  0  0  0  0
 51 50  1  0  0  0  0
 52 54  2  0  0  0  0
 52 50  1  0  0  0  0
 53 52  1  0  0  0  0
 54 56  1  0  0  0  0
 55 54  1  0  0  0  0
 56 57  1  0  0  0  0
 56 47  2  0  0  0  0
 58 43  1  0  0  0  0
 59 16  1  0  0  0  0
 60 35  1  0  0  0  0
 60 32  1  0  0  0  0
M  END
