10
q = 0.0, confidence = 0.996

 44 45  0  0  1  0  0  0  0  0999 V2000
    1.7988    0.9711    0.6585 C   0  0  2  0  0  0  0  0  0  0  0  0
    1.4499    1.7715    1.3396 H   0  0  0  0  0  0  0  0  0  0  0  0
    2.3357   -0.2059    1.4846 C   0  0  0  0  0  0  0  0  0  0  0  0
    3.2005    0.1337    2.0855 H   0  0  0  0  0  0  0  0  0  0  0  0
    1.5368   -0.5139    2.1879 H   0  0  0  0  0  0  0  0  0  0  0  0
    2.7495   -1.3848    0.5984 C   0  0  0  0  0  0  0  0  0  0  0  0
    3.7774   -1.2161    0.2063 H   0  0  0  0  0  0  0  0  0  0  0  0
    2.8256   -2.3068    1.2147 H   0  0  0  0  0  0  0  0  0  0  0  0
    1.8285   -1.6618   -0.5773 C   0  0  0  0  0  0  0  0  0  0  0  0
   -0.4955   -1.2241   -1.5312 C   0  0  0  0  0  3  0  0  0  0  0  0
   -0.5216   -2.2481   -1.9244 H   0  0  0  0  0  0  0  0  0  0  0  0
   -1.6427   -0.4063   -1.7011 C   0  0  1  0  0  3  0  0  0  0  0  0
   -1.6578    0.9054   -1.1104 C   0  0  0  0  0  0  0  0  0  0  0  0
   -0.5174    1.3537   -0.3706 C   0  0  0  0  0  0  0  0  0  0  0  0
    0.6226    0.5067   -0.1686 C   0  0  0  0  0  0  0  0  0  0  0  0
    0.6420   -0.7952   -0.7678 C   0  0  0  0  0  0  0  0  0  0  0  0
    2.1178   -2.6600   -1.4539 C   0  0  0  0  0  0  0  0  0  0  0  0
    1.4623   -2.8095   -2.3269 H   0  0  0  0  0  0  0  0  0  0  0  0
    3.3028   -3.5692   -1.3195 C   0  0  0  0  0  0  0  0  0  0  0  0
    3.3703   -4.2905   -2.1550 H   0  0  0  0  0  0  0  0  0  0  0  0
    3.2659   -4.1501   -0.3714 H   0  0  0  0  0  0  0  0  0  0  0  0
    4.2574   -2.9983   -1.2860 H   0  0  0  0  0  0  0  0  0  0  0  0
   -2.8285   -0.8776   -2.4959 C   0  0  0  0  0  0  0  0  0  0  0  0
   -3.7764   -0.5195   -2.0554 H   0  0  0  0  0  0  0  0  0  0  0  0
   -2.8531   -1.9820   -2.5478 H   0  0  0  0  0  0  0  0  0  0  0  0
   -2.7749   -0.4792   -3.5308 H   0  0  0  0  0  0  0  0  0  0  0  0
    2.8676    1.5770   -0.2636 C   0  0  0  0  0  0  0  0  0  0  0  0
    3.1524    0.8437   -1.0614 H   0  0  0  0  0  0  0  0  0  0  0  0
    2.4454    2.4678   -0.7949 H   0  0  0  0  0  0  0  0  0  0  0  0
    5.0324    2.4854   -0.2622 C   0  0  0  0  0  0  0  0  0  0  0  0
    5.8666    2.7305    0.4235 H   0  0  0  0  0  0  0  0  0  0  0  0
    4.7210    3.4199   -0.7913 H   0  0  0  0  0  0  0  0  0  0  0  0
    5.4049    1.7689   -1.0355 H   0  0  0  0  0  0  0  0  0  0  0  0
   -0.4499    3.6805   -0.7449 C   0  0  0  0  0  0  0  0  0  0  0  0
   -0.4604    4.6125   -0.1503 H   0  0  0  0  0  0  0  0  0  0  0  0
   -1.3183    3.6674   -1.4364 H   0  0  0  0  0  0  0  0  0  0  0  0
    0.4895    3.6396   -1.3390 H   0  0  0  0  0  0  0  0  0  0  0  0
   -3.4730    2.1573   -0.1784 C   0  0  0  0  0  0  0  0  0  0  0  0
   -4.3138    2.7606   -0.5684 H   0  0  0  0  0  0  0  0  0  0  0  0
   -2.8432    2.7712    0.4965 H   0  0  0  0  0  0  0  0  0  0  0  0
   -3.8620    1.2884    0.3920 H   0  0  0  0  0  0  0  0  0  0  0  0
    3.9899    1.9391    0.5069 O   0  0  0  0  0  0  0  0  0  0  0  0
   -0.5073    2.6026    0.1950 O   0  0  0  0  0  0  0  0  0  0  0  0
   -2.7452    1.7028   -1.3283 O   0  0  0  0  0  0  0  0  0  0  0  0
  1  2  1  1  0  0  0
  1  3  1  0  0  0  0
  3  4  1  0  0  0  0
  3  5  1  0  0  0  0
  6  8  1  0  0  0  0
  6  3  1  0  0  0  0
  7  6  1  0  0  0  0
  9  6  1  0  0  0  0
 10 16  1  0  0  0  0
 11 10  1  0  0  0  0
 12 23  1  6  0  0  0
 12 10  1  0  0  0  0
 12 13  1  0  0  0  0
 13 14  2  0  0  0  0
 14 15  1  0  0  0  0
 14 43  1  0  0  0  0
 15  1  1  0  0  0  0
 16  9  1  0  0  0  0
 16 15  2  0  0  0  0
 17 19  1  0  0  0  0
 17  9  2  0  0  0  0
 18 17  1  0  0  0  0
 19 22  1  0  0  0  0
 19 21  1  0  0  0  0
 20 19  1  0  0  0  0
 23 24  1  0  0  0  0
 25 23  1  0  0  0  0
 26 23  1  0  0  0  0
 27 42  1  0  0  0  0
 27  1  1  0  0  0  0
 28 27  1  0  0  0  0
 29 27  1  0  0  0  0
 30 31  1  0  0  0  0
 30 42  1  0  0  0  0
 32 30  1  0  0  0  0
 33 30  1  0  0  0  0
 34 35  1  0  0  0  0
 34 43  1  0  0  0  0
 36 34  1  0  0  0  0
 37 34  1  0  0  0  0
 38 41  1  0  0  0  0
 38 40  1  0  0  0  0
 39 38  1  0  0  0  0
 44 13  1  0  0  0  0
 44 38  1  0  0  0  0
M  END
