13
q = -1.0, confidence = 0.058

 57 59  0  0  1  0  0  0  0  0999 V2000
   -2.0027   -2.4503   -0.5890 Si  0  0  0  0  0  0  0  0  0  0  0  0
   -3.2880    0.1774   -0.6072 Si  0  0  0  0  0  0  0  0  0  0  0  0
   -0.2092    3.1564   -0.7361 Si  0  0  0  0  0  0  0  0  0  0  0  0
    2.3823    1.8161   -0.4894 Si  0  0  0  0  0  0  0  0  0  0  0  0
    2.0435   -2.0786   -0.7424 Si  0  0  0  0  0  0  0  0  0  0  0  0
   -3.4250   -1.5182   -0.6093 O   0  0  0  0  0  0  0  0  0  0  0  0
    1.4742    3.2635   -0.5794 O   0  0  0  0  0  0  0  0  0  0  0  0
    3.4028   -1.2520   -0.1558 O   0  0  0  0  0  0  0  0  0  0  0  0
   -0.7521   -1.0267   -0.4744 C   0  0  2  0  0  3  0  0  0  0  0  0
   -1.4052    0.2841   -0.4616 C   0  0  0  0  0  0  0  0  0  0  0  0
   -0.3826    1.2855   -0.4742 C   0  0  0  0  0  0  0  0  0  0  0  0
    0.9119    0.6154   -0.4899 C   0  0  2  0  0  3  0  0  0  0  0  0
    0.6758   -0.8151   -0.4928 C   0  0  2  0  0  3  0  0  0  0  0  0
   -2.0536   -3.6558    0.8467 C   0  0  0  0  0  0  0  0  0  0  0  0
   -1.0648   -4.1261    1.0172 H   0  0  0  0  0  0  0  0  0  0  0  0
   -2.7870   -4.4613    0.6378 H   0  0  0  0  0  0  0  0  0  0  0  0
   -2.3590   -3.1415    1.7775 H   0  0  0  0  0  0  0  0  0  0  0  0
   -1.7967   -3.3616   -2.2244 C   0  0  0  0  0  0  0  0  0  0  0  0
   -0.8777   -3.9842   -2.2197 H   0  0  0  0  0  0  0  0  0  0  0  0
   -1.7264   -2.6496   -3.0710 H   0  0  0  0  0  0  0  0  0  0  0  0
   -2.6589   -4.0348   -2.4080 H   0  0  0  0  0  0  0  0  0  0  0  0
   -3.8548    0.8708   -2.2627 C   0  0  0  0  0  0  0  0  0  0  0  0
   -3.7766    1.9777   -2.2760 H   0  0  0  0  0  0  0  0  0  0  0  0
   -4.9141    0.6032   -2.4540 H   0  0  0  0  0  0  0  0  0  0  0  0
   -3.2407    0.4717   -3.0944 H   0  0  0  0  0  0  0  0  0  0  0  0
   -4.2555    0.9462    0.8020 C   0  0  0  0  0  0  0  0  0  0  0  0
   -3.9865    2.0177    0.9101 H   0  0  0  0  0  0  0  0  0  0  0  0
   -4.0386    0.4361    1.7596 H   0  0  0  0  0  0  0  0  0  0  0  0
   -5.3459    0.8844    0.6093 H   0  0  0  0  0  0  0  0  0  0  0  0
   -0.7206    3.5572   -2.5046 C   0  0  0  0  0  0  0  0  0  0  0  0
   -0.4443    4.6007   -2.7606 H   0  0  0  0  0  0  0  0  0  0  0  0
   -1.8162    3.4494   -2.6423 H   0  0  0  0  0  0  0  0  0  0  0  0
   -0.2158    2.8808   -3.2232 H   0  0  0  0  0  0  0  0  0  0  0  0
   -1.1087    4.2721    0.4717 C   0  0  0  0  0  0  0  0  0  0  0  0
   -2.1998    4.0700    0.4383 H   0  0  0  0  0  0  0  0  0  0  0  0
   -0.9532    5.3352    0.1967 H   0  0  0  0  0  0  0  0  0  0  0  0
   -0.7567    4.1221    1.5093 H   0  0  0  0  0  0  0  0  0  0  0  0
    3.4166    1.8342    1.0731 C   0  0  0  0  0  0  0  0  0  0  0  0
    4.3072    2.4835    0.9506 H   0  0  0  0  0  0  0  0  0  0  0  0
    3.7499    0.8042    1.3060 H   0  0  0  0  0  0  0  0  0  0  0  0
    2.8209    2.2175    1.9241 H   0  0  0  0  0  0  0  0  0  0  0  0
    3.4287    1.6326   -2.0409 C   0  0  0  0  0  0  0  0  0  0  0  0
    3.9938    0.6802   -1.9971 H   0  0  0  0  0  0  0  0  0  0  0  0
    4.1519    2.4686   -2.1309 H   0  0  0  0  0  0  0  0  0  0  0  0
    2.7942    1.6255   -2.9499 H   0  0  0  0  0  0  0  0  0  0  0  0
    1.7780   -3.7021    0.1691 C   0  0  0  0  0  0  0  0  0  0  0  0
    2.6445   -4.3780    0.0169 H   0  0  0  0  0  0  0  0  0  0  0  0
    0.8825   -4.2275   -0.2200 H   0  0  0  0  0  0  0  0  0  0  0  0
    1.6488   -3.5414    1.2570 H   0  0  0  0  0  0  0  0  0  0  0  0
    2.2341   -2.3813   -2.5935 C   0  0  0  0  0  0  0  0  0  0  0  0
    1.3140   -2.8361   -3.0146 H   0  0  0  0  0  0  0  0  0  0  0  0
    3.0803   -3.0654   -2.8097 H   0  0  0  0  0  0  0  0  0  0  0  0
    2.4164   -1.4241   -3.1223 H   0  0  0  0  0  0  0  0  0  0  0  0
    4.6770   -1.8327    0.0246 C   0  0  0  0  0  0  0  0  0  0  0  0
    5.3718   -1.0501    0.3947 H   0  0  0  0  0  0  0  0  0  0  0  0
    5.0986   -2.2409   -0.9238 H   0  0  0  0  0  0  0  0  0  0  0  0
    4.6601   -2.6531    0.7778 H   0  0  0  0  0  0  0  0  0  0  0  0
  1  9  1  0  0  0  0
  1 14  1  0  0  0  0
  2 10  1  0  0  0  0
  2 26  1  0  0  0  0
  3  7  1  0  0  0  0
  3 11  1  0  0  0  0
  3 34  1  0  0  0  0
  4 38  1  0  0  0  0
  5  8  1  0  0  0  0
  5 46  1  0  0  0  0
  6  2  1  0  0  0  0
  6  1  1  0  0  0  0
  7  4  1  0  0  0  0
  8 54  1  0  0  0  0
  9 10  1  6  0  0  0
 11 10  2  0  0  0  0
 12  4  1  0  0  0  0
 12 11  1  1  0  0  0
 13  5  1  6  0  0  0
 13 12  1  0  0  0  0
 13  9  1  0  0  0  0
 14 15  1  0  0  0  0
 14 17  1  0  0  0  0
 16 14  1  0  0  0  0
 18 19  1  0  0  0  0
 18  1  1  0  0  0  0
 20 18  1  0  0  0  0
 21 18  1  0  0  0  0
 22  2  1  0  0  0  0
 23 22  1  0  0  0  0
 24 22  1  0  0  0  0
 25 22  1  0  0  0  0
 26 27  1  0  0  0  0
 26 28  1  0  0  0  0
 29 26  1  0  0  0  0
 30  3  1  0  0  0  0
 31 30  1  0  0  0  0
 32 30  1  0  0  0  0
 33 30  1  0  0  0  0
 34 37  1  0  0  0  0
 35 34  1  0  0  0  0
 36 34  1  0  0  0  0
 38 40  1  0  0  0  0
 38 41  1  0  0  0  0
 39 38  1  0  0  0  0
 42 43  1  0  0  0  0
 42  4  1  0  0  0  0
 44 42  1  0  0  0  0
 45 42  1  0  0  0  0
 46 49  1  0  0  0  0
 47 46  1  0  0  0  0
 48 46  1  0  0  0  0
 50  5  1  0  0  0  0
 51 50  1  0  0  0  0
 52 50  1  0  0  0  0
 53 50  1  0  0  0  0
 54 55  1  0  0  0  0
 54 57  1  0  0  0  0
 56 54  1  0  0  0  0
M  END
