2
q = -1.0

 17 17  0  0  0  0  0  0  0  0999 V2000
    0.9281   -0.8424   -2.2627 N   0  0  0  0  0  2  0  0  0  0  0  0
   -0.0712   -0.1553   -1.8324 C   0  0  0  0  0  2  0  0  0  0  0  0
   -0.7636    0.2013   -2.6354 H   0  0  0  0  0  0  0  0  0  0  0  0
    1.8653   -1.4563   -1.4272 C   0  0  0  0  0  0  0  0  0  0  0  0
    3.2379   -1.3803   -1.7633 C   0  0  0  0  0  0  0  0  0  0  0  0
    3.5217   -0.8331   -2.6749 H   0  0  0  0  0  0  0  0  0  0  0  0
    4.2081   -1.9857   -0.9555 C   0  0  0  0  0  0  0  0  0  0  0  0
    5.2715   -1.8957   -1.2309 H   0  0  0  0  0  0  0  0  0  0  0  0
    3.8544   -2.7258    0.1933 C   0  0  0  0  0  0  0  0  0  0  0  0
    2.4819   -2.8403    0.4955 C   0  0  0  0  0  0  0  0  0  0  0  0
    2.1691   -3.4282    1.3743 H   0  0  0  0  0  0  0  0  0  0  0  0
    1.5056   -2.2115   -0.2862 C   0  0  0  0  0  0  0  0  0  0  0  0
    0.4436   -2.2985   -0.0228 H   0  0  0  0  0  0  0  0  0  0  0  0
    4.9047   -3.3512    1.0765 C   0  0  0  0  0  0  0  0  0  0  0  0
    5.2033   -2.6612    1.8962 H   0  0  0  0  0  0  0  0  0  0  0  0
    5.8243   -3.5980    0.5093 H   0  0  0  0  0  0  0  0  0  0  0  0
    4.5370   -4.2805    1.5556 H   0  0  0  0  0  0  0  0  0  0  0  0
  1  2  1  0  0  0  0
  1  4  1  0  0  0  0
  3  2  1  0  0  0  0
  4 12  1  0  0  0  0
  5  4  2  0  0  0  0
  5  7  1  0  0  0  0
  6  5  1  0  0  0  0
  7  9  2  0  0  0  0
  8  7  1  0  0  0  0
  9 10  1  0  0  0  0
  9 14  1  0  0  0  0
 10 11  1  0  0  0  0
 12 13  1  0  0  0  0
 12 10  2  0  0  0  0
 14 17  1  0  0  0  0
 14 15  1  0  0  0  0
 16 14  1  0  0  0  0
M  END
