1
q = -1.0

 14 14  0  0  0  0  0  0  0  0999 V2000
   -2.8016    0.0530   -0.6089 C   0  0  0  0  0  3  0  0  0  0  0  0
   -3.6104    1.2018   -0.7422 C   0  0  0  0  0  0  0  0  0  0  0  0
   -3.2069    2.1210   -1.1942 H   0  0  0  0  0  0  0  0  0  0  0  0
   -4.9389    1.1903   -0.2981 C   0  0  0  0  0  0  0  0  0  0  0  0
   -5.5828    2.0775   -0.3922 H   0  0  0  0  0  0  0  0  0  0  0  0
   -5.4823    0.0293    0.2854 C   0  0  0  0  0  0  0  0  0  0  0  0
   -4.6821   -1.1229    0.4188 C   0  0  0  0  0  0  0  0  0  0  0  0
   -5.1087   -2.0281    0.8734 H   0  0  0  0  0  0  0  0  0  0  0  0
   -3.3523   -1.1083   -0.0259 C   0  0  0  0  0  0  0  0  0  0  0  0
   -2.7431   -2.0184    0.0890 H   0  0  0  0  0  0  0  0  0  0  0  0
   -6.9019    0.0741    0.7426 C   0  0  0  0  0  0  0  0  0  0  0  0
   -7.6328    1.0461    0.6497 O   0  0  0  0  0  0  0  0  0  0  0  0
   -7.3176   -1.1003    1.2878 O   0  0  0  0  0  0  0  0  0  0  0  0
   -8.2518   -0.9453    1.5447 H   0  0  0  0  0  0  0  0  0  0  0  0
  1  9  1  0  0  0  0
  2  1  2  0  0  0  0
  2  4  1  0  0  0  0
  3  2  1  0  0  0  0
  4  6  2  0  0  0  0
  5  4  1  0  0  0  0
  6  7  1  0  0  0  0
  6 11  1  0  0  0  0
  7  8  1  0  0  0  0
  9 10  1  0  0  0  0
  9  7  2  0  0  0  0
 11 13  1  0  0  0  0
 12 11  2  0  0  0  0
 13 14  1  0  0  0  0
M  END
