1
q = -1.0

 22 23  0  0  0  0  0  0  0  0999 V2000
    0.6831   -2.0831   -0.4476 C   0  0  0  0  0  3  0  0  0  0  0  0
    1.2894   -2.8532   -0.9383 H   0  0  0  0  0  0  0  0  0  0  0  0
   -0.7953   -0.3162   -0.1081 C   0  0  0  0  0  0  0  0  0  0  0  0
   -5.4129    1.0964    0.1581 C   0  0  0  0  0  0  0  0  0  0  0  0
   -6.0893    1.9559    0.3165 H   0  0  0  0  0  0  0  0  0  0  0  0
   -3.2483    0.3690   -0.1731 C   0  0  0  0  0  0  0  0  0  0  0  0
   -4.1110    1.3851    0.0211 N   0  0  0  0  0  0  0  0  0  0  0  0
   -0.1405   -1.1089   -1.1058 C   0  0  0  0  0  0  0  0  0  0  0  0
   -0.2667   -0.9937   -2.1897 H   0  0  0  0  0  0  0  0  0  0  0  0
   -5.0296   -1.2656   -0.0827 C   0  0  0  0  0  0  0  0  0  0  0  0
   -5.3841   -2.3072   -0.1216 H   0  0  0  0  0  0  0  0  0  0  0  0
   -3.6659   -0.9755   -0.2288 C   0  0  0  0  0  0  0  0  0  0  0  0
   -2.9299   -1.7783   -0.3820 H   0  0  0  0  0  0  0  0  0  0  0  0
   -5.9292   -0.2093    0.1150 C   0  0  0  0  0  0  0  0  0  0  0  0
   -7.0076   -0.3887    0.2373 H   0  0  0  0  0  0  0  0  0  0  0  0
   -1.7929    0.7779   -0.3517 C   0  0  0  0  0  0  0  0  0  0  0  0
   -1.6207    1.6437    0.3199 H   0  0  0  0  0  0  0  0  0  0  0  0
   -1.6679    1.1714   -1.3835 H   0  0  0  0  0  0  0  0  0  0  0  0
   -0.3728   -0.8110    1.1737 C   0  0  0  0  0  0  0  0  0  0  0  0
   -0.7029   -0.4192    2.1444 H   0  0  0  0  0  0  0  0  0  0  0  0
    0.5314   -1.8976    0.9705 C   0  0  0  0  0  0  0  0  0  0  0  0
    1.0083   -2.4969    1.7552 H   0  0  0  0  0  0  0  0  0  0  0  0
  1 21  1  0  0  0  0
  2  1  1  0  0  0  0
  3 19  1  0  0  0  0
  4  5  1  0  0  0  0
  6  7  1  0  0  0  0
  7  4  2  0  0  0  0
  8  1  1  0  0  0  0
  8  3  2  0  0  0  0
  9  8  1  0  0  0  0
 10 14  2  0  0  0  0
 11 10  1  0  0  0  0
 12  6  2  0  0  0  0
 12 10  1  0  0  0  0
 13 12  1  0  0  0  0
 14  4  1  0  0  0  0
 14 15  1  0  0  0  0
 16  6  1  0  0  0  0
 16  3  1  0  0  0  0
 16 17  1  0  0  0  0
 18 16  1  0  0  0  0
 19 20  1  0  0  0  0
 21 19  2  0  0  0  0
 21 22  1  0  0  0  0
M  END
