17
q = -1.0, confidence = 0.0

 40 43  0  0  1  0  0  0  0  0999 V2000
    0.0535   -0.7284    0.9655 C   0  0  0  0  0  0  0  0  0  0  0  0
    0.2075    2.6095   -0.8710 C   0  0  0  0  0  0  0  0  0  0  0  0
   -0.5127    3.2526   -0.3300 H   0  0  0  0  0  0  0  0  0  0  0  0
   -0.0328    2.6683   -1.9504 H   0  0  0  0  0  0  0  0  0  0  0  0
   -0.0298    0.7152    3.3815 C   0  0  0  0  0  0  0  0  0  0  0  0
   -0.0497    1.2479    4.3444 H   0  0  0  0  0  0  0  0  0  0  0  0
    1.6024    3.1446   -0.6054 C   0  0  0  0  0  0  0  0  0  0  0  0
    0.0531    0.7285    0.9653 C   0  0  0  0  0  0  0  0  0  0  0  0
    0.0120   -1.4415    2.1994 C   0  0  0  0  0  0  0  0  0  0  0  0
    0.0603   -2.5399    2.1914 H   0  0  0  0  0  0  0  0  0  0  0  0
    0.0112    1.4419    2.1990 C   0  0  0  0  0  0  0  0  0  0  0  0
    0.0587    2.5404    2.1908 H   0  0  0  0  0  0  0  0  0  0  0  0
    0.0734   -1.1785   -0.4109 C   0  0  1  0  0  3  0  0  0  0  0  0
    1.7988    3.7494    0.5828 N   0  0  0  0  0  0  0  0  0  0  0  0
   -0.0293   -0.7145    3.3817 C   0  0  0  0  0  0  0  0  0  0  0  0
   -0.0489   -1.2470    4.3447 H   0  0  0  0  0  0  0  0  0  0  0  0
    0.1526   -0.0001   -1.2325 C   0  0  0  0  0  3  0  0  0  0  0  0
    0.2375   -0.0002   -2.3271 H   0  0  0  0  0  0  0  0  0  0  0  0
    0.0727    1.1783   -0.4111 C   0  0  2  0  0  3  0  0  0  0  0  0
    0.2090   -2.6097   -0.8705 C   0  0  0  0  0  0  0  0  0  0  0  0
   -0.0316   -2.6687   -1.9498 H   0  0  0  0  0  0  0  0  0  0  0  0
   -0.5108   -3.2530   -0.3292 H   0  0  0  0  0  0  0  0  0  0  0  0
    1.6042   -3.1438   -0.6050 C   0  0  0  0  0  0  0  0  0  0  0  0
    1.8012   -3.7478    0.5835 N   0  0  0  0  0  0  0  0  0  0  0  0
    2.6429    2.9731   -1.5411 C   0  0  0  0  0  0  0  0  0  0  0  0
    2.4428    2.4752   -2.5022 H   0  0  0  0  0  0  0  0  0  0  0  0
    4.1272    4.0727    0.0094 C   0  0  0  0  0  0  0  0  0  0  0  0
    5.1146    4.4608    0.3001 H   0  0  0  0  0  0  0  0  0  0  0  0
    2.6442   -2.9724   -1.5412 C   0  0  0  0  0  0  0  0  0  0  0  0
    2.4436   -2.4753   -2.5025 H   0  0  0  0  0  0  0  0  0  0  0  0
    3.9235    3.4454   -1.2284 C   0  0  0  0  0  0  0  0  0  0  0  0
    4.7529    3.3277   -1.9428 H   0  0  0  0  0  0  0  0  0  0  0  0
    3.0294    4.1971    0.8751 C   0  0  0  0  0  0  0  0  0  0  0  0
    3.1495    4.6866    1.8582 H   0  0  0  0  0  0  0  0  0  0  0  0
    3.0322   -4.1946    0.8757 C   0  0  0  0  0  0  0  0  0  0  0  0
    3.1529   -4.6835    1.8591 H   0  0  0  0  0  0  0  0  0  0  0  0
    3.9253   -3.4438   -1.2286 C   0  0  0  0  0  0  0  0  0  0  0  0
    4.7544   -3.3262   -1.9433 H   0  0  0  0  0  0  0  0  0  0  0  0
    4.1296   -4.0703    0.0096 C   0  0  0  0  0  0  0  0  0  0  0  0
    5.1173   -4.4577    0.3002 H   0  0  0  0  0  0  0  0  0  0  0  0
  1  9  1  0  0  0  0
  2  7  1  0  0  0  0
  2  3  1  0  0  0  0
  4  2  1  0  0  0  0
  5 15  1  0  0  0  0
  5  6  1  0  0  0  0
  7 14  1  0  0  0  0
  8  1  2  0  0  0  0
  8 11  1  0  0  0  0
  9 15  2  0  0  0  0
 10  9  1  0  0  0  0
 11  5  2  0  0  0  0
 12 11  1  0  0  0  0
 13 20  1  1  0  0  0
 13  1  1  0  0  0  0
 14 33  2  0  0  0  0
 15 16  1  0  0  0  0
 17 19  1  0  0  0  0
 17 13  1  0  0  0  0
 18 17  1  0  0  0  0
 19  2  1  1  0  0  0
 19  8  1  0  0  0  0
 20 23  1  0  0  0  0
 20 22  1  0  0  0  0
 21 20  1  0  0  0  0
 23 24  1  0  0  0  0
 24 35  2  0  0  0  0
 25 31  1  0  0  0  0
 25  7  2  0  0  0  0
 26 25  1  0  0  0  0
 27 28  1  0  0  0  0
 27 33  1  0  0  0  0
 29 37  1  0  0  0  0
 29 23  2  0  0  0  0
 30 29  1  0  0  0  0
 31 27  2  0  0  0  0
 32 31  1  0  0  0  0
 33 34  1  0  0  0  0
 35 36  1  0  0  0  0
 37 39  2  0  0  0  0
 38 37  1  0  0  0  0
 39 40  1  0  0  0  0
 39 35  1  0  0  0  0
M  END
