4
q = -1.0, confidence = 0.0

 20 19  0  0  1  0  0  0  0  0999 V2000
   -1.0333    0.1186   -1.9971 S   0  0  0  0  0  0  0  0  0  0  0  0
   -1.1087   -2.1100    0.1233 S   0  0  0  0  0  1  0  0  0  0  0  0
   -3.2901   -0.0129    0.1543 P   0  0  0  0  0  4  0  0  0  0  0  0
   -1.6705   -0.5453   -0.4118 C   0  0  2  0  0  3  0  0  0  0  0  0
   -0.7863   -1.3499   -3.0482 C   0  0  0  0  0  0  0  0  0  0  0  0
   -4.5690   -1.0913   -0.5598 C   0  0  0  0  0  0  0  0  0  0  0  0
   -3.3655   -0.1415    1.9585 C   0  0  0  0  0  0  0  0  0  0  0  0
   -3.6450    1.6911   -0.3578 C   0  0  0  0  0  0  0  0  0  0  0  0
   -1.6546   -1.4889   -3.7186 H   0  0  0  0  0  0  0  0  0  0  0  0
   -0.6599   -2.2218   -2.3705 H   0  0  0  0  0  0  0  0  0  0  0  0
    0.1323   -1.1821   -3.6405 H   0  0  0  0  0  0  0  0  0  0  0  0
   -4.3562   -2.1352   -0.2570 H   0  0  0  0  0  0  0  0  0  0  0  0
   -4.5302   -1.0181   -1.6641 H   0  0  0  0  0  0  0  0  0  0  0  0
   -5.5758   -0.7959   -0.2053 H   0  0  0  0  0  0  0  0  0  0  0  0
   -2.7262    0.6402    2.4089 H   0  0  0  0  0  0  0  0  0  0  0  0
   -2.9895   -1.1417    2.2484 H   0  0  0  0  0  0  0  0  0  0  0  0
   -4.4137   -0.0133    2.2914 H   0  0  0  0  0  0  0  0  0  0  0  0
   -3.5035    1.7786   -1.4525 H   0  0  0  0  0  0  0  0  0  0  0  0
   -2.9604    2.3843    0.1661 H   0  0  0  0  0  0  0  0  0  0  0  0
   -4.6934    1.9380   -0.0995 H   0  0  0  0  0  0  0  0  0  0  0  0
  1  4  1  0  0  0  0
  3  7  1  0  0  0  0
  4  2  1  6  0  0  0
  4  3  1  0  0  0  0
  5 10  1  0  0  0  0
  5  1  1  0  0  0  0
  6 12  1  0  0  0  0
  6 14  1  0  0  0  0
  6  3  1  0  0  0  0
  7 16  1  0  0  0  0
  7 17  1  0  0  0  0
  7 15  1  0  0  0  0
  8 20  1  0  0  0  0
  8  3  1  0  0  0  0
  8 19  1  0  0  0  0
  9  5  1  0  0  0  0
 11  5  1  0  0  0  0
 13  6  1  0  0  0  0
 18  8  1  0  0  0  0
M  END
