4
q = 0.0, confidence = 0.996

 29 30  0  0  0  0  0  0  0  0999 V2000
   -3.1929    2.4952   -0.5196 C   0  0  0  0  0  0  0  0  0  0  0  0
   -1.6811    2.1856   -0.3954 C   0  0  0  0  0  0  0  0  0  0  0  0
   -1.4396    0.7124   -0.2022 C   0  0  0  0  0  3  0  0  0  0  0  0
   -1.3272    0.1475    1.0920 C   0  0  0  0  0  3  0  0  0  0  0  0
   -1.8861   -1.1899    1.4877 C   0  0  0  0  0  0  0  0  0  0  0  0
   -3.3969   -1.0277    1.8147 C   0  0  0  0  0  0  0  0  0  0  0  0
   -4.2579   -0.8733    0.5779 C   0  0  0  0  0  0  0  0  0  0  0  0
   -4.5690    0.3699   -0.0361 C   0  0  0  0  0  0  0  0  0  0  0  0
   -4.1138    1.7330    0.4665 C   0  0  0  0  0  0  0  0  0  0  0  0
   -4.7376   -2.0622   -0.0184 C   0  0  0  0  0  0  0  0  0  0  0  0
   -5.5146   -2.0548   -1.1805 C   0  0  0  0  0  0  0  0  0  0  0  0
   -5.8405   -0.8269   -1.7761 C   0  0  0  0  0  0  0  0  0  0  0  0
   -5.3710    0.3580   -1.2012 C   0  0  0  0  0  0  0  0  0  0  0  0
   -3.5327    2.2800   -1.5545 H   0  0  0  0  0  0  0  0  0  0  0  0
   -3.3244    3.5882   -0.3769 H   0  0  0  0  0  0  0  0  0  0  0  0
   -1.1609    2.5519   -1.3051 H   0  0  0  0  0  0  0  0  0  0  0  0
   -1.2423    2.7326    0.4631 H   0  0  0  0  0  0  0  0  0  0  0  0
   -1.7760    0.0459   -1.0174 H   0  0  0  0  0  0  0  0  0  0  0  0
   -1.2440    0.8721    1.9248 H   0  0  0  0  0  0  0  0  0  0  0  0
   -1.3518   -1.5697    2.3831 H   0  0  0  0  0  0  0  0  0  0  0  0
   -1.7505   -1.9294    0.6741 H   0  0  0  0  0  0  0  0  0  0  0  0
   -3.7307   -1.9319    2.3634 H   0  0  0  0  0  0  0  0  0  0  0  0
   -3.5331   -0.1759    2.5129 H   0  0  0  0  0  0  0  0  0  0  0  0
   -3.6253    1.6578    1.4580 H   0  0  0  0  0  0  0  0  0  0  0  0
   -5.0244    2.3492    0.6265 H   0  0  0  0  0  0  0  0  0  0  0  0
   -4.4868   -3.0239    0.4579 H   0  0  0  0  0  0  0  0  0  0  0  0
   -5.8714   -3.0012   -1.6142 H   0  0  0  0  0  0  0  0  0  0  0  0
   -6.4630   -0.7920   -2.6832 H   0  0  0  0  0  0  0  0  0  0  0  0
   -5.6369    1.3205   -1.6678 H   0  0  0  0  0  0  0  0  0  0  0  0
  1  2  1  0  0  0  0
  1 15  1  0  0  0  0
  1  9  1  0  0  0  0
  2  3  1  0  0  0  0
  2 17  1  0  0  0  0
  3  4  1  0  0  0  0
  4  5  1  0  0  0  0
  4 19  1  0  0  0  0
  5  6  1  0  0  0  0
  5 20  1  0  0  0  0
  6 22  1  0  0  0  0
  6 23  1  0  0  0  0
  7  6  1  0  0  0  0
  8  9  1  0  0  0  0
  8  7  2  0  0  0  0
  9 25  1  0  0  0  0
  9 24  1  0  0  0  0
 10 26  1  0  0  0  0
 10  7  1  0  0  0  0
 11 10  2  0  0  0  0
 12 13  2  0  0  0  0
 12 11  1  0  0  0  0
 13  8  1  0  0  0  0
 14  1  1  0  0  0  0
 16  2  1  0  0  0  0
 18  3  1  0  0  0  0
 21  5  1  0  0  0  0
 27 11  1  0  0  0  0
 28 12  1  0  0  0  0
 29 13  1  0  0  0  0
M  END
