3
q = -1.0, confidence = 0.01

  4  3  0  0  0  0  0  0  0  0999 V2000
   -0.8333   -2.0062   -1.5241 S   0  0  0  0  0  1  0  0  0  0  0  0
   -0.8333   -2.0061    1.5243 S   0  0  0  0  0  1  0  0  0  0  0  0
   -1.6326   -1.7368    0.0001 C   0  0  0  0  0  3  0  0  0  0  0  0
   -2.6829   -1.3913    0.0001 H   0  0  0  0  0  0  0  0  0  0  0  0
  1  3  1  0  0  0  0
  3  2  1  0  0  0  0
  4  3  1  0  0  0  0
M  END
