12
q = -1.0, confidence = 0.056

 32 33  0  0  0  0  0  0  0  0999 V2000
   -3.5661   -2.0276    0.1848 Si  0  0  0  0  0  0  0  0  0  0  0  0
   -6.7044   -0.7804    1.5723 F   0  0  0  0  0  0  0  0  0  0  0  0
   -7.3251    1.8303    2.0083 F   0  0  0  0  0  0  0  0  0  0  0  0
   -6.6386    3.7382    0.1593 F   0  0  0  0  0  0  0  0  0  0  0  0
   -5.3503    2.9979   -2.1490 F   0  0  0  0  0  0  0  0  0  0  0  0
   -4.7631    0.3868   -2.6058 F   0  0  0  0  0  0  0  0  0  0  0  0
   -2.5417   -0.4643   -0.1152 C   0  0  0  0  0  0  0  0  0  0  0  0
   -2.2061    0.5290    0.8703 C   0  0  0  0  0  0  0  0  0  0  0  0
   -2.4072    0.4458    1.9457 H   0  0  0  0  0  0  0  0  0  0  0  0
   -1.5557    1.6168    0.2322 C   0  0  0  0  0  0  0  0  0  0  0  0
   -1.1969    2.5320    0.7182 H   0  0  0  0  0  0  0  0  0  0  0  0
   -1.4682    1.3130   -1.1650 C   0  0  0  0  0  3  0  0  0  0  0  0
   -1.0314    1.9509   -1.9436 H   0  0  0  0  0  0  0  0  0  0  0  0
   -2.0920    0.0518   -1.3716 C   0  0  0  0  0  0  0  0  0  0  0  0
   -2.1834   -0.4553   -2.3380 H   0  0  0  0  0  0  0  0  0  0  0  0
   -2.7694   -3.5632   -0.5546 C   0  0  0  0  0  0  0  0  0  0  0  0
   -1.8342   -3.7960   -0.0077 H   0  0  0  0  0  0  0  0  0  0  0  0
   -2.5069   -3.4122   -1.6204 H   0  0  0  0  0  0  0  0  0  0  0  0
   -3.4527   -4.4336   -0.4776 H   0  0  0  0  0  0  0  0  0  0  0  0
   -3.8896   -2.2134    2.0302 C   0  0  0  0  0  0  0  0  0  0  0  0
   -4.5397   -3.0925    2.2164 H   0  0  0  0  0  0  0  0  0  0  0  0
   -4.4013   -1.3269    2.4526 H   0  0  0  0  0  0  0  0  0  0  0  0
   -2.9312   -2.3644    2.5651 H   0  0  0  0  0  0  0  0  0  0  0  0
   -5.2434   -1.6970   -0.7191 C   0  0  0  0  0  0  0  0  0  0  0  0
   -5.1109   -1.9072   -1.7983 H   0  0  0  0  0  0  0  0  0  0  0  0
   -5.9905   -2.4116   -0.3180 H   0  0  0  0  0  0  0  0  0  0  0  0
   -5.6962   -0.2830   -0.5228 C   0  0  0  0  0  0  0  0  0  0  0  0
   -6.3663    0.1321    0.6425 C   0  0  0  0  0  0  0  0  0  0  0  0
   -6.6902    1.4763    0.8862 C   0  0  0  0  0  0  0  0  0  0  0  0
   -6.3427    2.4540   -0.0612 C   0  0  0  0  0  0  0  0  0  0  0  0
   -5.6832    2.0734   -1.2419 C   0  0  0  0  0  0  0  0  0  0  0  0
   -5.3825    0.7204   -1.4587 C   0  0  0  0  0  0  0  0  0  0  0  0
  1 20  1  0  0  0  0
  5 31  1  0  0  0  0
  6 32  1  0  0  0  0
  7  1  1  0  0  0  0
  7  8  1  0  0  0  0
  8  9  1  0  0  0  0
 10 11  1  0  0  0  0
 10  8  2  0  0  0  0
 12 10  1  0  0  0  0
 13 12  1  0  0  0  0
 14 12  1  0  0  0  0
 14  7  2  0  0  0  0
 15 14  1  0  0  0  0
 16 19  1  0  0  0  0
 16 17  1  0  0  0  0
 16  1  1  0  0  0  0
 18 16  1  0  0  0  0
 20 21  1  0  0  0  0
 20 22  1  0  0  0  0
 20 23  1  0  0  0  0
 24 27  1  0  0  0  0
 24 26  1  0  0  0  0
 24  1  1  0  0  0  0
 25 24  1  0  0  0  0
 27 28  1  0  0  0  0
 28 29  2  0  0  0  0
 28  2  1  0  0  0  0
 29  3  1  0  0  0  0
 30  4  1  0  0  0  0
 30 29  1  0  0  0  0
 31 30  2  0  0  0  0
 32 31  1  0  0  0  0
 32 27  2  0  0  0  0
M  END
