1
q = 0.0, confidence = 0.97

 40 40  0  0  1  0  0  0  0  0999 V2000
    0.3904    0.0740    0.3884 C   0  0  0  0  0  2  0  0  0  0  0  0
    1.2678   -0.7307    1.1452 C   0  0  1  0  0  3  0  0  0  0  0  0
    1.0482   -1.7587    2.2036 C   0  0  0  0  0  0  0  0  0  0  0  0
    2.3664   -0.2978    0.3561 C   0  0  1  0  0  3  0  0  0  0  0  0
    3.4996   -0.9088   -0.0230 N   0  0  0  0  0  0  0  0  0  0  0  0
    3.7088   -2.3255    0.3228 C   0  0  0  0  0  0  0  0  0  0  0  0
    2.9678   -3.2626   -0.6311 C   0  0  0  0  0  0  0  0  0  0  0  0
    4.4579   -0.3129   -0.9604 C   0  0  0  0  0  0  0  0  0  0  0  0
    5.8167   -0.0245   -0.3236 C   0  0  0  0  0  0  0  0  0  0  0  0
    1.5865    0.8782   -0.2569 C   0  0  1  0  0  0  0  0  0  0  0  0
    1.5412    0.9251   -1.7878 C   0  0  0  0  0  0  0  0  0  0  0  0
    1.8315    2.2804    0.4239 C   0  0  0  0  0  0  0  0  0  0  0  0
    0.7691    3.2830   -0.0659 C   0  0  0  0  0  0  0  0  0  0  0  0
    1.7305    2.1822    1.9568 C   0  0  0  0  0  0  0  0  0  0  0  0
    3.2321    2.8207    0.0744 C   0  0  0  0  0  0  0  0  0  0  0  0
    0.1243   -1.5246    2.7647 H   0  0  0  0  0  0  0  0  0  0  0  0
    0.9209   -2.7819    1.7888 H   0  0  0  0  0  0  0  0  0  0  0  0
    1.8863   -1.7862    2.9283 H   0  0  0  0  0  0  0  0  0  0  0  0
    3.3786   -2.4879    1.3657 H   0  0  0  0  0  0  0  0  0  0  0  0
    4.7990   -2.5224    0.3064 H   0  0  0  0  0  0  0  0  0  0  0  0
    3.1233   -4.3181   -0.3322 H   0  0  0  0  0  0  0  0  0  0  0  0
    1.8786   -3.0573   -0.6253 H   0  0  0  0  0  0  0  0  0  0  0  0
    3.3263   -3.1499   -1.6741 H   0  0  0  0  0  0  0  0  0  0  0  0
    4.0162    0.6191   -1.3498 H   0  0  0  0  0  0  0  0  0  0  0  0
    4.5740   -0.9982   -1.8286 H   0  0  0  0  0  0  0  0  0  0  0  0
    6.4952    0.4276   -1.0738 H   0  0  0  0  0  0  0  0  0  0  0  0
    5.7166    0.6845    0.5221 H   0  0  0  0  0  0  0  0  0  0  0  0
    6.3071   -0.9432    0.0557 H   0  0  0  0  0  0  0  0  0  0  0  0
    2.3446    1.5409   -2.2386 H   0  0  0  0  0  0  0  0  0  0  0  0
    1.6005   -0.0945   -2.2170 H   0  0  0  0  0  0  0  0  0  0  0  0
    0.5765    1.3531   -2.1170 H   0  0  0  0  0  0  0  0  0  0  0  0
    0.9175    4.2622    0.4331 H   0  0  0  0  0  0  0  0  0  0  0  0
    0.8205    3.4549   -1.1585 H   0  0  0  0  0  0  0  0  0  0  0  0
   -0.2515    2.9311    0.1755 H   0  0  0  0  0  0  0  0  0  0  0  0
    1.9273    3.1767    2.4059 H   0  0  0  0  0  0  0  0  0  0  0  0
    0.7246    1.8549    2.2842 H   0  0  0  0  0  0  0  0  0  0  0  0
    2.4673    1.4678    2.3777 H   0  0  0  0  0  0  0  0  0  0  0  0
    3.3667    3.8314    0.5107 H   0  0  0  0  0  0  0  0  0  0  0  0
    4.0339    2.1773    0.4898 H   0  0  0  0  0  0  0  0  0  0  0  0
    3.3906    2.9185   -1.0186 H   0  0  0  0  0  0  0  0  0  0  0  0
  1  2  1  0  0  0  0
  2  3  1  6  0  0  0
  3 16  1  0  0  0  0
  3 18  1  0  0  0  0
  4  5  1  6  0  0  0
  4  2  1  0  0  0  0
  5  6  1  0  0  0  0
  6 19  1  0  0  0  0
  7 22  1  0  0  0  0
  7 21  1  0  0  0  0
  7  6  1  0  0  0  0
  8  9  1  0  0  0  0
  8  5  1  0  0  0  0
  9 28  1  0  0  0  0
  9 27  1  0  0  0  0
 10 11  1  6  0  0  0
 10  4  1  0  0  0  0
 10  1  1  0  0  0  0
 10 12  1  0  0  0  0
 12 14  1  0  0  0  0
 13 34  1  0  0  0  0
 13 12  1  0  0  0  0
 13 32  1  0  0  0  0
 14 36  1  0  0  0  0
 14 37  1  0  0  0  0
 14 35  1  0  0  0  0
 15 12  1  0  0  0  0
 15 39  1  0  0  0  0
 15 38  1  0  0  0  0
 17  3  1  0  0  0  0
 20  6  1  0  0  0  0
 23  7  1  0  0  0  0
 24  8  1  0  0  0  0
 25  8  1  0  0  0  0
 26  9  1  0  0  0  0
 29 11  1  0  0  0  0
 30 11  1  0  0  0  0
 31 11  1  0  0  0  0
 33 13  1  0  0  0  0
 40 15  1  0  0  0  0
M  END
