1
q = -1.0

 32 38  0  0  0  0  0  0  0  0999 V2000
    0.8971   -0.1943   -2.0158 C   0  0  0  0  0  3  0  0  0  0  0  0
    0.1394   -1.3164   -1.4271 C   0  0  0  0  0  0  0  0  0  0  0  0
   -0.2182   -2.6616   -1.7669 C   0  0  0  0  0  0  0  0  0  0  0  0
   -1.3688   -3.2652   -1.2040 C   0  0  0  0  0  0  0  0  0  0  0  0
   -2.1887   -2.5981   -0.2449 C   0  0  0  0  0  0  0  0  0  0  0  0
   -3.6855   -2.6728    0.1449 C   0  0  0  0  0  0  0  0  0  0  0  0
   -3.9995   -1.2306    0.6156 C   0  0  0  0  0  0  0  0  0  0  0  0
   -5.1483   -0.4132    0.5929 C   0  0  0  0  0  0  0  0  0  0  0  0
   -5.0446    1.0166    0.5618 C   0  0  0  0  0  0  0  0  0  0  0  0
   -3.7893    1.6589    0.5544 C   0  0  0  0  0  0  0  0  0  0  0  0
   -3.2742    3.0182    0.0209 C   0  0  0  0  0  0  0  0  0  0  0  0
   -1.8057    2.7108   -0.3623 C   0  0  0  0  0  0  0  0  0  0  0  0
   -0.9214    3.1977   -1.3717 C   0  0  0  0  0  0  0  0  0  0  0  0
    0.1197    2.4060   -1.9160 C   0  0  0  0  0  0  0  0  0  0  0  0
    0.3014    1.0457   -1.4969 C   0  0  0  0  0  0  0  0  0  0  0  0
   -0.4653    0.6615   -0.3521 C   0  0  0  0  0  0  0  0  0  0  0  0
   -0.5763   -0.7661   -0.3268 C   0  0  0  0  0  0  0  0  0  0  0  0
   -1.7036   -1.3838    0.2371 C   0  0  0  0  0  0  0  0  0  0  0  0
   -2.7665   -0.5650    0.7564 C   0  0  0  0  0  0  0  0  0  0  0  0
   -2.6643    0.8296    0.7305 C   0  0  0  0  0  0  0  0  0  0  0  0
   -1.4949    1.4625    0.1772 C   0  0  0  0  0  0  0  0  0  0  0  0
    1.5139   -0.2647   -2.9203 H   0  0  0  0  0  0  0  0  0  0  0  0
    0.3148   -3.1932   -2.5688 H   0  0  0  0  0  0  0  0  0  0  0  0
   -1.6792   -4.2398   -1.6140 H   0  0  0  0  0  0  0  0  0  0  0  0
   -4.3193   -2.9642   -0.7181 H   0  0  0  0  0  0  0  0  0  0  0  0
   -3.8771   -3.4259    0.9424 H   0  0  0  0  0  0  0  0  0  0  0  0
   -6.1489   -0.8545    0.4590 H   0  0  0  0  0  0  0  0  0  0  0  0
   -5.9709    1.5921    0.4047 H   0  0  0  0  0  0  0  0  0  0  0  0
   -3.3527    3.8271    0.7821 H   0  0  0  0  0  0  0  0  0  0  0  0
   -3.8625    3.3577   -0.8566 H   0  0  0  0  0  0  0  0  0  0  0  0
   -1.1083    4.1767   -1.8423 H   0  0  0  0  0  0  0  0  0  0  0  0
    0.6828    2.8053   -2.7734 H   0  0  0  0  0  0  0  0  0  0  0  0
  1 15  1  0  0  0  0
  1  2  1  0  0  0  0
  2 17  1  0  0  0  0
  3  2  2  0  0  0  0
  3  4  1  0  0  0  0
  4  5  2  0  0  0  0
  5  6  1  0  0  0  0
  5 18  1  0  0  0  0
  6  7  1  0  0  0  0
  6 26  1  0  0  0  0
  7 19  1  0  0  0  0
  8  7  2  0  0  0  0
  9  8  1  0  0  0  0
 10  9  2  0  0  0  0
 10 20  1  0  0  0  0
 11 10  1  0  0  0  0
 11 29  1  0  0  0  0
 12 11  1  0  0  0  0
 12 21  1  0  0  0  0
 13 12  2  0  0  0  0
 14 15  2  0  0  0  0
 14 13  1  0  0  0  0
 15 16  1  0  0  0  0
 16 17  2  0  0  0  0
 16 21  1  0  0  0  0
 17 18  1  0  0  0  0
 18 19  2  0  0  0  0
 20 19  1  0  0  0  0
 21 20  2  0  0  0  0
 22  1  1  0  0  0  0
 23  3  1  0  0  0  0
 24  4  1  0  0  0  0
 25  6  1  0  0  0  0
 27  8  1  0  0  0  0
 28  9  1  0  0  0  0
 30 11  1  0  0  0  0
 31 13  1  0  0  0  0
 32 14  1  0  0  0  0
M  END
