1
q = -1.0, confidence = 0.0

 23 25  0  0  0  0  0  0  0  0999 V2000
    2.4005    0.2340   -0.0919 C   0  0  0  0  0  3  0  0  0  0  0  0
    4.6141   -0.9616   -0.2621 C   0  0  0  0  0  0  0  0  0  0  0  0
    3.1741   -0.9903   -0.2354 C   0  0  0  0  0  0  0  0  0  0  0  0
    5.3074    0.3163   -0.1444 C   0  0  0  0  0  0  0  0  0  0  0  0
    2.5233   -2.2514   -0.3532 C   0  0  0  0  0  0  0  0  0  0  0  0
    1.4209   -2.2560   -0.3320 H   0  0  0  0  0  0  0  0  0  0  0  0
    3.0902    1.4277    0.0169 C   0  0  0  0  0  0  0  0  0  0  0  0
    2.5415    2.3778    0.1273 H   0  0  0  0  0  0  0  0  0  0  0  0
    4.5258    1.5115   -0.0050 C   0  0  0  0  0  0  0  0  0  0  0  0
    5.3138   -2.1908   -0.4036 C   0  0  0  0  0  0  0  0  0  0  0  0
    6.4128   -2.1895   -0.4259 H   0  0  0  0  0  0  0  0  0  0  0  0
    4.6454   -3.4061   -0.5158 C   0  0  0  0  0  0  0  0  0  0  0  0
    5.2192   -4.3394   -0.6241 H   0  0  0  0  0  0  0  0  0  0  0  0
    3.2327   -3.4386   -0.4907 C   0  0  0  0  0  0  0  0  0  0  0  0
    2.6988   -4.3972   -0.5796 H   0  0  0  0  0  0  0  0  0  0  0  0
    6.7223    0.4404   -0.1607 C   0  0  0  0  0  0  0  0  0  0  0  0
    7.3475   -0.4575   -0.2662 H   0  0  0  0  0  0  0  0  0  0  0  0
    5.1855    2.7662    0.1107 C   0  0  0  0  0  0  0  0  0  0  0  0
    4.5689    3.6731    0.2170 H   0  0  0  0  0  0  0  0  0  0  0  0
    6.5725    2.8562    0.0914 C   0  0  0  0  0  0  0  0  0  0  0  0
    7.0674    3.8353    0.1821 H   0  0  0  0  0  0  0  0  0  0  0  0
    7.3462    1.6801   -0.0458 C   0  0  0  0  0  0  0  0  0  0  0  0
    8.4450    1.7427   -0.0620 H   0  0  0  0  0  0  0  0  0  0  0  0
  1  7  1  0  0  0  0
  2  3  1  0  0  0  0
  2  4  2  0  0  0  0
  3  1  2  0  0  0  0
  4  9  1  0  0  0  0
  5  6  1  0  0  0  0
  5  3  1  0  0  0  0
  7  8  1  0  0  0  0
  9  7  2  0  0  0  0
  9 18  1  0  0  0  0
 10  2  1  0  0  0  0
 11 10  1  0  0  0  0
 12 14  1  0  0  0  0
 12 10  2  0  0  0  0
 13 12  1  0  0  0  0
 14  5  2  0  0  0  0
 15 14  1  0  0  0  0
 16  4  1  0  0  0  0
 16 22  2  0  0  0  0
 17 16  1  0  0  0  0
 18 19  1  0  0  0  0
 20 18  2  0  0  0  0
 20 21  1  0  0  0  0
 22 20  1  0  0  0  0
 23 22  1  0  0  0  0
M  END
