1
q = -1.0

 10 10  0  0  0  0  0  0  0  0999 V2000
   -2.0032    0.0488   -0.0001 C   0  0  0  0  0  3  0  0  0  0  0  0
   -3.2461    0.1128   -0.0000 C   0  0  0  0  0  0  0  0  0  0  0  0
   -4.6668    0.1811    0.0001 C   0  0  0  0  0  0  0  0  0  0  0  0
   -5.5166   -0.9287    0.0002 C   0  0  0  0  0  0  0  0  0  0  0  0
   -5.2246   -1.9851    0.0003 H   0  0  0  0  0  0  0  0  0  0  0  0
   -7.1853   -0.4792    0.0003 S   0  0  0  0  0  0  0  0  0  0  0  0
   -6.7900    1.2097    0.0002 C   0  0  0  0  0  0  0  0  0  0  0  0
   -7.5908    1.9590    0.0002 H   0  0  0  0  0  0  0  0  0  0  0  0
   -5.4281    1.4117    0.0000 C   0  0  0  0  0  0  0  0  0  0  0  0
   -4.9564    2.4037   -0.0001 H   0  0  0  0  0  0  0  0  0  0  0  0
  1  2  3  0  0  0  0
  2  3  1  0  0  0  0
  3  4  2  0  0  0  0
  4  5  1  0  0  0  0
  4  6  1  0  0  0  0
  7  8  1  0  0  0  0
  7  6  1  0  0  0  0
  9  3  1  0  0  0  0
  9  7  2  0  0  0  0
 10  9  1  0  0  0  0
M  END
