3
q = -1.0

 26 28  0  0  0  0  0  0  0  0999 V2000
   -0.2648   -0.9005   -2.5518 C   0  0  0  0  0  0  0  0  0  0  0  0
   -0.4944    0.3855   -1.9723 C   0  0  0  0  0  0  0  0  0  0  0  0
    0.7286    0.8424   -1.3733 C   0  0  0  0  0  3  0  0  0  0  0  0
    3.1334   -0.1907   -1.3384 C   0  0  0  0  0  0  0  0  0  0  0  0
    3.8744   -1.2739   -1.7905 C   0  0  0  0  0  0  0  0  0  0  0  0
    3.2725   -2.3210   -2.5518 C   0  0  0  0  0  0  0  0  0  0  0  0
    1.9176   -2.3065   -2.8538 C   0  0  0  0  0  0  0  0  0  0  0  0
    1.1265   -1.2104   -2.4081 C   0  0  0  0  0  0  0  0  0  0  0  0
    1.7472   -0.1248   -1.6623 C   0  0  0  0  0  0  0  0  0  0  0  0
   -1.7764    1.0597   -1.9173 C   0  0  0  0  0  0  0  0  0  0  0  0
   -3.0530    0.7099   -2.3239 C   0  0  0  0  0  0  0  0  0  0  0  0
   -3.9106    1.7965   -1.9601 C   0  0  0  0  0  0  0  0  0  0  0  0
   -3.1141    2.7475   -1.3530 C   0  0  0  0  0  0  0  0  0  0  0  0
   -3.3787    4.0804   -0.7523 C   0  0  0  0  0  0  0  0  0  0  0  0
   -1.8170    2.3046   -1.3293 O   0  0  0  0  0  0  0  0  0  0  0  0
   -1.0051   -1.5047   -3.0854 H   0  0  0  0  0  0  0  0  0  0  0  0
    0.8743    1.7997   -0.8644 H   0  0  0  0  0  0  0  0  0  0  0  0
    3.6013    0.6122   -0.7487 H   0  0  0  0  0  0  0  0  0  0  0  0
    4.9488   -1.3314   -1.5591 H   0  0  0  0  0  0  0  0  0  0  0  0
    3.8983   -3.1576   -2.8977 H   0  0  0  0  0  0  0  0  0  0  0  0
    1.4561   -3.1212   -3.4317 H   0  0  0  0  0  0  0  0  0  0  0  0
   -3.3361   -0.2259   -2.8162 H   0  0  0  0  0  0  0  0  0  0  0  0
   -4.9907    1.8737   -2.1252 H   0  0  0  0  0  0  0  0  0  0  0  0
   -4.4509    4.3321   -0.8486 H   0  0  0  0  0  0  0  0  0  0  0  0
   -2.7875    4.8768   -1.2513 H   0  0  0  0  0  0  0  0  0  0  0  0
   -3.1132    4.1015    0.3262 H   0  0  0  0  0  0  0  0  0  0  0  0
  1  8  1  0  0  0  0
  1  2  2  0  0  0  0
  2 10  1  0  0  0  0
  2  3  1  0  0  0  0
  3 17  1  0  0  0  0
  4 18  1  0  0  0  0
  5 19  1  0  0  0  0
  5  4  2  0  0  0  0
  6  5  1  0  0  0  0
  7  6  2  0  0  0  0
  7  8  1  0  0  0  0
  8  9  2  0  0  0  0
  9  3  1  0  0  0  0
  9  4  1  0  0  0  0
 10 15  1  0  0  0  0
 11 12  1  0  0  0  0
 11 10  2  0  0  0  0
 12 13  2  0  0  0  0
 13 15  1  0  0  0  0
 13 14  1  0  0  0  0
 14 26  1  0  0  0  0
 16  1  1  0  0  0  0
 20  6  1  0  0  0  0
 21  7  1  0  0  0  0
 22 11  1  0  0  0  0
 23 12  1  0  0  0  0
 24 14  1  0  0  0  0
 25 14  1  0  0  0  0
M  END
