1
q = -1.0

 32 34  0  0  0  0  0  0  0  0999 V2000
    1.3581    0.1725    0.2047 C   0  0  0  0  0  3  0  0  0  0  0  0
    0.8277   -0.7249    1.2074 C   0  0  0  0  0  0  0  0  0  0  0  0
    1.1951   -2.0461    1.5959 C   0  0  0  0  0  0  0  0  0  0  0  0
    0.4748   -2.6818    2.5995 C   0  0  0  0  0  0  0  0  0  0  0  0
   -0.6434   -2.0545    3.2254 C   0  0  0  0  0  0  0  0  0  0  0  0
   -1.0128   -0.7574    2.8881 C   0  0  0  0  0  0  0  0  0  0  0  0
   -0.2578   -0.0597    1.9057 C   0  0  0  0  0  0  0  0  0  0  0  0
   -0.2584    1.3311    1.4785 C   0  0  0  0  0  0  0  0  0  0  0  0
   -1.0083    2.4583    1.9059 C   0  0  0  0  0  0  0  0  0  0  0  0
   -0.7054    3.7021    1.3701 C   0  0  0  0  0  0  0  0  0  0  0  0
    0.3253    3.8506    0.3976 C   0  0  0  0  0  0  0  0  0  0  0  0
    1.0553    2.7615   -0.0572 C   0  0  0  0  0  0  0  0  0  0  0  0
    0.7802    1.4752    0.4848 C   0  0  0  0  0  0  0  0  0  0  0  0
    2.5692   -0.0673   -0.6510 C   0  0  0  0  0  0  0  0  0  0  0  0
    3.8918    0.2904    0.0699 C   0  0  0  0  0  0  0  0  0  0  0  0
    5.1011    0.0607   -0.7888 C   0  0  0  0  0  0  0  0  0  0  0  0
    6.0917   -0.8080   -0.5215 C   0  0  0  0  0  0  0  0  0  0  0  0
    2.0586   -2.5403    1.1258 H   0  0  0  0  0  0  0  0  0  0  0  0
    0.7699   -3.6924    2.9208 H   0  0  0  0  0  0  0  0  0  0  0  0
   -1.2036   -2.5992    3.9996 H   0  0  0  0  0  0  0  0  0  0  0  0
   -1.8558   -0.2596    3.3889 H   0  0  0  0  0  0  0  0  0  0  0  0
   -1.8075    2.3419    2.6510 H   0  0  0  0  0  0  0  0  0  0  0  0
   -1.2685    4.5888    1.6968 H   0  0  0  0  0  0  0  0  0  0  0  0
    0.5397    4.8519   -0.0054 H   0  0  0  0  0  0  0  0  0  0  0  0
    1.8362    2.8851   -0.8208 H   0  0  0  0  0  0  0  0  0  0  0  0
    2.6133   -1.1304   -0.9680 H   0  0  0  0  0  0  0  0  0  0  0  0
    2.4821    0.5223   -1.5886 H   0  0  0  0  0  0  0  0  0  0  0  0
    3.8408    1.3602    0.3727 H   0  0  0  0  0  0  0  0  0  0  0  0
    3.9704   -0.2970    1.0091 H   0  0  0  0  0  0  0  0  0  0  0  0
    5.1461    0.6505   -1.7241 H   0  0  0  0  0  0  0  0  0  0  0  0
    6.9477   -0.9368   -1.2020 H   0  0  0  0  0  0  0  0  0  0  0  0
    6.0856   -1.4184    0.3977 H   0  0  0  0  0  0  0  0  0  0  0  0
  1 13  1  0  0  0  0
  1  2  1  0  0  0  0
  2  3  2  0  0  0  0
  2  7  1  0  0  0  0
  3  4  1  0  0  0  0
  4 19  1  0  0  0  0
  4  5  2  0  0  0  0
  5 20  1  0  0  0  0
  6  5  1  0  0  0  0
  6 21  1  0  0  0  0
  7  6  2  0  0  0  0
  8  7  1  0  0  0  0
  8  9  1  0  0  0  0
  9 22  1  0  0  0  0
 10 23  1  0  0  0  0
 10  9  2  0  0  0  0
 11 10  1  0  0  0  0
 12 11  2  0  0  0  0
 12 13  1  0  0  0  0
 13  8  2  0  0  0  0
 14 15  1  0  0  0  0
 14  1  1  0  0  0  0
 15 28  1  0  0  0  0
 15 29  1  0  0  0  0
 16 17  2  0  0  0  0
 16 15  1  0  0  0  0
 17 32  1  0  0  0  0
 18  3  1  0  0  0  0
 24 11  1  0  0  0  0
 25 12  1  0  0  0  0
 26 14  1  0  0  0  0
 27 14  1  0  0  0  0
 30 16  1  0  0  0  0
 31 17  1  0  0  0  0
M  END
