4
q = 0.0, confidence = 0.994

 30 31  0  0  0  0  0  0  0  0999 V2000
    3.6401   -1.1417    0.2183 N   0  0  0  0  0  0  0  0  0  0  0  0
    3.3252    0.9942    0.0089 N   0  0  0  0  0  0  0  0  0  0  0  0
    3.2141    3.2100    0.7306 N   0  0  0  0  0  0  0  0  0  0  0  0
    2.6640   -0.2117   -0.0158 C   0  0  0  0  0  2  0  0  0  0  0  0
    4.8812   -0.5203    0.3792 C   0  0  0  0  0  0  0  0  0  0  0  0
    4.6804    0.8254    0.2605 C   0  0  0  0  0  0  0  0  0  0  0  0
    3.4099   -2.6250    0.3049 C   0  0  0  0  0  0  0  0  0  0  0  0
    3.0296   -3.1392   -1.0924 C   0  0  0  0  0  0  0  0  0  0  0  0
    4.6964   -3.3148    0.7809 C   0  0  0  0  0  0  0  0  0  0  0  0
    2.2884   -2.8965    1.3204 C   0  0  0  0  0  0  0  0  0  0  0  0
    2.6935    2.2775   -0.0710 C   0  0  0  0  0  0  0  0  0  0  0  0
    1.5975    2.4701   -0.9303 C   0  0  0  0  0  0  0  0  0  0  0  0
    0.9556    3.7137   -0.8578 C   0  0  0  0  0  0  0  0  0  0  0  0
    1.4507    4.6963    0.0142 C   0  0  0  0  0  0  0  0  0  0  0  0
    2.6037    4.4064    0.7599 C   0  0  0  0  0  0  0  0  0  0  0  0
    5.8046   -1.0723    0.5580 H   0  0  0  0  0  0  0  0  0  0  0  0
    5.3556    1.6805    0.3383 H   0  0  0  0  0  0  0  0  0  0  0  0
    2.8761   -4.2362   -1.0578 H   0  0  0  0  0  0  0  0  0  0  0  0
    2.0967   -2.6587   -1.4474 H   0  0  0  0  0  0  0  0  0  0  0  0
    3.8402   -2.9246   -1.8180 H   0  0  0  0  0  0  0  0  0  0  0  0
    4.4936   -4.3983    0.8777 H   0  0  0  0  0  0  0  0  0  0  0  0
    5.5269   -3.2003    0.0561 H   0  0  0  0  0  0  0  0  0  0  0  0
    5.0261   -2.9451    1.7725 H   0  0  0  0  0  0  0  0  0  0  0  0
    2.0971   -3.9857    1.3802 H   0  0  0  0  0  0  0  0  0  0  0  0
    2.5665   -2.5291    2.3285 H   0  0  0  0  0  0  0  0  0  0  0  0
    1.3497   -2.3862    1.0162 H   0  0  0  0  0  0  0  0  0  0  0  0
    1.3110    1.6826   -1.6535 H   0  0  0  0  0  0  0  0  0  0  0  0
    0.0727    3.9107   -1.4835 H   0  0  0  0  0  0  0  0  0  0  0  0
    0.9643    5.6791    0.1013 H   0  0  0  0  0  0  0  0  0  0  0  0
    3.0526    5.1668    1.4227 H   0  0  0  0  0  0  0  0  0  0  0  0
  1  7  1  0  0  0  0
  1  5  1  0  0  0  0
  2  6  1  0  0  0  0
  3 15  1  0  0  0  0
  4  2  1  0  0  0  0
  4  1  1  0  0  0  0
  5 16  1  0  0  0  0
  6 17  1  0  0  0  0
  6  5  2  0  0  0  0
  7  9  1  0  0  0  0
  7 10  1  0  0  0  0
  8 18  1  0  0  0  0
  8  7  1  0  0  0  0
  9 21  1  0  0  0  0
  9 23  1  0  0  0  0
 10 24  1  0  0  0  0
 10 25  1  0  0  0  0
 11  2  1  0  0  0  0
 11  3  2  0  0  0  0
 12 13  2  0  0  0  0
 12 11  1  0  0  0  0
 13 14  1  0  0  0  0
 14 29  1  0  0  0  0
 14 15  2  0  0  0  0
 15 30  1  0  0  0  0
 19  8  1  0  0  0  0
 20  8  1  0  0  0  0
 22  9  1  0  0  0  0
 26 10  1  0  0  0  0
 27 12  1  0  0  0  0
 28 13  1  0  0  0  0
M  END
