4
q = -1.0

 50 54  0  0  1  0  0  0  0  0999 V2000
    2.7971    0.4208   -0.7325 C   0  0  2  0  0  0  0  0  0  0  0  0
    1.2741    0.3267   -0.6830 C   0  0  0  0  0  0  0  0  0  0  0  0
    0.1332    0.2821   -1.5523 C   0  0  0  0  0  3  0  0  0  0  0  0
   -0.9921    0.6810   -0.7503 C   0  0  2  0  0  3  0  0  0  0  0  0
   -2.3695    1.3112   -0.9011 C   0  0  2  0  0  0  0  0  0  0  0  0
   -1.9920    2.8382   -1.0018 C   0  0  0  0  0  0  0  0  0  0  0  0
   -1.5009    3.2177    0.4263 C   0  0  0  0  0  0  0  0  0  0  0  0
   -1.6039    1.8687    1.2094 C   0  0  2  0  0  0  0  0  0  0  0  0
   -0.5282    1.0259    0.5678 C   0  0  2  0  0  3  0  0  0  0  0  0
    0.8679    0.8156    0.6022 C   0  0  0  0  0  0  0  0  0  0  0  0
    2.1255    1.2181    1.3343 C   0  0  1  0  0  0  0  0  0  0  0  0
    2.9215   -0.0711    1.6833 C   0  0  0  0  0  0  0  0  0  0  0  0
    3.4001   -0.5859    0.2955 C   0  0  0  0  0  0  0  0  0  0  0  0
    2.9455    1.7828    0.1027 C   0  0  0  0  0  0  0  0  0  0  0  0
   -2.9075    1.2558    0.5943 C   0  0  0  0  0  0  0  0  0  0  0  0
    4.3918    2.1659    0.4435 C   0  0  0  0  0  0  0  0  0  0  0  0
    2.2955    2.9942   -0.5795 C   0  0  0  0  0  0  0  0  0  0  0  0
    3.4068    0.3605   -2.1209 C   0  0  0  0  0  0  0  0  0  0  0  0
   -3.2250   -0.1320    1.1551 C   0  0  0  0  0  0  0  0  0  0  0  0
   -4.1681    2.1113    0.8074 C   0  0  0  0  0  0  0  0  0  0  0  0
   -3.2738    0.8073   -2.0099 C   0  0  0  0  0  0  0  0  0  0  0  0
    0.1191   -0.0316   -2.6046 H   0  0  0  0  0  0  0  0  0  0  0  0
   -1.2189    2.9911   -1.7798 H   0  0  0  0  0  0  0  0  0  0  0  0
   -2.8778    3.4312   -1.3058 H   0  0  0  0  0  0  0  0  0  0  0  0
   -0.4684    3.6143    0.4367 H   0  0  0  0  0  0  0  0  0  0  0  0
   -2.1509    3.9826    0.8949 H   0  0  0  0  0  0  0  0  0  0  0  0
   -1.5836    1.9634    2.3113 H   0  0  0  0  0  0  0  0  0  0  0  0
    1.9788    1.9166    2.1796 H   0  0  0  0  0  0  0  0  0  0  0  0
    3.7734    0.1661    2.3502 H   0  0  0  0  0  0  0  0  0  0  0  0
    2.2841   -0.7994    2.2191 H   0  0  0  0  0  0  0  0  0  0  0  0
    3.0831   -1.6201    0.0785 H   0  0  0  0  0  0  0  0  0  0  0  0
    4.5050   -0.5654    0.2128 H   0  0  0  0  0  0  0  0  0  0  0  0
    4.4000    3.0699    1.0865 H   0  0  0  0  0  0  0  0  0  0  0  0
    4.9547    1.3763    0.9730 H   0  0  0  0  0  0  0  0  0  0  0  0
    4.9526    2.4180   -0.4797 H   0  0  0  0  0  0  0  0  0  0  0  0
    1.2662    2.7935   -0.9324 H   0  0  0  0  0  0  0  0  0  0  0  0
    2.2568    3.8570    0.1169 H   0  0  0  0  0  0  0  0  0  0  0  0
    2.8939    3.3101   -1.4583 H   0  0  0  0  0  0  0  0  0  0  0  0
    4.5010    0.5366   -2.0878 H   0  0  0  0  0  0  0  0  0  0  0  0
    3.2423   -0.6408   -2.5683 H   0  0  0  0  0  0  0  0  0  0  0  0
    2.9547    1.1133   -2.7984 H   0  0  0  0  0  0  0  0  0  0  0  0
   -2.3314   -0.7669    1.3270 H   0  0  0  0  0  0  0  0  0  0  0  0
   -3.6881   -0.0352    2.1582 H   0  0  0  0  0  0  0  0  0  0  0  0
   -3.9191   -0.6993    0.5068 H   0  0  0  0  0  0  0  0  0  0  0  0
   -4.3613    2.2417    1.8916 H   0  0  0  0  0  0  0  0  0  0  0  0
   -4.1178    3.1167    0.3517 H   0  0  0  0  0  0  0  0  0  0  0  0
   -5.0519    1.5979    0.3777 H   0  0  0  0  0  0  0  0  0  0  0  0
   -4.2313    1.3659   -2.0271 H   0  0  0  0  0  0  0  0  0  0  0  0
   -2.7915    0.9444   -2.9997 H   0  0  0  0  0  0  0  0  0  0  0  0
   -3.4926   -0.2715   -1.8935 H   0  0  0  0  0  0  0  0  0  0  0  0
  1 18  1  6  0  0  0
  1  2  1  0  0  0  0
  1 14  1  0  0  0  0
  1 13  1  0  0  0  0
  2 10  2  0  0  0  0
  3  2  1  0  0  0  0
  4  3  1  6  0  0  0
  4  9  1  0  0  0  0
  5 21  1  6  0  0  0
  5  4  1  0  0  0  0
  5 15  1  0  0  0  0
  6  5  1  0  0  0  0
  6  7  1  0  0  0  0
  7 25  1  0  0  0  0
  7 26  1  0  0  0  0
  7  8  1  0  0  0  0
  8 27  1  1  0  0  0
  9 10  1  6  0  0  0
  9  8  1  0  0  0  0
 10 11  1  0  0  0  0
 11 12  1  0  0  0  0
 11 28  1  1  0  0  0
 12 30  1  0  0  0  0
 12 29  1  0  0  0  0
 13 12  1  0  0  0  0
 14 16  1  0  0  0  0
 14 11  1  0  0  0  0
 15 20  1  0  0  0  0
 15 19  1  0  0  0  0
 15  8  1  0  0  0  0
 16 34  1  0  0  0  0
 16 33  1  0  0  0  0
 17 14  1  0  0  0  0
 17 37  1  0  0  0  0
 18 39  1  0  0  0  0
 19 42  1  0  0  0  0
 19 43  1  0  0  0  0
 20 45  1  0  0  0  0
 21 50  1  0  0  0  0
 22  3  1  0  0  0  0
 23  6  1  0  0  0  0
 24  6  1  0  0  0  0
 31 13  1  0  0  0  0
 32 13  1  0  0  0  0
 35 16  1  0  0  0  0
 36 17  1  0  0  0  0
 38 17  1  0  0  0  0
 40 18  1  0  0  0  0
 41 18  1  0  0  0  0
 44 19  1  0  0  0  0
 46 20  1  0  0  0  0
 47 20  1  0  0  0  0
 48 21  1  0  0  0  0
 49 21  1  0  0  0  0
M  END
