8
q = -1.0

 27 28  0  0  1  0  0  0  0  0999 V2000
   -0.0705    2.5347   -0.7597 N   0  0  0  0  0  0  0  0  0  0  0  0
    3.1906    0.3063   -2.1989 N   0  0  0  0  0  0  0  0  0  0  0  0
    0.2980    3.0260    0.4797 C   0  0  0  0  0  0  0  0  0  0  0  0
    0.7594    1.9864    1.2628 C   0  0  0  0  0  0  0  0  0  0  0  0
    0.6534    0.7796    0.4811 C   0  0  0  0  0  0  0  0  0  0  0  0
    1.3171   -0.5689    0.6322 C   0  0  1  0  0  0  0  0  0  0  0  0
    0.4279   -1.5050   -0.1709 C   0  0  0  0  0  3  0  0  0  0  0  0
   -0.0586   -1.1462   -1.4607 C   0  0  0  0  0  3  0  0  0  0  0  0
   -0.2984    0.2228   -1.7861 C   0  0  0  0  0  3  0  0  0  0  0  0
    0.1142    1.1696   -0.7895 C   0  0  0  0  0  0  0  0  0  0  0  0
    2.8558   -0.6050    0.2615 C   0  0  0  0  0  0  0  0  0  0  0  0
    3.3680   -2.0595    0.3394 C   0  0  0  0  0  0  0  0  0  0  0  0
    3.6595    0.2915    1.2276 C   0  0  0  0  0  0  0  0  0  0  0  0
    3.0404   -0.1034   -1.1114 C   0  0  0  0  0  0  0  0  0  0  0  0
   -0.5584    3.0666   -1.4788 H   0  0  0  0  0  0  0  0  0  0  0  0
    0.1910    4.0918    0.7099 H   0  0  0  0  0  0  0  0  0  0  0  0
    1.1392    2.0692    2.2862 H   0  0  0  0  0  0  0  0  0  0  0  0
    1.2783   -0.8773    1.6984 H   0  0  0  0  0  0  0  0  0  0  0  0
    0.4392   -2.5755    0.0801 H   0  0  0  0  0  0  0  0  0  0  0  0
   -0.3930   -1.9249   -2.1623 H   0  0  0  0  0  0  0  0  0  0  0  0
   -0.6996    0.5310   -2.7590 H   0  0  0  0  0  0  0  0  0  0  0  0
    3.1914   -2.4598    1.3585 H   0  0  0  0  0  0  0  0  0  0  0  0
    4.4548   -2.1037    0.1321 H   0  0  0  0  0  0  0  0  0  0  0  0
    2.8517   -2.7130   -0.3889 H   0  0  0  0  0  0  0  0  0  0  0  0
    3.5053   -0.0562    2.2695 H   0  0  0  0  0  0  0  0  0  0  0  0
    3.3405    1.3484    1.1576 H   0  0  0  0  0  0  0  0  0  0  0  0
    4.7424    0.2395    1.0010 H   0  0  0  0  0  0  0  0  0  0  0  0
  1  3  1  0  0  0  0
  2 14  3  0  0  0  0
  3 16  1  0  0  0  0
  3  4  2  0  0  0  0
  4 17  1  0  0  0  0
  5  6  1  0  0  0  0
  5  4  1  0  0  0  0
  6 18  1  1  0  0  0
  7 19  1  0  0  0  0
  7  6  1  0  0  0  0
  8  7  1  0  0  0  0
  9  8  1  0  0  0  0
  9 10  1  0  0  0  0
 10  1  1  0  0  0  0
 10  5  2  0  0  0  0
 11 12  1  0  0  0  0
 11  6  1  0  0  0  0
 11 13  1  0  0  0  0
 12 22  1  0  0  0  0
 13 25  1  0  0  0  0
 14 11  1  0  0  0  0
 15  1  1  0  0  0  0
 20  8  1  0  0  0  0
 21  9  1  0  0  0  0
 23 12  1  0  0  0  0
 24 12  1  0  0  0  0
 26 13  1  0  0  0  0
 27 13  1  0  0  0  0
M  END
