4
q = 0.0, confidence = 0.944

 31 31  0  0  0  0  0  0  0  0999 V2000
    0.7625    1.2612   -1.8462 C   0  0  0  0  0  3  0  0  0  0  0  0
    0.8066    2.3542   -1.7276 H   0  0  0  0  0  0  0  0  0  0  0  0
    1.2986    0.8869   -2.7345 H   0  0  0  0  0  0  0  0  0  0  0  0
   -0.3782    0.5350   -1.3710 C   0  0  0  0  0  3  0  0  0  0  0  0
   -0.6061   -0.4157   -1.8796 H   0  0  0  0  0  0  0  0  0  0  0  0
   -1.5014    1.1452   -0.6542 C   0  0  0  0  0  0  0  0  0  0  0  0
   -2.5386    0.4781   -0.0557 C   0  0  0  0  0  0  0  0  0  0  0  0
   -3.4304    1.4322    0.7237 C   0  0  0  0  0  0  0  0  0  0  0  0
   -4.5128    1.2111    0.6041 H   0  0  0  0  0  0  0  0  0  0  0  0
   -3.2189    1.3688    1.8160 H   0  0  0  0  0  0  0  0  0  0  0  0
   -3.0330    2.8091    0.1556 C   0  0  0  0  0  0  0  0  0  0  0  0
   -3.1304    3.6299    0.8935 H   0  0  0  0  0  0  0  0  0  0  0  0
   -3.6991    3.0524   -0.6985 H   0  0  0  0  0  0  0  0  0  0  0  0
   -1.5907    2.6295   -0.3638 C   0  0  0  0  0  0  0  0  0  0  0  0
   -1.3777    3.2605   -1.2526 H   0  0  0  0  0  0  0  0  0  0  0  0
   -0.8393    2.9087    0.4091 H   0  0  0  0  0  0  0  0  0  0  0  0
   -2.7354   -0.9246   -0.0778 N   0  0  0  0  0  0  0  0  0  0  0  0
   -3.3226   -1.4991    1.1328 C   0  0  0  0  0  0  0  0  0  0  0  0
   -3.6095   -2.5459    0.8987 H   0  0  0  0  0  0  0  0  0  0  0  0
   -4.2702   -0.9854    1.4299 H   0  0  0  0  0  0  0  0  0  0  0  0
   -2.3432   -1.4844    2.3076 C   0  0  0  0  0  0  0  0  0  0  0  0
   -2.8414   -1.8080    3.2437 H   0  0  0  0  0  0  0  0  0  0  0  0
   -1.9260   -0.4706    2.4723 H   0  0  0  0  0  0  0  0  0  0  0  0
   -1.4890   -2.1643    2.1172 H   0  0  0  0  0  0  0  0  0  0  0  0
   -3.1999   -1.4946   -1.3463 C   0  0  0  0  0  0  0  0  0  0  0  0
   -2.5198   -1.1476   -2.1515 H   0  0  0  0  0  0  0  0  0  0  0  0
   -3.0750   -2.5988   -1.2891 H   0  0  0  0  0  0  0  0  0  0  0  0
   -4.6456   -1.1494   -1.7241 C   0  0  0  0  0  0  0  0  0  0  0  0
   -4.9230   -1.6109   -2.6940 H   0  0  0  0  0  0  0  0  0  0  0  0
   -4.7720   -0.0518   -1.8216 H   0  0  0  0  0  0  0  0  0  0  0  0
   -5.3653   -1.5115   -0.9616 H   0  0  0  0  0  0  0  0  0  0  0  0
  1  2  1  0  0  0  0
  1  4  1  0  0  0  0
  3  1  1  0  0  0  0
  4  6  1  0  0  0  0
  5  4  1  0  0  0  0
  6 14  1  0  0  0  0
  6  7  2  0  0  0  0
  7  8  1  0  0  0  0
  8 10  1  0  0  0  0
  9  8  1  0  0  0  0
 11  8  1  0  0  0  0
 11 12  1  0  0  0  0
 13 11  1  0  0  0  0
 14 11  1  0  0  0  0
 14 16  1  0  0  0  0
 15 14  1  0  0  0  0
 17  7  1  0  0  0  0
 17 18  1  0  0  0  0
 18 20  1  0  0  0  0
 18 21  1  0  0  0  0
 19 18  1  0  0  0  0
 21 23  1  0  0  0  0
 21 22  1  0  0  0  0
 24 21  1  0  0  0  0
 25 27  1  0  0  0  0
 25 17  1  0  0  0  0
 26 25  1  0  0  0  0
 28 25  1  0  0  0  0
 28 31  1  0  0  0  0
 29 28  1  0  0  0  0
 30 28  1  0  0  0  0
M  END
