2
q = -1.0

 31 30  0  0  0  0  0  0  0  0999 V2000
   -0.9500    1.2365    0.8579 N   0  0  0  0  0  0  0  0  0  0  0  0
   -1.6022    0.2014    0.4537 C   0  0  0  0  0  3  0  0  0  0  0  0
   -3.0794   -0.0432    0.3846 C   0  0  0  0  0  0  0  0  0  0  0  0
   -3.6531   -0.5268   -0.9803 C   0  0  0  0  0  0  0  0  0  0  0  0
   -3.1305   -1.9283   -1.3312 C   0  0  0  0  0  0  0  0  0  0  0  0
   -5.1852   -0.5790   -0.8337 C   0  0  0  0  0  0  0  0  0  0  0  0
   -3.2761    0.4660   -2.0941 C   0  0  0  0  0  0  0  0  0  0  0  0
   -1.3195    2.6072    1.2737 C   0  0  0  0  0  0  0  0  0  0  0  0
   -2.2297    2.5443    2.5154 C   0  0  0  0  0  0  0  0  0  0  0  0
   -2.0193    3.3384    0.1140 C   0  0  0  0  0  0  0  0  0  0  0  0
   -0.0064    3.3200    1.6377 C   0  0  0  0  0  0  0  0  0  0  0  0
   -3.3121   -0.8186    1.1473 H   0  0  0  0  0  0  0  0  0  0  0  0
   -3.6305    0.8697    0.6941 H   0  0  0  0  0  0  0  0  0  0  0  0
   -2.0364   -1.9267   -1.4776 H   0  0  0  0  0  0  0  0  0  0  0  0
   -3.3837   -2.6593   -0.5346 H   0  0  0  0  0  0  0  0  0  0  0  0
   -3.5929   -2.2855   -2.2738 H   0  0  0  0  0  0  0  0  0  0  0  0
   -5.6550   -0.9215   -1.7782 H   0  0  0  0  0  0  0  0  0  0  0  0
   -5.4906   -1.2813   -0.0300 H   0  0  0  0  0  0  0  0  0  0  0  0
   -5.6044    0.4196   -0.5905 H   0  0  0  0  0  0  0  0  0  0  0  0
   -3.7085    0.1429   -3.0627 H   0  0  0  0  0  0  0  0  0  0  0  0
   -3.6629    1.4828   -1.8756 H   0  0  0  0  0  0  0  0  0  0  0  0
   -2.1780    0.5273   -2.2229 H   0  0  0  0  0  0  0  0  0  0  0  0
   -1.7447    1.9619    3.3245 H   0  0  0  0  0  0  0  0  0  0  0  0
   -2.4137    3.5693    2.8957 H   0  0  0  0  0  0  0  0  0  0  0  0
   -3.2114    2.0825    2.2955 H   0  0  0  0  0  0  0  0  0  0  0  0
   -2.9983    2.8811   -0.1262 H   0  0  0  0  0  0  0  0  0  0  0  0
   -2.1928    4.4000    0.3823 H   0  0  0  0  0  0  0  0  0  0  0  0
   -1.3924    3.3066   -0.7979 H   0  0  0  0  0  0  0  0  0  0  0  0
    0.7024    3.2734    0.7907 H   0  0  0  0  0  0  0  0  0  0  0  0
   -0.1979    4.3761    1.9134 H   0  0  0  0  0  0  0  0  0  0  0  0
    0.4796    2.8141    2.4956 H   0  0  0  0  0  0  0  0  0  0  0  0
  1  8  1  0  0  0  0
  2  1  2  0  0  0  0
  3  2  1  0  0  0  0
  3 13  1  0  0  0  0
  3 12  1  0  0  0  0
  4  6  1  0  0  0  0
  4  3  1  0  0  0  0
  5  4  1  0  0  0  0
  5 15  1  0  0  0  0
  6 19  1  0  0  0  0
  6 18  1  0  0  0  0
  7 21  1  0  0  0  0
  7  4  1  0  0  0  0
  8 11  1  0  0  0  0
  8  9  1  0  0  0  0
  9 24  1  0  0  0  0
  9 23  1  0  0  0  0
 10 27  1  0  0  0  0
 10  8  1  0  0  0  0
 11 30  1  0  0  0  0
 11 31  1  0  0  0  0
 14  5  1  0  0  0  0
 16  5  1  0  0  0  0
 17  6  1  0  0  0  0
 20  7  1  0  0  0  0
 22  7  1  0  0  0  0
 25  9  1  0  0  0  0
 26 10  1  0  0  0  0
 28 10  1  0  0  0  0
 29 11  1  0  0  0  0
M  END
