1
q = 0.0, confidence = 0.97

 46 48  0  0  0  0  0  0  0  0999 V2000
   -0.1251    1.0460    0.2168 C   0  0  0  0  0  2  0  0  0  0  0  0
   -2.5088    0.6599    0.2525 C   0  0  0  0  0  0  0  0  0  0  0  0
   -3.2513    0.3715    1.4248 C   0  0  0  0  0  0  0  0  0  0  0  0
   -1.3777    1.5603    0.3559 N   0  0  0  0  0  0  0  0  0  0  0  0
   -1.7903    2.9794    0.4695 C   0  0  0  0  0  0  0  0  0  0  0  0
   -1.2436    3.4716    1.2916 H   0  0  0  0  0  0  0  0  0  0  0  0
   -2.8488    2.9631    0.7898 H   0  0  0  0  0  0  0  0  0  0  0  0
   -2.8923    0.1395   -0.9950 C   0  0  0  0  0  0  0  0  0  0  0  0
   -2.2777    0.3714   -1.8773 H   0  0  0  0  0  0  0  0  0  0  0  0
    0.9969    1.8023    0.3650 N   0  0  0  0  0  0  0  0  0  0  0  0
    2.9629    0.8865    1.5288 C   0  0  0  0  0  0  0  0  0  0  0  0
   -0.3718    3.6136   -1.6149 C   0  0  0  0  0  0  0  0  0  0  0  0
   -0.2695    2.5638   -1.9691 H   0  0  0  0  0  0  0  0  0  0  0  0
   -0.4348    4.2244   -2.5398 H   0  0  0  0  0  0  0  0  0  0  0  0
   -4.3781   -0.4666    1.2992 C   0  0  0  0  0  0  0  0  0  0  0  0
   -4.9554   -0.7160    2.2035 H   0  0  0  0  0  0  0  0  0  0  0  0
    2.2709    1.1115    0.3130 C   0  0  0  0  0  0  0  0  0  0  0  0
    1.1467    3.2734    0.4644 C   0  0  0  0  0  0  0  0  0  0  0  0
    2.1933    3.4463    0.7794 H   0  0  0  0  0  0  0  0  0  0  0  0
    0.5253    3.6700    1.2857 H   0  0  0  0  0  0  0  0  0  0  0  0
   -4.0219   -0.6860   -1.0919 C   0  0  0  0  0  0  0  0  0  0  0  0
   -4.3133   -1.0939   -2.0713 H   0  0  0  0  0  0  0  0  0  0  0  0
    4.0917    0.1308   -0.9625 C   0  0  0  0  0  0  0  0  0  0  0  0
    4.5252   -0.1583   -1.9316 H   0  0  0  0  0  0  0  0  0  0  0  0
    2.8359    0.7524   -0.9232 C   0  0  0  0  0  0  0  0  0  0  0  0
    2.2575    0.9311   -1.8412 H   0  0  0  0  0  0  0  0  0  0  0  0
   -4.7660   -0.9910    0.0579 C   0  0  0  0  0  0  0  0  0  0  0  0
   -5.6498   -1.6435   -0.0084 H   0  0  0  0  0  0  0  0  0  0  0  0
    4.7780   -0.1342    0.2332 C   0  0  0  0  0  0  0  0  0  0  0  0
    5.7582   -0.6343    0.2117 H   0  0  0  0  0  0  0  0  0  0  0  0
   -1.6900    3.7633   -0.8508 C   0  0  0  0  0  0  0  0  0  0  0  0
   -2.5152    3.4288   -1.5145 H   0  0  0  0  0  0  0  0  0  0  0  0
   -1.8934    4.8318   -0.6154 H   0  0  0  0  0  0  0  0  0  0  0  0
    4.2153    0.2434    1.4609 C   0  0  0  0  0  0  0  0  0  0  0  0
    4.7572    0.0383    2.3978 H   0  0  0  0  0  0  0  0  0  0  0  0
    0.8985    4.0153   -0.8605 C   0  0  0  0  0  0  0  0  0  0  0  0
    0.8981    5.1048   -0.6336 H   0  0  0  0  0  0  0  0  0  0  0  0
    1.7688    3.8363   -1.5268 H   0  0  0  0  0  0  0  0  0  0  0  0
    2.3795    1.3172    2.8503 C   0  0  0  0  0  0  0  0  0  0  0  0
    2.5050    2.4092    3.0175 H   0  0  0  0  0  0  0  0  0  0  0  0
    2.8728    0.7971    3.6934 H   0  0  0  0  0  0  0  0  0  0  0  0
    1.2906    1.1137    2.9014 H   0  0  0  0  0  0  0  0  0  0  0  0
   -2.8514    0.9292    2.7672 C   0  0  0  0  0  0  0  0  0  0  0  0
   -1.7490    0.9726    2.8776 H   0  0  0  0  0  0  0  0  0  0  0  0
   -3.2624    0.3153    3.5913 H   0  0  0  0  0  0  0  0  0  0  0  0
   -3.2259    1.9658    2.9128 H   0  0  0  0  0  0  0  0  0  0  0  0
  1  4  1  0  0  0  0
  1 10  1  0  0  0  0
  2  4  1  0  0  0  0
  2  3  1  0  0  0  0
  3 43  1  0  0  0  0
  4  5  1  0  0  0  0
  5  7  1  0  0  0  0
  5  6  1  0  0  0  0
  8  2  2  0  0  0  0
  9  8  1  0  0  0  0
 10 18  1  0  0  0  0
 11 39  1  0  0  0  0
 12 36  1  0  0  0  0
 12 31  1  0  0  0  0
 13 12  1  0  0  0  0
 14 12  1  0  0  0  0
 15  3  2  0  0  0  0
 15 16  1  0  0  0  0
 17 10  1  0  0  0  0
 17 11  2  0  0  0  0
 18 19  1  0  0  0  0
 18 20  1  0  0  0  0
 21  8  1  0  0  0  0
 21 27  2  0  0  0  0
 22 21  1  0  0  0  0
 23 25  2  0  0  0  0
 23 29  1  0  0  0  0
 24 23  1  0  0  0  0
 25 17  1  0  0  0  0
 26 25  1  0  0  0  0
 27 15  1  0  0  0  0
 28 27  1  0  0  0  0
 29 34  2  0  0  0  0
 30 29  1  0  0  0  0
 31 33  1  0  0  0  0
 31  5  1  0  0  0  0
 32 31  1  0  0  0  0
 34 11  1  0  0  0  0
 34 35  1  0  0  0  0
 36 37  1  0  0  0  0
 36 18  1  0  0  0  0
 38 36  1  0  0  0  0
 39 42  1  0  0  0  0
 39 40  1  0  0  0  0
 39 41  1  0  0  0  0
 43 44  1  0  0  0  0
 43 46  1  0  0  0  0
 43 45  1  0  0  0  0
M  END
