2
q = -1.0

 24 24  0  0  0  0  0  0  0  0999 V2000
    0.2934   -1.2176   -0.1364 N   0  0  0  0  0  0  0  0  0  0  0  0
   -0.4161   -2.3557   -0.1873 C   0  0  0  0  0  3  0  0  0  0  0  0
    0.2498   -3.5933   -0.2686 C   0  0  0  0  0  0  0  0  0  0  0  0
   -0.3154   -4.5373   -0.3144 H   0  0  0  0  0  0  0  0  0  0  0  0
    1.6484   -3.6048   -0.2817 C   0  0  0  0  0  0  0  0  0  0  0  0
    2.2053   -4.5522   -0.3435 H   0  0  0  0  0  0  0  0  0  0  0  0
    2.3792   -2.3858   -0.2036 C   0  0  0  0  0  0  0  0  0  0  0  0
    1.6334   -1.1865   -0.1267 C   0  0  0  0  0  0  0  0  0  0  0  0
    2.1444   -0.2147   -0.0406 H   0  0  0  0  0  0  0  0  0  0  0  0
    3.8016   -2.3204   -0.1936 C   0  0  0  0  0  0  0  0  0  0  0  0
    5.0198   -2.1614   -0.1858 C   0  0  0  0  0  0  0  0  0  0  0  0
    6.4489   -1.8735   -0.1533 C   0  0  0  0  0  0  0  0  0  0  0  0
    6.9745   -2.6687    0.4194 H   0  0  0  0  0  0  0  0  0  0  0  0
    6.8530   -1.9302   -1.1898 H   0  0  0  0  0  0  0  0  0  0  0  0
    6.7681   -0.4877    0.4521 C   0  0  0  0  0  0  0  0  0  0  0  0
    6.4112   -0.4660    1.5047 H   0  0  0  0  0  0  0  0  0  0  0  0
    7.8731   -0.3763    0.4952 H   0  0  0  0  0  0  0  0  0  0  0  0
    6.1561    0.6836   -0.3211 C   0  0  0  0  0  0  0  0  0  0  0  0
    5.0572    0.5304   -0.3975 H   0  0  0  0  0  0  0  0  0  0  0  0
    6.5356    0.6680   -1.3673 H   0  0  0  0  0  0  0  0  0  0  0  0
    6.4400    2.0433    0.3167 C   0  0  0  0  0  0  0  0  0  0  0  0
    5.9781    2.8678   -0.2621 H   0  0  0  0  0  0  0  0  0  0  0  0
    7.5299    2.2453    0.3788 H   0  0  0  0  0  0  0  0  0  0  0  0
    6.0340    2.0954    1.3484 H   0  0  0  0  0  0  0  0  0  0  0  0
  1  8  1  0  0  0  0
  2  1  2  0  0  0  0
  3  2  1  0  0  0  0
  4  3  1  0  0  0  0
  5  3  2  0  0  0  0
  5  7  1  0  0  0  0
  6  5  1  0  0  0  0
  7 10  1  0  0  0  0
  7  8  2  0  0  0  0
  8  9  1  0  0  0  0
 10 11  3  0  0  0  0
 11 12  1  0  0  0  0
 12 13  1  0  0  0  0
 12 15  1  0  0  0  0
 14 12  1  0  0  0  0
 15 17  1  0  0  0  0
 15 16  1  0  0  0  0
 18 21  1  0  0  0  0
 18 15  1  0  0  0  0
 19 18  1  0  0  0  0
 20 18  1  0  0  0  0
 21 23  1  0  0  0  0
 21 24  1  0  0  0  0
 22 21  1  0  0  0  0
M  END
