4
q = 0.0, confidence = 0.984

 26 27  0  0  1  0  0  0  0  0999 V2000
   -2.6360   -1.6624   -0.2026 C   0  0  1  0  0  0  0  0  0  0  0  0
   -2.4539   -2.7493   -0.0768 H   0  0  0  0  0  0  0  0  0  0  0  0
   -2.2026   -0.8605    1.0135 C   0  0  1  0  0  3  0  0  0  0  0  0
   -2.3341    0.5157    0.9035 C   0  0  0  0  0  3  0  0  0  0  0  0
   -2.2349    1.1572    1.7971 H   0  0  0  0  0  0  0  0  0  0  0  0
   -2.9743    1.1077   -0.3392 C   0  0  0  0  0  0  0  0  0  0  0  0
   -2.2998    1.8406   -0.8302 H   0  0  0  0  0  0  0  0  0  0  0  0
   -3.8704    1.6848   -0.0200 H   0  0  0  0  0  0  0  0  0  0  0  0
   -3.3667   -0.0066   -1.3239 C   0  0  2  0  0  0  0  0  0  0  0  0
   -3.8495    0.4087   -2.2319 H   0  0  0  0  0  0  0  0  0  0  0  0
   -4.1053   -1.1938   -0.5983 C   0  0  0  0  0  0  0  0  0  0  0  0
   -2.1575   -0.9598   -1.5010 C   0  0  0  0  0  0  0  0  0  0  0  0
   -2.2382   -1.6076   -2.3918 H   0  0  0  0  0  0  0  0  0  0  0  0
   -1.1502   -0.4959   -1.4889 H   0  0  0  0  0  0  0  0  0  0  0  0
   -5.1088   -0.8730    0.5076 C   0  0  0  0  0  0  0  0  0  0  0  0
   -5.9968   -0.3644    0.0779 H   0  0  0  0  0  0  0  0  0  0  0  0
   -4.6990   -0.2145    1.2965 H   0  0  0  0  0  0  0  0  0  0  0  0
   -5.4679   -1.8038    0.9946 H   0  0  0  0  0  0  0  0  0  0  0  0
   -4.7631   -2.1606   -1.5905 C   0  0  0  0  0  0  0  0  0  0  0  0
   -5.6790   -1.7034   -2.0192 H   0  0  0  0  0  0  0  0  0  0  0  0
   -5.0662   -3.0975   -1.0786 H   0  0  0  0  0  0  0  0  0  0  0  0
   -4.1036   -2.4374   -2.4347 H   0  0  0  0  0  0  0  0  0  0  0  0
   -2.0329   -1.5860    2.3210 C   0  0  0  0  0  0  0  0  0  0  0  0
   -3.0069   -2.0417    2.6086 H   0  0  0  0  0  0  0  0  0  0  0  0
   -1.7179   -0.9088    3.1389 H   0  0  0  0  0  0  0  0  0  0  0  0
   -1.3062   -2.4203    2.2444 H   0  0  0  0  0  0  0  0  0  0  0  0
  1  2  1  1  0  0  0
  1  3  1  0  0  0  0
  3 23  1  1  0  0  0
  4  3  1  0  0  0  0
  4  5  1  0  0  0  0
  6  8  1  0  0  0  0
  6  4  1  0  0  0  0
  7  6  1  0  0  0  0
  9 10  1  6  0  0  0
  9 11  1  0  0  0  0
  9  6  1  0  0  0  0
 11  1  1  0  0  0  0
 11 15  1  0  0  0  0
 12 14  1  0  0  0  0
 12  9  1  0  0  0  0
 12  1  1  0  0  0  0
 13 12  1  0  0  0  0
 15 18  1  0  0  0  0
 15 17  1  0  0  0  0
 16 15  1  0  0  0  0
 19 21  1  0  0  0  0
 19 11  1  0  0  0  0
 20 19  1  0  0  0  0
 22 19  1  0  0  0  0
 23 24  1  0  0  0  0
 23 25  1  0  0  0  0
 26 23  1  0  0  0  0
M  END
