7
q = -1.0

 25 25  0  0  1  0  0  0  0  0999 V2000
    3.7212    0.0264   -1.3344 O   0  0  0  0  0  0  0  0  0  0  0  0
    2.7933    1.5030    0.1441 O   0  0  0  0  0  0  0  0  0  0  0  0
    2.4102   -0.7665    0.5132 C   0  0  1  0  0  3  0  0  0  0  0  0
    2.4805   -2.1998    0.3193 C   0  0  0  0  0  0  0  0  0  0  0  0
    1.7880   -2.8109    1.4113 C   0  0  0  0  0  0  0  0  0  0  0  0
    1.3072   -1.7814    2.3161 C   0  0  2  0  0  3  0  0  0  0  0  0
    1.6770   -0.5164    1.7465 C   0  0  0  0  0  3  0  0  0  0  0  0
    3.1419   -2.9151   -0.8113 C   0  0  0  0  0  0  0  0  0  0  0  0
    0.6784   -1.9975    3.6596 C   0  0  0  0  0  0  0  0  0  0  0  0
    3.0486    0.2517   -0.3387 C   0  0  0  0  0  0  0  0  0  0  0  0
    3.3355    2.6246   -0.5798 C   0  0  0  0  0  0  0  0  0  0  0  0
    3.8320    3.6531    0.4187 C   0  0  0  0  0  0  0  0  0  0  0  0
    1.6745   -3.8927    1.5532 H   0  0  0  0  0  0  0  0  0  0  0  0
    1.5298    0.4684    2.2033 H   0  0  0  0  0  0  0  0  0  0  0  0
    2.5240   -2.8258   -1.7306 H   0  0  0  0  0  0  0  0  0  0  0  0
    4.1242   -2.4581   -1.0336 H   0  0  0  0  0  0  0  0  0  0  0  0
    3.2579   -3.9908   -0.5817 H   0  0  0  0  0  0  0  0  0  0  0  0
    0.0766   -1.1182    3.9590 H   0  0  0  0  0  0  0  0  0  0  0  0
    0.0225   -2.8891    3.6662 H   0  0  0  0  0  0  0  0  0  0  0  0
    1.4644   -2.1496    4.4291 H   0  0  0  0  0  0  0  0  0  0  0  0
    4.1387    2.2582   -1.2502 H   0  0  0  0  0  0  0  0  0  0  0  0
    2.5238    3.0313   -1.2210 H   0  0  0  0  0  0  0  0  0  0  0  0
    3.0198    3.9732    1.1022 H   0  0  0  0  0  0  0  0  0  0  0  0
    4.6566    3.2437    1.0353 H   0  0  0  0  0  0  0  0  0  0  0  0
    4.2086    4.5494   -0.1137 H   0  0  0  0  0  0  0  0  0  0  0  0
  1 10  2  0  0  0  0
  3 10  1  1  0  0  0
  3  7  1  0  0  0  0
  4  3  1  0  0  0  0
  4  5  2  0  0  0  0
  5 13  1  0  0  0  0
  5  6  1  0  0  0  0
  6  9  1  1  0  0  0
  7 14  1  0  0  0  0
  7  6  1  0  0  0  0
  8 17  1  0  0  0  0
  8  4  1  0  0  0  0
  9 19  1  0  0  0  0
  9 18  1  0  0  0  0
  9 20  1  0  0  0  0
 10  2  1  0  0  0  0
 11  2  1  0  0  0  0
 11 12  1  0  0  0  0
 12 24  1  0  0  0  0
 12 23  1  0  0  0  0
 15  8  1  0  0  0  0
 16  8  1  0  0  0  0
 21 11  1  0  0  0  0
 22 11  1  0  0  0  0
 25 12  1  0  0  0  0
M  END
