2
q = 0.0, confidence = 0.946

 14 14  0  0  0  0  0  0  0  0999 V2000
    1.5046   -2.4345   -0.4377 O   0  0  0  0  0  0  0  0  0  0  0  0
    0.2901   -2.1225    0.0400 C   0  0  0  0  0  2  0  0  0  0  0  0
   -0.4232   -3.1617    0.8890 C   0  0  0  0  0  0  0  0  0  0  0  0
   -1.2092   -3.6042    0.2390 H   0  0  0  0  0  0  0  0  0  0  0  0
   -0.9792   -2.6118    1.6751 H   0  0  0  0  0  0  0  0  0  0  0  0
    0.4500   -4.2759    1.4760 C   0  0  0  0  0  0  0  0  0  0  0  0
    1.0270   -3.8872    2.3431 H   0  0  0  0  0  0  0  0  0  0  0  0
   -0.1862   -5.0990    1.8595 H   0  0  0  0  0  0  0  0  0  0  0  0
    1.4231   -4.7669    0.4060 C   0  0  0  0  0  0  0  0  0  0  0  0
    0.8659   -5.1834   -0.4617 H   0  0  0  0  0  0  0  0  0  0  0  0
    2.0879   -5.5719    0.7828 H   0  0  0  0  0  0  0  0  0  0  0  0
    2.2761   -3.5950   -0.0399 C   0  0  0  0  0  0  0  0  0  0  0  0
    2.9422   -3.2630    0.7880 H   0  0  0  0  0  0  0  0  0  0  0  0
    2.9070   -3.8271   -0.9200 H   0  0  0  0  0  0  0  0  0  0  0  0
  1 12  1  0  0  0  0
  1  2  1  0  0  0  0
  2  3  1  0  0  0  0
  3  6  1  0  0  0  0
  3  5  1  0  0  0  0
  4  3  1  0  0  0  0
  6  8  1  0  0  0  0
  6  7  1  0  0  0  0
  9 11  1  0  0  0  0
  9  6  1  0  0  0  0
 10  9  1  0  0  0  0
 12  9  1  0  0  0  0
 12 13  1  0  0  0  0
 14 12  1  0  0  0  0
M  END
