3
q = -1.0

 14 14  0  0  0  0  0  0  0  0999 V2000
   -2.8534    3.0941    0.9001 S   0  0  0  0  0  1  0  0  0  0  0  0
   -1.7234    2.0535    0.2872 C   0  0  0  0  0  3  0  0  0  0  0  0
   -0.4669    1.9438   -0.2445 C   0  0  0  0  0  3  0  0  0  0  0  0
    0.5879    2.8826   -0.5757 C   0  0  0  0  0  0  0  0  0  0  0  0
    0.5164    4.2097   -0.0775 C   0  0  0  0  0  0  0  0  0  0  0  0
    1.5287    5.1316   -0.3713 C   0  0  0  0  0  0  0  0  0  0  0  0
    2.6147    4.7595   -1.1830 C   0  0  0  0  0  0  0  0  0  0  0  0
    2.6829    3.4558   -1.7064 C   0  0  0  0  0  0  0  0  0  0  0  0
    1.6834    2.5240   -1.4014 C   0  0  0  0  0  0  0  0  0  0  0  0
   -0.3568    4.4901    0.5328 H   0  0  0  0  0  0  0  0  0  0  0  0
    1.4670    6.1560    0.0273 H   0  0  0  0  0  0  0  0  0  0  0  0
    3.4053    5.4888   -1.4165 H   0  0  0  0  0  0  0  0  0  0  0  0
    3.5256    3.1648   -2.3524 H   0  0  0  0  0  0  0  0  0  0  0  0
    1.7336    1.5009   -1.8018 H   0  0  0  0  0  0  0  0  0  0  0  0
  2  1  1  0  0  0  0
  3  2  2  0  0  0  0
  4  3  1  0  0  0  0
  4  5  1  0  0  0  0
  5 10  1  0  0  0  0
  6  5  2  0  0  0  0
  6 11  1  0  0  0  0
  7  6  1  0  0  0  0
  8  9  1  0  0  0  0
  8  7  2  0  0  0  0
  9  4  2  0  0  0  0
 12  7  1  0  0  0  0
 13  8  1  0  0  0  0
 14  9  1  0  0  0  0
M  END
