12
q = -2.0, confidence = 0.86

 40 47  0  0  1  0  0  0  0  0999 V2000
   -2.0009    0.4781   -0.0013 C   0  0  1  0  0  0  0  0  0  0  0  0
   -0.6840   -0.6650   -0.0381 C   0  0  2  0  0  0  0  0  0  0  0  0
   -1.5687    1.9825    0.0096 C   0  0  0  0  0  0  0  0  0  0  0  0
   -2.0653    2.6961    1.2831 C   0  0  0  0  0  0  0  0  0  0  0  0
   -1.6506    3.7225    1.3116 H   0  0  0  0  0  0  0  0  0  0  0  0
   -1.7575    2.1705    2.2047 H   0  0  0  0  0  0  0  0  0  0  0  0
   -3.1688    2.7662    1.2863 H   0  0  0  0  0  0  0  0  0  0  0  0
   -2.1539    2.7413   -1.1993 C   0  0  0  0  0  0  0  0  0  0  0  0
   -1.7303    3.7643   -1.2256 H   0  0  0  0  0  0  0  0  0  0  0  0
   -3.2538    2.8215   -1.1171 H   0  0  0  0  0  0  0  0  0  0  0  0
   -1.9207    2.2445   -2.1581 H   0  0  0  0  0  0  0  0  0  0  0  0
   -0.0329    2.0530   -0.0498 C   0  0  1  0  0  3  0  0  0  0  0  0
    0.8582    2.1210    1.0918 C   0  0  0  0  0  3  0  0  0  0  0  0
    0.5545    2.2069    2.1411 H   0  0  0  0  0  0  0  0  0  0  0  0
    2.2217    2.1604    0.5842 C   0  0  0  0  0  0  0  0  0  0  0  0
    3.1346    2.2445    1.1875 H   0  0  0  0  0  0  0  0  0  0  0  0
    2.1669    2.1101   -0.8394 C   0  0  0  0  0  0  0  0  0  0  0  0
    3.0356    2.1347   -1.5101 H   0  0  0  0  0  0  0  0  0  0  0  0
    0.7755    2.0513   -1.2568 C   0  0  0  0  0  3  0  0  0  0  0  0
    0.4045    2.0863   -2.2870 H   0  0  0  0  0  0  0  0  0  0  0  0
   -1.6349   -0.4487    1.3898 B   0  0  2  0  0  0  0  0  0  0  0  0
   -1.1302    0.0686    2.3539 H   0  0  0  0  0  0  0  0  0  0  0  0
   -3.3206   -0.1389    0.8986 B   0  0  2  0  0  0  0  0  0  0  0  0
   -3.9826    0.6322    1.5463 H   0  0  0  0  0  0  0  0  0  0  0  0
   -3.3511   -0.1117   -0.8713 B   0  0  2  0  0  0  0  0  0  0  0  0
   -4.0350    0.6784   -1.4711 H   0  0  0  0  0  0  0  0  0  0  0  0
   -1.6833   -0.4042   -1.4295 B   0  0  1  0  0  0  0  0  0  0  0  0
   -1.2124    0.1432   -2.3931 H   0  0  0  0  0  0  0  0  0  0  0  0
   -1.1945   -2.0553    0.8236 B   0  0  1  0  0  0  0  0  0  0  0  0
   -0.3695   -2.7004    1.4416 H   0  0  0  0  0  0  0  0  0  0  0  0
   -2.8395   -1.7653    1.4247 B   0  0  1  0  0  0  0  0  0  0  0  0
   -3.2114   -2.2176    2.4835 H   0  0  0  0  0  0  0  0  0  0  0  0
   -3.9012   -1.5631    0.0004 B   0  0  2  0  0  0  0  0  0  0  0  0
   -5.0716   -1.8689    0.0155 H   0  0  0  0  0  0  0  0  0  0  0  0
   -2.8887   -1.7194   -1.4652 B   0  0  0  0  0  0  0  0  0  0  0  0
   -3.2963   -2.1373   -2.5249 H   0  0  0  0  0  0  0  0  0  0  0  0
   -1.2228   -2.0261   -0.9330 B   0  0  2  0  0  0  0  0  0  0  0  0
   -0.4167   -2.6396   -1.6035 H   0  0  0  0  0  0  0  0  0  0  0  0
   -2.5822   -2.7587   -0.0422 B   0  0  1  0  0  0  0  0  0  0  0  0
   -2.7662   -3.9549   -0.0576 H   0  0  0  0  0  0  0  0  0  0  0  0
  1  3  1  1  0  0  0
  1 21  1  0  0  0  0
  2 29  1  0  0  0  0
  2 21  1  0  0  0  0
  3  4  1  0  0  0  0
  4  7  1  0  0  0  0
  4  5  1  0  0  0  0
  4  6  1  0  0  0  0
  8 10  1  0  0  0  0
  8  3  1  0  0  0  0
  9  8  1  0  0  0  0
 11  8  1  0  0  0  0
 12  3  1  0  0  0  0
 12 13  1  0  0  0  0
 13 14  1  0  0  0  0
 15 13  1  0  0  0  0
 15 16  1  0  0  0  0
 17 15  2  0  0  0  0
 18 17  1  0  0  0  0
 19 17  1  0  0  0  0
 19 12  1  0  0  0  0
 20 19  1  0  0  0  0
 21 22  1  1  0  0  0
 23 31  1  0  0  0  0
 23 24  1  0  0  0  0
 25 26  1  6  0  0  0
 25  1  1  0  0  0  0
 25 23  1  0  0  0  0
 27 28  1  6  0  0  0
 27 37  1  0  0  0  0
 27  2  1  0  0  0  0
 27  1  1  0  0  0  0
 29 21  1  0  0  0  0
 29 30  1  1  0  0  0
 31 32  1  1  0  0  0
 33 34  1  1  0  0  0
 33 23  1  0  0  0  0
 33 31  1  0  0  0  0
 35 25  1  0  0  0  0
 35 39  1  0  0  0  0
 36 35  1  0  0  0  0
 37 38  1  6  0  0  0
 37  2  1  0  0  0  0
 37 29  1  0  0  0  0
 39 33  1  0  0  0  0
 39 31  1  0  0  0  0
 40 39  1  0  0  0  0
M  END
