1
q = -1.0

 24 24  0  0  0  0  0  0  0  0999 V2000
   -0.0369   -0.4339   -0.9999 C   0  0  0  0  0  3  0  0  0  0  0  0
    1.1065   -0.8390   -1.6283 C   0  0  0  0  0  0  0  0  0  0  0  0
    2.5081   -0.6505   -1.2312 C   0  0  0  0  0  0  0  0  0  0  0  0
    3.5171   -1.3968   -1.8902 C   0  0  0  0  0  0  0  0  0  0  0  0
    4.8673   -1.2651   -1.5407 C   0  0  0  0  0  0  0  0  0  0  0  0
    5.2516   -0.3707   -0.5279 C   0  0  0  0  0  0  0  0  0  0  0  0
    4.2672    0.3936    0.1227 C   0  0  0  0  0  0  0  0  0  0  0  0
    2.9179    0.2587   -0.2250 C   0  0  0  0  0  0  0  0  0  0  0  0
   -1.2945   -0.6238   -1.7593 C   0  0  0  0  0  0  0  0  0  0  0  0
   -1.7458   -1.9137   -1.7631 O   0  0  0  0  0  0  0  0  0  0  0  0
   -3.0503   -2.1310   -2.3492 C   0  0  0  0  0  0  0  0  0  0  0  0
   -4.1520   -1.9221   -1.3213 C   0  0  0  0  0  0  0  0  0  0  0  0
   -1.9020    0.2730   -2.3417 O   0  0  0  0  0  0  0  0  0  0  0  0
    1.0025   -1.3761   -2.5937 H   0  0  0  0  0  0  0  0  0  0  0  0
    3.2230   -2.0980   -2.6879 H   0  0  0  0  0  0  0  0  0  0  0  0
    5.6283   -1.8637   -2.0651 H   0  0  0  0  0  0  0  0  0  0  0  0
    6.3120   -0.2635   -0.2534 H   0  0  0  0  0  0  0  0  0  0  0  0
    4.5538    1.1076    0.9107 H   0  0  0  0  0  0  0  0  0  0  0  0
    2.1476    0.8497    0.2883 H   0  0  0  0  0  0  0  0  0  0  0  0
   -3.0268   -3.1745   -2.7206 H   0  0  0  0  0  0  0  0  0  0  0  0
   -3.1727   -1.4399   -3.2066 H   0  0  0  0  0  0  0  0  0  0  0  0
   -5.1454   -2.0799   -1.7883 H   0  0  0  0  0  0  0  0  0  0  0  0
   -4.0545   -2.6313   -0.4754 H   0  0  0  0  0  0  0  0  0  0  0  0
   -4.1212   -0.8918   -0.9159 H   0  0  0  0  0  0  0  0  0  0  0  0
  2  3  1  0  0  0  0
  2  1  2  0  0  0  0
  3  8  1  0  0  0  0
  4  5  1  0  0  0  0
  4  3  2  0  0  0  0
  5  6  2  0  0  0  0
  6 17  1  0  0  0  0
  6  7  1  0  0  0  0
  7 18  1  0  0  0  0
  8  7  2  0  0  0  0
  8 19  1  0  0  0  0
  9  1  1  0  0  0  0
 10  9  1  0  0  0  0
 11 10  1  0  0  0  0
 11 12  1  0  0  0  0
 12 24  1  0  0  0  0
 12 23  1  0  0  0  0
 13  9  2  0  0  0  0
 14  2  1  0  0  0  0
 15  4  1  0  0  0  0
 16  5  1  0  0  0  0
 20 11  1  0  0  0  0
 21 11  1  0  0  0  0
 22 12  1  0  0  0  0
M  END
