1
q = -1.0

 14 13  0  0  0  0  0  0  0  0999 V2000
   -0.0002    0.8436    1.1083 C   0  0  0  0  0  3  0  0  0  0  0  0
   -0.0004    0.7041    2.4671 C   0  0  0  0  0  0  0  0  0  0  0  0
   -0.0006   -0.5741    3.2449 C   0  0  0  0  0  0  0  0  0  0  0  0
    0.0000    2.2771    0.6691 C   0  0  0  0  0  0  0  0  0  0  0  0
    0.0004    3.2743    1.3830 O   0  0  0  0  0  0  0  0  0  0  0  0
   -0.0001    2.3997   -0.6963 O   0  0  0  0  0  0  0  0  0  0  0  0
    0.0001    3.7397   -1.1849 C   0  0  0  0  0  0  0  0  0  0  0  0
   -0.0003    1.6379    3.0662 H   0  0  0  0  0  0  0  0  0  0  0  0
   -0.0000    3.6633   -2.2877 H   0  0  0  0  0  0  0  0  0  0  0  0
   -0.8949    4.2950   -0.8349 H   0  0  0  0  0  0  0  0  0  0  0  0
    0.8955    4.2945   -0.8351 H   0  0  0  0  0  0  0  0  0  0  0  0
   -0.0006   -1.4616    2.5838 H   0  0  0  0  0  0  0  0  0  0  0  0
   -0.8836   -0.6337    3.9199 H   0  0  0  0  0  0  0  0  0  0  0  0
    0.8824   -0.6338    3.9200 H   0  0  0  0  0  0  0  0  0  0  0  0
  1  2  2  0  0  0  0
  2  8  1  0  0  0  0
  2  3  1  0  0  0  0
  3 13  1  0  0  0  0
  3 14  1  0  0  0  0
  4  1  1  0  0  0  0
  4  5  2  0  0  0  0
  6  4  1  0  0  0  0
  7 11  1  0  0  0  0
  7 10  1  0  0  0  0
  7  6  1  0  0  0  0
  9  7  1  0  0  0  0
 12  3  1  0  0  0  0
M  END
