3
q = -1.0, confidence = 0.0

 26 26  0  0  1  0  0  0  0  0999 V2000
    3.5071    0.1390    2.1486 O   0  0  0  0  0  0  0  0  0  0  0  0
    0.6818   -0.3630    0.7578 C   0  0  0  0  0  3  0  0  0  0  0  0
    0.4250   -0.9565   -0.5228 C   0  0  0  0  0  3  0  0  0  0  0  0
    0.2348   -0.0309   -1.6014 C   0  0  0  0  0  3  0  0  0  0  0  0
    1.1162    1.2014   -1.6840 C   0  0  0  0  0  0  0  0  0  0  0  0
    1.4264    1.8328   -0.3169 C   0  0  0  0  0  0  0  0  0  0  0  0
    1.6147    0.8423    0.8517 C   0  0  2  0  0  0  0  0  0  0  0  0
    3.0365    0.2689    1.0277 C   0  0  0  0  0  0  0  0  0  0  0  0
    3.8008   -0.1746   -0.2120 C   0  0  0  0  0  0  0  0  0  0  0  0
    5.1151   -0.8901    0.0917 C   0  0  0  0  0  0  0  0  0  0  0  0
    5.8772   -1.3000   -1.1679 C   0  0  0  0  0  0  0  0  0  0  0  0
    0.7397   -1.0413    1.6264 H   0  0  0  0  0  0  0  0  0  0  0  0
    0.3287   -2.0451   -0.6583 H   0  0  0  0  0  0  0  0  0  0  0  0
   -0.0628   -0.4574   -2.5751 H   0  0  0  0  0  0  0  0  0  0  0  0
    0.6563    1.9654   -2.3437 H   0  0  0  0  0  0  0  0  0  0  0  0
    2.0550    0.8920   -2.1974 H   0  0  0  0  0  0  0  0  0  0  0  0
    2.3111    2.4985   -0.3958 H   0  0  0  0  0  0  0  0  0  0  0  0
    0.5808    2.4931   -0.0417 H   0  0  0  0  0  0  0  0  0  0  0  0
    1.4260    1.3694    1.8082 H   0  0  0  0  0  0  0  0  0  0  0  0
    3.9802    0.7285   -0.8396 H   0  0  0  0  0  0  0  0  0  0  0  0
    3.1265   -0.8113   -0.8274 H   0  0  0  0  0  0  0  0  0  0  0  0
    5.7399   -0.2319    0.7304 H   0  0  0  0  0  0  0  0  0  0  0  0
    4.9003   -1.7794    0.7215 H   0  0  0  0  0  0  0  0  0  0  0  0
    6.8248   -1.8191   -0.9198 H   0  0  0  0  0  0  0  0  0  0  0  0
    5.2775   -1.9866   -1.8021 H   0  0  0  0  0  0  0  0  0  0  0  0
    6.1342   -0.4187   -1.7926 H   0  0  0  0  0  0  0  0  0  0  0  0
  2  7  1  0  0  0  0
  2 12  1  0  0  0  0
  3  2  1  0  0  0  0
  4  3  1  0  0  0  0
  5  4  1  0  0  0  0
  5  6  1  0  0  0  0
  6 18  1  0  0  0  0
  6  7  1  0  0  0  0
  7  8  1  0  0  0  0
  7 19  1  1  0  0  0
  8  1  2  0  0  0  0
  9 10  1  0  0  0  0
  9  8  1  0  0  0  0
 10 23  1  0  0  0  0
 10 22  1  0  0  0  0
 11 24  1  0  0  0  0
 11 10  1  0  0  0  0
 13  3  1  0  0  0  0
 14  4  1  0  0  0  0
 15  5  1  0  0  0  0
 16  5  1  0  0  0  0
 17  6  1  0  0  0  0
 20  9  1  0  0  0  0
 21  9  1  0  0  0  0
 25 11  1  0  0  0  0
 26 11  1  0  0  0  0
M  END
