4
q = 0.0, confidence = 0.89

 19 18  0  0  0  0  0  0  0  0999 V2000
   -1.2933    1.5285    0.0154 O   0  0  0  0  0  0  0  0  0  0  0  0
   -3.7444    0.5462    0.0130 N   0  0  0  0  0  4  0  0  0  0  0  0
   -3.1276    1.3673    0.0218 H   0  0  0  0  0  0  0  0  0  0  0  0
   -0.6982    0.3043    0.0013 C   0  0  0  0  0  3  0  0  0  0  0  0
   -1.6812   -0.7278   -0.0066 C   0  0  0  0  0  0  0  0  0  0  0  0
   -1.2960   -1.7541   -0.0183 H   0  0  0  0  0  0  0  0  0  0  0  0
   -3.0842   -0.6318   -0.0041 C   0  0  0  0  0  0  0  0  0  0  0  0
   -5.1804    0.7142    0.0147 C   0  0  0  0  0  0  0  0  0  0  0  0
   -5.6570    0.2796   -0.8907 H   0  0  0  0  0  0  0  0  0  0  0  0
   -5.4150    1.7941    0.0338 H   0  0  0  0  0  0  0  0  0  0  0  0
   -5.6580    0.2477    0.9033 H   0  0  0  0  0  0  0  0  0  0  0  0
   -3.9182   -1.8832   -0.0194 C   0  0  0  0  0  0  0  0  0  0  0  0
   -4.5773   -1.9367    0.8725 H   0  0  0  0  0  0  0  0  0  0  0  0
   -3.2776   -2.7817   -0.0329 H   0  0  0  0  0  0  0  0  0  0  0  0
   -4.5809   -1.9123   -0.9098 H   0  0  0  0  0  0  0  0  0  0  0  0
   -0.5598    2.7528   -0.0164 C   0  0  0  0  0  0  0  0  0  0  0  0
    0.1910    2.7923    0.7934 H   0  0  0  0  0  0  0  0  0  0  0  0
   -1.3062    3.5565    0.1296 H   0  0  0  0  0  0  0  0  0  0  0  0
   -0.0586    2.8879   -0.9935 H   0  0  0  0  0  0  0  0  0  0  0  0
  2  8  1  0  0  0  0
  2  3  1  0  0  0  0
  4  1  1  0  0  0  0
  5  7  1  0  0  0  0
  5  4  2  0  0  0  0
  6  5  1  0  0  0  0
  7  2  2  0  0  0  0
  8 10  1  0  0  0  0
  8 11  1  0  0  0  0
  9  8  1  0  0  0  0
 12  7  1  0  0  0  0
 12 13  1  0  0  0  0
 14 12  1  0  0  0  0
 15 12  1  0  0  0  0
 16  1  1  0  0  0  0
 16 18  1  0  0  0  0
 16 17  1  0  0  0  0
 19 16  1  0  0  0  0
M  END
