12
q = -1.0

 31 31  0  0  0  0  0  0  0  0999 V2000
    1.8722    1.4246   -0.7711 B   0  0  0  0  0  0  0  0  0  0  0  0
   -0.8176    1.1337   -1.1006 C   0  0  0  0  0  0  0  0  0  0  0  0
   -1.1976    1.6578    0.1875 C   0  0  0  0  0  0  0  0  0  0  0  0
   -0.4654    2.2328    0.7641 H   0  0  0  0  0  0  0  0  0  0  0  0
   -2.5777    1.7573    0.5470 C   0  0  0  0  0  0  0  0  0  0  0  0
   -2.8308    2.1754    1.5337 H   0  0  0  0  0  0  0  0  0  0  0  0
   -3.5913    1.3844   -0.3239 C   0  0  0  0  0  0  0  0  0  0  0  0
   -3.2186    0.8990   -1.6216 C   0  0  0  0  0  0  0  0  0  0  0  0
   -4.0123    0.6316   -2.3380 H   0  0  0  0  0  0  0  0  0  0  0  0
   -1.8968    0.7539   -1.9861 C   0  0  0  0  0  0  0  0  0  0  0  0
   -1.6307    0.3676   -2.9830 H   0  0  0  0  0  0  0  0  0  0  0  0
    0.5739    0.9001   -1.4310 C   0  0  0  0  0  3  0  0  0  0  0  0
    0.6862    0.3653   -2.3925 H   0  0  0  0  0  0  0  0  0  0  0  0
   -5.0468    1.4990    0.0426 C   0  0  0  0  0  0  0  0  0  0  0  0
   -5.5424    0.5049    0.0309 H   0  0  0  0  0  0  0  0  0  0  0  0
   -5.5957    2.1347   -0.6837 H   0  0  0  0  0  0  0  0  0  0  0  0
   -5.1824    1.9337    1.0513 H   0  0  0  0  0  0  0  0  0  0  0  0
    1.9524    2.7153    0.1963 C   0  0  0  0  0  0  0  0  0  0  0  0
    1.5403    3.5679   -0.3939 H   0  0  0  0  0  0  0  0  0  0  0  0
    1.2661    2.6226    1.0643 H   0  0  0  0  0  0  0  0  0  0  0  0
    3.3404    3.0907    0.7328 C   0  0  0  0  0  0  0  0  0  0  0  0
    3.3057    3.9991    1.3696 H   0  0  0  0  0  0  0  0  0  0  0  0
    4.0615    3.2947   -0.0848 H   0  0  0  0  0  0  0  0  0  0  0  0
    3.7691    2.2734    1.3478 H   0  0  0  0  0  0  0  0  0  0  0  0
    3.2556    0.9105   -1.4017 C   0  0  0  0  0  0  0  0  0  0  0  0
    3.6506    1.7951   -1.9583 H   0  0  0  0  0  0  0  0  0  0  0  0
    3.9927    0.7655   -0.5826 H   0  0  0  0  0  0  0  0  0  0  0  0
    3.2621   -0.3110   -2.3219 C   0  0  0  0  0  0  0  0  0  0  0  0
    4.2770   -0.5516   -2.7010 H   0  0  0  0  0  0  0  0  0  0  0  0
    2.6139   -0.1712   -3.2131 H   0  0  0  0  0  0  0  0  0  0  0  0
    2.8901   -1.2128   -1.7922 H   0  0  0  0  0  0  0  0  0  0  0  0
  1 18  1  0  0  0  0
  2  3  1  0  0  0  0
  3  5  2  0  0  0  0
  3  4  1  0  0  0  0
  5  6  1  0  0  0  0
  7 14  1  0  0  0  0
  7  5  1  0  0  0  0
  8  7  2  0  0  0  0
  9  8  1  0  0  0  0
 10  8  1  0  0  0  0
 10  2  2  0  0  0  0
 11 10  1  0  0  0  0
 12  2  1  0  0  0  0
 12  1  1  0  0  0  0
 13 12  1  0  0  0  0
 14 17  1  0  0  0  0
 15 14  1  0  0  0  0
 16 14  1  0  0  0  0
 18 21  1  0  0  0  0
 18 20  1  0  0  0  0
 19 18  1  0  0  0  0
 21 24  1  0  0  0  0
 21 22  1  0  0  0  0
 23 21  1  0  0  0  0
 25  1  1  0  0  0  0
 25 27  1  0  0  0  0
 26 25  1  0  0  0  0
 28 31  1  0  0  0  0
 28 25  1  0  0  0  0
 29 28  1  0  0  0  0
 30 28  1  0  0  0  0
M  END
