3
q = -1.0, confidence = 0.01

 54 57  0  0  0  0  0  0  0  0999 V2000
    2.4845   -1.2080   -2.4104 Cl  0  0  0  0  0  0  0  0  0  0  0  0
   -0.5159   -1.8059   -1.9301 O   0  0  0  0  0  0  0  0  0  0  0  0
    0.8202   -0.6437   -0.2885 C   0  0  0  0  0  3  0  0  0  0  0  0
   -0.3995   -1.3850   -0.7739 C   0  0  0  0  0  0  0  0  0  0  0  0
   -1.4598   -1.4842    0.2644 C   0  0  0  0  0  0  0  0  0  0  0  0
    2.1534   -1.1472   -0.6897 C   0  0  0  0  0  0  0  0  0  0  0  0
    3.1326   -1.5165    0.1980 C   0  0  0  0  0  0  0  0  0  0  0  0
    2.8271   -1.5939    1.6544 C   0  0  0  0  0  0  0  0  0  0  0  0
    1.7747   -2.3940    2.1569 C   0  0  0  0  0  0  0  0  0  0  0  0
    1.4762   -2.4116    3.5274 C   0  0  0  0  0  0  0  0  0  0  0  0
    2.2328   -1.6396    4.4243 C   0  0  0  0  0  0  0  0  0  0  0  0
    3.2974   -0.8594    3.9407 C   0  0  0  0  0  0  0  0  0  0  0  0
    3.5969   -0.8412    2.5713 C   0  0  0  0  0  0  0  0  0  0  0  0
    4.5474   -1.7754   -0.1772 C   0  0  0  0  0  0  0  0  0  0  0  0
    5.2025   -2.9379    0.2855 C   0  0  0  0  0  0  0  0  0  0  0  0
    6.5496   -3.1721   -0.0237 C   0  0  0  0  0  0  0  0  0  0  0  0
    7.2707   -2.2364   -0.7825 C   0  0  0  0  0  0  0  0  0  0  0  0
    6.6359   -1.0637   -1.2251 C   0  0  0  0  0  0  0  0  0  0  0  0
    5.2864   -0.8328   -0.9276 C   0  0  0  0  0  0  0  0  0  0  0  0
   -2.7658   -1.8900    0.1412 C   0  0  0  0  0  0  0  0  0  0  0  0
   -3.6896   -1.6211    1.2771 C   0  0  0  0  0  0  0  0  0  0  0  0
   -4.6943   -2.5504    1.6346 C   0  0  0  0  0  0  0  0  0  0  0  0
   -5.5394   -2.3075    2.7259 C   0  0  0  0  0  0  0  0  0  0  0  0
   -5.4101   -1.1250    3.4726 C   0  0  0  0  0  0  0  0  0  0  0  0
   -4.4271   -0.1860    3.1187 C   0  0  0  0  0  0  0  0  0  0  0  0
   -3.5770   -0.4308    2.0336 C   0  0  0  0  0  0  0  0  0  0  0  0
   -3.3457   -2.5675   -1.0447 C   0  0  0  0  0  0  0  0  0  0  0  0
   -2.6764   -3.6237   -1.7014 C   0  0  0  0  0  0  0  0  0  0  0  0
   -3.2596   -4.2605   -2.8036 C   0  0  0  0  0  0  0  0  0  0  0  0
   -4.5142   -3.8466   -3.2810 C   0  0  0  0  0  0  0  0  0  0  0  0
   -5.1937   -2.8010   -2.6356 C   0  0  0  0  0  0  0  0  0  0  0  0
   -4.6207   -2.1774   -1.5192 C   0  0  0  0  0  0  0  0  0  0  0  0
    0.8012   -0.6167    0.8095 H   0  0  0  0  0  0  0  0  0  0  0  0
   -1.1747   -1.0644    1.2413 H   0  0  0  0  0  0  0  0  0  0  0  0
    1.1860   -3.0052    1.4560 H   0  0  0  0  0  0  0  0  0  0  0  0
    0.6493   -3.0372    3.8969 H   0  0  0  0  0  0  0  0  0  0  0  0
    1.9996   -1.6534    5.5000 H   0  0  0  0  0  0  0  0  0  0  0  0
    3.8969   -0.2528    4.6369 H   0  0  0  0  0  0  0  0  0  0  0  0
    4.4149   -0.2149    2.1870 H   0  0  0  0  0  0  0  0  0  0  0  0
    4.6394   -3.6655    0.8899 H   0  0  0  0  0  0  0  0  0  0  0  0
    7.0412   -4.0901    0.3337 H   0  0  0  0  0  0  0  0  0  0  0  0
    8.3302   -2.4162   -1.0212 H   0  0  0  0  0  0  0  0  0  0  0  0
    7.2009   -0.3158   -1.8027 H   0  0  0  0  0  0  0  0  0  0  0  0
    4.7905    0.0942   -1.2497 H   0  0  0  0  0  0  0  0  0  0  0  0
   -4.7964   -3.4795    1.0545 H   0  0  0  0  0  0  0  0  0  0  0  0
   -6.3053   -3.0498    2.9978 H   0  0  0  0  0  0  0  0  0  0  0  0
   -6.0792   -0.9329    4.3251 H   0  0  0  0  0  0  0  0  0  0  0  0
   -4.3257    0.7513    3.6874 H   0  0  0  0  0  0  0  0  0  0  0  0
   -2.8273    0.3185    1.7432 H   0  0  0  0  0  0  0  0  0  0  0  0
   -1.6945   -3.9476   -1.3338 H   0  0  0  0  0  0  0  0  0  0  0  0
   -2.7259   -5.0856   -3.2989 H   0  0  0  0  0  0  0  0  0  0  0  0
   -4.9654   -4.3444   -4.1530 H   0  0  0  0  0  0  0  0  0  0  0  0
   -6.1796   -2.4737   -2.9998 H   0  0  0  0  0  0  0  0  0  0  0  0
   -5.1540   -1.3619   -1.0091 H   0  0  0  0  0  0  0  0  0  0  0  0
  1  6  1  0  0  0  0
  2  4  2  0  0  0  0
  3 33  1  0  0  0  0
  4  3  1  0  0  0  0
  4  5  1  0  0  0  0
  5 34  1  0  0  0  0
  6  3  1  0  0  0  0
  6  7  2  0  0  0  0
  7  8  1  0  0  0  0
  8  9  2  0  0  0  0
  8 13  1  0  0  0  0
  9 10  1  0  0  0  0
 10 36  1  0  0  0  0
 10 11  2  0  0  0  0
 11 37  1  0  0  0  0
 12 11  1  0  0  0  0
 12 38  1  0  0  0  0
 13 12  2  0  0  0  0
 14  7  1  0  0  0  0
 14 15  1  0  0  0  0
 15 40  1  0  0  0  0
 16 15  2  0  0  0  0
 16 41  1  0  0  0  0
 17 16  1  0  0  0  0
 18 19  1  0  0  0  0
 18 17  2  0  0  0  0
 19 14  2  0  0  0  0
 20  5  2  0  0  0  0
 20 21  1  0  0  0  0
 21 22  2  0  0  0  0
 21 26  1  0  0  0  0
 22 23  1  0  0  0  0
 23 46  1  0  0  0  0
 23 24  2  0  0  0  0
 24 47  1  0  0  0  0
 25 24  1  0  0  0  0
 25 48  1  0  0  0  0
 26 25  2  0  0  0  0
 27 20  1  0  0  0  0
 28 50  1  0  0  0  0
 28 27  2  0  0  0  0
 29 28  1  0  0  0  0
 30 29  2  0  0  0  0
 30 31  1  0  0  0  0
 31 32  2  0  0  0  0
 32 27  1  0  0  0  0
 32 54  1  0  0  0  0
 35  9  1  0  0  0  0
 39 13  1  0  0  0  0
 42 17  1  0  0  0  0
 43 18  1  0  0  0  0
 44 19  1  0  0  0  0
 45 22  1  0  0  0  0
 49 26  1  0  0  0  0
 51 29  1  0  0  0  0
 52 30  1  0  0  0  0
 53 31  1  0  0  0  0
M  END
