6
q = -1.0

 22 21  0  0  1  0  0  0  0  0999 V2000
    6.4473    0.3253   -0.6215 F   0  0  0  0  0  0  0  0  0  0  0  0
    5.5146   -1.4602   -1.4641 F   0  0  0  0  0  0  0  0  0  0  0  0
    5.9571   -1.3621    0.6767 F   0  0  0  0  0  0  0  0  0  0  0  0
    3.2798   -1.0129    0.0720 O   0  0  0  0  0  0  0  0  0  0  0  0
    3.9496    1.1672   -0.0794 O   0  0  0  0  0  0  0  0  0  0  0  0
    1.0978   -0.4383   -0.8101 C   0  0  0  0  0  3  0  0  0  0  0  0
    0.9763   -1.3812   -1.3773 H   0  0  0  0  0  0  0  0  0  0  0  0
    1.5930    0.3141   -1.4534 H   0  0  0  0  0  0  0  0  0  0  0  0
    1.8966   -0.6526    0.4665 C   0  0  1  0  0  0  0  0  0  0  0  0
    1.9772    0.3023    1.0258 H   0  0  0  0  0  0  0  0  0  0  0  0
    4.1511   -0.0303   -0.1194 C   0  0  0  0  0  0  0  0  0  0  0  0
    1.4238   -1.7623    1.4155 C   0  0  0  0  0  0  0  0  0  0  0  0
    0.3890   -1.4778    1.7077 H   0  0  0  0  0  0  0  0  0  0  0  0
    5.5516   -0.6430   -0.3930 C   0  0  0  0  0  0  0  0  0  0  0  0
    1.3611   -3.1422    0.7483 C   0  0  0  0  0  0  0  0  0  0  0  0
    0.6742   -3.1613   -0.1198 H   0  0  0  0  0  0  0  0  0  0  0  0
    0.9936   -3.8970    1.4712 H   0  0  0  0  0  0  0  0  0  0  0  0
    2.3644   -3.4614    0.3998 H   0  0  0  0  0  0  0  0  0  0  0  0
    2.2947   -1.7855    2.6784 C   0  0  0  0  0  0  0  0  0  0  0  0
    3.3459   -2.0393    2.4300 H   0  0  0  0  0  0  0  0  0  0  0  0
    1.9229   -2.5409    3.3983 H   0  0  0  0  0  0  0  0  0  0  0  0
    2.2937   -0.8012    3.1908 H   0  0  0  0  0  0  0  0  0  0  0  0
  1 14  1  0  0  0  0
  2 14  1  0  0  0  0
  4  9  1  0  0  0  0
  6  9  1  0  0  0  0
  7  6  1  0  0  0  0
  8  6  1  0  0  0  0
  9 10  1  1  0  0  0
  9 12  1  0  0  0  0
 11  5  2  0  0  0  0
 11  4  1  0  0  0  0
 12 13  1  0  0  0  0
 12 19  1  0  0  0  0
 14 11  1  0  0  0  0
 14  3  1  0  0  0  0
 15 12  1  0  0  0  0
 15 17  1  0  0  0  0
 16 15  1  0  0  0  0
 18 15  1  0  0  0  0
 19 22  1  0  0  0  0
 19 21  1  0  0  0  0
 20 19  1  0  0  0  0
M  END
