6
q = -1.0, confidence = 0.0

 20 19  0  0  1  0  0  0  0  0999 V2000
   -0.2367    3.0571    1.0649 O   0  0  0  0  0  0  0  0  0  0  0  0
   -1.2912    2.3746    0.3721 C   0  0  1  0  0  0  0  0  0  0  0  0
   -1.8157    1.6844    1.0766 H   0  0  0  0  0  0  0  0  0  0  0  0
   -2.3468    3.4097   -0.0926 C   0  0  0  0  0  0  0  0  0  0  0  0
   -1.8560    4.0556   -0.8564 H   0  0  0  0  0  0  0  0  0  0  0  0
   -0.7021    1.5818   -0.7876 C   0  0  0  0  0  3  0  0  0  0  0  0
    0.0062    2.2094   -1.3610 H   0  0  0  0  0  0  0  0  0  0  0  0
   -1.4761    1.1834   -1.4696 H   0  0  0  0  0  0  0  0  0  0  0  0
    0.1524    2.4573    2.2776 C   0  0  0  0  0  0  0  0  0  0  0  0
    1.0068    3.0383    2.6783 H   0  0  0  0  0  0  0  0  0  0  0  0
    0.4898    1.3999    2.1421 H   0  0  0  0  0  0  0  0  0  0  0  0
   -0.6690    2.4639    3.0336 H   0  0  0  0  0  0  0  0  0  0  0  0
   -3.5597    2.7170   -0.7295 C   0  0  0  0  0  0  0  0  0  0  0  0
   -3.3064    2.1640   -1.6547 H   0  0  0  0  0  0  0  0  0  0  0  0
   -4.3407    3.4599   -0.9884 H   0  0  0  0  0  0  0  0  0  0  0  0
   -4.0134    1.9861   -0.0262 H   0  0  0  0  0  0  0  0  0  0  0  0
   -2.7763    4.2947    1.0833 C   0  0  0  0  0  0  0  0  0  0  0  0
   -3.2835    3.6887    1.8647 H   0  0  0  0  0  0  0  0  0  0  0  0
   -3.4906    5.0746    0.7504 H   0  0  0  0  0  0  0  0  0  0  0  0
   -1.9025    4.7910    1.5459 H   0  0  0  0  0  0  0  0  0  0  0  0
  1  9  1  0  0  0  0
  2  1  1  0  0  0  0
  2  3  1  1  0  0  0
  4  2  1  0  0  0  0
  4 17  1  0  0  0  0
  5  4  1  0  0  0  0
  6  2  1  0  0  0  0
  7  6  1  0  0  0  0
  8  6  1  0  0  0  0
  9 10  1  0  0  0  0
  9 12  1  0  0  0  0
 11  9  1  0  0  0  0
 13  4  1  0  0  0  0
 13 16  1  0  0  0  0
 14 13  1  0  0  0  0
 15 13  1  0  0  0  0
 17 20  1  0  0  0  0
 17 18  1  0  0  0  0
 19 17  1  0  0  0  0
M  END
