7
q = -1.0, confidence = 0.0

 23 22  0  0  1  0  0  0  0  0999 V2000
   -1.0606   -3.8819   -0.9440 O   0  0  0  0  0  0  0  0  0  0  0  0
   -0.9327   -2.4567   -1.0836 C   0  0  1  0  0  0  0  0  0  0  0  0
   -1.9491   -2.0120   -1.2053 H   0  0  0  0  0  0  0  0  0  0  0  0
   -1.2771   -2.2140    1.4365 C   0  0  0  0  0  0  0  0  0  0  0  0
   -1.5713   -3.2871    1.3910 H   0  0  0  0  0  0  0  0  0  0  0  0
   -2.2091   -1.6255    1.2994 H   0  0  0  0  0  0  0  0  0  0  0  0
   -0.3415   -1.9840    0.2537 C   0  0  0  0  0  3  0  0  0  0  0  0
    0.6005   -2.5459    0.4160 H   0  0  0  0  0  0  0  0  0  0  0  0
   -0.0952   -2.1061   -2.3134 C   0  0  0  0  0  0  0  0  0  0  0  0
    0.9593   -2.4193   -2.1774 H   0  0  0  0  0  0  0  0  0  0  0  0
   -0.1346   -1.0173   -2.5102 H   0  0  0  0  0  0  0  0  0  0  0  0
   -0.4955   -2.6172   -3.2119 H   0  0  0  0  0  0  0  0  0  0  0  0
   -2.0831   -4.4472   -1.7276 C   0  0  0  0  0  0  0  0  0  0  0  0
   -3.0884   -4.0309   -1.4723 H   0  0  0  0  0  0  0  0  0  0  0  0
   -2.0921   -5.5370   -1.5270 H   0  0  0  0  0  0  0  0  0  0  0  0
   -1.9255   -4.2988   -2.8233 H   0  0  0  0  0  0  0  0  0  0  0  0
   -0.6698   -1.9099    2.8086 C   0  0  0  0  0  0  0  0  0  0  0  0
    0.2789   -2.4806    2.9241 H   0  0  0  0  0  0  0  0  0  0  0  0
   -0.3784   -0.8360    2.8509 H   0  0  0  0  0  0  0  0  0  0  0  0
   -1.6164   -2.2278    3.9658 C   0  0  0  0  0  0  0  0  0  0  0  0
   -2.5534   -1.6383    3.8875 H   0  0  0  0  0  0  0  0  0  0  0  0
   -1.1576   -1.9999    4.9492 H   0  0  0  0  0  0  0  0  0  0  0  0
   -1.9019   -3.3007    3.9686 H   0  0  0  0  0  0  0  0  0  0  0  0
  2  3  1  6  0  0  0
  2  1  1  0  0  0  0
  2  7  1  0  0  0  0
  4 17  1  0  0  0  0
  5  4  1  0  0  0  0
  6  4  1  0  0  0  0
  7  8  1  0  0  0  0
  7  4  1  0  0  0  0
  9 10  1  0  0  0  0
  9  2  1  0  0  0  0
 11  9  1  0  0  0  0
 12  9  1  0  0  0  0
 13 15  1  0  0  0  0
 13 14  1  0  0  0  0
 13  1  1  0  0  0  0
 16 13  1  0  0  0  0
 17 19  1  0  0  0  0
 17 18  1  0  0  0  0
 17 20  1  0  0  0  0
 20 23  1  0  0  0  0
 20 22  1  0  0  0  0
 21 20  1  0  0  0  0
M  END
