2
q = 0.0, confidence = 1.0

 35 35  0  0  0  0  0  0  0  0999 V2000
   -0.1141    2.9548   -1.0921 N   0  0  0  0  0  0  0  0  0  0  0  0
   -0.0002    2.1738   -0.0001 C   0  0  0  0  0  2  0  0  0  0  0  0
   -0.3886    1.0397   -2.6507 C   0  0  0  0  0  0  0  0  0  0  0  0
    0.4541    0.4473   -2.2393 H   0  0  0  0  0  0  0  0  0  0  0  0
   -0.4503    0.7681   -3.7220 H   0  0  0  0  0  0  0  0  0  0  0  0
   -1.3407    0.7417   -2.1722 H   0  0  0  0  0  0  0  0  0  0  0  0
   -1.2798    3.2973   -3.2325 C   0  0  0  0  0  0  0  0  0  0  0  0
   -2.2540    3.0870   -2.7471 H   0  0  0  0  0  0  0  0  0  0  0  0
   -1.3427    2.9629   -4.2858 H   0  0  0  0  0  0  0  0  0  0  0  0
   -1.1195    4.3935   -3.2467 H   0  0  0  0  0  0  0  0  0  0  0  0
   -0.1873    4.3881   -0.7423 C   0  0  0  0  0  0  0  0  0  0  0  0
   -1.2149    4.7703   -0.9198 H   0  0  0  0  0  0  0  0  0  0  0  0
    0.5087    4.9904   -1.3583 H   0  0  0  0  0  0  0  0  0  0  0  0
    1.2224    2.8992   -3.1563 C   0  0  0  0  0  0  0  0  0  0  0  0
    1.4321    3.9865   -3.1002 H   0  0  0  0  0  0  0  0  0  0  0  0
    1.2290    2.6160   -4.2274 H   0  0  0  0  0  0  0  0  0  0  0  0
    2.0357    2.3487   -2.6472 H   0  0  0  0  0  0  0  0  0  0  0  0
   -0.1380    2.5441   -2.5232 C   0  0  0  0  0  0  0  0  0  0  0  0
    0.1134    2.9551    1.0919 N   0  0  0  0  0  0  0  0  0  0  0  0
    0.3891    1.0404    2.6509 C   0  0  0  0  0  0  0  0  0  0  0  0
   -0.4532    0.4473    2.2395 H   0  0  0  0  0  0  0  0  0  0  0  0
    0.4508    0.7691    3.7222 H   0  0  0  0  0  0  0  0  0  0  0  0
    1.3414    0.7430    2.1726 H   0  0  0  0  0  0  0  0  0  0  0  0
    1.2786    3.2987    3.2323 C   0  0  0  0  0  0  0  0  0  0  0  0
    2.2531    3.0889    2.7470 H   0  0  0  0  0  0  0  0  0  0  0  0
    1.3417    2.9646    4.2857 H   0  0  0  0  0  0  0  0  0  0  0  0
    1.1176    4.3948    3.2462 H   0  0  0  0  0  0  0  0  0  0  0  0
    0.1861    4.3883    0.7418 C   0  0  0  0  0  0  0  0  0  0  0  0
    1.2136    4.7709    0.9192 H   0  0  0  0  0  0  0  0  0  0  0  0
   -0.5101    4.9904    1.3577 H   0  0  0  0  0  0  0  0  0  0  0  0
   -1.2232    2.8989    3.1559 C   0  0  0  0  0  0  0  0  0  0  0  0
   -1.4338    3.9860    3.0995 H   0  0  0  0  0  0  0  0  0  0  0  0
   -1.2298    2.6159    4.2270 H   0  0  0  0  0  0  0  0  0  0  0  0
   -2.0361    2.3476    2.6469 H   0  0  0  0  0  0  0  0  0  0  0  0
    0.1374    2.5446    2.5230 C   0  0  0  0  0  0  0  0  0  0  0  0
  1 11  1  0  0  0  0
  1  2  1  0  0  0  0
  2 19  1  0  0  0  0
  3 18  1  0  0  0  0
  3  4  1  0  0  0  0
  3  6  1  0  0  0  0
  5  3  1  0  0  0  0
  7  8  1  0  0  0  0
  7 18  1  0  0  0  0
  9  7  1  0  0  0  0
 10  7  1  0  0  0  0
 11 28  1  0  0  0  0
 12 11  1  0  0  0  0
 13 11  1  0  0  0  0
 14 15  1  0  0  0  0
 14 17  1  0  0  0  0
 14 18  1  0  0  0  0
 16 14  1  0  0  0  0
 18  1  1  0  0  0  0
 19 35  1  0  0  0  0
 20 22  1  0  0  0  0
 21 20  1  0  0  0  0
 23 20  1  0  0  0  0
 24 27  1  0  0  0  0
 24 26  1  0  0  0  0
 25 24  1  0  0  0  0
 28 29  1  0  0  0  0
 28 19  1  0  0  0  0
 28 30  1  0  0  0  0
 31 33  1  0  0  0  0
 32 31  1  0  0  0  0
 34 31  1  0  0  0  0
 35 20  1  0  0  0  0
 35 31  1  0  0  0  0
 35 24  1  0  0  0  0
M  END
