5
q = -2.0, confidence = 0.57

  9  8  0  0  0  0  0  0  0  0999 V2000
   -1.5618   -0.0010   -1.5565 S   0  0  0  0  0  1  0  0  0  0  0  0
   -3.1066   -0.0007   -0.7541 C   0  0  0  0  0  0  0  0  0  0  0  0
   -3.3915   -0.0004    0.5826 C   0  0  0  0  0  0  0  0  0  0  0  0
   -2.4413   -0.0003    1.6776 C   0  0  0  0  0  0  0  0  0  0  0  0
   -1.0769   -0.0002    1.6438 C   0  0  0  0  0  3  0  0  0  0  0  0
   -3.9431   -0.0009   -1.4759 H   0  0  0  0  0  0  0  0  0  0  0  0
   -4.4592   -0.0003    0.8586 H   0  0  0  0  0  0  0  0  0  0  0  0
   -2.9151   -0.0003    2.6796 H   0  0  0  0  0  0  0  0  0  0  0  0
   -0.5933   -0.0002    2.6427 H   0  0  0  0  0  0  0  0  0  0  0  0
  1  2  1  0  0  0  0
  2  3  2  0  0  0  0
  3  7  1  0  0  0  0
  3  4  1  0  0  0  0
  4  8  1  0  0  0  0
  5  4  2  0  0  0  0
  5  9  1  0  0  0  0
  6  2  1  0  0  0  0
M  END
