4
q = 0.0, confidence = 0.926

 10 10  0  0  1  0  0  0  0  0999 V2000
    2.9815   -0.8351    0.7817 Br  0  0  0  0  0  0  0  0  0  0  0  0
    1.8509    0.4894   -1.6566 C   0  0  0  0  0  0  0  0  0  0  0  0
    1.7108   -0.5822   -0.5866 C   0  0  1  0  0  3  0  0  0  0  0  0
    0.8500   -1.6110   -1.0910 C   0  0  0  0  0  3  0  0  0  0  0  0
    0.1035   -1.0367   -2.1980 C   0  0  0  0  0  3  0  0  0  0  0  0
    0.5245    0.3155   -2.3577 C   0  0  0  0  0  3  0  0  0  0  0  0
    2.7464    1.2827   -1.8482 O   0  0  0  0  0  0  0  0  0  0  0  0
    0.8081   -2.6485   -0.7381 H   0  0  0  0  0  0  0  0  0  0  0  0
   -0.6331   -1.5719   -2.8114 H   0  0  0  0  0  0  0  0  0  0  0  0
    0.1473    1.0158   -3.1129 H   0  0  0  0  0  0  0  0  0  0  0  0
  2  3  1  0  0  0  0
  3  1  1  6  0  0  0
  4  8  1  0  0  0  0
  4  3  1  0  0  0  0
  5  4  1  0  0  0  0
  6  5  1  0  0  0  0
  6  2  1  0  0  0  0
  7  2  2  0  0  0  0
  9  5  1  0  0  0  0
 10  6  1  0  0  0  0
M  END
