1
q = 0.0, confidence = 1.0

 21 22  0  0  0  0  0  0  0  0999 V2000
    2.0015   -0.2019   -0.1428 C   0  0  0  0  0  2  0  0  0  0  0  0
    4.2386    0.2745    0.0012 C   0  0  0  0  0  0  0  0  0  0  0  0
    2.1125   -2.6703   -0.4600 C   0  0  0  0  0  0  0  0  0  0  0  0
    1.0770   -2.5361   -0.8186 H   0  0  0  0  0  0  0  0  0  0  0  0
    2.0845   -3.2206    0.5003 H   0  0  0  0  0  0  0  0  0  0  0  0
    2.6956   -3.2353   -1.2127 H   0  0  0  0  0  0  0  0  0  0  0  0
    5.1848   -1.9807   -0.2368 C   0  0  0  0  0  0  0  0  0  0  0  0
    5.0629   -3.0644   -0.3710 H   0  0  0  0  0  0  0  0  0  0  0  0
    4.0809   -1.1190   -0.1819 C   0  0  0  0  0  0  0  0  0  0  0  0
    6.6092   -0.0063    0.0809 C   0  0  0  0  0  0  0  0  0  0  0  0
    7.6209    0.4126    0.1846 H   0  0  0  0  0  0  0  0  0  0  0  0
    5.5057    0.8584    0.1326 C   0  0  0  0  0  0  0  0  0  0  0  0
    5.6235    1.9403    0.2693 H   0  0  0  0  0  0  0  0  0  0  0  0
    2.5703    2.1801    0.1767 C   0  0  0  0  0  0  0  0  0  0  0  0
    1.5414    2.3256   -0.2169 H   0  0  0  0  0  0  0  0  0  0  0  0
    6.4536   -1.3982   -0.1008 C   0  0  0  0  0  0  0  0  0  0  0  0
    7.3458   -2.0406   -0.1335 H   0  0  0  0  0  0  0  0  0  0  0  0
    2.6508    2.5260    1.4902 F   0  0  0  0  0  0  0  0  0  0  0  0
    2.7062   -1.3560   -0.2775 N   0  0  0  0  0  0  0  0  0  0  0  0
    2.9362    0.7947    0.0040 N   0  0  0  0  0  0  0  0  0  0  0  0
    3.4564    2.9549   -0.5030 F   0  0  0  0  0  0  0  0  0  0  0  0
  1 20  1  0  0  0  0
  2 20  1  0  0  0  0
  2 12  1  0  0  0  0
  3 19  1  0  0  0  0
  3  5  1  0  0  0  0
  4  3  1  0  0  0  0
  6  3  1  0  0  0  0
  7  9  1  0  0  0  0
  7 16  2  0  0  0  0
  8  7  1  0  0  0  0
  9  2  2  0  0  0  0
 10 12  2  0  0  0  0
 10 11  1  0  0  0  0
 12 13  1  0  0  0  0
 14 18  1  0  0  0  0
 15 14  1  0  0  0  0
 16 10  1  0  0  0  0
 17 16  1  0  0  0  0
 19  9  1  0  0  0  0
 19  1  1  0  0  0  0
 20 14  1  0  0  0  0
 21 14  1  0  0  0  0
M  END
