5
q = 0.0, confidence = 0.992

 41 43  0  0  1  0  0  0  0  0999 V2000
    3.1864    0.2841   -1.8004 O   0  0  0  0  0  0  0  0  0  0  0  0
   -2.6568   -2.6145    0.5895 O   0  0  0  0  0  0  0  0  0  0  0  0
    1.5437   -1.4597   -0.1010 N   0  0  0  0  0  0  0  0  0  0  0  0
   -0.5452   -1.4097   -0.6896 N   0  0  0  0  0  0  0  0  0  0  0  0
    0.4754   -0.6133   -0.2331 C   0  0  0  0  0  2  0  0  0  0  0  0
   -0.1258   -2.7233   -0.8346 C   0  0  0  0  0  0  0  0  0  0  0  0
   -0.8013   -3.5234   -1.1454 H   0  0  0  0  0  0  0  0  0  0  0  0
    1.1967   -2.7535   -0.4770 C   0  0  0  0  0  0  0  0  0  0  0  0
    1.9026   -3.5869   -0.4473 H   0  0  0  0  0  0  0  0  0  0  0  0
    3.7408   -0.7186   -0.9798 C   0  0  2  0  0  0  0  0  0  0  0  0
    3.8289   -1.6917   -1.5359 H   0  0  0  0  0  0  0  0  0  0  0  0
    2.8905   -1.0073    0.2798 C   0  0  2  0  0  0  0  0  0  0  0  0
    2.7294   -0.0394    0.8018 H   0  0  0  0  0  0  0  0  0  0  0  0
    3.5785   -1.9969    1.2270 C   0  0  0  0  0  0  0  0  0  0  0  0
    3.6852   -2.9840    0.7250 H   0  0  0  0  0  0  0  0  0  0  0  0
    2.9367   -2.1570    2.1176 H   0  0  0  0  0  0  0  0  0  0  0  0
    4.9727   -1.4967    1.6218 C   0  0  0  0  0  0  0  0  0  0  0  0
    4.8735   -0.5545    2.2043 H   0  0  0  0  0  0  0  0  0  0  0  0
    5.4579   -2.2332    2.2944 H   0  0  0  0  0  0  0  0  0  0  0  0
    5.8333   -1.2401    0.3786 C   0  0  0  0  0  0  0  0  0  0  0  0
    6.0172   -2.2047   -0.1460 H   0  0  0  0  0  0  0  0  0  0  0  0
    6.8300   -0.8505    0.6696 H   0  0  0  0  0  0  0  0  0  0  0  0
    5.1429   -0.2579   -0.5707 C   0  0  0  0  0  0  0  0  0  0  0  0
    5.0321    0.7361   -0.0857 H   0  0  0  0  0  0  0  0  0  0  0  0
    5.7358   -0.0923   -1.4928 H   0  0  0  0  0  0  0  0  0  0  0  0
   -1.8853   -0.9156   -0.9230 C   0  0  0  0  0  0  0  0  0  0  0  0
   -2.1748   -1.0615   -1.9868 H   0  0  0  0  0  0  0  0  0  0  0  0
   -1.8502    0.1787   -0.7402 H   0  0  0  0  0  0  0  0  0  0  0  0
   -2.9353   -1.5944   -0.0289 C   0  0  0  0  0  0  0  0  0  0  0  0
   -4.2964   -0.9820    0.0135 C   0  0  0  0  0  0  0  0  0  0  0  0
   -5.2952   -1.6614    0.7467 C   0  0  0  0  0  0  0  0  0  0  0  0
   -5.0168   -2.6006    1.2471 H   0  0  0  0  0  0  0  0  0  0  0  0
   -6.5902   -1.1419    0.8269 C   0  0  0  0  0  0  0  0  0  0  0  0
   -7.3628   -1.6752    1.4009 H   0  0  0  0  0  0  0  0  0  0  0  0
   -6.9040    0.0644    0.1754 C   0  0  0  0  0  0  0  0  0  0  0  0
   -7.9227    0.4760    0.2403 H   0  0  0  0  0  0  0  0  0  0  0  0
   -5.9186    0.7486   -0.5542 C   0  0  0  0  0  0  0  0  0  0  0  0
   -6.1616    1.6963   -1.0572 H   0  0  0  0  0  0  0  0  0  0  0  0
   -4.6191    0.2304   -0.6362 C   0  0  0  0  0  0  0  0  0  0  0  0
   -3.8593    0.7892   -1.2015 H   0  0  0  0  0  0  0  0  0  0  0  0
    2.2106    0.2119   -1.7915 H   0  0  0  0  0  0  0  0  0  0  0  0
  1 41  1  0  0  0  0
  1 10  1  0  0  0  0
  3 12  1  0  0  0  0
  4  5  1  0  0  0  0
  5  3  1  0  0  0  0
  6  4  1  0  0  0  0
  6  8  2  0  0  0  0
  7  6  1  0  0  0  0
  8  9  1  0  0  0  0
  8  3  1  0  0  0  0
 10 11  1  6  0  0  0
 10 23  1  0  0  0  0
 10 12  1  0  0  0  0
 12 13  1  1  0  0  0
 12 14  1  0  0  0  0
 14 17  1  0  0  0  0
 14 16  1  0  0  0  0
 15 14  1  0  0  0  0
 17 18  1  0  0  0  0
 17 19  1  0  0  0  0
 20 22  1  0  0  0  0
 20 17  1  0  0  0  0
 21 20  1  0  0  0  0
 23 24  1  0  0  0  0
 23 20  1  0  0  0  0
 25 23  1  0  0  0  0
 26 28  1  0  0  0  0
 26  4  1  0  0  0  0
 26 29  1  0  0  0  0
 27 26  1  0  0  0  0
 29 30  1  0  0  0  0
 29  2  2  0  0  0  0
 30 31  1  0  0  0  0
 31 33  2  0  0  0  0
 31 32  1  0  0  0  0
 33 34  1  0  0  0  0
 35 36  1  0  0  0  0
 35 33  1  0  0  0  0
 37 35  2  0  0  0  0
 38 37  1  0  0  0  0
 39 37  1  0  0  0  0
 39 30  2  0  0  0  0
 40 39  1  0  0  0  0
M  END
