3
q = -1.0

 25 26  0  0  0  0  0  0  0  0999 V2000
    1.1733   -1.8637   -1.1979 C   0  0  0  0  0  3  0  0  0  0  0  0
    1.6390   -2.1813   -2.1457 H   0  0  0  0  0  0  0  0  0  0  0  0
    1.5780   -2.5243    0.0011 C   0  0  0  0  0  3  0  0  0  0  0  0
    2.3494   -3.3104    0.0014 H   0  0  0  0  0  0  0  0  0  0  0  0
    1.1732   -1.8627    1.1995 C   0  0  0  0  0  3  0  0  0  0  0  0
    1.6389   -2.1796    2.1476 H   0  0  0  0  0  0  0  0  0  0  0  0
   -0.1669   -1.1585    1.2880 C   0  0  0  0  0  0  0  0  0  0  0  0
   -0.0286   -0.0808    1.5184 H   0  0  0  0  0  0  0  0  0  0  0  0
   -0.7286   -1.5752    2.1514 H   0  0  0  0  0  0  0  0  0  0  0  0
   -1.0030   -1.3449    0.0005 C   0  0  0  0  0  0  0  0  0  0  0  0
   -1.3431   -2.4003    0.0009 H   0  0  0  0  0  0  0  0  0  0  0  0
   -0.1669   -1.1595   -1.2870 C   0  0  0  0  0  0  0  0  0  0  0  0
   -0.7285   -1.5768   -2.1502 H   0  0  0  0  0  0  0  0  0  0  0  0
   -0.0285   -0.0819   -1.5183 H   0  0  0  0  0  0  0  0  0  0  0  0
   -2.2414   -0.4757    0.0002 C   0  0  0  0  0  0  0  0  0  0  0  0
   -3.5280   -1.0445    0.0003 C   0  0  0  0  0  0  0  0  0  0  0  0
   -4.6916   -0.2554   -0.0000 C   0  0  0  0  0  0  0  0  0  0  0  0
   -4.5763    1.1459   -0.0004 C   0  0  0  0  0  0  0  0  0  0  0  0
   -3.3033    1.7456   -0.0005 C   0  0  0  0  0  0  0  0  0  0  0  0
   -2.1632    0.9288   -0.0002 C   0  0  0  0  0  0  0  0  0  0  0  0
   -3.6681   -2.3778    0.0007 F   0  0  0  0  0  0  0  0  0  0  0  0
   -5.8941   -0.8242    0.0001 F   0  0  0  0  0  0  0  0  0  0  0  0
   -5.6670    1.9043   -0.0007 F   0  0  0  0  0  0  0  0  0  0  0  0
   -3.1884    3.0731   -0.0009 F   0  0  0  0  0  0  0  0  0  0  0  0
   -0.9520    1.5304   -0.0002 F   0  0  0  0  0  0  0  0  0  0  0  0
  1  3  1  0  0  0  0
  2  1  1  0  0  0  0
  3  4  1  0  0  0  0
  3  5  1  0  0  0  0
  5  7  1  0  0  0  0
  5  6  1  0  0  0  0
  7  8  1  0  0  0  0
  7  9  1  0  0  0  0
 10 11  1  0  0  0  0
 10  7  1  0  0  0  0
 12  1  1  0  0  0  0
 12 10  1  0  0  0  0
 13 12  1  0  0  0  0
 14 12  1  0  0  0  0
 15 16  1  0  0  0  0
 15 10  1  0  0  0  0
 16 21  1  0  0  0  0
 17 22  1  0  0  0  0
 17 16  2  0  0  0  0
 18 17  1  0  0  0  0
 19 18  2  0  0  0  0
 19 20  1  0  0  0  0
 20 15  2  0  0  0  0
 23 18  1  0  0  0  0
 24 19  1  0  0  0  0
 25 20  1  0  0  0  0
M  END
