3
q = 0.0, confidence = 0.998

 34 35  0  0  0  0  0  0  0  0999 V2000
    0.9110    2.0082   -0.0955 N   0  0  0  0  0  0  0  0  0  0  0  0
   -0.8747    1.1684   -1.0088 N   0  0  0  0  0  0  0  0  0  0  0  0
    0.3209    0.8168   -0.4414 C   0  0  0  0  0  2  0  0  0  0  0  0
   -1.0435    2.5421   -1.0079 C   0  0  0  0  0  0  0  0  0  0  0  0
   -1.9435    3.0236   -1.4007 H   0  0  0  0  0  0  0  0  0  0  0  0
    0.0832    3.0724   -0.4383 C   0  0  0  0  0  0  0  0  0  0  0  0
    0.3488    4.1157   -0.2631 H   0  0  0  0  0  0  0  0  0  0  0  0
    2.2534    2.1340    0.5724 C   0  0  0  0  0  0  0  0  0  0  0  0
    3.3190    1.4921   -0.3316 C   0  0  0  0  0  0  0  0  0  0  0  0
    3.1144    0.4134   -0.4841 H   0  0  0  0  0  0  0  0  0  0  0  0
    4.3161    1.5936    0.1395 H   0  0  0  0  0  0  0  0  0  0  0  0
    3.3452    1.9883   -1.3222 H   0  0  0  0  0  0  0  0  0  0  0  0
    2.1863    1.4366    1.9418 C   0  0  0  0  0  0  0  0  0  0  0  0
    1.4035    1.8955    2.5782 H   0  0  0  0  0  0  0  0  0  0  0  0
    3.1614    1.5326    2.4580 H   0  0  0  0  0  0  0  0  0  0  0  0
    1.9575    0.3580    1.8263 H   0  0  0  0  0  0  0  0  0  0  0  0
    2.5838    3.6195    0.7721 C   0  0  0  0  0  0  0  0  0  0  0  0
    2.6443    4.1666   -0.1898 H   0  0  0  0  0  0  0  0  0  0  0  0
    3.5750    3.6933    1.2581 H   0  0  0  0  0  0  0  0  0  0  0  0
    1.8528    4.1256    1.4337 H   0  0  0  0  0  0  0  0  0  0  0  0
   -1.8901    0.2132   -1.4658 C   0  0  0  0  0  0  0  0  0  0  0  0
   -1.3610   -0.7524   -1.5967 H   0  0  0  0  0  0  0  0  0  0  0  0
   -2.2564    0.5474   -2.4566 H   0  0  0  0  0  0  0  0  0  0  0  0
   -3.0367    0.0782   -0.4862 C   0  0  0  0  0  0  0  0  0  0  0  0
   -4.3201    0.5552   -0.8091 C   0  0  0  0  0  0  0  0  0  0  0  0
   -4.4978    1.0146   -1.7952 H   0  0  0  0  0  0  0  0  0  0  0  0
   -5.3754    0.4409    0.1103 C   0  0  0  0  0  0  0  0  0  0  0  0
   -6.3763    0.8140   -0.1547 H   0  0  0  0  0  0  0  0  0  0  0  0
   -5.1517   -0.1498    1.3627 C   0  0  0  0  0  0  0  0  0  0  0  0
   -5.9774   -0.2416    2.0846 H   0  0  0  0  0  0  0  0  0  0  0  0
   -3.8720   -0.6292    1.6915 C   0  0  0  0  0  0  0  0  0  0  0  0
   -3.6939   -1.1012    2.6696 H   0  0  0  0  0  0  0  0  0  0  0  0
   -2.8197   -0.5173    0.7731 C   0  0  0  0  0  0  0  0  0  0  0  0
   -1.8156   -0.8970    1.0253 H   0  0  0  0  0  0  0  0  0  0  0  0
  1  8  1  0  0  0  0
  2  4  1  0  0  0  0
  2  3  1  0  0  0  0
  3  1  1  0  0  0  0
  4  6  2  0  0  0  0
  5  4  1  0  0  0  0
  6  7  1  0  0  0  0
  6  1  1  0  0  0  0
  8 17  1  0  0  0  0
  8 13  1  0  0  0  0
  9 11  1  0  0  0  0
  9  8  1  0  0  0  0
 10  9  1  0  0  0  0
 12  9  1  0  0  0  0
 13 15  1  0  0  0  0
 13 14  1  0  0  0  0
 16 13  1  0  0  0  0
 17 19  1  0  0  0  0
 17 20  1  0  0  0  0
 18 17  1  0  0  0  0
 21  2  1  0  0  0  0
 21 24  1  0  0  0  0
 22 21  1  0  0  0  0
 23 21  1  0  0  0  0
 24 33  1  0  0  0  0
 25 24  2  0  0  0  0
 25 27  1  0  0  0  0
 26 25  1  0  0  0  0
 27 29  2  0  0  0  0
 28 27  1  0  0  0  0
 29 31  1  0  0  0  0
 29 30  1  0  0  0  0
 31 32  1  0  0  0  0
 33 34  1  0  0  0  0
 33 31  2  0  0  0  0
M  END
