12
q = -1.0

 49 52  0  0  0  0  0  0  0  0999 V2000
   -2.3231    0.4533    1.0264 C   0  0  0  0  0  0  0  0  0  0  0  0
   -3.2379    1.0444    0.1213 C   0  0  0  0  0  0  0  0  0  0  0  0
   -3.1642    0.8024   -0.9485 H   0  0  0  0  0  0  0  0  0  0  0  0
   -4.2030    1.9540    0.5675 C   0  0  0  0  0  0  0  0  0  0  0  0
   -4.8893    2.4190   -0.1566 H   0  0  0  0  0  0  0  0  0  0  0  0
   -4.2915    2.2811    1.9315 C   0  0  0  0  0  0  0  0  0  0  0  0
   -5.0469    3.0010    2.2796 H   0  0  0  0  0  0  0  0  0  0  0  0
   -3.4124    1.6804    2.8456 C   0  0  0  0  0  0  0  0  0  0  0  0
   -3.4770    1.9265    3.9163 H   0  0  0  0  0  0  0  0  0  0  0  0
   -2.4390    0.7744    2.4012 C   0  0  0  0  0  0  0  0  0  0  0  0
   -1.7416    0.3155    3.1182 H   0  0  0  0  0  0  0  0  0  0  0  0
   -1.2644   -0.4649    0.5444 C   0  0  0  0  0  3  0  0  0  0  0  0
    0.0517   -0.0823    0.5758 C   0  0  0  0  0  0  0  0  0  0  0  0
    1.1172   -0.8964    0.1301 C   0  0  0  0  0  0  0  0  0  0  0  0
    2.1125   -1.5296   -0.2362 C   0  0  0  0  0  0  0  0  0  0  0  0
    3.2651   -2.2725   -0.6213 C   0  0  0  0  0  0  0  0  0  0  0  0
    3.3919   -2.8093   -1.9293 C   0  0  0  0  0  0  0  0  0  0  0  0
    2.5901   -2.6346   -2.6618 H   0  0  0  0  0  0  0  0  0  0  0  0
    4.5334   -3.5352   -2.2892 C   0  0  0  0  0  0  0  0  0  0  0  0
    4.6189   -3.9433   -3.3078 H   0  0  0  0  0  0  0  0  0  0  0  0
    5.5690   -3.7362   -1.3615 C   0  0  0  0  0  0  0  0  0  0  0  0
    6.4661   -4.3043   -1.6500 H   0  0  0  0  0  0  0  0  0  0  0  0
    5.4571   -3.2044   -0.0658 C   0  0  0  0  0  0  0  0  0  0  0  0
    6.2674   -3.3526    0.6640 H   0  0  0  0  0  0  0  0  0  0  0  0
    4.3190   -2.4813    0.3075 C   0  0  0  0  0  0  0  0  0  0  0  0
    4.2315   -2.0613    1.3189 H   0  0  0  0  0  0  0  0  0  0  0  0
    0.5116    1.6107    1.3104 P   0  0  0  0  0  0  0  0  0  0  0  0
    2.3107    1.7042    0.8794 C   0  0  0  0  0  0  0  0  0  0  0  0
    2.9493    2.5480   -0.0478 C   0  0  0  0  0  0  0  0  0  0  0  0
    2.2603    3.4067   -0.8127 F   0  0  0  0  0  0  0  0  0  0  0  0
    4.3447    2.5344   -0.2257 C   0  0  0  0  0  0  0  0  0  0  0  0
    4.9164    3.3400   -1.1252 F   0  0  0  0  0  0  0  0  0  0  0  0
    5.1433    1.6789    0.5497 C   0  0  0  0  0  0  0  0  0  0  0  0
    6.4662    1.6620    0.3856 F   0  0  0  0  0  0  0  0  0  0  0  0
    4.5382    0.8424    1.5019 C   0  0  0  0  0  0  0  0  0  0  0  0
    5.2873    0.0186    2.2459 F   0  0  0  0  0  0  0  0  0  0  0  0
    3.1473    0.8769    1.6571 C   0  0  0  0  0  0  0  0  0  0  0  0
    2.6008    0.0609    2.5773 F   0  0  0  0  0  0  0  0  0  0  0  0
   -0.3369    2.6820    0.0641 C   0  0  0  0  0  0  0  0  0  0  0  0
   -1.1915    3.6888    0.5475 C   0  0  0  0  0  0  0  0  0  0  0  0
   -1.2308    3.9807    1.8516 F   0  0  0  0  0  0  0  0  0  0  0  0
   -2.0781    4.3749   -0.2993 C   0  0  0  0  0  0  0  0  0  0  0  0
   -2.9171    5.2903    0.1918 F   0  0  0  0  0  0  0  0  0  0  0  0
   -2.0956    4.0715   -1.6686 C   0  0  0  0  0  0  0  0  0  0  0  0
   -2.9417    4.7045   -2.4818 F   0  0  0  0  0  0  0  0  0  0  0  0
   -1.2377    3.0814   -2.1836 C   0  0  0  0  0  0  0  0  0  0  0  0
   -1.2629    2.7928   -3.4893 F   0  0  0  0  0  0  0  0  0  0  0  0
   -0.3629    2.4163   -1.3167 C   0  0  0  0  0  0  0  0  0  0  0  0
    0.4402    1.4779   -1.8437 F   0  0  0  0  0  0  0  0  0  0  0  0
  1 10  1  0  0  0  0
  2  4  1  0  0  0  0
  2  1  2  0  0  0  0
  3  2  1  0  0  0  0
  4  6  2  0  0  0  0
  5  4  1  0  0  0  0
  6  7  1  0  0  0  0
  6  8  1  0  0  0  0
  8  9  1  0  0  0  0
 10  8  2  0  0  0  0
 10 11  1  0  0  0  0
 12 13  2  0  0  0  0
 12  1  1  0  0  0  0
 13 27  1  0  0  0  0
 14 13  1  0  0  0  0
 15 14  3  0  0  0  0
 16 15  1  0  0  0  0
 16 25  1  0  0  0  0
 17 16  2  0  0  0  0
 18 17  1  0  0  0  0
 19 17  1  0  0  0  0
 19 21  2  0  0  0  0
 20 19  1  0  0  0  0
 21 23  1  0  0  0  0
 22 21  1  0  0  0  0
 23 25  2  0  0  0  0
 23 24  1  0  0  0  0
 25 26  1  0  0  0  0
 28 27  1  0  0  0  0
 28 37  1  0  0  0  0
 29 28  2  0  0  0  0
 30 29  1  0  0  0  0
 31 29  1  0  0  0  0
 31 33  2  0  0  0  0
 32 31  1  0  0  0  0
 33 35  1  0  0  0  0
 34 33  1  0  0  0  0
 35 37  2  0  0  0  0
 35 36  1  0  0  0  0
 37 38  1  0  0  0  0
 39 40  1  0  0  0  0
 39 27  1  0  0  0  0
 40 41  1  0  0  0  0
 42 43  1  0  0  0  0
 42 40  2  0  0  0  0
 44 42  1  0  0  0  0
 45 44  1  0  0  0  0
 46 44  2  0  0  0  0
 46 48  1  0  0  0  0
 47 46  1  0  0  0  0
 48 39  2  0  0  0  0
 49 48  1  0  0  0  0
M  END
