33
q = 0.0, confidence = 0.984

 39 41  0  0  0  0  0  0  0  0999 V2000
    4.4454   -3.7454   -1.3549 O   0  0  0  0  0  0  0  0  0  0  0  0
   -0.6362   -1.3813   -1.6324 N   0  0  0  0  0  0  0  0  0  0  0  0
   -5.2858    4.4329    0.5022 O   0  0  0  0  0  0  0  0  0  0  0  0
   -2.2687    0.0474   -1.2867 N   0  0  0  0  0  0  0  0  0  0  0  0
   -1.8458   -2.1635   -1.9300 C   0  0  0  0  0  0  0  0  0  0  0  0
   -2.0230   -2.9072   -1.1233 H   0  0  0  0  0  0  0  0  0  0  0  0
   -1.7412   -2.7021   -2.8923 H   0  0  0  0  0  0  0  0  0  0  0  0
    2.0041   -4.0170   -1.3526 C   0  0  0  0  0  0  0  0  0  0  0  0
    2.0475   -5.1039   -1.2025 H   0  0  0  0  0  0  0  0  0  0  0  0
    0.6354   -2.0030   -1.6222 C   0  0  0  0  0  0  0  0  0  0  0  0
   -3.2802    3.1922    0.4715 C   0  0  0  0  0  0  0  0  0  0  0  0
   -2.8681    3.9393    1.1653 H   0  0  0  0  0  0  0  0  0  0  0  0
   -4.3590    1.3131   -1.2900 C   0  0  0  0  0  0  0  0  0  0  0  0
   -4.8056    0.5970   -1.9927 H   0  0  0  0  0  0  0  0  0  0  0  0
    4.6006   -5.1333   -1.1470 C   0  0  0  0  0  0  0  0  0  0  0  0
    4.1351   -5.4676   -0.1910 H   0  0  0  0  0  0  0  0  0  0  0  0
    5.6885   -5.3268   -1.1015 H   0  0  0  0  0  0  0  0  0  0  0  0
    4.1626   -5.7321   -1.9780 H   0  0  0  0  0  0  0  0  0  0  0  0
   -2.5044    2.1165    0.0489 C   0  0  0  0  0  0  0  0  0  0  0  0
   -1.4560    2.0180    0.3912 H   0  0  0  0  0  0  0  0  0  0  0  0
   -2.9333   -1.0904   -1.9455 C   0  0  0  0  0  0  0  0  0  0  0  0
   -3.2462   -0.8114   -2.9756 H   0  0  0  0  0  0  0  0  0  0  0  0
   -3.8333   -1.3942   -1.3750 H   0  0  0  0  0  0  0  0  0  0  0  0
    1.8210   -1.2476   -1.7873 C   0  0  0  0  0  0  0  0  0  0  0  0
    1.7468   -0.1642   -1.9721 H   0  0  0  0  0  0  0  0  0  0  0  0
    0.7456   -3.3937   -1.4374 C   0  0  0  0  0  0  0  0  0  0  0  0
   -0.1536   -4.0136   -1.3257 H   0  0  0  0  0  0  0  0  0  0  0  0
   -6.6156    4.6327    0.0706 C   0  0  0  0  0  0  0  0  0  0  0  0
   -6.6802    4.7654   -1.0336 H   0  0  0  0  0  0  0  0  0  0  0  0
   -6.9722    5.5564    0.5633 H   0  0  0  0  0  0  0  0  0  0  0  0
   -7.2812    3.7885    0.3635 H   0  0  0  0  0  0  0  0  0  0  0  0
    3.1786   -3.2468   -1.4515 C   0  0  0  0  0  0  0  0  0  0  0  0
   -0.9252   -0.1336   -1.1450 C   0  0  0  0  0  2  0  0  0  0  0  0
   -4.6109    3.3488    0.0249 C   0  0  0  0  0  0  0  0  0  0  0  0
   -3.0290    1.1577   -0.8506 C   0  0  0  0  0  0  0  0  0  0  0  0
   -5.1459    2.3952   -0.8606 C   0  0  0  0  0  0  0  0  0  0  0  0
   -6.1753    2.4795   -1.2329 H   0  0  0  0  0  0  0  0  0  0  0  0
    3.0695   -1.8573   -1.6840 C   0  0  0  0  0  0  0  0  0  0  0  0
    3.9906   -1.2672   -1.7956 H   0  0  0  0  0  0  0  0  0  0  0  0
  1 15  1  0  0  0  0
  2 10  1  0  0  0  0
  2 33  1  0  0  0  0
  4 33  1  0  0  0  0
  4 35  1  0  0  0  0
  5  2  1  0  0  0  0
  5  6  1  0  0  0  0
  7  5  1  0  0  0  0
  8  9  1  0  0  0  0
 10 26  2  0  0  0  0
 11 12  1  0  0  0  0
 13 36  2  0  0  0  0
 13 35  1  0  0  0  0
 14 13  1  0  0  0  0
 15 17  1  0  0  0  0
 15 16  1  0  0  0  0
 18 15  1  0  0  0  0
 19 20  1  0  0  0  0
 19 11  1  0  0  0  0
 21  5  1  0  0  0  0
 21 23  1  0  0  0  0
 21  4  1  0  0  0  0
 22 21  1  0  0  0  0
 24 38  2  0  0  0  0
 24 10  1  0  0  0  0
 25 24  1  0  0  0  0
 26  8  1  0  0  0  0
 26 27  1  0  0  0  0
 28 31  1  0  0  0  0
 28  3  1  0  0  0  0
 28 30  1  0  0  0  0
 29 28  1  0  0  0  0
 32  1  1  0  0  0  0
 32  8  2  0  0  0  0
 34 11  2  0  0  0  0
 34  3  1  0  0  0  0
 35 19  2  0  0  0  0
 36 34  1  0  0  0  0
 37 36  1  0  0  0  0
 38 32  1  0  0  0  0
 39 38  1  0  0  0  0
M  END
