1
q = 0.0, confidence = 0.962

 19 18  0  0  1  0  0  0  0  0999 V2000
    2.5666    0.8319   -1.6003 C   0  0  0  0  0  3  0  0  0  0  0  0
    2.5422    0.6363   -2.6846 H   0  0  0  0  0  0  0  0  0  0  0  0
    2.4907    1.8873   -1.2880 H   0  0  0  0  0  0  0  0  0  0  0  0
    3.1747   -0.1103   -0.7434 C   0  0  2  0  0  3  0  0  0  0  0  0
    3.4626    0.2917    0.6304 C   0  0  0  0  0  0  0  0  0  0  0  0
    3.1606    1.3292    0.8533 H   0  0  0  0  0  0  0  0  0  0  0  0
    4.0314   -0.4008    1.6682 C   0  0  0  0  0  0  0  0  0  0  0  0
    3.6125   -1.4379   -1.3066 C   0  0  0  0  0  0  0  0  0  0  0  0
    3.2304   -2.2947   -0.7219 H   0  0  0  0  0  0  0  0  0  0  0  0
    4.7203   -1.5002   -1.2842 H   0  0  0  0  0  0  0  0  0  0  0  0
    3.2831   -1.5534   -2.3554 H   0  0  0  0  0  0  0  0  0  0  0  0
    4.2126    0.2957    2.9863 C   0  0  0  0  0  0  0  0  0  0  0  0
    5.2860    0.3017    3.2764 H   0  0  0  0  0  0  0  0  0  0  0  0
    3.6890   -0.2632    3.7928 H   0  0  0  0  0  0  0  0  0  0  0  0
    3.8436    1.3384    2.9788 H   0  0  0  0  0  0  0  0  0  0  0  0
    4.5062   -1.8325    1.6320 C   0  0  0  0  0  0  0  0  0  0  0  0
    4.9410   -2.1283    2.6048 H   0  0  0  0  0  0  0  0  0  0  0  0
    5.2812   -1.9979    0.8579 H   0  0  0  0  0  0  0  0  0  0  0  0
    3.6769   -2.5360    1.4129 H   0  0  0  0  0  0  0  0  0  0  0  0
  1  3  1  0  0  0  0
  2  1  1  0  0  0  0
  4  1  1  6  0  0  0
  4  5  1  0  0  0  0
  5  6  1  0  0  0  0
  5  7  2  0  0  0  0
  7 12  1  0  0  0  0
  8 10  1  0  0  0  0
  8  4  1  0  0  0  0
  8  9  1  0  0  0  0
 11  8  1  0  0  0  0
 12 13  1  0  0  0  0
 12 14  1  0  0  0  0
 15 12  1  0  0  0  0
 16  7  1  0  0  0  0
 16 17  1  0  0  0  0
 18 16  1  0  0  0  0
 19 16  1  0  0  0  0
M  END
