3
q = 0.0, confidence = 0.914

 26 26  0  0  1  0  0  0  0  0999 V2000
    1.6523   -1.3091   -2.3350 O   0  0  0  0  0  0  0  0  0  0  0  0
    3.4962    0.1799    0.9269 O   0  0  0  0  0  0  0  0  0  0  0  0
    0.7301   -2.2483    0.3750 C   0  0  2  0  0  3  0  0  0  0  0  0
    1.8660   -1.3663    0.0624 C   0  0  1  0  0  3  0  0  0  0  0  0
    2.6316   -0.6846    1.1414 C   0  0  0  0  0  0  0  0  0  0  0  0
    2.3535   -1.1057    2.5863 C   0  0  0  0  0  0  0  0  0  0  0  0
    0.9453   -1.6365    2.8436 C   0  0  0  0  0  0  0  0  0  0  0  0
    0.5890   -2.7118    1.8215 C   0  0  0  0  0  0  0  0  0  0  0  0
    0.2522   -3.2931   -0.6306 C   0  0  0  0  0  0  0  0  0  0  0  0
    1.1945   -4.5001   -0.7664 C   0  0  0  0  0  0  0  0  0  0  0  0
    2.3963   -1.3180   -1.3489 C   0  0  0  0  0  0  0  0  0  0  0  0
    3.8989   -1.3585   -1.5386 C   0  0  0  0  0  0  0  0  0  0  0  0
    3.0967   -1.9072    2.8069 H   0  0  0  0  0  0  0  0  0  0  0  0
    2.6187   -0.2496    3.2381 H   0  0  0  0  0  0  0  0  0  0  0  0
    0.2122   -0.8026    2.7474 H   0  0  0  0  0  0  0  0  0  0  0  0
    0.8594   -2.0295    3.8786 H   0  0  0  0  0  0  0  0  0  0  0  0
   -0.4485   -3.0750    1.9816 H   0  0  0  0  0  0  0  0  0  0  0  0
    1.2459   -3.5999    1.9890 H   0  0  0  0  0  0  0  0  0  0  0  0
    0.1209   -2.8313   -1.6253 H   0  0  0  0  0  0  0  0  0  0  0  0
   -0.7511   -3.6426   -0.3016 H   0  0  0  0  0  0  0  0  0  0  0  0
    0.7928   -5.2432   -1.4854 H   0  0  0  0  0  0  0  0  0  0  0  0
    1.3513   -5.0222    0.1996 H   0  0  0  0  0  0  0  0  0  0  0  0
    2.1899   -4.1826   -1.1397 H   0  0  0  0  0  0  0  0  0  0  0  0
    4.1338   -1.3500   -2.6182 H   0  0  0  0  0  0  0  0  0  0  0  0
    4.3093   -2.2764   -1.0659 H   0  0  0  0  0  0  0  0  0  0  0  0
    4.3634   -0.5041   -1.0093 H   0  0  0  0  0  0  0  0  0  0  0  0
  1 11  2  0  0  0  0
  2  5  2  0  0  0  0
  3  9  1  6  0  0  0
  3  8  1  0  0  0  0
  4 11  1  1  0  0  0
  4  3  1  0  0  0  0
  4  5  1  0  0  0  0
  5  6  1  0  0  0  0
  6 13  1  0  0  0  0
  6  7  1  0  0  0  0
  6 14  1  0  0  0  0
  7 16  1  0  0  0  0
  8 17  1  0  0  0  0
  8 18  1  0  0  0  0
  8  7  1  0  0  0  0
  9 20  1  0  0  0  0
 10  9  1  0  0  0  0
 10 22  1  0  0  0  0
 12 11  1  0  0  0  0
 12 25  1  0  0  0  0
 12 26  1  0  0  0  0
 15  7  1  0  0  0  0
 19  9  1  0  0  0  0
 21 10  1  0  0  0  0
 23 10  1  0  0  0  0
 24 12  1  0  0  0  0
M  END
