9
q = -1.0

 28 29  0  0  0  0  0  0  0  0999 V2000
    1.0619    2.4807    0.0540 C   0  0  0  0  0  0  0  0  0  0  0  0
    1.7839    1.3615    0.8173 C   0  0  0  0  0  0  0  0  0  0  0  0
    2.1949   -1.0716    0.8800 C   0  0  0  0  0  0  0  0  0  0  0  0
    3.7095   -1.0228    0.5918 C   0  0  0  0  0  0  0  0  0  0  0  0
    3.8174   -0.2838   -0.7675 C   0  0  0  0  0  0  0  0  0  0  0  0
    2.3536    0.0222   -1.1506 C   0  0  0  0  0  0  0  0  0  0  0  0
   -0.3098    2.0350   -0.3745 C   0  0  0  0  0  0  0  0  0  0  0  0
   -0.6600    1.4252   -1.6208 C   0  0  0  0  0  0  0  0  0  0  0  0
   -2.0336    1.0617   -1.5733 C   0  0  0  0  0  3  0  0  0  0  0  0
   -2.5422    1.4427   -0.2967 C   0  0  0  0  0  0  0  0  0  0  0  0
   -1.4825    2.0358    0.4405 C   0  0  0  0  0  0  0  0  0  0  0  0
    1.5836    0.0621    0.1279 N   0  0  0  0  0  0  0  0  0  0  0  0
    0.9885    3.3720    0.7089 H   0  0  0  0  0  0  0  0  0  0  0  0
    1.6423    2.7944   -0.8372 H   0  0  0  0  0  0  0  0  0  0  0  0
    0.0205    1.2312   -2.4572 H   0  0  0  0  0  0  0  0  0  0  0  0
   -2.5864    0.5193   -2.3488 H   0  0  0  0  0  0  0  0  0  0  0  0
   -3.5562    1.2563    0.0711 H   0  0  0  0  0  0  0  0  0  0  0  0
   -1.5393    2.3905    1.4757 H   0  0  0  0  0  0  0  0  0  0  0  0
    1.3429    1.2557    1.8269 H   0  0  0  0  0  0  0  0  0  0  0  0
    2.8646    1.6018    0.9392 H   0  0  0  0  0  0  0  0  0  0  0  0
    1.9187   -1.0082    1.9469 H   0  0  0  0  0  0  0  0  0  0  0  0
    1.7439   -1.9961    0.4662 H   0  0  0  0  0  0  0  0  0  0  0  0
    4.2519   -0.4760    1.3887 H   0  0  0  0  0  0  0  0  0  0  0  0
    4.1371   -2.0434    0.5577 H   0  0  0  0  0  0  0  0  0  0  0  0
    4.4154    0.6447   -0.6710 H   0  0  0  0  0  0  0  0  0  0  0  0
    4.3053   -0.8956   -1.5508 H   0  0  0  0  0  0  0  0  0  0  0  0
    1.9203   -0.7938   -1.7590 H   0  0  0  0  0  0  0  0  0  0  0  0
    2.2317    0.9643   -1.7144 H   0  0  0  0  0  0  0  0  0  0  0  0
  1 13  1  0  0  0  0
  1  2  1  0  0  0  0
  2 20  1  0  0  0  0
  2 19  1  0  0  0  0
  3 21  1  0  0  0  0
  4  3  1  0  0  0  0
  4 23  1  0  0  0  0
  5 25  1  0  0  0  0
  5  4  1  0  0  0  0
  6  5  1  0  0  0  0
  6 12  1  0  0  0  0
  7  1  1  0  0  0  0
  7 11  1  0  0  0  0
  8  9  1  0  0  0  0
  8  7  2  0  0  0  0
  9 10  1  0  0  0  0
 10 17  1  0  0  0  0
 10 11  2  0  0  0  0
 11 18  1  0  0  0  0
 12  2  1  0  0  0  0
 12  3  1  0  0  0  0
 14  1  1  0  0  0  0
 15  8  1  0  0  0  0
 16  9  1  0  0  0  0
 22  3  1  0  0  0  0
 24  4  1  0  0  0  0
 26  5  1  0  0  0  0
 27  6  1  0  0  0  0
 28  6  1  0  0  0  0
M  END
