10
q = 0.0, confidence = 1.0

 41 41  0  0  1  0  0  0  0  0999 V2000
    1.5089   -0.6689    0.1658 P   0  0  2  0  0  0  0  0  0  0  0  0
   -0.8959    0.6784    1.9303 C   0  0  0  0  0  0  0  0  0  0  0  0
   -0.1432    1.1675    2.5657 H   0  0  0  0  0  0  0  0  0  0  0  0
   -1.7566    1.4869    1.1330 C   0  0  0  0  0  0  0  0  0  0  0  0
   -2.7549    0.8477    0.3014 C   0  0  0  0  0  0  0  0  0  0  0  0
   -3.3860    1.4741   -0.3456 H   0  0  0  0  0  0  0  0  0  0  0  0
   -2.8586   -0.5608    0.2151 C   0  0  0  0  0  0  0  0  0  0  0  0
   -1.9087   -1.3665    0.9518 C   0  0  0  0  0  3  0  0  0  0  0  0
   -1.9108   -2.4579    0.8163 H   0  0  0  0  0  0  0  0  0  0  0  0
   -0.9239   -0.7603    1.8005 C   0  0  1  0  0  3  0  0  0  0  0  0
    0.1780   -1.5946    2.4305 C   0  0  0  0  0  0  0  0  0  0  0  0
    0.0452   -2.6489    2.1144 H   0  0  0  0  0  0  0  0  0  0  0  0
    0.0874   -1.5782    3.5382 H   0  0  0  0  0  0  0  0  0  0  0  0
    1.5604   -1.0835    1.9958 C   0  0  0  0  0  0  0  0  0  0  0  0
    2.3617   -1.8182    2.2126 H   0  0  0  0  0  0  0  0  0  0  0  0
    1.8253   -0.1490    2.5309 H   0  0  0  0  0  0  0  0  0  0  0  0
   -1.6388    2.9833    1.1311 C   0  0  0  0  0  0  0  0  0  0  0  0
   -2.5847    3.4494    1.4747 H   0  0  0  0  0  0  0  0  0  0  0  0
   -1.4211    3.3269    0.0981 H   0  0  0  0  0  0  0  0  0  0  0  0
   -0.8147    3.3248    1.7851 H   0  0  0  0  0  0  0  0  0  0  0  0
   -3.8102   -1.2233   -0.7354 C   0  0  0  0  0  0  0  0  0  0  0  0
   -4.4007   -2.0077   -0.2209 H   0  0  0  0  0  0  0  0  0  0  0  0
   -3.2188   -1.7031   -1.5471 H   0  0  0  0  0  0  0  0  0  0  0  0
   -4.5009   -0.4921   -1.1944 H   0  0  0  0  0  0  0  0  0  0  0  0
    1.9516   -2.2682   -0.6249 C   0  0  0  0  0  0  0  0  0  0  0  0
    1.8416   -2.1688   -1.7199 H   0  0  0  0  0  0  0  0  0  0  0  0
    1.2153   -3.0251   -0.2940 H   0  0  0  0  0  0  0  0  0  0  0  0
    2.9749   -2.5873   -0.3469 H   0  0  0  0  0  0  0  0  0  0  0  0
    2.9992    0.4638   -0.1094 C   0  0  0  0  0  0  0  0  0  0  0  0
    3.1909    0.6079   -1.6302 C   0  0  0  0  0  0  0  0  0  0  0  0
    3.4663   -0.3555   -2.1041 H   0  0  0  0  0  0  0  0  0  0  0  0
    4.0170    1.3243   -1.8255 H   0  0  0  0  0  0  0  0  0  0  0  0
    2.2695    0.9961   -2.1083 H   0  0  0  0  0  0  0  0  0  0  0  0
    2.6767    1.8302    0.5198 C   0  0  0  0  0  0  0  0  0  0  0  0
    2.5172    1.7576    1.6160 H   0  0  0  0  0  0  0  0  0  0  0  0
    1.7761    2.2724    0.0490 H   0  0  0  0  0  0  0  0  0  0  0  0
    3.5348    2.5165    0.3592 H   0  0  0  0  0  0  0  0  0  0  0  0
    4.2620   -0.1329    0.5358 C   0  0  0  0  0  0  0  0  0  0  0  0
    4.1785   -0.2153    1.6382 H   0  0  0  0  0  0  0  0  0  0  0  0
    5.1227    0.5359    0.3221 H   0  0  0  0  0  0  0  0  0  0  0  0
    4.5187   -1.1312    0.1281 H   0  0  0  0  0  0  0  0  0  0  0  0
  1 25  1  6  0  0  0
  1 14  1  0  0  0  0
  2  3  1  0  0  0  0
  4  2  2  0  0  0  0
  5  4  1  0  0  0  0
  6  5  1  0  0  0  0
  7  5  2  0  0  0  0
  7  8  1  0  0  0  0
  8 10  1  0  0  0  0
  9  8  1  0  0  0  0
 10  2  1  0  0  0  0
 10 11  1  6  0  0  0
 11 13  1  0  0  0  0
 12 11  1  0  0  0  0
 14 15  1  0  0  0  0
 14 11  1  0  0  0  0
 14 16  1  0  0  0  0
 17  4  1  0  0  0  0
 17 18  1  0  0  0  0
 17 20  1  0  0  0  0
 19 17  1  0  0  0  0
 21 22  1  0  0  0  0
 21  7  1  0  0  0  0
 23 21  1  0  0  0  0
 24 21  1  0  0  0  0
 25 28  1  0  0  0  0
 25 27  1  0  0  0  0
 26 25  1  0  0  0  0
 29  1  1  0  0  0  0
 29 34  1  0  0  0  0
 29 38  1  0  0  0  0
 30 29  1  0  0  0  0
 31 30  1  0  0  0  0
 32 30  1  0  0  0  0
 33 30  1  0  0  0  0
 34 35  1  0  0  0  0
 36 34  1  0  0  0  0
 37 34  1  0  0  0  0
 38 39  1  0  0  0  0
 40 38  1  0  0  0  0
 41 38  1  0  0  0  0
M  END
