6
q = 0.0, confidence = 0.866

 49 53  0  0  1  0  0  0  0  0999 V2000
   -1.6474    0.0004   -0.0345 Si  0  0  0  0  0  0  0  0  0  0  0  0
   -0.5285   -1.4674   -0.2161 C   0  0  0  0  0  3  0  0  0  0  0  0
    0.6379   -1.9885   -0.2195 C   0  0  0  0  0  0  0  0  0  0  0  0
    1.8046   -2.8171   -0.2498 C   0  0  0  0  0  0  0  0  0  0  0  0
    3.0174   -2.0520   -0.2079 C   0  0  2  0  0  3  0  0  0  0  0  0
    2.7793   -0.6414   -0.1519 C   0  0  0  0  0  3  0  0  0  0  0  0
    2.7808    0.6394   -0.1139 C   0  0  0  0  0  0  0  0  0  0  0  0
    3.0207    2.0505   -0.0844 C   0  0  0  0  0  0  0  0  0  0  0  0
    1.8086    2.8179   -0.0794 C   0  0  0  0  0  0  0  0  0  0  0  0
    0.6415    1.9896   -0.1017 C   0  0  0  0  0  0  0  0  0  0  0  0
   -0.5269    1.4737   -0.1420 C   0  0  0  0  0  3  0  0  0  0  0  0
    1.8566   -4.2255   -0.3112 C   0  0  0  0  0  0  0  0  0  0  0  0
    3.1041   -4.8595   -0.3291 C   0  0  0  0  0  0  0  0  0  0  0  0
    4.2998   -4.1074   -0.2861 C   0  0  0  0  0  0  0  0  0  0  0  0
    4.2669   -2.7102   -0.2255 C   0  0  0  0  0  0  0  0  0  0  0  0
    4.2707    2.7074   -0.0626 C   0  0  0  0  0  0  0  0  0  0  0  0
    4.3047    4.1058   -0.0376 C   0  0  0  0  0  0  0  0  0  0  0  0
    3.1098    4.8602   -0.0336 C   0  0  0  0  0  0  0  0  0  0  0  0
    1.8617    4.2274   -0.0540 C   0  0  0  0  0  0  0  0  0  0  0  0
   -2.9233    0.0532   -1.4085 C   0  0  0  0  0  0  0  0  0  0  0  0
   -3.6816   -1.0977   -1.7185 C   0  0  0  0  0  0  0  0  0  0  0  0
   -4.6690   -1.0579   -2.7139 C   0  0  0  0  0  0  0  0  0  0  0  0
   -4.9093    0.1352   -3.4161 C   0  0  0  0  0  0  0  0  0  0  0  0
   -4.1599    1.2853   -3.1218 C   0  0  0  0  0  0  0  0  0  0  0  0
   -3.1733    1.2432   -2.1240 C   0  0  0  0  0  0  0  0  0  0  0  0
   -2.4318   -0.0611    1.6748 C   0  0  0  0  0  0  0  0  0  0  0  0
   -3.8223    0.1089    1.8468 C   0  0  0  0  0  0  0  0  0  0  0  0
   -4.3937    0.0757    3.1293 C   0  0  0  0  0  0  0  0  0  0  0  0
   -3.5806   -0.1276    4.2550 C   0  0  0  0  0  0  0  0  0  0  0  0
   -2.1945   -0.2985    4.0976 C   0  0  0  0  0  0  0  0  0  0  0  0
   -1.6258   -0.2658    2.8167 C   0  0  0  0  0  0  0  0  0  0  0  0
    0.9239   -4.8066   -0.3438 H   0  0  0  0  0  0  0  0  0  0  0  0
    3.1552   -5.9576   -0.3768 H   0  0  0  0  0  0  0  0  0  0  0  0
    5.2690   -4.6283   -0.3008 H   0  0  0  0  0  0  0  0  0  0  0  0
    5.1956   -2.1224   -0.1925 H   0  0  0  0  0  0  0  0  0  0  0  0
    5.1990    2.1180   -0.0658 H   0  0  0  0  0  0  0  0  0  0  0  0
    5.2744    4.6257   -0.0206 H   0  0  0  0  0  0  0  0  0  0  0  0
    3.1619    5.9591   -0.0133 H   0  0  0  0  0  0  0  0  0  0  0  0
    0.9295    4.8102   -0.0496 H   0  0  0  0  0  0  0  0  0  0  0  0
   -3.4916   -2.0395   -1.1777 H   0  0  0  0  0  0  0  0  0  0  0  0
   -5.2526   -1.9619   -2.9472 H   0  0  0  0  0  0  0  0  0  0  0  0
   -5.6821    0.1665   -4.1997 H   0  0  0  0  0  0  0  0  0  0  0  0
   -4.3430    2.2192   -3.6754 H   0  0  0  0  0  0  0  0  0  0  0  0
   -2.5797    2.1438   -1.8974 H   0  0  0  0  0  0  0  0  0  0  0  0
   -4.4667    0.2671    0.9671 H   0  0  0  0  0  0  0  0  0  0  0  0
   -5.4800    0.2086    3.2501 H   0  0  0  0  0  0  0  0  0  0  0  0
   -4.0280   -0.1541    5.2607 H   0  0  0  0  0  0  0  0  0  0  0  0
   -1.5551   -0.4589    4.9794 H   0  0  0  0  0  0  0  0  0  0  0  0
   -0.5380   -0.4028    2.6988 H   0  0  0  0  0  0  0  0  0  0  0  0
  1 26  1  0  0  0  0
  2  1  1  0  0  0  0
  3  2  2  0  0  0  0
  4  3  2  0  0  0  0
  4  5  1  0  0  0  0
  5  6  1  6  0  0  0
  6  7  2  0  0  0  0
  7  8  2  0  0  0  0
  8  9  1  0  0  0  0
  8 16  1  0  0  0  0
  9 19  1  0  0  0  0
 10  9  2  0  0  0  0
 11 10  2  0  0  0  0
 11  1  1  0  0  0  0
 12  4  1  0  0  0  0
 13 12  2  0  0  0  0
 13 14  1  0  0  0  0
 14 15  2  0  0  0  0
 15  5  1  0  0  0  0
 15 35  1  0  0  0  0
 16 17  2  0  0  0  0
 17 18  1  0  0  0  0
 17 37  1  0  0  0  0
 18 38  1  0  0  0  0
 19 39  1  0  0  0  0
 19 18  2  0  0  0  0
 20  1  1  0  0  0  0
 21 20  1  0  0  0  0
 21 40  1  0  0  0  0
 22 21  2  0  0  0  0
 23 24  2  0  0  0  0
 23 22  1  0  0  0  0
 24 25  1  0  0  0  0
 25 44  1  0  0  0  0
 25 20  2  0  0  0  0
 26 27  2  0  0  0  0
 26 31  1  0  0  0  0
 27 28  1  0  0  0  0
 28 46  1  0  0  0  0
 28 29  2  0  0  0  0
 29 47  1  0  0  0  0
 30 29  1  0  0  0  0
 30 48  1  0  0  0  0
 31 30  2  0  0  0  0
 32 12  1  0  0  0  0
 33 13  1  0  0  0  0
 34 14  1  0  0  0  0
 36 16  1  0  0  0  0
 41 22  1  0  0  0  0
 42 23  1  0  0  0  0
 43 24  1  0  0  0  0
 45 27  1  0  0  0  0
 49 31  1  0  0  0  0
M  END
