4
q = 0.0, confidence = 0.984

 46 46  0  0  1  0  0  0  0  0999 V2000
   -2.5652   -0.6506    0.1218 P   0  0  0  0  0  4  0  0  0  0  0  0
   -1.1552    1.1347   -1.7511 O   0  0  0  0  0  1  0  0  0  0  0  0
   -1.0404    0.2563    0.4196 C   0  0  0  0  0  3  0  0  0  0  0  0
   -0.7906    1.3707   -0.5102 C   0  0  2  0  0  3  0  0  0  0  0  0
   -0.3531    2.7293   -0.0912 C   0  0  0  0  0  0  0  0  0  0  0  0
    0.0613    3.6360   -1.0917 C   0  0  0  0  0  0  0  0  0  0  0  0
    0.5176    4.9130   -0.7455 C   0  0  0  0  0  0  0  0  0  0  0  0
    0.5584    5.3115    0.6028 C   0  0  0  0  0  0  0  0  0  0  0  0
    0.1291    4.4233    1.6025 C   0  0  0  0  0  0  0  0  0  0  0  0
   -0.3271    3.1431    1.2580 C   0  0  0  0  0  0  0  0  0  0  0  0
   -3.8863    0.5023   -0.5123 C   0  0  0  0  0  0  0  0  0  0  0  0
   -5.2327   -0.1778   -0.7836 C   0  0  0  0  0  0  0  0  0  0  0  0
   -4.0378    1.7786    0.3253 C   0  0  0  0  0  0  0  0  0  0  0  0
   -2.9905   -1.4199    1.7730 C   0  0  0  0  0  0  0  0  0  0  0  0
   -3.3033   -0.3699    2.8494 C   0  0  0  0  0  0  0  0  0  0  0  0
   -4.0644   -2.5139    1.7310 C   0  0  0  0  0  0  0  0  0  0  0  0
   -2.4930   -2.0763   -1.0752 C   0  0  0  0  0  0  0  0  0  0  0  0
   -2.3089   -1.6543   -2.5382 C   0  0  0  0  0  0  0  0  0  0  0  0
   -1.4121   -3.0707   -0.6416 C   0  0  0  0  0  0  0  0  0  0  0  0
   -0.8231    0.3598    1.4959 H   0  0  0  0  0  0  0  0  0  0  0  0
    0.0281    3.2958   -2.1370 H   0  0  0  0  0  0  0  0  0  0  0  0
    0.8484    5.6074   -1.5333 H   0  0  0  0  0  0  0  0  0  0  0  0
    0.9186    6.3157    0.8735 H   0  0  0  0  0  0  0  0  0  0  0  0
    0.1475    4.7322    2.6591 H   0  0  0  0  0  0  0  0  0  0  0  0
   -0.6667    2.4551    2.0476 H   0  0  0  0  0  0  0  0  0  0  0  0
   -3.4105    0.7953   -1.4739 H   0  0  0  0  0  0  0  0  0  0  0  0
   -5.1420   -1.0797   -1.4195 H   0  0  0  0  0  0  0  0  0  0  0  0
   -5.7487   -0.4648    0.1551 H   0  0  0  0  0  0  0  0  0  0  0  0
   -5.8986    0.5321   -1.3159 H   0  0  0  0  0  0  0  0  0  0  0  0
   -3.0639    2.2442    0.5681 H   0  0  0  0  0  0  0  0  0  0  0  0
   -4.6196    2.5223   -0.2564 H   0  0  0  0  0  0  0  0  0  0  0  0
   -4.5863    1.5970    1.2698 H   0  0  0  0  0  0  0  0  0  0  0  0
   -2.0182   -1.8928    2.0360 H   0  0  0  0  0  0  0  0  0  0  0  0
   -2.5874    0.4746    2.8471 H   0  0  0  0  0  0  0  0  0  0  0  0
   -4.3214    0.0475    2.7228 H   0  0  0  0  0  0  0  0  0  0  0  0
   -3.2625   -0.8438    3.8514 H   0  0  0  0  0  0  0  0  0  0  0  0
   -3.8063   -3.3434    1.0457 H   0  0  0  0  0  0  0  0  0  0  0  0
   -4.1825   -2.9499    2.7444 H   0  0  0  0  0  0  0  0  0  0  0  0
   -5.0518   -2.1124    1.4298 H   0  0  0  0  0  0  0  0  0  0  0  0
   -3.4982   -2.5397   -0.9600 H   0  0  0  0  0  0  0  0  0  0  0  0
   -3.0531   -0.9065   -2.8711 H   0  0  0  0  0  0  0  0  0  0  0  0
   -1.3005   -1.2263   -2.7046 H   0  0  0  0  0  0  0  0  0  0  0  0
   -2.4186   -2.5541   -3.1776 H   0  0  0  0  0  0  0  0  0  0  0  0
   -1.5933   -3.5105    0.3592 H   0  0  0  0  0  0  0  0  0  0  0  0
   -1.3524   -3.9014   -1.3728 H   0  0  0  0  0  0  0  0  0  0  0  0
   -0.4295   -2.5481   -0.6300 H   0  0  0  0  0  0  0  0  0  0  0  0
  1  3  1  0  0  0  0
  1 14  1  0  0  0  0
  3 20  1  0  0  0  0
  4  2  1  1  0  0  0
  4  5  1  0  0  0  0
  4  3  1  0  0  0  0
  5 10  1  0  0  0  0
  6  7  1  0  0  0  0
  6  5  2  0  0  0  0
  7  8  2  0  0  0  0
  8 23  1  0  0  0  0
  8  9  1  0  0  0  0
  9 24  1  0  0  0  0
 10  9  2  0  0  0  0
 10 25  1  0  0  0  0
 11  1  1  0  0  0  0
 11 13  1  0  0  0  0
 12 11  1  0  0  0  0
 12 28  1  0  0  0  0
 13 30  1  0  0  0  0
 13 32  1  0  0  0  0
 14 33  1  0  0  0  0
 14 15  1  0  0  0  0
 15 36  1  0  0  0  0
 16 14  1  0  0  0  0
 16 38  1  0  0  0  0
 17 40  1  0  0  0  0
 17 19  1  0  0  0  0
 17  1  1  0  0  0  0
 18 17  1  0  0  0  0
 19 46  1  0  0  0  0
 19 44  1  0  0  0  0
 21  6  1  0  0  0  0
 22  7  1  0  0  0  0
 26 11  1  0  0  0  0
 27 12  1  0  0  0  0
 29 12  1  0  0  0  0
 31 13  1  0  0  0  0
 34 15  1  0  0  0  0
 35 15  1  0  0  0  0
 37 16  1  0  0  0  0
 39 16  1  0  0  0  0
 41 18  1  0  0  0  0
 42 18  1  0  0  0  0
 43 18  1  0  0  0  0
 45 19  1  0  0  0  0
M  END
