4
q = -1.0

 27 28  0  0  0  0  0  0  0  0999 V2000
   -2.4252    1.6070   -0.0207 C   0  0  0  0  0  0  0  0  0  0  0  0
   -2.0611    2.9861    0.0484 C   0  0  0  0  0  0  0  0  0  0  0  0
   -2.1736    3.7102   -0.7658 H   0  0  0  0  0  0  0  0  0  0  0  0
   -1.4808    3.2431    1.3178 C   0  0  0  0  0  3  0  0  0  0  0  0
   -1.1405    4.2174    1.6828 H   0  0  0  0  0  0  0  0  0  0  0  0
   -1.4915    2.0157    2.0573 C   0  0  0  0  0  0  0  0  0  0  0  0
   -1.1566    1.8790    3.0906 H   0  0  0  0  0  0  0  0  0  0  0  0
   -2.0780    1.0202    1.2343 C   0  0  0  0  0  0  0  0  0  0  0  0
   -2.2238   -0.0329    1.4961 H   0  0  0  0  0  0  0  0  0  0  0  0
   -3.0302    0.8937   -1.2055 C   0  0  0  0  0  0  0  0  0  0  0  0
   -2.2065    0.4488   -1.8010 H   0  0  0  0  0  0  0  0  0  0  0  0
   -3.5162    1.6454   -1.8588 H   0  0  0  0  0  0  0  0  0  0  0  0
   -4.0169   -0.1830   -0.8090 C   0  0  0  0  0  0  0  0  0  0  0  0
   -5.3691    0.1375   -0.5616 C   0  0  0  0  0  0  0  0  0  0  0  0
   -5.7453    1.1647   -0.6816 H   0  0  0  0  0  0  0  0  0  0  0  0
   -6.2671   -0.8474   -0.1608 C   0  0  0  0  0  0  0  0  0  0  0  0
   -7.5552   -0.5333    0.0648 F   0  0  0  0  0  0  0  0  0  0  0  0
   -5.8614   -2.1941    0.0177 C   0  0  0  0  0  0  0  0  0  0  0  0
   -6.8277   -3.0652    0.4087 O   0  0  0  0  0  0  0  0  0  0  0  0
   -6.4607   -4.4189    0.5881 C   0  0  0  0  0  0  0  0  0  0  0  0
   -6.0777   -4.8737   -0.3534 H   0  0  0  0  0  0  0  0  0  0  0  0
   -7.3775   -4.9533    0.8988 H   0  0  0  0  0  0  0  0  0  0  0  0
   -5.6863   -4.5382    1.3796 H   0  0  0  0  0  0  0  0  0  0  0  0
   -4.5119   -2.5097   -0.2245 C   0  0  0  0  0  0  0  0  0  0  0  0
   -4.1569   -3.5415   -0.0994 H   0  0  0  0  0  0  0  0  0  0  0  0
   -3.6055   -1.5142   -0.6316 C   0  0  0  0  0  0  0  0  0  0  0  0
   -2.5507   -1.7769   -0.8042 H   0  0  0  0  0  0  0  0  0  0  0  0
  1  2  2  0  0  0  0
  1  8  1  0  0  0  0
  2  4  1  0  0  0  0
  3  2  1  0  0  0  0
  4  5  1  0  0  0  0
  4  6  1  0  0  0  0
  6  7  1  0  0  0  0
  8  9  1  0  0  0  0
  8  6  2  0  0  0  0
 10 13  1  0  0  0  0
 10  1  1  0  0  0  0
 11 10  1  0  0  0  0
 12 10  1  0  0  0  0
 13 26  2  0  0  0  0
 13 14  1  0  0  0  0
 14 16  2  0  0  0  0
 15 14  1  0  0  0  0
 16 18  1  0  0  0  0
 16 17  1  0  0  0  0
 18 19  1  0  0  0  0
 19 20  1  0  0  0  0
 20 22  1  0  0  0  0
 20 23  1  0  0  0  0
 21 20  1  0  0  0  0
 24 25  1  0  0  0  0
 24 18  2  0  0  0  0
 26 24  1  0  0  0  0
 27 26  1  0  0  0  0
M  END
