2
q = -1.0

 16 16  0  0  0  0  0  0  0  0999 V2000
    2.0391    0.6788    0.8472 N   0  0  0  0  0  0  0  0  0  0  0  0
    1.4709   -0.0592   -0.1229 C   0  0  0  0  0  3  0  0  0  0  0  0
    2.2902   -0.8854   -0.9627 C   0  0  0  0  0  0  0  0  0  0  0  0
    3.6775   -0.8559   -0.7432 C   0  0  0  0  0  0  0  0  0  0  0  0
    4.2641   -0.0666    0.2658 C   0  0  0  0  0  0  0  0  0  0  0  0
    1.7343   -1.7885   -2.0278 C   0  0  0  0  0  0  0  0  0  0  0  0
    5.7517   -0.0337    0.4951 C   0  0  0  0  0  0  0  0  0  0  0  0
    3.3698    0.6814    1.0429 C   0  0  0  0  0  0  0  0  0  0  0  0
    1.1145   -2.5926   -1.5816 H   0  0  0  0  0  0  0  0  0  0  0  0
    1.0570   -1.2372   -2.7086 H   0  0  0  0  0  0  0  0  0  0  0  0
    2.5459   -2.2678   -2.6093 H   0  0  0  0  0  0  0  0  0  0  0  0
    6.1546   -1.0470    0.7037 H   0  0  0  0  0  0  0  0  0  0  0  0
    6.2924    0.3479   -0.3967 H   0  0  0  0  0  0  0  0  0  0  0  0
    6.0147    0.6175    1.3520 H   0  0  0  0  0  0  0  0  0  0  0  0
    4.3251   -1.4804   -1.3832 H   0  0  0  0  0  0  0  0  0  0  0  0
    3.7468    1.3192    1.8650 H   0  0  0  0  0  0  0  0  0  0  0  0
  1  8  1  0  0  0  0
  2  1  2  0  0  0  0
  3  4  2  0  0  0  0
  3  2  1  0  0  0  0
  4  5  1  0  0  0  0
  5  7  1  0  0  0  0
  5  8  2  0  0  0  0
  6  9  1  0  0  0  0
  6  3  1  0  0  0  0
  7 12  1  0  0  0  0
  7 14  1  0  0  0  0
  8 16  1  0  0  0  0
 10  6  1  0  0  0  0
 11  6  1  0  0  0  0
 13  7  1  0  0  0  0
 15  4  1  0  0  0  0
M  END
