5
q = 0.0, confidence = 0.916

 16 16  0  0  0  0  0  0  0  0999 V2000
    1.3490   -3.2109   -1.1395 C   0  0  0  0  0  0  0  0  0  0  0  0
    2.0706   -2.2062   -1.9729 C   0  0  0  0  0  0  0  0  0  0  0  0
    1.3437   -0.9236   -2.1080 C   0  0  0  0  0  3  0  0  0  0  0  0
   -0.0947   -0.9340   -2.2635 C   0  0  0  0  0  3  0  0  0  0  0  0
   -0.7922   -1.8899   -1.4751 C   0  0  0  0  0  3  0  0  0  0  0  0
    0.0523   -2.7183   -0.6319 C   0  0  0  0  0  3  0  0  0  0  0  0
    1.8396   -4.4361   -0.8157 C   0  0  0  0  0  0  0  0  0  0  0  0
    3.2987   -2.4054   -2.5239 C   0  0  0  0  0  0  0  0  0  0  0  0
    1.8909   -0.1233   -2.6307 H   0  0  0  0  0  0  0  0  0  0  0  0
   -0.6164   -0.2547   -2.9550 H   0  0  0  0  0  0  0  0  0  0  0  0
   -1.8892   -1.9735   -1.4966 H   0  0  0  0  0  0  0  0  0  0  0  0
   -0.4648   -3.4113    0.0527 H   0  0  0  0  0  0  0  0  0  0  0  0
    1.2557   -5.1260   -0.1869 H   0  0  0  0  0  0  0  0  0  0  0  0
    2.8314   -4.7774   -1.1469 H   0  0  0  0  0  0  0  0  0  0  0  0
    3.8555   -3.3439   -2.3880 H   0  0  0  0  0  0  0  0  0  0  0  0
    3.7701   -1.6282   -3.1455 H   0  0  0  0  0  0  0  0  0  0  0  0
  1  7  2  0  0  0  0
  1  6  1  0  0  0  0
  2  1  1  0  0  0  0
  3  2  1  0  0  0  0
  4  3  1  0  0  0  0
  4  5  1  0  0  0  0
  5  6  1  0  0  0  0
  6 12  1  0  0  0  0
  7 13  1  0  0  0  0
  8 15  1  0  0  0  0
  8  2  2  0  0  0  0
  9  3  1  0  0  0  0
 10  4  1  0  0  0  0
 11  5  1  0  0  0  0
 14  7  1  0  0  0  0
 16  8  1  0  0  0  0
M  END
