2
q = -1.0

 25 24  0  0  0  0  0  0  0  0999 V2000
   -1.3989   -0.8526   -0.1816 N   0  0  0  0  0  0  0  0  0  0  0  0
   -0.8180   -0.6945   -1.4703 C   0  0  0  0  0  3  0  0  0  0  0  0
    0.5331   -1.1135   -1.5439 C   0  0  0  0  0  3  0  0  0  0  0  0
    1.2134   -1.5058   -0.3486 C   0  0  0  0  0  3  0  0  0  0  0  0
    2.7057   -1.7502   -0.3547 C   0  0  0  0  0  0  0  0  0  0  0  0
    3.3808   -1.5094    0.9969 C   0  0  0  0  0  0  0  0  0  0  0  0
   -2.8027   -0.4496    0.0514 C   0  0  0  0  0  0  0  0  0  0  0  0
   -3.0159   -0.2145    1.5447 C   0  0  0  0  0  0  0  0  0  0  0  0
   -3.7713   -1.4847   -0.5288 C   0  0  0  0  0  0  0  0  0  0  0  0
   -1.1946   -1.7651    0.2581 H   0  0  0  0  0  0  0  0  0  0  0  0
   -1.4372   -0.3804   -2.3220 H   0  0  0  0  0  0  0  0  0  0  0  0
    1.0793   -0.9526   -2.4876 H   0  0  0  0  0  0  0  0  0  0  0  0
    0.6723   -2.1265    0.3928 H   0  0  0  0  0  0  0  0  0  0  0  0
    2.8946   -2.8028   -0.6721 H   0  0  0  0  0  0  0  0  0  0  0  0
    3.1801   -1.1091   -1.1280 H   0  0  0  0  0  0  0  0  0  0  0  0
    3.3165   -0.4425    1.2888 H   0  0  0  0  0  0  0  0  0  0  0  0
    4.4515   -1.7947    0.9692 H   0  0  0  0  0  0  0  0  0  0  0  0
    2.8956   -2.1002    1.8017 H   0  0  0  0  0  0  0  0  0  0  0  0
   -2.9300    0.5143   -0.4834 H   0  0  0  0  0  0  0  0  0  0  0  0
   -2.3244    0.5622    1.9230 H   0  0  0  0  0  0  0  0  0  0  0  0
   -4.0563    0.1095    1.7410 H   0  0  0  0  0  0  0  0  0  0  0  0
   -2.8397   -1.1471    2.1218 H   0  0  0  0  0  0  0  0  0  0  0  0
   -4.8192   -1.1458   -0.4092 H   0  0  0  0  0  0  0  0  0  0  0  0
   -3.5891   -1.6536   -1.6090 H   0  0  0  0  0  0  0  0  0  0  0  0
   -3.6719   -2.4591   -0.0051 H   0  0  0  0  0  0  0  0  0  0  0  0
  1  7  1  0  0  0  0
  1 10  1  0  0  0  0
  2  1  1  0  0  0  0
  3  2  1  0  0  0  0
  3  4  1  0  0  0  0
  4 13  1  0  0  0  0
  5  4  1  0  0  0  0
  5  6  1  0  0  0  0
  6 16  1  0  0  0  0
  6 18  1  0  0  0  0
  7  8  1  0  0  0  0
  8 21  1  0  0  0  0
  8 20  1  0  0  0  0
  8 22  1  0  0  0  0
  9 23  1  0  0  0  0
  9 25  1  0  0  0  0
  9  7  1  0  0  0  0
 11  2  1  0  0  0  0
 12  3  1  0  0  0  0
 14  5  1  0  0  0  0
 15  5  1  0  0  0  0
 17  6  1  0  0  0  0
 19  7  1  0  0  0  0
 24  9  1  0  0  0  0
M  END
