5
q = -1.0, confidence = 0.008

 54 60  0  0  1  0  0  0  0  0999 V2000
    0.9828    0.7955   -0.6469 C   0  0  0  0  0  0  0  0  0  0  0  0
    1.0188   -0.6506   -0.7165 C   0  0  0  0  0  0  0  0  0  0  0  0
   -0.3130   -1.1748   -0.6239 C   0  0  0  0  0  0  0  0  0  0  0  0
   -1.2087   -0.0122   -0.5341 C   0  0  0  0  0  0  0  0  0  0  0  0
   -0.3997    1.2099   -0.5243 C   0  0  2  0  0  3  0  0  0  0  0  0
    2.3595    1.3020   -0.7573 C   0  0  0  0  0  0  0  0  0  0  0  0
    2.9814    2.5463   -0.7333 C   0  0  0  0  0  0  0  0  0  0  0  0
    2.4040    3.4738   -0.6090 H   0  0  0  0  0  0  0  0  0  0  0  0
    4.4019    2.6035   -0.8587 C   0  0  0  0  0  0  0  0  0  0  0  0
    4.8893    3.5901   -0.8399 H   0  0  0  0  0  0  0  0  0  0  0  0
    5.1895    1.4616   -0.9964 C   0  0  0  0  0  0  0  0  0  0  0  0
    6.2829    1.5513   -1.0874 H   0  0  0  0  0  0  0  0  0  0  0  0
    4.5815    0.1673   -1.0120 C   0  0  0  0  0  0  0  0  0  0  0  0
    5.2349   -1.0984   -1.1266 C   0  0  0  0  0  0  0  0  0  0  0  0
    6.3309   -1.1361   -1.2257 H   0  0  0  0  0  0  0  0  0  0  0  0
    4.4958   -2.2819   -1.1062 C   0  0  0  0  0  0  0  0  0  0  0  0
    5.0244   -3.2434   -1.1893 H   0  0  0  0  0  0  0  0  0  0  0  0
    3.0781   -2.2943   -0.9661 C   0  0  0  0  0  0  0  0  0  0  0  0
    2.5327   -3.2478   -0.9312 H   0  0  0  0  0  0  0  0  0  0  0  0
    2.4128   -1.0769   -0.8685 C   0  0  0  0  0  0  0  0  0  0  0  0
    3.1731    0.1330   -0.8958 C   0  0  0  0  0  0  0  0  0  0  0  0
   -0.6949   -2.6002   -0.7378 C   0  0  0  0  0  0  0  0  0  0  0  0
   -1.6204   -3.0209   -1.7166 C   0  0  0  0  0  0  0  0  0  0  0  0
   -2.0780   -2.2783   -2.3865 H   0  0  0  0  0  0  0  0  0  0  0  0
   -1.9522   -4.3779   -1.8380 C   0  0  0  0  0  0  0  0  0  0  0  0
   -2.6741   -4.6950   -2.6059 H   0  0  0  0  0  0  0  0  0  0  0  0
   -1.3661   -5.3280   -0.9868 C   0  0  0  0  0  0  0  0  0  0  0  0
   -1.6299   -6.3922   -1.0827 H   0  0  0  0  0  0  0  0  0  0  0  0
   -0.4450   -4.9144   -0.0098 C   0  0  0  0  0  0  0  0  0  0  0  0
    0.0099   -5.6528    0.6681 H   0  0  0  0  0  0  0  0  0  0  0  0
   -0.1090   -3.5595    0.1180 C   0  0  0  0  0  0  0  0  0  0  0  0
    0.5920   -3.2202    0.8990 H   0  0  0  0  0  0  0  0  0  0  0  0
   -2.6855   -0.0700   -0.6570 C   0  0  0  0  0  0  0  0  0  0  0  0
   -3.4619   -0.9951    0.0740 C   0  0  0  0  0  0  0  0  0  0  0  0
   -2.9764   -1.6642    0.7967 H   0  0  0  0  0  0  0  0  0  0  0  0
   -4.8478   -1.0668   -0.1137 C   0  0  0  0  0  0  0  0  0  0  0  0
   -5.4369   -1.7898    0.4703 H   0  0  0  0  0  0  0  0  0  0  0  0
   -5.4830   -0.2206   -1.0373 C   0  0  0  0  0  0  0  0  0  0  0  0
   -6.5727   -0.2762   -1.1802 H   0  0  0  0  0  0  0  0  0  0  0  0
   -4.7195    0.6945   -1.7780 C   0  0  0  0  0  0  0  0  0  0  0  0
   -5.2059    1.3573   -2.5096 H   0  0  0  0  0  0  0  0  0  0  0  0
   -3.3319    0.7688   -1.5921 C   0  0  0  0  0  0  0  0  0  0  0  0
   -2.7381    1.4805   -2.1831 H   0  0  0  0  0  0  0  0  0  0  0  0
   -0.9034    2.6019   -0.5583 C   0  0  0  0  0  0  0  0  0  0  0  0
   -1.9213    3.0469    0.3119 C   0  0  0  0  0  0  0  0  0  0  0  0
   -2.3235    2.3520    1.0638 H   0  0  0  0  0  0  0  0  0  0  0  0
   -2.4004    4.3596    0.2292 C   0  0  0  0  0  0  0  0  0  0  0  0
   -3.1897    4.6946    0.9188 H   0  0  0  0  0  0  0  0  0  0  0  0
   -1.8698    5.2495   -0.7202 C   0  0  0  0  0  0  0  0  0  0  0  0
   -2.2439    6.2827   -0.7786 H   0  0  0  0  0  0  0  0  0  0  0  0
   -0.8568    4.8164   -1.5890 C   0  0  0  0  0  0  0  0  0  0  0  0
   -0.4366    5.5064   -2.3363 H   0  0  0  0  0  0  0  0  0  0  0  0
   -0.3766    3.5003   -1.5106 C   0  0  0  0  0  0  0  0  0  0  0  0
    0.4068    3.1552   -2.2021 H   0  0  0  0  0  0  0  0  0  0  0  0
  1  5  1  0  0  0  0
  2  1  2  0  0  0  0
  2  3  1  0  0  0  0
  3  4  2  0  0  0  0
  4  5  1  0  0  0  0
  5 44  1  6  0  0  0
  6  7  1  0  0  0  0
  6  1  1  0  0  0  0
  7  8  1  0  0  0  0
  9 10  1  0  0  0  0
  9  7  2  0  0  0  0
 11  9  1  0  0  0  0
 12 11  1  0  0  0  0
 13 11  2  0  0  0  0
 13 21  1  0  0  0  0
 14 16  2  0  0  0  0
 14 13  1  0  0  0  0
 15 14  1  0  0  0  0
 16 18  1  0  0  0  0
 17 16  1  0  0  0  0
 18 19  1  0  0  0  0
 18 20  2  0  0  0  0
 20  2  1  0  0  0  0
 21 20  1  0  0  0  0
 21  6  2  0  0  0  0
 22  3  1  0  0  0  0
 22 31  1  0  0  0  0
 23 22  2  0  0  0  0
 24 23  1  0  0  0  0
 25 23  1  0  0  0  0
 25 27  2  0  0  0  0
 26 25  1  0  0  0  0
 27 29  1  0  0  0  0
 28 27  1  0  0  0  0
 29 31  2  0  0  0  0
 29 30  1  0  0  0  0
 31 32  1  0  0  0  0
 33  4  1  0  0  0  0
 33 34  1  0  0  0  0
 34 35  1  0  0  0  0
 36 34  2  0  0  0  0
 36 37  1  0  0  0  0
 38 36  1  0  0  0  0
 39 38  1  0  0  0  0
 40 42  1  0  0  0  0
 40 38  2  0  0  0  0
 41 40  1  0  0  0  0
 42 33  2  0  0  0  0
 43 42  1  0  0  0  0
 44 45  1  0  0  0  0
 45 46  1  0  0  0  0
 47 45  2  0  0  0  0
 47 48  1  0  0  0  0
 49 47  1  0  0  0  0
 50 49  1  0  0  0  0
 51 53  1  0  0  0  0
 51 49  2  0  0  0  0
 52 51  1  0  0  0  0
 53 44  2  0  0  0  0
 54 53  1  0  0  0  0
M  END
