3
q = -1.0

 14 13  0  0  1  0  0  0  0  0999 V2000
   -4.5136   -0.0837   -0.1048 Br  0  0  0  0  0  0  0  0  0  0  0  0
   -0.6627   -0.3508   -1.9340 C   0  0  0  0  0  3  0  0  0  0  0  0
   -1.1748   -1.1441   -0.8521 C   0  0  2  0  0  3  0  0  0  0  0  0
   -1.6899   -0.3481    0.2398 C   0  0  0  0  0  3  0  0  0  0  0  0
   -2.6909    0.7358    0.0308 C   0  0  0  0  0  0  0  0  0  0  0  0
   -1.1768   -2.6441   -0.8184 C   0  0  0  0  0  0  0  0  0  0  0  0
   -1.1793    0.5753   -2.2318 H   0  0  0  0  0  0  0  0  0  0  0  0
   -0.1128   -0.8613   -2.7398 H   0  0  0  0  0  0  0  0  0  0  0  0
   -1.8374   -0.8953    1.1859 H   0  0  0  0  0  0  0  0  0  0  0  0
   -2.5819    1.2905   -0.9126 H   0  0  0  0  0  0  0  0  0  0  0  0
   -2.7791    1.4304    0.8823 H   0  0  0  0  0  0  0  0  0  0  0  0
   -0.4220   -3.0717   -1.5024 H   0  0  0  0  0  0  0  0  0  0  0  0
   -2.1872   -2.9867   -1.1299 H   0  0  0  0  0  0  0  0  0  0  0  0
   -0.9844   -3.0172    0.2059 H   0  0  0  0  0  0  0  0  0  0  0  0
  1  5  1  0  0  0  0
  3  2  1  1  0  0  0
  3  6  1  0  0  0  0
  3  4  1  0  0  0  0
  4  9  1  0  0  0  0
  5  4  1  0  0  0  0
  5 11  1  0  0  0  0
  6 14  1  0  0  0  0
  7  2  1  0  0  0  0
  8  2  1  0  0  0  0
 10  5  1  0  0  0  0
 12  6  1  0  0  0  0
 13  6  1  0  0  0  0
M  END
