15
q = -1.0

 49 54  0  0  1  0  0  0  0  0999 V2000
   -0.0245    2.8910   -1.3023 O   0  0  0  0  0  0  0  0  0  0  0  0
   -1.0406    3.3215    0.6757 O   0  0  0  0  0  0  0  0  0  0  0  0
   -3.3978    2.3446   -0.8037 O   0  0  0  0  0  0  0  0  0  0  0  0
   -3.9796    1.5052    1.2181 O   0  0  0  0  0  0  0  0  0  0  0  0
   -4.6276   -0.8152   -0.3334 O   0  0  0  0  0  0  0  0  0  0  0  0
   -3.8425   -2.5309    0.9261 O   0  0  0  0  0  0  0  0  0  0  0  0
    1.0897   -0.9396    1.0428 C   0  0  1  0  0  0  0  0  0  0  0  0
    2.1500    0.4892    0.4900 C   0  0  1  0  0  0  0  0  0  0  0  0
   -0.7072    1.0550    0.1608 C   0  0  2  0  0  3  0  0  0  0  0  0
   -0.5600    2.4979   -0.2819 C   0  0  0  0  0  0  0  0  0  0  0  0
   -0.9512    4.7235    0.3872 C   0  0  0  0  0  0  0  0  0  0  0  0
    0.0922    5.0065    0.1456 H   0  0  0  0  0  0  0  0  0  0  0  0
   -1.2956    5.2435    1.2982 H   0  0  0  0  0  0  0  0  0  0  0  0
   -1.6012    4.9750   -0.4748 H   0  0  0  0  0  0  0  0  0  0  0  0
   -2.0683    0.5802    0.2787 C   0  0  1  0  0  3  0  0  0  0  0  0
   -3.2181    1.5608    0.1121 C   0  0  0  0  0  0  0  0  0  0  0  0
   -5.1402    2.3456    1.2085 C   0  0  0  0  0  0  0  0  0  0  0  0
   -4.8640    3.3963    0.9914 H   0  0  0  0  0  0  0  0  0  0  0  0
   -5.5893    2.2577    2.2131 H   0  0  0  0  0  0  0  0  0  0  0  0
   -5.8504    1.9930    0.4337 H   0  0  0  0  0  0  0  0  0  0  0  0
   -2.3379   -0.8148    0.4746 C   0  0  0  0  0  3  0  0  0  0  0  0
   -1.7092   -1.4294    1.1271 H   0  0  0  0  0  0  0  0  0  0  0  0
   -3.7151   -1.3406    0.2956 C   0  0  0  0  0  0  0  0  0  0  0  0
   -5.1333   -3.1675    0.8232 C   0  0  0  0  0  0  0  0  0  0  0  0
   -5.3700   -3.3237   -0.2514 H   0  0  0  0  0  0  0  0  0  0  0  0
   -5.9055   -2.4741    1.2190 H   0  0  0  0  0  0  0  0  0  0  0  0
   -5.0739   -4.4683    1.5960 C   0  0  0  0  0  0  0  0  0  0  0  0
   -4.2982   -5.1423    1.1819 H   0  0  0  0  0  0  0  0  0  0  0  0
   -6.0511   -4.9871    1.5400 H   0  0  0  0  0  0  0  0  0  0  0  0
   -4.8383   -4.2854    2.6630 H   0  0  0  0  0  0  0  0  0  0  0  0
    0.5068    0.6473    1.1160 B   0  0  0  0  0  0  0  0  0  0  0  0
    0.2992   -0.4928    2.4855 B   0  0  2  0  0  0  0  0  0  0  0  0
   -0.7853   -0.9580    2.7074 H   0  0  0  0  0  0  0  0  0  0  0  0
    1.7507   -1.5065    2.4868 B   0  0  0  0  0  2  0  0  0  0  0  0
    1.7083   -2.6946    2.6858 H   0  0  0  0  0  0  0  0  0  0  0  0
    2.8286   -0.8954    1.1996 B   0  0  1  0  0  0  0  0  0  0  0  0
    3.4749   -1.6547    0.5340 H   0  0  0  0  0  0  0  0  0  0  0  0
    1.8763    1.7587    1.5543 B   0  0  0  0  0  0  0  0  0  0  0  0
    1.8865    2.8708    1.0899 H   0  0  0  0  0  0  0  0  0  0  0  0
    0.7594    1.1848    2.8105 B   0  0  2  0  0  0  0  0  0  0  0  0
   -0.0268    1.9468    3.3205 H   0  0  0  0  0  0  0  0  0  0  0  0
    1.5588   -0.1719    3.6759 B   0  0  1  0  0  0  0  0  0  0  0  0
    1.3506   -0.4190    4.8406 H   0  0  0  0  0  0  0  0  0  0  0  0
    3.1400   -0.4533    2.8938 B   0  0  2  0  0  0  0  0  0  0  0  0
    4.0944   -0.9084    3.4792 H   0  0  0  0  0  0  0  0  0  0  0  0
    3.3581    0.7706    1.6351 B   0  0  2  0  0  0  0  0  0  0  0  0
    4.4052    1.1797    1.2068 H   0  0  0  0  0  0  0  0  0  0  0  0
    2.5193    1.2140    3.1336 B   0  0  1  0  0  0  0  0  0  0  0  0
    3.0261    2.0013    3.8975 H   0  0  0  0  0  0  0  0  0  0  0  0
  1 10  2  0  0  0  0
  3 16  2  0  0  0  0
  5 23  2  0  0  0  0
  7 31  1  0  0  0  0
  7 36  1  0  0  0  0
  7 32  1  0  0  0  0
  7 34  1  6  0  0  0
  8 31  1  1  0  0  0
  8 36  1  0  0  0  0
  8 38  1  0  0  0  0
  8 46  1  0  0  0  0
  9 10  1  1  0  0  0
  9 15  1  0  0  0  0
  9 31  1  0  0  0  0
 10  2  1  0  0  0  0
 11  2  1  0  0  0  0
 11 13  1  0  0  0  0
 12 11  1  0  0  0  0
 14 11  1  0  0  0  0
 15 16  1  6  0  0  0
 15 21  1  0  0  0  0
 16  4  1  0  0  0  0
 17  4  1  0  0  0  0
 17 19  1  0  0  0  0
 18 17  1  0  0  0  0
 20 17  1  0  0  0  0
 21 22  1  0  0  0  0
 23 21  1  0  0  0  0
 23  6  1  0  0  0  0
 24  6  1  0  0  0  0
 24 26  1  0  0  0  0
 24 27  1  0  0  0  0
 25 24  1  0  0  0  0
 27 30  1  0  0  0  0
 28 27  1  0  0  0  0
 29 27  1  0  0  0  0
 32 33  1  1  0  0  0
 32 40  1  0  0  0  0
 32 42  1  0  0  0  0
 34 35  1  0  0  0  0
 36 37  1  6  0  0  0
 36 44  1  0  0  0  0
 38 40  1  0  0  0  0
 39 38  1  0  0  0  0
 40 48  1  0  0  0  0
 40 41  1  1  0  0  0
 42 43  1  1  0  0  0
 44 45  1  1  0  0  0
 44 42  1  0  0  0  0
 46 47  1  6  0  0  0
 46 44  1  0  0  0  0
 46 48  1  0  0  0  0
 48 42  1  0  0  0  0
 48 49  1  1  0  0  0
M  END
