3
q = -1.0

 31 36  0  0  1  0  0  0  0  0999 V2000
   -0.0597    2.1927   -0.2313 C   0  0  1  0  0  0  0  0  0  0  0  0
    1.5762    1.9609    0.3519 C   0  0  1  0  0  0  0  0  0  0  0  0
   -0.6473   -0.6160    1.5734 C   0  0  0  0  0  3  0  0  0  0  0  0
   -0.1845    0.5467    2.1133 C   0  0  0  0  0  0  0  0  0  0  0  0
   -0.0687    0.5690    3.2152 H   0  0  0  0  0  0  0  0  0  0  0  0
   -2.1681   -2.0872    2.7520 O   0  0  0  0  0  0  0  0  0  0  0  0
    0.0508   -2.1733    3.2143 O   0  0  0  0  0  0  0  0  0  0  0  0
    1.2504    2.9894   -0.9901 B   0  0  2  0  0  0  0  0  0  0  0  0
    1.5698    2.6234   -2.0906 H   0  0  0  0  0  0  0  0  0  0  0  0
    0.2043    1.8904    1.4408 B   0  0  0  0  0  0  0  0  0  0  0  0
   -0.9557    3.1434    0.8342 B   0  0  1  0  0  0  0  0  0  0  0  0
   -2.1305    2.9135    0.9589 H   0  0  0  0  0  0  0  0  0  0  0  0
    0.1668    3.5418    2.1494 B   0  0  0  0  0  0  0  0  0  0  0  0
   -0.2337    3.6812    3.2804 H   0  0  0  0  0  0  0  0  0  0  0  0
    1.2294    4.6364   -0.3180 B   0  0  0  0  0  0  0  0  0  0  0  0
    1.6058    5.5654   -0.9909 H   0  0  0  0  0  0  0  0  0  0  0  0
   -0.3076    3.8099   -0.6815 B   0  0  1  0  0  0  0  0  0  0  0  0
   -1.0239    4.0047   -1.6313 H   0  0  0  0  0  0  0  0  0  0  0  0
   -1.0358   -1.6786    2.5484 C   0  0  0  0  0  0  0  0  0  0  0  0
    1.5075    4.4989    1.4483 B   0  0  1  0  0  0  0  0  0  0  0  0
    2.1004    5.3437    2.0758 H   0  0  0  0  0  0  0  0  0  0  0  0
    2.3890    3.4459    0.3121 B   0  0  1  0  0  0  0  0  0  0  0  0
    3.5703    3.4172    0.0712 H   0  0  0  0  0  0  0  0  0  0  0  0
   -0.1427    4.7252    0.8335 B   0  0  0  0  0  0  0  0  0  0  0  0
   -0.7834    5.7345    1.0060 H   0  0  0  0  0  0  0  0  0  0  0  0
    1.7324    2.7755    1.8289 B   0  0  2  0  0  0  0  0  0  0  0  0
    2.4617    2.2715    2.6443 H   0  0  0  0  0  0  0  0  0  0  0  0
   -0.2435   -3.1803    4.1907 C   0  0  0  0  0  0  0  0  0  0  0  0
   -0.9184   -2.7859    4.9769 H   0  0  0  0  0  0  0  0  0  0  0  0
    0.7266   -3.4752    4.6295 H   0  0  0  0  0  0  0  0  0  0  0  0
   -0.7388   -4.0567    3.7242 H   0  0  0  0  0  0  0  0  0  0  0  0
  1 11  1  0  0  0  0
  1 10  1  6  0  0  0
  2 10  1  6  0  0  0
  2 26  1  0  0  0  0
  3  4  2  0  0  0  0
  3 19  1  0  0  0  0
  4  5  1  0  0  0  0
  7 28  1  0  0  0  0
  8  9  1  6  0  0  0
  8 15  1  0  0  0  0
  8  1  1  0  0  0  0
  8  2  1  0  0  0  0
 10  4  1  0  0  0  0
 11 12  1  1  0  0  0
 11 13  1  0  0  0  0
 13 14  1  0  0  0  0
 15 22  1  0  0  0  0
 16 15  1  0  0  0  0
 17 18  1  6  0  0  0
 17  1  1  0  0  0  0
 17 24  1  0  0  0  0
 17 11  1  0  0  0  0
 19  6  2  0  0  0  0
 19  7  1  0  0  0  0
 20 26  1  0  0  0  0
 20 21  1  1  0  0  0
 22 23  1  6  0  0  0
 22  2  1  0  0  0  0
 22 20  1  0  0  0  0
 24 25  1  0  0  0  0
 24 20  1  0  0  0  0
 26 13  1  0  0  0  0
 26 27  1  1  0  0  0
 28 30  1  0  0  0  0
 28 29  1  0  0  0  0
 31 28  1  0  0  0  0
M  END
