3
q = 0.0, confidence = 0.706

 13 12  0  0  0  0  0  0  0  0999 V2000
   -0.7319    0.8615   -1.2711 S   0  0  0  0  0  1  0  0  0  0  0  0
   -4.5435    0.1773   -0.7079 O   0  0  0  0  0  0  0  0  0  0  0  0
   -2.2375    0.3220   -0.4405 C   0  0  0  0  0  3  0  0  0  0  0  0
   -2.4823    0.8698    0.4821 H   0  0  0  0  0  0  0  0  0  0  0  0
   -3.2857   -0.0842   -2.5858 O   0  0  0  0  0  0  0  0  0  0  0  0
   -3.3727    0.1285   -1.3844 C   0  0  0  0  0  0  0  0  0  0  0  0
   -5.7325   -0.0833   -1.4842 C   0  0  0  0  0  0  0  0  0  0  0  0
   -5.6402   -1.0850   -1.9568 H   0  0  0  0  0  0  0  0  0  0  0  0
   -5.7861    0.6538   -2.3133 H   0  0  0  0  0  0  0  0  0  0  0  0
   -6.9233    0.0053   -0.5531 C   0  0  0  0  0  0  0  0  0  0  0  0
   -6.8451   -0.7389    0.2638 H   0  0  0  0  0  0  0  0  0  0  0  0
   -7.8584   -0.1897   -1.1144 H   0  0  0  0  0  0  0  0  0  0  0  0
   -6.9960    1.0123   -0.0970 H   0  0  0  0  0  0  0  0  0  0  0  0
  1  3  1  0  0  0  0
  3  4  1  0  0  0  0
  5  6  2  0  0  0  0
  6  2  1  0  0  0  0
  6  3  1  0  0  0  0
  7  2  1  0  0  0  0
  7 10  1  0  0  0  0
  8  7  1  0  0  0  0
  9  7  1  0  0  0  0
 10 13  1  0  0  0  0
 10 11  1  0  0  0  0
 12 10  1  0  0  0  0
M  END
