5
q = -2.0, confidence = 0.5

 16 16  0  0  0  0  0  0  0  0999 V2000
   -1.5388   -2.3313   -1.9815 C   0  0  0  0  0  3  0  0  0  0  0  0
   -1.5067   -1.9534   -3.0194 H   0  0  0  0  0  0  0  0  0  0  0  0
   -0.2487   -2.7972   -1.5499 C   0  0  0  0  0  3  0  0  0  0  0  0
    0.4968   -2.9666   -2.3540 H   0  0  0  0  0  0  0  0  0  0  0  0
    0.2286   -3.0228   -0.2285 C   0  0  0  0  0  3  0  0  0  0  0  0
    1.2554   -3.4117   -0.1290 H   0  0  0  0  0  0  0  0  0  0  0  0
   -0.4381   -2.5912    0.9841 C   0  0  0  0  0  3  0  0  0  0  0  0
    0.2897   -2.4740    1.8073 H   0  0  0  0  0  0  0  0  0  0  0  0
   -1.7632   -2.8428    1.5067 C   0  0  0  0  0  0  0  0  0  0  0  0
   -1.8079   -2.7321    2.6062 H   0  0  0  0  0  0  0  0  0  0  0  0
   -2.9723   -3.1941    0.9321 C   0  0  0  0  0  0  0  0  0  0  0  0
   -3.7648   -3.4206    1.6679 H   0  0  0  0  0  0  0  0  0  0  0  0
   -3.4458   -3.1814   -0.4205 C   0  0  0  0  0  3  0  0  0  0  0  0
   -4.5085   -3.4611   -0.5207 H   0  0  0  0  0  0  0  0  0  0  0  0
   -2.8736   -2.6949   -1.5847 C   0  0  0  0  0  3  0  0  0  0  0  0
   -3.6014   -2.5563   -2.4062 H   0  0  0  0  0  0  0  0  0  0  0  0
  1 15  1  0  0  0  0
  1  3  1  0  0  0  0
  2  1  1  0  0  0  0
  3  5  1  0  0  0  0
  4  3  1  0  0  0  0
  5  6  1  0  0  0  0
  5  7  1  0  0  0  0
  7  9  1  0  0  0  0
  7  8  1  0  0  0  0
  9 10  1  0  0  0  0
 11  9  2  0  0  0  0
 11 12  1  0  0  0  0
 13 11  1  0  0  0  0
 14 13  1  0  0  0  0
 15 13  1  0  0  0  0
 16 15  1  0  0  0  0
M  END
