4
q = -1.0

 21 21  0  0  1  0  0  0  0  0999 V2000
    2.6993   -0.5769    0.7789 O   0  0  0  0  0  0  0  0  0  0  0  0
    1.5665   -2.0794    1.9822 O   0  0  0  0  0  0  0  0  0  0  0  0
   -0.7804   -0.3140    2.1963 C   0  0  0  0  0  3  0  0  0  0  0  0
    0.4950    0.0342    1.6289 C   0  0  2  0  0  3  0  0  0  0  0  0
    0.6458    1.3808    1.1518 C   0  0  0  0  0  3  0  0  0  0  0  0
    1.9890    1.7739    0.5985 C   0  0  0  0  0  0  0  0  0  0  0  0
    2.6655    0.5923   -0.0831 C   0  0  1  0  0  0  0  0  0  0  0  0
    4.1007    0.8568   -0.5234 C   0  0  0  0  0  0  0  0  0  0  0  0
    4.7322   -0.3120   -1.2786 C   0  0  0  0  0  0  0  0  0  0  0  0
    1.5960   -0.9702    1.4830 C   0  0  0  0  0  0  0  0  0  0  0  0
   -0.9192   -1.3650    2.4947 H   0  0  0  0  0  0  0  0  0  0  0  0
   -1.2919    0.4247    2.8312 H   0  0  0  0  0  0  0  0  0  0  0  0
    0.0856    2.1650    1.6869 H   0  0  0  0  0  0  0  0  0  0  0  0
    2.6298    2.1452    1.4308 H   0  0  0  0  0  0  0  0  0  0  0  0
    1.8935    2.6092   -0.1260 H   0  0  0  0  0  0  0  0  0  0  0  0
    2.0511    0.3187   -0.9741 H   0  0  0  0  0  0  0  0  0  0  0  0
    4.7006    1.1032    0.3792 H   0  0  0  0  0  0  0  0  0  0  0  0
    4.0910    1.7709   -1.1549 H   0  0  0  0  0  0  0  0  0  0  0  0
    5.7754   -0.0844   -1.5734 H   0  0  0  0  0  0  0  0  0  0  0  0
    4.7422   -1.2230   -0.6492 H   0  0  0  0  0  0  0  0  0  0  0  0
    4.1653   -0.5464   -2.2040 H   0  0  0  0  0  0  0  0  0  0  0  0
  1 10  1  0  0  0  0
  3 11  1  0  0  0  0
  3 12  1  0  0  0  0
  4  3  1  6  0  0  0
  5  4  1  0  0  0  0
  5 13  1  0  0  0  0
  6  5  1  0  0  0  0
  6 14  1  0  0  0  0
  7 16  1  6  0  0  0
  7  6  1  0  0  0  0
  7  1  1  0  0  0  0
  8  7  1  0  0  0  0
  8 17  1  0  0  0  0
  9 20  1  0  0  0  0
  9  8  1  0  0  0  0
 10  4  1  0  0  0  0
 10  2  2  0  0  0  0
 15  6  1  0  0  0  0
 18  8  1  0  0  0  0
 19  9  1  0  0  0  0
 21  9  1  0  0  0  0
M  END
