3
q = -1.0

  9  8  0  0  0  0  0  0  0  0999 V2000
   -1.1665   -0.9857   -4.6204 N   0  0  0  0  0  0  0  0  0  0  0  0
    1.9076   -1.3079   -2.2900 C   0  0  0  0  0  3  0  0  0  0  0  0
    0.9655   -2.3375   -2.0474 C   0  0  0  0  0  3  0  0  0  0  0  0
   -0.4242   -2.1846   -2.4239 C   0  0  0  0  0  3  0  0  0  0  0  0
   -0.8202   -1.5234   -3.6329 C   0  0  0  0  0  0  0  0  0  0  0  0
    1.8117   -0.6508   -3.1667 H   0  0  0  0  0  0  0  0  0  0  0  0
    2.9254   -1.4242   -1.8903 H   0  0  0  0  0  0  0  0  0  0  0  0
    1.2258   -3.1797   -1.3858 H   0  0  0  0  0  0  0  0  0  0  0  0
   -1.1163   -2.9802   -2.1048 H   0  0  0  0  0  0  0  0  0  0  0  0
  1  5  3  0  0  0  0
  2  3  1  0  0  0  0
  2  7  1  0  0  0  0
  3  8  1  0  0  0  0
  4  9  1  0  0  0  0
  4  3  1  0  0  0  0
  5  4  1  0  0  0  0
  6  2  1  0  0  0  0
M  END
