11
q = -2.0, confidence = 0.818

 38 43  0  0  1  0  0  0  0  0999 V2000
    1.8752    0.4959   -0.1705 C   0  0  2  0  0  0  0  0  0  0  0  0
    1.0272   -0.9303    0.0231 C   0  0  1  0  0  0  0  0  0  0  0  0
    1.0054    1.7354   -0.2178 C   0  0  0  0  0  0  0  0  0  0  0  0
    1.7408    3.0637   -0.1612 C   0  0  0  0  0  0  0  0  0  0  0  0
    2.7545    2.9516   -0.5950 H   0  0  0  0  0  0  0  0  0  0  0  0
    1.2194    3.8075   -0.7956 H   0  0  0  0  0  0  0  0  0  0  0  0
    1.8559    3.6112    1.2725 C   0  0  0  0  0  0  0  0  0  0  0  0
    2.4012    4.5766    1.2869 H   0  0  0  0  0  0  0  0  0  0  0  0
    2.4011    2.9049    1.9280 H   0  0  0  0  0  0  0  0  0  0  0  0
    0.8554    3.7797    1.7209 H   0  0  0  0  0  0  0  0  0  0  0  0
   -0.3558    1.6063   -0.2392 C   0  0  0  0  0  3  0  0  0  0  0  0
   -1.2404    2.8403   -0.3661 C   0  0  0  0  0  0  0  0  0  0  0  0
   -2.2696    2.6182   -0.0071 H   0  0  0  0  0  0  0  0  0  0  0  0
   -0.8773    3.6555    0.2991 H   0  0  0  0  0  0  0  0  0  0  0  0
   -1.3517    3.3775   -1.8034 C   0  0  0  0  0  0  0  0  0  0  0  0
   -1.9740    4.2950   -1.8400 H   0  0  0  0  0  0  0  0  0  0  0  0
   -1.8129    2.6340   -2.4825 H   0  0  0  0  0  0  0  0  0  0  0  0
   -0.3562    3.6241   -2.2229 H   0  0  0  0  0  0  0  0  0  0  0  0
    1.7378   -0.5667   -1.5077 B   0  0  2  0  0  0  0  0  0  0  0  0
    1.0534   -0.2184   -2.4300 H   0  0  0  0  0  0  0  0  0  0  0  0
    3.2617    0.2702   -1.1727 B   0  0  2  0  0  0  0  0  0  0  0  0
    3.5848    1.1754   -1.9023 H   0  0  0  0  0  0  0  0  0  0  0  0
    3.4221    0.4185    0.5836 B   0  0  0  0  0  0  0  0  0  0  0  0
    3.8704    1.4214    1.0786 H   0  0  0  0  0  0  0  0  0  0  0  0
    1.9936   -0.3226    1.3249 B   0  0  2  0  0  0  0  0  0  0  0  0
    1.4841    0.1816    2.2878 H   0  0  0  0  0  0  0  0  0  0  0  0
    1.8245   -2.1925   -0.8253 B   0  0  1  0  0  0  0  0  0  0  0  0
    1.1513   -3.0737   -1.3065 H   0  0  0  0  0  0  0  0  0  0  0  0
    3.2628   -1.4646   -1.5866 B   0  0  0  0  0  0  0  0  0  0  0  0
    3.6708   -1.8507   -2.6576 H   0  0  0  0  0  0  0  0  0  0  0  0
    4.3156   -0.8550   -0.2791 B   0  0  1  0  0  0  0  0  0  0  0  0
    5.5186   -0.7950   -0.3908 H   0  0  0  0  0  0  0  0  0  0  0  0
    3.5205   -1.2176    1.2813 B   0  0  0  0  0  0  0  0  0  0  0  0
    4.1193   -1.4226    2.3118 H   0  0  0  0  0  0  0  0  0  0  0  0
    1.9774   -2.0410    0.9240 B   0  0  2  0  0  0  0  0  0  0  0  0
    1.4080   -2.8109    1.6631 H   0  0  0  0  0  0  0  0  0  0  0  0
    3.4249   -2.3876   -0.0645 B   0  0  1  0  0  0  0  0  0  0  0  0
    3.9646   -3.4691   -0.0199 H   0  0  0  0  0  0  0  0  0  0  0  0
  1  3  1  6  0  0  0
  1  2  1  0  0  0  0
  1 25  1  0  0  0  0
  2 35  1  0  0  0  0
  3  4  1  0  0  0  0
  4  7  1  0  0  0  0
  5  4  1  0  0  0  0
  6  4  1  0  0  0  0
  7  8  1  0  0  0  0
  7 10  1  0  0  0  0
  7  9  1  0  0  0  0
 11  3  2  0  0  0  0
 12 11  1  0  0  0  0
 12 13  1  0  0  0  0
 12 14  1  0  0  0  0
 15 12  1  0  0  0  0
 16 15  1  0  0  0  0
 17 15  1  0  0  0  0
 18 15  1  0  0  0  0
 19 27  1  0  0  0  0
 19  1  1  0  0  0  0
 19  2  1  0  0  0  0
 20 19  1  0  0  0  0
 21 31  1  0  0  0  0
 21 23  1  0  0  0  0
 22 21  1  0  0  0  0
 23 24  1  0  0  0  0
 25 26  1  0  0  0  0
 27  2  1  0  0  0  0
 27 35  1  0  0  0  0
 28 27  1  0  0  0  0
 29 21  1  0  0  0  0
 29 37  1  0  0  0  0
 30 29  1  0  0  0  0
 31 37  1  0  0  0  0
 31 23  1  0  0  0  0
 32 31  1  0  0  0  0
 33 25  1  0  0  0  0
 33 34  1  0  0  0  0
 35 25  1  0  0  0  0
 35 36  1  0  0  0  0
 37 38  1  0  0  0  0
 37 33  1  0  0  0  0
M  END
