11
q = -2.0, confidence = 0.84

 38 43  0  0  1  0  0  0  0  0999 V2000
   -1.8623    1.9830   -0.1714 C   0  0  2  0  0  0  0  0  0  0  0  0
   -0.4196    1.1443   -0.1041 C   0  0  1  0  0  0  0  0  0  0  0  0
   -3.0631    1.0883   -0.0713 C   0  0  0  0  0  0  0  0  0  0  0  0
   -4.4008    1.7846    0.1279 C   0  0  0  0  0  0  0  0  0  0  0  0
   -4.3691    2.7951   -0.3266 H   0  0  0  0  0  0  0  0  0  0  0  0
   -5.1988    1.2370   -0.4101 H   0  0  0  0  0  0  0  0  0  0  0  0
   -4.7868    1.9079    1.6122 C   0  0  0  0  0  0  0  0  0  0  0  0
   -5.7602    2.4268    1.7297 H   0  0  0  0  0  0  0  0  0  0  0  0
   -4.0269    2.4807    2.1778 H   0  0  0  0  0  0  0  0  0  0  0  0
   -4.8770    0.9111    2.0909 H   0  0  0  0  0  0  0  0  0  0  0  0
   -2.8667   -0.2594   -0.0776 C   0  0  0  0  0  3  0  0  0  0  0  0
   -4.0972   -1.1637   -0.0310 C   0  0  0  0  0  0  0  0  0  0  0  0
   -4.7961   -0.8095    0.7600 H   0  0  0  0  0  0  0  0  0  0  0  0
   -3.8215   -2.1912    0.2832 H   0  0  0  0  0  0  0  0  0  0  0  0
   -4.8789   -1.2770   -1.3529 C   0  0  0  0  0  0  0  0  0  0  0  0
   -5.8140   -1.8572   -1.2107 H   0  0  0  0  0  0  0  0  0  0  0  0
   -4.2935   -1.7878   -2.1413 H   0  0  0  0  0  0  0  0  0  0  0  0
   -5.1569   -0.2823   -1.7532 H   0  0  0  0  0  0  0  0  0  0  0  0
   -0.9392    1.8308   -1.5994 B   0  0  2  0  0  0  0  0  0  0  0  0
   -1.3510    1.1258   -2.4811 H   0  0  0  0  0  0  0  0  0  0  0  0
   -1.7702    3.3522   -1.2081 B   0  0  2  0  0  0  0  0  0  0  0  0
   -2.7510    3.6445   -1.8487 H   0  0  0  0  0  0  0  0  0  0  0  0
   -1.7511    3.5363    0.5511 B   0  0  2  0  0  0  0  0  0  0  0  0
   -2.7121    3.9716    1.1338 H   0  0  0  0  0  0  0  0  0  0  0  0
   -0.9154    2.1218    1.2334 B   0  0  2  0  0  0  0  0  0  0  0  0
   -1.3252    1.6121    2.2426 H   0  0  0  0  0  0  0  0  0  0  0  0
    0.7343    1.9724   -1.0805 B   0  0  1  0  0  0  0  0  0  0  0  0
    1.5707    1.3233   -1.6612 H   0  0  0  0  0  0  0  0  0  0  0  0
   -0.0873    3.3793   -1.7869 B   0  0  0  0  0  0  0  0  0  0  0  0
    0.1900    3.7780   -2.8955 H   0  0  0  0  0  0  0  0  0  0  0  0
   -0.5908    4.4429   -0.4413 B   0  0  1  0  0  0  0  0  0  0  0  0
   -0.6867    5.6433   -0.5620 H   0  0  0  0  0  0  0  0  0  0  0  0
   -0.0614    3.6745    1.0873 B   0  0  0  0  0  0  0  0  0  0  0  0
    0.2332    4.2918    2.0858 H   0  0  0  0  0  0  0  0  0  0  0  0
    0.7502    2.1499    0.6697 B   0  0  2  0  0  0  0  0  0  0  0  0
    1.5964    1.6295    1.3564 H   0  0  0  0  0  0  0  0  0  0  0  0
    0.9729    3.5875   -0.3647 B   0  0  0  0  0  0  0  0  0  0  0  0
    2.0446    4.1470   -0.4323 H   0  0  0  0  0  0  0  0  0  0  0  0
  1  2  1  0  0  0  0
  1  3  1  1  0  0  0
  1 25  1  0  0  0  0
  2 35  1  0  0  0  0
  3  4  1  0  0  0  0
  4  7  1  0  0  0  0
  5  4  1  0  0  0  0
  6  4  1  0  0  0  0
  7  8  1  0  0  0  0
  7 10  1  0  0  0  0
  7  9  1  0  0  0  0
 11  3  2  0  0  0  0
 11 12  1  0  0  0  0
 12 14  1  0  0  0  0
 12 13  1  0  0  0  0
 15 16  1  0  0  0  0
 15 12  1  0  0  0  0
 17 15  1  0  0  0  0
 18 15  1  0  0  0  0
 19 27  1  0  0  0  0
 19  1  1  0  0  0  0
 19  2  1  0  0  0  0
 20 19  1  0  0  0  0
 21 31  1  0  0  0  0
 21 23  1  0  0  0  0
 22 21  1  0  0  0  0
 23 33  1  0  0  0  0
 23 24  1  0  0  0  0
 25 26  1  0  0  0  0
 27  2  1  0  0  0  0
 27 35  1  0  0  0  0
 28 27  1  0  0  0  0
 29 21  1  0  0  0  0
 29 37  1  0  0  0  0
 30 29  1  0  0  0  0
 31 37  1  0  0  0  0
 31 23  1  0  0  0  0
 32 31  1  0  0  0  0
 33 25  1  0  0  0  0
 33 34  1  0  0  0  0
 35 25  1  0  0  0  0
 35 36  1  0  0  0  0
 38 37  1  0  0  0  0
M  END
