9
q = 0.0, confidence = 0.984

 27 28  0  0  1  0  0  0  0  0999 V2000
   -3.7878   -1.0702    0.0551 N   0  0  0  0  0  0  0  0  0  0  0  0
   -5.2338   -1.2776   -0.0126 C   0  0  0  0  0  0  0  0  0  0  0  0
   -5.5033   -1.8761   -0.9045 H   0  0  0  0  0  0  0  0  0  0  0  0
   -5.7349   -0.2964   -0.0781 H   0  0  0  0  0  0  0  0  0  0  0  0
   -5.5992   -1.8049    0.8903 H   0  0  0  0  0  0  0  0  0  0  0  0
   -2.9216   -2.1396    0.1413 C   0  0  2  0  0  3  0  0  0  0  0  0
   -1.5558   -1.8800    0.1928 C   0  0  0  0  0  0  0  0  0  0  0  0
   -0.9107   -2.7691    0.2525 H   0  0  0  0  0  0  0  0  0  0  0  0
   -0.9508   -0.5849    0.1487 C   0  0  0  0  0  3  0  0  0  0  0  0
   -1.9252    0.4815    0.1015 C   0  0  0  0  0  0  0  0  0  0  0  0
   -3.2854    0.2026    0.0464 C   0  0  0  0  0  0  0  0  0  0  0  0
   -4.0346    1.0062   -0.0023 H   0  0  0  0  0  0  0  0  0  0  0  0
   -3.4890   -3.5269    0.1668 C   0  0  0  0  0  0  0  0  0  0  0  0
   -4.1669   -3.6858    1.0316 H   0  0  0  0  0  0  0  0  0  0  0  0
   -2.6663   -4.2603    0.2414 H   0  0  0  0  0  0  0  0  0  0  0  0
   -4.0695   -3.7589   -0.7508 H   0  0  0  0  0  0  0  0  0  0  0  0
   -1.5661    1.9288    0.0886 C   0  0  0  0  0  0  0  0  0  0  0  0
   -0.9526    2.5276    1.2088 C   0  0  0  0  0  0  0  0  0  0  0  0
   -0.7296    1.9173    2.0946 H   0  0  0  0  0  0  0  0  0  0  0  0
   -0.6304    3.8910    1.1956 C   0  0  0  0  0  0  0  0  0  0  0  0
   -0.1462    4.3433    2.0741 H   0  0  0  0  0  0  0  0  0  0  0  0
   -0.9152    4.6741    0.0652 C   0  0  0  0  0  0  0  0  0  0  0  0
   -0.6473    5.7413    0.0513 H   0  0  0  0  0  0  0  0  0  0  0  0
   -1.5382    4.0903   -1.0478 C   0  0  0  0  0  0  0  0  0  0  0  0
   -1.7574    4.6966   -1.9396 H   0  0  0  0  0  0  0  0  0  0  0  0
   -1.8684    2.7271   -1.0334 C   0  0  0  0  0  0  0  0  0  0  0  0
   -2.3349    2.2617   -1.9156 H   0  0  0  0  0  0  0  0  0  0  0  0
  1  6  1  0  0  0  0
  2  1  1  0  0  0  0
  2  5  1  0  0  0  0
  3  2  1  0  0  0  0
  4  2  1  0  0  0  0
  6 13  1  6  0  0  0
  6  7  1  0  0  0  0
  7  8  1  0  0  0  0
  9  7  2  0  0  0  0
 10  9  1  0  0  0  0
 11  1  1  0  0  0  0
 11 10  2  0  0  0  0
 12 11  1  0  0  0  0
 13 15  1  0  0  0  0
 13 14  1  0  0  0  0
 16 13  1  0  0  0  0
 17 10  1  0  0  0  0
 17 18  1  0  0  0  0
 18 19  1  0  0  0  0
 20 18  2  0  0  0  0
 20 21  1  0  0  0  0
 22 20  1  0  0  0  0
 23 22  1  0  0  0  0
 24 26  1  0  0  0  0
 24 22  2  0  0  0  0
 25 24  1  0  0  0  0
 26 17  2  0  0  0  0
 27 26  1  0  0  0  0
M  END
