3
q = 0.0, confidence = 0.714

 19 19  0  0  0  0  0  0  0  0999 V2000
    0.8773    1.7643   -0.8465 S   0  0  0  0  0  1  0  0  0  0  0  0
    4.1394    0.5619   -0.4689 S   0  0  0  0  0  0  0  0  0  0  0  0
    1.4481    0.1542   -0.5989 C   0  0  0  0  0  3  0  0  0  0  0  0
    2.6730   -0.3992   -0.4547 C   0  0  0  0  0  0  0  0  0  0  0  0
    2.7712   -1.4861   -0.2900 H   0  0  0  0  0  0  0  0  0  0  0  0
    5.3821   -0.7292   -0.0203 C   0  0  0  0  0  0  0  0  0  0  0  0
    5.0621   -1.1941    0.9335 H   0  0  0  0  0  0  0  0  0  0  0  0
    5.3793   -1.5043   -0.8125 H   0  0  0  0  0  0  0  0  0  0  0  0
    6.7356   -0.0852    0.1118 C   0  0  0  0  0  0  0  0  0  0  0  0
    7.6023    0.0001   -0.9960 C   0  0  0  0  0  0  0  0  0  0  0  0
    7.2912   -0.4350   -1.9588 H   0  0  0  0  0  0  0  0  0  0  0  0
    8.8503    0.6297   -0.8802 C   0  0  0  0  0  0  0  0  0  0  0  0
    9.5192    0.6833   -1.7526 H   0  0  0  0  0  0  0  0  0  0  0  0
    9.2451    1.1898    0.3450 C   0  0  0  0  0  0  0  0  0  0  0  0
   10.2248    1.6828    0.4371 H   0  0  0  0  0  0  0  0  0  0  0  0
    8.3850    1.1185    1.4528 C   0  0  0  0  0  0  0  0  0  0  0  0
    8.6883    1.5566    2.4159 H   0  0  0  0  0  0  0  0  0  0  0  0
    7.1379    0.4889    1.3349 C   0  0  0  0  0  0  0  0  0  0  0  0
    6.4603    0.4391    2.2018 H   0  0  0  0  0  0  0  0  0  0  0  0
  1  3  1  0  0  0  0
  2  4  1  0  0  0  0
  2  6  1  0  0  0  0
  3  4  2  0  0  0  0
  4  5  1  0  0  0  0
  6  9  1  0  0  0  0
  6  7  1  0  0  0  0
  8  6  1  0  0  0  0
  9 18  1  0  0  0  0
 10 12  1  0  0  0  0
 10  9  2  0  0  0  0
 11 10  1  0  0  0  0
 12 14  2  0  0  0  0
 13 12  1  0  0  0  0
 14 15  1  0  0  0  0
 14 16  1  0  0  0  0
 16 17  1  0  0  0  0
 18 16  2  0  0  0  0
 18 19  1  0  0  0  0
M  END
