1
q = 0.0, confidence = 1.0

 46 49  0  0  0  0  0  0  0  0999 V2000
   -0.5761   -0.4491   -0.1424 C   0  0  0  0  0  2  0  0  0  0  0  0
   -1.7488    1.7044    0.0192 C   0  0  0  0  0  0  0  0  0  0  0  0
   -2.2507    2.3041   -1.1469 C   0  0  0  0  0  0  0  0  0  0  0  0
   -3.4093    3.0884   -1.0735 C   0  0  0  0  0  0  0  0  0  0  0  0
   -4.0614    3.2676    0.1572 C   0  0  0  0  0  0  0  0  0  0  0  0
   -3.5534    2.6628    1.3178 C   0  0  0  0  0  0  0  0  0  0  0  0
   -2.3908    1.8814    1.2550 C   0  0  0  0  0  0  0  0  0  0  0  0
    0.7577    1.4470   -0.1721 C   0  0  0  0  0  0  0  0  0  0  0  0
    1.2241    2.8137   -0.0427 C   0  0  0  0  0  0  0  0  0  0  0  0
    0.4128    3.9397    0.2716 C   0  0  0  0  0  0  0  0  0  0  0  0
    1.0054    5.1989    0.3720 C   0  0  0  0  0  0  0  0  0  0  0  0
    2.3889    5.3414    0.1689 C   0  0  0  0  0  0  0  0  0  0  0  0
    3.1193    4.1814   -0.1212 C   0  0  0  0  0  0  0  0  0  0  0  0
    1.5845    0.3233   -0.3424 C   0  0  0  0  0  0  0  0  0  0  0  0
    3.7190   -0.9359   -0.3660 C   0  0  0  0  0  0  0  0  0  0  0  0
    5.1282   -0.6959   -0.9236 C   0  0  0  0  0  0  0  0  0  0  0  0
    6.0069   -1.9463   -0.7961 C   0  0  0  0  0  0  0  0  0  0  0  0
    6.0622   -2.4569    0.6500 C   0  0  0  0  0  0  0  0  0  0  0  0
    4.6549   -2.6962    1.2116 C   0  0  0  0  0  0  0  0  0  0  0  0
    3.7849   -1.4391    1.0920 C   0  0  0  0  0  0  0  0  0  0  0  0
    0.7510   -0.7767   -0.3093 N   0  0  0  0  0  0  0  0  0  0  0  0
   -0.5581    0.9127   -0.0619 N   0  0  0  0  0  0  0  0  0  0  0  0
    2.5725    2.9646   -0.2277 N   0  0  0  0  0  0  0  0  0  0  0  0
    2.9230    0.2710   -0.5211 N   0  0  0  0  0  0  0  0  0  0  0  0
   -1.9802    1.3998    2.1528 H   0  0  0  0  0  0  0  0  0  0  0  0
   -4.0678    2.7952    2.2812 H   0  0  0  0  0  0  0  0  0  0  0  0
   -4.9766    3.8760    0.2103 H   0  0  0  0  0  0  0  0  0  0  0  0
   -3.8124    3.5528   -1.9855 H   0  0  0  0  0  0  0  0  0  0  0  0
   -1.7298    2.1424   -2.1014 H   0  0  0  0  0  0  0  0  0  0  0  0
   -0.6634    3.8264    0.4414 H   0  0  0  0  0  0  0  0  0  0  0  0
    0.3828    6.0738    0.6142 H   0  0  0  0  0  0  0  0  0  0  0  0
    2.8880    6.3182    0.2375 H   0  0  0  0  0  0  0  0  0  0  0  0
    4.2115    4.2350   -0.2786 H   0  0  0  0  0  0  0  0  0  0  0  0
    1.0564   -1.7448   -0.3994 H   0  0  0  0  0  0  0  0  0  0  0  0
    3.2542   -1.7411   -0.9869 H   0  0  0  0  0  0  0  0  0  0  0  0
    5.5876    0.1434   -0.3531 H   0  0  0  0  0  0  0  0  0  0  0  0
    5.0543   -0.3623   -1.9792 H   0  0  0  0  0  0  0  0  0  0  0  0
    5.5966   -2.7467   -1.4519 H   0  0  0  0  0  0  0  0  0  0  0  0
    7.0274   -1.7301   -1.1741 H   0  0  0  0  0  0  0  0  0  0  0  0
    6.6659   -3.3862    0.7074 H   0  0  0  0  0  0  0  0  0  0  0  0
    6.5841   -1.7047    1.2834 H   0  0  0  0  0  0  0  0  0  0  0  0
    4.1710   -3.5294    0.6534 H   0  0  0  0  0  0  0  0  0  0  0  0
    4.7052   -3.0243    2.2702 H   0  0  0  0  0  0  0  0  0  0  0  0
    2.7612   -1.6331    1.4757 H   0  0  0  0  0  0  0  0  0  0  0  0
    4.2056   -0.6200    1.7165 H   0  0  0  0  0  0  0  0  0  0  0  0
    3.3288    1.2276   -0.4475 H   0  0  0  0  0  0  0  0  0  0  0  0
  1 22  1  0  0  0  0
  2  7  1  0  0  0  0
  3  4  1  0  0  0  0
  3  2  2  0  0  0  0
  4  5  2  0  0  0  0
  5 27  1  0  0  0  0
  5  6  1  0  0  0  0
  6 26  1  0  0  0  0
  7  6  2  0  0  0  0
  7 25  1  0  0  0  0
  8 22  1  0  0  0  0
  8  9  1  0  0  0  0
  9 10  1  0  0  0  0
 10 11  2  0  0  0  0
 10 30  1  0  0  0  0
 11 31  1  0  0  0  0
 12 32  1  0  0  0  0
 12 11  1  0  0  0  0
 13 12  2  0  0  0  0
 14 21  1  0  0  0  0
 14  8  2  0  0  0  0
 15 20  1  0  0  0  0
 16 17  1  0  0  0  0
 16 15  1  0  0  0  0
 16 36  1  0  0  0  0
 17 18  1  0  0  0  0
 18 40  1  0  0  0  0
 18 19  1  0  0  0  0
 18 41  1  0  0  0  0
 19 43  1  0  0  0  0
 20 19  1  0  0  0  0
 20 44  1  0  0  0  0
 20 45  1  0  0  0  0
 21  1  1  0  0  0  0
 22  2  1  0  0  0  0
 23 13  1  0  0  0  0
 23  9  2  0  0  0  0
 24 46  1  0  0  0  0
 24 15  1  0  0  0  0
 24 14  1  0  0  0  0
 28  4  1  0  0  0  0
 29  3  1  0  0  0  0
 33 13  1  0  0  0  0
 34 21  1  0  0  0  0
 35 15  1  0  0  0  0
 37 16  1  0  0  0  0
 38 17  1  0  0  0  0
 39 17  1  0  0  0  0
 42 19  1  0  0  0  0
M  END
