4
q = -1.0

 15 15  0  0  0  0  0  0  0  0999 V2000
   -1.5510    2.6295   -0.6346 O   0  0  0  0  0  0  0  0  0  0  0  0
   -3.2660    3.4313    0.4463 O   0  0  0  0  0  0  0  0  0  0  0  0
   -2.6384    2.5045   -0.0665 N   0  0  0  0  0  0  0  0  0  0  0  0
   -2.4438   -0.0036   -0.0599 C   0  0  0  0  0  3  0  0  0  0  0  0
   -3.2591    1.1478   -0.0169 C   0  0  0  0  0  0  0  0  0  0  0  0
   -4.6605    1.1309    0.0707 C   0  0  0  0  0  0  0  0  0  0  0  0
   -5.2029    2.0848    0.1177 H   0  0  0  0  0  0  0  0  0  0  0  0
   -5.3260   -0.1004    0.0976 C   0  0  0  0  0  0  0  0  0  0  0  0
   -6.4238   -0.1373    0.1485 H   0  0  0  0  0  0  0  0  0  0  0  0
   -4.5799   -1.2843    0.0639 C   0  0  0  0  0  0  0  0  0  0  0  0
   -5.0579   -2.2722    0.1049 H   0  0  0  0  0  0  0  0  0  0  0  0
   -3.0455   -3.4904    0.4311 O   0  0  0  0  0  0  0  0  0  0  0  0
   -1.3716   -2.5775   -0.6247 O   0  0  0  0  0  0  0  0  0  0  0  0
   -2.4723   -2.5230   -0.0706 N   0  0  0  0  0  0  0  0  0  0  0  0
   -3.1800   -1.2081   -0.0217 C   0  0  0  0  0  0  0  0  0  0  0  0
  1  3  2  0  0  0  0
  3  5  1  0  0  0  0
  3  2  2  0  0  0  0
  4 15  2  0  0  0  0
  4  5  1  0  0  0  0
  5  6  2  0  0  0  0
  6  8  1  0  0  0  0
  6  7  1  0  0  0  0
  8  9  1  0  0  0  0
 10  8  2  0  0  0  0
 10 11  1  0  0  0  0
 13 14  2  0  0  0  0
 14 15  1  0  0  0  0
 14 12  2  0  0  0  0
 15 10  1  0  0  0  0
M  END
