1
q = 0.0, confidence = 0.998

 25 25  0  0  0  0  0  0  0  0999 V2000
   -0.0039    1.1847    0.0068 C   0  0  0  0  0  2  0  0  0  0  0  0
    0.4285    2.4554    0.0339 N   0  0  0  0  0  0  0  0  0  0  0  0
    1.7734    2.8054    0.0537 N   0  0  0  0  0  0  0  0  0  0  0  0
    2.1298    3.6042   -1.1089 C   0  0  0  0  0  0  0  0  0  0  0  0
    2.1616    3.3903    1.3304 C   0  0  0  0  0  0  0  0  0  0  0  0
   -1.4091    1.0585   -0.0021 C   0  0  0  0  0  0  0  0  0  0  0  0
   -2.6277    0.8405   -0.0012 C   0  0  0  0  0  0  0  0  0  0  0  0
   -4.0118    0.5199    0.0128 C   0  0  0  0  0  0  0  0  0  0  0  0
   -4.4279   -0.8028    0.3258 C   0  0  0  0  0  0  0  0  0  0  0  0
   -5.7891   -1.1234    0.3418 C   0  0  0  0  0  0  0  0  0  0  0  0
   -6.7527   -0.1446    0.0433 C   0  0  0  0  0  0  0  0  0  0  0  0
   -6.3517    1.1661   -0.2685 C   0  0  0  0  0  0  0  0  0  0  0  0
   -4.9943    1.5020   -0.2810 C   0  0  0  0  0  0  0  0  0  0  0  0
   -0.2607    3.2324    0.0507 H   0  0  0  0  0  0  0  0  0  0  0  0
    3.2279    3.7447   -1.1197 H   0  0  0  0  0  0  0  0  0  0  0  0
    1.6437    4.6144   -1.1173 H   0  0  0  0  0  0  0  0  0  0  0  0
    1.8457    3.0595   -2.0292 H   0  0  0  0  0  0  0  0  0  0  0  0
    1.6604    4.3716    1.5348 H   0  0  0  0  0  0  0  0  0  0  0  0
    3.2563    3.5562    1.3243 H   0  0  0  0  0  0  0  0  0  0  0  0
    1.9245    2.6859    2.1492 H   0  0  0  0  0  0  0  0  0  0  0  0
   -3.6653   -1.5587    0.5619 H   0  0  0  0  0  0  0  0  0  0  0  0
   -6.1031   -2.1488    0.5884 H   0  0  0  0  0  0  0  0  0  0  0  0
   -7.8222   -0.4039    0.0544 H   0  0  0  0  0  0  0  0  0  0  0  0
   -7.1063    1.9323   -0.5017 H   0  0  0  0  0  0  0  0  0  0  0  0
   -4.6716    2.5253   -0.5217 H   0  0  0  0  0  0  0  0  0  0  0  0
  1  2  1  0  0  0  0
  2 14  1  0  0  0  0
  2  3  1  0  0  0  0
  3  5  1  0  0  0  0
  4  3  1  0  0  0  0
  5 18  1  0  0  0  0
  5 20  1  0  0  0  0
  6  7  3  0  0  0  0
  6  1  1  0  0  0  0
  7  8  1  0  0  0  0
  8  9  1  0  0  0  0
  9 10  2  0  0  0  0
  9 21  1  0  0  0  0
 10 22  1  0  0  0  0
 11 23  1  0  0  0  0
 11 10  1  0  0  0  0
 12 11  2  0  0  0  0
 13 12  1  0  0  0  0
 13  8  2  0  0  0  0
 15  4  1  0  0  0  0
 16  4  1  0  0  0  0
 17  4  1  0  0  0  0
 19  5  1  0  0  0  0
 24 12  1  0  0  0  0
 25 13  1  0  0  0  0
M  END
