5
q = 0.0, confidence = 0.536

 34 35  0  0  1  0  0  0  0  0999 V2000
   -0.6114    2.6434   -0.6712 S   0  0  0  0  0  1  0  0  0  0  0  0
    1.2165    1.8722   -2.4830 O   0  0  0  0  0  0  0  0  0  0  0  0
    0.5202    1.5808   -1.5290 C   0  0  0  0  0  0  0  0  0  0  0  0
   -1.9947   -0.0750   -0.9878 C   0  0  0  0  0  3  0  0  0  0  0  0
   -0.6712   -0.5784   -0.8494 C   0  0  0  0  0  3  0  0  0  0  0  0
    0.5216    0.2199   -0.8458 C   0  0  1  0  0  3  0  0  0  0  0  0
    1.7910   -0.4196   -0.5112 C   0  0  0  0  0  0  0  0  0  0  0  0
    3.0304    0.0793   -0.7769 C   0  0  0  0  0  0  0  0  0  0  0  0
   -3.2038   -0.9083   -0.8457 C   0  0  0  0  0  0  0  0  0  0  0  0
   -3.1997   -2.2076   -0.2859 C   0  0  0  0  0  0  0  0  0  0  0  0
   -4.3858   -2.9426   -0.1730 C   0  0  0  0  0  0  0  0  0  0  0  0
   -5.6045   -2.3973   -0.6111 C   0  0  0  0  0  0  0  0  0  0  0  0
   -5.6259   -1.1075   -1.1645 C   0  0  0  0  0  0  0  0  0  0  0  0
   -4.4392   -0.3729   -1.2791 C   0  0  0  0  0  0  0  0  0  0  0  0
    4.3095   -0.5301   -0.4180 C   0  0  0  0  0  0  0  0  0  0  0  0
    5.5041    0.1027   -0.8424 C   0  0  0  0  0  0  0  0  0  0  0  0
    6.7594   -0.4330   -0.5293 C   0  0  0  0  0  0  0  0  0  0  0  0
    6.8514   -1.6169    0.2191 C   0  0  0  0  0  0  0  0  0  0  0  0
    5.6763   -2.2581    0.6517 C   0  0  0  0  0  0  0  0  0  0  0  0
    4.4232   -1.7235    0.3392 C   0  0  0  0  0  0  0  0  0  0  0  0
   -2.1400    0.8548   -1.5605 H   0  0  0  0  0  0  0  0  0  0  0  0
   -0.5314   -1.6480   -0.6167 H   0  0  0  0  0  0  0  0  0  0  0  0
    1.6923   -1.3833    0.0192 H   0  0  0  0  0  0  0  0  0  0  0  0
    3.0937    1.0231   -1.3417 H   0  0  0  0  0  0  0  0  0  0  0  0
   -2.2624   -2.6540    0.0777 H   0  0  0  0  0  0  0  0  0  0  0  0
   -4.3597   -3.9518    0.2651 H   0  0  0  0  0  0  0  0  0  0  0  0
   -6.5352   -2.9769   -0.5183 H   0  0  0  0  0  0  0  0  0  0  0  0
   -6.5747   -0.6697   -1.5097 H   0  0  0  0  0  0  0  0  0  0  0  0
   -4.4587    0.6397   -1.7114 H   0  0  0  0  0  0  0  0  0  0  0  0
    5.4323    1.0315   -1.4296 H   0  0  0  0  0  0  0  0  0  0  0  0
    7.6728    0.0770   -0.8709 H   0  0  0  0  0  0  0  0  0  0  0  0
    7.8360   -2.0406    0.4682 H   0  0  0  0  0  0  0  0  0  0  0  0
    5.7417   -3.1849    1.2420 H   0  0  0  0  0  0  0  0  0  0  0  0
    3.5167   -2.2377    0.6923 H   0  0  0  0  0  0  0  0  0  0  0  0
  2  3  2  0  0  0  0
  3  1  1  0  0  0  0
  4  5  1  0  0  0  0
  4  9  1  0  0  0  0
  5  6  1  0  0  0  0
  5 22  1  0  0  0  0
  6  3  1  6  0  0  0
  6  7  1  0  0  0  0
  7 23  1  0  0  0  0
  8  7  2  0  0  0  0
  8 15  1  0  0  0  0
  9 10  1  0  0  0  0
 10 11  2  0  0  0  0
 10 25  1  0  0  0  0
 11 26  1  0  0  0  0
 12 27  1  0  0  0  0
 12 11  1  0  0  0  0
 13 12  2  0  0  0  0
 14 13  1  0  0  0  0
 14  9  2  0  0  0  0
 15 20  1  0  0  0  0
 16 17  1  0  0  0  0
 16 15  2  0  0  0  0
 17 18  2  0  0  0  0
 18 32  1  0  0  0  0
 18 19  1  0  0  0  0
 19 33  1  0  0  0  0
 20 19  2  0  0  0  0
 20 34  1  0  0  0  0
 21  4  1  0  0  0  0
 24  8  1  0  0  0  0
 28 13  1  0  0  0  0
 29 14  1  0  0  0  0
 30 16  1  0  0  0  0
 31 17  1  0  0  0  0
M  END
