1
q = -1.0

 23 23  0  0  1  0  0  0  0  0999 V2000
    1.2131    0.1882    1.2520 C   0  0  0  0  0  3  0  0  0  0  0  0
    2.7519    0.1288    1.2431 C   0  0  2  0  0  0  0  0  0  0  0  0
    3.3351    0.5505    2.6005 C   0  0  0  0  0  0  0  0  0  0  0  0
    3.3399    0.9880    0.0970 C   0  0  0  0  0  0  0  0  0  0  0  0
    4.8108    0.7550   -0.1447 C   0  0  0  0  0  0  0  0  0  0  0  0
    5.7966    1.6346    0.3464 C   0  0  0  0  0  0  0  0  0  0  0  0
    7.1625    1.3778    0.1473 C   0  0  0  0  0  0  0  0  0  0  0  0
    7.5697    0.2301   -0.5499 C   0  0  0  0  0  0  0  0  0  0  0  0
    6.5997   -0.6555   -1.0485 C   0  0  0  0  0  0  0  0  0  0  0  0
    5.2373   -0.3930   -0.8468 C   0  0  0  0  0  0  0  0  0  0  0  0
    0.8473   -0.1568    2.2458 H   0  0  0  0  0  0  0  0  0  0  0  0
    0.9052    1.2541    1.1913 H   0  0  0  0  0  0  0  0  0  0  0  0
    3.0727   -0.9213    1.0530 H   0  0  0  0  0  0  0  0  0  0  0  0
    4.4443    0.5226    2.6017 H   0  0  0  0  0  0  0  0  0  0  0  0
    2.9772   -0.1145    3.4137 H   0  0  0  0  0  0  0  0  0  0  0  0
    3.0208    1.5857    2.8551 H   0  0  0  0  0  0  0  0  0  0  0  0
    2.7819    0.7648   -0.8332 H   0  0  0  0  0  0  0  0  0  0  0  0
    3.1552    2.0596    0.3290 H   0  0  0  0  0  0  0  0  0  0  0  0
    5.4826    2.5389    0.8920 H   0  0  0  0  0  0  0  0  0  0  0  0
    7.9143    2.0809    0.5383 H   0  0  0  0  0  0  0  0  0  0  0  0
    8.6399    0.0277   -0.7092 H   0  0  0  0  0  0  0  0  0  0  0  0
    6.9085   -1.5545   -1.6044 H   0  0  0  0  0  0  0  0  0  0  0  0
    4.4781   -1.0850   -1.2471 H   0  0  0  0  0  0  0  0  0  0  0  0
  1 11  1  0  0  0  0
  2 13  1  6  0  0  0
  2  1  1  0  0  0  0
  2  3  1  0  0  0  0
  3 14  1  0  0  0  0
  3 16  1  0  0  0  0
  3 15  1  0  0  0  0
  4 18  1  0  0  0  0
  4  2  1  0  0  0  0
  5  4  1  0  0  0  0
  5  6  1  0  0  0  0
  6 19  1  0  0  0  0
  7  6  2  0  0  0  0
  7 20  1  0  0  0  0
  8  7  1  0  0  0  0
  9 10  1  0  0  0  0
  9  8  2  0  0  0  0
 10  5  2  0  0  0  0
 12  1  1  0  0  0  0
 17  4  1  0  0  0  0
 21  8  1  0  0  0  0
 22  9  1  0  0  0  0
 23 10  1  0  0  0  0
M  END
