7
q = 0.0, confidence = 0.98

 34 34  0  0  1  0  0  0  0  0999 V2000
    4.2692   -0.5910   -1.1172 O   0  0  0  0  0  0  0  0  0  0  0  0
    4.1213   -1.4892    0.9663 O   0  0  0  0  0  0  0  0  0  0  0  0
   -2.7987   -1.7165   -0.0461 O   0  0  0  0  0  0  0  0  0  0  0  0
    5.5462   -1.3966    1.0658 C   0  0  0  0  0  0  0  0  0  0  0  0
    3.5946   -1.0330   -0.1998 C   0  0  0  0  0  0  0  0  0  0  0  0
    2.1148   -1.1423   -0.1883 C   0  0  0  0  0  3  0  0  0  0  0  0
    1.4080   -0.9600   -1.4265 C   0  0  0  0  0  3  0  0  0  0  0  0
   -0.0035   -0.8082   -1.3522 C   0  0  0  0  0  3  0  0  0  0  0  0
   -0.6074   -0.8172   -0.0492 C   0  0  0  0  0  3  0  0  0  0  0  0
   -2.0741   -0.4855    0.1186 C   0  0  2  0  0  0  0  0  0  0  0  0
   -2.4038    0.1375    1.4824 C   0  0  0  0  0  0  0  0  0  0  0  0
   -3.9210    0.1990    1.7533 C   0  0  0  0  0  0  0  0  0  0  0  0
   -4.6797    0.8929    0.6545 C   0  0  0  0  0  0  0  0  0  0  0  0
   -5.1962    0.2742   -0.4298 C   0  0  0  0  0  0  0  0  0  0  0  0
   -5.1402   -1.2126   -0.6903 C   0  0  0  0  0  0  0  0  0  0  0  0
   -3.7543   -1.7576   -1.0918 C   0  0  0  0  0  0  0  0  0  0  0  0
    5.8094   -1.7717    2.0707 H   0  0  0  0  0  0  0  0  0  0  0  0
    6.0385   -2.0091    0.2832 H   0  0  0  0  0  0  0  0  0  0  0  0
    5.8830   -0.3472    0.9422 H   0  0  0  0  0  0  0  0  0  0  0  0
    1.7061   -1.7862    0.6043 H   0  0  0  0  0  0  0  0  0  0  0  0
    1.9627   -0.8295   -2.3681 H   0  0  0  0  0  0  0  0  0  0  0  0
   -0.5798   -0.5475   -2.2545 H   0  0  0  0  0  0  0  0  0  0  0  0
   -0.2580   -1.5675    0.6809 H   0  0  0  0  0  0  0  0  0  0  0  0
   -2.3840    0.2260   -0.6794 H   0  0  0  0  0  0  0  0  0  0  0  0
   -1.9118   -0.4522    2.2852 H   0  0  0  0  0  0  0  0  0  0  0  0
   -1.9595    1.1541    1.5188 H   0  0  0  0  0  0  0  0  0  0  0  0
   -4.0885    0.7113    2.7232 H   0  0  0  0  0  0  0  0  0  0  0  0
   -4.2846   -0.8434    1.8639 H   0  0  0  0  0  0  0  0  0  0  0  0
   -4.7590    1.9927    0.7153 H   0  0  0  0  0  0  0  0  0  0  0  0
   -5.6832    0.8974   -1.1997 H   0  0  0  0  0  0  0  0  0  0  0  0
   -5.8522   -1.4805   -1.4990 H   0  0  0  0  0  0  0  0  0  0  0  0
   -5.4639   -1.7777    0.2112 H   0  0  0  0  0  0  0  0  0  0  0  0
   -3.3790   -1.2152   -1.9929 H   0  0  0  0  0  0  0  0  0  0  0  0
   -3.8560   -2.8280   -1.3714 H   0  0  0  0  0  0  0  0  0  0  0  0
  1  5  2  0  0  0  0
  2  4  1  0  0  0  0
  3 10  1  0  0  0  0
  4 17  1  0  0  0  0
  5  6  1  0  0  0  0
  5  2  1  0  0  0  0
  6 20  1  0  0  0  0
  7  8  1  0  0  0  0
  7  6  1  0  0  0  0
  8  9  1  0  0  0  0
  9 10  1  0  0  0  0
  9 23  1  0  0  0  0
 10 24  1  6  0  0  0
 10 11  1  0  0  0  0
 11 26  1  0  0  0  0
 11 12  1  0  0  0  0
 11 25  1  0  0  0  0
 12 28  1  0  0  0  0
 12 27  1  0  0  0  0
 13 29  1  0  0  0  0
 13 12  1  0  0  0  0
 14 13  2  0  0  0  0
 15 14  1  0  0  0  0
 15 32  1  0  0  0  0
 16 15  1  0  0  0  0
 16  3  1  0  0  0  0
 18  4  1  0  0  0  0
 19  4  1  0  0  0  0
 21  7  1  0  0  0  0
 22  8  1  0  0  0  0
 30 14  1  0  0  0  0
 31 15  1  0  0  0  0
 33 16  1  0  0  0  0
 34 16  1  0  0  0  0
M  END
