3
q = 0.0, confidence = 0.99

 16 16  0  0  0  0  0  0  0  0999 V2000
    4.4017    0.0946    0.2585 S   0  0  0  0  0  0  0  0  0  0  0  0
    1.7515    0.3770   -0.0635 N   0  0  0  0  0  0  0  0  0  0  0  0
    0.5273    0.9086   -0.1082 C   0  0  0  0  0  2  0  0  0  0  0  0
    0.5491    2.4170   -0.2206 C   0  0  0  0  0  0  0  0  0  0  0  0
    2.9980    1.1891   -0.1245 C   0  0  0  0  0  0  0  0  0  0  0  0
    2.0337   -1.0703    0.0525 C   0  0  0  0  0  0  0  0  0  0  0  0
    3.4523   -1.3033   -0.4440 C   0  0  0  0  0  0  0  0  0  0  0  0
   -0.4605    2.8403   -0.3374 H   0  0  0  0  0  0  0  0  0  0  0  0
    1.1668    2.7605   -1.0793 H   0  0  0  0  0  0  0  0  0  0  0  0
    0.9960    2.8707    0.6923 H   0  0  0  0  0  0  0  0  0  0  0  0
    3.0979    1.6332   -1.1386 H   0  0  0  0  0  0  0  0  0  0  0  0
    2.9756    2.0123    0.6151 H   0  0  0  0  0  0  0  0  0  0  0  0
    1.2881   -1.6299   -0.5369 H   0  0  0  0  0  0  0  0  0  0  0  0
    1.9378   -1.3720    1.1149 H   0  0  0  0  0  0  0  0  0  0  0  0
    3.8740   -2.2537   -0.0670 H   0  0  0  0  0  0  0  0  0  0  0  0
    3.5129   -1.2984   -1.5524 H   0  0  0  0  0  0  0  0  0  0  0  0
  2  6  1  0  0  0  0
  3  2  1  0  0  0  0
  4  3  1  0  0  0  0
  4 10  1  0  0  0  0
  5  2  1  0  0  0  0
  5  1  1  0  0  0  0
  5 12  1  0  0  0  0
  6 14  1  0  0  0  0
  7 15  1  0  0  0  0
  7  6  1  0  0  0  0
  7  1  1  0  0  0  0
  8  4  1  0  0  0  0
  9  4  1  0  0  0  0
 11  5  1  0  0  0  0
 13  6  1  0  0  0  0
 16  7  1  0  0  0  0
M  END
