4
q = -1.0

 81 85  0  0  1  0  0  0  0  0999 V2000
    1.8181    0.1883    0.5082 P   0  0  0  0  0  0  0  0  0  0  0  0
   -1.6180    0.5454    0.4444 P   0  0  0  0  0  0  0  0  0  0  0  0
    0.6275   -2.7064    1.3325 C   0  0  0  0  0  0  0  0  0  0  0  0
   -0.7816   -2.4070    1.5422 C   0  0  1  0  0  3  0  0  0  0  0  0
   -1.5036   -2.8237    0.3397 C   0  0  0  0  0  0  0  0  0  0  0  0
   -0.5279   -3.2451   -0.6256 C   0  0  0  0  0  0  0  0  0  0  0  0
    0.7899   -3.1938   -0.0221 C   0  0  0  0  0  0  0  0  0  0  0  0
    1.6875   -2.7283    2.3977 C   0  0  0  0  0  0  0  0  0  0  0  0
   -1.3873   -1.9690    2.8470 C   0  0  0  0  0  0  0  0  0  0  0  0
   -2.9789   -3.0332    0.2223 C   0  0  0  0  0  0  0  0  0  0  0  0
   -0.7971   -3.7094   -2.0179 C   0  0  0  0  0  0  0  0  0  0  0  0
    2.0174   -3.8195   -0.6049 C   0  0  0  0  0  0  0  0  0  0  0  0
    2.8789   -1.7681    2.2538 C   0  0  0  0  0  0  0  0  0  0  0  0
    2.4793   -0.2952    2.1728 C   0  0  0  0  0  0  0  0  0  0  0  0
   -2.4012   -0.8076    2.8346 C   0  0  0  0  0  0  0  0  0  0  0  0
   -1.9116    0.5340    2.2728 C   0  0  0  0  0  0  0  0  0  0  0  0
    3.2981   -0.0651   -0.5631 C   0  0  0  0  0  0  0  0  0  0  0  0
    3.2850   -0.9346   -1.6676 C   0  0  0  0  0  0  0  0  0  0  0  0
    4.4529   -1.1294   -2.4226 C   0  0  0  0  0  0  0  0  0  0  0  0
    5.6357   -0.4584   -2.0808 C   0  0  0  0  0  0  0  0  0  0  0  0
    5.6487    0.4245   -0.9874 C   0  0  0  0  0  0  0  0  0  0  0  0
    4.4855    0.6268   -0.2336 C   0  0  0  0  0  0  0  0  0  0  0  0
    1.7413    2.0151    0.5866 C   0  0  0  0  0  0  0  0  0  0  0  0
    1.8589    2.7266    1.7979 C   0  0  0  0  0  0  0  0  0  0  0  0
    1.9348    4.1283    1.7829 C   0  0  0  0  0  0  0  0  0  0  0  0
    1.8857    4.8223    0.5657 C   0  0  0  0  0  0  0  0  0  0  0  0
    1.7421    4.1160   -0.6405 C   0  0  0  0  0  0  0  0  0  0  0  0
    1.6677    2.7185   -0.6353 C   0  0  0  0  0  0  0  0  0  0  0  0
   -1.4746    2.3165   -0.0203 C   0  0  0  0  0  0  0  0  0  0  0  0
   -1.3926    3.3412    0.9429 C   0  0  0  0  0  0  0  0  0  0  0  0
   -1.4456    4.6848    0.5422 C   0  0  0  0  0  0  0  0  0  0  0  0
   -1.5766    5.0150   -0.8144 C   0  0  0  0  0  0  0  0  0  0  0  0
   -1.6370    3.9955   -1.7781 C   0  0  0  0  0  0  0  0  0  0  0  0
   -1.5867    2.6518   -1.3880 C   0  0  0  0  0  0  0  0  0  0  0  0
   -3.2543    0.1671   -0.3172 C   0  0  0  0  0  0  0  0  0  0  0  0
   -4.4521    0.5183    0.3405 C   0  0  0  0  0  0  0  0  0  0  0  0
   -5.6900    0.2686   -0.2708 C   0  0  0  0  0  0  0  0  0  0  0  0
   -5.7427   -0.3106   -1.5486 C   0  0  0  0  0  0  0  0  0  0  0  0
   -4.5517   -0.6394   -2.2145 C   0  0  0  0  0  0  0  0  0  0  0  0
   -3.3105   -0.4104   -1.6021 C   0  0  0  0  0  0  0  0  0  0  0  0
    2.0761   -3.7688    2.4394 H   0  0  0  0  0  0  0  0  0  0  0  0
    1.2109   -2.5483    3.3820 H   0  0  0  0  0  0  0  0  0  0  0  0
   -0.5648   -1.7034    3.5418 H   0  0  0  0  0  0  0  0  0  0  0  0
   -1.8904   -2.8504    3.3034 H   0  0  0  0  0  0  0  0  0  0  0  0
   -3.2403   -3.9834    0.7372 H   0  0  0  0  0  0  0  0  0  0  0  0
   -3.5788   -2.2295    0.6816 H   0  0  0  0  0  0  0  0  0  0  0  0
   -3.3023   -3.1225   -0.8296 H   0  0  0  0  0  0  0  0  0  0  0  0
   -0.5690   -4.7910   -2.1182 H   0  0  0  0  0  0  0  0  0  0  0  0
   -1.8512   -3.5509   -2.3083 H   0  0  0  0  0  0  0  0  0  0  0  0
   -0.1636   -3.1564   -2.7403 H   0  0  0  0  0  0  0  0  0  0  0  0
    2.0513   -4.8967   -0.3298 H   0  0  0  0  0  0  0  0  0  0  0  0
    2.0181   -3.7661   -1.7093 H   0  0  0  0  0  0  0  0  0  0  0  0
    2.9502   -3.3515   -0.2436 H   0  0  0  0  0  0  0  0  0  0  0  0
    3.5030   -2.0312    1.3739 H   0  0  0  0  0  0  0  0  0  0  0  0
    3.5333   -1.9099    3.1376 H   0  0  0  0  0  0  0  0  0  0  0  0
    1.7161   -0.0457    2.9401 H   0  0  0  0  0  0  0  0  0  0  0  0
    3.3602    0.3503    2.3597 H   0  0  0  0  0  0  0  0  0  0  0  0
   -2.7085   -0.6370    3.8867 H   0  0  0  0  0  0  0  0  0  0  0  0
   -3.3291   -1.1059    2.3069 H   0  0  0  0  0  0  0  0  0  0  0  0
   -2.6464    1.3280    2.5141 H   0  0  0  0  0  0  0  0  0  0  0  0
   -0.9500    0.8384    2.7391 H   0  0  0  0  0  0  0  0  0  0  0  0
    2.3449   -1.4202   -1.9580 H   0  0  0  0  0  0  0  0  0  0  0  0
    4.4318   -1.8044   -3.2913 H   0  0  0  0  0  0  0  0  0  0  0  0
    6.5492   -0.6116   -2.6747 H   0  0  0  0  0  0  0  0  0  0  0  0
    6.5692    0.9672   -0.7252 H   0  0  0  0  0  0  0  0  0  0  0  0
    4.5009    1.3434    0.6024 H   0  0  0  0  0  0  0  0  0  0  0  0
    1.9121    2.2011    2.7620 H   0  0  0  0  0  0  0  0  0  0  0  0
    2.0421    4.6780    2.7300 H   0  0  0  0  0  0  0  0  0  0  0  0
    1.9543    5.9203    0.5552 H   0  0  0  0  0  0  0  0  0  0  0  0
    1.6877    4.6590   -1.5952 H   0  0  0  0  0  0  0  0  0  0  0  0
    1.5597    2.1609   -1.5782 H   0  0  0  0  0  0  0  0  0  0  0  0
   -1.2860    3.1090    2.0113 H   0  0  0  0  0  0  0  0  0  0  0  0
   -1.3844    5.4783    1.3017 H   0  0  0  0  0  0  0  0  0  0  0  0
   -1.6285    6.0701   -1.1220 H   0  0  0  0  0  0  0  0  0  0  0  0
   -1.7321    4.2467   -2.8450 H   0  0  0  0  0  0  0  0  0  0  0  0
   -1.6320    1.8575   -2.1460 H   0  0  0  0  0  0  0  0  0  0  0  0
   -4.4342    0.9986    1.3298 H   0  0  0  0  0  0  0  0  0  0  0  0
   -6.6192    0.5381    0.2532 H   0  0  0  0  0  0  0  0  0  0  0  0
   -6.7151   -0.4986   -2.0280 H   0  0  0  0  0  0  0  0  0  0  0  0
   -4.5866   -1.0812   -3.2219 H   0  0  0  0  0  0  0  0  0  0  0  0
   -2.3744   -0.6695   -2.1216 H   0  0  0  0  0  0  0  0  0  0  0  0
  1 23  1  0  0  0  0
  1 14  1  0  0  0  0
  2 16  1  0  0  0  0
  3  4  1  0  0  0  0
  3  8  1  0  0  0  0
  4  9  1  1  0  0  0
  5  4  1  0  0  0  0
  6  7  1  0  0  0  0
  6  5  2  0  0  0  0
  7  3  2  0  0  0  0
  8 41  1  0  0  0  0
  8 42  1  0  0  0  0
  9 44  1  0  0  0  0
  9 43  1  0  0  0  0
 10  5  1  0  0  0  0
 10 46  1  0  0  0  0
 10 45  1  0  0  0  0
 11  6  1  0  0  0  0
 12 51  1  0  0  0  0
 12 53  1  0  0  0  0
 12  7  1  0  0  0  0
 13  8  1  0  0  0  0
 13 55  1  0  0  0  0
 14 13  1  0  0  0  0
 14 57  1  0  0  0  0
 14 56  1  0  0  0  0
 15  9  1  0  0  0  0
 15 58  1  0  0  0  0
 16 60  1  0  0  0  0
 16 61  1  0  0  0  0
 16 15  1  0  0  0  0
 17 22  1  0  0  0  0
 17  1  1  0  0  0  0
 18 17  2  0  0  0  0
 19 20  2  0  0  0  0
 19 18  1  0  0  0  0
 20 21  1  0  0  0  0
 21 65  1  0  0  0  0
 21 22  2  0  0  0  0
 22 66  1  0  0  0  0
 23 24  1  0  0  0  0
 24 67  1  0  0  0  0
 25 24  2  0  0  0  0
 25 68  1  0  0  0  0
 26 25  1  0  0  0  0
 27 28  1  0  0  0  0
 27 26  2  0  0  0  0
 28 23  2  0  0  0  0
 29  2  1  0  0  0  0
 29 30  1  0  0  0  0
 30 72  1  0  0  0  0
 31 30  2  0  0  0  0
 31 73  1  0  0  0  0
 32 31  1  0  0  0  0
 33 34  1  0  0  0  0
 33 32  2  0  0  0  0
 34 29  2  0  0  0  0
 35 36  1  0  0  0  0
 35  2  1  0  0  0  0
 36 77  1  0  0  0  0
 37 78  1  0  0  0  0
 37 36  2  0  0  0  0
 38 37  1  0  0  0  0
 39 40  1  0  0  0  0
 39 38  2  0  0  0  0
 40 35  2  0  0  0  0
 47 10  1  0  0  0  0
 48 11  1  0  0  0  0
 49 11  1  0  0  0  0
 50 11  1  0  0  0  0
 52 12  1  0  0  0  0
 54 13  1  0  0  0  0
 59 15  1  0  0  0  0
 62 18  1  0  0  0  0
 63 19  1  0  0  0  0
 64 20  1  0  0  0  0
 69 26  1  0  0  0  0
 70 27  1  0  0  0  0
 71 28  1  0  0  0  0
 74 32  1  0  0  0  0
 75 33  1  0  0  0  0
 76 34  1  0  0  0  0
 79 38  1  0  0  0  0
 80 39  1  0  0  0  0
 81 40  1  0  0  0  0
M  END
