3
q = 0.0, confidence = 0.99

 15 14  0  0  1  0  0  0  0  0999 V2000
   -3.2203   -0.5220   -1.5390 O   0  0  0  0  0  0  0  0  0  0  0  0
   -4.4147   -1.8895   -0.1752 O   0  0  0  0  0  0  0  0  0  0  0  0
   -0.8612   -1.9720   -0.8085 C   0  0  0  0  0  3  0  0  0  0  0  0
   -2.0688   -2.0607   -0.0651 C   0  0  2  0  0  3  0  0  0  0  0  0
   -2.2881   -3.2214    0.8835 C   0  0  0  0  0  0  0  0  0  0  0  0
   -3.2543   -1.3939   -0.6732 C   0  0  0  0  0  0  0  0  0  0  0  0
   -5.6183   -1.2872   -0.6659 C   0  0  0  0  0  0  0  0  0  0  0  0
   -0.8987   -1.5130   -1.8102 H   0  0  0  0  0  0  0  0  0  0  0  0
   -0.1227   -2.7811   -0.6828 H   0  0  0  0  0  0  0  0  0  0  0  0
   -2.6771   -4.1025    0.3281 H   0  0  0  0  0  0  0  0  0  0  0  0
   -3.0213   -2.9918    1.6754 H   0  0  0  0  0  0  0  0  0  0  0  0
   -1.3353   -3.5193    1.3651 H   0  0  0  0  0  0  0  0  0  0  0  0
   -6.4462   -1.9208   -0.2995 H   0  0  0  0  0  0  0  0  0  0  0  0
   -5.6160   -1.2494   -1.7736 H   0  0  0  0  0  0  0  0  0  0  0  0
   -5.7140   -0.2616   -0.2597 H   0  0  0  0  0  0  0  0  0  0  0  0
  1  6  2  0  0  0  0
  3  9  1  0  0  0  0
  4  3  1  6  0  0  0
  4  5  1  0  0  0  0
  5 12  1  0  0  0  0
  5 11  1  0  0  0  0
  6  2  1  0  0  0  0
  6  4  1  0  0  0  0
  7 13  1  0  0  0  0
  7 15  1  0  0  0  0
  7  2  1  0  0  0  0
  8  3  1  0  0  0  0
 10  5  1  0  0  0  0
 14  7  1  0  0  0  0
M  END
