3
q = -2.0, confidence = 0.56

 32 32  0  0  1  0  0  0  0  0999 V2000
    1.6842    2.4068   -0.0068 C   0  0  0  0  0  0  0  0  0  0  0  0
    0.2993    2.9957   -0.4024 C   0  0  1  0  0  0  0  0  0  0  0  0
   -0.8249    2.2074    0.2781 C   0  0  0  0  0  3  0  0  0  0  0  0
    2.1008    2.8119    1.4222 C   0  0  0  0  0  0  0  0  0  0  0  0
    2.7700    2.8801   -0.9869 C   0  0  0  0  0  0  0  0  0  0  0  0
    0.1487    4.5077   -0.1711 C   0  0  0  0  0  0  0  0  0  0  0  0
    2.8656   -0.0661   -0.0141 C   0  0  0  0  0  0  0  0  0  0  0  0
    3.6187   -0.3056   -1.1889 C   0  0  0  0  0  0  0  0  0  0  0  0
    4.8351   -1.0055   -1.1613 C   0  0  0  0  0  0  0  0  0  0  0  0
    5.3464   -1.4837    0.0566 C   0  0  0  0  0  0  0  0  0  0  0  0
    4.6302   -1.2480    1.2404 C   0  0  0  0  0  0  0  0  0  0  0  0
    3.4109   -0.5511    1.1979 C   0  0  0  0  0  0  0  0  0  0  0  0
    1.5111    0.7809   -0.0312 B   0  0  0  0  0  0  0  0  0  0  0  0
    0.7863    0.3524    1.0566 H   0  0  0  0  0  0  0  0  0  0  0  0
    0.7325    0.4436   -1.1116 H   0  0  0  0  0  0  0  0  0  0  0  0
    0.2090    2.8212   -1.5018 H   0  0  0  0  0  0  0  0  0  0  0  0
   -0.7796    2.4359    1.3709 H   0  0  0  0  0  0  0  0  0  0  0  0
   -1.8079    2.6010   -0.0535 H   0  0  0  0  0  0  0  0  0  0  0  0
    3.0280    2.2831    1.7263 H   0  0  0  0  0  0  0  0  0  0  0  0
    1.3188    2.5632    2.1700 H   0  0  0  0  0  0  0  0  0  0  0  0
    2.3061    3.9015    1.5017 H   0  0  0  0  0  0  0  0  0  0  0  0
    2.8651    3.9884   -0.9847 H   0  0  0  0  0  0  0  0  0  0  0  0
    2.5407    2.5723   -2.0297 H   0  0  0  0  0  0  0  0  0  0  0  0
    3.7654    2.4646   -0.7301 H   0  0  0  0  0  0  0  0  0  0  0  0
    0.9653    5.0956   -0.6415 H   0  0  0  0  0  0  0  0  0  0  0  0
    0.1391    4.7518    0.9119 H   0  0  0  0  0  0  0  0  0  0  0  0
   -0.8099    4.8746   -0.5941 H   0  0  0  0  0  0  0  0  0  0  0  0
    3.2340    0.0579   -2.1559 H   0  0  0  0  0  0  0  0  0  0  0  0
    5.3896   -1.1802   -2.0971 H   0  0  0  0  0  0  0  0  0  0  0  0
    6.2996   -2.0340    0.0824 H   0  0  0  0  0  0  0  0  0  0  0  0
    5.0225   -1.6117    2.2034 H   0  0  0  0  0  0  0  0  0  0  0  0
    2.8614   -0.3757    2.1384 H   0  0  0  0  0  0  0  0  0  0  0  0
  1  4  1  0  0  0  0
  2 16  1  6  0  0  0
  2  6  1  0  0  0  0
  2  1  1  0  0  0  0
  2  3  1  0  0  0  0
  3 17  1  0  0  0  0
  4 21  1  0  0  0  0
  4 19  1  0  0  0  0
  4 20  1  0  0  0  0
  5 22  1  0  0  0  0
  5 24  1  0  0  0  0
  5  1  1  0  0  0  0
  6 26  1  0  0  0  0
  7 12  1  0  0  0  0
  8  9  1  0  0  0  0
  8  7  2  0  0  0  0
  9 10  2  0  0  0  0
 10 30  1  0  0  0  0
 10 11  1  0  0  0  0
 11 31  1  0  0  0  0
 12 11  2  0  0  0  0
 12 32  1  0  0  0  0
 13  7  1  0  0  0  0
 13  1  1  0  0  0  0
 13 14  1  0  0  0  0
 15 13  1  0  0  0  0
 18  3  1  0  0  0  0
 23  5  1  0  0  0  0
 25  6  1  0  0  0  0
 27  6  1  0  0  0  0
 28  8  1  0  0  0  0
 29  9  1  0  0  0  0
M  END
