9
q = -1.0

 29 30  0  0  1  0  0  0  0  0999 V2000
    2.8113    0.9006   -1.1143 C   0  0  1  0  0  0  0  0  0  0  0  0
    3.3546    1.7842    0.0280 C   0  0  0  0  0  0  0  0  0  0  0  0
    4.0981    1.0341    1.1529 C   0  0  0  0  0  0  0  0  0  0  0  0
    3.4256   -0.2772    1.6086 C   0  0  0  0  0  0  0  0  0  0  0  0
    2.9040   -1.1774    0.4700 C   0  0  2  0  0  0  0  0  0  0  0  0
    4.0092   -1.7923   -0.4234 C   0  0  0  0  0  0  0  0  0  0  0  0
    4.7900   -0.7862   -1.2934 C   0  0  0  0  0  0  0  0  0  0  0  0
    3.9117    0.2664   -1.9993 C   0  0  0  0  0  0  0  0  0  0  0  0
    0.9628   -1.1021   -1.5050 C   0  0  0  0  0  3  0  0  0  0  0  0
    0.1631   -2.1349   -0.9699 C   0  0  0  0  0  3  0  0  0  0  0  0
    1.9335   -0.3270   -0.5256 B   0  0  2  0  0  0  0  0  0  0  0  0
    1.0113    0.1800    0.4467 H   0  0  0  0  0  0  0  0  0  0  0  0
    2.1932    1.5480   -1.7765 H   0  0  0  0  0  0  0  0  0  0  0  0
    2.4886    2.3181    0.4808 H   0  0  0  0  0  0  0  0  0  0  0  0
    4.0210    2.5873   -0.3653 H   0  0  0  0  0  0  0  0  0  0  0  0
    4.2103    1.7100    2.0297 H   0  0  0  0  0  0  0  0  0  0  0  0
    5.1355    0.8196    0.8273 H   0  0  0  0  0  0  0  0  0  0  0  0
    2.5560   -0.0196    2.2557 H   0  0  0  0  0  0  0  0  0  0  0  0
    4.1350   -0.8308    2.2672 H   0  0  0  0  0  0  0  0  0  0  0  0
    2.3695   -2.0328    0.9415 H   0  0  0  0  0  0  0  0  0  0  0  0
    3.5156   -2.5311   -1.0931 H   0  0  0  0  0  0  0  0  0  0  0  0
    4.7359   -2.3729    0.1922 H   0  0  0  0  0  0  0  0  0  0  0  0
    5.3744   -1.3448   -2.0573 H   0  0  0  0  0  0  0  0  0  0  0  0
    5.5522   -0.2744   -0.6721 H   0  0  0  0  0  0  0  0  0  0  0  0
    4.5728    1.0513   -2.4362 H   0  0  0  0  0  0  0  0  0  0  0  0
    3.4070   -0.2180   -2.8651 H   0  0  0  0  0  0  0  0  0  0  0  0
    0.8796   -0.8746   -2.5831 H   0  0  0  0  0  0  0  0  0  0  0  0
    0.5319   -2.6743   -0.0810 H   0  0  0  0  0  0  0  0  0  0  0  0
   -0.5276   -2.7214   -1.5971 H   0  0  0  0  0  0  0  0  0  0  0  0
  1 13  1  6  0  0  0
  1 11  1  0  0  0  0
  1  2  1  0  0  0  0
  2 14  1  0  0  0  0
  2  3  1  0  0  0  0
  3  4  1  0  0  0  0
  3 16  1  0  0  0  0
  4 18  1  0  0  0  0
  4 19  1  0  0  0  0
  5 20  1  1  0  0  0
  5  4  1  0  0  0  0
  6 22  1  0  0  0  0
  6  5  1  0  0  0  0
  7 24  1  0  0  0  0
  7  6  1  0  0  0  0
  8  7  1  0  0  0  0
  8  1  1  0  0  0  0
  9 10  1  0  0  0  0
  9 11  1  0  0  0  0
 10 28  1  0  0  0  0
 11 12  1  1  0  0  0
 11  5  1  0  0  0  0
 15  2  1  0  0  0  0
 17  3  1  0  0  0  0
 21  6  1  0  0  0  0
 23  7  1  0  0  0  0
 25  8  1  0  0  0  0
 26  8  1  0  0  0  0
 27  9  1  0  0  0  0
 29 10  1  0  0  0  0
M  END
