2
q = 0.0, confidence = 0.95

 16 15  0  0  0  0  0  0  0  0999 V2000
   -1.0572    1.9324   -0.5808 O   0  0  0  0  0  0  0  0  0  0  0  0
   -0.6128    0.9191    0.1328 C   0  0  0  0  0  2  0  0  0  0  0  0
   -0.6373    1.1182    1.2338 H   0  0  0  0  0  0  0  0  0  0  0  0
   -1.5114    3.2001    0.0715 C   0  0  0  0  0  0  0  0  0  0  0  0
   -2.5690    2.8887    1.1311 C   0  0  0  0  0  0  0  0  0  0  0  0
   -3.3905    2.2828    0.7033 H   0  0  0  0  0  0  0  0  0  0  0  0
   -2.9940    3.8381    1.5127 H   0  0  0  0  0  0  0  0  0  0  0  0
   -2.1427    2.3463    1.9973 H   0  0  0  0  0  0  0  0  0  0  0  0
   -2.1083    3.9835   -1.0947 C   0  0  0  0  0  0  0  0  0  0  0  0
   -1.3516    4.1311   -1.8899 H   0  0  0  0  0  0  0  0  0  0  0  0
   -2.4573    4.9765   -0.7500 H   0  0  0  0  0  0  0  0  0  0  0  0
   -2.9672    3.4343   -1.5269 H   0  0  0  0  0  0  0  0  0  0  0  0
   -0.2862    3.8937    0.6620 C   0  0  0  0  0  0  0  0  0  0  0  0
    0.1785    3.2853    1.4618 H   0  0  0  0  0  0  0  0  0  0  0  0
   -0.5791    4.8676    1.1024 H   0  0  0  0  0  0  0  0  0  0  0  0
    0.4794    4.0771   -0.1171 H   0  0  0  0  0  0  0  0  0  0  0  0
  1  4  1  0  0  0  0
  1  2  1  0  0  0  0
  2  3  1  0  0  0  0
  4 13  1  0  0  0  0
  4  5  1  0  0  0  0
  5  7  1  0  0  0  0
  5  8  1  0  0  0  0
  6  5  1  0  0  0  0
  9 11  1  0  0  0  0
  9  4  1  0  0  0  0
 10  9  1  0  0  0  0
 12  9  1  0  0  0  0
 13 15  1  0  0  0  0
 13 14  1  0  0  0  0
 16 13  1  0  0  0  0
M  END
