8
q = 0.0, confidence = 0.976

 37 38  0  0  1  0  0  0  0  0999 V2000
    1.6924   -1.4915   -1.1081 S   0  0  0  0  0  0  0  0  0  0  0  0
    0.1989    1.3663    0.8788 O   0  0  0  0  0  0  0  0  0  0  0  0
   -0.2072    3.4257    0.0001 O   0  0  0  0  0  0  0  0  0  0  0  0
    2.0257    1.7331   -1.0086 O   0  0  0  0  0  0  0  0  0  0  0  0
    0.5387    1.3341   -2.6789 O   0  0  0  0  0  0  0  0  0  0  0  0
   -1.5056    0.8545   -0.8068 C   0  0  0  0  0  3  0  0  0  0  0  0
   -2.0394   -0.0579   -1.7819 C   0  0  0  0  0  3  0  0  0  0  0  0
   -1.7381   -1.4260   -1.5496 C   0  0  0  0  0  3  0  0  0  0  0  0
   -0.9225   -1.6579   -0.3853 C   0  0  0  0  0  3  0  0  0  0  0  0
    0.2836   -0.7833   -0.1287 C   0  0  2  0  0  0  0  0  0  0  0  0
    0.5881   -0.8665    0.9313 H   0  0  0  0  0  0  0  0  0  0  0  0
   -0.0518    0.7174   -0.3928 C   0  0  2  0  0  0  0  0  0  0  0  0
    3.0979   -1.3168   -0.0310 C   0  0  0  0  0  0  0  0  0  0  0  0
    4.1899   -2.1752   -0.2904 C   0  0  0  0  0  0  0  0  0  0  0  0
    4.1150   -2.9215   -1.0964 H   0  0  0  0  0  0  0  0  0  0  0  0
    5.3558   -2.0854    0.4808 C   0  0  0  0  0  0  0  0  0  0  0  0
    6.1984   -2.7604    0.2663 H   0  0  0  0  0  0  0  0  0  0  0  0
    5.4443   -1.1563    1.5308 C   0  0  0  0  0  0  0  0  0  0  0  0
    6.3567   -1.0945    2.1424 H   0  0  0  0  0  0  0  0  0  0  0  0
    4.3563   -0.3098    1.7922 C   0  0  0  0  0  0  0  0  0  0  0  0
    4.4144    0.4256    2.6096 H   0  0  0  0  0  0  0  0  0  0  0  0
    3.1898   -0.3738    1.0144 C   0  0  0  0  0  0  0  0  0  0  0  0
    2.3665    0.3261    1.2095 H   0  0  0  0  0  0  0  0  0  0  0  0
    0.0866    2.7263    0.9489 C   0  0  0  0  0  0  0  0  0  0  0  0
    0.3871    3.1951    2.3487 C   0  0  0  0  0  0  0  0  0  0  0  0
    1.4638    3.0397    2.5645 H   0  0  0  0  0  0  0  0  0  0  0  0
   -0.1860    2.5963    3.0831 H   0  0  0  0  0  0  0  0  0  0  0  0
    0.1442    4.2674    2.4411 H   0  0  0  0  0  0  0  0  0  0  0  0
    0.8495    1.3107   -1.5069 C   0  0  0  0  0  0  0  0  0  0  0  0
    2.9730    2.1946   -1.9804 C   0  0  0  0  0  0  0  0  0  0  0  0
    3.1798    1.3965   -2.7208 H   0  0  0  0  0  0  0  0  0  0  0  0
    3.8879    2.4467   -1.4163 H   0  0  0  0  0  0  0  0  0  0  0  0
    2.5809    3.0846   -2.5113 H   0  0  0  0  0  0  0  0  0  0  0  0
   -1.8525    1.8965   -0.8514 H   0  0  0  0  0  0  0  0  0  0  0  0
   -2.7234    0.2627   -2.5808 H   0  0  0  0  0  0  0  0  0  0  0  0
   -2.1809   -2.2328   -2.1518 H   0  0  0  0  0  0  0  0  0  0  0  0
   -0.8013   -2.6988   -0.0473 H   0  0  0  0  0  0  0  0  0  0  0  0
  1 10  1  0  0  0  0
  1 13  1  0  0  0  0
  2 24  1  0  0  0  0
  3 24  2  0  0  0  0
  5 29  2  0  0  0  0
  6 12  1  0  0  0  0
  7  8  1  0  0  0  0
  7  6  1  0  0  0  0
  8  9  1  0  0  0  0
  9 10  1  0  0  0  0
  9 37  1  0  0  0  0
 10 11  1  1  0  0  0
 12 29  1  6  0  0  0
 12 10  1  0  0  0  0
 12  2  1  0  0  0  0
 13 22  1  0  0  0  0
 14 13  2  0  0  0  0
 14 16  1  0  0  0  0
 15 14  1  0  0  0  0
 16 18  2  0  0  0  0
 17 16  1  0  0  0  0
 18 20  1  0  0  0  0
 18 19  1  0  0  0  0
 20 21  1  0  0  0  0
 22 23  1  0  0  0  0
 22 20  2  0  0  0  0
 24 25  1  0  0  0  0
 25 28  1  0  0  0  0
 25 26  1  0  0  0  0
 25 27  1  0  0  0  0
 29  4  1  0  0  0  0
 30 32  1  0  0  0  0
 30  4  1  0  0  0  0
 31 30  1  0  0  0  0
 33 30  1  0  0  0  0
 34  6  1  0  0  0  0
 35  7  1  0  0  0  0
 36  8  1  0  0  0  0
M  END
