3
q = 0.0, confidence = 0.988

 41 43  0  0  1  0  0  0  0  0999 V2000
   -1.1056   -0.1729    0.8164 N   0  0  0  0  0  0  0  0  0  0  0  0
   -1.8772    1.7798    1.9891 N   0  0  0  0  0  0  0  0  0  0  0  0
    0.1837    0.1128    1.0717 C   0  0  0  0  0  2  0  0  0  0  0  0
    0.3704    1.0526    2.1608 C   0  0  0  0  0  3  0  0  0  0  0  0
   -0.5822    2.0419    2.3817 C   0  0  1  0  0  3  0  0  0  0  0  0
   -2.6902    2.7592    1.2542 C   0  0  0  0  0  0  0  0  0  0  0  0
   -2.4940    2.6477   -0.2473 C   0  0  0  0  0  0  0  0  0  0  0  0
   -1.2151    2.8394   -0.8123 C   0  0  0  0  0  0  0  0  0  0  0  0
   -1.0050    2.6398   -2.1824 C   0  0  0  0  0  0  0  0  0  0  0  0
   -2.0720    2.2554   -3.0131 C   0  0  0  0  0  0  0  0  0  0  0  0
   -3.3504    2.0773   -2.4643 C   0  0  0  0  0  0  0  0  0  0  0  0
   -3.5575    2.2676   -1.0867 C   0  0  0  0  0  0  0  0  0  0  0  0
   -2.1052    0.3709    1.7543 C   0  0  0  0  0  0  0  0  0  0  0  0
   -1.5995   -0.8432   -0.3921 C   0  0  0  0  0  0  0  0  0  0  0  0
   -2.6959   -1.8409   -0.0970 C   0  0  0  0  0  0  0  0  0  0  0  0
   -2.4401   -2.9566    0.7271 C   0  0  0  0  0  0  0  0  0  0  0  0
   -3.4571   -3.8793    1.0071 C   0  0  0  0  0  0  0  0  0  0  0  0
   -4.7420   -3.7015    0.4656 C   0  0  0  0  0  0  0  0  0  0  0  0
   -5.0039   -2.5974   -0.3593 C   0  0  0  0  0  0  0  0  0  0  0  0
   -3.9856   -1.6707   -0.6356 C   0  0  0  0  0  0  0  0  0  0  0  0
   -0.2378    3.3910    2.9442 C   0  0  0  0  0  0  0  0  0  0  0  0
    1.3767    1.1951    2.5735 H   0  0  0  0  0  0  0  0  0  0  0  0
   -3.7579    2.6045    1.5129 H   0  0  0  0  0  0  0  0  0  0  0  0
   -2.4127    3.7674    1.6184 H   0  0  0  0  0  0  0  0  0  0  0  0
   -0.3625    3.1182   -0.1749 H   0  0  0  0  0  0  0  0  0  0  0  0
    0.0030    2.7720   -2.6017 H   0  0  0  0  0  0  0  0  0  0  0  0
   -1.8998    2.0858   -4.0862 H   0  0  0  0  0  0  0  0  0  0  0  0
   -4.1914    1.7773   -3.1079 H   0  0  0  0  0  0  0  0  0  0  0  0
   -4.5593    2.1099   -0.6549 H   0  0  0  0  0  0  0  0  0  0  0  0
   -1.9882   -0.1643    2.7229 H   0  0  0  0  0  0  0  0  0  0  0  0
   -3.1219    0.2019    1.3581 H   0  0  0  0  0  0  0  0  0  0  0  0
   -1.9530   -0.0781   -1.1154 H   0  0  0  0  0  0  0  0  0  0  0  0
   -0.7272   -1.3457   -0.8461 H   0  0  0  0  0  0  0  0  0  0  0  0
   -1.4296   -3.1068    1.1379 H   0  0  0  0  0  0  0  0  0  0  0  0
   -3.2445   -4.7495    1.6465 H   0  0  0  0  0  0  0  0  0  0  0  0
   -5.5385   -4.4287    0.6847 H   0  0  0  0  0  0  0  0  0  0  0  0
   -6.0067   -2.4555   -0.7904 H   0  0  0  0  0  0  0  0  0  0  0  0
   -4.1858   -0.8011   -1.2820 H   0  0  0  0  0  0  0  0  0  0  0  0
    0.7242    3.3318    3.4867 H   0  0  0  0  0  0  0  0  0  0  0  0
   -0.1062    4.1500    2.1437 H   0  0  0  0  0  0  0  0  0  0  0  0
   -1.0198    3.7608    3.6375 H   0  0  0  0  0  0  0  0  0  0  0  0
  1  3  1  0  0  0  0
  1 13  1  0  0  0  0
  2  5  1  0  0  0  0
  3  4  1  0  0  0  0
  4  5  1  0  0  0  0
  4 22  1  0  0  0  0
  5 21  1  6  0  0  0
  6 23  1  0  0  0  0
  6 24  1  0  0  0  0
  6  2  1  0  0  0  0
  7  6  1  0  0  0  0
  8  7  1  0  0  0  0
  8 25  1  0  0  0  0
  9  8  2  0  0  0  0
 10 11  2  0  0  0  0
 10  9  1  0  0  0  0
 11 12  1  0  0  0  0
 12 29  1  0  0  0  0
 12  7  2  0  0  0  0
 13  2  1  0  0  0  0
 13 30  1  0  0  0  0
 14 15  1  0  0  0  0
 14  1  1  0  0  0  0
 15 16  1  0  0  0  0
 16 17  2  0  0  0  0
 16 34  1  0  0  0  0
 17 35  1  0  0  0  0
 18 36  1  0  0  0  0
 18 17  1  0  0  0  0
 19 18  2  0  0  0  0
 20 19  1  0  0  0  0
 20 15  2  0  0  0  0
 21 39  1  0  0  0  0
 21 41  1  0  0  0  0
 26  9  1  0  0  0  0
 27 10  1  0  0  0  0
 28 11  1  0  0  0  0
 31 13  1  0  0  0  0
 32 14  1  0  0  0  0
 33 14  1  0  0  0  0
 37 19  1  0  0  0  0
 38 20  1  0  0  0  0
 40 21  1  0  0  0  0
M  END
