3
q = -1.0

 38 39  0  0  0  0  0  0  0  0999 V2000
    0.1023    1.5520    0.0559 P   0  0  0  0  0  0  0  0  0  0  0  0
    1.7243    1.2274    0.4724 O   0  0  0  0  0  0  0  0  0  0  0  0
    1.0744   -0.9551   -0.2887 C   0  0  0  0  0  3  0  0  0  0  0  0
    2.0812   -0.0418    0.0404 C   0  0  0  0  0  0  0  0  0  0  0  0
    3.4742   -0.3341   -0.0553 C   0  0  0  0  0  0  0  0  0  0  0  0
    4.4879    0.6033    0.3001 C   0  0  0  0  0  0  0  0  0  0  0  0
    4.1825    1.5961    0.6607 H   0  0  0  0  0  0  0  0  0  0  0  0
    5.8295    0.2641    0.1963 C   0  0  0  0  0  0  0  0  0  0  0  0
    6.6042    0.9948    0.4753 H   0  0  0  0  0  0  0  0  0  0  0  0
    6.2110   -1.0233   -0.2703 C   0  0  0  0  0  0  0  0  0  0  0  0
    7.2781   -1.2813   -0.3500 H   0  0  0  0  0  0  0  0  0  0  0  0
    5.2429   -1.9508   -0.6283 C   0  0  0  0  0  0  0  0  0  0  0  0
    5.5349   -2.9474   -0.9958 H   0  0  0  0  0  0  0  0  0  0  0  0
    3.8543   -1.6414   -0.5360 C   0  0  0  0  0  0  0  0  0  0  0  0
    2.8327   -2.5583   -0.9184 C   0  0  0  0  0  0  0  0  0  0  0  0
    3.1243   -3.5424   -1.3178 H   0  0  0  0  0  0  0  0  0  0  0  0
    1.4901   -2.2172   -0.8068 C   0  0  0  0  0  0  0  0  0  0  0  0
    0.7234   -2.9307   -1.1452 H   0  0  0  0  0  0  0  0  0  0  0  0
    0.3295    2.4000   -1.5926 C   0  0  0  0  0  0  0  0  0  0  0  0
    0.5414    1.5252   -2.2452 H   0  0  0  0  0  0  0  0  0  0  0  0
    1.5171    3.3650   -1.6165 C   0  0  0  0  0  0  0  0  0  0  0  0
    1.6773    3.7252   -2.6540 H   0  0  0  0  0  0  0  0  0  0  0  0
    2.4499    2.8789   -1.2733 H   0  0  0  0  0  0  0  0  0  0  0  0
    1.3430    4.2634   -0.9867 H   0  0  0  0  0  0  0  0  0  0  0  0
   -0.9759    3.0345   -2.0842 C   0  0  0  0  0  0  0  0  0  0  0  0
   -1.2593    3.9253   -1.4857 H   0  0  0  0  0  0  0  0  0  0  0  0
   -1.8033    2.2979   -2.0722 H   0  0  0  0  0  0  0  0  0  0  0  0
   -0.8511    3.3722   -3.1338 H   0  0  0  0  0  0  0  0  0  0  0  0
   -0.2290    2.9444    1.2642 C   0  0  0  0  0  0  0  0  0  0  0  0
    0.2433    3.8224    0.7714 H   0  0  0  0  0  0  0  0  0  0  0  0
    0.4632    2.7367    2.6155 C   0  0  0  0  0  0  0  0  0  0  0  0
    0.2892    3.6196    3.2652 H   0  0  0  0  0  0  0  0  0  0  0  0
    1.5529    2.5935    2.4978 H   0  0  0  0  0  0  0  0  0  0  0  0
    0.0662    1.8490    3.1480 H   0  0  0  0  0  0  0  0  0  0  0  0
   -1.7307    3.2261    1.4107 C   0  0  0  0  0  0  0  0  0  0  0  0
   -2.2227    2.4578    2.0372 H   0  0  0  0  0  0  0  0  0  0  0  0
   -2.2598    3.2527    0.4389 H   0  0  0  0  0  0  0  0  0  0  0  0
   -1.8849    4.2055    1.9085 H   0  0  0  0  0  0  0  0  0  0  0  0
  1  2  1  0  0  0  0
  1 29  1  0  0  0  0
  3  4  1  0  0  0  0
  4  2  1  0  0  0  0
  5  4  2  0  0  0  0
  5  6  1  0  0  0  0
  6  7  1  0  0  0  0
  8  6  2  0  0  0  0
  8  9  1  0  0  0  0
 10  8  1  0  0  0  0
 11 10  1  0  0  0  0
 12 14  1  0  0  0  0
 12 10  2  0  0  0  0
 13 12  1  0  0  0  0
 14  5  1  0  0  0  0
 15 17  1  0  0  0  0
 15 14  2  0  0  0  0
 16 15  1  0  0  0  0
 17  3  2  0  0  0  0
 18 17  1  0  0  0  0
 19  1  1  0  0  0  0
 20 19  1  0  0  0  0
 21 19  1  0  0  0  0
 21 23  1  0  0  0  0
 21 24  1  0  0  0  0
 22 21  1  0  0  0  0
 25 27  1  0  0  0  0
 25 19  1  0  0  0  0
 25 26  1  0  0  0  0
 28 25  1  0  0  0  0
 29 35  1  0  0  0  0
 29 31  1  0  0  0  0
 30 29  1  0  0  0  0
 31 34  1  0  0  0  0
 31 32  1  0  0  0  0
 33 31  1  0  0  0  0
 35 38  1  0  0  0  0
 35 36  1  0  0  0  0
 37 35  1  0  0  0  0
M  END
