4
q = 0.0, confidence = 0.998

 33 33  0  0  0  0  0  0  0  0999 V2000
    3.3424   -2.0171    0.9429 O   0  0  0  0  0  0  0  0  0  0  0  0
    4.5359   -0.6020   -0.3869 O   0  0  0  0  0  0  0  0  0  0  0  0
    0.9936   -1.3370   -0.4261 N   0  0  0  0  0  0  0  0  0  0  0  0
    0.0000   -0.4961    0.0002 C   0  0  0  0  0  2  0  0  0  0  0  0
    0.6314   -2.6687   -0.2630 C   0  0  0  0  0  0  0  0  0  0  0  0
    1.3021   -3.4930   -0.5175 H   0  0  0  0  0  0  0  0  0  0  0  0
    2.2709   -0.8772   -0.9260 C   0  0  0  0  0  0  0  0  0  0  0  0
    2.2174    0.2246   -1.0376 H   0  0  0  0  0  0  0  0  0  0  0  0
    2.4736   -1.3030   -1.9313 H   0  0  0  0  0  0  0  0  0  0  0  0
    3.4230   -1.2462    0.0075 C   0  0  0  0  0  0  0  0  0  0  0  0
    5.7431   -0.8664    0.3742 C   0  0  0  0  0  0  0  0  0  0  0  0
    5.4704   -0.9572    1.4447 H   0  0  0  0  0  0  0  0  0  0  0  0
    6.3609    0.0406    0.2304 H   0  0  0  0  0  0  0  0  0  0  0  0
    6.4486   -2.1165   -0.1218 C   0  0  0  0  0  0  0  0  0  0  0  0
    5.8289   -3.0161    0.0605 H   0  0  0  0  0  0  0  0  0  0  0  0
    7.4070   -2.2472    0.4198 H   0  0  0  0  0  0  0  0  0  0  0  0
    6.6720   -2.0459   -1.2048 H   0  0  0  0  0  0  0  0  0  0  0  0
   -3.3420   -2.0171   -0.9430 O   0  0  0  0  0  0  0  0  0  0  0  0
   -4.5358   -0.6023    0.3868 O   0  0  0  0  0  0  0  0  0  0  0  0
   -0.9935   -1.3371    0.4264 N   0  0  0  0  0  0  0  0  0  0  0  0
   -0.6311   -2.6687    0.2636 C   0  0  0  0  0  0  0  0  0  0  0  0
   -1.3017   -3.4931    0.5181 H   0  0  0  0  0  0  0  0  0  0  0  0
   -2.2708   -0.8774    0.9262 C   0  0  0  0  0  0  0  0  0  0  0  0
   -2.2174    0.2244    1.0379 H   0  0  0  0  0  0  0  0  0  0  0  0
   -2.4737   -1.3033    1.9314 H   0  0  0  0  0  0  0  0  0  0  0  0
   -3.4228   -1.2464   -0.0075 C   0  0  0  0  0  0  0  0  0  0  0  0
   -5.7429   -0.8666   -0.3746 C   0  0  0  0  0  0  0  0  0  0  0  0
   -5.4699   -0.9572   -1.4450 H   0  0  0  0  0  0  0  0  0  0  0  0
   -6.3607    0.0403   -0.2307 H   0  0  0  0  0  0  0  0  0  0  0  0
   -6.4484   -2.1169    0.1211 C   0  0  0  0  0  0  0  0  0  0  0  0
   -5.8286   -3.0164   -0.0613 H   0  0  0  0  0  0  0  0  0  0  0  0
   -7.4066   -2.2476   -0.4207 H   0  0  0  0  0  0  0  0  0  0  0  0
   -6.6720   -2.0464    1.2041 H   0  0  0  0  0  0  0  0  0  0  0  0
  2 10  1  0  0  0  0
  2 11  1  0  0  0  0
  3  5  1  0  0  0  0
  3  4  1  0  0  0  0
  4 20  1  0  0  0  0
  5 21  2  0  0  0  0
  6  5  1  0  0  0  0
  7  3  1  0  0  0  0
  7 10  1  0  0  0  0
  8  7  1  0  0  0  0
  9  7  1  0  0  0  0
 10  1  2  0  0  0  0
 11 12  1  0  0  0  0
 13 11  1  0  0  0  0
 14 15  1  0  0  0  0
 14 11  1  0  0  0  0
 14 16  1  0  0  0  0
 17 14  1  0  0  0  0
 18 26  2  0  0  0  0
 20 23  1  0  0  0  0
 21 20  1  0  0  0  0
 21 22  1  0  0  0  0
 23 24  1  0  0  0  0
 23 25  1  0  0  0  0
 26 19  1  0  0  0  0
 26 23  1  0  0  0  0
 27 29  1  0  0  0  0
 27 30  1  0  0  0  0
 27 19  1  0  0  0  0
 28 27  1  0  0  0  0
 30 33  1  0  0  0  0
 31 30  1  0  0  0  0
 32 30  1  0  0  0  0
M  END
