4
q = -1.0

 15 15  0  0  0  0  0  0  0  0999 V2000
    0.2033    1.6480    2.3343 O   0  0  0  0  0  0  0  0  0  0  0  0
    0.4843    2.1298    0.0950 N   0  0  0  0  0  0  0  0  0  0  0  0
    0.5274    1.6636   -0.8154 H   0  0  0  0  0  0  0  0  0  0  0  0
    0.2114    1.2820    1.1536 C   0  0  0  0  0  3  0  0  0  0  0  0
    0.8112    3.4953    0.0846 C   0  0  0  0  0  0  0  0  0  0  0  0
    0.7770    4.3046    1.2426 C   0  0  0  0  0  0  0  0  0  0  0  0
    0.4914    3.8483    2.1981 H   0  0  0  0  0  0  0  0  0  0  0  0
    1.1117    5.6626    1.1440 C   0  0  0  0  0  0  0  0  0  0  0  0
    1.0820    6.2850    2.0518 H   0  0  0  0  0  0  0  0  0  0  0  0
    1.4798    6.2346   -0.0842 C   0  0  0  0  0  0  0  0  0  0  0  0
    1.7397    7.3018   -0.1468 H   0  0  0  0  0  0  0  0  0  0  0  0
    1.5144    5.4261   -1.2327 C   0  0  0  0  0  0  0  0  0  0  0  0
    1.8055    5.8554   -2.2038 H   0  0  0  0  0  0  0  0  0  0  0  0
    1.1855    4.0684   -1.1535 C   0  0  0  0  0  0  0  0  0  0  0  0
    1.2268    3.4294   -2.0500 H   0  0  0  0  0  0  0  0  0  0  0  0
  2  4  1  0  0  0  0
  3  2  1  0  0  0  0
  4  1  2  0  0  0  0
  5  2  1  0  0  0  0
  5  6  1  0  0  0  0
  6  7  1  0  0  0  0
  8  6  2  0  0  0  0
  8  9  1  0  0  0  0
 10  8  1  0  0  0  0
 11 10  1  0  0  0  0
 12 14  1  0  0  0  0
 12 10  2  0  0  0  0
 13 12  1  0  0  0  0
 14  5  2  0  0  0  0
 15 14  1  0  0  0  0
M  END
