2
q = -1.0, confidence = 0.0

 19 19  0  0  0  0  0  0  0  0999 V2000
    0.7008   -0.4281    2.2895 O   0  0  0  0  0  0  0  0  0  0  0  0
    0.8978   -0.6082    1.1120 C   0  0  0  0  0  3  0  0  0  0  0  0
    2.2457   -0.4579    0.4254 C   0  0  0  0  0  0  0  0  0  0  0  0
    2.1035   -0.1137   -0.6188 H   0  0  0  0  0  0  0  0  0  0  0  0
    2.6235   -1.5012    0.3242 H   0  0  0  0  0  0  0  0  0  0  0  0
    5.5514   -0.3991    0.6579 C   0  0  0  0  0  0  0  0  0  0  0  0
    5.3828   -1.2345    1.3563 H   0  0  0  0  0  0  0  0  0  0  0  0
    4.5429    0.5711    0.4860 C   0  0  0  0  0  0  0  0  0  0  0  0
    6.7616   -0.3104   -0.0451 C   0  0  0  0  0  0  0  0  0  0  0  0
    7.5387   -1.0754    0.1054 H   0  0  0  0  0  0  0  0  0  0  0  0
    3.2204    0.4451    1.2024 C   0  0  0  0  0  0  0  0  0  0  0  0
    2.7609    1.4469    1.3336 H   0  0  0  0  0  0  0  0  0  0  0  0
    3.3584    0.0251    2.2189 H   0  0  0  0  0  0  0  0  0  0  0  0
    6.9834    0.7517   -0.9364 C   0  0  0  0  0  0  0  0  0  0  0  0
    7.9336    0.8229   -1.4871 H   0  0  0  0  0  0  0  0  0  0  0  0
    5.9870    1.7233   -1.1186 C   0  0  0  0  0  0  0  0  0  0  0  0
    6.1537    2.5613   -1.8129 H   0  0  0  0  0  0  0  0  0  0  0  0
    4.7774    1.6306   -0.4138 C   0  0  0  0  0  0  0  0  0  0  0  0
    3.9981    2.3968   -0.5579 H   0  0  0  0  0  0  0  0  0  0  0  0
  2  1  2  0  0  0  0
  3  2  1  0  0  0  0
  3 11  1  0  0  0  0
  4  3  1  0  0  0  0
  5  3  1  0  0  0  0
  6  7  1  0  0  0  0
  8  6  1  0  0  0  0
  8 11  1  0  0  0  0
  9 10  1  0  0  0  0
  9  6  2  0  0  0  0
 11 12  1  0  0  0  0
 11 13  1  0  0  0  0
 14  9  1  0  0  0  0
 15 14  1  0  0  0  0
 16 14  2  0  0  0  0
 16 18  1  0  0  0  0
 17 16  1  0  0  0  0
 18  8  2  0  0  0  0
 19 18  1  0  0  0  0
M  END
