3
q = 0.0, confidence = 0.996

 49 51  0  0  1  0  0  0  0  0999 V2000
    1.9554    0.6738   -0.0687 N   0  0  0  0  0  0  0  0  0  0  0  0
    2.0478   -1.5780    0.4661 N   0  0  0  0  0  0  0  0  0  0  0  0
    1.2719   -0.4705    0.2306 C   0  0  0  0  0  2  0  0  0  0  0  0
    3.4225    0.6901   -0.3214 C   0  0  1  0  0  0  0  0  0  0  0  0
    3.6233    1.5344   -1.0095 H   0  0  0  0  0  0  0  0  0  0  0  0
    4.1691    0.7998    1.0156 C   0  0  0  0  0  0  0  0  0  0  0  0
    3.7109    1.5601    1.6735 H   0  0  0  0  0  0  0  0  0  0  0  0
    5.2178    1.1144    0.8488 H   0  0  0  0  0  0  0  0  0  0  0  0
    4.0788   -0.6462    1.5703 C   0  0  0  0  0  0  0  0  0  0  0  0
    5.0636   -1.0151    1.9192 H   0  0  0  0  0  0  0  0  0  0  0  0
    3.3811   -0.7303    2.4263 H   0  0  0  0  0  0  0  0  0  0  0  0
    3.5466   -1.5237    0.3900 C   0  0  1  0  0  0  0  0  0  0  0  0
    4.1658   -2.9181    0.3897 C   0  0  0  0  0  0  0  0  0  0  0  0
    3.9862   -3.4505    1.3438 H   0  0  0  0  0  0  0  0  0  0  0  0
    5.2616   -2.8226    0.2761 H   0  0  0  0  0  0  0  0  0  0  0  0
    3.7919   -3.5485   -0.4400 H   0  0  0  0  0  0  0  0  0  0  0  0
    3.8849   -0.6727   -0.8851 C   0  0  0  0  0  0  0  0  0  0  0  0
    5.3974   -0.6374   -1.1809 C   0  0  0  0  0  0  0  0  0  0  0  0
    5.7125   -1.5734   -1.6825 H   0  0  0  0  0  0  0  0  0  0  0  0
    6.0293   -0.5122   -0.2813 H   0  0  0  0  0  0  0  0  0  0  0  0
    5.6291    0.1973   -1.8737 H   0  0  0  0  0  0  0  0  0  0  0  0
    3.1665   -1.1355   -2.1568 C   0  0  0  0  0  0  0  0  0  0  0  0
    3.4252   -0.4697   -3.0047 H   0  0  0  0  0  0  0  0  0  0  0  0
    2.0643   -1.1648   -2.0710 H   0  0  0  0  0  0  0  0  0  0  0  0
    3.5065   -2.1546   -2.4344 H   0  0  0  0  0  0  0  0  0  0  0  0
    1.3685   -2.8652    0.5427 C   0  0  0  0  0  0  0  0  0  0  0  0
    0.3708   -2.7357    1.0188 H   0  0  0  0  0  0  0  0  0  0  0  0
    1.9041   -3.5528    1.2210 H   0  0  0  0  0  0  0  0  0  0  0  0
    1.2375   -3.3377   -0.4530 H   0  0  0  0  0  0  0  0  0  0  0  0
    1.3394    1.9691   -0.0421 C   0  0  0  0  0  0  0  0  0  0  0  0
    1.0044    2.5795    1.1921 C   0  0  0  0  0  0  0  0  0  0  0  0
    0.4339    3.8677    1.1570 C   0  0  0  0  0  0  0  0  0  0  0  0
    0.1638    4.3463    2.1123 H   0  0  0  0  0  0  0  0  0  0  0  0
    0.1805    4.5479   -0.0462 C   0  0  0  0  0  0  0  0  0  0  0  0
    0.4954    3.8954   -1.2533 C   0  0  0  0  0  0  0  0  0  0  0  0
    0.2667    4.3896   -2.2115 H   0  0  0  0  0  0  0  0  0  0  0  0
    1.0654    2.6113   -1.2773 C   0  0  0  0  0  0  0  0  0  0  0  0
    1.1150    1.8612    2.5092 C   0  0  0  0  0  0  0  0  0  0  0  0
    1.1811    2.5788    3.3494 H   0  0  0  0  0  0  0  0  0  0  0  0
    1.9825    1.1792    2.5577 H   0  0  0  0  0  0  0  0  0  0  0  0
    0.2262    1.2130    2.6703 H   0  0  0  0  0  0  0  0  0  0  0  0
   -0.4034    5.9385   -0.0476 C   0  0  0  0  0  0  0  0  0  0  0  0
   -0.9823    6.1402    0.8749 H   0  0  0  0  0  0  0  0  0  0  0  0
   -1.0697    6.1002   -0.9184 H   0  0  0  0  0  0  0  0  0  0  0  0
    0.3979    6.7066   -0.1066 H   0  0  0  0  0  0  0  0  0  0  0  0
    1.2763    1.8925   -2.5831 C   0  0  0  0  0  0  0  0  0  0  0  0
    0.8844    2.4902   -3.4276 H   0  0  0  0  0  0  0  0  0  0  0  0
    0.7595    0.9098   -2.5742 H   0  0  0  0  0  0  0  0  0  0  0  0
    2.3474    1.6875   -2.7876 H   0  0  0  0  0  0  0  0  0  0  0  0
  1 30  1  0  0  0  0
  1  3  1  0  0  0  0
  2 26  1  0  0  0  0
  3  2  1  0  0  0  0
  4  5  1  6  0  0  0
  4  1  1  0  0  0  0
  4  6  1  0  0  0  0
  6  9  1  0  0  0  0
  6  7  1  0  0  0  0
  8  6  1  0  0  0  0
  9 10  1  0  0  0  0
  9 11  1  0  0  0  0
 12 13  1  6  0  0  0
 12  2  1  0  0  0  0
 12  9  1  0  0  0  0
 13 14  1  0  0  0  0
 15 13  1  0  0  0  0
 16 13  1  0  0  0  0
 17  4  1  0  0  0  0
 17 12  1  0  0  0  0
 18 17  1  0  0  0  0
 18 20  1  0  0  0  0
 19 18  1  0  0  0  0
 21 18  1  0  0  0  0
 22 24  1  0  0  0  0
 22 17  1  0  0  0  0
 23 22  1  0  0  0  0
 25 22  1  0  0  0  0
 26 27  1  0  0  0  0
 26 28  1  0  0  0  0
 29 26  1  0  0  0  0
 30 31  1  0  0  0  0
 31 38  1  0  0  0  0
 32 31  2  0  0  0  0
 32 33  1  0  0  0  0
 34 32  1  0  0  0  0
 35 34  2  0  0  0  0
 36 35  1  0  0  0  0
 37 35  1  0  0  0  0
 37 30  2  0  0  0  0
 38 40  1  0  0  0  0
 38 41  1  0  0  0  0
 38 39  1  0  0  0  0
 42 34  1  0  0  0  0
 42 43  1  0  0  0  0
 44 42  1  0  0  0  0
 45 42  1  0  0  0  0
 46 48  1  0  0  0  0
 46 37  1  0  0  0  0
 47 46  1  0  0  0  0
 49 46  1  0  0  0  0
M  END
