1
q = -1.0, confidence = 0.0

 30 30  0  0  0  0  0  0  0  0999 V2000
   -1.4933   -0.2994   -0.1666 C   0  0  0  0  0  3  0  0  0  0  0  0
   -0.2569   -0.2250   -0.1770 C   0  0  0  0  0  0  0  0  0  0  0  0
    1.1622   -0.1288   -0.1861 C   0  0  0  0  0  0  0  0  0  0  0  0
    1.9884   -1.2784   -0.1606 C   0  0  0  0  0  0  0  0  0  0  0  0
    1.5616   -2.2900   -0.1324 H   0  0  0  0  0  0  0  0  0  0  0  0
    3.3851   -1.1203   -0.1706 C   0  0  0  0  0  0  0  0  0  0  0  0
    4.0064    0.0683   -0.2014 N   0  0  0  0  0  0  0  0  0  0  0  0
    3.2303    1.1646   -0.2257 C   0  0  0  0  0  0  0  0  0  0  0  0
    1.8249    1.1247   -0.2199 C   0  0  0  0  0  0  0  0  0  0  0  0
    1.2487    2.0581   -0.2404 H   0  0  0  0  0  0  0  0  0  0  0  0
    4.2193   -2.3787   -0.1410 C   0  0  0  0  0  0  0  0  0  0  0  0
    3.7343   -3.4996   -0.0929 O   0  0  0  0  0  0  0  0  0  0  0  0
    5.5394   -2.1193   -0.1792 O   0  0  0  0  0  0  0  0  0  0  0  0
    6.4134   -3.2667   -0.1405 C   0  0  0  0  0  0  0  0  0  0  0  0
    7.3446   -2.9224   -0.6312 H   0  0  0  0  0  0  0  0  0  0  0  0
    5.9616   -4.0837   -0.7397 H   0  0  0  0  0  0  0  0  0  0  0  0
    6.6704   -3.7219    1.2875 C   0  0  0  0  0  0  0  0  0  0  0  0
    7.0678   -2.8897    1.9019 H   0  0  0  0  0  0  0  0  0  0  0  0
    7.4123   -4.5459    1.2956 H   0  0  0  0  0  0  0  0  0  0  0  0
    5.7367   -4.0952    1.7512 H   0  0  0  0  0  0  0  0  0  0  0  0
    3.9751    2.4786   -0.2573 C   0  0  0  0  0  0  0  0  0  0  0  0
    5.1830    2.5971   -0.2464 O   0  0  0  0  0  0  0  0  0  0  0  0
    3.1079    3.5312   -0.3038 O   0  0  0  0  0  0  0  0  0  0  0  0
    3.7078    4.8424   -0.3201 C   0  0  0  0  0  0  0  0  0  0  0  0
    2.9560    5.4903   -0.8128 H   0  0  0  0  0  0  0  0  0  0  0  0
    4.6247    4.8067   -0.9433 H   0  0  0  0  0  0  0  0  0  0  0  0
    4.0309    5.3280    1.0843 C   0  0  0  0  0  0  0  0  0  0  0  0
    3.1283    5.3150    1.7276 H   0  0  0  0  0  0  0  0  0  0  0  0
    4.4167    6.3669    1.0483 H   0  0  0  0  0  0  0  0  0  0  0  0
    4.8079    4.6886    1.5461 H   0  0  0  0  0  0  0  0  0  0  0  0
  2  1  3  0  0  0  0
  3  2  1  0  0  0  0
  3  4  1  0  0  0  0
  4  5  1  0  0  0  0
  6  4  2  0  0  0  0
  6 11  1  0  0  0  0
  7  6  1  0  0  0  0
  8  9  1  0  0  0  0
  8  7  2  0  0  0  0
  9  3  2  0  0  0  0
 10  9  1  0  0  0  0
 11 12  2  0  0  0  0
 13 11  1  0  0  0  0
 13 14  1  0  0  0  0
 14 17  1  0  0  0  0
 15 14  1  0  0  0  0
 16 14  1  0  0  0  0
 17 19  1  0  0  0  0
 17 20  1  0  0  0  0
 17 18  1  0  0  0  0
 21 22  2  0  0  0  0
 21  8  1  0  0  0  0
 23 21  1  0  0  0  0
 24 23  1  0  0  0  0
 24 27  1  0  0  0  0
 25 24  1  0  0  0  0
 26 24  1  0  0  0  0
 27 30  1  0  0  0  0
 27 28  1  0  0  0  0
 29 27  1  0  0  0  0
M  END
