1
q = 0.0, confidence = 0.986

 24 24  0  0  0  0  0  0  0  0999 V2000
   -0.4721   -1.9828   -0.0320 C   0  0  0  0  0  2  0  0  0  0  0  0
    0.3092   -3.0152   -0.4831 N   0  0  0  0  0  0  0  0  0  0  0  0
    1.6502   -2.8421   -0.9859 C   0  0  0  0  0  0  0  0  0  0  0  0
    1.7008   -1.8944   -1.5511 H   0  0  0  0  0  0  0  0  0  0  0  0
    1.9123   -3.6945   -1.6377 H   0  0  0  0  0  0  0  0  0  0  0  0
    2.8701   -2.7576    0.3346 Cl  0  0  0  0  0  0  0  0  0  0  0  0
   -0.3257   -4.2380   -0.2977 C   0  0  0  0  0  0  0  0  0  0  0  0
    0.1369   -5.1905   -0.5736 H   0  0  0  0  0  0  0  0  0  0  0  0
   -1.5438   -3.9565    0.2624 C   0  0  0  0  0  0  0  0  0  0  0  0
   -2.3636   -4.6175    0.5597 H   0  0  0  0  0  0  0  0  0  0  0  0
   -1.6069   -2.5779    0.4204 N   0  0  0  0  0  0  0  0  0  0  0  0
   -2.7718   -1.8424    0.9298 C   0  0  0  0  0  0  0  0  0  0  0  0
   -2.3848   -1.0265    1.5729 H   0  0  0  0  0  0  0  0  0  0  0  0
   -3.3386   -2.5342    1.5838 H   0  0  0  0  0  0  0  0  0  0  0  0
   -3.6550   -1.2788   -0.1842 C   0  0  0  0  0  0  0  0  0  0  0  0
   -4.0287   -2.1137   -0.8162 H   0  0  0  0  0  0  0  0  0  0  0  0
   -3.0287   -0.6376   -0.8427 H   0  0  0  0  0  0  0  0  0  0  0  0
   -4.8293   -0.4612    0.3617 C   0  0  0  0  0  0  0  0  0  0  0  0
   -5.4353   -1.0924    1.0484 H   0  0  0  0  0  0  0  0  0  0  0  0
   -4.4305    0.3725    0.9814 H   0  0  0  0  0  0  0  0  0  0  0  0
   -5.7183    0.1079   -0.7434 C   0  0  0  0  0  0  0  0  0  0  0  0
   -6.1566   -0.6984   -1.3666 H   0  0  0  0  0  0  0  0  0  0  0  0
   -5.1414    0.7748   -1.4166 H   0  0  0  0  0  0  0  0  0  0  0  0
   -6.5557    0.6985   -0.3233 H   0  0  0  0  0  0  0  0  0  0  0  0
  1 11  1  0  0  0  0
  2  7  1  0  0  0  0
  2  1  1  0  0  0  0
  3  2  1  0  0  0  0
  3  6  1  0  0  0  0
  4  3  1  0  0  0  0
  5  3  1  0  0  0  0
  7  9  2  0  0  0  0
  8  7  1  0  0  0  0
  9 11  1  0  0  0  0
  9 10  1  0  0  0  0
 11 12  1  0  0  0  0
 12 13  1  0  0  0  0
 12 14  1  0  0  0  0
 15 18  1  0  0  0  0
 15 12  1  0  0  0  0
 16 15  1  0  0  0  0
 17 15  1  0  0  0  0
 18 20  1  0  0  0  0
 18 19  1  0  0  0  0
 21 24  1  0  0  0  0
 21 18  1  0  0  0  0
 22 21  1  0  0  0  0
 23 21  1  0  0  0  0
M  END
