5
q = -1.0

 16 16  0  0  0  0  0  0  0  0999 V2000
    0.1059   -2.3503    0.7354 F   0  0  0  0  0  0  0  0  0  0  0  0
    2.6258   -3.1564    0.5988 F   0  0  0  0  0  0  0  0  0  0  0  0
    4.6557   -1.3877    0.0149 F   0  0  0  0  0  0  0  0  0  0  0  0
    4.0675    1.2220   -0.4111 F   0  0  0  0  0  0  0  0  0  0  0  0
    0.6420   -0.0613    0.2005 C   0  0  0  0  0  3  0  0  0  0  0  0
    1.0288   -1.3897    0.4362 C   0  0  0  0  0  0  0  0  0  0  0  0
    2.3494   -1.8646    0.3725 C   0  0  0  0  0  0  0  0  0  0  0  0
    3.3840   -0.9718    0.0695 C   0  0  0  0  0  0  0  0  0  0  0  0
    3.0477    0.3693   -0.1590 C   0  0  0  0  0  0  0  0  0  0  0  0
    1.7200    0.8322   -0.0902 C   0  0  0  0  0  0  0  0  0  0  0  0
    1.5349    2.3373   -0.2125 C   0  0  0  0  0  0  0  0  0  0  0  0
    1.9356    2.9876   -1.5180 C   0  0  0  0  0  0  0  0  0  0  0  0
    1.0771    2.9823    0.7197 O   0  0  0  0  0  0  0  0  0  0  0  0
    1.8753    4.0871   -1.4205 H   0  0  0  0  0  0  0  0  0  0  0  0
    2.9533    2.6754   -1.8206 H   0  0  0  0  0  0  0  0  0  0  0  0
    1.2344    2.6519   -2.3095 H   0  0  0  0  0  0  0  0  0  0  0  0
  3  8  1  0  0  0  0
  4  9  1  0  0  0  0
  5  6  1  0  0  0  0
  6  1  1  0  0  0  0
  7  6  2  0  0  0  0
  7  2  1  0  0  0  0
  8  7  1  0  0  0  0
  9 10  1  0  0  0  0
  9  8  2  0  0  0  0
 10  5  2  0  0  0  0
 11 10  1  0  0  0  0
 11 13  2  0  0  0  0
 12 14  1  0  0  0  0
 12 11  1  0  0  0  0
 15 12  1  0  0  0  0
 16 12  1  0  0  0  0
M  END
