6
q = -1.0, confidence = 0.0

 27 26  0  0  0  0  0  0  0  0999 V2000
   -2.1289   -2.8845    3.6109 C   0  0  0  0  0  0  0  0  0  0  0  0
   -0.9166   -2.0092    3.8487 C   0  0  0  0  0  0  0  0  0  0  0  0
   -0.2614   -1.7856    2.5735 O   0  0  0  0  0  0  0  0  0  0  0  0
    0.5279   -0.6909    2.4722 C   0  0  0  0  0  0  0  0  0  0  0  0
    0.7116    0.1120    3.3738 O   0  0  0  0  0  0  0  0  0  0  0  0
    1.0820   -0.5347    1.0966 C   0  0  0  0  0  3  0  0  0  0  0  0
    2.0421   -1.3719    0.6161 C   0  0  0  0  0  0  0  0  0  0  0  0
    2.5456   -2.3734    1.4046 O   0  0  0  0  0  0  0  0  0  0  0  0
    2.0493   -3.6899    1.1352 C   0  0  0  0  0  0  0  0  0  0  0  0
    2.6225   -1.1620   -0.7445 C   0  0  0  0  0  0  0  0  0  0  0  0
    2.3822   -0.1897   -1.4579 O   0  0  0  0  0  0  0  0  0  0  0  0
    3.4392   -2.1663   -1.1082 O   0  0  0  0  0  0  0  0  0  0  0  0
    4.0426   -2.0625   -2.4205 C   0  0  0  0  0  0  0  0  0  0  0  0
    4.8466   -3.3209   -2.6646 C   0  0  0  0  0  0  0  0  0  0  0  0
   -1.8453   -3.8415    3.1292 H   0  0  0  0  0  0  0  0  0  0  0  0
   -2.6166   -3.1207    4.5771 H   0  0  0  0  0  0  0  0  0  0  0  0
   -2.8729   -2.3695    2.9706 H   0  0  0  0  0  0  0  0  0  0  0  0
   -0.1814   -2.4878    4.5294 H   0  0  0  0  0  0  0  0  0  0  0  0
   -1.1795   -1.0254    4.2877 H   0  0  0  0  0  0  0  0  0  0  0  0
    2.2719   -3.9999    0.0931 H   0  0  0  0  0  0  0  0  0  0  0  0
    2.5665   -4.3683    1.8388 H   0  0  0  0  0  0  0  0  0  0  0  0
    0.9538   -3.7334    1.3108 H   0  0  0  0  0  0  0  0  0  0  0  0
    4.6689   -1.1461   -2.4479 H   0  0  0  0  0  0  0  0  0  0  0  0
    3.2357   -1.9202   -3.1704 H   0  0  0  0  0  0  0  0  0  0  0  0
    4.1983   -4.2195   -2.6489 H   0  0  0  0  0  0  0  0  0  0  0  0
    5.3378   -3.2673   -3.6559 H   0  0  0  0  0  0  0  0  0  0  0  0
    5.6332   -3.4469   -1.8953 H   0  0  0  0  0  0  0  0  0  0  0  0
  1  2  1  0  0  0  0
  1 16  1  0  0  0  0
  2 19  1  0  0  0  0
  2 18  1  0  0  0  0
  3  2  1  0  0  0  0
  4  3  1  0  0  0  0
  4  5  2  0  0  0  0
  6  4  1  0  0  0  0
  7  6  2  0  0  0  0
  7  8  1  0  0  0  0
  9 22  1  0  0  0  0
  9  8  1  0  0  0  0
  9 21  1  0  0  0  0
 10  7  1  0  0  0  0
 11 10  2  0  0  0  0
 12 10  1  0  0  0  0
 13 12  1  0  0  0  0
 14 25  1  0  0  0  0
 14 13  1  0  0  0  0
 14 27  1  0  0  0  0
 15  1  1  0  0  0  0
 17  1  1  0  0  0  0
 20  9  1  0  0  0  0
 23 13  1  0  0  0  0
 24 13  1  0  0  0  0
 26 14  1  0  0  0  0
M  END
