1
q = 0.0, confidence = 0.948

  6  5  0  0  0  0  0  0  0  0999 V2000
   -0.9917   -0.0035   -0.0956 C   0  0  0  0  0  1  0  0  0  0  0  0
   -2.1857   -0.0057   -0.1431 N   0  0  0  0  0  2  0  0  0  0  0  0
   -3.5695   -0.0028   -0.3804 C   0  0  0  0  0  0  0  0  0  0  0  0
   -4.1327   -1.0990    0.1858 F   0  0  0  0  0  0  0  0  0  0  0  0
   -4.1263    1.1020    0.1756 F   0  0  0  0  0  0  0  0  0  0  0  0
   -3.7826   -0.0072   -1.4746 H   0  0  0  0  0  0  0  0  0  0  0  0
  2  1  1  0  0  0  0
  3  2  1  0  0  0  0
  3  5  1  0  0  0  0
  3  4  1  0  0  0  0
  6  3  1  0  0  0  0
M  END
