2
q = -1.0

 12 11  0  0  0  0  0  0  0  0999 V2000
   -1.2950   -1.4653   -2.1423 C   0  0  0  0  0  3  0  0  0  0  0  0
   -1.8534   -0.1763   -1.9158 C   0  0  0  0  0  3  0  0  0  0  0  0
   -2.8201   -0.1085   -0.8735 C   0  0  0  0  0  3  0  0  0  0  0  0
   -4.2645    1.1405    0.5264 C   0  0  0  0  0  0  0  0  0  0  0  0
   -3.4613    1.0732   -0.6459 O   0  0  0  0  0  0  0  0  0  0  0  0
   -1.9318   -2.3581   -2.0301 H   0  0  0  0  0  0  0  0  0  0  0  0
   -0.5239   -1.5519   -2.9204 H   0  0  0  0  0  0  0  0  0  0  0  0
   -1.5416    0.7263   -2.4627 H   0  0  0  0  0  0  0  0  0  0  0  0
   -3.4212   -1.0101   -0.6448 H   0  0  0  0  0  0  0  0  0  0  0  0
   -4.9511    1.9983    0.3988 H   0  0  0  0  0  0  0  0  0  0  0  0
   -4.8551    0.2086    0.6657 H   0  0  0  0  0  0  0  0  0  0  0  0
   -3.6370    1.2951    1.4293 H   0  0  0  0  0  0  0  0  0  0  0  0
  1  6  1  0  0  0  0
  1  2  1  0  0  0  0
  2  3  1  0  0  0  0
  3  5  1  0  0  0  0
  3  9  1  0  0  0  0
  4 11  1  0  0  0  0
  4 12  1  0  0  0  0
  5  4  1  0  0  0  0
  7  1  1  0  0  0  0
  8  2  1  0  0  0  0
 10  4  1  0  0  0  0
M  END
