8
q = 0.0, confidence = 0.924

 25 25  0  0  1  0  0  0  0  0999 V2000
    0.7021   -2.8416   -1.4959 F   0  0  0  0  0  0  0  0  0  0  0  0
   -0.9863   -1.8496   -2.4613 F   0  0  0  0  0  0  0  0  0  0  0  0
    1.0180   -0.9662   -2.5659 F   0  0  0  0  0  0  0  0  0  0  0  0
   -0.0495   -0.9026    2.3756 F   0  0  0  0  0  0  0  0  0  0  0  0
   -1.1080   -2.7510    1.9105 F   0  0  0  0  0  0  0  0  0  0  0  0
   -2.2323   -0.9828    2.5070 F   0  0  0  0  0  0  0  0  0  0  0  0
    2.0010    0.3108    0.1840 N   0  0  0  0  0  0  0  0  0  0  0  0
    0.7103    0.1761    0.0241 C   0  0  0  0  0  2  0  0  0  0  0  0
   -0.1175   -0.8633   -0.4929 C   0  0  1  0  0  3  0  0  0  0  0  0
   -1.2988   -1.0148    0.3295 C   0  0  0  0  0  3  0  0  0  0  0  0
    0.1460   -1.6268   -1.7608 C   0  0  0  0  0  0  0  0  0  0  0  0
   -1.1691   -1.3954    1.7799 C   0  0  0  0  0  0  0  0  0  0  0  0
    2.9861   -0.7881    0.0647 C   0  0  0  0  0  0  0  0  0  0  0  0
    4.1647   -0.2856    0.8994 C   0  0  0  0  0  0  0  0  0  0  0  0
    4.1397    1.2309    0.6411 C   0  0  0  0  0  0  0  0  0  0  0  0
    2.6430    1.5696    0.6231 C   0  0  0  0  0  0  0  0  0  0  0  0
   -2.1625   -1.5318   -0.1216 H   0  0  0  0  0  0  0  0  0  0  0  0
    2.5277   -1.7325    0.4159 H   0  0  0  0  0  0  0  0  0  0  0  0
    3.2597   -0.9164   -1.0051 H   0  0  0  0  0  0  0  0  0  0  0  0
    5.1211   -0.7634    0.6139 H   0  0  0  0  0  0  0  0  0  0  0  0
    3.9844   -0.4986    1.9737 H   0  0  0  0  0  0  0  0  0  0  0  0
    4.5929    1.4553   -0.3468 H   0  0  0  0  0  0  0  0  0  0  0  0
    4.6924    1.8147    1.4013 H   0  0  0  0  0  0  0  0  0  0  0  0
    2.2509    1.8297    1.6292 H   0  0  0  0  0  0  0  0  0  0  0  0
    2.3802    2.3943   -0.0676 H   0  0  0  0  0  0  0  0  0  0  0  0
  2 11  1  0  0  0  0
  3 11  1  0  0  0  0
  7 16  1  0  0  0  0
  8  7  1  0  0  0  0
  9  8  1  6  0  0  0
  9 10  1  0  0  0  0
 10 12  1  0  0  0  0
 11  1  1  0  0  0  0
 11  9  1  0  0  0  0
 12  5  1  0  0  0  0
 12  4  1  0  0  0  0
 12  6  1  0  0  0  0
 13  7  1  0  0  0  0
 13 18  1  0  0  0  0
 13 14  1  0  0  0  0
 14 21  1  0  0  0  0
 15 14  1  0  0  0  0
 15 23  1  0  0  0  0
 16 15  1  0  0  0  0
 16 24  1  0  0  0  0
 17 10  1  0  0  0  0
 19 13  1  0  0  0  0
 20 14  1  0  0  0  0
 22 15  1  0  0  0  0
 25 16  1  0  0  0  0
M  END
