11
q = 0.0, confidence = 0.938

 28 28  0  0  1  0  0  0  0  0999 V2000
   -1.9065    3.0126   -0.4396 F   0  0  0  0  0  0  0  0  0  0  0  0
    0.1893    3.5297   -0.1475 F   0  0  0  0  0  0  0  0  0  0  0  0
   -0.8544    2.3187    1.3346 F   0  0  0  0  0  0  0  0  0  0  0  0
    2.1717    1.9471    0.9567 F   0  0  0  0  0  0  0  0  0  0  0  0
    2.6553    2.0222   -1.1718 F   0  0  0  0  0  0  0  0  0  0  0  0
    3.2524    0.2962    0.0284 F   0  0  0  0  0  0  0  0  0  0  0  0
    1.9359   -1.2822   -1.8610 O   0  0  0  0  0  0  0  0  0  0  0  0
   -2.5576    0.3080   -0.7733 O   0  0  0  0  0  0  0  0  0  0  0  0
   -0.3134    1.3264   -0.8206 C   0  0  1  0  0  0  0  0  0  0  0  0
    0.9560    0.5321   -0.4909 C   0  0  1  0  0  3  0  0  0  0  0  0
    0.8772   -0.6803   -1.2979 C   0  0  1  0  0  3  0  0  0  0  0  0
   -0.5203   -0.9860   -1.4344 C   0  0  0  0  0  3  0  0  0  0  0  0
   -1.2291    0.1049   -0.8105 C   0  0  2  0  0  3  0  0  0  0  0  0
   -0.7212    2.5398    0.0151 C   0  0  0  0  0  0  0  0  0  0  0  0
    2.2615    1.1956   -0.1648 C   0  0  0  0  0  0  0  0  0  0  0  0
    1.7437   -2.6234   -2.2968 C   0  0  0  0  0  0  0  0  0  0  0  0
   -3.4197   -0.8269   -0.9202 C   0  0  0  0  0  0  0  0  0  0  0  0
   -4.8432   -0.3721   -0.6725 C   0  0  0  0  0  0  0  0  0  0  0  0
   -0.2653    1.7637   -1.8491 H   0  0  0  0  0  0  0  0  0  0  0  0
   -0.9540   -1.8457   -1.9554 H   0  0  0  0  0  0  0  0  0  0  0  0
    2.7285   -2.9882   -2.6388 H   0  0  0  0  0  0  0  0  0  0  0  0
    1.0207   -2.6775   -3.1398 H   0  0  0  0  0  0  0  0  0  0  0  0
    1.3803   -3.2563   -1.4573 H   0  0  0  0  0  0  0  0  0  0  0  0
   -3.1126   -1.6118   -0.1939 H   0  0  0  0  0  0  0  0  0  0  0  0
   -3.3039   -1.2495   -1.9447 H   0  0  0  0  0  0  0  0  0  0  0  0
   -5.1343    0.4198   -1.3902 H   0  0  0  0  0  0  0  0  0  0  0  0
   -5.5402   -1.2249   -0.7889 H   0  0  0  0  0  0  0  0  0  0  0  0
   -4.9509    0.0314    0.3531 H   0  0  0  0  0  0  0  0  0  0  0  0
  1 14  1  0  0  0  0
  2 14  1  0  0  0  0
  5 15  1  0  0  0  0
  9 19  1  6  0  0  0
  9 13  1  0  0  0  0
  9 10  1  0  0  0  0
  9 14  1  0  0  0  0
 10 15  1  6  0  0  0
 11  7  1  6  0  0  0
 11 10  1  0  0  0  0
 12 11  1  0  0  0  0
 12 13  1  0  0  0  0
 13  8  1  6  0  0  0
 14  3  1  0  0  0  0
 15  6  1  0  0  0  0
 15  4  1  0  0  0  0
 16  7  1  0  0  0  0
 16 23  1  0  0  0  0
 17  8  1  0  0  0  0
 17 18  1  0  0  0  0
 17 24  1  0  0  0  0
 18 28  1  0  0  0  0
 20 12  1  0  0  0  0
 21 16  1  0  0  0  0
 22 16  1  0  0  0  0
 25 17  1  0  0  0  0
 26 18  1  0  0  0  0
 27 18  1  0  0  0  0
M  END
