3
q = 0.0, confidence = 0.994

 47 50  0  0  0  0  0  0  0  0999 V2000
   -0.8148   -1.0960   -0.8860 N   0  0  0  0  0  0  0  0  0  0  0  0
   -0.8153    1.0956   -0.8860 N   0  0  0  0  0  0  0  0  0  0  0  0
    0.0229   -0.0000   -0.8450 C   0  0  0  0  0  2  0  0  0  0  0  0
   -2.1519   -0.7036   -0.9590 C   0  0  0  0  0  0  0  0  0  0  0  0
   -2.1522    0.7027   -0.9590 C   0  0  0  0  0  0  0  0  0  0  0  0
   -3.3498   -1.4280   -0.9996 C   0  0  0  0  0  0  0  0  0  0  0  0
   -3.3518   -2.5272   -0.9804 H   0  0  0  0  0  0  0  0  0  0  0  0
   -4.5623   -0.7168   -1.0512 C   0  0  0  0  0  0  0  0  0  0  0  0
   -4.5626    0.7150   -1.0512 C   0  0  0  0  0  0  0  0  0  0  0  0
   -3.3504    1.4266   -0.9996 C   0  0  0  0  0  0  0  0  0  0  0  0
   -3.3527    2.5259   -0.9804 H   0  0  0  0  0  0  0  0  0  0  0  0
   -5.8689   -1.4673   -1.0996 C   0  0  0  0  0  0  0  0  0  0  0  0
   -6.5225   -1.2105   -0.2390 H   0  0  0  0  0  0  0  0  0  0  0  0
   -5.7081   -2.5620   -1.0868 H   0  0  0  0  0  0  0  0  0  0  0  0
   -6.4487   -1.2210   -2.0144 H   0  0  0  0  0  0  0  0  0  0  0  0
   -5.8695    1.4650   -1.0997 C   0  0  0  0  0  0  0  0  0  0  0  0
   -6.4490    1.2186   -2.0146 H   0  0  0  0  0  0  0  0  0  0  0  0
   -5.7091    2.5597   -1.0867 H   0  0  0  0  0  0  0  0  0  0  0  0
   -6.5231    1.2078   -0.2392 H   0  0  0  0  0  0  0  0  0  0  0  0
   -0.4200   -2.4859   -0.7330 C   0  0  0  0  0  0  0  0  0  0  0  0
    0.6015   -2.5804   -1.1643 H   0  0  0  0  0  0  0  0  0  0  0  0
   -1.0827   -3.0971   -1.3812 H   0  0  0  0  0  0  0  0  0  0  0  0
   -0.4678   -2.9900    0.6945 C   0  0  0  0  0  0  0  0  0  0  0  0
    0.0907   -4.2536    0.9807 C   0  0  0  0  0  0  0  0  0  0  0  0
    0.5313   -4.8456    0.1627 H   0  0  0  0  0  0  0  0  0  0  0  0
    0.1085   -4.7500    2.2914 C   0  0  0  0  0  0  0  0  0  0  0  0
    0.5548   -5.7352    2.4960 H   0  0  0  0  0  0  0  0  0  0  0  0
   -0.4321   -3.9902    3.3426 C   0  0  0  0  0  0  0  0  0  0  0  0
   -0.4132   -4.3763    4.3728 H   0  0  0  0  0  0  0  0  0  0  0  0
   -0.9960   -2.7358    3.0670 C   0  0  0  0  0  0  0  0  0  0  0  0
   -1.4263   -2.1331    3.8816 H   0  0  0  0  0  0  0  0  0  0  0  0
   -1.0163   -2.2411    1.7527 C   0  0  0  0  0  0  0  0  0  0  0  0
   -1.4636   -1.2569    1.5490 H   0  0  0  0  0  0  0  0  0  0  0  0
   -0.4209    2.4856   -0.7330 C   0  0  0  0  0  0  0  0  0  0  0  0
   -1.0837    3.0966   -1.3814 H   0  0  0  0  0  0  0  0  0  0  0  0
    0.6006    2.5804   -1.1641 H   0  0  0  0  0  0  0  0  0  0  0  0
   -0.4692    2.9899    0.6945 C   0  0  0  0  0  0  0  0  0  0  0  0
   -1.0173    2.2407    1.7527 C   0  0  0  0  0  0  0  0  0  0  0  0
   -1.4639    1.2562    1.5490 H   0  0  0  0  0  0  0  0  0  0  0  0
   -0.9974    2.7354    3.0669 C   0  0  0  0  0  0  0  0  0  0  0  0
   -1.4274    2.1326    3.8815 H   0  0  0  0  0  0  0  0  0  0  0  0
   -0.4344    3.9902    3.3425 C   0  0  0  0  0  0  0  0  0  0  0  0
   -0.4158    4.3765    4.3727 H   0  0  0  0  0  0  0  0  0  0  0  0
    0.1057    4.7504    2.2913 C   0  0  0  0  0  0  0  0  0  0  0  0
    0.5514    5.7358    2.4958 H   0  0  0  0  0  0  0  0  0  0  0  0
    0.0884    4.2538    0.9806 C   0  0  0  0  0  0  0  0  0  0  0  0
    0.5286    4.8461    0.1625 H   0  0  0  0  0  0  0  0  0  0  0  0
  1  3  1  0  0  0  0
  1 20  1  0  0  0  0
  2  3  1  0  0  0  0
  2 34  1  0  0  0  0
  4  1  1  0  0  0  0
  5  4  1  0  0  0  0
  5  2  1  0  0  0  0
  6  7  1  0  0  0  0
  6  4  2  0  0  0  0
  8  6  1  0  0  0  0
  9  8  2  0  0  0  0
  9 10  1  0  0  0  0
 10 11  1  0  0  0  0
 10  5  2  0  0  0  0
 12 14  1  0  0  0  0
 12  8  1  0  0  0  0
 12 13  1  0  0  0  0
 15 12  1  0  0  0  0
 16 18  1  0  0  0  0
 16  9  1  0  0  0  0
 16 19  1  0  0  0  0
 17 16  1  0  0  0  0
 20 23  1  0  0  0  0
 21 20  1  0  0  0  0
 22 20  1  0  0  0  0
 23 24  2  0  0  0  0
 23 32  1  0  0  0  0
 24 26  1  0  0  0  0
 25 24  1  0  0  0  0
 26 27  1  0  0  0  0
 26 28  2  0  0  0  0
 28 29  1  0  0  0  0
 30 28  1  0  0  0  0
 30 31  1  0  0  0  0
 32 30  2  0  0  0  0
 33 32  1  0  0  0  0
 34 37  1  0  0  0  0
 35 34  1  0  0  0  0
 36 34  1  0  0  0  0
 37 46  2  0  0  0  0
 37 38  1  0  0  0  0
 38 40  2  0  0  0  0
 39 38  1  0  0  0  0
 40 42  1  0  0  0  0
 40 41  1  0  0  0  0
 42 43  1  0  0  0  0
 44 45  1  0  0  0  0
 44 42  2  0  0  0  0
 46 44  1  0  0  0  0
 47 46  1  0  0  0  0
M  END
