3
q = 0.0, confidence = 1.0

 33 34  0  0  0  0  0  0  0  0999 V2000
   -0.9100   -1.0986   -0.0325 N   0  0  0  0  0  0  0  0  0  0  0  0
   -0.9097    1.0984   -0.0336 N   0  0  0  0  0  0  0  0  0  0  0  0
   -0.0761   -0.0002   -0.0761 C   0  0  0  0  0  2  0  0  0  0  0  0
   -2.2452   -0.7034    0.0480 C   0  0  0  0  0  0  0  0  0  0  0  0
   -2.2450    0.7037    0.0474 C   0  0  0  0  0  0  0  0  0  0  0  0
   -3.4407   -1.4254    0.1685 C   0  0  0  0  0  0  0  0  0  0  0  0
   -3.4453   -2.5244    0.1784 H   0  0  0  0  0  0  0  0  0  0  0  0
   -4.6495   -0.7149    0.2817 C   0  0  0  0  0  0  0  0  0  0  0  0
   -4.6493    0.7159    0.2813 C   0  0  0  0  0  0  0  0  0  0  0  0
   -3.4403    1.4260    0.1676 C   0  0  0  0  0  0  0  0  0  0  0  0
   -3.4448    2.5250    0.1769 H   0  0  0  0  0  0  0  0  0  0  0  0
   -0.5238   -2.5103   -0.0410 C   0  0  0  0  0  0  0  0  0  0  0  0
   -1.0147   -2.9901    0.8339 H   0  0  0  0  0  0  0  0  0  0  0  0
    0.5721   -2.5419    0.0933 H   0  0  0  0  0  0  0  0  0  0  0  0
   -0.8879   -3.2173   -1.3441 C   0  0  0  0  0  0  0  0  0  0  0  0
   -0.3284   -2.7475   -2.1754 H   0  0  0  0  0  0  0  0  0  0  0  0
   -1.9738   -3.1786   -1.5604 H   0  0  0  0  0  0  0  0  0  0  0  0
   -0.5850   -4.2815   -1.2834 H   0  0  0  0  0  0  0  0  0  0  0  0
   -0.5224    2.5098   -0.0425 C   0  0  0  0  0  0  0  0  0  0  0  0
    0.5736    2.5403    0.0911 H   0  0  0  0  0  0  0  0  0  0  0  0
   -1.0122    2.9903    0.8326 H   0  0  0  0  0  0  0  0  0  0  0  0
   -0.8864    3.2170   -1.3455 C   0  0  0  0  0  0  0  0  0  0  0  0
   -1.9724    3.1794   -1.5614 H   0  0  0  0  0  0  0  0  0  0  0  0
   -0.3278    2.7466   -2.1770 H   0  0  0  0  0  0  0  0  0  0  0  0
   -0.5825    4.2809   -1.2850 H   0  0  0  0  0  0  0  0  0  0  0  0
   -5.9512   -1.4659    0.4041 C   0  0  0  0  0  0  0  0  0  0  0  0
   -6.6456   -1.2197   -0.4271 H   0  0  0  0  0  0  0  0  0  0  0  0
   -6.4872   -1.2100    1.3428 H   0  0  0  0  0  0  0  0  0  0  0  0
   -5.7898   -2.5606    0.3946 H   0  0  0  0  0  0  0  0  0  0  0  0
   -5.9508    1.4673    0.4035 C   0  0  0  0  0  0  0  0  0  0  0  0
   -6.6456    1.2204   -0.4273 H   0  0  0  0  0  0  0  0  0  0  0  0
   -5.7892    2.5619    0.3929 H   0  0  0  0  0  0  0  0  0  0  0  0
   -6.4865    1.2123    1.3426 H   0  0  0  0  0  0  0  0  0  0  0  0
  1  4  1  0  0  0  0
  2  5  1  0  0  0  0
  3  2  1  0  0  0  0
  3  1  1  0  0  0  0
  4  6  1  0  0  0  0
  5  4  2  0  0  0  0
  5 10  1  0  0  0  0
  6  7  1  0  0  0  0
  6  8  2  0  0  0  0
  8 26  1  0  0  0  0
  9  8  1  0  0  0  0
  9 30  1  0  0  0  0
 10 11  1  0  0  0  0
 10  9  2  0  0  0  0
 12  1  1  0  0  0  0
 12 14  1  0  0  0  0
 12 13  1  0  0  0  0
 15 18  1  0  0  0  0
 15 12  1  0  0  0  0
 16 15  1  0  0  0  0
 17 15  1  0  0  0  0
 19  2  1  0  0  0  0
 19 20  1  0  0  0  0
 19 21  1  0  0  0  0
 22 25  1  0  0  0  0
 22 19  1  0  0  0  0
 23 22  1  0  0  0  0
 24 22  1  0  0  0  0
 26 28  1  0  0  0  0
 27 26  1  0  0  0  0
 29 26  1  0  0  0  0
 30 33  1  0  0  0  0
 31 30  1  0  0  0  0
 32 30  1  0  0  0  0
M  END
