2
q = -1.0

 15 15  0  0  0  0  0  0  0  0999 V2000
    1.8827    1.7658   -3.5904 N   0  0  0  0  0  0  0  0  0  0  0  0
    1.3843   -0.6238   -2.6303 C   0  0  0  0  0  3  0  0  0  0  0  0
    0.8547   -1.2641   -3.3631 H   0  0  0  0  0  0  0  0  0  0  0  0
    1.6614    0.6782   -3.1960 C   0  0  0  0  0  0  0  0  0  0  0  0
    2.5712   -1.3252   -2.0193 C   0  0  0  0  0  0  0  0  0  0  0  0
    3.6702   -0.6089   -1.4929 C   0  0  0  0  0  0  0  0  0  0  0  0
    3.6821    0.4889   -1.5748 H   0  0  0  0  0  0  0  0  0  0  0  0
    4.7302   -1.2773   -0.8652 C   0  0  0  0  0  0  0  0  0  0  0  0
    5.5731   -0.6939   -0.4624 H   0  0  0  0  0  0  0  0  0  0  0  0
    4.7238   -2.6772   -0.7482 C   0  0  0  0  0  0  0  0  0  0  0  0
    5.5582   -3.2011   -0.2577 H   0  0  0  0  0  0  0  0  0  0  0  0
    3.6385   -3.4007   -1.2710 C   0  0  0  0  0  0  0  0  0  0  0  0
    3.6193   -4.4990   -1.1926 H   0  0  0  0  0  0  0  0  0  0  0  0
    2.5775   -2.7337   -1.8985 C   0  0  0  0  0  0  0  0  0  0  0  0
    1.7274   -3.3093   -2.2988 H   0  0  0  0  0  0  0  0  0  0  0  0
  1  4  3  0  0  0  0
  2  5  1  0  0  0  0
  3  2  1  0  0  0  0
  4  2  1  0  0  0  0
  5 14  2  0  0  0  0
  5  6  1  0  0  0  0
  6  8  2  0  0  0  0
  7  6  1  0  0  0  0
  8 10  1  0  0  0  0
  8  9  1  0  0  0  0
 10 11  1  0  0  0  0
 12 13  1  0  0  0  0
 12 10  2  0  0  0  0
 14 12  1  0  0  0  0
 15 14  1  0  0  0  0
M  END
