1
q = -1.0

 21 20  0  0  0  0  0  0  0  0999 V2000
   -4.3345   -0.9172   -1.4868 C   0  0  0  0  0  3  0  0  0  0  0  0
   -4.9867   -1.3247   -0.3594 C   0  0  0  0  0  0  0  0  0  0  0  0
   -4.2342   -1.2137    0.9317 C   0  0  0  0  0  0  0  0  0  0  0  0
   -3.0688   -1.9327    1.0502 C   0  0  0  0  0  0  0  0  0  0  0  0
   -2.8267   -2.5874    0.1977 H   0  0  0  0  0  0  0  0  0  0  0  0
   -4.9031   -1.0346   -2.8727 C   0  0  0  0  0  0  0  0  0  0  0  0
   -4.2587   -1.6767   -3.5119 H   0  0  0  0  0  0  0  0  0  0  0  0
   -4.9416   -0.0523   -3.3918 H   0  0  0  0  0  0  0  0  0  0  0  0
   -5.9256   -1.4672   -2.9108 H   0  0  0  0  0  0  0  0  0  0  0  0
   -6.3858   -1.8875   -0.2536 C   0  0  0  0  0  0  0  0  0  0  0  0
   -7.0156   -1.2736    0.4262 H   0  0  0  0  0  0  0  0  0  0  0  0
   -6.3748   -2.9142    0.1731 H   0  0  0  0  0  0  0  0  0  0  0  0
   -6.8975   -1.9309   -1.2331 H   0  0  0  0  0  0  0  0  0  0  0  0
   -4.8543   -0.4865    2.1049 C   0  0  0  0  0  0  0  0  0  0  0  0
   -5.3628   -1.2066    2.7818 H   0  0  0  0  0  0  0  0  0  0  0  0
   -5.6150    0.2481    1.7788 H   0  0  0  0  0  0  0  0  0  0  0  0
   -4.0928    0.0416    2.7119 H   0  0  0  0  0  0  0  0  0  0  0  0
   -2.2265   -2.0948    2.2773 C   0  0  0  0  0  0  0  0  0  0  0  0
   -1.1439   -2.1427    2.0423 H   0  0  0  0  0  0  0  0  0  0  0  0
   -2.4761   -3.0624    2.7669 H   0  0  0  0  0  0  0  0  0  0  0  0
   -2.3883   -1.2977    3.0263 H   0  0  0  0  0  0  0  0  0  0  0  0
  1  2  2  0  0  0  0
  2 10  1  0  0  0  0
  2  3  1  0  0  0  0
  3  4  2  0  0  0  0
  3 14  1  0  0  0  0
  4 18  1  0  0  0  0
  5  4  1  0  0  0  0
  6  1  1  0  0  0  0
  7  6  1  0  0  0  0
  8  6  1  0  0  0  0
  9  6  1  0  0  0  0
 10 12  1  0  0  0  0
 10 11  1  0  0  0  0
 13 10  1  0  0  0  0
 14 17  1  0  0  0  0
 14 15  1  0  0  0  0
 16 14  1  0  0  0  0
 18 20  1  0  0  0  0
 18 21  1  0  0  0  0
 19 18  1  0  0  0  0
M  END
