21
q = -1.0, confidence = 0.096

 54 57  0  0  0  0  0  0  0  0999 V2000
   -1.4240    0.1652    0.0572 P   0  0  0  0  0  0  0  0  0  0  0  0
   -2.7451   -2.2943    0.3541 C   0  0  0  0  0  0  0  0  0  0  0  0
   -3.7278   -3.2629    0.1098 C   0  0  0  0  0  0  0  0  0  0  0  0
   -4.7962   -2.9824   -0.7587 C   0  0  0  0  0  0  0  0  0  0  0  0
   -4.8751   -1.7244   -1.3730 C   0  0  0  0  0  0  0  0  0  0  0  0
   -3.8915   -0.7508   -1.1293 C   0  0  0  0  0  0  0  0  0  0  0  0
   -2.8134   -1.0269   -0.2679 C   0  0  0  0  0  0  0  0  0  0  0  0
   -2.4987    2.2181   -1.5342 C   0  0  0  0  0  0  0  0  0  0  0  0
   -3.0729    3.4718   -1.7837 C   0  0  0  0  0  0  0  0  0  0  0  0
   -3.3409    4.3485   -0.7191 C   0  0  0  0  0  0  0  0  0  0  0  0
   -3.0273    3.9644    0.5927 C   0  0  0  0  0  0  0  0  0  0  0  0
   -2.4669    2.7019    0.8481 C   0  0  0  0  0  0  0  0  0  0  0  0
   -2.2101    1.8109   -0.2126 C   0  0  0  0  0  0  0  0  0  0  0  0
   -1.2631   -0.0247    1.8844 C   0  0  0  0  0  0  0  0  0  0  0  0
   -2.3512   -0.0849    2.7738 C   0  0  0  0  0  0  0  0  0  0  0  0
   -2.1427   -0.4406    4.1149 C   0  0  0  0  0  0  0  0  0  0  0  0
   -0.8433   -0.7519    4.5540 C   0  0  0  0  0  0  0  0  0  0  0  0
    0.2427   -0.6816    3.6704 C   0  0  0  0  0  0  0  0  0  0  0  0
    0.0564   -0.3036    2.3218 C   0  0  0  0  0  0  0  0  0  0  0  0
    1.1840   -0.1641    1.3700 C   0  0  0  0  0  3  0  0  0  0  0  0
    1.3137    1.1127    0.6651 C   0  0  0  0  0  3  0  0  0  0  0  0
    2.4142    1.1094   -0.3172 C   0  0  0  0  0  0  0  0  0  0  0  0
    1.9925    1.4117   -1.6626 C   0  0  0  0  0  0  0  0  0  0  0  0
    0.6151    1.6911   -1.9319 C   0  0  0  0  0  3  0  0  0  0  0  0
    4.2488    0.8905    1.3771 C   0  0  0  0  0  0  0  0  0  0  0  0
    5.5571    0.5517    1.7515 C   0  0  0  0  0  0  0  0  0  0  0  0
    6.4687    0.0767    0.7966 C   0  0  0  0  0  0  0  0  0  0  0  0
    6.0547   -0.0501   -0.5407 C   0  0  0  0  0  0  0  0  0  0  0  0
    4.7461    0.2807   -0.9128 C   0  0  0  0  0  0  0  0  0  0  0  0
    3.8075    0.7481    0.0396 C   0  0  0  0  0  0  0  0  0  0  0  0
    2.1109   -0.6775    1.6837 H   0  0  0  0  0  0  0  0  0  0  0  0
    0.7048    2.0048    0.9056 H   0  0  0  0  0  0  0  0  0  0  0  0
    2.7102    1.2756   -2.4870 H   0  0  0  0  0  0  0  0  0  0  0  0
    0.0661    2.4026   -1.2988 H   0  0  0  0  0  0  0  0  0  0  0  0
    0.3251    1.7286   -2.9948 H   0  0  0  0  0  0  0  0  0  0  0  0
   -1.9156   -2.5185    1.0422 H   0  0  0  0  0  0  0  0  0  0  0  0
   -3.6605   -4.2434    0.6055 H   0  0  0  0  0  0  0  0  0  0  0  0
   -5.5689   -3.7423   -0.9498 H   0  0  0  0  0  0  0  0  0  0  0  0
   -5.7141   -1.4895   -2.0458 H   0  0  0  0  0  0  0  0  0  0  0  0
   -3.9813    0.2359   -1.6045 H   0  0  0  0  0  0  0  0  0  0  0  0
   -2.2402    1.5544   -2.3736 H   0  0  0  0  0  0  0  0  0  0  0  0
   -3.2961    3.7738   -2.8183 H   0  0  0  0  0  0  0  0  0  0  0  0
   -3.7822    5.3374   -0.9156 H   0  0  0  0  0  0  0  0  0  0  0  0
   -3.2191    4.6520    1.4306 H   0  0  0  0  0  0  0  0  0  0  0  0
   -2.2239    2.4093    1.8798 H   0  0  0  0  0  0  0  0  0  0  0  0
   -3.3715    0.1084    2.4065 H   0  0  0  0  0  0  0  0  0  0  0  0
   -2.9939   -0.4993    4.8098 H   0  0  0  0  0  0  0  0  0  0  0  0
   -0.6762   -1.0523    5.6001 H   0  0  0  0  0  0  0  0  0  0  0  0
    1.2603   -0.9133    4.0226 H   0  0  0  0  0  0  0  0  0  0  0  0
    3.5478    1.2906    2.1241 H   0  0  0  0  0  0  0  0  0  0  0  0
    5.8703    0.6721    2.8003 H   0  0  0  0  0  0  0  0  0  0  0  0
    7.4970   -0.1857    1.0881 H   0  0  0  0  0  0  0  0  0  0  0  0
    6.7602   -0.4147   -1.3035 H   0  0  0  0  0  0  0  0  0  0  0  0
    4.4443    0.1625   -1.9637 H   0  0  0  0  0  0  0  0  0  0  0  0
  1 14  1  0  0  0  0
  2 36  1  0  0  0  0
  3  2  1  0  0  0  0
  3 37  1  0  0  0  0
  4  3  2  0  0  0  0
  5  6  2  0  0  0  0
  5  4  1  0  0  0  0
  6  7  1  0  0  0  0
  7  1  1  0  0  0  0
  7  2  2  0  0  0  0
  8 13  1  0  0  0  0
  9  8  2  0  0  0  0
  9 10  1  0  0  0  0
 10 11  2  0  0  0  0
 11 12  1  0  0  0  0
 11 44  1  0  0  0  0
 12 45  1  0  0  0  0
 13  1  1  0  0  0  0
 13 12  2  0  0  0  0
 14 19  2  0  0  0  0
 14 15  1  0  0  0  0
 15 16  2  0  0  0  0
 16 17  1  0  0  0  0
 16 47  1  0  0  0  0
 17 48  1  0  0  0  0
 18 49  1  0  0  0  0
 18 17  2  0  0  0  0
 19 18  1  0  0  0  0
 20 31  1  0  0  0  0
 20 19  1  0  0  0  0
 21 32  1  0  0  0  0
 21 20  1  0  0  0  0
 22 30  1  0  0  0  0
 22 21  1  0  0  0  0
 23 22  2  0  0  0  0
 24 23  1  0  0  0  0
 24 34  1  0  0  0  0
 25 26  1  0  0  0  0
 25 50  1  0  0  0  0
 26 51  1  0  0  0  0
 27 52  1  0  0  0  0
 27 26  2  0  0  0  0
 28 27  1  0  0  0  0
 29 28  2  0  0  0  0
 29 30  1  0  0  0  0
 30 25  2  0  0  0  0
 33 23  1  0  0  0  0
 35 24  1  0  0  0  0
 38  4  1  0  0  0  0
 39  5  1  0  0  0  0
 40  6  1  0  0  0  0
 41  8  1  0  0  0  0
 42  9  1  0  0  0  0
 43 10  1  0  0  0  0
 46 15  1  0  0  0  0
 53 28  1  0  0  0  0
 54 29  1  0  0  0  0
M  END
