2
q = -1.0

 13 13  0  0  0  0  0  0  0  0999 V2000
    4.7999    6.2152   -0.0000 Br  0  0  0  0  0  0  0  0  0  0  0  0
    1.7111    0.6091   -0.0001 C   0  0  0  0  0  3  0  0  0  0  0  0
    2.7407    1.3044   -0.0002 C   0  0  0  0  0  0  0  0  0  0  0  0
    5.2108    1.5310   -0.0004 C   0  0  0  0  0  0  0  0  0  0  0  0
    5.3065    0.4350   -0.0005 H   0  0  0  0  0  0  0  0  0  0  0  0
    3.9133    2.1117   -0.0003 C   0  0  0  0  0  0  0  0  0  0  0  0
    4.9655    4.3136   -0.0002 C   0  0  0  0  0  0  0  0  0  0  0  0
    3.8076    3.5291   -0.0001 C   0  0  0  0  0  0  0  0  0  0  0  0
    2.8133    3.9949    0.0000 H   0  0  0  0  0  0  0  0  0  0  0  0
    6.2475    3.7394   -0.0004 C   0  0  0  0  0  0  0  0  0  0  0  0
    7.1418    4.3776   -0.0005 H   0  0  0  0  0  0  0  0  0  0  0  0
    6.3528    2.3387   -0.0005 C   0  0  0  0  0  0  0  0  0  0  0  0
    7.3501    1.8728   -0.0007 H   0  0  0  0  0  0  0  0  0  0  0  0
  3  2  3  0  0  0  0
  4  6  1  0  0  0  0
  5  4  1  0  0  0  0
  6  3  1  0  0  0  0
  6  8  2  0  0  0  0
  7  8  1  0  0  0  0
  7  1  1  0  0  0  0
  8  9  1  0  0  0  0
 10  7  2  0  0  0  0
 11 10  1  0  0  0  0
 12  4  2  0  0  0  0
 12 10  1  0  0  0  0
 13 12  1  0  0  0  0
M  END
