1
q = -1.0

 27 27  0  0  0  0  0  0  0  0999 V2000
    0.4160   -2.1568   -0.5506 C   0  0  0  0  0  3  0  0  0  0  0  0
   -0.6057   -1.3790    0.0694 C   0  0  0  0  0  3  0  0  0  0  0  0
   -0.9559   -0.1360   -0.5045 C   0  0  0  0  0  3  0  0  0  0  0  0
   -1.9542    0.8239    0.1543 C   0  0  0  0  0  0  0  0  0  0  0  0
   -1.5256    1.1469    1.5967 C   0  0  0  0  0  0  0  0  0  0  0  0
   -2.0019    2.1428   -0.6479 C   0  0  0  0  0  0  0  0  0  0  0  0
   -3.3383    0.1410    0.0939 C   0  0  0  0  0  0  0  0  0  0  0  0
   -4.1074   -0.1262    1.2435 C   0  0  0  0  0  0  0  0  0  0  0  0
   -5.3631   -0.7505    1.1503 C   0  0  0  0  0  0  0  0  0  0  0  0
   -5.8792   -1.1243   -0.0975 C   0  0  0  0  0  0  0  0  0  0  0  0
   -5.1248   -0.8672   -1.2543 C   0  0  0  0  0  0  0  0  0  0  0  0
   -3.8741   -0.2447   -1.1559 C   0  0  0  0  0  0  0  0  0  0  0  0
    0.7802   -3.0591   -0.0327 H   0  0  0  0  0  0  0  0  0  0  0  0
    0.4640   -2.2196   -1.6554 H   0  0  0  0  0  0  0  0  0  0  0  0
   -0.9378   -1.6204    1.0955 H   0  0  0  0  0  0  0  0  0  0  0  0
   -0.8740   -0.0411   -1.6048 H   0  0  0  0  0  0  0  0  0  0  0  0
   -0.5245    1.6188    1.5805 H   0  0  0  0  0  0  0  0  0  0  0  0
   -1.4687    0.2428    2.2355 H   0  0  0  0  0  0  0  0  0  0  0  0
   -2.2369    1.8514    2.0725 H   0  0  0  0  0  0  0  0  0  0  0  0
   -2.2908    1.9651   -1.7030 H   0  0  0  0  0  0  0  0  0  0  0  0
   -1.0038    2.6231   -0.6400 H   0  0  0  0  0  0  0  0  0  0  0  0
   -2.7451    2.8362   -0.2059 H   0  0  0  0  0  0  0  0  0  0  0  0
   -3.7301    0.1575    2.2354 H   0  0  0  0  0  0  0  0  0  0  0  0
   -5.9416   -0.9434    2.0672 H   0  0  0  0  0  0  0  0  0  0  0  0
   -6.8627   -1.6129   -0.1708 H   0  0  0  0  0  0  0  0  0  0  0  0
   -5.5144   -1.1551   -2.2430 H   0  0  0  0  0  0  0  0  0  0  0  0
   -3.2975   -0.0576   -2.0746 H   0  0  0  0  0  0  0  0  0  0  0  0
  1 13  1  0  0  0  0
  1  2  1  0  0  0  0
  2 15  1  0  0  0  0
  3  2  1  0  0  0  0
  3  4  1  0  0  0  0
  4  5  1  0  0  0  0
  5 19  1  0  0  0  0
  5 18  1  0  0  0  0
  6 21  1  0  0  0  0
  6 22  1  0  0  0  0
  6  4  1  0  0  0  0
  7  4  1  0  0  0  0
  7  8  1  0  0  0  0
  8 23  1  0  0  0  0
  9  8  2  0  0  0  0
  9 24  1  0  0  0  0
 10  9  1  0  0  0  0
 11 12  1  0  0  0  0
 11 10  2  0  0  0  0
 12  7  2  0  0  0  0
 14  1  1  0  0  0  0
 16  3  1  0  0  0  0
 17  5  1  0  0  0  0
 20  6  1  0  0  0  0
 25 10  1  0  0  0  0
 26 11  1  0  0  0  0
 27 12  1  0  0  0  0
M  END
