4
q = 0.0, confidence = 0.998

 60 63  0  0  1  0  0  0  0  0999 V2000
   -0.2023    2.1552    2.3743 O   0  0  0  0  0  0  0  0  0  0  0  0
   -0.7286    1.3231    2.5018 H   0  0  0  0  0  0  0  0  0  0  0  0
    1.0737   -0.1780   -0.5963 N   0  0  0  0  0  0  0  0  0  0  0  0
   -0.1993    0.2206   -0.2796 C   0  0  0  0  0  2  0  0  0  0  0  0
    1.0551    2.0682   -0.7160 C   0  0  0  0  0  0  0  0  0  0  0  0
   -0.2105    1.5909   -0.3643 N   0  0  0  0  0  0  0  0  0  0  0  0
    3.2268    1.0588   -1.2371 C   0  0  0  0  0  0  0  0  0  0  0  0
    3.8714    0.1769   -1.3416 H   0  0  0  0  0  0  0  0  0  0  0  0
    3.7522    2.3474   -1.4380 C   0  0  0  0  0  0  0  0  0  0  0  0
    1.5710    3.3563   -0.9148 C   0  0  0  0  0  0  0  0  0  0  0  0
    0.9412    4.2473   -0.7900 H   0  0  0  0  0  0  0  0  0  0  0  0
    2.9226    3.5000   -1.2755 C   0  0  0  0  0  0  0  0  0  0  0  0
    5.2028    2.5092   -1.8160 C   0  0  0  0  0  0  0  0  0  0  0  0
    5.3199    3.0299   -2.7903 H   0  0  0  0  0  0  0  0  0  0  0  0
    5.7109    1.5290   -1.8912 H   0  0  0  0  0  0  0  0  0  0  0  0
    5.7547    3.1189   -1.0693 H   0  0  0  0  0  0  0  0  0  0  0  0
   -0.9188    3.0228    1.5332 C   0  0  1  0  0  0  0  0  0  0  0  0
   -0.2238    3.8652    1.3088 H   0  0  0  0  0  0  0  0  0  0  0  0
    1.5072   -1.5785   -0.5532 C   0  0  0  0  0  0  0  0  0  0  0  0
    1.5232   -1.9759   -1.5858 H   0  0  0  0  0  0  0  0  0  0  0  0
    0.6860   -2.1091   -0.0204 H   0  0  0  0  0  0  0  0  0  0  0  0
    6.7228   -2.2981    2.0277 C   0  0  0  0  0  0  0  0  0  0  0  0
    6.6708   -3.0718    2.8232 H   0  0  0  0  0  0  0  0  0  0  0  0
    7.0621   -1.3616    2.5158 H   0  0  0  0  0  0  0  0  0  0  0  0
    7.5025   -2.6121    1.3069 H   0  0  0  0  0  0  0  0  0  0  0  0
   -1.3232    2.3598    0.1907 C   0  0  1  0  0  0  0  0  0  0  0  0
   -2.0806    1.5760    0.4272 H   0  0  0  0  0  0  0  0  0  0  0  0
   -3.2252    3.9545   -0.1185 C   0  0  0  0  0  0  0  0  0  0  0  0
   -3.6926    4.6986   -0.7962 H   0  0  0  0  0  0  0  0  0  0  0  0
   -3.9759    3.1457    0.0267 H   0  0  0  0  0  0  0  0  0  0  0  0
   -2.1869    3.6064    2.1774 C   0  0  0  0  0  0  0  0  0  0  0  0
   -1.9057    4.0911    3.1344 H   0  0  0  0  0  0  0  0  0  0  0  0
   -2.8625    2.7597    2.4337 H   0  0  0  0  0  0  0  0  0  0  0  0
    3.0396   -1.3636    1.4644 C   0  0  0  0  0  0  0  0  0  0  0  0
    4.3059   -1.5371    2.0509 C   0  0  0  0  0  0  0  0  0  0  0  0
    4.4499   -1.2077    3.0930 H   0  0  0  0  0  0  0  0  0  0  0  0
    5.3837   -2.1163    1.3583 C   0  0  0  0  0  0  0  0  0  0  0  0
    5.1628   -2.5372    0.0363 C   0  0  0  0  0  0  0  0  0  0  0  0
    5.9895   -3.0012   -0.5259 H   0  0  0  0  0  0  0  0  0  0  0  0
    3.9148   -2.3830   -0.5963 C   0  0  0  0  0  0  0  0  0  0  0  0
    2.8469   -1.7831    0.1201 C   0  0  0  0  0  0  0  0  0  0  0  0
   -1.9746    3.3535   -0.7755 C   0  0  0  0  0  0  0  0  0  0  0  0
   -2.2335    2.8354   -1.7223 H   0  0  0  0  0  0  0  0  0  0  0  0
   -1.2627    4.1654   -1.0393 H   0  0  0  0  0  0  0  0  0  0  0  0
   -2.8983    4.5916    1.2399 C   0  0  0  0  0  0  0  0  0  0  0  0
   -3.8234    4.9784    1.7156 H   0  0  0  0  0  0  0  0  0  0  0  0
   -2.2418    5.4760    1.0763 H   0  0  0  0  0  0  0  0  0  0  0  0
    3.7599   -2.8475   -2.0276 C   0  0  0  0  0  0  0  0  0  0  0  0
    2.9832   -3.6333   -2.1345 H   0  0  0  0  0  0  0  0  0  0  0  0
    4.7097   -3.2713   -2.4060 H   0  0  0  0  0  0  0  0  0  0  0  0
    3.4732   -2.0185   -2.7097 H   0  0  0  0  0  0  0  0  0  0  0  0
    1.9313   -0.7387    2.2709 C   0  0  0  0  0  0  0  0  0  0  0  0
    1.7344    0.3161    1.9829 H   0  0  0  0  0  0  0  0  0  0  0  0
    2.1844   -0.7354    3.3482 H   0  0  0  0  0  0  0  0  0  0  0  0
    0.9620   -1.2637    2.1556 H   0  0  0  0  0  0  0  0  0  0  0  0
    3.4985    4.8773   -1.4863 C   0  0  0  0  0  0  0  0  0  0  0  0
    3.9065    5.0002   -2.5122 H   0  0  0  0  0  0  0  0  0  0  0  0
    4.3408    5.0795   -0.7909 H   0  0  0  0  0  0  0  0  0  0  0  0
    2.7362    5.6641   -1.3293 H   0  0  0  0  0  0  0  0  0  0  0  0
    1.8785    0.9299   -0.8766 C   0  0  0  0  0  0  0  0  0  0  0  0
  1  2  1  0  0  0  0
  3 19  1  0  0  0  0
  3  4  1  0  0  0  0
  5  6  1  0  0  0  0
  6  4  1  0  0  0  0
  6 26  1  0  0  0  0
  7 60  2  0  0  0  0
  8  7  1  0  0  0  0
  9 12  2  0  0  0  0
  9  7  1  0  0  0  0
 10 11  1  0  0  0  0
 10  5  2  0  0  0  0
 12 10  1  0  0  0  0
 13  9  1  0  0  0  0
 13 16  1  0  0  0  0
 14 13  1  0  0  0  0
 15 13  1  0  0  0  0
 17 18  1  6  0  0  0
 17 31  1  0  0  0  0
 17  1  1  0  0  0  0
 19 21  1  0  0  0  0
 19 41  1  0  0  0  0
 20 19  1  0  0  0  0
 22 24  1  0  0  0  0
 22 23  1  0  0  0  0
 25 22  1  0  0  0  0
 26 27  1  1  0  0  0
 26 17  1  0  0  0  0
 28 30  1  0  0  0  0
 28 45  1  0  0  0  0
 29 28  1  0  0  0  0
 31 33  1  0  0  0  0
 31 32  1  0  0  0  0
 34 35  1  0  0  0  0
 34 52  1  0  0  0  0
 35 36  1  0  0  0  0
 37 22  1  0  0  0  0
 37 35  2  0  0  0  0
 38 37  1  0  0  0  0
 39 38  1  0  0  0  0
 40 38  2  0  0  0  0
 40 41  1  0  0  0  0
 41 34  2  0  0  0  0
 42 28  1  0  0  0  0
 42 26  1  0  0  0  0
 43 42  1  0  0  0  0
 44 42  1  0  0  0  0
 45 46  1  0  0  0  0
 45 31  1  0  0  0  0
 47 45  1  0  0  0  0
 48 40  1  0  0  0  0
 49 48  1  0  0  0  0
 50 48  1  0  0  0  0
 51 48  1  0  0  0  0
 52 54  1  0  0  0  0
 53 52  1  0  0  0  0
 55 52  1  0  0  0  0
 56 59  1  0  0  0  0
 56 12  1  0  0  0  0
 56 58  1  0  0  0  0
 57 56  1  0  0  0  0
 60  5  1  0  0  0  0
 60  3  1  0  0  0  0
M  END
