10
q = -1.0, confidence = 0.002

 13 13  0  0  0  0  0  0  0  0999 V2000
   -2.7136   -2.7754    1.8627 O   0  0  0  0  0  0  0  0  0  0  0  0
   -3.4251   -2.9837    1.2308 H   0  0  0  0  0  0  0  0  0  0  0  0
   -1.1630   -3.4330   -0.1345 C   0  0  0  0  0  0  0  0  0  0  0  0
   -1.9456   -3.6646   -0.8752 H   0  0  0  0  0  0  0  0  0  0  0  0
   -1.4544   -2.9044    1.2808 B   0  0  0  0  0  0  0  0  0  0  0  0
    0.1770   -3.6713   -0.5412 C   0  0  0  0  0  0  0  0  0  0  0  0
    0.3865   -4.0697   -1.5471 H   0  0  0  0  0  0  0  0  0  0  0  0
    1.3006   -3.2823    0.2482 C   0  0  0  0  0  3  0  0  0  0  0  0
    2.3179   -3.4425   -0.1328 H   0  0  0  0  0  0  0  0  0  0  0  0
    1.0979   -2.5689    1.4807 C   0  0  0  0  0  3  0  0  0  0  0  0
    1.9894   -2.1973    2.0153 H   0  0  0  0  0  0  0  0  0  0  0  0
   -0.2097   -2.3217    1.9835 C   0  0  0  0  0  0  0  0  0  0  0  0
   -0.2841   -1.7363    2.9142 H   0  0  0  0  0  0  0  0  0  0  0  0
  2  1  1  0  0  0  0
  3  5  1  0  0  0  0
  4  3  1  0  0  0  0
  5  1  1  0  0  0  0
  5 12  2  0  0  0  0
  6  3  2  0  0  0  0
  6  8  1  0  0  0  0
  7  6  1  0  0  0  0
  8 10  1  0  0  0  0
  9  8  1  0  0  0  0
 10 12  1  0  0  0  0
 10 11  1  0  0  0  0
 12 13  1  0  0  0  0
M  END
