1
q = -1.0

 49 49  0  0  0  0  0  0  0  0999 V2000
   -1.4479    0.8016    0.1167 C   0  0  0  0  0  3  0  0  0  0  0  0
   -0.3555    1.5632    0.3893 C   0  0  0  0  0  0  0  0  0  0  0  0
    0.9756    0.9092    0.5304 C   0  0  0  0  0  0  0  0  0  0  0  0
    2.0239    1.2756   -0.3466 C   0  0  0  0  0  0  0  0  0  0  0  0
    3.3149    0.7036   -0.2241 C   0  0  0  0  0  0  0  0  0  0  0  0
    3.5481   -0.2488    0.8140 C   0  0  0  0  0  0  0  0  0  0  0  0
    2.5036   -0.6097    1.6834 C   0  0  0  0  0  0  0  0  0  0  0  0
    2.6806   -1.3428    2.4814 H   0  0  0  0  0  0  0  0  0  0  0  0
    1.2196   -0.0498    1.5421 C   0  0  0  0  0  0  0  0  0  0  0  0
    0.1206   -0.4648    2.4697 C   0  0  0  0  0  0  0  0  0  0  0  0
    0.5304   -0.9647    3.3686 H   0  0  0  0  0  0  0  0  0  0  0  0
   -0.5035    0.3993    2.7795 H   0  0  0  0  0  0  0  0  0  0  0  0
   -2.8593    1.2524    0.0498 C   0  0  0  0  0  0  0  0  0  0  0  0
   -4.7493    1.8750    1.3207 C   0  0  0  0  0  0  0  0  0  0  0  0
   -5.0330    1.9067    2.3869 H   0  0  0  0  0  0  0  0  0  0  0  0
   -5.4136    1.1904    0.7572 H   0  0  0  0  0  0  0  0  0  0  0  0
   -4.8217    2.8853    0.8715 H   0  0  0  0  0  0  0  0  0  0  0  0
   -0.3818    3.0472    0.5848 C   0  0  0  0  0  0  0  0  0  0  0  0
   -1.6987    5.0015    0.4299 C   0  0  0  0  0  0  0  0  0  0  0  0
   -2.7087    5.2703    0.0743 H   0  0  0  0  0  0  0  0  0  0  0  0
   -0.9259    5.5386   -0.1549 H   0  0  0  0  0  0  0  0  0  0  0  0
   -1.5769    5.2696    1.4984 H   0  0  0  0  0  0  0  0  0  0  0  0
    2.4813    3.3038   -1.5692 C   0  0  0  0  0  0  0  0  0  0  0  0
    1.8819    3.9538   -2.2335 H   0  0  0  0  0  0  0  0  0  0  0  0
    3.4478    3.0652   -2.0527 H   0  0  0  0  0  0  0  0  0  0  0  0
    2.6436    3.8263   -0.6044 H   0  0  0  0  0  0  0  0  0  0  0  0
    5.5744    1.3741   -0.7611 C   0  0  0  0  0  0  0  0  0  0  0  0
    5.5669    2.0045    0.1529 H   0  0  0  0  0  0  0  0  0  0  0  0
    6.0022    1.9559   -1.5993 H   0  0  0  0  0  0  0  0  0  0  0  0
    6.1899    0.4731   -0.5786 H   0  0  0  0  0  0  0  0  0  0  0  0
    5.1011   -1.7225    1.8776 C   0  0  0  0  0  0  0  0  0  0  0  0
    6.1596   -2.0044    1.7328 H   0  0  0  0  0  0  0  0  0  0  0  0
    4.4704   -2.6366    1.8056 H   0  0  0  0  0  0  0  0  0  0  0  0
    4.9779   -1.2765    2.8887 H   0  0  0  0  0  0  0  0  0  0  0  0
   -2.0349   -1.6340    2.5102 C   0  0  0  0  0  0  0  0  0  0  0  0
   -2.6331   -2.2646    1.8234 H   0  0  0  0  0  0  0  0  0  0  0  0
   -2.5418   -0.6480    2.5975 H   0  0  0  0  0  0  0  0  0  0  0  0
   -1.8541   -2.3141    3.8542 C   0  0  0  0  0  0  0  0  0  0  0  0
   -2.8518   -2.5440    4.2785 H   0  0  0  0  0  0  0  0  0  0  0  0
   -1.3278   -1.6745    4.5890 H   0  0  0  0  0  0  0  0  0  0  0  0
   -1.2997   -3.2689    3.7534 H   0  0  0  0  0  0  0  0  0  0  0  0
   -0.7722   -1.4341    1.8037 O   0  0  0  0  0  0  0  0  0  0  0  0
   -3.3868    1.4135    1.2859 O   0  0  0  0  0  0  0  0  0  0  0  0
   -3.5052    1.3865   -0.9819 O   0  0  0  0  0  0  0  0  0  0  0  0
   -1.5777    3.5842    0.2445 O   0  0  0  0  0  0  0  0  0  0  0  0
    0.5628    3.7035    0.9903 O   0  0  0  0  0  0  0  0  0  0  0  0
    1.6910    2.1236   -1.3609 O   0  0  0  0  0  0  0  0  0  0  0  0
    4.2394    1.0320   -1.1610 O   0  0  0  0  0  0  0  0  0  0  0  0
    4.7925   -0.7917    0.8526 O   0  0  0  0  0  0  0  0  0  0  0  0
  1  2  2  0  0  0  0
  2  3  1  0  0  0  0
  2 18  1  0  0  0  0
  3  9  1  0  0  0  0
  4  5  1  0  0  0  0
  4  3  2  0  0  0  0
  5  6  2  0  0  0  0
  6 49  1  0  0  0  0
  6  7  1  0  0  0  0
  7  8  1  0  0  0  0
  9  7  2  0  0  0  0
  9 10  1  0  0  0  0
 10 12  1  0  0  0  0
 10 11  1  0  0  0  0
 13  1  1  0  0  0  0
 13 43  1  0  0  0  0
 14 15  1  0  0  0  0
 16 14  1  0  0  0  0
 17 14  1  0  0  0  0
 18 46  2  0  0  0  0
 19 22  1  0  0  0  0
 20 19  1  0  0  0  0
 21 19  1  0  0  0  0
 23 47  1  0  0  0  0
 23 26  1  0  0  0  0
 24 23  1  0  0  0  0
 25 23  1  0  0  0  0
 27 30  1  0  0  0  0
 27 28  1  0  0  0  0
 29 27  1  0  0  0  0
 31 34  1  0  0  0  0
 32 31  1  0  0  0  0
 33 31  1  0  0  0  0
 35 37  1  0  0  0  0
 35 38  1  0  0  0  0
 36 35  1  0  0  0  0
 38 39  1  0  0  0  0
 38 40  1  0  0  0  0
 41 38  1  0  0  0  0
 42 10  1  0  0  0  0
 42 35  1  0  0  0  0
 43 14  1  0  0  0  0
 44 13  2  0  0  0  0
 45 19  1  0  0  0  0
 45 18  1  0  0  0  0
 47  4  1  0  0  0  0
 48 27  1  0  0  0  0
 48  5  1  0  0  0  0
 49 31  1  0  0  0  0
M  END
