7
q = -1.0

 21 22  0  0  1  0  0  0  0  0999 V2000
   -2.8710    1.2555    1.0484 O   0  0  0  0  0  0  0  0  0  0  0  0
   -2.6541    0.3204   -1.0440 O   0  0  0  0  0  0  0  0  0  0  0  0
   -2.9059   -2.0103    0.5604 O   0  0  0  0  0  0  0  0  0  0  0  0
   -5.3132    1.3451   -1.4824 O   0  0  0  0  0  0  0  0  0  0  0  0
   -3.8284   -0.3295   -0.7814 N   0  0  0  0  0  0  0  0  0  0  0  0
   -2.2134    1.0867    0.0509 C   0  0  0  0  0  0  0  0  0  0  0  0
   -0.8573    1.5945   -0.2192 C   0  0  1  0  0  3  0  0  0  0  0  0
   -0.0644    2.3244    0.7505 C   0  0  0  0  0  3  0  0  0  0  0  0
    1.1836    2.6470    0.1287 C   0  0  0  0  0  0  0  0  0  0  0  0
    1.1652    2.1228   -1.2012 C   0  0  0  0  0  0  0  0  0  0  0  0
   -0.0776    1.4584   -1.4285 C   0  0  0  0  0  3  0  0  0  0  0  0
   -3.8703   -1.4307    0.1065 C   0  0  0  0  0  0  0  0  0  0  0  0
   -5.3373   -1.6597    0.3316 C   0  0  0  0  0  0  0  0  0  0  0  0
   -6.0402   -0.6722   -0.2646 C   0  0  0  0  0  0  0  0  0  0  0  0
   -5.0943    0.2877   -0.9329 C   0  0  0  0  0  0  0  0  0  0  0  0
   -0.4070    2.6219    1.7479 H   0  0  0  0  0  0  0  0  0  0  0  0
    2.0109    3.2011    0.5871 H   0  0  0  0  0  0  0  0  0  0  0  0
    1.9939    2.1768   -1.9167 H   0  0  0  0  0  0  0  0  0  0  0  0
   -0.4014    0.9667   -2.3519 H   0  0  0  0  0  0  0  0  0  0  0  0
   -5.7034   -2.5171    0.9104 H   0  0  0  0  0  0  0  0  0  0  0  0
   -7.1267   -0.5206   -0.2967 H   0  0  0  0  0  0  0  0  0  0  0  0
  2  5  1  0  0  0  0
  2  6  1  0  0  0  0
  4 15  2  0  0  0  0
  5 12  1  0  0  0  0
  6  1  2  0  0  0  0
  7  6  1  1  0  0  0
  7  8  1  0  0  0  0
  8 16  1  0  0  0  0
  9 17  1  0  0  0  0
  9  8  1  0  0  0  0
 10  9  2  0  0  0  0
 11 10  1  0  0  0  0
 11  7  1  0  0  0  0
 12 13  1  0  0  0  0
 12  3  2  0  0  0  0
 13 20  1  0  0  0  0
 14 13  2  0  0  0  0
 15  5  1  0  0  0  0
 15 14  1  0  0  0  0
 18 10  1  0  0  0  0
 19 11  1  0  0  0  0
 21 14  1  0  0  0  0
M  END
