5
q = -1.0

 30 31  0  0  0  0  0  0  0  0999 V2000
    1.1597    1.8706    0.0091 N   0  0  0  0  0  0  0  0  0  0  0  0
   -0.2089    1.5812    0.3000 B   0  0  0  0  0  0  0  0  0  0  0  0
   -0.6900    0.8062    1.5565 C   0  0  0  0  0  0  0  0  0  0  0  0
   -2.0591    0.7315    1.9033 C   0  0  0  0  0  0  0  0  0  0  0  0
   -3.0878    1.1995    1.0309 C   0  0  0  0  0  3  0  0  0  0  0  0
   -2.7370    1.7416   -0.2469 C   0  0  0  0  0  0  0  0  0  0  0  0
   -1.3945    1.8384   -0.6755 C   0  0  0  0  0  0  0  0  0  0  0  0
    1.6184    2.3630   -1.2763 C   0  0  0  0  0  0  0  0  0  0  0  0
    2.2466    1.5765    0.9407 C   0  0  0  0  0  0  0  0  0  0  0  0
    3.1004    0.3845    0.5400 C   0  0  0  0  0  0  0  0  0  0  0  0
    4.3767    0.5660   -0.0252 C   0  0  0  0  0  0  0  0  0  0  0  0
    5.1473   -0.5341   -0.4348 C   0  0  0  0  0  0  0  0  0  0  0  0
    4.6465   -1.8358   -0.2837 C   0  0  0  0  0  0  0  0  0  0  0  0
    3.3743   -2.0302    0.2795 C   0  0  0  0  0  0  0  0  0  0  0  0
    2.6098   -0.9288    0.6865 C   0  0  0  0  0  0  0  0  0  0  0  0
   -0.0051    0.2900    2.2488 H   0  0  0  0  0  0  0  0  0  0  0  0
   -2.3705    0.2245    2.8319 H   0  0  0  0  0  0  0  0  0  0  0  0
   -4.1440    1.0911    1.3130 H   0  0  0  0  0  0  0  0  0  0  0  0
   -3.5598    1.9978   -0.9350 H   0  0  0  0  0  0  0  0  0  0  0  0
   -1.2606    2.1296   -1.7302 H   0  0  0  0  0  0  0  0  0  0  0  0
    2.1694    1.5824   -1.8492 H   0  0  0  0  0  0  0  0  0  0  0  0
    2.3093    3.2274   -1.1475 H   0  0  0  0  0  0  0  0  0  0  0  0
    0.7673    2.7026   -1.8933 H   0  0  0  0  0  0  0  0  0  0  0  0
    1.8135    1.4079    1.9451 H   0  0  0  0  0  0  0  0  0  0  0  0
    2.9030    2.4735    1.0233 H   0  0  0  0  0  0  0  0  0  0  0  0
    4.7720    1.5882   -0.1431 H   0  0  0  0  0  0  0  0  0  0  0  0
    6.1434   -0.3729   -0.8749 H   0  0  0  0  0  0  0  0  0  0  0  0
    5.2470   -2.7005   -0.6047 H   0  0  0  0  0  0  0  0  0  0  0  0
    2.9739   -3.0484    0.3998 H   0  0  0  0  0  0  0  0  0  0  0  0
    1.6102   -1.0887    1.1190 H   0  0  0  0  0  0  0  0  0  0  0  0
  1  2  1  0  0  0  0
  1  9  1  0  0  0  0
  2  3  1  0  0  0  0
  3  4  2  0  0  0  0
  3 16  1  0  0  0  0
  4 17  1  0  0  0  0
  5 18  1  0  0  0  0
  5  4  1  0  0  0  0
  6  5  1  0  0  0  0
  7  6  2  0  0  0  0
  7  2  1  0  0  0  0
  8 22  1  0  0  0  0
  8  1  1  0  0  0  0
  9 25  1  0  0  0  0
  9 24  1  0  0  0  0
 10 15  1  0  0  0  0
 10  9  1  0  0  0  0
 11 10  2  0  0  0  0
 12 13  2  0  0  0  0
 12 11  1  0  0  0  0
 13 14  1  0  0  0  0
 14 29  1  0  0  0  0
 14 15  2  0  0  0  0
 15 30  1  0  0  0  0
 19  6  1  0  0  0  0
 20  7  1  0  0  0  0
 21  8  1  0  0  0  0
 23  8  1  0  0  0  0
 26 11  1  0  0  0  0
 27 12  1  0  0  0  0
 28 13  1  0  0  0  0
M  END
