39
q = -1.0

 65 65  0  0  0  0  0  0  0  0999 V2000
   -2.3495   -0.2470    0.0009 As  0  0  0  0  0  0  0  0  0  0  0  0
    2.3495   -0.2468   -0.0012 As  0  0  0  0  0  0  0  0  0  0  0  0
   -2.4459    1.5945    0.0256 O   0  0  0  0  0  0  0  0  0  0  0  0
    2.4458    1.5947   -0.0225 O   0  0  0  0  0  0  0  0  0  0  0  0
   -3.4549   -0.5839    1.6586 C   0  0  0  0  0  0  0  0  0  0  0  0
   -2.4865   -0.2435    2.8026 C   0  0  0  0  0  0  0  0  0  0  0  0
   -2.1910    0.8244    2.7743 H   0  0  0  0  0  0  0  0  0  0  0  0
   -1.5565   -0.8457    2.7458 H   0  0  0  0  0  0  0  0  0  0  0  0
   -2.9827   -0.4392    3.7781 H   0  0  0  0  0  0  0  0  0  0  0  0
   -3.8310   -2.0699    1.6873 C   0  0  0  0  0  0  0  0  0  0  0  0
   -2.9406   -2.7238    1.5755 H   0  0  0  0  0  0  0  0  0  0  0  0
   -4.5588   -2.3332    0.8933 H   0  0  0  0  0  0  0  0  0  0  0  0
   -4.3020   -2.3181    2.6633 H   0  0  0  0  0  0  0  0  0  0  0  0
   -4.6871    0.3236    1.7262 C   0  0  0  0  0  0  0  0  0  0  0  0
   -5.1478    0.2374    2.7345 H   0  0  0  0  0  0  0  0  0  0  0  0
   -5.4597    0.0476    0.9848 H   0  0  0  0  0  0  0  0  0  0  0  0
   -4.4098    1.3834    1.5650 H   0  0  0  0  0  0  0  0  0  0  0  0
   -3.3511   -0.5802   -1.7197 C   0  0  0  0  0  0  0  0  0  0  0  0
   -3.2584   -2.0865   -1.9995 C   0  0  0  0  0  0  0  0  0  0  0  0
   -3.8186   -2.6913   -1.2581 H   0  0  0  0  0  0  0  0  0  0  0  0
   -2.2028   -2.4300   -2.0034 H   0  0  0  0  0  0  0  0  0  0  0  0
   -3.6868   -2.3070   -3.0015 H   0  0  0  0  0  0  0  0  0  0  0  0
   -4.8009   -0.0946   -1.6801 C   0  0  0  0  0  0  0  0  0  0  0  0
   -5.2430   -0.1717   -2.6977 H   0  0  0  0  0  0  0  0  0  0  0  0
   -4.8649    0.9654   -1.3646 H   0  0  0  0  0  0  0  0  0  0  0  0
   -5.4305   -0.7048   -1.0029 H   0  0  0  0  0  0  0  0  0  0  0  0
   -2.5415    0.2069   -2.7616 C   0  0  0  0  0  0  0  0  0  0  0  0
   -1.4673   -0.0741   -2.7316 H   0  0  0  0  0  0  0  0  0  0  0  0
   -2.6097    1.2979   -2.5850 H   0  0  0  0  0  0  0  0  0  0  0  0
   -2.9368   -0.0103   -3.7776 H   0  0  0  0  0  0  0  0  0  0  0  0
   -1.2127    2.2084    0.0132 C   0  0  0  0  0  0  0  0  0  0  0  0
   -1.2151    3.6147    0.0128 C   0  0  0  0  0  0  0  0  0  0  0  0
   -2.1839    4.1344    0.0207 H   0  0  0  0  0  0  0  0  0  0  0  0
   -0.0002    4.3131    0.0031 C   0  0  0  0  0  0  0  0  0  0  0  0
   -0.0002    5.4135    0.0037 H   0  0  0  0  0  0  0  0  0  0  0  0
    1.2148    3.6148   -0.0074 C   0  0  0  0  0  0  0  0  0  0  0  0
    2.1835    4.1345   -0.0148 H   0  0  0  0  0  0  0  0  0  0  0  0
    1.2125    2.2085   -0.0094 C   0  0  0  0  0  0  0  0  0  0  0  0
   -0.0001    1.4507    0.0015 C   0  0  0  0  0  3  0  0  0  0  0  0
    3.4533   -0.5809   -1.6605 C   0  0  0  0  0  0  0  0  0  0  0  0
    2.4837   -0.2391   -2.8031 C   0  0  0  0  0  0  0  0  0  0  0  0
    2.1878    0.8286   -2.7729 H   0  0  0  0  0  0  0  0  0  0  0  0
    1.5540   -0.8417   -2.7464 H   0  0  0  0  0  0  0  0  0  0  0  0
    2.9792   -0.4331   -3.7793 H   0  0  0  0  0  0  0  0  0  0  0  0
    4.6851    0.3271   -1.7278 C   0  0  0  0  0  0  0  0  0  0  0  0
    5.4584    0.0503   -0.9874 H   0  0  0  0  0  0  0  0  0  0  0  0
    4.4076    1.3866   -1.5648 H   0  0  0  0  0  0  0  0  0  0  0  0
    5.1450    0.2425   -2.7366 H   0  0  0  0  0  0  0  0  0  0  0  0
    3.8298   -2.0667   -1.6917 C   0  0  0  0  0  0  0  0  0  0  0  0
    4.3000   -2.3133   -2.6685 H   0  0  0  0  0  0  0  0  0  0  0  0
    2.9398   -2.7211   -1.5801 H   0  0  0  0  0  0  0  0  0  0  0  0
    4.5585   -2.3309   -0.8988 H   0  0  0  0  0  0  0  0  0  0  0  0
    3.3529   -0.5832    1.7178 C   0  0  0  0  0  0  0  0  0  0  0  0
    2.5447    0.2024    2.7619 C   0  0  0  0  0  0  0  0  0  0  0  0
    1.4703   -0.0782    2.7325 H   0  0  0  0  0  0  0  0  0  0  0  0
    2.6131    1.2937    2.5872 H   0  0  0  0  0  0  0  0  0  0  0  0
    2.9409   -0.0168    3.7771 H   0  0  0  0  0  0  0  0  0  0  0  0
    4.8028   -0.0980    1.6775 C   0  0  0  0  0  0  0  0  0  0  0  0
    5.2461   -0.1772    2.6943 H   0  0  0  0  0  0  0  0  0  0  0  0
    4.8669    0.9625    1.3639 H   0  0  0  0  0  0  0  0  0  0  0  0
    5.4315   -0.7072    0.9983 H   0  0  0  0  0  0  0  0  0  0  0  0
    3.2601   -2.0899    1.9950 C   0  0  0  0  0  0  0  0  0  0  0  0
    3.8192   -2.6937    1.2520 H   0  0  0  0  0  0  0  0  0  0  0  0
    2.2043   -2.4331    1.9996 H   0  0  0  0  0  0  0  0  0  0  0  0
    3.6895   -2.3123    2.9962 H   0  0  0  0  0  0  0  0  0  0  0  0
  1  3  1  0  0  0  0
  1  5  1  0  0  0  0
  2 53  1  0  0  0  0
  4 38  1  0  0  0  0
  4  2  1  0  0  0  0
  5 10  1  0  0  0  0
  5 14  1  0  0  0  0
  5  6  1  0  0  0  0
  6  9  1  0  0  0  0
  7  6  1  0  0  0  0
  8  6  1  0  0  0  0
 10 13  1  0  0  0  0
 11 10  1  0  0  0  0
 12 10  1  0  0  0  0
 14 15  1  0  0  0  0
 16 14  1  0  0  0  0
 17 14  1  0  0  0  0
 18 23  1  0  0  0  0
 18  1  1  0  0  0  0
 19 18  1  0  0  0  0
 19 20  1  0  0  0  0
 21 19  1  0  0  0  0
 22 19  1  0  0  0  0
 23 25  1  0  0  0  0
 23 26  1  0  0  0  0
 24 23  1  0  0  0  0
 27 28  1  0  0  0  0
 27 29  1  0  0  0  0
 27 18  1  0  0  0  0
 30 27  1  0  0  0  0
 31  3  1  0  0  0  0
 32 31  1  0  0  0  0
 32 33  1  0  0  0  0
 34 35  1  0  0  0  0
 34 32  2  0  0  0  0
 36 34  1  0  0  0  0
 37 36  1  0  0  0  0
 38 36  2  0  0  0  0
 38 39  1  0  0  0  0
 39 31  2  0  0  0  0
 40  2  1  0  0  0  0
 41 42  1  0  0  0  0
 41 43  1  0  0  0  0
 41 40  1  0  0  0  0
 44 41  1  0  0  0  0
 45 40  1  0  0  0  0
 45 47  1  0  0  0  0
 45 46  1  0  0  0  0
 48 45  1  0  0  0  0
 49 40  1  0  0  0  0
 49 51  1  0  0  0  0
 49 52  1  0  0  0  0
 50 49  1  0  0  0  0
 53 62  1  0  0  0  0
 53 54  1  0  0  0  0
 54 57  1  0  0  0  0
 55 54  1  0  0  0  0
 56 54  1  0  0  0  0
 58 53  1  0  0  0  0
 58 59  1  0  0  0  0
 60 58  1  0  0  0  0
 61 58  1  0  0  0  0
 62 64  1  0  0  0  0
 62 65  1  0  0  0  0
 63 62  1  0  0  0  0
M  END
