1
q = 0.0, confidence = 0.998

 52 53  0  0  0  0  0  0  0  0999 V2000
   -0.9591   -0.1472    0.9656 C   0  0  0  0  0  2  0  0  0  0  0  0
    0.3855   -0.6602    0.7253 C   0  0  0  0  0  0  0  0  0  0  0  0
    1.5190    0.0553    0.3767 C   0  0  0  0  0  0  0  0  0  0  0  0
   -1.1027    0.8358    1.8469 N   0  0  0  0  0  0  0  0  0  0  0  0
    0.0135    1.3897    2.5315 O   0  0  0  0  0  0  0  0  0  0  0  0
    0.3435    0.5971    3.6684 C   0  0  0  0  0  0  0  0  0  0  0  0
   -2.2641    1.6648    2.1028 C   0  0  0  0  0  0  0  0  0  0  0  0
    2.8056   -0.6448    0.2048 C   0  0  0  0  0  0  0  0  0  0  0  0
    3.1296   -1.8011    0.9560 C   0  0  0  0  0  0  0  0  0  0  0  0
    4.3301   -2.4865    0.7828 C   0  0  0  0  0  0  0  0  0  0  0  0
    5.2937   -2.0479   -0.1722 C   0  0  0  0  0  0  0  0  0  0  0  0
    4.9759   -0.8826   -0.9274 C   0  0  0  0  0  0  0  0  0  0  0  0
    3.7702   -0.2087   -0.7360 C   0  0  0  0  0  0  0  0  0  0  0  0
    6.4849   -2.7224   -0.3534 N   0  0  0  0  0  0  0  0  0  0  0  0
    6.7615   -3.9238    0.4075 C   0  0  0  0  0  0  0  0  0  0  0  0
    7.4434   -2.2490   -1.3310 C   0  0  0  0  0  0  0  0  0  0  0  0
    1.4544    1.5022    0.0876 C   0  0  0  0  0  0  0  0  0  0  0  0
    2.4524    2.4005    0.5314 C   0  0  0  0  0  0  0  0  0  0  0  0
    2.3545    3.7750    0.3140 C   0  0  0  0  0  0  0  0  0  0  0  0
    1.2412    4.3323   -0.3797 C   0  0  0  0  0  0  0  0  0  0  0  0
    0.2513    3.4258   -0.8573 C   0  0  0  0  0  0  0  0  0  0  0  0
    0.3670    2.0558   -0.6261 C   0  0  0  0  0  0  0  0  0  0  0  0
    1.1308    5.6934   -0.5912 N   0  0  0  0  0  0  0  0  0  0  0  0
    2.1742    6.5852   -0.1310 C   0  0  0  0  0  0  0  0  0  0  0  0
   -0.0105    6.2229   -1.3093 C   0  0  0  0  0  0  0  0  0  0  0  0
    0.4451   -1.7573    0.6495 H   0  0  0  0  0  0  0  0  0  0  0  0
    1.1950    1.1180    4.1461 H   0  0  0  0  0  0  0  0  0  0  0  0
   -0.5020    0.5338    4.3902 H   0  0  0  0  0  0  0  0  0  0  0  0
    0.6617   -0.4260    3.3714 H   0  0  0  0  0  0  0  0  0  0  0  0
   -3.1592    1.1851    1.6779 H   0  0  0  0  0  0  0  0  0  0  0  0
   -2.3882    1.7972    3.1955 H   0  0  0  0  0  0  0  0  0  0  0  0
   -2.1127    2.6580    1.6318 H   0  0  0  0  0  0  0  0  0  0  0  0
    2.4220   -2.1594    1.7195 H   0  0  0  0  0  0  0  0  0  0  0  0
    4.5284   -3.3676    1.4063 H   0  0  0  0  0  0  0  0  0  0  0  0
    5.6749   -0.5046   -1.6842 H   0  0  0  0  0  0  0  0  0  0  0  0
    3.5506    0.6753   -1.3527 H   0  0  0  0  0  0  0  0  0  0  0  0
    6.7880   -3.7298    1.5039 H   0  0  0  0  0  0  0  0  0  0  0  0
    6.0027   -4.7189    0.2278 H   0  0  0  0  0  0  0  0  0  0  0  0
    7.7477   -4.3251    0.1128 H   0  0  0  0  0  0  0  0  0  0  0  0
    7.7827   -1.2110   -1.1142 H   0  0  0  0  0  0  0  0  0  0  0  0
    8.3331   -2.9040   -1.3191 H   0  0  0  0  0  0  0  0  0  0  0  0
    7.0294   -2.2550   -2.3652 H   0  0  0  0  0  0  0  0  0  0  0  0
    3.3181    2.0074    1.0859 H   0  0  0  0  0  0  0  0  0  0  0  0
    3.1506    4.4264    0.6970 H   0  0  0  0  0  0  0  0  0  0  0  0
   -0.6125    3.7871   -1.4299 H   0  0  0  0  0  0  0  0  0  0  0  0
   -0.4012    1.3830   -1.0329 H   0  0  0  0  0  0  0  0  0  0  0  0
    3.1600    6.3595   -0.5989 H   0  0  0  0  0  0  0  0  0  0  0  0
    1.9080    7.6259   -0.3899 H   0  0  0  0  0  0  0  0  0  0  0  0
    2.3117    6.5351    0.9732 H   0  0  0  0  0  0  0  0  0  0  0  0
   -0.9722    5.9674   -0.8102 H   0  0  0  0  0  0  0  0  0  0  0  0
    0.0637    7.3244   -1.3547 H   0  0  0  0  0  0  0  0  0  0  0  0
   -0.0680    5.8411   -2.3544 H   0  0  0  0  0  0  0  0  0  0  0  0
  1  4  1  0  0  0  0
  2  1  1  0  0  0  0
  3  2  2  0  0  0  0
  4  7  1  0  0  0  0
  4  5  1  0  0  0  0
  5  6  1  0  0  0  0
  6 27  1  0  0  0  0
  6 28  1  0  0  0  0
  7 31  1  0  0  0  0
  8  3  1  0  0  0  0
  8  9  1  0  0  0  0
  9 33  1  0  0  0  0
 10  9  2  0  0  0  0
 10 34  1  0  0  0  0
 11 10  1  0  0  0  0
 12 13  1  0  0  0  0
 12 11  2  0  0  0  0
 13  8  2  0  0  0  0
 14 11  1  0  0  0  0
 14 15  1  0  0  0  0
 15 37  1  0  0  0  0
 16 41  1  0  0  0  0
 16 40  1  0  0  0  0
 16 14  1  0  0  0  0
 17  3  1  0  0  0  0
 17 18  1  0  0  0  0
 18 43  1  0  0  0  0
 19 18  2  0  0  0  0
 19 44  1  0  0  0  0
 20 19  1  0  0  0  0
 21 22  1  0  0  0  0
 21 20  2  0  0  0  0
 22 17  2  0  0  0  0
 23 20  1  0  0  0  0
 23 24  1  0  0  0  0
 24 49  1  0  0  0  0
 25 50  1  0  0  0  0
 25 23  1  0  0  0  0
 26  2  1  0  0  0  0
 29  6  1  0  0  0  0
 30  7  1  0  0  0  0
 32  7  1  0  0  0  0
 35 12  1  0  0  0  0
 36 13  1  0  0  0  0
 38 15  1  0  0  0  0
 39 15  1  0  0  0  0
 42 16  1  0  0  0  0
 45 21  1  0  0  0  0
 46 22  1  0  0  0  0
 47 24  1  0  0  0  0
 48 24  1  0  0  0  0
 51 25  1  0  0  0  0
 52 25  1  0  0  0  0
M  END
