9
q = 0.0, confidence = 0.926

 17 17  0  0  0  0  0  0  0  0999 V2000
   -1.3499    0.9198   -0.1157 C   0  0  0  0  0  3  0  0  0  0  0  0
   -3.8121    1.1267   -0.3358 C   0  0  0  0  0  0  0  0  0  0  0  0
   -5.0932    0.5704   -0.3021 C   0  0  0  0  0  0  0  0  0  0  0  0
   -5.2923   -0.7937    0.0058 C   0  0  0  0  0  0  0  0  0  0  0  0
   -4.1550   -1.5798    0.2836 C   0  0  0  0  0  0  0  0  0  0  0  0
   -2.8655   -1.0401    0.2313 C   0  0  0  0  0  0  0  0  0  0  0  0
   -2.6697    0.3251   -0.0841 C   0  0  0  0  0  0  0  0  0  0  0  0
   -6.6773   -1.3875    0.0183 C   0  0  0  0  0  0  0  0  0  0  0  0
   -0.7230    2.0773    0.1265 C   0  0  0  0  0  3  0  0  0  0  0  0
   -1.1301    3.6681    0.6021 Cl  0  0  0  0  0  0  0  0  0  0  0  0
   -3.6761    2.1948   -0.5615 H   0  0  0  0  0  0  0  0  0  0  0  0
   -5.9663    1.2096   -0.5101 H   0  0  0  0  0  0  0  0  0  0  0  0
   -4.2849   -2.6422    0.5442 H   0  0  0  0  0  0  0  0  0  0  0  0
   -1.9943   -1.6681    0.4615 H   0  0  0  0  0  0  0  0  0  0  0  0
   -7.4098   -0.7037    0.4929 H   0  0  0  0  0  0  0  0  0  0  0  0
   -6.7044   -2.3534    0.5591 H   0  0  0  0  0  0  0  0  0  0  0  0
   -7.0387   -1.5766   -1.0157 H   0  0  0  0  0  0  0  0  0  0  0  0
  1  7  1  0  0  0  0
  1  9  2  0  0  0  0
  2  3  2  0  0  0  0
  2  7  1  0  0  0  0
  3  4  1  0  0  0  0
  4  8  1  0  0  0  0
  4  5  2  0  0  0  0
  5 13  1  0  0  0  0
  6  5  1  0  0  0  0
  6 14  1  0  0  0  0
  7  6  2  0  0  0  0
  8 15  1  0  0  0  0
  8 16  1  0  0  0  0
  9 10  1  0  0  0  0
 11  2  1  0  0  0  0
 12  3  1  0  0  0  0
 17  8  1  0  0  0  0
M  END
