2
q = -1.0

 15 14  0  0  0  0  0  0  0  0999 V2000
   -0.1412    0.5402   -2.3922 C   0  0  0  0  0  3  0  0  0  0  0  0
    0.7521   -0.5316   -2.0767 C   0  0  0  0  0  3  0  0  0  0  0  0
    1.8829   -0.1569   -1.2829 C   0  0  0  0  0  3  0  0  0  0  0  0
    2.8958   -1.0961   -0.8199 C   0  0  0  0  0  0  0  0  0  0  0  0
    4.1710   -0.7812   -0.4704 C   0  0  0  0  0  0  0  0  0  0  0  0
    4.8230    0.5670   -0.4678 C   0  0  0  0  0  0  0  0  0  0  0  0
   -1.0773    0.3230   -2.9262 H   0  0  0  0  0  0  0  0  0  0  0  0
    0.2865    1.5427   -2.5579 H   0  0  0  0  0  0  0  0  0  0  0  0
    0.5324   -1.5818   -2.3243 H   0  0  0  0  0  0  0  0  0  0  0  0
    2.2091    0.8895   -1.3866 H   0  0  0  0  0  0  0  0  0  0  0  0
    2.5891   -2.1507   -0.7681 H   0  0  0  0  0  0  0  0  0  0  0  0
    4.8226   -1.6189   -0.1649 H   0  0  0  0  0  0  0  0  0  0  0  0
    5.7260    0.5691   -1.1160 H   0  0  0  0  0  0  0  0  0  0  0  0
    5.1800    0.8378    0.5501 H   0  0  0  0  0  0  0  0  0  0  0  0
    4.1583    1.3778   -0.8235 H   0  0  0  0  0  0  0  0  0  0  0  0
  1  2  1  0  0  0  0
  2  3  1  0  0  0  0
  3  4  1  0  0  0  0
  4 11  1  0  0  0  0
  4  5  2  0  0  0  0
  5  6  1  0  0  0  0
  5 12  1  0  0  0  0
  6 14  1  0  0  0  0
  7  1  1  0  0  0  0
  8  1  1  0  0  0  0
  9  2  1  0  0  0  0
 10  3  1  0  0  0  0
 13  6  1  0  0  0  0
 15  6  1  0  0  0  0
M  END
