6
q = -1.0, confidence = 0.0

 23 23  0  0  0  0  0  0  0  0999 V2000
    2.2151   -0.0694   -0.9713 Si  0  0  0  0  0  0  0  0  0  0  0  0
    3.8953    0.0794   -0.0806 C   0  0  0  0  0  0  0  0  0  0  0  0
    6.3669    0.2676    1.3138 C   0  0  0  0  0  0  0  0  0  0  0  0
    4.1981   -0.7837    0.9985 C   0  0  0  0  0  0  0  0  0  0  0  0
    4.8670    1.0397   -0.4394 C   0  0  0  0  0  0  0  0  0  0  0  0
    0.8596    0.3362    0.2659 C   0  0  0  0  0  3  0  0  0  0  0  0
    5.4160   -0.6961    1.6892 C   0  0  0  0  0  0  0  0  0  0  0  0
    6.0891    1.1363    0.2473 C   0  0  0  0  0  0  0  0  0  0  0  0
    2.0783   -1.8424   -1.6200 C   0  0  0  0  0  0  0  0  0  0  0  0
    2.1535    1.1580   -2.4065 C   0  0  0  0  0  0  0  0  0  0  0  0
    7.3241    0.3403    1.8532 H   0  0  0  0  0  0  0  0  0  0  0  0
    3.4635   -1.5462    1.3104 H   0  0  0  0  0  0  0  0  0  0  0  0
    4.6691    1.7301   -1.2752 H   0  0  0  0  0  0  0  0  0  0  0  0
    0.9565    1.4118    0.5321 H   0  0  0  0  0  0  0  0  0  0  0  0
    0.9615   -0.2465    1.2097 H   0  0  0  0  0  0  0  0  0  0  0  0
    5.6273   -1.3820    2.5248 H   0  0  0  0  0  0  0  0  0  0  0  0
    6.8301    1.8939   -0.0530 H   0  0  0  0  0  0  0  0  0  0  0  0
    2.9433   -2.0890   -2.2687 H   0  0  0  0  0  0  0  0  0  0  0  0
    1.1483   -1.9652   -2.2075 H   0  0  0  0  0  0  0  0  0  0  0  0
    2.0588   -2.5780   -0.7895 H   0  0  0  0  0  0  0  0  0  0  0  0
    2.9624    0.9729   -3.1424 H   0  0  0  0  0  0  0  0  0  0  0  0
    2.2436    2.2037   -2.0469 H   0  0  0  0  0  0  0  0  0  0  0  0
    1.1782    1.0597   -2.9241 H   0  0  0  0  0  0  0  0  0  0  0  0
  1  2  1  0  0  0  0
  1  6  1  0  0  0  0
  2  4  1  0  0  0  0
  3  7  1  0  0  0  0
  3 11  1  0  0  0  0
  4 12  1  0  0  0  0
  4  7  2  0  0  0  0
  5  2  2  0  0  0  0
  5  8  1  0  0  0  0
  6 14  1  0  0  0  0
  6 15  1  0  0  0  0
  7 16  1  0  0  0  0
  8  3  2  0  0  0  0
  9  1  1  0  0  0  0
  9 20  1  0  0  0  0
 10 22  1  0  0  0  0
 10  1  1  0  0  0  0
 13  5  1  0  0  0  0
 17  8  1  0  0  0  0
 18  9  1  0  0  0  0
 19  9  1  0  0  0  0
 21 10  1  0  0  0  0
 23 10  1  0  0  0  0
M  END
