5
q = 0.0, confidence = 0.984

 39 40  0  0  1  0  0  0  0  0999 V2000
   -2.4366    1.1355   -0.7077 O   0  0  0  0  0  0  0  0  0  0  0  0
   -2.3677    3.4372    0.8876 O   0  0  0  0  0  0  0  0  0  0  0  0
    1.0756    2.5849    0.2044 O   0  0  0  0  0  0  0  0  0  0  0  0
    1.3052   -1.8783    0.2237 C   0  0  0  0  0  3  0  0  0  0  0  0
    0.8680   -1.3143   -1.0189 C   0  0  0  0  0  3  0  0  0  0  0  0
   -0.0849   -0.2571   -0.9578 C   0  0  0  0  0  3  0  0  0  0  0  0
   -0.5219    0.1629    0.3410 C   0  0  0  0  0  3  0  0  0  0  0  0
   -1.6599    1.1416    0.4876 C   0  0  1  0  0  0  0  0  0  0  0  0
   -3.6010    1.9381   -0.5701 C   0  0  0  0  0  0  0  0  0  0  0  0
   -3.2033    3.3761   -0.2637 C   0  0  0  0  0  0  0  0  0  0  0  0
   -1.2188    2.5955    0.8033 C   0  0  1  0  0  0  0  0  0  0  0  0
   -0.1676    3.1380   -0.1759 C   0  0  0  0  0  0  0  0  0  0  0  0
    2.0106    2.3958   -0.8352 C   0  0  0  0  0  0  0  0  0  0  0  0
    3.0727    1.4153   -0.3943 C   0  0  0  0  0  0  0  0  0  0  0  0
    3.7929    0.6748   -1.3506 C   0  0  0  0  0  0  0  0  0  0  0  0
    4.7701   -0.2482   -0.9511 C   0  0  0  0  0  0  0  0  0  0  0  0
    5.0360   -0.4460    0.4135 C   0  0  0  0  0  0  0  0  0  0  0  0
    4.3231    0.2909    1.3721 C   0  0  0  0  0  0  0  0  0  0  0  0
    3.3482    1.2177    0.9714 C   0  0  0  0  0  0  0  0  0  0  0  0
    1.8786   -2.8170    0.1897 H   0  0  0  0  0  0  0  0  0  0  0  0
    1.5732   -1.2174    1.0624 H   0  0  0  0  0  0  0  0  0  0  0  0
    1.1367   -1.7560   -1.9911 H   0  0  0  0  0  0  0  0  0  0  0  0
   -0.5775    0.1177   -1.8667 H   0  0  0  0  0  0  0  0  0  0  0  0
    0.2261    0.2447    1.1436 H   0  0  0  0  0  0  0  0  0  0  0  0
   -2.3072    0.8327    1.3457 H   0  0  0  0  0  0  0  0  0  0  0  0
   -4.2448    1.5374    0.2502 H   0  0  0  0  0  0  0  0  0  0  0  0
   -4.1618    1.8676   -1.5240 H   0  0  0  0  0  0  0  0  0  0  0  0
   -2.6972    3.8208   -1.1548 H   0  0  0  0  0  0  0  0  0  0  0  0
   -4.0956    3.9948   -0.0376 H   0  0  0  0  0  0  0  0  0  0  0  0
   -0.7609    2.6184    1.8143 H   0  0  0  0  0  0  0  0  0  0  0  0
   -0.1636    4.2531   -0.1193 H   0  0  0  0  0  0  0  0  0  0  0  0
   -0.4227    2.8493   -1.2225 H   0  0  0  0  0  0  0  0  0  0  0  0
    2.4787    3.3706   -1.1288 H   0  0  0  0  0  0  0  0  0  0  0  0
    1.5038    2.0018   -1.7496 H   0  0  0  0  0  0  0  0  0  0  0  0
    3.5752    0.8122   -2.4223 H   0  0  0  0  0  0  0  0  0  0  0  0
    5.3202   -0.8255   -1.7099 H   0  0  0  0  0  0  0  0  0  0  0  0
    5.7970   -1.1758    0.7287 H   0  0  0  0  0  0  0  0  0  0  0  0
    4.5254    0.1410    2.4438 H   0  0  0  0  0  0  0  0  0  0  0  0
    2.7769    1.7896    1.7162 H   0  0  0  0  0  0  0  0  0  0  0  0
  1  9  1  0  0  0  0
  1  8  1  0  0  0  0
  4 21  1  0  0  0  0
  5  6  1  0  0  0  0
  5  4  1  0  0  0  0
  6  7  1  0  0  0  0
  7  8  1  0  0  0  0
  7 24  1  0  0  0  0
  8 11  1  0  0  0  0
  8 25  1  1  0  0  0
  9 10  1  0  0  0  0
  9 26  1  0  0  0  0
 10 29  1  0  0  0  0
 10  2  1  0  0  0  0
 11  2  1  0  0  0  0
 11 30  1  1  0  0  0
 12 31  1  0  0  0  0
 12  3  1  0  0  0  0
 12 11  1  0  0  0  0
 13 14  1  0  0  0  0
 13  3  1  0  0  0  0
 14 19  1  0  0  0  0
 15 16  1  0  0  0  0
 15 14  2  0  0  0  0
 16 17  2  0  0  0  0
 17 37  1  0  0  0  0
 17 18  1  0  0  0  0
 18 38  1  0  0  0  0
 19 18  2  0  0  0  0
 19 39  1  0  0  0  0
 20  4  1  0  0  0  0
 22  5  1  0  0  0  0
 23  6  1  0  0  0  0
 27  9  1  0  0  0  0
 28 10  1  0  0  0  0
 32 12  1  0  0  0  0
 33 13  1  0  0  0  0
 34 13  1  0  0  0  0
 35 15  1  0  0  0  0
 36 16  1  0  0  0  0
M  END
