5
q = -1.0

 27 26  0  0  0  0  0  0  0  0999 V2000
    2.6560   -0.8839    1.4357 O   0  0  0  0  0  0  0  0  0  0  0  0
    2.6381    1.3440    1.0111 O   0  0  0  0  0  0  0  0  0  0  0  0
    3.8048   -0.5222   -2.3221 O   0  0  0  0  0  0  0  0  0  0  0  0
    3.7565   -2.6502   -1.5084 O   0  0  0  0  0  0  0  0  0  0  0  0
    1.5363   -0.0363   -0.5429 C   0  0  0  0  0  3  0  0  0  0  0  0
    1.8172    0.8068   -1.1997 H   0  0  0  0  0  0  0  0  0  0  0  0
    2.3224    0.0565    0.7209 C   0  0  0  0  0  0  0  0  0  0  0  0
    3.2596    1.5672    2.2920 C   0  0  0  0  0  0  0  0  0  0  0  0
    4.2550    1.0755    2.3237 H   0  0  0  0  0  0  0  0  0  0  0  0
    2.6189    1.0878    3.0657 H   0  0  0  0  0  0  0  0  0  0  0  0
    3.3463    3.0451    2.5039 C   0  0  0  0  0  0  0  0  0  0  0  0
    2.4033    3.5944    2.3336 H   0  0  0  0  0  0  0  0  0  0  0  0
    4.4554    3.6943    2.8943 C   0  0  0  0  0  0  0  0  0  0  0  0
    5.4077    3.1606    3.0531 H   0  0  0  0  0  0  0  0  0  0  0  0
    4.4536    4.7800    3.0771 H   0  0  0  0  0  0  0  0  0  0  0  0
    1.7820   -1.3568   -1.2611 C   0  0  0  0  0  0  0  0  0  0  0  0
    1.5959   -2.2247   -0.6042 H   0  0  0  0  0  0  0  0  0  0  0  0
    1.1202   -1.4368   -2.1471 H   0  0  0  0  0  0  0  0  0  0  0  0
    3.2127   -1.4270   -1.7640 C   0  0  0  0  0  0  0  0  0  0  0  0
    5.1384   -2.8286   -1.8435 C   0  0  0  0  0  0  0  0  0  0  0  0
    5.4253   -2.0802   -2.6149 H   0  0  0  0  0  0  0  0  0  0  0  0
    5.2229   -3.8415   -2.2937 H   0  0  0  0  0  0  0  0  0  0  0  0
    6.0342   -2.7085   -0.6437 C   0  0  0  0  0  0  0  0  0  0  0  0
    7.0992   -2.9178   -0.8537 H   0  0  0  0  0  0  0  0  0  0  0  0
    5.6416   -2.3751    0.5966 C   0  0  0  0  0  0  0  0  0  0  0  0
    4.5893   -2.1536    0.8391 H   0  0  0  0  0  0  0  0  0  0  0  0
    6.3769   -2.3012    1.4128 H   0  0  0  0  0  0  0  0  0  0  0  0
  2  8  1  0  0  0  0
  3 19  2  0  0  0  0
  5  7  1  0  0  0  0
  6  5  1  0  0  0  0
  7  2  1  0  0  0  0
  7  1  2  0  0  0  0
  8  9  1  0  0  0  0
  8 11  1  0  0  0  0
  8 10  1  0  0  0  0
 11 13  2  0  0  0  0
 12 11  1  0  0  0  0
 13 14  1  0  0  0  0
 13 15  1  0  0  0  0
 16 17  1  0  0  0  0
 16  5  1  0  0  0  0
 18 16  1  0  0  0  0
 19  4  1  0  0  0  0
 19 16  1  0  0  0  0
 20  4  1  0  0  0  0
 20 23  1  0  0  0  0
 21 20  1  0  0  0  0
 22 20  1  0  0  0  0
 23 25  2  0  0  0  0
 24 23  1  0  0  0  0
 25 26  1  0  0  0  0
 25 27  1  0  0  0  0
M  END
