1,2
q = 0.0, confidence = 0.872

 28 27  0  0  0  0  0  0  0  0999 V2000
   -1.7960    1.7251    0.0550 As  0  0  0  0  0  2  0  0  0  0  0  0
    0.5959    2.4181   -0.0556 As  0  0  0  0  0  2  0  0  0  0  0  0
    0.7022    3.1705    1.8681 C   0  0  0  0  0  0  0  0  0  0  0  0
    0.1333    2.2371    2.9334 C   0  0  0  0  0  0  0  0  0  0  0  0
   -0.9453    2.0444    2.7638 H   0  0  0  0  0  0  0  0  0  0  0  0
    0.6593    1.2640    2.9507 H   0  0  0  0  0  0  0  0  0  0  0  0
    0.2346    2.7000    3.9410 H   0  0  0  0  0  0  0  0  0  0  0  0
   -0.1098    4.4724    1.8025 C   0  0  0  0  0  0  0  0  0  0  0  0
   -1.1797    4.2746    1.5869 H   0  0  0  0  0  0  0  0  0  0  0  0
   -0.0508    5.0020    2.7792 H   0  0  0  0  0  0  0  0  0  0  0  0
    0.2757    5.1616    1.0227 H   0  0  0  0  0  0  0  0  0  0  0  0
    2.1762    3.4868    2.1455 C   0  0  0  0  0  0  0  0  0  0  0  0
    2.6230    4.1141    1.3460 H   0  0  0  0  0  0  0  0  0  0  0  0
    2.2644    4.0482    3.1022 H   0  0  0  0  0  0  0  0  0  0  0  0
    2.7865    2.5658    2.2303 H   0  0  0  0  0  0  0  0  0  0  0  0
   -2.3950    2.1928   -1.8687 C   0  0  0  0  0  0  0  0  0  0  0  0
   -1.8710    1.2334   -2.9339 C   0  0  0  0  0  0  0  0  0  0  0  0
   -2.2439    0.2032   -2.7646 H   0  0  0  0  0  0  0  0  0  0  0  0
   -0.7653    1.2019   -2.9509 H   0  0  0  0  0  0  0  0  0  0  0  0
   -2.2208    1.5528   -3.9416 H   0  0  0  0  0  0  0  0  0  0  0  0
   -3.9284    2.1399   -1.8030 C   0  0  0  0  0  0  0  0  0  0  0  0
   -4.2915    1.1143   -1.5873 H   0  0  0  0  0  0  0  0  0  0  0  0
   -4.3578    2.4556   -2.7796 H   0  0  0  0  0  0  0  0  0  0  0  0
   -4.3327    2.8182   -1.0231 H   0  0  0  0  0  0  0  0  0  0  0  0
   -1.9328    3.6278   -2.1465 C   0  0  0  0  0  0  0  0  0  0  0  0
   -2.2518    4.3281   -1.3464 H   0  0  0  0  0  0  0  0  0  0  0  0
   -2.3767    3.9849   -3.1024 H   0  0  0  0  0  0  0  0  0  0  0  0
   -0.8302    3.6967   -2.2334 H   0  0  0  0  0  0  0  0  0  0  0  0
  2  1  1  0  0  0  0
  2  3  1  0  0  0  0
  3 12  1  0  0  0  0
  3  4  1  0  0  0  0
  4  6  1  0  0  0  0
  4  7  1  0  0  0  0
  5  4  1  0  0  0  0
  8  3  1  0  0  0  0
  8 10  1  0  0  0  0
  9  8  1  0  0  0  0
 11  8  1  0  0  0  0
 12 15  1  0  0  0  0
 12 14  1  0  0  0  0
 13 12  1  0  0  0  0
 16 21  1  0  0  0  0
 16  1  1  0  0  0  0
 17 18  1  0  0  0  0
 17 16  1  0  0  0  0
 19 17  1  0  0  0  0
 20 17  1  0  0  0  0
 21 22  1  0  0  0  0
 21 24  1  0  0  0  0
 23 21  1  0  0  0  0
 25 16  1  0  0  0  0
 25 26  1  0  0  0  0
 27 25  1  0  0  0  0
 28 25  1  0  0  0  0
M  END
