1,2,45
q = -1.0, confidence = 0.0

 45 47  0  0  0  0  0  0  0  0999 V2000
   -1.9439    0.0584   -0.3103 P   0  0  0  0  0  0  0  0  0  0  0  0
   -0.0499    2.0930    0.9716 N   0  0  0  0  0  2  0  0  0  0  0  0
    0.7051    3.1996    0.8953 N   0  0  0  0  0  0  0  0  0  0  0  0
    1.9433    4.6139   -0.3749 N   0  0  0  0  0  0  0  0  0  0  0  0
    2.1380    5.0178    0.5437 H   0  0  0  0  0  0  0  0  0  0  0  0
   -2.0792   -0.2162    1.5185 C   0  0  0  0  0  0  0  0  0  0  0  0
   -1.4427    0.6779    2.4441 C   0  0  0  0  0  0  0  0  0  0  0  0
   -1.6815    0.4627    3.8284 C   0  0  0  0  0  0  0  0  0  0  0  0
   -1.2038    1.1484    4.5453 H   0  0  0  0  0  0  0  0  0  0  0  0
   -2.4745   -0.5847    4.3006 C   0  0  0  0  0  0  0  0  0  0  0  0
   -2.6192   -0.7177    5.3836 H   0  0  0  0  0  0  0  0  0  0  0  0
   -3.0796   -1.4606    3.3881 C   0  0  0  0  0  0  0  0  0  0  0  0
   -3.7125   -2.2901    3.7376 H   0  0  0  0  0  0  0  0  0  0  0  0
   -2.8851   -1.2591    2.0133 C   0  0  0  0  0  0  0  0  0  0  0  0
   -3.3796   -1.9355    1.3010 H   0  0  0  0  0  0  0  0  0  0  0  0
   -0.5875    1.8180    2.1371 C   0  0  0  0  0  3  0  0  0  0  0  0
   -0.3637    2.5109    2.9724 H   0  0  0  0  0  0  0  0  0  0  0  0
    1.1512    3.5055   -0.3361 C   0  0  0  0  0  0  0  0  0  0  0  0
    2.6306    5.1109   -1.5407 C   0  0  0  0  0  0  0  0  0  0  0  0
    3.4592    4.4397   -1.8638 H   0  0  0  0  0  0  0  0  0  0  0  0
    3.0512    6.1089   -1.3122 H   0  0  0  0  0  0  0  0  0  0  0  0
    1.9326    5.2023   -2.3981 H   0  0  0  0  0  0  0  0  0  0  0  0
   -2.6119   -1.4800   -1.0598 C   0  0  0  0  0  0  0  0  0  0  0  0
   -3.6152   -1.4527   -2.0513 C   0  0  0  0  0  0  0  0  0  0  0  0
   -4.1062   -0.5017   -2.3058 H   0  0  0  0  0  0  0  0  0  0  0  0
   -3.9892   -2.6322   -2.7147 C   0  0  0  0  0  0  0  0  0  0  0  0
   -4.7739   -2.5948   -3.4860 H   0  0  0  0  0  0  0  0  0  0  0  0
   -3.3735   -3.8527   -2.3959 C   0  0  0  0  0  0  0  0  0  0  0  0
   -3.6719   -4.7760   -2.9154 H   0  0  0  0  0  0  0  0  0  0  0  0
   -2.3718   -3.8877   -1.4110 C   0  0  0  0  0  0  0  0  0  0  0  0
   -1.8738   -4.8366   -1.1599 H   0  0  0  0  0  0  0  0  0  0  0  0
   -1.9876   -2.7114   -0.7554 C   0  0  0  0  0  0  0  0  0  0  0  0
   -1.1901   -2.7434    0.0022 H   0  0  0  0  0  0  0  0  0  0  0  0
   -3.2633    1.3166   -0.5911 C   0  0  0  0  0  0  0  0  0  0  0  0
   -4.5750    1.1473   -0.1009 C   0  0  0  0  0  0  0  0  0  0  0  0
   -4.8379    0.2386    0.4627 H   0  0  0  0  0  0  0  0  0  0  0  0
   -5.5406    2.1379   -0.3254 C   0  0  0  0  0  0  0  0  0  0  0  0
   -6.5643    2.0017    0.0559 H   0  0  0  0  0  0  0  0  0  0  0  0
   -5.1995    3.3071   -1.0285 C   0  0  0  0  0  0  0  0  0  0  0  0
   -5.9586    4.0860   -1.1994 H   0  0  0  0  0  0  0  0  0  0  0  0
   -3.8911    3.4838   -1.5030 C   0  0  0  0  0  0  0  0  0  0  0  0
   -3.6170    4.4029   -2.0433 H   0  0  0  0  0  0  0  0  0  0  0  0
   -2.9201    2.4927   -1.2851 C   0  0  0  0  0  0  0  0  0  0  0  0
   -1.8814    2.6297   -1.6323 H   0  0  0  0  0  0  0  0  0  0  0  0
    0.8015    2.6798   -1.8387 S   0  0  0  0  0  1  0  0  0  0  0  0
  1  6  1  0  0  0  0
  2 16  1  0  0  0  0
  3  2  1  0  0  0  0
  4 18  1  0  0  0  0
  4  5  1  0  0  0  0
  6 14  2  0  0  0  0
  6  7  1  0  0  0  0
  7  8  2  0  0  0  0
  8 10  1  0  0  0  0
  8  9  1  0  0  0  0
 10 11  1  0  0  0  0
 12 13  1  0  0  0  0
 12 10  2  0  0  0  0
 14 12  1  0  0  0  0
 15 14  1  0  0  0  0
 16  7  1  0  0  0  0
 16 17  1  0  0  0  0
 18  3  2  0  0  0  0
 19 21  1  0  0  0  0
 19  4  1  0  0  0  0
 20 19  1  0  0  0  0
 22 19  1  0  0  0  0
 23 32  1  0  0  0  0
 23  1  1  0  0  0  0
 24 23  2  0  0  0  0
 25 24  1  0  0  0  0
 26 28  2  0  0  0  0
 26 24  1  0  0  0  0
 27 26  1  0  0  0  0
 28 30  1  0  0  0  0
 29 28  1  0  0  0  0
 30 31  1  0  0  0  0
 30 32  2  0  0  0  0
 32 33  1  0  0  0  0
 34  1  1  0  0  0  0
 34 35  1  0  0  0  0
 35 36  1  0  0  0  0
 37 35  2  0  0  0  0
 37 38  1  0  0  0  0
 39 37  1  0  0  0  0
 40 39  1  0  0  0  0
 41 43  1  0  0  0  0
 41 39  2  0  0  0  0
 42 41  1  0  0  0  0
 43 34  2  0  0  0  0
 44 43  1  0  0  0  0
 45 18  1  0  0  0  0
M  END
