1,2,3
q = 0.0, confidence = 1.0

 57 58  0  0  1  0  0  0  0  0999 V2000
   -2.0890    0.8514    0.8054 S   0  0  0  0  0  0  0  0  0  0  0  0
    1.1183    0.3367    0.3551 P   0  0  0  0  0  0  0  0  0  0  0  0
   -0.8621   -2.2856    0.4701 N   0  0  0  0  0  0  0  0  0  0  0  0
    0.6511    0.3031    2.1715 C   0  0  0  0  0  0  0  0  0  0  0  0
    1.5593    0.1264    2.7834 H   0  0  0  0  0  0  0  0  0  0  0  0
    0.3297    1.3378    2.4080 H   0  0  0  0  0  0  0  0  0  0  0  0
   -0.3251   -2.0698    1.8450 C   0  0  0  0  0  0  0  0  0  0  0  0
    0.7603   -2.2849    1.8058 H   0  0  0  0  0  0  0  0  0  0  0  0
   -0.7678   -2.8551    2.5034 H   0  0  0  0  0  0  0  0  0  0  0  0
   -1.8684   -0.0476    2.4049 C   0  0  0  0  0  0  0  0  0  0  0  0
   -2.0094    0.6997    3.2119 H   0  0  0  0  0  0  0  0  0  0  0  0
   -2.6662   -0.8093    2.5158 H   0  0  0  0  0  0  0  0  0  0  0  0
   -0.4754   -0.6973    2.5651 C   0  0  2  0  0  0  0  0  0  0  0  0
   -0.3095   -1.0006    4.0719 C   0  0  0  0  0  0  0  0  0  0  0  0
    0.6261   -1.5671    4.2591 H   0  0  0  0  0  0  0  0  0  0  0  0
   -1.1556   -1.6057    4.4580 H   0  0  0  0  0  0  0  0  0  0  0  0
   -0.2597   -0.0618    4.6587 H   0  0  0  0  0  0  0  0  0  0  0  0
    3.1861   -0.8527   -1.0667 C   0  0  0  0  0  0  0  0  0  0  0  0
    2.7161   -0.3346   -1.9155 H   0  0  0  0  0  0  0  0  0  0  0  0
    4.3131   -1.6570   -1.2780 C   0  0  0  0  0  0  0  0  0  0  0  0
    4.7239   -1.7573   -2.2938 H   0  0  0  0  0  0  0  0  0  0  0  0
    4.9040   -2.3441   -0.2037 C   0  0  0  0  0  0  0  0  0  0  0  0
    5.7818   -2.9860   -0.3727 H   0  0  0  0  0  0  0  0  0  0  0  0
    4.3680   -2.2084    1.0849 C   0  0  0  0  0  0  0  0  0  0  0  0
    4.8266   -2.7386    1.9337 H   0  0  0  0  0  0  0  0  0  0  0  0
    3.2457   -1.3907    1.3012 C   0  0  0  0  0  0  0  0  0  0  0  0
    2.8548   -1.2884    2.3245 H   0  0  0  0  0  0  0  0  0  0  0  0
    2.6375   -0.7095    0.2278 C   0  0  0  0  0  0  0  0  0  0  0  0
    3.1811    2.3269    0.3506 C   0  0  0  0  0  0  0  0  0  0  0  0
    3.8979    1.5060    0.5016 H   0  0  0  0  0  0  0  0  0  0  0  0
    3.6402    3.6510    0.2702 C   0  0  0  0  0  0  0  0  0  0  0  0
    4.7174    3.8600    0.3593 H   0  0  0  0  0  0  0  0  0  0  0  0
    2.7322    4.7032    0.0752 C   0  0  0  0  0  0  0  0  0  0  0  0
    3.0954    5.7401    0.0073 H   0  0  0  0  0  0  0  0  0  0  0  0
    1.3600    4.4284   -0.0424 C   0  0  0  0  0  0  0  0  0  0  0  0
    0.6435    5.2474   -0.2068 H   0  0  0  0  0  0  0  0  0  0  0  0
    0.8964    3.1073    0.0276 C   0  0  0  0  0  0  0  0  0  0  0  0
   -0.1765    2.8897   -0.0819 H   0  0  0  0  0  0  0  0  0  0  0  0
    1.8054    2.0476    0.2299 C   0  0  0  0  0  0  0  0  0  0  0  0
   -2.2569   -2.7707    0.5421 C   0  0  0  0  0  0  0  0  0  0  0  0
   -2.9292   -1.9770    0.9087 H   0  0  0  0  0  0  0  0  0  0  0  0
   -2.3359   -3.6557    1.2197 H   0  0  0  0  0  0  0  0  0  0  0  0
   -2.5990   -3.0552   -0.4682 H   0  0  0  0  0  0  0  0  0  0  0  0
   -0.0485   -3.3517   -0.1624 C   0  0  0  0  0  0  0  0  0  0  0  0
    0.9934   -3.0044   -0.2861 H   0  0  0  0  0  0  0  0  0  0  0  0
   -0.4600   -3.5795   -1.1617 H   0  0  0  0  0  0  0  0  0  0  0  0
   -0.0573   -4.2806    0.4580 H   0  0  0  0  0  0  0  0  0  0  0  0
   -3.9457    0.8357    0.6145 C   0  0  0  0  0  0  0  0  0  0  0  0
   -4.2234   -0.2248    0.4316 H   0  0  0  0  0  0  0  0  0  0  0  0
   -4.6393    1.3732    1.8628 C   0  0  0  0  0  0  0  0  0  0  0  0
   -4.4690    0.7425    2.7569 H   0  0  0  0  0  0  0  0  0  0  0  0
   -5.7349    1.4118    1.6902 H   0  0  0  0  0  0  0  0  0  0  0  0
   -4.2946    2.4029    2.0904 H   0  0  0  0  0  0  0  0  0  0  0  0
   -4.2543    1.6656   -0.6290 C   0  0  0  0  0  0  0  0  0  0  0  0
   -3.7063    1.2918   -1.5143 H   0  0  0  0  0  0  0  0  0  0  0  0
   -3.9798    2.7287   -0.4722 H   0  0  0  0  0  0  0  0  0  0  0  0
   -5.3404    1.6160   -0.8469 H   0  0  0  0  0  0  0  0  0  0  0  0
  1 10  1  0  0  0  0
  2  4  1  0  0  0  0
  3 40  1  0  0  0  0
  3  7  1  0  0  0  0
  4  6  1  0  0  0  0
  4 13  1  0  0  0  0
  4  5  1  0  0  0  0
  7  9  1  0  0  0  0
  8  7  1  0  0  0  0
 10 12  1  0  0  0  0
 10 13  1  0  0  0  0
 10 11  1  0  0  0  0
 13  7  1  6  0  0  0
 13 14  1  0  0  0  0
 14 15  1  0  0  0  0
 14 16  1  0  0  0  0
 14 17  1  0  0  0  0
 18 28  1  0  0  0  0
 19 18  1  0  0  0  0
 20 18  2  0  0  0  0
 20 22  1  0  0  0  0
 21 20  1  0  0  0  0
 22 24  2  0  0  0  0
 23 22  1  0  0  0  0
 24 26  1  0  0  0  0
 24 25  1  0  0  0  0
 26 27  1  0  0  0  0
 28  2  1  0  0  0  0
 28 26  2  0  0  0  0
 29 30  1  0  0  0  0
 31 29  1  0  0  0  0
 31 32  1  0  0  0  0
 33 31  2  0  0  0  0
 34 33  1  0  0  0  0
 35 37  2  0  0  0  0
 35 33  1  0  0  0  0
 36 35  1  0  0  0  0
 37 39  1  0  0  0  0
 38 37  1  0  0  0  0
 39 29  2  0  0  0  0
 39  2  1  0  0  0  0
 40 41  1  0  0  0  0
 40 42  1  0  0  0  0
 43 40  1  0  0  0  0
 44 47  1  0  0  0  0
 44  3  1  0  0  0  0
 45 44  1  0  0  0  0
 46 44  1  0  0  0  0
 48  1  1  0  0  0  0
 48 50  1  0  0  0  0
 49 48  1  0  0  0  0
 50 53  1  0  0  0  0
 50 51  1  0  0  0  0
 52 50  1  0  0  0  0
 54 56  1  0  0  0  0
 54 48  1  0  0  0  0
 55 54  1  0  0  0  0
 57 54  1  0  0  0  0
M  END
