1,2,4
 OpenBabel05122313063D

 49 50  0  0  1  0  0  0  0  0999 V2000
    1.7955    2.1034    0.0573 S   0  0  0  0  0  0  0  0  0  0  0  0
   -1.0607   -0.0492    0.4339 P   0  0  0  0  0  0  0  0  0  0  0  0
   -1.0429    0.2382    2.1197 O   0  0  0  0  0  0  0  0  0  0  0  0
    2.0978   -0.7370    1.5774 N   0  0  0  0  0  0  0  0  0  0  0  0
    1.0745    2.4174    1.7216 C   0  0  0  0  0  0  0  0  0  0  0  0
    1.6235    1.4798    2.8021 C   0  0  0  0  0  0  0  0  0  0  0  0
    1.4005   -0.0485    2.7199 C   0  0  1  0  0  0  0  0  0  0  0  0
   -0.0790   -0.4437    2.9083 C   0  0  0  0  0  0  0  0  0  0  0  0
    0.8303    3.3047   -0.9138 C   0  0  0  0  0  0  0  0  0  0  0  0
    3.5314   -0.3567    1.5734 C   0  0  0  0  0  0  0  0  0  0  0  0
    2.0488   -2.2057    1.7826 C   0  0  0  0  0  0  0  0  0  0  0  0
   -2.1329    1.3973    0.0132 C   0  0  0  0  0  0  0  0  0  0  0  0
   -2.6356    2.2727    0.9969 C   0  0  0  0  0  0  0  0  0  0  0  0
   -3.4197    3.3761    0.6232 C   0  0  0  0  0  0  0  0  0  0  0  0
   -3.7167    3.6079   -0.7285 C   0  0  0  0  0  0  0  0  0  0  0  0
   -3.2298    2.7275   -1.7092 C   0  0  0  0  0  0  0  0  0  0  0  0
   -2.4407    1.6273   -1.3442 C   0  0  0  0  0  0  0  0  0  0  0  0
   -2.2874   -1.4226    0.3241 C   0  0  0  0  0  0  0  0  0  0  0  0
   -3.1199   -1.7402    1.4157 C   0  0  0  0  0  0  0  0  0  0  0  0
   -4.0549   -2.7797    1.3033 C   0  0  0  0  0  0  0  0  0  0  0  0
   -4.1741   -3.4942    0.1000 C   0  0  0  0  0  0  0  0  0  0  0  0
   -3.3531   -3.1697   -0.9919 C   0  0  0  0  0  0  0  0  0  0  0  0
   -2.4059   -2.1411   -0.8817 C   0  0  0  0  0  0  0  0  0  0  0  0
    1.3331    3.4625    1.9920 H   0  0  0  0  0  0  0  0  0  0  0  0
   -0.0245    2.3412    1.6363 H   0  0  0  0  0  0  0  0  0  0  0  0
    2.7045    1.6804    2.9421 H   0  0  0  0  0  0  0  0  0  0  0  0
    1.1494    1.7941    3.7564 H   0  0  0  0  0  0  0  0  0  0  0  0
    1.8914   -0.4498    3.6445 H   0  0  0  0  0  0  0  0  0  0  0  0
   -0.3363   -0.1884    3.9574 H   0  0  0  0  0  0  0  0  0  0  0  0
   -0.2024   -1.5443    2.8156 H   0  0  0  0  0  0  0  0  0  0  0  0
    1.1050    3.1317   -1.9705 H   0  0  0  0  0  0  0  0  0  0  0  0
   -0.2528    3.1219   -0.7856 H   0  0  0  0  0  0  0  0  0  0  0  0
    1.1020    4.3349   -0.6118 H   0  0  0  0  0  0  0  0  0  0  0  0
    3.9905   -0.5210    2.5779 H   0  0  0  0  0  0  0  0  0  0  0  0
    4.0602   -0.9774    0.8293 H   0  0  0  0  0  0  0  0  0  0  0  0
    3.6646    0.6990    1.2779 H   0  0  0  0  0  0  0  0  0  0  0  0
    1.0185   -2.5881    1.6901 H   0  0  0  0  0  0  0  0  0  0  0  0
    2.6497   -2.6927    0.9952 H   0  0  0  0  0  0  0  0  0  0  0  0
    2.4606   -2.4788    2.7845 H   0  0  0  0  0  0  0  0  0  0  0  0
   -2.4101    2.0801    2.0553 H   0  0  0  0  0  0  0  0  0  0  0  0
   -3.8043    4.0577    1.3977 H   0  0  0  0  0  0  0  0  0  0  0  0
   -4.3300    4.4744   -1.0192 H   0  0  0  0  0  0  0  0  0  0  0  0
   -3.4591    2.9005   -2.7715 H   0  0  0  0  0  0  0  0  0  0  0  0
   -2.0454    0.9624   -2.1253 H   0  0  0  0  0  0  0  0  0  0  0  0
   -3.0309   -1.1638    2.3488 H   0  0  0  0  0  0  0  0  0  0  0  0
   -4.6991   -3.0308    2.1602 H   0  0  0  0  0  0  0  0  0  0  0  0
   -4.9092   -4.3089    0.0136 H   0  0  0  0  0  0  0  0  0  0  0  0
   -3.4404   -3.7290   -1.9356 H   0  0  0  0  0  0  0  0  0  0  0  0
   -1.7474   -1.8978   -1.7289 H   0  0  0  0  0  0  0  0  0  0  0  0
  1  5  1  0  0  0  0
  2  3  1  0  0  0  0
  3  8  1  0  0  0  0
  4 11  1  0  0  0  0
  4  7  1  0  0  0  0
  5 24  1  0  0  0  0
  5  6  1  0  0  0  0
  6 26  1  0  0  0  0
  6 27  1  0  0  0  0
  7  6  1  0  0  0  0
  7  8  1  0  0  0  0
  7 28  1  1  0  0  0
  8 29  1  0  0  0  0
  9 32  1  0  0  0  0
  9 33  1  0  0  0  0
  9  1  1  0  0  0  0
 10  4  1  0  0  0  0
 10 34  1  0  0  0  0
 11 39  1  0  0  0  0
 12  2  1  0  0  0  0
 12 13  1  0  0  0  0
 13 40  1  0  0  0  0
 14 13  2  0  0  0  0
 14 41  1  0  0  0  0
 15 14  1  0  0  0  0
 16 17  1  0  0  0  0
 16 15  2  0  0  0  0
 17 12  2  0  0  0  0
 18  2  1  0  0  0  0
 18 19  1  0  0  0  0
 19 45  1  0  0  0  0
 20 19  2  0  0  0  0
 20 46  1  0  0  0  0
 21 20  1  0  0  0  0
 22 23  1  0  0  0  0
 22 21  2  0  0  0  0
 23 18  2  0  0  0  0
 25  5  1  0  0  0  0
 30  8  1  0  0  0  0
 31  9  1  0  0  0  0
 35 10  1  0  0  0  0
 36 10  1  0  0  0  0
 37 11  1  0  0  0  0
 38 11  1  0  0  0  0
 42 15  1  0  0  0  0
 43 16  1  0  0  0  0
 44 17  1  0  0  0  0
 47 21  1  0  0  0  0
 48 22  1  0  0  0  0
 49 23  1  0  0  0  0
M  END
