1,37,66
q = -1.0, confidence = 0.006

 66 70  0  0  1  0  0  0  0  0999 V2000
   -2.3505   -0.0822   -0.2046 P   0  0  0  0  0  0  0  0  0  0  0  0
   -2.0075    1.5637   -0.9952 C   0  0  0  0  0  0  0  0  0  0  0  0
   -1.3629    1.3168   -1.8641 H   0  0  0  0  0  0  0  0  0  0  0  0
   -2.9525    2.0244   -1.3420 H   0  0  0  0  0  0  0  0  0  0  0  0
   -1.3127    2.4292    0.0166 C   0  0  0  0  0  0  0  0  0  0  0  0
   -1.9730    3.5613    0.5328 C   0  0  0  0  0  0  0  0  0  0  0  0
   -2.9809    3.7946    0.1560 H   0  0  0  0  0  0  0  0  0  0  0  0
   -1.3836    4.3856    1.4997 C   0  0  0  0  0  0  0  0  0  0  0  0
   -1.9258    5.2644    1.8787 H   0  0  0  0  0  0  0  0  0  0  0  0
   -0.1049    4.0719    1.9840 C   0  0  0  0  0  0  0  0  0  0  0  0
    0.3726    4.7015    2.7498 H   0  0  0  0  0  0  0  0  0  0  0  0
    0.5617    2.9415    1.4994 C   0  0  0  0  0  0  0  0  0  0  0  0
    1.5532    2.6683    1.8890 H   0  0  0  0  0  0  0  0  0  0  0  0
   -0.0193    2.1112    0.5153 C   0  0  0  0  0  0  0  0  0  0  0  0
   -3.3559   -1.0614   -1.3688 C   0  0  0  0  0  0  0  0  0  0  0  0
   -3.9457   -2.2557   -0.9026 C   0  0  0  0  0  0  0  0  0  0  0  0
   -3.7898   -2.5744    0.1376 H   0  0  0  0  0  0  0  0  0  0  0  0
   -4.7136   -3.0411   -1.7729 C   0  0  0  0  0  0  0  0  0  0  0  0
   -5.1671   -3.9737   -1.4051 H   0  0  0  0  0  0  0  0  0  0  0  0
   -4.8932   -2.6472   -3.1086 C   0  0  0  0  0  0  0  0  0  0  0  0
   -5.4941   -3.2682   -3.7903 H   0  0  0  0  0  0  0  0  0  0  0  0
   -4.2994   -1.4645   -3.5759 C   0  0  0  0  0  0  0  0  0  0  0  0
   -4.4300   -1.1562   -4.6241 H   0  0  0  0  0  0  0  0  0  0  0  0
   -3.5286   -0.6736   -2.7115 C   0  0  0  0  0  0  0  0  0  0  0  0
   -3.0526    0.2396   -3.0946 H   0  0  0  0  0  0  0  0  0  0  0  0
   -3.5238    0.3723    1.1414 C   0  0  0  0  0  0  0  0  0  0  0  0
   -4.9143    0.3888    0.8963 C   0  0  0  0  0  0  0  0  0  0  0  0
   -5.3069    0.0423   -0.0710 H   0  0  0  0  0  0  0  0  0  0  0  0
   -5.7988    0.8440    1.8848 C   0  0  0  0  0  0  0  0  0  0  0  0
   -6.8812    0.8478    1.6849 H   0  0  0  0  0  0  0  0  0  0  0  0
   -5.3070    1.2912    3.1214 C   0  0  0  0  0  0  0  0  0  0  0  0
   -6.0035    1.6463    3.8963 H   0  0  0  0  0  0  0  0  0  0  0  0
   -3.9257    1.2796    3.3669 C   0  0  0  0  0  0  0  0  0  0  0  0
   -3.5319    1.6265    4.3341 H   0  0  0  0  0  0  0  0  0  0  0  0
   -3.0344    0.8212    2.3854 C   0  0  0  0  0  0  0  0  0  0  0  0
   -1.9556    0.8025    2.5908 H   0  0  0  0  0  0  0  0  0  0  0  0
    0.7183    0.9518    0.1183 N   0  0  0  0  0  2  0  0  0  0  0  0
    1.9694    1.1557   -0.3645 C   0  0  0  0  0  0  0  0  0  0  0  0
    2.2439    2.3960   -1.1550 C   0  0  0  0  0  0  0  0  0  0  0  0
    3.4155    3.1476   -0.9337 C   0  0  0  0  0  0  0  0  0  0  0  0
    4.1090    2.8304   -0.1410 H   0  0  0  0  0  0  0  0  0  0  0  0
    3.6768    4.2935   -1.6957 C   0  0  0  0  0  0  0  0  0  0  0  0
    4.5849    4.8849   -1.5031 H   0  0  0  0  0  0  0  0  0  0  0  0
    2.7811    4.6874   -2.7039 C   0  0  0  0  0  0  0  0  0  0  0  0
    2.9886    5.5852   -3.3059 H   0  0  0  0  0  0  0  0  0  0  0  0
    1.6250    3.9281   -2.9471 C   0  0  0  0  0  0  0  0  0  0  0  0
    0.9319    4.2199   -3.7506 H   0  0  0  0  0  0  0  0  0  0  0  0
    1.3541    2.7917   -2.1744 C   0  0  0  0  0  0  0  0  0  0  0  0
    0.4696    2.1726   -2.3790 H   0  0  0  0  0  0  0  0  0  0  0  0
    3.0256    0.3667   -0.2019 N   0  0  0  0  0  0  0  0  0  0  0  0
    4.4098   -1.1776    0.7797 N   0  0  0  0  0  0  0  0  0  0  0  0
    4.7678   -2.4837    1.3259 C   0  0  0  0  0  0  0  0  0  0  0  0
    3.9080   -3.1736    1.2364 H   0  0  0  0  0  0  0  0  0  0  0  0
    5.0078   -2.3639    2.4067 H   0  0  0  0  0  0  0  0  0  0  0  0
    5.9952   -3.0301    0.5918 C   0  0  0  0  0  0  0  0  0  0  0  0
    6.3354   -3.9717    1.0666 H   0  0  0  0  0  0  0  0  0  0  0  0
    5.7180   -3.2484   -0.4694 H   0  0  0  0  0  0  0  0  0  0  0  0
    7.0801   -2.1190    0.6483 O   0  0  0  0  0  0  0  0  0  0  0  0
    6.7270   -0.8792    0.0597 C   0  0  0  0  0  0  0  0  0  0  0  0
    6.4832   -1.0146   -1.0233 H   0  0  0  0  0  0  0  0  0  0  0  0
    7.6132   -0.2181    0.1378 H   0  0  0  0  0  0  0  0  0  0  0  0
    5.5266   -0.2340    0.7598 C   0  0  0  0  0  0  0  0  0  0  0  0
    5.1968    0.6776    0.2295 H   0  0  0  0  0  0  0  0  0  0  0  0
    5.7975    0.0313    1.8066 H   0  0  0  0  0  0  0  0  0  0  0  0
    3.1745   -0.8503    0.2934 C   0  0  2  0  0  3  0  0  0  0  0  0
    1.9446   -2.1182    0.3073 S   0  0  0  0  0  1  0  0  0  0  0  0
  1 26  1  0  0  0  0
  2  1  1  0  0  0  0
  2  5  1  0  0  0  0
  3  2  1  0  0  0  0
  4  2  1  0  0  0  0
  5 14  2  0  0  0  0
  5  6  1  0  0  0  0
  6  8  2  0  0  0  0
  7  6  1  0  0  0  0
  8  9  1  0  0  0  0
  8 10  1  0  0  0  0
 10 11  1  0  0  0  0
 12 13  1  0  0  0  0
 12 10  2  0  0  0  0
 14 12  1  0  0  0  0
 15 16  1  0  0  0  0
 15  1  1  0  0  0  0
 16 17  1  0  0  0  0
 18 19  1  0  0  0  0
 18 16  2  0  0  0  0
 20 18  1  0  0  0  0
 21 20  1  0  0  0  0
 22 20  2  0  0  0  0
 22 24  1  0  0  0  0
 23 22  1  0  0  0  0
 24 15  2  0  0  0  0
 25 24  1  0  0  0  0
 26 35  1  0  0  0  0
 27 26  2  0  0  0  0
 27 29  1  0  0  0  0
 28 27  1  0  0  0  0
 29 31  2  0  0  0  0
 30 29  1  0  0  0  0
 31 33  1  0  0  0  0
 31 32  1  0  0  0  0
 33 34  1  0  0  0  0
 35 36  1  0  0  0  0
 35 33  2  0  0  0  0
 37 14  1  0  0  0  0
 38 50  2  0  0  0  0
 38 37  1  0  0  0  0
 39 40  1  0  0  0  0
 39 38  1  0  0  0  0
 40 41  1  0  0  0  0
 42 43  1  0  0  0  0
 42 40  2  0  0  0  0
 44 42  1  0  0  0  0
 45 44  1  0  0  0  0
 46 44  2  0  0  0  0
 46 48  1  0  0  0  0
 47 46  1  0  0  0  0
 48 39  2  0  0  0  0
 49 48  1  0  0  0  0
 50 65  1  0  0  0  0
 51 52  1  0  0  0  0
 52 54  1  0  0  0  0
 53 52  1  0  0  0  0
 55 58  1  0  0  0  0
 55 56  1  0  0  0  0
 55 52  1  0  0  0  0
 57 55  1  0  0  0  0
 59 61  1  0  0  0  0
 59 58  1  0  0  0  0
 59 62  1  0  0  0  0
 60 59  1  0  0  0  0
 62 51  1  0  0  0  0
 62 64  1  0  0  0  0
 63 62  1  0  0  0  0
 65 66  1  6  0  0  0
 65 51  1  0  0  0  0
M  END
