2,3
q = -1.0, confidence = 0.008

 16 16  0  0  0  0  0  0  0  0999 V2000
    1.9365    1.7104   -0.2518 N   0  0  0  0  0  0  0  0  0  0  0  0
    0.6539    1.7837   -0.3373 N   0  0  0  0  0  1  0  0  0  0  0  0
    1.5402   -0.5745    0.0751 C   0  0  0  0  0  3  0  0  0  0  0  0
    1.9952   -1.8893    0.2654 C   0  0  0  0  0  0  0  0  0  0  0  0
    1.2729   -2.7179    0.3118 H   0  0  0  0  0  0  0  0  0  0  0  0
    3.3709   -2.1557    0.3852 C   0  0  0  0  0  0  0  0  0  0  0  0
    3.7104   -3.1897    0.5539 H   0  0  0  0  0  0  0  0  0  0  0  0
    4.3229   -1.1232    0.2776 C   0  0  0  0  0  0  0  0  0  0  0  0
    5.3960   -1.3502    0.3611 H   0  0  0  0  0  0  0  0  0  0  0  0
    3.9052    0.1947    0.0484 C   0  0  0  0  0  0  0  0  0  0  0  0
    4.6427    1.0028   -0.0653 H   0  0  0  0  0  0  0  0  0  0  0  0
    2.5240    0.4416   -0.0419 C   0  0  0  0  0  0  0  0  0  0  0  0
    2.7381    2.9301   -0.3479 C   0  0  0  0  0  0  0  0  0  0  0  0
    2.0361    3.7720   -0.4722 H   0  0  0  0  0  0  0  0  0  0  0  0
    3.4156    2.8699   -1.2228 H   0  0  0  0  0  0  0  0  0  0  0  0
    3.3443    3.0629    0.5707 H   0  0  0  0  0  0  0  0  0  0  0  0
  1 12  1  0  0  0  0
  2  1  1  0  0  0  0
  3  4  1  0  0  0  0
  4  5  1  0  0  0  0
  4  6  2  0  0  0  0
  6  7  1  0  0  0  0
  8  9  1  0  0  0  0
  8  6  1  0  0  0  0
 10  8  2  0  0  0  0
 11 10  1  0  0  0  0
 12 10  1  0  0  0  0
 12  3  2  0  0  0  0
 13  1  1  0  0  0  0
 13 16  1  0  0  0  0
 14 13  1  0  0  0  0
 15 13  1  0  0  0  0
M  END
