1,9
q = -1.0

 19 19  0  0  0  0  0  0  0  0999 V2000
    0.5597    0.7076   -1.4059 N   0  0  0  0  0  1  0  0  0  0  0  0
    1.1449    1.9211   -1.8637 C   0  0  0  0  0  0  0  0  0  0  0  0
    2.2487    2.4252   -0.9141 C   0  0  0  0  0  0  0  0  0  0  0  0
    1.8100    2.4772    0.5615 C   0  0  0  0  0  0  0  0  0  0  0  0
    1.5137    1.1323    1.1760 C   0  0  0  0  0  0  0  0  0  0  0  0
    0.3600    0.7669    1.9437 C   0  0  0  0  0  0  0  0  0  0  0  0
    0.4912   -0.5988    2.3714 C   0  0  0  0  0  0  0  0  0  0  0  0
    1.7024   -1.0944    1.8435 C   0  0  0  0  0  0  0  0  0  0  0  0
    2.3258   -0.0398    1.0912 C   0  0  0  0  0  3  0  0  0  0  0  0
    0.3627    2.7132   -1.9818 H   0  0  0  0  0  0  0  0  0  0  0  0
    1.5729    1.7720   -2.8829 H   0  0  0  0  0  0  0  0  0  0  0  0
    2.5759    3.4350   -1.2387 H   0  0  0  0  0  0  0  0  0  0  0  0
    3.1327    1.7603   -1.0120 H   0  0  0  0  0  0  0  0  0  0  0  0
    0.9180    3.1297    0.6682 H   0  0  0  0  0  0  0  0  0  0  0  0
    2.6160    2.9607    1.1549 H   0  0  0  0  0  0  0  0  0  0  0  0
   -0.4450    1.4505    2.2371 H   0  0  0  0  0  0  0  0  0  0  0  0
   -0.2456   -1.1670    2.9515 H   0  0  0  0  0  0  0  0  0  0  0  0
    2.0714   -2.1235    1.9171 H   0  0  0  0  0  0  0  0  0  0  0  0
    3.2673   -0.1334    0.5386 H   0  0  0  0  0  0  0  0  0  0  0  0
  2  1  1  0  0  0  0
  2  3  1  0  0  0  0
  3  4  1  0  0  0  0
  4 14  1  0  0  0  0
  4 15  1  0  0  0  0
  4  5  1  0  0  0  0
  5  6  2  0  0  0  0
  6 16  1  0  0  0  0
  6  7  1  0  0  0  0
  7 17  1  0  0  0  0
  8 18  1  0  0  0  0
  8  7  2  0  0  0  0
  9  5  1  0  0  0  0
  9  8  1  0  0  0  0
 10  2  1  0  0  0  0
 11  2  1  0  0  0  0
 12  3  1  0  0  0  0
 13  3  1  0  0  0  0
 19  9  1  0  0  0  0
M  END
