1,3
q = -2.0, confidence = 0.626

 19 18  0  0  0  0  0  0  0  0999 V2000
   -1.2679   -0.0829   -1.1206 N   0  0  0  0  0  1  0  0  0  0  0  0
   -1.7946   -0.1080    2.4772 C   0  0  0  0  0  3  0  0  0  0  0  0
   -1.3370   -0.0697    1.2082 C   0  0  0  0  0  3  0  0  0  0  0  0
   -2.0661   -0.0881   -0.0891 C   0  0  0  0  0  0  0  0  0  0  0  0
   -3.6128   -0.0622   -0.2720 C   0  0  0  0  0  0  0  0  0  0  0  0
   -4.2785   -1.2737    0.4156 C   0  0  0  0  0  0  0  0  0  0  0  0
   -4.1692    1.2416    0.3415 C   0  0  0  0  0  0  0  0  0  0  0  0
   -3.9527   -0.0966   -1.7688 C   0  0  0  0  0  0  0  0  0  0  0  0
   -2.8680   -0.1510    2.7449 H   0  0  0  0  0  0  0  0  0  0  0  0
   -1.1063   -0.0819    3.3419 H   0  0  0  0  0  0  0  0  0  0  0  0
   -3.9834   -2.2228   -0.0718 H   0  0  0  0  0  0  0  0  0  0  0  0
   -4.0167   -1.3487    1.4876 H   0  0  0  0  0  0  0  0  0  0  0  0
   -5.3830   -1.1879    0.3402 H   0  0  0  0  0  0  0  0  0  0  0  0
   -3.7396    2.1310   -0.1616 H   0  0  0  0  0  0  0  0  0  0  0  0
   -5.2710    1.2831    0.2119 H   0  0  0  0  0  0  0  0  0  0  0  0
   -3.9484    1.3202    1.4231 H   0  0  0  0  0  0  0  0  0  0  0  0
   -5.0536   -0.0934   -1.9095 H   0  0  0  0  0  0  0  0  0  0  0  0
   -3.5268    0.7767   -2.2991 H   0  0  0  0  0  0  0  0  0  0  0  0
   -3.5378   -1.0031   -2.2521 H   0  0  0  0  0  0  0  0  0  0  0  0
  1  4  1  0  0  0  0
  2  9  1  0  0  0  0
  2 10  1  0  0  0  0
  3  2  1  0  0  0  0
  4  3  2  0  0  0  0
  5  4  1  0  0  0  0
  5  7  1  0  0  0  0
  5  6  1  0  0  0  0
  6 12  1  0  0  0  0
  7 16  1  0  0  0  0
  8  5  1  0  0  0  0
 11  6  1  0  0  0  0
 13  6  1  0  0  0  0
 14  7  1  0  0  0  0
 15  7  1  0  0  0  0
 17  8  1  0  0  0  0
 18  8  1  0  0  0  0
 19  8  1  0  0  0  0
M  END
