1,2,3,4
q = -1.0

 22 21  0  0  0  0  0  0  0  0999 V2000
   -2.8255   -0.9596    1.4919 S   0  0  0  0  0  1  0  0  0  0  0  0
    0.1860    0.4255   -0.5093 S   0  0  0  0  0  1  0  0  0  0  0  0
   -3.4334    1.1622   -1.7084 S   0  0  0  0  0  1  0  0  0  0  0  0
   -2.0391    1.9625    0.9293 N   0  0  0  0  0  0  0  0  0  0  0  0
   -3.2833    2.7193    0.6133 C   0  0  0  0  0  0  0  0  0  0  0  0
   -3.2305    3.7344    1.0760 H   0  0  0  0  0  0  0  0  0  0  0  0
   -4.1228    2.1769    1.0895 H   0  0  0  0  0  0  0  0  0  0  0  0
   -3.5541    2.8224   -0.8801 C   0  0  0  0  0  0  0  0  0  0  0  0
   -2.8540    3.5178   -1.3885 H   0  0  0  0  0  0  0  0  0  0  0  0
   -4.5775    3.2168   -1.0444 H   0  0  0  0  0  0  0  0  0  0  0  0
   -2.0132    1.5648    2.3656 C   0  0  0  0  0  0  0  0  0  0  0  0
   -0.9870    1.2098    2.5821 H   0  0  0  0  0  0  0  0  0  0  0  0
   -2.2040    2.4601    3.0052 H   0  0  0  0  0  0  0  0  0  0  0  0
   -2.9919    0.4485    2.6941 C   0  0  0  0  0  0  0  0  0  0  0  0
   -4.0469    0.7932    2.6845 H   0  0  0  0  0  0  0  0  0  0  0  0
   -2.7867    0.0612    3.7127 H   0  0  0  0  0  0  0  0  0  0  0  0
   -0.8318    2.7718    0.5924 C   0  0  0  0  0  0  0  0  0  0  0  0
   -1.0119    3.2221   -0.4028 H   0  0  0  0  0  0  0  0  0  0  0  0
   -0.7252    3.6057    1.3272 H   0  0  0  0  0  0  0  0  0  0  0  0
    0.4396    1.9427    0.5293 C   0  0  0  0  0  0  0  0  0  0  0  0
    0.7891    1.6210    1.5325 H   0  0  0  0  0  0  0  0  0  0  0  0
    1.2638    2.5329    0.0801 H   0  0  0  0  0  0  0  0  0  0  0  0
  1 14  1  0  0  0  0
  2 20  1  0  0  0  0
  3  8  1  0  0  0  0
  4 11  1  0  0  0  0
  5  4  1  0  0  0  0
  5  6  1  0  0  0  0
  5  7  1  0  0  0  0
  8  5  1  0  0  0  0
  9  8  1  0  0  0  0
 10  8  1  0  0  0  0
 11 12  1  0  0  0  0
 11 14  1  0  0  0  0
 11 13  1  0  0  0  0
 14 16  1  0  0  0  0
 15 14  1  0  0  0  0
 17  4  1  0  0  0  0
 17 19  1  0  0  0  0
 18 17  1  0  0  0  0
 20 17  1  0  0  0  0
 20 21  1  0  0  0  0
 22 20  1  0  0  0  0
M  END
