1,2,3,5
q = -2.0, confidence = 0.842

 47 47  0  0  0  0  0  0  0  0999 V2000
    0.0767    1.9478   -1.4841 S   0  0  0  0  0  0  0  0  0  0  0  0
   -1.3641   -2.1186   -0.1378 S   0  0  0  0  0  1  0  0  0  0  0  0
    2.1939   -0.9271   -1.4347 S   0  0  0  0  0  1  0  0  0  0  0  0
   -1.8582    0.9260    0.8058 N   0  0  0  0  0  0  0  0  0  0  0  0
    1.0834    0.4352    1.1826 N   0  0  0  0  0  0  0  0  0  0  0  0
   -1.1465    1.2450    2.0435 C   0  0  0  0  0  0  0  0  0  0  0  0
   -1.8073    1.1375    2.9370 H   0  0  0  0  0  0  0  0  0  0  0  0
   -0.8601    2.3161    2.0307 H   0  0  0  0  0  0  0  0  0  0  0  0
    0.0883    0.3716    2.2754 C   0  0  0  0  0  0  0  0  0  0  0  0
    0.5479    0.6442    3.2569 H   0  0  0  0  0  0  0  0  0  0  0  0
   -0.2414   -0.6875    2.3337 H   0  0  0  0  0  0  0  0  0  0  0  0
    1.5961    1.7975    0.9329 C   0  0  0  0  0  0  0  0  0  0  0  0
    2.6283    1.8996    1.3359 H   0  0  0  0  0  0  0  0  0  0  0  0
    0.9851    2.5207    1.5075 H   0  0  0  0  0  0  0  0  0  0  0  0
    1.6240    2.2202   -0.5409 C   0  0  0  0  0  0  0  0  0  0  0  0
    2.3247    1.5774   -1.1184 H   0  0  0  0  0  0  0  0  0  0  0  0
    1.9206    3.2852   -0.6311 H   0  0  0  0  0  0  0  0  0  0  0  0
   -1.1489    2.9332   -0.5288 C   0  0  0  0  0  0  0  0  0  0  0  0
   -0.5915    3.4796    0.2576 H   0  0  0  0  0  0  0  0  0  0  0  0
   -1.5674    3.7003   -1.2103 H   0  0  0  0  0  0  0  0  0  0  0  0
   -2.2922    2.0960    0.0556 C   0  0  0  0  0  0  0  0  0  0  0  0
   -2.9325    2.7832    0.6705 H   0  0  0  0  0  0  0  0  0  0  0  0
   -2.9323    1.7459   -0.7750 H   0  0  0  0  0  0  0  0  0  0  0  0
   -2.9072   -0.0873    0.9743 C   0  0  0  0  0  0  0  0  0  0  0  0
   -3.9093    0.4098    1.0499 H   0  0  0  0  0  0  0  0  0  0  0  0
   -2.7368   -0.5963    1.9436 H   0  0  0  0  0  0  0  0  0  0  0  0
   -2.9744   -1.2005   -0.0941 C   0  0  0  0  0  0  0  0  0  0  0  0
    2.1223   -0.6011    1.3872 C   0  0  0  0  0  0  0  0  0  0  0  0
    1.5587   -1.5257    1.6279 H   0  0  0  0  0  0  0  0  0  0  0  0
    2.7366   -0.3488    2.2881 H   0  0  0  0  0  0  0  0  0  0  0  0
    3.0772   -0.9382    0.2105 C   0  0  0  0  0  0  0  0  0  0  0  0
   -4.0597   -2.1945    0.3479 C   0  0  0  0  0  0  0  0  0  0  0  0
   -5.0543   -1.6996    0.4007 H   0  0  0  0  0  0  0  0  0  0  0  0
   -3.8259   -2.6203    1.3443 H   0  0  0  0  0  0  0  0  0  0  0  0
   -4.1279   -3.0343   -0.3708 H   0  0  0  0  0  0  0  0  0  0  0  0
   -3.3048   -0.6726   -1.4979 C   0  0  0  0  0  0  0  0  0  0  0  0
   -3.3863   -1.5193   -2.2066 H   0  0  0  0  0  0  0  0  0  0  0  0
   -2.5006   -0.0136   -1.8819 H   0  0  0  0  0  0  0  0  0  0  0  0
   -4.2676   -0.1127   -1.5101 H   0  0  0  0  0  0  0  0  0  0  0  0
    4.3005   -0.0058    0.1419 C   0  0  0  0  0  0  0  0  0  0  0  0
    4.0363    1.0487   -0.0625 H   0  0  0  0  0  0  0  0  0  0  0  0
    4.9682   -0.3327   -0.6791 H   0  0  0  0  0  0  0  0  0  0  0  0
    4.8794   -0.0394    1.0917 H   0  0  0  0  0  0  0  0  0  0  0  0
    3.5813   -2.3709    0.4697 C   0  0  0  0  0  0  0  0  0  0  0  0
    4.0935   -2.4466    1.4558 H   0  0  0  0  0  0  0  0  0  0  0  0
    4.3014   -2.6693   -0.3165 H   0  0  0  0  0  0  0  0  0  0  0  0
    2.7382   -3.0887    0.4462 H   0  0  0  0  0  0  0  0  0  0  0  0
  1 15  1  0  0  0  0
  1 18  1  0  0  0  0
  2 27  1  0  0  0  0
  3 31  1  0  0  0  0
  4 24  1  0  0  0  0
  4  6  1  0  0  0  0
  5 28  1  0  0  0  0
  5  9  1  0  0  0  0
  6  9  1  0  0  0  0
  6  7  1  0  0  0  0
  8  6  1  0  0  0  0
  9 11  1  0  0  0  0
  9 10  1  0  0  0  0
 12  5  1  0  0  0  0
 12 13  1  0  0  0  0
 12 14  1  0  0  0  0
 15 12  1  0  0  0  0
 16 15  1  0  0  0  0
 17 15  1  0  0  0  0
 18 21  1  0  0  0  0
 18 19  1  0  0  0  0
 20 18  1  0  0  0  0
 21 22  1  0  0  0  0
 21  4  1  0  0  0  0
 23 21  1  0  0  0  0
 24 25  1  0  0  0  0
 24 26  1  0  0  0  0
 27 32  1  0  0  0  0
 27 24  1  0  0  0  0
 28 29  1  0  0  0  0
 28 30  1  0  0  0  0
 31 44  1  0  0  0  0
 31 28  1  0  0  0  0
 32 33  1  0  0  0  0
 32 34  1  0  0  0  0
 35 32  1  0  0  0  0
 36 27  1  0  0  0  0
 37 36  1  0  0  0  0
 38 36  1  0  0  0  0
 39 36  1  0  0  0  0
 40 31  1  0  0  0  0
 40 43  1  0  0  0  0
 41 40  1  0  0  0  0
 42 40  1  0  0  0  0
 44 45  1  0  0  0  0
 46 44  1  0  0  0  0
 47 44  1  0  0  0  0
M  END
