1,2,3,6
q = 0.0, confidence = 1.0

 58 61  0  0  1  0  0  0  0  0999 V2000
   -1.5613   -2.7242    0.0367 S   0  0  0  0  0  0  0  0  0  0  0  0
    0.9182   -1.1222    2.0403 S   0  0  0  0  0  0  0  0  0  0  0  0
    1.8549   -2.1978   -1.1436 S   0  0  0  0  0  0  0  0  0  0  0  0
   -2.0370    0.1318    1.6711 O   0  0  0  0  0  0  0  0  0  0  0  0
    1.8929    1.1401   -1.2119 O   0  0  0  0  0  0  0  0  0  0  0  0
   -0.1165    1.9400    0.6081 N   0  0  0  0  0  2  0  0  0  0  0  0
   -3.7041   -0.9530    0.3932 C   0  0  0  0  0  0  0  0  0  0  0  0
   -4.7805   -0.8999   -0.5086 C   0  0  0  0  0  0  0  0  0  0  0  0
   -5.2121   -1.8436   -0.8759 H   0  0  0  0  0  0  0  0  0  0  0  0
   -5.3115    0.3267   -0.9312 C   0  0  0  0  0  0  0  0  0  0  0  0
   -6.1527    0.3485   -1.6383 H   0  0  0  0  0  0  0  0  0  0  0  0
   -4.7647    1.5208   -0.4448 C   0  0  0  0  0  0  0  0  0  0  0  0
   -5.1739    2.4891   -0.7680 H   0  0  0  0  0  0  0  0  0  0  0  0
   -3.6803    1.4990    0.4471 C   0  0  0  0  0  0  0  0  0  0  0  0
   -3.2478    2.4454    0.7967 H   0  0  0  0  0  0  0  0  0  0  0  0
   -3.1482    0.2667    0.8489 C   0  0  0  0  0  0  0  0  0  0  0  0
   -1.6130    1.2450    2.4419 C   0  0  0  0  0  0  0  0  0  0  0  0
   -0.9310    0.8210    3.2103 H   0  0  0  0  0  0  0  0  0  0  0  0
   -2.4756    1.7041    2.9710 H   0  0  0  0  0  0  0  0  0  0  0  0
   -0.8624    2.3136    1.6666 C   0  0  1  0  0  3  0  0  0  0  0  0
   -0.9374    3.6517    2.0907 C   0  0  0  0  0  0  0  0  0  0  0  0
   -1.5653    3.9205    2.9532 H   0  0  0  0  0  0  0  0  0  0  0  0
   -0.2133    4.6262    1.3950 C   0  0  0  0  0  0  0  0  0  0  0  0
   -0.2505    5.6808    1.7058 H   0  0  0  0  0  0  0  0  0  0  0  0
    0.5519    4.2340    0.2904 C   0  0  0  0  0  0  0  0  0  0  0  0
    1.1313    4.9681   -0.2886 H   0  0  0  0  0  0  0  0  0  0  0  0
    0.5703    2.8788   -0.0787 C   0  0  0  0  0  0  0  0  0  0  0  0
    1.3095    2.4373   -1.3224 C   0  0  0  0  0  0  0  0  0  0  0  0
    0.5661    2.3285   -2.1445 H   0  0  0  0  0  0  0  0  0  0  0  0
    2.0760    3.1839   -1.6145 H   0  0  0  0  0  0  0  0  0  0  0  0
    3.1235    0.9972   -0.6168 C   0  0  0  0  0  0  0  0  0  0  0  0
    3.6727    1.9156    0.2923 C   0  0  0  0  0  0  0  0  0  0  0  0
    3.1237    2.8252    0.5703 H   0  0  0  0  0  0  0  0  0  0  0  0
    4.9341    1.6592    0.8571 C   0  0  0  0  0  0  0  0  0  0  0  0
    5.3611    2.3806    1.5693 H   0  0  0  0  0  0  0  0  0  0  0  0
    5.6476    0.5025    0.5125 C   0  0  0  0  0  0  0  0  0  0  0  0
    6.6411    0.3134    0.9434 H   0  0  0  0  0  0  0  0  0  0  0  0
    5.0894   -0.4082   -0.3990 C   0  0  0  0  0  0  0  0  0  0  0  0
    5.6520   -1.3095   -0.6894 H   0  0  0  0  0  0  0  0  0  0  0  0
    3.8238   -0.1843   -0.9711 C   0  0  0  0  0  0  0  0  0  0  0  0
    3.1986   -1.1705   -1.9079 C   0  0  0  0  0  0  0  0  0  0  0  0
    3.9469   -1.8753   -2.3182 H   0  0  0  0  0  0  0  0  0  0  0  0
    2.6735   -0.6739   -2.7480 H   0  0  0  0  0  0  0  0  0  0  0  0
    2.6409   -2.7664    0.4083 C   0  0  0  0  0  0  0  0  0  0  0  0
    2.1913   -3.7571    0.6133 H   0  0  0  0  0  0  0  0  0  0  0  0
    3.7128   -2.9549    0.1915 H   0  0  0  0  0  0  0  0  0  0  0  0
    2.5428   -1.8485    1.6342 C   0  0  0  0  0  0  0  0  0  0  0  0
    3.1878   -0.9556    1.5096 H   0  0  0  0  0  0  0  0  0  0  0  0
    2.9035   -2.3891    2.5342 H   0  0  0  0  0  0  0  0  0  0  0  0
   -0.1306   -2.5449    2.5162 C   0  0  0  0  0  0  0  0  0  0  0  0
    0.4266   -3.1246    3.2817 H   0  0  0  0  0  0  0  0  0  0  0  0
   -0.9821   -2.0614    3.0362 H   0  0  0  0  0  0  0  0  0  0  0  0
   -0.6385   -3.4841    1.4168 C   0  0  0  0  0  0  0  0  0  0  0  0
   -1.2925   -4.2524    1.8801 H   0  0  0  0  0  0  0  0  0  0  0  0
    0.1868   -4.0371    0.9291 H   0  0  0  0  0  0  0  0  0  0  0  0
   -3.1536   -2.2570    0.8833 C   0  0  0  0  0  0  0  0  0  0  0  0
   -3.8626   -3.0846    0.6925 H   0  0  0  0  0  0  0  0  0  0  0  0
   -2.9350   -2.2109    1.9678 H   0  0  0  0  0  0  0  0  0  0  0  0
  1 56  1  0  0  0  0
  1 53  1  0  0  0  0
  2 50  1  0  0  0  0
  3 44  1  0  0  0  0
  4 17  1  0  0  0  0
  5 31  1  0  0  0  0
  7 16  1  0  0  0  0
  7 56  1  0  0  0  0
  8  7  2  0  0  0  0
  9  8  1  0  0  0  0
 10  8  1  0  0  0  0
 10 12  2  0  0  0  0
 11 10  1  0  0  0  0
 12 14  1  0  0  0  0
 13 12  1  0  0  0  0
 14 15  1  0  0  0  0
 14 16  2  0  0  0  0
 16  4  1  0  0  0  0
 17 19  1  0  0  0  0
 17 18  1  0  0  0  0
 20  6  1  1  0  0  0
 20 21  1  0  0  0  0
 20 17  1  0  0  0  0
 21 22  1  0  0  0  0
 23 24  1  0  0  0  0
 23 21  2  0  0  0  0
 25 23  1  0  0  0  0
 26 25  1  0  0  0  0
 27 25  2  0  0  0  0
 27  6  1  0  0  0  0
 28  5  1  0  0  0  0
 28 27  1  0  0  0  0
 29 28  1  0  0  0  0
 30 28  1  0  0  0  0
 31 32  1  0  0  0  0
 32 33  1  0  0  0  0
 32 34  2  0  0  0  0
 34 35  1  0  0  0  0
 36 34  1  0  0  0  0
 36 37  1  0  0  0  0
 38 36  2  0  0  0  0
 39 38  1  0  0  0  0
 40 31  2  0  0  0  0
 40 38  1  0  0  0  0
 41  3  1  0  0  0  0
 41 40  1  0  0  0  0
 42 41  1  0  0  0  0
 43 41  1  0  0  0  0
 44 45  1  0  0  0  0
 44 47  1  0  0  0  0
 46 44  1  0  0  0  0
 47  2  1  0  0  0  0
 47 49  1  0  0  0  0
 48 47  1  0  0  0  0
 50 52  1  0  0  0  0
 50 51  1  0  0  0  0
 53 54  1  0  0  0  0
 53 50  1  0  0  0  0
 55 53  1  0  0  0  0
 56 58  1  0  0  0  0
 57 56  1  0  0  0  0
M  END
