2,3,4,5
q = -1.0

 21 20  0  0  0  0  0  0  0  0999 V2000
    1.5454    3.3201    0.5691 O   0  0  0  0  0  0  0  0  0  0  0  0
   -1.4781   -1.5307    1.0193 S   0  0  0  0  0  1  0  0  0  0  0  0
   -1.6118    1.2480   -0.6062 S   0  0  0  0  0  0  0  0  0  0  0  0
    1.6810   -1.7083    0.6957 S   0  0  0  0  0  1  0  0  0  0  0  0
    1.2213    1.0730    0.1333 N   0  0  0  0  0  2  0  0  0  0  0  0
   -3.0509   -0.5522    0.8339 C   0  0  0  0  0  0  0  0  0  0  0  0
   -2.7764    0.9396    0.8022 C   0  0  0  0  0  0  0  0  0  0  0  0
   -0.6459    2.7152   -0.1127 C   0  0  0  0  0  0  0  0  0  0  0  0
    0.8194    2.3970    0.2155 C   0  0  0  0  0  0  0  0  0  0  0  0
    2.5987    0.8690    0.6479 C   0  0  0  0  0  0  0  0  0  0  0  0
    3.0696   -0.5400    0.3421 C   0  0  0  0  0  0  0  0  0  0  0  0
   -1.1121    3.1899    0.7730 H   0  0  0  0  0  0  0  0  0  0  0  0
    3.2654    1.6354    0.2003 H   0  0  0  0  0  0  0  0  0  0  0  0
    2.6012    1.0513    1.7453 H   0  0  0  0  0  0  0  0  0  0  0  0
    3.3580   -0.6531   -0.7234 H   0  0  0  0  0  0  0  0  0  0  0  0
    3.9380   -0.8179    0.9718 H   0  0  0  0  0  0  0  0  0  0  0  0
   -3.5918   -0.8830   -0.0771 H   0  0  0  0  0  0  0  0  0  0  0  0
   -3.6790   -0.8016    1.7131 H   0  0  0  0  0  0  0  0  0  0  0  0
   -3.6874    1.5412    0.6077 H   0  0  0  0  0  0  0  0  0  0  0  0
   -2.2834    1.2804    1.7352 H   0  0  0  0  0  0  0  0  0  0  0  0
   -0.6828    3.4475   -0.9428 H   0  0  0  0  0  0  0  0  0  0  0  0
  3  8  1  0  0  0  0
  3  7  1  0  0  0  0
  5  9  1  0  0  0  0
  5 10  1  0  0  0  0
  6  2  1  0  0  0  0
  6 18  1  0  0  0  0
  7  6  1  0  0  0  0
  7 20  1  0  0  0  0
  8  9  1  0  0  0  0
  8 12  1  0  0  0  0
  9  1  2  0  0  0  0
 10 14  1  0  0  0  0
 11 10  1  0  0  0  0
 11  4  1  0  0  0  0
 11 16  1  0  0  0  0
 13 10  1  0  0  0  0
 15 11  1  0  0  0  0
 17  6  1  0  0  0  0
 19  7  1  0  0  0  0
 21  8  1  0  0  0  0
M  END
