1,2,3,4
 OpenBabel05122313063D

 44 44  0  0  0  0  0  0  0  0999 V2000
   -2.4501   -1.4503   -0.8584 Se  0  0  0  0  0  1  0  0  0  0  0  0
   -2.5285    1.4279    0.0933 Se  0  0  0  0  0  1  0  0  0  0  0  0
    0.5952   -1.6971   -0.1896 S   0  0  0  0  0  0  0  0  0  0  0  0
    0.6436    1.6432   -0.3497 S   0  0  0  0  0  0  0  0  0  0  0  0
   -1.6035   -3.1967   -0.3676 C   0  0  0  0  0  0  0  0  0  0  0  0
   -2.3922   -3.8386    0.0759 H   0  0  0  0  0  0  0  0  0  0  0  0
   -1.2408   -3.6829   -1.2959 H   0  0  0  0  0  0  0  0  0  0  0  0
   -0.4537   -3.0494    0.6312 C   0  0  0  0  0  0  0  0  0  0  0  0
   -0.9369   -2.5921    2.0064 C   0  0  0  0  0  0  0  0  0  0  0  0
   -1.5957   -3.3733    2.4411 H   0  0  0  0  0  0  0  0  0  0  0  0
   -1.5201   -1.6541    1.9152 H   0  0  0  0  0  0  0  0  0  0  0  0
   -0.0963   -2.4356    2.7114 H   0  0  0  0  0  0  0  0  0  0  0  0
    0.3757   -4.3349    0.7074 C   0  0  0  0  0  0  0  0  0  0  0  0
   -0.2696   -5.1646    1.0633 H   0  0  0  0  0  0  0  0  0  0  0  0
    1.2174   -4.2518    1.4253 H   0  0  0  0  0  0  0  0  0  0  0  0
    0.7810   -4.6140   -0.2852 H   0  0  0  0  0  0  0  0  0  0  0  0
    1.9381   -1.4221    1.0662 C   0  0  0  0  0  0  0  0  0  0  0  0
    1.5227   -0.8317    1.9043 H   0  0  0  0  0  0  0  0  0  0  0  0
    2.2275   -2.4217    1.4438 H   0  0  0  0  0  0  0  0  0  0  0  0
   -1.5936    3.1218   -0.3704 C   0  0  0  0  0  0  0  0  0  0  0  0
   -1.5093    3.2027   -1.4735 H   0  0  0  0  0  0  0  0  0  0  0  0
   -2.2341    3.9561   -0.0150 H   0  0  0  0  0  0  0  0  0  0  0  0
   -0.2120    3.2249    0.2779 C   0  0  0  0  0  0  0  0  0  0  0  0
   -0.2946    3.2395    1.8034 C   0  0  0  0  0  0  0  0  0  0  0  0
   -0.8967    4.1165    2.1218 H   0  0  0  0  0  0  0  0  0  0  0  0
    0.7009    3.3347    2.2786 H   0  0  0  0  0  0  0  0  0  0  0  0
   -0.8051    2.3271    2.1695 H   0  0  0  0  0  0  0  0  0  0  0  0
    0.5752    4.4209   -0.2675 C   0  0  0  0  0  0  0  0  0  0  0  0
    0.0739    5.3640    0.0347 H   0  0  0  0  0  0  0  0  0  0  0  0
    0.6325    4.3948   -1.3733 H   0  0  0  0  0  0  0  0  0  0  0  0
    1.6086    4.4587    0.1353 H   0  0  0  0  0  0  0  0  0  0  0  0
    2.1032    1.5548    0.8011 C   0  0  0  0  0  0  0  0  0  0  0  0
    2.4835    2.5908    0.8881 H   0  0  0  0  0  0  0  0  0  0  0  0
    1.7453    1.2274    1.7957 H   0  0  0  0  0  0  0  0  0  0  0  0
    3.1683    0.6550    0.2433 C   0  0  0  0  0  0  0  0  0  0  0  0
    4.2500    1.2197   -0.4621 C   0  0  0  0  0  0  0  0  0  0  0  0
    4.2952    2.3140   -0.5782 H   0  0  0  0  0  0  0  0  0  0  0  0
    5.2576    0.4182   -1.0128 C   0  0  0  0  0  0  0  0  0  0  0  0
    6.0939    0.8822   -1.5570 H   0  0  0  0  0  0  0  0  0  0  0  0
    5.1929   -0.9760   -0.8662 C   0  0  0  0  0  0  0  0  0  0  0  0
    5.9780   -1.6174   -1.2939 H   0  0  0  0  0  0  0  0  0  0  0  0
    4.1197   -1.5501   -0.1739 C   0  0  0  0  0  0  0  0  0  0  0  0
    4.0590   -2.6446   -0.0666 H   0  0  0  0  0  0  0  0  0  0  0  0
    3.1013   -0.7544    0.3881 C   0  0  0  0  0  0  0  0  0  0  0  0
  1  5  1  0  0  0  0
  3  8  1  0  0  0  0
  3 17  1  0  0  0  0
  4 23  1  0  0  0  0
  4 32  1  0  0  0  0
  5  6  1  0  0  0  0
  5  8  1  0  0  0  0
  7  5  1  0  0  0  0
  8 13  1  0  0  0  0
  8  9  1  0  0  0  0
  9 10  1  0  0  0  0
  9 12  1  0  0  0  0
 11  9  1  0  0  0  0
 13 14  1  0  0  0  0
 13 15  1  0  0  0  0
 16 13  1  0  0  0  0
 17 19  1  0  0  0  0
 17 18  1  0  0  0  0
 20 22  1  0  0  0  0
 20  2  1  0  0  0  0
 20 23  1  0  0  0  0
 21 20  1  0  0  0  0
 23 24  1  0  0  0  0
 24 25  1  0  0  0  0
 24 27  1  0  0  0  0
 24 26  1  0  0  0  0
 28 29  1  0  0  0  0
 28 31  1  0  0  0  0
 28 23  1  0  0  0  0
 30 28  1  0  0  0  0
 32 33  1  0  0  0  0
 32 34  1  0  0  0  0
 35 44  1  0  0  0  0
 35 32  1  0  0  0  0
 36 35  2  0  0  0  0
 37 36  1  0  0  0  0
 38 40  2  0  0  0  0
 38 36  1  0  0  0  0
 39 38  1  0  0  0  0
 40 42  1  0  0  0  0
 41 40  1  0  0  0  0
 42 43  1  0  0  0  0
 42 44  2  0  0  0  0
 44 17  1  0  0  0  0
M  END
