1,3,16
q = -2.0, confidence = 0.772

 39 38  0  0  0  0  0  0  0  0999 V2000
    1.5307   -1.8501    0.2060 P   0  0  2  0  0  0  0  0  0  0  0  0
    3.5369    2.2100   -1.5860 F   0  0  0  0  0  0  0  0  0  0  0  0
    1.7186    1.0896    0.1756 O   0  0  0  0  0  1  0  0  0  0  0  0
    2.9975    0.5782    0.1068 C   0  0  0  0  0  0  0  0  0  0  0  0
    4.8731    0.4881   -1.4531 F   0  0  0  0  0  0  0  0  0  0  0  0
    3.1548   -0.9539    0.3749 C   0  0  0  0  0  0  0  0  0  0  0  0
    3.5227   -1.1289    1.4017 H   0  0  0  0  0  0  0  0  0  0  0  0
    3.9024   -1.4020   -0.3046 H   0  0  0  0  0  0  0  0  0  0  0  0
    2.8600    0.2514   -2.2553 F   0  0  0  0  0  0  0  0  0  0  0  0
    3.5870    0.8968   -1.3054 C   0  0  0  0  0  0  0  0  0  0  0  0
    3.7133    2.6725    1.0713 F   0  0  0  0  0  0  0  0  0  0  0  0
    3.8108    1.3390    1.2027 C   0  0  0  0  0  0  0  0  0  0  0  0
    5.1246    1.0104    1.1862 F   0  0  0  0  0  0  0  0  0  0  0  0
    0.8880   -2.1132    1.9495 C   0  0  0  0  0  0  0  0  0  0  0  0
    3.3366    1.0181    2.4349 F   0  0  0  0  0  0  0  0  0  0  0  0
    0.2992   -0.6704    1.9888 C   0  0  0  0  0  3  0  0  0  0  0  0
    1.0100    0.0291    2.4688 H   0  0  0  0  0  0  0  0  0  0  0  0
   -0.6672   -0.6671    2.5228 H   0  0  0  0  0  0  0  0  0  0  0  0
   -0.2382   -3.1565    1.9701 C   0  0  0  0  0  0  0  0  0  0  0  0
   -0.7601   -3.0800    2.9473 H   0  0  0  0  0  0  0  0  0  0  0  0
    0.1488   -4.1918    1.8782 H   0  0  0  0  0  0  0  0  0  0  0  0
   -0.9920   -2.9580    1.1848 H   0  0  0  0  0  0  0  0  0  0  0  0
    1.9141   -2.4075    3.0448 C   0  0  0  0  0  0  0  0  0  0  0  0
    1.3911   -2.4183    4.0245 H   0  0  0  0  0  0  0  0  0  0  0  0
    2.6996   -1.6296    3.1140 H   0  0  0  0  0  0  0  0  0  0  0  0
    2.3999   -3.3966    2.9135 H   0  0  0  0  0  0  0  0  0  0  0  0
    1.8144   -3.3587   -0.8937 C   0  0  0  0  0  0  0  0  0  0  0  0
    0.4367   -3.9454   -1.2566 C   0  0  0  0  0  0  0  0  0  0  0  0
    0.5773   -4.7613   -1.9961 H   0  0  0  0  0  0  0  0  0  0  0  0
   -0.2275   -3.1817   -1.7065 H   0  0  0  0  0  0  0  0  0  0  0  0
   -0.0854   -4.3689   -0.3803 H   0  0  0  0  0  0  0  0  0  0  0  0
    2.6735   -4.3756   -0.1231 C   0  0  0  0  0  0  0  0  0  0  0  0
    2.8593   -5.2636   -0.7641 H   0  0  0  0  0  0  0  0  0  0  0  0
    2.1714   -4.7272    0.7994 H   0  0  0  0  0  0  0  0  0  0  0  0
    3.6619   -3.9568    0.1570 H   0  0  0  0  0  0  0  0  0  0  0  0
    2.5265   -2.9192   -2.1847 C   0  0  0  0  0  0  0  0  0  0  0  0
    2.6563   -3.8117   -2.8323 H   0  0  0  0  0  0  0  0  0  0  0  0
    3.5338   -2.4971   -2.0031 H   0  0  0  0  0  0  0  0  0  0  0  0
    1.9372   -2.1757   -2.7523 H   0  0  0  0  0  0  0  0  0  0  0  0
  1 27  1  1  0  0  0
  1  6  1  0  0  0  0
  1 14  1  0  0  0  0
  2 10  1  0  0  0  0
  4  3  1  0  0  0  0
  4  6  1  0  0  0  0
  4 12  1  0  0  0  0
  5 10  1  0  0  0  0
  6  7  1  0  0  0  0
  8  6  1  0  0  0  0
  9 10  1  0  0  0  0
 10  4  1  0  0  0  0
 11 12  1  0  0  0  0
 12 15  1  0  0  0  0
 13 12  1  0  0  0  0
 14 19  1  0  0  0  0
 14 16  1  0  0  0  0
 14 23  1  0  0  0  0
 16 17  1  0  0  0  0
 16 18  1  0  0  0  0
 19 20  1  0  0  0  0
 21 19  1  0  0  0  0
 22 19  1  0  0  0  0
 23 25  1  0  0  0  0
 23 24  1  0  0  0  0
 26 23  1  0  0  0  0
 27 32  1  0  0  0  0
 28 27  1  0  0  0  0
 28 31  1  0  0  0  0
 29 28  1  0  0  0  0
 30 28  1  0  0  0  0
 32 35  1  0  0  0  0
 32 34  1  0  0  0  0
 33 32  1  0  0  0  0
 36 38  1  0  0  0  0
 36 27  1  0  0  0  0
 37 36  1  0  0  0  0
 39 36  1  0  0  0  0
M  END
