1,2,30
q = -1.0, confidence = 0.022

 55 58  0  0  1  0  0  0  0  0999 V2000
   -1.7966    0.1566    0.0463 P   0  0  0  0  0  0  0  0  0  0  0  0
    0.7579   -0.2032    1.0108 C   0  0  0  0  0  2  0  0  0  0  0  0
    1.8396    0.7972    2.7494 C   0  0  0  0  0  0  0  0  0  0  0  0
    0.5214    0.6684    3.1135 C   0  0  0  0  0  0  0  0  0  0  0  0
   -1.4992   -0.3199    1.8477 C   0  0  1  0  0  0  0  0  0  0  0  0
   -1.5754   -1.8888    1.8230 C   0  0  0  0  0  0  0  0  0  0  0  0
    3.1728    0.2468    0.6962 C   0  0  0  0  0  0  0  0  0  0  0  0
    3.4441    1.3433   -0.1511 C   0  0  0  0  0  0  0  0  0  0  0  0
    4.6091    1.2826   -0.9345 C   0  0  0  0  0  0  0  0  0  0  0  0
    5.4850    0.1817   -0.8825 C   0  0  0  0  0  0  0  0  0  0  0  0
    5.1865   -0.8726    0.0007 C   0  0  0  0  0  0  0  0  0  0  0  0
    4.0351   -0.8646    0.8069 C   0  0  0  0  0  0  0  0  0  0  0  0
    2.5305    2.5411   -0.1898 C   0  0  0  0  0  0  0  0  0  0  0  0
    6.6970    0.1177   -1.7770 C   0  0  0  0  0  0  0  0  0  0  0  0
    3.7393   -1.9863    1.7682 C   0  0  0  0  0  0  0  0  0  0  0  0
   -1.6956    1.9838   -0.0217 C   0  0  0  0  0  0  0  0  0  0  0  0
   -1.8994    2.7923    1.1155 C   0  0  0  0  0  0  0  0  0  0  0  0
   -1.7677    4.1861    1.0243 C   0  0  0  0  0  0  0  0  0  0  0  0
   -1.4418    4.7844   -0.2031 C   0  0  0  0  0  0  0  0  0  0  0  0
   -1.2481    3.9857   -1.3416 C   0  0  0  0  0  0  0  0  0  0  0  0
   -1.3686    2.5914   -1.2527 C   0  0  0  0  0  0  0  0  0  0  0  0
   -3.5440   -0.2622   -0.2958 C   0  0  0  0  0  0  0  0  0  0  0  0
   -4.5204    0.7411   -0.4694 C   0  0  0  0  0  0  0  0  0  0  0  0
   -5.8518    0.3851   -0.7299 C   0  0  0  0  0  0  0  0  0  0  0  0
   -6.2164   -0.9676   -0.8148 C   0  0  0  0  0  0  0  0  0  0  0  0
   -5.2454   -1.9675   -0.6442 C   0  0  0  0  0  0  0  0  0  0  0  0
   -3.9106   -1.6233   -0.3929 C   0  0  0  0  0  0  0  0  0  0  0  0
    1.9607    0.2631    1.4671 N   0  0  0  0  0  0  0  0  0  0  0  0
   -0.1103    0.0681    2.0360 N   0  0  0  0  0  0  0  0  0  0  0  0
   -0.9184   -2.3863    0.8194 O   0  5  0  0  0  0  0  0  0  0  0  0
   -2.2032   -2.4896    2.6869 O   0  0  0  0  0  0  0  0  0  0  0  0
    2.6986    1.2149    3.2817 H   0  0  0  0  0  0  0  0  0  0  0  0
   -0.0036    0.9390    4.0338 H   0  0  0  0  0  0  0  0  0  0  0  0
   -2.1560    0.1182    2.6200 H   0  0  0  0  0  0  0  0  0  0  0  0
    4.8340    2.1212   -1.6126 H   0  0  0  0  0  0  0  0  0  0  0  0
    5.8662   -1.7374    0.0602 H   0  0  0  0  0  0  0  0  0  0  0  0
    2.7798    3.2016   -1.0408 H   0  0  0  0  0  0  0  0  0  0  0  0
    1.4665    2.2507   -0.2858 H   0  0  0  0  0  0  0  0  0  0  0  0
    2.6148    3.1386    0.7430 H   0  0  0  0  0  0  0  0  0  0  0  0
    7.5182   -0.4633   -1.3132 H   0  0  0  0  0  0  0  0  0  0  0  0
    6.4480   -0.3800   -2.7389 H   0  0  0  0  0  0  0  0  0  0  0  0
    7.0795    1.1279   -2.0220 H   0  0  0  0  0  0  0  0  0  0  0  0
    3.9487   -1.6793    2.8153 H   0  0  0  0  0  0  0  0  0  0  0  0
    4.3606   -2.8732    1.5447 H   0  0  0  0  0  0  0  0  0  0  0  0
    2.6765   -2.2945    1.7315 H   0  0  0  0  0  0  0  0  0  0  0  0
   -2.1638    2.3349    2.0803 H   0  0  0  0  0  0  0  0  0  0  0  0
   -1.9224    4.8083    1.9188 H   0  0  0  0  0  0  0  0  0  0  0  0
   -1.3372    5.8778   -0.2723 H   0  0  0  0  0  0  0  0  0  0  0  0
   -0.9907    4.4488   -2.3059 H   0  0  0  0  0  0  0  0  0  0  0  0
   -1.1926    1.9709   -2.1433 H   0  0  0  0  0  0  0  0  0  0  0  0
   -4.2383    1.8024   -0.4035 H   0  0  0  0  0  0  0  0  0  0  0  0
   -6.6085    1.1723   -0.8676 H   0  0  0  0  0  0  0  0  0  0  0  0
   -7.2620   -1.2443   -1.0187 H   0  0  0  0  0  0  0  0  0  0  0  0
   -5.5256   -3.0292   -0.7116 H   0  0  0  0  0  0  0  0  0  0  0  0
   -3.1519   -2.4100   -0.2679 H   0  0  0  0  0  0  0  0  0  0  0  0
  1  5  1  0  0  0  0
  2 28  1  0  0  0  0
  2 29  1  0  0  0  0
  3  4  2  0  0  0  0
  3 32  1  0  0  0  0
  4 33  1  0  0  0  0
  5 29  1  0  0  0  0
  5 34  1  1  0  0  0
  6  5  1  0  0  0  0
  6 31  2  0  0  0  0
  7 12  1  0  0  0  0
  7 28  1  0  0  0  0
  8  7  2  0  0  0  0
  9 10  2  0  0  0  0
  9  8  1  0  0  0  0
 10 11  1  0  0  0  0
 11 36  1  0  0  0  0
 11 12  2  0  0  0  0
 12 15  1  0  0  0  0
 13  8  1  0  0  0  0
 13 39  1  0  0  0  0
 14 40  1  0  0  0  0
 14 10  1  0  0  0  0
 15 43  1  0  0  0  0
 16  1  1  0  0  0  0
 16 17  1  0  0  0  0
 17 46  1  0  0  0  0
 18 17  2  0  0  0  0
 18 47  1  0  0  0  0
 19 18  1  0  0  0  0
 20 21  1  0  0  0  0
 20 19  2  0  0  0  0
 21 16  2  0  0  0  0
 22  1  1  0  0  0  0
 23 51  1  0  0  0  0
 23 22  2  0  0  0  0
 24 23  1  0  0  0  0
 25 24  2  0  0  0  0
 25 26  1  0  0  0  0
 26 27  2  0  0  0  0
 27 22  1  0  0  0  0
 27 55  1  0  0  0  0
 28  3  1  0  0  0  0
 29  4  1  0  0  0  0
 30  6  1  0  0  0  0
 35  9  1  0  0  0  0
 37 13  1  0  0  0  0
 38 13  1  0  0  0  0
 41 14  1  0  0  0  0
 42 14  1  0  0  0  0
 44 15  1  0  0  0  0
 45 15  1  0  0  0  0
 48 19  1  0  0  0  0
 49 20  1  0  0  0  0
 50 21  1  0  0  0  0
 52 24  1  0  0  0  0
 53 25  1  0  0  0  0
 54 26  1  0  0  0  0
M  CHG  1  30  -1
M  END
