1,3,4
 OpenBabel05122313063D

 62 66  0  0  0  0  0  0  0  0999 V2000
    2.5463    0.1978    0.1047 P   0  0  0  0  0  0  0  0  0  0  0  0
   -2.7112   -0.2820   -0.2774 P   0  0  0  0  0  4  0  0  0  0  0  0
   -1.5374   -0.0577   -1.2970 O   0  0  0  0  0  1  0  0  0  0  0  0
    0.1172   -0.1782    1.4437 C   0  0  0  0  0  3  0  0  0  0  0  0
    1.0942    0.3315    2.3424 C   0  0  0  0  0  0  0  0  0  0  0  0
   -1.0570   -0.8043    1.9363 C   0  0  0  0  0  0  0  0  0  0  0  0
    3.5356    1.2996   -0.9538 C   0  0  0  0  0  0  0  0  0  0  0  0
    4.6593    0.8347   -1.6687 C   0  0  0  0  0  0  0  0  0  0  0  0
    4.9869   -0.2103   -1.5677 H   0  0  0  0  0  0  0  0  0  0  0  0
   -3.2593    1.2678    0.4713 C   0  0  0  0  0  0  0  0  0  0  0  0
    2.3447    0.9636    1.7797 C   0  0  0  0  0  0  0  0  0  0  0  0
    3.2355    0.8166    2.4216 H   0  0  0  0  0  0  0  0  0  0  0  0
    2.2146    2.0557    1.6218 H   0  0  0  0  0  0  0  0  0  0  0  0
   -5.4126   -0.9181   -0.6859 C   0  0  0  0  0  0  0  0  0  0  0  0
   -5.6380   -0.2616    0.1686 H   0  0  0  0  0  0  0  0  0  0  0  0
    4.9454    3.0463   -2.6431 C   0  0  0  0  0  0  0  0  0  0  0  0
    5.5004    3.7306   -3.3020 H   0  0  0  0  0  0  0  0  0  0  0  0
    0.8811    0.2271    3.7288 C   0  0  0  0  0  0  0  0  0  0  0  0
    1.6424    0.6183    4.4210 H   0  0  0  0  0  0  0  0  0  0  0  0
   -3.8408    1.3084    1.7558 C   0  0  0  0  0  0  0  0  0  0  0  0
   -3.9447    0.3935    2.3579 H   0  0  0  0  0  0  0  0  0  0  0  0
   -2.1152   -1.4098    1.0420 C   0  0  0  0  0  0  0  0  0  0  0  0
   -2.9848   -1.7652    1.6295 H   0  0  0  0  0  0  0  0  0  0  0  0
   -1.7330   -2.2884    0.4760 H   0  0  0  0  0  0  0  0  0  0  0  0
   -3.7984   -1.8899   -2.2527 C   0  0  0  0  0  0  0  0  0  0  0  0
   -2.7620   -1.9846   -2.6092 H   0  0  0  0  0  0  0  0  0  0  0  0
   -0.2862   -0.3648    4.2248 C   0  0  0  0  0  0  0  0  0  0  0  0
   -0.4508   -0.4414    5.3092 H   0  0  0  0  0  0  0  0  0  0  0  0
   -4.0854   -1.0761   -1.1365 C   0  0  0  0  0  0  0  0  0  0  0  0
    3.4817   -1.3455    0.3461 C   0  0  0  0  0  0  0  0  0  0  0  0
   -3.1096    2.4506   -0.2822 C   0  0  0  0  0  0  0  0  0  0  0  0
   -2.6443    2.4081   -1.2785 H   0  0  0  0  0  0  0  0  0  0  0  0
    2.9183   -2.5783   -0.0382 C   0  0  0  0  0  0  0  0  0  0  0  0
    1.9159   -2.5956   -0.4938 H   0  0  0  0  0  0  0  0  0  0  0  0
    3.1068    2.6381   -1.1070 C   0  0  0  0  0  0  0  0  0  0  0  0
    2.2101    2.9983   -0.5777 H   0  0  0  0  0  0  0  0  0  0  0  0
   -4.8451   -2.5518   -2.9092 C   0  0  0  0  0  0  0  0  0  0  0  0
   -4.6285   -3.1823   -3.7843 H   0  0  0  0  0  0  0  0  0  0  0  0
   -1.2397   -0.8722    3.3342 C   0  0  0  0  0  0  0  0  0  0  0  0
   -2.1489   -1.3556    3.7251 H   0  0  0  0  0  0  0  0  0  0  0  0
   -6.4500   -1.5886   -1.3485 C   0  0  0  0  0  0  0  0  0  0  0  0
   -7.4873   -1.4656   -1.0040 H   0  0  0  0  0  0  0  0  0  0  0  0
   -6.1665   -2.4047   -2.4562 C   0  0  0  0  0  0  0  0  0  0  0  0
   -6.9848   -2.9248   -2.9762 H   0  0  0  0  0  0  0  0  0  0  0  0
    5.3608    1.7123   -2.5085 C   0  0  0  0  0  0  0  0  0  0  0  0
    6.2392    1.3490   -3.0623 H   0  0  0  0  0  0  0  0  0  0  0  0
   -4.2794    2.5334    2.2783 C   0  0  0  0  0  0  0  0  0  0  0  0
   -4.7310    2.5694    3.2807 H   0  0  0  0  0  0  0  0  0  0  0  0
    4.7608   -1.3092    0.9443 C   0  0  0  0  0  0  0  0  0  0  0  0
    5.2112   -0.3497    1.2439 H   0  0  0  0  0  0  0  0  0  0  0  0
    4.9035   -3.7300    0.7638 C   0  0  0  0  0  0  0  0  0  0  0  0
    5.4613   -4.6640    0.9282 H   0  0  0  0  0  0  0  0  0  0  0  0
   -4.1348    3.7110    1.5269 C   0  0  0  0  0  0  0  0  0  0  0  0
   -4.4790    4.6702    1.9417 H   0  0  0  0  0  0  0  0  0  0  0  0
    3.6324   -3.7679    0.1707 C   0  0  0  0  0  0  0  0  0  0  0  0
    3.1915   -4.7299   -0.1296 H   0  0  0  0  0  0  0  0  0  0  0  0
    5.4669   -2.5017    1.1505 C   0  0  0  0  0  0  0  0  0  0  0  0
    6.4630   -2.4732    1.6166 H   0  0  0  0  0  0  0  0  0  0  0  0
   -3.5492    3.6700    0.2508 C   0  0  0  0  0  0  0  0  0  0  0  0
   -3.4342    4.5948   -0.3337 H   0  0  0  0  0  0  0  0  0  0  0  0
    3.8171    3.5079   -1.9438 C   0  0  0  0  0  0  0  0  0  0  0  0
    3.4861    4.5510   -2.0555 H   0  0  0  0  0  0  0  0  0  0  0  0
  1 30  1  0  0  0  0
  1 11  1  0  0  0  0
  2 10  1  0  0  0  0
  2 22  1  0  0  0  0
  3  2  1  0  0  0  0
  4  6  2  0  0  0  0
  4  5  1  0  0  0  0
  5 18  2  0  0  0  0
  6 39  1  0  0  0  0
  7  1  1  0  0  0  0
  8  9  1  0  0  0  0
  8  7  2  0  0  0  0
 10 20  1  0  0  0  0
 11  5  1  0  0  0  0
 11 12  1  0  0  0  0
 13 11  1  0  0  0  0
 14 15  1  0  0  0  0
 16 45  2  0  0  0  0
 16 61  1  0  0  0  0
 17 16  1  0  0  0  0
 18 27  1  0  0  0  0
 18 19  1  0  0  0  0
 20 47  2  0  0  0  0
 20 21  1  0  0  0  0
 22 23  1  0  0  0  0
 22  6  1  0  0  0  0
 24 22  1  0  0  0  0
 25 29  2  0  0  0  0
 26 25  1  0  0  0  0
 27 28  1  0  0  0  0
 29 14  1  0  0  0  0
 29  2  1  0  0  0  0
 30 49  1  0  0  0  0
 31 59  1  0  0  0  0
 31 10  2  0  0  0  0
 32 31  1  0  0  0  0
 33 55  1  0  0  0  0
 33 30  2  0  0  0  0
 34 33  1  0  0  0  0
 35  7  1  0  0  0  0
 35 36  1  0  0  0  0
 37 43  2  0  0  0  0
 37 25  1  0  0  0  0
 38 37  1  0  0  0  0
 39 40  1  0  0  0  0
 39 27  2  0  0  0  0
 41 42  1  0  0  0  0
 41 14  2  0  0  0  0
 43 41  1  0  0  0  0
 44 43  1  0  0  0  0
 45  8  1  0  0  0  0
 46 45  1  0  0  0  0
 47 48  1  0  0  0  0
 49 57  2  0  0  0  0
 49 50  1  0  0  0  0
 51 52  1  0  0  0  0
 51 57  1  0  0  0  0
 53 54  1  0  0  0  0
 53 47  1  0  0  0  0
 55 51  2  0  0  0  0
 56 55  1  0  0  0  0
 57 58  1  0  0  0  0
 59 53  2  0  0  0  0
 60 59  1  0  0  0  0
 61 35  2  0  0  0  0
 62 61  1  0  0  0  0
M  END
