2,5,80
q = -1.0

 80 79  0  0  0  0  0  0  0  0999 V2000
   -0.3026    2.0526    1.2061 Si  0  0  0  0  0  0  0  0  0  0  0  0
    2.8277   -0.9448    0.3496 P   0  0  0  0  0  0  0  0  0  0  0  0
   -2.8930   -2.2922    0.6178 P   0  0  0  0  0  0  0  0  0  0  0  0
   -0.8854    2.2130   -0.4632 N   0  0  0  0  0  0  0  0  0  0  0  0
    0.3372    0.3434    1.2852 N   0  0  0  0  0  0  0  0  0  0  0  0
   -0.5488    1.3584   -2.5738 O   0  0  0  0  0  0  0  0  0  0  0  0
   -1.8660    3.2367   -0.9839 C   0  0  0  0  0  0  0  0  0  0  0  0
   -2.3960    4.1067    0.1668 C   0  0  0  0  0  0  0  0  0  0  0  0
   -1.5802    4.6040    0.7306 H   0  0  0  0  0  0  0  0  0  0  0  0
   -3.0254    3.5337    0.8723 H   0  0  0  0  0  0  0  0  0  0  0  0
   -3.0278    4.9099   -0.2605 H   0  0  0  0  0  0  0  0  0  0  0  0
   -3.0681    2.5345   -1.6433 C   0  0  0  0  0  0  0  0  0  0  0  0
   -2.7388    1.9244   -2.5024 H   0  0  0  0  0  0  0  0  0  0  0  0
   -3.8005    3.2891   -1.9962 H   0  0  0  0  0  0  0  0  0  0  0  0
   -3.5807    1.8753   -0.9130 H   0  0  0  0  0  0  0  0  0  0  0  0
   -1.1446    4.1631   -1.9836 C   0  0  0  0  0  0  0  0  0  0  0  0
   -0.2892    4.6677   -1.4900 H   0  0  0  0  0  0  0  0  0  0  0  0
   -1.8432    4.9421   -2.3507 H   0  0  0  0  0  0  0  0  0  0  0  0
   -0.7649    3.5909   -2.8480 H   0  0  0  0  0  0  0  0  0  0  0  0
    1.0426    3.3106    1.6049 C   0  0  0  0  0  0  0  0  0  0  0  0
    1.9309    3.1935    0.9566 H   0  0  0  0  0  0  0  0  0  0  0  0
    1.3539    3.2900    2.6686 H   0  0  0  0  0  0  0  0  0  0  0  0
    0.6203    4.3172    1.4055 H   0  0  0  0  0  0  0  0  0  0  0  0
   -1.6161    2.1781    2.5627 C   0  0  0  0  0  0  0  0  0  0  0  0
   -2.5735    1.6922    2.2933 H   0  0  0  0  0  0  0  0  0  0  0  0
   -1.8261    3.2271    2.8448 H   0  0  0  0  0  0  0  0  0  0  0  0
   -1.2226    1.6673    3.4674 H   0  0  0  0  0  0  0  0  0  0  0  0
    1.3672    0.2103    2.3526 C   0  0  0  0  0  0  0  0  0  0  0  0
    0.8757    0.1447    3.3530 H   0  0  0  0  0  0  0  0  0  0  0  0
    1.9837    1.1272    2.3491 H   0  0  0  0  0  0  0  0  0  0  0  0
    2.2865   -0.9916    2.1355 C   0  0  0  0  0  0  0  0  0  0  0  0
    1.7647   -1.9495    2.3256 H   0  0  0  0  0  0  0  0  0  0  0  0
    3.1518   -0.9555    2.8283 H   0  0  0  0  0  0  0  0  0  0  0  0
    4.5935   -0.2773    0.4408 C   0  0  0  0  0  0  0  0  0  0  0  0
    4.8431   -0.0828   -0.6256 H   0  0  0  0  0  0  0  0  0  0  0  0
    4.6298    1.0637    1.1852 C   0  0  0  0  0  0  0  0  0  0  0  0
    5.6327    1.5258    1.0800 H   0  0  0  0  0  0  0  0  0  0  0  0
    4.4470    0.9287    2.2717 H   0  0  0  0  0  0  0  0  0  0  0  0
    3.8897    1.7838    0.7913 H   0  0  0  0  0  0  0  0  0  0  0  0
    5.6179   -1.2512    1.0338 C   0  0  0  0  0  0  0  0  0  0  0  0
    6.6140   -0.7640    1.0863 H   0  0  0  0  0  0  0  0  0  0  0  0
    5.7358   -2.1744    0.4355 H   0  0  0  0  0  0  0  0  0  0  0  0
    5.3485   -1.5466    2.0701 H   0  0  0  0  0  0  0  0  0  0  0  0
    3.0732   -2.7579   -0.0849 C   0  0  0  0  0  0  0  0  0  0  0  0
    3.7812   -3.1471    0.6793 H   0  0  0  0  0  0  0  0  0  0  0  0
    1.7694   -3.5575    0.0199 C   0  0  0  0  0  0  0  0  0  0  0  0
    1.9609   -4.6177   -0.2456 H   0  0  0  0  0  0  0  0  0  0  0  0
    0.9942   -3.1754   -0.6711 H   0  0  0  0  0  0  0  0  0  0  0  0
    1.3443   -3.5519    1.0433 H   0  0  0  0  0  0  0  0  0  0  0  0
    3.7106   -2.8941   -1.4748 C   0  0  0  0  0  0  0  0  0  0  0  0
    3.9187   -3.9622   -1.6923 H   0  0  0  0  0  0  0  0  0  0  0  0
    4.6692   -2.3450   -1.5598 H   0  0  0  0  0  0  0  0  0  0  0  0
    3.0328   -2.5190   -2.2656 H   0  0  0  0  0  0  0  0  0  0  0  0
   -0.6897   -0.7284    1.4730 C   0  0  0  0  0  0  0  0  0  0  0  0
   -1.1352   -0.6273    2.4917 H   0  0  0  0  0  0  0  0  0  0  0  0
   -0.1606   -1.7026    1.4662 H   0  0  0  0  0  0  0  0  0  0  0  0
   -1.7812   -0.7899    0.4152 C   0  0  0  0  0  0  0  0  0  0  0  0
   -1.2820   -0.8783   -0.5705 H   0  0  0  0  0  0  0  0  0  0  0  0
   -2.3865    0.1376    0.3797 H   0  0  0  0  0  0  0  0  0  0  0  0
   -4.4672   -1.4541    1.2530 C   0  0  0  0  0  0  0  0  0  0  0  0
   -4.6653   -0.5640    0.6138 H   0  0  0  0  0  0  0  0  0  0  0  0
   -5.6644   -2.4066    1.1683 C   0  0  0  0  0  0  0  0  0  0  0  0
   -6.5653   -1.9434    1.6235 H   0  0  0  0  0  0  0  0  0  0  0  0
   -5.4618   -3.3517    1.7158 H   0  0  0  0  0  0  0  0  0  0  0  0
   -5.9209   -2.6698    0.1229 H   0  0  0  0  0  0  0  0  0  0  0  0
   -4.2389   -0.9826    2.6944 C   0  0  0  0  0  0  0  0  0  0  0  0
   -5.1457   -0.4808    3.0938 H   0  0  0  0  0  0  0  0  0  0  0  0
   -3.4009   -0.2613    2.7725 H   0  0  0  0  0  0  0  0  0  0  0  0
   -4.0051   -1.8393    3.3609 H   0  0  0  0  0  0  0  0  0  0  0  0
   -3.3323   -2.6231   -1.1943 C   0  0  0  0  0  0  0  0  0  0  0  0
   -4.2177   -3.2923   -1.1121 H   0  0  0  0  0  0  0  0  0  0  0  0
   -3.7111   -1.3954   -2.0281 C   0  0  0  0  0  0  0  0  0  0  0  0
   -4.0423   -1.7033   -3.0426 H   0  0  0  0  0  0  0  0  0  0  0  0
   -2.8458   -0.7152   -2.1656 H   0  0  0  0  0  0  0  0  0  0  0  0
   -4.5368   -0.8103   -1.5747 H   0  0  0  0  0  0  0  0  0  0  0  0
   -2.2003   -3.4265   -1.8496 C   0  0  0  0  0  0  0  0  0  0  0  0
   -2.5020   -3.7687   -2.8617 H   0  0  0  0  0  0  0  0  0  0  0  0
   -1.9312   -4.3194   -1.2498 H   0  0  0  0  0  0  0  0  0  0  0  0
   -1.2863   -2.8136   -1.9842 H   0  0  0  0  0  0  0  0  0  0  0  0
   -0.2326    1.3750   -1.3894 C   0  0  0  0  0  3  0  0  0  0  0  0
  1  5  1  0  0  0  0
  1 20  1  0  0  0  0
  1 24  1  0  0  0  0
  2 34  1  0  0  0  0
  2 31  1  0  0  0  0
  3 60  1  0  0  0  0
  4  1  1  0  0  0  0
  5 54  1  0  0  0  0
  5 28  1  0  0  0  0
  6 80  2  0  0  0  0
  7  4  1  0  0  0  0
  7  8  1  0  0  0  0
  8  9  1  0  0  0  0
  8 10  1  0  0  0  0
 11  8  1  0  0  0  0
 12  7  1  0  0  0  0
 12 15  1  0  0  0  0
 13 12  1  0  0  0  0
 14 12  1  0  0  0  0
 16 17  1  0  0  0  0
 16  7  1  0  0  0  0
 18 16  1  0  0  0  0
 19 16  1  0  0  0  0
 20 22  1  0  0  0  0
 21 20  1  0  0  0  0
 23 20  1  0  0  0  0
 24 26  1  0  0  0  0
 24 27  1  0  0  0  0
 25 24  1  0  0  0  0
 28 29  1  0  0  0  0
 30 28  1  0  0  0  0
 31 32  1  0  0  0  0
 31 28  1  0  0  0  0
 31 33  1  0  0  0  0
 34 40  1  0  0  0  0
 34 36  1  0  0  0  0
 35 34  1  0  0  0  0
 36 38  1  0  0  0  0
 37 36  1  0  0  0  0
 39 36  1  0  0  0  0
 40 41  1  0  0  0  0
 40 43  1  0  0  0  0
 42 40  1  0  0  0  0
 44 46  1  0  0  0  0
 44  2  1  0  0  0  0
 44 45  1  0  0  0  0
 46 49  1  0  0  0  0
 47 46  1  0  0  0  0
 48 46  1  0  0  0  0
 50 44  1  0  0  0  0
 51 50  1  0  0  0  0
 52 50  1  0  0  0  0
 53 50  1  0  0  0  0
 54 55  1  0  0  0  0
 56 54  1  0  0  0  0
 57  3  1  0  0  0  0
 57 54  1  0  0  0  0
 58 57  1  0  0  0  0
 59 57  1  0  0  0  0
 60 66  1  0  0  0  0
 61 60  1  0  0  0  0
 62 60  1  0  0  0  0
 62 63  1  0  0  0  0
 62 64  1  0  0  0  0
 65 62  1  0  0  0  0
 66 68  1  0  0  0  0
 66 67  1  0  0  0  0
 66 69  1  0  0  0  0
 70 71  1  0  0  0  0
 70  3  1  0  0  0  0
 72 75  1  0  0  0  0
 72 70  1  0  0  0  0
 73 72  1  0  0  0  0
 74 72  1  0  0  0  0
 76 78  1  0  0  0  0
 76 70  1  0  0  0  0
 77 76  1  0  0  0  0
 79 76  1  0  0  0  0
 80  4  1  0  0  0  0
M  END
