1,3,4
q = -1.0, confidence = 0.024

 47 48  0  0  0  0  0  0  0  0999 V2000
   -1.5956    0.2405   -0.0094 P   0  0  0  0  0  0  0  0  0  0  0  0
   -1.3319    1.9637    0.1194 O   0  0  0  0  0  0  0  0  0  0  0  0
    0.9092    1.3774    0.0545 N   0  0  0  0  0  2  0  0  0  0  0  0
    2.3801   -0.7012   -0.0190 C   0  0  0  0  0  2  0  0  0  0  0  0
    3.1328   -1.8864   -0.0654 C   0  0  0  0  0  0  0  0  0  0  0  0
    2.6123   -2.8567   -0.0825 H   0  0  0  0  0  0  0  0  0  0  0  0
    4.5387   -1.8523   -0.0882 C   0  0  0  0  0  0  0  0  0  0  0  0
    5.1039   -2.7976   -0.1245 H   0  0  0  0  0  0  0  0  0  0  0  0
    5.2310   -0.6278   -0.0646 C   0  0  0  0  0  0  0  0  0  0  0  0
    6.3312   -0.6106   -0.0826 H   0  0  0  0  0  0  0  0  0  0  0  0
    4.5101    0.5704   -0.0180 C   0  0  0  0  0  0  0  0  0  0  0  0
    5.0450    1.5333   -0.0001 H   0  0  0  0  0  0  0  0  0  0  0  0
    3.1000    0.5335    0.0044 C   0  0  0  0  0  0  0  0  0  0  0  0
    2.2462    1.7143    0.0516 C   0  0  0  0  0  0  0  0  0  0  0  0
    2.6305    3.0634    0.0967 C   0  0  0  0  0  0  0  0  0  0  0  0
    3.6973    3.3226    0.0940 H   0  0  0  0  0  0  0  0  0  0  0  0
    1.6458    4.0609    0.1474 C   0  0  0  0  0  0  0  0  0  0  0  0
    1.9354    5.1217    0.1825 H   0  0  0  0  0  0  0  0  0  0  0  0
    0.2893    3.7110    0.1545 C   0  0  0  0  0  0  0  0  0  0  0  0
   -0.5181    4.4531    0.1941 H   0  0  0  0  0  0  0  0  0  0  0  0
   -0.0393    2.3463    0.1096 C   0  0  0  0  0  0  0  0  0  0  0  0
   -2.6521   -0.0102    1.5356 C   0  0  0  0  0  0  0  0  0  0  0  0
   -1.6117   -0.1071    2.6721 C   0  0  0  0  0  0  0  0  0  0  0  0
   -1.0051    0.8177    2.7540 H   0  0  0  0  0  0  0  0  0  0  0  0
   -0.9250   -0.9628    2.5163 H   0  0  0  0  0  0  0  0  0  0  0  0
   -2.1407   -0.2502    3.6382 H   0  0  0  0  0  0  0  0  0  0  0  0
   -3.4103   -1.3436    1.4162 C   0  0  0  0  0  0  0  0  0  0  0  0
   -3.8514   -1.5926    2.4045 H   0  0  0  0  0  0  0  0  0  0  0  0
   -2.7342   -2.1730    1.1239 H   0  0  0  0  0  0  0  0  0  0  0  0
   -4.2424   -1.2832    0.6876 H   0  0  0  0  0  0  0  0  0  0  0  0
   -3.6141    1.1557    1.8086 C   0  0  0  0  0  0  0  0  0  0  0  0
   -4.1043    0.9870    2.7908 H   0  0  0  0  0  0  0  0  0  0  0  0
   -4.4118    1.2341    1.0474 H   0  0  0  0  0  0  0  0  0  0  0  0
   -3.0804    2.1240    1.8539 H   0  0  0  0  0  0  0  0  0  0  0  0
   -2.5491    0.2203   -1.6394 C   0  0  0  0  0  0  0  0  0  0  0  0
   -2.8876   -1.2372   -2.0025 C   0  0  0  0  0  0  0  0  0  0  0  0
   -3.2726   -1.2625   -3.0437 H   0  0  0  0  0  0  0  0  0  0  0  0
   -3.6690   -1.6630   -1.3459 H   0  0  0  0  0  0  0  0  0  0  0  0
   -1.9964   -1.8934   -1.9401 H   0  0  0  0  0  0  0  0  0  0  0  0
   -3.8078    1.0975   -1.6184 C   0  0  0  0  0  0  0  0  0  0  0  0
   -3.5878    2.1254   -1.2688 H   0  0  0  0  0  0  0  0  0  0  0  0
   -4.6028    0.6668   -0.9793 H   0  0  0  0  0  0  0  0  0  0  0  0
   -4.2168    1.1686   -2.6488 H   0  0  0  0  0  0  0  0  0  0  0  0
   -1.5354    0.7722   -2.6649 C   0  0  0  0  0  0  0  0  0  0  0  0
   -0.5952    0.1837   -2.6622 H   0  0  0  0  0  0  0  0  0  0  0  0
   -1.2851    1.8338   -2.4715 H   0  0  0  0  0  0  0  0  0  0  0  0
   -1.9790    0.7069   -3.6804 H   0  0  0  0  0  0  0  0  0  0  0  0
  1  2  1  0  0  0  0
  1 22  1  0  0  0  0
  3 21  1  0  0  0  0
  4 13  1  0  0  0  0
  5  4  1  0  0  0  0
  6  5  1  0  0  0  0
  7  5  2  0  0  0  0
  7  9  1  0  0  0  0
  8  7  1  0  0  0  0
  9 11  2  0  0  0  0
 10  9  1  0  0  0  0
 11 12  1  0  0  0  0
 11 13  1  0  0  0  0
 13 14  2  0  0  0  0
 14  3  1  0  0  0  0
 14 15  1  0  0  0  0
 15 17  2  0  0  0  0
 16 15  1  0  0  0  0
 17 19  1  0  0  0  0
 17 18  1  0  0  0  0
 19 20  1  0  0  0  0
 21  2  1  0  0  0  0
 21 19  2  0  0  0  0
 22 31  1  0  0  0  0
 22 23  1  0  0  0  0
 23 24  1  0  0  0  0
 23 26  1  0  0  0  0
 25 23  1  0  0  0  0
 27 22  1  0  0  0  0
 27 28  1  0  0  0  0
 29 27  1  0  0  0  0
 30 27  1  0  0  0  0
 31 34  1  0  0  0  0
 31 32  1  0  0  0  0
 33 31  1  0  0  0  0
 35 40  1  0  0  0  0
 35  1  1  0  0  0  0
 36 39  1  0  0  0  0
 36 35  1  0  0  0  0
 36 38  1  0  0  0  0
 37 36  1  0  0  0  0
 40 41  1  0  0  0  0
 40 42  1  0  0  0  0
 43 40  1  0  0  0  0
 44 45  1  0  0  0  0
 44 46  1  0  0  0  0
 44 35  1  0  0  0  0
 47 44  1  0  0  0  0
M  END
