1,24,49
q = -1.0

 50 53  0  0  1  0  0  0  0  0999 V2000
   -1.4189    0.2360   -0.2245 P   0  0  0  0  0  0  0  0  0  0  0  0
   -2.3360   -1.0000   -1.2070 C   0  0  0  0  0  0  0  0  0  0  0  0
   -2.9652   -0.6206   -2.4105 C   0  0  0  0  0  0  0  0  0  0  0  0
   -2.8690    0.4112   -2.7779 H   0  0  0  0  0  0  0  0  0  0  0  0
   -3.6972   -1.5713   -3.1361 C   0  0  0  0  0  0  0  0  0  0  0  0
   -4.1859   -1.2785   -4.0778 H   0  0  0  0  0  0  0  0  0  0  0  0
   -3.8036   -2.8908   -2.6667 C   0  0  0  0  0  0  0  0  0  0  0  0
   -4.3791   -3.6332   -3.2405 H   0  0  0  0  0  0  0  0  0  0  0  0
   -3.1688   -3.2643   -1.4711 C   0  0  0  0  0  0  0  0  0  0  0  0
   -3.2410   -4.3006   -1.1074 H   0  0  0  0  0  0  0  0  0  0  0  0
   -2.4293   -2.3256   -0.7367 C   0  0  0  0  0  0  0  0  0  0  0  0
   -1.9041   -2.6116    0.1911 H   0  0  0  0  0  0  0  0  0  0  0  0
   -2.6449    0.9581    0.9186 C   0  0  0  0  0  0  0  0  0  0  0  0
   -3.3820    2.1041    0.5603 C   0  0  0  0  0  0  0  0  0  0  0  0
   -3.1987    2.5914   -0.4084 H   0  0  0  0  0  0  0  0  0  0  0  0
   -4.3338    2.6181    1.4531 C   0  0  0  0  0  0  0  0  0  0  0  0
   -4.9089    3.5158    1.1793 H   0  0  0  0  0  0  0  0  0  0  0  0
   -4.5507    1.9925    2.6917 C   0  0  0  0  0  0  0  0  0  0  0  0
   -5.2991    2.3998    3.3886 H   0  0  0  0  0  0  0  0  0  0  0  0
   -3.8081    0.8538    3.0454 C   0  0  0  0  0  0  0  0  0  0  0  0
   -3.9695    0.3700    4.0207 H   0  0  0  0  0  0  0  0  0  0  0  0
   -2.8485    0.3323    2.1657 C   0  0  0  0  0  0  0  0  0  0  0  0
   -2.2409   -0.5478    2.4389 H   0  0  0  0  0  0  0  0  0  0  0  0
    1.0642    1.3597   -0.5372 C   0  0  0  0  0  3  0  0  0  0  0  0
    0.0831    1.9920   -1.3372 C   0  0  0  0  0  0  0  0  0  0  0  0
    0.3506    3.1562   -2.0722 C   0  0  0  0  0  0  0  0  0  0  0  0
   -0.4413    3.6016   -2.6913 H   0  0  0  0  0  0  0  0  0  0  0  0
    1.6253    3.7356   -1.9789 C   0  0  0  0  0  0  0  0  0  0  0  0
    1.8528    4.6464   -2.5526 H   0  0  0  0  0  0  0  0  0  0  0  0
    2.5961    3.1745   -1.1353 C   0  0  0  0  0  0  0  0  0  0  0  0
    3.5799    3.6591   -1.0286 H   0  0  0  0  0  0  0  0  0  0  0  0
    2.3123    2.0028   -0.4046 C   0  0  0  0  0  0  0  0  0  0  0  0
    3.3073    1.4778    0.6109 C   0  0  0  0  0  0  0  0  0  0  0  0
    4.2551    2.0432    0.5626 H   0  0  0  0  0  0  0  0  0  0  0  0
    2.8952    1.6018    1.6364 H   0  0  0  0  0  0  0  0  0  0  0  0
    4.8398   -0.4921    0.1351 C   0  0  2  0  0  3  0  0  0  0  0  0
    4.6102   -1.8654    0.0247 C   0  0  0  0  0  0  0  0  0  0  0  0
    5.3541   -2.6358   -0.2024 H   0  0  0  0  0  0  0  0  0  0  0  0
    3.2281   -2.0618    0.2564 C   0  0  0  0  0  0  0  0  0  0  0  0
    6.0983    0.2983   -0.0100 C   0  0  0  0  0  0  0  0  0  0  0  0
    6.0223    1.0550   -0.8186 H   0  0  0  0  0  0  0  0  0  0  0  0
    6.9342   -0.3794   -0.2622 H   0  0  0  0  0  0  0  0  0  0  0  0
    6.3694    0.8318    0.9251 H   0  0  0  0  0  0  0  0  0  0  0  0
    2.4525   -3.3350    0.1768 C   0  0  0  0  0  0  0  0  0  0  0  0
    1.9814   -3.4408   -0.8235 H   0  0  0  0  0  0  0  0  0  0  0  0
    1.6355   -3.3481    0.9240 H   0  0  0  0  0  0  0  0  0  0  0  0
    3.1221   -4.2023    0.3296 H   0  0  0  0  0  0  0  0  0  0  0  0
    3.6305    0.0704    0.4311 N   0  0  0  0  0  0  0  0  0  0  0  0
    2.6525   -0.8644    0.5151 N   0  0  0  0  0  2  0  0  0  0  0  0
   -1.1996    1.4683   -1.3669 O   0  0  0  0  0  0  0  0  0  0  0  0
  1 13  1  0  0  0  0
  2 11  1  0  0  0  0
  2  1  1  0  0  0  0
  3  2  2  0  0  0  0
  4  3  1  0  0  0  0
  5  7  2  0  0  0  0
  5  3  1  0  0  0  0
  6  5  1  0  0  0  0
  7  9  1  0  0  0  0
  8  7  1  0  0  0  0
  9 10  1  0  0  0  0
  9 11  2  0  0  0  0
 11 12  1  0  0  0  0
 13 22  1  0  0  0  0
 14 13  2  0  0  0  0
 14 16  1  0  0  0  0
 15 14  1  0  0  0  0
 16 18  2  0  0  0  0
 17 16  1  0  0  0  0
 18 20  1  0  0  0  0
 18 19  1  0  0  0  0
 20 21  1  0  0  0  0
 22 23  1  0  0  0  0
 22 20  2  0  0  0  0
 24 32  1  0  0  0  0
 25 24  2  0  0  0  0
 26 28  2  0  0  0  0
 26 25  1  0  0  0  0
 27 26  1  0  0  0  0
 28 30  1  0  0  0  0
 29 28  1  0  0  0  0
 30 31  1  0  0  0  0
 30 32  2  0  0  0  0
 32 33  1  0  0  0  0
 33 35  1  0  0  0  0
 34 33  1  0  0  0  0
 36 40  1  1  0  0  0
 36 48  1  0  0  0  0
 37 36  1  0  0  0  0
 37 39  2  0  0  0  0
 38 37  1  0  0  0  0
 39 49  1  0  0  0  0
 40 43  1  0  0  0  0
 41 40  1  0  0  0  0
 42 40  1  0  0  0  0
 44 39  1  0  0  0  0
 44 47  1  0  0  0  0
 44 46  1  0  0  0  0
 45 44  1  0  0  0  0
 48 49  1  0  0  0  0
 48 33  1  0  0  0  0
 50 25  1  0  0  0  0
 50  1  1  0  0  0  0
M  END
