1,2,39
q = -1.0

 56 59  0  0  0  0  0  0  0  0999 V2000
    1.1531   -0.0273    0.2935 P   0  0  0  0  0  0  0  0  0  0  0  0
   -2.8237    0.2072   -1.2725 N   0  0  0  0  0  2  0  0  0  0  0  0
   -3.9014    0.0002   -0.4904 N   0  0  0  0  0  0  0  0  0  0  0  0
    0.8771    0.1044    1.9661 O   0  0  0  0  0  0  0  0  0  0  0  0
    2.2007    1.4421   -0.0634 C   0  0  0  0  0  0  0  0  0  0  0  0
    2.4493    1.3105   -1.1416 H   0  0  0  0  0  0  0  0  0  0  0  0
    1.3555    2.7236    0.0753 C   0  0  0  0  0  0  0  0  0  0  0  0
    0.4795    2.6549   -0.6020 H   0  0  0  0  0  0  0  0  0  0  0  0
    0.9605    2.7849    1.1134 H   0  0  0  0  0  0  0  0  0  0  0  0
    2.1904    3.9720   -0.2358 C   0  0  0  0  0  0  0  0  0  0  0  0
    2.4782    3.9558   -1.3107 H   0  0  0  0  0  0  0  0  0  0  0  0
    1.5715    4.8821   -0.0915 H   0  0  0  0  0  0  0  0  0  0  0  0
    3.4561    4.0365    0.6275 C   0  0  0  0  0  0  0  0  0  0  0  0
    4.0589    4.9322    0.3695 H   0  0  0  0  0  0  0  0  0  0  0  0
    3.1652    4.1506    1.6962 H   0  0  0  0  0  0  0  0  0  0  0  0
    4.2976    2.7645    0.4688 C   0  0  0  0  0  0  0  0  0  0  0  0
    5.1953    2.8037    1.1209 H   0  0  0  0  0  0  0  0  0  0  0  0
    4.6717    2.7019   -0.5777 H   0  0  0  0  0  0  0  0  0  0  0  0
    3.4839    1.5001    0.7840 C   0  0  0  0  0  0  0  0  0  0  0  0
    3.1997    1.4949    1.8591 H   0  0  0  0  0  0  0  0  0  0  0  0
    4.1076    0.5980    0.6137 H   0  0  0  0  0  0  0  0  0  0  0  0
    2.2102   -1.5351    0.1797 C   0  0  0  0  0  0  0  0  0  0  0  0
    3.0137   -1.3999    0.9396 H   0  0  0  0  0  0  0  0  0  0  0  0
    2.8350   -1.6666   -1.2232 C   0  0  0  0  0  0  0  0  0  0  0  0
    2.0236   -1.6277   -1.9832 H   0  0  0  0  0  0  0  0  0  0  0  0
    3.4932   -0.7986   -1.4357 H   0  0  0  0  0  0  0  0  0  0  0  0
    3.6333   -2.9713   -1.3542 C   0  0  0  0  0  0  0  0  0  0  0  0
    4.0303   -3.0609   -2.3868 H   0  0  0  0  0  0  0  0  0  0  0  0
    4.5189   -2.9288   -0.6801 H   0  0  0  0  0  0  0  0  0  0  0  0
    2.7871   -4.1980   -0.9931 C   0  0  0  0  0  0  0  0  0  0  0  0
    3.3941   -5.1240   -1.0729 H   0  0  0  0  0  0  0  0  0  0  0  0
    1.9587   -4.2986   -1.7295 H   0  0  0  0  0  0  0  0  0  0  0  0
    2.1939   -4.0633    0.4146 C   0  0  0  0  0  0  0  0  0  0  0  0
    3.0184   -4.0581    1.1631 H   0  0  0  0  0  0  0  0  0  0  0  0
    1.5572   -4.9395    0.6577 H   0  0  0  0  0  0  0  0  0  0  0  0
    1.3737   -2.7747    0.5526 C   0  0  0  0  0  0  0  0  0  0  0  0
    0.4908   -2.8177   -0.1236 H   0  0  0  0  0  0  0  0  0  0  0  0
    0.9752   -2.6677    1.5824 H   0  0  0  0  0  0  0  0  0  0  0  0
   -1.4279   -0.2283    1.2968 C   0  0  0  0  0  3  0  0  0  0  0  0
   -0.4532   -0.0576    2.3147 C   0  0  0  0  0  0  0  0  0  0  0  0
   -0.7815   -0.0685    3.6785 C   0  0  0  0  0  0  0  0  0  0  0  0
    0.0121    0.0735    4.4261 H   0  0  0  0  0  0  0  0  0  0  0  0
   -2.1194   -0.2662    4.0525 C   0  0  0  0  0  0  0  0  0  0  0  0
   -2.3938   -0.2672    5.1179 H   0  0  0  0  0  0  0  0  0  0  0  0
   -3.1013   -0.4738    3.0734 C   0  0  0  0  0  0  0  0  0  0  0  0
   -4.1463   -0.6536    3.3732 H   0  0  0  0  0  0  0  0  0  0  0  0
   -2.7576   -0.4695    1.7045 C   0  0  0  0  0  0  0  0  0  0  0  0
   -3.8148   -0.8566    0.6895 C   0  0  0  0  0  0  0  0  0  0  0  0
   -3.6159   -1.8906    0.3284 H   0  0  0  0  0  0  0  0  0  0  0  0
   -4.8191   -0.8549    1.1527 H   0  0  0  0  0  0  0  0  0  0  0  0
   -5.0152    0.5494   -1.0486 C   0  0  0  0  0  3  0  0  0  0  0  0
   -5.9911    0.4623   -0.5588 H   0  0  0  0  0  0  0  0  0  0  0  0
   -4.6275    1.1505   -2.2473 C   0  0  0  0  0  0  0  0  0  0  0  0
   -5.2644    1.6936   -2.9520 H   0  0  0  0  0  0  0  0  0  0  0  0
   -3.2405    0.9100   -2.3424 C   0  0  0  0  0  0  0  0  0  0  0  0
   -2.4972    1.1911   -3.0992 H   0  0  0  0  0  0  0  0  0  0  0  0
  1  4  1  0  0  0  0
  2  3  1  0  0  0  0
  3 48  1  0  0  0  0
  4 40  1  0  0  0  0
  5  7  1  0  0  0  0
  5  1  1  0  0  0  0
  5 19  1  0  0  0  0
  6  5  1  0  0  0  0
  7  9  1  0  0  0  0
  8  7  1  0  0  0  0
 10 12  1  0  0  0  0
 10  7  1  0  0  0  0
 10 13  1  0  0  0  0
 11 10  1  0  0  0  0
 13 15  1  0  0  0  0
 14 13  1  0  0  0  0
 16 13  1  0  0  0  0
 16 19  1  0  0  0  0
 16 17  1  0  0  0  0
 18 16  1  0  0  0  0
 19 20  1  0  0  0  0
 21 19  1  0  0  0  0
 22  1  1  0  0  0  0
 22 36  1  0  0  0  0
 22 23  1  0  0  0  0
 24 22  1  0  0  0  0
 25 24  1  0  0  0  0
 26 24  1  0  0  0  0
 27 24  1  0  0  0  0
 27 30  1  0  0  0  0
 27 29  1  0  0  0  0
 28 27  1  0  0  0  0
 30 33  1  0  0  0  0
 31 30  1  0  0  0  0
 32 30  1  0  0  0  0
 33 36  1  0  0  0  0
 33 35  1  0  0  0  0
 33 34  1  0  0  0  0
 36 38  1  0  0  0  0
 37 36  1  0  0  0  0
 39 47  2  0  0  0  0
 39 40  1  0  0  0  0
 40 41  2  0  0  0  0
 41 43  1  0  0  0  0
 41 42  1  0  0  0  0
 43 44  1  0  0  0  0
 45 46  1  0  0  0  0
 45 43  2  0  0  0  0
 47 45  1  0  0  0  0
 48 50  1  0  0  0  0
 48 47  1  0  0  0  0
 49 48  1  0  0  0  0
 51 52  1  0  0  0  0
 51  3  1  0  0  0  0
 53 51  1  0  0  0  0
 54 53  1  0  0  0  0
 55 53  2  0  0  0  0
 55  2  1  0  0  0  0
 56 55  1  0  0  0  0
M  END
