1,16,35
q = -1.0

 55 55  0  0  0  0  0  0  0  0999 V2000
   -2.0344   -0.1438   -0.0343 P   0  0  0  0  0  0  0  0  0  0  0  0
   -2.2671    1.5511   -0.0169 O   0  0  0  0  0  0  0  0  0  0  0  0
    3.0119   -1.1083   -0.8596 C   0  0  0  0  0  0  0  0  0  0  0  0
    2.7521   -2.0781   -0.3933 H   0  0  0  0  0  0  0  0  0  0  0  0
   -1.0771    2.2502   -0.1353 C   0  0  0  0  0  0  0  0  0  0  0  0
   -1.0718    3.6506   -0.2042 C   0  0  0  0  0  0  0  0  0  0  0  0
   -2.0181    4.2084   -0.1562 H   0  0  0  0  0  0  0  0  0  0  0  0
    0.1650    4.3110   -0.3334 C   0  0  0  0  0  0  0  0  0  0  0  0
    0.1823    5.4104   -0.3820 H   0  0  0  0  0  0  0  0  0  0  0  0
    1.3713    3.5935   -0.4027 C   0  0  0  0  0  0  0  0  0  0  0  0
    2.3263    4.1325   -0.5076 H   0  0  0  0  0  0  0  0  0  0  0  0
    1.3526    2.1851   -0.3372 C   0  0  0  0  0  0  0  0  0  0  0  0
    2.5800    1.3191   -0.4718 C   0  0  0  0  0  0  0  0  0  0  0  0
    3.4659    1.7743    0.0253 H   0  0  0  0  0  0  0  0  0  0  0  0
    2.8377    1.2482   -1.5475 H   0  0  0  0  0  0  0  0  0  0  0  0
    2.3652   -0.0803    0.0406 N   0  0  0  0  0  0  0  0  0  0  0  0
    2.3657   -1.1270   -2.2462 C   0  0  0  0  0  0  0  0  0  0  0  0
    2.5819   -0.2176   -2.8433 H   0  0  0  0  0  0  0  0  0  0  0  0
    1.2657   -1.2454   -2.1595 H   0  0  0  0  0  0  0  0  0  0  0  0
    2.7538   -1.9958   -2.8135 H   0  0  0  0  0  0  0  0  0  0  0  0
    4.5368   -0.9752   -0.9505 C   0  0  0  0  0  0  0  0  0  0  0  0
    4.9407   -1.7976   -1.5734 H   0  0  0  0  0  0  0  0  0  0  0  0
    5.0314   -1.0387    0.0384 H   0  0  0  0  0  0  0  0  0  0  0  0
    4.8424   -0.0216   -1.4282 H   0  0  0  0  0  0  0  0  0  0  0  0
    2.8628   -0.1702    1.4683 C   0  0  0  0  0  0  0  0  0  0  0  0
    3.9180    0.1961    1.4527 H   0  0  0  0  0  0  0  0  0  0  0  0
    2.8519   -1.5980    2.0161 C   0  0  0  0  0  0  0  0  0  0  0  0
    3.0887   -1.5668    3.0976 H   0  0  0  0  0  0  0  0  0  0  0  0
    3.6043   -2.2521    1.5356 H   0  0  0  0  0  0  0  0  0  0  0  0
    1.8557   -2.0673    1.8804 H   0  0  0  0  0  0  0  0  0  0  0  0
    2.0754    0.7570    2.3994 C   0  0  0  0  0  0  0  0  0  0  0  0
    2.0746    1.8112    2.0655 H   0  0  0  0  0  0  0  0  0  0  0  0
    2.5281    0.7184    3.4098 H   0  0  0  0  0  0  0  0  0  0  0  0
    1.0177    0.4310    2.4734 H   0  0  0  0  0  0  0  0  0  0  0  0
    0.1255    1.5147   -0.1914 C   0  0  0  0  0  3  0  0  0  0  0  0
   -2.9892   -0.6376   -1.5425 C   0  0  0  0  0  0  0  0  0  0  0  0
   -3.9768   -0.1349   -1.4414 H   0  0  0  0  0  0  0  0  0  0  0  0
   -2.2719   -0.0904   -2.7829 C   0  0  0  0  0  0  0  0  0  0  0  0
   -1.2745   -0.5617   -2.8977 H   0  0  0  0  0  0  0  0  0  0  0  0
   -2.1264    1.0062   -2.7244 H   0  0  0  0  0  0  0  0  0  0  0  0
   -2.8672   -0.3120   -3.6922 H   0  0  0  0  0  0  0  0  0  0  0  0
   -3.1617   -2.1618   -1.5823 C   0  0  0  0  0  0  0  0  0  0  0  0
   -3.6327   -2.4602   -2.5413 H   0  0  0  0  0  0  0  0  0  0  0  0
   -3.8086   -2.5324   -0.7624 H   0  0  0  0  0  0  0  0  0  0  0  0
   -2.1799   -2.6731   -1.4951 H   0  0  0  0  0  0  0  0  0  0  0  0
   -2.9912   -0.6818    1.4547 C   0  0  0  0  0  0  0  0  0  0  0  0
   -2.9703   -1.7915    1.3739 H   0  0  0  0  0  0  0  0  0  0  0  0
   -2.2162   -0.2700    2.7134 C   0  0  0  0  0  0  0  0  0  0  0  0
   -2.1019    0.8319    2.7700 H   0  0  0  0  0  0  0  0  0  0  0  0
   -1.2061   -0.7251    2.7186 H   0  0  0  0  0  0  0  0  0  0  0  0
   -2.7571   -0.6065    3.6212 H   0  0  0  0  0  0  0  0  0  0  0  0
   -4.4357   -0.1693    1.4428 C   0  0  0  0  0  0  0  0  0  0  0  0
   -4.9588   -0.4928    2.3661 H   0  0  0  0  0  0  0  0  0  0  0  0
   -5.0147   -0.5548    0.5803 H   0  0  0  0  0  0  0  0  0  0  0  0
   -4.4584    0.9384    1.4074 H   0  0  0  0  0  0  0  0  0  0  0  0
  1  2  1  0  0  0  0
  1 46  1  0  0  0  0
  3  4  1  0  0  0  0
  3 16  1  0  0  0  0
  5  2  1  0  0  0  0
  6  7  1  0  0  0  0
  6  5  2  0  0  0  0
  8  6  1  0  0  0  0
  9  8  1  0  0  0  0
 10 12  1  0  0  0  0
 10  8  2  0  0  0  0
 11 10  1  0  0  0  0
 12 35  2  0  0  0  0
 13 12  1  0  0  0  0
 13 14  1  0  0  0  0
 13 16  1  0  0  0  0
 15 13  1  0  0  0  0
 16 25  1  0  0  0  0
 17 19  1  0  0  0  0
 17  3  1  0  0  0  0
 18 17  1  0  0  0  0
 20 17  1  0  0  0  0
 21  3  1  0  0  0  0
 21 23  1  0  0  0  0
 22 21  1  0  0  0  0
 24 21  1  0  0  0  0
 25 27  1  0  0  0  0
 25 31  1  0  0  0  0
 26 25  1  0  0  0  0
 27 28  1  0  0  0  0
 29 27  1  0  0  0  0
 30 27  1  0  0  0  0
 31 34  1  0  0  0  0
 31 33  1  0  0  0  0
 32 31  1  0  0  0  0
 35  5  1  0  0  0  0
 36 37  1  0  0  0  0
 36  1  1  0  0  0  0
 38 40  1  0  0  0  0
 38 36  1  0  0  0  0
 39 38  1  0  0  0  0
 41 38  1  0  0  0  0
 42 36  1  0  0  0  0
 42 45  1  0  0  0  0
 42 44  1  0  0  0  0
 43 42  1  0  0  0  0
 46 48  1  0  0  0  0
 47 46  1  0  0  0  0
 48 50  1  0  0  0  0
 48 49  1  0  0  0  0
 48 51  1  0  0  0  0
 52 46  1  0  0  0  0
 52 53  1  0  0  0  0
 54 52  1  0  0  0  0
 55 52  1  0  0  0  0
M  END
