1,3,24
q = -1.0

 57 59  0  0  0  0  0  0  0  0999 V2000
    2.9940   -0.3794    0.0775 P   0  0  0  0  0  0  0  0  0  0  0  0
    2.6514   -2.0613   -0.0101 O   0  0  0  0  0  0  0  0  0  0  0  0
   -1.0593    0.9040   -0.1531 N   0  0  0  0  0  2  0  0  0  0  0  0
   -3.1028    0.0103   -0.3752 N   0  0  0  0  0  0  0  0  0  0  0  0
   -1.7664    3.3360   -0.0921 C   0  0  0  0  0  0  0  0  0  0  0  0
   -0.7445    3.7328    0.0047 H   0  0  0  0  0  0  0  0  0  0  0  0
   -2.9085    4.1428   -0.1391 C   0  0  0  0  0  0  0  0  0  0  0  0
   -2.7982    5.2357   -0.0759 H   0  0  0  0  0  0  0  0  0  0  0  0
   -4.2077    3.5903   -0.2640 C   0  0  0  0  0  0  0  0  0  0  0  0
   -5.0779    4.2630   -0.2927 H   0  0  0  0  0  0  0  0  0  0  0  0
   -4.4143    2.2061   -0.3495 C   0  0  0  0  0  0  0  0  0  0  0  0
   -5.4266    1.7859   -0.4395 H   0  0  0  0  0  0  0  0  0  0  0  0
   -3.2705    1.3938   -0.3062 C   0  0  0  0  0  0  0  0  0  0  0  0
   -1.9629    1.9450   -0.1750 C   0  0  0  0  0  0  0  0  0  0  0  0
   -1.7528   -0.2493   -0.2636 C   0  0  0  0  0  0  0  0  0  0  0  0
   -0.9963   -1.5010   -0.2522 C   0  0  0  0  0  0  0  0  0  0  0  0
   -1.4639   -2.8363   -0.3164 C   0  0  0  0  0  3  0  0  0  0  0  0
   -2.5344   -3.0706   -0.3804 H   0  0  0  0  0  0  0  0  0  0  0  0
   -0.5403   -3.8926   -0.2884 C   0  0  0  0  0  0  0  0  0  0  0  0
   -0.9058   -4.9289   -0.3393 H   0  0  0  0  0  0  0  0  0  0  0  0
    0.8448   -3.6588   -0.1916 C   0  0  0  0  0  0  0  0  0  0  0  0
    1.5638   -4.4904   -0.1673 H   0  0  0  0  0  0  0  0  0  0  0  0
    1.3031   -2.3336   -0.1186 C   0  0  0  0  0  0  0  0  0  0  0  0
    0.3994   -1.2538   -0.1479 C   0  0  0  0  0  3  0  0  0  0  0  0
    4.1636   -0.1525   -1.3381 C   0  0  0  0  0  0  0  0  0  0  0  0
    4.4465    0.9205   -1.2467 H   0  0  0  0  0  0  0  0  0  0  0  0
    3.3924   -0.3481   -2.6503 C   0  0  0  0  0  0  0  0  0  0  0  0
    3.0310   -1.3923   -2.7451 H   0  0  0  0  0  0  0  0  0  0  0  0
    4.0530   -0.1343   -3.5151 H   0  0  0  0  0  0  0  0  0  0  0  0
    2.5139    0.3252   -2.7044 H   0  0  0  0  0  0  0  0  0  0  0  0
    5.4032   -1.0480   -1.2373 C   0  0  0  0  0  0  0  0  0  0  0  0
    6.0132   -0.8296   -0.3386 H   0  0  0  0  0  0  0  0  0  0  0  0
    6.0517   -0.8970   -2.1247 H   0  0  0  0  0  0  0  0  0  0  0  0
    5.1121   -2.1174   -1.2076 H   0  0  0  0  0  0  0  0  0  0  0  0
    3.9628   -0.2821    1.6503 C   0  0  0  0  0  0  0  0  0  0  0  0
    4.7179   -1.0966    1.5831 H   0  0  0  0  0  0  0  0  0  0  0  0
    3.0196   -0.5589    2.8278 C   0  0  0  0  0  0  0  0  0  0  0  0
    2.2479    0.2342    2.9019 H   0  0  0  0  0  0  0  0  0  0  0  0
    3.5943   -0.5759    3.7764 H   0  0  0  0  0  0  0  0  0  0  0  0
    2.5031   -1.5331    2.7201 H   0  0  0  0  0  0  0  0  0  0  0  0
    4.6493    1.0872    1.7544 C   0  0  0  0  0  0  0  0  0  0  0  0
    5.4366    1.2221    0.9860 H   0  0  0  0  0  0  0  0  0  0  0  0
    5.1308    1.1881    2.7485 H   0  0  0  0  0  0  0  0  0  0  0  0
    3.9103    1.9077    1.6335 H   0  0  0  0  0  0  0  0  0  0  0  0
   -4.1942   -0.9480   -0.4713 C   0  0  0  0  0  0  0  0  0  0  0  0
   -3.8816   -1.7721   -1.1435 H   0  0  0  0  0  0  0  0  0  0  0  0
   -5.0295   -0.4324   -0.9843 H   0  0  0  0  0  0  0  0  0  0  0  0
   -4.6379   -1.4891    0.8932 C   0  0  0  0  0  0  0  0  0  0  0  0
   -4.9557   -0.6326    1.5270 H   0  0  0  0  0  0  0  0  0  0  0  0
   -3.7555   -1.9374    1.3967 H   0  0  0  0  0  0  0  0  0  0  0  0
   -5.7651   -2.5254    0.8025 C   0  0  0  0  0  0  0  0  0  0  0  0
   -5.4255   -3.3816    0.1769 H   0  0  0  0  0  0  0  0  0  0  0  0
   -5.9307   -2.9466    1.8164 H   0  0  0  0  0  0  0  0  0  0  0  0
   -7.0890   -1.9816    0.2585 C   0  0  0  0  0  0  0  0  0  0  0  0
   -7.8818   -2.7555    0.2820 H   0  0  0  0  0  0  0  0  0  0  0  0
   -7.0047   -1.6385   -0.7933 H   0  0  0  0  0  0  0  0  0  0  0  0
   -7.4463   -1.1202    0.8612 H   0  0  0  0  0  0  0  0  0  0  0  0
  1 35  1  0  0  0  0
  2  1  1  0  0  0  0
  4 13  1  0  0  0  0
  4 15  1  0  0  0  0
  5  6  1  0  0  0  0
  7  5  1  0  0  0  0
  7  8  1  0  0  0  0
  9  7  2  0  0  0  0
 10  9  1  0  0  0  0
 11 13  2  0  0  0  0
 11  9  1  0  0  0  0
 12 11  1  0  0  0  0
 13 14  1  0  0  0  0
 14  3  1  0  0  0  0
 14  5  2  0  0  0  0
 15 16  2  0  0  0  0
 15  3  1  0  0  0  0
 16 24  1  0  0  0  0
 17 19  1  0  0  0  0
 17 16  1  0  0  0  0
 18 17  1  0  0  0  0
 19 21  2  0  0  0  0
 20 19  1  0  0  0  0
 21 22  1  0  0  0  0
 21 23  1  0  0  0  0
 23  2  1  0  0  0  0
 24 23  2  0  0  0  0
 25 26  1  0  0  0  0
 25 31  1  0  0  0  0
 25  1  1  0  0  0  0
 27 25  1  0  0  0  0
 28 27  1  0  0  0  0
 29 27  1  0  0  0  0
 30 27  1  0  0  0  0
 31 34  1  0  0  0  0
 31 32  1  0  0  0  0
 33 31  1  0  0  0  0
 35 41  1  0  0  0  0
 35 37  1  0  0  0  0
 36 35  1  0  0  0  0
 37 38  1  0  0  0  0
 37 39  1  0  0  0  0
 40 37  1  0  0  0  0
 41 43  1  0  0  0  0
 42 41  1  0  0  0  0
 44 41  1  0  0  0  0
 45  4  1  0  0  0  0
 45 48  1  0  0  0  0
 46 45  1  0  0  0  0
 47 45  1  0  0  0  0
 48 50  1  0  0  0  0
 48 49  1  0  0  0  0
 51 48  1  0  0  0  0
 51 53  1  0  0  0  0
 52 51  1  0  0  0  0
 54 55  1  0  0  0  0
 54 51  1  0  0  0  0
 54 57  1  0  0  0  0
 56 54  1  0  0  0  0
M  END
