2,3,12
q = -1.0

 75 80  0  0  0  0  0  0  0  0999 V2000
    2.4991    0.2991    0.0208 P   0  0  0  0  0  4  0  0  0  0  0  0
   -2.7988   -0.3615   -0.1507 P   0  0  0  0  0  0  0  0  0  0  0  0
    1.4617   -0.8621   -0.4689 N   0  0  0  0  0  2  0  0  0  0  0  0
   -3.6427   -1.7922   -0.5901 N   0  0  0  0  0  0  0  0  0  0  0  0
   -4.6494   -1.6311   -0.7091 H   0  0  0  0  0  0  0  0  0  0  0  0
    0.5766   -3.1076   -0.5942 C   0  0  0  0  0  0  0  0  0  0  0  0
    6.2499   -0.8180   -1.2886 C   0  0  0  0  0  0  0  0  0  0  0  0
    6.8473   -0.7086   -2.2063 H   0  0  0  0  0  0  0  0  0  0  0  0
    2.3089    0.8880    1.7477 C   0  0  0  0  0  0  0  0  0  0  0  0
    4.2131   -0.3524   -0.0359 C   0  0  0  0  0  0  0  0  0  0  0  0
   -3.7249    1.0000   -0.9651 C   0  0  0  0  0  0  0  0  0  0  0  0
   -0.6657   -2.4632   -0.8351 C   0  0  0  0  0  3  0  0  0  0  0  0
    1.7193   -2.2619   -0.0968 C   0  0  0  0  0  0  0  0  0  0  0  0
    1.7998   -2.3927    1.0129 H   0  0  0  0  0  0  0  0  0  0  0  0
    2.6854   -2.6246   -0.5171 H   0  0  0  0  0  0  0  0  0  0  0  0
    2.4449    1.6768   -1.1613 C   0  0  0  0  0  0  0  0  0  0  0  0
    3.3308    1.6151    2.3937 C   0  0  0  0  0  0  0  0  0  0  0  0
    4.2737    1.8345    1.8690 H   0  0  0  0  0  0  0  0  0  0  0  0
   -3.7687   -1.2460    2.3522 C   0  0  0  0  0  0  0  0  0  0  0  0
   -4.0270   -2.1705    1.8142 H   0  0  0  0  0  0  0  0  0  0  0  0
    5.9927   -1.6799    0.9705 C   0  0  0  0  0  0  0  0  0  0  0  0
    6.3860   -2.2509    1.8252 H   0  0  0  0  0  0  0  0  0  0  0  0
    1.1265    0.5680    2.4425 C   0  0  0  0  0  0  0  0  0  0  0  0
    0.3317    0.0015    1.9303 H   0  0  0  0  0  0  0  0  0  0  0  0
   -3.1847   -0.1839    1.6354 C   0  0  0  0  0  0  0  0  0  0  0  0
   -1.7488   -3.2334   -1.3202 C   0  0  0  0  0  0  0  0  0  0  0  0
    2.0702    2.4052   -3.4468 C   0  0  0  0  0  0  0  0  0  0  0  0
    1.7567    2.1834   -4.4782 H   0  0  0  0  0  0  0  0  0  0  0  0
   -5.7149    2.3904   -1.1741 C   0  0  0  0  0  0  0  0  0  0  0  0
   -6.6852    2.7296   -0.7799 H   0  0  0  0  0  0  0  0  0  0  0  0
    4.7252   -1.0861    1.0551 C   0  0  0  0  0  0  0  0  0  0  0  0
    4.1308   -1.1885    1.9757 H   0  0  0  0  0  0  0  0  0  0  0  0
    2.0574    1.3866   -2.4839 C   0  0  0  0  0  0  0  0  0  0  0  0
    1.7204    0.3683   -2.7293 H   0  0  0  0  0  0  0  0  0  0  0  0
    0.9612    0.9874    3.7700 C   0  0  0  0  0  0  0  0  0  0  0  0
    0.0301    0.7379    4.3011 H   0  0  0  0  0  0  0  0  0  0  0  0
    4.9813   -0.2247   -1.2108 C   0  0  0  0  0  0  0  0  0  0  0  0
    4.5850    0.3462   -2.0640 H   0  0  0  0  0  0  0  0  0  0  0  0
   -3.2216    1.5457   -2.1632 C   0  0  0  0  0  0  0  0  0  0  0  0
   -2.2269    1.2337   -2.5161 H   0  0  0  0  0  0  0  0  0  0  0  0
    3.1543    2.0423    3.7185 C   0  0  0  0  0  0  0  0  0  0  0  0
    3.9496    2.6154    4.2189 H   0  0  0  0  0  0  0  0  0  0  0  0
   -0.3612   -5.2505   -1.2643 C   0  0  0  0  0  0  0  0  0  0  0  0
   -0.2510   -6.3330   -1.4299 H   0  0  0  0  0  0  0  0  0  0  0  0
    0.7236   -4.4897   -0.8086 C   0  0  0  0  0  0  0  0  0  0  0  0
    1.6978   -4.9711   -0.6228 H   0  0  0  0  0  0  0  0  0  0  0  0
    2.4683    3.7048   -3.0948 C   0  0  0  0  0  0  0  0  0  0  0  0
    2.4715    4.5039   -3.8516 H   0  0  0  0  0  0  0  0  0  0  0  0
   -1.5868   -4.6193   -1.5203 C   0  0  0  0  0  0  0  0  0  0  0  0
   -2.4395   -5.2113   -1.8921 H   0  0  0  0  0  0  0  0  0  0  0  0
   -3.0747   -2.5953   -1.6835 C   0  0  0  0  0  0  0  0  0  0  0  0
   -2.9463   -1.9946   -2.6184 H   0  0  0  0  0  0  0  0  0  0  0  0
   -3.8077   -3.3924   -1.9200 H   0  0  0  0  0  0  0  0  0  0  0  0
   -4.9721    1.4313   -0.4688 C   0  0  0  0  0  0  0  0  0  0  0  0
   -5.3559    1.0262    0.4812 H   0  0  0  0  0  0  0  0  0  0  0  0
   -2.8108    1.0000    2.3080 C   0  0  0  0  0  0  0  0  0  0  0  0
   -2.3074    1.8043    1.7468 H   0  0  0  0  0  0  0  0  0  0  0  0
   -3.6343    0.0614    4.4005 C   0  0  0  0  0  0  0  0  0  0  0  0
   -3.8115    0.1581    5.4829 H   0  0  0  0  0  0  0  0  0  0  0  0
    1.9689    1.7308    4.4051 C   0  0  0  0  0  0  0  0  0  0  0  0
    1.8343    2.0654    5.4453 H   0  0  0  0  0  0  0  0  0  0  0  0
   -5.2164    2.9228   -2.3742 C   0  0  0  0  0  0  0  0  0  0  0  0
   -5.7981    3.6788   -2.9237 H   0  0  0  0  0  0  0  0  0  0  0  0
   -3.9702    2.5004   -2.8661 C   0  0  0  0  0  0  0  0  0  0  0  0
   -3.5707    2.9293   -3.7976 H   0  0  0  0  0  0  0  0  0  0  0  0
   -3.9957   -1.1187    3.7319 C   0  0  0  0  0  0  0  0  0  0  0  0
   -4.4535   -1.9510    4.2885 H   0  0  0  0  0  0  0  0  0  0  0  0
    6.7569   -1.5454   -0.1999 C   0  0  0  0  0  0  0  0  0  0  0  0
    7.7529   -2.0094   -0.2633 H   0  0  0  0  0  0  0  0  0  0  0  0
   -3.0404    1.1170    3.6860 C   0  0  0  0  0  0  0  0  0  0  0  0
   -2.7472    2.0412    4.2077 H   0  0  0  0  0  0  0  0  0  0  0  0
    2.8525    3.9888   -1.7740 C   0  0  0  0  0  0  0  0  0  0  0  0
    3.1502    5.0103   -1.4931 H   0  0  0  0  0  0  0  0  0  0  0  0
    2.8427    2.9776   -0.8040 C   0  0  0  0  0  0  0  0  0  0  0  0
    3.1117    3.2104    0.2363 H   0  0  0  0  0  0  0  0  0  0  0  0
  1  9  1  0  0  0  0
  2 25  1  0  0  0  0
  3 13  1  0  0  0  0
  3  1  1  0  0  0  0
  4  2  1  0  0  0  0
  5  4  1  0  0  0  0
  6 13  1  0  0  0  0
  7 37  2  0  0  0  0
  7 68  1  0  0  0  0
  8  7  1  0  0  0  0
  9 17  2  0  0  0  0
  9 23  1  0  0  0  0
 10  1  1  0  0  0  0
 10 31  2  0  0  0  0
 11 54  1  0  0  0  0
 11  2  1  0  0  0  0
 12  6  2  0  0  0  0
 13 14  1  0  0  0  0
 15 13  1  0  0  0  0
 16 74  1  0  0  0  0
 16  1  1  0  0  0  0
 17 41  1  0  0  0  0
 18 17  1  0  0  0  0
 19 66  1  0  0  0  0
 20 19  1  0  0  0  0
 21 31  1  0  0  0  0
 21 22  1  0  0  0  0
 23 35  2  0  0  0  0
 24 23  1  0  0  0  0
 25 56  1  0  0  0  0
 25 19  2  0  0  0  0
 26 12  1  0  0  0  0
 27 47  2  0  0  0  0
 27 33  1  0  0  0  0
 28 27  1  0  0  0  0
 29 30  1  0  0  0  0
 29 54  2  0  0  0  0
 31 32  1  0  0  0  0
 33 16  2  0  0  0  0
 34 33  1  0  0  0  0
 35 36  1  0  0  0  0
 35 60  1  0  0  0  0
 37 10  1  0  0  0  0
 38 37  1  0  0  0  0
 39 11  2  0  0  0  0
 40 39  1  0  0  0  0
 41 42  1  0  0  0  0
 41 60  2  0  0  0  0
 43 45  2  0  0  0  0
 44 43  1  0  0  0  0
 45 46  1  0  0  0  0
 45  6  1  0  0  0  0
 47 72  1  0  0  0  0
 48 47  1  0  0  0  0
 49 26  2  0  0  0  0
 49 43  1  0  0  0  0
 50 49  1  0  0  0  0
 51 26  1  0  0  0  0
 51  4  1  0  0  0  0
 52 51  1  0  0  0  0
 53 51  1  0  0  0  0
 54 55  1  0  0  0  0
 56 70  2  0  0  0  0
 57 56  1  0  0  0  0
 58 59  1  0  0  0  0
 60 61  1  0  0  0  0
 62 29  1  0  0  0  0
 63 62  1  0  0  0  0
 64 62  2  0  0  0  0
 64 39  1  0  0  0  0
 65 64  1  0  0  0  0
 66 67  1  0  0  0  0
 66 58  2  0  0  0  0
 68 21  2  0  0  0  0
 69 68  1  0  0  0  0
 70 71  1  0  0  0  0
 70 58  1  0  0  0  0
 72 73  1  0  0  0  0
 72 74  2  0  0  0  0
 74 75  1  0  0  0  0
M  END
