1,3,4
q = -1.0, confidence = 0.016

 63 64  0  0  0  0  0  0  0  0999 V2000
   -2.5091   -0.3588   -0.2591 P   0  0  0  0  0  0  0  0  0  0  0  0
   -3.3483    1.0107    0.3726 O   0  0  0  0  0  0  0  0  0  0  0  0
    1.3387    0.8413    0.4924 N   0  0  0  0  0  2  0  0  0  0  0  0
   -1.0795    1.6009    0.7485 C   0  0  0  0  0  2  0  0  0  0  0  0
   -2.4433    1.9313    0.8568 C   0  0  0  0  0  0  0  0  0  0  0  0
   -2.8534    3.1428    1.4358 C   0  0  0  0  0  0  0  0  0  0  0  0
   -3.9250    3.3785    1.5118 H   0  0  0  0  0  0  0  0  0  0  0  0
   -1.8742    4.0411    1.9149 C   0  0  0  0  0  0  0  0  0  0  0  0
   -2.1977    4.9905    2.3670 H   0  0  0  0  0  0  0  0  0  0  0  0
   -0.5066    3.7425    1.8251 C   0  0  0  0  0  0  0  0  0  0  0  0
    0.2467    4.4507    2.2029 H   0  0  0  0  0  0  0  0  0  0  0  0
   -0.1118    2.5172    1.2408 C   0  0  0  0  0  0  0  0  0  0  0  0
   -3.2091   -0.4572   -1.9689 C   0  0  0  0  0  0  0  0  0  0  0  0
   -2.8178   -1.4312   -2.3380 H   0  0  0  0  0  0  0  0  0  0  0  0
   -2.5950    0.6678   -2.8124 C   0  0  0  0  0  0  0  0  0  0  0  0
   -2.9511    0.5959   -3.8603 H   0  0  0  0  0  0  0  0  0  0  0  0
   -1.4891    0.6026   -2.8145 H   0  0  0  0  0  0  0  0  0  0  0  0
   -2.8843    1.6643   -2.4204 H   0  0  0  0  0  0  0  0  0  0  0  0
   -4.7411   -0.4462   -1.9764 C   0  0  0  0  0  0  0  0  0  0  0  0
   -5.1124   -0.4867   -3.0211 H   0  0  0  0  0  0  0  0  0  0  0  0
   -5.1284    0.4822   -1.5112 H   0  0  0  0  0  0  0  0  0  0  0  0
   -5.1748   -1.3101   -1.4347 H   0  0  0  0  0  0  0  0  0  0  0  0
   -3.2667   -1.7004    0.7770 C   0  0  0  0  0  0  0  0  0  0  0  0
   -4.3349   -1.3976    0.8546 H   0  0  0  0  0  0  0  0  0  0  0  0
   -2.6238   -1.6524    2.1699 C   0  0  0  0  0  0  0  0  0  0  0  0
   -3.1284   -2.3714    2.8474 H   0  0  0  0  0  0  0  0  0  0  0  0
   -2.6945   -0.6441    2.6235 H   0  0  0  0  0  0  0  0  0  0  0  0
   -1.5507   -1.9271    2.1092 H   0  0  0  0  0  0  0  0  0  0  0  0
   -3.1522   -3.0828    0.1264 C   0  0  0  0  0  0  0  0  0  0  0  0
   -3.5756   -3.8487    0.8084 H   0  0  0  0  0  0  0  0  0  0  0  0
   -2.0918   -3.3382   -0.0740 H   0  0  0  0  0  0  0  0  0  0  0  0
   -3.7047   -3.1459   -0.8319 H   0  0  0  0  0  0  0  0  0  0  0  0
    1.2355    2.0123    1.0704 C   0  0  0  0  0  0  0  0  0  0  0  0
    2.1362    2.5533    1.4213 H   0  0  0  0  0  0  0  0  0  0  0  0
    2.5903    0.2138    0.2627 C   0  0  0  0  0  0  0  0  0  0  0  0
    3.4506    0.6890   -0.7639 C   0  0  0  0  0  0  0  0  0  0  0  0
    4.6579   -0.0040   -0.9664 C   0  0  0  0  0  0  0  0  0  0  0  0
    5.3501    0.3351   -1.7498 H   0  0  0  0  0  0  0  0  0  0  0  0
    4.9914   -1.1279   -0.1977 C   0  0  0  0  0  0  0  0  0  0  0  0
    5.9434   -1.6502   -0.3774 H   0  0  0  0  0  0  0  0  0  0  0  0
    4.1104   -1.5968    0.7841 C   0  0  0  0  0  0  0  0  0  0  0  0
    4.3703   -2.4916    1.3685 H   0  0  0  0  0  0  0  0  0  0  0  0
    2.8916   -0.9413    1.0278 C   0  0  0  0  0  0  0  0  0  0  0  0
    3.0211    1.8450   -1.6646 C   0  0  0  0  0  0  0  0  0  0  0  0
    2.5897    2.6369   -1.0149 H   0  0  0  0  0  0  0  0  0  0  0  0
    1.9020    1.3847   -2.6183 C   0  0  0  0  0  0  0  0  0  0  0  0
    1.0377    0.9742   -2.0583 H   0  0  0  0  0  0  0  0  0  0  0  0
    2.2665    0.5779   -3.2862 H   0  0  0  0  0  0  0  0  0  0  0  0
    1.5455    2.2281   -3.2446 H   0  0  0  0  0  0  0  0  0  0  0  0
    4.1737    2.4901   -2.4416 C   0  0  0  0  0  0  0  0  0  0  0  0
    4.9976    2.8100   -1.7721 H   0  0  0  0  0  0  0  0  0  0  0  0
    3.8107    3.3829   -2.9889 H   0  0  0  0  0  0  0  0  0  0  0  0
    4.5978    1.7969   -3.1972 H   0  0  0  0  0  0  0  0  0  0  0  0
    1.9157   -1.4046    2.0996 C   0  0  0  0  0  0  0  0  0  0  0  0
    0.9114   -1.0539    1.7663 H   0  0  0  0  0  0  0  0  0  0  0  0
    1.8347   -2.9279    2.2354 C   0  0  0  0  0  0  0  0  0  0  0  0
    1.6064   -3.3947    1.2569 H   0  0  0  0  0  0  0  0  0  0  0  0
    1.0297   -3.2049    2.9469 H   0  0  0  0  0  0  0  0  0  0  0  0
    2.7771   -3.3653    2.6259 H   0  0  0  0  0  0  0  0  0  0  0  0
    2.2146   -0.7222    3.4457 C   0  0  0  0  0  0  0  0  0  0  0  0
    2.2012    0.3827    3.3546 H   0  0  0  0  0  0  0  0  0  0  0  0
    3.2169   -1.0148    3.8223 H   0  0  0  0  0  0  0  0  0  0  0  0
    1.4630   -1.0095    4.2099 H   0  0  0  0  0  0  0  0  0  0  0  0
  1  2  1  0  0  0  0
  1 23  1  0  0  0  0
  2  5  1  0  0  0  0
  3 33  1  0  0  0  0
  4  5  1  0  0  0  0
  4 12  1  0  0  0  0
  5  6  2  0  0  0  0
  6  7  1  0  0  0  0
  6  8  1  0  0  0  0
  8  9  1  0  0  0  0
 10  8  2  0  0  0  0
 10 11  1  0  0  0  0
 12 10  1  0  0  0  0
 13  1  1  0  0  0  0
 14 13  1  0  0  0  0
 15 18  1  0  0  0  0
 15 13  1  0  0  0  0
 16 15  1  0  0  0  0
 17 15  1  0  0  0  0
 19 13  1  0  0  0  0
 19 21  1  0  0  0  0
 19 22  1  0  0  0  0
 20 19  1  0  0  0  0
 23 24  1  0  0  0  0
 23 25  1  0  0  0  0
 25 27  1  0  0  0  0
 25 26  1  0  0  0  0
 28 25  1  0  0  0  0
 29 23  1  0  0  0  0
 29 30  1  0  0  0  0
 31 29  1  0  0  0  0
 32 29  1  0  0  0  0
 33 12  2  0  0  0  0
 33 34  1  0  0  0  0
 35  3  1  0  0  0  0
 35 43  1  0  0  0  0
 36 35  2  0  0  0  0
 37 36  1  0  0  0  0
 37 39  2  0  0  0  0
 38 37  1  0  0  0  0
 39 41  1  0  0  0  0
 40 39  1  0  0  0  0
 41 43  2  0  0  0  0
 41 42  1  0  0  0  0
 43 54  1  0  0  0  0
 44 45  1  0  0  0  0
 44 36  1  0  0  0  0
 46 47  1  0  0  0  0
 46 44  1  0  0  0  0
 48 46  1  0  0  0  0
 49 46  1  0  0  0  0
 50 51  1  0  0  0  0
 50 44  1  0  0  0  0
 52 50  1  0  0  0  0
 53 50  1  0  0  0  0
 54 56  1  0  0  0  0
 54 60  1  0  0  0  0
 55 54  1  0  0  0  0
 56 59  1  0  0  0  0
 56 58  1  0  0  0  0
 57 56  1  0  0  0  0
 60 62  1  0  0  0  0
 60 63  1  0  0  0  0
 61 60  1  0  0  0  0
M  END
