1,2,3
q = -1.0, confidence = 0.022

 49 50  0  0  1  0  0  0  0  0999 V2000
    2.1093    0.0033    0.1662 P   0  0  0  0  0  0  0  0  0  0  0  0
   -0.5423    0.0884    1.5618 N   0  0  0  0  0  2  0  0  0  0  0  0
   -2.3352    0.0340   -0.4020 C   0  0  0  0  0  3  0  0  0  0  0  0
   -2.8194   -0.1562    0.9258 C   0  0  0  0  0  0  0  0  0  0  0  0
   -4.2060   -0.3042    1.1572 C   0  0  0  0  0  0  0  0  0  0  0  0
   -4.5819   -0.4598    2.1799 H   0  0  0  0  0  0  0  0  0  0  0  0
   -5.1077   -0.2461    0.0920 C   0  0  0  0  0  0  0  0  0  0  0  0
   -6.1861   -0.3605    0.2758 H   0  0  0  0  0  0  0  0  0  0  0  0
   -4.6291   -0.0336   -1.2141 C   0  0  0  0  0  0  0  0  0  0  0  0
   -5.3371    0.0228   -2.0556 H   0  0  0  0  0  0  0  0  0  0  0  0
   -3.2538    0.1016   -1.4598 C   0  0  0  0  0  0  0  0  0  0  0  0
   -2.9034    0.2531   -2.4909 H   0  0  0  0  0  0  0  0  0  0  0  0
   -1.8243   -0.1151    1.9944 C   0  0  2  0  0  3  0  0  0  0  0  0
   -2.0792   -0.1881    3.3792 C   0  0  0  0  0  0  0  0  0  0  0  0
   -3.1000   -0.3782    3.7351 H   0  0  0  0  0  0  0  0  0  0  0  0
   -1.0321    0.0066    4.2815 C   0  0  0  0  0  0  0  0  0  0  0  0
   -1.2190   -0.0509    5.3642 H   0  0  0  0  0  0  0  0  0  0  0  0
    0.2532    0.3113    3.8045 C   0  0  0  0  0  0  0  0  0  0  0  0
    1.0827    0.5215    4.4935 H   0  0  0  0  0  0  0  0  0  0  0  0
    0.4708    0.3642    2.4201 C   0  0  0  0  0  0  0  0  0  0  0  0
    1.7758    0.8128    1.8199 C   0  0  0  0  0  0  0  0  0  0  0  0
    2.6133    0.7075    2.5364 H   0  0  0  0  0  0  0  0  0  0  0  0
    1.6598    1.8947    1.5796 H   0  0  0  0  0  0  0  0  0  0  0  0
    2.9063   -1.6704    0.6916 C   0  0  0  0  0  0  0  0  0  0  0  0
    3.0276   -2.5927   -0.5363 C   0  0  0  0  0  0  0  0  0  0  0  0
    3.7783   -2.2359   -1.2634 H   0  0  0  0  0  0  0  0  0  0  0  0
    2.0552   -2.7109   -1.0525 H   0  0  0  0  0  0  0  0  0  0  0  0
    3.3481   -3.5997   -0.1948 H   0  0  0  0  0  0  0  0  0  0  0  0
    4.2837   -1.5030    1.3557 C   0  0  0  0  0  0  0  0  0  0  0  0
    4.6121   -2.4970    1.7274 H   0  0  0  0  0  0  0  0  0  0  0  0
    4.2568   -0.8241    2.2320 H   0  0  0  0  0  0  0  0  0  0  0  0
    5.0621   -1.1453    0.6563 H   0  0  0  0  0  0  0  0  0  0  0  0
    1.9635   -2.3188    1.7257 C   0  0  0  0  0  0  0  0  0  0  0  0
    0.9221   -2.3990    1.3596 H   0  0  0  0  0  0  0  0  0  0  0  0
    1.9667   -1.7783    2.6920 H   0  0  0  0  0  0  0  0  0  0  0  0
    2.3229   -3.3503    1.9250 H   0  0  0  0  0  0  0  0  0  0  0  0
    3.4562    1.1164   -0.6446 C   0  0  0  0  0  0  0  0  0  0  0  0
    2.7519    2.2772   -1.3642 C   0  0  0  0  0  0  0  0  0  0  0  0
    3.5250    2.9123   -1.8468 H   0  0  0  0  0  0  0  0  0  0  0  0
    2.1628    2.9143   -0.6788 H   0  0  0  0  0  0  0  0  0  0  0  0
    2.0627    1.9225   -2.1535 H   0  0  0  0  0  0  0  0  0  0  0  0
    4.4319    1.7114    0.3874 C   0  0  0  0  0  0  0  0  0  0  0  0
    5.1797    2.3320   -0.1508 H   0  0  0  0  0  0  0  0  0  0  0  0
    4.9868    0.9484    0.9608 H   0  0  0  0  0  0  0  0  0  0  0  0
    3.9158    2.3813    1.1026 H   0  0  0  0  0  0  0  0  0  0  0  0
    4.2182    0.3042   -1.7073 C   0  0  0  0  0  0  0  0  0  0  0  0
    3.5285   -0.1812   -2.4269 H   0  0  0  0  0  0  0  0  0  0  0  0
    4.8753   -0.4719   -1.2732 H   0  0  0  0  0  0  0  0  0  0  0  0
    4.8636    0.9987   -2.2849 H   0  0  0  0  0  0  0  0  0  0  0  0
  1 24  1  0  0  0  0
  1 21  1  0  0  0  0
  2 13  1  0  0  0  0
  2 20  1  0  0  0  0
  3  4  1  0  0  0  0
  4  5  2  0  0  0  0
  5  6  1  0  0  0  0
  7  8  1  0  0  0  0
  7  5  1  0  0  0  0
  9  7  2  0  0  0  0
 10  9  1  0  0  0  0
 11  9  1  0  0  0  0
 11  3  2  0  0  0  0
 12 11  1  0  0  0  0
 13  4  1  1  0  0  0
 13 14  1  0  0  0  0
 14 15  1  0  0  0  0
 14 16  2  0  0  0  0
 16 17  1  0  0  0  0
 18 16  1  0  0  0  0
 18 19  1  0  0  0  0
 20 18  2  0  0  0  0
 21 20  1  0  0  0  0
 21 22  1  0  0  0  0
 23 21  1  0  0  0  0
 24 29  1  0  0  0  0
 24 33  1  0  0  0  0
 25 28  1  0  0  0  0
 25 24  1  0  0  0  0
 26 25  1  0  0  0  0
 27 25  1  0  0  0  0
 29 30  1  0  0  0  0
 29 31  1  0  0  0  0
 32 29  1  0  0  0  0
 33 36  1  0  0  0  0
 33 35  1  0  0  0  0
 34 33  1  0  0  0  0
 37  1  1  0  0  0  0
 37 42  1  0  0  0  0
 38 40  1  0  0  0  0
 38 37  1  0  0  0  0
 39 38  1  0  0  0  0
 41 38  1  0  0  0  0
 42 44  1  0  0  0  0
 42 45  1  0  0  0  0
 43 42  1  0  0  0  0
 46 48  1  0  0  0  0
 46 37  1  0  0  0  0
 47 46  1  0  0  0  0
 49 46  1  0  0  0  0
M  END
