1,2,3
q = -1.0

 49 50  0  0  0  0  0  0  0  0999 V2000
   -1.7396    0.1215   -0.0584 P   0  0  0  0  0  0  0  0  0  0  0  0
    0.9532    1.2441   -0.3071 N   0  0  0  0  0  2  0  0  0  0  0  0
    2.4341   -0.9538   -0.0235 C   0  0  0  0  0  2  0  0  0  0  0  0
    3.2305   -2.1155    0.0896 C   0  0  0  0  0  0  0  0  0  0  0  0
    2.7468   -3.1037    0.1198 H   0  0  0  0  0  0  0  0  0  0  0  0
    4.6316   -2.0490    0.1660 C   0  0  0  0  0  0  0  0  0  0  0  0
    5.2184   -2.9781    0.2492 H   0  0  0  0  0  0  0  0  0  0  0  0
    5.2923   -0.8075    0.1385 C   0  0  0  0  0  0  0  0  0  0  0  0
    6.3897   -0.7571    0.2005 H   0  0  0  0  0  0  0  0  0  0  0  0
    4.5389    0.3659    0.0306 C   0  0  0  0  0  0  0  0  0  0  0  0
    5.0569    1.3378    0.0081 H   0  0  0  0  0  0  0  0  0  0  0  0
    3.1301    0.3025   -0.0533 C   0  0  0  0  0  0  0  0  0  0  0  0
    2.2955    1.5005   -0.1830 C   0  0  0  0  0  0  0  0  0  0  0  0
    2.7489    2.8354   -0.1866 C   0  0  0  0  0  0  0  0  0  0  0  0
    3.8206    3.0465   -0.0756 H   0  0  0  0  0  0  0  0  0  0  0  0
    1.8290    3.8790   -0.3188 C   0  0  0  0  0  0  0  0  0  0  0  0
    2.1746    4.9238   -0.3122 H   0  0  0  0  0  0  0  0  0  0  0  0
    0.4639    3.5889   -0.4654 C   0  0  0  0  0  0  0  0  0  0  0  0
   -0.2795    4.3890   -0.5875 H   0  0  0  0  0  0  0  0  0  0  0  0
    0.0525    2.2463   -0.4683 C   0  0  0  0  0  0  0  0  0  0  0  0
   -1.3831    1.8488   -0.7057 C   0  0  0  0  0  0  0  0  0  0  0  0
   -1.5438    1.7911   -1.8038 H   0  0  0  0  0  0  0  0  0  0  0  0
   -2.0869    2.6172   -0.3262 H   0  0  0  0  0  0  0  0  0  0  0  0
   -3.0753   -0.5105   -1.2671 C   0  0  0  0  0  0  0  0  0  0  0  0
   -2.3034   -0.8552   -2.5573 C   0  0  0  0  0  0  0  0  0  0  0  0
   -1.4891   -1.5807   -2.3616 H   0  0  0  0  0  0  0  0  0  0  0  0
   -1.8448    0.0396   -3.0257 H   0  0  0  0  0  0  0  0  0  0  0  0
   -3.0056   -1.2933   -3.2983 H   0  0  0  0  0  0  0  0  0  0  0  0
   -4.1808    0.5076   -1.5901 C   0  0  0  0  0  0  0  0  0  0  0  0
   -4.8639    0.0738   -2.3518 H   0  0  0  0  0  0  0  0  0  0  0  0
   -3.7759    1.4462   -2.0185 H   0  0  0  0  0  0  0  0  0  0  0  0
   -4.7936    0.7683   -0.7081 H   0  0  0  0  0  0  0  0  0  0  0  0
   -3.6845   -1.8019   -0.6951 C   0  0  0  0  0  0  0  0  0  0  0  0
   -4.3380   -1.6051    0.1772 H   0  0  0  0  0  0  0  0  0  0  0  0
   -2.9022   -2.5263   -0.3917 H   0  0  0  0  0  0  0  0  0  0  0  0
   -4.3099   -2.2886   -1.4732 H   0  0  0  0  0  0  0  0  0  0  0  0
   -2.4239    0.4290    1.6994 C   0  0  0  0  0  0  0  0  0  0  0  0
   -1.3642    1.3078    2.3946 C   0  0  0  0  0  0  0  0  0  0  0  0
   -1.3146    2.3320    1.9739 H   0  0  0  0  0  0  0  0  0  0  0  0
   -0.3558    0.8501    2.3183 H   0  0  0  0  0  0  0  0  0  0  0  0
   -1.6216    1.4029    3.4707 H   0  0  0  0  0  0  0  0  0  0  0  0
   -3.7905    1.1240    1.7452 C   0  0  0  0  0  0  0  0  0  0  0  0
   -4.6027    0.4756    1.3628 H   0  0  0  0  0  0  0  0  0  0  0  0
   -3.8032    2.0732    1.1715 H   0  0  0  0  0  0  0  0  0  0  0  0
   -4.0409    1.3748    2.7985 H   0  0  0  0  0  0  0  0  0  0  0  0
   -2.4782   -0.9246    2.4325 C   0  0  0  0  0  0  0  0  0  0  0  0
   -2.7506   -0.7547    3.4960 H   0  0  0  0  0  0  0  0  0  0  0  0
   -1.4912   -1.4276    2.4024 H   0  0  0  0  0  0  0  0  0  0  0  0
   -3.2284   -1.6134    2.0011 H   0  0  0  0  0  0  0  0  0  0  0  0
  1 37  1  0  0  0  0
  2 13  1  0  0  0  0
  3  4  1  0  0  0  0
  4  5  1  0  0  0  0
  4  6  2  0  0  0  0
  6  7  1  0  0  0  0
  8  6  1  0  0  0  0
  8  9  1  0  0  0  0
 10  8  2  0  0  0  0
 11 10  1  0  0  0  0
 12  3  1  0  0  0  0
 12 10  1  0  0  0  0
 13 12  2  0  0  0  0
 14 13  1  0  0  0  0
 14 15  1  0  0  0  0
 16 17  1  0  0  0  0
 16 14  2  0  0  0  0
 18 16  1  0  0  0  0
 19 18  1  0  0  0  0
 20 18  2  0  0  0  0
 20  2  1  0  0  0  0
 21 20  1  0  0  0  0
 21 23  1  0  0  0  0
 21  1  1  0  0  0  0
 22 21  1  0  0  0  0
 24 33  1  0  0  0  0
 24  1  1  0  0  0  0
 25 26  1  0  0  0  0
 25 24  1  0  0  0  0
 27 25  1  0  0  0  0
 28 25  1  0  0  0  0
 29 24  1  0  0  0  0
 29 32  1  0  0  0  0
 30 29  1  0  0  0  0
 31 29  1  0  0  0  0
 33 35  1  0  0  0  0
 33 34  1  0  0  0  0
 36 33  1  0  0  0  0
 37 42  1  0  0  0  0
 37 38  1  0  0  0  0
 37 46  1  0  0  0  0
 38 41  1  0  0  0  0
 39 38  1  0  0  0  0
 40 38  1  0  0  0  0
 42 45  1  0  0  0  0
 43 42  1  0  0  0  0
 44 42  1  0  0  0  0
 46 47  1  0  0  0  0
 48 46  1  0  0  0  0
 49 46  1  0  0  0  0
M  END
