1,2,11
q = -1.0

 65 67  0  0  1  0  0  0  0  0999 V2000
   -1.2846   -0.5931   -0.2534 P   0  0  0  0  0  0  0  0  0  0  0  0
    1.4337    0.4809   -0.3774 N   0  0  0  0  0  2  0  0  0  0  0  0
    1.4407   -0.8093   -0.8074 C   0  0  2  0  0  3  0  0  0  0  0  0
    2.6483   -1.5112   -0.9195 C   0  0  0  0  0  0  0  0  0  0  0  0
    2.6144   -2.5534   -1.2609 H   0  0  0  0  0  0  0  0  0  0  0  0
    3.8749   -0.8879   -0.6195 C   0  0  0  0  0  0  0  0  0  0  0  0
    3.8174    0.4566   -0.1947 C   0  0  0  0  0  0  0  0  0  0  0  0
    4.7378    1.0011    0.0545 H   0  0  0  0  0  0  0  0  0  0  0  0
    2.5975    1.1234   -0.0646 C   0  0  0  0  0  0  0  0  0  0  0  0
    2.4116    2.5270    0.4826 C   0  0  0  0  0  0  0  0  0  0  0  0
    1.1140    3.0948   -0.1358 C   0  0  0  0  0  3  0  0  0  0  0  0
    1.2520    3.3661   -1.2045 H   0  0  0  0  0  0  0  0  0  0  0  0
    0.7523    3.9812    0.4214 H   0  0  0  0  0  0  0  0  0  0  0  0
    3.6045    3.4469    0.1620 C   0  0  0  0  0  0  0  0  0  0  0  0
    3.3820    4.4764    0.5056 H   0  0  0  0  0  0  0  0  0  0  0  0
    3.8069    3.4852   -0.9268 H   0  0  0  0  0  0  0  0  0  0  0  0
    4.5310    3.1248    0.6805 H   0  0  0  0  0  0  0  0  0  0  0  0
    2.2534    2.3993    2.0194 C   0  0  0  0  0  0  0  0  0  0  0  0
    2.0783    3.4008    2.4614 H   0  0  0  0  0  0  0  0  0  0  0  0
    3.1649    1.9710    2.4822 H   0  0  0  0  0  0  0  0  0  0  0  0
    1.3905    1.7526    2.2785 H   0  0  0  0  0  0  0  0  0  0  0  0
    5.2240   -1.6052   -0.7365 C   0  0  0  0  0  0  0  0  0  0  0  0
    5.0669   -3.0608   -1.2069 C   0  0  0  0  0  0  0  0  0  0  0  0
    4.6023   -3.1252   -2.2114 H   0  0  0  0  0  0  0  0  0  0  0  0
    4.4615   -3.6629   -0.4996 H   0  0  0  0  0  0  0  0  0  0  0  0
    6.0635   -3.5388   -1.2750 H   0  0  0  0  0  0  0  0  0  0  0  0
    6.1025   -0.8421   -1.7559 C   0  0  0  0  0  0  0  0  0  0  0  0
    5.6290   -0.8230   -2.7579 H   0  0  0  0  0  0  0  0  0  0  0  0
    7.0870   -1.3422   -1.8515 H   0  0  0  0  0  0  0  0  0  0  0  0
    6.2884    0.2048   -1.4448 H   0  0  0  0  0  0  0  0  0  0  0  0
    5.9088   -1.6002    0.6508 C   0  0  0  0  0  0  0  0  0  0  0  0
    5.2920   -2.1299    1.4044 H   0  0  0  0  0  0  0  0  0  0  0  0
    6.0939   -0.5725    1.0209 H   0  0  0  0  0  0  0  0  0  0  0  0
    6.8889   -2.1139    0.5878 H   0  0  0  0  0  0  0  0  0  0  0  0
    0.1138   -1.4161   -1.1824 C   0  0  0  0  0  0  0  0  0  0  0  0
    0.1245   -2.5198   -1.0890 H   0  0  0  0  0  0  0  0  0  0  0  0
   -0.1090   -1.1862   -2.2474 H   0  0  0  0  0  0  0  0  0  0  0  0
   -2.7916   -0.9998   -1.2116 C   0  0  0  0  0  0  0  0  0  0  0  0
   -3.3000    0.0634   -1.9900 C   0  0  0  0  0  0  0  0  0  0  0  0
   -2.7857    1.0374   -1.9616 H   0  0  0  0  0  0  0  0  0  0  0  0
   -4.4378   -0.1085   -2.7883 C   0  0  0  0  0  0  0  0  0  0  0  0
   -4.8188    0.7249   -3.3968 H   0  0  0  0  0  0  0  0  0  0  0  0
   -5.0816   -1.3541   -2.8012 C   0  0  0  0  0  0  0  0  0  0  0  0
   -5.9789   -1.5082   -3.4190 H   0  0  0  0  0  0  0  0  0  0  0  0
   -4.5786   -2.4121   -2.0306 C   0  0  0  0  0  0  0  0  0  0  0  0
   -5.0867   -3.3887   -2.0556 H   0  0  0  0  0  0  0  0  0  0  0  0
   -3.4297   -2.2716   -1.2247 C   0  0  0  0  0  0  0  0  0  0  0  0
   -2.9477   -3.4498   -0.4173 C   0  0  0  0  0  0  0  0  0  0  0  0
   -1.8506   -3.5853   -0.4772 H   0  0  0  0  0  0  0  0  0  0  0  0
   -3.4267   -4.3844   -0.7647 H   0  0  0  0  0  0  0  0  0  0  0  0
   -3.1848   -3.3297    0.6602 H   0  0  0  0  0  0  0  0  0  0  0  0
   -1.3484   -1.3979    1.3882 C   0  0  0  0  0  0  0  0  0  0  0  0
   -0.3132   -2.2581    1.8108 C   0  0  0  0  0  0  0  0  0  0  0  0
    0.5212   -2.5008    1.1370 H   0  0  0  0  0  0  0  0  0  0  0  0
   -0.3284   -2.8187    3.0947 C   0  0  0  0  0  0  0  0  0  0  0  0
    0.4847   -3.4893    3.4098 H   0  0  0  0  0  0  0  0  0  0  0  0
   -1.3838   -2.5207    3.9683 C   0  0  0  0  0  0  0  0  0  0  0  0
   -1.4086   -2.9580    4.9775 H   0  0  0  0  0  0  0  0  0  0  0  0
   -2.4065   -1.6541    3.5571 C   0  0  0  0  0  0  0  0  0  0  0  0
   -3.2277   -1.4139    4.2503 H   0  0  0  0  0  0  0  0  0  0  0  0
   -2.4114   -1.0700    2.2756 C   0  0  0  0  0  0  0  0  0  0  0  0
   -3.5264   -0.1403    1.8707 C   0  0  0  0  0  0  0  0  0  0  0  0
   -3.1346    0.7593    1.3519 H   0  0  0  0  0  0  0  0  0  0  0  0
   -4.1061    0.1921    2.7526 H   0  0  0  0  0  0  0  0  0  0  0  0
   -4.2320   -0.6293    1.1665 H   0  0  0  0  0  0  0  0  0  0  0  0
  1 52  1  0  0  0  0
  2  9  1  0  0  0  0
  3 35  1  6  0  0  0
  3  2  1  0  0  0  0
  4  3  1  0  0  0  0
  4  6  2  0  0  0  0
  5  4  1  0  0  0  0
  6  7  1  0  0  0  0
  7  9  2  0  0  0  0
  7  8  1  0  0  0  0
  9 10  1  0  0  0  0
 10 18  1  0  0  0  0
 11 13  1  0  0  0  0
 11 10  1  0  0  0  0
 12 11  1  0  0  0  0
 14 10  1  0  0  0  0
 14 15  1  0  0  0  0
 14 17  1  0  0  0  0
 16 14  1  0  0  0  0
 18 21  1  0  0  0  0
 18 19  1  0  0  0  0
 18 20  1  0  0  0  0
 22  6  1  0  0  0  0
 22 31  1  0  0  0  0
 23 22  1  0  0  0  0
 23 25  1  0  0  0  0
 24 23  1  0  0  0  0
 26 23  1  0  0  0  0
 27 30  1  0  0  0  0
 27 22  1  0  0  0  0
 28 27  1  0  0  0  0
 29 27  1  0  0  0  0
 31 33  1  0  0  0  0
 31 32  1  0  0  0  0
 34 31  1  0  0  0  0
 35 36  1  0  0  0  0
 35  1  1  0  0  0  0
 37 35  1  0  0  0  0
 38  1  1  0  0  0  0
 39 40  1  0  0  0  0
 39 38  2  0  0  0  0
 41 39  1  0  0  0  0
 42 41  1  0  0  0  0
 43 41  2  0  0  0  0
 43 45  1  0  0  0  0
 44 43  1  0  0  0  0
 45 47  2  0  0  0  0
 46 45  1  0  0  0  0
 47 38  1  0  0  0  0
 47 48  1  0  0  0  0
 48 51  1  0  0  0  0
 49 48  1  0  0  0  0
 50 48  1  0  0  0  0
 52 53  2  0  0  0  0
 52 61  1  0  0  0  0
 53 55  1  0  0  0  0
 54 53  1  0  0  0  0
 55 56  1  0  0  0  0
 55 57  2  0  0  0  0
 57 58  1  0  0  0  0
 59 57  1  0  0  0  0
 59 60  1  0  0  0  0
 61 59  2  0  0  0  0
 62 61  1  0  0  0  0
 62 64  1  0  0  0  0
 63 62  1  0  0  0  0
 65 62  1  0  0  0  0
M  END
