1,37,41
q = -1.0

 51 54  0  0  1  0  0  0  0  0999 V2000
   -1.4414   -0.2831    0.3430 P   0  0  0  0  0  0  0  0  0  0  0  0
   -2.5820   -1.1753   -0.7844 C   0  0  0  0  0  0  0  0  0  0  0  0
   -3.3583   -2.2577   -0.3263 C   0  0  0  0  0  0  0  0  0  0  0  0
   -3.2796   -2.5967    0.7181 H   0  0  0  0  0  0  0  0  0  0  0  0
   -4.3205   -2.5052   -2.5454 C   0  0  0  0  0  0  0  0  0  0  0  0
   -5.0007   -3.0277   -3.2352 H   0  0  0  0  0  0  0  0  0  0  0  0
   -3.5415   -1.4307   -3.0038 C   0  0  0  0  0  0  0  0  0  0  0  0
   -3.6072   -1.1097   -4.0546 H   0  0  0  0  0  0  0  0  0  0  0  0
   -2.6657   -0.7660   -2.1319 C   0  0  0  0  0  0  0  0  0  0  0  0
   -2.0377    0.0738   -2.4784 H   0  0  0  0  0  0  0  0  0  0  0  0
   -2.4499    1.0336    1.1061 C   0  0  0  0  0  0  0  0  0  0  0  0
   -3.4439    1.7024    0.3648 C   0  0  0  0  0  0  0  0  0  0  0  0
   -3.6592    1.3978   -0.6692 H   0  0  0  0  0  0  0  0  0  0  0  0
   -4.1521    2.7617    0.9492 C   0  0  0  0  0  0  0  0  0  0  0  0
   -4.9279    3.2827    0.3682 H   0  0  0  0  0  0  0  0  0  0  0  0
   -3.8727    3.1591    2.2667 C   0  0  0  0  0  0  0  0  0  0  0  0
   -4.4321    3.9909    2.7211 H   0  0  0  0  0  0  0  0  0  0  0  0
   -2.1583    1.4418    2.4236 C   0  0  0  0  0  0  0  0  0  0  0  0
   -1.3647    0.9275    2.9867 H   0  0  0  0  0  0  0  0  0  0  0  0
    0.2436   -1.8690    1.6171 C   0  0  0  0  0  0  0  0  0  0  0  0
    2.7974   -2.9880    1.3144 C   0  0  0  0  0  0  0  0  0  0  0  0
    3.7915   -3.4422    1.1742 H   0  0  0  0  0  0  0  0  0  0  0  0
    0.6298   -2.9593    2.4193 C   0  0  0  0  0  0  0  0  0  0  0  0
   -0.0789   -3.3944    3.1416 H   0  0  0  0  0  0  0  0  0  0  0  0
    3.2955   -1.4218   -0.6192 C   0  0  0  0  0  0  0  0  0  0  0  0
    4.2621   -1.9570   -0.6121 H   0  0  0  0  0  0  0  0  0  0  0  0
    2.8051   -1.6254   -1.5962 H   0  0  0  0  0  0  0  0  0  0  0  0
    2.3285    3.3878   -0.4747 C   0  0  0  0  0  0  0  0  0  0  0  0
    2.9609    4.2574   -0.7353 H   0  0  0  0  0  0  0  0  0  0  0  0
    1.9190    3.5565    0.5439 H   0  0  0  0  0  0  0  0  0  0  0  0
    1.4624    3.3240   -1.1620 H   0  0  0  0  0  0  0  0  0  0  0  0
    3.1343    2.1319   -0.5136 C   0  0  2  0  0  3  0  0  0  0  0  0
    6.0884   -0.1289   -0.3103 C   0  0  0  0  0  0  0  0  0  0  0  0
    6.0999   -0.8257    0.5536 H   0  0  0  0  0  0  0  0  0  0  0  0
    6.9202    0.5866   -0.1759 H   0  0  0  0  0  0  0  0  0  0  0  0
    6.3014   -0.7234   -1.2235 H   0  0  0  0  0  0  0  0  0  0  0  0
    2.5771    0.9043   -0.6337 N   0  0  0  0  0  2  0  0  0  0  0  0
    3.5876    0.0034   -0.5632 N   0  0  0  0  0  0  0  0  0  0  0  0
   -1.0499   -1.3170    1.6592 N   0  0  0  0  0  0  0  0  0  0  0  0
   -1.7525   -1.7236    2.2794 H   0  0  0  0  0  0  0  0  0  0  0  0
    1.1482   -1.2868    0.6850 C   0  0  0  0  0  3  0  0  0  0  0  0
    1.9173   -3.5013    2.2768 C   0  0  0  0  0  0  0  0  0  0  0  0
    2.2234   -4.3480    2.9095 H   0  0  0  0  0  0  0  0  0  0  0  0
    4.7983    0.6166   -0.4094 C   0  0  0  0  0  0  0  0  0  0  0  0
    2.4029   -1.8974    0.5093 C   0  0  0  0  0  0  0  0  0  0  0  0
   -2.8753    2.4985    3.0024 C   0  0  0  0  0  0  0  0  0  0  0  0
   -2.6491    2.8118    4.0330 H   0  0  0  0  0  0  0  0  0  0  0  0
    4.5359    1.9884   -0.3812 C   0  0  0  0  0  0  0  0  0  0  0  0
    5.2713    2.7922   -0.2736 H   0  0  0  0  0  0  0  0  0  0  0  0
   -4.2249   -2.9207   -1.2072 C   0  0  0  0  0  0  0  0  0  0  0  0
   -4.8264   -3.7692   -0.8469 H   0  0  0  0  0  0  0  0  0  0  0  0
  1 11  1  0  0  0  0
  1 39  1  0  0  0  0
  2  3  1  0  0  0  0
  2  1  1  0  0  0  0
  3  4  1  0  0  0  0
  5 50  1  0  0  0  0
  6  5  1  0  0  0  0
  7  5  2  0  0  0  0
  7  9  1  0  0  0  0
  8  7  1  0  0  0  0
  9  2  2  0  0  0  0
 10  9  1  0  0  0  0
 11 18  1  0  0  0  0
 12 14  1  0  0  0  0
 12 11  2  0  0  0  0
 13 12  1  0  0  0  0
 14 16  2  0  0  0  0
 15 14  1  0  0  0  0
 16 17  1  0  0  0  0
 16 46  1  0  0  0  0
 18 19  1  0  0  0  0
 18 46  2  0  0  0  0
 20 39  1  0  0  0  0
 20 23  1  0  0  0  0
 21 42  1  0  0  0  0
 22 21  1  0  0  0  0
 23 24  1  0  0  0  0
 25 26  1  0  0  0  0
 25 38  1  0  0  0  0
 25 45  1  0  0  0  0
 27 25  1  0  0  0  0
 28 30  1  0  0  0  0
 29 28  1  0  0  0  0
 31 28  1  0  0  0  0
 32 28  1  1  0  0  0
 32 48  1  0  0  0  0
 33 35  1  0  0  0  0
 33 34  1  0  0  0  0
 36 33  1  0  0  0  0
 37 38  1  0  0  0  0
 37 32  1  0  0  0  0
 38 44  1  0  0  0  0
 39 40  1  0  0  0  0
 41 20  2  0  0  0  0
 42 23  2  0  0  0  0
 42 43  1  0  0  0  0
 44 48  2  0  0  0  0
 44 33  1  0  0  0  0
 45 41  1  0  0  0  0
 45 21  2  0  0  0  0
 46 47  1  0  0  0  0
 48 49  1  0  0  0  0
 50 51  1  0  0  0  0
 50  3  2  0  0  0  0
M  END
