1,2,38
q = -1.0

 77 80  0  0  0  0  0  0  0  0999 V2000
   -2.1655   -0.1993   -0.0934 P   0  0  0  0  0  0  0  0  0  0  0  0
    1.9852   -1.3618   -0.3459 N   0  0  0  0  0  2  0  0  0  0  0  0
   -2.7711   -1.7869   -0.4590 O   0  0  0  0  0  0  0  0  0  0  0  0
   -2.7631    0.7444   -1.5767 C   0  0  0  0  0  0  0  0  0  0  0  0
   -3.8739    0.7750   -1.4976 H   0  0  0  0  0  0  0  0  0  0  0  0
   -2.2095    2.1829   -1.5921 C   0  0  0  0  0  0  0  0  0  0  0  0
   -1.0985    2.1292   -1.5707 H   0  0  0  0  0  0  0  0  0  0  0  0
   -2.5018    2.7305   -0.6758 H   0  0  0  0  0  0  0  0  0  0  0  0
   -2.6551    2.9364   -2.8519 C   0  0  0  0  0  0  0  0  0  0  0  0
   -3.7609    3.0664   -2.8334 H   0  0  0  0  0  0  0  0  0  0  0  0
   -2.2207    3.9576   -2.8439 H   0  0  0  0  0  0  0  0  0  0  0  0
   -2.2542    2.1871   -4.1275 C   0  0  0  0  0  0  0  0  0  0  0  0
   -2.6025    2.7333   -5.0288 H   0  0  0  0  0  0  0  0  0  0  0  0
   -1.1427    2.1493   -4.1922 H   0  0  0  0  0  0  0  0  0  0  0  0
   -2.8067    0.7573   -4.1185 C   0  0  0  0  0  0  0  0  0  0  0  0
   -2.4807    0.2033   -5.0237 H   0  0  0  0  0  0  0  0  0  0  0  0
   -3.9188    0.7945   -4.1592 H   0  0  0  0  0  0  0  0  0  0  0  0
   -2.3749   -0.0124   -2.8634 C   0  0  0  0  0  0  0  0  0  0  0  0
   -2.8199   -1.0269   -2.8578 H   0  0  0  0  0  0  0  0  0  0  0  0
   -1.2697   -0.1514   -2.8721 H   0  0  0  0  0  0  0  0  0  0  0  0
   -3.2373    0.1911    1.3548 C   0  0  0  0  0  0  0  0  0  0  0  0
   -3.1606    1.2949    1.4391 H   0  0  0  0  0  0  0  0  0  0  0  0
   -4.7053   -0.2306    1.1672 C   0  0  0  0  0  0  0  0  0  0  0  0
   -4.7489   -1.3240    0.9792 H   0  0  0  0  0  0  0  0  0  0  0  0
   -5.1451    0.2628    0.2750 H   0  0  0  0  0  0  0  0  0  0  0  0
   -5.5265    0.1166    2.4188 C   0  0  0  0  0  0  0  0  0  0  0  0
   -5.5606    1.2227    2.5375 H   0  0  0  0  0  0  0  0  0  0  0  0
   -6.5763   -0.2173    2.2806 H   0  0  0  0  0  0  0  0  0  0  0  0
   -4.9224   -0.5084    3.6825 C   0  0  0  0  0  0  0  0  0  0  0  0
   -4.9816   -1.6175    3.6037 H   0  0  0  0  0  0  0  0  0  0  0  0
   -5.5184   -0.2257    4.5754 H   0  0  0  0  0  0  0  0  0  0  0  0
   -3.4570   -0.0929    3.8616 C   0  0  0  0  0  0  0  0  0  0  0  0
   -3.0184   -0.5806    4.7570 H   0  0  0  0  0  0  0  0  0  0  0  0
   -3.4034    1.0037    4.0429 H   0  0  0  0  0  0  0  0  0  0  0  0
   -2.6185   -0.4289    2.6219 C   0  0  0  0  0  0  0  0  0  0  0  0
   -1.5791   -0.0591    2.7365 H   0  0  0  0  0  0  0  0  0  0  0  0
   -2.5609   -1.5334    2.4955 H   0  0  0  0  0  0  0  0  0  0  0  0
   -0.4471   -2.2965   -0.5795 C   0  0  0  0  0  2  0  0  0  0  0  0
   -1.7847   -2.7042   -0.7094 C   0  0  0  0  0  0  0  0  0  0  0  0
   -2.0829   -4.0237   -1.0965 C   0  0  0  0  0  0  0  0  0  0  0  0
   -3.1323   -4.3362   -1.2005 H   0  0  0  0  0  0  0  0  0  0  0  0
   -1.0291   -4.9275   -1.3491 C   0  0  0  0  0  0  0  0  0  0  0  0
   -1.2729   -5.9579   -1.6476 H   0  0  0  0  0  0  0  0  0  0  0  0
    0.3131   -4.5370   -1.2325 C   0  0  0  0  0  0  0  0  0  0  0  0
    1.1241   -5.2522   -1.4376 H   0  0  0  0  0  0  0  0  0  0  0  0
    0.6063   -3.2076   -0.8476 C   0  0  0  0  0  0  0  0  0  0  0  0
    1.9249   -2.6155   -0.7104 C   0  0  0  0  0  0  0  0  0  0  0  0
    2.8533   -3.1797   -0.9306 H   0  0  0  0  0  0  0  0  0  0  0  0
    3.1993   -0.6471   -0.1834 C   0  0  0  0  0  0  0  0  0  0  0  0
    3.4689    0.4027   -1.0989 C   0  0  0  0  0  0  0  0  0  0  0  0
    4.6504    1.1423   -0.9214 C   0  0  0  0  0  0  0  0  0  0  0  0
    4.8882    1.9565   -1.6212 H   0  0  0  0  0  0  0  0  0  0  0  0
    5.5202    0.8629    0.1393 C   0  0  0  0  0  0  0  0  0  0  0  0
    6.4426    1.4501    0.2633 H   0  0  0  0  0  0  0  0  0  0  0  0
    5.2079   -0.1463    1.0605 C   0  0  0  0  0  0  0  0  0  0  0  0
    5.8830   -0.3275    1.9086 H   0  0  0  0  0  0  0  0  0  0  0  0
    4.0382   -0.9167    0.9321 C   0  0  0  0  0  0  0  0  0  0  0  0
    2.5075    0.6800   -2.2458 C   0  0  0  0  0  0  0  0  0  0  0  0
    1.5038    0.3352   -1.9040 H   0  0  0  0  0  0  0  0  0  0  0  0
    2.3695    2.1699   -2.5780 C   0  0  0  0  0  0  0  0  0  0  0  0
    3.2962    2.5896   -3.0218 H   0  0  0  0  0  0  0  0  0  0  0  0
    2.1185    2.7537   -1.6716 H   0  0  0  0  0  0  0  0  0  0  0  0
    1.5595    2.3188   -3.3221 H   0  0  0  0  0  0  0  0  0  0  0  0
    2.8725   -0.1563   -3.4846 C   0  0  0  0  0  0  0  0  0  0  0  0
    2.1342    0.0005   -4.2982 H   0  0  0  0  0  0  0  0  0  0  0  0
    2.8975   -1.2403   -3.2520 H   0  0  0  0  0  0  0  0  0  0  0  0
    3.8740    0.1262   -3.8710 H   0  0  0  0  0  0  0  0  0  0  0  0
    3.6059   -1.9064    2.0108 C   0  0  0  0  0  0  0  0  0  0  0  0
    3.1670   -2.7946    1.5086 H   0  0  0  0  0  0  0  0  0  0  0  0
    4.7568   -2.4162    2.8853 C   0  0  0  0  0  0  0  0  0  0  0  0
    5.1806   -1.6098    3.5185 H   0  0  0  0  0  0  0  0  0  0  0  0
    5.5810   -2.8410    2.2775 H   0  0  0  0  0  0  0  0  0  0  0  0
    4.3926   -3.2074    3.5707 H   0  0  0  0  0  0  0  0  0  0  0  0
    2.4932   -1.2767    2.8731 C   0  0  0  0  0  0  0  0  0  0  0  0
    2.1359   -1.9933    3.6408 H   0  0  0  0  0  0  0  0  0  0  0  0
    1.6234   -0.9682    2.2572 H   0  0  0  0  0  0  0  0  0  0  0  0
    2.8693   -0.3692    3.3880 H   0  0  0  0  0  0  0  0  0  0  0  0
  1 21  1  0  0  0  0
  2 49  1  0  0  0  0
  3  1  1  0  0  0  0
  4  5  1  0  0  0  0
  4  1  1  0  0  0  0
  6  4  1  0  0  0  0
  6  7  1  0  0  0  0
  6  8  1  0  0  0  0
  9 11  1  0  0  0  0
  9 10  1  0  0  0  0
  9  6  1  0  0  0  0
 12 15  1  0  0  0  0
 12  9  1  0  0  0  0
 13 12  1  0  0  0  0
 14 12  1  0  0  0  0
 15 18  1  0  0  0  0
 16 15  1  0  0  0  0
 17 15  1  0  0  0  0
 18 19  1  0  0  0  0
 18  4  1  0  0  0  0
 20 18  1  0  0  0  0
 21 22  1  0  0  0  0
 21 35  1  0  0  0  0
 23 21  1  0  0  0  0
 23 26  1  0  0  0  0
 24 23  1  0  0  0  0
 25 23  1  0  0  0  0
 26 27  1  0  0  0  0
 26 29  1  0  0  0  0
 28 26  1  0  0  0  0
 29 32  1  0  0  0  0
 29 31  1  0  0  0  0
 30 29  1  0  0  0  0
 32 34  1  0  0  0  0
 32 33  1  0  0  0  0
 35 36  1  0  0  0  0
 35 32  1  0  0  0  0
 37 35  1  0  0  0  0
 39 38  1  0  0  0  0
 39  3  1  0  0  0  0
 40 39  2  0  0  0  0
 41 40  1  0  0  0  0
 42 44  2  0  0  0  0
 42 40  1  0  0  0  0
 43 42  1  0  0  0  0
 44 46  1  0  0  0  0
 45 44  1  0  0  0  0
 46 47  2  0  0  0  0
 46 38  1  0  0  0  0
 47  2  1  0  0  0  0
 48 47  1  0  0  0  0
 49 57  1  0  0  0  0
 50 51  1  0  0  0  0
 50 49  2  0  0  0  0
 51 53  2  0  0  0  0
 52 51  1  0  0  0  0
 53 54  1  0  0  0  0
 53 55  1  0  0  0  0
 55 56  1  0  0  0  0
 57 55  2  0  0  0  0
 57 68  1  0  0  0  0
 58 59  1  0  0  0  0
 58 50  1  0  0  0  0
 60 58  1  0  0  0  0
 60 62  1  0  0  0  0
 61 60  1  0  0  0  0
 63 60  1  0  0  0  0
 64 66  1  0  0  0  0
 64 58  1  0  0  0  0
 65 64  1  0  0  0  0
 67 64  1  0  0  0  0
 68 74  1  0  0  0  0
 68 70  1  0  0  0  0
 69 68  1  0  0  0  0
 70 71  1  0  0  0  0
 70 73  1  0  0  0  0
 72 70  1  0  0  0  0
 74 77  1  0  0  0  0
 74 75  1  0  0  0  0
 76 74  1  0  0  0  0
M  END
