1,2,32
q = 0.0, confidence = 0.998

 72 76  0  0  1  0  0  0  0  0999 V2000
   -1.6696   -0.4749    0.1355 P   0  0  0  0  0  0  0  0  0  0  0  0
    1.3686    0.5444    0.0638 N   0  0  0  0  0  0  0  0  0  0  0  0
   -1.6923    1.0736   -0.4894 O   0  0  0  0  0  0  0  0  0  0  0  0
   -4.3596   -1.2715   -0.1896 C   0  0  0  0  0  0  0  0  0  0  0  0
   -5.4175   -1.8083   -0.9379 C   0  0  0  0  0  0  0  0  0  0  0  0
   -5.1989   -2.2535   -2.2512 C   0  0  0  0  0  0  0  0  0  0  0  0
   -3.9178   -2.1710   -2.8228 C   0  0  0  0  0  0  0  0  0  0  0  0
   -2.8533   -1.6462   -2.0797 C   0  0  0  0  0  0  0  0  0  0  0  0
   -3.0750   -1.1860   -0.7638 C   0  0  0  0  0  0  0  0  0  0  0  0
   -1.7502   -1.1454    2.8581 C   0  0  0  0  0  0  0  0  0  0  0  0
   -2.1499   -0.9679    4.1906 C   0  0  0  0  0  0  0  0  0  0  0  0
   -2.9538    0.1289    4.5428 C   0  0  0  0  0  0  0  0  0  0  0  0
   -3.3637    1.0496    3.5636 C   0  0  0  0  0  0  0  0  0  0  0  0
   -2.9787    0.8749    2.2265 C   0  0  0  0  0  0  0  0  0  0  0  0
   -2.1721   -0.2293    1.8722 C   0  0  0  0  0  0  0  0  0  0  0  0
   -0.6913    2.0144   -0.0728 C   0  0  2  0  0  0  0  0  0  0  0  0
   -2.1799    3.5978   -1.4103 C   0  0  0  0  0  0  0  0  0  0  0  0
   -2.5598    4.8978   -1.7813 C   0  0  0  0  0  0  0  0  0  0  0  0
   -1.9113    6.0109   -1.2266 C   0  0  0  0  0  0  0  0  0  0  0  0
   -0.8818    5.8225   -0.2898 C   0  0  0  0  0  0  0  0  0  0  0  0
   -0.5023    4.5261    0.0841 C   0  0  0  0  0  0  0  0  0  0  0  0
   -1.1440    3.4050   -0.4786 C   0  0  0  0  0  0  0  0  0  0  0  0
    0.6980    1.6733   -0.6860 C   0  0  2  0  0  0  0  0  0  0  0  0
    0.5601    1.4194   -2.1860 C   0  0  0  0  0  0  0  0  0  0  0  0
    1.6027    0.9374    1.4796 C   0  0  0  0  0  0  0  0  0  0  0  0
    2.6467    0.0367   -0.6163 C   0  0  2  0  0  0  0  0  0  0  0  0
    2.8421   -2.2532   -1.7079 C   0  0  0  0  0  0  0  0  0  0  0  0
    2.9580   -3.6430   -1.6592 C   0  0  0  0  0  0  0  0  0  0  0  0
    2.8498   -4.3248   -0.4281 C   0  0  0  0  0  0  0  0  0  0  0  0
    2.6075   -3.6104    0.7449 C   0  0  0  0  0  0  0  0  0  0  0  0
    2.4785   -2.1970    0.7138 C   0  0  0  0  0  3  0  0  0  0  0  0
    2.6210   -1.4906   -0.5245 C   0  0  1  0  0  3  0  0  0  0  0  0
    4.1820    2.0360   -0.6473 C   0  0  0  0  0  0  0  0  0  0  0  0
    5.3245    2.7341   -0.2331 C   0  0  0  0  0  0  0  0  0  0  0  0
    6.2321    2.1324    0.6537 C   0  0  0  0  0  0  0  0  0  0  0  0
    5.9939    0.8292    1.1148 C   0  0  0  0  0  0  0  0  0  0  0  0
    4.8451    0.1339    0.7065 C   0  0  0  0  0  0  0  0  0  0  0  0
    3.9200    0.7329   -0.1702 C   0  0  0  0  0  0  0  0  0  0  0  0
   -4.5325   -0.9260    0.8401 H   0  0  0  0  0  0  0  0  0  0  0  0
   -6.4193   -1.8815   -0.4895 H   0  0  0  0  0  0  0  0  0  0  0  0
   -6.0321   -2.6761   -2.8325 H   0  0  0  0  0  0  0  0  0  0  0  0
   -3.7465   -2.5268   -3.8495 H   0  0  0  0  0  0  0  0  0  0  0  0
   -1.8420   -1.5981   -2.5145 H   0  0  0  0  0  0  0  0  0  0  0  0
   -1.1056   -1.9922    2.5726 H   0  0  0  0  0  0  0  0  0  0  0  0
   -1.8280   -1.6859    4.9594 H   0  0  0  0  0  0  0  0  0  0  0  0
   -3.2605    0.2702    5.5900 H   0  0  0  0  0  0  0  0  0  0  0  0
   -3.9896    1.9104    3.8428 H   0  0  0  0  0  0  0  0  0  0  0  0
   -3.2979    1.5930    1.4556 H   0  0  0  0  0  0  0  0  0  0  0  0
   -0.6195    2.0004    1.0360 H   0  0  0  0  0  0  0  0  0  0  0  0
   -2.6935    2.7230   -1.8333 H   0  0  0  0  0  0  0  0  0  0  0  0
   -3.3724    5.0397   -2.5095 H   0  0  0  0  0  0  0  0  0  0  0  0
   -2.2118    7.0282   -1.5182 H   0  0  0  0  0  0  0  0  0  0  0  0
   -0.3772    6.6910    0.1590 H   0  0  0  0  0  0  0  0  0  0  0  0
    0.2958    4.3878    0.8320 H   0  0  0  0  0  0  0  0  0  0  0  0
    1.3248    2.5766   -0.5176 H   0  0  0  0  0  0  0  0  0  0  0  0
    1.5147    1.5300   -2.7330 H   0  0  0  0  0  0  0  0  0  0  0  0
   -0.1399    2.1629   -2.6119 H   0  0  0  0  0  0  0  0  0  0  0  0
    0.1470    0.4092   -2.3821 H   0  0  0  0  0  0  0  0  0  0  0  0
    2.0175    1.9653    1.5387 H   0  0  0  0  0  0  0  0  0  0  0  0
    2.3375    0.2630    1.9473 H   0  0  0  0  0  0  0  0  0  0  0  0
    0.6629    0.8768    2.0572 H   0  0  0  0  0  0  0  0  0  0  0  0
    2.5087    0.2667   -1.6848 H   0  0  0  0  0  0  0  0  0  0  0  0
    2.9440   -1.7244   -2.6682 H   0  0  0  0  0  0  0  0  0  0  0  0
    3.1368   -4.2075   -2.5860 H   0  0  0  0  0  0  0  0  0  0  0  0
    2.9523   -5.4194   -0.3953 H   0  0  0  0  0  0  0  0  0  0  0  0
    2.5264   -4.1334    1.7090 H   0  0  0  0  0  0  0  0  0  0  0  0
    2.4249   -1.6644    1.6736 H   0  0  0  0  0  0  0  0  0  0  0  0
    3.4941    2.5069   -1.3671 H   0  0  0  0  0  0  0  0  0  0  0  0
    5.5153    3.7477   -0.6160 H   0  0  0  0  0  0  0  0  0  0  0  0
    7.1333    2.6759    0.9741 H   0  0  0  0  0  0  0  0  0  0  0  0
    6.7110    0.3447    1.7940 H   0  0  0  0  0  0  0  0  0  0  0  0
    4.6821   -0.8934    1.0632 H   0  0  0  0  0  0  0  0  0  0  0  0
  1 15  1  0  0  0  0
  2 25  1  0  0  0  0
  3 16  1  0  0  0  0
  3  1  1  0  0  0  0
  4 39  1  0  0  0  0
  5 40  1  0  0  0  0
  5  4  2  0  0  0  0
  6  5  1  0  0  0  0
  7  6  2  0  0  0  0
  7  8  1  0  0  0  0
  8  9  2  0  0  0  0
  9  4  1  0  0  0  0
  9  1  1  0  0  0  0
 10 11  1  0  0  0  0
 11 12  2  0  0  0  0
 11 45  1  0  0  0  0
 12 46  1  0  0  0  0
 13 47  1  0  0  0  0
 13 12  1  0  0  0  0
 14 13  2  0  0  0  0
 15 14  1  0  0  0  0
 15 10  2  0  0  0  0
 16 49  1  1  0  0  0
 17 22  1  0  0  0  0
 18 17  2  0  0  0  0
 18 19  1  0  0  0  0
 19 20  2  0  0  0  0
 20 21  1  0  0  0  0
 20 53  1  0  0  0  0
 21 54  1  0  0  0  0
 22 16  1  0  0  0  0
 22 21  2  0  0  0  0
 23 55  1  1  0  0  0
 23 16  1  0  0  0  0
 23  2  1  0  0  0  0
 24 23  1  0  0  0  0
 25 59  1  0  0  0  0
 25 60  1  0  0  0  0
 25 61  1  0  0  0  0
 26 62  1  6  0  0  0
 26 38  1  0  0  0  0
 26  2  1  0  0  0  0
 27 28  2  0  0  0  0
 27 32  1  0  0  0  0
 28 29  1  0  0  0  0
 29 65  1  0  0  0  0
 29 30  2  0  0  0  0
 30 66  1  0  0  0  0
 31 30  1  0  0  0  0
 31 67  1  0  0  0  0
 32 26  1  1  0  0  0
 32 31  1  0  0  0  0
 33 34  2  0  0  0  0
 33 38  1  0  0  0  0
 34 35  1  0  0  0  0
 35 70  1  0  0  0  0
 35 36  2  0  0  0  0
 36 71  1  0  0  0  0
 37 72  1  0  0  0  0
 37 36  1  0  0  0  0
 38 37  2  0  0  0  0
 41  6  1  0  0  0  0
 42  7  1  0  0  0  0
 43  8  1  0  0  0  0
 44 10  1  0  0  0  0
 48 14  1  0  0  0  0
 50 17  1  0  0  0  0
 51 18  1  0  0  0  0
 52 19  1  0  0  0  0
 56 24  1  0  0  0  0
 57 24  1  0  0  0  0
 58 24  1  0  0  0  0
 63 27  1  0  0  0  0
 64 28  1  0  0  0  0
 68 33  1  0  0  0  0
 69 34  1  0  0  0  0
M  END
