3,5,6
q = -1.0

 70 75  0  0  0  0  0  0  0  0999 V2000
    0.8890   -3.0304    1.0523 N   0  0  0  0  0  0  0  0  0  0  0  0
   -1.2361   -3.3968    1.2173 N   0  0  0  0  0  0  0  0  0  0  0  0
    1.3195   -0.1901    0.6011 N   0  0  0  0  0  2  0  0  0  0  0  0
    1.1413    0.8745   -0.6635 P   0  0  0  0  0  4  0  0  0  0  0  0
   -1.6733    0.1390   -0.4700 P   0  0  0  0  0  0  0  0  0  0  0  0
   -0.2936   -2.4315    1.4033 C   0  0  0  0  0  2  0  0  0  0  0  0
    0.6711   -4.3456    0.6368 C   0  0  0  0  0  0  0  0  0  0  0  0
    1.4772   -4.9871    0.2730 H   0  0  0  0  0  0  0  0  0  0  0  0
   -0.6751   -4.5741    0.7447 C   0  0  0  0  0  0  0  0  0  0  0  0
   -1.2728   -5.4585    0.5053 H   0  0  0  0  0  0  0  0  0  0  0  0
    2.1890   -2.4305    1.1173 C   0  0  0  0  0  0  0  0  0  0  0  0
    2.3847   -1.0425    0.8064 C   0  0  0  0  0  0  0  0  0  0  0  0
    3.7421   -0.6095    0.7563 C   0  0  0  0  0  0  0  0  0  0  0  0
    3.9334    0.4413    0.4978 H   0  0  0  0  0  0  0  0  0  0  0  0
    4.8176   -1.4561    1.0297 C   0  0  0  0  0  0  0  0  0  0  0  0
    5.8431   -1.0590    0.9808 H   0  0  0  0  0  0  0  0  0  0  0  0
    4.5918   -2.7938    1.3954 C   0  0  0  0  0  0  0  0  0  0  0  0
    5.4270   -3.4608    1.6530 H   0  0  0  0  0  0  0  0  0  0  0  0
    3.2755   -3.2648    1.4393 C   0  0  0  0  0  0  0  0  0  0  0  0
    3.0770   -4.3056    1.7360 H   0  0  0  0  0  0  0  0  0  0  0  0
   -2.6524   -3.2103    1.4866 C   0  0  0  0  0  0  0  0  0  0  0  0
   -2.9674   -3.8307    2.3496 H   0  0  0  0  0  0  0  0  0  0  0  0
   -3.2504   -3.4769    0.5942 H   0  0  0  0  0  0  0  0  0  0  0  0
   -2.8210   -2.1452    1.7251 H   0  0  0  0  0  0  0  0  0  0  0  0
   -0.3180    0.5236   -1.5178 C   0  0  0  0  0  3  0  0  0  0  0  0
   -0.4451    0.9193   -2.5387 H   0  0  0  0  0  0  0  0  0  0  0  0
    2.5289    0.8076   -1.8535 C   0  0  0  0  0  0  0  0  0  0  0  0
    3.4430    1.8643   -2.0271 C   0  0  0  0  0  0  0  0  0  0  0  0
    3.3174    2.7961   -1.4552 H   0  0  0  0  0  0  0  0  0  0  0  0
    4.5092    1.7267   -2.9296 C   0  0  0  0  0  0  0  0  0  0  0  0
    5.2181    2.5572   -3.0686 H   0  0  0  0  0  0  0  0  0  0  0  0
    4.6704    0.5348   -3.6535 C   0  0  0  0  0  0  0  0  0  0  0  0
    5.5102    0.4279   -4.3571 H   0  0  0  0  0  0  0  0  0  0  0  0
    3.7587   -0.5206   -3.4825 C   0  0  0  0  0  0  0  0  0  0  0  0
    3.8840   -1.4553   -4.0502 H   0  0  0  0  0  0  0  0  0  0  0  0
    2.6879   -0.3849   -2.5891 C   0  0  0  0  0  0  0  0  0  0  0  0
    1.9604   -1.1996   -2.4520 H   0  0  0  0  0  0  0  0  0  0  0  0
    1.1961    2.5583    0.0783 C   0  0  0  0  0  0  0  0  0  0  0  0
    0.2721    3.5268   -0.3575 C   0  0  0  0  0  0  0  0  0  0  0  0
   -0.4617    3.2542   -1.1324 H   0  0  0  0  0  0  0  0  0  0  0  0
    0.2654    4.8058    0.2199 C   0  0  0  0  0  0  0  0  0  0  0  0
   -0.4721    5.5518   -0.1134 H   0  0  0  0  0  0  0  0  0  0  0  0
    1.1858    5.1235    1.2315 C   0  0  0  0  0  0  0  0  0  0  0  0
    1.1766    6.1242    1.6901 H   0  0  0  0  0  0  0  0  0  0  0  0
    2.1071    4.1586    1.6731 C   0  0  0  0  0  0  0  0  0  0  0  0
    2.8141    4.4004    2.4813 H   0  0  0  0  0  0  0  0  0  0  0  0
    2.1064    2.8765    1.1061 C   0  0  0  0  0  0  0  0  0  0  0  0
    2.7960    2.1053    1.4820 H   0  0  0  0  0  0  0  0  0  0  0  0
   -2.8645    1.5490   -0.4496 C   0  0  0  0  0  0  0  0  0  0  0  0
   -2.9726    2.3156    0.7284 C   0  0  0  0  0  0  0  0  0  0  0  0
   -2.4296    1.9924    1.6292 H   0  0  0  0  0  0  0  0  0  0  0  0
   -3.7512    3.4841    0.7464 C   0  0  0  0  0  0  0  0  0  0  0  0
   -3.8230    4.0765    1.6715 H   0  0  0  0  0  0  0  0  0  0  0  0
   -4.4331    3.8940   -0.4097 C   0  0  0  0  0  0  0  0  0  0  0  0
   -5.0433    4.8103   -0.3965 H   0  0  0  0  0  0  0  0  0  0  0  0
   -4.3363    3.1303   -1.5869 C   0  0  0  0  0  0  0  0  0  0  0  0
   -4.8711    3.4485   -2.4955 H   0  0  0  0  0  0  0  0  0  0  0  0
   -3.5555    1.9661   -1.6084 C   0  0  0  0  0  0  0  0  0  0  0  0
   -3.4756    1.3746   -2.5346 H   0  0  0  0  0  0  0  0  0  0  0  0
   -2.6230   -1.2254   -1.2598 C   0  0  0  0  0  0  0  0  0  0  0  0
   -1.8957   -2.2719   -1.8657 C   0  0  0  0  0  0  0  0  0  0  0  0
   -0.8012   -2.1684   -1.9448 H   0  0  0  0  0  0  0  0  0  0  0  0
   -2.5552   -3.4102   -2.3501 C   0  0  0  0  0  0  0  0  0  0  0  0
   -1.9742   -4.2205   -2.8177 H   0  0  0  0  0  0  0  0  0  0  0  0
   -3.9539   -3.5160   -2.2456 C   0  0  0  0  0  0  0  0  0  0  0  0
   -4.4733   -4.4060   -2.6329 H   0  0  0  0  0  0  0  0  0  0  0  0
   -4.6863   -2.4723   -1.6545 C   0  0  0  0  0  0  0  0  0  0  0  0
   -5.7826   -2.5428   -1.5787 H   0  0  0  0  0  0  0  0  0  0  0  0
   -4.0266   -1.3366   -1.1586 C   0  0  0  0  0  0  0  0  0  0  0  0
   -4.6060   -0.5274   -0.6879 H   0  0  0  0  0  0  0  0  0  0  0  0
  1 11  1  0  0  0  0
  1  6  1  0  0  0  0
  2  6  1  0  0  0  0
  2 21  1  0  0  0  0
  3 12  1  0  0  0  0
  4 38  1  0  0  0  0
  4  3  1  0  0  0  0
  5 49  1  0  0  0  0
  7  9  2  0  0  0  0
  7  1  1  0  0  0  0
  8  7  1  0  0  0  0
  9  2  1  0  0  0  0
 10  9  1  0  0  0  0
 11 19  1  0  0  0  0
 12 11  2  0  0  0  0
 13 12  1  0  0  0  0
 13 15  2  0  0  0  0
 14 13  1  0  0  0  0
 15 17  1  0  0  0  0
 16 15  1  0  0  0  0
 17 19  2  0  0  0  0
 17 18  1  0  0  0  0
 19 20  1  0  0  0  0
 21 24  1  0  0  0  0
 21 22  1  0  0  0  0
 23 21  1  0  0  0  0
 25  4  1  0  0  0  0
 25  5  1  0  0  0  0
 26 25  1  0  0  0  0
 27  4  1  0  0  0  0
 28 27  1  0  0  0  0
 28 29  1  0  0  0  0
 30 28  2  0  0  0  0
 31 30  1  0  0  0  0
 32 34  2  0  0  0  0
 32 30  1  0  0  0  0
 33 32  1  0  0  0  0
 34 36  1  0  0  0  0
 35 34  1  0  0  0  0
 36 37  1  0  0  0  0
 36 27  2  0  0  0  0
 38 47  1  0  0  0  0
 39 38  2  0  0  0  0
 39 41  1  0  0  0  0
 40 39  1  0  0  0  0
 41 43  2  0  0  0  0
 42 41  1  0  0  0  0
 43 45  1  0  0  0  0
 43 44  1  0  0  0  0
 45 46  1  0  0  0  0
 47 48  1  0  0  0  0
 47 45  2  0  0  0  0
 49 50  1  0  0  0  0
 50 52  2  0  0  0  0
 50 51  1  0  0  0  0
 52 53  1  0  0  0  0
 54 55  1  0  0  0  0
 54 52  1  0  0  0  0
 56 54  2  0  0  0  0
 57 56  1  0  0  0  0
 58 56  1  0  0  0  0
 58 49  2  0  0  0  0
 59 58  1  0  0  0  0
 60 69  1  0  0  0  0
 60  5  1  0  0  0  0
 61 60  2  0  0  0  0
 62 61  1  0  0  0  0
 63 65  2  0  0  0  0
 63 61  1  0  0  0  0
 64 63  1  0  0  0  0
 65 67  1  0  0  0  0
 66 65  1  0  0  0  0
 67 68  1  0  0  0  0
 67 69  2  0  0  0  0
 69 70  1  0  0  0  0
M  END
