1,3,25
q = -1.0, confidence = 0.008

 47 50  0  0  0  0  0  0  0  0999 V2000
    1.5632    0.1667   -0.0107 P   0  0  0  0  0  0  0  0  0  0  0  0
    1.8921    1.8418    0.0850 O   0  0  0  0  0  0  0  0  0  0  0  0
   -2.7423    0.5206    0.1051 N   0  0  0  0  0  2  0  0  0  0  0  0
   -3.8333   -1.5707    0.7021 C   0  0  0  0  0  0  0  0  0  0  0  0
   -2.9237   -1.8557    1.2475 H   0  0  0  0  0  0  0  0  0  0  0  0
   -4.9477   -2.4168    0.6544 C   0  0  0  0  0  0  0  0  0  0  0  0
   -4.9193   -3.3751    1.1946 H   0  0  0  0  0  0  0  0  0  0  0  0
   -6.0865   -2.0589   -0.0858 C   0  0  0  0  0  0  0  0  0  0  0  0
   -6.9538   -2.7347   -0.1288 H   0  0  0  0  0  0  0  0  0  0  0  0
   -6.1042   -0.8443   -0.7910 C   0  0  0  0  0  0  0  0  0  0  0  0
   -6.9807   -0.5690   -1.3970 H   0  0  0  0  0  0  0  0  0  0  0  0
   -4.9992    0.0146   -0.7445 C   0  0  0  0  0  0  0  0  0  0  0  0
   -4.9969    0.9462   -1.3298 H   0  0  0  0  0  0  0  0  0  0  0  0
   -3.8618   -0.3356    0.0194 C   0  0  0  0  0  0  0  0  0  0  0  0
   -2.8915    1.8228    0.1804 C   0  0  0  0  0  0  0  0  0  0  0  0
   -3.9048    2.2657    0.2476 H   0  0  0  0  0  0  0  0  0  0  0  0
   -1.7054    2.6515    0.2012 C   0  0  0  0  0  0  0  0  0  0  0  0
   -1.6730    4.0644    0.2863 C   0  0  0  0  0  3  0  0  0  0  0  0
   -2.6090    4.6412    0.3379 H   0  0  0  0  0  0  0  0  0  0  0  0
   -0.4330    4.7176    0.3019 C   0  0  0  0  0  0  0  0  0  0  0  0
   -0.3943    5.8150    0.3669 H   0  0  0  0  0  0  0  0  0  0  0  0
    0.7778    3.9946    0.2362 C   0  0  0  0  0  0  0  0  0  0  0  0
    1.7478    4.5126    0.2499 H   0  0  0  0  0  0  0  0  0  0  0  0
    0.7341    2.5938    0.1529 C   0  0  0  0  0  0  0  0  0  0  0  0
   -0.4966    1.9160    0.1353 C   0  0  0  0  0  3  0  0  0  0  0  0
    2.4786   -0.3178   -1.5097 C   0  0  0  0  0  0  0  0  0  0  0  0
    3.4817    0.5112   -2.0499 C   0  0  0  0  0  0  0  0  0  0  0  0
    3.6950    1.4863   -1.5884 H   0  0  0  0  0  0  0  0  0  0  0  0
    4.1883    0.0855   -3.1839 C   0  0  0  0  0  0  0  0  0  0  0  0
    4.9696    0.7311   -3.6133 H   0  0  0  0  0  0  0  0  0  0  0  0
    3.8985   -1.1569   -3.7718 C   0  0  0  0  0  0  0  0  0  0  0  0
    4.4559   -1.4855   -4.6623 H   0  0  0  0  0  0  0  0  0  0  0  0
    2.8929   -1.9752   -3.2317 C   0  0  0  0  0  0  0  0  0  0  0  0
    2.6569   -2.9429   -3.6995 H   0  0  0  0  0  0  0  0  0  0  0  0
    2.1730   -1.5604   -2.1019 C   0  0  0  0  0  0  0  0  0  0  0  0
    1.3629   -2.1814   -1.6810 H   0  0  0  0  0  0  0  0  0  0  0  0
    2.5209   -0.4942    1.3920 C   0  0  0  0  0  0  0  0  0  0  0  0
    3.5596    0.2552    1.9795 C   0  0  0  0  0  0  0  0  0  0  0  0
    3.7746    1.2717    1.6192 H   0  0  0  0  0  0  0  0  0  0  0  0
    4.2997   -0.3027    3.0317 C   0  0  0  0  0  0  0  0  0  0  0  0
    5.1088    0.2801    3.4978 H   0  0  0  0  0  0  0  0  0  0  0  0
    4.0087   -1.5978    3.4914 C   0  0  0  0  0  0  0  0  0  0  0  0
    4.5930   -2.0306    4.3177 H   0  0  0  0  0  0  0  0  0  0  0  0
    2.9680   -2.3366    2.9052 C   0  0  0  0  0  0  0  0  0  0  0  0
    2.7318   -3.3466    3.2732 H   0  0  0  0  0  0  0  0  0  0  0  0
    2.2139   -1.7895    1.8569 C   0  0  0  0  0  0  0  0  0  0  0  0
    1.3770   -2.3484    1.4020 H   0  0  0  0  0  0  0  0  0  0  0  0
  1  2  1  0  0  0  0
  1 37  1  0  0  0  0
  2 24  1  0  0  0  0
  3 15  1  0  0  0  0
  4  5  1  0  0  0  0
  6  4  1  0  0  0  0
  6  7  1  0  0  0  0
  8  6  2  0  0  0  0
  9  8  1  0  0  0  0
 10 12  2  0  0  0  0
 10  8  1  0  0  0  0
 11 10  1  0  0  0  0
 12 14  1  0  0  0  0
 13 12  1  0  0  0  0
 14  3  1  0  0  0  0
 14  4  2  0  0  0  0
 15 17  2  0  0  0  0
 15 16  1  0  0  0  0
 17 18  1  0  0  0  0
 18 20  1  0  0  0  0
 18 19  1  0  0  0  0
 20 21  1  0  0  0  0
 22 23  1  0  0  0  0
 22 20  2  0  0  0  0
 24 22  1  0  0  0  0
 25 24  2  0  0  0  0
 25 17  1  0  0  0  0
 26  1  1  0  0  0  0
 27 28  1  0  0  0  0
 27 26  1  0  0  0  0
 29 27  2  0  0  0  0
 30 29  1  0  0  0  0
 31 33  2  0  0  0  0
 31 29  1  0  0  0  0
 32 31  1  0  0  0  0
 33 35  1  0  0  0  0
 34 33  1  0  0  0  0
 35 36  1  0  0  0  0
 35 26  2  0  0  0  0
 37 46  2  0  0  0  0
 37 38  1  0  0  0  0
 38 40  2  0  0  0  0
 39 38  1  0  0  0  0
 40 42  1  0  0  0  0
 40 41  1  0  0  0  0
 42 43  1  0  0  0  0
 44 45  1  0  0  0  0
 44 42  2  0  0  0  0
 46 44  1  0  0  0  0
 47 46  1  0  0  0  0
M  END
