1,2,79
q = -1.0, confidence = 0.016

 80 86  0  0  1  0  0  0  0  0999 V2000
    1.6792    0.2714    0.3776 P   0  0  1  0  0  0  0  0  0  0  0  0
   -0.9326    0.8703   -0.2134 C   0  0  0  0  0  2  0  0  0  0  0  0
   -2.3034    0.9612   -0.5511 C   0  0  0  0  0  0  0  0  0  0  0  0
   -2.9045    2.2328   -0.6959 C   0  0  0  0  0  0  0  0  0  0  0  0
   -3.9601    2.3316   -0.9817 H   0  0  0  0  0  0  0  0  0  0  0  0
   -2.1276    3.3797   -0.4697 C   0  0  0  0  0  0  0  0  0  0  0  0
   -2.5875    4.3726   -0.5835 H   0  0  0  0  0  0  0  0  0  0  0  0
   -0.7698    3.2959   -0.0962 C   0  0  0  0  0  0  0  0  0  0  0  0
   -0.1708    4.2000    0.0854 H   0  0  0  0  0  0  0  0  0  0  0  0
   -0.1771    2.0308    0.0314 C   0  0  0  0  0  0  0  0  0  0  0  0
    2.1454   -0.9204    2.7944 C   0  0  0  0  0  0  0  0  0  0  0  0
    2.0406   -0.4445    3.7911 H   0  0  0  0  0  0  0  0  0  0  0  0
    1.1560   -1.3231    2.4925 H   0  0  0  0  0  0  0  0  0  0  0  0
    3.2346   -2.0267    2.7842 C   0  0  0  0  0  0  0  0  0  0  0  0
    2.7775   -3.0312    2.7080 H   0  0  0  0  0  0  0  0  0  0  0  0
    3.8361   -1.9855    3.7154 H   0  0  0  0  0  0  0  0  0  0  0  0
    4.1033   -1.7143    1.5548 C   0  0  0  0  0  0  0  0  0  0  0  0
    3.6449   -2.1721    0.6539 H   0  0  0  0  0  0  0  0  0  0  0  0
    5.1456   -2.0760    1.6400 H   0  0  0  0  0  0  0  0  0  0  0  0
    4.0037   -0.1856    1.4491 C   0  0  1  0  0  0  0  0  0  0  0  0
    4.6800    0.3001    2.1863 H   0  0  0  0  0  0  0  0  0  0  0  0
    4.2447    0.4654    0.0558 C   0  0  0  0  0  0  0  0  0  0  0  0
    5.3059   -0.3113   -0.7097 C   0  0  0  0  0  0  0  0  0  0  0  0
    4.9520   -1.2677   -1.6772 C   0  0  0  0  0  0  0  0  0  0  0  0
    3.8906   -1.4192   -1.9181 H   0  0  0  0  0  0  0  0  0  0  0  0
    5.9478   -2.0212   -2.3188 C   0  0  0  0  0  0  0  0  0  0  0  0
    5.6597   -2.7651   -3.0771 H   0  0  0  0  0  0  0  0  0  0  0  0
    7.2998   -1.8333   -1.9946 C   0  0  0  0  0  0  0  0  0  0  0  0
    8.0780   -2.4265   -2.4985 H   0  0  0  0  0  0  0  0  0  0  0  0
    7.6557   -0.8818   -1.0247 C   0  0  0  0  0  0  0  0  0  0  0  0
    8.7140   -0.7251   -0.7657 H   0  0  0  0  0  0  0  0  0  0  0  0
    6.6645   -0.1218   -0.3882 C   0  0  0  0  0  0  0  0  0  0  0  0
    6.9462    0.6353    0.3598 H   0  0  0  0  0  0  0  0  0  0  0  0
    4.5423    1.9666    0.1157 C   0  0  0  0  0  0  0  0  0  0  0  0
    5.0163    2.6060   -1.0479 C   0  0  0  0  0  0  0  0  0  0  0  0
    5.2145    2.0048   -1.9476 H   0  0  0  0  0  0  0  0  0  0  0  0
    5.2340    3.9896   -1.0668 C   0  0  0  0  0  0  0  0  0  0  0  0
    5.6051    4.4716   -1.9841 H   0  0  0  0  0  0  0  0  0  0  0  0
    4.9818    4.7577    0.0816 C   0  0  0  0  0  0  0  0  0  0  0  0
    5.1569    5.8444    0.0708 H   0  0  0  0  0  0  0  0  0  0  0  0
    4.5006    4.1319    1.2407 C   0  0  0  0  0  0  0  0  0  0  0  0
    4.2887    4.7264    2.1424 H   0  0  0  0  0  0  0  0  0  0  0  0
    4.2775    2.7463    1.2574 C   0  0  0  0  0  0  0  0  0  0  0  0
    3.8597    2.2787    2.1599 H   0  0  0  0  0  0  0  0  0  0  0  0
   -2.8853   -0.3788   -0.7278 C   0  0  0  0  0  0  0  0  0  0  0  0
   -4.2105   -2.2050   -1.2156 C   0  0  0  0  0  0  0  0  0  0  0  0
   -4.3789   -2.4175   -2.2932 H   0  0  0  0  0  0  0  0  0  0  0  0
   -5.0389   -2.6648   -0.6398 H   0  0  0  0  0  0  0  0  0  0  0  0
   -2.8014   -2.6670   -0.7432 C   0  0  2  0  0  0  0  0  0  0  0  0
   -2.3273   -3.3207   -1.5034 H   0  0  0  0  0  0  0  0  0  0  0  0
   -2.7633   -3.4191    0.6106 C   0  0  0  0  0  0  0  0  0  0  0  0
   -1.6782   -3.5612    0.8126 H   0  0  0  0  0  0  0  0  0  0  0  0
   -3.3606   -2.5974    1.7570 C   0  0  0  0  0  0  0  0  0  0  0  0
   -3.2561   -3.1389    2.7187 H   0  0  0  0  0  0  0  0  0  0  0  0
   -4.4446   -2.3972    1.6116 H   0  0  0  0  0  0  0  0  0  0  0  0
   -2.8401   -1.6242    1.8653 H   0  0  0  0  0  0  0  0  0  0  0  0
   -3.4164   -4.7985    0.4848 C   0  0  0  0  0  0  0  0  0  0  0  0
   -3.3101   -5.3712    1.4279 H   0  0  0  0  0  0  0  0  0  0  0  0
   -2.9494   -5.3959   -0.3250 H   0  0  0  0  0  0  0  0  0  0  0  0
   -4.5047   -4.7253    0.2695 H   0  0  0  0  0  0  0  0  0  0  0  0
   -5.3569    0.0006   -0.7262 C   0  0  0  0  0  0  0  0  0  0  0  0
   -5.5144    0.7225    0.4715 C   0  0  0  0  0  0  0  0  0  0  0  0
   -4.7062    0.7130    1.2168 H   0  0  0  0  0  0  0  0  0  0  0  0
   -6.6828    1.4568    0.7202 C   0  0  0  0  0  0  0  0  0  0  0  0
   -6.7688    2.0178    1.6600 H   0  0  0  0  0  0  0  0  0  0  0  0
   -7.7345    1.4458   -0.2203 C   0  0  0  0  0  0  0  0  0  0  0  0
   -7.5915    0.6945   -1.4085 C   0  0  0  0  0  0  0  0  0  0  0  0
   -8.4223    0.6948   -2.1285 H   0  0  0  0  0  0  0  0  0  0  0  0
   -6.4159   -0.0127   -1.6603 C   0  0  0  0  0  0  0  0  0  0  0  0
   -6.3053   -0.5768   -2.5980 H   0  0  0  0  0  0  0  0  0  0  0  0
   -9.1063    2.8790    1.1006 C   0  0  0  0  0  0  0  0  0  0  0  0
  -10.1099    3.3346    1.0128 H   0  0  0  0  0  0  0  0  0  0  0  0
   -8.3487    3.6890    1.1977 H   0  0  0  0  0  0  0  0  0  0  0  0
   -9.0743    2.2498    2.0184 H   0  0  0  0  0  0  0  0  0  0  0  0
    1.1477    1.8898    0.3961 O   0  0  0  0  0  0  0  0  0  0  0  0
    2.9649    0.3154   -0.6486 O   0  0  0  0  0  0  0  0  0  0  0  0
   -8.9104    2.1117   -0.0725 O   0  0  0  0  0  0  0  0  0  0  0  0
    2.5920    0.0811    1.7981 N   0  0  1  0  0  0  0  0  0  0  0  0
   -2.0541   -1.4089   -0.6632 N   0  0  0  0  0  2  0  0  0  0  0  0
   -4.1817   -0.7470   -0.9771 N   0  0  0  0  0  0  0  0  0  0  0  0
  1 75  1  1  0  0  0
  1 78  1  0  0  0  0
  2 10  1  0  0  0  0
  3  2  1  0  0  0  0
  4  3  1  0  0  0  0
  4  6  2  0  0  0  0
  5  4  1  0  0  0  0
  6  8  1  0  0  0  0
  7  6  1  0  0  0  0
  8 10  2  0  0  0  0
  8  9  1  0  0  0  0
 10 75  1  0  0  0  0
 11 12  1  0  0  0  0
 13 11  1  0  0  0  0
 14 11  1  0  0  0  0
 14 16  1  0  0  0  0
 15 14  1  0  0  0  0
 17 19  1  0  0  0  0
 17 14  1  0  0  0  0
 18 17  1  0  0  0  0
 20 17  1  0  0  0  0
 20 78  1  0  0  0  0
 20 21  1  1  0  0  0
 22 34  1  0  0  0  0
 22 20  1  0  0  0  0
 23 32  1  0  0  0  0
 23 22  1  0  0  0  0
 24 23  2  0  0  0  0
 25 24  1  0  0  0  0
 26 28  2  0  0  0  0
 26 24  1  0  0  0  0
 27 26  1  0  0  0  0
 28 30  1  0  0  0  0
 29 28  1  0  0  0  0
 30 31  1  0  0  0  0
 30 32  2  0  0  0  0
 32 33  1  0  0  0  0
 34 43  1  0  0  0  0
 35 34  2  0  0  0  0
 36 35  1  0  0  0  0
 37 35  1  0  0  0  0
 37 39  2  0  0  0  0
 38 37  1  0  0  0  0
 39 41  1  0  0  0  0
 40 39  1  0  0  0  0
 41 43  2  0  0  0  0
 41 42  1  0  0  0  0
 43 44  1  0  0  0  0
 45 79  1  0  0  0  0
 45  3  2  0  0  0  0
 46 80  1  0  0  0  0
 46 49  1  0  0  0  0
 46 48  1  0  0  0  0
 47 46  1  0  0  0  0
 49 50  1  6  0  0  0
 49 79  1  0  0  0  0
 49 51  1  0  0  0  0
 51 52  1  0  0  0  0
 51 53  1  0  0  0  0
 53 56  1  0  0  0  0
 53 54  1  0  0  0  0
 55 53  1  0  0  0  0
 57 51  1  0  0  0  0
 57 58  1  0  0  0  0
 59 57  1  0  0  0  0
 60 57  1  0  0  0  0
 61 62  1  0  0  0  0
 62 64  2  0  0  0  0
 62 63  1  0  0  0  0
 64 65  1  0  0  0  0
 66 77  1  0  0  0  0
 66 64  1  0  0  0  0
 67 66  2  0  0  0  0
 68 67  1  0  0  0  0
 69 67  1  0  0  0  0
 69 61  2  0  0  0  0
 70 69  1  0  0  0  0
 71 73  1  0  0  0  0
 71 74  1  0  0  0  0
 72 71  1  0  0  0  0
 76 22  1  0  0  0  0
 76  1  1  0  0  0  0
 77 71  1  0  0  0  0
 78 11  1  6  0  0  0
 80 45  1  0  0  0  0
 80 61  1  0  0  0  0
M  END
