1,2,3
q = -1.0

 51 51  0  0  0  0  0  0  0  0999 V2000
    1.2694    0.1661   -0.0891 P   0  0  0  0  0  0  0  0  0  0  0  0
   -2.5425   -1.5280    0.0966 N   0  0  0  0  0  0  0  0  0  0  0  0
   -1.3444    0.8138   -0.2075 C   0  0  0  0  0  3  0  0  0  0  0  0
   -2.7346    0.9114    0.0454 C   0  0  0  0  0  0  0  0  0  0  0  0
   -0.6601    1.9846   -0.6215 C   0  0  0  0  0  0  0  0  0  0  0  0
   -1.3441    3.2052   -0.7721 C   0  0  0  0  0  0  0  0  0  0  0  0
   -0.8024    4.1113   -1.0902 H   0  0  0  0  0  0  0  0  0  0  0  0
    1.9533    0.6678    1.6249 C   0  0  0  0  0  0  0  0  0  0  0  0
    0.8119    1.8025   -0.8960 C   0  0  0  0  0  0  0  0  0  0  0  0
    1.4525    2.6451   -0.5586 H   0  0  0  0  0  0  0  0  0  0  0  0
    0.9908    1.6893   -1.9868 H   0  0  0  0  0  0  0  0  0  0  0  0
    2.6640   -0.4835   -1.2368 C   0  0  0  0  0  0  0  0  0  0  0  0
   -3.3486   -0.3594    0.5646 C   0  0  0  0  0  0  0  0  0  0  0  0
   -3.3085   -0.3725    1.6754 H   0  0  0  0  0  0  0  0  0  0  0  0
   -4.4203   -0.4893    0.2778 H   0  0  0  0  0  0  0  0  0  0  0  0
   -3.4283    2.1211   -0.1180 C   0  0  0  0  0  0  0  0  0  0  0  0
   -4.5116    2.1788    0.0802 H   0  0  0  0  0  0  0  0  0  0  0  0
   -2.7268    3.2712   -0.5242 C   0  0  0  0  0  0  0  0  0  0  0  0
   -3.2620    4.2251   -0.6492 H   0  0  0  0  0  0  0  0  0  0  0  0
    3.2598    1.4713    1.5493 C   0  0  0  0  0  0  0  0  0  0  0  0
    4.1053    0.8705    1.1627 H   0  0  0  0  0  0  0  0  0  0  0  0
    3.5384    1.8111    2.5700 H   0  0  0  0  0  0  0  0  0  0  0  0
    3.1583    2.3781    0.9194 H   0  0  0  0  0  0  0  0  0  0  0  0
    1.9137   -1.1635   -2.3993 C   0  0  0  0  0  0  0  0  0  0  0  0
    1.3133   -2.0212   -2.0404 H   0  0  0  0  0  0  0  0  0  0  0  0
    2.6450   -1.5292   -3.1521 H   0  0  0  0  0  0  0  0  0  0  0  0
    1.2249   -0.4614   -2.9129 H   0  0  0  0  0  0  0  0  0  0  0  0
   -2.8197   -1.8002   -1.3289 C   0  0  0  0  0  0  0  0  0  0  0  0
   -2.6380   -0.8841   -1.9199 H   0  0  0  0  0  0  0  0  0  0  0  0
   -3.8782   -2.1249   -1.4714 H   0  0  0  0  0  0  0  0  0  0  0  0
   -2.1437   -2.5984   -1.6883 H   0  0  0  0  0  0  0  0  0  0  0  0
   -2.8743   -2.7125    0.9020 C   0  0  0  0  0  0  0  0  0  0  0  0
   -2.2991   -3.5850    0.5456 H   0  0  0  0  0  0  0  0  0  0  0  0
   -3.9630   -2.9440    0.8344 H   0  0  0  0  0  0  0  0  0  0  0  0
   -2.6099   -2.5284    1.9602 H   0  0  0  0  0  0  0  0  0  0  0  0
    2.1468   -0.6037    2.4704 C   0  0  0  0  0  0  0  0  0  0  0  0
    1.2085   -1.1897    2.5164 H   0  0  0  0  0  0  0  0  0  0  0  0
    2.4343   -0.3164    3.5045 H   0  0  0  0  0  0  0  0  0  0  0  0
    2.9382   -1.2652    2.0725 H   0  0  0  0  0  0  0  0  0  0  0  0
    3.5653   -1.5168   -0.5406 C   0  0  0  0  0  0  0  0  0  0  0  0
    4.1946   -1.0605    0.2480 H   0  0  0  0  0  0  0  0  0  0  0  0
    4.2526   -1.9601   -1.2928 H   0  0  0  0  0  0  0  0  0  0  0  0
    2.9845   -2.3433   -0.0906 H   0  0  0  0  0  0  0  0  0  0  0  0
    0.8643    1.5314    2.2920 C   0  0  0  0  0  0  0  0  0  0  0  0
    0.6832    2.4824    1.7544 H   0  0  0  0  0  0  0  0  0  0  0  0
    1.1882    1.7802    3.3254 H   0  0  0  0  0  0  0  0  0  0  0  0
   -0.1016    0.9921    2.3457 H   0  0  0  0  0  0  0  0  0  0  0  0
    3.5480    0.6478   -1.7957 C   0  0  0  0  0  0  0  0  0  0  0  0
    2.9781    1.3669   -2.4142 H   0  0  0  0  0  0  0  0  0  0  0  0
    4.3266    0.2015   -2.4512 H   0  0  0  0  0  0  0  0  0  0  0  0
    4.0694    1.2142   -1.0021 H   0  0  0  0  0  0  0  0  0  0  0  0
  1  8  1  0  0  0  0
  2 13  1  0  0  0  0
  2 32  1  0  0  0  0
  3  4  1  0  0  0  0
  4 13  1  0  0  0  0
  5  3  2  0  0  0  0
  6  5  1  0  0  0  0
  6 18  2  0  0  0  0
  7  6  1  0  0  0  0
  8 44  1  0  0  0  0
  8 36  1  0  0  0  0
  9  5  1  0  0  0  0
  9 10  1  0  0  0  0
  9  1  1  0  0  0  0
 11  9  1  0  0  0  0
 12 40  1  0  0  0  0
 12  1  1  0  0  0  0
 13 14  1  0  0  0  0
 15 13  1  0  0  0  0
 16  4  2  0  0  0  0
 16 17  1  0  0  0  0
 18 16  1  0  0  0  0
 19 18  1  0  0  0  0
 20  8  1  0  0  0  0
 20 22  1  0  0  0  0
 21 20  1  0  0  0  0
 23 20  1  0  0  0  0
 24 25  1  0  0  0  0
 24 12  1  0  0  0  0
 26 24  1  0  0  0  0
 27 24  1  0  0  0  0
 28  2  1  0  0  0  0
 29 28  1  0  0  0  0
 30 28  1  0  0  0  0
 31 28  1  0  0  0  0
 32 35  1  0  0  0  0
 33 32  1  0  0  0  0
 34 32  1  0  0  0  0
 36 37  1  0  0  0  0
 36 38  1  0  0  0  0
 39 36  1  0  0  0  0
 40 43  1  0  0  0  0
 40 41  1  0  0  0  0
 42 40  1  0  0  0  0
 44 47  1  0  0  0  0
 44 46  1  0  0  0  0
 45 44  1  0  0  0  0
 48 12  1  0  0  0  0
 48 51  1  0  0  0  0
 49 48  1  0  0  0  0
 50 48  1  0  0  0  0
M  END
