1,2,7
q = -1.0

 66 71  0  0  1  0  0  0  0  0999 V2000
    2.5083   -0.7842   -0.2564 P   0  0  0  0  0  0  0  0  0  0  0  0
   -1.2855    0.7227    0.8455 N   0  0  0  0  0  2  0  0  0  0  0  0
   -3.4653    1.3598    1.4707 C   0  0  0  0  0  0  0  0  0  0  0  0
   -3.7548    0.8907    2.4369 H   0  0  0  0  0  0  0  0  0  0  0  0
   -4.1865    2.1684    1.2439 H   0  0  0  0  0  0  0  0  0  0  0  0
    1.9351   -1.9167   -1.4029 O   0  0  0  0  0  0  0  0  0  0  0  0
   -0.1743   -1.0454   -0.6708 C   0  0  0  0  0  2  0  0  0  0  0  0
   -3.4618    0.3234    0.4128 N   0  0  0  0  0  0  0  0  0  0  0  0
   -1.7355    3.1215    0.6821 C   0  0  0  0  0  0  0  0  0  0  0  0
    3.6540    0.2330   -1.2452 C   0  0  0  0  0  0  0  0  0  0  0  0
    0.5552   -1.9224   -1.4951 C   0  0  0  0  0  0  0  0  0  0  0  0
   -4.5909   -1.8597    0.6141 C   0  0  0  0  0  0  0  0  0  0  0  0
   -3.6769   -2.2930    1.0458 H   0  0  0  0  0  0  0  0  0  0  0  0
    4.2142   -0.2461   -2.4457 C   0  0  0  0  0  0  0  0  0  0  0  0
    3.9334   -1.2402   -2.8236 H   0  0  0  0  0  0  0  0  0  0  0  0
   -1.5911   -1.0365   -0.7292 C   0  0  0  0  0  0  0  0  0  0  0  0
   -6.9253   -2.1079   -0.0924 C   0  0  0  0  0  0  0  0  0  0  0  0
   -1.9963    1.8483    1.4804 C   0  0  2  0  0  0  0  0  0  0  0  0
   -1.6137    1.9866    2.5103 H   0  0  0  0  0  0  0  0  0  0  0  0
   -5.7351   -2.6469    0.4403 C   0  0  0  0  0  0  0  0  0  0  0  0
   -5.7082   -3.7063    0.7406 H   0  0  0  0  0  0  0  0  0  0  0  0
   -4.6019   -0.5039    0.2284 C   0  0  0  0  0  0  0  0  0  0  0  0
    3.9408   -1.2965    2.0609 C   0  0  0  0  0  0  0  0  0  0  0  0
    3.5425   -0.3189    2.3856 H   0  0  0  0  0  0  0  0  0  0  0  0
   -2.1511   -0.0294    0.1849 C   0  0  0  0  0  0  0  0  0  0  0  0
   -2.2185    4.6037   -1.1985 C   0  0  0  0  0  0  0  0  0  0  0  0
   -2.8328    4.8522   -2.0775 H   0  0  0  0  0  0  0  0  0  0  0  0
   -0.6499    3.9466    1.0328 C   0  0  0  0  0  0  0  0  0  0  0  0
   -0.0032    3.6562    1.8754 H   0  0  0  0  0  0  0  0  0  0  0  0
   -0.1037   -2.7728   -2.3955 C   0  0  0  0  0  0  0  0  0  0  0  0
    0.4787   -3.4472   -3.0400 H   0  0  0  0  0  0  0  0  0  0  0  0
    3.5724   -1.8169    0.8030 C   0  0  0  0  0  0  0  0  0  0  0  0
    3.9811    1.5156   -0.7587 C   0  0  0  0  0  0  0  0  0  0  0  0
    3.5103    1.8839    0.1701 H   0  0  0  0  0  0  0  0  0  0  0  0
   -5.7842    0.0510   -0.2955 C   0  0  0  0  0  0  0  0  0  0  0  0
   -5.7975    1.1097   -0.5945 H   0  0  0  0  0  0  0  0  0  0  0  0
   -0.3590    5.0945    0.2812 C   0  0  0  0  0  0  0  0  0  0  0  0
    0.4946    5.7281    0.5666 H   0  0  0  0  0  0  0  0  0  0  0  0
   -2.2637   -1.8815   -1.6411 C   0  0  0  0  0  0  0  0  0  0  0  0
   -3.3585   -1.8712   -1.7214 H   0  0  0  0  0  0  0  0  0  0  0  0
    4.0322   -3.0807    0.3838 C   0  0  0  0  0  0  0  0  0  0  0  0
    3.7180   -3.4820   -0.5908 H   0  0  0  0  0  0  0  0  0  0  0  0
    4.8757   -3.8201    1.2257 C   0  0  0  0  0  0  0  0  0  0  0  0
    5.2344   -4.8102    0.9054 H   0  0  0  0  0  0  0  0  0  0  0  0
   -1.1441    5.4298   -0.8330 C   0  0  0  0  0  0  0  0  0  0  0  0
   -0.9151    6.3312   -1.4217 H   0  0  0  0  0  0  0  0  0  0  0  0
   -2.5107    3.4558   -0.4469 C   0  0  0  0  0  0  0  0  0  0  0  0
   -3.3443    2.8074   -0.7579 H   0  0  0  0  0  0  0  0  0  0  0  0
   -6.9283   -0.7429   -0.4459 C   0  0  0  0  0  0  0  0  0  0  0  0
   -7.8453   -0.2936   -0.8584 H   0  0  0  0  0  0  0  0  0  0  0  0
    4.7908   -2.0440    2.8889 C   0  0  0  0  0  0  0  0  0  0  0  0
    5.0802   -1.6437    3.8724 H   0  0  0  0  0  0  0  0  0  0  0  0
    5.2591   -3.3015    2.4737 C   0  0  0  0  0  0  0  0  0  0  0  0
    5.9214   -3.8861    3.1304 H   0  0  0  0  0  0  0  0  0  0  0  0
   -1.5109   -2.7350   -2.4624 C   0  0  0  0  0  0  0  0  0  0  0  0
   -2.0290   -3.3915   -3.1771 H   0  0  0  0  0  0  0  0  0  0  0  0
    5.1135    0.5616   -3.1563 C   0  0  0  0  0  0  0  0  0  0  0  0
    5.5494    0.1949   -4.0982 H   0  0  0  0  0  0  0  0  0  0  0  0
    4.8894    2.3086   -1.4754 C   0  0  0  0  0  0  0  0  0  0  0  0
    5.1477    3.3108   -1.1009 H   0  0  0  0  0  0  0  0  0  0  0  0
   -8.1438   -2.9714   -0.2967 C   0  0  0  0  0  0  0  0  0  0  0  0
   -8.0783   -3.5318   -1.2543 H   0  0  0  0  0  0  0  0  0  0  0  0
   -9.0719   -2.3684   -0.3327 H   0  0  0  0  0  0  0  0  0  0  0  0
   -8.2505   -3.7236    0.5102 H   0  0  0  0  0  0  0  0  0  0  0  0
    5.4551    1.8348   -2.6703 C   0  0  0  0  0  0  0  0  0  0  0  0
    6.1617    2.4646   -3.2321 H   0  0  0  0  0  0  0  0  0  0  0  0
  1 32  1  0  0  0  0
  2 18  1  0  0  0  0
  3 18  1  0  0  0  0
  3  4  1  0  0  0  0
  5  3  1  0  0  0  0
  6  1  1  0  0  0  0
  8  3  1  0  0  0  0
  9 28  1  0  0  0  0
  9 18  1  0  0  0  0
 10 33  1  0  0  0  0
 10  1  1  0  0  0  0
 11  6  1  0  0  0  0
 11  7  1  0  0  0  0
 12 13  1  0  0  0  0
 14 10  2  0  0  0  0
 15 14  1  0  0  0  0
 16  7  1  0  0  0  0
 16 25  2  0  0  0  0
 17 20  2  0  0  0  0
 18 19  1  1  0  0  0
 20 12  1  0  0  0  0
 20 21  1  0  0  0  0
 22  8  1  0  0  0  0
 22 12  2  0  0  0  0
 23 24  1  0  0  0  0
 23 51  1  0  0  0  0
 25  8  1  0  0  0  0
 25  2  1  0  0  0  0
 26 45  2  0  0  0  0
 26 47  1  0  0  0  0
 27 26  1  0  0  0  0
 28 29  1  0  0  0  0
 30 11  2  0  0  0  0
 31 30  1  0  0  0  0
 32 23  2  0  0  0  0
 33 34  1  0  0  0  0
 35 22  1  0  0  0  0
 36 35  1  0  0  0  0
 37 38  1  0  0  0  0
 37 28  2  0  0  0  0
 39 16  1  0  0  0  0
 40 39  1  0  0  0  0
 41 32  1  0  0  0  0
 41 43  2  0  0  0  0
 42 41  1  0  0  0  0
 43 53  1  0  0  0  0
 44 43  1  0  0  0  0
 45 37  1  0  0  0  0
 46 45  1  0  0  0  0
 47  9  2  0  0  0  0
 48 47  1  0  0  0  0
 49 35  2  0  0  0  0
 49 17  1  0  0  0  0
 50 49  1  0  0  0  0
 51 52  1  0  0  0  0
 53 51  2  0  0  0  0
 53 54  1  0  0  0  0
 55 30  1  0  0  0  0
 55 39  2  0  0  0  0
 56 55  1  0  0  0  0
 57 65  2  0  0  0  0
 57 14  1  0  0  0  0
 58 57  1  0  0  0  0
 59 60  1  0  0  0  0
 59 33  2  0  0  0  0
 61 17  1  0  0  0  0
 61 64  1  0  0  0  0
 62 61  1  0  0  0  0
 63 61  1  0  0  0  0
 65 59  1  0  0  0  0
 66 65  1  0  0  0  0
M  END
