1,4,5
q = -1.0

 48 49  0  0  0  0  0  0  0  0999 V2000
   -2.1090    0.0201    0.0587 P   0  0  0  0  0  0  0  0  0  0  0  0
   -2.3541    1.7110    0.1719 O   0  0  0  0  0  0  0  0  0  0  0  0
    4.8663   -0.8408    0.6294 O   0  0  0  0  0  0  0  0  0  0  0  0
    2.2642    0.2007   -0.1744 N   0  0  0  0  0  0  0  0  0  0  0  0
    0.0188    1.7528   -0.1714 C   0  0  0  0  0  3  0  0  0  0  0  0
   -1.1898    2.4512    0.0350 C   0  0  0  0  0  0  0  0  0  0  0  0
   -1.2066    3.8511    0.0933 C   0  0  0  0  0  0  0  0  0  0  0  0
   -2.1539    4.3850    0.2565 H   0  0  0  0  0  0  0  0  0  0  0  0
    0.0104    4.5466   -0.0555 C   0  0  0  0  0  0  0  0  0  0  0  0
    0.0073    5.6456   -0.0012 H   0  0  0  0  0  0  0  0  0  0  0  0
    1.2215    3.8654   -0.2728 C   0  0  0  0  0  0  0  0  0  0  0  0
    2.1573    4.4329   -0.3971 H   0  0  0  0  0  0  0  0  0  0  0  0
    1.2235    2.4587   -0.3434 C   0  0  0  0  0  0  0  0  0  0  0  0
    2.4209    1.6092   -0.6912 C   0  0  0  0  0  0  0  0  0  0  0  0
    2.4992    1.5247   -1.7962 H   0  0  0  0  0  0  0  0  0  0  0  0
    3.3725    2.0615   -0.3403 H   0  0  0  0  0  0  0  0  0  0  0  0
   -2.9001   -0.5863    1.6157 C   0  0  0  0  0  0  0  0  0  0  0  0
   -2.8030   -1.6918    1.5247 H   0  0  0  0  0  0  0  0  0  0  0  0
   -4.3742   -0.1801    1.7242 C   0  0  0  0  0  0  0  0  0  0  0  0
   -4.7924   -0.5352    2.6883 H   0  0  0  0  0  0  0  0  0  0  0  0
   -4.9953   -0.6112    0.9144 H   0  0  0  0  0  0  0  0  0  0  0  0
   -4.4802    0.9230    1.6937 H   0  0  0  0  0  0  0  0  0  0  0  0
   -2.0636   -0.1170    2.8134 C   0  0  0  0  0  0  0  0  0  0  0  0
   -2.4796   -0.5344    3.7528 H   0  0  0  0  0  0  0  0  0  0  0  0
   -2.0737    0.9890    2.8938 H   0  0  0  0  0  0  0  0  0  0  0  0
   -1.0105   -0.4468    2.7163 H   0  0  0  0  0  0  0  0  0  0  0  0
   -3.1943   -0.4300   -1.3678 C   0  0  0  0  0  0  0  0  0  0  0  0
   -4.1754    0.0468   -1.1494 H   0  0  0  0  0  0  0  0  0  0  0  0
   -2.6115    0.1774   -2.6497 C   0  0  0  0  0  0  0  0  0  0  0  0
   -3.2877   -0.0261   -3.5051 H   0  0  0  0  0  0  0  0  0  0  0  0
   -1.6193   -0.2639   -2.8742 H   0  0  0  0  0  0  0  0  0  0  0  0
   -2.4851    1.2743   -2.5619 H   0  0  0  0  0  0  0  0  0  0  0  0
   -3.3457   -1.9553   -1.4457 C   0  0  0  0  0  0  0  0  0  0  0  0
   -3.9158   -2.2282   -2.3572 H   0  0  0  0  0  0  0  0  0  0  0  0
   -3.8907   -2.3694   -0.5740 H   0  0  0  0  0  0  0  0  0  0  0  0
   -2.3545   -2.4538   -1.4916 H   0  0  0  0  0  0  0  0  0  0  0  0
    2.6970    0.0850    1.2563 C   0  0  0  0  0  0  0  0  0  0  0  0
    2.3251   -0.8944    1.6190 H   0  0  0  0  0  0  0  0  0  0  0  0
    2.1950    0.8849    1.8355 H   0  0  0  0  0  0  0  0  0  0  0  0
    4.2170    0.1439    1.4144 C   0  0  0  0  0  0  0  0  0  0  0  0
    4.6089    1.1622    1.1631 H   0  0  0  0  0  0  0  0  0  0  0  0
    4.4804   -0.0553    2.4726 H   0  0  0  0  0  0  0  0  0  0  0  0
    4.5444   -0.6811   -0.7429 C   0  0  0  0  0  0  0  0  0  0  0  0
    5.0622   -1.4916   -1.2941 H   0  0  0  0  0  0  0  0  0  0  0  0
    4.9437    0.2925   -1.1262 H   0  0  0  0  0  0  0  0  0  0  0  0
    3.0391   -0.7894   -0.9780 C   0  0  0  0  0  0  0  0  0  0  0  0
    2.7821   -0.6491   -2.0466 H   0  0  0  0  0  0  0  0  0  0  0  0
    2.6772   -1.7934   -0.6728 H   0  0  0  0  0  0  0  0  0  0  0  0
  1  2  1  0  0  0  0
  1 17  1  0  0  0  0
  3 40  1  0  0  0  0
  4 37  1  0  0  0  0
  5  6  1  0  0  0  0
  6  7  2  0  0  0  0
  6  2  1  0  0  0  0
  7  8  1  0  0  0  0
  9 10  1  0  0  0  0
  9  7  1  0  0  0  0
 11  9  2  0  0  0  0
 12 11  1  0  0  0  0
 13 11  1  0  0  0  0
 13  5  2  0  0  0  0
 14 13  1  0  0  0  0
 14 16  1  0  0  0  0
 14  4  1  0  0  0  0
 15 14  1  0  0  0  0
 17 19  1  0  0  0  0
 17 23  1  0  0  0  0
 18 17  1  0  0  0  0
 19 20  1  0  0  0  0
 21 19  1  0  0  0  0
 22 19  1  0  0  0  0
 23 25  1  0  0  0  0
 23 24  1  0  0  0  0
 26 23  1  0  0  0  0
 27 28  1  0  0  0  0
 27  1  1  0  0  0  0
 29 32  1  0  0  0  0
 29 27  1  0  0  0  0
 30 29  1  0  0  0  0
 31 29  1  0  0  0  0
 33 27  1  0  0  0  0
 33 35  1  0  0  0  0
 34 33  1  0  0  0  0
 36 33  1  0  0  0  0
 37 40  1  0  0  0  0
 37 38  1  0  0  0  0
 37 39  1  0  0  0  0
 40 42  1  0  0  0  0
 41 40  1  0  0  0  0
 43  3  1  0  0  0  0
 44 43  1  0  0  0  0
 45 43  1  0  0  0  0
 46 43  1  0  0  0  0
 46 48  1  0  0  0  0
 46  4  1  0  0  0  0
 47 46  1  0  0  0  0
M  END
