1,2,3
q = -1.0

 76 77  0  0  0  0  0  0  0  0999 V2000
   -3.0486   -0.0397    0.8688 P   0  0  0  0  0  0  0  0  0  0  0  0
    0.5539    0.0334   -1.2024 N   0  0  0  0  0  0  0  0  0  0  0  0
   -0.4461   -0.1083    1.2581 C   0  0  0  0  0  3  0  0  0  0  0  0
   -2.4877   -0.0587    2.4913 O   0  0  0  0  0  0  0  0  0  0  0  0
    0.9632   -0.1505    1.2289 C   0  0  0  0  0  0  0  0  0  0  0  0
    1.6942   -0.1633    2.4363 C   0  0  0  0  0  0  0  0  0  0  0  0
    2.7936   -0.1941    2.4011 H   0  0  0  0  0  0  0  0  0  0  0  0
    1.0111   -0.1425    3.6642 C   0  0  0  0  0  0  0  0  0  0  0  0
    1.5824   -0.1527    4.6055 H   0  0  0  0  0  0  0  0  0  0  0  0
   -1.1042   -0.0940    2.5091 C   0  0  0  0  0  0  0  0  0  0  0  0
   -0.3965   -0.1119    3.7177 C   0  0  0  0  0  0  0  0  0  0  0  0
   -0.9384   -0.0994    4.6745 H   0  0  0  0  0  0  0  0  0  0  0  0
    0.6644   -0.9358   -2.3230 C   0  0  0  0  0  0  0  0  0  0  0  0
    1.7178   -0.9622   -2.6892 H   0  0  0  0  0  0  0  0  0  0  0  0
    0.0243   -0.5537   -3.1431 H   0  0  0  0  0  0  0  0  0  0  0  0
    0.1567   -2.3391   -1.9920 C   0  0  0  0  0  0  0  0  0  0  0  0
   -0.8578   -2.2352   -1.5510 H   0  0  0  0  0  0  0  0  0  0  0  0
    0.0433   -2.9063   -2.9460 H   0  0  0  0  0  0  0  0  0  0  0  0
   -4.1289   -1.5481    0.8370 C   0  0  0  0  0  0  0  0  0  0  0  0
   -4.6385   -1.4730   -0.1495 H   0  0  0  0  0  0  0  0  0  0  0  0
    0.9420   -3.0643   -1.0592 O   0  0  0  0  0  0  0  0  0  0  0  0
   -5.1515   -1.5625    1.9781 C   0  0  0  0  0  0  0  0  0  0  0  0
   -4.6377   -1.5256    2.9595 H   0  0  0  0  0  0  0  0  0  0  0  0
   -5.7502   -2.4962    1.9393 H   0  0  0  0  0  0  0  0  0  0  0  0
   -5.8584   -0.7110    1.9276 H   0  0  0  0  0  0  0  0  0  0  0  0
    0.5542    2.4865   -0.6607 C   0  0  0  0  0  0  0  0  0  0  0  0
   -0.5072    2.5203   -0.3405 H   0  0  0  0  0  0  0  0  0  0  0  0
    1.1499    2.2366    0.2437 H   0  0  0  0  0  0  0  0  0  0  0  0
    0.7251    1.4104   -1.7358 C   0  0  0  0  0  0  0  0  0  0  0  0
   -0.0309    1.5655   -2.5318 H   0  0  0  0  0  0  0  0  0  0  0  0
    1.7396    1.4917   -2.1915 H   0  0  0  0  0  0  0  0  0  0  0  0
    0.8659    3.7842   -1.1435 O   0  0  0  0  0  0  0  0  0  0  0  0
   -5.2562    1.4550   -0.1059 C   0  0  0  0  0  0  0  0  0  0  0  0
   -4.8136    1.4293   -1.1223 H   0  0  0  0  0  0  0  0  0  0  0  0
   -5.8619    2.3801   -0.0107 H   0  0  0  0  0  0  0  0  0  0  0  0
   -5.9462    0.5932   -0.0116 H   0  0  0  0  0  0  0  0  0  0  0  0
    1.5858   -0.2417   -0.1334 C   0  0  0  0  0  0  0  0  0  0  0  0
    1.9787   -1.2611   -0.2898 H   0  0  0  0  0  0  0  0  0  0  0  0
    2.4490    0.4427   -0.2605 H   0  0  0  0  0  0  0  0  0  0  0  0
   -4.1600    1.4479    0.9641 C   0  0  0  0  0  0  0  0  0  0  0  0
   -4.6123    1.3589    1.9771 H   0  0  0  0  0  0  0  0  0  0  0  0
   -3.2317   -2.7926    0.8376 C   0  0  0  0  0  0  0  0  0  0  0  0
   -2.5285   -2.7822   -0.0179 H   0  0  0  0  0  0  0  0  0  0  0  0
   -3.8499   -3.7114    0.7721 H   0  0  0  0  0  0  0  0  0  0  0  0
   -2.6298   -2.8483    1.7675 H   0  0  0  0  0  0  0  0  0  0  0  0
    3.8012   -2.6333   -0.4728 O   0  0  0  0  0  0  0  0  0  0  0  0
    2.0390   -3.7710   -1.6052 C   0  0  0  0  0  0  0  0  0  0  0  0
    2.4648   -3.2573   -2.4990 H   0  0  0  0  0  0  0  0  0  0  0  0
    1.7269   -4.7958   -1.9253 H   0  0  0  0  0  0  0  0  0  0  0  0
    3.1314   -3.8772   -0.5587 C   0  0  0  0  0  0  0  0  0  0  0  0
    2.6665   -4.1549    0.4179 H   0  0  0  0  0  0  0  0  0  0  0  0
    3.8466   -4.6921   -0.8363 H   0  0  0  0  0  0  0  0  0  0  0  0
    2.2358    4.0723   -1.3468 C   0  0  0  0  0  0  0  0  0  0  0  0
    2.2602    5.1434   -1.6328 H   0  0  0  0  0  0  0  0  0  0  0  0
    2.6762    3.4951   -2.1969 H   0  0  0  0  0  0  0  0  0  0  0  0
    4.6625   -0.1032    0.7968 O   0  0  0  0  0  0  0  0  0  0  0  0
    5.4637   -1.2427    0.5612 C   0  0  0  0  0  0  0  0  0  0  0  0
    6.2904   -1.3005    1.3140 H   0  0  0  0  0  0  0  0  0  0  0  0
    5.9405   -1.1889   -0.4486 H   0  0  0  0  0  0  0  0  0  0  0  0
    3.1494    3.8701   -0.1391 C   0  0  0  0  0  0  0  0  0  0  0  0
    3.9859    4.6125   -0.1832 H   0  0  0  0  0  0  0  0  0  0  0  0
    2.5757    4.0829    0.7968 H   0  0  0  0  0  0  0  0  0  0  0  0
   -3.2880    2.7088    0.9130 C   0  0  0  0  0  0  0  0  0  0  0  0
   -2.4676    2.6728    1.6570 H   0  0  0  0  0  0  0  0  0  0  0  0
   -3.9025    3.6089    1.1210 H   0  0  0  0  0  0  0  0  0  0  0  0
   -2.8384    2.8244   -0.0941 H   0  0  0  0  0  0  0  0  0  0  0  0
    4.6480   -2.5172    0.6504 C   0  0  0  0  0  0  0  0  0  0  0  0
    5.3648   -3.3754    0.6945 H   0  0  0  0  0  0  0  0  0  0  0  0
    4.0587   -2.5271    1.6001 H   0  0  0  0  0  0  0  0  0  0  0  0
    3.6868    2.5560   -0.1336 O   0  0  0  0  0  0  0  0  0  0  0  0
    5.4020    1.0983    0.7367 C   0  0  0  0  0  0  0  0  0  0  0  0
    5.8957    1.2100   -0.2604 H   0  0  0  0  0  0  0  0  0  0  0  0
    6.2137    1.0945    1.5082 H   0  0  0  0  0  0  0  0  0  0  0  0
    4.5204    2.3074    0.9814 C   0  0  0  0  0  0  0  0  0  0  0  0
    3.9171    2.1629    1.9109 H   0  0  0  0  0  0  0  0  0  0  0  0
    5.1973    3.1802    1.1572 H   0  0  0  0  0  0  0  0  0  0  0  0
  1 40  1  0  0  0  0
  1  4  1  0  0  0  0
  2 37  1  0  0  0  0
  3 10  1  0  0  0  0
  4 10  1  0  0  0  0
  5  3  2  0  0  0  0
  5  6  1  0  0  0  0
  6  8  2  0  0  0  0
  7  6  1  0  0  0  0
  8 11  1  0  0  0  0
  8  9  1  0  0  0  0
 10 11  2  0  0  0  0
 11 12  1  0  0  0  0
 13 16  1  0  0  0  0
 13  2  1  0  0  0  0
 14 13  1  0  0  0  0
 15 13  1  0  0  0  0
 16 17  1  0  0  0  0
 16 21  1  0  0  0  0
 18 16  1  0  0  0  0
 19 42  1  0  0  0  0
 19  1  1  0  0  0  0
 19 22  1  0  0  0  0
 20 19  1  0  0  0  0
 22 23  1  0  0  0  0
 24 22  1  0  0  0  0
 25 22  1  0  0  0  0
 26 27  1  0  0  0  0
 26 28  1  0  0  0  0
 29  2  1  0  0  0  0
 29 26  1  0  0  0  0
 30 29  1  0  0  0  0
 31 29  1  0  0  0  0
 32 26  1  0  0  0  0
 33 36  1  0  0  0  0
 33 35  1  0  0  0  0
 33 40  1  0  0  0  0
 34 33  1  0  0  0  0
 37  5  1  0  0  0  0
 38 37  1  0  0  0  0
 39 37  1  0  0  0  0
 40 41  1  0  0  0  0
 42 45  1  0  0  0  0
 43 42  1  0  0  0  0
 44 42  1  0  0  0  0
 46 67  1  0  0  0  0
 47 21  1  0  0  0  0
 47 50  1  0  0  0  0
 48 47  1  0  0  0  0
 49 47  1  0  0  0  0
 50 46  1  0  0  0  0
 50 51  1  0  0  0  0
 52 50  1  0  0  0  0
 53 32  1  0  0  0  0
 53 60  1  0  0  0  0
 54 53  1  0  0  0  0
 55 53  1  0  0  0  0
 57 67  1  0  0  0  0
 57 56  1  0  0  0  0
 57 58  1  0  0  0  0
 59 57  1  0  0  0  0
 60 70  1  0  0  0  0
 60 62  1  0  0  0  0
 61 60  1  0  0  0  0
 63 40  1  0  0  0  0
 63 65  1  0  0  0  0
 63 64  1  0  0  0  0
 66 63  1  0  0  0  0
 67 68  1  0  0  0  0
 67 69  1  0  0  0  0
 70 74  1  0  0  0  0
 71 56  1  0  0  0  0
 71 74  1  0  0  0  0
 71 73  1  0  0  0  0
 72 71  1  0  0  0  0
 74 76  1  0  0  0  0
 74 75  1  0  0  0  0
M  END
