1,2,20
q = -1.0, confidence = 0.0

 42 45  0  0  1  0  0  0  0  0999 V2000
    1.0645    0.3717    0.1588 P   0  0  0  0  0  0  0  0  0  0  0  0
   -2.9030   -1.0470   -0.4542 N   0  0  0  0  0  2  0  0  0  0  0  0
   -3.6871   -0.0132   -0.0382 N   0  0  0  0  0  0  0  0  0  0  0  0
    0.5652    1.8975    0.8142 N   0  0  0  0  0  0  0  0  0  0  0  0
    1.2004    2.5239    1.3112 H   0  0  0  0  0  0  0  0  0  0  0  0
   -3.7217   -2.0202   -0.8755 C   0  0  0  0  0  3  0  0  0  0  0  0
   -3.2862   -2.9525   -1.2538 H   0  0  0  0  0  0  0  0  0  0  0  0
   -5.0677   -1.6102   -0.7309 C   0  0  0  0  0  0  0  0  0  0  0  0
   -5.9705   -2.1743   -0.9841 H   0  0  0  0  0  0  0  0  0  0  0  0
   -5.0053   -0.3235   -0.1929 C   0  0  0  0  0  0  0  0  0  0  0  0
   -5.7920    0.3844    0.0858 H   0  0  0  0  0  0  0  0  0  0  0  0
   -3.0119    1.1349    0.4586 C   0  0  1  0  0  3  0  0  0  0  0  0
   -3.6565    2.2783    0.9658 C   0  0  0  0  0  0  0  0  0  0  0  0
   -4.7523    2.3575    1.0003 H   0  0  0  0  0  0  0  0  0  0  0  0
   -2.8497    3.3248    1.4407 C   0  0  0  0  0  0  0  0  0  0  0  0
   -3.3287    4.2293    1.8438 H   0  0  0  0  0  0  0  0  0  0  0  0
   -1.4436    3.2502    1.4165 C   0  0  0  0  0  0  0  0  0  0  0  0
   -0.8413    4.0910    1.7932 H   0  0  0  0  0  0  0  0  0  0  0  0
   -0.8205    2.0946    0.9034 C   0  0  0  0  0  0  0  0  0  0  0  0
   -1.6137    1.0273    0.4222 C   0  0  0  0  0  2  0  0  0  0  0  0
    2.1379    0.7614   -1.2679 C   0  0  0  0  0  0  0  0  0  0  0  0
    2.4826    2.0808   -1.6132 C   0  0  0  0  0  0  0  0  0  0  0  0
    2.0781    2.9220   -1.0299 H   0  0  0  0  0  0  0  0  0  0  0  0
    3.3221    2.3142   -2.7141 C   0  0  0  0  0  0  0  0  0  0  0  0
    3.5935    3.3459   -2.9852 H   0  0  0  0  0  0  0  0  0  0  0  0
    3.8049    1.2357   -3.4714 C   0  0  0  0  0  0  0  0  0  0  0  0
    4.4599    1.4217   -4.3362 H   0  0  0  0  0  0  0  0  0  0  0  0
    3.4404   -0.0801   -3.1363 C   0  0  0  0  0  0  0  0  0  0  0  0
    3.8014   -0.9243   -3.7432 H   0  0  0  0  0  0  0  0  0  0  0  0
    2.6052   -0.3249   -2.0385 C   0  0  0  0  0  0  0  0  0  0  0  0
    2.2789   -1.3496   -1.7908 H   0  0  0  0  0  0  0  0  0  0  0  0
    2.2158   -0.3591    1.3802 C   0  0  0  0  0  0  0  0  0  0  0  0
    3.3000    0.3918    1.8813 C   0  0  0  0  0  0  0  0  0  0  0  0
    3.4896    1.4145    1.5158 H   0  0  0  0  0  0  0  0  0  0  0  0
    4.1581   -0.1721    2.8345 C   0  0  0  0  0  0  0  0  0  0  0  0
    5.0011    0.4151    3.2291 H   0  0  0  0  0  0  0  0  0  0  0  0
    3.9484   -1.4909    3.2744 C   0  0  0  0  0  0  0  0  0  0  0  0
    4.6267   -1.9338    4.0197 H   0  0  0  0  0  0  0  0  0  0  0  0
    2.8855   -2.2458    2.7556 C   0  0  0  0  0  0  0  0  0  0  0  0
    2.7317   -3.2839    3.0868 H   0  0  0  0  0  0  0  0  0  0  0  0
    2.0129   -1.6851    1.8091 C   0  0  0  0  0  0  0  0  0  0  0  0
    1.1945   -2.2763    1.3649 H   0  0  0  0  0  0  0  0  0  0  0  0
  1  4  1  0  0  0  0
  1 32  1  0  0  0  0
  2  3  1  0  0  0  0
  4 19  1  0  0  0  0
  4  5  1  0  0  0  0
  6  8  1  0  0  0  0
  6  2  1  0  0  0  0
  7  6  1  0  0  0  0
  8 10  2  0  0  0  0
  9  8  1  0  0  0  0
 10  3  1  0  0  0  0
 10 11  1  0  0  0  0
 12  3  1  1  0  0  0
 12 13  1  0  0  0  0
 13 14  1  0  0  0  0
 13 15  2  0  0  0  0
 15 16  1  0  0  0  0
 17 15  1  0  0  0  0
 17 18  1  0  0  0  0
 19 17  2  0  0  0  0
 20 12  1  0  0  0  0
 20 19  1  0  0  0  0
 21  1  1  0  0  0  0
 22 21  1  0  0  0  0
 22 23  1  0  0  0  0
 24 22  2  0  0  0  0
 25 24  1  0  0  0  0
 26 28  2  0  0  0  0
 26 24  1  0  0  0  0
 27 26  1  0  0  0  0
 28 30  1  0  0  0  0
 29 28  1  0  0  0  0
 30 31  1  0  0  0  0
 30 21  2  0  0  0  0
 32 41  2  0  0  0  0
 32 33  1  0  0  0  0
 33 35  2  0  0  0  0
 34 33  1  0  0  0  0
 35 36  1  0  0  0  0
 35 37  1  0  0  0  0
 37 38  1  0  0  0  0
 39 40  1  0  0  0  0
 39 37  2  0  0  0  0
 41 39  1  0  0  0  0
 42 41  1  0  0  0  0
M  END
