1,3,4
q = -1.0, confidence = 0.0

 50 51  0  0  1  0  0  0  0  0999 V2000
   -2.4868   -0.4110   -0.1378 N   0  0  0  0  0  2  0  0  0  0  0  0
    1.7667    1.8072   -0.2671 O   0  0  0  0  0  0  0  0  0  0  0  0
    1.8474    0.0914   -0.1047 P   0  0  0  0  0  0  0  0  0  0  0  0
   -0.5964    1.4236   -0.1045 C   0  0  0  0  0  3  0  0  0  0  0  0
    0.4950    2.3249   -0.1397 C   0  0  0  0  0  0  0  0  0  0  0  0
    0.2810    3.7023   -0.0286 C   0  0  0  0  0  0  0  0  0  0  0  0
    1.1385    4.3903   -0.0604 H   0  0  0  0  0  0  0  0  0  0  0  0
   -1.0386    4.1837    0.1319 C   0  0  0  0  0  0  0  0  0  0  0  0
   -1.2051    5.2670    0.2244 H   0  0  0  0  0  0  0  0  0  0  0  0
   -2.1285    3.3078    0.1798 C   0  0  0  0  0  0  0  0  0  0  0  0
   -3.1437    3.7103    0.3124 H   0  0  0  0  0  0  0  0  0  0  0  0
   -1.9153    1.9132    0.0521 C   0  0  0  0  0  0  0  0  0  0  0  0
   -2.9489    0.8774    0.0352 C   0  0  1  0  0  3  0  0  0  0  0  0
   -4.3298    1.1314    0.1449 C   0  0  0  0  0  0  0  0  0  0  0  0
   -4.6769    2.1607    0.3046 H   0  0  0  0  0  0  0  0  0  0  0  0
   -5.2346    0.0758    0.0350 C   0  0  0  0  0  0  0  0  0  0  0  0
   -6.3163    0.2569    0.1237 H   0  0  0  0  0  0  0  0  0  0  0  0
   -4.7484   -1.2141   -0.2178 C   0  0  0  0  0  0  0  0  0  0  0  0
   -5.4335   -2.0632   -0.3489 H   0  0  0  0  0  0  0  0  0  0  0  0
   -3.3631   -1.4357   -0.3161 C   0  0  0  0  0  0  0  0  0  0  0  0
   -2.8168   -2.7910   -0.6473 C   0  0  0  0  0  0  0  0  0  0  0  0
   -2.1477   -2.7269   -1.5298 H   0  0  0  0  0  0  0  0  0  0  0  0
   -3.6335   -3.5034   -0.8653 H   0  0  0  0  0  0  0  0  0  0  0  0
   -2.1919   -3.1715    0.1865 H   0  0  0  0  0  0  0  0  0  0  0  0
    2.8671   -0.3805   -1.6291 C   0  0  0  0  0  0  0  0  0  0  0  0
    2.2208    0.3308   -2.8332 C   0  0  0  0  0  0  0  0  0  0  0  0
    2.2874    1.4316   -2.7389 H   0  0  0  0  0  0  0  0  0  0  0  0
    1.1540    0.0567   -2.9487 H   0  0  0  0  0  0  0  0  0  0  0  0
    2.7536    0.0234   -3.7574 H   0  0  0  0  0  0  0  0  0  0  0  0
    4.3443    0.0306   -1.5460 C   0  0  0  0  0  0  0  0  0  0  0  0
    4.8922   -0.5207   -0.7583 H   0  0  0  0  0  0  0  0  0  0  0  0
    4.4602    1.1173   -1.3673 H   0  0  0  0  0  0  0  0  0  0  0  0
    4.8351   -0.2050   -2.5141 H   0  0  0  0  0  0  0  0  0  0  0  0
    2.7299   -1.9067   -1.7908 C   0  0  0  0  0  0  0  0  0  0  0  0
    3.2539   -2.2250   -2.7167 H   0  0  0  0  0  0  0  0  0  0  0  0
    1.6653   -2.2052   -1.8701 H   0  0  0  0  0  0  0  0  0  0  0  0
    3.1721   -2.4630   -0.9418 H   0  0  0  0  0  0  0  0  0  0  0  0
    2.8148   -0.0057    1.5230 C   0  0  0  0  0  0  0  0  0  0  0  0
    3.9786    0.9983    1.5850 C   0  0  0  0  0  0  0  0  0  0  0  0
    3.6432    2.0212    1.3276 H   0  0  0  0  0  0  0  0  0  0  0  0
    4.8198    0.7272    0.9234 H   0  0  0  0  0  0  0  0  0  0  0  0
    4.3686    1.0170    2.6246 H   0  0  0  0  0  0  0  0  0  0  0  0
    3.2972   -1.4508    1.7334 C   0  0  0  0  0  0  0  0  0  0  0  0
    4.0877   -1.7382    1.0117 H   0  0  0  0  0  0  0  0  0  0  0  0
    2.4551   -2.1693    1.6620 H   0  0  0  0  0  0  0  0  0  0  0  0
    3.7330   -1.5389    2.7512 H   0  0  0  0  0  0  0  0  0  0  0  0
    1.7856    0.3652    2.6131 C   0  0  0  0  0  0  0  0  0  0  0  0
    2.2993    0.3624    3.5976 H   0  0  0  0  0  0  0  0  0  0  0  0
    0.9552   -0.3652    2.6533 H   0  0  0  0  0  0  0  0  0  0  0  0
    1.3651    1.3788    2.4557 H   0  0  0  0  0  0  0  0  0  0  0  0
  1 13  1  0  0  0  0
  2  5  1  0  0  0  0
  2  3  1  0  0  0  0
  3 38  1  0  0  0  0
  4 12  1  0  0  0  0
  5  4  2  0  0  0  0
  5  6  1  0  0  0  0
  6  8  2  0  0  0  0
  7  6  1  0  0  0  0
  8 10  1  0  0  0  0
  8  9  1  0  0  0  0
 10 11  1  0  0  0  0
 12 10  2  0  0  0  0
 13 12  1  6  0  0  0
 13 14  1  0  0  0  0
 14 15  1  0  0  0  0
 16 17  1  0  0  0  0
 16 14  2  0  0  0  0
 18 16  1  0  0  0  0
 19 18  1  0  0  0  0
 20 18  2  0  0  0  0
 20  1  1  0  0  0  0
 21 20  1  0  0  0  0
 21 24  1  0  0  0  0
 22 21  1  0  0  0  0
 23 21  1  0  0  0  0
 25 30  1  0  0  0  0
 25  3  1  0  0  0  0
 26 27  1  0  0  0  0
 26 25  1  0  0  0  0
 28 26  1  0  0  0  0
 29 26  1  0  0  0  0
 30 32  1  0  0  0  0
 30 31  1  0  0  0  0
 33 30  1  0  0  0  0
 34 25  1  0  0  0  0
 34 37  1  0  0  0  0
 35 34  1  0  0  0  0
 36 34  1  0  0  0  0
 38 39  1  0  0  0  0
 38 43  1  0  0  0  0
 38 47  1  0  0  0  0
 39 42  1  0  0  0  0
 40 39  1  0  0  0  0
 41 39  1  0  0  0  0
 43 46  1  0  0  0  0
 44 43  1  0  0  0  0
 45 43  1  0  0  0  0
 47 49  1  0  0  0  0
 47 48  1  0  0  0  0
 50 47  1  0  0  0  0
M  END
