1,4,5
q = -1.0

 51 54  0  0  0  0  0  0  0  0999 V2000
   -1.4435   -0.3514   -0.0175 P   0  0  0  0  0  0  0  0  0  0  0  0
   -2.1686    1.1977    0.0337 O   0  0  0  0  0  0  0  0  0  0  0  0
   -2.9610    3.7928    0.0895 O   0  0  0  0  0  0  0  0  0  0  0  0
    2.6433    1.0507    0.1190 N   0  0  0  0  0  2  0  0  0  0  0  0
    0.1273    1.8625    0.0886 C   0  0  0  0  0  2  0  0  0  0  0  0
   -1.2243    2.2000    0.0755 C   0  0  0  0  0  0  0  0  0  0  0  0
   -1.6260    3.5617    0.1029 C   0  0  0  0  0  0  0  0  0  0  0  0
   -0.6238    4.5645    0.1411 C   0  0  0  0  0  0  0  0  0  0  0  0
   -0.9158    5.6224    0.1619 H   0  0  0  0  0  0  0  0  0  0  0  0
    0.7374    4.2281    0.1515 C   0  0  0  0  0  0  0  0  0  0  0  0
    1.4948    5.0266    0.1790 H   0  0  0  0  0  0  0  0  0  0  0  0
    1.1271    2.8709    0.1236 C   0  0  0  0  0  0  0  0  0  0  0  0
   -2.2701   -1.1723    1.3868 C   0  0  0  0  0  0  0  0  0  0  0  0
   -3.4091   -0.5956    1.9842 C   0  0  0  0  0  0  0  0  0  0  0  0
   -3.7798    0.3761    1.6270 H   0  0  0  0  0  0  0  0  0  0  0  0
   -4.0453   -1.2650    3.0396 C   0  0  0  0  0  0  0  0  0  0  0  0
   -4.9327   -0.8167    3.5120 H   0  0  0  0  0  0  0  0  0  0  0  0
   -3.5521   -2.4988    3.4947 C   0  0  0  0  0  0  0  0  0  0  0  0
   -4.0554   -3.0193    4.3238 H   0  0  0  0  0  0  0  0  0  0  0  0
   -2.4119   -3.0636    2.9002 C   0  0  0  0  0  0  0  0  0  0  0  0
   -2.0161   -4.0236    3.2646 H   0  0  0  0  0  0  0  0  0  0  0  0
   -1.7615   -2.4034    1.8478 C   0  0  0  0  0  0  0  0  0  0  0  0
   -0.8479   -2.8237    1.3928 H   0  0  0  0  0  0  0  0  0  0  0  0
   -2.2110   -1.0501   -1.5185 C   0  0  0  0  0  0  0  0  0  0  0  0
   -3.3388   -0.4343   -2.0983 C   0  0  0  0  0  0  0  0  0  0  0  0
   -3.7349    0.4964   -1.6667 H   0  0  0  0  0  0  0  0  0  0  0  0
   -3.9307   -1.0111   -3.2312 C   0  0  0  0  0  0  0  0  0  0  0  0
   -4.8088   -0.5317   -3.6901 H   0  0  0  0  0  0  0  0  0  0  0  0
   -3.4047   -2.1919   -3.7807 C   0  0  0  0  0  0  0  0  0  0  0  0
   -3.8732   -2.6396   -4.6705 H   0  0  0  0  0  0  0  0  0  0  0  0
   -2.2760   -2.7955   -3.2027 C   0  0  0  0  0  0  0  0  0  0  0  0
   -1.8541   -3.7129   -3.6402 H   0  0  0  0  0  0  0  0  0  0  0  0
   -1.6696   -2.2272   -2.0731 C   0  0  0  0  0  0  0  0  0  0  0  0
   -0.7657   -2.6776   -1.6278 H   0  0  0  0  0  0  0  0  0  0  0  0
   -3.4151    5.1351    0.1180 C   0  0  0  0  0  0  0  0  0  0  0  0
   -3.0861    5.6618    1.0411 H   0  0  0  0  0  0  0  0  0  0  0  0
   -4.5195    5.0898    0.1022 H   0  0  0  0  0  0  0  0  0  0  0  0
   -3.0622    5.7084   -0.7679 H   0  0  0  0  0  0  0  0  0  0  0  0
    2.4725    2.3550    0.1320 C   0  0  0  0  0  0  0  0  0  0  0  0
    3.3512    3.0289    0.1686 H   0  0  0  0  0  0  0  0  0  0  0  0
    3.9406    0.4966    0.0566 C   0  0  0  0  0  0  0  0  0  0  0  0
    4.9235    1.0345   -0.8053 C   0  0  0  0  0  0  0  0  0  0  0  0
    4.6607    1.8681   -1.4737 H   0  0  0  0  0  0  0  0  0  0  0  0
    6.2090    0.4787   -0.8381 C   0  0  0  0  0  0  0  0  0  0  0  0
    6.9643    0.8973   -1.5205 H   0  0  0  0  0  0  0  0  0  0  0  0
    6.5265   -0.6180   -0.0204 C   0  0  0  0  0  0  0  0  0  0  0  0
    7.5348   -1.0573   -0.0527 H   0  0  0  0  0  0  0  0  0  0  0  0
    5.5448   -1.1631    0.8237 C   0  0  0  0  0  0  0  0  0  0  0  0
    5.7819   -2.0307    1.4576 H   0  0  0  0  0  0  0  0  0  0  0  0
    4.2546   -0.6208    0.8592 C   0  0  0  0  0  0  0  0  0  0  0  0
    3.4735   -1.0526    1.4988 H   0  0  0  0  0  0  0  0  0  0  0  0
  1  2  1  0  0  0  0
  1 13  1  0  0  0  0
  2  6  1  0  0  0  0
  3  7  1  0  0  0  0
  3 35  1  0  0  0  0
  4 39  1  0  0  0  0
  5 12  1  0  0  0  0
  6  5  1  0  0  0  0
  6  7  2  0  0  0  0
  7  8  1  0  0  0  0
  8 10  2  0  0  0  0
  8  9  1  0  0  0  0
 10 11  1  0  0  0  0
 12 39  2  0  0  0  0
 12 10  1  0  0  0  0
 13 22  2  0  0  0  0
 13 14  1  0  0  0  0
 14 16  2  0  0  0  0
 15 14  1  0  0  0  0
 16 18  1  0  0  0  0
 16 17  1  0  0  0  0
 18 19  1  0  0  0  0
 20 21  1  0  0  0  0
 20 18  2  0  0  0  0
 22 20  1  0  0  0  0
 23 22  1  0  0  0  0
 24  1  1  0  0  0  0
 25 26  1  0  0  0  0
 25 24  2  0  0  0  0
 27 25  1  0  0  0  0
 28 27  1  0  0  0  0
 29 27  2  0  0  0  0
 29 31  1  0  0  0  0
 30 29  1  0  0  0  0
 31 33  2  0  0  0  0
 32 31  1  0  0  0  0
 33 34  1  0  0  0  0
 33 24  1  0  0  0  0
 35 36  1  0  0  0  0
 37 35  1  0  0  0  0
 38 35  1  0  0  0  0
 39 40  1  0  0  0  0
 41  4  1  0  0  0  0
 41 50  1  0  0  0  0
 42 41  2  0  0  0  0
 43 42  1  0  0  0  0
 44 42  1  0  0  0  0
 44 46  2  0  0  0  0
 45 44  1  0  0  0  0
 46 48  1  0  0  0  0
 47 46  1  0  0  0  0
 48 50  2  0  0  0  0
 48 49  1  0  0  0  0
 50 51  1  0  0  0  0
M  END
