1,3,4
q = -1.0

 49 49  0  0  0  0  0  0  0  0999 V2000
    1.7917    0.1383   -0.0517 P   0  0  0  0  0  0  0  0  0  0  0  0
    1.6700    1.8385   -0.2138 O   0  0  0  0  0  0  0  0  0  0  0  0
   -2.4853   -0.7050    0.1293 N   0  0  0  0  0  0  0  0  0  0  0  0
   -0.6663    1.3014   -0.2777 C   0  0  0  0  0  3  0  0  0  0  0  0
    0.3580    2.2705   -0.3166 C   0  0  0  0  0  0  0  0  0  0  0  0
    0.0575    3.6329   -0.4544 C   0  0  0  0  0  0  0  0  0  0  0  0
    0.8671    4.3764   -0.4820 H   0  0  0  0  0  0  0  0  0  0  0  0
   -1.2946    4.0155   -0.5477 C   0  0  0  0  0  0  0  0  0  0  0  0
   -1.5427    5.0830   -0.6480 H   0  0  0  0  0  0  0  0  0  0  0  0
   -2.3277    3.0631   -0.5144 C   0  0  0  0  0  0  0  0  0  0  0  0
   -3.3772    3.3885   -0.5920 H   0  0  0  0  0  0  0  0  0  0  0  0
   -2.0135    1.6950   -0.3844 C   0  0  0  0  0  0  0  0  0  0  0  0
   -3.0321    0.5824   -0.4204 C   0  0  0  0  0  0  0  0  0  0  0  0
   -3.9754    0.8465    0.1102 H   0  0  0  0  0  0  0  0  0  0  0  0
   -3.3157    0.3978   -1.4769 H   0  0  0  0  0  0  0  0  0  0  0  0
   -2.8566   -0.8870    1.5631 C   0  0  0  0  0  0  0  0  0  0  0  0
   -3.9659   -1.0089    1.6213 H   0  0  0  0  0  0  0  0  0  0  0  0
   -2.3961   -1.8461    1.8752 H   0  0  0  0  0  0  0  0  0  0  0  0
   -2.4047    0.2302    2.4935 C   0  0  0  0  0  0  0  0  0  0  0  0
   -1.3028    0.3473    2.4679 H   0  0  0  0  0  0  0  0  0  0  0  0
   -2.7071   -0.0198    3.5298 H   0  0  0  0  0  0  0  0  0  0  0  0
   -2.8506    1.2110    2.2362 H   0  0  0  0  0  0  0  0  0  0  0  0
   -2.9780   -1.8803   -0.6434 C   0  0  0  0  0  0  0  0  0  0  0  0
   -4.0942   -1.8542   -0.6594 H   0  0  0  0  0  0  0  0  0  0  0  0
   -2.6672   -2.7752   -0.0693 H   0  0  0  0  0  0  0  0  0  0  0  0
   -2.4061   -1.9845   -2.0501 C   0  0  0  0  0  0  0  0  0  0  0  0
   -2.6246   -1.0973   -2.6779 H   0  0  0  0  0  0  0  0  0  0  0  0
   -2.8395   -2.8684   -2.5590 H   0  0  0  0  0  0  0  0  0  0  0  0
   -1.3066   -2.1209   -1.9992 H   0  0  0  0  0  0  0  0  0  0  0  0
    2.8490   -0.0251    1.4581 C   0  0  0  0  0  0  0  0  0  0  0  0
    3.0599   -1.1172    1.4977 H   0  0  0  0  0  0  0  0  0  0  0  0
    2.0118    0.3537    2.6872 C   0  0  0  0  0  0  0  0  0  0  0  0
    2.6151    0.2353    3.6103 H   0  0  0  0  0  0  0  0  0  0  0  0
    1.1169   -0.2943    2.7685 H   0  0  0  0  0  0  0  0  0  0  0  0
    1.6743    1.4089    2.6311 H   0  0  0  0  0  0  0  0  0  0  0  0
    2.8135   -0.3203   -1.5251 C   0  0  0  0  0  0  0  0  0  0  0  0
    3.6975    0.3547   -1.5040 H   0  0  0  0  0  0  0  0  0  0  0  0
    3.2507   -1.7870   -1.4074 C   0  0  0  0  0  0  0  0  0  0  0  0
    2.3745   -2.4487   -1.2408 H   0  0  0  0  0  0  0  0  0  0  0  0
    3.9596   -1.9488   -0.5711 H   0  0  0  0  0  0  0  0  0  0  0  0
    3.7572   -2.1042   -2.3418 H   0  0  0  0  0  0  0  0  0  0  0  0
    1.9981   -0.0471   -2.7950 C   0  0  0  0  0  0  0  0  0  0  0  0
    2.6150   -0.2544   -3.6933 H   0  0  0  0  0  0  0  0  0  0  0  0
    1.6566    1.0054   -2.8450 H   0  0  0  0  0  0  0  0  0  0  0  0
    1.1014   -0.6991   -2.8307 H   0  0  0  0  0  0  0  0  0  0  0  0
    4.1556    0.7690    1.3525 C   0  0  0  0  0  0  0  0  0  0  0  0
    3.9475    1.8473    1.2015 H   0  0  0  0  0  0  0  0  0  0  0  0
    4.7967    0.4206    0.5185 H   0  0  0  0  0  0  0  0  0  0  0  0
    4.7404    0.6613    2.2891 H   0  0  0  0  0  0  0  0  0  0  0  0
  1 30  1  0  0  0  0
  2  1  1  0  0  0  0
  3 16  1  0  0  0  0
  5  4  1  0  0  0  0
  5  2  1  0  0  0  0
  6  5  2  0  0  0  0
  7  6  1  0  0  0  0
  8 10  2  0  0  0  0
  8  6  1  0  0  0  0
  9  8  1  0  0  0  0
 10 12  1  0  0  0  0
 11 10  1  0  0  0  0
 12  4  2  0  0  0  0
 13 12  1  0  0  0  0
 13 14  1  0  0  0  0
 13  3  1  0  0  0  0
 15 13  1  0  0  0  0
 16 17  1  0  0  0  0
 16 18  1  0  0  0  0
 16 19  1  0  0  0  0
 19 21  1  0  0  0  0
 20 19  1  0  0  0  0
 22 19  1  0  0  0  0
 23 25  1  0  0  0  0
 23  3  1  0  0  0  0
 24 23  1  0  0  0  0
 26 29  1  0  0  0  0
 26 23  1  0  0  0  0
 27 26  1  0  0  0  0
 28 26  1  0  0  0  0
 30 31  1  0  0  0  0
 30 32  1  0  0  0  0
 32 34  1  0  0  0  0
 32 33  1  0  0  0  0
 35 32  1  0  0  0  0
 36 37  1  0  0  0  0
 36 38  1  0  0  0  0
 36  1  1  0  0  0  0
 38 39  1  0  0  0  0
 38 40  1  0  0  0  0
 41 38  1  0  0  0  0
 42 36  1  0  0  0  0
 43 42  1  0  0  0  0
 44 42  1  0  0  0  0
 45 42  1  0  0  0  0
 46 30  1  0  0  0  0
 46 49  1  0  0  0  0
 47 46  1  0  0  0  0
 48 46  1  0  0  0  0
M  END
