1,34,44
q = -1.0

 52 55  0  0  1  0  0  0  0  0999 V2000
    1.2095    0.3059   -0.2606 P   0  0  0  0  0  0  0  0  0  0  0  0
    2.8535   -0.4852   -0.4343 C   0  0  0  0  0  0  0  0  0  0  0  0
    2.9622   -1.7602   -1.0253 C   0  0  0  0  0  0  0  0  0  0  0  0
    2.0487   -2.2820   -1.3490 H   0  0  0  0  0  0  0  0  0  0  0  0
    4.2238   -2.3489   -1.1998 C   0  0  0  0  0  0  0  0  0  0  0  0
    4.3026   -3.3429   -1.6656 H   0  0  0  0  0  0  0  0  0  0  0  0
    5.3822   -1.6698   -0.7892 C   0  0  0  0  0  0  0  0  0  0  0  0
    6.3710   -2.1320   -0.9291 H   0  0  0  0  0  0  0  0  0  0  0  0
    5.2787   -0.3994   -0.1994 C   0  0  0  0  0  0  0  0  0  0  0  0
    6.1844    0.1347    0.1245 H   0  0  0  0  0  0  0  0  0  0  0  0
    4.0204    0.1924   -0.0175 C   0  0  0  0  0  0  0  0  0  0  0  0
    3.9458    1.1794    0.4638 H   0  0  0  0  0  0  0  0  0  0  0  0
    1.3326    1.2742    1.2954 C   0  0  0  0  0  0  0  0  0  0  0  0
    0.7683    2.5618    1.3878 C   0  0  0  0  0  0  0  0  0  0  0  0
    0.3729    3.0524    0.4856 H   0  0  0  0  0  0  0  0  0  0  0  0
    0.7165    3.2202    2.6259 C   0  0  0  0  0  0  0  0  0  0  0  0
    0.2776    4.2272    2.6893 H   0  0  0  0  0  0  0  0  0  0  0  0
    1.2309    2.6028    3.7768 C   0  0  0  0  0  0  0  0  0  0  0  0
    1.1960    3.1246    4.7448 H   0  0  0  0  0  0  0  0  0  0  0  0
    1.8005    1.3217    3.6883 C   0  0  0  0  0  0  0  0  0  0  0  0
    2.2147    0.8395    4.5867 H   0  0  0  0  0  0  0  0  0  0  0  0
    1.8467    0.6561    2.4553 C   0  0  0  0  0  0  0  0  0  0  0  0
    2.2942   -0.3475    2.3892 H   0  0  0  0  0  0  0  0  0  0  0  0
    0.9817    1.5171   -1.6014 C   0  0  0  0  0  0  0  0  0  0  0  0
    1.9203    2.5083   -1.9491 C   0  0  0  0  0  0  0  0  0  0  0  0
    2.9029    2.5394   -1.4543 H   0  0  0  0  0  0  0  0  0  0  0  0
    1.5908    3.4576   -2.9235 C   0  0  0  0  0  0  0  0  0  0  0  0
    2.3165    4.2352   -3.2042 H   0  0  0  0  0  0  0  0  0  0  0  0
    0.3240    3.4163   -3.5350 C   0  0  0  0  0  0  0  0  0  0  0  0
    0.0578    4.1690   -4.2925 H   0  0  0  0  0  0  0  0  0  0  0  0
   -0.5975    2.4171   -3.1957 C   0  0  0  0  0  0  0  0  0  0  0  0
   -1.5848    2.3909   -3.6816 H   0  0  0  0  0  0  0  0  0  0  0  0
   -0.2772    1.4360   -2.2321 C   0  0  0  0  0  0  0  0  0  0  0  0
   -1.2672    0.2994   -1.9131 C   0  0  2  0  0  3  0  0  0  0  0  0
   -1.5035   -0.5021   -3.2004 C   0  0  0  0  0  0  0  0  0  0  0  0
   -2.2064   -1.3375   -3.0265 H   0  0  0  0  0  0  0  0  0  0  0  0
   -0.5500   -0.9206   -3.5722 H   0  0  0  0  0  0  0  0  0  0  0  0
   -1.9345    0.1483   -3.9900 H   0  0  0  0  0  0  0  0  0  0  0  0
   -2.5675    0.8572   -1.5972 O   0  0  0  0  0  0  0  0  0  0  0  0
   -2.6101    1.8510   -0.6140 C   0  0  0  0  0  0  0  0  0  0  0  0
   -3.5883    2.3624   -0.7238 H   0  0  0  0  0  0  0  0  0  0  0  0
   -1.8299    2.6341   -0.7927 H   0  0  0  0  0  0  0  0  0  0  0  0
   -2.4732    1.4162    0.8352 C   0  0  1  0  0  3  0  0  0  0  0  0
   -1.7326    0.3343    1.1664 N   0  0  0  0  0  2  0  0  0  0  0  0
   -1.5664    0.0342    2.4767 C   0  0  0  0  0  0  0  0  0  0  0  0
   -0.9559   -0.8543    2.6881 H   0  0  0  0  0  0  0  0  0  0  0  0
   -2.1123    0.7952    3.5103 C   0  0  0  0  0  0  0  0  0  0  0  0
   -1.9320    0.5066    4.5549 H   0  0  0  0  0  0  0  0  0  0  0  0
   -2.8862    1.9166    3.1779 C   0  0  0  0  0  0  0  0  0  0  0  0
   -3.3424    2.5413    3.9602 H   0  0  0  0  0  0  0  0  0  0  0  0
   -3.0717    2.2176    1.8271 C   0  0  0  0  0  0  0  0  0  0  0  0
   -3.6778    3.0832    1.5205 H   0  0  0  0  0  0  0  0  0  0  0  0
  1 13  1  0  0  0  0
  2  1  1  0  0  0  0
  2 11  1  0  0  0  0
  3  2  2  0  0  0  0
  4  3  1  0  0  0  0
  5  3  1  0  0  0  0
  5  7  2  0  0  0  0
  6  5  1  0  0  0  0
  7  9  1  0  0  0  0
  8  7  1  0  0  0  0
  9 11  2  0  0  0  0
  9 10  1  0  0  0  0
 11 12  1  0  0  0  0
 13 14  2  0  0  0  0
 13 22  1  0  0  0  0
 14 16  1  0  0  0  0
 15 14  1  0  0  0  0
 16 17  1  0  0  0  0
 16 18  2  0  0  0  0
 18 19  1  0  0  0  0
 20 18  1  0  0  0  0
 20 21  1  0  0  0  0
 22 20  2  0  0  0  0
 23 22  1  0  0  0  0
 24  1  1  0  0  0  0
 25 24  1  0  0  0  0
 25 26  1  0  0  0  0
 27 25  2  0  0  0  0
 28 27  1  0  0  0  0
 29 31  2  0  0  0  0
 29 27  1  0  0  0  0
 30 29  1  0  0  0  0
 31 33  1  0  0  0  0
 32 31  1  0  0  0  0
 33 34  1  0  0  0  0
 33 24  2  0  0  0  0
 34 39  1  6  0  0  0
 35 36  1  0  0  0  0
 35 34  1  0  0  0  0
 37 35  1  0  0  0  0
 38 35  1  0  0  0  0
 39 40  1  0  0  0  0
 41 40  1  0  0  0  0
 42 40  1  0  0  0  0
 43 40  1  1  0  0  0
 43 44  1  0  0  0  0
 43 51  1  0  0  0  0
 44 45  1  0  0  0  0
 45 46  1  0  0  0  0
 45 47  2  0  0  0  0
 47 48  1  0  0  0  0
 49 47  1  0  0  0  0
 49 50  1  0  0  0  0
 51 49  2  0  0  0  0
 52 51  1  0  0  0  0
M  END
