2,3,8
q = -1.0, confidence = 0.002

 43 42  0  0  1  0  0  0  0  0999 V2000
   -3.9483    2.0974    0.1063 Cl  0  0  0  0  0  0  0  0  0  0  0  0
    1.6685    0.5307    0.0509 P   0  0  0  0  0  0  0  0  0  0  0  0
   -1.3684    1.1243   -0.0809 C   0  0  0  0  0  2  0  0  0  0  0  0
   -2.6820    0.8498    0.0973 C   0  0  1  0  0  3  0  0  0  0  0  0
   -3.2067   -0.5255    0.3937 C   0  0  0  0  0  0  0  0  0  0  0  0
   -3.3412   -0.6511    1.4898 H   0  0  0  0  0  0  0  0  0  0  0  0
   -4.2058   -0.6936   -0.0714 H   0  0  0  0  0  0  0  0  0  0  0  0
   -2.2270   -1.5443   -0.0682 N   0  0  0  0  0  0  0  0  0  0  0  0
   -2.2906   -2.7660    0.7540 C   0  0  0  0  0  0  0  0  0  0  0  0
   -2.1156   -2.5042    1.8144 H   0  0  0  0  0  0  0  0  0  0  0  0
   -1.4872   -3.4548    0.4328 H   0  0  0  0  0  0  0  0  0  0  0  0
   -3.2870   -3.2556    0.6544 H   0  0  0  0  0  0  0  0  0  0  0  0
   -2.4366   -1.8734   -1.4937 C   0  0  0  0  0  0  0  0  0  0  0  0
   -3.4142   -2.3908   -1.6368 H   0  0  0  0  0  0  0  0  0  0  0  0
   -1.6152   -2.5317   -1.8339 H   0  0  0  0  0  0  0  0  0  0  0  0
   -2.4237   -0.9424   -2.0902 H   0  0  0  0  0  0  0  0  0  0  0  0
   -0.8653    2.5191   -0.3229 C   0  0  0  0  0  0  0  0  0  0  0  0
   -1.6407    3.1034   -0.8664 H   0  0  0  0  0  0  0  0  0  0  0  0
   -0.7252    3.0426    0.6510 H   0  0  0  0  0  0  0  0  0  0  0  0
    0.4415    2.6124   -1.1032 C   0  0  0  0  0  0  0  0  0  0  0  0
    0.3594    2.0501   -2.0604 H   0  0  0  0  0  0  0  0  0  0  0  0
    0.6717    3.6692   -1.3452 H   0  0  0  0  0  0  0  0  0  0  0  0
    1.5727    2.1493   -0.3461 O   0  0  0  0  0  0  0  0  0  0  0  0
    2.4044    0.6744    1.7492 C   0  0  0  0  0  0  0  0  0  0  0  0
    3.2240    1.4174    1.6298 H   0  0  0  0  0  0  0  0  0  0  0  0
    1.3535    1.2449    2.7091 C   0  0  0  0  0  0  0  0  0  0  0  0
    0.5009    0.5438    2.8204 H   0  0  0  0  0  0  0  0  0  0  0  0
    0.9549    2.2126    2.3473 H   0  0  0  0  0  0  0  0  0  0  0  0
    1.8030    1.4098    3.7098 H   0  0  0  0  0  0  0  0  0  0  0  0
    2.9735   -0.6658    2.2292 C   0  0  0  0  0  0  0  0  0  0  0  0
    3.3336   -0.5649    3.2736 H   0  0  0  0  0  0  0  0  0  0  0  0
    3.8274   -1.0053    1.6105 H   0  0  0  0  0  0  0  0  0  0  0  0
    2.2042   -1.4637    2.1936 H   0  0  0  0  0  0  0  0  0  0  0  0
    2.9987   -0.1100   -1.0775 C   0  0  0  0  0  0  0  0  0  0  0  0
    3.1531   -1.1452   -0.7023 H   0  0  0  0  0  0  0  0  0  0  0  0
    2.4561   -0.2032   -2.5089 C   0  0  0  0  0  0  0  0  0  0  0  0
    2.2245    0.8003   -2.9220 H   0  0  0  0  0  0  0  0  0  0  0  0
    1.5401   -0.8255   -2.5429 H   0  0  0  0  0  0  0  0  0  0  0  0
    3.2146   -0.6693   -3.1709 H   0  0  0  0  0  0  0  0  0  0  0  0
    4.2857    0.7148   -0.9852 C   0  0  0  0  0  0  0  0  0  0  0  0
    5.0382    0.3203   -1.6989 H   0  0  0  0  0  0  0  0  0  0  0  0
    4.7397    0.6834    0.0251 H   0  0  0  0  0  0  0  0  0  0  0  0
    4.0942    1.7761   -1.2432 H   0  0  0  0  0  0  0  0  0  0  0  0
  2 24  1  0  0  0  0
  3  4  1  0  0  0  0
  4  1  1  1  0  0  0
  4  5  1  0  0  0  0
  5  6  1  0  0  0  0
  7  5  1  0  0  0  0
  8  5  1  0  0  0  0
  8  9  1  0  0  0  0
  9 10  1  0  0  0  0
 11  9  1  0  0  0  0
 12  9  1  0  0  0  0
 13  8  1  0  0  0  0
 14 13  1  0  0  0  0
 15 13  1  0  0  0  0
 16 13  1  0  0  0  0
 17  3  1  0  0  0  0
 17 19  1  0  0  0  0
 18 17  1  0  0  0  0
 20 23  1  0  0  0  0
 20 17  1  0  0  0  0
 21 20  1  0  0  0  0
 22 20  1  0  0  0  0
 23  2  1  0  0  0  0
 24 30  1  0  0  0  0
 24 26  1  0  0  0  0
 25 24  1  0  0  0  0
 26 27  1  0  0  0  0
 26 29  1  0  0  0  0
 28 26  1  0  0  0  0
 30 31  1  0  0  0  0
 32 30  1  0  0  0  0
 33 30  1  0  0  0  0
 34 40  1  0  0  0  0
 34 35  1  0  0  0  0
 34  2  1  0  0  0  0
 36 34  1  0  0  0  0
 37 36  1  0  0  0  0
 38 36  1  0  0  0  0
 39 36  1  0  0  0  0
 40 42  1  0  0  0  0
 41 40  1  0  0  0  0
 43 40  1  0  0  0  0
M  END
