1,3,4
q = -1.0

 63 65  0  0  0  0  0  0  0  0999 V2000
    2.6204   -0.6129   -0.0560 P   0  0  0  0  0  0  0  0  0  0  0  0
    2.7738   -1.5433    1.3782 O   0  0  0  0  0  0  0  0  0  0  0  0
   -1.4752    0.1306   -0.0164 N   0  0  0  0  0  0  0  0  0  0  0  0
    0.4889   -0.8762    1.4473 C   0  0  0  0  0  3  0  0  0  0  0  0
    1.5588   -1.5833    2.0370 C   0  0  0  0  0  0  0  0  0  0  0  0
    1.4003   -2.2947    3.2343 C   0  0  0  0  0  0  0  0  0  0  0  0
    2.2513   -2.8387    3.6689 H   0  0  0  0  0  0  0  0  0  0  0  0
    0.1327   -2.2988    3.8479 C   0  0  0  0  0  0  0  0  0  0  0  0
   -0.0085   -2.8621    4.7828 H   0  0  0  0  0  0  0  0  0  0  0  0
   -0.9496   -1.5964    3.2878 C   0  0  0  0  0  0  0  0  0  0  0  0
   -1.9311   -1.6024    3.7876 H   0  0  0  0  0  0  0  0  0  0  0  0
   -0.7654   -0.8752    2.0929 C   0  0  0  0  0  0  0  0  0  0  0  0
   -1.7899    0.0072    1.4406 C   0  0  0  0  0  0  0  0  0  0  0  0
   -2.8401   -0.3230    1.5963 H   0  0  0  0  0  0  0  0  0  0  0  0
   -1.7095    1.0289    1.8661 H   0  0  0  0  0  0  0  0  0  0  0  0
    3.3191   -1.7904   -1.3058 C   0  0  0  0  0  0  0  0  0  0  0  0
    3.3444   -1.1852   -2.2387 H   0  0  0  0  0  0  0  0  0  0  0  0
    2.3214   -2.9398   -1.4987 C   0  0  0  0  0  0  0  0  0  0  0  0
    2.7042   -3.6518   -2.2583 H   0  0  0  0  0  0  0  0  0  0  0  0
    1.3412   -2.5575   -1.8454 H   0  0  0  0  0  0  0  0  0  0  0  0
    2.1680   -3.4973   -0.5522 H   0  0  0  0  0  0  0  0  0  0  0  0
    4.7232   -2.2772   -0.9328 C   0  0  0  0  0  0  0  0  0  0  0  0
    4.7169   -2.7752    0.0576 H   0  0  0  0  0  0  0  0  0  0  0  0
    5.4641   -1.4538   -0.9026 H   0  0  0  0  0  0  0  0  0  0  0  0
    5.0770   -3.0141   -1.6831 H   0  0  0  0  0  0  0  0  0  0  0  0
    3.8899    0.7031    0.2647 C   0  0  0  0  0  0  0  0  0  0  0  0
    4.7922    0.1392    0.5899 H   0  0  0  0  0  0  0  0  0  0  0  0
    3.4113    1.5839    1.4252 C   0  0  0  0  0  0  0  0  0  0  0  0
    4.1913    2.3300    1.6820 H   0  0  0  0  0  0  0  0  0  0  0  0
    3.1962    0.9845    2.3312 H   0  0  0  0  0  0  0  0  0  0  0  0
    2.4848    2.1297    1.1565 H   0  0  0  0  0  0  0  0  0  0  0  0
    4.2007    1.5026   -1.0052 C   0  0  0  0  0  0  0  0  0  0  0  0
    3.2843    1.9681   -1.4218 H   0  0  0  0  0  0  0  0  0  0  0  0
    4.6408    0.8713   -1.8026 H   0  0  0  0  0  0  0  0  0  0  0  0
    4.9281    2.3075   -0.7730 H   0  0  0  0  0  0  0  0  0  0  0  0
   -1.9247   -1.0781   -0.7943 C   0  0  0  0  0  0  0  0  0  0  0  0
   -1.5591   -0.9260   -1.8295 H   0  0  0  0  0  0  0  0  0  0  0  0
   -1.3776   -1.9414   -0.3673 H   0  0  0  0  0  0  0  0  0  0  0  0
   -3.4114   -1.3556   -0.7826 C   0  0  0  0  0  0  0  0  0  0  0  0
   -3.9776   -2.1855    0.2082 C   0  0  0  0  0  0  0  0  0  0  0  0
   -3.3194   -2.6538    0.9578 H   0  0  0  0  0  0  0  0  0  0  0  0
   -5.3587   -2.4303    0.2382 C   0  0  0  0  0  0  0  0  0  0  0  0
   -5.7826   -3.0829    1.0167 H   0  0  0  0  0  0  0  0  0  0  0  0
   -6.1966   -1.8511   -0.7279 C   0  0  0  0  0  0  0  0  0  0  0  0
   -7.2800   -2.0440   -0.7072 H   0  0  0  0  0  0  0  0  0  0  0  0
   -5.6448   -1.0360   -1.7290 C   0  0  0  0  0  0  0  0  0  0  0  0
   -6.2940   -0.5920   -2.4991 H   0  0  0  0  0  0  0  0  0  0  0  0
   -4.2633   -0.7936   -1.7562 C   0  0  0  0  0  0  0  0  0  0  0  0
   -3.8321   -0.1685   -2.5539 H   0  0  0  0  0  0  0  0  0  0  0  0
   -2.0376    1.3838   -0.5950 C   0  0  0  0  0  0  0  0  0  0  0  0
   -3.1483    1.3409   -0.5679 H   0  0  0  0  0  0  0  0  0  0  0  0
   -1.7129    1.4036   -1.6568 H   0  0  0  0  0  0  0  0  0  0  0  0
   -1.5681    2.6298    0.1192 C   0  0  0  0  0  0  0  0  0  0  0  0
   -2.4842    3.4496    0.8070 C   0  0  0  0  0  0  0  0  0  0  0  0
   -3.5515    3.1752    0.8154 H   0  0  0  0  0  0  0  0  0  0  0  0
   -2.0525    4.6019    1.4827 C   0  0  0  0  0  0  0  0  0  0  0  0
   -2.7824    5.2300    2.0158 H   0  0  0  0  0  0  0  0  0  0  0  0
   -0.6924    4.9473    1.4819 C   0  0  0  0  0  0  0  0  0  0  0  0
   -0.3505    5.8486    2.0132 H   0  0  0  0  0  0  0  0  0  0  0  0
    0.2288    4.1400    0.7945 C   0  0  0  0  0  0  0  0  0  0  0  0
    1.2958    4.4110    0.7791 H   0  0  0  0  0  0  0  0  0  0  0  0
   -0.2053    2.9931    0.1155 C   0  0  0  0  0  0  0  0  0  0  0  0
    0.5110    2.3691   -0.4448 H   0  0  0  0  0  0  0  0  0  0  0  0
  1 26  1  0  0  0  0
  1  2  1  0  0  0  0
  2  5  1  0  0  0  0
  3 13  1  0  0  0  0
  4  5  2  0  0  0  0
  4 12  1  0  0  0  0
  5  6  1  0  0  0  0
  6  7  1  0  0  0  0
  6  8  2  0  0  0  0
  8  9  1  0  0  0  0
 10 11  1  0  0  0  0
 10  8  1  0  0  0  0
 12 10  2  0  0  0  0
 13 14  1  0  0  0  0
 13 15  1  0  0  0  0
 13 12  1  0  0  0  0
 16 22  1  0  0  0  0
 16  1  1  0  0  0  0
 17 16  1  0  0  0  0
 18 16  1  0  0  0  0
 18 21  1  0  0  0  0
 19 18  1  0  0  0  0
 20 18  1  0  0  0  0
 22 24  1  0  0  0  0
 22 23  1  0  0  0  0
 25 22  1  0  0  0  0
 26 27  1  0  0  0  0
 26 28  1  0  0  0  0
 28 29  1  0  0  0  0
 28 30  1  0  0  0  0
 31 28  1  0  0  0  0
 32 35  1  0  0  0  0
 32 26  1  0  0  0  0
 33 32  1  0  0  0  0
 34 32  1  0  0  0  0
 36 39  1  0  0  0  0
 36 38  1  0  0  0  0
 36  3  1  0  0  0  0
 37 36  1  0  0  0  0
 39 40  1  0  0  0  0
 40 42  2  0  0  0  0
 40 41  1  0  0  0  0
 42 43  1  0  0  0  0
 44 45  1  0  0  0  0
 44 42  1  0  0  0  0
 46 44  2  0  0  0  0
 47 46  1  0  0  0  0
 48 46  1  0  0  0  0
 48 39  2  0  0  0  0
 49 48  1  0  0  0  0
 50 51  1  0  0  0  0
 50  3  1  0  0  0  0
 50 53  1  0  0  0  0
 52 50  1  0  0  0  0
 53 54  1  0  0  0  0
 54 55  1  0  0  0  0
 54 56  2  0  0  0  0
 56 57  1  0  0  0  0
 58 56  1  0  0  0  0
 58 59  1  0  0  0  0
 60 58  2  0  0  0  0
 61 60  1  0  0  0  0
 62 53  2  0  0  0  0
 62 60  1  0  0  0  0
 63 62  1  0  0  0  0
M  END
