1,3,6
q = -1.0

 65 65  0  0  0  0  0  0  0  0999 V2000
   -1.6104    0.2587   -0.0192 P   0  0  0  0  0  0  0  0  0  0  0  0
   -1.5741    1.9320   -0.4080 O   0  0  0  0  0  0  0  0  0  0  0  0
    2.7637   -0.2953    0.0883 N   0  0  0  0  0  0  0  0  0  0  0  0
   -2.6437   -0.2588   -1.2701 N   0  0  0  0  0  0  0  0  0  0  0  0
   -2.5455    0.1027    1.3620 N   0  0  0  0  0  0  0  0  0  0  0  0
    0.7675    1.6070    0.0024 C   0  0  0  0  0  3  0  0  0  0  0  0
   -0.3086    2.4762   -0.2669 C   0  0  0  0  0  0  0  0  0  0  0  0
   -0.1015    3.8568   -0.3997 C   0  0  0  0  0  0  0  0  0  0  0  0
   -0.9507    4.5234   -0.6085 H   0  0  0  0  0  0  0  0  0  0  0  0
    1.2092    4.3558   -0.2720 C   0  0  0  0  0  0  0  0  0  0  0  0
    1.3839    5.4367   -0.3834 H   0  0  0  0  0  0  0  0  0  0  0  0
    2.2933    3.5002   -0.0121 C   0  0  0  0  0  0  0  0  0  0  0  0
    3.3110    3.9126    0.0756 H   0  0  0  0  0  0  0  0  0  0  0  0
    2.0718    2.1147    0.1294 C   0  0  0  0  0  0  0  0  0  0  0  0
    3.1536    1.1131    0.4493 C   0  0  0  0  0  0  0  0  0  0  0  0
    3.3436    1.1397    1.5409 H   0  0  0  0  0  0  0  0  0  0  0  0
    4.1193    1.3783   -0.0370 H   0  0  0  0  0  0  0  0  0  0  0  0
    3.2784   -0.6201   -1.2979 C   0  0  0  0  0  0  0  0  0  0  0  0
    4.3762   -0.4143   -1.2776 H   0  0  0  0  0  0  0  0  0  0  0  0
    2.6697    0.2970   -2.3634 C   0  0  0  0  0  0  0  0  0  0  0  0
    1.5765    0.1308   -2.4469 H   0  0  0  0  0  0  0  0  0  0  0  0
    3.1359    0.0648   -3.3412 H   0  0  0  0  0  0  0  0  0  0  0  0
    2.8276    1.3715   -2.1566 H   0  0  0  0  0  0  0  0  0  0  0  0
    3.0646   -2.0852   -1.6823 C   0  0  0  0  0  0  0  0  0  0  0  0
    3.7009   -2.7822   -1.1044 H   0  0  0  0  0  0  0  0  0  0  0  0
    3.3231   -2.2161   -2.7512 H   0  0  0  0  0  0  0  0  0  0  0  0
    2.0073   -2.3852   -1.5289 H   0  0  0  0  0  0  0  0  0  0  0  0
    3.2439   -1.2889    1.1215 C   0  0  0  0  0  0  0  0  0  0  0  0
    2.8608   -2.2620    0.7588 H   0  0  0  0  0  0  0  0  0  0  0  0
    2.5757   -1.0618    2.4787 C   0  0  0  0  0  0  0  0  0  0  0  0
    2.9073   -0.1311    2.9824 H   0  0  0  0  0  0  0  0  0  0  0  0
    2.8247   -1.9081    3.1487 H   0  0  0  0  0  0  0  0  0  0  0  0
    1.4725   -1.0372    2.3662 H   0  0  0  0  0  0  0  0  0  0  0  0
    4.7705   -1.3531    1.2522 C   0  0  0  0  0  0  0  0  0  0  0  0
    5.2724   -1.6030    0.2972 H   0  0  0  0  0  0  0  0  0  0  0  0
    5.0437   -2.1400    1.9825 H   0  0  0  0  0  0  0  0  0  0  0  0
    5.1949   -0.3981    1.6250 H   0  0  0  0  0  0  0  0  0  0  0  0
   -2.2756    0.1383   -2.6401 C   0  0  0  0  0  0  0  0  0  0  0  0
   -1.8377    1.1525   -2.5760 H   0  0  0  0  0  0  0  0  0  0  0  0
   -3.2133    0.2509   -3.2266 H   0  0  0  0  0  0  0  0  0  0  0  0
   -1.3129   -0.8165   -3.3510 C   0  0  0  0  0  0  0  0  0  0  0  0
   -0.4162   -1.0065   -2.7257 H   0  0  0  0  0  0  0  0  0  0  0  0
   -0.9841   -0.3806   -4.3155 H   0  0  0  0  0  0  0  0  0  0  0  0
   -1.7782   -1.7986   -3.5684 H   0  0  0  0  0  0  0  0  0  0  0  0
   -3.2216   -1.6079   -1.1145 C   0  0  0  0  0  0  0  0  0  0  0  0
   -3.3816   -1.7718   -0.0313 H   0  0  0  0  0  0  0  0  0  0  0  0
   -2.4917   -2.3889   -1.4245 H   0  0  0  0  0  0  0  0  0  0  0  0
   -4.5417   -1.7655   -1.8637 C   0  0  0  0  0  0  0  0  0  0  0  0
   -5.2729   -0.9894   -1.5586 H   0  0  0  0  0  0  0  0  0  0  0  0
   -4.9797   -2.7597   -1.6457 H   0  0  0  0  0  0  0  0  0  0  0  0
   -4.4135   -1.6986   -2.9631 H   0  0  0  0  0  0  0  0  0  0  0  0
   -3.9194    0.6166    1.4166 C   0  0  0  0  0  0  0  0  0  0  0  0
   -4.5379   -0.1060    1.9936 H   0  0  0  0  0  0  0  0  0  0  0  0
   -4.3190    0.6176    0.3824 H   0  0  0  0  0  0  0  0  0  0  0  0
   -4.0228    2.0211    2.0142 C   0  0  0  0  0  0  0  0  0  0  0  0
   -3.6179    2.0600    3.0458 H   0  0  0  0  0  0  0  0  0  0  0  0
   -5.0819    2.3470    2.0579 H   0  0  0  0  0  0  0  0  0  0  0  0
   -3.4564    2.7431    1.3941 H   0  0  0  0  0  0  0  0  0  0  0  0
   -1.9486   -0.4010    2.6068 C   0  0  0  0  0  0  0  0  0  0  0  0
   -2.2578    0.2707    3.4372 H   0  0  0  0  0  0  0  0  0  0  0  0
   -0.8461   -0.2990    2.5176 H   0  0  0  0  0  0  0  0  0  0  0  0
   -2.3084   -1.8548    2.9025 C   0  0  0  0  0  0  0  0  0  0  0  0
   -3.4072   -2.0093    2.9244 H   0  0  0  0  0  0  0  0  0  0  0  0
   -1.9081   -2.1587    3.8914 H   0  0  0  0  0  0  0  0  0  0  0  0
   -1.8614   -2.5139    2.1307 H   0  0  0  0  0  0  0  0  0  0  0  0
  1  5  1  0  0  0  0
  2  7  1  0  0  0  0
  2  1  1  0  0  0  0
  3 15  1  0  0  0  0
  3 28  1  0  0  0  0
  4 45  1  0  0  0  0
  4  1  1  0  0  0  0
  5 52  1  0  0  0  0
  5 59  1  0  0  0  0
  6 14  1  0  0  0  0
  7  6  2  0  0  0  0
  8 10  2  0  0  0  0
  8  7  1  0  0  0  0
  9  8  1  0  0  0  0
 10 12  1  0  0  0  0
 11 10  1  0  0  0  0
 12 13  1  0  0  0  0
 12 14  2  0  0  0  0
 14 15  1  0  0  0  0
 15 16  1  0  0  0  0
 17 15  1  0  0  0  0
 18 19  1  0  0  0  0
 18  3  1  0  0  0  0
 20 23  1  0  0  0  0
 20 18  1  0  0  0  0
 21 20  1  0  0  0  0
 22 20  1  0  0  0  0
 24 27  1  0  0  0  0
 24 18  1  0  0  0  0
 24 25  1  0  0  0  0
 26 24  1  0  0  0  0
 28 34  1  0  0  0  0
 28 30  1  0  0  0  0
 29 28  1  0  0  0  0
 30 31  1  0  0  0  0
 30 32  1  0  0  0  0
 33 30  1  0  0  0  0
 34 37  1  0  0  0  0
 34 36  1  0  0  0  0
 35 34  1  0  0  0  0
 38 39  1  0  0  0  0
 38  4  1  0  0  0  0
 40 38  1  0  0  0  0
 41 42  1  0  0  0  0
 41 38  1  0  0  0  0
 43 41  1  0  0  0  0
 44 41  1  0  0  0  0
 45 46  1  0  0  0  0
 47 45  1  0  0  0  0
 48 50  1  0  0  0  0
 48 49  1  0  0  0  0
 48 45  1  0  0  0  0
 51 48  1  0  0  0  0
 52 53  1  0  0  0  0
 52 55  1  0  0  0  0
 54 52  1  0  0  0  0
 55 57  1  0  0  0  0
 55 56  1  0  0  0  0
 58 55  1  0  0  0  0
 59 62  1  0  0  0  0
 59 60  1  0  0  0  0
 61 59  1  0  0  0  0
 62 63  1  0  0  0  0
 62 64  1  0  0  0  0
 65 62  1  0  0  0  0
M  END
