1,3,4
q = -1.0, confidence = 0.044

 57 59  0  0  0  0  0  0  0  0999 V2000
   -1.4210   -0.3135   -0.0899 P   0  0  0  0  0  0  0  0  0  0  0  0
   -1.3891   -1.9072   -0.6858 O   0  0  0  0  0  0  0  0  0  0  0  0
    2.9139    0.3255    0.1247 N   0  0  0  0  0  0  0  0  0  0  0  0
    0.9694   -1.5609   -0.4008 C   0  0  0  0  0  3  0  0  0  0  0  0
   -0.0966   -2.4025   -0.7809 C   0  0  0  0  0  0  0  0  0  0  0  0
    0.1356   -3.7051   -1.2415 C   0  0  0  0  0  0  0  0  0  0  0  0
   -0.7084   -4.3445   -1.5374 H   0  0  0  0  0  0  0  0  0  0  0  0
    1.4650   -4.1619   -1.3148 C   0  0  0  0  0  0  0  0  0  0  0  0
    1.6618   -5.1811   -1.6801 H   0  0  0  0  0  0  0  0  0  0  0  0
    2.5391   -3.3423   -0.9292 C   0  0  0  0  0  0  0  0  0  0  0  0
    3.5706   -3.7238   -0.9898 H   0  0  0  0  0  0  0  0  0  0  0  0
    2.2918   -2.0346   -0.4637 C   0  0  0  0  0  0  0  0  0  0  0  0
    3.3679   -1.1083    0.0420 C   0  0  0  0  0  0  0  0  0  0  0  0
    4.2951   -1.1769   -0.5695 H   0  0  0  0  0  0  0  0  0  0  0  0
    3.6525   -1.4321    1.0630 H   0  0  0  0  0  0  0  0  0  0  0  0
    3.4021    0.9888    1.3930 C   0  0  0  0  0  0  0  0  0  0  0  0
    2.9707    2.0073    1.3483 H   0  0  0  0  0  0  0  0  0  0  0  0
    4.9295    1.0810    1.4896 C   0  0  0  0  0  0  0  0  0  0  0  0
    5.4030    0.0792    1.5468 H   0  0  0  0  0  0  0  0  0  0  0  0
    5.2056    1.6263    2.4136 H   0  0  0  0  0  0  0  0  0  0  0  0
    5.3808    1.6270    0.6384 H   0  0  0  0  0  0  0  0  0  0  0  0
    2.7995    0.3327    2.6368 C   0  0  0  0  0  0  0  0  0  0  0  0
    1.6954    0.2649    2.5484 H   0  0  0  0  0  0  0  0  0  0  0  0
    3.0273    0.9595    3.5212 H   0  0  0  0  0  0  0  0  0  0  0  0
    3.2035   -0.6807    2.8362 H   0  0  0  0  0  0  0  0  0  0  0  0
    3.3605    1.0617   -1.1230 C   0  0  0  0  0  0  0  0  0  0  0  0
    4.4596    0.8834   -1.2081 H   0  0  0  0  0  0  0  0  0  0  0  0
    3.1170    2.5697   -1.0520 C   0  0  0  0  0  0  0  0  0  0  0  0
    2.0580    2.7897   -0.8067 H   0  0  0  0  0  0  0  0  0  0  0  0
    3.3543    3.0133   -2.0387 H   0  0  0  0  0  0  0  0  0  0  0  0
    3.7526    3.0784   -0.3026 H   0  0  0  0  0  0  0  0  0  0  0  0
    2.7041    0.4849   -2.3810 C   0  0  0  0  0  0  0  0  0  0  0  0
    1.6094    0.6669   -2.3668 H   0  0  0  0  0  0  0  0  0  0  0  0
    2.8605   -0.6040   -2.4945 H   0  0  0  0  0  0  0  0  0  0  0  0
    3.1325    0.9866   -3.2711 H   0  0  0  0  0  0  0  0  0  0  0  0
   -2.5328   -0.4559    1.3479 C   0  0  0  0  0  0  0  0  0  0  0  0
   -2.5423    0.5987    2.2841 C   0  0  0  0  0  0  0  0  0  0  0  0
   -1.8559    1.4531    2.1510 H   0  0  0  0  0  0  0  0  0  0  0  0
   -3.4109    0.5315    3.3830 C   0  0  0  0  0  0  0  0  0  0  0  0
   -3.4214    1.3512    4.1174 H   0  0  0  0  0  0  0  0  0  0  0  0
   -4.2531   -0.5796    3.5542 C   0  0  0  0  0  0  0  0  0  0  0  0
   -4.9289   -0.6293    4.4217 H   0  0  0  0  0  0  0  0  0  0  0  0
   -4.2278   -1.6330    2.6254 C   0  0  0  0  0  0  0  0  0  0  0  0
   -4.8803   -2.5084    2.7652 H   0  0  0  0  0  0  0  0  0  0  0  0
   -3.3693   -1.5766    1.5177 C   0  0  0  0  0  0  0  0  0  0  0  0
   -3.3342   -2.4006    0.7902 H   0  0  0  0  0  0  0  0  0  0  0  0
   -2.3811    0.5584   -1.3728 C   0  0  0  0  0  0  0  0  0  0  0  0
   -3.1992   -0.1522   -2.2737 C   0  0  0  0  0  0  0  0  0  0  0  0
   -3.2378   -1.2504   -2.2288 H   0  0  0  0  0  0  0  0  0  0  0  0
   -3.9442    0.5520   -3.2305 C   0  0  0  0  0  0  0  0  0  0  0  0
   -4.5809    0.0008   -3.9393 H   0  0  0  0  0  0  0  0  0  0  0  0
   -3.8764    1.9540   -3.2870 C   0  0  0  0  0  0  0  0  0  0  0  0
   -4.4634    2.5018   -4.0401 H   0  0  0  0  0  0  0  0  0  0  0  0
   -3.0540    2.6561   -2.3908 C   0  0  0  0  0  0  0  0  0  0  0  0
   -2.9915    3.7538   -2.4421 H   0  0  0  0  0  0  0  0  0  0  0  0
   -2.2975    1.9648   -1.4330 C   0  0  0  0  0  0  0  0  0  0  0  0
   -1.6284    2.5023   -0.7382 H   0  0  0  0  0  0  0  0  0  0  0  0
  1 36  1  0  0  0  0
  2  1  1  0  0  0  0
  3 16  1  0  0  0  0
  5  2  1  0  0  0  0
  5  4  2  0  0  0  0
  6  5  1  0  0  0  0
  7  6  1  0  0  0  0
  8  6  2  0  0  0  0
  8 10  1  0  0  0  0
  9  8  1  0  0  0  0
 10 12  2  0  0  0  0
 11 10  1  0  0  0  0
 12  4  1  0  0  0  0
 12 13  1  0  0  0  0
 13  3  1  0  0  0  0
 13 15  1  0  0  0  0
 14 13  1  0  0  0  0
 16 18  1  0  0  0  0
 16 22  1  0  0  0  0
 17 16  1  0  0  0  0
 18 19  1  0  0  0  0
 18 20  1  0  0  0  0
 21 18  1  0  0  0  0
 22 25  1  0  0  0  0
 22 24  1  0  0  0  0
 23 22  1  0  0  0  0
 26 28  1  0  0  0  0
 26  3  1  0  0  0  0
 27 26  1  0  0  0  0
 28 29  1  0  0  0  0
 28 31  1  0  0  0  0
 30 28  1  0  0  0  0
 32 33  1  0  0  0  0
 32 26  1  0  0  0  0
 34 32  1  0  0  0  0
 35 32  1  0  0  0  0
 36 45  2  0  0  0  0
 36 37  1  0  0  0  0
 37 39  2  0  0  0  0
 38 37  1  0  0  0  0
 39 41  1  0  0  0  0
 39 40  1  0  0  0  0
 41 42  1  0  0  0  0
 43 44  1  0  0  0  0
 43 41  2  0  0  0  0
 45 43  1  0  0  0  0
 46 45  1  0  0  0  0
 47  1  1  0  0  0  0
 48 49  1  0  0  0  0
 48 47  2  0  0  0  0
 50 48  1  0  0  0  0
 51 50  1  0  0  0  0
 52 50  2  0  0  0  0
 52 54  1  0  0  0  0
 53 52  1  0  0  0  0
 54 56  2  0  0  0  0
 55 54  1  0  0  0  0
 56 47  1  0  0  0  0
 56 57  1  0  0  0  0
M  END
