1,2,3
q = -1.0

 57 57  0  0  0  0  0  0  0  0999 V2000
    1.7111    0.1897   -0.0260 P   0  0  0  0  0  0  0  0  0  0  0  0
   -2.6256   -0.6581    0.1113 N   0  0  0  0  0  0  0  0  0  0  0  0
   -0.8122    1.4341   -0.0666 C   0  0  0  0  0  3  0  0  0  0  0  0
    0.1589    2.4313   -0.3373 C   0  0  0  0  0  0  0  0  0  0  0  0
   -0.2333    3.7812   -0.4205 C   0  0  0  0  0  0  0  0  0  0  0  0
    0.5184    4.5608   -0.6248 H   0  0  0  0  0  0  0  0  0  0  0  0
   -1.5824    4.1376   -0.2615 C   0  0  0  0  0  0  0  0  0  0  0  0
   -1.8830    5.1935   -0.3374 H   0  0  0  0  0  0  0  0  0  0  0  0
   -2.5509    3.1503   -0.0141 C   0  0  0  0  0  0  0  0  0  0  0  0
   -3.6089    3.4369    0.1033 H   0  0  0  0  0  0  0  0  0  0  0  0
   -2.1706    1.8005    0.0912 C   0  0  0  0  0  0  0  0  0  0  0  0
    1.5783    1.9744   -0.5798 C   0  0  0  0  0  0  0  0  0  0  0  0
    2.3456    2.6193   -0.1014 H   0  0  0  0  0  0  0  0  0  0  0  0
    1.7993    1.9847   -1.6687 H   0  0  0  0  0  0  0  0  0  0  0  0
   -3.1457    0.7067    0.4465 C   0  0  0  0  0  0  0  0  0  0  0  0
   -3.3133    0.7272    1.5448 H   0  0  0  0  0  0  0  0  0  0  0  0
   -4.1437    0.8691   -0.0205 H   0  0  0  0  0  0  0  0  0  0  0  0
    2.8599   -0.6310   -1.3005 C   0  0  0  0  0  0  0  0  0  0  0  0
    2.4432    0.2514    1.7295 C   0  0  0  0  0  0  0  0  0  0  0  0
    1.9669   -0.8614   -2.5378 C   0  0  0  0  0  0  0  0  0  0  0  0
    1.5259    0.0816   -2.9223 H   0  0  0  0  0  0  0  0  0  0  0  0
    1.1429   -1.5620   -2.2967 H   0  0  0  0  0  0  0  0  0  0  0  0
    2.5825   -1.2998   -3.3519 H   0  0  0  0  0  0  0  0  0  0  0  0
    4.0560    0.2610   -1.6768 C   0  0  0  0  0  0  0  0  0  0  0  0
    4.6599   -0.2628   -2.4481 H   0  0  0  0  0  0  0  0  0  0  0  0
    4.7227    0.4669   -0.8191 H   0  0  0  0  0  0  0  0  0  0  0  0
    3.7438    1.2302   -2.1135 H   0  0  0  0  0  0  0  0  0  0  0  0
    3.3465   -1.9939   -0.7802 C   0  0  0  0  0  0  0  0  0  0  0  0
    3.8652   -2.5256   -1.6061 H   0  0  0  0  0  0  0  0  0  0  0  0
    2.4937   -2.6210   -0.4486 H   0  0  0  0  0  0  0  0  0  0  0  0
    4.0729   -1.8894    0.0495 H   0  0  0  0  0  0  0  0  0  0  0  0
    3.9067    0.7167    1.7497 C   0  0  0  0  0  0  0  0  0  0  0  0
    4.2364    0.8348    2.8039 H   0  0  0  0  0  0  0  0  0  0  0  0
    4.0455    1.6976    1.2509 H   0  0  0  0  0  0  0  0  0  0  0  0
    4.5851   -0.0174    1.2739 H   0  0  0  0  0  0  0  0  0  0  0  0
    2.3019   -1.1405    2.3726 C   0  0  0  0  0  0  0  0  0  0  0  0
    2.9546   -1.8956    1.8982 H   0  0  0  0  0  0  0  0  0  0  0  0
    1.2603   -1.5116    2.2990 H   0  0  0  0  0  0  0  0  0  0  0  0
    2.5830   -1.0730    3.4451 H   0  0  0  0  0  0  0  0  0  0  0  0
    1.5702    1.2456    2.5212 C   0  0  0  0  0  0  0  0  0  0  0  0
    0.5035    0.9457    2.5018 H   0  0  0  0  0  0  0  0  0  0  0  0
    1.6380    2.2815    2.1348 H   0  0  0  0  0  0  0  0  0  0  0  0
    1.9124    1.2558    3.5775 H   0  0  0  0  0  0  0  0  0  0  0  0
   -3.0937   -1.1360   -1.2199 C   0  0  0  0  0  0  0  0  0  0  0  0
   -2.6984   -2.1668   -1.3259 H   0  0  0  0  0  0  0  0  0  0  0  0
   -4.2070   -1.1945   -1.2132 H   0  0  0  0  0  0  0  0  0  0  0  0
   -2.6364   -0.2854   -2.3975 C   0  0  0  0  0  0  0  0  0  0  0  0
   -2.9921    0.7617   -2.3300 H   0  0  0  0  0  0  0  0  0  0  0  0
   -3.0325   -0.7223   -3.3359 H   0  0  0  0  0  0  0  0  0  0  0  0
   -1.5291   -0.2617   -2.4592 H   0  0  0  0  0  0  0  0  0  0  0  0
   -2.9661   -1.6470    1.1790 C   0  0  0  0  0  0  0  0  0  0  0  0
   -2.5054   -1.2633    2.1123 H   0  0  0  0  0  0  0  0  0  0  0  0
   -2.4169   -2.5760    0.9245 H   0  0  0  0  0  0  0  0  0  0  0  0
   -4.4543   -1.9202    1.3980 C   0  0  0  0  0  0  0  0  0  0  0  0
   -5.0277   -1.0026    1.6431 H   0  0  0  0  0  0  0  0  0  0  0  0
   -4.5697   -2.6175    2.2516 H   0  0  0  0  0  0  0  0  0  0  0  0
   -4.9313   -2.3998    0.5206 H   0  0  0  0  0  0  0  0  0  0  0  0
  1 19  1  0  0  0  0
  2 15  1  0  0  0  0
  2 51  1  0  0  0  0
  3 11  1  0  0  0  0
  4  3  2  0  0  0  0
  5  4  1  0  0  0  0
  5  7  2  0  0  0  0
  6  5  1  0  0  0  0
  7  9  1  0  0  0  0
  8  7  1  0  0  0  0
  9 11  2  0  0  0  0
  9 10  1  0  0  0  0
 11 15  1  0  0  0  0
 12  4  1  0  0  0  0
 12 13  1  0  0  0  0
 12  1  1  0  0  0  0
 14 12  1  0  0  0  0
 15 16  1  0  0  0  0
 17 15  1  0  0  0  0
 18 28  1  0  0  0  0
 18  1  1  0  0  0  0
 19 32  1  0  0  0  0
 19 36  1  0  0  0  0
 19 40  1  0  0  0  0
 20 22  1  0  0  0  0
 20 18  1  0  0  0  0
 21 20  1  0  0  0  0
 23 20  1  0  0  0  0
 24 18  1  0  0  0  0
 24 26  1  0  0  0  0
 25 24  1  0  0  0  0
 27 24  1  0  0  0  0
 28 30  1  0  0  0  0
 28 31  1  0  0  0  0
 29 28  1  0  0  0  0
 32 33  1  0  0  0  0
 34 32  1  0  0  0  0
 35 32  1  0  0  0  0
 36 39  1  0  0  0  0
 37 36  1  0  0  0  0
 38 36  1  0  0  0  0
 40 43  1  0  0  0  0
 41 40  1  0  0  0  0
 42 40  1  0  0  0  0
 44 46  1  0  0  0  0
 44  2  1  0  0  0  0
 45 44  1  0  0  0  0
 47 48  1  0  0  0  0
 47 44  1  0  0  0  0
 49 47  1  0  0  0  0
 50 47  1  0  0  0  0
 51 54  1  0  0  0  0
 51 52  1  0  0  0  0
 53 51  1  0  0  0  0
 54 55  1  0  0  0  0
 54 56  1  0  0  0  0
 57 54  1  0  0  0  0
M  END
