1,5,17
q = -1.0, confidence = 0.004

 63 63  0  0  0  0  0  0  0  0999 V2000
    1.8328    0.2167    0.0598 P   0  0  0  0  0  0  0  0  0  0  0  0
   -2.9712    0.7408   -0.8293 C   0  0  0  0  0  0  0  0  0  0  0  0
   -3.9676    1.0903   -0.4728 H   0  0  0  0  0  0  0  0  0  0  0  0
   -3.1217    0.3964   -1.8726 H   0  0  0  0  0  0  0  0  0  0  0  0
   -0.6164    1.5012   -0.4770 C   0  0  0  0  0  3  0  0  0  0  0  0
    0.4006    2.4885   -0.5114 C   0  0  0  0  0  0  0  0  0  0  0  0
    0.0868    3.7973   -0.9257 C   0  0  0  0  0  0  0  0  0  0  0  0
    0.8747    4.5670   -0.9610 H   0  0  0  0  0  0  0  0  0  0  0  0
   -1.9440    1.8451   -0.8305 C   0  0  0  0  0  0  0  0  0  0  0  0
   -2.2460    3.1610   -1.2239 C   0  0  0  0  0  0  0  0  0  0  0  0
   -3.2793    3.4328   -1.4954 H   0  0  0  0  0  0  0  0  0  0  0  0
   -1.2309    4.1308   -1.2792 C   0  0  0  0  0  0  0  0  0  0  0  0
   -1.4706    5.1576   -1.5944 H   0  0  0  0  0  0  0  0  0  0  0  0
    1.7791    2.0867   -0.0411 C   0  0  0  0  0  0  0  0  0  0  0  0
    1.9530    2.4642    0.9894 H   0  0  0  0  0  0  0  0  0  0  0  0
    2.6025    2.4957   -0.6641 H   0  0  0  0  0  0  0  0  0  0  0  0
   -2.5311   -0.4440   -0.0258 N   0  0  0  0  0  0  0  0  0  0  0  0
    4.1333    0.0406   -1.6510 C   0  0  0  0  0  0  0  0  0  0  0  0
    4.2873    1.1305   -1.5146 H   0  0  0  0  0  0  0  0  0  0  0  0
    4.5193   -0.2224   -2.6589 H   0  0  0  0  0  0  0  0  0  0  0  0
    4.7567   -0.4967   -0.9105 H   0  0  0  0  0  0  0  0  0  0  0  0
    2.6531   -0.3581   -1.5587 C   0  0  0  0  0  0  0  0  0  0  0  0
    1.8593    0.3166   -2.6959 C   0  0  0  0  0  0  0  0  0  0  0  0
    0.7821    0.0630   -2.6391 H   0  0  0  0  0  0  0  0  0  0  0  0
    2.2542   -0.0455   -3.6686 H   0  0  0  0  0  0  0  0  0  0  0  0
    1.9468    1.4208   -2.6863 H   0  0  0  0  0  0  0  0  0  0  0  0
    2.4893   -1.8841   -1.6862 C   0  0  0  0  0  0  0  0  0  0  0  0
    3.1173   -2.4381   -0.9651 H   0  0  0  0  0  0  0  0  0  0  0  0
    2.7912   -2.1959   -2.7085 H   0  0  0  0  0  0  0  0  0  0  0  0
    1.4395   -2.1940   -1.5130 H   0  0  0  0  0  0  0  0  0  0  0  0
    2.8630   -0.1615    1.6128 C   0  0  0  0  0  0  0  0  0  0  0  0
    4.0922    0.7542    1.7451 C   0  0  0  0  0  0  0  0  0  0  0  0
    4.8137    0.6229    0.9174 H   0  0  0  0  0  0  0  0  0  0  0  0
    4.6216    0.5043    2.6892 H   0  0  0  0  0  0  0  0  0  0  0  0
    3.8201    1.8268    1.8004 H   0  0  0  0  0  0  0  0  0  0  0  0
   -2.9476   -1.7254   -0.6579 C   0  0  0  0  0  0  0  0  0  0  0  0
   -4.0609   -1.7461   -0.7491 H   0  0  0  0  0  0  0  0  0  0  0  0
   -2.6456   -2.5204    0.0525 H   0  0  0  0  0  0  0  0  0  0  0  0
   -3.0638   -0.4026    1.3634 C   0  0  0  0  0  0  0  0  0  0  0  0
   -2.7000   -1.3277    1.8563 H   0  0  0  0  0  0  0  0  0  0  0  0
   -4.1797   -0.4612    1.3174 H   0  0  0  0  0  0  0  0  0  0  0  0
   -2.6420    0.8080    2.1923 C   0  0  0  0  0  0  0  0  0  0  0  0
   -2.9791    1.7496    1.7099 H   0  0  0  0  0  0  0  0  0  0  0  0
   -1.5309    0.8545    2.2032 H   0  0  0  0  0  0  0  0  0  0  0  0
    3.2877   -1.6396    1.6211 C   0  0  0  0  0  0  0  0  0  0  0  0
    2.4167   -2.3064    1.4555 H   0  0  0  0  0  0  0  0  0  0  0  0
    3.7230   -1.8798    2.6144 H   0  0  0  0  0  0  0  0  0  0  0  0
    4.0653   -1.8539    0.8618 H   0  0  0  0  0  0  0  0  0  0  0  0
    1.8953    0.0842    2.7896 C   0  0  0  0  0  0  0  0  0  0  0  0
    1.4978    1.1202    2.8011 H   0  0  0  0  0  0  0  0  0  0  0  0
    2.4382   -0.0774    3.7451 H   0  0  0  0  0  0  0  0  0  0  0  0
    1.0396   -0.6184    2.7421 H   0  0  0  0  0  0  0  0  0  0  0  0
   -2.2863   -2.0149   -2.0045 C   0  0  0  0  0  0  0  0  0  0  0  0
   -2.6817   -1.3456   -2.7989 H   0  0  0  0  0  0  0  0  0  0  0  0
   -1.2020   -1.7848   -1.9054 H   0  0  0  0  0  0  0  0  0  0  0  0
   -2.4667   -3.4766   -2.4145 C   0  0  0  0  0  0  0  0  0  0  0  0
   -2.0174   -3.6742   -3.4079 H   0  0  0  0  0  0  0  0  0  0  0  0
   -3.5388   -3.7603   -2.4701 H   0  0  0  0  0  0  0  0  0  0  0  0
   -1.9745   -4.1455   -1.6795 H   0  0  0  0  0  0  0  0  0  0  0  0
   -3.1862    0.7230    3.6186 C   0  0  0  0  0  0  0  0  0  0  0  0
   -2.8739    1.5999    4.2194 H   0  0  0  0  0  0  0  0  0  0  0  0
   -2.8172   -0.1869    4.1359 H   0  0  0  0  0  0  0  0  0  0  0  0
   -4.2959    0.6866    3.6337 H   0  0  0  0  0  0  0  0  0  0  0  0
  1 31  1  0  0  0  0
  2  3  1  0  0  0  0
  2 17  1  0  0  0  0
  4  2  1  0  0  0  0
  6  5  1  0  0  0  0
  6 14  1  0  0  0  0
  7  6  2  0  0  0  0
  8  7  1  0  0  0  0
  9  2  1  0  0  0  0
  9  5  2  0  0  0  0
 10  9  1  0  0  0  0
 11 10  1  0  0  0  0
 12 10  2  0  0  0  0
 12  7  1  0  0  0  0
 13 12  1  0  0  0  0
 14  1  1  0  0  0  0
 14 15  1  0  0  0  0
 16 14  1  0  0  0  0
 17 39  1  0  0  0  0
 18 22  1  0  0  0  0
 18 19  1  0  0  0  0
 18 21  1  0  0  0  0
 20 18  1  0  0  0  0
 22  1  1  0  0  0  0
 23 26  1  0  0  0  0
 23 24  1  0  0  0  0
 23 22  1  0  0  0  0
 25 23  1  0  0  0  0
 27 22  1  0  0  0  0
 27 30  1  0  0  0  0
 27 28  1  0  0  0  0
 29 27  1  0  0  0  0
 31 45  1  0  0  0  0
 31 32  1  0  0  0  0
 31 49  1  0  0  0  0
 32 35  1  0  0  0  0
 32 34  1  0  0  0  0
 33 32  1  0  0  0  0
 36 17  1  0  0  0  0
 36 38  1  0  0  0  0
 37 36  1  0  0  0  0
 39 40  1  0  0  0  0
 39 42  1  0  0  0  0
 41 39  1  0  0  0  0
 42 44  1  0  0  0  0
 42 60  1  0  0  0  0
 43 42  1  0  0  0  0
 45 47  1  0  0  0  0
 46 45  1  0  0  0  0
 48 45  1  0  0  0  0
 49 50  1  0  0  0  0
 49 51  1  0  0  0  0
 52 49  1  0  0  0  0
 53 55  1  0  0  0  0
 53 36  1  0  0  0  0
 54 53  1  0  0  0  0
 56 53  1  0  0  0  0
 56 59  1  0  0  0  0
 57 56  1  0  0  0  0
 58 56  1  0  0  0  0
 60 63  1  0  0  0  0
 60 62  1  0  0  0  0
 60 61  1  0  0  0  0
M  END
