1,3,4
q = -1.0, confidence = 0.004

 53 56  0  0  0  0  0  0  0  0999 V2000
    1.6138    0.2496    0.0992 P   0  0  0  0  0  0  0  0  0  0  0  0
    2.0887    1.8543    0.4903 O   0  0  0  0  0  0  0  0  0  0  0  0
   -2.4298    0.7802   -0.1365 N   0  0  0  0  0  2  0  0  0  0  0  0
   -0.2702    2.0491    0.3196 C   0  0  0  0  0  2  0  0  0  0  0  0
    0.9705    2.6598    0.5657 C   0  0  0  0  0  0  0  0  0  0  0  0
    1.0625    4.0288    0.8653 C   0  0  0  0  0  0  0  0  0  0  0  0
    2.0451    4.4823    1.0614 H   0  0  0  0  0  0  0  0  0  0  0  0
   -0.1187    4.7993    0.9075 C   0  0  0  0  0  0  0  0  0  0  0  0
   -0.0477    5.8723    1.1401 H   0  0  0  0  0  0  0  0  0  0  0  0
   -1.3738    4.2213    0.6584 C   0  0  0  0  0  0  0  0  0  0  0  0
   -2.2877    4.8343    0.6920 H   0  0  0  0  0  0  0  0  0  0  0  0
   -1.4450    2.8415    0.3670 C   0  0  0  0  0  0  0  0  0  0  0  0
   -2.6314    2.0510    0.0927 C   0  0  0  0  0  0  0  0  0  0  0  0
   -3.6457    2.4918    0.0851 H   0  0  0  0  0  0  0  0  0  0  0  0
   -3.5160   -0.1690   -0.3605 C   0  0  0  0  0  0  0  0  0  0  0  0
   -3.1224   -0.8824   -1.1190 H   0  0  0  0  0  0  0  0  0  0  0  0
   -4.8298    0.4252   -0.8833 C   0  0  0  0  0  0  0  0  0  0  0  0
   -4.6394    1.0198   -1.8020 H   0  0  0  0  0  0  0  0  0  0  0  0
   -5.2615    1.1210   -0.1288 H   0  0  0  0  0  0  0  0  0  0  0  0
   -5.8455   -0.6939   -1.1562 C   0  0  0  0  0  0  0  0  0  0  0  0
   -6.7957   -0.2599   -1.5312 H   0  0  0  0  0  0  0  0  0  0  0  0
   -5.4561   -1.3458   -1.9695 H   0  0  0  0  0  0  0  0  0  0  0  0
   -6.0968   -1.5420    0.0979 C   0  0  0  0  0  0  0  0  0  0  0  0
   -6.8029   -2.3674   -0.1309 H   0  0  0  0  0  0  0  0  0  0  0  0
   -6.5934   -0.9104    0.8691 H   0  0  0  0  0  0  0  0  0  0  0  0
   -4.7865   -2.0987    0.6695 C   0  0  0  0  0  0  0  0  0  0  0  0
   -4.9775   -2.6585    1.6088 H   0  0  0  0  0  0  0  0  0  0  0  0
   -4.3473   -2.8288   -0.0458 H   0  0  0  0  0  0  0  0  0  0  0  0
   -3.7603   -0.9894    0.9228 C   0  0  0  0  0  0  0  0  0  0  0  0
   -2.7940   -1.4142    1.2604 H   0  0  0  0  0  0  0  0  0  0  0  0
   -4.1203   -0.2973    1.7175 H   0  0  0  0  0  0  0  0  0  0  0  0
    2.6744   -0.0543   -1.3536 C   0  0  0  0  0  0  0  0  0  0  0  0
    2.7972   -1.3723   -1.8422 C   0  0  0  0  0  0  0  0  0  0  0  0
    2.2559   -2.1925   -1.3461 H   0  0  0  0  0  0  0  0  0  0  0  0
    3.5871   -1.6214   -2.9719 C   0  0  0  0  0  0  0  0  0  0  0  0
    3.6813   -2.6494   -3.3532 H   0  0  0  0  0  0  0  0  0  0  0  0
    4.2518   -0.5653   -3.6183 C   0  0  0  0  0  0  0  0  0  0  0  0
    4.8709   -0.7660   -4.5059 H   0  0  0  0  0  0  0  0  0  0  0  0
    4.1237    0.7457   -3.1339 C   0  0  0  0  0  0  0  0  0  0  0  0
    4.6426    1.5748   -3.6386 H   0  0  0  0  0  0  0  0  0  0  0  0
    3.3338    1.0072   -2.0038 C   0  0  0  0  0  0  0  0  0  0  0  0
    3.2318    2.0298   -1.6135 H   0  0  0  0  0  0  0  0  0  0  0  0
    2.3839   -0.7017    1.4506 C   0  0  0  0  0  0  0  0  0  0  0  0
    1.5920   -1.5480    2.2489 C   0  0  0  0  0  0  0  0  0  0  0  0
    0.5250   -1.6717    2.0086 H   0  0  0  0  0  0  0  0  0  0  0  0
    2.1808   -2.2481    3.3128 C   0  0  0  0  0  0  0  0  0  0  0  0
    1.5648   -2.9173    3.9322 H   0  0  0  0  0  0  0  0  0  0  0  0
    3.5493   -2.0959    3.5843 C   0  0  0  0  0  0  0  0  0  0  0  0
    4.0082   -2.6451    4.4207 H   0  0  0  0  0  0  0  0  0  0  0  0
    4.3382   -1.2473    2.7878 C   0  0  0  0  0  0  0  0  0  0  0  0
    5.4117   -1.1308    3.0006 H   0  0  0  0  0  0  0  0  0  0  0  0
    3.7609   -0.5519    1.7176 C   0  0  0  0  0  0  0  0  0  0  0  0
    4.3752    0.1091    1.0872 H   0  0  0  0  0  0  0  0  0  0  0  0
  1  2  1  0  0  0  0
  1 43  1  0  0  0  0
  2  5  1  0  0  0  0
  3 13  1  0  0  0  0
  4 12  1  0  0  0  0
  4  5  1  0  0  0  0
  5  6  2  0  0  0  0
  6  8  1  0  0  0  0
  6  7  1  0  0  0  0
  8  9  1  0  0  0  0
 10 11  1  0  0  0  0
 10  8  2  0  0  0  0
 12 10  1  0  0  0  0
 13 12  2  0  0  0  0
 14 13  1  0  0  0  0
 15  3  1  0  0  0  0
 15 29  1  0  0  0  0
 16 15  1  0  0  0  0
 17 15  1  0  0  0  0
 17 19  1  0  0  0  0
 18 17  1  0  0  0  0
 20 17  1  0  0  0  0
 20 23  1  0  0  0  0
 21 20  1  0  0  0  0
 22 20  1  0  0  0  0
 23 26  1  0  0  0  0
 23 25  1  0  0  0  0
 24 23  1  0  0  0  0
 26 29  1  0  0  0  0
 26 27  1  0  0  0  0
 28 26  1  0  0  0  0
 29 30  1  0  0  0  0
 29 31  1  0  0  0  0
 32  1  1  0  0  0  0
 33 32  1  0  0  0  0
 33 34  1  0  0  0  0
 35 33  2  0  0  0  0
 36 35  1  0  0  0  0
 37 39  2  0  0  0  0
 37 35  1  0  0  0  0
 38 37  1  0  0  0  0
 39 41  1  0  0  0  0
 40 39  1  0  0  0  0
 41 42  1  0  0  0  0
 41 32  2  0  0  0  0
 43 52  2  0  0  0  0
 43 44  1  0  0  0  0
 44 46  2  0  0  0  0
 45 44  1  0  0  0  0
 46 48  1  0  0  0  0
 46 47  1  0  0  0  0
 48 49  1  0  0  0  0
 50 51  1  0  0  0  0
 50 48  2  0  0  0  0
 52 50  1  0  0  0  0
 53 52  1  0  0  0  0
M  END
