1,3,4
q = -1.0

 45 46  0  0  0  0  0  0  0  0999 V2000
   -1.9424   -0.3022    0.0922 P   0  0  0  0  0  0  0  0  0  0  0  0
   -2.7784    1.1834   -0.1034 O   0  0  0  0  0  0  0  0  0  0  0  0
    1.9322    1.0838    0.0659 N   0  0  0  0  0  2  0  0  0  0  0  0
   -0.5081    1.8774   -0.0284 C   0  0  0  0  0  2  0  0  0  0  0  0
   -1.8686    2.2237   -0.1143 C   0  0  0  0  0  0  0  0  0  0  0  0
   -2.2767    3.5635   -0.2055 C   0  0  0  0  0  0  0  0  0  0  0  0
   -3.3472    3.8086   -0.2631 H   0  0  0  0  0  0  0  0  0  0  0  0
   -1.2937    4.5775   -0.2235 C   0  0  0  0  0  0  0  0  0  0  0  0
   -1.6128    5.6277   -0.2982 H   0  0  0  0  0  0  0  0  0  0  0  0
    0.0723    4.2684   -0.1520 C   0  0  0  0  0  0  0  0  0  0  0  0
    0.8283    5.0682   -0.1777 H   0  0  0  0  0  0  0  0  0  0  0  0
    0.4643    2.9125   -0.0561 C   0  0  0  0  0  0  0  0  0  0  0  0
    1.8115    2.3927    0.0063 C   0  0  0  0  0  0  0  0  0  0  0  0
    2.7040    3.0478    0.0208 H   0  0  0  0  0  0  0  0  0  0  0  0
    3.1960    0.4578    0.0639 C   0  0  0  0  0  0  0  0  0  0  0  0
    4.2700    0.9532   -0.7107 C   0  0  0  0  0  0  0  0  0  0  0  0
    4.1123    1.8204   -1.3691 H   0  0  0  0  0  0  0  0  0  0  0  0
    5.5154    0.3134   -0.6747 C   0  0  0  0  0  0  0  0  0  0  0  0
    6.3418    0.6997   -1.2905 H   0  0  0  0  0  0  0  0  0  0  0  0
    5.7045   -0.8256    0.1250 C   0  0  0  0  0  0  0  0  0  0  0  0
    6.6819   -1.3304    0.1451 H   0  0  0  0  0  0  0  0  0  0  0  0
    4.6331   -1.3291    0.8815 C   0  0  0  0  0  0  0  0  0  0  0  0
    4.7689   -2.2293    1.4996 H   0  0  0  0  0  0  0  0  0  0  0  0
    3.3828   -0.7017    0.8471 C   0  0  0  0  0  0  0  0  0  0  0  0
    2.5317   -1.0966    1.4169 H   0  0  0  0  0  0  0  0  0  0  0  0
   -2.0793   -0.8116   -2.6067 C   0  0  0  0  0  0  0  0  0  0  0  0
   -2.4227   -1.4589   -3.4387 H   0  0  0  0  0  0  0  0  0  0  0  0
   -0.9715   -0.8127   -2.6029 H   0  0  0  0  0  0  0  0  0  0  0  0
   -2.4269    0.2222   -2.8080 H   0  0  0  0  0  0  0  0  0  0  0  0
   -2.6361   -1.3329   -1.2749 C   0  0  0  0  0  0  0  0  0  0  0  0
   -2.2072   -2.3441   -1.0855 H   0  0  0  0  0  0  0  0  0  0  0  0
   -4.1672   -1.3943   -1.2482 C   0  0  0  0  0  0  0  0  0  0  0  0
   -4.6067   -0.3789   -1.3178 H   0  0  0  0  0  0  0  0  0  0  0  0
   -4.5557   -1.8815   -0.3322 H   0  0  0  0  0  0  0  0  0  0  0  0
   -4.5303   -1.9840   -2.1146 H   0  0  0  0  0  0  0  0  0  0  0  0
   -2.1308   -2.3089    2.0251 C   0  0  0  0  0  0  0  0  0  0  0  0
   -1.0352   -2.2965    2.1890 H   0  0  0  0  0  0  0  0  0  0  0  0
   -2.3299   -3.0470    1.2232 H   0  0  0  0  0  0  0  0  0  0  0  0
   -2.6144   -2.6751    2.9535 H   0  0  0  0  0  0  0  0  0  0  0  0
   -2.6454   -0.9021    1.6981 C   0  0  0  0  0  0  0  0  0  0  0  0
   -3.7445   -0.9268    1.5266 H   0  0  0  0  0  0  0  0  0  0  0  0
   -2.3333    0.1136    2.8034 C   0  0  0  0  0  0  0  0  0  0  0  0
   -2.7920   -0.2167    3.7577 H   0  0  0  0  0  0  0  0  0  0  0  0
   -2.7270    1.1197    2.5615 H   0  0  0  0  0  0  0  0  0  0  0  0
   -1.2389    0.2017    2.9618 H   0  0  0  0  0  0  0  0  0  0  0  0
  1 40  1  0  0  0  0
  2  1  1  0  0  0  0
  5  2  1  0  0  0  0
  5  4  1  0  0  0  0
  6  5  2  0  0  0  0
  7  6  1  0  0  0  0
  8  6  1  0  0  0  0
  8 10  2  0  0  0  0
  9  8  1  0  0  0  0
 10 12  1  0  0  0  0
 11 10  1  0  0  0  0
 12  4  1  0  0  0  0
 12 13  2  0  0  0  0
 13 14  1  0  0  0  0
 13  3  1  0  0  0  0
 15  3  1  0  0  0  0
 15 24  1  0  0  0  0
 16 18  1  0  0  0  0
 16 15  2  0  0  0  0
 17 16  1  0  0  0  0
 18 20  2  0  0  0  0
 19 18  1  0  0  0  0
 20 21  1  0  0  0  0
 20 22  1  0  0  0  0
 22 23  1  0  0  0  0
 24 22  2  0  0  0  0
 24 25  1  0  0  0  0
 26 28  1  0  0  0  0
 26 30  1  0  0  0  0
 27 26  1  0  0  0  0
 29 26  1  0  0  0  0
 30 32  1  0  0  0  0
 30 31  1  0  0  0  0
 30  1  1  0  0  0  0
 32 34  1  0  0  0  0
 33 32  1  0  0  0  0
 35 32  1  0  0  0  0
 36 37  1  0  0  0  0
 36 39  1  0  0  0  0
 38 36  1  0  0  0  0
 40 36  1  0  0  0  0
 40 42  1  0  0  0  0
 41 40  1  0  0  0  0
 42 45  1  0  0  0  0
 42 43  1  0  0  0  0
 44 42  1  0  0  0  0
M  END
