1,2,16
q = -1.0

 48 49  0  0  1  0  0  0  0  0999 V2000
   -1.7806    0.1653   -0.0363 P   0  0  0  0  0  0  0  0  0  0  0  0
    0.9132    1.2461    0.3726 N   0  0  0  0  0  2  0  0  0  0  0  0
    4.4165    0.6624   -0.2765 N   0  0  0  0  0  0  0  0  0  0  0  0
   -1.4169    1.7414    0.9151 C   0  0  0  0  0  0  0  0  0  0  0  0
   -2.1417    2.5561    0.7167 H   0  0  0  0  0  0  0  0  0  0  0  0
   -1.5331    1.4601    1.9849 H   0  0  0  0  0  0  0  0  0  0  0  0
    0.0028    2.1996    0.6957 C   0  0  1  0  0  3  0  0  0  0  0  0
    0.3984    3.5377    0.8443 C   0  0  0  0  0  0  0  0  0  0  0  0
   -0.3527    4.2995    1.0969 H   0  0  0  0  0  0  0  0  0  0  0  0
    1.7518    3.8803    0.6752 C   0  0  0  0  0  0  0  0  0  0  0  0
    2.0738    4.9265    0.7892 H   0  0  0  0  0  0  0  0  0  0  0  0
    2.6790    2.8845    0.3639 C   0  0  0  0  0  0  0  0  0  0  0  0
    3.7517    3.0734    0.2194 H   0  0  0  0  0  0  0  0  0  0  0  0
    2.2304    1.5596    0.2144 C   0  0  0  0  0  0  0  0  0  0  0  0
    3.0967    0.4240   -0.1221 C   0  0  0  0  0  0  0  0  0  0  0  0
    2.4574   -0.8464   -0.2597 C   0  0  0  0  0  3  0  0  0  0  0  0
    3.3219   -1.9157   -0.5784 C   0  0  0  0  0  0  0  0  0  0  0  0
    2.9204   -2.9332   -0.7056 H   0  0  0  0  0  0  0  0  0  0  0  0
    4.6955   -1.6861   -0.7376 C   0  0  0  0  0  0  0  0  0  0  0  0
    5.3814   -2.5114   -0.9858 H   0  0  0  0  0  0  0  0  0  0  0  0
    5.1970   -0.3783   -0.5782 C   0  0  0  0  0  0  0  0  0  0  0  0
    6.2753   -0.1724   -0.7015 H   0  0  0  0  0  0  0  0  0  0  0  0
   -2.3657    0.7963   -1.7534 C   0  0  0  0  0  0  0  0  0  0  0  0
   -3.7453    1.4715   -1.7386 C   0  0  0  0  0  0  0  0  0  0  0  0
   -4.5655    0.7631   -1.5154 H   0  0  0  0  0  0  0  0  0  0  0  0
   -3.9469    1.8964   -2.7449 H   0  0  0  0  0  0  0  0  0  0  0  0
   -3.7982    2.3109   -1.0159 H   0  0  0  0  0  0  0  0  0  0  0  0
   -2.3614   -0.3921   -2.7327 C   0  0  0  0  0  0  0  0  0  0  0  0
   -1.3622   -0.8678   -2.7677 H   0  0  0  0  0  0  0  0  0  0  0  0
   -2.6053   -0.0239   -3.7517 H   0  0  0  0  0  0  0  0  0  0  0  0
   -3.1063   -1.1657   -2.4692 H   0  0  0  0  0  0  0  0  0  0  0  0
   -1.3201    1.8241   -2.2300 C   0  0  0  0  0  0  0  0  0  0  0  0
   -1.3432    2.7594   -1.6368 H   0  0  0  0  0  0  0  0  0  0  0  0
   -1.5436    2.0954   -3.2833 H   0  0  0  0  0  0  0  0  0  0  0  0
   -0.2961    1.4028   -2.1957 H   0  0  0  0  0  0  0  0  0  0  0  0
   -3.2491   -0.5911    0.9407 C   0  0  0  0  0  0  0  0  0  0  0  0
   -2.6493   -1.2680    2.1859 C   0  0  0  0  0  0  0  0  0  0  0  0
   -1.9743   -2.0993    1.9117 H   0  0  0  0  0  0  0  0  0  0  0  0
   -3.4754   -1.6802    2.8031 H   0  0  0  0  0  0  0  0  0  0  0  0
   -2.0786   -0.5647    2.8249 H   0  0  0  0  0  0  0  0  0  0  0  0
   -4.2884    0.4465    1.4015 C   0  0  0  0  0  0  0  0  0  0  0  0
   -3.8494    1.1988    2.0864 H   0  0  0  0  0  0  0  0  0  0  0  0
   -5.0892   -0.0748    1.9682 H   0  0  0  0  0  0  0  0  0  0  0  0
   -4.7714    0.9811    0.5653 H   0  0  0  0  0  0  0  0  0  0  0  0
   -3.9107   -1.6788    0.0760 C   0  0  0  0  0  0  0  0  0  0  0  0
   -4.4738   -1.2593   -0.7796 H   0  0  0  0  0  0  0  0  0  0  0  0
   -4.6321   -2.2495    0.6981 H   0  0  0  0  0  0  0  0  0  0  0  0
   -3.1639   -2.3995   -0.3147 H   0  0  0  0  0  0  0  0  0  0  0  0
  1  4  1  0  0  0  0
  1 36  1  0  0  0  0
  2  7  1  0  0  0  0
  3 15  1  0  0  0  0
  4  6  1  0  0  0  0
  5  4  1  0  0  0  0
  7  8  1  0  0  0  0
  7  4  1  1  0  0  0
  8  9  1  0  0  0  0
 10 11  1  0  0  0  0
 10  8  2  0  0  0  0
 12 10  1  0  0  0  0
 13 12  1  0  0  0  0
 14 12  2  0  0  0  0
 14  2  1  0  0  0  0
 15 14  1  0  0  0  0
 16 15  2  0  0  0  0
 17 16  1  0  0  0  0
 18 17  1  0  0  0  0
 19 17  2  0  0  0  0
 19 21  1  0  0  0  0
 20 19  1  0  0  0  0
 21  3  2  0  0  0  0
 22 21  1  0  0  0  0
 23 24  1  0  0  0  0
 23  1  1  0  0  0  0
 24 25  1  0  0  0  0
 24 27  1  0  0  0  0
 26 24  1  0  0  0  0
 28 31  1  0  0  0  0
 28 23  1  0  0  0  0
 29 28  1  0  0  0  0
 30 28  1  0  0  0  0
 32 35  1  0  0  0  0
 32 23  1  0  0  0  0
 32 33  1  0  0  0  0
 34 32  1  0  0  0  0
 36 41  1  0  0  0  0
 36 37  1  0  0  0  0
 37 39  1  0  0  0  0
 37 40  1  0  0  0  0
 38 37  1  0  0  0  0
 41 43  1  0  0  0  0
 41 42  1  0  0  0  0
 44 41  1  0  0  0  0
 45 47  1  0  0  0  0
 45 36  1  0  0  0  0
 46 45  1  0  0  0  0
 48 45  1  0  0  0  0
M  END
