1,2,20
q = -1.0

 49 50  0  0  0  0  0  0  0  0999 V2000
    1.8089    0.2865    0.0025 P   0  0  0  0  0  0  0  0  0  0  0  0
   -2.4338   -0.6585    0.2057 N   0  0  0  0  0  2  0  0  0  0  0  0
   -3.1183   -1.7837    0.5000 C   0  0  0  0  0  3  0  0  0  0  0  0
   -2.4953   -2.6918    0.5829 H   0  0  0  0  0  0  0  0  0  0  0  0
   -4.5050   -1.7826    0.6765 C   0  0  0  0  0  0  0  0  0  0  0  0
   -5.0265   -2.7199    0.9156 H   0  0  0  0  0  0  0  0  0  0  0  0
   -5.1974   -0.5660    0.5435 C   0  0  0  0  0  0  0  0  0  0  0  0
   -6.2891   -0.5269    0.6770 H   0  0  0  0  0  0  0  0  0  0  0  0
   -4.4859    0.5994    0.2450 C   0  0  0  0  0  0  0  0  0  0  0  0
   -5.0058    1.5618    0.1427 H   0  0  0  0  0  0  0  0  0  0  0  0
   -3.0861    0.5498    0.0790 C   0  0  0  0  0  0  0  0  0  0  0  0
   -2.2108    1.6822   -0.2269 C   0  0  0  0  0  0  0  0  0  0  0  0
   -2.6443    3.0075   -0.4561 C   0  0  0  0  0  0  0  0  0  0  0  0
   -3.7131    3.2667   -0.3975 H   0  0  0  0  0  0  0  0  0  0  0  0
   -1.7095    4.0020   -0.7632 C   0  0  0  0  0  0  0  0  0  0  0  0
   -2.0433    5.0364   -0.9323 H   0  0  0  0  0  0  0  0  0  0  0  0
   -0.3390    3.6807   -0.8730 C   0  0  0  0  0  0  0  0  0  0  0  0
    0.3818    4.4718   -1.1378 H   0  0  0  0  0  0  0  0  0  0  0  0
    0.1127    2.3691   -0.6610 C   0  0  0  0  0  0  0  0  0  0  0  0
   -0.8213    1.3572   -0.3007 C   0  0  0  0  0  3  0  0  0  0  0  0
    1.5534    1.9427   -0.8495 C   0  0  0  0  0  0  0  0  0  0  0  0
    2.2897    2.7078   -0.5270 H   0  0  0  0  0  0  0  0  0  0  0  0
    1.7451    1.7539   -1.9284 H   0  0  0  0  0  0  0  0  0  0  0  0
    2.4599    0.7512    1.7459 C   0  0  0  0  0  0  0  0  0  0  0  0
    3.8932    1.3062    1.7292 C   0  0  0  0  0  0  0  0  0  0  0  0
    4.6421    0.5427    1.4456 H   0  0  0  0  0  0  0  0  0  0  0  0
    4.1537    1.6557    2.7509 H   0  0  0  0  0  0  0  0  0  0  0  0
    4.0016    2.1759    1.0500 H   0  0  0  0  0  0  0  0  0  0  0  0
    1.5259    1.8436    2.3059 C   0  0  0  0  0  0  0  0  0  0  0  0
    1.5946    2.7920    1.7383 H   0  0  0  0  0  0  0  0  0  0  0  0
    1.8227    2.0585    3.3543 H   0  0  0  0  0  0  0  0  0  0  0  0
    0.4664    1.5248    2.3061 H   0  0  0  0  0  0  0  0  0  0  0  0
    2.3834   -0.4874    2.6580 C   0  0  0  0  0  0  0  0  0  0  0  0
    1.3645   -0.9208    2.6642 H   0  0  0  0  0  0  0  0  0  0  0  0
    2.6444   -0.1916    3.6965 H   0  0  0  0  0  0  0  0  0  0  0  0
    3.0831   -1.2850    2.3484 H   0  0  0  0  0  0  0  0  0  0  0  0
    3.1697   -0.5796   -1.0220 C   0  0  0  0  0  0  0  0  0  0  0  0
    4.2897    0.3752   -1.4708 C   0  0  0  0  0  0  0  0  0  0  0  0
    3.9061    1.1992   -2.1045 H   0  0  0  0  0  0  0  0  0  0  0  0
    5.0169   -0.1952   -2.0875 H   0  0  0  0  0  0  0  0  0  0  0  0
    4.8488    0.8194   -0.6285 H   0  0  0  0  0  0  0  0  0  0  0  0
    2.4628   -1.1450   -2.2681 C   0  0  0  0  0  0  0  0  0  0  0  0
    1.7756   -1.9635   -1.9879 H   0  0  0  0  0  0  0  0  0  0  0  0
    3.2298   -1.5562   -2.9585 H   0  0  0  0  0  0  0  0  0  0  0  0
    1.8790   -0.3836   -2.8223 H   0  0  0  0  0  0  0  0  0  0  0  0
    3.7379   -1.7646   -0.2218 C   0  0  0  0  0  0  0  0  0  0  0  0
    4.3649   -1.4412    0.6314 H   0  0  0  0  0  0  0  0  0  0  0  0
    4.3820   -2.3747   -0.8904 H   0  0  0  0  0  0  0  0  0  0  0  0
    2.9232   -2.4181    0.1519 H   0  0  0  0  0  0  0  0  0  0  0  0
  1 24  1  0  0  0  0
  2  3  1  0  0  0  0
  3  4  1  0  0  0  0
  3  5  1  0  0  0  0
  5  6  1  0  0  0  0
  7  5  2  0  0  0  0
  7  8  1  0  0  0  0
  9  7  1  0  0  0  0
 10  9  1  0  0  0  0
 11  2  1  0  0  0  0
 11  9  2  0  0  0  0
 12 11  1  0  0  0  0
 13 14  1  0  0  0  0
 13 12  2  0  0  0  0
 15 13  1  0  0  0  0
 16 15  1  0  0  0  0
 17 15  2  0  0  0  0
 17 19  1  0  0  0  0
 18 17  1  0  0  0  0
 19 20  2  0  0  0  0
 20 12  1  0  0  0  0
 21 19  1  0  0  0  0
 21 22  1  0  0  0  0
 21  1  1  0  0  0  0
 23 21  1  0  0  0  0
 24 29  1  0  0  0  0
 24 33  1  0  0  0  0
 25 24  1  0  0  0  0
 25 27  1  0  0  0  0
 26 25  1  0  0  0  0
 28 25  1  0  0  0  0
 29 32  1  0  0  0  0
 29 31  1  0  0  0  0
 30 29  1  0  0  0  0
 33 34  1  0  0  0  0
 33 35  1  0  0  0  0
 36 33  1  0  0  0  0
 37 46  1  0  0  0  0
 37  1  1  0  0  0  0
 38 37  1  0  0  0  0
 38 41  1  0  0  0  0
 39 38  1  0  0  0  0
 40 38  1  0  0  0  0
 42 43  1  0  0  0  0
 42 37  1  0  0  0  0
 44 42  1  0  0  0  0
 45 42  1  0  0  0  0
 46 49  1  0  0  0  0
 46 47  1  0  0  0  0
 48 46  1  0  0  0  0
M  END
