1,3,4
q = -1.0, confidence = 0.016

 59 60  0  0  1  0  0  0  0  0999 V2000
   -1.9952   -0.2558   -0.0022 P   0  0  0  0  0  0  0  0  0  0  0  0
   -2.3951    1.4375    0.0030 O   0  0  0  0  0  0  0  0  0  0  0  0
    2.2222    0.2897   -0.0012 N   0  0  0  0  0  2  0  0  0  0  0  0
   -0.0128    1.6223   -0.0003 C   0  0  0  0  0  3  0  0  0  0  0  0
   -1.2854    2.2506    0.0055 C   0  0  0  0  0  0  0  0  0  0  0  0
   -1.3970    3.6436    0.0144 C   0  0  0  0  0  0  0  0  0  0  0  0
   -2.3927    4.1114    0.0193 H   0  0  0  0  0  0  0  0  0  0  0  0
   -0.2204    4.4327    0.0174 C   0  0  0  0  0  0  0  0  0  0  0  0
   -0.3121    5.5290    0.0240 H   0  0  0  0  0  0  0  0  0  0  0  0
    1.0472    3.8420    0.0130 C   0  0  0  0  0  0  0  0  0  0  0  0
    1.9454    4.4782    0.0167 H   0  0  0  0  0  0  0  0  0  0  0  0
    1.1633    2.4296    0.0049 C   0  0  0  0  0  0  0  0  0  0  0  0
    2.4063    1.6647    0.0025 C   0  0  2  0  0  3  0  0  0  0  0  0
    3.7115    2.1862    0.0034 C   0  0  0  0  0  0  0  0  0  0  0  0
    3.8566    3.2751    0.0063 H   0  0  0  0  0  0  0  0  0  0  0  0
    4.8054    1.3152   -0.0003 C   0  0  0  0  0  0  0  0  0  0  0  0
    5.8310    1.7134    0.0000 H   0  0  0  0  0  0  0  0  0  0  0  0
    4.5873   -0.0710   -0.0047 C   0  0  0  0  0  0  0  0  0  0  0  0
    5.4367   -0.7680   -0.0082 H   0  0  0  0  0  0  0  0  0  0  0  0
    3.2726   -0.5674   -0.0049 C   0  0  0  0  0  0  0  0  0  0  0  0
    2.9906   -2.0786   -0.0126 C   0  0  0  0  0  0  0  0  0  0  0  0
    1.4794   -2.3922    0.0038 C   0  0  0  0  0  0  0  0  0  0  0  0
    3.6023   -2.6971   -1.2909 C   0  0  0  0  0  0  0  0  0  0  0  0
    3.1633   -2.2394   -2.2001 H   0  0  0  0  0  0  0  0  0  0  0  0
    3.4033   -3.7880   -1.3210 H   0  0  0  0  0  0  0  0  0  0  0  0
    4.7000   -2.5537   -1.3311 H   0  0  0  0  0  0  0  0  0  0  0  0
    3.6327   -2.7189    1.2395 C   0  0  0  0  0  0  0  0  0  0  0  0
    4.7313   -2.5778    1.2555 H   0  0  0  0  0  0  0  0  0  0  0  0
    3.4334   -3.8100    1.2557 H   0  0  0  0  0  0  0  0  0  0  0  0
    3.2167   -2.2768    2.1670 H   0  0  0  0  0  0  0  0  0  0  0  0
   -2.9360   -0.7436   -1.5804 C   0  0  0  0  0  0  0  0  0  0  0  0
   -4.3398   -0.1286   -1.6889 C   0  0  0  0  0  0  0  0  0  0  0  0
   -5.0640   -0.5898   -0.9935 H   0  0  0  0  0  0  0  0  0  0  0  0
   -4.7246   -0.2849   -2.7195 H   0  0  0  0  0  0  0  0  0  0  0  0
   -4.3118    0.9609   -1.4954 H   0  0  0  0  0  0  0  0  0  0  0  0
   -2.0605   -0.1875   -2.7230 C   0  0  0  0  0  0  0  0  0  0  0  0
   -2.0060    0.9186   -2.6865 H   0  0  0  0  0  0  0  0  0  0  0  0
   -2.5032   -0.4805   -3.6991 H   0  0  0  0  0  0  0  0  0  0  0  0
   -1.0221   -0.5713   -2.6609 H   0  0  0  0  0  0  0  0  0  0  0  0
   -2.9908   -2.2766   -1.6702 C   0  0  0  0  0  0  0  0  0  0  0  0
   -1.9888   -2.7295   -1.5198 H   0  0  0  0  0  0  0  0  0  0  0  0
   -3.3489   -2.5776   -2.6779 H   0  0  0  0  0  0  0  0  0  0  0  0
   -3.6870   -2.7147   -0.9275 H   0  0  0  0  0  0  0  0  0  0  0  0
   -2.8813   -0.7735    1.5968 C   0  0  0  0  0  0  0  0  0  0  0  0
   -2.2103    0.0767    2.6954 C   0  0  0  0  0  0  0  0  0  0  0  0
   -1.1071   -0.0403    2.6704 H   0  0  0  0  0  0  0  0  0  0  0  0
   -2.5856   -0.2483    3.6892 H   0  0  0  0  0  0  0  0  0  0  0  0
   -2.4404    1.1524    2.5706 H   0  0  0  0  0  0  0  0  0  0  0  0
   -2.5775   -2.2596    1.8529 C   0  0  0  0  0  0  0  0  0  0  0  0
   -3.0515   -2.9255    1.1057 H   0  0  0  0  0  0  0  0  0  0  0  0
   -2.9653   -2.5485    2.8531 H   0  0  0  0  0  0  0  0  0  0  0  0
   -1.4849   -2.4491    1.8420 H   0  0  0  0  0  0  0  0  0  0  0  0
   -4.3929   -0.5130    1.5990 C   0  0  0  0  0  0  0  0  0  0  0  0
   -4.6255    0.5268    1.2973 H   0  0  0  0  0  0  0  0  0  0  0  0
   -4.7890   -0.6654    2.6260 H   0  0  0  0  0  0  0  0  0  0  0  0
   -4.9396   -1.2071    0.9318 H   0  0  0  0  0  0  0  0  0  0  0  0
    0.9495   -2.0048   -0.9295 H   0  0  0  0  0  0  0  0  0  0  0  0
    1.2987   -3.4851    0.0052 H   0  0  0  0  0  0  0  0  0  0  0  0
    0.9697   -2.0001    0.9437 H   0  0  0  0  0  0  0  0  0  0  0  0
  1  2  1  0  0  0  0
  1 44  1  0  0  0  0
  2  5  1  0  0  0  0
  3 13  1  0  0  0  0
  4 12  2  0  0  0  0
  4  5  1  0  0  0  0
  5  6  2  0  0  0  0
  6  8  1  0  0  0  0
  6  7  1  0  0  0  0
  8  9  1  0  0  0  0
 10 11  1  0  0  0  0
 10  8  2  0  0  0  0
 12 10  1  0  0  0  0
 13 14  1  0  0  0  0
 13 12  1  6  0  0  0
 14 15  1  0  0  0  0
 16 17  1  0  0  0  0
 16 14  2  0  0  0  0
 18 16  1  0  0  0  0
 19 18  1  0  0  0  0
 20 18  2  0  0  0  0
 20  3  1  0  0  0  0
 21 20  1  0  0  0  0
 21 22  1  0  0  0  0
 21 27  1  0  0  0  0
 22 58  1  0  0  0  0
 22 59  1  0  0  0  0
 23 21  1  0  0  0  0
 24 23  1  0  0  0  0
 25 23  1  0  0  0  0
 26 23  1  0  0  0  0
 27 28  1  0  0  0  0
 27 29  1  0  0  0  0
 27 30  1  0  0  0  0
 31  1  1  0  0  0  0
 32 31  1  0  0  0  0
 32 35  1  0  0  0  0
 32 33  1  0  0  0  0
 34 32  1  0  0  0  0
 36 37  1  0  0  0  0
 36 39  1  0  0  0  0
 36 31  1  0  0  0  0
 38 36  1  0  0  0  0
 40 31  1  0  0  0  0
 40 41  1  0  0  0  0
 40 43  1  0  0  0  0
 42 40  1  0  0  0  0
 44 53  1  0  0  0  0
 44 49  1  0  0  0  0
 44 45  1  0  0  0  0
 45 47  1  0  0  0  0
 46 45  1  0  0  0  0
 48 45  1  0  0  0  0
 49 51  1  0  0  0  0
 50 49  1  0  0  0  0
 52 49  1  0  0  0  0
 53 55  1  0  0  0  0
 54 53  1  0  0  0  0
 56 53  1  0  0  0  0
 57 22  1  0  0  0  0
M  END
