2,3,4
q = -2.0, confidence = 0.802

 48 49  0  0  0  0  0  0  0  0999 V2000
   -1.3255    0.3411    1.6270 S   0  0  0  0  0  0  0  0  0  0  0  0
   -1.3299   -0.3201   -1.6276 S   0  0  0  0  0  0  0  0  0  0  0  0
    0.5189    1.7934   -0.3260 O   0  5  0  0  0  0  0  0  0  0  0  0
    0.4885   -1.8034    0.3262 O   0  5  0  0  0  0  0  0  0  0  0  0
   -1.4820    2.4829   -1.4167 C   0  0  0  0  0  0  0  0  0  0  0  0
   -0.5219    2.6338   -0.3837 C   0  0  0  0  0  0  0  0  0  0  0  0
   -0.6871    3.6229    0.6219 C   0  0  0  0  0  0  0  0  0  0  0  0
   -1.8199    4.4505    0.5521 C   0  0  0  0  0  0  0  0  0  0  0  0
   -1.9573    5.2158    1.3338 H   0  0  0  0  0  0  0  0  0  0  0  0
   -2.7860    4.3343   -0.4706 C   0  0  0  0  0  0  0  0  0  0  0  0
   -2.5991    3.3357   -1.4454 C   0  0  0  0  0  0  0  0  0  0  0  0
   -3.3451    3.2109   -2.2479 H   0  0  0  0  0  0  0  0  0  0  0  0
   -0.7484   -3.6121   -0.6218 C   0  0  0  0  0  0  0  0  0  0  0  0
   -1.8950   -4.4203   -0.5521 C   0  0  0  0  0  0  0  0  0  0  0  0
   -2.0454   -5.1832   -1.3339 H   0  0  0  0  0  0  0  0  0  0  0  0
   -2.8591   -4.2878    0.4706 C   0  0  0  0  0  0  0  0  0  0  0  0
   -2.6553   -3.2926    1.4455 C   0  0  0  0  0  0  0  0  0  0  0  0
   -3.3991   -3.1552    2.2479 H   0  0  0  0  0  0  0  0  0  0  0  0
   -1.5239   -2.4589    1.4168 C   0  0  0  0  0  0  0  0  0  0  0  0
   -0.5665   -2.6260    0.3838 C   0  0  0  0  0  0  0  0  0  0  0  0
   -3.9669    5.2712   -0.5268 C   0  0  0  0  0  0  0  0  0  0  0  0
   -3.6822    6.2512   -0.9675 H   0  0  0  0  0  0  0  0  0  0  0  0
   -4.3715    5.4799    0.4841 H   0  0  0  0  0  0  0  0  0  0  0  0
   -4.7873    4.8598   -1.1472 H   0  0  0  0  0  0  0  0  0  0  0  0
    0.3321    3.7228    1.7220 C   0  0  0  0  0  0  0  0  0  0  0  0
    1.3373    3.9554    1.3125 H   0  0  0  0  0  0  0  0  0  0  0  0
    0.4342    2.7535    2.2528 H   0  0  0  0  0  0  0  0  0  0  0  0
    0.0619    4.5067    2.4545 H   0  0  0  0  0  0  0  0  0  0  0  0
   -4.0558   -5.2045    0.5267 C   0  0  0  0  0  0  0  0  0  0  0  0
   -4.4649   -5.4048   -0.4841 H   0  0  0  0  0  0  0  0  0  0  0  0
   -4.8684   -4.7801    1.1484 H   0  0  0  0  0  0  0  0  0  0  0  0
   -3.7874   -6.1898    0.9656 H   0  0  0  0  0  0  0  0  0  0  0  0
    0.2691   -3.7294   -1.7218 C   0  0  0  0  0  0  0  0  0  0  0  0
   -0.0149   -4.5080   -2.4547 H   0  0  0  0  0  0  0  0  0  0  0  0
    1.2699   -3.9801   -1.3122 H   0  0  0  0  0  0  0  0  0  0  0  0
    0.3886   -2.7618   -2.2521 H   0  0  0  0  0  0  0  0  0  0  0  0
   -1.3139    1.3614   -2.3960 C   0  0  0  0  0  0  0  0  0  0  0  0
   -0.3130    1.3611   -2.8756 H   0  0  0  0  0  0  0  0  0  0  0  0
   -2.0900    1.3825   -3.1858 H   0  0  0  0  0  0  0  0  0  0  0  0
   -1.3372   -1.3402    2.3959 C   0  0  0  0  0  0  0  0  0  0  0  0
   -0.3363   -1.3562    2.8754 H   0  0  0  0  0  0  0  0  0  0  0  0
   -2.1134   -1.3483    3.1858 H   0  0  0  0  0  0  0  0  0  0  0  0
   -2.8873   -0.3483   -0.6717 C   0  0  0  0  0  0  0  0  0  0  0  0
   -3.6981    0.0446   -1.3209 H   0  0  0  0  0  0  0  0  0  0  0  0
   -3.0721   -1.4306   -0.5259 H   0  0  0  0  0  0  0  0  0  0  0  0
   -2.8819    0.3938    0.6701 C   0  0  0  0  0  0  0  0  0  0  0  0
   -3.6991    0.0137    1.3189 H   0  0  0  0  0  0  0  0  0  0  0  0
   -3.0494    1.4789    0.5242 H   0  0  0  0  0  0  0  0  0  0  0  0
  1 40  1  0  0  0  0
  2 43  1  0  0  0  0
  4 20  1  0  0  0  0
  5  6  1  0  0  0  0
  6  3  1  0  0  0  0
  6  7  2  0  0  0  0
  7 25  1  0  0  0  0
  8  7  1  0  0  0  0
  8  9  1  0  0  0  0
 10  8  2  0  0  0  0
 11  5  2  0  0  0  0
 11 10  1  0  0  0  0
 12 11  1  0  0  0  0
 13 14  2  0  0  0  0
 13 20  1  0  0  0  0
 14 16  1  0  0  0  0
 15 14  1  0  0  0  0
 16 29  1  0  0  0  0
 16 17  2  0  0  0  0
 17 18  1  0  0  0  0
 19 17  1  0  0  0  0
 19 40  1  0  0  0  0
 20 19  2  0  0  0  0
 21 10  1  0  0  0  0
 21 23  1  0  0  0  0
 22 21  1  0  0  0  0
 24 21  1  0  0  0  0
 25 27  1  0  0  0  0
 25 28  1  0  0  0  0
 26 25  1  0  0  0  0
 29 32  1  0  0  0  0
 29 31  1  0  0  0  0
 30 29  1  0  0  0  0
 33 35  1  0  0  0  0
 33 13  1  0  0  0  0
 34 33  1  0  0  0  0
 36 33  1  0  0  0  0
 37  2  1  0  0  0  0
 37  5  1  0  0  0  0
 38 37  1  0  0  0  0
 39 37  1  0  0  0  0
 40 41  1  0  0  0  0
 40 42  1  0  0  0  0
 43 45  1  0  0  0  0
 43 46  1  0  0  0  0
 44 43  1  0  0  0  0
 46 47  1  0  0  0  0
 46  1  1  0  0  0  0
 48 46  1  0  0  0  0
M  CHG  2   3  -1   4  -1
M  END
