1,3,5
 OpenBabel05122313063D

 13 12  0  0  0  0  0  0  0  0999 V2000
    1.4014    0.0117   -1.9730 S   0  0  0  0  0  0  0  0  0  0  0  0
    3.3344   -2.5493    0.4193 O   0  5  0  0  0  0  0  0  0  0  0  0
    1.5015   -1.3285    0.8121 O   0  0  0  0  0  0  0  0  0  0  0  0
    3.3628    2.5206    0.4560 O   0  5  0  0  0  0  0  0  0  0  0  0
    1.4929    1.3465    0.8149 O   0  0  0  0  0  0  0  0  0  0  0  0
    2.4162   -1.4115   -1.4610 C   0  0  0  0  0  0  0  0  0  0  0  0
    1.9915   -2.2840   -2.0006 H   0  0  0  0  0  0  0  0  0  0  0  0
    3.4546   -1.2844   -1.8258 H   0  0  0  0  0  0  0  0  0  0  0  0
    2.4600   -1.7828    0.0388 C   0  0  0  0  0  0  0  0  0  0  0  0
    2.4621    1.3926   -1.4377 C   0  0  0  0  0  0  0  0  0  0  0  0
    3.5036    1.2178   -1.7728 H   0  0  0  0  0  0  0  0  0  0  0  0
    2.0929    2.2806   -1.9925 H   0  0  0  0  0  0  0  0  0  0  0  0
    2.4797    1.7717    0.0610 C   0  0  0  0  0  0  0  0  0  0  0  0
  1  6  1  0  0  0  0
  1 10  1  0  0  0  0
  6  9  1  0  0  0  0
  7  6  1  0  0  0  0
  8  6  1  0  0  0  0
  9  2  1  0  0  0  0
  9  3  2  0  0  0  0
 10 13  1  0  0  0  0
 11 10  1  0  0  0  0
 12 10  1  0  0  0  0
 13  4  1  0  0  0  0
 13  5  2  0  0  0  0
M  CHG  2   2  -1   4  -1
M  END
