1,2,3
 OpenBabel05122313063D

 35 34  0  0  0  0  0  0  0  0999 V2000
    0.9874   -1.3661   -1.7820 S   0  0  0  0  0  0  0  0  0  0  0  0
    1.8966    1.0012   -0.0230 O   0  5  0  0  0  0  0  0  0  0  0  0
   -0.4724   -1.1910    0.9680 O   0  5  0  0  0  0  0  0  0  0  0  0
    2.8455    0.2438   -0.5221 C   0  0  0  0  0  0  0  0  0  0  0  0
    2.6325   -0.8807   -1.2959 C   0  0  0  0  0  0  0  0  0  0  0  0
    3.4509   -1.4777   -1.7128 H   0  0  0  0  0  0  0  0  0  0  0  0
    0.4154   -2.6653   -0.6947 C   0  0  0  0  0  0  0  0  0  0  0  0
    0.6046   -3.6885   -1.0381 H   0  0  0  0  0  0  0  0  0  0  0  0
   -0.2412   -2.3882    0.4927 C   0  0  0  0  0  0  0  0  0  0  0  0
    4.2712    0.7247   -0.1754 C   0  0  0  0  0  0  0  0  0  0  0  0
    4.4020    0.7138    1.3630 C   0  0  0  0  0  0  0  0  0  0  0  0
    4.3094   -0.3185    1.7578 H   0  0  0  0  0  0  0  0  0  0  0  0
    3.6040    1.3263    1.8252 H   0  0  0  0  0  0  0  0  0  0  0  0
    5.3873    1.1184    1.6757 H   0  0  0  0  0  0  0  0  0  0  0  0
    5.3771   -0.1517   -0.7805 C   0  0  0  0  0  0  0  0  0  0  0  0
    5.3142   -1.1971   -0.4175 H   0  0  0  0  0  0  0  0  0  0  0  0
    6.3726    0.2452   -0.4924 H   0  0  0  0  0  0  0  0  0  0  0  0
    5.3276   -0.1659   -1.8878 H   0  0  0  0  0  0  0  0  0  0  0  0
    4.4233    2.1690   -0.6977 C   0  0  0  0  0  0  0  0  0  0  0  0
    5.4018    2.5955   -0.3932 H   0  0  0  0  0  0  0  0  0  0  0  0
    3.6148    2.8115   -0.2987 H   0  0  0  0  0  0  0  0  0  0  0  0
    4.3645    2.1949   -1.8052 H   0  0  0  0  0  0  0  0  0  0  0  0
   -0.8111   -3.5188    1.3793 C   0  0  0  0  0  0  0  0  0  0  0  0
   -0.1729   -3.3800    2.7776 C   0  0  0  0  0  0  0  0  0  0  0  0
    0.9213   -3.5553    2.7289 H   0  0  0  0  0  0  0  0  0  0  0  0
   -0.6110   -4.1163    3.4835 H   0  0  0  0  0  0  0  0  0  0  0  0
   -0.3381   -2.3599    3.1736 H   0  0  0  0  0  0  0  0  0  0  0  0
   -0.5403   -4.9275    0.8331 C   0  0  0  0  0  0  0  0  0  0  0  0
   -1.0004   -5.0760   -0.1647 H   0  0  0  0  0  0  0  0  0  0  0  0
   -0.9700   -5.6871    1.5186 H   0  0  0  0  0  0  0  0  0  0  0  0
    0.5461   -5.1299    0.7462 H   0  0  0  0  0  0  0  0  0  0  0  0
   -2.3350   -3.2937    1.4835 C   0  0  0  0  0  0  0  0  0  0  0  0
   -2.5446   -2.2711    1.8522 H   0  0  0  0  0  0  0  0  0  0  0  0
   -2.7957   -4.0277    2.1771 H   0  0  0  0  0  0  0  0  0  0  0  0
   -2.8179   -3.4079    0.4903 H   0  0  0  0  0  0  0  0  0  0  0  0
  1  5  1  0  0  0  0
  1  7  1  0  0  0  0
  4 10  1  0  0  0  0
  4  2  1  0  0  0  0
  5  4  2  0  0  0  0
  6  5  1  0  0  0  0
  7  9  2  0  0  0  0
  8  7  1  0  0  0  0
  9  3  1  0  0  0  0
  9 23  1  0  0  0  0
 10 11  1  0  0  0  0
 11 14  1  0  0  0  0
 11 12  1  0  0  0  0
 11 13  1  0  0  0  0
 15 17  1  0  0  0  0
 15 16  1  0  0  0  0
 15 10  1  0  0  0  0
 18 15  1  0  0  0  0
 19 20  1  0  0  0  0
 19 21  1  0  0  0  0
 19 10  1  0  0  0  0
 22 19  1  0  0  0  0
 23 32  1  0  0  0  0
 23 24  1  0  0  0  0
 24 27  1  0  0  0  0
 24 26  1  0  0  0  0
 25 24  1  0  0  0  0
 28 23  1  0  0  0  0
 28 30  1  0  0  0  0
 29 28  1  0  0  0  0
 31 28  1  0  0  0  0
 32 33  1  0  0  0  0
 32 34  1  0  0  0  0
 35 32  1  0  0  0  0
M  CHG  2   2  -1   3  -1
M  END
