1,2,3
 OpenBabel05122313063D

 31 32  0  0  0  0  0  0  0  0999 V2000
   -0.1023   -0.6117   -2.1321 S   0  0  0  0  0  0  0  0  0  0  0  0
   -1.8680    0.3496    0.2234 O   0  5  0  0  0  0  0  0  0  0  0  0
    1.6186    0.0173    0.3817 O   0  5  0  0  0  0  0  0  0  0  0  0
   -2.2875   -0.7012   -0.4471 C   0  0  0  0  0  0  0  0  0  0  0  0
   -1.6008   -1.3130   -1.4826 C   0  0  0  0  0  0  0  0  0  0  0  0
   -1.9754   -2.2178   -1.9774 H   0  0  0  0  0  0  0  0  0  0  0  0
    1.3010   -1.4789   -1.4616 C   0  0  0  0  0  0  0  0  0  0  0  0
    1.6672   -2.3292   -2.0502 H   0  0  0  0  0  0  0  0  0  0  0  0
    1.9649   -1.0327   -0.3300 C   0  0  0  0  0  0  0  0  0  0  0  0
   -3.6066   -1.2514   -0.0018 C   0  0  0  0  0  0  0  0  0  0  0  0
   -4.4364   -2.0285   -0.8399 C   0  0  0  0  0  0  0  0  0  0  0  0
   -4.1298   -2.2198   -1.8787 H   0  0  0  0  0  0  0  0  0  0  0  0
   -5.6590   -2.5298   -0.3739 C   0  0  0  0  0  0  0  0  0  0  0  0
   -6.2943   -3.1275   -1.0459 H   0  0  0  0  0  0  0  0  0  0  0  0
   -6.0819   -2.2616    0.9388 C   0  0  0  0  0  0  0  0  0  0  0  0
   -7.0439   -2.6540    1.3026 H   0  0  0  0  0  0  0  0  0  0  0  0
   -5.2712   -1.4812    1.7786 C   0  0  0  0  0  0  0  0  0  0  0  0
   -5.5945   -1.2632    2.8085 H   0  0  0  0  0  0  0  0  0  0  0  0
   -4.0500   -0.9777    1.3107 C   0  0  0  0  0  0  0  0  0  0  0  0
   -3.4057   -0.3646    1.9567 H   0  0  0  0  0  0  0  0  0  0  0  0
    3.2066   -1.7320    0.1330 C   0  0  0  0  0  0  0  0  0  0  0  0
    4.0942   -1.0456    0.9907 C   0  0  0  0  0  0  0  0  0  0  0  0
    3.8305   -0.0227    1.2947 H   0  0  0  0  0  0  0  0  0  0  0  0
    5.2756   -1.6503    1.4415 C   0  0  0  0  0  0  0  0  0  0  0  0
    5.9564   -1.0943    2.1050 H   0  0  0  0  0  0  0  0  0  0  0  0
    5.5896   -2.9623    1.0539 C   0  0  0  0  0  0  0  0  0  0  0  0
    6.5136   -3.4421    1.4113 H   0  0  0  0  0  0  0  0  0  0  0  0
    4.7070   -3.6630    0.2144 C   0  0  0  0  0  0  0  0  0  0  0  0
    4.9343   -4.6988   -0.0818 H   0  0  0  0  0  0  0  0  0  0  0  0
    3.5292   -3.0559   -0.2397 C   0  0  0  0  0  0  0  0  0  0  0  0
    2.8349   -3.6274   -0.8726 H   0  0  0  0  0  0  0  0  0  0  0  0
  1  5  1  0  0  0  0
  1  7  1  0  0  0  0
  4 10  1  0  0  0  0
  4  2  1  0  0  0  0
  5  4  2  0  0  0  0
  6  5  1  0  0  0  0
  7  9  2  0  0  0  0
  8  7  1  0  0  0  0
  9 21  1  0  0  0  0
  9  3  1  0  0  0  0
 10 19  1  0  0  0  0
 11 13  1  0  0  0  0
 11 10  2  0  0  0  0
 12 11  1  0  0  0  0
 13 15  2  0  0  0  0
 14 13  1  0  0  0  0
 15 16  1  0  0  0  0
 15 17  1  0  0  0  0
 17 18  1  0  0  0  0
 19 17  2  0  0  0  0
 19 20  1  0  0  0  0
 21 22  1  0  0  0  0
 22 23  1  0  0  0  0
 22 24  2  0  0  0  0
 24 25  1  0  0  0  0
 26 27  1  0  0  0  0
 26 24  1  0  0  0  0
 28 26  2  0  0  0  0
 29 28  1  0  0  0  0
 30 21  2  0  0  0  0
 30 28  1  0  0  0  0
 31 30  1  0  0  0  0
M  CHG  2   2  -1   3  -1
M  END
