1,2,3
 OpenBabel05122313063D

 71 72  0  0  0  0  0  0  0  0999 V2000
   -1.6526   -0.0967   -1.3495 S   0  0  0  0  0  0  0  0  0  0  0  0
   -2.4178   -1.7047    1.0111 O   0  5  0  0  0  0  0  0  0  0  0  0
   -2.7569    0.9350    1.1854 O   0  5  0  0  0  0  0  0  0  0  0  0
   -1.1064    1.3757   -0.4829 C   0  0  0  0  0  0  0  0  0  0  0  0
   -1.7997    1.6980    0.7222 C   0  0  0  0  0  0  0  0  0  0  0  0
   -1.4017    2.8935    1.3824 C   0  0  0  0  0  0  0  0  0  0  0  0
   -1.9303    3.1677    2.3073 H   0  0  0  0  0  0  0  0  0  0  0  0
   -0.3812    3.6943    0.8667 C   0  0  0  0  0  0  0  0  0  0  0  0
   -0.1020    4.6021    1.4250 H   0  0  0  0  0  0  0  0  0  0  0  0
    0.3085    3.3718   -0.3271 C   0  0  0  0  0  0  0  0  0  0  0  0
   -0.0939    2.1987   -0.9946 C   0  0  0  0  0  0  0  0  0  0  0  0
    0.3834    1.8921   -1.9357 H   0  0  0  0  0  0  0  0  0  0  0  0
    1.4609    4.2544   -0.8271 C   0  0  0  0  0  0  0  0  0  0  0  0
    0.9820    5.7260   -0.8981 C   0  0  0  0  0  0  0  0  0  0  0  0
    0.1249    5.8224   -1.5946 H   0  0  0  0  0  0  0  0  0  0  0  0
    1.7995    6.3870   -1.2569 H   0  0  0  0  0  0  0  0  0  0  0  0
    0.6566    6.1043    0.0909 H   0  0  0  0  0  0  0  0  0  0  0  0
    1.8970    3.8807   -2.2582 C   0  0  0  0  0  0  0  0  0  0  0  0
    2.2585    2.8422   -2.3516 H   0  0  0  0  0  0  0  0  0  0  0  0
    2.7194    4.5489   -2.5874 H   0  0  0  0  0  0  0  0  0  0  0  0
    1.0530    4.0062   -2.9662 H   0  0  0  0  0  0  0  0  0  0  0  0
    2.6763    4.2321    0.1568 C   0  0  0  0  0  0  0  0  0  0  0  0
    2.3844    4.8230    1.0534 H   0  0  0  0  0  0  0  0  0  0  0  0
    3.4828    4.8256   -0.3326 H   0  0  0  0  0  0  0  0  0  0  0  0
    3.3255    2.9236    0.6993 C   0  0  0  0  0  0  0  0  0  0  0  0
    2.4273    2.1993    1.7228 C   0  0  0  0  0  0  0  0  0  0  0  0
    2.9977    1.3875    2.2190 H   0  0  0  0  0  0  0  0  0  0  0  0
    1.5347    1.7452    1.2553 H   0  0  0  0  0  0  0  0  0  0  0  0
    2.0729    2.8961    2.5097 H   0  0  0  0  0  0  0  0  0  0  0  0
    3.7179    1.9289   -0.4086 C   0  0  0  0  0  0  0  0  0  0  0  0
    4.3167    1.1002    0.0207 H   0  0  0  0  0  0  0  0  0  0  0  0
    4.3282    2.4117   -1.1998 H   0  0  0  0  0  0  0  0  0  0  0  0
    2.8244    1.4748   -0.8806 H   0  0  0  0  0  0  0  0  0  0  0  0
    4.6147    3.3624    1.4284 C   0  0  0  0  0  0  0  0  0  0  0  0
    4.3890    4.0821    2.2432 H   0  0  0  0  0  0  0  0  0  0  0  0
    5.3276    3.8526    0.7321 H   0  0  0  0  0  0  0  0  0  0  0  0
    5.1273    2.4883    1.8819 H   0  0  0  0  0  0  0  0  0  0  0  0
   -0.6697   -1.3926   -0.5893 C   0  0  0  0  0  0  0  0  0  0  0  0
   -1.2596   -2.0676    0.5211 C   0  0  0  0  0  0  0  0  0  0  0  0
   -0.5281   -3.1620    1.0599 C   0  0  0  0  0  0  0  0  0  0  0  0
   -0.9752   -3.7111    1.9018 H   0  0  0  0  0  0  0  0  0  0  0  0
    0.7092   -3.5316    0.5299 C   0  0  0  0  0  0  0  0  0  0  0  0
    1.2276   -4.3930    0.9806 H   0  0  0  0  0  0  0  0  0  0  0  0
    1.3108   -2.8425   -0.5508 C   0  0  0  0  0  0  0  0  0  0  0  0
    0.5778   -1.7741   -1.1042 C   0  0  0  0  0  0  0  0  0  0  0  0
    0.9649   -1.2087   -1.9634 H   0  0  0  0  0  0  0  0  0  0  0  0
    2.6576   -3.3107   -1.1338 C   0  0  0  0  0  0  0  0  0  0  0  0
    2.3997   -4.6534   -1.8671 C   0  0  0  0  0  0  0  0  0  0  0  0
    1.6254   -4.5229   -2.6494 H   0  0  0  0  0  0  0  0  0  0  0  0
    2.0366   -5.4302   -1.1645 H   0  0  0  0  0  0  0  0  0  0  0  0
    3.3272   -5.0312   -2.3491 H   0  0  0  0  0  0  0  0  0  0  0  0
    3.2034   -2.3196   -2.1773 C   0  0  0  0  0  0  0  0  0  0  0  0
    2.5462   -2.2826   -3.0692 H   0  0  0  0  0  0  0  0  0  0  0  0
    4.2101   -2.6352   -2.5189 H   0  0  0  0  0  0  0  0  0  0  0  0
    3.2815   -1.2887   -1.7816 H   0  0  0  0  0  0  0  0  0  0  0  0
    3.7118   -3.6168   -0.0261 C   0  0  0  0  0  0  0  0  0  0  0  0
    3.2527   -4.3669    0.6518 H   0  0  0  0  0  0  0  0  0  0  0  0
    4.5525   -4.1574   -0.5180 H   0  0  0  0  0  0  0  0  0  0  0  0
    4.3488   -2.5173    0.8746 C   0  0  0  0  0  0  0  0  0  0  0  0
    3.3107   -1.5509    1.4707 C   0  0  0  0  0  0  0  0  0  0  0  0
    3.8092   -0.8399    2.1628 H   0  0  0  0  0  0  0  0  0  0  0  0
    2.5268   -2.0899    2.0377 H   0  0  0  0  0  0  0  0  0  0  0  0
    2.7905   -0.9596    0.6937 H   0  0  0  0  0  0  0  0  0  0  0  0
    5.0473   -3.2589    2.0354 C   0  0  0  0  0  0  0  0  0  0  0  0
    5.5709   -2.5440    2.7042 H   0  0  0  0  0  0  0  0  0  0  0  0
    5.7999   -3.9829    1.6571 H   0  0  0  0  0  0  0  0  0  0  0  0
    4.3134   -3.8216    2.6488 H   0  0  0  0  0  0  0  0  0  0  0  0
    5.4323   -1.7135    0.1257 C   0  0  0  0  0  0  0  0  0  0  0  0
    5.0132   -1.0879   -0.6829 H   0  0  0  0  0  0  0  0  0  0  0  0
    6.1910   -2.3875   -0.3255 H   0  0  0  0  0  0  0  0  0  0  0  0
    5.9603   -1.0337    0.8274 H   0  0  0  0  0  0  0  0  0  0  0  0
  1 38  1  0  0  0  0
  1  4  1  0  0  0  0
  4  5  1  0  0  0  0
  5  3  1  0  0  0  0
  5  6  2  0  0  0  0
  6  7  1  0  0  0  0
  8  6  1  0  0  0  0
  8  9  1  0  0  0  0
 10  8  2  0  0  0  0
 11  4  2  0  0  0  0
 11 10  1  0  0  0  0
 12 11  1  0  0  0  0
 13 10  1  0  0  0  0
 13 22  1  0  0  0  0
 14 13  1  0  0  0  0
 14 17  1  0  0  0  0
 15 14  1  0  0  0  0
 16 14  1  0  0  0  0
 18 13  1  0  0  0  0
 19 18  1  0  0  0  0
 20 18  1  0  0  0  0
 21 18  1  0  0  0  0
 22 25  1  0  0  0  0
 22 23  1  0  0  0  0
 24 22  1  0  0  0  0
 25 34  1  0  0  0  0
 25 26  1  0  0  0  0
 26 27  1  0  0  0  0
 26 29  1  0  0  0  0
 28 26  1  0  0  0  0
 30 31  1  0  0  0  0
 30 25  1  0  0  0  0
 32 30  1  0  0  0  0
 33 30  1  0  0  0  0
 34 37  1  0  0  0  0
 34 35  1  0  0  0  0
 36 34  1  0  0  0  0
 38 39  1  0  0  0  0
 39  2  1  0  0  0  0
 39 40  2  0  0  0  0
 40 41  1  0  0  0  0
 42 43  1  0  0  0  0
 42 40  1  0  0  0  0
 44 42  2  0  0  0  0
 45 38  2  0  0  0  0
 45 44  1  0  0  0  0
 46 45  1  0  0  0  0
 47 44  1  0  0  0  0
 47 56  1  0  0  0  0
 48 50  1  0  0  0  0
 48 47  1  0  0  0  0
 49 48  1  0  0  0  0
 51 48  1  0  0  0  0
 52 55  1  0  0  0  0
 52 47  1  0  0  0  0
 53 52  1  0  0  0  0
 54 52  1  0  0  0  0
 56 57  1  0  0  0  0
 56 59  1  0  0  0  0
 58 56  1  0  0  0  0
 59 60  1  0  0  0  0
 59 64  1  0  0  0  0
 60 62  1  0  0  0  0
 60 61  1  0  0  0  0
 63 60  1  0  0  0  0
 64 67  1  0  0  0  0
 64 65  1  0  0  0  0
 66 64  1  0  0  0  0
 68 71  1  0  0  0  0
 68 59  1  0  0  0  0
 69 68  1  0  0  0  0
 70 68  1  0  0  0  0
M  CHG  2   2  -1   3  -1
M  END
