1,2
q = -1.0, confidence = 0.006

 35 34  0  0  1  0  0  0  0  0999 V2000
   -1.5187   -1.8026   -0.2678 S   0  0  0  0  0  1  0  0  0  0  0  0
   -1.2465    1.1700   -0.2827 O   0  5  0  0  0  0  0  0  0  0  0  0
   -4.1725   -1.9074   -0.3577 N   0  0  0  0  0  0  0  0  0  0  0  0
   -3.4086    0.2309   -0.0518 N   0  0  0  0  0  0  0  0  0  0  0  0
   -2.9982    2.4875    0.2146 N   0  0  0  0  0  0  0  0  0  0  0  0
   -3.1071   -1.0523   -0.2241 C   0  0  1  0  0  3  0  0  0  0  0  0
   -4.0106   -3.3425   -0.5774 C   0  0  0  0  0  0  0  0  0  0  0  0
   -3.0991   -3.4987   -1.1900 H   0  0  0  0  0  0  0  0  0  0  0  0
   -4.8722   -3.6819   -1.1905 H   0  0  0  0  0  0  0  0  0  0  0  0
   -3.9185   -4.1481    0.7198 C   0  0  0  0  0  0  0  0  0  0  0  0
   -3.0303   -3.8306    1.3007 H   0  0  0  0  0  0  0  0  0  0  0  0
   -3.8205   -5.2303    0.4995 H   0  0  0  0  0  0  0  0  0  0  0  0
   -4.8209   -4.0068    1.3493 H   0  0  0  0  0  0  0  0  0  0  0  0
   -5.5402   -1.3919   -0.2732 C   0  0  0  0  0  0  0  0  0  0  0  0
   -5.5484   -0.5659    0.4629 H   0  0  0  0  0  0  0  0  0  0  0  0
   -6.1760   -2.2087    0.1285 H   0  0  0  0  0  0  0  0  0  0  0  0
   -6.0777   -0.8997   -1.6171 C   0  0  0  0  0  0  0  0  0  0  0  0
   -5.4572   -0.0611   -1.9893 H   0  0  0  0  0  0  0  0  0  0  0  0
   -7.1229   -0.5429   -1.5143 H   0  0  0  0  0  0  0  0  0  0  0  0
   -6.0662   -1.7052   -2.3797 H   0  0  0  0  0  0  0  0  0  0  0  0
   -2.5035    1.2289   -0.0446 C   0  0  0  0  0  0  0  0  0  0  0  0
   -4.4168    2.7034    0.4798 C   0  0  0  0  0  0  0  0  0  0  0  0
   -4.9862    1.9908   -0.1470 H   0  0  0  0  0  0  0  0  0  0  0  0
   -4.6684    3.7288    0.1344 H   0  0  0  0  0  0  0  0  0  0  0  0
   -4.8111    2.5235    1.9477 C   0  0  0  0  0  0  0  0  0  0  0  0
   -4.5668    1.4958    2.2826 H   0  0  0  0  0  0  0  0  0  0  0  0
   -5.9008    2.6829    2.0823 H   0  0  0  0  0  0  0  0  0  0  0  0
   -4.2797    3.2392    2.6071 H   0  0  0  0  0  0  0  0  0  0  0  0
   -2.0544    3.5985    0.3426 C   0  0  0  0  0  0  0  0  0  0  0  0
   -2.6504    4.5325    0.2932 H   0  0  0  0  0  0  0  0  0  0  0  0
   -1.3795    3.5891   -0.5373 H   0  0  0  0  0  0  0  0  0  0  0  0
   -1.2099    3.5658    1.6198 C   0  0  0  0  0  0  0  0  0  0  0  0
   -1.8423    3.5747    2.5300 H   0  0  0  0  0  0  0  0  0  0  0  0
   -0.5414    4.4505    1.6582 H   0  0  0  0  0  0  0  0  0  0  0  0
   -0.5773    2.6573    1.6301 H   0  0  0  0  0  0  0  0  0  0  0  0
  2 21  1  0  0  0  0
  3 14  1  0  0  0  0
  3  6  1  0  0  0  0
  4 21  2  0  0  0  0
  5 29  1  0  0  0  0
  5 22  1  0  0  0  0
  6  1  1  1  0  0  0
  6  4  1  0  0  0  0
  7  3  1  0  0  0  0
  7 10  1  0  0  0  0
  8  7  1  0  0  0  0
  9  7  1  0  0  0  0
 10 11  1  0  0  0  0
 10 13  1  0  0  0  0
 12 10  1  0  0  0  0
 14 16  1  0  0  0  0
 14 15  1  0  0  0  0
 17 19  1  0  0  0  0
 17 14  1  0  0  0  0
 18 17  1  0  0  0  0
 20 17  1  0  0  0  0
 21  5  1  0  0  0  0
 22 25  1  0  0  0  0
 23 22  1  0  0  0  0
 24 22  1  0  0  0  0
 25 27  1  0  0  0  0
 25 26  1  0  0  0  0
 25 28  1  0  0  0  0
 29 32  1  0  0  0  0
 30 29  1  0  0  0  0
 31 29  1  0  0  0  0
 32 35  1  0  0  0  0
 32 34  1  0  0  0  0
 32 33  1  0  0  0  0
M  CHG  1   2  -1
M  END
