1,3
q = -1.0, confidence = 0.0

 14 14  0  0  0  0  0  0  0  0999 V2000
   -2.2790   -1.5690    0.8175 S   0  0  0  0  0  1  0  0  0  0  0  0
   -3.7222    2.5027   -0.4138 O   0  0  0  0  0  0  0  0  0  0  0  0
   -0.8671    0.3738   -0.8467 O   0  5  0  0  0  0  0  0  0  0  0  0
   -2.8847   -0.0402    0.3446 C   0  0  0  0  0  0  0  0  0  0  0  0
   -4.1637    0.4589    0.7085 C   0  0  0  0  0  0  0  0  0  0  0  0
   -4.8565   -0.1482    1.3076 H   0  0  0  0  0  0  0  0  0  0  0  0
   -4.5357    1.7215    0.3112 C   0  0  0  0  0  3  0  0  0  0  0  0
   -5.4918    2.2106    0.5381 H   0  0  0  0  0  0  0  0  0  0  0  0
   -2.4910    2.0876   -0.8011 C   0  0  0  0  0  0  0  0  0  0  0  0
   -2.0240    0.8015   -0.4630 C   0  0  0  0  0  0  0  0  0  0  0  0
   -1.7186    3.0652   -1.6091 C   0  0  0  0  0  0  0  0  0  0  0  0
   -1.9805    2.9933   -2.6878 H   0  0  0  0  0  0  0  0  0  0  0  0
   -0.6408    2.8360   -1.5159 H   0  0  0  0  0  0  0  0  0  0  0  0
   -1.9216    4.1023   -1.2785 H   0  0  0  0  0  0  0  0  0  0  0  0
  2  7  1  0  0  0  0
  3 10  1  0  0  0  0
  4  5  2  0  0  0  0
  4  1  1  0  0  0  0
  5  6  1  0  0  0  0
  7  8  1  0  0  0  0
  7  5  1  0  0  0  0
  9 10  2  0  0  0  0
  9  2  1  0  0  0  0
 10  4  1  0  0  0  0
 11 13  1  0  0  0  0
 11 14  1  0  0  0  0
 11  9  1  0  0  0  0
 12 11  1  0  0  0  0
M  CHG  1   3  -1
M  END
