1,4
q = -2.0, confidence = 0.904

 35 37  0  0  0  0  0  0  0  0999 V2000
   -1.2322   -2.3358   -1.9576 S   0  0  0  0  0  1  0  0  0  0  0  0
   -1.5175   -2.3470    1.1126 S   0  0  0  0  0  1  0  0  0  0  0  0
   -2.2974    0.4587    0.0387 P   0  0  0  0  0  4  0  0  0  0  0  0
   -0.7732    0.3704   -0.3209 O   0  0  0  0  0  1  0  0  0  0  0  0
   -3.3415   -0.6881   -0.8875 C   0  0  0  0  0  0  0  0  0  0  0  0
   -2.8741   -1.7468   -1.7210 C   0  0  0  0  0  0  0  0  0  0  0  0
   -3.8510   -2.4805   -2.4475 C   0  0  0  0  0  0  0  0  0  0  0  0
   -3.5015   -3.2946   -3.1003 H   0  0  0  0  0  0  0  0  0  0  0  0
   -5.2158   -2.2263   -2.3150 C   0  0  0  0  0  0  0  0  0  0  0  0
   -5.9355   -2.8326   -2.8858 H   0  0  0  0  0  0  0  0  0  0  0  0
   -5.6724   -1.2276   -1.4336 C   0  0  0  0  0  0  0  0  0  0  0  0
   -6.7478   -1.0444   -1.2962 H   0  0  0  0  0  0  0  0  0  0  0  0
   -4.7340   -0.4689   -0.7327 C   0  0  0  0  0  0  0  0  0  0  0  0
   -5.0810    0.3152   -0.0407 H   0  0  0  0  0  0  0  0  0  0  0  0
   -2.5540    0.1445    1.8034 C   0  0  0  0  0  0  0  0  0  0  0  0
   -2.1176   -1.1329    2.2539 C   0  0  0  0  0  0  0  0  0  0  0  0
   -2.2845   -1.4607    3.6169 C   0  0  0  0  0  0  0  0  0  0  0  0
   -1.9320   -2.4411    3.9686 H   0  0  0  0  0  0  0  0  0  0  0  0
   -2.8825   -0.5499    4.4970 C   0  0  0  0  0  0  0  0  0  0  0  0
   -3.0069   -0.8232    5.5561 H   0  0  0  0  0  0  0  0  0  0  0  0
   -3.3152    0.7088    4.0435 C   0  0  0  0  0  0  0  0  0  0  0  0
   -3.7854    1.4192    4.7393 H   0  0  0  0  0  0  0  0  0  0  0  0
   -3.1469    1.0574    2.6959 C   0  0  0  0  0  0  0  0  0  0  0  0
   -3.4907    2.0373    2.3333 H   0  0  0  0  0  0  0  0  0  0  0  0
   -2.7934    2.1716   -0.3272 C   0  0  0  0  0  0  0  0  0  0  0  0
   -3.6965    2.5057   -1.3559 C   0  0  0  0  0  0  0  0  0  0  0  0
   -4.1779    1.7126   -1.9455 H   0  0  0  0  0  0  0  0  0  0  0  0
   -3.9737    3.8526   -1.6335 C   0  0  0  0  0  0  0  0  0  0  0  0
   -4.6784    4.1077   -2.4391 H   0  0  0  0  0  0  0  0  0  0  0  0
   -3.3528    4.8689   -0.8909 C   0  0  0  0  0  0  0  0  0  0  0  0
   -3.5778    5.9245   -1.1068 H   0  0  0  0  0  0  0  0  0  0  0  0
   -2.4332    4.5387    0.1177 C   0  0  0  0  0  0  0  0  0  0  0  0
   -1.9252    5.3312    0.6869 H   0  0  0  0  0  0  0  0  0  0  0  0
   -2.1422    3.1963    0.3945 C   0  0  0  0  0  0  0  0  0  0  0  0
   -1.3931    2.9453    1.1608 H   0  0  0  0  0  0  0  0  0  0  0  0
  1  6  1  0  0  0  0
  2 16  1  0  0  0  0
  3 15  1  0  0  0  0
  4  3  1  0  0  0  0
  5 13  1  0  0  0  0
  5  3  1  0  0  0  0
  6  5  2  0  0  0  0
  7  9  2  0  0  0  0
  7  6  1  0  0  0  0
  8  7  1  0  0  0  0
  9 11  1  0  0  0  0
 10  9  1  0  0  0  0
 11 12  1  0  0  0  0
 11 13  2  0  0  0  0
 13 14  1  0  0  0  0
 15 16  2  0  0  0  0
 15 23  1  0  0  0  0
 16 17  1  0  0  0  0
 17 18  1  0  0  0  0
 17 19  2  0  0  0  0
 19 20  1  0  0  0  0
 21 19  1  0  0  0  0
 21 22  1  0  0  0  0
 23 21  2  0  0  0  0
 24 23  1  0  0  0  0
 25  3  1  0  0  0  0
 25 34  1  0  0  0  0
 26 25  2  0  0  0  0
 27 26  1  0  0  0  0
 28 26  1  0  0  0  0
 28 30  2  0  0  0  0
 29 28  1  0  0  0  0
 30 32  1  0  0  0  0
 31 30  1  0  0  0  0
 32 34  2  0  0  0  0
 32 33  1  0  0  0  0
 34 35  1  0  0  0  0
M  END
