1,2
q = 0.0, confidence = 0.92

 18 18  0  0  1  0  0  0  0  0999 V2000
   -1.3383    1.4814   -0.8206 S   0  0  0  0  0  1  0  0  0  0  0  0
   -1.3307    0.6515    1.7525 O   0  0  0  0  0  1  0  0  0  0  0  0
   -2.5858    1.0391    1.4380 N   0  0  0  0  0  0  0  0  0  0  0  0
   -3.5203    0.8176    2.3663 C   0  0  0  0  0  3  0  0  0  0  0  0
   -2.7367    1.5975    0.1745 C   0  0  2  0  0  3  0  0  0  0  0  0
   -3.9782    2.2136   -0.2918 C   0  0  0  0  0  0  0  0  0  0  0  0
   -4.3573    2.0723   -1.6530 C   0  0  0  0  0  0  0  0  0  0  0  0
   -5.5057    2.6962   -2.1508 C   0  0  0  0  0  0  0  0  0  0  0  0
   -6.3132    3.4810   -1.3100 C   0  0  0  0  0  0  0  0  0  0  0  0
   -5.9463    3.6418    0.0362 C   0  0  0  0  0  0  0  0  0  0  0  0
   -4.7979    3.0206    0.5419 C   0  0  0  0  0  0  0  0  0  0  0  0
   -3.7295    1.4545   -2.3121 H   0  0  0  0  0  0  0  0  0  0  0  0
   -5.7793    2.5605   -3.2085 H   0  0  0  0  0  0  0  0  0  0  0  0
   -7.2201    3.9657   -1.7015 H   0  0  0  0  0  0  0  0  0  0  0  0
   -6.5574    4.2701    0.7027 H   0  0  0  0  0  0  0  0  0  0  0  0
   -4.5110    3.1899    1.5898 H   0  0  0  0  0  0  0  0  0  0  0  0
   -3.1902    0.2941    3.2684 H   0  0  0  0  0  0  0  0  0  0  0  0
   -4.5567    1.0874    2.1509 H   0  0  0  0  0  0  0  0  0  0  0  0
  3  2  1  0  0  0  0
  3  4  1  0  0  0  0
  4 17  1  0  0  0  0
  5  1  1  6  0  0  0
  5  3  1  0  0  0  0
  6  5  1  0  0  0  0
  6 11  1  0  0  0  0
  7  6  2  0  0  0  0
  8  7  1  0  0  0  0
  8  9  2  0  0  0  0
  9 10  1  0  0  0  0
 10 11  2  0  0  0  0
 10 15  1  0  0  0  0
 11 16  1  0  0  0  0
 12  7  1  0  0  0  0
 13  8  1  0  0  0  0
 14  9  1  0  0  0  0
 18  4  1  0  0  0  0
M  END
