1,2
q = -1.0, confidence = 0.0

 19 19  0  0  1  0  0  0  0  0999 V2000
    1.7136    0.5927   -1.0350 S   0  0  0  0  0  1  0  0  0  0  0  0
    1.0771    1.4340    1.5986 O   0  0  0  0  0  1  0  0  0  0  0  0
    2.3276    1.7065    1.2579 N   0  0  0  0  0  0  0  0  0  0  0  0
    3.0782    2.3117    2.3535 C   0  0  0  0  0  0  0  0  0  0  0  0
    2.7946    1.4040    0.0425 C   0  0  2  0  0  3  0  0  0  0  0  0
    4.1482    1.7914   -0.4088 C   0  0  0  0  0  0  0  0  0  0  0  0
    4.9668    0.8263   -1.0383 C   0  0  0  0  0  0  0  0  0  0  0  0
    6.2388    1.1721   -1.5110 C   0  0  0  0  0  0  0  0  0  0  0  0
    6.7094    2.4887   -1.3770 C   0  0  0  0  0  0  0  0  0  0  0  0
    5.8956    3.4612   -0.7744 C   0  0  0  0  0  0  0  0  0  0  0  0
    4.6233    3.1189   -0.2965 C   0  0  0  0  0  0  0  0  0  0  0  0
    4.5846   -0.1992   -1.1499 H   0  0  0  0  0  0  0  0  0  0  0  0
    6.8682    0.4075   -1.9910 H   0  0  0  0  0  0  0  0  0  0  0  0
    7.7075    2.7601   -1.7528 H   0  0  0  0  0  0  0  0  0  0  0  0
    6.2484    4.5001   -0.6876 H   0  0  0  0  0  0  0  0  0  0  0  0
    3.9763    3.8934    0.1416 H   0  0  0  0  0  0  0  0  0  0  0  0
    4.1522    2.3626    2.1078 H   0  0  0  0  0  0  0  0  0  0  0  0
    2.9137    1.6816    3.2480 H   0  0  0  0  0  0  0  0  0  0  0  0
    2.6811    3.3261    2.5580 H   0  0  0  0  0  0  0  0  0  0  0  0
  3  2  1  0  0  0  0
  3  4  1  0  0  0  0
  4 19  1  0  0  0  0
  4 18  1  0  0  0  0
  5  1  1  6  0  0  0
  5  3  1  0  0  0  0
  6 11  1  0  0  0  0
  6  5  1  0  0  0  0
  7  6  2  0  0  0  0
  8  9  2  0  0  0  0
  8  7  1  0  0  0  0
  9 10  1  0  0  0  0
 10 15  1  0  0  0  0
 10 11  2  0  0  0  0
 11 16  1  0  0  0  0
 12  7  1  0  0  0  0
 13  8  1  0  0  0  0
 14  9  1  0  0  0  0
 17  4  1  0  0  0  0
M  END
