1,3
q = -1.0, confidence = 0.0

 26 26  0  0  1  0  0  0  0  0999 V2000
    0.9066    1.9712    0.0495 S   0  0  0  0  0  1  0  0  0  0  0  0
   -1.2103    3.8467   -0.2568 S   0  0  0  0  0  0  0  0  0  0  0  0
   -0.5318   -0.8845    0.0815 O   0  5  0  0  0  0  0  0  0  0  0  0
   -4.4995    0.5032    0.3243 O   0  0  0  0  0  0  0  0  0  0  0  0
   -0.7999    2.1282   -0.1229 C   0  0  1  0  0  3  0  0  0  0  0  0
   -1.7986    1.1474   -0.1651 C   0  0  0  0  0  0  0  0  0  0  0  0
   -2.8289    1.4841   -0.2960 H   0  0  0  0  0  0  0  0  0  0  0  0
   -1.6494   -0.2559   -0.0403 C   0  0  0  0  0  0  0  0  0  0  0  0
   -2.8302   -1.1777   -0.0830 C   0  0  0  0  0  0  0  0  0  0  0  0
   -2.5445   -2.5485   -0.2917 C   0  0  0  0  0  0  0  0  0  0  0  0
   -1.4860   -2.8251   -0.3992 H   0  0  0  0  0  0  0  0  0  0  0  0
   -3.5454   -3.5210   -0.3546 C   0  0  0  0  0  0  0  0  0  0  0  0
   -3.2798   -4.5741   -0.5259 H   0  0  0  0  0  0  0  0  0  0  0  0
   -4.8841   -3.1374   -0.1958 C   0  0  0  0  0  0  0  0  0  0  0  0
   -5.6906   -3.8851   -0.2414 H   0  0  0  0  0  0  0  0  0  0  0  0
   -5.2086   -1.7932    0.0277 C   0  0  0  0  0  0  0  0  0  0  0  0
   -6.2609   -1.5123    0.1604 H   0  0  0  0  0  0  0  0  0  0  0  0
   -4.2019   -0.8072    0.0884 C   0  0  0  0  0  0  0  0  0  0  0  0
   -5.8464    0.8849    0.5405 C   0  0  0  0  0  0  0  0  0  0  0  0
   -5.8309    1.9759    0.7219 H   0  0  0  0  0  0  0  0  0  0  0  0
   -6.2811    0.3767    1.4288 H   0  0  0  0  0  0  0  0  0  0  0  0
   -6.4858    0.6739   -0.3449 H   0  0  0  0  0  0  0  0  0  0  0  0
   -3.0244    3.8824   -0.1732 C   0  0  0  0  0  0  0  0  0  0  0  0
   -3.3928    3.3985    0.7523 H   0  0  0  0  0  0  0  0  0  0  0  0
   -3.4890    3.4106   -1.0611 H   0  0  0  0  0  0  0  0  0  0  0  0
   -3.2882    4.9572   -0.1563 H   0  0  0  0  0  0  0  0  0  0  0  0
  2 23  1  0  0  0  0
  2  5  1  0  0  0  0
  4 19  1  0  0  0  0
  5  1  1  6  0  0  0
  6  5  1  0  0  0  0
  6  8  2  0  0  0  0
  7  6  1  0  0  0  0
  8  3  1  0  0  0  0
  9  8  1  0  0  0  0
  9 18  1  0  0  0  0
 10  9  2  0  0  0  0
 11 10  1  0  0  0  0
 12 10  1  0  0  0  0
 12 14  2  0  0  0  0
 13 12  1  0  0  0  0
 14 16  1  0  0  0  0
 15 14  1  0  0  0  0
 16 18  2  0  0  0  0
 16 17  1  0  0  0  0
 18  4  1  0  0  0  0
 19 20  1  0  0  0  0
 19 21  1  0  0  0  0
 22 19  1  0  0  0  0
 23 26  1  0  0  0  0
 23 24  1  0  0  0  0
 25 23  1  0  0  0  0
M  CHG  1   3  -1
M  END
