1,2
q = -1.0, confidence = 0.004

 25 25  0  0  0  0  0  0  0  0999 V2000
   -0.2084    0.4701    1.4990 S   0  0  0  0  0  0  0  0  0  0  0  0
    1.6556   -1.3482    0.3378 O   0  0  0  0  0  1  0  0  0  0  0  0
    3.0708   -1.6835   -1.9166 F   0  0  0  0  0  0  0  0  0  0  0  0
    2.0943    0.2642   -2.0775 F   0  0  0  0  0  0  0  0  0  0  0  0
    4.2394    0.1311   -1.6912 F   0  0  0  0  0  0  0  0  0  0  0  0
    5.0390   -0.4076    0.8392 F   0  0  0  0  0  0  0  0  0  0  0  0
    4.1169   -2.3567    0.5775 F   0  0  0  0  0  0  0  0  0  0  0  0
    3.5467   -1.0985    2.2674 F   0  0  0  0  0  0  0  0  0  0  0  0
    2.6802   -0.4766    0.1289 C   0  0  0  0  0  0  0  0  0  0  0  0
    3.0393   -0.4515   -1.4104 C   0  0  0  0  0  0  0  0  0  0  0  0
    3.8743   -1.0940    0.9516 C   0  0  0  0  0  0  0  0  0  0  0  0
    0.2729   -0.6531    2.8544 C   0  0  0  0  0  0  0  0  0  0  0  0
    1.2763    1.4516    1.2155 C   0  0  0  0  0  0  0  0  0  0  0  0
    2.4707    0.9935    0.6044 C   0  0  0  0  0  0  0  0  0  0  0  0
    3.4908    1.9533    0.4198 C   0  0  0  0  0  0  0  0  0  0  0  0
    3.3389    3.2920    0.8038 C   0  0  0  0  0  0  0  0  0  0  0  0
    2.1443    3.7265    1.3919 C   0  0  0  0  0  0  0  0  0  0  0  0
    1.1153    2.8009    1.5928 C   0  0  0  0  0  0  0  0  0  0  0  0
   -0.6287   -1.2550    3.0772 H   0  0  0  0  0  0  0  0  0  0  0  0
    0.5586   -0.0400    3.7299 H   0  0  0  0  0  0  0  0  0  0  0  0
    1.1027   -1.2867    2.4909 H   0  0  0  0  0  0  0  0  0  0  0  0
    4.4303    1.6420   -0.0492 H   0  0  0  0  0  0  0  0  0  0  0  0
    4.1650    3.9986    0.6335 H   0  0  0  0  0  0  0  0  0  0  0  0
    2.0096    4.7762    1.6922 H   0  0  0  0  0  0  0  0  0  0  0  0
    0.1614    3.1129    2.0438 H   0  0  0  0  0  0  0  0  0  0  0  0
  1 12  1  0  0  0  0
  3 10  1  0  0  0  0
  4 10  1  0  0  0  0
  5 10  1  0  0  0  0
  6 11  1  0  0  0  0
  7 11  1  0  0  0  0
  9  2  1  0  0  0  0
  9 14  1  0  0  0  0
  9 11  1  0  0  0  0
 10  9  1  0  0  0  0
 11  8  1  0  0  0  0
 12 19  1  0  0  0  0
 12 20  1  0  0  0  0
 13  1  1  0  0  0  0
 13 18  1  0  0  0  0
 14 13  2  0  0  0  0
 15 14  1  0  0  0  0
 15 16  2  0  0  0  0
 16 17  1  0  0  0  0
 17 18  2  0  0  0  0
 17 24  1  0  0  0  0
 18 25  1  0  0  0  0
 21 12  1  0  0  0  0
 22 15  1  0  0  0  0
 23 16  1  0  0  0  0
M  END
