1,2
q = 0.0, confidence = 0.996

 32 32  0  0  1  0  0  0  0  0999 V2000
    0.6549    1.0243    1.8697 S   0  0  0  0  0  1  0  0  0  0  0  0
   -0.8342   -1.2147    0.2701 O   0  0  0  0  0  1  0  0  0  0  0  0
   -1.6947    0.9298    0.5256 N   0  0  0  0  0  0  0  0  0  0  0  0
   -2.5241    1.4529    0.2363 H   0  0  0  0  0  0  0  0  0  0  0  0
   -0.5522    2.9422    0.4166 N   0  0  0  0  0  0  0  0  0  0  0  0
   -0.5622    1.6755    0.8617 C   0  0  1  0  0  3  0  0  0  0  0  0
   -1.8025   -0.4421    0.3475 C   0  0  1  0  0  3  0  0  0  0  0  0
    0.5194    3.8717    0.8159 C   0  0  0  0  0  0  0  0  0  0  0  0
    0.8237    3.6029    1.8450 H   0  0  0  0  0  0  0  0  0  0  0  0
    0.0623    4.8829    0.8479 H   0  0  0  0  0  0  0  0  0  0  0  0
    1.7236    3.8303   -0.1216 C   0  0  0  0  0  0  0  0  0  0  0  0
    2.4832    4.5584    0.2255 H   0  0  0  0  0  0  0  0  0  0  0  0
    1.4479    4.0851   -1.1638 H   0  0  0  0  0  0  0  0  0  0  0  0
    2.1722    2.8190   -0.1320 H   0  0  0  0  0  0  0  0  0  0  0  0
   -1.4745    3.4129   -0.6295 C   0  0  0  0  0  0  0  0  0  0  0  0
   -1.6495    2.5700   -1.3303 H   0  0  0  0  0  0  0  0  0  0  0  0
   -0.9193    4.1676   -1.2193 H   0  0  0  0  0  0  0  0  0  0  0  0
   -2.7670    4.0218   -0.0830 C   0  0  0  0  0  0  0  0  0  0  0  0
   -3.3862    4.4076   -0.9166 H   0  0  0  0  0  0  0  0  0  0  0  0
   -2.5558    4.8643    0.6053 H   0  0  0  0  0  0  0  0  0  0  0  0
   -3.3865    3.2901    0.4783 H   0  0  0  0  0  0  0  0  0  0  0  0
   -3.1870   -0.9566    0.1912 C   0  0  0  0  0  0  0  0  0  0  0  0
   -3.3623   -2.1806   -0.4898 C   0  0  0  0  0  0  0  0  0  0  0  0
   -2.4736   -2.6984   -0.8784 H   0  0  0  0  0  0  0  0  0  0  0  0
   -4.6472   -2.7039   -0.6686 C   0  0  0  0  0  0  0  0  0  0  0  0
   -4.7801   -3.6528   -1.2090 H   0  0  0  0  0  0  0  0  0  0  0  0
   -5.7651   -2.0195   -0.1610 C   0  0  0  0  0  0  0  0  0  0  0  0
   -6.7745   -2.4348   -0.3008 H   0  0  0  0  0  0  0  0  0  0  0  0
   -5.5960   -0.8100    0.5326 C   0  0  0  0  0  0  0  0  0  0  0  0
   -6.4683   -0.2851    0.9495 H   0  0  0  0  0  0  0  0  0  0  0  0
   -4.3123   -0.2781    0.7094 C   0  0  0  0  0  0  0  0  0  0  0  0
   -4.1871    0.6471    1.2939 H   0  0  0  0  0  0  0  0  0  0  0  0
  3  6  1  0  0  0  0
  4  3  1  0  0  0  0
  5  8  1  0  0  0  0
  5  6  1  0  0  0  0
  6  1  1  1  0  0  0
  7  2  1  6  0  0  0
  7  3  1  0  0  0  0
  8 10  1  0  0  0  0
  8  9  1  0  0  0  0
 11 12  1  0  0  0  0
 11  8  1  0  0  0  0
 13 11  1  0  0  0  0
 14 11  1  0  0  0  0
 15 18  1  0  0  0  0
 15  5  1  0  0  0  0
 16 15  1  0  0  0  0
 17 15  1  0  0  0  0
 18 21  1  0  0  0  0
 18 20  1  0  0  0  0
 19 18  1  0  0  0  0
 22  7  1  0  0  0  0
 22 31  1  0  0  0  0
 23 22  2  0  0  0  0
 24 23  1  0  0  0  0
 25 23  1  0  0  0  0
 25 27  2  0  0  0  0
 26 25  1  0  0  0  0
 27 29  1  0  0  0  0
 28 27  1  0  0  0  0
 29 31  2  0  0  0  0
 29 30  1  0  0  0  0
 31 32  1  0  0  0  0
M  END
