1,2
q = -1.0, confidence = 0.0

 15 16  0  0  0  0  0  0  0  0999 V2000
    1.4394    1.5103   -0.0299 S   0  0  0  0  0  1  0  0  0  0  0  0
    0.9683   -1.4381    0.2397 O   0  0  0  0  0  1  0  0  0  0  0  0
    4.6837    1.6064   -0.3308 N   0  0  0  0  0  0  0  0  0  0  0  0
    4.2613    2.5356   -0.3793 H   0  0  0  0  0  0  0  0  0  0  0  0
    2.2278   -1.1055    0.1338 N   0  0  0  0  0  0  0  0  0  0  0  0
    6.2194   -0.0487   -0.3313 N   0  0  0  0  0  0  0  0  0  0  0  0
    3.9794    0.4370   -0.1440 C   0  0  0  0  0  0  0  0  0  0  0  0
    6.0146    1.2526   -0.4356 C   0  0  0  0  0  3  0  0  0  0  0  0
    6.7968    2.0086   -0.5892 H   0  0  0  0  0  0  0  0  0  0  0  0
    4.9588   -0.5898   -0.1491 C   0  0  0  0  0  0  0  0  0  0  0  0
    4.5181   -1.9232    0.0119 C   0  0  0  0  0  0  0  0  0  0  0  0
    5.2144   -2.7714    0.0209 H   0  0  0  0  0  0  0  0  0  0  0  0
    3.1573   -2.1312    0.1479 C   0  0  0  0  0  0  0  0  0  0  0  0
    2.6881   -3.1150    0.2659 H   0  0  0  0  0  0  0  0  0  0  0  0
    2.5948    0.2256   -0.0052 C   0  0  0  0  0  0  0  0  0  0  0  0
  1 15  1  0  0  0  0
  3  7  1  0  0  0  0
  4  3  1  0  0  0  0
  5 13  1  0  0  0  0
  5  2  1  0  0  0  0
  6 10  2  0  0  0  0
  7 15  2  0  0  0  0
  8  6  1  0  0  0  0
  8  3  1  0  0  0  0
  9  8  1  0  0  0  0
 10  7  1  0  0  0  0
 10 11  1  0  0  0  0
 11 12  1  0  0  0  0
 11 13  2  0  0  0  0
 13 14  1  0  0  0  0
 15  5  1  0  0  0  0
M  END
