1,16
q = -1.0, confidence = 0.0

 31 31  0  0  1  0  0  0  0  0999 V2000
   -1.2410    0.8784   -0.0935 O   0  5  0  0  0  0  0  0  0  0  0  0
   -2.5137    0.9281   -0.0016 C   0  0  0  0  0  0  0  0  0  0  0  0
   -3.1147    2.2828   -0.2021 C   0  0  0  0  0  0  0  0  0  0  0  0
   -2.2802    3.3690   -0.5437 C   0  0  0  0  0  0  0  0  0  0  0  0
   -1.2022    3.1829   -0.6553 H   0  0  0  0  0  0  0  0  0  0  0  0
   -2.8264    4.6433   -0.7401 C   0  0  0  0  0  0  0  0  0  0  0  0
   -2.1699    5.4850   -1.0089 H   0  0  0  0  0  0  0  0  0  0  0  0
   -4.2095    4.8480   -0.5968 C   0  0  0  0  0  0  0  0  0  0  0  0
   -4.6377    5.8504   -0.7507 H   0  0  0  0  0  0  0  0  0  0  0  0
   -5.0450    3.7704   -0.2575 C   0  0  0  0  0  0  0  0  0  0  0  0
   -6.1286    3.9282   -0.1445 H   0  0  0  0  0  0  0  0  0  0  0  0
   -4.5024    2.4939   -0.0615 C   0  0  0  0  0  0  0  0  0  0  0  0
   -5.1374    1.6379    0.2060 H   0  0  0  0  0  0  0  0  0  0  0  0
   -3.3648   -0.0689    0.2651 N   0  0  0  0  0  0  0  0  0  0  0  0
   -3.0278   -1.3608    0.3312 C   0  0  2  0  0  3  0  0  0  0  0  0
   -1.4824   -2.0842   -0.0743 S   0  0  0  0  0  1  0  0  0  0  0  0
   -4.0294   -2.2209    0.6931 N   0  0  0  0  0  0  0  0  0  0  0  0
   -3.8139   -3.6638    0.7928 C   0  0  0  0  0  0  0  0  0  0  0  0
   -4.5115   -4.0461    1.5665 H   0  0  0  0  0  0  0  0  0  0  0  0
   -2.7811   -3.8197    1.1687 H   0  0  0  0  0  0  0  0  0  0  0  0
   -4.0020   -4.4252   -0.5221 C   0  0  0  0  0  0  0  0  0  0  0  0
   -3.7829   -5.5016   -0.3720 H   0  0  0  0  0  0  0  0  0  0  0  0
   -3.3073   -4.0394   -1.2941 H   0  0  0  0  0  0  0  0  0  0  0  0
   -5.0382   -4.3375   -0.9045 H   0  0  0  0  0  0  0  0  0  0  0  0
   -5.3855   -1.6987    0.9115 C   0  0  0  0  0  0  0  0  0  0  0  0
   -5.2977   -0.7564    1.4854 H   0  0  0  0  0  0  0  0  0  0  0  0
   -5.9105   -2.4377    1.5500 H   0  0  0  0  0  0  0  0  0  0  0  0
   -6.1703   -1.4448   -0.3765 C   0  0  0  0  0  0  0  0  0  0  0  0
   -7.1751   -1.0417   -0.1364 H   0  0  0  0  0  0  0  0  0  0  0  0
   -6.3065   -2.3714   -0.9682 H   0  0  0  0  0  0  0  0  0  0  0  0
   -5.6409   -0.7014   -1.0034 H   0  0  0  0  0  0  0  0  0  0  0  0
  1  2  1  0  0  0  0
  2 14  2  0  0  0  0
  3 12  1  0  0  0  0
  3  2  1  0  0  0  0
  4  3  2  0  0  0  0
  5  4  1  0  0  0  0
  6  8  2  0  0  0  0
  6  4  1  0  0  0  0
  7  6  1  0  0  0  0
  8 10  1  0  0  0  0
  9  8  1  0  0  0  0
 10 11  1  0  0  0  0
 10 12  2  0  0  0  0
 12 13  1  0  0  0  0
 14 15  1  0  0  0  0
 15 16  1  6  0  0  0
 15 17  1  0  0  0  0
 17 18  1  0  0  0  0
 17 25  1  0  0  0  0
 18 20  1  0  0  0  0
 18 19  1  0  0  0  0
 21 22  1  0  0  0  0
 21 18  1  0  0  0  0
 23 21  1  0  0  0  0
 24 21  1  0  0  0  0
 25 26  1  0  0  0  0
 25 27  1  0  0  0  0
 28 29  1  0  0  0  0
 28 25  1  0  0  0  0
 30 28  1  0  0  0  0
 31 28  1  0  0  0  0
M  CHG  1   1  -1
M  END
