1,2
q = -1.0, confidence = 0.012

 33 33  0  0  1  0  0  0  0  0999 V2000
   -1.7400    1.5217   -0.1815 S   0  0  0  0  0  1  0  0  0  0  0  0
    0.4775   -0.7392    0.1117 O   0  5  0  0  0  0  0  0  0  0  0  0
    7.6762   -0.5081   -0.2269 O   0  0  0  0  0  0  0  0  0  0  0  0
    7.0524   -2.6022   -0.1650 O   0  0  0  0  0  0  0  0  0  0  0  0
    1.0540    1.5511   -0.0241 N   0  0  0  0  0  0  0  0  0  0  0  0
   -0.0551    3.5481    0.0606 N   0  0  0  0  0  0  0  0  0  0  0  0
    6.8225   -1.3936   -0.1771 N   0  0  0  0  0  0  0  0  0  0  0  0
   -0.1282    2.1875   -0.0280 C   0  0  1  0  0  3  0  0  0  0  0  0
    1.2938    0.2470    0.0125 C   0  0  0  0  0  0  0  0  0  0  0  0
    2.7352   -0.1666   -0.0366 C   0  0  0  0  0  0  0  0  0  0  0  0
    3.7642    0.7976   -0.0946 C   0  0  0  0  0  0  0  0  0  0  0  0
    3.4890    1.8607   -0.0995 H   0  0  0  0  0  0  0  0  0  0  0  0
    5.1036    0.4020   -0.1413 C   0  0  0  0  0  0  0  0  0  0  0  0
    5.9291    1.1244   -0.1869 H   0  0  0  0  0  0  0  0  0  0  0  0
    5.3999   -0.9680   -0.1278 C   0  0  0  0  0  0  0  0  0  0  0  0
    4.3993   -1.9475   -0.0684 C   0  0  0  0  0  0  0  0  0  0  0  0
    4.6896   -3.0063   -0.0594 H   0  0  0  0  0  0  0  0  0  0  0  0
    3.0626   -1.5407   -0.0227 C   0  0  0  0  0  0  0  0  0  0  0  0
    2.2469   -2.2762    0.0261 H   0  0  0  0  0  0  0  0  0  0  0  0
    1.2486    4.2236    0.0783 C   0  0  0  0  0  0  0  0  0  0  0  0
    1.0939    5.2319   -0.3578 H   0  0  0  0  0  0  0  0  0  0  0  0
    1.9295    3.6688   -0.5939 H   0  0  0  0  0  0  0  0  0  0  0  0
    1.8505    4.3228    1.4788 C   0  0  0  0  0  0  0  0  0  0  0  0
    1.1719    4.8533    2.1773 H   0  0  0  0  0  0  0  0  0  0  0  0
    2.8092    4.8787    1.4483 H   0  0  0  0  0  0  0  0  0  0  0  0
    2.0464    3.3106    1.8831 H   0  0  0  0  0  0  0  0  0  0  0  0
   -1.2442    4.3981    0.1349 C   0  0  0  0  0  0  0  0  0  0  0  0
   -0.9772    5.2783    0.7560 H   0  0  0  0  0  0  0  0  0  0  0  0
   -2.0323    3.8408    0.6824 H   0  0  0  0  0  0  0  0  0  0  0  0
   -1.7613    4.8388   -1.2354 C   0  0  0  0  0  0  0  0  0  0  0  0
   -0.9898    5.4036   -1.7970 H   0  0  0  0  0  0  0  0  0  0  0  0
   -2.6467    5.4944   -1.1163 H   0  0  0  0  0  0  0  0  0  0  0  0
   -2.0633    3.9604   -1.8387 H   0  0  0  0  0  0  0  0  0  0  0  0
  3  7  2  0  0  0  0
  5  9  2  0  0  0  0
  6 20  1  0  0  0  0
  6 27  1  0  0  0  0
  7  4  2  0  0  0  0
  7 15  1  0  0  0  0
  8  1  1  6  0  0  0
  8  5  1  0  0  0  0
  8  6  1  0  0  0  0
  9  2  1  0  0  0  0
 10 18  1  0  0  0  0
 10  9  1  0  0  0  0
 11 10  2  0  0  0  0
 12 11  1  0  0  0  0
 13 15  2  0  0  0  0
 13 11  1  0  0  0  0
 14 13  1  0  0  0  0
 15 16  1  0  0  0  0
 16 17  1  0  0  0  0
 16 18  2  0  0  0  0
 18 19  1  0  0  0  0
 20 23  1  0  0  0  0
 21 20  1  0  0  0  0
 22 20  1  0  0  0  0
 23 26  1  0  0  0  0
 23 24  1  0  0  0  0
 25 23  1  0  0  0  0
 27 29  1  0  0  0  0
 27 28  1  0  0  0  0
 30 32  1  0  0  0  0
 30 27  1  0  0  0  0
 31 30  1  0  0  0  0
 33 30  1  0  0  0  0
M  CHG  1   2  -1
M  END
