2,4
q = -2.0, confidence = 0.89

 19 19  0  0  0  0  0  0  0  0999 V2000
   -0.6703   -1.9142   -0.4144 P   0  0  0  0  0  4  0  0  0  0  0  0
    0.0086   -0.6350   -1.9473 S   0  0  0  0  0  1  0  0  0  0  0  0
   -0.0460   -3.7703   -0.3880 S   0  0  0  0  0  1  0  0  0  0  0  0
   -0.1326   -0.9725    0.8176 O   0  0  0  0  0  1  0  0  0  0  0  0
   -6.6436   -1.4438    0.0618 O   0  0  0  0  0  0  0  0  0  0  0  0
   -3.1055   -0.5043   -0.5264 C   0  0  0  0  0  0  0  0  0  0  0  0
   -4.4939   -0.3571   -0.4038 C   0  0  0  0  0  0  0  0  0  0  0  0
   -5.2884   -1.4776   -0.0790 C   0  0  0  0  0  0  0  0  0  0  0  0
   -4.6756   -2.7353    0.1145 C   0  0  0  0  0  0  0  0  0  0  0  0
   -3.2913   -2.8684   -0.0077 C   0  0  0  0  0  0  0  0  0  0  0  0
   -2.4908   -1.7525   -0.3261 C   0  0  0  0  0  0  0  0  0  0  0  0
   -7.3063   -0.2108   -0.1281 C   0  0  0  0  0  0  0  0  0  0  0  0
   -2.4915    0.3659   -0.8008 H   0  0  0  0  0  0  0  0  0  0  0  0
   -4.9411    0.6325   -0.5685 H   0  0  0  0  0  0  0  0  0  0  0  0
   -5.3160   -3.5953    0.3594 H   0  0  0  0  0  0  0  0  0  0  0  0
   -2.7986   -3.8433    0.1366 H   0  0  0  0  0  0  0  0  0  0  0  0
   -8.3834   -0.4038    0.0333 H   0  0  0  0  0  0  0  0  0  0  0  0
   -7.1615    0.1866   -1.1584 H   0  0  0  0  0  0  0  0  0  0  0  0
   -6.9659    0.5624    0.5982 H   0  0  0  0  0  0  0  0  0  0  0  0
  1  3  1  0  0  0  0
  1 11  1  0  0  0  0
  1  4  1  0  0  0  0
  2  1  1  0  0  0  0
  6  7  2  0  0  0  0
  6 11  1  0  0  0  0
  7  8  1  0  0  0  0
  8  5  1  0  0  0  0
  8  9  2  0  0  0  0
  9 15  1  0  0  0  0
 10  9  1  0  0  0  0
 10 16  1  0  0  0  0
 11 10  2  0  0  0  0
 12 17  1  0  0  0  0
 12  5  1  0  0  0  0
 12 19  1  0  0  0  0
 13  6  1  0  0  0  0
 14  7  1  0  0  0  0
 18 12  1  0  0  0  0
M  END
