11,12
q = -1.0, confidence = 0.0

 23 23  0  0  0  0  0  0  0  0999 V2000
   -2.9192    0.7768   -0.1123 C   0  0  0  0  0  0  0  0  0  0  0  0
   -2.2762    1.2516   -1.3046 C   0  0  0  0  0  0  0  0  0  0  0  0
   -4.2670    1.0500    0.1911 C   0  0  0  0  0  0  0  0  0  0  0  0
   -4.6771    0.7244    1.1604 H   0  0  0  0  0  0  0  0  0  0  0  0
   -3.1255    1.9532   -2.2208 C   0  0  0  0  0  0  0  0  0  0  0  0
   -2.6650    2.3168   -3.1515 H   0  0  0  0  0  0  0  0  0  0  0  0
   -5.0547    1.7510   -0.7225 C   0  0  0  0  0  0  0  0  0  0  0  0
   -6.1084    1.9709   -0.4983 H   0  0  0  0  0  0  0  0  0  0  0  0
   -4.4676    2.1886   -1.9339 C   0  0  0  0  0  0  0  0  0  0  0  0
   -5.0809    2.7425   -2.6624 H   0  0  0  0  0  0  0  0  0  0  0  0
   -1.8947   -0.0833    1.0645 S   0  0  1  0  0  3  0  0  0  0  0  0
   -1.0096    1.0738   -1.5740 O   0  5  0  0  0  0  0  0  0  0  0  0
   -2.0879    0.5032    2.4645 O   0  0  0  0  0  1  0  0  0  0  0  0
   -2.7616   -1.7426    1.2394 C   0  0  0  0  0  0  0  0  0  0  0  0
   -3.7320   -1.3796    1.6415 H   0  0  0  0  0  0  0  0  0  0  0  0
   -2.9756   -2.4803   -0.0721 C   0  0  0  0  0  0  0  0  0  0  0  0
   -3.3377   -1.8048   -0.8721 H   0  0  0  0  0  0  0  0  0  0  0  0
   -3.7452   -3.2651    0.0789 H   0  0  0  0  0  0  0  0  0  0  0  0
   -2.0540   -2.9842   -0.4157 H   0  0  0  0  0  0  0  0  0  0  0  0
   -2.0234   -2.5296    2.3157 C   0  0  0  0  0  0  0  0  0  0  0  0
   -1.0271   -2.8640    1.9644 H   0  0  0  0  0  0  0  0  0  0  0  0
   -2.6147   -3.4270    2.5906 H   0  0  0  0  0  0  0  0  0  0  0  0
   -1.8860   -1.9088    3.2211 H   0  0  0  0  0  0  0  0  0  0  0  0
  1  3  1  0  0  0  0
  1 11  1  0  0  0  0
  2  1  2  0  0  0  0
  3  4  1  0  0  0  0
  5  9  2  0  0  0  0
  5  2  1  0  0  0  0
  6  5  1  0  0  0  0
  7  8  1  0  0  0  0
  7  3  2  0  0  0  0
  9  7  1  0  0  0  0
 10  9  1  0  0  0  0
 11 14  1  0  0  0  0
 11 13  1  1  0  0  0
 12  2  1  0  0  0  0
 14 15  1  0  0  0  0
 14 20  1  0  0  0  0
 16 18  1  0  0  0  0
 16 14  1  0  0  0  0
 17 16  1  0  0  0  0
 19 16  1  0  0  0  0
 20 22  1  0  0  0  0
 20 23  1  0  0  0  0
 21 20  1  0  0  0  0
M  CHG  1  12  -1
M  END
