1,3
q = -2.0, confidence = 0.858

 22 22  0  0  0  0  0  0  0  0999 V2000
   -2.0722   -1.0642   -0.0152 S   0  0  0  0  0  1  0  0  0  0  0  0
   -2.8353    2.8806    0.1337 O   0  5  0  0  0  0  0  0  0  0  0  0
   -0.8752    1.7843    0.1403 O   0  0  0  0  0  0  0  0  0  0  0  0
   -6.8916    1.4496    0.0635 O   0  0  0  0  0  0  0  0  0  0  0  0
   -2.1594    1.8361    0.1113 C   0  0  0  0  0  0  0  0  0  0  0  0
   -2.9328    0.4743    0.0453 C   0  0  0  0  0  0  0  0  0  0  0  0
   -4.3055    0.5878    0.0410 C   0  0  0  0  0  0  0  0  0  0  0  0
   -4.6142    1.6442    0.0849 H   0  0  0  0  0  0  0  0  0  0  0  0
   -5.3792   -0.3872   -0.0104 C   0  0  0  0  0  0  0  0  0  0  0  0
   -6.7378    0.0891    0.0019 C   0  0  0  0  0  0  0  0  0  0  0  0
   -7.8277   -0.7957   -0.0466 C   0  0  0  0  0  0  0  0  0  0  0  0
   -8.8566   -0.4101   -0.0361 H   0  0  0  0  0  0  0  0  0  0  0  0
   -7.6118   -2.1862   -0.1093 C   0  0  0  0  0  0  0  0  0  0  0  0
   -8.4747   -2.8700   -0.1468 H   0  0  0  0  0  0  0  0  0  0  0  0
   -6.3009   -2.6795   -0.1226 C   0  0  0  0  0  0  0  0  0  0  0  0
   -6.1166   -3.7646   -0.1712 H   0  0  0  0  0  0  0  0  0  0  0  0
   -5.2129   -1.7953   -0.0737 C   0  0  0  0  0  0  0  0  0  0  0  0
   -4.1852   -2.1855   -0.0841 H   0  0  0  0  0  0  0  0  0  0  0  0
   -8.1877    1.9850    0.0789 C   0  0  0  0  0  0  0  0  0  0  0  0
   -8.7660    1.7260   -0.8401 H   0  0  0  0  0  0  0  0  0  0  0  0
   -8.0748    3.0852    0.1302 H   0  0  0  0  0  0  0  0  0  0  0  0
   -8.7786    1.6433    0.9622 H   0  0  0  0  0  0  0  0  0  0  0  0
  1  6  1  0  0  0  0
  4 19  1  0  0  0  0
  5  2  1  0  0  0  0
  5  3  2  0  0  0  0
  6  5  1  0  0  0  0
  7  6  2  0  0  0  0
  7  8  1  0  0  0  0
  9 10  1  0  0  0  0
  9  7  1  0  0  0  0
 10  4  1  0  0  0  0
 11 12  1  0  0  0  0
 11 10  2  0  0  0  0
 13 11  1  0  0  0  0
 14 13  1  0  0  0  0
 15 13  2  0  0  0  0
 15 17  1  0  0  0  0
 16 15  1  0  0  0  0
 17  9  2  0  0  0  0
 18 17  1  0  0  0  0
 19 21  1  0  0  0  0
 19 22  1  0  0  0  0
 20 19  1  0  0  0  0
M  CHG  1   2  -1
M  END
