1,2
q = -1.0, confidence = 0.0

 18 18  0  0  0  0  0  0  0  0999 V2000
    0.4508   -2.1666    0.3077 S   0  0  0  0  0  0  0  0  0  0  0  0
    0.6571    0.0337   -1.7594 O   0  5  0  0  0  0  0  0  0  0  0  0
    2.4137   -0.0395   -3.1300 O   0  0  0  0  0  0  0  0  0  0  0  0
    2.2128   -1.9896   -0.0473 C   0  0  0  0  0  0  0  0  0  0  0  0
    3.0766   -2.7425    0.7697 C   0  0  0  0  0  0  0  0  0  0  0  0
    2.6522   -3.4236    1.5231 H   0  0  0  0  0  0  0  0  0  0  0  0
    4.4650   -2.6118    0.6273 C   0  0  0  0  0  0  0  0  0  0  0  0
    5.1394   -3.1948    1.2721 H   0  0  0  0  0  0  0  0  0  0  0  0
    4.9810   -1.7415   -0.3461 C   0  0  0  0  0  0  0  0  0  0  0  0
    6.0691   -1.6345   -0.4695 H   0  0  0  0  0  0  0  0  0  0  0  0
    4.1118   -1.0257   -1.1788 C   0  0  0  0  0  0  0  0  0  0  0  0
    4.4907   -0.3769   -1.9822 H   0  0  0  0  0  0  0  0  0  0  0  0
    2.7114   -1.1160   -1.0413 C   0  0  0  0  0  0  0  0  0  0  0  0
    1.8913   -0.3171   -2.0552 C   0  0  0  0  0  0  0  0  0  0  0  0
   -0.0657   -3.1819   -1.1257 C   0  0  0  0  0  0  0  0  0  0  0  0
    0.1235   -2.6319   -2.0656 H   0  0  0  0  0  0  0  0  0  0  0  0
   -1.1452   -3.3908   -1.0087 H   0  0  0  0  0  0  0  0  0  0  0  0
    0.5073   -4.1267   -1.0969 H   0  0  0  0  0  0  0  0  0  0  0  0
  3 14  2  0  0  0  0
  4  1  1  0  0  0  0
  4  5  1  0  0  0  0
  5  6  1  0  0  0  0
  7  5  2  0  0  0  0
  7  8  1  0  0  0  0
  9  7  1  0  0  0  0
 10  9  1  0  0  0  0
 11 13  1  0  0  0  0
 11  9  2  0  0  0  0
 12 11  1  0  0  0  0
 13  4  2  0  0  0  0
 14  2  1  0  0  0  0
 14 13  1  0  0  0  0
 15 18  1  0  0  0  0
 15 17  1  0  0  0  0
 15  1  1  0  0  0  0
 16 15  1  0  0  0  0
M  CHG  1   2  -1
M  END
