2,3
q = -1.0, confidence = 0.002

 37 37  0  0  1  0  0  0  0  0999 V2000
    4.9865    5.6075   -0.9693 Br  0  0  0  0  0  0  0  0  0  0  0  0
    1.4647   -3.0143   -0.1420 S   0  0  0  0  0  1  0  0  0  0  0  0
    1.2425   -0.0467   -0.1393 O   0  5  0  0  0  0  0  0  0  0  0  0
    3.3642   -1.0140    0.1742 N   0  0  0  0  0  0  0  0  0  0  0  0
    4.0124   -3.1683    0.6074 N   0  0  0  0  0  0  0  0  0  0  0  0
    2.5182   -0.0119   -0.0810 C   0  0  0  0  0  0  0  0  0  0  0  0
    3.1285    1.3350   -0.2942 C   0  0  0  0  0  0  0  0  0  0  0  0
    2.3087    2.4198   -0.6716 C   0  0  0  0  0  0  0  0  0  0  0  0
    1.2324    2.2400   -0.8070 H   0  0  0  0  0  0  0  0  0  0  0  0
    2.8540    3.6917   -0.8765 C   0  0  0  0  0  0  0  0  0  0  0  0
    2.2163    4.5358   -1.1746 H   0  0  0  0  0  0  0  0  0  0  0  0
    4.2353    3.8810   -0.6978 C   0  0  0  0  0  0  0  0  0  0  0  0
    5.0708    2.8153   -0.3219 C   0  0  0  0  0  0  0  0  0  0  0  0
    6.1485    2.9825   -0.1856 H   0  0  0  0  0  0  0  0  0  0  0  0
    4.5121    1.5475   -0.1243 C   0  0  0  0  0  0  0  0  0  0  0  0
    5.1420    0.6972    0.1724 H   0  0  0  0  0  0  0  0  0  0  0  0
    3.0162   -2.3031    0.2518 C   0  0  2  0  0  3  0  0  0  0  0  0
    5.3766   -2.6721    0.8025 C   0  0  0  0  0  0  0  0  0  0  0  0
    5.5627   -1.8759    0.0556 H   0  0  0  0  0  0  0  0  0  0  0  0
    6.0697   -3.5114    0.5826 H   0  0  0  0  0  0  0  0  0  0  0  0
    5.6291   -2.1244    2.2113 C   0  0  0  0  0  0  0  0  0  0  0  0
    4.9004   -1.3072    2.3926 H   0  0  0  0  0  0  0  0  0  0  0  0
    5.4111   -2.9177    2.9592 H   0  0  0  0  0  0  0  0  0  0  0  0
    7.0576   -1.6105    2.3841 C   0  0  0  0  0  0  0  0  0  0  0  0
    7.2253   -1.2154    3.4055 H   0  0  0  0  0  0  0  0  0  0  0  0
    7.2786   -0.7898    1.6696 H   0  0  0  0  0  0  0  0  0  0  0  0
    7.8063   -2.4114    2.2085 H   0  0  0  0  0  0  0  0  0  0  0  0
    3.7819   -4.5966    0.7969 C   0  0  0  0  0  0  0  0  0  0  0  0
    2.7492   -4.7302    1.1823 H   0  0  0  0  0  0  0  0  0  0  0  0
    4.4786   -4.9473    1.5882 H   0  0  0  0  0  0  0  0  0  0  0  0
    3.9670   -5.4267   -0.4802 C   0  0  0  0  0  0  0  0  0  0  0  0
    3.2714   -5.0334   -1.2512 H   0  0  0  0  0  0  0  0  0  0  0  0
    4.9958   -5.2704   -0.8720 H   0  0  0  0  0  0  0  0  0  0  0  0
    3.7089   -6.9134   -0.2425 C   0  0  0  0  0  0  0  0  0  0  0  0
    3.8487   -7.5018   -1.1707 H   0  0  0  0  0  0  0  0  0  0  0  0
    2.6713   -7.0880    0.1107 H   0  0  0  0  0  0  0  0  0  0  0  0
    4.3955   -7.3301    0.5243 H   0  0  0  0  0  0  0  0  0  0  0  0
  1 12  1  0  0  0  0
  3  6  1  0  0  0  0
  4 17  1  0  0  0  0
  5 28  1  0  0  0  0
  5 18  1  0  0  0  0
  6  4  2  0  0  0  0
  7 15  1  0  0  0  0
  7  6  1  0  0  0  0
  8  7  2  0  0  0  0
  9  8  1  0  0  0  0
 10 12  2  0  0  0  0
 10  8  1  0  0  0  0
 11 10  1  0  0  0  0
 12 13  1  0  0  0  0
 13 14  1  0  0  0  0
 13 15  2  0  0  0  0
 15 16  1  0  0  0  0
 17  2  1  6  0  0  0
 17  5  1  0  0  0  0
 18 21  1  0  0  0  0
 19 18  1  0  0  0  0
 20 18  1  0  0  0  0
 21 24  1  0  0  0  0
 21 22  1  0  0  0  0
 21 23  1  0  0  0  0
 24 25  1  0  0  0  0
 26 24  1  0  0  0  0
 27 24  1  0  0  0  0
 28 29  1  0  0  0  0
 28 30  1  0  0  0  0
 31 34  1  0  0  0  0
 31 28  1  0  0  0  0
 32 31  1  0  0  0  0
 33 31  1  0  0  0  0
 34 36  1  0  0  0  0
 34 37  1  0  0  0  0
 35 34  1  0  0  0  0
M  CHG  1   3  -1
M  END
