1,3
q = -1.0, confidence = 0.0

 14 14  0  0  0  0  0  0  0  0999 V2000
   -0.7236   -1.2445   -1.7893 S   0  0  0  0  0  1  0  0  0  0  0  0
   -5.1664   -1.2222    0.2027 S   0  0  0  0  0  0  0  0  0  0  0  0
   -1.4410   -0.0664    0.8265 O   0  5  0  0  0  0  0  0  0  0  0  0
   -2.4657   -0.6065    0.2120 C   0  0  0  0  0  0  0  0  0  0  0  0
   -2.3000   -1.2546   -1.0782 C   0  0  0  0  0  0  0  0  0  0  0  0
   -3.3821   -1.8795   -1.7539 C   0  0  0  0  0  0  0  0  0  0  0  0
   -3.1723   -2.3601   -2.7226 H   0  0  0  0  0  0  0  0  0  0  0  0
   -4.6772   -1.9208   -1.2779 C   0  0  0  0  0  3  0  0  0  0  0  0
   -5.4904   -2.4133   -1.8311 H   0  0  0  0  0  0  0  0  0  0  0  0
   -3.7252   -0.5420    0.8508 C   0  0  0  0  0  0  0  0  0  0  0  0
   -3.8618    0.1488    2.1731 C   0  0  0  0  0  0  0  0  0  0  0  0
   -3.2263   -0.3479    2.9364 H   0  0  0  0  0  0  0  0  0  0  0  0
   -4.9070    0.1628    2.5360 H   0  0  0  0  0  0  0  0  0  0  0  0
   -3.4912    1.1922    2.0943 H   0  0  0  0  0  0  0  0  0  0  0  0
  1  5  1  0  0  0  0
  2 10  1  0  0  0  0
  4  3  1  0  0  0  0
  4 10  2  0  0  0  0
  5  4  1  0  0  0  0
  6  8  1  0  0  0  0
  6  5  2  0  0  0  0
  7  6  1  0  0  0  0
  8  2  1  0  0  0  0
  9  8  1  0  0  0  0
 10 11  1  0  0  0  0
 11 13  1  0  0  0  0
 11 12  1  0  0  0  0
 14 11  1  0  0  0  0
M  CHG  1   3  -1
M  END
