1,2
q = -1.0, confidence = 0.0

 34 34  0  0  1  0  0  0  0  0999 V2000
   -0.5771    2.2276   -0.2921 S   0  0  0  0  0  1  0  0  0  0  0  0
   -1.8977   -0.6434    0.0555 O   0  5  0  0  0  0  0  0  0  0  0  0
   -2.9958    0.0172   -0.0318 C   0  0  0  0  0  0  0  0  0  0  0  0
   -3.2011    1.3316   -0.0533 N   0  0  0  0  0  0  0  0  0  0  0  0
   -4.1009   -2.2472   -0.1191 C   0  0  0  0  0  0  0  0  0  0  0  0
   -3.0940   -2.6878   -0.1051 H   0  0  0  0  0  0  0  0  0  0  0  0
   -4.2226   -0.8409   -0.0835 C   0  0  0  0  0  0  0  0  0  0  0  0
   -6.6478   -1.0900   -0.1454 C   0  0  0  0  0  0  0  0  0  0  0  0
   -7.6485   -0.6294   -0.1518 H   0  0  0  0  0  0  0  0  0  0  0  0
   -5.2397   -3.0555   -0.1691 C   0  0  0  0  0  0  0  0  0  0  0  0
   -5.1260   -4.1511   -0.1963 H   0  0  0  0  0  0  0  0  0  0  0  0
   -5.5121   -0.2731   -0.0958 C   0  0  0  0  0  0  0  0  0  0  0  0
   -5.6037    0.8211   -0.0608 H   0  0  0  0  0  0  0  0  0  0  0  0
   -6.5360   -2.4948   -0.1849 C   0  0  0  0  0  0  0  0  0  0  0  0
   -7.7549   -3.3785   -0.2525 C   0  0  0  0  0  0  0  0  0  0  0  0
   -7.7320   -4.1600    0.5349 H   0  0  0  0  0  0  0  0  0  0  0  0
   -8.6901   -2.7983   -0.1333 H   0  0  0  0  0  0  0  0  0  0  0  0
   -7.8096   -3.9097   -1.2266 H   0  0  0  0  0  0  0  0  0  0  0  0
   -2.3045    2.3279   -0.0811 C   0  0  2  0  0  3  0  0  0  0  0  0
   -2.8369    3.5848    0.0314 N   0  0  0  0  0  0  0  0  0  0  0  0
   -1.7252    5.3920   -1.2900 C   0  0  0  0  0  0  0  0  0  0  0  0
   -2.6638    5.6622   -1.8156 H   0  0  0  0  0  0  0  0  0  0  0  0
   -1.1135    6.3109   -1.1888 H   0  0  0  0  0  0  0  0  0  0  0  0
   -1.1659    4.6720   -1.9191 H   0  0  0  0  0  0  0  0  0  0  0  0
   -2.0089    4.7876    0.0864 C   0  0  0  0  0  0  0  0  0  0  0  0
   -1.0569    4.5241    0.5918 H   0  0  0  0  0  0  0  0  0  0  0  0
   -2.5335    5.5196    0.7360 H   0  0  0  0  0  0  0  0  0  0  0  0
   -4.2901    3.7713    0.0988 C   0  0  0  0  0  0  0  0  0  0  0  0
   -4.7607    3.0210   -0.5641 H   0  0  0  0  0  0  0  0  0  0  0  0
   -4.5082    4.7758   -0.3197 H   0  0  0  0  0  0  0  0  0  0  0  0
   -4.8447    3.6412    1.5166 C   0  0  0  0  0  0  0  0  0  0  0  0
   -4.3672    4.3644    2.2089 H   0  0  0  0  0  0  0  0  0  0  0  0
   -5.9371    3.8316    1.5252 H   0  0  0  0  0  0  0  0  0  0  0  0
   -4.6651    2.6182    1.9007 H   0  0  0  0  0  0  0  0  0  0  0  0
  3  2  1  0  0  0  0
  4  3  2  0  0  0  0
  5  6  1  0  0  0  0
  5  7  1  0  0  0  0
  7  3  1  0  0  0  0
  8 12  1  0  0  0  0
  9  8  1  0  0  0  0
 10  5  2  0  0  0  0
 11 10  1  0  0  0  0
 12  7  2  0  0  0  0
 12 13  1  0  0  0  0
 14 10  1  0  0  0  0
 14  8  2  0  0  0  0
 15 14  1  0  0  0  0
 15 17  1  0  0  0  0
 15 16  1  0  0  0  0
 18 15  1  0  0  0  0
 19  1  1  6  0  0  0
 19  4  1  0  0  0  0
 19 20  1  0  0  0  0
 20 25  1  0  0  0  0
 20 28  1  0  0  0  0
 21 23  1  0  0  0  0
 21 25  1  0  0  0  0
 22 21  1  0  0  0  0
 24 21  1  0  0  0  0
 25 26  1  0  0  0  0
 25 27  1  0  0  0  0
 28 31  1  0  0  0  0
 29 28  1  0  0  0  0
 30 28  1  0  0  0  0
 31 33  1  0  0  0  0
 31 34  1  0  0  0  0
 31 32  1  0  0  0  0
M  CHG  1   2  -1
M  END
