1,2
q = -2.0, confidence = 0.644

 10  9  0  0  0  0  0  0  0  0999 V2000
   -1.4386   -1.9381   -0.4652 S   0  0  0  0  0  1  0  0  0  0  0  0
   -1.0499    1.0269    0.4043 O   0  5  0  0  0  0  0  0  0  0  0  0
   -2.7710    2.4119    0.5038 O   0  0  0  0  0  0  0  0  0  0  0  0
   -2.3574    1.2865    0.2716 C   0  0  0  0  0  0  0  0  0  0  0  0
   -3.2898    0.1591   -0.1722 C   0  0  0  0  0  0  0  0  0  0  0  0
   -2.9289   -1.2357    0.3274 C   0  0  0  0  0  0  0  0  0  0  0  0
   -4.3050    0.4518    0.1645 H   0  0  0  0  0  0  0  0  0  0  0  0
   -3.3289    0.1490   -1.2852 H   0  0  0  0  0  0  0  0  0  0  0  0
   -2.8245   -1.2462    1.4347 H   0  0  0  0  0  0  0  0  0  0  0  0
   -3.7448   -1.9498    0.0899 H   0  0  0  0  0  0  0  0  0  0  0  0
  1  6  1  0  0  0  0
  4  2  1  0  0  0  0
  4  3  2  0  0  0  0
  5  7  1  0  0  0  0
  5  4  1  0  0  0  0
  5  6  1  0  0  0  0
  6  9  1  0  0  0  0
  8  5  1  0  0  0  0
 10  6  1  0  0  0  0
M  CHG  1   2  -1
M  END
