1,3
q = -1.0, confidence = 0.0

 25 25  0  0  1  0  0  0  0  0999 V2000
   -1.4836   -2.7984   -0.0824 S   0  0  0  0  0  1  0  0  0  0  0  0
   -4.7255    5.2909   -1.0303 F   0  0  0  0  0  0  0  0  0  0  0  0
   -1.2423    0.1601   -0.1147 O   0  5  0  0  0  0  0  0  0  0  0  0
   -3.3588   -0.7866    0.2801 N   0  0  0  0  0  0  0  0  0  0  0  0
   -3.9797   -2.9416    0.8096 N   0  0  0  0  0  0  0  0  0  0  0  0
   -3.0108   -2.0726    0.3799 C   0  0  1  0  0  3  0  0  0  0  0  0
   -5.3517   -2.5061    1.0195 C   0  0  0  0  0  0  0  0  0  0  0  0
   -5.4193   -1.4301    0.7894 H   0  0  0  0  0  0  0  0  0  0  0  0
   -5.6558   -2.6768    2.0745 H   0  0  0  0  0  0  0  0  0  0  0  0
   -6.0429   -3.0759    0.3612 H   0  0  0  0  0  0  0  0  0  0  0  0
   -3.7306   -4.3622    0.9746 C   0  0  0  0  0  0  0  0  0  0  0  0
   -3.9041   -4.9288    0.0321 H   0  0  0  0  0  0  0  0  0  0  0  0
   -4.4116   -4.7593    1.7530 H   0  0  0  0  0  0  0  0  0  0  0  0
   -2.6804   -4.5285    1.2826 H   0  0  0  0  0  0  0  0  0  0  0  0
   -2.5168    0.2044   -0.0324 C   0  0  0  0  0  0  0  0  0  0  0  0
   -3.1204    1.5455   -0.2905 C   0  0  0  0  0  0  0  0  0  0  0  0
   -4.5092    1.7638   -0.1732 C   0  0  0  0  0  0  0  0  0  0  0  0
   -5.1509    0.9217    0.1192 H   0  0  0  0  0  0  0  0  0  0  0  0
   -5.0579    3.0265   -0.4212 C   0  0  0  0  0  0  0  0  0  0  0  0
   -6.1370    3.2175   -0.3337 H   0  0  0  0  0  0  0  0  0  0  0  0
   -4.2037    4.0746   -0.7906 C   0  0  0  0  0  0  0  0  0  0  0  0
   -2.8200    3.8879   -0.9172 C   0  0  0  0  0  0  0  0  0  0  0  0
   -2.1869    4.7367   -1.2126 H   0  0  0  0  0  0  0  0  0  0  0  0
   -2.2847    2.6209   -0.6655 C   0  0  0  0  0  0  0  0  0  0  0  0
   -1.2052    2.4338   -0.7585 H   0  0  0  0  0  0  0  0  0  0  0  0
  2 21  1  0  0  0  0
  3 15  1  0  0  0  0
  4  6  1  0  0  0  0
  5 11  1  0  0  0  0
  5  7  1  0  0  0  0
  6  1  1  6  0  0  0
  6  5  1  0  0  0  0
  7  9  1  0  0  0  0
  8  7  1  0  0  0  0
 10  7  1  0  0  0  0
 11 14  1  0  0  0  0
 11 13  1  0  0  0  0
 12 11  1  0  0  0  0
 15  4  2  0  0  0  0
 16 17  1  0  0  0  0
 16 15  1  0  0  0  0
 17 18  1  0  0  0  0
 19 20  1  0  0  0  0
 19 17  2  0  0  0  0
 21 19  1  0  0  0  0
 22 21  2  0  0  0  0
 22 24  1  0  0  0  0
 23 22  1  0  0  0  0
 24 16  2  0  0  0  0
 25 24  1  0  0  0  0
M  CHG  1   3  -1
M  END
