1,11
q = -2.0, confidence = 0.698

 12 11  0  0  1  0  0  0  0  0999 V2000
   -1.2519   -2.0142   -1.7873 S   0  0  0  0  0  1  0  0  0  0  0  0
    1.2580   -2.9768   -0.2934 N   0  0  0  0  0  0  0  0  0  0  0  0
    2.1537   -3.0540    0.2049 H   0  0  0  0  0  0  0  0  0  0  0  0
    0.6624   -3.7646   -0.0103 H   0  0  0  0  0  0  0  0  0  0  0  0
    0.1199   -3.0362   -2.4902 C   0  0  0  0  0  0  0  0  0  0  0  0
   -0.2508   -4.0842   -2.4687 H   0  0  0  0  0  0  0  0  0  0  0  0
    0.2923   -2.7707   -3.5529 H   0  0  0  0  0  0  0  0  0  0  0  0
    1.4632   -2.9518   -1.7439 C   0  0  1  0  0  0  0  0  0  0  0  0
    2.1090   -3.7828   -2.1127 H   0  0  0  0  0  0  0  0  0  0  0  0
    2.2059   -1.6478   -2.1358 C   0  0  0  0  0  0  0  0  0  0  0  0
    1.6674   -0.5522   -1.6798 O   0  5  0  0  0  0  0  0  0  0  0  0
    3.2154   -1.6925   -2.8407 O   0  0  0  0  0  0  0  0  0  0  0  0
  2  4  1  0  0  0  0
  2  3  1  0  0  0  0
  5  6  1  0  0  0  0
  5  1  1  0  0  0  0
  5  8  1  0  0  0  0
  7  5  1  0  0  0  0
  8  9  1  6  0  0  0
  8  2  1  0  0  0  0
 10  8  1  0  0  0  0
 10 11  1  0  0  0  0
 12 10  2  0  0  0  0
M  CHG  1  11  -1
M  END
