1,3
q = -1.0, confidence = 0.0

 25 25  0  0  1  0  0  0  0  0999 V2000
   -0.9104    1.5812   -0.0409 S   0  0  0  0  0  1  0  0  0  0  0  0
    0.9383    3.9120    0.0301 S   0  0  0  0  0  0  0  0  0  0  0  0
    1.1786   -0.8542   -0.0363 O   0  5  0  0  0  0  0  0  0  0  0  0
    0.7024    2.1614    0.0050 C   0  0  2  0  0  3  0  0  0  0  0  0
    1.9103    1.4416    0.0245 C   0  0  0  0  0  0  0  0  0  0  0  0
    2.8193    2.0570    0.0792 H   0  0  0  0  0  0  0  0  0  0  0  0
    2.1029    0.0437   -0.0089 C   0  0  0  0  0  0  0  0  0  0  0  0
    3.4863   -0.5274   -0.0031 C   0  0  0  0  0  0  0  0  0  0  0  0
    4.6511    0.2595   -0.1485 C   0  0  0  0  0  0  0  0  0  0  0  0
    4.5786    1.3470   -0.2895 H   0  0  0  0  0  0  0  0  0  0  0  0
    5.9192   -0.3349   -0.1362 C   0  0  0  0  0  0  0  0  0  0  0  0
    6.8151    0.2931   -0.2547 H   0  0  0  0  0  0  0  0  0  0  0  0
    6.0477   -1.7244    0.0211 C   0  0  0  0  0  0  0  0  0  0  0  0
    7.0456   -2.1887    0.0317 H   0  0  0  0  0  0  0  0  0  0  0  0
    4.8966   -2.5171    0.1598 C   0  0  0  0  0  0  0  0  0  0  0  0
    4.9885   -3.6072    0.2798 H   0  0  0  0  0  0  0  0  0  0  0  0
    3.6276   -1.9272    0.1450 C   0  0  0  0  0  0  0  0  0  0  0  0
    2.7169   -2.5347    0.2455 H   0  0  0  0  0  0  0  0  0  0  0  0
   -0.7516    4.6146    0.0304 C   0  0  0  0  0  0  0  0  0  0  0  0
   -1.2770    4.2594   -0.8795 H   0  0  0  0  0  0  0  0  0  0  0  0
   -1.2958    4.2108    0.9086 H   0  0  0  0  0  0  0  0  0  0  0  0
   -0.6518    6.1363    0.0719 C   0  0  0  0  0  0  0  0  0  0  0  0
   -1.6692    6.5753    0.0714 H   0  0  0  0  0  0  0  0  0  0  0  0
   -0.1096    6.5347   -0.8091 H   0  0  0  0  0  0  0  0  0  0  0  0
   -0.1306    6.4869    0.9853 H   0  0  0  0  0  0  0  0  0  0  0  0
  2 19  1  0  0  0  0
  3  7  1  0  0  0  0
  4  1  1  6  0  0  0
  4  5  1  0  0  0  0
  4  2  1  0  0  0  0
  5  6  1  0  0  0  0
  7  8  1  0  0  0  0
  7  5  2  0  0  0  0
  8 17  1  0  0  0  0
  9 11  1  0  0  0  0
  9  8  2  0  0  0  0
 10  9  1  0  0  0  0
 11 13  2  0  0  0  0
 12 11  1  0  0  0  0
 13 14  1  0  0  0  0
 13 15  1  0  0  0  0
 15 16  1  0  0  0  0
 17 15  2  0  0  0  0
 17 18  1  0  0  0  0
 19 22  1  0  0  0  0
 19 21  1  0  0  0  0
 20 19  1  0  0  0  0
 22 25  1  0  0  0  0
 23 22  1  0  0  0  0
 24 22  1  0  0  0  0
M  CHG  1   3  -1
M  END
