1,3
q = -1.0, confidence = 0.002

 39 41  0  0  1  0  0  0  0  0999 V2000
    1.5748   -1.8284   -0.0631 S   0  0  0  0  0  1  0  0  0  0  0  0
    5.3868    6.6904    0.2544 Cl  0  0  0  0  0  0  0  0  0  0  0  0
    1.3483    1.3690   -0.0078 O   0  5  0  0  0  0  0  0  0  0  0  0
    3.4268    0.2536    0.1291 N   0  0  0  0  0  0  0  0  0  0  0  0
    3.1251   -1.0366    0.0564 C   0  0  2  0  0  3  0  0  0  0  0  0
    4.2162   -1.8980    0.0431 N   0  0  0  0  0  0  0  0  0  0  0  0
    5.5458   -1.4167   -0.1852 C   0  0  0  0  0  0  0  0  0  0  0  0
    3.3124    2.6444    0.1312 C   0  0  0  0  0  0  0  0  0  0  0  0
    3.5699   -3.8083    1.4627 C   0  0  0  0  0  0  0  0  0  0  0  0
    3.2702   -3.1032    2.2511 H   0  0  0  0  0  0  0  0  0  0  0  0
    4.5920    5.1392    0.2078 C   0  0  0  0  0  0  0  0  0  0  0  0
    7.8996   -1.4173    0.4308 C   0  0  0  0  0  0  0  0  0  0  0  0
    8.7059   -1.7612    1.0961 H   0  0  0  0  0  0  0  0  0  0  0  0
    2.6248    1.3205    0.0801 C   0  0  0  0  0  0  0  0  0  0  0  0
    4.3500   -5.5810   -0.5746 C   0  0  0  0  0  0  0  0  0  0  0  0
    4.6566   -6.2729   -1.3733 H   0  0  0  0  0  0  0  0  0  0  0  0
    4.0646   -3.3115    0.2417 C   0  0  0  0  0  0  0  0  0  0  0  0
    3.4570   -5.1914    1.6528 C   0  0  0  0  0  0  0  0  0  0  0  0
    3.0682   -5.5783    2.6067 H   0  0  0  0  0  0  0  0  0  0  0  0
    2.5583    3.8362    0.0721 C   0  0  0  0  0  0  0  0  0  0  0  0
    1.4641    3.7639   -0.0058 H   0  0  0  0  0  0  0  0  0  0  0  0
    4.7183    2.7228    0.2317 C   0  0  0  0  0  0  0  0  0  0  0  0
    5.2950    1.7883    0.2780 H   0  0  0  0  0  0  0  0  0  0  0  0
    3.8455   -6.0803    0.6365 C   0  0  0  0  0  0  0  0  0  0  0  0
    3.7577   -7.1662    0.7913 H   0  0  0  0  0  0  0  0  0  0  0  0
    8.1837   -0.5400   -0.6272 C   0  0  0  0  0  0  0  0  0  0  0  0
    9.2139   -0.1939   -0.7986 H   0  0  0  0  0  0  0  0  0  0  0  0
    5.8314   -0.5522   -1.2612 C   0  0  0  0  0  0  0  0  0  0  0  0
    5.0196   -0.2232   -1.9232 H   0  0  0  0  0  0  0  0  0  0  0  0
    6.5866   -1.8549    0.6550 C   0  0  0  0  0  0  0  0  0  0  0  0
    6.3576   -2.5375    1.4861 H   0  0  0  0  0  0  0  0  0  0  0  0
    3.1900    5.0827    0.1092 C   0  0  0  0  0  0  0  0  0  0  0  0
    2.6102    6.0150    0.0626 H   0  0  0  0  0  0  0  0  0  0  0  0
    4.4591   -4.1980   -0.7758 C   0  0  0  0  0  0  0  0  0  0  0  0
    4.8506   -3.7912   -1.7194 H   0  0  0  0  0  0  0  0  0  0  0  0
    7.1445   -0.1128   -1.4714 C   0  0  0  0  0  0  0  0  0  0  0  0
    7.3583    0.5659   -2.3110 H   0  0  0  0  0  0  0  0  0  0  0  0
    5.3612    3.9641    0.2696 C   0  0  0  0  0  0  0  0  0  0  0  0
    6.4553    4.0320    0.3475 H   0  0  0  0  0  0  0  0  0  0  0  0
  3 14  1  0  0  0  0
  5  1  1  6  0  0  0
  5  4  1  0  0  0  0
  6  5  1  0  0  0  0
  6 17  1  0  0  0  0
  7  6  1  0  0  0  0
  7 30  1  0  0  0  0
  8 22  1  0  0  0  0
  9 18  1  0  0  0  0
  9 10  1  0  0  0  0
 11  2  1  0  0  0  0
 11 38  1  0  0  0  0
 12 30  2  0  0  0  0
 12 13  1  0  0  0  0
 14  4  2  0  0  0  0
 14  8  1  0  0  0  0
 15 24  1  0  0  0  0
 16 15  1  0  0  0  0
 17  9  2  0  0  0  0
 18 19  1  0  0  0  0
 20 32  1  0  0  0  0
 20  8  2  0  0  0  0
 21 20  1  0  0  0  0
 22 38  2  0  0  0  0
 22 23  1  0  0  0  0
 24 25  1  0  0  0  0
 24 18  2  0  0  0  0
 26 12  1  0  0  0  0
 27 26  1  0  0  0  0
 28  7  2  0  0  0  0
 29 28  1  0  0  0  0
 30 31  1  0  0  0  0
 32 11  2  0  0  0  0
 33 32  1  0  0  0  0
 34 15  2  0  0  0  0
 34 17  1  0  0  0  0
 35 34  1  0  0  0  0
 36 28  1  0  0  0  0
 36 26  2  0  0  0  0
 37 36  1  0  0  0  0
 38 39  1  0  0  0  0
M  CHG  1   3  -1
M  END
