1,11
q = -2.0, confidence = 0.714

 11 10  0  0  1  0  0  0  0  0999 V2000
    1.1653   -0.8637   -0.0351 O   0  0  0  0  0  1  0  0  0  0  0  0
    2.3844   -0.1996   -0.3938 C   0  0  2  0  0  0  0  0  0  0  0  0
    2.4064   -0.1312   -1.5062 H   0  0  0  0  0  0  0  0  0  0  0  0
    3.5536   -1.0371    0.1056 C   0  0  0  0  0  0  0  0  0  0  0  0
    3.5176   -2.0523   -0.3340 H   0  0  0  0  0  0  0  0  0  0  0  0
    3.5211   -1.1297    1.2094 H   0  0  0  0  0  0  0  0  0  0  0  0
    4.5130   -0.5647   -0.1845 H   0  0  0  0  0  0  0  0  0  0  0  0
    2.3131    1.2050    0.1882 C   0  0  0  0  0  0  0  0  0  0  0  0
    3.0044    1.9011   -0.3273 H   0  0  0  0  0  0  0  0  0  0  0  0
    2.5582    1.1974    1.2707 H   0  0  0  0  0  0  0  0  0  0  0  0
    0.5971    1.8215   -0.0383 S   0  0  0  0  0  1  0  0  0  0  0  0
  2  3  1  6  0  0  0
  2  1  1  0  0  0  0
  2  4  1  0  0  0  0
  2  8  1  0  0  0  0
  4  6  1  0  0  0  0
  5  4  1  0  0  0  0
  7  4  1  0  0  0  0
  8 10  1  0  0  0  0
  9  8  1  0  0  0  0
 11  8  1  0  0  0  0
M  END
