2,5
q = -1.0, confidence = 0.0

 38 38  0  0  0  0  0  0  0  0999 V2000
    2.9249    1.3887    0.4965 P   0  0  0  0  0  4  0  0  0  0  0  0
    1.2116    1.6130    1.6309 S   0  0  0  0  0  1  0  0  0  0  0  0
    3.3806   -0.1059   -0.0038 N   0  0  0  0  0  0  0  0  0  0  0  0
    3.1483   -2.2171   -0.8815 N   0  0  0  0  0  0  0  0  0  0  0  0
    1.2917   -0.9493   -0.7272 O   0  5  0  0  0  0  0  0  0  0  0  0
    2.5630   -1.0369   -0.5207 C   0  0  0  0  0  0  0  0  0  0  0  0
    2.3799   -3.3666   -1.3600 C   0  0  0  0  0  0  0  0  0  0  0  0
    2.0256   -3.2013   -2.4039 H   0  0  0  0  0  0  0  0  0  0  0  0
    1.4774   -3.5183   -0.7340 H   0  0  0  0  0  0  0  0  0  0  0  0
    3.3932   -4.5176   -1.2754 C   0  0  0  0  0  0  0  0  0  0  0  0
    3.3762   -4.9604   -0.2571 H   0  0  0  0  0  0  0  0  0  0  0  0
    3.1795   -5.3300   -1.9970 H   0  0  0  0  0  0  0  0  0  0  0  0
    4.7397   -3.8166   -1.5189 C   0  0  0  0  0  0  0  0  0  0  0  0
    4.8746   -3.6202   -2.6038 H   0  0  0  0  0  0  0  0  0  0  0  0
    5.6135   -4.4029   -1.1738 H   0  0  0  0  0  0  0  0  0  0  0  0
    4.5792   -2.4895   -0.7636 C   0  0  0  0  0  0  0  0  0  0  0  0
    4.8756   -2.5817    0.3070 H   0  0  0  0  0  0  0  0  0  0  0  0
    5.1737   -1.6548   -1.1870 H   0  0  0  0  0  0  0  0  0  0  0  0
    4.3361    1.9380    1.5673 C   0  0  0  0  0  0  0  0  0  0  0  0
    5.2186    1.8304    0.8991 H   0  0  0  0  0  0  0  0  0  0  0  0
    4.4861    0.9665    2.7429 C   0  0  0  0  0  0  0  0  0  0  0  0
    5.3792    1.2323    3.3449 H   0  0  0  0  0  0  0  0  0  0  0  0
    4.5970   -0.0734    2.3798 H   0  0  0  0  0  0  0  0  0  0  0  0
    3.5936    1.0095    3.3994 H   0  0  0  0  0  0  0  0  0  0  0  0
    4.1854    3.3941    2.0155 C   0  0  0  0  0  0  0  0  0  0  0  0
    3.2404    3.5344    2.5794 H   0  0  0  0  0  0  0  0  0  0  0  0
    4.1852    4.1032    1.1636 H   0  0  0  0  0  0  0  0  0  0  0  0
    5.0253    3.6746    2.6837 H   0  0  0  0  0  0  0  0  0  0  0  0
    2.8402    2.5561   -0.9573 C   0  0  0  0  0  0  0  0  0  0  0  0
    2.6495    3.5481   -0.4917 H   0  0  0  0  0  0  0  0  0  0  0  0
    1.6595    2.2021   -1.8680 C   0  0  0  0  0  0  0  0  0  0  0  0
    1.5889    2.9420   -2.6923 H   0  0  0  0  0  0  0  0  0  0  0  0
    0.6956    2.1981   -1.3239 H   0  0  0  0  0  0  0  0  0  0  0  0
    1.7865    1.1980   -2.3197 H   0  0  0  0  0  0  0  0  0  0  0  0
    4.1730    2.5735   -1.7149 C   0  0  0  0  0  0  0  0  0  0  0  0
    4.4275    1.5558   -2.0738 H   0  0  0  0  0  0  0  0  0  0  0  0
    5.0145    2.9364   -1.0916 H   0  0  0  0  0  0  0  0  0  0  0  0
    4.0994    3.2410   -2.5983 H   0  0  0  0  0  0  0  0  0  0  0  0
  1 19  1  0  0  0  0
  1  2  1  0  0  0  0
  3  1  1  0  0  0  0
  4 16  1  0  0  0  0
  4  6  1  0  0  0  0
  5  6  1  0  0  0  0
  6  3  2  0  0  0  0
  7 10  1  0  0  0  0
  7  4  1  0  0  0  0
  7  9  1  0  0  0  0
  8  7  1  0  0  0  0
 10 11  1  0  0  0  0
 12 10  1  0  0  0  0
 13 10  1  0  0  0  0
 13 15  1  0  0  0  0
 13 16  1  0  0  0  0
 14 13  1  0  0  0  0
 16 17  1  0  0  0  0
 18 16  1  0  0  0  0
 19 25  1  0  0  0  0
 19 21  1  0  0  0  0
 20 19  1  0  0  0  0
 21 22  1  0  0  0  0
 21 24  1  0  0  0  0
 23 21  1  0  0  0  0
 25 26  1  0  0  0  0
 25 28  1  0  0  0  0
 27 25  1  0  0  0  0
 29 30  1  0  0  0  0
 29  1  1  0  0  0  0
 31 33  1  0  0  0  0
 31 29  1  0  0  0  0
 32 31  1  0  0  0  0
 34 31  1  0  0  0  0
 35 37  1  0  0  0  0
 35 29  1  0  0  0  0
 36 35  1  0  0  0  0
 38 35  1  0  0  0  0
M  CHG  1   5  -1
M  END
