1,3
 OpenBabel05122313063D

 37 37  0  0  1  0  0  0  0  0999 V2000
    1.4773   -2.3986   -0.1756 S   0  0  0  0  0  1  0  0  0  0  0  0
    4.8848    6.0785   -1.1875 Cl  0  0  0  0  0  0  0  0  0  0  0  0
    1.2447    0.5681   -0.1996 O   0  5  0  0  0  0  0  0  0  0  0  0
    3.3774   -0.3888    0.0670 N   0  0  0  0  0  0  0  0  0  0  0  0
    4.0442   -2.5356    0.5092 N   0  0  0  0  0  0  0  0  0  0  0  0
    3.0361   -1.6776    0.1692 C   0  0  2  0  0  3  0  0  0  0  0  0
    2.5215    0.6078   -0.1776 C   0  0  0  0  0  0  0  0  0  0  0  0
    3.1211    1.9531   -0.4256 C   0  0  0  0  0  0  0  0  0  0  0  0
    4.5085    2.1721   -0.2986 C   0  0  0  0  0  0  0  0  0  0  0  0
    5.1490    1.3275   -0.0085 H   0  0  0  0  0  0  0  0  0  0  0  0
    5.0567    3.4380   -0.5297 C   0  0  0  0  0  0  0  0  0  0  0  0
    6.1364    3.6162   -0.4285 H   0  0  0  0  0  0  0  0  0  0  0  0
    4.2083    4.4975   -0.8962 C   0  0  0  0  0  0  0  0  0  0  0  0
    2.8226    4.3005   -1.0316 C   0  0  0  0  0  0  0  0  0  0  0  0
    2.1792    5.1424   -1.3230 H   0  0  0  0  0  0  0  0  0  0  0  0
    2.2874    3.0308   -0.7939 C   0  0  0  0  0  0  0  0  0  0  0  0
    1.2083    2.8458   -0.8956 H   0  0  0  0  0  0  0  0  0  0  0  0
    3.8235   -3.9620    0.7226 C   0  0  0  0  0  0  0  0  0  0  0  0
    2.8014   -4.0938    1.1360 H   0  0  0  0  0  0  0  0  0  0  0  0
    4.5414   -4.3005    1.5002 H   0  0  0  0  0  0  0  0  0  0  0  0
    3.9785   -4.8079   -0.5481 C   0  0  0  0  0  0  0  0  0  0  0  0
    4.9963   -4.6534   -0.9684 H   0  0  0  0  0  0  0  0  0  0  0  0
    3.2618   -4.4266   -1.3058 H   0  0  0  0  0  0  0  0  0  0  0  0
    3.7318   -6.2922   -0.2849 C   0  0  0  0  0  0  0  0  0  0  0  0
    3.8496   -6.8921   -1.2088 H   0  0  0  0  0  0  0  0  0  0  0  0
    2.7043   -6.4655    0.0972 H   0  0  0  0  0  0  0  0  0  0  0  0
    4.4394   -6.6969    0.4691 H   0  0  0  0  0  0  0  0  0  0  0  0
    5.4112   -2.0328    0.6624 C   0  0  0  0  0  0  0  0  0  0  0  0
    6.1013   -2.8725    0.4344 H   0  0  0  0  0  0  0  0  0  0  0  0
    5.5748   -1.2451   -0.0986 H   0  0  0  0  0  0  0  0  0  0  0  0
    5.6987   -1.4672    2.0573 C   0  0  0  0  0  0  0  0  0  0  0  0
    5.5030   -2.2521    2.8203 H   0  0  0  0  0  0  0  0  0  0  0  0
    4.9723   -0.6501    2.2477 H   0  0  0  0  0  0  0  0  0  0  0  0
    7.1295   -0.9470    2.1865 C   0  0  0  0  0  0  0  0  0  0  0  0
    7.3227   -0.5391    3.1982 H   0  0  0  0  0  0  0  0  0  0  0  0
    7.3290   -0.1344    1.4566 H   0  0  0  0  0  0  0  0  0  0  0  0
    7.8760   -1.7478    2.0008 H   0  0  0  0  0  0  0  0  0  0  0  0
  2 13  1  0  0  0  0
  3  7  1  0  0  0  0
  4  6  1  0  0  0  0
  5 28  1  0  0  0  0
  5 18  1  0  0  0  0
  6  1  1  6  0  0  0
  6  5  1  0  0  0  0
  7  4  2  0  0  0  0
  8  9  1  0  0  0  0
  8  7  1  0  0  0  0
  9 10  1  0  0  0  0
 11 12  1  0  0  0  0
 11  9  2  0  0  0  0
 13 11  1  0  0  0  0
 14 13  2  0  0  0  0
 14 16  1  0  0  0  0
 15 14  1  0  0  0  0
 16  8  2  0  0  0  0
 17 16  1  0  0  0  0
 18 19  1  0  0  0  0
 18 20  1  0  0  0  0
 21 24  1  0  0  0  0
 21 18  1  0  0  0  0
 22 21  1  0  0  0  0
 23 21  1  0  0  0  0
 24 26  1  0  0  0  0
 24 27  1  0  0  0  0
 25 24  1  0  0  0  0
 28 31  1  0  0  0  0
 29 28  1  0  0  0  0
 30 28  1  0  0  0  0
 31 34  1  0  0  0  0
 31 33  1  0  0  0  0
 31 32  1  0  0  0  0
 34 35  1  0  0  0  0
 36 34  1  0  0  0  0
 37 34  1  0  0  0  0
M  CHG  1   3  -1
M  END
