1,2
 OpenBabel05122313063D

 15 15  0  0  1  0  0  0  0  0999 V2000
   -1.5629   -1.1133    1.4236 S   0  0  0  0  0  1  0  0  0  0  0  0
   -1.2946    0.8098   -0.8927 O   0  5  0  0  0  0  0  0  0  0  0  0
   -2.8150   -0.4557    0.4645 C   0  0  2  0  0  3  0  0  0  0  0  0
   -4.1286   -0.8148    0.6751 N   0  0  0  0  0  0  0  0  0  0  0  0
   -2.5185    0.4872   -0.6194 C   0  0  0  0  0  0  0  0  0  0  0  0
   -3.6055    1.0154   -1.3494 C   0  0  0  0  0  0  0  0  0  0  0  0
   -3.3771    1.7337   -2.1506 H   0  0  0  0  0  0  0  0  0  0  0  0
   -4.9261    0.6163   -1.0669 C   0  0  0  0  0  0  0  0  0  0  0  0
   -5.7738    1.0195   -1.6386 H   0  0  0  0  0  0  0  0  0  0  0  0
   -5.1711   -0.3024   -0.0635 C   0  0  0  0  0  0  0  0  0  0  0  0
   -6.1717   -0.6652    0.2009 H   0  0  0  0  0  0  0  0  0  0  0  0
   -4.4101   -1.8091    1.7089 C   0  0  0  0  0  0  0  0  0  0  0  0
   -3.8732   -2.7492    1.4693 H   0  0  0  0  0  0  0  0  0  0  0  0
   -5.4994   -1.9864    1.7536 H   0  0  0  0  0  0  0  0  0  0  0  0
   -4.0345   -1.4503    2.6873 H   0  0  0  0  0  0  0  0  0  0  0  0
  2  5  1  0  0  0  0
  3  4  1  0  0  0  0
  3  1  1  6  0  0  0
  4 12  1  0  0  0  0
  5  3  1  0  0  0  0
  6  8  1  0  0  0  0
  6  5  2  0  0  0  0
  7  6  1  0  0  0  0
  8 10  2  0  0  0  0
  9  8  1  0  0  0  0
 10 11  1  0  0  0  0
 10  4  1  0  0  0  0
 12 14  1  0  0  0  0
 12 15  1  0  0  0  0
 13 12  1  0  0  0  0
M  CHG  1   2  -1
M  END
