1,2
 OpenBabel05122313063D

 41 41  0  0  1  0  0  0  0  0999 V2000
    2.7008   -1.4789   -0.2226 S   0  0  0  0  0  1  0  0  0  0  0  0
   -0.2420   -1.2237   -0.1871 O   0  5  0  0  0  0  0  0  0  0  0  0
    0.6926   -3.3770    0.0384 N   0  0  0  0  0  0  0  0  0  0  0  0
    2.8524   -4.0773    0.4065 N   0  0  0  0  0  0  0  0  0  0  0  0
   -0.3025   -2.5006   -0.1693 C   0  0  0  0  0  0  0  0  0  0  0  0
    1.9880   -3.0549    0.1177 C   0  0  1  0  0  3  0  0  0  0  0  0
   -1.6442   -3.0885   -0.3570 C   0  0  0  0  0  0  0  0  0  0  0  0
   -1.6993   -4.1858   -0.2933 H   0  0  0  0  0  0  0  0  0  0  0  0
   -2.7325   -2.3038   -0.5820 C   0  0  0  0  0  0  0  0  0  0  0  0
   -2.5344   -1.2188   -0.6335 H   0  0  0  0  0  0  0  0  0  0  0  0
   -4.1238   -2.7123   -0.7519 C   0  0  0  0  0  0  0  0  0  0  0  0
   -5.0994   -1.7129   -0.9939 C   0  0  0  0  0  0  0  0  0  0  0  0
   -4.7779   -0.6619   -1.0632 H   0  0  0  0  0  0  0  0  0  0  0  0
   -6.4524   -2.0413   -1.1459 C   0  0  0  0  0  0  0  0  0  0  0  0
   -7.1902   -1.2455   -1.3305 H   0  0  0  0  0  0  0  0  0  0  0  0
   -6.8624   -3.3814   -1.0638 C   0  0  0  0  0  0  0  0  0  0  0  0
   -7.9244   -3.6448   -1.1825 H   0  0  0  0  0  0  0  0  0  0  0  0
   -5.9072   -4.3878   -0.8292 C   0  0  0  0  0  0  0  0  0  0  0  0
   -6.2237   -5.4401   -0.7646 H   0  0  0  0  0  0  0  0  0  0  0  0
   -4.5568   -4.0599   -0.6745 C   0  0  0  0  0  0  0  0  0  0  0  0
   -3.8225   -4.8572   -0.4858 H   0  0  0  0  0  0  0  0  0  0  0  0
    2.4110   -5.4981    0.4050 C   0  0  0  0  0  0  0  0  0  0  0  0
    3.3534   -6.0641    0.5471 H   0  0  0  0  0  0  0  0  0  0  0  0
    1.8406   -5.9445   -0.9474 C   0  0  0  0  0  0  0  0  0  0  0  0
    1.6862   -7.0425   -0.9376 H   0  0  0  0  0  0  0  0  0  0  0  0
    2.5430   -5.7036   -1.7697 H   0  0  0  0  0  0  0  0  0  0  0  0
    0.8747   -5.4494   -1.1537 H   0  0  0  0  0  0  0  0  0  0  0  0
    1.5009   -5.8423    1.5901 C   0  0  0  0  0  0  0  0  0  0  0  0
    1.3229   -6.9366    1.6205 H   0  0  0  0  0  0  0  0  0  0  0  0
    0.5313   -5.3203    1.4955 H   0  0  0  0  0  0  0  0  0  0  0  0
    1.9696   -5.5441    2.5486 H   0  0  0  0  0  0  0  0  0  0  0  0
    4.2940   -3.8330    0.6194 C   0  0  0  0  0  0  0  0  0  0  0  0
    4.3805   -2.7334    0.7337 H   0  0  0  0  0  0  0  0  0  0  0  0
    4.8008   -4.4630    1.9217 C   0  0  0  0  0  0  0  0  0  0  0  0
    5.8445   -4.1377    2.1027 H   0  0  0  0  0  0  0  0  0  0  0  0
    4.8049   -5.5719    1.8932 H   0  0  0  0  0  0  0  0  0  0  0  0
    4.1866   -4.1386    2.7845 H   0  0  0  0  0  0  0  0  0  0  0  0
    5.1193   -4.2397   -0.6068 C   0  0  0  0  0  0  0  0  0  0  0  0
    6.1857   -3.9770   -0.4570 H   0  0  0  0  0  0  0  0  0  0  0  0
    4.7569   -3.7091   -1.5091 H   0  0  0  0  0  0  0  0  0  0  0  0
    5.0667   -5.3324   -0.7950 H   0  0  0  0  0  0  0  0  0  0  0  0
  2  5  1  0  0  0  0
  3  6  1  0  0  0  0
  4 32  1  0  0  0  0
  5  3  2  0  0  0  0
  6  1  1  6  0  0  0
  6  4  1  0  0  0  0
  7  8  1  0  0  0  0
  7  5  1  0  0  0  0
  9  7  2  0  0  0  0
 10  9  1  0  0  0  0
 11 20  1  0  0  0  0
 11  9  1  0  0  0  0
 12 11  2  0  0  0  0
 13 12  1  0  0  0  0
 14 16  2  0  0  0  0
 14 12  1  0  0  0  0
 15 14  1  0  0  0  0
 16 18  1  0  0  0  0
 17 16  1  0  0  0  0
 18 19  1  0  0  0  0
 18 20  2  0  0  0  0
 20 21  1  0  0  0  0
 22  4  1  0  0  0  0
 22 23  1  0  0  0  0
 22 28  1  0  0  0  0
 24 25  1  0  0  0  0
 24 22  1  0  0  0  0
 26 24  1  0  0  0  0
 27 24  1  0  0  0  0
 28 29  1  0  0  0  0
 28 31  1  0  0  0  0
 30 28  1  0  0  0  0
 32 33  1  0  0  0  0
 32 34  1  0  0  0  0
 34 35  1  0  0  0  0
 34 37  1  0  0  0  0
 36 34  1  0  0  0  0
 38 39  1  0  0  0  0
 38 32  1  0  0  0  0
 40 38  1  0  0  0  0
 41 38  1  0  0  0  0
M  CHG  1   2  -1
M  END
