1,5
 OpenBabel05122313063D

 30 31  0  0  1  0  0  0  0  0999 V2000
   -1.0911   -1.1856    1.2954 S   0  0  0  0  0  1  0  0  0  0  0  0
   -2.6784   -0.4575    0.9523 C   0  0  2  0  0  3  0  0  0  0  0  0
   -2.7873    0.8355    0.6341 N   0  0  0  0  0  0  0  0  0  0  0  0
   -1.8203    1.5302    0.0343 C   0  0  0  0  0  0  0  0  0  0  0  0
   -0.8111    1.0198   -0.5716 O   0  5  0  0  0  0  0  0  0  0  0  0
   -1.9275    3.0113    0.0081 C   0  0  0  0  0  0  0  0  0  0  0  0
   -1.1180    3.7407   -0.8869 C   0  0  0  0  0  0  0  0  0  0  0  0
   -0.4426    3.1859   -1.5542 H   0  0  0  0  0  0  0  0  0  0  0  0
   -1.1843    5.1389   -0.9080 C   0  0  0  0  0  0  0  0  0  0  0  0
   -0.5557    5.7057   -1.6114 H   0  0  0  0  0  0  0  0  0  0  0  0
   -2.0458    5.8174   -0.0296 C   0  0  0  0  0  0  0  0  0  0  0  0
   -2.0927    6.9173   -0.0441 H   0  0  0  0  0  0  0  0  0  0  0  0
   -2.8544    5.0926    0.8642 C   0  0  0  0  0  0  0  0  0  0  0  0
   -3.5306    5.6248    1.5505 H   0  0  0  0  0  0  0  0  0  0  0  0
   -2.8045    3.6935    0.8766 C   0  0  0  0  0  0  0  0  0  0  0  0
   -3.4329    3.1054    1.5612 H   0  0  0  0  0  0  0  0  0  0  0  0
   -3.8065   -1.1673    1.1477 N   0  0  0  0  0  0  0  0  0  0  0  0
   -3.8355   -2.6117    1.3659 C   0  0  0  0  0  0  0  0  0  0  0  0
   -4.4275   -2.8171    2.2838 H   0  0  0  0  0  0  0  0  0  0  0  0
   -2.7981   -2.9686    1.5107 H   0  0  0  0  0  0  0  0  0  0  0  0
   -4.4904   -3.2865    0.1510 C   0  0  0  0  0  0  0  0  0  0  0  0
   -3.8202   -3.1454   -0.7298 H   0  0  0  0  0  0  0  0  0  0  0  0
   -4.6175   -4.3700    0.3453 H   0  0  0  0  0  0  0  0  0  0  0  0
   -5.7809   -2.7537   -0.1037 O   0  0  0  0  0  0  0  0  0  0  0  0
   -5.7091   -1.3621   -0.3682 C   0  0  0  0  0  0  0  0  0  0  0  0
   -6.7422   -1.0144   -0.5689 H   0  0  0  0  0  0  0  0  0  0  0  0
   -5.0744   -1.1576   -1.2624 H   0  0  0  0  0  0  0  0  0  0  0  0
   -5.1241   -0.6055    0.8316 C   0  0  0  0  0  0  0  0  0  0  0  0
   -4.9990    0.4711    0.6155 H   0  0  0  0  0  0  0  0  0  0  0  0
   -5.7810   -0.7415    1.7178 H   0  0  0  0  0  0  0  0  0  0  0  0
  2 17  1  0  0  0  0
  2  1  1  1  0  0  0
  3  2  1  0  0  0  0
  4  3  2  0  0  0  0
  5  4  1  0  0  0  0
  6  4  1  0  0  0  0
  6 15  1  0  0  0  0
  7  6  2  0  0  0  0
  8  7  1  0  0  0  0
  9  7  1  0  0  0  0
  9 11  2  0  0  0  0
 10  9  1  0  0  0  0
 11 13  1  0  0  0  0
 12 11  1  0  0  0  0
 13 15  2  0  0  0  0
 13 14  1  0  0  0  0
 15 16  1  0  0  0  0
 17 18  1  0  0  0  0
 18 20  1  0  0  0  0
 18 19  1  0  0  0  0
 21 23  1  0  0  0  0
 21 18  1  0  0  0  0
 22 21  1  0  0  0  0
 24 21  1  0  0  0  0
 25 24  1  0  0  0  0
 25 28  1  0  0  0  0
 26 25  1  0  0  0  0
 27 25  1  0  0  0  0
 28 17  1  0  0  0  0
 28 30  1  0  0  0  0
 29 28  1  0  0  0  0
M  CHG  1   5  -1
M  END
