2,3
 OpenBabel05122313063D

 12 12  0  0  0  0  0  0  0  0999 V2000
   -6.6194   -1.0086    0.0001 Cl  0  0  0  0  0  0  0  0  0  0  0  0
   -1.0762    1.9145   -0.0000 S   0  0  0  0  0  1  0  0  0  0  0  0
   -1.6213   -0.8894   -0.0002 O   0  0  0  0  0  1  0  0  0  0  0  0
   -2.7342   -0.1633   -0.0001 N   0  0  0  0  0  0  0  0  0  0  0  0
   -3.9234   -0.8371   -0.0000 C   0  0  0  0  0  3  0  0  0  0  0  0
   -3.8371   -1.9304   -0.0000 H   0  0  0  0  0  0  0  0  0  0  0  0
   -5.1211   -0.1316    0.0000 C   0  0  0  0  0  0  0  0  0  0  0  0
   -5.1046    1.2817   -0.0000 C   0  0  0  0  0  0  0  0  0  0  0  0
   -6.0489    1.8429    0.0000 H   0  0  0  0  0  0  0  0  0  0  0  0
   -3.8752    1.9334   -0.0000 C   0  0  0  0  0  0  0  0  0  0  0  0
   -3.8189    3.0310   -0.0000 H   0  0  0  0  0  0  0  0  0  0  0  0
   -2.6537    1.2196   -0.0000 C   0  0  0  0  0  0  0  0  0  0  0  0
  3  4  1  0  0  0  0
  4 12  1  0  0  0  0
  4  5  1  0  0  0  0
  5  7  1  0  0  0  0
  6  5  1  0  0  0  0
  7  1  1  0  0  0  0
  8  7  2  0  0  0  0
  8  9  1  0  0  0  0
 10 11  1  0  0  0  0
 10  8  1  0  0  0  0
 12 10  2  0  0  0  0
 12  2  1  0  0  0  0
M  END
