1,4
 OpenBabel05122313063D

  6  5  0  0  0  0  0  0  0  0999 V2000
   -1.0337   -1.2062   -1.1431 S   0  0  0  0  0  0  0  0  0  0  0  0
   -3.1144    1.0349    1.3928 O   0  5  0  0  0  0  0  0  0  0  0  0
   -3.6307   -0.9447   -0.5618 O   0  0  0  0  0  0  0  0  0  0  0  0
   -0.9341    0.8416    0.9216 O   0  0  0  0  0  0  0  0  0  0  0  0
   -2.2130    0.5237    0.7619 C   0  0  0  0  0  0  0  0  0  0  0  0
   -2.5155   -0.5666   -0.3106 C   0  0  0  0  0  0  0  0  0  0  0  0
  1  6  1  0  0  0  0
  3  6  2  0  0  0  0
  5  4  2  0  0  0  0
  5  2  1  0  0  0  0
  6  5  1  0  0  0  0
M  CHG  1   2  -1
M  END
