1,3
 OpenBabel05122313063D

 29 29  0  0  1  0  0  0  0  0999 V2000
   -1.1487    1.6438    0.0519 S   0  0  0  0  0  1  0  0  0  0  0  0
    0.9462    3.7511   -0.1231 S   0  0  0  0  0  0  0  0  0  0  0  0
    0.6525   -1.0130    0.0061 O   0  5  0  0  0  0  0  0  0  0  0  0
    6.6514   -0.4425    0.2272 O   0  0  0  0  0  0  0  0  0  0  0  0
    0.5157    2.0379   -0.0655 C   0  0  1  0  0  3  0  0  0  0  0  0
    1.6325    1.1862   -0.1217 C   0  0  0  0  0  0  0  0  0  0  0  0
    2.6013    1.6929   -0.2367 H   0  0  0  0  0  0  0  0  0  0  0  0
    1.6695   -0.2247   -0.0655 C   0  0  0  0  0  0  0  0  0  0  0  0
    2.9807   -0.9441   -0.1050 C   0  0  0  0  0  0  0  0  0  0  0  0
    2.9692   -2.3354   -0.3355 C   0  0  0  0  0  0  0  0  0  0  0  0
    2.0032   -2.8406   -0.4701 H   0  0  0  0  0  0  0  0  0  0  0  0
    4.1793   -3.0429   -0.3854 C   0  0  0  0  0  0  0  0  0  0  0  0
    4.1695   -4.1275   -0.5714 H   0  0  0  0  0  0  0  0  0  0  0  0
    5.4004   -2.3884   -0.2008 C   0  0  0  0  0  0  0  0  0  0  0  0
    6.3589   -2.9263   -0.2335 H   0  0  0  0  0  0  0  0  0  0  0  0
    5.4212   -0.9973    0.0441 C   0  0  0  0  0  0  0  0  0  0  0  0
    4.2137   -0.2783    0.0912 C   0  0  0  0  0  0  0  0  0  0  0  0
    4.2278    0.7963    0.3085 H   0  0  0  0  0  0  0  0  0  0  0  0
    6.7325    0.9473    0.4751 C   0  0  0  0  0  0  0  0  0  0  0  0
    7.8071    1.1848    0.5819 H   0  0  0  0  0  0  0  0  0  0  0  0
    6.2052    1.2347    1.4130 H   0  0  0  0  0  0  0  0  0  0  0  0
    6.3125    1.5454   -0.3653 H   0  0  0  0  0  0  0  0  0  0  0  0
   -0.6535    4.6394   -0.0875 C   0  0  0  0  0  0  0  0  0  0  0  0
   -1.2682    4.2819   -0.9387 H   0  0  0  0  0  0  0  0  0  0  0  0
   -1.1850    4.3640    0.8462 H   0  0  0  0  0  0  0  0  0  0  0  0
   -0.3857    6.1392   -0.1675 C   0  0  0  0  0  0  0  0  0  0  0  0
   -1.3471    6.6898   -0.1450 H   0  0  0  0  0  0  0  0  0  0  0  0
    0.1401    6.4109   -1.1047 H   0  0  0  0  0  0  0  0  0  0  0  0
    0.2271    6.4914    0.6865 H   0  0  0  0  0  0  0  0  0  0  0  0
  2 23  1  0  0  0  0
  2  5  1  0  0  0  0
  4 19  1  0  0  0  0
  5  1  1  1  0  0  0
  6  8  2  0  0  0  0
  6  5  1  0  0  0  0
  7  6  1  0  0  0  0
  8  3  1  0  0  0  0
  9  8  1  0  0  0  0
  9 17  1  0  0  0  0
 10  9  2  0  0  0  0
 11 10  1  0  0  0  0
 12 10  1  0  0  0  0
 12 14  2  0  0  0  0
 13 12  1  0  0  0  0
 14 16  1  0  0  0  0
 15 14  1  0  0  0  0
 16 17  2  0  0  0  0
 16  4  1  0  0  0  0
 17 18  1  0  0  0  0
 19 20  1  0  0  0  0
 19 21  1  0  0  0  0
 22 19  1  0  0  0  0
 23 25  1  0  0  0  0
 24 23  1  0  0  0  0
 26 27  1  0  0  0  0
 26 23  1  0  0  0  0
 26 29  1  0  0  0  0
 28 26  1  0  0  0  0
M  CHG  1   3  -1
M  END
