20,21
 OpenBabel05122313063D

 21 21  0  0  1  0  0  0  0  0999 V2000
    3.0360   -0.5408   -0.6425 C   0  0  2  0  0  3  0  0  0  0  0  0
    2.3106   -2.7353    2.4770 C   0  0  0  0  0  0  0  0  0  0  0  0
    3.0751   -1.4424    0.4327 C   0  0  0  0  0  0  0  0  0  0  0  0
    2.0426   -1.7061    1.3560 C   0  0  0  0  0  0  0  0  0  0  0  0
    4.2551   -0.3696   -1.4761 C   0  0  0  0  0  0  0  0  0  0  0  0
    5.5382   -0.3959   -0.8806 C   0  0  0  0  0  0  0  0  0  0  0  0
    6.6887   -0.2264   -1.6607 C   0  0  0  0  0  0  0  0  0  0  0  0
    6.5810   -0.0354   -3.0479 C   0  0  0  0  0  0  0  0  0  0  0  0
    5.3127   -0.0084   -3.6503 C   0  0  0  0  0  0  0  0  0  0  0  0
    4.1593   -0.1689   -2.8732 C   0  0  0  0  0  0  0  0  0  0  0  0
    1.4491   -3.7674    2.3701 F   0  0  0  0  0  0  0  0  0  0  0  0
    3.5664   -3.2389    2.4317 F   0  0  0  0  0  0  0  0  0  0  0  0
    2.1370   -2.1658    3.6835 F   0  0  0  0  0  0  0  0  0  0  0  0
    3.9965   -2.0235    0.5643 H   0  0  0  0  0  0  0  0  0  0  0  0
    5.6278   -0.5177    0.2089 H   0  0  0  0  0  0  0  0  0  0  0  0
    7.6783   -0.2364   -1.1795 H   0  0  0  0  0  0  0  0  0  0  0  0
    7.4867    0.0932   -3.6597 H   0  0  0  0  0  0  0  0  0  0  0  0
    5.2207    0.1329   -4.7377 H   0  0  0  0  0  0  0  0  0  0  0  0
    3.1647   -0.1622   -3.3429 H   0  0  0  0  0  0  0  0  0  0  0  0
    0.8728   -1.2292    1.4217 O   0  5  0  0  0  0  0  0  0  0  0  0
    1.7127    0.4401   -1.1152 S   0  0  0  0  0  1  0  0  0  0  0  0
  1 21  1  1  0  0  0
  1  3  1  0  0  0  0
  2 13  1  0  0  0  0
  3 14  1  0  0  0  0
  3  4  2  0  0  0  0
  4 20  1  0  0  0  0
  4  2  1  0  0  0  0
  5  6  1  0  0  0  0
  5  1  1  0  0  0  0
  6 15  1  0  0  0  0
  7 16  1  0  0  0  0
  7  6  2  0  0  0  0
  8  7  1  0  0  0  0
  9  8  2  0  0  0  0
  9 10  1  0  0  0  0
 10  5  2  0  0  0  0
 11  2  1  0  0  0  0
 12  2  1  0  0  0  0
 17  8  1  0  0  0  0
 18  9  1  0  0  0  0
 19 10  1  0  0  0  0
M  CHG  1  20  -1
M  END
