1,6
 OpenBabel05122313063D

 49 52  0  0  0  0  0  0  0  0999 V2000
    0.0639   -1.0067    1.1612 S   0  0  0  0  0  1  0  0  0  0  0  0
    1.4509   -1.2656   -0.3591 P   0  0  0  0  0  4  0  0  0  0  0  0
    2.8070   -2.2940    0.3241 C   0  0  0  0  0  0  0  0  0  0  0  0
    2.0462    0.0930   -1.0365 N   0  0  0  0  0  2  0  0  0  0  0  0
    2.2945    1.4239   -0.1123 P   0  0  0  0  0  4  0  0  0  0  0  0
    1.0281    2.1573    0.4405 O   0  0  0  0  0  1  0  0  0  0  0  0
    3.8447   -2.6786   -0.5513 C   0  0  0  0  0  0  0  0  0  0  0  0
    3.7756   -2.4337   -1.6226 H   0  0  0  0  0  0  0  0  0  0  0  0
    4.9638   -3.3579   -0.0521 C   0  0  0  0  0  0  0  0  0  0  0  0
    5.7718   -3.6588   -0.7364 H   0  0  0  0  0  0  0  0  0  0  0  0
    5.0571   -3.6475    1.3205 C   0  0  0  0  0  0  0  0  0  0  0  0
    5.9404   -4.1753    1.7117 H   0  0  0  0  0  0  0  0  0  0  0  0
    4.0282   -3.2586    2.1914 C   0  0  0  0  0  0  0  0  0  0  0  0
    4.1045   -3.4724    3.2681 H   0  0  0  0  0  0  0  0  0  0  0  0
    2.9028   -2.5820    1.6966 C   0  0  0  0  0  0  0  0  0  0  0  0
    2.1015   -2.2487    2.3737 H   0  0  0  0  0  0  0  0  0  0  0  0
    0.7431   -2.2120   -1.7459 C   0  0  0  0  0  0  0  0  0  0  0  0
    0.1683   -1.5005   -2.8173 C   0  0  0  0  0  0  0  0  0  0  0  0
    0.1861   -0.4003   -2.7982 H   0  0  0  0  0  0  0  0  0  0  0  0
   -0.3967   -2.2005   -3.8916 C   0  0  0  0  0  0  0  0  0  0  0  0
   -0.8510   -1.6449   -4.7256 H   0  0  0  0  0  0  0  0  0  0  0  0
   -0.3849   -3.6048   -3.9033 C   0  0  0  0  0  0  0  0  0  0  0  0
   -0.8231   -4.1512   -4.7525 H   0  0  0  0  0  0  0  0  0  0  0  0
    0.1765   -4.3133   -2.8286 C   0  0  0  0  0  0  0  0  0  0  0  0
    0.1838   -5.4140   -2.8358 H   0  0  0  0  0  0  0  0  0  0  0  0
    0.7339   -3.6201   -1.7439 C   0  0  0  0  0  0  0  0  0  0  0  0
    1.1794   -4.1723   -0.9022 H   0  0  0  0  0  0  0  0  0  0  0  0
    3.2342    2.5644   -1.1684 C   0  0  0  0  0  0  0  0  0  0  0  0
    3.4254    3.8929   -0.7381 C   0  0  0  0  0  0  0  0  0  0  0  0
    2.9968    4.2220    0.2210 H   0  0  0  0  0  0  0  0  0  0  0  0
    4.1508    4.7866   -1.5378 C   0  0  0  0  0  0  0  0  0  0  0  0
    4.3002    5.8246   -1.2035 H   0  0  0  0  0  0  0  0  0  0  0  0
    4.6825    4.3594   -2.7667 C   0  0  0  0  0  0  0  0  0  0  0  0
    5.2515    5.0635   -3.3930 H   0  0  0  0  0  0  0  0  0  0  0  0
    4.4848    3.0381   -3.1988 C   0  0  0  0  0  0  0  0  0  0  0  0
    4.8952    2.7069   -4.1651 H   0  0  0  0  0  0  0  0  0  0  0  0
    3.7601    2.1381   -2.4023 C   0  0  0  0  0  0  0  0  0  0  0  0
    3.5794    1.1011   -2.7234 H   0  0  0  0  0  0  0  0  0  0  0  0
    3.3731    1.0043    1.3040 C   0  0  0  0  0  0  0  0  0  0  0  0
    4.6644    0.4837    1.0830 C   0  0  0  0  0  0  0  0  0  0  0  0
    5.0559    0.4054    0.0568 H   0  0  0  0  0  0  0  0  0  0  0  0
    5.4396    0.0519    2.1670 C   0  0  0  0  0  0  0  0  0  0  0  0
    6.4437   -0.3629    1.9921 H   0  0  0  0  0  0  0  0  0  0  0  0
    4.9284    0.1363    3.4737 C   0  0  0  0  0  0  0  0  0  0  0  0
    5.5369   -0.2079    4.3242 H   0  0  0  0  0  0  0  0  0  0  0  0
    3.6432    0.6559    3.6950 C   0  0  0  0  0  0  0  0  0  0  0  0
    3.2434    0.7209    4.7187 H   0  0  0  0  0  0  0  0  0  0  0  0
    2.8629    1.0915    2.6124 C   0  0  0  0  0  0  0  0  0  0  0  0
    1.8485    1.4904    2.7611 H   0  0  0  0  0  0  0  0  0  0  0  0
  2  3  1  0  0  0  0
  2  1  1  0  0  0  0
  3 15  1  0  0  0  0
  4  2  1  0  0  0  0
  4  5  1  0  0  0  0
  5  6  1  0  0  0  0
  5 39  1  0  0  0  0
  7  9  1  0  0  0  0
  7  3  2  0  0  0  0
  8  7  1  0  0  0  0
  9 11  2  0  0  0  0
 10  9  1  0  0  0  0
 11 12  1  0  0  0  0
 11 13  1  0  0  0  0
 13 14  1  0  0  0  0
 15 13  2  0  0  0  0
 15 16  1  0  0  0  0
 17 26  1  0  0  0  0
 17  2  1  0  0  0  0
 18 19  1  0  0  0  0
 18 17  2  0  0  0  0
 20 18  1  0  0  0  0
 21 20  1  0  0  0  0
 22 20  2  0  0  0  0
 22 24  1  0  0  0  0
 23 22  1  0  0  0  0
 24 26  2  0  0  0  0
 25 24  1  0  0  0  0
 26 27  1  0  0  0  0
 28 29  1  0  0  0  0
 28  5  1  0  0  0  0
 29 30  1  0  0  0  0
 31 32  1  0  0  0  0
 31 29  2  0  0  0  0
 33 31  1  0  0  0  0
 34 33  1  0  0  0  0
 35 33  2  0  0  0  0
 35 37  1  0  0  0  0
 36 35  1  0  0  0  0
 37 28  2  0  0  0  0
 38 37  1  0  0  0  0
 39 48  1  0  0  0  0
 40 39  2  0  0  0  0
 40 42  1  0  0  0  0
 41 40  1  0  0  0  0
 42 44  2  0  0  0  0
 43 42  1  0  0  0  0
 44 46  1  0  0  0  0
 44 45  1  0  0  0  0
 46 47  1  0  0  0  0
 48 49  1  0  0  0  0
 48 46  2  0  0  0  0
M  END
