1,2
 OpenBabel05122313063D

 14 14  0  0  0  0  0  0  0  0999 V2000
   -1.3957    1.6109   -0.1148 S   0  0  0  0  0  1  0  0  0  0  0  0
   -1.3632   -1.6114   -0.0731 O   0  5  0  0  0  0  0  0  0  0  0  0
   -3.2509   -2.7419   -0.0672 O   0  0  0  0  0  0  0  0  0  0  0  0
   -3.0488    0.9726   -0.0027 C   0  0  0  0  0  0  0  0  0  0  0  0
   -3.9994    2.0251    0.0633 C   0  0  0  0  0  0  0  0  0  0  0  0
   -3.6373    3.0652    0.0581 H   0  0  0  0  0  0  0  0  0  0  0  0
   -5.3686    1.7665    0.1348 C   0  0  0  0  0  0  0  0  0  0  0  0
   -6.0765    2.6081    0.1845 H   0  0  0  0  0  0  0  0  0  0  0  0
   -5.8290    0.4386    0.1468 C   0  0  0  0  0  0  0  0  0  0  0  0
   -6.9052    0.2182    0.2048 H   0  0  0  0  0  0  0  0  0  0  0  0
   -4.9002   -0.5996    0.0858 C   0  0  0  0  0  0  0  0  0  0  0  0
   -5.2127   -1.6539    0.0915 H   0  0  0  0  0  0  0  0  0  0  0  0
   -3.5039   -0.3743    0.0106 C   0  0  0  0  0  0  0  0  0  0  0  0
   -2.6855   -1.6496   -0.0484 C   0  0  0  0  0  0  0  0  0  0  0  0
  1  4  1  0  0  0  0
  2 14  1  0  0  0  0
  3 14  2  0  0  0  0
  4 13  2  0  0  0  0
  4  5  1  0  0  0  0
  5  7  2  0  0  0  0
  6  5  1  0  0  0  0
  7  9  1  0  0  0  0
  7  8  1  0  0  0  0
  9 10  1  0  0  0  0
 11 12  1  0  0  0  0
 11  9  2  0  0  0  0
 13 11  1  0  0  0  0
 14 13  1  0  0  0  0
M  CHG  1   2  -1
M  END
