1,2
 OpenBabel05122313063D

 40 40  0  0  1  0  0  0  0  0999 V2000
   -1.2815   -2.0650   -0.4511 S   0  0  0  0  0  1  0  0  0  0  0  0
   -1.2231    0.9033   -0.3280 O   0  5  0  0  0  0  0  0  0  0  0  0
   -3.2966   -0.1813   -0.1049 N   0  0  0  0  0  0  0  0  0  0  0  0
   -3.8418   -2.3840    0.2091 N   0  0  0  0  0  0  0  0  0  0  0  0
   -2.4990    0.8756   -0.2945 C   0  0  0  0  0  0  0  0  0  0  0  0
   -3.1676    2.2042   -0.4511 C   0  0  0  0  0  0  0  0  0  0  0  0
   -2.3857    3.3457   -0.7234 C   0  0  0  0  0  0  0  0  0  0  0  0
   -1.2981    3.2261   -0.8286 H   0  0  0  0  0  0  0  0  0  0  0  0
   -3.0046    4.5947   -0.8582 C   0  0  0  0  0  0  0  0  0  0  0  0
   -2.3965    5.4874   -1.0723 H   0  0  0  0  0  0  0  0  0  0  0  0
   -4.3960    4.7139   -0.7221 C   0  0  0  0  0  0  0  0  0  0  0  0
   -4.8729    5.7019   -0.8272 H   0  0  0  0  0  0  0  0  0  0  0  0
   -5.1982    3.5835   -0.4530 C   0  0  0  0  0  0  0  0  0  0  0  0
   -4.5655    2.3355   -0.3219 C   0  0  0  0  0  0  0  0  0  0  0  0
   -5.1539    1.4310   -0.1090 H   0  0  0  0  0  0  0  0  0  0  0  0
   -6.6948    3.7185   -0.3157 C   0  0  0  0  0  0  0  0  0  0  0  0
   -7.1571    4.0634   -1.2646 H   0  0  0  0  0  0  0  0  0  0  0  0
   -6.9648    4.4638    0.4611 H   0  0  0  0  0  0  0  0  0  0  0  0
   -7.1665    2.7552   -0.0416 H   0  0  0  0  0  0  0  0  0  0  0  0
   -2.8819   -1.4519   -0.0762 C   0  0  1  0  0  3  0  0  0  0  0  0
   -3.5474   -3.8130    0.2629 C   0  0  0  0  0  0  0  0  0  0  0  0
   -4.2488   -4.2756    0.9874 H   0  0  0  0  0  0  0  0  0  0  0  0
   -2.5216   -3.9361    0.6702 H   0  0  0  0  0  0  0  0  0  0  0  0
   -3.6509   -4.5158   -1.0973 C   0  0  0  0  0  0  0  0  0  0  0  0
   -2.9578   -4.0101   -1.8021 H   0  0  0  0  0  0  0  0  0  0  0  0
   -4.6762   -4.3746   -1.5038 H   0  0  0  0  0  0  0  0  0  0  0  0
   -3.3165   -6.0033   -1.0020 C   0  0  0  0  0  0  0  0  0  0  0  0
   -3.4002   -6.5014   -1.9881 H   0  0  0  0  0  0  0  0  0  0  0  0
   -3.9974   -6.5314   -0.3015 H   0  0  0  0  0  0  0  0  0  0  0  0
   -2.2798   -6.1572   -0.6368 H   0  0  0  0  0  0  0  0  0  0  0  0
   -5.2371   -1.9615    0.3855 C   0  0  0  0  0  0  0  0  0  0  0  0
   -5.8700   -2.8505    0.1820 H   0  0  0  0  0  0  0  0  0  0  0  0
   -5.4649   -1.1966   -0.3821 H   0  0  0  0  0  0  0  0  0  0  0  0
   -5.5443   -1.3933    1.7770 C   0  0  0  0  0  0  0  0  0  0  0  0
   -4.9573   -0.4594    1.8974 H   0  0  0  0  0  0  0  0  0  0  0  0
   -6.6154   -1.0942    1.7839 H   0  0  0  0  0  0  0  0  0  0  0  0
   -5.2579   -2.3504    2.9336 C   0  0  0  0  0  0  0  0  0  0  0  0
   -5.5082   -1.8865    3.9085 H   0  0  0  0  0  0  0  0  0  0  0  0
   -4.1848   -2.6294    2.9696 H   0  0  0  0  0  0  0  0  0  0  0  0
   -5.8481   -3.2879    2.8505 H   0  0  0  0  0  0  0  0  0  0  0  0
  2  5  1  0  0  0  0
  3 20  1  0  0  0  0
  4 21  1  0  0  0  0
  4 31  1  0  0  0  0
  5  3  2  0  0  0  0
  6 14  1  0  0  0  0
  6  5  1  0  0  0  0
  7  6  2  0  0  0  0
  8  7  1  0  0  0  0
  9  7  1  0  0  0  0
  9 11  2  0  0  0  0
 10  9  1  0  0  0  0
 11 13  1  0  0  0  0
 12 11  1  0  0  0  0
 13 14  2  0  0  0  0
 13 16  1  0  0  0  0
 14 15  1  0  0  0  0
 16 19  1  0  0  0  0
 16 18  1  0  0  0  0
 17 16  1  0  0  0  0
 20  1  1  6  0  0  0
 20  4  1  0  0  0  0
 21 23  1  0  0  0  0
 21 22  1  0  0  0  0
 24 27  1  0  0  0  0
 24 21  1  0  0  0  0
 25 24  1  0  0  0  0
 26 24  1  0  0  0  0
 27 30  1  0  0  0  0
 27 29  1  0  0  0  0
 28 27  1  0  0  0  0
 31 34  1  0  0  0  0
 32 31  1  0  0  0  0
 33 31  1  0  0  0  0
 34 36  1  0  0  0  0
 34 35  1  0  0  0  0
 34 37  1  0  0  0  0
 37 39  1  0  0  0  0
 37 38  1  0  0  0  0
 40 37  1  0  0  0  0
M  CHG  1   2  -1
M  END
