1,9
 OpenBabel05122313063D

 14 13  0  0  1  0  0  0  0  0999 V2000
    1.8357    0.2600   -2.0259 S   0  0  0  0  0  1  0  0  0  0  0  0
    3.0887   -0.7215   -1.4204 C   0  0  1  0  0  3  0  0  0  0  0  0
    3.0624   -1.6015   -0.3277 C   0  0  0  0  0  0  0  0  0  0  0  0
    2.0062   -1.8669    0.5675 C   0  0  0  0  0  0  0  0  0  0  0  0
    2.2417   -2.9140    1.6803 C   0  0  0  0  0  0  0  0  0  0  0  0
    1.3960   -3.9531    1.5133 F   0  0  0  0  0  0  0  0  0  0  0  0
    3.5027   -3.4060    1.6786 F   0  0  0  0  0  0  0  0  0  0  0  0
    2.0100   -2.3737    2.8894 F   0  0  0  0  0  0  0  0  0  0  0  0
    0.8357   -1.3840    0.6243 O   0  5  0  0  0  0  0  0  0  0  0  0
    4.3848   -0.5998   -2.1900 C   0  0  0  0  0  0  0  0  0  0  0  0
    3.9909   -2.1562   -0.1328 H   0  0  0  0  0  0  0  0  0  0  0  0
    5.1783   -0.1941   -1.5284 H   0  0  0  0  0  0  0  0  0  0  0  0
    4.7208   -1.5996   -2.5339 H   0  0  0  0  0  0  0  0  0  0  0  0
    4.2874    0.0643   -3.0687 H   0  0  0  0  0  0  0  0  0  0  0  0
  2  1  1  6  0  0  0
  2  3  1  0  0  0  0
  3 11  1  0  0  0  0
  3  4  2  0  0  0  0
  4  9  1  0  0  0  0
  4  5  1  0  0  0  0
  5  8  1  0  0  0  0
  6  5  1  0  0  0  0
  7  5  1  0  0  0  0
 10 12  1  0  0  0  0
 10  2  1  0  0  0  0
 13 10  1  0  0  0  0
 14 10  1  0  0  0  0
M  CHG  1   9  -1
M  END
