1,2
 OpenBabel05122313063D

 27 29  0  0  1  0  0  0  0  0999 V2000
   -0.6345   -2.3386   -0.2378 S   0  0  0  0  0  1  0  0  0  0  0  0
   -0.8447    0.4673   -0.4939 O   0  5  0  0  0  0  0  0  0  0  0  0
   -4.3996    0.1055    0.0451 O   0  0  0  0  0  0  0  0  0  0  0  0
   -3.6246   -3.4962    0.2055 C   0  0  0  0  0  0  0  0  0  0  0  0
   -2.7542   -4.1665    0.1466 H   0  0  0  0  0  0  0  0  0  0  0  0
   -4.9071   -3.9975    0.4052 C   0  0  0  0  0  0  0  0  0  0  0  0
   -5.0621   -5.0818    0.5065 H   0  0  0  0  0  0  0  0  0  0  0  0
   -6.0144   -3.1187    0.4783 C   0  0  0  0  0  0  0  0  0  0  0  0
   -7.0262   -3.5200    0.6371 H   0  0  0  0  0  0  0  0  0  0  0  0
   -5.8316   -1.7420    0.3521 C   0  0  0  0  0  0  0  0  0  0  0  0
   -6.6708   -1.0344    0.4087 H   0  0  0  0  0  0  0  0  0  0  0  0
   -4.5325   -1.2377    0.1490 C   0  0  2  0  0  3  0  0  0  0  0  0
   -3.4039   -2.0993    0.0690 C   0  0  0  0  0  0  0  0  0  0  0  0
   -2.1197   -1.4902   -0.1457 C   0  0  0  0  0  0  0  0  0  0  0  0
   -2.0198   -0.0672   -0.2873 C   0  0  0  0  0  0  0  0  0  0  0  0
   -3.1917    0.7223   -0.1501 C   0  0  0  0  0  0  0  0  0  0  0  0
   -3.2807    2.1742   -0.1794 C   0  0  0  0  0  0  0  0  0  0  0  0
   -2.1175    2.9945   -0.1947 C   0  0  0  0  0  0  0  0  0  0  0  0
   -1.1320    2.5130   -0.1769 H   0  0  0  0  0  0  0  0  0  0  0  0
   -2.2367    4.3885   -0.2181 C   0  0  0  0  0  0  0  0  0  0  0  0
   -1.3234    5.0031   -0.2263 H   0  0  0  0  0  0  0  0  0  0  0  0
   -3.4996    5.0031   -0.2266 C   0  0  0  0  0  0  0  0  0  0  0  0
   -3.5848    6.1001   -0.2480 H   0  0  0  0  0  0  0  0  0  0  0  0
   -4.6557    4.2028   -0.2030 C   0  0  0  0  0  0  0  0  0  0  0  0
   -5.6511    4.6728   -0.2058 H   0  0  0  0  0  0  0  0  0  0  0  0
   -4.5531    2.8097   -0.1767 C   0  0  0  0  0  0  0  0  0  0  0  0
   -5.4607    2.1916   -0.1585 H   0  0  0  0  0  0  0  0  0  0  0  0
  1 14  1  0  0  0  0
  2 15  1  0  0  0  0
  4  6  2  0  0  0  0
  5  4  1  0  0  0  0
  6  8  1  0  0  0  0
  6  7  1  0  0  0  0
  8  9  1  0  0  0  0
 10 11  1  0  0  0  0
 10  8  2  0  0  0  0
 12  3  1  1  0  0  0
 12 10  1  0  0  0  0
 13 12  1  0  0  0  0
 13  4  1  0  0  0  0
 14 13  2  0  0  0  0
 15 16  2  0  0  0  0
 15 14  1  0  0  0  0
 16  3  1  0  0  0  0
 17 26  1  0  0  0  0
 17 16  1  0  0  0  0
 18 17  2  0  0  0  0
 18 19  1  0  0  0  0
 20 18  1  0  0  0  0
 21 20  1  0  0  0  0
 22 20  2  0  0  0  0
 22 24  1  0  0  0  0
 23 22  1  0  0  0  0
 24 26  2  0  0  0  0
 25 24  1  0  0  0  0
 26 27  1  0  0  0  0
M  CHG  1   2  -1
M  END
