1,2
 OpenBabel05122313063D

 34 35  0  0  0  0  0  0  0  0999 V2000
    0.2478    1.3259   -0.9768 S   0  0  0  0  0  1  0  0  0  0  0  0
   -0.2588    0.0958    1.4620 O   0  0  0  0  0  1  0  0  0  0  0  0
   -1.0892    1.9574    0.1897 C   0  0  0  0  0  0  0  0  0  0  0  0
   -0.5992    1.4687    1.6258 C   0  0  0  0  0  0  0  0  0  0  0  0
   -1.1891    3.4863    0.1550 C   0  0  0  0  0  0  0  0  0  0  0  0
   -0.1570    4.3003   -0.3494 C   0  0  0  0  0  0  0  0  0  0  0  0
    0.7268    3.8147   -0.7901 H   0  0  0  0  0  0  0  0  0  0  0  0
   -0.2501    5.6998   -0.2998 C   0  0  0  0  0  0  0  0  0  0  0  0
    0.5695    6.3129   -0.7052 H   0  0  0  0  0  0  0  0  0  0  0  0
   -1.3798    6.3158    0.2591 C   0  0  0  0  0  0  0  0  0  0  0  0
   -1.4543    7.4133    0.2972 H   0  0  0  0  0  0  0  0  0  0  0  0
   -2.4206    5.5168    0.7594 C   0  0  0  0  0  0  0  0  0  0  0  0
   -3.3188    5.9851    1.1906 H   0  0  0  0  0  0  0  0  0  0  0  0
   -2.3275    4.1192    0.7028 C   0  0  0  0  0  0  0  0  0  0  0  0
   -3.1610    3.5052    1.0740 H   0  0  0  0  0  0  0  0  0  0  0  0
   -2.4060    1.3269   -0.2895 C   0  0  0  0  0  0  0  0  0  0  0  0
   -2.9838    0.1678    0.2735 C   0  0  0  0  0  0  0  0  0  0  0  0
   -2.4696   -0.3569    1.0864 H   0  0  0  0  0  0  0  0  0  0  0  0
   -4.1917   -0.3533   -0.2191 C   0  0  0  0  0  0  0  0  0  0  0  0
   -4.6133   -1.2575    0.2459 H   0  0  0  0  0  0  0  0  0  0  0  0
   -4.8436    0.2544   -1.3021 C   0  0  0  0  0  0  0  0  0  0  0  0
   -5.7905   -0.1548   -1.6860 H   0  0  0  0  0  0  0  0  0  0  0  0
   -4.2633    1.3878   -1.8965 C   0  0  0  0  0  0  0  0  0  0  0  0
   -4.7493    1.8712   -2.7581 H   0  0  0  0  0  0  0  0  0  0  0  0
   -3.0653    1.9126   -1.3954 C   0  0  0  0  0  0  0  0  0  0  0  0
   -2.6210    2.7989   -1.8716 H   0  0  0  0  0  0  0  0  0  0  0  0
   -1.6592    1.6123    2.7346 C   0  0  0  0  0  0  0  0  0  0  0  0
   -1.2801    1.1098    3.6461 H   0  0  0  0  0  0  0  0  0  0  0  0
   -2.6329    1.1650    2.4718 H   0  0  0  0  0  0  0  0  0  0  0  0
   -1.8196    2.6804    2.9748 H   0  0  0  0  0  0  0  0  0  0  0  0
    0.6415    2.2599    2.0779 C   0  0  0  0  0  0  0  0  0  0  0  0
    0.9782    1.8734    3.0578 H   0  0  0  0  0  0  0  0  0  0  0  0
    0.4028    3.3329    2.1968 H   0  0  0  0  0  0  0  0  0  0  0  0
    1.4596    2.1542    1.3414 H   0  0  0  0  0  0  0  0  0  0  0  0
  1  3  1  0  0  0  0
  2  4  1  0  0  0  0
  3  4  1  0  0  0  0
  4 31  1  0  0  0  0
  4 27  1  0  0  0  0
  5  3  1  0  0  0  0
  5 14  1  0  0  0  0
  6  8  1  0  0  0  0
  6  5  2  0  0  0  0
  7  6  1  0  0  0  0
  8 10  2  0  0  0  0
  9  8  1  0  0  0  0
 10 11  1  0  0  0  0
 10 12  1  0  0  0  0
 12 13  1  0  0  0  0
 14 12  2  0  0  0  0
 14 15  1  0  0  0  0
 16  3  1  0  0  0  0
 16 17  1  0  0  0  0
 17 18  1  0  0  0  0
 19 20  1  0  0  0  0
 19 17  2  0  0  0  0
 21 19  1  0  0  0  0
 22 21  1  0  0  0  0
 23 25  1  0  0  0  0
 23 21  2  0  0  0  0
 24 23  1  0  0  0  0
 25 16  2  0  0  0  0
 26 25  1  0  0  0  0
 27 30  1  0  0  0  0
 27 28  1  0  0  0  0
 29 27  1  0  0  0  0
 31 33  1  0  0  0  0
 31 32  1  0  0  0  0
 34 31  1  0  0  0  0
M  END
