1,3
 OpenBabel05122313063D

 13 13  0  0  0  0  0  0  0  0999 V2000
    0.5074   -1.2310   -1.8848 S   0  0  0  0  0  1  0  0  0  0  0  0
    5.1111   -1.2116   -0.2106 S   0  0  0  0  0  0  0  0  0  0  0  0
    1.3944   -0.0634    0.6576 O   0  5  0  0  0  0  0  0  0  0  0  0
    5.1388    0.2119    2.2555 O   0  0  0  0  0  0  0  0  0  0  0  0
    2.3811   -0.5851   -0.0093 C   0  0  0  0  0  0  0  0  0  0  0  0
    2.1255   -1.2419   -1.2946 C   0  0  0  0  0  0  0  0  0  0  0  0
    3.1611   -1.8681   -2.0323 C   0  0  0  0  0  0  0  0  0  0  0  0
    2.8921   -2.3562   -2.9822 H   0  0  0  0  0  0  0  0  0  0  0  0
    4.4869   -1.9056   -1.6357 C   0  0  0  0  0  3  0  0  0  0  0  0
    5.2487   -2.4095   -2.2504 H   0  0  0  0  0  0  0  0  0  0  0  0
    3.6958   -0.5220    0.5231 C   0  0  0  0  0  0  0  0  0  0  0  0
    4.0074    0.1615    1.7891 C   0  0  0  0  0  0  0  0  0  0  0  0
    3.1219    0.6376    2.2909 H   0  0  0  0  0  0  0  0  0  0  0  0
  1  6  1  0  0  0  0
  2 11  1  0  0  0  0
  5 11  2  0  0  0  0
  5  3  1  0  0  0  0
  6  5  1  0  0  0  0
  7  9  1  0  0  0  0
  7  6  2  0  0  0  0
  8  7  1  0  0  0  0
  9  2  1  0  0  0  0
 10  9  1  0  0  0  0
 11 12  1  0  0  0  0
 12  4  2  0  0  0  0
 12 13  1  0  0  0  0
M  CHG  1   3  -1
M  END
