1,2
 OpenBabel05122313063D

 36 35  0  0  1  0  0  0  0  0999 V2000
    1.1195   -2.2357   -0.3687 S   0  0  0  0  0  1  0  0  0  0  0  0
    1.2948    0.5848   -1.2351 O   0  5  0  0  0  0  0  0  0  0  0  0
    3.5812   -2.4267    0.6404 N   0  0  0  0  0  0  0  0  0  0  0  0
    3.2602   -0.4755   -0.5170 N   0  0  0  0  0  0  0  0  0  0  0  0
    2.7330   -1.6197   -0.0610 C   0  0  1  0  0  3  0  0  0  0  0  0
    4.9865   -2.0404    0.8118 C   0  0  0  0  0  0  0  0  0  0  0  0
    5.3061   -1.5226   -0.1122 H   0  0  0  0  0  0  0  0  0  0  0  0
    5.5750   -2.9764    0.9082 H   0  0  0  0  0  0  0  0  0  0  0  0
    5.2065   -1.1285    2.0181 C   0  0  0  0  0  0  0  0  0  0  0  0
    4.6589   -0.1764    1.8748 H   0  0  0  0  0  0  0  0  0  0  0  0
    6.2843   -0.8968    2.1366 H   0  0  0  0  0  0  0  0  0  0  0  0
    4.8538   -1.6000    2.9582 H   0  0  0  0  0  0  0  0  0  0  0  0
    3.1496   -3.6778    1.2603 C   0  0  0  0  0  0  0  0  0  0  0  0
    2.0838   -3.5609    1.5453 H   0  0  0  0  0  0  0  0  0  0  0  0
    3.7364   -3.8031    2.1947 H   0  0  0  0  0  0  0  0  0  0  0  0
    3.3164   -4.8947    0.3493 C   0  0  0  0  0  0  0  0  0  0  0  0
    2.6894   -4.7850   -0.5575 H   0  0  0  0  0  0  0  0  0  0  0  0
    3.0022   -5.8173    0.8773 H   0  0  0  0  0  0  0  0  0  0  0  0
    4.3713   -5.0248    0.0320 H   0  0  0  0  0  0  0  0  0  0  0  0
    2.5629    0.4721   -1.1508 C   0  0  0  0  0  0  0  0  0  0  0  0
    3.3665    1.5884   -1.7859 C   0  0  0  0  0  0  0  0  0  0  0  0
    3.0575    1.6825   -2.8486 H   0  0  0  0  0  0  0  0  0  0  0  0
    4.4320    1.2896   -1.7592 H   0  0  0  0  0  0  0  0  0  0  0  0
    3.1972    2.9773   -1.0940 C   0  0  0  0  0  0  0  0  0  0  0  0
    3.3672    2.8326    0.4299 C   0  0  0  0  0  0  0  0  0  0  0  0
    2.5574    2.2168    0.8706 H   0  0  0  0  0  0  0  0  0  0  0  0
    3.3350    3.8268    0.9210 H   0  0  0  0  0  0  0  0  0  0  0  0
    4.3358    2.3549    0.6851 H   0  0  0  0  0  0  0  0  0  0  0  0
    4.2961    3.9039   -1.6454 C   0  0  0  0  0  0  0  0  0  0  0  0
    5.3088    3.5234   -1.3973 H   0  0  0  0  0  0  0  0  0  0  0  0
    4.2010    4.9231   -1.2170 H   0  0  0  0  0  0  0  0  0  0  0  0
    4.2274    3.9943   -2.7494 H   0  0  0  0  0  0  0  0  0  0  0  0
    1.8160    3.5796   -1.4120 C   0  0  0  0  0  0  0  0  0  0  0  0
    1.7040    3.7485   -2.5034 H   0  0  0  0  0  0  0  0  0  0  0  0
    1.6982    4.5602   -0.9048 H   0  0  0  0  0  0  0  0  0  0  0  0
    0.9965    2.9089   -1.0911 H   0  0  0  0  0  0  0  0  0  0  0  0
  2 20  1  0  0  0  0
  3  6  1  0  0  0  0
  3 13  1  0  0  0  0
  4  5  1  0  0  0  0
  5  1  1  6  0  0  0
  5  3  1  0  0  0  0
  6  8  1  0  0  0  0
  6  9  1  0  0  0  0
  7  6  1  0  0  0  0
  9 11  1  0  0  0  0
  9 12  1  0  0  0  0
 10  9  1  0  0  0  0
 13 14  1  0  0  0  0
 13 15  1  0  0  0  0
 16 18  1  0  0  0  0
 16 13  1  0  0  0  0
 17 16  1  0  0  0  0
 19 16  1  0  0  0  0
 20  4  2  0  0  0  0
 21 23  1  0  0  0  0
 21 20  1  0  0  0  0
 21 24  1  0  0  0  0
 22 21  1  0  0  0  0
 24 25  1  0  0  0  0
 25 28  1  0  0  0  0
 25 26  1  0  0  0  0
 25 27  1  0  0  0  0
 29 30  1  0  0  0  0
 29 31  1  0  0  0  0
 29 24  1  0  0  0  0
 32 29  1  0  0  0  0
 33 24  1  0  0  0  0
 33 36  1  0  0  0  0
 33 35  1  0  0  0  0
 34 33  1  0  0  0  0
M  CHG  1   2  -1
M  END
