2,3
 OpenBabel05122313063D

 25 25  0  0  1  0  0  0  0  0999 V2000
   -2.1525   -0.1645   -2.9664 Cl  0  0  0  0  0  0  0  0  0  0  0  0
   -0.7511    2.1293    2.3855 S   0  0  0  0  0  1  0  0  0  0  0  0
   -1.3016    0.8432   -0.4102 O   0  5  0  0  0  0  0  0  0  0  0  0
   -1.3798    3.1633   -0.1014 N   0  0  0  0  0  0  0  0  0  0  0  0
   -2.0046    4.3860    1.7461 N   0  0  0  0  0  0  0  0  0  0  0  0
   -1.2322    2.0463   -0.8140 C   0  0  0  0  0  0  0  0  0  0  0  0
   -0.9217    2.2280   -2.2719 C   0  0  0  0  0  0  0  0  0  0  0  0
   -0.1945    3.3783   -2.6514 C   0  0  0  0  0  0  0  0  0  0  0  0
    0.0071    4.1221   -1.8672 H   0  0  0  0  0  0  0  0  0  0  0  0
    0.2807    3.5551   -3.9549 C   0  0  0  0  0  0  0  0  0  0  0  0
    0.8596    4.4546   -4.2123 H   0  0  0  0  0  0  0  0  0  0  0  0
    0.0167    2.5752   -4.9256 C   0  0  0  0  0  0  0  0  0  0  0  0
    0.3837    2.6950   -5.9563 H   0  0  0  0  0  0  0  0  0  0  0  0
   -0.7271    1.4382   -4.5858 C   0  0  0  0  0  0  0  0  0  0  0  0
   -0.9591    0.6680   -5.3345 H   0  0  0  0  0  0  0  0  0  0  0  0
   -1.1944    1.2601   -3.2714 C   0  0  0  0  0  0  0  0  0  0  0  0
   -1.4362    3.2495    1.2344 C   0  0  2  0  0  3  0  0  0  0  0  0
   -2.0984    4.6233    3.1746 C   0  0  0  0  0  0  0  0  0  0  0  0
   -2.2430    3.6620    3.7053 H   0  0  0  0  0  0  0  0  0  0  0  0
   -2.9607    5.2893    3.3746 H   0  0  0  0  0  0  0  0  0  0  0  0
   -1.1790    5.1028    3.5798 H   0  0  0  0  0  0  0  0  0  0  0  0
   -2.4449    5.4691    0.8806 C   0  0  0  0  0  0  0  0  0  0  0  0
   -2.2356    5.1898   -0.1662 H   0  0  0  0  0  0  0  0  0  0  0  0
   -1.9091    6.4095    1.1346 H   0  0  0  0  0  0  0  0  0  0  0  0
   -3.5352    5.6468    1.0032 H   0  0  0  0  0  0  0  0  0  0  0  0
  4 17  1  0  0  0  0
  5 18  1  0  0  0  0
  6  3  1  0  0  0  0
  6  4  2  0  0  0  0
  7  6  1  0  0  0  0
  8  7  1  0  0  0  0
  8  9  1  0  0  0  0
 10  8  2  0  0  0  0
 11 10  1  0  0  0  0
 12 14  2  0  0  0  0
 12 10  1  0  0  0  0
 13 12  1  0  0  0  0
 14 16  1  0  0  0  0
 15 14  1  0  0  0  0
 16  1  1  0  0  0  0
 16  7  2  0  0  0  0
 17  5  1  0  0  0  0
 17  2  1  1  0  0  0
 18 20  1  0  0  0  0
 18 21  1  0  0  0  0
 18 19  1  0  0  0  0
 22 25  1  0  0  0  0
 22 24  1  0  0  0  0
 22  5  1  0  0  0  0
 23 22  1  0  0  0  0
M  CHG  1   3  -1
M  END
