17,19
 OpenBabel05122313063D

 25 26  0  0  1  0  0  0  0  0999 V2000
   -3.8274    0.3185   -1.2320 N   0  0  0  0  0  0  0  0  0  0  0  0
   -4.1959   -1.1151   -1.1972 C   0  0  0  0  0  0  0  0  0  0  0  0
   -3.2448   -1.6845   -1.2285 H   0  0  0  0  0  0  0  0  0  0  0  0
   -4.7593   -1.3342   -2.1246 H   0  0  0  0  0  0  0  0  0  0  0  0
   -5.0161   -1.4755    0.0211 C   0  0  0  0  0  0  0  0  0  0  0  0
   -6.3559   -1.8837   -0.1181 C   0  0  0  0  0  0  0  0  0  0  0  0
   -6.8006   -1.9557   -1.1239 H   0  0  0  0  0  0  0  0  0  0  0  0
   -7.1260   -2.2044    1.0111 C   0  0  0  0  0  0  0  0  0  0  0  0
   -8.1716   -2.5251    0.8880 H   0  0  0  0  0  0  0  0  0  0  0  0
   -6.5623   -2.1121    2.2921 C   0  0  0  0  0  0  0  0  0  0  0  0
   -7.1644   -2.3607    3.1793 H   0  0  0  0  0  0  0  0  0  0  0  0
   -5.2259   -1.7029    2.4389 C   0  0  0  0  0  0  0  0  0  0  0  0
   -4.7783   -1.6316    3.4419 H   0  0  0  0  0  0  0  0  0  0  0  0
   -4.4541   -1.3890    1.3124 C   0  0  0  0  0  0  0  0  0  0  0  0
   -3.4037   -1.0757    1.4229 H   0  0  0  0  0  0  0  0  0  0  0  0
   -2.5733    0.7138   -0.8561 C   0  0  2  0  0  3  0  0  0  0  0  0
   -1.3390   -0.3789   -0.3178 S   0  0  0  0  0  1  0  0  0  0  0  0
   -2.2148    2.1176   -0.8863 C   0  0  0  0  0  0  0  0  0  0  0  0
   -1.0081    2.4578   -0.5550 O   0  5  0  0  0  0  0  0  0  0  0  0
   -3.2122    3.0399   -1.2788 C   0  0  0  0  0  0  0  0  0  0  0  0
   -2.9584    4.1093   -1.2941 H   0  0  0  0  0  0  0  0  0  0  0  0
   -4.4925    2.5794   -1.6392 C   0  0  0  0  0  0  0  0  0  0  0  0
   -5.2754    3.2861   -1.9480 H   0  0  0  0  0  0  0  0  0  0  0  0
   -4.7888    1.2259   -1.6137 C   0  0  0  0  0  0  0  0  0  0  0  0
   -5.7689    0.8056   -1.8698 H   0  0  0  0  0  0  0  0  0  0  0  0
  1  2  1  0  0  0  0
  1 16  1  0  0  0  0
  2  5  1  0  0  0  0
  3  2  1  0  0  0  0
  4  2  1  0  0  0  0
  5 14  1  0  0  0  0
  6  5  2  0  0  0  0
  6  8  1  0  0  0  0
  7  6  1  0  0  0  0
  8 10  2  0  0  0  0
  9  8  1  0  0  0  0
 10 12  1  0  0  0  0
 10 11  1  0  0  0  0
 12 13  1  0  0  0  0
 14 15  1  0  0  0  0
 14 12  2  0  0  0  0
 16 17  1  1  0  0  0
 18 16  1  0  0  0  0
 18 19  1  0  0  0  0
 20 18  2  0  0  0  0
 21 20  1  0  0  0  0
 22 24  2  0  0  0  0
 22 20  1  0  0  0  0
 23 22  1  0  0  0  0
 24  1  1  0  0  0  0
 25 24  1  0  0  0  0
M  CHG  1  19  -1
M  END
