1,7
 OpenBabel05122313063D

 22 22  0  0  1  0  0  0  0  0999 V2000
    1.4578   -2.7877   -0.2116 S   0  0  0  0  0  1  0  0  0  0  0  0
    4.4124   -3.2452   -0.2264 S   0  0  0  0  0  0  0  0  0  0  0  0
    3.0419   -2.1337   -0.1360 C   0  0  1  0  0  3  0  0  0  0  0  0
    3.4086   -0.7854   -0.0250 C   0  0  0  0  0  0  0  0  0  0  0  0
    4.4830   -0.5652    0.0500 H   0  0  0  0  0  0  0  0  0  0  0  0
    2.5045    0.3022    0.0141 C   0  0  0  0  0  0  0  0  0  0  0  0
    1.2268    0.2037   -0.0112 O   0  5  0  0  0  0  0  0  0  0  0  0
    3.6540   -4.8906   -0.2869 C   0  0  0  0  0  0  0  0  0  0  0  0
    3.0274   -5.0719    0.6076 H   0  0  0  0  0  0  0  0  0  0  0  0
    4.5032   -5.6004   -0.3042 H   0  0  0  0  0  0  0  0  0  0  0  0
    3.0415   -5.0152   -1.2005 H   0  0  0  0  0  0  0  0  0  0  0  0
    3.0108    1.7033    0.1146 C   0  0  0  0  0  0  0  0  0  0  0  0
    4.3447    2.0689   -0.1722 C   0  0  0  0  0  0  0  0  0  0  0  0
    5.0693    1.3122   -0.5052 H   0  0  0  0  0  0  0  0  0  0  0  0
    4.7633    3.4006   -0.0705 C   0  0  0  0  0  0  0  0  0  0  0  0
    5.7958    3.6997   -0.3000 H   0  0  0  0  0  0  0  0  0  0  0  0
    3.8375    4.3750    0.3254 C   0  0  0  0  0  0  0  0  0  0  0  0
    2.5059    4.0467    0.6145 C   0  0  0  0  0  0  0  0  0  0  0  0
    1.8097    4.8391    0.9249 H   0  0  0  0  0  0  0  0  0  0  0  0
    2.1003    2.7139    0.5031 C   0  0  0  0  0  0  0  0  0  0  0  0
    1.0637    2.4197    0.7212 H   0  0  0  0  0  0  0  0  0  0  0  0
    4.2362    5.6545    0.4266 F   0  0  0  0  0  0  0  0  0  0  0  0
  2  3  1  0  0  0  0
  3  1  1  6  0  0  0
  3  4  1  0  0  0  0
  4  6  2  0  0  0  0
  4  5  1  0  0  0  0
  6 12  1  0  0  0  0
  7  6  1  0  0  0  0
  8  2  1  0  0  0  0
  8  9  1  0  0  0  0
 10  8  1  0  0  0  0
 11  8  1  0  0  0  0
 12 20  1  0  0  0  0
 13 15  1  0  0  0  0
 13 12  2  0  0  0  0
 14 13  1  0  0  0  0
 15 17  2  0  0  0  0
 16 15  1  0  0  0  0
 17 22  1  0  0  0  0
 17 18  1  0  0  0  0
 18 19  1  0  0  0  0
 20 18  2  0  0  0  0
 20 21  1  0  0  0  0
M  CHG  1   7  -1
M  END
