2,3
 OpenBabel05122313063D

 31 31  0  0  1  0  0  0  0  0999 V2000
    1.6100    5.3655   -0.9783 Cl  0  0  0  0  0  0  0  0  0  0  0  0
    1.4750   -2.7254   -0.2143 S   0  0  0  0  0  1  0  0  0  0  0  0
    1.2293    0.2330   -0.1664 O   0  5  0  0  0  0  0  0  0  0  0  0
    3.3792   -0.7077   -0.0064 N   0  0  0  0  0  0  0  0  0  0  0  0
    4.0806   -2.8670    0.2983 N   0  0  0  0  0  0  0  0  0  0  0  0
    3.0494   -2.0033    0.0589 C   0  0  2  0  0  3  0  0  0  0  0  0
    3.8826   -4.3050    0.4700 C   0  0  0  0  0  0  0  0  0  0  0  0
    2.8856   -4.4574    0.9321 H   0  0  0  0  0  0  0  0  0  0  0  0
    4.6427   -4.6575    1.1987 H   0  0  0  0  0  0  0  0  0  0  0  0
    3.9816   -5.0914   -0.8383 C   0  0  0  0  0  0  0  0  0  0  0  0
    3.8479   -6.1750   -0.6473 H   0  0  0  0  0  0  0  0  0  0  0  0
    4.9684   -4.9491   -1.3242 H   0  0  0  0  0  0  0  0  0  0  0  0
    3.1931   -4.7648   -1.5445 H   0  0  0  0  0  0  0  0  0  0  0  0
    5.4560   -2.3642    0.3917 C   0  0  0  0  0  0  0  0  0  0  0  0
    5.5640   -1.5353   -0.3329 H   0  0  0  0  0  0  0  0  0  0  0  0
    6.1260   -3.1876    0.0682 H   0  0  0  0  0  0  0  0  0  0  0  0
    5.8208   -1.8845    1.7957 C   0  0  0  0  0  0  0  0  0  0  0  0
    6.8790   -1.5550    1.8296 H   0  0  0  0  0  0  0  0  0  0  0  0
    5.6903   -2.6886    2.5484 H   0  0  0  0  0  0  0  0  0  0  0  0
    5.1788   -1.0287    2.0817 H   0  0  0  0  0  0  0  0  0  0  0  0
    2.5046    0.2886   -0.1715 C   0  0  0  0  0  0  0  0  0  0  0  0
    3.0759    1.6610   -0.3502 C   0  0  0  0  0  0  0  0  0  0  0  0
    4.4651    1.8931   -0.2939 C   0  0  0  0  0  0  0  0  0  0  0  0
    5.1344    1.0400   -0.1195 H   0  0  0  0  0  0  0  0  0  0  0  0
    4.9629    3.1932   -0.4517 C   0  0  0  0  0  0  0  0  0  0  0  0
    6.0471    3.3765   -0.4062 H   0  0  0  0  0  0  0  0  0  0  0  0
    4.0918    4.2730   -0.6649 C   0  0  0  0  0  0  0  0  0  0  0  0
    4.4715    5.2971   -0.7871 H   0  0  0  0  0  0  0  0  0  0  0  0
    2.7075    4.0319   -0.7205 C   0  0  0  0  0  0  0  0  0  0  0  0
    2.1933    2.7392   -0.5671 C   0  0  0  0  0  0  0  0  0  0  0  0
    1.1133    2.5472   -0.6153 H   0  0  0  0  0  0  0  0  0  0  0  0
  1 29  1  0  0  0  0
  4  6  1  0  0  0  0
  5 14  1  0  0  0  0
  5  7  1  0  0  0  0
  6  2  1  6  0  0  0
  6  5  1  0  0  0  0
  7  8  1  0  0  0  0
  7  9  1  0  0  0  0
 10 11  1  0  0  0  0
 10  7  1  0  0  0  0
 12 10  1  0  0  0  0
 13 10  1  0  0  0  0
 14 17  1  0  0  0  0
 15 14  1  0  0  0  0
 16 14  1  0  0  0  0
 17 18  1  0  0  0  0
 17 20  1  0  0  0  0
 17 19  1  0  0  0  0
 21  3  1  0  0  0  0
 21  4  2  0  0  0  0
 22 23  1  0  0  0  0
 22 21  1  0  0  0  0
 23 24  1  0  0  0  0
 25 26  1  0  0  0  0
 25 23  2  0  0  0  0
 27 25  1  0  0  0  0
 28 27  1  0  0  0  0
 29 27  2  0  0  0  0
 29 30  1  0  0  0  0
 30 22  2  0  0  0  0
 31 30  1  0  0  0  0
M  CHG  1   3  -1
M  END
