1,12
 OpenBabel05122313063D

 12 12  0  0  1  0  0  0  0  0999 V2000
   -0.7043   -1.5220   -0.9176 O   0  5  0  0  0  0  0  0  0  0  0  0
   -0.1841   -2.6745   -0.6638 C   0  0  0  0  0  0  0  0  0  0  0  0
    0.8649   -2.8155    0.3514 C   0  0  2  0  0  3  0  0  0  0  0  0
    1.3731   -4.0628    0.5707 N   0  0  0  0  0  0  0  0  0  0  0  0
    2.1045   -4.1184    1.2868 H   0  0  0  0  0  0  0  0  0  0  0  0
    0.9893   -5.2065   -0.0762 C   0  0  0  0  0  0  0  0  0  0  0  0
    1.4978   -6.1328    0.2170 H   0  0  0  0  0  0  0  0  0  0  0  0
    0.0000   -5.1118   -1.0413 C   0  0  0  0  0  0  0  0  0  0  0  0
   -0.5798   -3.8618   -1.3316 C   0  0  0  0  0  0  0  0  0  0  0  0
   -1.3659   -3.7682   -2.0949 H   0  0  0  0  0  0  0  0  0  0  0  0
   -0.3231   -6.0177   -1.5728 H   0  0  0  0  0  0  0  0  0  0  0  0
    1.4623   -1.4814    1.2584 S   0  0  0  0  0  1  0  0  0  0  0  0
  1  2  1  0  0  0  0
  2  3  1  0  0  0  0
  3  4  1  0  0  0  0
  3 12  1  1  0  0  0
  4  5  1  0  0  0  0
  6  7  1  0  0  0  0
  6  4  1  0  0  0  0
  8  6  2  0  0  0  0
  9  8  1  0  0  0  0
  9  2  2  0  0  0  0
 10  9  1  0  0  0  0
 11  8  1  0  0  0  0
M  CHG  1   1  -1
M  END
