1,3
 OpenBabel05122313063D

 31 31  0  0  1  0  0  0  0  0999 V2000
    1.5900   -2.3820   -0.0485 S   0  0  0  0  0  1  0  0  0  0  0  0
    5.0582    5.7630   -1.0108 F   0  0  0  0  0  0  0  0  0  0  0  0
    1.3474    0.7958   -0.0851 O   0  5  0  0  0  0  0  0  0  0  0  0
    3.4424   -0.2892    0.0261 N   0  0  0  0  0  0  0  0  0  0  0  0
    4.1960   -2.4098    0.4310 N   0  0  0  0  0  0  0  0  0  0  0  0
    2.6271    0.7541   -0.1331 C   0  0  0  0  0  0  0  0  0  0  0  0
    3.2843    2.0770   -0.3637 C   0  0  0  0  0  0  0  0  0  0  0  0
    2.4917    3.2168   -0.6229 C   0  0  0  0  0  0  0  0  0  0  0  0
    1.3990    3.1004   -0.6511 H   0  0  0  0  0  0  0  0  0  0  0  0
    3.0845    4.4642   -0.8430 C   0  0  0  0  0  0  0  0  0  0  0  0
    2.4852    5.3624   -1.0497 H   0  0  0  0  0  0  0  0  0  0  0  0
    4.4819    4.5664   -0.8005 C   0  0  0  0  0  0  0  0  0  0  0  0
    5.2943    3.4533   -0.5445 C   0  0  0  0  0  0  0  0  0  0  0  0
    6.3862    3.5787   -0.5181 H   0  0  0  0  0  0  0  0  0  0  0  0
    4.6884    2.2113   -0.3276 C   0  0  0  0  0  0  0  0  0  0  0  0
    5.2949    1.3191   -0.1208 H   0  0  0  0  0  0  0  0  0  0  0  0
    3.1389   -1.5840    0.1574 C   0  0  2  0  0  3  0  0  0  0  0  0
    5.5592   -1.8702    0.4810 C   0  0  0  0  0  0  0  0  0  0  0  0
    5.6427   -1.0854   -0.2944 H   0  0  0  0  0  0  0  0  0  0  0  0
    6.2454   -2.6959    0.2003 H   0  0  0  0  0  0  0  0  0  0  0  0
    5.9268   -1.2997    1.8499 C   0  0  0  0  0  0  0  0  0  0  0  0
    6.9767   -0.9431    1.8521 H   0  0  0  0  0  0  0  0  0  0  0  0
    5.8242   -2.0615    2.6494 H   0  0  0  0  0  0  0  0  0  0  0  0
    5.2664   -0.4451    2.0947 H   0  0  0  0  0  0  0  0  0  0  0  0
    4.0391   -3.8421    0.6778 C   0  0  0  0  0  0  0  0  0  0  0  0
    4.8199   -4.1367    1.4101 H   0  0  0  0  0  0  0  0  0  0  0  0
    3.0561   -3.9992    1.1678 H   0  0  0  0  0  0  0  0  0  0  0  0
    4.1396   -4.6924   -0.5900 C   0  0  0  0  0  0  0  0  0  0  0  0
    4.0341   -5.7674   -0.3413 H   0  0  0  0  0  0  0  0  0  0  0  0
    5.1169   -4.5528   -1.0954 H   0  0  0  0  0  0  0  0  0  0  0  0
    3.3355   -4.4220   -1.3023 H   0  0  0  0  0  0  0  0  0  0  0  0
  2 12  1  0  0  0  0
  4 17  1  0  0  0  0
  5 18  1  0  0  0  0
  5 25  1  0  0  0  0
  6  3  1  0  0  0  0
  6  4  2  0  0  0  0
  7 15  1  0  0  0  0
  7  6  1  0  0  0  0
  8  7  2  0  0  0  0
  9  8  1  0  0  0  0
 10 12  2  0  0  0  0
 10  8  1  0  0  0  0
 11 10  1  0  0  0  0
 12 13  1  0  0  0  0
 13 14  1  0  0  0  0
 13 15  2  0  0  0  0
 15 16  1  0  0  0  0
 17  1  1  6  0  0  0
 17  5  1  0  0  0  0
 18 21  1  0  0  0  0
 19 18  1  0  0  0  0
 20 18  1  0  0  0  0
 21 22  1  0  0  0  0
 21 24  1  0  0  0  0
 21 23  1  0  0  0  0
 25 27  1  0  0  0  0
 25 26  1  0  0  0  0
 28 29  1  0  0  0  0
 28 25  1  0  0  0  0
 30 28  1  0  0  0  0
 31 28  1  0  0  0  0
M  CHG  1   3  -1
M  END
