1,13
 OpenBabel05122313063D

 18 18  0  0  1  0  0  0  0  0999 V2000
   -1.3133   -0.2966   -1.8495 S   0  0  0  0  0  1  0  0  0  0  0  0
   -2.6187   -1.2696   -1.2140 C   0  0  0  0  0  0  0  0  0  0  0  0
   -3.8711   -1.0884   -1.8699 C   0  0  0  0  0  0  0  0  0  0  0  0
   -3.9216   -0.3474   -2.6821 H   0  0  0  0  0  0  0  0  0  0  0  0
   -5.0097   -1.7960   -1.4969 C   0  0  0  0  0  0  0  0  0  0  0  0
   -5.9576   -1.6107   -2.0255 H   0  0  0  0  0  0  0  0  0  0  0  0
   -4.9576   -2.7330   -0.4412 C   0  0  0  0  0  0  0  0  0  0  0  0
   -5.8579   -3.2854   -0.1356 H   0  0  0  0  0  0  0  0  0  0  0  0
   -3.7454   -2.9500    0.2054 C   0  0  0  0  0  0  0  0  0  0  0  0
   -3.6747   -3.6832    1.0201 H   0  0  0  0  0  0  0  0  0  0  0  0
   -2.5686   -2.2385   -0.1564 C   0  0  0  0  0  0  0  0  0  0  0  0
   -1.3238   -2.5609    0.5459 C   0  0  2  0  0  3  0  0  0  0  0  0
   -0.2555   -1.9228    0.5387 O   0  0  0  0  0  1  0  0  0  0  0  0
   -1.3800   -3.6937    1.2737 O   0  0  0  0  0  0  0  0  0  0  0  0
   -0.1855   -4.0415    1.9853 C   0  0  0  0  0  0  0  0  0  0  0  0
   -0.4156   -4.9818    2.5165 H   0  0  0  0  0  0  0  0  0  0  0  0
    0.0931   -3.2437    2.7032 H   0  0  0  0  0  0  0  0  0  0  0  0
    0.6597   -4.1846    1.2831 H   0  0  0  0  0  0  0  0  0  0  0  0
  1  2  1  0  0  0  0
  2 11  1  0  0  0  0
  3  5  1  0  0  0  0
  3  2  2  0  0  0  0
  4  3  1  0  0  0  0
  5  7  2  0  0  0  0
  6  5  1  0  0  0  0
  7  8  1  0  0  0  0
  7  9  1  0  0  0  0
  9 10  1  0  0  0  0
 11  9  2  0  0  0  0
 11 12  1  0  0  0  0
 12 13  1  6  0  0  0
 12 14  1  0  0  0  0
 14 15  1  0  0  0  0
 15 16  1  0  0  0  0
 15 17  1  0  0  0  0
 18 15  1  0  0  0  0
M  END
