2,4
 OpenBabel05122313063D

 22 22  0  0  1  0  0  0  0  0999 V2000
   -7.0590   -0.6607    0.0001 Br  0  0  0  0  0  0  0  0  0  0  0  0
    2.2491    1.6593    0.0000 S   0  0  0  0  0  1  0  0  0  0  0  0
    0.9050    4.3128   -0.0000 S   0  0  0  0  0  0  0  0  0  0  0  0
   -0.2848   -0.3073   -0.0001 O   0  5  0  0  0  0  0  0  0  0  0  0
    0.7850    2.5490   -0.0000 C   0  0  1  0  0  3  0  0  0  0  0  0
   -0.5438    2.0885   -0.0001 C   0  0  0  0  0  0  0  0  0  0  0  0
   -1.3097    2.8769   -0.0001 H   0  0  0  0  0  0  0  0  0  0  0  0
   -1.0118    0.7572   -0.0001 C   0  0  0  0  0  0  0  0  0  0  0  0
   -2.4793    0.4701   -0.0001 C   0  0  0  0  0  0  0  0  0  0  0  0
   -3.4737    1.4737    0.0000 C   0  0  0  0  0  0  0  0  0  0  0  0
   -3.2014    2.5383    0.0000 H   0  0  0  0  0  0  0  0  0  0  0  0
   -4.8335    1.1445    0.0000 C   0  0  0  0  0  0  0  0  0  0  0  0
   -5.5984    1.9334    0.0001 H   0  0  0  0  0  0  0  0  0  0  0  0
   -5.2141   -0.2078    0.0000 C   0  0  0  0  0  0  0  0  0  0  0  0
   -4.2468   -1.2265   -0.0001 C   0  0  0  0  0  0  0  0  0  0  0  0
   -4.5556   -2.2812   -0.0001 H   0  0  0  0  0  0  0  0  0  0  0  0
   -2.8917   -0.8832   -0.0001 C   0  0  0  0  0  0  0  0  0  0  0  0
   -2.1182   -1.6646   -0.0001 H   0  0  0  0  0  0  0  0  0  0  0  0
    2.6866    4.6455    0.0000 C   0  0  0  0  0  0  0  0  0  0  0  0
    2.7733    5.7489    0.0001 H   0  0  0  0  0  0  0  0  0  0  0  0
    3.1711    4.2304   -0.9048 H   0  0  0  0  0  0  0  0  0  0  0  0
    3.1710    4.2304    0.9049 H   0  0  0  0  0  0  0  0  0  0  0  0
  3 19  1  0  0  0  0
  4  8  1  0  0  0  0
  5  3  1  0  0  0  0
  5  2  1  6  0  0  0
  6  8  2  0  0  0  0
  6  5  1  0  0  0  0
  7  6  1  0  0  0  0
  8  9  1  0  0  0  0
  9 10  1  0  0  0  0
 10 11  1  0  0  0  0
 10 12  2  0  0  0  0
 12 13  1  0  0  0  0
 14 12  1  0  0  0  0
 14  1  1  0  0  0  0
 15 14  2  0  0  0  0
 16 15  1  0  0  0  0
 17 15  1  0  0  0  0
 17  9  2  0  0  0  0
 18 17  1  0  0  0  0
 19 20  1  0  0  0  0
 19 22  1  0  0  0  0
 21 19  1  0  0  0  0
M  CHG  1   4  -1
M  END
