1,3
 OpenBabel05122313063D

 37 37  0  0  1  0  0  0  0  0999 V2000
   -0.1799    2.0849   -0.6384 S   0  0  0  0  0  1  0  0  0  0  0  0
   -0.9916    4.9420   -0.4071 S   0  0  0  0  0  0  0  0  0  0  0  0
   -2.9727    0.5847   -0.1312 O   0  0  0  0  0  1  0  0  0  0  0  0
   -3.4801    1.7596   -0.0099 C   0  0  1  0  0  3  0  0  0  0  0  0
   -2.7894    2.9939   -0.0948 C   0  0  0  0  0  0  0  0  0  0  0  0
   -3.4039    3.8988    0.0164 H   0  0  0  0  0  0  0  0  0  0  0  0
   -1.4284    3.2254   -0.3555 C   0  0  0  0  0  0  0  0  0  0  0  0
    0.8094    4.9289   -0.7275 C   0  0  0  0  0  0  0  0  0  0  0  0
    0.9789    4.2493   -1.5890 H   0  0  0  0  0  0  0  0  0  0  0  0
    1.0197    5.9596   -1.0798 H   0  0  0  0  0  0  0  0  0  0  0  0
    1.6830    4.5348    0.4717 C   0  0  0  0  0  0  0  0  0  0  0  0
    1.1661    3.7441    1.0534 H   0  0  0  0  0  0  0  0  0  0  0  0
    1.7966    5.4030    1.1554 H   0  0  0  0  0  0  0  0  0  0  0  0
    3.0499    3.9959    0.0360 C   0  0  0  0  0  0  0  0  0  0  0  0
    2.8812    3.1734   -0.6953 H   0  0  0  0  0  0  0  0  0  0  0  0
    3.6180    4.7819   -0.5113 H   0  0  0  0  0  0  0  0  0  0  0  0
    3.8915    3.4572    1.1954 C   0  0  0  0  0  0  0  0  0  0  0  0
    3.2977    2.6908    1.7434 H   0  0  0  0  0  0  0  0  0  0  0  0
    4.0849    4.2708    1.9308 H   0  0  0  0  0  0  0  0  0  0  0  0
    5.2231    2.8402    0.7552 C   0  0  0  0  0  0  0  0  0  0  0  0
    5.0212    2.0320    0.0164 H   0  0  0  0  0  0  0  0  0  0  0  0
    5.8180    3.6040    0.2063 H   0  0  0  0  0  0  0  0  0  0  0  0
    6.0480    2.2791    1.9138 C   0  0  0  0  0  0  0  0  0  0  0  0
    7.0088    1.8495    1.5641 H   0  0  0  0  0  0  0  0  0  0  0  0
    5.4976    1.4764    2.4484 H   0  0  0  0  0  0  0  0  0  0  0  0
    6.2862    3.0656    2.6601 H   0  0  0  0  0  0  0  0  0  0  0  0
   -4.9592    1.7565    0.2237 C   0  0  0  0  0  0  0  0  0  0  0  0
   -5.6647    2.8748    0.7207 C   0  0  0  0  0  0  0  0  0  0  0  0
   -5.1306    3.8020    0.9730 H   0  0  0  0  0  0  0  0  0  0  0  0
   -7.0482    2.8093    0.9316 C   0  0  0  0  0  0  0  0  0  0  0  0
   -7.5801    3.6875    1.3278 H   0  0  0  0  0  0  0  0  0  0  0  0
   -7.7524    1.6285    0.6464 C   0  0  0  0  0  0  0  0  0  0  0  0
   -8.8399    1.5808    0.8096 H   0  0  0  0  0  0  0  0  0  0  0  0
   -7.0603    0.5084    0.1570 C   0  0  0  0  0  0  0  0  0  0  0  0
   -7.6049   -0.4213   -0.0681 H   0  0  0  0  0  0  0  0  0  0  0  0
   -5.6769    0.5687   -0.0468 C   0  0  0  0  0  0  0  0  0  0  0  0
   -5.1202   -0.3007   -0.4242 H   0  0  0  0  0  0  0  0  0  0  0  0
  1  7  1  0  0  0  0
  2  7  1  0  0  0  0
  4  3  1  6  0  0  0
  4 27  1  0  0  0  0
  5  4  1  0  0  0  0
  5  6  1  0  0  0  0
  7  5  2  0  0  0  0
  8  2  1  0  0  0  0
  8 11  1  0  0  0  0
  9  8  1  0  0  0  0
 10  8  1  0  0  0  0
 11 12  1  0  0  0  0
 11 13  1  0  0  0  0
 14 11  1  0  0  0  0
 14 17  1  0  0  0  0
 15 14  1  0  0  0  0
 16 14  1  0  0  0  0
 17 18  1  0  0  0  0
 17 19  1  0  0  0  0
 20 17  1  0  0  0  0
 20 23  1  0  0  0  0
 21 20  1  0  0  0  0
 22 20  1  0  0  0  0
 23 25  1  0  0  0  0
 23 26  1  0  0  0  0
 24 23  1  0  0  0  0
 27 28  1  0  0  0  0
 28 30  2  0  0  0  0
 28 29  1  0  0  0  0
 30 31  1  0  0  0  0
 32 33  1  0  0  0  0
 32 30  1  0  0  0  0
 34 32  2  0  0  0  0
 35 34  1  0  0  0  0
 36 34  1  0  0  0  0
 36 27  2  0  0  0  0
 37 36  1  0  0  0  0
M  END
