1,2
 OpenBabel05122313063D

 16 16  0  0  0  0  0  0  0  0999 V2000
    0.3879    1.0793   -1.8525 S   0  0  0  0  0  0  0  0  0  0  0  0
    0.8944    1.4278    1.0816 O   0  5  0  0  0  0  0  0  0  0  0  0
    1.0343    2.5339    0.3918 C   0  0  0  0  0  0  0  0  0  0  0  0
    0.9233    2.5803   -1.0333 C   0  0  0  0  0  0  0  0  0  0  0  0
    1.1672    3.7541   -1.7665 C   0  0  0  0  0  0  0  0  0  0  0  0
    1.5035    4.9402   -1.1020 C   0  0  0  0  0  0  0  0  0  0  0  0
    1.5839    4.9310    0.3069 C   0  0  0  0  0  0  0  0  0  0  0  0
    1.3552    3.7654    1.0398 C   0  0  0  0  0  0  0  0  0  0  0  0
   -1.3863    1.4812   -2.1008 C   0  0  0  0  0  0  0  0  0  0  0  0
    1.0828    3.7294   -2.8648 H   0  0  0  0  0  0  0  0  0  0  0  0
    1.6964    5.8615   -1.6703 H   0  0  0  0  0  0  0  0  0  0  0  0
    1.8388    5.8594    0.8424 H   0  0  0  0  0  0  0  0  0  0  0  0
    1.4298    3.7587    2.1378 H   0  0  0  0  0  0  0  0  0  0  0  0
   -1.4631    2.1355   -2.9891 H   0  0  0  0  0  0  0  0  0  0  0  0
   -1.9481    0.5399   -2.2480 H   0  0  0  0  0  0  0  0  0  0  0  0
   -1.7720    1.9891   -1.1994 H   0  0  0  0  0  0  0  0  0  0  0  0
  1  4  1  0  0  0  0
  3  8  1  0  0  0  0
  3  2  1  0  0  0  0
  4  3  2  0  0  0  0
  5  6  2  0  0  0  0
  5  4  1  0  0  0  0
  6  7  1  0  0  0  0
  7 12  1  0  0  0  0
  7  8  2  0  0  0  0
  8 13  1  0  0  0  0
  9  1  1  0  0  0  0
  9 16  1  0  0  0  0
 10  5  1  0  0  0  0
 11  6  1  0  0  0  0
 14  9  1  0  0  0  0
 15  9  1  0  0  0  0
M  CHG  1   2  -1
M  END
