1,2
 OpenBabel05122313063D

 19 19  0  0  1  0  0  0  0  0999 V2000
   -0.5809    1.8025   -0.1259 S   0  0  0  0  0  1  0  0  0  0  0  0
   -0.6054   -1.2847   -0.5816 O   0  5  0  0  0  0  0  0  0  0  0  0
   -3.1467    2.1964   -0.2833 N   0  0  0  0  0  0  0  0  0  0  0  0
   -4.1080    1.8698   -0.4038 H   0  0  0  0  0  0  0  0  0  0  0  0
   -2.2130    1.2420   -0.1038 C   0  0  2  0  0  3  0  0  0  0  0  0
   -2.8895    3.6171   -0.4207 C   0  0  0  0  0  0  0  0  0  0  0  0
   -2.3463    4.0081    0.4646 H   0  0  0  0  0  0  0  0  0  0  0  0
   -3.8535    4.1479   -0.5152 H   0  0  0  0  0  0  0  0  0  0  0  0
   -2.2707    3.8253   -1.3195 H   0  0  0  0  0  0  0  0  0  0  0  0
   -1.8648   -1.2850   -0.2045 C   0  0  0  0  0  0  0  0  0  0  0  0
   -2.6708   -0.1270    0.0961 C   0  0  0  0  0  0  0  0  0  0  0  0
   -4.0115   -0.3322    0.5479 C   0  0  0  0  0  0  0  0  0  0  0  0
   -4.6012    0.5325    0.8902 H   0  0  0  0  0  0  0  0  0  0  0  0
   -4.5808   -1.5937    0.6401 C   0  0  0  0  0  0  0  0  0  0  0  0
   -5.6054   -1.7137    1.0187 H   0  0  0  0  0  0  0  0  0  0  0  0
   -3.8130   -2.7203    0.2646 C   0  0  0  0  0  0  0  0  0  0  0  0
   -4.2507   -3.7286    0.3178 H   0  0  0  0  0  0  0  0  0  0  0  0
   -2.4949   -2.5668   -0.1404 C   0  0  0  0  0  0  0  0  0  0  0  0
   -1.8820   -3.4362   -0.4188 H   0  0  0  0  0  0  0  0  0  0  0  0
  2 10  1  0  0  0  0
  3  5  1  0  0  0  0
  4  3  1  0  0  0  0
  5  1  1  1  0  0  0
  5 11  1  0  0  0  0
  6  3  1  0  0  0  0
  6  7  1  0  0  0  0
  8  6  1  0  0  0  0
  9  6  1  0  0  0  0
 10 18  2  0  0  0  0
 10 11  1  0  0  0  0
 11 12  2  0  0  0  0
 12 14  1  0  0  0  0
 12 13  1  0  0  0  0
 14 15  1  0  0  0  0
 16 17  1  0  0  0  0
 16 14  2  0  0  0  0
 18 16  1  0  0  0  0
 19 18  1  0  0  0  0
M  CHG  1   2  -1
M  END
