1,2
 OpenBabel05122313063D

 28 28  0  0  1  0  0  0  0  0999 V2000
    1.6755   -2.5212   -0.0367 S   0  0  0  0  0  1  0  0  0  0  0  0
    1.3217    0.4322   -0.0861 O   0  5  0  0  0  0  0  0  0  0  0  0
    3.4866   -0.4334    0.1700 N   0  0  0  0  0  0  0  0  0  0  0  0
    4.2133   -2.5383    0.7548 N   0  0  0  0  0  0  0  0  0  0  0  0
    3.1938   -1.7248    0.3321 C   0  0  2  0  0  3  0  0  0  0  0  0
    5.5682   -2.0313    0.9106 C   0  0  0  0  0  0  0  0  0  0  0  0
    5.5583   -0.9414    0.7430 H   0  0  0  0  0  0  0  0  0  0  0  0
    6.2548   -2.5172    0.1826 H   0  0  0  0  0  0  0  0  0  0  0  0
    5.9404   -2.2463    1.9348 H   0  0  0  0  0  0  0  0  0  0  0  0
    4.0376   -3.9655    0.9493 C   0  0  0  0  0  0  0  0  0  0  0  0
    3.0043   -4.1759    1.2869 H   0  0  0  0  0  0  0  0  0  0  0  0
    4.7559   -4.3165    1.7163 H   0  0  0  0  0  0  0  0  0  0  0  0
    4.2146   -4.5403    0.0122 H   0  0  0  0  0  0  0  0  0  0  0  0
    2.5958    0.5278   -0.1060 C   0  0  0  0  0  0  0  0  0  0  0  0
    3.1558    1.8707   -0.4604 C   0  0  0  0  0  0  0  0  0  0  0  0
    4.4973    1.9280   -0.9016 C   0  0  0  0  0  0  0  0  0  0  0  0
    5.0602    0.9851   -0.9417 H   0  0  0  0  0  0  0  0  0  0  0  0
    5.0902    3.1330   -1.2881 C   0  0  0  0  0  0  0  0  0  0  0  0
    6.1330    3.1490   -1.6394 H   0  0  0  0  0  0  0  0  0  0  0  0
    4.3409    4.3172   -1.2194 C   0  0  0  0  0  0  0  0  0  0  0  0
    4.7890    5.2789   -1.5135 H   0  0  0  0  0  0  0  0  0  0  0  0
    3.0154    4.2739   -0.7678 C   0  0  0  0  0  0  0  0  0  0  0  0
    2.4350    5.2079   -0.7035 H   0  0  0  0  0  0  0  0  0  0  0  0
    2.3861    3.0706   -0.3850 C   0  0  0  0  0  0  0  0  0  0  0  0
    0.9622    3.1275    0.1045 C   0  0  0  0  0  0  0  0  0  0  0  0
    0.2694    2.5814   -0.5636 H   0  0  0  0  0  0  0  0  0  0  0  0
    0.6253    4.1784    0.1965 H   0  0  0  0  0  0  0  0  0  0  0  0
    0.8507    2.6302    1.0879 H   0  0  0  0  0  0  0  0  0  0  0  0
  3  5  1  0  0  0  0
  4  6  1  0  0  0  0
  4 10  1  0  0  0  0
  5  1  1  6  0  0  0
  5  4  1  0  0  0  0
  6  9  1  0  0  0  0
  7  6  1  0  0  0  0
  8  6  1  0  0  0  0
 10 11  1  0  0  0  0
 10 12  1  0  0  0  0
 13 10  1  0  0  0  0
 14  2  1  0  0  0  0
 14  3  2  0  0  0  0
 15 24  1  0  0  0  0
 15 14  1  0  0  0  0
 16 15  2  0  0  0  0
 17 16  1  0  0  0  0
 18 20  2  0  0  0  0
 18 16  1  0  0  0  0
 19 18  1  0  0  0  0
 20 22  1  0  0  0  0
 21 20  1  0  0  0  0
 22 23  1  0  0  0  0
 22 24  2  0  0  0  0
 24 25  1  0  0  0  0
 25 27  1  0  0  0  0
 25 28  1  0  0  0  0
 26 25  1  0  0  0  0
M  CHG  1   2  -1
M  END
