1,2
 OpenBabel05122313063D

 12 12  0  0  0  0  0  0  0  0999 V2000
    0.0625   -0.3218   -2.2724 S   0  0  0  0  0  1  0  0  0  0  0  0
   -1.5720   -1.9008   -0.5751 O   0  5  0  0  0  0  0  0  0  0  0  0
   -1.4508   -1.0480   -2.7846 C   0  0  0  0  0  0  0  0  0  0  0  0
   -2.0044   -0.9264   -4.0750 C   0  0  0  0  0  0  0  0  0  0  0  0
   -1.4663   -0.3499   -4.8433 H   0  0  0  0  0  0  0  0  0  0  0  0
   -3.2313   -1.5364   -4.3585 C   0  0  0  0  0  0  0  0  0  0  0  0
   -3.6702   -1.4451   -5.3635 H   0  0  0  0  0  0  0  0  0  0  0  0
   -3.9122   -2.2614   -3.3522 C   0  0  0  0  0  0  0  0  0  0  0  0
   -4.8821   -2.7291   -3.5829 H   0  0  0  0  0  0  0  0  0  0  0  0
   -3.3774   -2.3885   -2.0691 C   0  0  0  0  0  0  0  0  0  0  0  0
   -3.8967   -2.9423   -1.2732 H   0  0  0  0  0  0  0  0  0  0  0  0
   -2.1242   -1.7905   -1.7657 C   0  0  0  0  0  0  0  0  0  0  0  0
  3  1  1  0  0  0  0
  3 12  1  0  0  0  0
  4  3  2  0  0  0  0
  5  4  1  0  0  0  0
  6  4  1  0  0  0  0
  6  8  2  0  0  0  0
  7  6  1  0  0  0  0
  8 10  1  0  0  0  0
  9  8  1  0  0  0  0
 10 12  2  0  0  0  0
 10 11  1  0  0  0  0
 12  2  1  0  0  0  0
M  CHG  1   2  -1
M  END
