1,3
 OpenBabel05122313063D

 12 12  0  0  1  0  0  0  0  0999 V2000
    1.6435    1.4455   -1.3128 S   0  0  0  0  0  1  0  0  0  0  0  0
    4.5676    0.5613   -0.9175 S   0  0  0  0  0  0  0  0  0  0  0  0
    1.4231   -0.7228    0.8637 O   0  0  0  0  0  1  0  0  0  0  0  0
    2.6227   -0.4426    0.3920 N   0  0  0  0  0  0  0  0  0  0  0  0
    2.8588    0.4949   -0.5748 C   0  0  1  0  0  3  0  0  0  0  0  0
    4.8986   -0.6817    0.2602 C   0  0  0  0  0  0  0  0  0  0  0  0
    5.9202   -1.0309    0.4409 H   0  0  0  0  0  0  0  0  0  0  0  0
    3.7541   -1.1149    0.8755 C   0  0  0  0  0  0  0  0  0  0  0  0
    3.5569   -2.1460    1.9301 C   0  0  0  0  0  0  0  0  0  0  0  0
    4.5233   -2.5955    2.2219 H   0  0  0  0  0  0  0  0  0  0  0  0
    2.8737   -2.9418    1.5698 H   0  0  0  0  0  0  0  0  0  0  0  0
    3.0738   -1.6984    2.8224 H   0  0  0  0  0  0  0  0  0  0  0  0
  2  5  1  0  0  0  0
  2  6  1  0  0  0  0
  4  3  1  0  0  0  0
  4  8  1  0  0  0  0
  5  1  1  1  0  0  0
  5  4  1  0  0  0  0
  6  7  1  0  0  0  0
  6  8  2  0  0  0  0
  8  9  1  0  0  0  0
  9 10  1  0  0  0  0
  9 12  1  0  0  0  0
 11  9  1  0  0  0  0
M  END
