1,2
 OpenBabel05122313063D

 22 22  0  0  0  0  0  0  0  0999 V2000
   -0.6532   -0.6255   -0.0002 S   0  0  0  0  0  1  0  0  0  0  0  0
    1.2378    1.8608   -0.0003 O   0  5  0  0  0  0  0  0  0  0  0  0
   -0.4058    3.3974    0.0001 O   0  0  0  0  0  0  0  0  0  0  0  0
    0.0069    2.2242   -0.0001 C   0  0  0  0  0  0  0  0  0  0  0  0
   -1.0866    1.0930   -0.0001 C   0  0  0  0  0  0  0  0  0  0  0  0
   -2.3881    1.5287   -0.0001 C   0  0  0  0  0  0  0  0  0  0  0  0
   -2.4263    2.6334   -0.0000 H   0  0  0  0  0  0  0  0  0  0  0  0
   -3.6751    0.8500   -0.0000 C   0  0  0  0  0  0  0  0  0  0  0  0
   -4.8534    1.6533    0.0005 C   0  0  0  0  0  0  0  0  0  0  0  0
   -4.7361    2.7487    0.0008 H   0  0  0  0  0  0  0  0  0  0  0  0
   -6.1340    1.1034    0.0006 C   0  0  0  0  0  0  0  0  0  0  0  0
   -7.0325    1.7390    0.0010 H   0  0  0  0  0  0  0  0  0  0  0  0
   -6.3031   -0.2973    0.0001 C   0  0  0  0  0  0  0  0  0  0  0  0
   -5.1620   -1.1218   -0.0004 C   0  0  0  0  0  0  0  0  0  0  0  0
   -5.2561   -2.2171   -0.0008 H   0  0  0  0  0  0  0  0  0  0  0  0
   -3.8780   -0.5550   -0.0005 C   0  0  0  0  0  0  0  0  0  0  0  0
   -3.0006   -1.2171   -0.0009 H   0  0  0  0  0  0  0  0  0  0  0  0
   -7.6014   -0.7539    0.0003 O   0  0  0  0  0  0  0  0  0  0  0  0
   -7.8033   -2.1457   -0.0001 C   0  0  0  0  0  0  0  0  0  0  0  0
   -7.3678   -2.6375   -0.9017 H   0  0  0  0  0  0  0  0  0  0  0  0
   -8.8987   -2.3104    0.0002 H   0  0  0  0  0  0  0  0  0  0  0  0
   -7.3673   -2.6380    0.9011 H   0  0  0  0  0  0  0  0  0  0  0  0
  1  5  1  0  0  0  0
  2  4  1  0  0  0  0
  4  3  2  0  0  0  0
  5  4  1  0  0  0  0
  5  6  2  0  0  0  0
  6  8  1  0  0  0  0
  6  7  1  0  0  0  0
  8  9  1  0  0  0  0
  9 11  2  0  0  0  0
  9 10  1  0  0  0  0
 11 12  1  0  0  0  0
 13 18  1  0  0  0  0
 13 11  1  0  0  0  0
 14 13  2  0  0  0  0
 15 14  1  0  0  0  0
 16 14  1  0  0  0  0
 16  8  2  0  0  0  0
 17 16  1  0  0  0  0
 19 21  1  0  0  0  0
 19 18  1  0  0  0  0
 19 22  1  0  0  0  0
 20 19  1  0  0  0  0
M  CHG  1   2  -1
M  END
