1,5
 OpenBabel05122313063D

 37 37  0  0  1  0  0  0  0  0999 V2000
    1.0195   -1.3286    0.9685 S   0  0  0  0  0  1  0  0  0  0  0  0
    2.6287   -0.6708    0.5306 C   0  0  1  0  0  3  0  0  0  0  0  0
    2.7613    0.6446    0.3331 N   0  0  0  0  0  0  0  0  0  0  0  0
    1.7813    1.4303   -0.1146 C   0  0  0  0  0  0  0  0  0  0  0  0
    0.7023    1.0271   -0.6770 O   0  5  0  0  0  0  0  0  0  0  0  0
    1.9612    2.9030   -0.0169 C   0  0  0  0  0  0  0  0  0  0  0  0
    1.1204    3.7447   -0.7737 C   0  0  0  0  0  0  0  0  0  0  0  0
    0.3672    3.2808   -1.4269 H   0  0  0  0  0  0  0  0  0  0  0  0
    1.2528    5.1352   -0.6784 C   0  0  0  0  0  0  0  0  0  0  0  0
    0.5988    5.7890   -1.2750 H   0  0  0  0  0  0  0  0  0  0  0  0
    2.2129    5.6951    0.1811 C   0  0  0  0  0  0  0  0  0  0  0  0
    2.3124    6.7888    0.2587 H   0  0  0  0  0  0  0  0  0  0  0  0
    3.0528    4.8588    0.9381 C   0  0  0  0  0  0  0  0  0  0  0  0
    3.8064    5.2970    1.6099 H   0  0  0  0  0  0  0  0  0  0  0  0
    2.9354    3.4675    0.8320 C   0  0  0  0  0  0  0  0  0  0  0  0
    3.5879    2.7973    1.4100 H   0  0  0  0  0  0  0  0  0  0  0  0
    3.7199   -1.4548    0.5411 N   0  0  0  0  0  0  0  0  0  0  0  0
    5.0820   -0.9068    0.2728 C   0  0  0  0  0  0  0  0  0  0  0  0
    5.7301   -1.8053    0.2837 H   0  0  0  0  0  0  0  0  0  0  0  0
    5.2132   -0.2743   -1.1167 C   0  0  0  0  0  0  0  0  0  0  0  0
    4.7880   -0.9341   -1.8962 H   0  0  0  0  0  0  0  0  0  0  0  0
    6.2863   -0.1049   -1.3381 H   0  0  0  0  0  0  0  0  0  0  0  0
    4.6828    0.6938   -1.1671 H   0  0  0  0  0  0  0  0  0  0  0  0
    5.5582    0.0071    1.4073 C   0  0  0  0  0  0  0  0  0  0  0  0
    5.5030   -0.5091    2.3859 H   0  0  0  0  0  0  0  0  0  0  0  0
    4.9444    0.9251    1.4540 H   0  0  0  0  0  0  0  0  0  0  0  0
    6.6126    0.2974    1.2282 H   0  0  0  0  0  0  0  0  0  0  0  0
    3.6159   -2.9240    0.7070 C   0  0  0  0  0  0  0  0  0  0  0  0
    2.5350   -3.1066    0.8706 H   0  0  0  0  0  0  0  0  0  0  0  0
    4.0180   -3.6531   -0.5782 C   0  0  0  0  0  0  0  0  0  0  0  0
    3.4186   -3.2747   -1.4295 H   0  0  0  0  0  0  0  0  0  0  0  0
    3.8231   -4.7376   -0.4607 H   0  0  0  0  0  0  0  0  0  0  0  0
    5.0954   -3.5338   -0.8154 H   0  0  0  0  0  0  0  0  0  0  0  0
    4.3713   -3.3992    1.9509 C   0  0  0  0  0  0  0  0  0  0  0  0
    4.0181   -2.8688    2.8574 H   0  0  0  0  0  0  0  0  0  0  0  0
    5.4676   -3.2511    1.8633 H   0  0  0  0  0  0  0  0  0  0  0  0
    4.1971   -4.4836    2.0970 H   0  0  0  0  0  0  0  0  0  0  0  0
  2 17  1  0  0  0  0
  2  1  1  1  0  0  0
  3  2  1  0  0  0  0
  4  6  1  0  0  0  0
  4  3  2  0  0  0  0
  5  4  1  0  0  0  0
  6 15  1  0  0  0  0
  7  9  1  0  0  0  0
  7  6  2  0  0  0  0
  8  7  1  0  0  0  0
  9 11  2  0  0  0  0
 10  9  1  0  0  0  0
 11 12  1  0  0  0  0
 11 13  1  0  0  0  0
 13 14  1  0  0  0  0
 15 13  2  0  0  0  0
 15 16  1  0  0  0  0
 17 28  1  0  0  0  0
 18 19  1  0  0  0  0
 18 17  1  0  0  0  0
 18 24  1  0  0  0  0
 20 18  1  0  0  0  0
 21 20  1  0  0  0  0
 22 20  1  0  0  0  0
 23 20  1  0  0  0  0
 24 26  1  0  0  0  0
 24 25  1  0  0  0  0
 27 24  1  0  0  0  0
 28 29  1  0  0  0  0
 28 34  1  0  0  0  0
 30 32  1  0  0  0  0
 30 28  1  0  0  0  0
 31 30  1  0  0  0  0
 33 30  1  0  0  0  0
 34 37  1  0  0  0  0
 34 35  1  0  0  0  0
 36 34  1  0  0  0  0
M  CHG  1   5  -1
M  END
