1,5
 OpenBabel05122313063D

 42 41  0  0  0  0  0  0  0  0999 V2000
   -2.1948   -0.8140   -2.3721 S   0  0  0  0  0  1  0  0  0  0  0  0
   -2.1399   -0.2456    1.1419 P   0  0  0  0  0  4  0  0  0  0  0  0
   -2.7963   -1.3808    2.0911 O   0  0  0  0  0  0  0  0  0  0  0  0
   -2.0524    0.9425    2.2365 O   0  0  0  0  0  0  0  0  0  0  0  0
   -0.7266   -0.6429    0.6618 O   0  0  0  0  0  1  0  0  0  0  0  0
   -4.4331    0.4555   -1.9230 N   0  0  0  0  0  0  0  0  0  0  0  0
   -3.2380    0.2096    0.0281 N   0  0  0  0  0  0  0  0  0  0  0  0
   -5.6237    1.1242   -1.3482 C   0  0  0  0  0  0  0  0  0  0  0  0
   -5.2217    2.4637   -0.7019 C   0  0  0  0  0  0  0  0  0  0  0  0
   -4.5175    2.2862    0.1324 H   0  0  0  0  0  0  0  0  0  0  0  0
   -6.1199    2.9819   -0.3102 H   0  0  0  0  0  0  0  0  0  0  0  0
   -4.7325    3.1246   -1.4452 H   0  0  0  0  0  0  0  0  0  0  0  0
   -6.3099    0.2102   -0.3160 C   0  0  0  0  0  0  0  0  0  0  0  0
   -5.6383    0.0279    0.5431 H   0  0  0  0  0  0  0  0  0  0  0  0
   -6.5783   -0.7634   -0.7734 H   0  0  0  0  0  0  0  0  0  0  0  0
   -7.2379    0.6890    0.0554 H   0  0  0  0  0  0  0  0  0  0  0  0
   -6.5718    1.3766   -2.5313 C   0  0  0  0  0  0  0  0  0  0  0  0
   -6.8716    0.4234   -3.0138 H   0  0  0  0  0  0  0  0  0  0  0  0
   -6.0938    2.0249   -3.2947 H   0  0  0  0  0  0  0  0  0  0  0  0
   -7.4904    1.8856   -2.1817 H   0  0  0  0  0  0  0  0  0  0  0  0
   -3.5935   -2.4576    1.5174 C   0  0  0  0  0  0  0  0  0  0  0  0
   -4.3993   -1.9865    0.9103 H   0  0  0  0  0  0  0  0  0  0  0  0
   -2.7484   -3.3570    0.6221 C   0  0  0  0  0  0  0  0  0  0  0  0
   -2.3498   -2.8051   -0.2535 H   0  0  0  0  0  0  0  0  0  0  0  0
   -3.3659   -4.1940    0.2387 H   0  0  0  0  0  0  0  0  0  0  0  0
   -1.8954   -3.7798    1.1893 H   0  0  0  0  0  0  0  0  0  0  0  0
   -4.2108   -3.1849    2.7020 C   0  0  0  0  0  0  0  0  0  0  0  0
   -4.7884   -2.4823    3.3333 H   0  0  0  0  0  0  0  0  0  0  0  0
   -3.4201   -3.6466    3.3273 H   0  0  0  0  0  0  0  0  0  0  0  0
   -4.8904   -3.9853    2.3486 H   0  0  0  0  0  0  0  0  0  0  0  0
   -1.2640    2.1186    1.8690 C   0  0  0  0  0  0  0  0  0  0  0  0
   -1.0999    2.1186    0.7673 H   0  0  0  0  0  0  0  0  0  0  0  0
    0.0921    2.0339    2.5555 C   0  0  0  0  0  0  0  0  0  0  0  0
    0.6307    1.1259    2.2236 H   0  0  0  0  0  0  0  0  0  0  0  0
   -0.0279    1.9995    3.6574 H   0  0  0  0  0  0  0  0  0  0  0  0
    0.7121    2.9128    2.2892 H   0  0  0  0  0  0  0  0  0  0  0  0
   -2.0823    3.3391    2.2603 C   0  0  0  0  0  0  0  0  0  0  0  0
   -3.0489    3.3509    1.7202 H   0  0  0  0  0  0  0  0  0  0  0  0
   -1.5314    4.2683    2.0121 H   0  0  0  0  0  0  0  0  0  0  0  0
   -2.2907    3.3340    3.3495 H   0  0  0  0  0  0  0  0  0  0  0  0
   -3.3249    0.0130   -1.2751 C   0  0  0  0  0  0  0  0  0  0  0  0
   -4.4070    0.3299   -2.9369 H   0  0  0  0  0  0  0  0  0  0  0  0
  1 41  1  0  0  0  0
  2  3  1  0  0  0  0
  2  4  1  0  0  0  0
  5  2  1  0  0  0  0
  6  8  1  0  0  0  0
  6 41  1  0  0  0  0
  7  2  1  0  0  0  0
  8  9  1  0  0  0  0
  8 13  1  0  0  0  0
  9 11  1  0  0  0  0
  9 10  1  0  0  0  0
 12  9  1  0  0  0  0
 13 16  1  0  0  0  0
 13 14  1  0  0  0  0
 15 13  1  0  0  0  0
 17 20  1  0  0  0  0
 17  8  1  0  0  0  0
 18 17  1  0  0  0  0
 19 17  1  0  0  0  0
 21  3  1  0  0  0  0
 21 27  1  0  0  0  0
 22 21  1  0  0  0  0
 23 26  1  0  0  0  0
 23 21  1  0  0  0  0
 24 23  1  0  0  0  0
 25 23  1  0  0  0  0
 27 29  1  0  0  0  0
 27 28  1  0  0  0  0
 30 27  1  0  0  0  0
 31  4  1  0  0  0  0
 31 37  1  0  0  0  0
 31 33  1  0  0  0  0
 32 31  1  0  0  0  0
 33 35  1  0  0  0  0
 34 33  1  0  0  0  0
 36 33  1  0  0  0  0
 37 40  1  0  0  0  0
 38 37  1  0  0  0  0
 39 37  1  0  0  0  0
 41  7  2  0  0  0  0
 42  6  1  0  0  0  0
M  END
