1,2
 OpenBabel05122313063D

 32 33  0  0  1  0  0  0  0  0999 V2000
    1.4811   -1.9573   -0.1020 S   0  0  0  0  0  1  0  0  0  0  0  0
    1.2397    1.0103   -0.1220 O   0  5  0  0  0  0  0  0  0  0  0  0
    5.4112    1.7957    0.0682 F   0  0  0  0  0  0  0  0  0  0  0  0
    3.9836   -2.0674    0.8265 N   0  0  0  0  0  0  0  0  0  0  0  0
    3.3502    0.0565    0.2470 N   0  0  0  0  0  0  0  0  0  0  0  0
    2.5173    1.0468   -0.0667 C   0  0  0  0  0  0  0  0  0  0  0  0
    3.1112    2.3886   -0.3649 C   0  0  0  0  0  0  0  0  0  0  0  0
    2.2353    3.4307   -0.7552 C   0  0  0  0  0  0  0  0  0  0  0  0
    1.1669    3.1785   -0.8163 H   0  0  0  0  0  0  0  0  0  0  0  0
    2.6970    4.7152   -1.0533 C   0  0  0  0  0  0  0  0  0  0  0  0
    1.9860    5.4981   -1.3554 H   0  0  0  0  0  0  0  0  0  0  0  0
    4.0709    4.9984   -0.9667 C   0  0  0  0  0  0  0  0  0  0  0  0
    4.4509    6.0049   -1.1980 H   0  0  0  0  0  0  0  0  0  0  0  0
    4.9649    3.9912   -0.5842 C   0  0  0  0  0  0  0  0  0  0  0  0
    6.0462    4.1736   -0.5049 H   0  0  0  0  0  0  0  0  0  0  0  0
    4.4889    2.7058   -0.2905 C   0  0  0  0  0  0  0  0  0  0  0  0
    3.0053   -1.2283    0.3701 C   0  0  1  0  0  3  0  0  0  0  0  0
    5.3725   -1.6176    0.9660 C   0  0  0  0  0  0  0  0  0  0  0  0
    5.3843   -0.5185    0.8711 H   0  0  0  0  0  0  0  0  0  0  0  0
    5.7193   -1.8946    1.9872 H   0  0  0  0  0  0  0  0  0  0  0  0
    6.2505   -2.2953   -0.0955 C   0  0  0  0  0  0  0  0  0  0  0  0
    7.3073   -1.9912    0.0558 H   0  0  0  0  0  0  0  0  0  0  0  0
    5.9460   -1.9121   -1.0936 H   0  0  0  0  0  0  0  0  0  0  0  0
    6.1090   -3.8230   -0.0537 C   0  0  0  0  0  0  0  0  0  0  0  0
    6.6837   -4.2918   -0.8793 H   0  0  0  0  0  0  0  0  0  0  0  0
    6.5538   -4.2045    0.8934 H   0  0  0  0  0  0  0  0  0  0  0  0
    4.6336   -4.2437   -0.1160 C   0  0  0  0  0  0  0  0  0  0  0  0
    4.2035   -3.9946   -1.1103 H   0  0  0  0  0  0  0  0  0  0  0  0
    4.5258   -5.3400    0.0194 H   0  0  0  0  0  0  0  0  0  0  0  0
    3.8201   -3.5118    0.9594 C   0  0  0  0  0  0  0  0  0  0  0  0
    4.1867   -3.8017    1.9707 H   0  0  0  0  0  0  0  0  0  0  0  0
    2.7424   -3.7549    0.9042 H   0  0  0  0  0  0  0  0  0  0  0  0
  2  6  1  0  0  0  0
  4 30  1  0  0  0  0
  4 18  1  0  0  0  0
  5 17  1  0  0  0  0
  6  5  2  0  0  0  0
  7 16  1  0  0  0  0
  7  6  1  0  0  0  0
  8  7  2  0  0  0  0
  9  8  1  0  0  0  0
 10 12  2  0  0  0  0
 10  8  1  0  0  0  0
 11 10  1  0  0  0  0
 12 14  1  0  0  0  0
 13 12  1  0  0  0  0
 14 15  1  0  0  0  0
 14 16  2  0  0  0  0
 16  3  1  0  0  0  0
 17  1  1  6  0  0  0
 17  4  1  0  0  0  0
 18 20  1  0  0  0  0
 19 18  1  0  0  0  0
 21 24  1  0  0  0  0
 21 22  1  0  0  0  0
 21 18  1  0  0  0  0
 23 21  1  0  0  0  0
 24 26  1  0  0  0  0
 25 24  1  0  0  0  0
 27 24  1  0  0  0  0
 27 29  1  0  0  0  0
 27 30  1  0  0  0  0
 28 27  1  0  0  0  0
 30 31  1  0  0  0  0
 32 30  1  0  0  0  0
M  CHG  1   2  -1
M  END
