1,2
q = -1.0, confidence = 0.046

 49 50  0  0  1  0  0  0  0  0999 V2000
   -2.3676    0.4145    0.4235 S   0  0  0  0  0  1  0  0  0  0  0  0
    0.6276    0.0275   -0.5869 O   0  5  0  0  0  0  0  0  0  0  0  0
    1.9988    1.7196   -0.0882 O   0  0  0  0  0  0  0  0  0  0  0  0
   -0.1701    2.1215    0.1688 N   0  0  0  0  0  0  0  0  0  0  0  0
   -2.2308    3.0641    0.4594 N   0  0  0  0  0  0  0  0  0  0  0  0
   -1.4784    1.9299    0.3093 C   0  0  2  0  0  3  0  0  0  0  0  0
    0.7528    1.2272   -0.1667 C   0  0  0  0  0  0  0  0  0  0  0  0
   -3.6813    3.0906    0.6070 C   0  0  0  0  0  0  0  0  0  0  0  0
   -3.9378    3.4273    1.6370 H   0  0  0  0  0  0  0  0  0  0  0  0
   -4.0907    2.0727    0.4639 H   0  0  0  0  0  0  0  0  0  0  0  0
   -4.2821    4.0579   -0.4200 C   0  0  0  0  0  0  0  0  0  0  0  0
   -4.1321    3.6316   -1.4435 H   0  0  0  0  0  0  0  0  0  0  0  0
   -5.3706    4.1698   -0.2441 H   0  0  0  0  0  0  0  0  0  0  0  0
   -3.7103    5.3498   -0.3301 O   0  0  0  0  0  0  0  0  0  0  0  0
   -2.3068    5.2957   -0.5363 C   0  0  0  0  0  0  0  0  0  0  0  0
   -1.9271    6.3333   -0.4497 H   0  0  0  0  0  0  0  0  0  0  0  0
   -2.0767    4.9205   -1.5646 H   0  0  0  0  0  0  0  0  0  0  0  0
   -1.6225    4.3953    0.4917 C   0  0  0  0  0  0  0  0  0  0  0  0
   -0.5414    4.2823    0.2927 H   0  0  0  0  0  0  0  0  0  0  0  0
   -1.7624    4.8252    1.5095 H   0  0  0  0  0  0  0  0  0  0  0  0
    3.1406    0.8338   -0.2688 C   0  0  1  0  0  0  0  0  0  0  0  0
    2.7771   -0.1293   -0.6790 H   0  0  0  0  0  0  0  0  0  0  0  0
    4.0693    1.5131   -1.2726 C   0  0  0  0  0  0  0  0  0  0  0  0
    4.3084    2.5339   -0.8991 H   0  0  0  0  0  0  0  0  0  0  0  0
    3.5322    1.6412   -2.2357 H   0  0  0  0  0  0  0  0  0  0  0  0
    5.3725    0.7264   -1.4812 C   0  0  2  0  0  0  0  0  0  0  0  0
    5.0994   -0.2711   -1.8979 H   0  0  0  0  0  0  0  0  0  0  0  0
    6.0533    0.4856   -0.1249 C   0  0  0  0  0  0  0  0  0  0  0  0
    6.3882    1.4653    0.2865 H   0  0  0  0  0  0  0  0  0  0  0  0
    6.9710   -0.1244   -0.2656 H   0  0  0  0  0  0  0  0  0  0  0  0
    5.1107   -0.1958    0.8716 C   0  0  0  0  0  0  0  0  0  0  0  0
    5.6250   -0.3513    1.8422 H   0  0  0  0  0  0  0  0  0  0  0  0
    4.8526   -1.2079    0.4909 H   0  0  0  0  0  0  0  0  0  0  0  0
    3.8149    0.6060    1.0952 C   0  0  2  0  0  0  0  0  0  0  0  0
    4.1017    1.6176    1.4660 H   0  0  0  0  0  0  0  0  0  0  0  0
    2.8664   -0.0102    2.1582 C   0  0  0  0  0  0  0  0  0  0  0  0
    1.9226    0.5761    2.1076 H   0  0  0  0  0  0  0  0  0  0  0  0
    3.4216    0.1878    3.5757 C   0  0  0  0  0  0  0  0  0  0  0  0
    2.7033   -0.1803    4.3363 H   0  0  0  0  0  0  0  0  0  0  0  0
    3.6237    1.2574    3.7903 H   0  0  0  0  0  0  0  0  0  0  0  0
    4.3692   -0.3712    3.7257 H   0  0  0  0  0  0  0  0  0  0  0  0
    2.5174   -1.4839    1.9078 C   0  0  0  0  0  0  0  0  0  0  0  0
    3.3909   -2.1437    2.0917 H   0  0  0  0  0  0  0  0  0  0  0  0
    2.1525   -1.6787    0.8802 H   0  0  0  0  0  0  0  0  0  0  0  0
    1.7127   -1.8097    2.5985 H   0  0  0  0  0  0  0  0  0  0  0  0
    6.2975    1.4249   -2.4798 C   0  0  0  0  0  0  0  0  0  0  0  0
    5.8024    1.5672   -3.4620 H   0  0  0  0  0  0  0  0  0  0  0  0
    7.2248    0.8401   -2.6481 H   0  0  0  0  0  0  0  0  0  0  0  0
    6.5963    2.4275   -2.1066 H   0  0  0  0  0  0  0  0  0  0  0  0
  2  7  1  0  0  0  0
  4  6  1  0  0  0  0
  5 18  1  0  0  0  0
  5  8  1  0  0  0  0
  6  1  1  1  0  0  0
  6  5  1  0  0  0  0
  7  3  1  0  0  0  0
  7  4  2  0  0  0  0
  8  9  1  0  0  0  0
 10  8  1  0  0  0  0
 11 14  1  0  0  0  0
 11 13  1  0  0  0  0
 11  8  1  0  0  0  0
 12 11  1  0  0  0  0
 15 16  1  0  0  0  0
 15 14  1  0  0  0  0
 15 18  1  0  0  0  0
 17 15  1  0  0  0  0
 18 20  1  0  0  0  0
 19 18  1  0  0  0  0
 21 22  1  6  0  0  0
 21  3  1  0  0  0  0
 21 34  1  0  0  0  0
 23 24  1  0  0  0  0
 23 21  1  0  0  0  0
 25 23  1  0  0  0  0
 26 27  1  6  0  0  0
 26 23  1  0  0  0  0
 26 28  1  0  0  0  0
 28 29  1  0  0  0  0
 28 31  1  0  0  0  0
 30 28  1  0  0  0  0
 31 34  1  0  0  0  0
 31 32  1  0  0  0  0
 33 31  1  0  0  0  0
 34 35  1  1  0  0  0
 34 36  1  0  0  0  0
 36 38  1  0  0  0  0
 37 36  1  0  0  0  0
 38 41  1  0  0  0  0
 38 40  1  0  0  0  0
 38 39  1  0  0  0  0
 42 43  1  0  0  0  0
 42 36  1  0  0  0  0
 42 45  1  0  0  0  0
 44 42  1  0  0  0  0
 46 49  1  0  0  0  0
 46 26  1  0  0  0  0
 47 46  1  0  0  0  0
 48 46  1  0  0  0  0
M  CHG  1   2  -1
M  END
