4,15
q = -1.0, confidence = 0.024

 39 40  0  0  0  0  0  0  0  0999 V2000
   -2.0179   -0.8825   -0.3915 P   0  0  1  0  0  0  0  0  0  0  0  0
   -3.2293   -0.1209   -1.1457 O   0  0  0  0  0  0  0  0  0  0  0  0
   -2.2903   -2.3711   -0.2919 O   0  0  0  0  0  0  0  0  0  0  0  0
   -0.6798   -0.4756   -1.1748 O   0  0  0  0  0  1  0  0  0  0  0  0
   -3.8058    2.2325   -0.9368 C   0  0  0  0  0  0  0  0  0  0  0  0
   -3.3683    2.3011    0.0792 H   0  0  0  0  0  0  0  0  0  0  0  0
   -4.8798    1.9798   -0.8305 H   0  0  0  0  0  0  0  0  0  0  0  0
   -3.7340    3.2306   -1.4137 H   0  0  0  0  0  0  0  0  0  0  0  0
   -3.0928    1.1901   -1.7878 C   0  0  0  0  0  0  0  0  0  0  0  0
   -2.0088    1.4260   -1.8535 H   0  0  0  0  0  0  0  0  0  0  0  0
   -3.6631    1.0542   -3.1907 C   0  0  0  0  0  0  0  0  0  0  0  0
   -3.1119    0.2827   -3.7616 H   0  0  0  0  0  0  0  0  0  0  0  0
   -3.5834    2.0163   -3.7346 H   0  0  0  0  0  0  0  0  0  0  0  0
   -4.7316    0.7628   -3.1489 H   0  0  0  0  0  0  0  0  0  0  0  0
    0.9618    0.2534    1.2301 S   0  0  0  0  0  0  0  0  0  0  0  0
   -1.9129   -0.0707    1.2553 C   0  0  0  0  0  0  0  0  0  0  0  0
   -3.1302    0.0803    1.9539 C   0  0  0  0  0  0  0  0  0  0  0  0
   -4.0564   -0.2852    1.4848 H   0  0  0  0  0  0  0  0  0  0  0  0
   -3.1790    0.6886    3.2156 C   0  0  0  0  0  0  0  0  0  0  0  0
   -4.1426    0.7870    3.7371 H   0  0  0  0  0  0  0  0  0  0  0  0
   -2.0027    1.1687    3.8103 C   0  0  0  0  0  0  0  0  0  0  0  0
   -2.0312    1.6467    4.8004 H   0  0  0  0  0  0  0  0  0  0  0  0
   -0.7790    1.0244    3.1427 C   0  0  0  0  0  0  0  0  0  0  0  0
    0.1520    1.3830    3.6077 H   0  0  0  0  0  0  0  0  0  0  0  0
   -0.7337    0.4130    1.8752 C   0  0  0  0  0  0  0  0  0  0  0  0
    1.1582    1.7479    0.2228 C   0  0  0  0  0  0  0  0  0  0  0  0
    0.0548    2.5722   -0.0346 C   0  0  0  0  0  0  0  0  0  0  0  0
   -0.9350    2.3000    0.3532 H   0  0  0  0  0  0  0  0  0  0  0  0
    0.2151    3.7490   -0.7805 C   0  0  0  0  0  0  0  0  0  0  0  0
   -0.6627    4.3822   -0.9792 H   0  0  0  0  0  0  0  0  0  0  0  0
    1.4786    4.1149   -1.2670 C   0  0  0  0  0  0  0  0  0  0  0  0
    1.6047    5.0381   -1.8506 H   0  0  0  0  0  0  0  0  0  0  0  0
    2.5835    3.2999   -1.0008 C   0  0  0  0  0  0  0  0  0  0  0  0
    3.5811    3.5753   -1.3687 H   0  0  0  0  0  0  0  0  0  0  0  0
    2.4465    2.1067   -0.2578 C   0  0  0  0  0  0  0  0  0  0  0  0
    3.6352    1.2550   -0.0005 C   0  0  0  0  0  0  0  0  0  0  0  0
    3.5936    0.1454    0.5350 O   0  0  0  0  0  0  0  0  0  0  0  0
    4.7877    1.8057   -0.4067 O   0  0  0  0  0  0  0  0  0  0  0  0
    5.5051    1.1701   -0.1937 H   0  0  0  0  0  0  0  0  0  0  0  0
  1  4  1  6  0  0  0
  1  3  2  0  0  0  0
  1 16  1  0  0  0  0
  2  1  1  0  0  0  0
  5  7  1  0  0  0  0
  5  6  1  0  0  0  0
  8  5  1  0  0  0  0
  9  2  1  0  0  0  0
  9  5  1  0  0  0  0
 10  9  1  0  0  0  0
 11 14  1  0  0  0  0
 11  9  1  0  0  0  0
 12 11  1  0  0  0  0
 13 11  1  0  0  0  0
 15 25  1  0  0  0  0
 16 25  2  0  0  0  0
 16 17  1  0  0  0  0
 17 19  2  0  0  0  0
 18 17  1  0  0  0  0
 19 20  1  0  0  0  0
 19 21  1  0  0  0  0
 21 22  1  0  0  0  0
 23 24  1  0  0  0  0
 23 21  2  0  0  0  0
 25 23  1  0  0  0  0
 26 15  1  0  0  0  0
 27 26  1  0  0  0  0
 27 28  1  0  0  0  0
 29 27  2  0  0  0  0
 30 29  1  0  0  0  0
 31 33  2  0  0  0  0
 31 29  1  0  0  0  0
 32 31  1  0  0  0  0
 33 35  1  0  0  0  0
 34 33  1  0  0  0  0
 35 36  1  0  0  0  0
 35 26  2  0  0  0  0
 36 37  2  0  0  0  0
 38 39  1  0  0  0  0
 38 36  1  0  0  0  0
M  END
