1,21
q = -2.0, confidence = 0.956

 21 21  0  0  0  0  0  0  0  0999 V2000
    0.5488    2.4803    0.0097 S   0  0  0  0  0  1  0  0  0  0  0  0
   -1.0528    3.1876   -0.2764 C   0  0  0  0  0  0  0  0  0  0  0  0
   -0.9612    4.5216   -0.7573 C   0  0  0  0  0  0  0  0  0  0  0  0
    0.0415    4.9237   -0.9679 H   0  0  0  0  0  0  0  0  0  0  0  0
   -2.0890    5.3184   -0.9516 C   0  0  0  0  0  0  0  0  0  0  0  0
   -1.9738    6.3496   -1.3197 H   0  0  0  0  0  0  0  0  0  0  0  0
   -3.3582    4.7909   -0.6739 C   0  0  0  0  0  0  0  0  0  0  0  0
   -4.2651    5.3989   -0.8084 H   0  0  0  0  0  0  0  0  0  0  0  0
   -3.4664    3.4722   -0.2223 C   0  0  0  0  0  0  0  0  0  0  0  0
   -4.4681    3.0872   -0.0020 H   0  0  0  0  0  0  0  0  0  0  0  0
   -2.3436    2.6346   -0.0323 C   0  0  0  0  0  0  0  0  0  0  0  0
   -2.5371    1.1832    0.4685 C   0  0  0  0  0  0  0  0  0  0  0  0
   -3.9523    0.6124    0.0495 C   0  0  0  0  0  0  0  0  0  0  0  0
   -4.1709    0.8205   -1.2687 F   0  0  0  0  0  0  0  0  0  0  0  0
   -4.9964    1.1533    0.7328 F   0  0  0  0  0  0  0  0  0  0  0  0
   -4.0182   -0.7190    0.2530 F   0  0  0  0  0  0  0  0  0  0  0  0
   -2.4608    1.1908    2.0410 C   0  0  0  0  0  0  0  0  0  0  0  0
   -1.1951    1.4080    2.4553 F   0  0  0  0  0  0  0  0  0  0  0  0
   -3.2409    2.1472    2.5895 F   0  0  0  0  0  0  0  0  0  0  0  0
   -2.8522    0.0017    2.5747 F   0  0  0  0  0  0  0  0  0  0  0  0
   -1.6953    0.2388   -0.0628 O   0  0  0  0  0  1  0  0  0  0  0  0
  2 11  1  0  0  0  0
  2  1  1  0  0  0  0
  3  2  2  0  0  0  0
  4  3  1  0  0  0  0
  5  3  1  0  0  0  0
  5  7  2  0  0  0  0
  6  5  1  0  0  0  0
  7  9  1  0  0  0  0
  8  7  1  0  0  0  0
  9 11  2  0  0  0  0
  9 10  1  0  0  0  0
 11 12  1  0  0  0  0
 12 17  1  0  0  0  0
 13 16  1  0  0  0  0
 13 12  1  0  0  0  0
 13 15  1  0  0  0  0
 14 13  1  0  0  0  0
 17 18  1  0  0  0  0
 17 20  1  0  0  0  0
 17 19  1  0  0  0  0
 21 12  1  0  0  0  0
M  END
