1,2
q = -2.0, confidence = 0.87

 17 16  0  0  1  0  0  0  0  0999 V2000
    1.1323   -2.0736    0.4848 S   0  0  0  0  0  1  0  0  0  0  0  0
    1.5204    0.5067   -1.2458 O   0  5  0  0  0  0  0  0  0  0  0  0
    3.5573    1.0595   -1.9542 O   0  0  0  0  0  0  0  0  0  0  0  0
    5.3826   -1.6628    1.5134 O   0  0  0  0  0  0  0  0  0  0  0  0
    4.8641   -0.6264   -0.4510 N   0  0  0  0  0  0  0  0  0  0  0  0
    2.8239    0.4003   -1.2132 C   0  0  0  0  0  0  0  0  0  0  0  0
    3.4382   -0.5916   -0.2076 C   0  0  1  0  0  0  0  0  0  0  0  0
    2.7916   -1.9810   -0.2982 C   0  0  0  0  0  0  0  0  0  0  0  0
    5.7473   -1.1164    0.4694 C   0  0  0  0  0  0  0  0  0  0  0  0
    7.2188   -0.9589    0.1065 C   0  0  0  0  0  0  0  0  0  0  0  0
    5.1528   -0.0312   -1.2379 H   0  0  0  0  0  0  0  0  0  0  0  0
    3.2480   -0.2264    0.8298 H   0  0  0  0  0  0  0  0  0  0  0  0
    2.7322   -2.3308   -1.3497 H   0  0  0  0  0  0  0  0  0  0  0  0
    3.4232   -2.6845    0.2790 H   0  0  0  0  0  0  0  0  0  0  0  0
    7.3915   -0.4279   -0.8494 H   0  0  0  0  0  0  0  0  0  0  0  0
    7.6815   -1.9642    0.0511 H   0  0  0  0  0  0  0  0  0  0  0  0
    7.7300   -0.4157    0.9254 H   0  0  0  0  0  0  0  0  0  0  0  0
  2  6  1  0  0  0  0
  3  6  2  0  0  0  0
  5  7  1  0  0  0  0
  5  9  1  0  0  0  0
  6  7  1  0  0  0  0
  7 12  1  1  0  0  0
  8  7  1  0  0  0  0
  8 14  1  0  0  0  0
  8  1  1  0  0  0  0
  9  4  2  0  0  0  0
 10  9  1  0  0  0  0
 10 17  1  0  0  0  0
 11  5  1  0  0  0  0
 13  8  1  0  0  0  0
 15 10  1  0  0  0  0
 16 10  1  0  0  0  0
M  CHG  1   2  -1
M  END
