1,3
q = -1.0, confidence = 0.0

 32 33  0  0  1  0  0  0  0  0999 V2000
    1.4844   -2.1593   -0.0734 S   0  0  0  0  0  1  0  0  0  0  0  0
    4.7882    5.8808   -1.0793 F   0  0  0  0  0  0  0  0  0  0  0  0
    1.2439    0.8002   -0.1053 O   0  5  0  0  0  0  0  0  0  0  0  0
    3.3478   -0.1519    0.3400 N   0  0  0  0  0  0  0  0  0  0  0  0
    3.9537   -2.2896    0.9278 N   0  0  0  0  0  0  0  0  0  0  0  0
    2.5171    0.8379   -0.0056 C   0  0  0  0  0  0  0  0  0  0  0  0
    2.9975   -1.4370    0.4456 C   0  0  2  0  0  3  0  0  0  0  0  0
    3.7832   -3.7376    1.0133 C   0  0  0  0  0  0  0  0  0  0  0  0
    2.7066   -3.9755    0.9252 H   0  0  0  0  0  0  0  0  0  0  0  0
    4.1246   -4.0587    2.0238 H   0  0  0  0  0  0  0  0  0  0  0  0
    4.6204   -4.4376   -0.0653 C   0  0  0  0  0  0  0  0  0  0  0  0
    4.2144   -4.1554   -1.0608 H   0  0  0  0  0  0  0  0  0  0  0  0
    4.5070   -5.5373    0.0318 H   0  0  0  0  0  0  0  0  0  0  0  0
    6.0956   -4.0252    0.0448 C   0  0  0  0  0  0  0  0  0  0  0  0
    6.5179   -4.4410    0.9877 H   0  0  0  0  0  0  0  0  0  0  0  0
    6.6876   -4.4667   -0.7834 H   0  0  0  0  0  0  0  0  0  0  0  0
    6.2447   -2.4974    0.0603 C   0  0  0  0  0  0  0  0  0  0  0  0
    7.2989   -2.2052    0.2495 H   0  0  0  0  0  0  0  0  0  0  0  0
    5.9662   -2.0779   -0.9309 H   0  0  0  0  0  0  0  0  0  0  0  0
    5.3399   -1.8590    1.1237 C   0  0  0  0  0  0  0  0  0  0  0  0
    5.6560   -2.1807    2.1416 H   0  0  0  0  0  0  0  0  0  0  0  0
    5.3615   -0.7570    1.0825 H   0  0  0  0  0  0  0  0  0  0  0  0
    3.1358    2.1681   -0.2825 C   0  0  0  0  0  0  0  0  0  0  0  0
    4.5283    2.3683   -0.1755 C   0  0  0  0  0  0  0  0  0  0  0  0
    5.1594    1.5200    0.1225 H   0  0  0  0  0  0  0  0  0  0  0  0
    5.0929    3.6199   -0.4433 C   0  0  0  0  0  0  0  0  0  0  0  0
    6.1751    3.7970   -0.3649 H   0  0  0  0  0  0  0  0  0  0  0  0
    4.2510    4.6749   -0.8213 C   0  0  0  0  0  0  0  0  0  0  0  0
    2.8643    4.5057   -0.9385 C   0  0  0  0  0  0  0  0  0  0  0  0
    2.2414    5.3595   -1.2414 H   0  0  0  0  0  0  0  0  0  0  0  0
    2.3129    3.2495   -0.6681 C   0  0  0  0  0  0  0  0  0  0  0  0
    1.2307    3.0756   -0.7542 H   0  0  0  0  0  0  0  0  0  0  0  0
  2 28  1  0  0  0  0
  3  6  1  0  0  0  0
  4  7  1  0  0  0  0
  5  8  1  0  0  0  0
  5 20  1  0  0  0  0
  6  4  2  0  0  0  0
  7  1  1  6  0  0  0
  7  5  1  0  0  0  0
  8 10  1  0  0  0  0
  9  8  1  0  0  0  0
 11 13  1  0  0  0  0
 11 14  1  0  0  0  0
 11  8  1  0  0  0  0
 12 11  1  0  0  0  0
 14 17  1  0  0  0  0
 14 15  1  0  0  0  0
 16 14  1  0  0  0  0
 17 18  1  0  0  0  0
 17 20  1  0  0  0  0
 19 17  1  0  0  0  0
 20 21  1  0  0  0  0
 22 20  1  0  0  0  0
 23 24  1  0  0  0  0
 23  6  1  0  0  0  0
 24 25  1  0  0  0  0
 26 27  1  0  0  0  0
 26 24  2  0  0  0  0
 28 26  1  0  0  0  0
 29 28  2  0  0  0  0
 29 31  1  0  0  0  0
 30 29  1  0  0  0  0
 31 23  2  0  0  0  0
 32 31  1  0  0  0  0
M  CHG  1   3  -1
M  END
