1,3
q = -1.0, confidence = 0.0

 31 31  0  0  1  0  0  0  0  0999 V2000
   -2.2787   -2.1611   -1.0531 S   0  0  0  0  0  1  0  0  0  0  0  0
   -3.1878    5.3296   -2.5053 F   0  0  0  0  0  0  0  0  0  0  0  0
   -0.5989    0.2570   -0.7363 O   0  5  0  0  0  0  0  0  0  0  0  0
    1.4455    4.4127   -2.4888 F   0  0  0  0  0  0  0  0  0  0  0  0
   -0.0586    2.6928   -1.8852 C   0  0  0  0  0  0  0  0  0  0  0  0
    0.7728    1.9952   -1.7273 H   0  0  0  0  0  0  0  0  0  0  0  0
   -2.9017    0.5178   -0.9943 N   0  0  0  0  0  0  0  0  0  0  0  0
   -2.1728    4.4696   -2.3010 C   0  0  0  0  0  0  0  0  0  0  0  0
   -1.3858    2.2816   -1.6519 C   0  0  0  0  0  0  0  0  0  0  0  0
   -2.4560    3.1710   -1.8701 C   0  0  0  0  0  0  0  0  0  0  0  0
   -3.4895    2.8525   -1.6853 H   0  0  0  0  0  0  0  0  0  0  0  0
    0.1783    4.0051   -2.2980 C   0  0  0  0  0  0  0  0  0  0  0  0
   -0.8624    4.9174   -2.5166 C   0  0  0  0  0  0  0  0  0  0  0  0
   -0.6591    5.9470   -2.8391 H   0  0  0  0  0  0  0  0  0  0  0  0
   -1.6244    0.9064   -1.1105 C   0  0  0  0  0  0  0  0  0  0  0  0
   -3.2931   -0.7327   -0.7504 C   0  0  1  0  0  3  0  0  0  0  0  0
   -4.5807   -0.9231   -0.3753 N   0  0  0  0  0  0  0  0  0  0  0  0
   -5.4699    0.2341   -0.2115 C   0  0  0  0  0  0  0  0  0  0  0  0
   -6.5057   -0.1174   -0.3960 H   0  0  0  0  0  0  0  0  0  0  0  0
   -5.2089    0.9662   -0.9996 H   0  0  0  0  0  0  0  0  0  0  0  0
   -5.3410    0.8791    1.1680 C   0  0  0  0  0  0  0  0  0  0  0  0
   -6.0350    1.7389    1.2567 H   0  0  0  0  0  0  0  0  0  0  0  0
   -5.5808    0.1593    1.9770 H   0  0  0  0  0  0  0  0  0  0  0  0
   -4.3055    1.2396    1.3238 H   0  0  0  0  0  0  0  0  0  0  0  0
   -5.1234   -2.2413   -0.0420 C   0  0  0  0  0  0  0  0  0  0  0  0
   -4.2858   -2.8628    0.3326 H   0  0  0  0  0  0  0  0  0  0  0  0
   -5.8387   -2.0980    0.7946 H   0  0  0  0  0  0  0  0  0  0  0  0
   -5.8002   -2.9263   -1.2285 C   0  0  0  0  0  0  0  0  0  0  0  0
   -6.2298   -3.8986   -0.9148 H   0  0  0  0  0  0  0  0  0  0  0  0
   -6.6216   -2.3086   -1.6455 H   0  0  0  0  0  0  0  0  0  0  0  0
   -5.0633   -3.1179   -2.0333 H   0  0  0  0  0  0  0  0  0  0  0  0
  2  8  1  0  0  0  0
  4 12  1  0  0  0  0
  5  6  1  0  0  0  0
  5  9  1  0  0  0  0
  7 16  1  0  0  0  0
  8 10  1  0  0  0  0
  9 15  1  0  0  0  0
 10 11  1  0  0  0  0
 10  9  2  0  0  0  0
 12  5  2  0  0  0  0
 13  8  2  0  0  0  0
 13 12  1  0  0  0  0
 14 13  1  0  0  0  0
 15  7  2  0  0  0  0
 15  3  1  0  0  0  0
 16  1  1  6  0  0  0
 16 17  1  0  0  0  0
 17 18  1  0  0  0  0
 17 25  1  0  0  0  0
 18 21  1  0  0  0  0
 19 18  1  0  0  0  0
 20 18  1  0  0  0  0
 21 22  1  0  0  0  0
 21 24  1  0  0  0  0
 21 23  1  0  0  0  0
 25 26  1  0  0  0  0
 25 27  1  0  0  0  0
 28 29  1  0  0  0  0
 28 25  1  0  0  0  0
 30 28  1  0  0  0  0
 31 28  1  0  0  0  0
M  CHG  1   3  -1
M  END
