1,2
q = 0.0, confidence = 0.632

 27 28  0  0  0  0  0  0  0  0999 V2000
    0.2614   -1.6814   -1.7254 S   0  0  0  0  0  1  0  0  0  0  0  0
    1.2298    0.9222   -1.0330 C   0  0  0  0  0  3  0  0  0  0  0  0
    1.2327    2.1048   -1.7984 C   0  0  0  0  0  0  0  0  0  0  0  0
    0.2874    2.6178   -2.0302 H   0  0  0  0  0  0  0  0  0  0  0  0
    2.4249    2.6416   -2.3117 C   0  0  0  0  0  0  0  0  0  0  0  0
    2.4031    3.5725   -2.9010 H   0  0  0  0  0  0  0  0  0  0  0  0
    3.6312    1.9700   -2.1013 C   0  0  0  0  0  0  0  0  0  0  0  0
    4.5633    2.3602   -2.5406 H   0  0  0  0  0  0  0  0  0  0  0  0
    3.6746    0.7621   -1.3730 C   0  0  0  0  0  0  0  0  0  0  0  0
    2.4718    0.2591   -0.7947 C   0  0  0  0  0  0  0  0  0  0  0  0
    2.4660   -1.0526   -0.0908 C   0  0  0  0  0  0  0  0  0  0  0  0
    3.3195   -1.3618    1.0018 C   0  0  0  0  0  0  0  0  0  0  0  0
    3.3580   -2.6806    1.5051 C   0  0  0  0  0  0  0  0  0  0  0  0
    4.0214   -2.9094    2.3544 H   0  0  0  0  0  0  0  0  0  0  0  0
    2.5681   -3.6886    0.9409 C   0  0  0  0  0  0  0  0  0  0  0  0
    2.6287   -4.7199    1.3223 H   0  0  0  0  0  0  0  0  0  0  0  0
    1.6589   -3.3734   -0.0773 C   0  0  0  0  0  0  0  0  0  0  0  0
    0.9842   -4.1409   -0.4853 H   0  0  0  0  0  0  0  0  0  0  0  0
    1.5575   -2.0541   -0.5662 C   0  0  0  0  0  0  0  0  0  0  0  0
    4.9913    0.0211   -1.3162 C   0  0  0  0  0  0  0  0  0  0  0  0
    4.8552   -1.0571   -1.1118 H   0  0  0  0  0  0  0  0  0  0  0  0
    5.6626    0.4236   -0.5283 H   0  0  0  0  0  0  0  0  0  0  0  0
    5.5309    0.1272   -2.2786 H   0  0  0  0  0  0  0  0  0  0  0  0
    4.1644   -0.3152    1.6916 C   0  0  0  0  0  0  0  0  0  0  0  0
    3.9252   -0.2869    2.7756 H   0  0  0  0  0  0  0  0  0  0  0  0
    3.9984    0.6964    1.2809 H   0  0  0  0  0  0  0  0  0  0  0  0
    5.2470   -0.5442    1.6098 H   0  0  0  0  0  0  0  0  0  0  0  0
  1 19  1  0  0  0  0
  2 10  1  0  0  0  0
  3  2  2  0  0  0  0
  4  3  1  0  0  0  0
  5  7  2  0  0  0  0
  5  3  1  0  0  0  0
  6  5  1  0  0  0  0
  7  9  1  0  0  0  0
  8  7  1  0  0  0  0
  9 20  1  0  0  0  0
  9 10  2  0  0  0  0
 10 11  1  0  0  0  0
 11 12  1  0  0  0  0
 12 13  2  0  0  0  0
 12 24  1  0  0  0  0
 13 14  1  0  0  0  0
 15 16  1  0  0  0  0
 15 13  1  0  0  0  0
 17 15  2  0  0  0  0
 18 17  1  0  0  0  0
 19 11  2  0  0  0  0
 19 17  1  0  0  0  0
 20 21  1  0  0  0  0
 20 22  1  0  0  0  0
 23 20  1  0  0  0  0
 24 25  1  0  0  0  0
 26 24  1  0  0  0  0
 27 24  1  0  0  0  0
M  END
