1,2
q = -2.0, confidence = 0.564

 15 14  0  0  0  0  0  0  0  0999 V2000
    1.0552   -2.0776   -0.8696 S   0  0  0  0  0  1  0  0  0  0  0  0
    1.5177    0.9902   -1.1499 C   0  0  0  0  0  3  0  0  0  0  0  0
    1.3337    2.0825   -1.2080 H   0  0  0  0  0  0  0  0  0  0  0  0
    2.7263    0.6579   -1.7566 C   0  0  0  0  0  0  0  0  0  0  0  0
    3.3034   -0.6720   -1.8300 C   0  0  0  0  0  0  0  0  0  0  0  0
    2.6466   -1.8400   -1.4767 C   0  0  0  0  0  0  0  0  0  0  0  0
    3.1859   -2.7925   -1.6269 H   0  0  0  0  0  0  0  0  0  0  0  0
    3.5235    1.7773   -2.4066 C   0  0  0  0  0  0  0  0  0  0  0  0
    2.9818    2.7400   -2.3328 H   0  0  0  0  0  0  0  0  0  0  0  0
    3.7236    1.5842   -3.4824 H   0  0  0  0  0  0  0  0  0  0  0  0
    4.5174    1.9158   -1.9282 H   0  0  0  0  0  0  0  0  0  0  0  0
    4.7103   -0.8175   -2.3727 C   0  0  0  0  0  0  0  0  0  0  0  0
    5.0403   -1.8738   -2.3534 H   0  0  0  0  0  0  0  0  0  0  0  0
    5.4448   -0.2231   -1.7880 H   0  0  0  0  0  0  0  0  0  0  0  0
    4.7886   -0.4599   -3.4215 H   0  0  0  0  0  0  0  0  0  0  0  0
  3  2  1  0  0  0  0
  4  2  2  0  0  0  0
  5  4  1  0  0  0  0
  5  6  2  0  0  0  0
  6  1  1  0  0  0  0
  7  6  1  0  0  0  0
  8  9  1  0  0  0  0
  8 11  1  0  0  0  0
  8  4  1  0  0  0  0
 10  8  1  0  0  0  0
 12 13  1  0  0  0  0
 12  5  1  0  0  0  0
 12 14  1  0  0  0  0
 15 12  1  0  0  0  0
M  END
