1,7
q = -1.0, confidence = 0.002

 19 18  0  0  1  0  0  0  0  0999 V2000
    1.9842    0.0897   -1.2191 S   0  0  0  0  0  1  0  0  0  0  0  0
    4.2069   -1.2322   -0.4896 N   0  0  0  0  0  0  0  0  0  0  0  0
    2.3518   -1.4462    0.9472 N   0  0  0  0  0  0  0  0  0  0  0  0
    2.9018   -0.9300   -0.1738 C   0  0  2  0  0  3  0  0  0  0  0  0
    4.6586   -1.0539   -1.8633 C   0  0  0  0  0  0  0  0  0  0  0  0
    5.2588   -1.0462    0.5108 C   0  0  0  0  0  0  0  0  0  0  0  0
    1.1097   -0.8897    1.4990 C   0  0  0  0  0  3  0  0  0  0  0  0
    2.9122   -2.6047    1.6274 C   0  0  0  0  0  0  0  0  0  0  0  0
    5.5686   -1.6670   -2.0207 H   0  0  0  0  0  0  0  0  0  0  0  0
    3.8735   -1.3879   -2.5665 H   0  0  0  0  0  0  0  0  0  0  0  0
    4.9023    0.0092   -2.0898 H   0  0  0  0  0  0  0  0  0  0  0  0
    5.8471   -0.1321    0.2725 H   0  0  0  0  0  0  0  0  0  0  0  0
    4.8254   -0.9042    1.5151 H   0  0  0  0  0  0  0  0  0  0  0  0
    5.9522   -1.9130    0.5341 H   0  0  0  0  0  0  0  0  0  0  0  0
    2.0812   -3.2935    1.8829 H   0  0  0  0  0  0  0  0  0  0  0  0
    3.6228   -3.1284    0.9611 H   0  0  0  0  0  0  0  0  0  0  0  0
    3.4289   -2.3364    2.5744 H   0  0  0  0  0  0  0  0  0  0  0  0
    1.3469   -0.1745    2.3155 H   0  0  0  0  0  0  0  0  0  0  0  0
    0.5110   -1.7328    1.9038 H   0  0  0  0  0  0  0  0  0  0  0  0
  2  4  1  0  0  0  0
  2  6  1  0  0  0  0
  3  7  1  0  0  0  0
  3  8  1  0  0  0  0
  4  1  1  6  0  0  0
  4  3  1  0  0  0  0
  5  2  1  0  0  0  0
  6 14  1  0  0  0  0
  6 13  1  0  0  0  0
  7 19  1  0  0  0  0
  7 18  1  0  0  0  0
  8 15  1  0  0  0  0
  8 17  1  0  0  0  0
  9  5  1  0  0  0  0
 10  5  1  0  0  0  0
 11  5  1  0  0  0  0
 12  6  1  0  0  0  0
 16  8  1  0  0  0  0
M  END
