1,3
q = -2.0, confidence = 0.62

 10  9  0  0  0  0  0  0  0  0999 V2000
    2.5163   -0.2446    0.0420 S   0  0  0  0  0  1  0  0  0  0  0  0
    5.8843   -1.6619    0.1348 N   0  0  0  0  0  0  0  0  0  0  0  0
    0.2043   -2.4620   -0.2071 C   0  0  0  0  0  3  0  0  0  0  0  0
   -0.7682   -2.9780   -0.3156 H   0  0  0  0  0  0  0  0  0  0  0  0
    1.2748   -3.3273   -0.2266 C   0  0  0  0  0  0  0  0  0  0  0  0
    1.0424   -4.4030   -0.3448 H   0  0  0  0  0  0  0  0  0  0  0  0
    2.6753   -3.0516   -0.1206 C   0  0  0  0  0  0  0  0  0  0  0  0
    3.3552   -3.9182   -0.1425 H   0  0  0  0  0  0  0  0  0  0  0  0
    3.2844   -1.8135   -0.0085 C   0  0  0  0  0  0  0  0  0  0  0  0
    4.7118   -1.7378    0.0690 C   0  0  0  0  0  0  0  0  0  0  0  0
  4  3  1  0  0  0  0
  5  3  2  0  0  0  0
  5  7  1  0  0  0  0
  6  5  1  0  0  0  0
  7  9  2  0  0  0  0
  8  7  1  0  0  0  0
  9  1  1  0  0  0  0
  9 10  1  0  0  0  0
 10  2  3  0  0  0  0
M  END
