1,3
q = 0.0, confidence = 0.578

 12 11  0  0  0  0  0  0  0  0999 V2000
    0.9302   -2.0963   -0.6929 S   0  0  0  0  0  0  0  0  0  0  0  0
    3.0366   -0.3677    0.7953 S   0  0  0  0  0  0  0  0  0  0  0  0
    1.8217   -0.5147   -0.4924 C   0  0  0  0  0  3  0  0  0  0  0  0
    4.5352   -0.9892   -0.0434 C   0  0  0  0  0  0  0  0  0  0  0  0
   -0.0391   -1.3261   -2.1449 B   0  0  0  0  0  0  0  0  0  0  0  0
    2.2042   -0.1783   -1.4788 H   0  0  0  0  0  0  0  0  0  0  0  0
    4.4118   -2.0545   -0.3231 H   0  0  0  0  0  0  0  0  0  0  0  0
    4.7627   -0.3912   -0.9491 H   0  0  0  0  0  0  0  0  0  0  0  0
    5.3767   -0.8960    0.6705 H   0  0  0  0  0  0  0  0  0  0  0  0
   -0.4621   -0.1261   -1.7264 H   0  0  0  0  0  0  0  0  0  0  0  0
   -1.0063   -2.0043   -2.4621 H   0  0  0  0  0  0  0  0  0  0  0  0
    0.7165   -0.9783   -3.0473 H   0  0  0  0  0  0  0  0  0  0  0  0
  1  3  1  0  0  0  0
  3  2  1  0  0  0  0
  4  9  1  0  0  0  0
  4  2  1  0  0  0  0
  5 10  1  0  0  0  0
  5  1  1  0  0  0  0
  6  3  1  0  0  0  0
  7  4  1  0  0  0  0
  8  4  1  0  0  0  0
 11  5  1  0  0  0  0
 12  5  1  0  0  0  0
M  END
