1,7
q = -2.0, confidence = 0.816

 13 12  0  0  0  0  0  0  0  0999 V2000
   -1.9801    1.5350    0.1020 S   0  0  0  0  0  1  0  0  0  0  0  0
   -3.5696    0.8421    0.0711 C   0  0  0  0  0  0  0  0  0  0  0  0
   -4.3524    1.6123    0.1377 H   0  0  0  0  0  0  0  0  0  0  0  0
   -3.9168   -0.4842   -0.0347 C   0  0  0  0  0  0  0  0  0  0  0  0
   -3.0085   -1.5990   -0.1585 C   0  0  0  0  0  0  0  0  0  0  0  0
   -3.5501   -2.5575   -0.2685 H   0  0  0  0  0  0  0  0  0  0  0  0
   -1.6387   -1.6231   -0.1661 C   0  0  0  0  0  3  0  0  0  0  0  0
   -1.2323   -2.6450   -0.2854 H   0  0  0  0  0  0  0  0  0  0  0  0
   -5.2335   -0.9121   -0.0502 O   0  0  0  0  0  0  0  0  0  0  0  0
   -6.2500    0.0518    0.0534 C   0  0  0  0  0  0  0  0  0  0  0  0
   -7.2123   -0.4948    0.0239 H   0  0  0  0  0  0  0  0  0  0  0  0
   -6.2269    0.7840   -0.7888 H   0  0  0  0  0  0  0  0  0  0  0  0
   -6.1923    0.6267    1.0083 H   0  0  0  0  0  0  0  0  0  0  0  0
  2  1  1  0  0  0  0
  2  3  1  0  0  0  0
  4  2  2  0  0  0  0
  5  4  1  0  0  0  0
  6  5  1  0  0  0  0
  7  5  2  0  0  0  0
  8  7  1  0  0  0  0
  9  4  1  0  0  0  0
  9 10  1  0  0  0  0
 10 13  1  0  0  0  0
 11 10  1  0  0  0  0
 12 10  1  0  0  0  0
M  END
