1,8
q = -2.0, confidence = 0.75

 13 12  0  0  0  0  0  0  0  0999 V2000
   -1.4017    2.4260    0.0563 S   0  0  0  0  0  1  0  0  0  0  0  0
   -0.5103    3.9063    0.1570 C   0  0  0  0  0  0  0  0  0  0  0  0
   -1.1630    4.7903    0.2536 H   0  0  0  0  0  0  0  0  0  0  0  0
    0.8466    4.0717    0.1231 C   0  0  0  0  0  0  0  0  0  0  0  0
    1.2100    5.1101    0.2027 H   0  0  0  0  0  0  0  0  0  0  0  0
    1.8649    3.0683   -0.0362 C   0  0  0  0  0  0  0  0  0  0  0  0
    2.8820    3.4877   -0.1020 H   0  0  0  0  0  0  0  0  0  0  0  0
    1.7342    1.6985   -0.1406 C   0  0  0  0  0  3  0  0  0  0  0  0
    2.8753    0.9283   -0.3612 O   0  0  0  0  0  0  0  0  0  0  0  0
    4.1447    1.5394   -0.4639 C   0  0  0  0  0  0  0  0  0  0  0  0
    4.8708    0.7233   -0.6533 H   0  0  0  0  0  0  0  0  0  0  0  0
    4.4346    2.0689    0.4728 H   0  0  0  0  0  0  0  0  0  0  0  0
    4.1928    2.2668   -1.3058 H   0  0  0  0  0  0  0  0  0  0  0  0
  1  2  1  0  0  0  0
  2  3  1  0  0  0  0
  4  2  2  0  0  0  0
  4  5  1  0  0  0  0
  6  4  1  0  0  0  0
  7  6  1  0  0  0  0
  8  6  2  0  0  0  0
  9  8  1  0  0  0  0
 10  9  1  0  0  0  0
 10 12  1  0  0  0  0
 11 10  1  0  0  0  0
 13 10  1  0  0  0  0
M  END
