1,3
q = 0.0, confidence = 0.998

 36 37  0  0  0  0  0  0  0  0999 V2000
   -0.3487    0.2814   -0.9812 S   0  0  0  0  0  0  0  0  0  0  0  0
    2.5164   -2.4878    0.1110 N   0  0  0  0  0  0  0  0  0  0  0  0
    1.5759   -1.5235    0.1372 C   0  0  0  0  0  2  0  0  0  0  0  0
    0.1991   -2.0241    0.1761 C   0  0  0  0  0  0  0  0  0  0  0  0
   -0.0269   -3.0528    0.5034 H   0  0  0  0  0  0  0  0  0  0  0  0
   -0.8596   -1.2631   -0.2410 C   0  0  0  0  0  0  0  0  0  0  0  0
   -2.2754   -1.6536   -0.2095 C   0  0  0  0  0  0  0  0  0  0  0  0
   -3.1836   -1.1981   -1.1940 C   0  0  0  0  0  0  0  0  0  0  0  0
   -2.8180   -0.5441   -1.9992 H   0  0  0  0  0  0  0  0  0  0  0  0
   -4.5287   -1.5823   -1.1548 C   0  0  0  0  0  0  0  0  0  0  0  0
   -5.2197   -1.2225   -1.9319 H   0  0  0  0  0  0  0  0  0  0  0  0
   -4.9961   -2.4211   -0.1298 C   0  0  0  0  0  0  0  0  0  0  0  0
   -6.0556   -2.7166   -0.0969 H   0  0  0  0  0  0  0  0  0  0  0  0
   -4.1065   -2.8731    0.8593 C   0  0  0  0  0  0  0  0  0  0  0  0
   -4.4685   -3.5184    1.6739 H   0  0  0  0  0  0  0  0  0  0  0  0
   -2.7601   -2.4923    0.8232 C   0  0  0  0  0  0  0  0  0  0  0  0
   -2.0743   -2.8205    1.6188 H   0  0  0  0  0  0  0  0  0  0  0  0
   -1.5207    1.4701   -0.3136 C   0  0  0  0  0  0  0  0  0  0  0  0
   -1.8294    2.5700   -1.1322 C   0  0  0  0  0  0  0  0  0  0  0  0
   -1.3876    2.6480   -2.1369 H   0  0  0  0  0  0  0  0  0  0  0  0
   -2.6934    3.5657   -0.6530 C   0  0  0  0  0  0  0  0  0  0  0  0
   -2.9287    4.4320   -1.2892 H   0  0  0  0  0  0  0  0  0  0  0  0
   -3.2562    3.4543    0.6274 C   0  0  0  0  0  0  0  0  0  0  0  0
   -3.9382    4.2334    0.9994 H   0  0  0  0  0  0  0  0  0  0  0  0
   -2.9428    2.3497    1.4367 C   0  0  0  0  0  0  0  0  0  0  0  0
   -3.3754    2.2619    2.4447 H   0  0  0  0  0  0  0  0  0  0  0  0
   -2.0665    1.3577    0.9769 C   0  0  0  0  0  0  0  0  0  0  0  0
   -1.8047    0.5072    1.6203 H   0  0  0  0  0  0  0  0  0  0  0  0
    2.2248   -3.9192   -0.0560 C   0  0  0  0  0  0  0  0  0  0  0  0
    2.0112   -4.4106    0.9179 H   0  0  0  0  0  0  0  0  0  0  0  0
    3.1048   -4.4168   -0.5040 H   0  0  0  0  0  0  0  0  0  0  0  0
    1.3653   -4.0744   -0.7330 H   0  0  0  0  0  0  0  0  0  0  0  0
    3.9440   -2.1944    0.1748 C   0  0  0  0  0  0  0  0  0  0  0  0
    4.0992   -1.2073    0.6340 H   0  0  0  0  0  0  0  0  0  0  0  0
    4.3912   -2.1847   -0.8423 H   0  0  0  0  0  0  0  0  0  0  0  0
    4.4548   -2.9697    0.7803 H   0  0  0  0  0  0  0  0  0  0  0  0
  1 18  1  0  0  0  0
  1  6  1  0  0  0  0
  2  3  1  0  0  0  0
  2 33  1  0  0  0  0
  3  4  1  0  0  0  0
  4  5  1  0  0  0  0
  6  7  1  0  0  0  0
  6  4  2  0  0  0  0
  7 16  1  0  0  0  0
  8 10  1  0  0  0  0
  8  7  2  0  0  0  0
  9  8  1  0  0  0  0
 10 12  2  0  0  0  0
 11 10  1  0  0  0  0
 12 13  1  0  0  0  0
 12 14  1  0  0  0  0
 14 15  1  0  0  0  0
 16 14  2  0  0  0  0
 16 17  1  0  0  0  0
 18 27  1  0  0  0  0
 19 21  1  0  0  0  0
 19 18  2  0  0  0  0
 20 19  1  0  0  0  0
 21 23  2  0  0  0  0
 22 21  1  0  0  0  0
 23 24  1  0  0  0  0
 23 25  1  0  0  0  0
 25 26  1  0  0  0  0
 27 25  2  0  0  0  0
 27 28  1  0  0  0  0
 29  2  1  0  0  0  0
 29 30  1  0  0  0  0
 31 29  1  0  0  0  0
 32 29  1  0  0  0  0
 33 34  1  0  0  0  0
 33 36  1  0  0  0  0
 35 33  1  0  0  0  0
M  END
