1,8
q = -2.0, confidence = 0.798

 17 17  0  0  0  0  0  0  0  0999 V2000
    1.4707    0.1015   -1.4067 S   0  0  0  0  0  1  0  0  0  0  0  0
    2.7942   -0.0636   -0.2404 C   0  0  0  0  0  0  0  0  0  0  0  0
    2.4903   -0.1882    1.1384 C   0  0  0  0  0  0  0  0  0  0  0  0
    3.5600   -0.2957    2.0511 C   0  0  0  0  0  0  0  0  0  0  0  0
    4.8940   -0.2836    1.6210 C   0  0  0  0  0  0  0  0  0  0  0  0
    5.1756   -0.1640    0.2500 C   0  0  0  0  0  0  0  0  0  0  0  0
    4.1442   -0.0535   -0.6982 C   0  0  0  0  0  0  0  0  0  0  0  0
    1.0544   -0.2208    1.6184 C   0  0  0  0  0  3  0  0  0  0  0  0
    4.4419    0.0801   -2.1667 C   0  0  0  0  0  0  0  0  0  0  0  0
    3.3284   -0.3908    3.1254 H   0  0  0  0  0  0  0  0  0  0  0  0
    5.7148   -0.3676    2.3497 H   0  0  0  0  0  0  0  0  0  0  0  0
    6.2210   -0.1538   -0.0995 H   0  0  0  0  0  0  0  0  0  0  0  0
    0.9361    0.5448    2.4213 H   0  0  0  0  0  0  0  0  0  0  0  0
    0.9161   -1.1795    2.1607 H   0  0  0  0  0  0  0  0  0  0  0  0
    3.9660   -0.7392   -2.7479 H   0  0  0  0  0  0  0  0  0  0  0  0
    4.0143    1.0204   -2.5776 H   0  0  0  0  0  0  0  0  0  0  0  0
    5.5315    0.0695   -2.3652 H   0  0  0  0  0  0  0  0  0  0  0  0
  1  2  1  0  0  0  0
  2  3  1  0  0  0  0
  3  8  1  0  0  0  0
  3  4  2  0  0  0  0
  4 10  1  0  0  0  0
  5  4  1  0  0  0  0
  5 11  1  0  0  0  0
  6  5  2  0  0  0  0
  7  2  2  0  0  0  0
  7  6  1  0  0  0  0
  8 14  1  0  0  0  0
  8 13  1  0  0  0  0
  9  7  1  0  0  0  0
 12  6  1  0  0  0  0
 15  9  1  0  0  0  0
 16  9  1  0  0  0  0
 17  9  1  0  0  0  0
M  END
