1,4
q = 0.0, confidence = 0.996

 38 39  0  0  0  0  0  0  0  0999 V2000
   -0.7065    1.3357   -1.6410 S   0  0  0  0  0  0  0  0  0  0  0  0
   -1.5990    1.5636    1.4528 N   0  0  0  0  0  0  0  0  0  0  0  0
   -0.2847    0.0759    2.3211 N   0  0  0  0  0  0  0  0  0  0  0  0
   -1.0622    0.3243    1.2266 C   0  0  0  0  0  2  0  0  0  0  0  0
   -0.3235    1.1447    3.2043 C   0  0  0  0  0  0  0  0  0  0  0  0
    0.2222    1.1333    4.1524 H   0  0  0  0  0  0  0  0  0  0  0  0
   -1.1525    2.0931    2.6588 C   0  0  0  0  0  0  0  0  0  0  0  0
   -1.4833    3.0648    3.0370 H   0  0  0  0  0  0  0  0  0  0  0  0
   -2.3997    2.2400    0.4445 C   0  0  0  0  0  0  0  0  0  0  0  0
   -2.9056    3.1068    0.9151 H   0  0  0  0  0  0  0  0  0  0  0  0
   -3.1785    1.5308    0.0984 H   0  0  0  0  0  0  0  0  0  0  0  0
   -1.5610    2.7119   -0.7470 C   0  0  0  0  0  0  0  0  0  0  0  0
   -0.8093    3.4715   -0.4593 H   0  0  0  0  0  0  0  0  0  0  0  0
   -2.2270    3.1642   -1.5081 H   0  0  0  0  0  0  0  0  0  0  0  0
    1.0334    1.5236   -1.1943 C   0  0  0  0  0  0  0  0  0  0  0  0
    1.5098    2.2573   -0.0959 C   0  0  0  0  0  0  0  0  0  0  0  0
    0.8256    2.7947    0.5758 H   0  0  0  0  0  0  0  0  0  0  0  0
    2.8888    2.2760    0.1703 C   0  0  0  0  0  0  0  0  0  0  0  0
    3.2624    2.8526    1.0301 H   0  0  0  0  0  0  0  0  0  0  0  0
    3.7798    1.5528   -0.6358 C   0  0  0  0  0  0  0  0  0  0  0  0
    4.8576    1.5646   -0.4160 H   0  0  0  0  0  0  0  0  0  0  0  0
    3.2879    0.8031   -1.7179 C   0  0  0  0  0  0  0  0  0  0  0  0
    3.9774    0.2193   -2.3460 H   0  0  0  0  0  0  0  0  0  0  0  0
    1.9177    0.7874   -2.0077 C   0  0  0  0  0  0  0  0  0  0  0  0
    1.5146    0.1738   -2.8288 H   0  0  0  0  0  0  0  0  0  0  0  0
    0.5550   -1.1207    2.4662 C   0  0  0  0  0  0  0  0  0  0  0  0
   -0.0976   -1.9876    2.2342 H   0  0  0  0  0  0  0  0  0  0  0  0
    0.8700   -1.1771    3.5271 H   0  0  0  0  0  0  0  0  0  0  0  0
    1.7491   -1.1031    1.5112 C   0  0  0  0  0  0  0  0  0  0  0  0
    2.4543   -0.2880    1.7855 H   0  0  0  0  0  0  0  0  0  0  0  0
    1.3649   -0.8561    0.4965 H   0  0  0  0  0  0  0  0  0  0  0  0
    2.4679   -2.4514    1.4480 C   0  0  0  0  0  0  0  0  0  0  0  0
    2.8433   -2.7303    2.4584 H   0  0  0  0  0  0  0  0  0  0  0  0
    1.7232   -3.2274    1.1666 H   0  0  0  0  0  0  0  0  0  0  0  0
    3.6190   -2.4530    0.4418 C   0  0  0  0  0  0  0  0  0  0  0  0
    3.2473   -2.2275   -0.5791 H   0  0  0  0  0  0  0  0  0  0  0  0
    4.1290   -3.4363    0.4056 H   0  0  0  0  0  0  0  0  0  0  0  0
    4.3805   -1.6850    0.6937 H   0  0  0  0  0  0  0  0  0  0  0  0
  1 15  1  0  0  0  0
  1 12  1  0  0  0  0
  2  7  1  0  0  0  0
  3 26  1  0  0  0  0
  3  5  1  0  0  0  0
  4  2  1  0  0  0  0
  4  3  1  0  0  0  0
  5  6  1  0  0  0  0
  7  8  1  0  0  0  0
  7  5  2  0  0  0  0
  9 10  1  0  0  0  0
  9  2  1  0  0  0  0
 11  9  1  0  0  0  0
 12 13  1  0  0  0  0
 12  9  1  0  0  0  0
 14 12  1  0  0  0  0
 15 16  1  0  0  0  0
 16 18  2  0  0  0  0
 16 17  1  0  0  0  0
 18 19  1  0  0  0  0
 20 21  1  0  0  0  0
 20 18  1  0  0  0  0
 22 20  2  0  0  0  0
 23 22  1  0  0  0  0
 24 22  1  0  0  0  0
 24 15  2  0  0  0  0
 25 24  1  0  0  0  0
 26 28  1  0  0  0  0
 27 26  1  0  0  0  0
 29 30  1  0  0  0  0
 29 26  1  0  0  0  0
 31 29  1  0  0  0  0
 32 29  1  0  0  0  0
 32 33  1  0  0  0  0
 34 32  1  0  0  0  0
 35 38  1  0  0  0  0
 35 32  1  0  0  0  0
 36 35  1  0  0  0  0
 37 35  1  0  0  0  0
M  END
