1,5
q = -1.0, confidence = 0.0

 29 31  0  0  0  0  0  0  0  0999 V2000
    2.7432   -2.4906   -1.3510 S   0  0  0  0  0  0  0  0  0  0  0  0
    2.4074   -3.5378    1.4580 S   0  0  0  0  0  0  0  0  0  0  0  0
   -4.2941   -0.5244   -1.4866 S   0  0  0  0  0  0  0  0  0  0  0  0
   -4.2995   -1.4876    1.3693 S   0  0  0  0  0  0  0  0  0  0  0  0
   -0.0043   -1.7784   -0.5551 C   0  0  0  0  0  3  0  0  0  0  0  0
    0.2980   -3.1645   -0.3938 C   0  0  0  0  0  0  0  0  0  0  0  0
   -0.7326   -4.1213   -0.3162 C   0  0  0  0  0  0  0  0  0  0  0  0
   -0.4770   -5.1889   -0.2210 H   0  0  0  0  0  0  0  0  0  0  0  0
   -2.0748   -3.7282   -0.3447 C   0  0  0  0  0  0  0  0  0  0  0  0
   -2.8740   -4.4805   -0.2526 H   0  0  0  0  0  0  0  0  0  0  0  0
   -2.4013   -2.3660   -0.4812 C   0  0  0  0  0  0  0  0  0  0  0  0
   -1.3640   -1.4229   -0.6230 C   0  0  0  0  0  0  0  0  0  0  0  0
   -1.6689   -0.3812   -0.7929 H   0  0  0  0  0  0  0  0  0  0  0  0
    1.7263   -3.6120   -0.2855 C   0  0  0  0  0  0  0  0  0  0  0  0
    1.8592   -4.6564   -0.6318 H   0  0  0  0  0  0  0  0  0  0  0  0
    4.2266   -2.4647   -0.2815 C   0  0  0  0  0  0  0  0  0  0  0  0
    4.7930   -3.4009   -0.4581 H   0  0  0  0  0  0  0  0  0  0  0  0
    4.8000   -1.5732   -0.6123 H   0  0  0  0  0  0  0  0  0  0  0  0
    3.7457   -2.3204    1.1527 C   0  0  0  0  0  0  0  0  0  0  0  0
    3.3820   -1.2849    1.3182 H   0  0  0  0  0  0  0  0  0  0  0  0
    4.5585   -2.5439    1.8744 H   0  0  0  0  0  0  0  0  0  0  0  0
   -3.8502   -1.9431   -0.3749 C   0  0  0  0  0  0  0  0  0  0  0  0
   -4.5109   -2.7987   -0.6206 H   0  0  0  0  0  0  0  0  0  0  0  0
   -4.8629    0.6357   -0.1842 C   0  0  0  0  0  0  0  0  0  0  0  0
   -4.6261    1.6563   -0.5486 H   0  0  0  0  0  0  0  0  0  0  0  0
   -5.9585    0.5399   -0.0421 H   0  0  0  0  0  0  0  0  0  0  0  0
   -4.1162    0.3076    1.0995 C   0  0  0  0  0  0  0  0  0  0  0  0
   -4.5549    0.8140    1.9835 H   0  0  0  0  0  0  0  0  0  0  0  0
   -3.0434    0.5818    1.0347 H   0  0  0  0  0  0  0  0  0  0  0  0
  1 14  1  0  0  0  0
  1 16  1  0  0  0  0
  3 22  1  0  0  0  0
  3 24  1  0  0  0  0
  5  6  1  0  0  0  0
  6  7  2  0  0  0  0
  6 14  1  0  0  0  0
  7  8  1  0  0  0  0
  9  7  1  0  0  0  0
  9 10  1  0  0  0  0
 11 22  1  0  0  0  0
 11  9  2  0  0  0  0
 12  5  2  0  0  0  0
 12 11  1  0  0  0  0
 13 12  1  0  0  0  0
 14  2  1  0  0  0  0
 15 14  1  0  0  0  0
 16 19  1  0  0  0  0
 17 16  1  0  0  0  0
 18 16  1  0  0  0  0
 19 20  1  0  0  0  0
 19  2  1  0  0  0  0
 19 21  1  0  0  0  0
 22  4  1  0  0  0  0
 23 22  1  0  0  0  0
 24 26  1  0  0  0  0
 24 27  1  0  0  0  0
 25 24  1  0  0  0  0
 27  4  1  0  0  0  0
 27 28  1  0  0  0  0
 29 27  1  0  0  0  0
M  END
