10,13
q = -2.0, confidence = 0.742

 13 12  0  0  1  0  0  0  0  0999 V2000
    1.2617   -3.6209    0.7894 C   0  0  1  0  0  0  0  0  0  0  0  0
    1.5141   -3.4920    1.8654 H   0  0  0  0  0  0  0  0  0  0  0  0
    0.8237   -5.0567    0.5252 C   0  0  0  0  0  0  0  0  0  0  0  0
    0.5275   -5.1867   -0.5360 H   0  0  0  0  0  0  0  0  0  0  0  0
   -0.0393   -5.3437    1.1591 H   0  0  0  0  0  0  0  0  0  0  0  0
    1.6531   -5.7631    0.7402 H   0  0  0  0  0  0  0  0  0  0  0  0
    2.4080   -3.1152   -0.0705 C   0  0  0  0  0  0  0  0  0  0  0  0
    2.2337   -3.4239   -1.1247 H   0  0  0  0  0  0  0  0  0  0  0  0
    3.3595   -3.5985    0.2545 H   0  0  0  0  0  0  0  0  0  0  0  0
    2.5135   -1.5964    0.0160 C   0  0  0  0  0  3  0  0  0  0  0  0
    3.2920   -1.1867   -0.6590 H   0  0  0  0  0  0  0  0  0  0  0  0
    2.7826   -1.2651    1.0423 H   0  0  0  0  0  0  0  0  0  0  0  0
   -0.1679   -2.4490    0.4955 S   0  0  0  0  0  1  0  0  0  0  0  0
  1  2  1  1  0  0  0
  3  6  1  0  0  0  0
  3  1  1  0  0  0  0
  3  5  1  0  0  0  0
  4  3  1  0  0  0  0
  7 10  1  0  0  0  0
  7  9  1  0  0  0  0
  7  1  1  0  0  0  0
  8  7  1  0  0  0  0
 10 12  1  0  0  0  0
 11 10  1  0  0  0  0
 13  1  1  0  0  0  0
M  END
