1,3
q = 0.0, confidence = 0.618

 13 13  0  0  0  0  0  0  0  0999 V2000
   -1.3888   -0.0003   -1.6643 S   0  0  0  0  0  1  0  0  0  0  0  0
   -0.5060    0.0002    2.4249 O   0  0  0  0  0  0  0  0  0  0  0  0
   -0.8394    0.0001    1.2315 C   0  0  0  0  0  3  0  0  0  0  0  0
   -2.2902    0.0000    0.8889 C   0  0  0  0  0  0  0  0  0  0  0  0
   -2.6622   -0.0001   -0.4807 C   0  0  0  0  0  0  0  0  0  0  0  0
   -5.0051   -0.0001    0.1914 C   0  0  0  0  0  0  0  0  0  0  0  0
   -6.0718   -0.0001   -0.0835 H   0  0  0  0  0  0  0  0  0  0  0  0
   -3.2799    0.0001    1.8971 C   0  0  0  0  0  0  0  0  0  0  0  0
   -2.9430    0.0003    2.9449 H   0  0  0  0  0  0  0  0  0  0  0  0
   -4.0397   -0.0002   -0.8186 C   0  0  0  0  0  0  0  0  0  0  0  0
   -4.3365   -0.0003   -1.8784 H   0  0  0  0  0  0  0  0  0  0  0  0
   -4.6342    0.0001    1.5557 C   0  0  0  0  0  0  0  0  0  0  0  0
   -5.4073    0.0002    2.3387 H   0  0  0  0  0  0  0  0  0  0  0  0
  1  5  1  0  0  0  0
  3  2  2  0  0  0  0
  4  3  1  0  0  0  0
  4  8  1  0  0  0  0
  5  4  2  0  0  0  0
  6 12  1  0  0  0  0
  7  6  1  0  0  0  0
  8  9  1  0  0  0  0
 10  5  1  0  0  0  0
 10  6  2  0  0  0  0
 11 10  1  0  0  0  0
 12  8  2  0  0  0  0
 12 13  1  0  0  0  0
M  END
