1,6
q = -1.0, confidence = 0.0

 42 42  0  0  0  0  0  0  0  0999 V2000
   -0.2674   -1.2113   -1.3688 S   0  0  0  0  0  1  0  0  0  0  0  0
   -1.5014   -0.2402   -0.0328 P   0  0  0  0  0  4  0  0  0  0  0  0
   -1.3843   -0.8748    1.5084 N   0  0  0  0  0  0  0  0  0  0  0  0
   -3.1003   -0.3548   -0.5406 N   0  0  0  0  0  0  0  0  0  0  0  0
   -0.9178    1.4666   -0.0238 C   0  0  0  0  0  0  0  0  0  0  0  0
    0.4731    1.6222   -0.2236 C   0  0  0  0  0  3  0  0  0  0  0  0
    0.9946    2.9257   -0.2777 C   0  0  0  0  0  0  0  0  0  0  0  0
    2.0777    3.0698   -0.3992 H   0  0  0  0  0  0  0  0  0  0  0  0
    0.1367    4.0327   -0.1522 C   0  0  0  0  0  0  0  0  0  0  0  0
    0.5594    5.0481   -0.2070 H   0  0  0  0  0  0  0  0  0  0  0  0
   -1.2459    3.8641    0.0378 C   0  0  0  0  0  0  0  0  0  0  0  0
   -1.9050    4.7403    0.1293 H   0  0  0  0  0  0  0  0  0  0  0  0
   -1.7824    2.5716    0.1021 C   0  0  0  0  0  0  0  0  0  0  0  0
   -2.8639    2.4133    0.2373 H   0  0  0  0  0  0  0  0  0  0  0  0
   -1.3567   -2.3422    1.6579 C   0  0  0  0  0  0  0  0  0  0  0  0
   -1.7072   -2.7755    0.6975 H   0  0  0  0  0  0  0  0  0  0  0  0
   -2.1230   -2.6144    2.4205 H   0  0  0  0  0  0  0  0  0  0  0  0
   -0.0045   -2.9571    2.0127 C   0  0  0  0  0  0  0  0  0  0  0  0
    0.3463   -2.6410    3.0137 H   0  0  0  0  0  0  0  0  0  0  0  0
    0.7741   -2.6993    1.2661 H   0  0  0  0  0  0  0  0  0  0  0  0
   -0.1030   -4.0615    2.0311 H   0  0  0  0  0  0  0  0  0  0  0  0
   -1.2620   -0.0176    2.7014 C   0  0  0  0  0  0  0  0  0  0  0  0
   -1.8417   -0.5177    3.5091 H   0  0  0  0  0  0  0  0  0  0  0  0
   -1.7903    0.9362    2.4970 H   0  0  0  0  0  0  0  0  0  0  0  0
    0.1614    0.2852    3.1704 C   0  0  0  0  0  0  0  0  0  0  0  0
    0.7529    0.8006    2.3891 H   0  0  0  0  0  0  0  0  0  0  0  0
    0.7126   -0.6314    3.4503 H   0  0  0  0  0  0  0  0  0  0  0  0
    0.1246    0.9457    4.0603 H   0  0  0  0  0  0  0  0  0  0  0  0
   -4.2039   -0.7459    0.3419 C   0  0  0  0  0  0  0  0  0  0  0  0
   -3.8071   -1.4025    1.1398 H   0  0  0  0  0  0  0  0  0  0  0  0
   -4.9027   -1.3734   -0.2517 H   0  0  0  0  0  0  0  0  0  0  0  0
   -4.9481    0.4351    0.9658 C   0  0  0  0  0  0  0  0  0  0  0  0
   -5.3288    1.1334    0.1927 H   0  0  0  0  0  0  0  0  0  0  0  0
   -4.2859    1.0062    1.6478 H   0  0  0  0  0  0  0  0  0  0  0  0
   -5.8182    0.0815    1.5551 H   0  0  0  0  0  0  0  0  0  0  0  0
   -3.4198   -0.0103   -1.9359 C   0  0  0  0  0  0  0  0  0  0  0  0
   -2.5939    0.6152   -2.3343 H   0  0  0  0  0  0  0  0  0  0  0  0
   -4.3206    0.6423   -1.9323 H   0  0  0  0  0  0  0  0  0  0  0  0
   -3.6317   -1.2270   -2.8343 C   0  0  0  0  0  0  0  0  0  0  0  0
   -4.4504   -1.8760   -2.4622 H   0  0  0  0  0  0  0  0  0  0  0  0
   -2.7054   -1.8329   -2.8902 H   0  0  0  0  0  0  0  0  0  0  0  0
   -3.8977   -0.9069   -3.8616 H   0  0  0  0  0  0  0  0  0  0  0  0
  1  2  1  0  0  0  0
  2  5  1  0  0  0  0
  2  3  1  0  0  0  0
  3 15  1  0  0  0  0
  3 22  1  0  0  0  0
  4  2  1  0  0  0  0
  4 29  1  0  0  0  0
  5 13  1  0  0  0  0
  6  5  2  0  0  0  0
  7  6  1  0  0  0  0
  7  9  2  0  0  0  0
  8  7  1  0  0  0  0
  9 11  1  0  0  0  0
 10  9  1  0  0  0  0
 11 13  2  0  0  0  0
 11 12  1  0  0  0  0
 13 14  1  0  0  0  0
 15 18  1  0  0  0  0
 15 17  1  0  0  0  0
 16 15  1  0  0  0  0
 18 21  1  0  0  0  0
 18 19  1  0  0  0  0
 20 18  1  0  0  0  0
 22 25  1  0  0  0  0
 22 23  1  0  0  0  0
 24 22  1  0  0  0  0
 25 27  1  0  0  0  0
 25 28  1  0  0  0  0
 26 25  1  0  0  0  0
 29 32  1  0  0  0  0
 29 30  1  0  0  0  0
 31 29  1  0  0  0  0
 32 35  1  0  0  0  0
 32 34  1  0  0  0  0
 33 32  1  0  0  0  0
 36 38  1  0  0  0  0
 36  4  1  0  0  0  0
 37 36  1  0  0  0  0
 39 40  1  0  0  0  0
 39 36  1  0  0  0  0
 41 39  1  0  0  0  0
 42 39  1  0  0  0  0
M  END
