1,3
q = 0.0, confidence = 0.92

 22 22  0  0  0  0  0  0  0  0999 V2000
   -0.8518   -3.1663    0.4927 S   0  0  0  0  0  1  0  0  0  0  0  0
   -5.3422   -1.0940   -0.2452 O   0  0  0  0  0  0  0  0  0  0  0  0
   -2.2467   -2.1049    0.2146 C   0  0  0  0  0  3  0  0  0  0  0  0
   -3.2376   -2.2926   -0.9839 C   0  0  0  0  0  0  0  0  0  0  0  0
   -4.2894   -1.6634   -0.0400 C   0  0  0  0  0  0  0  0  0  0  0  0
   -3.4096   -1.8265    1.2264 C   0  0  0  0  0  0  0  0  0  0  0  0
   -2.9555   -1.5799   -2.3078 C   0  0  0  0  0  0  0  0  0  0  0  0
   -3.9066   -1.3522   -2.8323 H   0  0  0  0  0  0  0  0  0  0  0  0
   -2.3384   -2.2209   -2.9698 H   0  0  0  0  0  0  0  0  0  0  0  0
   -2.3890   -0.6414   -2.1553 H   0  0  0  0  0  0  0  0  0  0  0  0
   -3.5598   -3.7719   -1.2820 C   0  0  0  0  0  0  0  0  0  0  0  0
   -4.3422   -3.8454   -2.0647 H   0  0  0  0  0  0  0  0  0  0  0  0
   -3.9109   -4.3289   -0.3938 H   0  0  0  0  0  0  0  0  0  0  0  0
   -2.6359   -4.2665   -1.6460 H   0  0  0  0  0  0  0  0  0  0  0  0
   -3.3164   -0.5817    2.1083 C   0  0  0  0  0  0  0  0  0  0  0  0
   -4.2867   -0.3888    2.6097 H   0  0  0  0  0  0  0  0  0  0  0  0
   -3.0461    0.3171    1.5268 H   0  0  0  0  0  0  0  0  0  0  0  0
   -2.5425   -0.7353    2.8890 H   0  0  0  0  0  0  0  0  0  0  0  0
   -3.7719   -3.0373    2.1049 C   0  0  0  0  0  0  0  0  0  0  0  0
   -4.7046   -2.8435    2.6728 H   0  0  0  0  0  0  0  0  0  0  0  0
   -2.9461   -3.2128    2.8247 H   0  0  0  0  0  0  0  0  0  0  0  0
   -3.9054   -3.9685    1.5242 H   0  0  0  0  0  0  0  0  0  0  0  0
  2  5  2  0  0  0  0
  3  1  1  0  0  0  0
  3  6  1  0  0  0  0
  4  5  1  0  0  0  0
  4  3  1  0  0  0  0
  5  6  1  0  0  0  0
  6 19  1  0  0  0  0
  6 15  1  0  0  0  0
  7 10  1  0  0  0  0
  7  4  1  0  0  0  0
  8  7  1  0  0  0  0
  9  7  1  0  0  0  0
 11  4  1  0  0  0  0
 11 13  1  0  0  0  0
 12 11  1  0  0  0  0
 14 11  1  0  0  0  0
 15 16  1  0  0  0  0
 15 18  1  0  0  0  0
 17 15  1  0  0  0  0
 19 20  1  0  0  0  0
 19 21  1  0  0  0  0
 22 19  1  0  0  0  0
M  END
