1,2
q = -2.0, confidence = 0.688

 18 18  0  0  1  0  0  0  0  0999 V2000
   -1.6877    1.4811    0.0959 S   0  0  0  0  0  1  0  0  0  0  0  0
   -1.2682   -1.5562    0.5032 C   0  0  0  0  0  2  0  0  0  0  0  0
   -2.6350   -1.6751    0.4911 C   0  0  0  0  0  0  0  0  0  0  0  0
   -3.2115   -3.0274    0.8844 C   0  0  0  0  0  0  0  0  0  0  0  0
   -3.6103   -0.6331    0.1382 C   0  0  0  0  0  0  0  0  0  0  0  0
   -3.2777    0.7492   -0.0207 C   0  0  1  0  0  3  0  0  0  0  0  0
   -4.3046    1.6911   -0.2922 C   0  0  0  0  0  0  0  0  0  0  0  0
   -5.6372    1.3077   -0.4343 C   0  0  0  0  0  0  0  0  0  0  0  0
   -5.9799   -0.0502   -0.3027 C   0  0  0  0  0  0  0  0  0  0  0  0
   -4.9827   -0.9828   -0.0169 C   0  0  0  0  0  0  0  0  0  0  0  0
   -0.7935   -2.4972    0.8455 H   0  0  0  0  0  0  0  0  0  0  0  0
   -3.7352   -3.5212    0.0372 H   0  0  0  0  0  0  0  0  0  0  0  0
   -3.9522   -2.9410    1.7076 H   0  0  0  0  0  0  0  0  0  0  0  0
   -2.4086   -3.7121    1.2190 H   0  0  0  0  0  0  0  0  0  0  0  0
   -4.0191    2.7492   -0.4002 H   0  0  0  0  0  0  0  0  0  0  0  0
   -6.4065    2.0646   -0.6521 H   0  0  0  0  0  0  0  0  0  0  0  0
   -7.0236   -0.3793   -0.4181 H   0  0  0  0  0  0  0  0  0  0  0  0
   -5.2745   -2.0360    0.0876 H   0  0  0  0  0  0  0  0  0  0  0  0
  2 11  1  0  0  0  0
  3  2  1  0  0  0  0
  3  4  1  0  0  0  0
  4 14  1  0  0  0  0
  4 13  1  0  0  0  0
  5  3  2  0  0  0  0
  6  1  1  1  0  0  0
  6  5  1  0  0  0  0
  7  6  1  0  0  0  0
  8  9  1  0  0  0  0
  8  7  2  0  0  0  0
  9 10  2  0  0  0  0
 10 18  1  0  0  0  0
 10  5  1  0  0  0  0
 12  4  1  0  0  0  0
 15  7  1  0  0  0  0
 16  8  1  0  0  0  0
 17  9  1  0  0  0  0
M  END
