1,4
q = 0.0, confidence = 0.998

 57 60  0  0  0  0  0  0  0  0999 V2000
    2.8896    1.2393   -0.0141 S   0  0  0  0  0  0  0  0  0  0  0  0
   -1.3975    0.4570   -0.3059 N   0  0  0  0  0  0  0  0  0  0  0  0
   -0.2437    1.8339   -1.5661 N   0  0  0  0  0  0  0  0  0  0  0  0
   -0.1668    0.6496   -0.8799 C   0  0  0  0  0  2  0  0  0  0  0  0
   -2.2569    1.5198   -0.6151 C   0  0  0  0  0  0  0  0  0  0  0  0
   -3.5911    1.8090   -0.2808 C   0  0  0  0  0  0  0  0  0  0  0  0
   -4.1875    1.1250    0.3346 H   0  0  0  0  0  0  0  0  0  0  0  0
   -4.1312    3.0070   -0.7714 C   0  0  0  0  0  0  0  0  0  0  0  0
   -5.1734    3.2587   -0.5264 H   0  0  0  0  0  0  0  0  0  0  0  0
   -3.3765    3.8919   -1.5721 C   0  0  0  0  0  0  0  0  0  0  0  0
   -3.8392    4.8204   -1.9375 H   0  0  0  0  0  0  0  0  0  0  0  0
   -2.0461    3.6073   -1.9114 C   0  0  0  0  0  0  0  0  0  0  0  0
   -1.4550    4.2940   -2.5334 H   0  0  0  0  0  0  0  0  0  0  0  0
   -1.5046    2.4104   -1.4215 C   0  0  0  0  0  0  0  0  0  0  0  0
   -1.6883   -0.6935    0.5733 C   0  0  0  0  0  0  0  0  0  0  0  0
   -0.9941   -1.4813    0.2038 H   0  0  0  0  0  0  0  0  0  0  0  0
   -3.0998   -1.2224    0.3419 C   0  0  0  0  0  0  0  0  0  0  0  0
   -3.4570   -1.6289   -0.9602 C   0  0  0  0  0  0  0  0  0  0  0  0
   -2.7035   -1.5758   -1.7623 H   0  0  0  0  0  0  0  0  0  0  0  0
   -4.7468   -2.1092   -1.2208 C   0  0  0  0  0  0  0  0  0  0  0  0
   -5.0151   -2.4231   -2.2410 H   0  0  0  0  0  0  0  0  0  0  0  0
   -5.6917   -2.1993   -0.1844 C   0  0  0  0  0  0  0  0  0  0  0  0
   -6.7046   -2.5774   -0.3907 H   0  0  0  0  0  0  0  0  0  0  0  0
   -5.3342   -1.8156    1.1167 C   0  0  0  0  0  0  0  0  0  0  0  0
   -6.0645   -1.8941    1.9364 H   0  0  0  0  0  0  0  0  0  0  0  0
   -4.0425   -1.3306    1.3804 C   0  0  0  0  0  0  0  0  0  0  0  0
   -3.7657   -1.0295    2.4015 H   0  0  0  0  0  0  0  0  0  0  0  0
   -1.3387   -0.4053    2.0213 C   0  0  0  0  0  0  0  0  0  0  0  0
   -0.8089   -1.4526    2.8009 C   0  0  0  0  0  0  0  0  0  0  0  0
   -0.6276   -2.4323    2.3323 H   0  0  0  0  0  0  0  0  0  0  0  0
   -0.4999   -1.2498    4.1535 C   0  0  0  0  0  0  0  0  0  0  0  0
   -0.0804   -2.0763    4.7468 H   0  0  0  0  0  0  0  0  0  0  0  0
   -0.7087    0.0075    4.7430 C   0  0  0  0  0  0  0  0  0  0  0  0
   -0.4610    0.1698    5.8030 H   0  0  0  0  0  0  0  0  0  0  0  0
   -1.2280    1.0585    3.9709 C   0  0  0  0  0  0  0  0  0  0  0  0
   -1.3908    2.0480    4.4248 H   0  0  0  0  0  0  0  0  0  0  0  0
   -1.5440    0.8535    2.6185 C   0  0  0  0  0  0  0  0  0  0  0  0
   -1.9525    1.6846    2.0242 H   0  0  0  0  0  0  0  0  0  0  0  0
    0.9053    2.4696   -2.1949 C   0  0  0  0  0  0  0  0  0  0  0  0
    0.5609    3.0191   -3.0931 H   0  0  0  0  0  0  0  0  0  0  0  0
    1.5710    1.6533   -2.5398 H   0  0  0  0  0  0  0  0  0  0  0  0
    1.6409    3.4109   -1.2263 C   0  0  0  0  0  0  0  0  0  0  0  0
    1.0414    4.3330   -1.0684 H   0  0  0  0  0  0  0  0  0  0  0  0
    2.5905    3.7246   -1.7079 H   0  0  0  0  0  0  0  0  0  0  0  0
    1.9230    2.7997    0.1496 C   0  0  0  0  0  0  0  0  0  0  0  0
    0.9844    2.5884    0.6993 H   0  0  0  0  0  0  0  0  0  0  0  0
    2.5298    3.4990    0.7587 H   0  0  0  0  0  0  0  0  0  0  0  0
    3.3638    0.8943    1.7554 C   0  0  0  0  0  0  0  0  0  0  0  0
    3.7498   -0.1392    1.6184 H   0  0  0  0  0  0  0  0  0  0  0  0
    2.1741    0.8856    2.7024 C   0  0  0  0  0  0  0  0  0  0  0  0
    2.4995    0.5211    3.6981 H   0  0  0  0  0  0  0  0  0  0  0  0
    1.3749    0.2114    2.3401 H   0  0  0  0  0  0  0  0  0  0  0  0
    1.7430    1.8964    2.8504 H   0  0  0  0  0  0  0  0  0  0  0  0
    4.4955    1.8295    2.1728 C   0  0  0  0  0  0  0  0  0  0  0  0
    4.1594    2.8845    2.2554 H   0  0  0  0  0  0  0  0  0  0  0  0
    5.3457    1.7838    1.4650 H   0  0  0  0  0  0  0  0  0  0  0  0
    4.8659    1.5279    3.1744 H   0  0  0  0  0  0  0  0  0  0  0  0
  1 45  1  0  0  0  0
  1 48  1  0  0  0  0
  2 15  1  0  0  0  0
  3 14  1  0  0  0  0
  3  4  1  0  0  0  0
  4  2  1  0  0  0  0
  5  2  1  0  0  0  0
  5  6  1  0  0  0  0
  6  7  1  0  0  0  0
  8  9  1  0  0  0  0
  8  6  2  0  0  0  0
 10  8  1  0  0  0  0
 11 10  1  0  0  0  0
 12 10  2  0  0  0  0
 12 14  1  0  0  0  0
 13 12  1  0  0  0  0
 14  5  2  0  0  0  0
 15 28  1  0  0  0  0
 16 15  1  0  0  0  0
 17 15  1  0  0  0  0
 17 26  1  0  0  0  0
 18 17  2  0  0  0  0
 19 18  1  0  0  0  0
 20 18  1  0  0  0  0
 20 22  2  0  0  0  0
 21 20  1  0  0  0  0
 22 24  1  0  0  0  0
 23 22  1  0  0  0  0
 24 26  2  0  0  0  0
 24 25  1  0  0  0  0
 26 27  1  0  0  0  0
 28 37  2  0  0  0  0
 28 29  1  0  0  0  0
 29 31  2  0  0  0  0
 30 29  1  0  0  0  0
 31 33  1  0  0  0  0
 31 32  1  0  0  0  0
 33 34  1  0  0  0  0
 35 36  1  0  0  0  0
 35 33  2  0  0  0  0
 37 35  1  0  0  0  0
 38 37  1  0  0  0  0
 39  3  1  0  0  0  0
 39 42  1  0  0  0  0
 40 39  1  0  0  0  0
 41 39  1  0  0  0  0
 42 43  1  0  0  0  0
 42 45  1  0  0  0  0
 44 42  1  0  0  0  0
 45 46  1  0  0  0  0
 45 47  1  0  0  0  0
 48 54  1  0  0  0  0
 48 50  1  0  0  0  0
 49 48  1  0  0  0  0
 50 53  1  0  0  0  0
 50 51  1  0  0  0  0
 52 50  1  0  0  0  0
 54 55  1  0  0  0  0
 54 57  1  0  0  0  0
 56 54  1  0  0  0  0
M  END
