2,6
q = -2.0, confidence = 0.65

  9  8  0  0  0  0  0  0  0  0999 V2000
   -5.6601   -0.2879    0.0756 Cl  0  0  0  0  0  0  0  0  0  0  0  0
   -1.7925    1.7234   -0.2182 S   0  0  0  0  0  1  0  0  0  0  0  0
   -3.4342    1.2044   -0.1492 C   0  0  0  0  0  0  0  0  0  0  0  0
   -3.9019   -0.0669    0.0466 C   0  0  0  0  0  0  0  0  0  0  0  0
   -3.1252   -1.2583    0.2481 C   0  0  0  0  0  0  0  0  0  0  0  0
   -1.7603   -1.3995    0.2459 C   0  0  0  0  0  3  0  0  0  0  0  0
   -4.1585    2.0251   -0.2752 H   0  0  0  0  0  0  0  0  0  0  0  0
   -3.7339   -2.1620    0.4300 H   0  0  0  0  0  0  0  0  0  0  0  0
   -1.4668   -2.4485    0.4415 H   0  0  0  0  0  0  0  0  0  0  0  0
  2  3  1  0  0  0  0
  3  4  2  0  0  0  0
  4  1  1  0  0  0  0
  4  5  1  0  0  0  0
  5  8  1  0  0  0  0
  6  5  2  0  0  0  0
  6  9  1  0  0  0  0
  7  3  1  0  0  0  0
M  END
