1,5
q = -2.0, confidence = 0.696

 11 10  0  0  0  0  0  0  0  0999 V2000
    0.6856    2.7185    0.2573 S   0  0  0  0  0  1  0  0  0  0  0  0
   -0.5964    3.7073    0.8343 C   0  0  0  0  0  0  0  0  0  0  0  0
   -1.9520    3.4717    0.8004 C   0  0  0  0  0  0  0  0  0  0  0  0
   -2.5851    2.3632    0.1613 C   0  0  0  0  0  3  0  0  0  0  0  0
   -2.0039    1.1998   -0.2958 C   0  0  0  0  0  2  0  0  0  0  0  0
   -2.8816    0.4359   -1.1878 N   0  0  0  0  0  0  0  0  0  0  0  0
   -4.1146    0.5377   -1.1128 O   0  0  0  0  0  0  0  0  0  0  0  0
   -2.3253   -0.3310   -2.0038 O   0  0  0  0  0  0  0  0  0  0  0  0
   -0.2348    4.6714    1.2329 H   0  0  0  0  0  0  0  0  0  0  0  0
   -2.6062    4.2695    1.1865 H   0  0  0  0  0  0  0  0  0  0  0  0
   -3.6597    2.4720   -0.0647 H   0  0  0  0  0  0  0  0  0  0  0  0
  1  2  1  0  0  0  0
  2  9  1  0  0  0  0
  3  2  2  0  0  0  0
  3 10  1  0  0  0  0
  4  3  1  0  0  0  0
  5  4  1  0  0  0  0
  6  7  2  0  0  0  0
  6  5  1  0  0  0  0
  8  6  2  0  0  0  0
 11  4  1  0  0  0  0
M  END
