1,5
q = 0.0, confidence = 0.998

 36 38  0  0  1  0  0  0  0  0999 V2000
   -1.2149    0.2102    0.9351 S   0  0  2  0  0  3  0  0  0  0  0  0
    1.2980    2.9989   -0.0714 O   0  0  0  0  0  0  0  0  0  0  0  0
   -1.5020    0.1989    2.4222 O   0  0  0  0  0  1  0  0  0  0  0  0
    2.8523    0.5567   -0.1897 N   0  0  0  0  0  0  0  0  0  0  0  0
    1.5281    0.4744   -0.0646 C   0  0  0  0  0  3  0  0  0  0  0  0
    3.6942    1.7846   -0.3326 C   0  0  0  0  0  0  0  0  0  0  0  0
    5.0874    1.2565   -0.6750 C   0  0  0  0  0  0  0  0  0  0  0  0
    5.1333   -0.0852    0.0619 C   0  0  0  0  0  0  0  0  0  0  0  0
    3.7289   -0.6371   -0.1755 C   0  0  0  0  0  0  0  0  0  0  0  0
    0.7774    1.7416    0.0739 C   0  0  0  0  0  0  0  0  0  0  0  0
   -0.5305    1.7713    0.4719 C   0  0  2  0  0  3  0  0  0  0  0  0
   -0.9636    3.1766    0.7642 C   0  0  0  0  0  0  0  0  0  0  0  0
    0.1992    3.9485    0.0987 C   0  0  0  0  0  0  0  0  0  0  0  0
   -2.8480    0.3125    0.1247 C   0  0  0  0  0  0  0  0  0  0  0  0
   -3.0015    0.7451   -1.2009 C   0  0  0  0  0  0  0  0  0  0  0  0
   -4.2891    0.7660   -1.7570 C   0  0  0  0  0  0  0  0  0  0  0  0
   -5.3958    0.3492   -0.9970 C   0  0  0  0  0  0  0  0  0  0  0  0
   -5.2206   -0.0812    0.3274 C   0  0  0  0  0  0  0  0  0  0  0  0
   -3.9388   -0.0981    0.8997 C   0  0  0  0  0  0  0  0  0  0  0  0
    3.2637    2.4511   -1.0987 H   0  0  0  0  0  0  0  0  0  0  0  0
    3.6858    2.3400    0.6279 H   0  0  0  0  0  0  0  0  0  0  0  0
    5.1764    1.0950   -1.7698 H   0  0  0  0  0  0  0  0  0  0  0  0
    5.8855    1.9623   -0.3741 H   0  0  0  0  0  0  0  0  0  0  0  0
    5.9192   -0.7710   -0.3072 H   0  0  0  0  0  0  0  0  0  0  0  0
    5.3058    0.0747    1.1470 H   0  0  0  0  0  0  0  0  0  0  0  0
    3.3779   -1.3414    0.5985 H   0  0  0  0  0  0  0  0  0  0  0  0
    3.6521   -1.1539   -1.1543 H   0  0  0  0  0  0  0  0  0  0  0  0
   -1.9482    3.4381    0.3266 H   0  0  0  0  0  0  0  0  0  0  0  0
   -1.0325    3.3365    1.8626 H   0  0  0  0  0  0  0  0  0  0  0  0
    0.5859    4.8004    0.6896 H   0  0  0  0  0  0  0  0  0  0  0  0
   -0.0795    4.3100   -0.9143 H   0  0  0  0  0  0  0  0  0  0  0  0
   -2.1311    1.0609   -1.7932 H   0  0  0  0  0  0  0  0  0  0  0  0
   -4.4272    1.1060   -2.7945 H   0  0  0  0  0  0  0  0  0  0  0  0
   -6.4019    0.3616   -1.4426 H   0  0  0  0  0  0  0  0  0  0  0  0
   -6.0874   -0.4053    0.9230 H   0  0  0  0  0  0  0  0  0  0  0  0
   -3.7617   -0.4099    1.9399 H   0  0  0  0  0  0  0  0  0  0  0  0
  1  3  1  1  0  0  0
  2 10  1  0  0  0  0
  2 13  1  0  0  0  0
  4  9  1  0  0  0  0
  4  5  1  0  0  0  0
  5 10  2  0  0  0  0
  6  4  1  0  0  0  0
  6 21  1  0  0  0  0
  7 23  1  0  0  0  0
  7  6  1  0  0  0  0
  7  8  1  0  0  0  0
  8 25  1  0  0  0  0
  9  8  1  0  0  0  0
  9 26  1  0  0  0  0
 10 11  1  0  0  0  0
 11 12  1  0  0  0  0
 11  1  1  1  0  0  0
 12 29  1  0  0  0  0
 13 30  1  0  0  0  0
 13 12  1  0  0  0  0
 14 19  1  0  0  0  0
 14  1  1  0  0  0  0
 15 14  2  0  0  0  0
 16 15  1  0  0  0  0
 16 17  2  0  0  0  0
 17 18  1  0  0  0  0
 18 19  2  0  0  0  0
 18 35  1  0  0  0  0
 19 36  1  0  0  0  0
 20  6  1  0  0  0  0
 22  7  1  0  0  0  0
 24  8  1  0  0  0  0
 27  9  1  0  0  0  0
 28 12  1  0  0  0  0
 31 13  1  0  0  0  0
 32 15  1  0  0  0  0
 33 16  1  0  0  0  0
 34 17  1  0  0  0  0
M  END
