1,18
q = 0.0, confidence = 1.0

 32 34  0  0  0  0  0  0  0  0999 V2000
   -0.7801    1.3571   -1.2207 S   0  0  0  0  0  0  0  0  0  0  0  0
    1.3819   -0.2191   -0.9681 N   0  0  0  0  0  0  0  0  0  0  0  0
    1.4211   -1.7359    0.6188 N   0  0  0  0  0  0  0  0  0  0  0  0
   -0.1244    2.5290   -0.0042 C   0  0  0  0  0  0  0  0  0  0  0  0
    0.0049    2.1848    1.3509 C   0  0  0  0  0  0  0  0  0  0  0  0
   -0.3008    1.1800    1.6818 H   0  0  0  0  0  0  0  0  0  0  0  0
    0.5050    3.1383    2.2508 C   0  0  0  0  0  0  0  0  0  0  0  0
    0.6066    2.8770    3.3147 H   0  0  0  0  0  0  0  0  0  0  0  0
    0.8658    4.4179    1.8006 C   0  0  0  0  0  0  0  0  0  0  0  0
    1.2545    5.1616    2.5124 H   0  0  0  0  0  0  0  0  0  0  0  0
    0.7186    4.7567    0.4453 C   0  0  0  0  0  0  0  0  0  0  0  0
    0.9858    5.7645    0.0936 H   0  0  0  0  0  0  0  0  0  0  0  0
    0.2125    3.8156   -0.4628 C   0  0  0  0  0  0  0  0  0  0  0  0
    0.0714    4.0800   -1.5223 H   0  0  0  0  0  0  0  0  0  0  0  0
    0.8243    0.7197   -1.9054 C   0  0  0  0  0  0  0  0  0  0  0  0
    0.5465    0.2370   -2.8658 H   0  0  0  0  0  0  0  0  0  0  0  0
    1.5205    1.5613   -2.0831 H   0  0  0  0  0  0  0  0  0  0  0  0
    0.5622   -0.9782   -0.1355 C   0  0  0  0  0  2  0  0  0  0  0  0
    1.0603   -2.6543    1.6880 C   0  0  0  0  0  0  0  0  0  0  0  0
   -0.0425   -2.7543    1.7116 H   0  0  0  0  0  0  0  0  0  0  0  0
    1.4434   -2.2719    2.6559 H   0  0  0  0  0  0  0  0  0  0  0  0
    1.5078   -3.6481    1.4884 H   0  0  0  0  0  0  0  0  0  0  0  0
    2.7491   -1.4621    0.2833 C   0  0  0  0  0  0  0  0  0  0  0  0
    3.9559   -1.9696    0.7816 C   0  0  0  0  0  0  0  0  0  0  0  0
    3.9735   -2.7262    1.5779 H   0  0  0  0  0  0  0  0  0  0  0  0
    5.1420   -1.4694    0.2194 C   0  0  0  0  0  0  0  0  0  0  0  0
    6.1091   -1.8447    0.5845 H   0  0  0  0  0  0  0  0  0  0  0  0
    5.1193   -0.4990   -0.8048 C   0  0  0  0  0  0  0  0  0  0  0  0
    6.0686   -0.1342   -1.2233 H   0  0  0  0  0  0  0  0  0  0  0  0
    3.9100    0.0102   -1.3068 C   0  0  0  0  0  0  0  0  0  0  0  0
    3.8978    0.7605   -2.1098 H   0  0  0  0  0  0  0  0  0  0  0  0
    2.7283   -0.4838   -0.7397 C   0  0  0  0  0  0  0  0  0  0  0  0
  1  4  1  0  0  0  0
  2 32  1  0  0  0  0
  2 18  1  0  0  0  0
  3 19  1  0  0  0  0
  4  5  1  0  0  0  0
  5  6  1  0  0  0  0
  5  7  2  0  0  0  0
  7  8  1  0  0  0  0
  9  7  1  0  0  0  0
  9 10  1  0  0  0  0
 11  9  2  0  0  0  0
 12 11  1  0  0  0  0
 13  4  2  0  0  0  0
 13 11  1  0  0  0  0
 14 13  1  0  0  0  0
 15  1  1  0  0  0  0
 15  2  1  0  0  0  0
 16 15  1  0  0  0  0
 17 15  1  0  0  0  0
 18  3  1  0  0  0  0
 19 20  1  0  0  0  0
 19 21  1  0  0  0  0
 22 19  1  0  0  0  0
 23  3  1  0  0  0  0
 23 24  1  0  0  0  0
 24 25  1  0  0  0  0
 26 27  1  0  0  0  0
 26 24  2  0  0  0  0
 28 26  1  0  0  0  0
 29 28  1  0  0  0  0
 30 28  2  0  0  0  0
 30 32  1  0  0  0  0
 31 30  1  0  0  0  0
 32 23  2  0  0  0  0
M  END
