1,8
q = 0.0, confidence = 0.79

 24 25  0  0  0  0  0  0  0  0999 V2000
   -2.8457    0.3084   -1.1483 S   0  0  0  0  0  0  0  0  0  0  0  0
   -1.1225    3.3685    0.8641 C   0  0  0  0  0  0  0  0  0  0  0  0
   -0.1382    3.5485    1.3253 H   0  0  0  0  0  0  0  0  0  0  0  0
   -2.1107    4.3583    0.8718 C   0  0  0  0  0  0  0  0  0  0  0  0
   -1.9087    5.3320    1.3431 H   0  0  0  0  0  0  0  0  0  0  0  0
   -1.3700    2.1058    0.2672 C   0  0  0  0  0  0  0  0  0  0  0  0
   -4.2328   -0.3877   -0.2464 C   0  0  0  0  0  0  0  0  0  0  0  0
   -0.3584    1.0567    0.2697 C   0  0  0  0  0  2  0  0  0  0  0  0
    0.5751    1.3287    0.7947 H   0  0  0  0  0  0  0  0  0  0  0  0
   -2.6343    1.8897   -0.3369 C   0  0  0  0  0  0  0  0  0  0  0  0
   -3.3640    4.1132    0.2784 C   0  0  0  0  0  0  0  0  0  0  0  0
   -4.1400    4.8935    0.2852 H   0  0  0  0  0  0  0  0  0  0  0  0
   -6.3846   -1.6180    1.0585 C   0  0  0  0  0  0  0  0  0  0  0  0
   -7.2310   -2.0980    1.5724 H   0  0  0  0  0  0  0  0  0  0  0  0
   -5.5117   -0.7802    1.7725 C   0  0  0  0  0  0  0  0  0  0  0  0
   -5.6666   -0.6108    2.8489 H   0  0  0  0  0  0  0  0  0  0  0  0
   -4.4259   -0.1709    1.1297 C   0  0  0  0  0  0  0  0  0  0  0  0
   -3.7265    0.4653    1.6889 H   0  0  0  0  0  0  0  0  0  0  0  0
   -3.6260    2.8783   -0.3370 C   0  0  0  0  0  0  0  0  0  0  0  0
   -4.5987    2.6802   -0.8111 H   0  0  0  0  0  0  0  0  0  0  0  0
   -6.1743   -1.8428   -0.3109 C   0  0  0  0  0  0  0  0  0  0  0  0
   -6.8554   -2.4967   -0.8765 H   0  0  0  0  0  0  0  0  0  0  0  0
   -5.1018   -1.2234   -0.9702 C   0  0  0  0  0  0  0  0  0  0  0  0
   -4.9373   -1.3812   -2.0470 H   0  0  0  0  0  0  0  0  0  0  0  0
  1 10  1  0  0  0  0
  1  7  1  0  0  0  0
  2  4  1  0  0  0  0
  2  3  1  0  0  0  0
  4  5  1  0  0  0  0
  6  8  1  0  0  0  0
  6  2  2  0  0  0  0
  7 17  1  0  0  0  0
  8  9  1  0  0  0  0
 10  6  1  0  0  0  0
 11 12  1  0  0  0  0
 11  4  2  0  0  0  0
 13 14  1  0  0  0  0
 13 15  1  0  0  0  0
 15 16  1  0  0  0  0
 17 18  1  0  0  0  0
 17 15  2  0  0  0  0
 19 10  2  0  0  0  0
 19 11  1  0  0  0  0
 20 19  1  0  0  0  0
 21 13  2  0  0  0  0
 22 21  1  0  0  0  0
 23 21  1  0  0  0  0
 23  7  2  0  0  0  0
 24 23  1  0  0  0  0
M  END
