1,6
q = 0.0, confidence = 0.854

 17 17  0  0  0  0  0  0  0  0999 V2000
    3.1075   -0.3639   -0.8617 S   0  0  0  0  0  0  0  0  0  0  0  0
    4.0441   -0.8256    1.6168 F   0  0  0  0  0  0  0  0  0  0  0  0
    5.5667   -0.6455    0.0835 F   0  0  0  0  0  0  0  0  0  0  0  0
    4.3189   -2.4338    0.1579 F   0  0  0  0  0  0  0  0  0  0  0  0
    1.8662    1.6920    0.4196 C   0  0  0  0  0  0  0  0  0  0  0  0
    0.7210    0.7902    0.4507 C   0  0  0  0  0  2  0  0  0  0  0  0
   -0.1540    1.1821    1.0003 H   0  0  0  0  0  0  0  0  0  0  0  0
    4.1787    2.1652   -0.2835 C   0  0  0  0  0  0  0  0  0  0  0  0
    5.1070    1.8310   -0.7680 H   0  0  0  0  0  0  0  0  0  0  0  0
    4.0736    3.4578    0.2586 C   0  0  0  0  0  0  0  0  0  0  0  0
    4.9300    4.1456    0.1944 H   0  0  0  0  0  0  0  0  0  0  0  0
    3.0850    1.2984   -0.1884 C   0  0  0  0  0  0  0  0  0  0  0  0
    1.7831    3.0041    0.9482 C   0  0  0  0  0  0  0  0  0  0  0  0
    0.8372    3.3253    1.4123 H   0  0  0  0  0  0  0  0  0  0  0  0
    4.3222   -1.1099    0.3434 C   0  0  0  0  0  0  0  0  0  0  0  0
    2.8768    3.8738    0.8698 C   0  0  0  0  0  0  0  0  0  0  0  0
    2.7984    4.8905    1.2837 H   0  0  0  0  0  0  0  0  0  0  0  0
  1 12  1  0  0  0  0
  1 15  1  0  0  0  0
  3 15  1  0  0  0  0
  4 15  1  0  0  0  0
  5  6  1  0  0  0  0
  5 13  1  0  0  0  0
  6  7  1  0  0  0  0
  8 12  1  0  0  0  0
  8 10  2  0  0  0  0
  9  8  1  0  0  0  0
 10 16  1  0  0  0  0
 11 10  1  0  0  0  0
 12  5  2  0  0  0  0
 13 14  1  0  0  0  0
 15  2  1  0  0  0  0
 16 13  2  0  0  0  0
 16 17  1  0  0  0  0
M  END
