1,5
q = -1.0, confidence = 0.0

 44 45  0  0  0  0  0  0  0  0999 V2000
    0.0484   -0.1409   -1.7927 S   0  0  0  0  0  1  0  0  0  0  0  0
    1.2619    0.0402   -0.1317 P   0  0  1  0  0  4  0  0  0  0  0  0
    2.8704    0.4073   -0.4776 N   0  0  0  0  0  0  0  0  0  0  0  0
    0.5252    1.3689    0.8529 C   0  0  0  0  0  0  0  0  0  0  0  0
   -0.8819    1.4787    0.7480 C   0  0  0  0  0  3  0  0  0  0  0  0
   -1.5202    2.4793    1.5028 C   0  0  0  0  0  0  0  0  0  0  0  0
   -2.6151    2.5692    1.4553 H   0  0  0  0  0  0  0  0  0  0  0  0
   -0.7720    3.3288    2.3348 C   0  0  0  0  0  0  0  0  0  0  0  0
   -1.2911    4.1105    2.9109 H   0  0  0  0  0  0  0  0  0  0  0  0
    0.6212    3.1856    2.4521 C   0  0  0  0  0  0  0  0  0  0  0  0
    1.1954    3.8474    3.1177 H   0  0  0  0  0  0  0  0  0  0  0  0
    1.2774    2.1941    1.7125 C   0  0  0  0  0  0  0  0  0  0  0  0
    2.3681    2.0627    1.7872 H   0  0  0  0  0  0  0  0  0  0  0  0
    1.1617   -1.4655    0.8912 C   0  0  0  0  0  0  0  0  0  0  0  0
    0.4458   -2.5873    0.4314 C   0  0  0  0  0  0  0  0  0  0  0  0
   -0.0168   -2.5728   -0.5686 H   0  0  0  0  0  0  0  0  0  0  0  0
    0.2946   -3.7004    1.2720 C   0  0  0  0  0  0  0  0  0  0  0  0
   -0.2726   -4.5729    0.9158 H   0  0  0  0  0  0  0  0  0  0  0  0
    0.8445   -3.6912    2.5626 C   0  0  0  0  0  0  0  0  0  0  0  0
    0.7166   -4.5638    3.2208 H   0  0  0  0  0  0  0  0  0  0  0  0
    1.5395   -2.5608    3.0269 C   0  0  0  0  0  0  0  0  0  0  0  0
    1.9526   -2.5453    4.0465 H   0  0  0  0  0  0  0  0  0  0  0  0
    1.6928   -1.4423    2.1980 C   0  0  0  0  0  0  0  0  0  0  0  0
    2.2143   -0.5479    2.5703 H   0  0  0  0  0  0  0  0  0  0  0  0
    3.8960   -0.6334   -0.7922 C   0  0  0  0  0  0  0  0  0  0  0  0
    4.6627   -0.0768   -1.3680 H   0  0  0  0  0  0  0  0  0  0  0  0
    4.5928   -1.1693    0.4623 C   0  0  0  0  0  0  0  0  0  0  0  0
    4.9246   -0.3374    1.1140 H   0  0  0  0  0  0  0  0  0  0  0  0
    5.4859   -1.7588    0.1721 H   0  0  0  0  0  0  0  0  0  0  0  0
    3.9309   -1.8321    1.0510 H   0  0  0  0  0  0  0  0  0  0  0  0
    3.3840   -1.7519   -1.7071 C   0  0  0  0  0  0  0  0  0  0  0  0
    2.6469   -2.3985   -1.1922 H   0  0  0  0  0  0  0  0  0  0  0  0
    4.2282   -2.3987   -2.0197 H   0  0  0  0  0  0  0  0  0  0  0  0
    2.9055   -1.3433   -2.6179 H   0  0  0  0  0  0  0  0  0  0  0  0
    3.0869    1.7511   -1.1000 C   0  0  0  0  0  0  0  0  0  0  0  0
    2.2014    2.3562   -0.8140 H   0  0  0  0  0  0  0  0  0  0  0  0
    4.3226    2.4303   -0.5020 C   0  0  0  0  0  0  0  0  0  0  0  0
    4.2562    2.4901    0.6018 H   0  0  0  0  0  0  0  0  0  0  0  0
    4.4170    3.4599   -0.8999 H   0  0  0  0  0  0  0  0  0  0  0  0
    5.2565    1.8906   -0.7611 H   0  0  0  0  0  0  0  0  0  0  0  0
    3.1276    1.7059   -2.6327 C   0  0  0  0  0  0  0  0  0  0  0  0
    3.9968    1.1298   -3.0104 H   0  0  0  0  0  0  0  0  0  0  0  0
    3.2135    2.7343   -3.0361 H   0  0  0  0  0  0  0  0  0  0  0  0
    2.1996    1.2570   -3.0375 H   0  0  0  0  0  0  0  0  0  0  0  0
  2  1  1  6  0  0  0
  2  4  1  0  0  0  0
  2 14  1  0  0  0  0
  3  2  1  0  0  0  0
  4 12  1  0  0  0  0
  5  4  2  0  0  0  0
  5  6  1  0  0  0  0
  6  8  2  0  0  0  0
  7  6  1  0  0  0  0
  8 10  1  0  0  0  0
  8  9  1  0  0  0  0
 10 11  1  0  0  0  0
 12 13  1  0  0  0  0
 12 10  2  0  0  0  0
 14 23  1  0  0  0  0
 15 14  2  0  0  0  0
 15 17  1  0  0  0  0
 16 15  1  0  0  0  0
 17 19  2  0  0  0  0
 18 17  1  0  0  0  0
 19 21  1  0  0  0  0
 19 20  1  0  0  0  0
 21 22  1  0  0  0  0
 23 24  1  0  0  0  0
 23 21  2  0  0  0  0
 25  3  1  0  0  0  0
 25 27  1  0  0  0  0
 26 25  1  0  0  0  0
 27 30  1  0  0  0  0
 27 28  1  0  0  0  0
 29 27  1  0  0  0  0
 31 32  1  0  0  0  0
 31 25  1  0  0  0  0
 33 31  1  0  0  0  0
 34 31  1  0  0  0  0
 35 36  1  0  0  0  0
 35 37  1  0  0  0  0
 35  3  1  0  0  0  0
 37 38  1  0  0  0  0
 39 37  1  0  0  0  0
 40 37  1  0  0  0  0
 41 35  1  0  0  0  0
 42 41  1  0  0  0  0
 43 41  1  0  0  0  0
 44 41  1  0  0  0  0
M  END
