1,13
q = -2.0, confidence = 0.822

 25 25  0  0  0  0  0  0  0  0999 V2000
    0.0634   -2.1597   -0.4025 S   0  0  0  0  0  5  0  0  0  0  0  0
   -0.7730   -2.8343    0.6764 O   0  0  0  0  0  0  0  0  0  0  0  0
   -0.0000   -2.7696   -1.7751 O   0  0  0  0  0  0  0  0  0  0  0  0
    1.8005   -2.4103    0.1941 C   0  0  0  0  0  0  0  0  0  0  0  0
    2.4148   -1.2632    1.0270 C   0  0  0  0  0  0  0  0  0  0  0  0
    1.5176   -0.8769    2.2228 C   0  0  0  0  0  0  0  0  0  0  0  0
    3.7401   -1.8064    1.5955 C   0  0  0  0  0  0  0  0  0  0  0  0
    2.6277   -0.0761    0.0606 C   0  0  0  0  0  0  0  0  0  0  0  0
    3.9273    0.3840   -0.2489 C   0  0  0  0  0  0  0  0  0  0  0  0
    4.1532    1.3536   -1.2375 C   0  0  0  0  0  0  0  0  0  0  0  0
    3.0705    1.8659   -1.9641 C   0  0  0  0  0  0  0  0  0  0  0  0
    1.7705    1.4385   -1.6470 C   0  0  0  0  0  0  0  0  0  0  0  0
    1.5260    0.4983   -0.6225 C   0  0  0  0  0  3  0  0  0  0  0  0
    2.4011   -2.6018   -0.7156 H   0  0  0  0  0  0  0  0  0  0  0  0
    1.6958   -3.3432    0.7834 H   0  0  0  0  0  0  0  0  0  0  0  0
    0.5531   -0.4385    1.8859 H   0  0  0  0  0  0  0  0  0  0  0  0
    1.2814   -1.7651    2.8423 H   0  0  0  0  0  0  0  0  0  0  0  0
    2.0361   -0.1292    2.8578 H   0  0  0  0  0  0  0  0  0  0  0  0
    4.4209   -2.1640    0.7975 H   0  0  0  0  0  0  0  0  0  0  0  0
    4.2721   -1.0331    2.1862 H   0  0  0  0  0  0  0  0  0  0  0  0
    3.5347   -2.6607    2.2705 H   0  0  0  0  0  0  0  0  0  0  0  0
    4.7961   -0.0296    0.2815 H   0  0  0  0  0  0  0  0  0  0  0  0
    5.1797    1.6892   -1.4509 H   0  0  0  0  0  0  0  0  0  0  0  0
    3.2320    2.5984   -2.7708 H   0  0  0  0  0  0  0  0  0  0  0  0
    0.9233    1.8550   -2.2178 H   0  0  0  0  0  0  0  0  0  0  0  0
  1  4  1  0  0  0  0
  1  2  2  0  0  0  0
  3  1  2  0  0  0  0
  4 15  1  0  0  0  0
  4  5  1  0  0  0  0
  5  7  1  0  0  0  0
  5  6  1  0  0  0  0
  6 17  1  0  0  0  0
  6 18  1  0  0  0  0
  7 20  1  0  0  0  0
  7 21  1  0  0  0  0
  8  5  1  0  0  0  0
  9  8  1  0  0  0  0
  9 22  1  0  0  0  0
 10  9  2  0  0  0  0
 11 12  2  0  0  0  0
 11 10  1  0  0  0  0
 12 13  1  0  0  0  0
 13  8  2  0  0  0  0
 14  4  1  0  0  0  0
 16  6  1  0  0  0  0
 19  7  1  0  0  0  0
 23 10  1  0  0  0  0
 24 11  1  0  0  0  0
 25 12  1  0  0  0  0
M  END
