1,2
q = 0.0, confidence = 0.78

 23 23  0  0  0  0  0  0  0  0999 V2000
   -1.1355    1.6817    1.0857 S   0  0  0  0  0  0  0  0  0  0  0  0
   -1.3713    0.4108   -1.4801 C   0  0  0  0  0  2  0  0  0  0  0  0
   -1.3489    0.0309   -2.5231 H   0  0  0  0  0  0  0  0  0  0  0  0
   -2.5948    1.1190   -1.1134 C   0  0  0  0  0  0  0  0  0  0  0  0
   -3.7485    1.1564   -1.9339 C   0  0  0  0  0  0  0  0  0  0  0  0
   -3.7139    0.6658   -2.9188 H   0  0  0  0  0  0  0  0  0  0  0  0
   -4.9154    1.7976   -1.4982 C   0  0  0  0  0  0  0  0  0  0  0  0
   -5.8018    1.8221   -2.1507 H   0  0  0  0  0  0  0  0  0  0  0  0
   -4.9651    2.4077   -0.2318 C   0  0  0  0  0  0  0  0  0  0  0  0
   -5.8888    2.8970    0.1121 H   0  0  0  0  0  0  0  0  0  0  0  0
   -3.8297    2.3926    0.5987 C   0  0  0  0  0  0  0  0  0  0  0  0
   -3.8603    2.8567    1.5955 H   0  0  0  0  0  0  0  0  0  0  0  0
   -2.6628    1.7701    0.1440 C   0  0  0  0  0  0  0  0  0  0  0  0
   -0.5527    3.4723    1.0100 C   0  0  0  0  0  0  0  0  0  0  0  0
    0.5386    3.3280    1.1631 H   0  0  0  0  0  0  0  0  0  0  0  0
   -0.7872    4.1063   -0.3532 C   0  0  0  0  0  0  0  0  0  0  0  0
   -0.3753    3.4731   -1.1621 H   0  0  0  0  0  0  0  0  0  0  0  0
   -0.2702    5.0874   -0.3906 H   0  0  0  0  0  0  0  0  0  0  0  0
   -1.8662    4.2771   -0.5396 H   0  0  0  0  0  0  0  0  0  0  0  0
   -1.1437    4.2623    2.1729 C   0  0  0  0  0  0  0  0  0  0  0  0
   -0.9683    3.7597    3.1443 H   0  0  0  0  0  0  0  0  0  0  0  0
   -2.2351    4.4129    2.0476 H   0  0  0  0  0  0  0  0  0  0  0  0
   -0.6754    5.2681    2.2133 H   0  0  0  0  0  0  0  0  0  0  0  0
  2  4  1  0  0  0  0
  3  2  1  0  0  0  0
  4 13  1  0  0  0  0
  5  7  1  0  0  0  0
  5  4  2  0  0  0  0
  6  5  1  0  0  0  0
  7  9  2  0  0  0  0
  8  7  1  0  0  0  0
  9 10  1  0  0  0  0
  9 11  1  0  0  0  0
 11 12  1  0  0  0  0
 13 11  2  0  0  0  0
 13  1  1  0  0  0  0
 14  1  1  0  0  0  0
 14 15  1  0  0  0  0
 14 20  1  0  0  0  0
 16 14  1  0  0  0  0
 17 16  1  0  0  0  0
 18 16  1  0  0  0  0
 19 16  1  0  0  0  0
 20 23  1  0  0  0  0
 20 21  1  0  0  0  0
 22 20  1  0  0  0  0
M  END
