9,21
 OpenBabel05122313053D

 21 22  0  0  0  0  0  0  0  0999 V2000
    4.2023   -1.3611   -1.1797 C   0  0  0  0  0  0  0  0  0  0  0  0
    4.9132   -0.5733   -1.4740 H   0  0  0  0  0  0  0  0  0  0  0  0
    4.2560   -2.6118   -1.8104 C   0  0  0  0  0  0  0  0  0  0  0  0
    5.0008   -2.8013   -2.5979 H   0  0  0  0  0  0  0  0  0  0  0  0
    3.3563   -3.6168   -1.4212 C   0  0  0  0  0  0  0  0  0  0  0  0
    3.3945   -4.6123   -1.8900 H   0  0  0  0  0  0  0  0  0  0  0  0
    2.3870   -3.3441   -0.4465 C   0  0  0  0  0  0  0  0  0  0  0  0
    1.6627   -4.1190   -0.1517 H   0  0  0  0  0  0  0  0  0  0  0  0
    0.9928   -1.8168    1.3479 S   0  0  0  0  0  1  0  0  0  0  0  0
    2.2933    2.0445    1.8088 C   0  0  0  0  0  0  0  0  0  0  0  0
    1.3959    2.5659    2.1792 H   0  0  0  0  0  0  0  0  0  0  0  0
    3.5578    2.5377    2.1704 C   0  0  0  0  0  0  0  0  0  0  0  0
    3.6389    3.4311    2.8095 H   0  0  0  0  0  0  0  0  0  0  0  0
    4.7111    1.8840    1.7124 C   0  0  0  0  0  0  0  0  0  0  0  0
    5.7109    2.2556    1.9843 H   0  0  0  0  0  0  0  0  0  0  0  0
    4.5816    0.7271    0.9336 C   0  0  0  0  0  0  0  0  0  0  0  0
    5.4849    0.1758    0.6301 H   0  0  0  0  0  0  0  0  0  0  0  0
    3.3128    0.2135    0.5705 C   0  0  0  0  0  0  0  0  0  0  0  0
    3.2552   -1.0696   -0.1736 C   0  0  0  0  0  0  0  0  0  0  0  0
    2.2985   -2.0742    0.1664 C   0  0  0  0  0  0  0  0  0  0  0  0
    2.1423    0.9051    0.9880 C   0  0  0  0  0  3  0  0  0  0  0  0
  1 19  1  0  0  0  0
  2  1  1  0  0  0  0
  3  5  1  0  0  0  0
  3  1  2  0  0  0  0
  4  3  1  0  0  0  0
  5  7  2  0  0  0  0
  6  5  1  0  0  0  0
  7  8  1  0  0  0  0
  7 20  1  0  0  0  0
 10 12  1  0  0  0  0
 10 11  1  0  0  0  0
 12 13  1  0  0  0  0
 14 15  1  0  0  0  0
 14 12  2  0  0  0  0
 16 14  1  0  0  0  0
 17 16  1  0  0  0  0
 18 16  2  0  0  0  0
 18 21  1  0  0  0  0
 19 20  2  0  0  0  0
 19 18  1  0  0  0  0
 20  9  1  0  0  0  0
 21 10  2  0  0  0  0
M  END
