1,3
 OpenBabel05122313053D

 16 16  0  0  0  0  0  0  0  0999 V2000
    0.4907   -0.2820    1.9997 S   0  0  0  0  0  1  0  0  0  0  0  0
    1.2529    0.3409   -2.1159 O   0  0  0  0  0  0  0  0  0  0  0  0
    1.1083    0.1563   -0.8996 C   0  0  0  0  0  3  0  0  0  0  0  0
    2.2917    0.0358   -0.0187 C   0  0  0  0  0  0  0  0  0  0  0  0
    3.5970    0.1262   -0.5624 C   0  0  0  0  0  0  0  0  0  0  0  0
    3.6856    0.2905   -1.6480 H   0  0  0  0  0  0  0  0  0  0  0  0
    4.7325    0.0113    0.2438 C   0  0  0  0  0  0  0  0  0  0  0  0
    4.5317   -0.2008    1.6363 C   0  0  0  0  0  0  0  0  0  0  0  0
    5.4115   -0.2950    2.2947 H   0  0  0  0  0  0  0  0  0  0  0  0
    3.2576   -0.2929    2.1920 C   0  0  0  0  0  0  0  0  0  0  0  0
    3.1292   -0.4576    3.2726 H   0  0  0  0  0  0  0  0  0  0  0  0
    2.1041   -0.1755    1.3717 C   0  0  0  0  0  0  0  0  0  0  0  0
    6.1268    0.1064   -0.3240 C   0  0  0  0  0  0  0  0  0  0  0  0
    6.6971    0.9451    0.1298 H   0  0  0  0  0  0  0  0  0  0  0  0
    6.1074    0.2669   -1.4195 H   0  0  0  0  0  0  0  0  0  0  0  0
    6.7122   -0.8175   -0.1285 H   0  0  0  0  0  0  0  0  0  0  0  0
  2  3  2  0  0  0  0
  3  4  1  0  0  0  0
  4 12  1  0  0  0  0
  5  4  2  0  0  0  0
  5  7  1  0  0  0  0
  6  5  1  0  0  0  0
  7  8  2  0  0  0  0
  8 10  1  0  0  0  0
  8  9  1  0  0  0  0
 10 11  1  0  0  0  0
 12  1  1  0  0  0  0
 12 10  2  0  0  0  0
 13 16  1  0  0  0  0
 13 14  1  0  0  0  0
 13  7  1  0  0  0  0
 15 13  1  0  0  0  0
M  END
