1,39
 OpenBabel05122313053D

 41 42  0  0  0  0  0  0  0  0999 V2000
    0.1422    1.1798   -0.2531 C   0  0  0  0  0  2  0  0  0  0  0  0
   -1.2122    2.9739    0.0888 C   0  0  0  0  0  0  0  0  0  0  0  0
   -2.1558    3.4869    0.2934 H   0  0  0  0  0  0  0  0  0  0  0  0
    0.0545    3.4538   -0.1083 C   0  0  0  0  0  0  0  0  0  0  0  0
    0.4425    4.4765   -0.1276 H   0  0  0  0  0  0  0  0  0  0  0  0
    2.3172    2.3564   -0.4048 C   0  0  0  0  0  0  0  0  0  0  0  0
    2.6410    3.4097   -0.5224 H   0  0  0  0  0  0  0  0  0  0  0  0
    2.6310    1.7976   -1.3106 H   0  0  0  0  0  0  0  0  0  0  0  0
    2.9416    1.7487    0.8535 C   0  0  0  0  0  0  0  0  0  0  0  0
    2.4695    2.1760    1.7606 H   0  0  0  0  0  0  0  0  0  0  0  0
    4.0279    1.9615    0.9030 H   0  0  0  0  0  0  0  0  0  0  0  0
    4.1960   -0.6044   -0.0385 C   0  0  0  0  0  0  0  0  0  0  0  0
    3.9175   -1.6492   -0.2923 H   0  0  0  0  0  0  0  0  0  0  0  0
    4.1818   -0.0192   -0.9808 H   0  0  0  0  0  0  0  0  0  0  0  0
    5.5086   -0.4957    0.7205 C   0  0  0  0  0  0  0  0  0  0  0  0
    5.7627    0.5472    1.0043 H   0  0  0  0  0  0  0  0  0  0  0  0
    6.3343   -0.8700    0.0811 H   0  0  0  0  0  0  0  0  0  0  0  0
    5.4890   -1.1078    1.6437 H   0  0  0  0  0  0  0  0  0  0  0  0
   -2.2743    0.7308    0.2599 C   0  0  0  0  0  0  0  0  0  0  0  0
   -2.3219    0.0308    1.4835 C   0  0  0  0  0  0  0  0  0  0  0  0
   -3.4523   -0.7688    1.7306 C   0  0  0  0  0  0  0  0  0  0  0  0
   -3.5050   -1.3279    2.6784 H   0  0  0  0  0  0  0  0  0  0  0  0
   -4.5078   -0.8729    0.8086 C   0  0  0  0  0  0  0  0  0  0  0  0
   -4.4192   -0.1444   -0.3927 C   0  0  0  0  0  0  0  0  0  0  0  0
   -5.2318   -0.2214   -1.1326 H   0  0  0  0  0  0  0  0  0  0  0  0
   -3.3106    0.6609   -0.6972 C   0  0  0  0  0  0  0  0  0  0  0  0
   -3.1901    1.3513   -2.0287 C   0  0  0  0  0  0  0  0  0  0  0  0
   -4.1014    1.2003   -2.6369 H   0  0  0  0  0  0  0  0  0  0  0  0
   -2.3243    0.9170   -2.5741 H   0  0  0  0  0  0  0  0  0  0  0  0
   -3.0157    2.4427   -1.9369 H   0  0  0  0  0  0  0  0  0  0  0  0
   -5.6882   -1.7711    1.0782 C   0  0  0  0  0  0  0  0  0  0  0  0
   -5.5514   -2.7557    0.5816 H   0  0  0  0  0  0  0  0  0  0  0  0
   -6.6300   -1.3384    0.6858 H   0  0  0  0  0  0  0  0  0  0  0  0
   -5.8182   -1.9645    2.1608 H   0  0  0  0  0  0  0  0  0  0  0  0
   -1.1970    0.1023    2.4824 C   0  0  0  0  0  0  0  0  0  0  0  0
   -0.3405   -0.5245    2.1490 H   0  0  0  0  0  0  0  0  0  0  0  0
   -1.5227   -0.2654    3.4736 H   0  0  0  0  0  0  0  0  0  0  0  0
   -0.8090    1.1346    2.6022 H   0  0  0  0  0  0  0  0  0  0  0  0
    2.7430   -0.0810    0.9742 S   0  0  0  0  0  0  0  0  0  0  0  0
   -1.1426    1.5853   -0.0007 N   0  0  0  0  0  0  0  0  0  0  0  0
    0.8633    2.3420   -0.3219 N   0  0  0  0  0  0  0  0  0  0  0  0
  1 40  1  0  0  0  0
  2  3  1  0  0  0  0
  4  2  2  0  0  0  0
  5  4  1  0  0  0  0
  6 41  1  0  0  0  0
  6  9  1  0  0  0  0
  7  6  1  0  0  0  0
  8  6  1  0  0  0  0
  9 11  1  0  0  0  0
  9 39  1  0  0  0  0
  9 10  1  0  0  0  0
 12 15  1  0  0  0  0
 12 39  1  0  0  0  0
 13 12  1  0  0  0  0
 14 12  1  0  0  0  0
 15 16  1  0  0  0  0
 15 18  1  0  0  0  0
 17 15  1  0  0  0  0
 19 20  1  0  0  0  0
 20 21  2  0  0  0  0
 20 35  1  0  0  0  0
 21 22  1  0  0  0  0
 23 31  1  0  0  0  0
 23 21  1  0  0  0  0
 24 23  2  0  0  0  0
 25 24  1  0  0  0  0
 26 24  1  0  0  0  0
 26 19  2  0  0  0  0
 27 30  1  0  0  0  0
 27 26  1  0  0  0  0
 28 27  1  0  0  0  0
 29 27  1  0  0  0  0
 31 34  1  0  0  0  0
 32 31  1  0  0  0  0
 33 31  1  0  0  0  0
 35 38  1  0  0  0  0
 35 37  1  0  0  0  0
 36 35  1  0  0  0  0
 40  2  1  0  0  0  0
 40 19  1  0  0  0  0
 41  1  1  0  0  0  0
 41  4  1  0  0  0  0
M  END
