7,10
 OpenBabel05122313053D

 10  9  0  0  0  0  0  0  0  0999 V2000
    1.0058   -3.6879    1.1634 C   0  0  0  0  0  0  0  0  0  0  0  0
    1.2019   -3.5105    2.2425 H   0  0  0  0  0  0  0  0  0  0  0  0
    0.6302   -4.7242    1.0461 H   0  0  0  0  0  0  0  0  0  0  0  0
    2.2186   -3.3646    0.3118 C   0  0  0  0  0  0  0  0  0  0  0  0
    2.0698   -3.7639   -0.7142 H   0  0  0  0  0  0  0  0  0  0  0  0
    3.1235   -3.8659    0.7282 H   0  0  0  0  0  0  0  0  0  0  0  0
    2.4105   -1.8520    0.2584 C   0  0  0  0  0  3  0  0  0  0  0  0
    3.2365   -1.5509   -0.4170 H   0  0  0  0  0  0  0  0  0  0  0  0
    2.6581   -1.4404    1.2614 H   0  0  0  0  0  0  0  0  0  0  0  0
   -0.3547   -2.5335    0.6556 S   0  0  0  0  0  1  0  0  0  0  0  0
  1  2  1  0  0  0  0
  3  1  1  0  0  0  0
  4  6  1  0  0  0  0
  4  1  1  0  0  0  0
  5  4  1  0  0  0  0
  7  4  1  0  0  0  0
  7  9  1  0  0  0  0
  8  7  1  0  0  0  0
 10  1  1  0  0  0  0
M  END
