1,2
 OpenBabel05122313053D

 14 14  0  0  0  0  0  0  0  0999 V2000
    0.2510    2.3276    0.1200 S   0  0  0  0  0  1  0  0  0  0  0  0
    2.5514    0.6069    0.1106 C   0  0  0  0  0  3  0  0  0  0  0  0
    2.4485    0.2380    1.1590 H   0  0  0  0  0  0  0  0  0  0  0  0
    3.3099   -0.0427   -0.3688 H   0  0  0  0  0  0  0  0  0  0  0  0
    2.9395    2.0472    0.1364 C   0  0  0  0  0  0  0  0  0  0  0  0
    4.2662    2.5171    0.0975 C   0  0  0  0  0  0  0  0  0  0  0  0
    5.0905    1.7947   -0.0139 H   0  0  0  0  0  0  0  0  0  0  0  0
    4.5380    3.8889    0.2212 C   0  0  0  0  0  0  0  0  0  0  0  0
    5.5792    4.2448    0.1918 H   0  0  0  0  0  0  0  0  0  0  0  0
    3.4873    4.8090    0.3897 C   0  0  0  0  0  0  0  0  0  0  0  0
    3.7055    5.8834    0.4877 H   0  0  0  0  0  0  0  0  0  0  0  0
    2.1574    4.3635    0.4114 C   0  0  0  0  0  0  0  0  0  0  0  0
    1.3237    5.0747    0.5149 H   0  0  0  0  0  0  0  0  0  0  0  0
    1.8969    2.9906    0.2586 C   0  0  0  0  0  0  0  0  0  0  0  0
  1 14  1  0  0  0  0
  2  5  1  0  0  0  0
  2  3  1  0  0  0  0
  4  2  1  0  0  0  0
  5 14  1  0  0  0  0
  6  5  2  0  0  0  0
  6  8  1  0  0  0  0
  7  6  1  0  0  0  0
  8 10  2  0  0  0  0
  9  8  1  0  0  0  0
 10 12  1  0  0  0  0
 10 11  1  0  0  0  0
 12 13  1  0  0  0  0
 14 12  2  0  0  0  0
M  END
