1,3
 OpenBabel05122313053D

 18 17  0  0  0  0  0  0  0  0999 V2000
    0.7035    1.9656   -0.7809 S   0  0  0  0  0  0  0  0  0  0  0  0
   -2.5423   -0.0471    0.0558 N   0  0  0  0  0  0  0  0  0  0  0  0
   -1.2974    0.3824   -0.1519 C   0  0  0  0  0  2  0  0  0  0  0  0
   -1.1255    1.8146   -0.5966 C   0  0  0  0  0  0  0  0  0  0  0  0
   -1.4889    2.5764    0.1288 H   0  0  0  0  0  0  0  0  0  0  0  0
   -1.5953    2.0375   -1.5804 H   0  0  0  0  0  0  0  0  0  0  0  0
    1.1374    3.0286    0.6364 C   0  0  0  0  0  0  0  0  0  0  0  0
    0.8730    4.0834    0.4262 H   0  0  0  0  0  0  0  0  0  0  0  0
    2.2346    2.9420    0.7536 H   0  0  0  0  0  0  0  0  0  0  0  0
    0.6532    2.6670    1.5626 H   0  0  0  0  0  0  0  0  0  0  0  0
   -2.8231   -1.4151    0.4811 C   0  0  0  0  0  0  0  0  0  0  0  0
   -3.4913   -1.9108   -0.2539 H   0  0  0  0  0  0  0  0  0  0  0  0
   -3.3317   -1.4099    1.4681 H   0  0  0  0  0  0  0  0  0  0  0  0
   -1.8785   -1.9746    0.5570 H   0  0  0  0  0  0  0  0  0  0  0  0
   -3.7516    0.7633   -0.0992 C   0  0  0  0  0  0  0  0  0  0  0  0
   -4.2996    0.8200    0.8652 H   0  0  0  0  0  0  0  0  0  0  0  0
   -4.4289    0.2979   -0.8460 H   0  0  0  0  0  0  0  0  0  0  0  0
   -3.5148    1.7880   -0.4304 H   0  0  0  0  0  0  0  0  0  0  0  0
  1  4  1  0  0  0  0
  1  7  1  0  0  0  0
  2 11  1  0  0  0  0
  3  2  1  0  0  0  0
  4  3  1  0  0  0  0
  4  5  1  0  0  0  0
  6  4  1  0  0  0  0
  7  9  1  0  0  0  0
  7 10  1  0  0  0  0
  8  7  1  0  0  0  0
 11 14  1  0  0  0  0
 11 13  1  0  0  0  0
 12 11  1  0  0  0  0
 15  2  1  0  0  0  0
 15 16  1  0  0  0  0
 17 15  1  0  0  0  0
 18 15  1  0  0  0  0
M  END
