1,22
 OpenBabel05122313053D

 22 21  0  0  0  0  0  0  0  0999 V2000
   -0.7324   -1.6707   -0.5590 S   0  0  0  0  0  0  0  0  0  0  0  0
   -2.8332   -0.1080    0.9804 S   0  0  0  0  0  0  0  0  0  0  0  0
   -1.6527   -0.0582   -0.4184 C   0  0  0  0  0  0  0  0  0  0  0  0
   -2.2160    0.1054   -1.3678 H   0  0  0  0  0  0  0  0  0  0  0  0
   -0.6463   -1.8652   -2.3727 C   0  0  0  0  0  0  0  0  0  0  0  0
   -1.6226   -2.2003   -2.7749 H   0  0  0  0  0  0  0  0  0  0  0  0
    0.1167   -2.6448   -2.5597 H   0  0  0  0  0  0  0  0  0  0  0  0
   -0.3128   -0.9257   -2.8514 H   0  0  0  0  0  0  0  0  0  0  0  0
   -4.0181   -1.3110    0.3068 C   0  0  0  0  0  0  0  0  0  0  0  0
   -4.5633   -0.9080   -0.5702 H   0  0  0  0  0  0  0  0  0  0  0  0
   -4.7411   -1.5311    1.1152 H   0  0  0  0  0  0  0  0  0  0  0  0
   -3.4877   -2.2459    0.0344 H   0  0  0  0  0  0  0  0  0  0  0  0
    0.2371    3.2342   -0.1835 C   0  0  0  0  0  0  0  0  0  0  0  0
    1.1603    2.7654    0.1900 H   0  0  0  0  0  0  0  0  0  0  0  0
   -0.0914    4.0265    0.5198 H   0  0  0  0  0  0  0  0  0  0  0  0
    0.4372    3.7009   -1.1715 H   0  0  0  0  0  0  0  0  0  0  0  0
   -2.1071    2.7538   -0.7220 C   0  0  0  0  0  0  0  0  0  0  0  0
   -2.9228    2.0742   -0.4129 H   0  0  0  0  0  0  0  0  0  0  0  0
   -2.1367    2.9160   -1.8214 H   0  0  0  0  0  0  0  0  0  0  0  0
   -2.2724    3.7310   -0.2282 H   0  0  0  0  0  0  0  0  0  0  0  0
   -0.8046    2.2191   -0.3098 N   0  0  0  0  0  0  0  0  0  0  0  0
   -0.5237    0.9214   -0.1718 C   0  0  0  0  0  2  0  0  0  0  0  0
  1  3  1  0  0  0  0
  3 22  1  0  0  0  0
  3  2  1  0  0  0  0
  4  3  1  0  0  0  0
  5  1  1  0  0  0  0
  6  5  1  0  0  0  0
  7  5  1  0  0  0  0
  8  5  1  0  0  0  0
  9  2  1  0  0  0  0
  9 11  1  0  0  0  0
 10  9  1  0  0  0  0
 12  9  1  0  0  0  0
 13 14  1  0  0  0  0
 13 15  1  0  0  0  0
 16 13  1  0  0  0  0
 17 18  1  0  0  0  0
 17 21  1  0  0  0  0
 17 20  1  0  0  0  0
 19 17  1  0  0  0  0
 21 13  1  0  0  0  0
 21 22  1  0  0  0  0
M  END
