1,7
 OpenBabel05122313053D

 10  9  0  0  0  0  0  0  0  0999 V2000
    1.7612   -1.8988    0.0896 S   0  0  0  0  0  1  0  0  0  0  0  0
    3.4225   -1.4862    0.0815 C   0  0  0  0  0  0  0  0  0  0  0  0
    4.0873   -2.3625    0.1634 H   0  0  0  0  0  0  0  0  0  0  0  0
    4.0065   -0.2331   -0.0222 C   0  0  0  0  0  0  0  0  0  0  0  0
    3.3109    1.0342   -0.1578 C   0  0  0  0  0  0  0  0  0  0  0  0
    3.9911    1.8981   -0.2708 H   0  0  0  0  0  0  0  0  0  0  0  0
    1.9647    1.2873   -0.1690 C   0  0  0  0  0  3  0  0  0  0  0  0
    1.7362    2.3619   -0.2943 H   0  0  0  0  0  0  0  0  0  0  0  0
    5.4413   -0.1877   -0.0082 C   0  0  0  0  0  0  0  0  0  0  0  0
    6.6167   -0.1368    0.0030 N   0  0  0  0  0  0  0  0  0  0  0  0
  2  1  1  0  0  0  0
  2  3  1  0  0  0  0
  4  9  1  0  0  0  0
  4  2  2  0  0  0  0
  5  4  1  0  0  0  0
  6  5  1  0  0  0  0
  7  5  2  0  0  0  0
  8  7  1  0  0  0  0
  9 10  3  0  0  0  0
M  END
