1,21
 OpenBabel05122313053D

 48 51  0  0  0  0  0  0  0  0999 V2000
    3.3689   -0.5630    0.3671 S   0  0  0  0  0  0  0  0  0  0  0  0
    5.2354    1.6129    0.9033 S   0  0  0  0  0  0  0  0  0  0  0  0
   -1.8317    4.1451   -1.8862 S   0  0  0  0  0  0  0  0  0  0  0  0
   -1.6610    5.4065    0.8540 S   0  0  0  0  0  0  0  0  0  0  0  0
    3.4837    1.1283    1.1545 C   0  0  0  0  0  0  0  0  0  0  0  0
    3.3531    0.9355    2.2393 H   0  0  0  0  0  0  0  0  0  0  0  0
    4.1624    0.0869   -1.1562 C   0  0  0  0  0  0  0  0  0  0  0  0
    4.2970   -0.7762   -1.8367 H   0  0  0  0  0  0  0  0  0  0  0  0
    3.4594    0.8071   -1.6185 H   0  0  0  0  0  0  0  0  0  0  0  0
    5.4671    0.7451   -0.7235 C   0  0  0  0  0  0  0  0  0  0  0  0
    5.7964    1.4827   -1.4823 H   0  0  0  0  0  0  0  0  0  0  0  0
    6.2700   -0.0044   -0.5812 H   0  0  0  0  0  0  0  0  0  0  0  0
   -0.6714    4.8777   -0.6125 C   0  0  0  0  0  0  0  0  0  0  0  0
   -0.2166    5.7669   -1.0930 H   0  0  0  0  0  0  0  0  0  0  0  0
   -3.3762    4.3135   -0.9146 C   0  0  0  0  0  0  0  0  0  0  0  0
   -4.2043    4.4081   -1.6480 H   0  0  0  0  0  0  0  0  0  0  0  0
   -3.5488    3.4090   -0.2955 H   0  0  0  0  0  0  0  0  0  0  0  0
   -3.2444    5.5545   -0.0420 C   0  0  0  0  0  0  0  0  0  0  0  0
   -4.0439    5.6106    0.7259 H   0  0  0  0  0  0  0  0  0  0  0  0
   -3.2675    6.4809   -0.6522 H   0  0  0  0  0  0  0  0  0  0  0  0
    0.5675    0.4195    1.2058 C   0  0  0  0  0  2  0  0  0  0  0  0
    2.4312    2.0908    0.6400 C   0  0  0  0  0  0  0  0  0  0  0  0
    2.7639    3.3363    0.0847 C   0  0  0  0  0  0  0  0  0  0  0  0
    3.8289    3.5999   -0.0001 H   0  0  0  0  0  0  0  0  0  0  0  0
    1.7709    4.2367   -0.3358 C   0  0  0  0  0  0  0  0  0  0  0  0
    2.0607    5.2017   -0.7801 H   0  0  0  0  0  0  0  0  0  0  0  0
    0.4117    3.9177   -0.1814 C   0  0  0  0  0  0  0  0  0  0  0  0
    0.0719    2.6789    0.3865 C   0  0  0  0  0  0  0  0  0  0  0  0
   -0.9867    2.4102    0.5095 H   0  0  0  0  0  0  0  0  0  0  0  0
    1.0540    1.7544    0.7758 C   0  0  0  0  0  0  0  0  0  0  0  0
   -0.9115   -0.8454    2.6103 C   0  0  0  0  0  0  0  0  0  0  0  0
   -0.2559   -1.9964    3.1280 C   0  0  0  0  0  0  0  0  0  0  0  0
   -1.0521   -3.0674    3.5756 C   0  0  0  0  0  0  0  0  0  0  0  0
   -0.5523   -3.9608    3.9821 H   0  0  0  0  0  0  0  0  0  0  0  0
   -2.4515   -3.0170    3.5143 C   0  0  0  0  0  0  0  0  0  0  0  0
   -3.0510   -3.8686    3.8694 H   0  0  0  0  0  0  0  0  0  0  0  0
   -3.0834   -1.8699    3.0101 C   0  0  0  0  0  0  0  0  0  0  0  0
   -4.1826   -1.8186    2.9617 H   0  0  0  0  0  0  0  0  0  0  0  0
   -2.3335   -0.7686    2.5679 C   0  0  0  0  0  0  0  0  0  0  0  0
    1.2463   -2.0740    3.2034 C   0  0  0  0  0  0  0  0  0  0  0  0
    1.6850   -2.3163    2.2107 H   0  0  0  0  0  0  0  0  0  0  0  0
    1.5687   -2.8616    3.9110 H   0  0  0  0  0  0  0  0  0  0  0  0
    1.6898   -1.1094    3.5246 H   0  0  0  0  0  0  0  0  0  0  0  0
   -2.9946    0.4756    2.0380 C   0  0  0  0  0  0  0  0  0  0  0  0
   -4.0878    0.4559    2.2090 H   0  0  0  0  0  0  0  0  0  0  0  0
   -2.8277    0.5874    0.9455 H   0  0  0  0  0  0  0  0  0  0  0  0
   -2.5643    1.3838    2.5086 H   0  0  0  0  0  0  0  0  0  0  0  0
   -0.2136    0.2946    2.2035 N   0  0  0  0  0  2  0  0  0  0  0  0
  1  5  1  0  0  0  0
  2  5  1  0  0  0  0
  3 15  1  0  0  0  0
  3 13  1  0  0  0  0
  5  6  1  0  0  0  0
  7 10  1  0  0  0  0
  7  1  1  0  0  0  0
  8  7  1  0  0  0  0
  9  7  1  0  0  0  0
 10 12  1  0  0  0  0
 10  2  1  0  0  0  0
 11 10  1  0  0  0  0
 13 27  1  0  0  0  0
 13  4  1  0  0  0  0
 14 13  1  0  0  0  0
 15 17  1  0  0  0  0
 15 18  1  0  0  0  0
 16 15  1  0  0  0  0
 18 19  1  0  0  0  0
 18  4  1  0  0  0  0
 20 18  1  0  0  0  0
 21 48  1  0  0  0  0
 22 30  1  0  0  0  0
 22  5  1  0  0  0  0
 23 22  2  0  0  0  0
 24 23  1  0  0  0  0
 25 27  2  0  0  0  0
 25 23  1  0  0  0  0
 26 25  1  0  0  0  0
 27 28  1  0  0  0  0
 28 29  1  0  0  0  0
 28 30  2  0  0  0  0
 30 21  1  0  0  0  0
 31 32  1  0  0  0  0
 32 40  1  0  0  0  0
 32 33  2  0  0  0  0
 33 34  1  0  0  0  0
 35 33  1  0  0  0  0
 35 36  1  0  0  0  0
 37 35  2  0  0  0  0
 38 37  1  0  0  0  0
 39 31  2  0  0  0  0
 39 37  1  0  0  0  0
 40 43  1  0  0  0  0
 40 42  1  0  0  0  0
 41 40  1  0  0  0  0
 44 45  1  0  0  0  0
 44 47  1  0  0  0  0
 44 39  1  0  0  0  0
 46 44  1  0  0  0  0
 48 31  1  0  0  0  0
M  END
