1,34
 OpenBabel05122313053D

 51 53  0  0  0  0  0  0  0  0999 V2000
   -1.9790   -2.1591    0.5471 S   0  0  0  0  0  0  0  0  0  0  0  0
   -4.8281   -1.7151    1.0028 S   0  0  0  0  0  0  0  0  0  0  0  0
   -1.7576    1.0791    0.6364 C   0  0  0  0  0  0  0  0  0  0  0  0
   -1.5567    2.3195   -0.0229 C   0  0  0  0  0  0  0  0  0  0  0  0
   -2.6189    2.9479   -0.7083 C   0  0  0  0  0  0  0  0  0  0  0  0
   -3.8917    2.3197   -0.7492 C   0  0  0  0  0  0  0  0  0  0  0  0
   -4.0807    1.0776   -0.1195 C   0  0  0  0  0  0  0  0  0  0  0  0
   -5.0530    0.5674   -0.1353 H   0  0  0  0  0  0  0  0  0  0  0  0
   -3.0248    0.4538    0.5672 C   0  0  0  0  0  0  0  0  0  0  0  0
    0.3538    3.1065   -1.2061 C   0  0  0  0  0  0  0  0  0  0  0  0
    0.4199    2.1589   -1.7845 H   0  0  0  0  0  0  0  0  0  0  0  0
    1.3779    3.4404   -0.9521 H   0  0  0  0  0  0  0  0  0  0  0  0
   -0.1565    3.8779   -1.8165 H   0  0  0  0  0  0  0  0  0  0  0  0
   -2.9821    5.2806   -0.6991 C   0  0  0  0  0  0  0  0  0  0  0  0
   -4.0900    5.2097   -0.6740 H   0  0  0  0  0  0  0  0  0  0  0  0
   -2.6882    6.1638   -1.2973 H   0  0  0  0  0  0  0  0  0  0  0  0
   -2.5948    5.3971    0.3370 H   0  0  0  0  0  0  0  0  0  0  0  0
   -6.1492    2.4113   -1.5012 C   0  0  0  0  0  0  0  0  0  0  0  0
   -6.1238    1.4293   -2.0243 H   0  0  0  0  0  0  0  0  0  0  0  0
   -6.7760    3.1127   -2.0820 H   0  0  0  0  0  0  0  0  0  0  0  0
   -6.6010    2.2653   -0.4947 H   0  0  0  0  0  0  0  0  0  0  0  0
   -0.3165    2.8904    0.0395 O   0  0  0  0  0  0  0  0  0  0  0  0
   -2.4017    4.1435   -1.3386 O   0  0  0  0  0  0  0  0  0  0  0  0
   -4.8620    2.9964   -1.4229 O   0  0  0  0  0  0  0  0  0  0  0  0
   -3.1984   -0.9031    1.2215 C   0  0  0  0  0  0  0  0  0  0  0  0
   -2.9901   -0.8673    2.3099 H   0  0  0  0  0  0  0  0  0  0  0  0
   -2.9744   -2.2990   -0.9863 C   0  0  0  0  0  0  0  0  0  0  0  0
   -2.9105   -1.3292   -1.5176 H   0  0  0  0  0  0  0  0  0  0  0  0
   -2.4977   -3.0831   -1.6060 H   0  0  0  0  0  0  0  0  0  0  0  0
   -4.3996   -2.6309   -0.5575 C   0  0  0  0  0  0  0  0  0  0  0  0
   -4.5155   -3.7109   -0.3412 H   0  0  0  0  0  0  0  0  0  0  0  0
   -5.1177   -2.3467   -1.3526 H   0  0  0  0  0  0  0  0  0  0  0  0
   -0.1233    0.7961    2.4009 N   0  0  0  0  0  2  0  0  0  0  0  0
   -0.5866    0.4307    1.2791 C   0  0  0  0  0  2  0  0  0  0  0  0
    1.0350    0.3855    3.0669 C   0  0  0  0  0  0  0  0  0  0  0  0
    1.2224   -0.9335    3.5636 C   0  0  0  0  0  0  0  0  0  0  0  0
    2.4023   -1.2108    4.2810 C   0  0  0  0  0  0  0  0  0  0  0  0
    2.5529   -2.2303    4.6700 H   0  0  0  0  0  0  0  0  0  0  0  0
    3.3725   -0.2268    4.5076 C   0  0  0  0  0  0  0  0  0  0  0  0
    4.2864   -0.4707    5.0697 H   0  0  0  0  0  0  0  0  0  0  0  0
    3.1617    1.0755    4.0307 C   0  0  0  0  0  0  0  0  0  0  0  0
    3.9104    1.8616    4.2182 H   0  0  0  0  0  0  0  0  0  0  0  0
    1.9961    1.4062    3.3219 C   0  0  0  0  0  0  0  0  0  0  0  0
    0.1977   -2.0162    3.3514 C   0  0  0  0  0  0  0  0  0  0  0  0
    0.3031   -2.4805    2.3466 H   0  0  0  0  0  0  0  0  0  0  0  0
   -0.8370   -1.6233    3.4202 H   0  0  0  0  0  0  0  0  0  0  0  0
    0.3118   -2.8222    4.1018 H   0  0  0  0  0  0  0  0  0  0  0  0
    1.7357    2.8033    2.8272 C   0  0  0  0  0  0  0  0  0  0  0  0
    2.5426    3.4968    3.1328 H   0  0  0  0  0  0  0  0  0  0  0  0
    0.7674    3.1811    3.2171 H   0  0  0  0  0  0  0  0  0  0  0  0
    1.6262    2.8365    1.7238 H   0  0  0  0  0  0  0  0  0  0  0  0
  1 25  1  0  0  0  0
  2 25  1  0  0  0  0
  3 34  1  0  0  0  0
  4 22  1  0  0  0  0
  4  3  2  0  0  0  0
  5  4  1  0  0  0  0
  6  5  2  0  0  0  0
  6  7  1  0  0  0  0
  7  9  2  0  0  0  0
  8  7  1  0  0  0  0
  9  3  1  0  0  0  0
  9 25  1  0  0  0  0
 10 12  1  0  0  0  0
 10 22  1  0  0  0  0
 11 10  1  0  0  0  0
 13 10  1  0  0  0  0
 14 15  1  0  0  0  0
 14 17  1  0  0  0  0
 16 14  1  0  0  0  0
 18 24  1  0  0  0  0
 18 21  1  0  0  0  0
 19 18  1  0  0  0  0
 20 18  1  0  0  0  0
 23  5  1  0  0  0  0
 23 14  1  0  0  0  0
 24  6  1  0  0  0  0
 25 26  1  0  0  0  0
 27 30  1  0  0  0  0
 27  1  1  0  0  0  0
 28 27  1  0  0  0  0
 29 27  1  0  0  0  0
 30 31  1  0  0  0  0
 30  2  1  0  0  0  0
 32 30  1  0  0  0  0
 33 35  1  0  0  0  0
 34 33  1  0  0  0  0
 35 43  2  0  0  0  0
 35 36  1  0  0  0  0
 36 37  2  0  0  0  0
 37 39  1  0  0  0  0
 37 38  1  0  0  0  0
 39 40  1  0  0  0  0
 41 42  1  0  0  0  0
 41 39  2  0  0  0  0
 43 41  1  0  0  0  0
 44 46  1  0  0  0  0
 44 36  1  0  0  0  0
 44 47  1  0  0  0  0
 45 44  1  0  0  0  0
 48 49  1  0  0  0  0
 48 50  1  0  0  0  0
 48 43  1  0  0  0  0
 51 48  1  0  0  0  0
M  END
