1,3
 OpenBabel05122313053D

  3  2  0  0  0  0  0  0  0  0999 V2000
   -1.8514   -2.7770    0.0021 S   0  0  0  0  0  0  0  0  0  0  0  0
   -4.4764   -0.9944   -0.0019 S   0  0  0  0  0  0  0  0  0  0  0  0
   -2.9124   -1.4402   -0.0002 C   0  0  0  0  0  0  0  0  0  0  0  0
  2  3  2  0  0  0  0
  3  1  1  0  0  0  0
M  END
