1,6
 OpenBabel05122313053D

 21 20  0  0  0  0  0  0  0  0999 V2000
   -1.8221    1.3553   -1.6624 S   0  0  0  0  0  1  0  0  0  0  0  0
    2.8643   -0.1073    0.0741 Si  0  0  0  0  0  0  0  0  0  0  0  0
   -1.0729    2.8575   -1.1979 C   0  0  0  0  0  0  0  0  0  0  0  0
    0.1991    3.0528   -0.7080 C   0  0  0  0  0  0  0  0  0  0  0  0
    1.2476    2.1010   -0.3956 C   0  0  0  0  0  0  0  0  0  0  0  0
    1.1904    0.7284   -0.2152 C   0  0  0  0  0  3  0  0  0  0  0  0
    4.2526    1.1706    0.3165 C   0  0  0  0  0  0  0  0  0  0  0  0
    2.8351   -1.1557    1.6663 C   0  0  0  0  0  0  0  0  0  0  0  0
    3.4071   -1.1983   -1.3878 C   0  0  0  0  0  0  0  0  0  0  0  0
   -1.6747    3.7523   -1.4350 H   0  0  0  0  0  0  0  0  0  0  0  0
    0.4970    4.1135   -0.6229 H   0  0  0  0  0  0  0  0  0  0  0  0
    2.2329    2.6110   -0.3331 H   0  0  0  0  0  0  0  0  0  0  0  0
    4.4258    1.7775   -0.5958 H   0  0  0  0  0  0  0  0  0  0  0  0
    4.0344    1.8658    1.1529 H   0  0  0  0  0  0  0  0  0  0  0  0
    5.2012    0.6452    0.5533 H   0  0  0  0  0  0  0  0  0  0  0  0
    2.7329   -0.5001    2.5559 H   0  0  0  0  0  0  0  0  0  0  0  0
    2.0007   -1.8846    1.6965 H   0  0  0  0  0  0  0  0  0  0  0  0
    3.7838   -1.7209    1.7777 H   0  0  0  0  0  0  0  0  0  0  0  0
    2.8089   -2.1213   -1.5134 H   0  0  0  0  0  0  0  0  0  0  0  0
    3.3496   -0.6240   -2.3353 H   0  0  0  0  0  0  0  0  0  0  0  0
    4.4642   -1.5053   -1.2438 H   0  0  0  0  0  0  0  0  0  0  0  0
  1  3  1  0  0  0  0
  2  7  1  0  0  0  0
  2  8  1  0  0  0  0
  3  4  2  0  0  0  0
  4 11  1  0  0  0  0
  4  5  1  0  0  0  0
  5 12  1  0  0  0  0
  5  6  2  0  0  0  0
  6  2  1  0  0  0  0
  7 15  1  0  0  0  0
  7 14  1  0  0  0  0
  8 17  1  0  0  0  0
  8 18  1  0  0  0  0
  8 16  1  0  0  0  0
  9 21  1  0  0  0  0
  9  2  1  0  0  0  0
 10  3  1  0  0  0  0
 13  7  1  0  0  0  0
 19  9  1  0  0  0  0
 20  9  1  0  0  0  0
M  END
