1,2
 OpenBabel05122313053D

 27 27  0  0  0  0  0  0  0  0999 V2000
    1.2750   -0.5716   -0.8921 S   0  0  0  0  0  0  0  0  0  0  0  0
   -1.3924    0.0434   -0.0076 C   0  0  0  0  0  3  0  0  0  0  0  0
   -2.4855    0.3548    0.8210 C   0  0  0  0  0  0  0  0  0  0  0  0
   -3.6004   -0.5028    0.8721 C   0  0  0  0  0  0  0  0  0  0  0  0
   -3.6178   -1.6822    0.1146 C   0  0  0  0  0  0  0  0  0  0  0  0
   -2.5128   -2.0190   -0.6818 C   0  0  0  0  0  0  0  0  0  0  0  0
   -1.3943   -1.1686   -0.7471 C   0  0  0  0  0  0  0  0  0  0  0  0
   -0.1752   -1.5088   -1.5516 C   0  0  0  0  0  0  0  0  0  0  0  0
    1.9074   -1.5943    0.5808 C   0  0  0  0  0  0  0  0  0  0  0  0
    0.7898   -1.9800    1.5449 C   0  0  0  0  0  0  0  0  0  0  0  0
    2.5903   -2.8209   -0.0354 C   0  0  0  0  0  0  0  0  0  0  0  0
    2.9307   -0.6650    1.2453 C   0  0  0  0  0  0  0  0  0  0  0  0
   -2.4834    1.2516    1.4606 H   0  0  0  0  0  0  0  0  0  0  0  0
   -4.4527   -0.2454    1.5188 H   0  0  0  0  0  0  0  0  0  0  0  0
   -4.4877   -2.3535    0.1580 H   0  0  0  0  0  0  0  0  0  0  0  0
   -2.5151   -2.9604   -1.2535 H   0  0  0  0  0  0  0  0  0  0  0  0
   -0.2426   -1.1694   -2.6071 H   0  0  0  0  0  0  0  0  0  0  0  0
    0.0763   -2.5884   -1.5670 H   0  0  0  0  0  0  0  0  0  0  0  0
    0.0244   -2.6241    1.0721 H   0  0  0  0  0  0  0  0  0  0  0  0
    1.2360   -2.5523    2.3845 H   0  0  0  0  0  0  0  0  0  0  0  0
    0.2813   -1.0890    1.9606 H   0  0  0  0  0  0  0  0  0  0  0  0
    1.8694   -3.4904   -0.5452 H   0  0  0  0  0  0  0  0  0  0  0  0
    3.0608   -3.4110    0.7775 H   0  0  0  0  0  0  0  0  0  0  0  0
    3.3837   -2.5378   -0.7546 H   0  0  0  0  0  0  0  0  0  0  0  0
    3.4291   -1.2109    2.0719 H   0  0  0  0  0  0  0  0  0  0  0  0
    3.7224   -0.3465    0.5363 H   0  0  0  0  0  0  0  0  0  0  0  0
    2.4405    0.2290    1.6827 H   0  0  0  0  0  0  0  0  0  0  0  0
  1  9  1  0  0  0  0
  2  3  1  0  0  0  0
  3  4  2  0  0  0  0
  3 13  1  0  0  0  0
  4 14  1  0  0  0  0
  5 15  1  0  0  0  0
  5  4  1  0  0  0  0
  6  5  2  0  0  0  0
  7  6  1  0  0  0  0
  7  2  2  0  0  0  0
  8  1  1  0  0  0  0
  8  7  1  0  0  0  0
  9 12  1  0  0  0  0
  9 10  1  0  0  0  0
 10 21  1  0  0  0  0
 10 20  1  0  0  0  0
 11  9  1  0  0  0  0
 11 23  1  0  0  0  0
 12 27  1  0  0  0  0
 12 25  1  0  0  0  0
 16  6  1  0  0  0  0
 17  8  1  0  0  0  0
 18  8  1  0  0  0  0
 19 10  1  0  0  0  0
 22 11  1  0  0  0  0
 24 11  1  0  0  0  0
 26 12  1  0  0  0  0
M  END
