1,4
 OpenBabel05122313053D

 44 46  0  0  0  0  0  0  0  0999 V2000
   -0.7768    1.2273    2.0089 S   0  0  0  0  0  0  0  0  0  0  0  0
    1.7986    1.6018    0.0594 N   0  0  0  0  0  0  0  0  0  0  0  0
    1.7579   -0.2930   -1.0370 N   0  0  0  0  0  0  0  0  0  0  0  0
    0.9543    0.6771   -0.5021 C   0  0  0  0  0  2  0  0  0  0  0  0
    3.1318    1.2166   -0.0804 C   0  0  0  0  0  0  0  0  0  0  0  0
    4.3397    1.7974    0.3302 C   0  0  0  0  0  0  0  0  0  0  0  0
    4.3666    2.7466    0.8839 H   0  0  0  0  0  0  0  0  0  0  0  0
    5.5218    1.1143    0.0055 C   0  0  0  0  0  0  0  0  0  0  0  0
    6.4888    1.5389    0.3120 H   0  0  0  0  0  0  0  0  0  0  0  0
    5.4947   -0.1057   -0.7051 C   0  0  0  0  0  0  0  0  0  0  0  0
    6.4416   -0.6127   -0.9413 H   0  0  0  0  0  0  0  0  0  0  0  0
    4.2864   -0.6874   -1.1178 C   0  0  0  0  0  0  0  0  0  0  0  0
    4.2722   -1.6385   -1.6681 H   0  0  0  0  0  0  0  0  0  0  0  0
    3.1025   -0.0078   -0.7952 C   0  0  0  0  0  0  0  0  0  0  0  0
    1.2984    2.7342    0.8209 C   0  0  0  0  0  0  0  0  0  0  0  0
    0.5179    3.2401    0.2172 H   0  0  0  0  0  0  0  0  0  0  0  0
    2.1294    3.4511    0.9732 H   0  0  0  0  0  0  0  0  0  0  0  0
    0.7326    2.2953    2.1713 C   0  0  0  0  0  0  0  0  0  0  0  0
    0.4224    3.1830    2.7567 H   0  0  0  0  0  0  0  0  0  0  0  0
    1.4961    1.7426    2.7538 H   0  0  0  0  0  0  0  0  0  0  0  0
   -0.1744   -0.3518    2.8119 C   0  0  0  0  0  0  0  0  0  0  0  0
    0.7760   -0.6050    2.2951 H   0  0  0  0  0  0  0  0  0  0  0  0
    0.0524   -0.1187    4.3032 C   0  0  0  0  0  0  0  0  0  0  0  0
   -0.8941    0.1686    4.8041 H   0  0  0  0  0  0  0  0  0  0  0  0
    0.8077    0.6652    4.5117 H   0  0  0  0  0  0  0  0  0  0  0  0
    0.4148   -1.0583    4.7693 H   0  0  0  0  0  0  0  0  0  0  0  0
   -1.2168   -1.4277    2.5335 C   0  0  0  0  0  0  0  0  0  0  0  0
   -0.8951   -2.3754    3.0097 H   0  0  0  0  0  0  0  0  0  0  0  0
   -1.3337   -1.6080    1.4486 H   0  0  0  0  0  0  0  0  0  0  0  0
   -2.2083   -1.1431    2.9390 H   0  0  0  0  0  0  0  0  0  0  0  0
    1.2604   -1.4876   -1.7266 C   0  0  0  0  0  0  0  0  0  0  0  0
    2.1142   -1.9101   -2.2918 H   0  0  0  0  0  0  0  0  0  0  0  0
    0.4980   -1.1417   -2.4538 H   0  0  0  0  0  0  0  0  0  0  0  0
    0.6657   -2.5209   -0.7932 C   0  0  0  0  0  0  0  0  0  0  0  0
    1.4354   -3.1074    0.2320 C   0  0  0  0  0  0  0  0  0  0  0  0
    2.4819   -2.7939    0.3795 H   0  0  0  0  0  0  0  0  0  0  0  0
    0.8813   -4.0960    1.0585 C   0  0  0  0  0  0  0  0  0  0  0  0
    1.4925   -4.5531    1.8519 H   0  0  0  0  0  0  0  0  0  0  0  0
   -0.4475   -4.5111    0.8652 C   0  0  0  0  0  0  0  0  0  0  0  0
   -0.8806   -5.2911    1.5098 H   0  0  0  0  0  0  0  0  0  0  0  0
   -1.2228   -3.9208   -0.1442 C   0  0  0  0  0  0  0  0  0  0  0  0
   -2.2705   -4.2246   -0.2875 H   0  0  0  0  0  0  0  0  0  0  0  0
   -0.6721   -2.9246   -0.9661 C   0  0  0  0  0  0  0  0  0  0  0  0
   -1.2848   -2.4355   -1.7393 H   0  0  0  0  0  0  0  0  0  0  0  0
  1 18  1  0  0  0  0
  1 21  1  0  0  0  0
  2 15  1  0  0  0  0
  3 14  1  0  0  0  0
  3  4  1  0  0  0  0
  4  2  1  0  0  0  0
  5  2  1  0  0  0  0
  5  6  1  0  0  0  0
  6  7  1  0  0  0  0
  8  9  1  0  0  0  0
  8  6  2  0  0  0  0
 10  8  1  0  0  0  0
 11 10  1  0  0  0  0
 12 14  1  0  0  0  0
 12 10  2  0  0  0  0
 13 12  1  0  0  0  0
 14  5  2  0  0  0  0
 15 17  1  0  0  0  0
 15 18  1  0  0  0  0
 16 15  1  0  0  0  0
 18 20  1  0  0  0  0
 18 19  1  0  0  0  0
 21 23  1  0  0  0  0
 22 21  1  0  0  0  0
 23 25  1  0  0  0  0
 23 26  1  0  0  0  0
 23 24  1  0  0  0  0
 27 21  1  0  0  0  0
 27 30  1  0  0  0  0
 27 28  1  0  0  0  0
 29 27  1  0  0  0  0
 31  3  1  0  0  0  0
 31 34  1  0  0  0  0
 32 31  1  0  0  0  0
 33 31  1  0  0  0  0
 34 35  1  0  0  0  0
 35 36  1  0  0  0  0
 35 37  2  0  0  0  0
 37 38  1  0  0  0  0
 39 37  1  0  0  0  0
 39 40  1  0  0  0  0
 41 39  2  0  0  0  0
 42 41  1  0  0  0  0
 43 34  2  0  0  0  0
 43 41  1  0  0  0  0
 44 43  1  0  0  0  0
M  END
