1,2
 OpenBabel05122313053D

 49 52  0  0  1  0  0  0  0  0999 V2000
    0.2284   -2.1992    1.4085 S   0  0  0  0  0  0  0  0  0  0  0  0
   -0.0862    0.6711   -0.0171 C   0  0  0  0  0  2  0  0  0  0  0  0
   -0.4204    1.9380    0.6514 C   0  0  0  0  0  0  0  0  0  0  0  0
   -0.6275    1.9919    2.0529 C   0  0  0  0  0  0  0  0  0  0  0  0
   -1.0339    3.1787    2.6775 C   0  0  0  0  0  0  0  0  0  0  0  0
   -1.2579    4.3391    1.9158 C   0  0  0  0  0  0  0  0  0  0  0  0
   -1.0646    4.3004    0.5245 C   0  0  0  0  0  0  0  0  0  0  0  0
   -0.6503    3.1171   -0.1009 C   0  0  0  0  0  0  0  0  0  0  0  0
    0.9372    0.4761   -0.8994 C   0  0  1  0  0  3  0  0  0  0  0  0
    2.0602    1.4202   -1.1438 C   0  0  0  0  0  0  0  0  0  0  0  0
    2.5723    2.2486   -0.1164 C   0  0  0  0  0  0  0  0  0  0  0  0
    3.6609    3.0962   -0.3509 C   0  0  0  0  0  0  0  0  0  0  0  0
    4.2740    3.1358   -1.6152 C   0  0  0  0  0  0  0  0  0  0  0  0
    3.7904    2.3070   -2.6396 C   0  0  0  0  0  0  0  0  0  0  0  0
    2.7017    1.4549   -2.4048 C   0  0  0  0  0  0  0  0  0  0  0  0
    1.0408   -0.8574   -1.5766 C   0  0  0  0  0  0  0  0  0  0  0  0
    0.3056   -1.1800   -2.7327 C   0  0  0  0  0  0  0  0  0  0  0  0
    0.4266   -2.4460   -3.3267 C   0  0  0  0  0  0  0  0  0  0  0  0
    1.2862   -3.4053   -2.7690 C   0  0  0  0  0  0  0  0  0  0  0  0
    2.0198   -3.0996   -1.6124 C   0  0  0  0  0  0  0  0  0  0  0  0
    1.9038   -1.8328   -1.0128 C   0  0  0  0  0  0  0  0  0  0  0  0
    2.6015   -1.4757    0.2588 C   0  0  0  0  0  0  0  0  0  0  0  0
    3.9298   -1.0166    0.2638 C   0  0  0  0  0  0  0  0  0  0  0  0
    4.5448   -0.5951    1.4523 C   0  0  0  0  0  0  0  0  0  0  0  0
    3.8244   -0.6184    2.6540 C   0  0  0  0  0  0  0  0  0  0  0  0
    2.4957   -1.0724    2.6747 C   0  0  0  0  0  0  0  0  0  0  0  0
    1.8877   -1.5051    1.4849 C   0  0  0  0  0  0  0  0  0  0  0  0
   -0.2811   -2.2562    3.1518 C   0  0  0  0  0  0  0  0  0  0  0  0
   -0.4677    1.0764    2.6426 H   0  0  0  0  0  0  0  0  0  0  0  0
   -1.1830    3.1983    3.7682 H   0  0  0  0  0  0  0  0  0  0  0  0
   -1.5860    5.2686    2.4052 H   0  0  0  0  0  0  0  0  0  0  0  0
   -1.2421    5.2029   -0.0808 H   0  0  0  0  0  0  0  0  0  0  0  0
   -0.5044    3.0829   -1.1908 H   0  0  0  0  0  0  0  0  0  0  0  0
    2.1255    2.1969    0.8859 H   0  0  0  0  0  0  0  0  0  0  0  0
    4.0460    3.7234    0.4680 H   0  0  0  0  0  0  0  0  0  0  0  0
    5.1321    3.8008   -1.7964 H   0  0  0  0  0  0  0  0  0  0  0  0
    4.2671    2.3207   -3.6321 H   0  0  0  0  0  0  0  0  0  0  0  0
    2.3354    0.8007   -3.2103 H   0  0  0  0  0  0  0  0  0  0  0  0
   -0.3673   -0.4211   -3.1612 H   0  0  0  0  0  0  0  0  0  0  0  0
   -0.1557   -2.6872   -4.2292 H   0  0  0  0  0  0  0  0  0  0  0  0
    1.3790   -4.3999   -3.2304 H   0  0  0  0  0  0  0  0  0  0  0  0
    2.6784   -3.8534   -1.1548 H   0  0  0  0  0  0  0  0  0  0  0  0
    4.4714   -0.9668   -0.6924 H   0  0  0  0  0  0  0  0  0  0  0  0
    5.5835   -0.2336    1.4344 H   0  0  0  0  0  0  0  0  0  0  0  0
    4.2938   -0.2796    3.5900 H   0  0  0  0  0  0  0  0  0  0  0  0
    1.9449   -1.0861    3.6245 H   0  0  0  0  0  0  0  0  0  0  0  0
   -1.3143   -2.6505    3.0900 H   0  0  0  0  0  0  0  0  0  0  0  0
    0.3804   -2.9454    3.7103 H   0  0  0  0  0  0  0  0  0  0  0  0
   -0.2915   -1.2492    3.6091 H   0  0  0  0  0  0  0  0  0  0  0  0
  1 27  1  0  0  0  0
  1 28  1  0  0  0  0
  2  3  1  0  0  0  0
  3  4  1  0  0  0  0
  4 29  1  0  0  0  0
  4  5  2  0  0  0  0
  5 30  1  0  0  0  0
  6 31  1  0  0  0  0
  6  5  1  0  0  0  0
  7  6  2  0  0  0  0
  8  7  1  0  0  0  0
  8  3  2  0  0  0  0
  9  2  1  1  0  0  0
 10  9  1  0  0  0  0
 10 11  1  0  0  0  0
 11 34  1  0  0  0  0
 12 11  2  0  0  0  0
 12 35  1  0  0  0  0
 13 12  1  0  0  0  0
 14 15  1  0  0  0  0
 14 13  2  0  0  0  0
 15 10  2  0  0  0  0
 16 21  1  0  0  0  0
 16  9  1  0  0  0  0
 17 16  2  0  0  0  0
 18 19  2  0  0  0  0
 18 17  1  0  0  0  0
 19 20  1  0  0  0  0
 20 42  1  0  0  0  0
 20 21  2  0  0  0  0
 21 22  1  0  0  0  0
 22 23  2  0  0  0  0
 22 27  1  0  0  0  0
 23 24  1  0  0  0  0
 24 25  2  0  0  0  0
 25 26  1  0  0  0  0
 25 45  1  0  0  0  0
 26 46  1  0  0  0  0
 27 26  2  0  0  0  0
 28 49  1  0  0  0  0
 28 48  1  0  0  0  0
 32  7  1  0  0  0  0
 33  8  1  0  0  0  0
 36 13  1  0  0  0  0
 37 14  1  0  0  0  0
 38 15  1  0  0  0  0
 39 17  1  0  0  0  0
 40 18  1  0  0  0  0
 41 19  1  0  0  0  0
 43 23  1  0  0  0  0
 44 24  1  0  0  0  0
 47 28  1  0  0  0  0
M  END
