1,3
 OpenBabel05122313053D

 18 18  0  0  0  0  0  0  0  0999 V2000
    1.6483    1.3172    0.1014 S   0  0  0  0  0  1  0  0  0  0  0  0
    5.0617   -1.3112   -0.0917 S   0  0  0  0  0  0  0  0  0  0  0  0
    0.9883   -1.7675   -0.2402 C   0  0  0  0  0  3  0  0  0  0  0  0
    0.4597   -2.7258   -0.4078 H   0  0  0  0  0  0  0  0  0  0  0  0
    2.3522   -1.9604   -0.2635 C   0  0  0  0  0  0  0  0  0  0  0  0
    3.3391   -0.9220   -0.0971 C   0  0  0  0  0  0  0  0  0  0  0  0
    5.4978    0.3518    0.1119 C   0  0  0  0  0  0  0  0  0  0  0  0
    6.5555    0.6361    0.1786 H   0  0  0  0  0  0  0  0  0  0  0  0
    4.4033    1.1921    0.1732 C   0  0  0  0  0  0  0  0  0  0  0  0
    3.1607    0.4597    0.0552 C   0  0  0  0  0  0  0  0  0  0  0  0
    2.8971   -3.3607   -0.4818 C   0  0  0  0  0  0  0  0  0  0  0  0
    2.0795   -4.0967   -0.6061 H   0  0  0  0  0  0  0  0  0  0  0  0
    3.5261   -3.6874    0.3751 H   0  0  0  0  0  0  0  0  0  0  0  0
    3.5452   -3.4075   -1.3839 H   0  0  0  0  0  0  0  0  0  0  0  0
    4.4699    2.6810    0.3414 C   0  0  0  0  0  0  0  0  0  0  0  0
    5.5159    3.0350    0.4186 H   0  0  0  0  0  0  0  0  0  0  0  0
    3.9202    3.0037    1.2511 H   0  0  0  0  0  0  0  0  0  0  0  0
    3.9855    3.1999   -0.5132 H   0  0  0  0  0  0  0  0  0  0  0  0
  2  7  1  0  0  0  0
  4  3  1  0  0  0  0
  5  3  2  0  0  0  0
  5  6  1  0  0  0  0
  6  2  1  0  0  0  0
  6 10  2  0  0  0  0
  7  9  2  0  0  0  0
  7  8  1  0  0  0  0
  9 15  1  0  0  0  0
 10  1  1  0  0  0  0
 10  9  1  0  0  0  0
 11  5  1  0  0  0  0
 11 13  1  0  0  0  0
 12 11  1  0  0  0  0
 14 11  1  0  0  0  0
 15 16  1  0  0  0  0
 15 17  1  0  0  0  0
 18 15  1  0  0  0  0
M  END
