1,11
 OpenBabel05122313053D

 25 25  0  0  0  0  0  0  0  0999 V2000
    0.1910    1.6369    0.8823 S   0  0  0  0  0  0  0  0  0  0  0  0
   -1.5609    1.6847    0.4948 C   0  0  0  0  0  0  0  0  0  0  0  0
   -2.5182    2.3666    1.2567 C   0  0  0  0  0  0  0  0  0  0  0  0
   -2.2223    2.9377    2.1494 H   0  0  0  0  0  0  0  0  0  0  0  0
   -3.8669    2.3053    0.8764 C   0  0  0  0  0  0  0  0  0  0  0  0
   -4.6593    2.8072    1.4465 H   0  0  0  0  0  0  0  0  0  0  0  0
   -4.2124    1.5718   -0.2699 C   0  0  0  0  0  0  0  0  0  0  0  0
   -3.2665    0.8912   -1.0423 C   0  0  0  0  0  0  0  0  0  0  0  0
   -3.5874    0.3331   -1.9314 H   0  0  0  0  0  0  0  0  0  0  0  0
   -1.9140    0.9234   -0.6464 C   0  0  0  0  0  0  0  0  0  0  0  0
   -0.8600    0.1896   -1.3385 C   0  0  0  0  0  2  0  0  0  0  0  0
   -1.1452   -0.3215   -2.2814 H   0  0  0  0  0  0  0  0  0  0  0  0
    0.5716    3.4841    0.7265 C   0  0  0  0  0  0  0  0  0  0  0  0
   -0.0635    3.9058    1.5359 H   0  0  0  0  0  0  0  0  0  0  0  0
    0.1652    4.0594   -0.6221 C   0  0  0  0  0  0  0  0  0  0  0  0
    0.3433    5.1553   -0.6122 H   0  0  0  0  0  0  0  0  0  0  0  0
   -0.9089    3.8940   -0.8349 H   0  0  0  0  0  0  0  0  0  0  0  0
    0.7701    3.6088   -1.4324 H   0  0  0  0  0  0  0  0  0  0  0  0
    2.0448    3.6749    1.0723 C   0  0  0  0  0  0  0  0  0  0  0  0
    2.6824    3.1607    0.3264 H   0  0  0  0  0  0  0  0  0  0  0  0
    2.2827    3.2906    2.0838 H   0  0  0  0  0  0  0  0  0  0  0  0
    2.2825    4.7583    1.0546 H   0  0  0  0  0  0  0  0  0  0  0  0
   -5.6383    1.4909   -0.6604 N   0  0  0  0  0  0  0  0  0  0  0  0
   -5.9051    0.9337   -1.7262 O   0  0  0  0  0  0  0  0  0  0  0  0
   -6.4678    1.9752    0.1114 O   0  0  0  0  0  0  0  0  0  0  0  0
  2  1  1  0  0  0  0
  2  3  1  0  0  0  0
  3  4  1  0  0  0  0
  5  3  2  0  0  0  0
  5  6  1  0  0  0  0
  7  5  1  0  0  0  0
  8 10  1  0  0  0  0
  8  7  2  0  0  0  0
  9  8  1  0  0  0  0
 10  2  2  0  0  0  0
 11 10  1  0  0  0  0
 12 11  1  0  0  0  0
 13  1  1  0  0  0  0
 13 19  1  0  0  0  0
 13 14  1  0  0  0  0
 15 16  1  0  0  0  0
 15 13  1  0  0  0  0
 17 15  1  0  0  0  0
 18 15  1  0  0  0  0
 19 21  1  0  0  0  0
 20 19  1  0  0  0  0
 22 19  1  0  0  0  0
 23  7  1  0  0  0  0
 23 25  2  0  0  0  0
 24 23  2  0  0  0  0
M  END
