1,14
 OpenBabel05122313053D

 14 14  0  0  0  0  0  0  0  0999 V2000
   -0.4730   -0.2252   -1.9607 S   0  0  0  0  0  1  0  0  0  0  0  0
   -3.3472    0.0484   -0.0429 C   0  0  0  0  0  0  0  0  0  0  0  0
   -6.0813   -0.1626   -0.7538 C   0  0  0  0  0  0  0  0  0  0  0  0
   -7.1430   -0.2451   -1.0317 H   0  0  0  0  0  0  0  0  0  0  0  0
   -5.7035    0.5279    0.4106 C   0  0  0  0  0  0  0  0  0  0  0  0
   -6.4711    0.9907    1.0505 H   0  0  0  0  0  0  0  0  0  0  0  0
   -3.7352   -0.6492   -1.2128 C   0  0  0  0  0  0  0  0  0  0  0  0
   -2.9598   -1.1089   -1.8433 H   0  0  0  0  0  0  0  0  0  0  0  0
   -5.0897   -0.7521   -1.5561 C   0  0  0  0  0  0  0  0  0  0  0  0
   -5.3758   -1.3021   -2.4666 H   0  0  0  0  0  0  0  0  0  0  0  0
   -4.3534    0.6258    0.7677 C   0  0  0  0  0  0  0  0  0  0  0  0
   -4.0433    1.1536    1.6822 H   0  0  0  0  0  0  0  0  0  0  0  0
   -2.0175    0.1680    0.3825 N   0  0  0  0  0  0  0  0  0  0  0  0
   -0.9710    0.0196   -0.3317 C   0  0  0  0  0  3  0  0  0  0  0  0
  1 14  1  0  0  0  0
  2 13  1  0  0  0  0
  2 11  1  0  0  0  0
  3  5  1  0  0  0  0
  4  3  1  0  0  0  0
  5 11  2  0  0  0  0
  5  6  1  0  0  0  0
  7  2  2  0  0  0  0
  8  7  1  0  0  0  0
  9  7  1  0  0  0  0
  9  3  2  0  0  0  0
 10  9  1  0  0  0  0
 11 12  1  0  0  0  0
 14 13  2  0  0  0  0
M  END
