1,12
 OpenBabel05122313053D

 20 20  0  0  0  0  0  0  0  0999 V2000
    0.0001    1.9211    0.6594 S   0  0  0  0  0  0  0  0  0  0  0  0
    1.7035    2.2185    0.1535 C   0  0  0  0  0  0  0  0  0  0  0  0
    2.5453    3.1580    0.7559 C   0  0  0  0  0  0  0  0  0  0  0  0
    2.1809    3.7894    1.5810 H   0  0  0  0  0  0  0  0  0  0  0  0
    3.8665    3.2846    0.2894 C   0  0  0  0  0  0  0  0  0  0  0  0
    4.5380    4.0255    0.7491 H   0  0  0  0  0  0  0  0  0  0  0  0
    4.3270    2.4715   -0.7622 C   0  0  0  0  0  0  0  0  0  0  0  0
    5.3589    2.5852   -1.1281 H   0  0  0  0  0  0  0  0  0  0  0  0
    3.4806    1.5191   -1.3448 C   0  0  0  0  0  0  0  0  0  0  0  0
    3.8360    0.8719   -2.1607 H   0  0  0  0  0  0  0  0  0  0  0  0
    2.1509    1.3722   -0.8872 C   0  0  0  0  0  0  0  0  0  0  0  0
    1.2126    0.3942   -1.4281 C   0  0  0  0  0  2  0  0  0  0  0  0
    1.5513   -0.1856   -2.3124 H   0  0  0  0  0  0  0  0  0  0  0  0
   -0.7477    3.5610    0.2052 C   0  0  0  0  0  0  0  0  0  0  0  0
   -0.0464    4.3234    0.5985 H   0  0  0  0  0  0  0  0  0  0  0  0
   -0.7723    3.5931   -0.9011 H   0  0  0  0  0  0  0  0  0  0  0  0
   -2.1431    3.6883    0.7923 C   0  0  0  0  0  0  0  0  0  0  0  0
   -2.7965    2.8870    0.3961 H   0  0  0  0  0  0  0  0  0  0  0  0
   -2.5805    4.6619    0.4909 H   0  0  0  0  0  0  0  0  0  0  0  0
   -2.1340    3.6452    1.9004 H   0  0  0  0  0  0  0  0  0  0  0  0
  2  1  1  0  0  0  0
  2  3  1  0  0  0  0
  3  4  1  0  0  0  0
  5  6  1  0  0  0  0
  5  3  2  0  0  0  0
  7  5  1  0  0  0  0
  8  7  1  0  0  0  0
  9 11  1  0  0  0  0
  9  7  2  0  0  0  0
 10  9  1  0  0  0  0
 11  2  2  0  0  0  0
 12 11  1  0  0  0  0
 13 12  1  0  0  0  0
 14 15  1  0  0  0  0
 14  1  1  0  0  0  0
 14 17  1  0  0  0  0
 16 14  1  0  0  0  0
 17 20  1  0  0  0  0
 18 17  1  0  0  0  0
 19 17  1  0  0  0  0
M  END
