1,5
 OpenBabel05122313053D

 23 22  0  0  0  0  0  0  0  0999 V2000
    0.4291   -1.7568   -0.4458 S   0  0  0  0  0  0  0  0  0  0  0  0
    1.0531    1.9421    0.3541 O   0  0  0  0  0  0  0  0  0  0  0  0
    3.5310    0.8282    0.0990 N   0  0  0  0  0  4  0  0  0  0  0  0
    2.9427    1.6469    0.2966 H   0  0  0  0  0  0  0  0  0  0  0  0
    0.5022    0.7370    0.1088 C   0  0  0  0  0  3  0  0  0  0  0  0
    1.4439   -0.3205   -0.0986 C   0  0  0  0  0  0  0  0  0  0  0  0
    2.8455   -0.3104   -0.1645 C   0  0  0  0  0  0  0  0  0  0  0  0
    4.9659    0.9872    0.0218 C   0  0  0  0  0  0  0  0  0  0  0  0
    5.5004    0.2275    0.6298 H   0  0  0  0  0  0  0  0  0  0  0  0
    5.2368    1.9837    0.4165 H   0  0  0  0  0  0  0  0  0  0  0  0
    5.3509    0.9198   -1.0207 H   0  0  0  0  0  0  0  0  0  0  0  0
    3.6290   -1.5410   -0.5166 C   0  0  0  0  0  0  0  0  0  0  0  0
    4.3549   -1.3337   -1.3289 H   0  0  0  0  0  0  0  0  0  0  0  0
    2.9482   -2.3434   -0.8549 H   0  0  0  0  0  0  0  0  0  0  0  0
    4.2102   -1.9116    0.3545 H   0  0  0  0  0  0  0  0  0  0  0  0
    0.1712    3.0591    0.5453 C   0  0  0  0  0  0  0  0  0  0  0  0
   -0.4472    3.2206   -0.3582 H   0  0  0  0  0  0  0  0  0  0  0  0
    0.8185    3.9357    0.7321 H   0  0  0  0  0  0  0  0  0  0  0  0
   -0.4950    2.8795    1.4107 H   0  0  0  0  0  0  0  0  0  0  0  0
    0.5524   -2.7407    1.0946 C   0  0  0  0  0  0  0  0  0  0  0  0
    1.5005   -3.3129    1.1160 H   0  0  0  0  0  0  0  0  0  0  0  0
   -0.3041   -3.4422    1.0842 H   0  0  0  0  0  0  0  0  0  0  0  0
    0.4697   -2.0751    1.9730 H   0  0  0  0  0  0  0  0  0  0  0  0
  1  6  1  0  0  0  0
  1 20  1  0  0  0  0
  2 16  1  0  0  0  0
  3  4  1  0  0  0  0
  5  2  1  0  0  0  0
  6  5  2  0  0  0  0
  7  6  1  0  0  0  0
  7  3  2  0  0  0  0
  8  3  1  0  0  0  0
  8 10  1  0  0  0  0
  8  9  1  0  0  0  0
 11  8  1  0  0  0  0
 12  7  1  0  0  0  0
 12 15  1  0  0  0  0
 13 12  1  0  0  0  0
 14 12  1  0  0  0  0
 16 18  1  0  0  0  0
 16 19  1  0  0  0  0
 17 16  1  0  0  0  0
 20 21  1  0  0  0  0
 20 23  1  0  0  0  0
 22 20  1  0  0  0  0
M  END
