1,5
 OpenBabel05122313053D

 15 15  0  0  0  0  0  0  0  0999 V2000
   -1.9516    1.1260    0.1173 S   0  0  0  0  0  1  0  0  0  0  0  0
   -3.4576    0.2347    0.0467 C   0  0  0  0  0  0  0  0  0  0  0  0
   -3.5929   -1.1720   -0.1516 C   0  0  0  0  0  0  0  0  0  0  0  0
   -2.4768   -2.0808   -0.3318 C   0  0  0  0  0  0  0  0  0  0  0  0
   -1.1279   -1.8716   -0.3032 C   0  0  0  0  0  2  0  0  0  0  0  0
   -4.6255    1.0272    0.1983 C   0  0  0  0  0  0  0  0  0  0  0  0
   -5.9006    0.4626    0.1618 C   0  0  0  0  0  0  0  0  0  0  0  0
   -6.0472   -0.9260   -0.0328 C   0  0  0  0  0  0  0  0  0  0  0  0
   -4.9078   -1.7134   -0.1866 C   0  0  0  0  0  3  0  0  0  0  0  0
   -2.8035   -3.1214   -0.5255 H   0  0  0  0  0  0  0  0  0  0  0  0
   -0.5694   -2.8083   -0.4948 H   0  0  0  0  0  0  0  0  0  0  0  0
   -4.5040    2.1113    0.3486 H   0  0  0  0  0  0  0  0  0  0  0  0
   -6.7860    1.1055    0.2843 H   0  0  0  0  0  0  0  0  0  0  0  0
   -7.0475   -1.3835   -0.0648 H   0  0  0  0  0  0  0  0  0  0  0  0
   -5.0092   -2.7999   -0.3422 H   0  0  0  0  0  0  0  0  0  0  0  0
  2  1  1  0  0  0  0
  2  6  2  0  0  0  0
  3  2  1  0  0  0  0
  4  5  1  0  0  0  0
  4  3  2  0  0  0  0
  6 12  1  0  0  0  0
  7  6  1  0  0  0  0
  7 13  1  0  0  0  0
  8  7  2  0  0  0  0
  9  3  1  0  0  0  0
  9  8  1  0  0  0  0
 10  4  1  0  0  0  0
 11  5  1  0  0  0  0
 14  8  1  0  0  0  0
 15  9  1  0  0  0  0
M  END
