1,11
 OpenBabel05122313053D

 35 36  0  0  0  0  0  0  0  0999 V2000
   -3.3250    0.3751   -0.0280 S   0  0  0  0  0  0  0  0  0  0  0  0
   -1.3069    2.1761   -0.2025 N   0  0  0  0  0  0  0  0  0  0  0  0
    0.7681    1.5669   -0.0495 N   0  0  0  0  0  0  0  0  0  0  0  0
   -3.4874    0.4322    1.7915 C   0  0  0  0  0  0  0  0  0  0  0  0
   -4.3827    1.0179    2.0764 H   0  0  0  0  0  0  0  0  0  0  0  0
   -2.5651    0.8312    2.2528 H   0  0  0  0  0  0  0  0  0  0  0  0
   -3.6087   -0.6325    2.0703 H   0  0  0  0  0  0  0  0  0  0  0  0
   -2.7394    2.0854   -0.4009 C   0  0  0  0  0  0  0  0  0  0  0  0
   -3.0074    2.2527   -1.4650 H   0  0  0  0  0  0  0  0  0  0  0  0
   -3.2689    2.8268    0.2294 H   0  0  0  0  0  0  0  0  0  0  0  0
   -0.4881    1.0609   -0.2448 C   0  0  0  0  0  2  0  0  0  0  0  0
    0.7327    2.9529    0.0987 C   0  0  0  0  0  0  0  0  0  0  0  0
    1.6469    3.5279    0.2710 H   0  0  0  0  0  0  0  0  0  0  0  0
   -0.5762    3.3413    0.0014 C   0  0  0  0  0  0  0  0  0  0  0  0
   -1.0392    4.3310    0.0535 H   0  0  0  0  0  0  0  0  0  0  0  0
    1.9944    0.8201    0.0965 C   0  0  0  0  0  0  0  0  0  0  0  0
    2.3095    0.2958    1.3656 C   0  0  0  0  0  0  0  0  0  0  0  0
    3.5283   -0.3893    1.4974 C   0  0  0  0  0  0  0  0  0  0  0  0
    3.7921   -0.8147    2.4787 H   0  0  0  0  0  0  0  0  0  0  0  0
    4.4057   -0.5613    0.4113 C   0  0  0  0  0  0  0  0  0  0  0  0
    4.0383   -0.0289   -0.8384 C   0  0  0  0  0  0  0  0  0  0  0  0
    4.7032   -0.1744   -1.7048 H   0  0  0  0  0  0  0  0  0  0  0  0
    2.8296    0.6603   -1.0260 C   0  0  0  0  0  0  0  0  0  0  0  0
    1.3330    0.3892    2.5068 C   0  0  0  0  0  0  0  0  0  0  0  0
    1.8057    0.1011    3.4644 H   0  0  0  0  0  0  0  0  0  0  0  0
    0.4826   -0.3034    2.3210 H   0  0  0  0  0  0  0  0  0  0  0  0
    0.9084    1.4079    2.6195 H   0  0  0  0  0  0  0  0  0  0  0  0
    5.6843   -1.3443    0.5692 C   0  0  0  0  0  0  0  0  0  0  0  0
    6.0768   -1.2857    1.6034 H   0  0  0  0  0  0  0  0  0  0  0  0
    6.4721   -0.9880   -0.1235 H   0  0  0  0  0  0  0  0  0  0  0  0
    5.5129   -2.4190    0.3444 H   0  0  0  0  0  0  0  0  0  0  0  0
    2.3809    1.1055   -2.3907 C   0  0  0  0  0  0  0  0  0  0  0  0
    3.2060    1.0458   -3.1250 H   0  0  0  0  0  0  0  0  0  0  0  0
    1.9819    2.1400   -2.3971 H   0  0  0  0  0  0  0  0  0  0  0  0
    1.5643    0.4325   -2.7317 H   0  0  0  0  0  0  0  0  0  0  0  0
  1  4  1  0  0  0  0
  2 14  1  0  0  0  0
  3 16  1  0  0  0  0
  3 12  1  0  0  0  0
  4  7  1  0  0  0  0
  4  5  1  0  0  0  0
  4  6  1  0  0  0  0
  8  2  1  0  0  0  0
  8  1  1  0  0  0  0
  8 10  1  0  0  0  0
  9  8  1  0  0  0  0
 11  2  1  0  0  0  0
 11  3  1  0  0  0  0
 12 13  1  0  0  0  0
 14 15  1  0  0  0  0
 14 12  2  0  0  0  0
 16 17  1  0  0  0  0
 17 18  2  0  0  0  0
 17 24  1  0  0  0  0
 18 19  1  0  0  0  0
 20 28  1  0  0  0  0
 20 18  1  0  0  0  0
 21 20  2  0  0  0  0
 22 21  1  0  0  0  0
 23 21  1  0  0  0  0
 23 16  2  0  0  0  0
 24 27  1  0  0  0  0
 24 25  1  0  0  0  0
 26 24  1  0  0  0  0
 28 29  1  0  0  0  0
 30 28  1  0  0  0  0
 31 28  1  0  0  0  0
 32 23  1  0  0  0  0
 33 32  1  0  0  0  0
 34 32  1  0  0  0  0
 35 32  1  0  0  0  0
M  END
