1,3
q = -2.0, confidence = 0.656

 22 23  0  0  0  0  0  0  0  0999 V2000
   -1.6347    0.8498   -1.5277 S   0  0  0  0  0  1  0  0  0  0  0  0
   -1.9460   -1.1112    1.3687 S   0  0  0  0  0  0  0  0  0  0  0  0
   -0.3945   -1.8721   -0.7609 C   0  0  0  0  0  3  0  0  0  0  0  0
   -1.4250   -2.2911    0.1048 C   0  0  0  0  0  0  0  0  0  0  0  0
   -3.2887   -0.2685    0.5335 C   0  0  0  0  0  0  0  0  0  0  0  0
   -3.1259    0.5040   -0.6579 C   0  0  0  0  0  0  0  0  0  0  0  0
    0.0092   -2.7578   -1.7781 C   0  0  0  0  0  0  0  0  0  0  0  0
    0.7880   -2.4551   -2.4974 H   0  0  0  0  0  0  0  0  0  0  0  0
   -0.5786   -4.0308   -1.8954 C   0  0  0  0  0  0  0  0  0  0  0  0
   -0.2455   -4.7149   -2.6923 H   0  0  0  0  0  0  0  0  0  0  0  0
   -1.5876   -4.4368   -1.0051 C   0  0  0  0  0  0  0  0  0  0  0  0
   -2.0421   -5.4348   -1.0992 H   0  0  0  0  0  0  0  0  0  0  0  0
   -2.0253   -3.5575   -0.0012 C   0  0  0  0  0  0  0  0  0  0  0  0
   -2.8287   -3.8421    0.6956 H   0  0  0  0  0  0  0  0  0  0  0  0
   -4.5589   -0.3849    1.1390 C   0  0  0  0  0  0  0  0  0  0  0  0
   -4.6409   -0.9932    2.0525 H   0  0  0  0  0  0  0  0  0  0  0  0
   -5.6888    0.2355    0.5960 C   0  0  0  0  0  0  0  0  0  0  0  0
   -6.6681    0.1328    1.0865 H   0  0  0  0  0  0  0  0  0  0  0  0
   -5.5495    0.9697   -0.5958 C   0  0  0  0  0  0  0  0  0  0  0  0
   -6.4246    1.4556   -1.0548 H   0  0  0  0  0  0  0  0  0  0  0  0
   -4.3003    1.0926   -1.2059 C   0  0  0  0  0  0  0  0  0  0  0  0
   -4.1956    1.6774   -2.1328 H   0  0  0  0  0  0  0  0  0  0  0  0
  1  6  1  0  0  0  0
  3  4  1  0  0  0  0
  4  2  1  0  0  0  0
  5 15  1  0  0  0  0
  5  2  1  0  0  0  0
  6  5  2  0  0  0  0
  7  3  2  0  0  0  0
  8  7  1  0  0  0  0
  9  7  1  0  0  0  0
  9 11  2  0  0  0  0
 10  9  1  0  0  0  0
 11 13  1  0  0  0  0
 12 11  1  0  0  0  0
 13  4  2  0  0  0  0
 13 14  1  0  0  0  0
 15 16  1  0  0  0  0
 17 18  1  0  0  0  0
 17 15  2  0  0  0  0
 19 17  1  0  0  0  0
 20 19  1  0  0  0  0
 21  6  1  0  0  0  0
 21 19  2  0  0  0  0
 22 21  1  0  0  0  0
M  END
