1,4
q = -1.0, confidence = 0.0

 17 16  0  0  0  0  0  0  0  0999 V2000
   -2.1317   -2.7990   -0.2866 S   0  0  0  0  0  0  0  0  0  0  0  0
   -3.1468    0.8329    0.9418 O   0  0  0  0  0  0  0  0  0  0  0  0
   -3.6336   -0.3606   -0.9422 O   0  0  0  0  0  0  0  0  0  0  0  0
   -1.9753   -1.2039    0.5250 C   0  0  0  0  0  3  0  0  0  0  0  0
   -2.9774   -0.1493    0.2349 C   0  0  0  0  0  0  0  0  0  0  0  0
   -4.6008    0.6415   -1.3223 C   0  0  0  0  0  0  0  0  0  0  0  0
   -5.9524    0.3868   -0.6753 C   0  0  0  0  0  0  0  0  0  0  0  0
   -1.2572   -3.8950    0.8998 C   0  0  0  0  0  0  0  0  0  0  0  0
   -1.7202   -1.2532    1.5992 H   0  0  0  0  0  0  0  0  0  0  0  0
   -4.6569    0.5708   -2.4264 H   0  0  0  0  0  0  0  0  0  0  0  0
   -4.2077    1.6390   -1.0373 H   0  0  0  0  0  0  0  0  0  0  0  0
   -5.8822    0.4939    0.4246 H   0  0  0  0  0  0  0  0  0  0  0  0
   -6.3212   -0.6307   -0.9136 H   0  0  0  0  0  0  0  0  0  0  0  0
   -6.6963    1.1211   -1.0456 H   0  0  0  0  0  0  0  0  0  0  0  0
   -0.2106   -3.5551    1.0267 H   0  0  0  0  0  0  0  0  0  0  0  0
   -1.8121   -3.9176    1.8569 H   0  0  0  0  0  0  0  0  0  0  0  0
   -1.2664   -4.9021    0.4418 H   0  0  0  0  0  0  0  0  0  0  0  0
  1  4  1  0  0  0  0
  1  8  1  0  0  0  0
  3  5  1  0  0  0  0
  4  9  1  0  0  0  0
  5  4  1  0  0  0  0
  5  2  2  0  0  0  0
  6 11  1  0  0  0  0
  6  3  1  0  0  0  0
  6  7  1  0  0  0  0
  7 12  1  0  0  0  0
  8 15  1  0  0  0  0
  8 16  1  0  0  0  0
 10  6  1  0  0  0  0
 13  7  1  0  0  0  0
 14  7  1  0  0  0  0
 17  8  1  0  0  0  0
M  END
