2,4
q = -1.0, confidence = 0.002

 18 17  0  0  0  0  0  0  0  0999 V2000
   -1.9670   -2.1765    0.2447 S   0  0  0  0  0  1  0  0  0  0  0  0
   -0.5117   -0.1591    2.0153 S   0  0  0  0  0  1  0  0  0  0  0  0
   -2.3696    0.5150    0.1468 N   0  0  0  0  0  0  0  0  0  0  0  0
   -1.9130   -0.5858    0.9828 C   0  0  0  0  0  3  0  0  0  0  0  0
   -3.4878    0.2373   -0.8017 C   0  0  0  0  0  0  0  0  0  0  0  0
   -3.5486    1.1214   -1.4659 H   0  0  0  0  0  0  0  0  0  0  0  0
   -3.1888   -0.6248   -1.4230 H   0  0  0  0  0  0  0  0  0  0  0  0
   -4.8247   -0.0486   -0.1235 C   0  0  0  0  0  0  0  0  0  0  0  0
   -5.5972   -0.2281   -0.8974 H   0  0  0  0  0  0  0  0  0  0  0  0
   -4.7541   -0.9586    0.5044 H   0  0  0  0  0  0  0  0  0  0  0  0
   -5.1770    0.7903    0.5090 H   0  0  0  0  0  0  0  0  0  0  0  0
   -2.4888    1.8626    0.7709 C   0  0  0  0  0  0  0  0  0  0  0  0
   -3.5359    1.9878    1.1229 H   0  0  0  0  0  0  0  0  0  0  0  0
   -1.8407    1.8592    1.6669 H   0  0  0  0  0  0  0  0  0  0  0  0
   -2.0832    2.9999   -0.1553 C   0  0  0  0  0  0  0  0  0  0  0  0
   -2.1890    3.9647    0.3796 H   0  0  0  0  0  0  0  0  0  0  0  0
   -1.0289    2.8844   -0.4752 H   0  0  0  0  0  0  0  0  0  0  0  0
   -2.7159    3.0553   -1.0640 H   0  0  0  0  0  0  0  0  0  0  0  0
  1  4  1  0  0  0  0
  3 12  1  0  0  0  0
  3  4  1  0  0  0  0
  4  2  1  0  0  0  0
  5  8  1  0  0  0  0
  5  3  1  0  0  0  0
  6  5  1  0  0  0  0
  7  5  1  0  0  0  0
  8 10  1  0  0  0  0
  8 11  1  0  0  0  0
  9  8  1  0  0  0  0
 12 13  1  0  0  0  0
 12 14  1  0  0  0  0
 15 16  1  0  0  0  0
 15 12  1  0  0  0  0
 17 15  1  0  0  0  0
 18 15  1  0  0  0  0
M  END
