2,4
q = -1.0, confidence = 0.0

 10  9  0  0  0  0  0  0  0  0999 V2000
    4.4512   -0.4217    0.0989 Br  0  0  0  0  0  0  0  0  0  0  0  0
    0.6571   -0.2587   -2.2133 S   0  0  0  0  0  1  0  0  0  0  0  0
    2.0055    0.2503    1.9885 C   0  0  0  0  0  0  0  0  0  0  0  0
    1.5871    0.0093    0.5722 C   0  0  0  0  0  2  0  0  0  0  0  0
    2.5853   -0.2811   -0.3886 C   0  0  0  0  0  0  0  0  0  0  0  0
    2.2727   -0.4340   -1.7455 C   0  0  0  0  0  0  0  0  0  0  0  0
    2.7805    1.0470    2.0306 H   0  0  0  0  0  0  0  0  0  0  0  0
    1.1530    0.5077    2.6406 H   0  0  0  0  0  0  0  0  0  0  0  0
    2.5107   -0.6554    2.3919 H   0  0  0  0  0  0  0  0  0  0  0  0
    3.0428   -0.6329   -2.5074 H   0  0  0  0  0  0  0  0  0  0  0  0
  2  6  1  0  0  0  0
  3  7  1  0  0  0  0
  3  9  1  0  0  0  0
  3  8  1  0  0  0  0
  4  3  1  0  0  0  0
  5  1  1  0  0  0  0
  5  4  1  0  0  0  0
  6  5  2  0  0  0  0
 10  6  1  0  0  0  0
M  END
