1,2
q = -1.0

 12 11  0  0  1  0  0  0  0  0999 V2000
    2.1149    1.1099    0.0675 Se  0  0  0  0  0  1  0  0  0  0  0  0
    2.8995   -1.7190   -0.0923 S   0  0  0  0  0  1  0  0  0  0  0  0
    4.8460    0.1884   -0.0109 N   0  0  0  0  0  0  0  0  0  0  0  0
    3.5374   -0.1299   -0.0164 C   0  0  2  0  0  3  0  0  0  0  0  0
    5.8802   -0.8336   -0.0625 C   0  0  0  0  0  0  0  0  0  0  0  0
    5.4097   -1.8341   -0.0820 H   0  0  0  0  0  0  0  0  0  0  0  0
    6.5389   -0.7587    0.8287 H   0  0  0  0  0  0  0  0  0  0  0  0
    6.5039   -0.7068   -0.9730 H   0  0  0  0  0  0  0  0  0  0  0  0
    5.3093    1.5635    0.0561 C   0  0  0  0  0  0  0  0  0  0  0  0
    4.4443    2.2525    0.0364 H   0  0  0  0  0  0  0  0  0  0  0  0
    5.9685    1.7889   -0.8089 H   0  0  0  0  0  0  0  0  0  0  0  0
    5.8855    1.7361    0.9905 H   0  0  0  0  0  0  0  0  0  0  0  0
  3  9  1  0  0  0  0
  4  2  1  1  0  0  0
  4  3  1  0  0  0  0
  4  1  1  0  0  0  0
  5  3  1  0  0  0  0
  5  7  1  0  0  0  0
  6  5  1  0  0  0  0
  8  5  1  0  0  0  0
  9 12  1  0  0  0  0
 10  9  1  0  0  0  0
 11  9  1  0  0  0  0
M  END
