1,2,5,6
q = -1.0, confidence = 0.15

 46 48  0  0  0  0  0  0  0  0999 V2000
    1.1443   -2.4111    0.0103 S   0  0  0  0  0  1  0  0  0  0  0  0
   -1.1803    0.0271    0.0702 P   0  0  0  0  0  0  0  0  0  0  0  0
    4.9081   -1.3144    0.4777 O   0  0  0  0  0  0  0  0  0  0  0  0
    2.8345    3.2466    0.6359 O   0  0  0  0  0  0  0  0  0  0  0  0
    2.9786   -0.2428   -0.1728 N   0  0  0  0  0  2  0  0  0  0  0  0
    1.2169    1.6211    0.1059 N   0  0  0  0  0  2  0  0  0  0  0  0
    3.7318   -1.3741    0.1391 C   0  0  0  0  0  0  0  0  0  0  0  0
    2.9661   -2.6857    0.0241 C   0  0  0  0  0  0  0  0  0  0  0  0
    3.5924    1.0489    0.0654 C   0  0  0  0  0  0  0  0  0  0  0  0
    2.5269    2.1088    0.3059 C   0  0  0  0  0  0  0  0  0  0  0  0
    0.0776    2.4331    0.3869 C   0  0  0  0  0  0  0  0  0  0  0  0
   -1.2024    1.8088    0.4116 C   0  0  0  0  0  0  0  0  0  0  0  0
   -2.3776    2.5340    0.6682 C   0  0  0  0  0  0  0  0  0  0  0  0
   -2.3129    3.9114    0.9108 C   0  0  0  0  0  0  0  0  0  0  0  0
   -1.0576    4.5399    0.8931 C   0  0  0  0  0  0  0  0  0  0  0  0
    0.1228    3.8273    0.6395 C   0  0  0  0  0  0  0  0  0  0  0  0
   -2.5637   -0.3531   -1.0676 C   0  0  0  0  0  0  0  0  0  0  0  0
   -2.3548   -0.3755   -2.4608 C   0  0  0  0  0  0  0  0  0  0  0  0
   -3.4398   -0.5972   -3.3215 C   0  0  0  0  0  0  0  0  0  0  0  0
   -4.7278   -0.8014   -2.8016 C   0  0  0  0  0  0  0  0  0  0  0  0
   -4.9343   -0.7876   -1.4130 C   0  0  0  0  0  0  0  0  0  0  0  0
   -3.8571   -0.5658   -0.5428 C   0  0  0  0  0  0  0  0  0  0  0  0
   -1.5695   -0.8213    1.6418 C   0  0  0  0  0  0  0  0  0  0  0  0
   -1.8335   -2.2077    1.6225 C   0  0  0  0  0  0  0  0  0  0  0  0
   -2.0654   -2.8875    2.8247 C   0  0  0  0  0  0  0  0  0  0  0  0
   -2.0217   -2.1957    4.0473 C   0  0  0  0  0  0  0  0  0  0  0  0
   -1.7475   -0.8199    4.0667 C   0  0  0  0  0  0  0  0  0  0  0  0
   -1.5206   -0.1283    2.8664 C   0  0  0  0  0  0  0  0  0  0  0  0
    3.2642   -3.2019   -0.9121 H   0  0  0  0  0  0  0  0  0  0  0  0
    3.2514   -3.3376    0.8726 H   0  0  0  0  0  0  0  0  0  0  0  0
    4.2188    1.3780   -0.7943 H   0  0  0  0  0  0  0  0  0  0  0  0
    4.2742    1.0147    0.9407 H   0  0  0  0  0  0  0  0  0  0  0  0
   -3.3474    2.0128    0.6650 H   0  0  0  0  0  0  0  0  0  0  0  0
   -3.2297    4.4877    1.1026 H   0  0  0  0  0  0  0  0  0  0  0  0
   -0.9868    5.6233    1.0763 H   0  0  0  0  0  0  0  0  0  0  0  0
    1.0937    4.3314    0.6364 H   0  0  0  0  0  0  0  0  0  0  0  0
   -1.3427   -0.2331   -2.8693 H   0  0  0  0  0  0  0  0  0  0  0  0
   -3.2724   -0.6181   -4.4087 H   0  0  0  0  0  0  0  0  0  0  0  0
   -5.5745   -0.9799   -3.4816 H   0  0  0  0  0  0  0  0  0  0  0  0
   -5.9409   -0.9544   -1.0007 H   0  0  0  0  0  0  0  0  0  0  0  0
   -4.0191   -0.5696    0.5456 H   0  0  0  0  0  0  0  0  0  0  0  0
   -1.8555   -2.7535    0.6670 H   0  0  0  0  0  0  0  0  0  0  0  0
   -2.2747   -3.9675    2.8075 H   0  0  0  0  0  0  0  0  0  0  0  0
   -2.1995   -2.7347    4.9902 H   0  0  0  0  0  0  0  0  0  0  0  0
   -1.7096   -0.2764    5.0228 H   0  0  0  0  0  0  0  0  0  0  0  0
   -1.3072    0.9510    2.8784 H   0  0  0  0  0  0  0  0  0  0  0  0
  1  8  1  0  0  0  0
  2 12  1  0  0  0  0
  2 23  1  0  0  0  0
  5  9  1  0  0  0  0
  5  7  1  0  0  0  0
  6 10  1  0  0  0  0
  6 11  1  0  0  0  0
  7  3  2  0  0  0  0
  8  7  1  0  0  0  0
  8 30  1  0  0  0  0
  9 10  1  0  0  0  0
  9 32  1  0  0  0  0
 10  4  2  0  0  0  0
 11 12  2  0  0  0  0
 11 16  1  0  0  0  0
 12 13  1  0  0  0  0
 13 14  2  0  0  0  0
 14 34  1  0  0  0  0
 15 14  1  0  0  0  0
 15 35  1  0  0  0  0
 16 15  2  0  0  0  0
 17 22  1  0  0  0  0
 17  2  1  0  0  0  0
 18 17  2  0  0  0  0
 19 20  2  0  0  0  0
 19 18  1  0  0  0  0
 20 21  1  0  0  0  0
 21 40  1  0  0  0  0
 21 22  2  0  0  0  0
 22 41  1  0  0  0  0
 23 28  1  0  0  0  0
 24 23  2  0  0  0  0
 24 25  1  0  0  0  0
 25 26  2  0  0  0  0
 26 27  1  0  0  0  0
 26 44  1  0  0  0  0
 27 45  1  0  0  0  0
 28 46  1  0  0  0  0
 28 27  2  0  0  0  0
 29  8  1  0  0  0  0
 31  9  1  0  0  0  0
 33 13  1  0  0  0  0
 36 16  1  0  0  0  0
 37 18  1  0  0  0  0
 38 19  1  0  0  0  0
 39 20  1  0  0  0  0
 42 24  1  0  0  0  0
 43 25  1  0  0  0  0
M  END
