2,3,4,7,8,18
 OpenBabel05122313063D

 46 47  0  0  0  0  0  0  0  0999 V2000
   -1.8528   -0.0271   -2.3104 S   0  0  0  0  0  0  0  0  0  0  0  0
    0.5008   -1.3592    1.0664 S   0  0  0  0  0  0  0  0  0  0  0  0
    0.5349    1.6086    1.6699 O   0  0  0  0  0  1  0  0  0  0  0  0
    0.2247    2.2093   -0.9977 O   0  0  0  0  0  1  0  0  0  0  0  0
   -0.6271    1.8217    2.2429 N   0  0  0  0  0  0  0  0  0  0  0  0
   -1.7492    1.3731    1.7965 N   0  0  0  0  0  2  0  0  0  0  0  0
   -1.6355    0.6979    0.6621 N   0  0  0  0  0  2  0  0  0  0  0  0
    1.9913    0.5530   -0.4330 N   0  0  0  0  0  2  0  0  0  0  0  0
    2.4368    1.5738   -1.1385 N   0  0  0  0  0  2  0  0  0  0  0  0
    1.4722    2.3946   -1.4002 N   0  0  0  0  0  0  0  0  0  0  0  0
   -0.6299    2.6706    3.4215 C   0  0  0  0  0  0  0  0  0  0  0  0
   -2.7641   -0.0609    0.3328 C   0  0  0  0  0  0  0  0  0  0  0  0
   -3.7379   -0.4140    1.3003 C   0  0  0  0  0  0  0  0  0  0  0  0
   -4.8617   -1.1719    0.9540 C   0  0  0  0  0  0  0  0  0  0  0  0
   -5.0347   -1.6245   -0.3648 C   0  0  0  0  0  0  0  0  0  0  0  0
   -4.0663   -1.3082   -1.3284 C   0  0  0  0  0  0  0  0  0  0  0  0
   -2.9406   -0.5273   -1.0036 C   0  0  0  0  0  0  0  0  0  0  0  0
   -0.2061   -0.4334   -1.6731 C   0  0  0  0  0  3  0  0  0  0  0  0
    0.1074   -1.9390   -1.5726 C   0  0  0  0  0  0  0  0  0  0  0  0
   -0.2204   -2.5019   -0.2008 C   0  0  0  0  0  0  0  0  0  0  0  0
    2.2636   -1.5058    0.7167 C   0  0  0  0  0  0  0  0  0  0  0  0
    3.0292   -2.5790    1.1876 C   0  0  0  0  0  0  0  0  0  0  0  0
    4.4033   -2.6278    0.9049 C   0  0  0  0  0  0  0  0  0  0  0  0
    4.9964   -1.5846    0.1657 C   0  0  0  0  0  0  0  0  0  0  0  0
    4.2431   -0.5021   -0.2986 C   0  0  0  0  0  0  0  0  0  0  0  0
    2.8539   -0.4494   -0.0300 C   0  0  0  0  0  0  0  0  0  0  0  0
    1.7292    3.5909   -2.1784 C   0  0  0  0  0  0  0  0  0  0  0  0
   -1.6550    2.7158    3.8265 H   0  0  0  0  0  0  0  0  0  0  0  0
    0.0715    2.2452    4.1659 H   0  0  0  0  0  0  0  0  0  0  0  0
   -0.2775    3.6841    3.1414 H   0  0  0  0  0  0  0  0  0  0  0  0
   -3.5884   -0.0668    2.3315 H   0  0  0  0  0  0  0  0  0  0  0  0
   -5.6026   -1.4238    1.7284 H   0  0  0  0  0  0  0  0  0  0  0  0
   -5.9097   -2.2319   -0.6401 H   0  0  0  0  0  0  0  0  0  0  0  0
   -4.1706   -1.6599   -2.3659 H   0  0  0  0  0  0  0  0  0  0  0  0
    0.4431    0.0201   -2.4514 H   0  0  0  0  0  0  0  0  0  0  0  0
   -0.4386   -2.5122   -2.3543 H   0  0  0  0  0  0  0  0  0  0  0  0
    1.1922   -2.0873   -1.7647 H   0  0  0  0  0  0  0  0  0  0  0  0
    0.1711   -3.5226   -0.0172 H   0  0  0  0  0  0  0  0  0  0  0  0
   -1.3069   -2.4850    0.0210 H   0  0  0  0  0  0  0  0  0  0  0  0
    2.5472   -3.3732    1.7785 H   0  0  0  0  0  0  0  0  0  0  0  0
    5.0113   -3.4686    1.2683 H   0  0  0  0  0  0  0  0  0  0  0  0
    6.0755   -1.6169   -0.0495 H   0  0  0  0  0  0  0  0  0  0  0  0
    4.7017    0.3144   -0.8726 H   0  0  0  0  0  0  0  0  0  0  0  0
    2.7983    3.6124   -2.4489 H   0  0  0  0  0  0  0  0  0  0  0  0
    1.0933    3.5739   -3.0856 H   0  0  0  0  0  0  0  0  0  0  0  0
    1.4606    4.4794   -1.5730 H   0  0  0  0  0  0  0  0  0  0  0  0
  1 18  1  0  0  0  0
  1 17  1  0  0  0  0
  3  5  1  0  0  0  0
  5 11  1  0  0  0  0
  6  5  1  0  0  0  0
  7  6  1  0  0  0  0
  8 26  1  0  0  0  0
  9  8  1  0  0  0  0
 10  9  1  0  0  0  0
 10  4  1  0  0  0  0
 11 28  1  0  0  0  0
 11 29  1  0  0  0  0
 12  7  1  0  0  0  0
 12 13  1  0  0  0  0
 13 31  1  0  0  0  0
 14 13  2  0  0  0  0
 14 32  1  0  0  0  0
 15 14  1  0  0  0  0
 16 17  1  0  0  0  0
 16 15  2  0  0  0  0
 17 12  2  0  0  0  0
 18 19  1  0  0  0  0
 19 20  1  0  0  0  0
 20 38  1  0  0  0  0
 20 39  1  0  0  0  0
 20  2  1  0  0  0  0
 21  2  1  0  0  0  0
 21 22  1  0  0  0  0
 22 40  1  0  0  0  0
 23 22  2  0  0  0  0
 23 41  1  0  0  0  0
 24 23  1  0  0  0  0
 25 26  1  0  0  0  0
 25 24  2  0  0  0  0
 26 21  2  0  0  0  0
 27 46  1  0  0  0  0
 27 10  1  0  0  0  0
 30 11  1  0  0  0  0
 33 15  1  0  0  0  0
 34 16  1  0  0  0  0
 35 18  1  0  0  0  0
 36 19  1  0  0  0  0
 37 19  1  0  0  0  0
 42 24  1  0  0  0  0
 43 25  1  0  0  0  0
 44 27  1  0  0  0  0
 45 27  1  0  0  0  0
M  END
