1,2,3,4
q = -3.0, confidence = 0.342

 43 45  0  0  0  0  0  0  0  0999 V2000
    1.0003    1.2967   -1.4424 O   0  5  0  0  0  0  0  0  0  0  0  0
   -2.6189    1.1643   -0.9140 O   0  5  0  0  0  0  0  0  0  0  0  0
   -0.5017    1.2627    0.8057 O   0  5  0  0  0  0  0  0  0  0  0  0
   -0.6719   -0.9969   -1.0916 N   0  0  0  0  0  0  0  0  0  0  0  0
   -3.4012    0.1986   -0.4577 C   0  0  0  0  0  0  0  0  0  0  0  0
   -4.5473    0.5270    0.3228 C   0  0  0  0  0  0  0  0  0  0  0  0
   -5.4048   -0.4662    0.8105 C   0  0  0  0  0  0  0  0  0  0  0  0
   -6.2773   -0.1889    1.4161 H   0  0  0  0  0  0  0  0  0  0  0  0
   -5.1281   -1.8123    0.5208 C   0  0  0  0  0  0  0  0  0  0  0  0
   -4.0078   -2.1667   -0.2452 C   0  0  0  0  0  0  0  0  0  0  0  0
   -3.8071   -3.2259   -0.4613 H   0  0  0  0  0  0  0  0  0  0  0  0
   -3.1456   -1.1713   -0.7323 C   0  0  0  0  0  0  0  0  0  0  0  0
   -1.9672   -1.5132   -1.6001 C   0  0  0  0  0  0  0  0  0  0  0  0
   -1.9129   -2.6216   -1.7273 H   0  0  0  0  0  0  0  0  0  0  0  0
   -2.1001   -1.0757   -2.6122 H   0  0  0  0  0  0  0  0  0  0  0  0
   -0.4150   -1.5293    0.2734 C   0  0  0  0  0  0  0  0  0  0  0  0
   -0.1807   -2.6191    0.2175 H   0  0  0  0  0  0  0  0  0  0  0  0
   -1.3749   -1.4322    0.8229 H   0  0  0  0  0  0  0  0  0  0  0  0
    0.3697   -1.4001   -2.0653 C   0  0  0  0  0  0  0  0  0  0  0  0
    0.0734   -0.9532   -3.0383 H   0  0  0  0  0  0  0  0  0  0  0  0
    0.3555   -2.5094   -2.1960 H   0  0  0  0  0  0  0  0  0  0  0  0
    0.5108    0.5664    1.3291 C   0  0  0  0  0  0  0  0  0  0  0  0
    1.4957    1.2237    2.1132 C   0  0  0  0  0  0  0  0  0  0  0  0
    2.6201    0.5369    2.5873 C   0  0  0  0  0  0  0  0  0  0  0  0
    3.3914    1.0708    3.1568 H   0  0  0  0  0  0  0  0  0  0  0  0
    2.7581   -0.8266    2.2865 C   0  0  0  0  0  0  0  0  0  0  0  0
    1.7767   -1.5109    1.5542 C   0  0  0  0  0  0  0  0  0  0  0  0
    1.9131   -2.5775    1.3280 H   0  0  0  0  0  0  0  0  0  0  0  0
    0.6583   -0.8217    1.0639 C   0  0  0  0  0  0  0  0  0  0  0  0
    1.9802    0.4015   -1.3907 C   0  0  0  0  0  0  0  0  0  0  0  0
    3.2856    0.7964   -0.9843 C   0  0  0  0  0  0  0  0  0  0  0  0
    4.3365   -0.1260   -0.9050 C   0  0  0  0  0  0  0  0  0  0  0  0
    5.3291    0.2001   -0.5694 H   0  0  0  0  0  0  0  0  0  0  0  0
    4.0931   -1.4674   -1.2353 C   0  0  0  0  0  0  0  0  0  0  0  0
    2.8145   -1.8879   -1.6330 C   0  0  0  0  0  0  0  0  0  0  0  0
    2.6372   -2.9480   -1.8643 H   0  0  0  0  0  0  0  0  0  0  0  0
    1.7605   -0.9668   -1.6968 C   0  0  0  0  0  0  0  0  0  0  0  0
   -4.8646    2.1965    0.6678 Cl  0  0  0  0  0  0  0  0  0  0  0  0
   -6.1907   -3.0564    1.1252 Cl  0  0  0  0  0  0  0  0  0  0  0  0
    1.3115    2.9176    2.4320 Cl  0  0  0  0  0  0  0  0  0  0  0  0
    4.1947   -1.6763    2.7939 Cl  0  0  0  0  0  0  0  0  0  0  0  0
    3.5499    2.4520   -0.5410 Cl  0  0  0  0  0  0  0  0  0  0  0  0
    5.3877   -2.6291   -1.1252 Cl  0  0  0  0  0  0  0  0  0  0  0  0
  1 30  1  0  0  0  0
  2  5  1  0  0  0  0
  3 22  1  0  0  0  0
  4 16  1  0  0  0  0
  5  6  1  0  0  0  0
  6 38  1  0  0  0  0
  6  7  2  0  0  0  0
  7  8  1  0  0  0  0
  9  7  1  0  0  0  0
  9 39  1  0  0  0  0
 10  9  2  0  0  0  0
 11 10  1  0  0  0  0
 12  5  2  0  0  0  0
 12 10  1  0  0  0  0
 13  4  1  0  0  0  0
 13 12  1  0  0  0  0
 14 13  1  0  0  0  0
 15 13  1  0  0  0  0
 16 18  1  0  0  0  0
 16 29  1  0  0  0  0
 17 16  1  0  0  0  0
 19 37  1  0  0  0  0
 19  4  1  0  0  0  0
 20 19  1  0  0  0  0
 21 19  1  0  0  0  0
 22 23  1  0  0  0  0
 23 40  1  0  0  0  0
 23 24  2  0  0  0  0
 24 25  1  0  0  0  0
 26 24  1  0  0  0  0
 26 41  1  0  0  0  0
 27 26  2  0  0  0  0
 28 27  1  0  0  0  0
 29 22  2  0  0  0  0
 29 27  1  0  0  0  0
 30 31  1  0  0  0  0
 31 32  2  0  0  0  0
 31 42  1  0  0  0  0
 32 33  1  0  0  0  0
 34 43  1  0  0  0  0
 34 32  1  0  0  0  0
 35 34  2  0  0  0  0
 36 35  1  0  0  0  0
 37 35  1  0  0  0  0
 37 30  2  0  0  0  0
M  CHG  3   1  -1   2  -1   3  -1
M  END
