1,2,3,15
 OpenBabel05122313063D

 68 70  0  0  0  0  0  0  0  0999 V2000
    1.8463   -1.0959   -0.4218 O   0  5  0  0  0  0  0  0  0  0  0  0
   -1.2562    0.7190   -1.1177 O   0  5  0  0  0  0  0  0  0  0  0  0
   -0.6533   -1.8397   -1.1531 O   0  5  0  0  0  0  0  0  0  0  0  0
    3.1157   -0.7856   -0.1612 C   0  0  0  0  0  0  0  0  0  0  0  0
    3.9870   -1.8159    0.2957 C   0  0  0  0  0  0  0  0  0  0  0  0
    5.3069   -1.4785    0.6251 C   0  0  0  0  0  0  0  0  0  0  0  0
    5.9804   -2.2803    0.9715 H   0  0  0  0  0  0  0  0  0  0  0  0
    5.7985   -0.1578    0.5390 C   0  0  0  0  0  0  0  0  0  0  0  0
    4.9119    0.8394    0.0991 C   0  0  0  0  0  0  0  0  0  0  0  0
    5.2633    1.8824    0.0266 H   0  0  0  0  0  0  0  0  0  0  0  0
    3.5853    0.5454   -0.2646 C   0  0  0  0  0  0  0  0  0  0  0  0
    2.6823    1.6175   -0.8064 C   0  0  0  0  0  0  0  0  0  0  0  0
    3.1157    2.6149   -0.5638 H   0  0  0  0  0  0  0  0  0  0  0  0
    2.6131    1.5452   -1.9114 H   0  0  0  0  0  0  0  0  0  0  0  0
    1.2705    1.5915   -0.3096 N   0  0  0  0  0  0  0  0  0  0  0  0
    0.5725    2.7738   -0.9364 C   0  0  0  0  0  0  0  0  0  0  0  0
    1.1675    3.6895   -0.7192 H   0  0  0  0  0  0  0  0  0  0  0  0
    0.6088    2.5952   -2.0307 H   0  0  0  0  0  0  0  0  0  0  0  0
   -0.8368    2.9550   -0.4592 C   0  0  0  0  0  0  0  0  0  0  0  0
   -1.3031    4.1586    0.0971 C   0  0  0  0  0  0  0  0  0  0  0  0
   -0.6092    5.0112    0.1881 H   0  0  0  0  0  0  0  0  0  0  0  0
   -2.6336    4.2938    0.5302 C   0  0  0  0  0  0  0  0  0  0  0  0
   -3.4814    3.1709    0.4060 C   0  0  0  0  0  0  0  0  0  0  0  0
   -4.5270    3.2528    0.7479 H   0  0  0  0  0  0  0  0  0  0  0  0
   -3.0548    1.9449   -0.1263 C   0  0  0  0  0  0  0  0  0  0  0  0
   -1.7075    1.8447   -0.5748 C   0  0  0  0  0  0  0  0  0  0  0  0
    1.1962    1.6850    1.1823 C   0  0  0  0  0  0  0  0  0  0  0  0
    0.3471    2.3549    1.4183 H   0  0  0  0  0  0  0  0  0  0  0  0
    2.1244    2.1471    1.5804 H   0  0  0  0  0  0  0  0  0  0  0  0
    0.9469    0.3560    1.8811 C   0  0  0  0  0  0  0  0  0  0  0  0
    1.8323   -0.3138    1.8528 H   0  0  0  0  0  0  0  0  0  0  0  0
    0.7045    0.5557    2.9514 H   0  0  0  0  0  0  0  0  0  0  0  0
   -0.1638   -0.2508    1.2322 O   0  0  0  0  0  0  0  0  0  0  0  0
   -0.4585   -1.5792    1.6994 C   0  0  0  0  0  0  0  0  0  0  0  0
   -0.6183   -1.5522    2.8002 H   0  0  0  0  0  0  0  0  0  0  0  0
    0.4260   -2.2255    1.4863 H   0  0  0  0  0  0  0  0  0  0  0  0
   -1.6882   -2.0953    1.0080 C   0  0  0  0  0  0  0  0  0  0  0  0
   -2.8257   -2.4785    1.7378 C   0  0  0  0  0  0  0  0  0  0  0  0
   -2.8107   -2.3809    2.8358 H   0  0  0  0  0  0  0  0  0  0  0  0
   -3.9780   -2.9784    1.1044 C   0  0  0  0  0  0  0  0  0  0  0  0
   -3.9649   -3.0789   -0.3034 C   0  0  0  0  0  0  0  0  0  0  0  0
   -4.8624   -3.4544   -0.8226 H   0  0  0  0  0  0  0  0  0  0  0  0
   -2.8564   -2.7044   -1.0750 C   0  0  0  0  0  0  0  0  0  0  0  0
   -1.7017   -2.2072   -0.4070 C   0  0  0  0  0  0  0  0  0  0  0  0
   -2.8503   -2.7684   -2.5761 C   0  0  0  0  0  0  0  0  0  0  0  0
   -3.7947   -3.1905   -2.9687 H   0  0  0  0  0  0  0  0  0  0  0  0
   -2.0020   -3.3800   -2.9461 H   0  0  0  0  0  0  0  0  0  0  0  0
   -2.7042   -1.7560   -3.0076 H   0  0  0  0  0  0  0  0  0  0  0  0
   -5.1931   -3.3946    1.8944 C   0  0  0  0  0  0  0  0  0  0  0  0
   -5.0821   -3.1573    2.9702 H   0  0  0  0  0  0  0  0  0  0  0  0
   -5.3776   -4.4868    1.8091 H   0  0  0  0  0  0  0  0  0  0  0  0
   -6.1093   -2.8870    1.5273 H   0  0  0  0  0  0  0  0  0  0  0  0
   -3.9597    0.7507   -0.2358 C   0  0  0  0  0  0  0  0  0  0  0  0
   -4.9950    0.9992    0.0665 H   0  0  0  0  0  0  0  0  0  0  0  0
   -3.5985   -0.0843    0.3999 H   0  0  0  0  0  0  0  0  0  0  0  0
   -3.9768    0.3539   -1.2716 H   0  0  0  0  0  0  0  0  0  0  0  0
   -3.1514    5.5925    1.0973 C   0  0  0  0  0  0  0  0  0  0  0  0
   -3.8698    6.0815    0.4046 H   0  0  0  0  0  0  0  0  0  0  0  0
   -2.3306    6.3124    1.2841 H   0  0  0  0  0  0  0  0  0  0  0  0
   -3.6896    5.4355    2.0551 H   0  0  0  0  0  0  0  0  0  0  0  0
    7.2286    0.1593    0.8997 C   0  0  0  0  0  0  0  0  0  0  0  0
    7.4988   -0.2449    1.8974 H   0  0  0  0  0  0  0  0  0  0  0  0
    7.4128    1.2513    0.9156 H   0  0  0  0  0  0  0  0  0  0  0  0
    7.9398   -0.2869    0.1717 H   0  0  0  0  0  0  0  0  0  0  0  0
    3.4517   -3.2159    0.4106 C   0  0  0  0  0  0  0  0  0  0  0  0
    4.2451   -3.9324    0.6967 H   0  0  0  0  0  0  0  0  0  0  0  0
    2.9935   -3.5483   -0.5433 H   0  0  0  0  0  0  0  0  0  0  0  0
    2.6418   -3.2744    1.1702 H   0  0  0  0  0  0  0  0  0  0  0  0
  1  4  1  0  0  0  0
  2 26  1  0  0  0  0
  3 44  1  0  0  0  0
  4  5  1  0  0  0  0
  5 65  1  0  0  0  0
  5  6  2  0  0  0  0
  6  7  1  0  0  0  0
  8  6  1  0  0  0  0
  8 61  1  0  0  0  0
  9  8  2  0  0  0  0
 10  9  1  0  0  0  0
 11  4  2  0  0  0  0
 11  9  1  0  0  0  0
 12 13  1  0  0  0  0
 12 15  1  0  0  0  0
 12 11  1  0  0  0  0
 14 12  1  0  0  0  0
 15 27  1  0  0  0  0
 16 17  1  0  0  0  0
 16 19  1  0  0  0  0
 16 15  1  0  0  0  0
 18 16  1  0  0  0  0
 19 20  1  0  0  0  0
 20 21  1  0  0  0  0
 20 22  2  0  0  0  0
 22 57  1  0  0  0  0
 23 22  1  0  0  0  0
 23 24  1  0  0  0  0
 25 23  2  0  0  0  0
 26 19  2  0  0  0  0
 26 25  1  0  0  0  0
 27 28  1  0  0  0  0
 27 29  1  0  0  0  0
 27 30  1  0  0  0  0
 30 32  1  0  0  0  0
 31 30  1  0  0  0  0
 33 34  1  0  0  0  0
 33 30  1  0  0  0  0
 34 35  1  0  0  0  0
 36 34  1  0  0  0  0
 37 34  1  0  0  0  0
 37 38  1  0  0  0  0
 38 39  1  0  0  0  0
 40 38  2  0  0  0  0
 40 49  1  0  0  0  0
 41 40  1  0  0  0  0
 42 41  1  0  0  0  0
 43 44  1  0  0  0  0
 43 41  2  0  0  0  0
 44 37  2  0  0  0  0
 45 43  1  0  0  0  0
 46 45  1  0  0  0  0
 47 45  1  0  0  0  0
 48 45  1  0  0  0  0
 49 50  1  0  0  0  0
 51 49  1  0  0  0  0
 52 49  1  0  0  0  0
 53 25  1  0  0  0  0
 53 54  1  0  0  0  0
 53 55  1  0  0  0  0
 56 53  1  0  0  0  0
 57 59  1  0  0  0  0
 57 60  1  0  0  0  0
 58 57  1  0  0  0  0
 61 63  1  0  0  0  0
 61 62  1  0  0  0  0
 64 61  1  0  0  0  0
 65 66  1  0  0  0  0
 65 68  1  0  0  0  0
 67 65  1  0  0  0  0
M  CHG  3   1  -1   2  -1   3  -1
M  END
