1,2,3,5
 OpenBabel05122313063D

 46 47  0  0  1  0  0  0  0  0999 V2000
   -1.2652   -0.0130    1.0846 O   0  0  0  0  0  1  0  0  0  0  0  0
    1.7302   -0.5540    1.0302 O   0  0  0  0  0  1  0  0  0  0  0  0
   -0.1617   -2.7855    0.4059 O   0  0  0  0  0  1  0  0  0  0  0  0
   -2.8151   -2.1898   -0.6720 O   0  0  0  0  0  0  0  0  0  0  0  0
    0.1096   -0.5908   -1.1649 N   0  0  0  0  0  0  0  0  0  0  0  0
   -2.7377    1.6058    0.0357 C   0  0  0  0  0  0  0  0  0  0  0  0
   -2.9364    2.7785   -0.7191 C   0  0  0  0  0  0  0  0  0  0  0  0
   -2.0888    3.2336   -1.2572 H   0  0  0  0  0  0  0  0  0  0  0  0
   -4.2025    3.3780   -0.7824 C   0  0  0  0  0  0  0  0  0  0  0  0
   -4.3448    4.2952   -1.3742 H   0  0  0  0  0  0  0  0  0  0  0  0
   -5.2831    2.8148   -0.0843 C   0  0  0  0  0  0  0  0  0  0  0  0
   -6.2763    3.2867   -0.1296 H   0  0  0  0  0  0  0  0  0  0  0  0
   -5.0871    1.6533    0.6785 C   0  0  0  0  0  0  0  0  0  0  0  0
   -5.9270    1.2120    1.2366 H   0  0  0  0  0  0  0  0  0  0  0  0
   -3.8212    1.0508    0.7383 C   0  0  0  0  0  0  0  0  0  0  0  0
   -3.6544    0.1520    1.3485 H   0  0  0  0  0  0  0  0  0  0  0  0
   -1.3747    0.9375    0.0443 C   0  0  2  0  0  0  0  0  0  0  0  0
   -0.6051    1.7288    0.2208 H   0  0  0  0  0  0  0  0  0  0  0  0
   -1.0863    0.2419   -1.3054 C   0  0  0  0  0  0  0  0  0  0  0  0
   -1.9459   -0.4181   -1.5267 H   0  0  0  0  0  0  0  0  0  0  0  0
   -0.9926    0.9921   -2.1244 H   0  0  0  0  0  0  0  0  0  0  0  0
    3.6011    0.4755   -0.1104 C   0  0  0  0  0  0  0  0  0  0  0  0
    3.7196    1.4023    0.9406 C   0  0  0  0  0  0  0  0  0  0  0  0
    2.9442    1.4191    1.7202 H   0  0  0  0  0  0  0  0  0  0  0  0
    4.8226    2.2678    0.9972 C   0  0  0  0  0  0  0  0  0  0  0  0
    4.9113    2.9845    1.8279 H   0  0  0  0  0  0  0  0  0  0  0  0
    5.8133    2.2181    0.0037 C   0  0  0  0  0  0  0  0  0  0  0  0
    6.6788    2.8962    0.0508 H   0  0  0  0  0  0  0  0  0  0  0  0
    5.7008    1.2917   -1.0458 C   0  0  0  0  0  0  0  0  0  0  0  0
    6.4790    1.2397   -1.8224 H   0  0  0  0  0  0  0  0  0  0  0  0
    4.6014    0.4224   -1.0999 C   0  0  0  0  0  0  0  0  0  0  0  0
    4.5245   -0.3138   -1.9168 H   0  0  0  0  0  0  0  0  0  0  0  0
    2.3799   -0.4200   -0.2141 C   0  0  2  0  0  0  0  0  0  0  0  0
    2.7156   -1.4323   -0.5481 H   0  0  0  0  0  0  0  0  0  0  0  0
    1.3752    0.1387   -1.2452 C   0  0  0  0  0  0  0  0  0  0  0  0
    1.1869    1.1982   -0.9795 H   0  0  0  0  0  0  0  0  0  0  0  0
    1.8149    0.1331   -2.2705 H   0  0  0  0  0  0  0  0  0  0  0  0
    0.0892   -1.8890   -1.8439 C   0  0  0  0  0  0  0  0  0  0  0  0
    1.1387   -2.1577   -2.0790 H   0  0  0  0  0  0  0  0  0  0  0  0
   -0.4535   -1.8448   -2.8161 H   0  0  0  0  0  0  0  0  0  0  0  0
   -0.4904   -3.0163   -0.9450 C   0  0  2  0  0  0  0  0  0  0  0  0
   -0.0007   -3.9708   -1.2558 H   0  0  0  0  0  0  0  0  0  0  0  0
   -2.0018   -3.2799   -1.0490 C   0  0  0  0  0  0  0  0  0  0  0  0
   -2.2548   -3.5272   -2.1022 H   0  0  0  0  0  0  0  0  0  0  0  0
   -2.2172   -4.1859   -0.4334 H   0  0  0  0  0  0  0  0  0  0  0  0
   -2.5296   -1.8969    0.2180 H   0  0  0  0  0  0  0  0  0  0  0  0
  4 46  1  0  0  0  0
  6 17  1  0  0  0  0
  6 15  1  0  0  0  0
  7  6  2  0  0  0  0
  8  7  1  0  0  0  0
  9  7  1  0  0  0  0
  9 11  2  0  0  0  0
 10  9  1  0  0  0  0
 11 13  1  0  0  0  0
 12 11  1  0  0  0  0
 13 15  2  0  0  0  0
 13 14  1  0  0  0  0
 15 16  1  0  0  0  0
 17 18  1  1  0  0  0
 17  1  1  0  0  0  0
 19  5  1  0  0  0  0
 19 17  1  0  0  0  0
 20 19  1  0  0  0  0
 21 19  1  0  0  0  0
 22 23  1  0  0  0  0
 23 25  2  0  0  0  0
 23 24  1  0  0  0  0
 25 26  1  0  0  0  0
 27 28  1  0  0  0  0
 27 25  1  0  0  0  0
 29 27  2  0  0  0  0
 30 29  1  0  0  0  0
 31 29  1  0  0  0  0
 31 22  2  0  0  0  0
 32 31  1  0  0  0  0
 33 34  1  6  0  0  0
 33 22  1  0  0  0  0
 33  2  1  0  0  0  0
 35  5  1  0  0  0  0
 35 36  1  0  0  0  0
 35 33  1  0  0  0  0
 37 35  1  0  0  0  0
 38  5  1  0  0  0  0
 38 41  1  0  0  0  0
 39 38  1  0  0  0  0
 40 38  1  0  0  0  0
 41 42  1  6  0  0  0
 41  3  1  0  0  0  0
 43 41  1  0  0  0  0
 43  4  1  0  0  0  0
 43 45  1  0  0  0  0
 44 43  1  0  0  0  0
M  END
