1,2,3,4
 OpenBabel05122313063D

 61 63  0  0  0  0  0  0  0  0999 V2000
   -1.7150   -0.8265   -0.9761 O   0  5  0  0  0  0  0  0  0  0  0  0
    1.9057    0.1923   -1.0400 O   0  5  0  0  0  0  0  0  0  0  0  0
   -0.5319    1.6886   -1.0787 O   0  5  0  0  0  0  0  0  0  0  0  0
    0.1277    0.0658    1.1699 N   0  0  0  0  0  0  0  0  0  0  0  0
   -2.1680   -1.7040   -0.0555 C   0  0  0  0  0  0  0  0  0  0  0  0
   -2.9240   -2.8196   -0.4970 C   0  0  0  0  0  0  0  0  0  0  0  0
   -3.3499   -3.7493    0.4638 C   0  0  0  0  0  0  0  0  0  0  0  0
   -3.9313   -4.6232    0.1262 H   0  0  0  0  0  0  0  0  0  0  0  0
   -3.0483   -3.6118    1.8351 C   0  0  0  0  0  0  0  0  0  0  0  0
   -2.3047   -2.4878    2.2367 C   0  0  0  0  0  0  0  0  0  0  0  0
   -2.0668   -2.3480    3.3042 H   0  0  0  0  0  0  0  0  0  0  0  0
   -1.8640   -1.5221    1.3146 C   0  0  0  0  0  0  0  0  0  0  0  0
   -1.1910   -0.2579    1.7768 C   0  0  0  0  0  0  0  0  0  0  0  0
   -1.8529    0.6018    1.5392 H   0  0  0  0  0  0  0  0  0  0  0  0
   -1.0868   -0.2802    2.8883 H   0  0  0  0  0  0  0  0  0  0  0  0
    1.1688   -0.8502    1.6774 C   0  0  0  0  0  0  0  0  0  0  0  0
    0.8501   -1.8826    1.4315 H   0  0  0  0  0  0  0  0  0  0  0  0
    1.1978   -0.7884    2.7934 H   0  0  0  0  0  0  0  0  0  0  0  0
    2.5703   -0.5994    1.1584 C   0  0  0  0  0  0  0  0  0  0  0  0
    3.6511   -0.8846    2.0160 C   0  0  0  0  0  0  0  0  0  0  0  0
    3.4295   -1.2336    3.0381 H   0  0  0  0  0  0  0  0  0  0  0  0
    4.9899   -0.7412    1.6196 C   0  0  0  0  0  0  0  0  0  0  0  0
    5.2435   -0.2795    0.3107 C   0  0  0  0  0  0  0  0  0  0  0  0
    6.2856   -0.1524   -0.0256 H   0  0  0  0  0  0  0  0  0  0  0  0
    4.2103    0.0279   -0.5823 C   0  0  0  0  0  0  0  0  0  0  0  0
    2.8638   -0.1380   -0.1516 C   0  0  0  0  0  0  0  0  0  0  0  0
    0.4971    1.4579    1.5590 C   0  0  0  0  0  0  0  0  0  0  0  0
    0.6575    1.4956    2.6630 H   0  0  0  0  0  0  0  0  0  0  0  0
    1.4788    1.6753    1.0904 H   0  0  0  0  0  0  0  0  0  0  0  0
   -0.5122    2.5005    1.1706 C   0  0  0  0  0  0  0  0  0  0  0  0
   -0.9911    3.4407    2.1005 C   0  0  0  0  0  0  0  0  0  0  0  0
   -0.6401    3.3808    3.1440 H   0  0  0  0  0  0  0  0  0  0  0  0
   -1.8990    4.4476    1.7319 C   0  0  0  0  0  0  0  0  0  0  0  0
   -2.3322    4.4882    0.3879 C   0  0  0  0  0  0  0  0  0  0  0  0
   -3.0497    5.2665    0.0791 H   0  0  0  0  0  0  0  0  0  0  0  0
   -1.8888    3.5711   -0.5741 C   0  0  0  0  0  0  0  0  0  0  0  0
   -0.9652    2.5679   -0.1683 C   0  0  0  0  0  0  0  0  0  0  0  0
   -3.2108   -2.9786   -1.9639 C   0  0  0  0  0  0  0  0  0  0  0  0
   -3.8512   -3.8598   -2.1571 H   0  0  0  0  0  0  0  0  0  0  0  0
   -2.2698   -3.0945   -2.5416 H   0  0  0  0  0  0  0  0  0  0  0  0
   -3.7102   -2.0773   -2.3743 H   0  0  0  0  0  0  0  0  0  0  0  0
   -3.5198   -4.6407    2.8322 C   0  0  0  0  0  0  0  0  0  0  0  0
   -3.1641   -5.6577    2.5647 H   0  0  0  0  0  0  0  0  0  0  0  0
   -4.6286   -4.6902    2.8692 H   0  0  0  0  0  0  0  0  0  0  0  0
   -3.1597   -4.4144    3.8544 H   0  0  0  0  0  0  0  0  0  0  0  0
   -2.3517    3.6018   -2.0036 C   0  0  0  0  0  0  0  0  0  0  0  0
   -1.4909    3.6838   -2.6990 H   0  0  0  0  0  0  0  0  0  0  0  0
   -3.0398    4.4484   -2.1878 H   0  0  0  0  0  0  0  0  0  0  0  0
   -2.8714    2.6589   -2.2744 H   0  0  0  0  0  0  0  0  0  0  0  0
   -2.4012    5.4598    2.7308 C   0  0  0  0  0  0  0  0  0  0  0  0
   -2.0832    6.4887    2.4591 H   0  0  0  0  0  0  0  0  0  0  0  0
   -2.0227    5.2506    3.7501 H   0  0  0  0  0  0  0  0  0  0  0  0
   -3.5103    5.4709    2.7759 H   0  0  0  0  0  0  0  0  0  0  0  0
    4.4702    0.5224   -1.9781 C   0  0  0  0  0  0  0  0  0  0  0  0
    4.0223    1.5252   -2.1375 H   0  0  0  0  0  0  0  0  0  0  0  0
    3.9982   -0.1428   -2.7306 H   0  0  0  0  0  0  0  0  0  0  0  0
    5.5548    0.5827   -2.1877 H   0  0  0  0  0  0  0  0  0  0  0  0
    6.1273   -1.0633    2.5555 C   0  0  0  0  0  0  0  0  0  0  0  0
    6.7528   -1.8911    2.1597 H   0  0  0  0  0  0  0  0  0  0  0  0
    5.7615   -1.3669    3.5554 H   0  0  0  0  0  0  0  0  0  0  0  0
    6.8011   -0.1915    2.6902 H   0  0  0  0  0  0  0  0  0  0  0  0
  1  5  1  0  0  0  0
  2 26  1  0  0  0  0
  3 37  1  0  0  0  0
  4 27  1  0  0  0  0
  4 16  1  0  0  0  0
  4 13  1  0  0  0  0
  5 12  1  0  0  0  0
  6  5  2  0  0  0  0
  6  7  1  0  0  0  0
  7  9  2  0  0  0  0
  8  7  1  0  0  0  0
  9 10  1  0  0  0  0
  9 42  1  0  0  0  0
 10 11  1  0  0  0  0
 12 13  1  0  0  0  0
 12 10  2  0  0  0  0
 13 15  1  0  0  0  0
 14 13  1  0  0  0  0
 16 18  1  0  0  0  0
 17 16  1  0  0  0  0
 19 16  1  0  0  0  0
 19 20  1  0  0  0  0
 20 21  1  0  0  0  0
 22 20  2  0  0  0  0
 22 58  1  0  0  0  0
 23 22  1  0  0  0  0
 24 23  1  0  0  0  0
 25 26  1  0  0  0  0
 25 23  2  0  0  0  0
 26 19  2  0  0  0  0
 27 28  1  0  0  0  0
 29 27  1  0  0  0  0
 30 27  1  0  0  0  0
 30 31  1  0  0  0  0
 31 32  1  0  0  0  0
 33 31  2  0  0  0  0
 33 50  1  0  0  0  0
 34 33  1  0  0  0  0
 35 34  1  0  0  0  0
 36 37  1  0  0  0  0
 36 34  2  0  0  0  0
 37 30  2  0  0  0  0
 38  6  1  0  0  0  0
 39 38  1  0  0  0  0
 40 38  1  0  0  0  0
 41 38  1  0  0  0  0
 42 44  1  0  0  0  0
 42 45  1  0  0  0  0
 43 42  1  0  0  0  0
 46 36  1  0  0  0  0
 47 46  1  0  0  0  0
 48 46  1  0  0  0  0
 49 46  1  0  0  0  0
 50 53  1  0  0  0  0
 50 52  1  0  0  0  0
 51 50  1  0  0  0  0
 54 25  1  0  0  0  0
 55 54  1  0  0  0  0
 56 54  1  0  0  0  0
 57 54  1  0  0  0  0
 58 61  1  0  0  0  0
 58 60  1  0  0  0  0
 59 58  1  0  0  0  0
M  CHG  3   1  -1   2  -1   3  -1
M  END
