1,2,4,10
 OpenBabel05122313063D

 38 38  0  0  1  0  0  0  0  0999 V2000
    0.6936   -0.6339   -2.3081 O   0  0  0  0  0  1  0  0  0  0  0  0
    3.0924   -0.5729   -0.4251 O   0  5  0  0  0  0  0  0  0  0  0  0
    0.1150   -0.6658    3.6239 O   0  5  0  0  0  0  0  0  0  0  0  0
    0.7861   -1.5679    1.6603 O   0  0  0  0  0  0  0  0  0  0  0  0
    4.6490    1.0610   -0.2018 O   0  0  0  0  0  0  0  0  0  0  0  0
   -0.8962   -0.6936   -3.8935 O   0  0  0  0  0  0  0  0  0  0  0  0
   -4.1313   -0.7564   -0.2051 O   0  0  0  0  0  0  0  0  0  0  0  0
   -3.9263   -1.6649    1.8520 O   0  0  0  0  0  0  0  0  0  0  0  0
   -1.2314   -0.3731   -0.3181 N   0  0  0  0  0  0  0  0  0  0  0  0
    1.1157    1.0782    0.6119 N   0  0  0  0  0  0  0  0  0  0  0  0
    3.4981    0.6422   -0.1935 C   0  0  0  0  0  0  0  0  0  0  0  0
   -0.1000    1.7759    0.2666 C   0  0  0  0  0  0  0  0  0  0  0  0
   -0.4913   -0.7133   -2.6270 C   0  0  1  0  0  3  0  0  0  0  0  0
    0.6417   -0.5923    2.5165 C   0  0  0  0  0  0  0  0  0  0  0  0
   -3.4300   -1.1122    0.7283 C   0  0  0  0  0  0  0  0  0  0  0  0
   -1.2412    1.0824   -0.2199 C   0  0  0  0  0  0  0  0  0  0  0  0
    1.2410    0.7750    2.0689 C   0  0  0  0  0  0  0  0  0  0  0  0
    2.3510    1.6807    0.0454 C   0  0  0  0  0  0  0  0  0  0  0  0
   -1.6186   -0.8866   -1.6343 C   0  0  0  0  0  0  0  0  0  0  0  0
   -1.9118   -1.0415    0.8064 C   0  0  0  0  0  0  0  0  0  0  0  0
   -0.1566    3.1806    0.3776 C   0  0  0  0  0  0  0  0  0  0  0  0
   -2.3875    1.8147   -0.5910 C   0  0  0  0  0  0  0  0  0  0  0  0
   -1.2985    3.8965    0.0044 C   0  0  0  0  0  0  0  0  0  0  0  0
   -2.4194    3.2100   -0.4861 C   0  0  0  0  0  0  0  0  0  0  0  0
   -1.7930   -1.9821   -1.5543 H   0  0  0  0  0  0  0  0  0  0  0  0
   -2.5563   -0.4617   -2.0440 H   0  0  0  0  0  0  0  0  0  0  0  0
   -1.6406   -0.5433    1.7577 H   0  0  0  0  0  0  0  0  0  0  0  0
    2.0971    2.1076   -0.9466 H   0  0  0  0  0  0  0  0  0  0  0  0
    0.7251    3.7136    0.7614 H   0  0  0  0  0  0  0  0  0  0  0  0
   -3.3266    3.7586   -0.7792 H   0  0  0  0  0  0  0  0  0  0  0  0
    2.3258    0.7258    2.2991 H   0  0  0  0  0  0  0  0  0  0  0  0
   -3.2735    1.2670   -0.9411 H   0  0  0  0  0  0  0  0  0  0  0  0
   -1.5046   -2.0664    0.9358 H   0  0  0  0  0  0  0  0  0  0  0  0
    2.7528    2.5007    0.6766 H   0  0  0  0  0  0  0  0  0  0  0  0
    0.7979    1.5828    2.6858 H   0  0  0  0  0  0  0  0  0  0  0  0
   -1.3125    4.9925    0.0990 H   0  0  0  0  0  0  0  0  0  0  0  0
   -0.0908   -0.6419   -4.4570 H   0  0  0  0  0  0  0  0  0  0  0  0
   -4.9013   -1.6974    1.7360 H   0  0  0  0  0  0  0  0  0  0  0  0
  2 11  1  0  0  0  0
  4 14  2  0  0  0  0
  5 11  2  0  0  0  0
  6 13  1  0  0  0  0
  7 15  2  0  0  0  0
  9 16  1  0  0  0  0
  9 20  1  0  0  0  0
 10 17  1  0  0  0  0
 11 18  1  0  0  0  0
 12 21  1  0  0  0  0
 12 10  1  0  0  0  0
 13  1  1  6  0  0  0
 13 19  1  0  0  0  0
 14  3  1  0  0  0  0
 15 20  1  0  0  0  0
 15  8  1  0  0  0  0
 16 12  2  0  0  0  0
 17 31  1  0  0  0  0
 17 14  1  0  0  0  0
 17 35  1  0  0  0  0
 18 10  1  0  0  0  0
 18 34  1  0  0  0  0
 19 25  1  0  0  0  0
 19  9  1  0  0  0  0
 20 33  1  0  0  0  0
 20 27  1  0  0  0  0
 21 29  1  0  0  0  0
 22 24  2  0  0  0  0
 22 16  1  0  0  0  0
 23 36  1  0  0  0  0
 23 21  2  0  0  0  0
 24 23  1  0  0  0  0
 26 19  1  0  0  0  0
 28 18  1  0  0  0  0
 30 24  1  0  0  0  0
 32 22  1  0  0  0  0
 37  6  1  0  0  0  0
 38  8  1  0  0  0  0
M  CHG  2   2  -1   3  -1
M  END
