1,3,4,5
 OpenBabel05122313063D

 29 28  0  0  1  0  0  0  0  0999 V2000
    0.3598   -1.6663   -0.9199 O   0  5  0  0  0  0  0  0  0  0  0  0
   -0.7833   -3.3766   -1.7678 O   0  0  0  0  0  0  0  0  0  0  0  0
    0.0019    2.1809   -0.1005 O   0  0  0  0  0  1  0  0  0  0  0  0
    0.1729   -0.2805    1.8739 O   0  0  0  0  0  1  0  0  0  0  0  0
   -1.8296   -0.1801   -0.4776 N   0  0  0  0  0  0  0  0  0  0  0  0
   -0.9522    4.1490    0.4244 N   0  0  0  0  0  0  0  0  0  0  0  0
   -1.7770    4.7367    0.5467 H   0  0  0  0  0  0  0  0  0  0  0  0
   -0.0296    4.5673    0.5670 H   0  0  0  0  0  0  0  0  0  0  0  0
    0.3750   -2.3790    2.7189 N   0  0  0  0  0  0  0  0  0  0  0  0
    0.0101   -3.3241    2.8372 H   0  0  0  0  0  0  0  0  0  0  0  0
    1.3122   -2.1682    3.0684 H   0  0  0  0  0  0  0  0  0  0  0  0
   -1.9354   -1.2619   -1.4879 C   0  0  0  0  0  0  0  0  0  0  0  0
   -1.9143   -0.8088   -2.5003 H   0  0  0  0  0  0  0  0  0  0  0  0
   -2.8902   -1.8207   -1.3926 H   0  0  0  0  0  0  0  0  0  0  0  0
   -0.7312   -2.2135   -1.3975 C   0  0  0  0  0  0  0  0  0  0  0  0
   -2.5224    1.0425   -0.9674 C   0  0  0  0  0  0  0  0  0  0  0  0
   -2.1011    1.2764   -1.9655 H   0  0  0  0  0  0  0  0  0  0  0  0
   -3.5992    0.8008   -1.1200 H   0  0  0  0  0  0  0  0  0  0  0  0
   -2.4332    2.2752   -0.0720 C   0  0  0  0  0  0  0  0  0  0  0  0
   -2.8265    2.0741    0.9472 H   0  0  0  0  0  0  0  0  0  0  0  0
   -3.1084    3.0464   -0.4959 H   0  0  0  0  0  0  0  0  0  0  0  0
   -1.0379    2.8553    0.0756 C   0  0  2  0  0  3  0  0  0  0  0  0
   -2.3740   -0.6207    0.8417 C   0  0  0  0  0  0  0  0  0  0  0  0
   -2.3031    0.2373    1.5346 H   0  0  0  0  0  0  0  0  0  0  0  0
   -3.4509   -0.8643    0.6981 H   0  0  0  0  0  0  0  0  0  0  0  0
   -1.6698   -1.8030    1.5015 C   0  0  0  0  0  0  0  0  0  0  0  0
   -1.6013   -2.6915    0.8403 H   0  0  0  0  0  0  0  0  0  0  0  0
   -2.3034   -2.1240    2.3557 H   0  0  0  0  0  0  0  0  0  0  0  0
   -0.2896   -1.4254    2.0398 C   0  0  1  0  0  3  0  0  0  0  0  0
  2 15  2  0  0  0  0
  5 23  1  0  0  0  0
  6  7  1  0  0  0  0
  6  8  1  0  0  0  0
  9 10  1  0  0  0  0
  9 11  1  0  0  0  0
 12 15  1  0  0  0  0
 12 14  1  0  0  0  0
 12  5  1  0  0  0  0
 13 12  1  0  0  0  0
 15  1  1  0  0  0  0
 16  5  1  0  0  0  0
 16 19  1  0  0  0  0
 17 16  1  0  0  0  0
 18 16  1  0  0  0  0
 19 22  1  0  0  0  0
 19 20  1  0  0  0  0
 21 19  1  0  0  0  0
 22  3  1  1  0  0  0
 22  6  1  0  0  0  0
 23 26  1  0  0  0  0
 23 24  1  0  0  0  0
 25 23  1  0  0  0  0
 26 29  1  0  0  0  0
 26 28  1  0  0  0  0
 27 26  1  0  0  0  0
 29  4  1  1  0  0  0
 29  9  1  0  0  0  0
M  CHG  1   1  -1
M  END
