1,2,3,4
 OpenBabel05122313063D

 53 53  0  0  0  0  0  0  0  0999 V2000
   -0.9905    0.8740   -0.6083 O   0  5  0  0  0  0  0  0  0  0  0  0
   -2.7137    0.0501    1.7548 O   0  0  0  0  0  1  0  0  0  0  0  0
   -3.7952   -0.2508   -1.0908 O   0  0  0  0  0  1  0  0  0  0  0  0
   -1.8107   -1.7886   -0.0091 N   0  0  0  0  0  0  0  0  0  0  0  0
    0.2577    0.3944   -0.4442 C   0  0  0  0  0  0  0  0  0  0  0  0
    1.3361    1.2855   -0.1734 C   0  0  0  0  0  0  0  0  0  0  0  0
    1.1129    2.8055   -0.0461 C   0  0  0  0  0  0  0  0  0  0  0  0
    0.1728    3.1016    1.1470 C   0  0  0  0  0  0  0  0  0  0  0  0
    0.5794    2.6738    2.0860 H   0  0  0  0  0  0  0  0  0  0  0  0
   -0.8440    2.6997    0.9876 H   0  0  0  0  0  0  0  0  0  0  0  0
    0.0764    4.1983    1.2860 H   0  0  0  0  0  0  0  0  0  0  0  0
    0.4966    3.3589   -1.3528 C   0  0  0  0  0  0  0  0  0  0  0  0
   -0.4844    2.8963   -1.5645 H   0  0  0  0  0  0  0  0  0  0  0  0
    1.1693    3.1707   -2.2144 H   0  0  0  0  0  0  0  0  0  0  0  0
    0.3508    4.4554   -1.2659 H   0  0  0  0  0  0  0  0  0  0  0  0
    2.4351    3.5556    0.2035 C   0  0  0  0  0  0  0  0  0  0  0  0
    3.1628    3.4047   -0.6195 H   0  0  0  0  0  0  0  0  0  0  0  0
    2.9173    3.2508    1.1545 H   0  0  0  0  0  0  0  0  0  0  0  0
    2.2301    4.6426    0.2707 H   0  0  0  0  0  0  0  0  0  0  0  0
    2.6159    0.7159   -0.0209 C   0  0  0  0  0  0  0  0  0  0  0  0
    3.4518    1.3902    0.1923 H   0  0  0  0  0  0  0  0  0  0  0  0
    2.8789   -0.6635   -0.1216 C   0  0  0  0  0  0  0  0  0  0  0  0
    4.2863   -1.2595    0.0568 C   0  0  0  0  0  0  0  0  0  0  0  0
    5.3419   -0.1802    0.3531 C   0  0  0  0  0  0  0  0  0  0  0  0
    5.1173    0.3712    1.2882 H   0  0  0  0  0  0  0  0  0  0  0  0
    5.4210    0.5569   -0.4711 H   0  0  0  0  0  0  0  0  0  0  0  0
    6.3375   -0.6523    0.4750 H   0  0  0  0  0  0  0  0  0  0  0  0
    4.6949   -1.9971   -1.2387 C   0  0  0  0  0  0  0  0  0  0  0  0
    4.7149   -1.2999   -2.1005 H   0  0  0  0  0  0  0  0  0  0  0  0
    3.9909   -2.8168   -1.4850 H   0  0  0  0  0  0  0  0  0  0  0  0
    5.7058   -2.4425   -1.1310 H   0  0  0  0  0  0  0  0  0  0  0  0
    4.2696   -2.2596    1.2354 C   0  0  0  0  0  0  0  0  0  0  0  0
    3.5527   -3.0870    1.0627 H   0  0  0  0  0  0  0  0  0  0  0  0
    3.9805   -1.7536    2.1787 H   0  0  0  0  0  0  0  0  0  0  0  0
    5.2740   -2.7095    1.3789 H   0  0  0  0  0  0  0  0  0  0  0  0
    1.7866   -1.5072   -0.3953 C   0  0  0  0  0  0  0  0  0  0  0  0
    1.9341   -2.5954   -0.4867 H   0  0  0  0  0  0  0  0  0  0  0  0
    0.4905   -1.0026   -0.5607 C   0  0  0  0  0  0  0  0  0  0  0  0
   -0.6527   -1.9210   -0.9061 C   0  0  0  0  0  0  0  0  0  0  0  0
   -1.0126   -1.6839   -1.9314 H   0  0  0  0  0  0  0  0  0  0  0  0
   -0.2881   -2.9773   -0.9334 H   0  0  0  0  0  0  0  0  0  0  0  0
   -1.5217   -2.0289    1.4041 C   0  0  0  0  0  0  0  0  0  0  0  0
   -0.5011   -1.6401    1.5966 H   0  0  0  0  0  0  0  0  0  0  0  0
   -1.5231   -3.1136    1.6753 H   0  0  0  0  0  0  0  0  0  0  0  0
   -2.5248   -1.2470    2.2584 C   0  0  0  0  0  0  0  0  0  0  0  0
   -3.5109   -1.7687    2.3019 H   0  0  0  0  0  0  0  0  0  0  0  0
   -2.1579   -1.1845    3.3082 H   0  0  0  0  0  0  0  0  0  0  0  0
   -3.0040   -2.4573   -0.5299 C   0  0  0  0  0  0  0  0  0  0  0  0
   -3.7204   -2.5955    0.3046 H   0  0  0  0  0  0  0  0  0  0  0  0
   -2.7784   -3.4706   -0.9445 H   0  0  0  0  0  0  0  0  0  0  0  0
   -3.6571   -1.5558   -1.5817 C   0  0  0  0  0  0  0  0  0  0  0  0
   -3.0501   -1.5433   -2.5194 H   0  0  0  0  0  0  0  0  0  0  0  0
   -4.6589   -1.9565   -1.8595 H   0  0  0  0  0  0  0  0  0  0  0  0
  1  5  1  0  0  0  0
  2 45  1  0  0  0  0
  4 42  1  0  0  0  0
  5  6  1  0  0  0  0
  6  7  1  0  0  0  0
  6 20  2  0  0  0  0
  7 16  1  0  0  0  0
  7  8  1  0  0  0  0
  8 11  1  0  0  0  0
  8  9  1  0  0  0  0
 10  8  1  0  0  0  0
 12 15  1  0  0  0  0
 12  7  1  0  0  0  0
 13 12  1  0  0  0  0
 14 12  1  0  0  0  0
 16 19  1  0  0  0  0
 16 18  1  0  0  0  0
 17 16  1  0  0  0  0
 20 21  1  0  0  0  0
 22 20  1  0  0  0  0
 22 23  1  0  0  0  0
 23 24  1  0  0  0  0
 23 32  1  0  0  0  0
 24 27  1  0  0  0  0
 24 25  1  0  0  0  0
 26 24  1  0  0  0  0
 28 31  1  0  0  0  0
 28 23  1  0  0  0  0
 29 28  1  0  0  0  0
 30 28  1  0  0  0  0
 32 35  1  0  0  0  0
 32 34  1  0  0  0  0
 33 32  1  0  0  0  0
 36 22  2  0  0  0  0
 37 36  1  0  0  0  0
 38  5  2  0  0  0  0
 38 36  1  0  0  0  0
 39 38  1  0  0  0  0
 39  4  1  0  0  0  0
 40 39  1  0  0  0  0
 41 39  1  0  0  0  0
 42 43  1  0  0  0  0
 42 44  1  0  0  0  0
 42 45  1  0  0  0  0
 45 46  1  0  0  0  0
 45 47  1  0  0  0  0
 48  4  1  0  0  0  0
 48 49  1  0  0  0  0
 50 48  1  0  0  0  0
 51  3  1  0  0  0  0
 51 48  1  0  0  0  0
 52 51  1  0  0  0  0
 53 51  1  0  0  0  0
M  CHG  1   1  -1
M  END
