1,2,9,10
 OpenBabel05122313063D

 19 18  0  0  0  0  0  0  0  0999 V2000
    0.5019    1.9373    0.1722 O   0  5  0  0  0  0  0  0  0  0  0  0
    1.5125   -0.0499    1.7856 O   0  5  0  0  0  0  0  0  0  0  0  0
    1.2444   -3.5384   -1.1061 O   0  5  0  0  0  0  0  0  0  0  0  0
    1.9528   -1.2817   -1.5803 C   0  0  0  0  0  0  0  0  0  0  0  0
    2.9565   -1.6730   -1.8437 H   0  0  0  0  0  0  0  0  0  0  0  0
    1.4164   -1.1095   -2.5368 H   0  0  0  0  0  0  0  0  0  0  0  0
    1.4216    3.5525   -1.1115 O   0  0  0  0  0  0  0  0  0  0  0  0
    3.6539   -0.2404    2.4439 O   0  0  0  0  0  0  0  0  0  0  0  0
    2.0356    0.0022   -0.8406 N   0  0  0  0  0  0  0  0  0  0  0  0
    0.3734   -1.8726    0.1430 O   0  0  0  0  0  0  0  0  0  0  0  0
    1.2676    2.3808   -0.8023 C   0  0  0  0  0  0  0  0  0  0  0  0
    3.2006    0.0458    0.0988 C   0  0  0  0  0  0  0  0  0  0  0  0
    3.7058    1.0274    0.0054 H   0  0  0  0  0  0  0  0  0  0  0  0
    3.9406   -0.7329   -0.1707 H   0  0  0  0  0  0  0  0  0  0  0  0
    1.1591   -2.3619   -0.7905 C   0  0  0  0  0  0  0  0  0  0  0  0
    2.8036   -0.1143    1.5773 C   0  0  0  0  0  0  0  0  0  0  0  0
    1.9357    1.2492   -1.6369 C   0  0  0  0  0  0  0  0  0  0  0  0
    1.2947    1.0591   -2.5229 H   0  0  0  0  0  0  0  0  0  0  0  0
    2.9228    1.5851   -2.0162 H   0  0  0  0  0  0  0  0  0  0  0  0
  3 15  1  0  0  0  0
  4  9  1  0  0  0  0
  4 15  1  0  0  0  0
  5  4  1  0  0  0  0
  6  4  1  0  0  0  0
  7 11  2  0  0  0  0
  9 12  1  0  0  0  0
 11  1  1  0  0  0  0
 12 16  1  0  0  0  0
 13 12  1  0  0  0  0
 14 12  1  0  0  0  0
 15 10  2  0  0  0  0
 16  2  1  0  0  0  0
 16  8  2  0  0  0  0
 17  9  1  0  0  0  0
 17 11  1  0  0  0  0
 18 17  1  0  0  0  0
 19 17  1  0  0  0  0
M  CHG  3   1  -1   2  -1   3  -1
M  END
