1,2,12,13
 OpenBabel05122313063D

 31 30  0  0  1  0  0  0  0  0999 V2000
    1.6463   -0.5923    0.8289 O   0  0  0  0  0  1  0  0  0  0  0  0
    0.0002    0.0003   -1.2352 N   0  0  0  0  0  0  0  0  0  0  0  0
    1.1983   -0.7800   -1.5331 C   0  0  0  0  0  0  0  0  0  0  0  0
    2.2585   -0.5434   -0.4416 C   0  0  2  0  0  0  0  0  0  0  0  0
    3.3950   -1.5595   -0.5082 C   0  0  0  0  0  0  0  0  0  0  0  0
    1.6132   -0.5641   -2.5478 H   0  0  0  0  0  0  0  0  0  0  0  0
    0.9219   -1.8546   -1.5157 H   0  0  0  0  0  0  0  0  0  0  0  0
    2.6901    0.4798   -0.5770 H   0  0  0  0  0  0  0  0  0  0  0  0
    4.1391   -1.3523    0.2842 H   0  0  0  0  0  0  0  0  0  0  0  0
    3.0014   -2.5844   -0.3518 H   0  0  0  0  0  0  0  0  0  0  0  0
    3.9059   -1.5200   -1.4917 H   0  0  0  0  0  0  0  0  0  0  0  0
   -1.3354   -1.1297    0.8284 O   0  0  0  0  0  1  0  0  0  0  0  0
   -0.3112    1.7204    0.8296 O   0  0  0  0  0  1  0  0  0  0  0  0
   -1.2741   -0.6476   -1.5341 C   0  0  0  0  0  0  0  0  0  0  0  0
    0.0765    1.4281   -1.5329 C   0  0  0  0  0  0  0  0  0  0  0  0
   -1.6010   -1.6834   -0.4421 C   0  0  2  0  0  0  0  0  0  0  0  0
   -0.6583    2.2276   -0.4408 C   0  0  2  0  0  0  0  0  0  0  0  0
   -1.2927   -1.1162   -2.5482 H   0  0  0  0  0  0  0  0  0  0  0  0
   -2.0670    0.1283   -1.5195 H   0  0  0  0  0  0  0  0  0  0  0  0
   -0.3188    1.6794   -2.5473 H   0  0  0  0  0  0  0  0  0  0  0  0
    1.1451    1.7269   -1.5166 H   0  0  0  0  0  0  0  0  0  0  0  0
   -3.0504   -2.1564   -0.5076 C   0  0  0  0  0  0  0  0  0  0  0  0
   -0.9331   -2.5705   -0.5781 H   0  0  0  0  0  0  0  0  0  0  0  0
   -0.3450    3.7197   -0.5061 C   0  0  0  0  0  0  0  0  0  0  0  0
   -1.7603    2.0913   -0.5772 H   0  0  0  0  0  0  0  0  0  0  0  0
   -3.2439   -2.9043    0.2846 H   0  0  0  0  0  0  0  0  0  0  0  0
   -3.7389   -1.3015   -0.3501 H   0  0  0  0  0  0  0  0  0  0  0  0
   -3.2738   -2.6177   -1.4912 H   0  0  0  0  0  0  0  0  0  0  0  0
   -0.8965    4.2605    0.2862 H   0  0  0  0  0  0  0  0  0  0  0  0
    0.7394    3.8898   -0.3487 H   0  0  0  0  0  0  0  0  0  0  0  0
   -0.6333    4.1435   -1.4896 H   0  0  0  0  0  0  0  0  0  0  0  0
  3  7  1  0  0  0  0
  3  2  1  0  0  0  0
  3  4  1  0  0  0  0
  4  8  1  6  0  0  0
  4  1  1  0  0  0  0
  5  4  1  0  0  0  0
  5 10  1  0  0  0  0
  5  9  1  0  0  0  0
  6  3  1  0  0  0  0
 11  5  1  0  0  0  0
 14 19  1  0  0  0  0
 14  2  1  0  0  0  0
 14 16  1  0  0  0  0
 15 21  1  0  0  0  0
 15  2  1  0  0  0  0
 15 17  1  0  0  0  0
 16 23  1  6  0  0  0
 16 12  1  0  0  0  0
 17 25  1  6  0  0  0
 17 13  1  0  0  0  0
 18 14  1  0  0  0  0
 20 15  1  0  0  0  0
 22 16  1  0  0  0  0
 22 27  1  0  0  0  0
 22 26  1  0  0  0  0
 24 17  1  0  0  0  0
 24 30  1  0  0  0  0
 24 29  1  0  0  0  0
 28 22  1  0  0  0  0
 31 24  1  0  0  0  0
M  END
