1,2,3,4
q = -3.0, confidence = 0.416

 28 27  0  0  1  0  0  0  0  0999 V2000
   -1.7518    0.6243   -1.3420 O   0  0  0  0  0  1  0  0  0  0  0  0
   -1.5147    0.1299    1.6299 O   0  0  0  0  0  1  0  0  0  0  0  0
   -0.1954   -1.7754   -0.3405 O   0  0  0  0  0  1  0  0  0  0  0  0
    0.5982    0.7866    0.0426 N   0  0  0  0  0  0  0  0  0  0  0  0
   -0.9767    1.7752   -1.5392 C   0  0  0  0  0  0  0  0  0  0  0  0
    0.5005    1.5003   -1.2302 C   0  0  0  0  0  0  0  0  0  0  0  0
   -0.4355    0.7690    2.2557 C   0  0  0  0  0  0  0  0  0  0  0  0
    0.3820    1.5873    1.2462 C   0  0  0  0  0  0  0  0  0  0  0  0
    1.1424   -1.4832   -0.6344 C   0  0  0  0  0  0  0  0  0  0  0  0
    1.6363   -0.2539    0.1507 C   0  0  1  0  0  0  0  0  0  0  0  0
    3.0534    0.2118   -0.2221 C   0  0  0  0  0  0  0  0  0  0  0  0
    4.1509   -0.8008    0.1135 C   0  0  0  0  0  0  0  0  0  0  0  0
   -1.3639    2.6040   -0.8976 H   0  0  0  0  0  0  0  0  0  0  0  0
   -1.0814    2.1204   -2.5937 H   0  0  0  0  0  0  0  0  0  0  0  0
    1.0972    2.4442   -1.2574 H   0  0  0  0  0  0  0  0  0  0  0  0
    0.9020    0.8386   -2.0238 H   0  0  0  0  0  0  0  0  0  0  0  0
    0.2114    0.0076    2.7555 H   0  0  0  0  0  0  0  0  0  0  0  0
   -0.8138    1.4367    3.0640 H   0  0  0  0  0  0  0  0  0  0  0  0
    1.3328    1.9543    1.7049 H   0  0  0  0  0  0  0  0  0  0  0  0
   -0.2037    2.4841    0.9596 H   0  0  0  0  0  0  0  0  0  0  0  0
    1.7695   -2.3692   -0.3876 H   0  0  0  0  0  0  0  0  0  0  0  0
    1.2631   -1.3084   -1.7326 H   0  0  0  0  0  0  0  0  0  0  0  0
    1.6458   -0.5555    1.2211 H   0  0  0  0  0  0  0  0  0  0  0  0
    3.0891    0.4590   -1.3053 H   0  0  0  0  0  0  0  0  0  0  0  0
    3.2524    1.1652    0.3141 H   0  0  0  0  0  0  0  0  0  0  0  0
    4.0520   -1.7335   -0.4774 H   0  0  0  0  0  0  0  0  0  0  0  0
    5.1565   -0.3854   -0.0963 H   0  0  0  0  0  0  0  0  0  0  0  0
    4.1239   -1.0838    1.1865 H   0  0  0  0  0  0  0  0  0  0  0  0
  2  7  1  0  0  0  0
  4 10  1  0  0  0  0
  4  8  1  0  0  0  0
  5  1  1  0  0  0  0
  5  6  1  0  0  0  0
  5 13  1  0  0  0  0
  6  4  1  0  0  0  0
  7 17  1  0  0  0  0
  7 18  1  0  0  0  0
  8 19  1  0  0  0  0
  8  7  1  0  0  0  0
  9 21  1  0  0  0  0
  9  3  1  0  0  0  0
  9 10  1  0  0  0  0
 10 23  1  1  0  0  0
 11 12  1  0  0  0  0
 11 10  1  0  0  0  0
 11 25  1  0  0  0  0
 12 28  1  0  0  0  0
 14  5  1  0  0  0  0
 15  6  1  0  0  0  0
 16  6  1  0  0  0  0
 20  8  1  0  0  0  0
 22  9  1  0  0  0  0
 24 11  1  0  0  0  0
 26 12  1  0  0  0  0
 27 12  1  0  0  0  0
M  END
