1,67,68,69,71
q = 0.0, confidence = 0.904

 74 77  0  0  1  0  0  0  0  0999 V2000
    0.6902    1.0108    0.9189 S   0  0  0  0  0  0  0  0  0  0  0  0
   -1.8911   -2.9703   -0.9727 C   0  0  0  0  0  3  0  0  0  0  0  0
   -0.8999   -3.3686   -0.7120 H   0  0  0  0  0  0  0  0  0  0  0  0
   -2.8981   -3.7505   -1.5507 C   0  0  0  0  0  0  0  0  0  0  0  0
   -2.6946   -4.8056   -1.7820 H   0  0  0  0  0  0  0  0  0  0  0  0
   -4.1507   -3.1774   -1.8241 C   0  0  0  0  0  0  0  0  0  0  0  0
   -4.9525   -3.7749   -2.2817 H   0  0  0  0  0  0  0  0  0  0  0  0
   -4.3638   -1.8248   -1.5097 C   0  0  0  0  0  0  0  0  0  0  0  0
   -5.3260   -1.3329   -1.7126 H   0  0  0  0  0  0  0  0  0  0  0  0
   -3.3135   -1.1060   -0.9360 C   0  0  0  0  0  0  0  0  0  0  0  0
   -3.3411    0.3426   -0.4938 C   0  0  1  0  0  0  0  0  0  0  0  0
   -4.1907    0.9069   -0.9337 H   0  0  0  0  0  0  0  0  0  0  0  0
   -3.3792    0.3171    1.0154 C   0  0  1  0  0  3  0  0  0  0  0  0
   -4.4762    0.6322    1.8194 C   0  0  0  0  0  0  0  0  0  0  0  0
   -5.4003    1.0140    1.3619 H   0  0  0  0  0  0  0  0  0  0  0  0
   -4.3678    0.4448    3.2064 C   0  0  0  0  0  0  0  0  0  0  0  0
   -5.2094    0.6870    3.8712 H   0  0  0  0  0  0  0  0  0  0  0  0
   -3.1679   -0.0721    3.7225 C   0  0  0  0  0  0  0  0  0  0  0  0
   -3.0489   -0.2632    4.7985 H   0  0  0  0  0  0  0  0  0  0  0  0
   -2.1075   -0.3597    2.8586 C   0  0  0  0  0  0  0  0  0  0  0  0
   -1.1638   -0.8075    3.2027 H   0  0  0  0  0  0  0  0  0  0  0  0
   -1.8586    2.3289   -0.4259 C   0  0  0  0  0  0  0  0  0  0  0  0
   -2.0530    2.3476    0.6647 H   0  0  0  0  0  0  0  0  0  0  0  0
   -2.6553    2.9355   -0.9108 H   0  0  0  0  0  0  0  0  0  0  0  0
   -0.5133    2.9254   -0.7575 C   0  0  0  0  0  0  0  0  0  0  0  0
   -0.4214    3.9877   -1.6755 C   0  0  0  0  0  0  0  0  0  0  0  0
   -1.3440    4.3919   -2.1215 H   0  0  0  0  0  0  0  0  0  0  0  0
    0.8212    4.5336   -2.0332 C   0  0  0  0  0  0  0  0  0  0  0  0
    0.8663    5.3635   -2.7537 H   0  0  0  0  0  0  0  0  0  0  0  0
    2.0002    4.0131   -1.4817 C   0  0  0  0  0  0  0  0  0  0  0  0
    2.9791    4.4257   -1.7669 H   0  0  0  0  0  0  0  0  0  0  0  0
    1.9333    2.9546   -0.5619 C   0  0  0  0  0  0  0  0  0  0  0  0
    2.8508    2.5299   -0.1271 H   0  0  0  0  0  0  0  0  0  0  0  0
    0.6842    2.4289   -0.1890 C   0  0  0  0  0  0  0  0  0  0  0  0
    0.3327    1.8052    2.5430 C   0  0  0  0  0  0  0  0  0  0  0  0
   -0.6994    2.2056    2.5695 H   0  0  0  0  0  0  0  0  0  0  0  0
    0.4000    0.9606    3.2557 H   0  0  0  0  0  0  0  0  0  0  0  0
    1.3442    2.9057    2.8935 C   0  0  0  0  0  0  0  0  0  0  0  0
    1.2010    3.7879    2.2338 H   0  0  0  0  0  0  0  0  0  0  0  0
    1.1564    3.2530    3.9320 H   0  0  0  0  0  0  0  0  0  0  0  0
    2.7350    2.4673    2.7732 C   0  0  0  0  0  0  0  0  0  0  0  0
   -1.6926    0.7547   -2.3159 C   0  0  0  0  0  0  0  0  0  0  0  0
   -1.9384    1.6798   -2.8767 H   0  0  0  0  0  0  0  0  0  0  0  0
   -2.3424   -0.0464   -2.7221 H   0  0  0  0  0  0  0  0  0  0  0  0
   -0.2532    0.3717   -2.5264 C   0  0  2  0  0  3  0  0  0  0  0  0
    0.3964    0.7325   -3.7029 C   0  0  0  0  0  0  0  0  0  0  0  0
   -0.1290    1.3353   -4.4564 H   0  0  0  0  0  0  0  0  0  0  0  0
    1.7230    0.3104   -3.8877 C   0  0  0  0  0  0  0  0  0  0  0  0
    2.2708    0.5633   -4.8073 H   0  0  0  0  0  0  0  0  0  0  0  0
    2.3473   -0.4225   -2.8892 C   0  0  0  0  0  0  0  0  0  0  0  0
    3.3894   -0.7523   -2.9598 H   0  0  0  0  0  0  0  0  0  0  0  0
    1.6446   -0.7343   -1.6918 C   0  0  0  0  0  0  0  0  0  0  0  0
    3.6321   -1.6776   -0.5106 C   0  0  0  0  0  0  0  0  0  0  0  0
    4.0260   -2.3739    0.8074 C   0  0  0  0  0  0  0  0  0  0  0  0
    3.3122   -3.7421    0.8935 C   0  0  0  0  0  0  0  0  0  0  0  0
    2.2106   -3.6400    0.9432 H   0  0  0  0  0  0  0  0  0  0  0  0
    3.6382   -4.2677    1.8136 H   0  0  0  0  0  0  0  0  0  0  0  0
    3.5733   -4.3833    0.0274 H   0  0  0  0  0  0  0  0  0  0  0  0
    5.5476   -2.5832    0.7897 C   0  0  0  0  0  0  0  0  0  0  0  0
    5.8598   -3.2035   -0.0721 H   0  0  0  0  0  0  0  0  0  0  0  0
    5.8622   -3.0910    1.7226 H   0  0  0  0  0  0  0  0  0  0  0  0
    6.0844   -1.6181    0.7170 H   0  0  0  0  0  0  0  0  0  0  0  0
    3.6409   -1.4811    2.0087 C   0  0  0  0  0  0  0  0  0  0  0  0
    4.1142   -0.4810    1.9437 H   0  0  0  0  0  0  0  0  0  0  0  0
    3.9932   -1.9612    2.9442 H   0  0  0  0  0  0  0  0  0  0  0  0
    2.5448   -1.3502    2.0976 H   0  0  0  0  0  0  0  0  0  0  0  0
   -2.1016   -1.6695   -0.6688 N   0  0  0  0  0  2  0  0  0  0  0  0
   -2.1981   -0.1496    1.5210 N   0  0  0  0  0  2  0  0  0  0  0  0
   -1.9926    0.9088   -0.8685 N   0  0  0  0  0  0  0  0  0  0  0  0
    3.8347    2.0930    2.6282 N   0  0  0  0  0  0  0  0  0  0  0  0
    0.3317   -0.3572   -1.5268 N   0  0  0  0  0  2  0  0  0  0  0  0
    2.2539   -1.4033   -0.6537 N   0  0  0  0  0  0  0  0  0  0  0  0
    1.6272   -1.6628    0.1359 H   0  0  0  0  0  0  0  0  0  0  0  0
    4.4516   -1.3826   -1.3705 O   0  0  0  0  0  0  0  0  0  0  0  0
  1 35  1  0  0  0  0
  2  3  1  0  0  0  0
  2 67  1  0  0  0  0
  4  2  1  0  0  0  0
  5  4  1  0  0  0  0
  6  4  2  0  0  0  0
  6  8  1  0  0  0  0
  7  6  1  0  0  0  0
  8 10  2  0  0  0  0
  9  8  1  0  0  0  0
 10 67  1  0  0  0  0
 10 11  1  0  0  0  0
 11 12  1  6  0  0  0
 13 11  1  6  0  0  0
 13 68  1  0  0  0  0
 13 14  1  0  0  0  0
 14 16  2  0  0  0  0
 15 14  1  0  0  0  0
 16 18  1  0  0  0  0
 16 17  1  0  0  0  0
 18 19  1  0  0  0  0
 20 21  1  0  0  0  0
 20 18  2  0  0  0  0
 22 23  1  0  0  0  0
 24 22  1  0  0  0  0
 25 22  1  0  0  0  0
 25 34  1  0  0  0  0
 26 25  2  0  0  0  0
 27 26  1  0  0  0  0
 28 26  1  0  0  0  0
 28 30  2  0  0  0  0
 29 28  1  0  0  0  0
 30 32  1  0  0  0  0
 31 30  1  0  0  0  0
 32 34  2  0  0  0  0
 32 33  1  0  0  0  0
 34  1  1  0  0  0  0
 35 36  1  0  0  0  0
 35 38  1  0  0  0  0
 35 37  1  0  0  0  0
 38 40  1  0  0  0  0
 39 38  1  0  0  0  0
 41 38  1  0  0  0  0
 42 69  1  0  0  0  0
 43 42  1  0  0  0  0
 44 42  1  0  0  0  0
 45 42  1  6  0  0  0
 45 71  1  0  0  0  0
 46 45  1  0  0  0  0
 47 46  1  0  0  0  0
 48 46  2  0  0  0  0
 48 50  1  0  0  0  0
 49 48  1  0  0  0  0
 50 52  2  0  0  0  0
 51 50  1  0  0  0  0
 52 71  1  0  0  0  0
 52 72  1  0  0  0  0
 53 54  1  0  0  0  0
 54 55  1  0  0  0  0
 54 63  1  0  0  0  0
 55 56  1  0  0  0  0
 55 57  1  0  0  0  0
 58 55  1  0  0  0  0
 59 54  1  0  0  0  0
 59 61  1  0  0  0  0
 60 59  1  0  0  0  0
 62 59  1  0  0  0  0
 63 66  1  0  0  0  0
 63 65  1  0  0  0  0
 64 63  1  0  0  0  0
 68 20  1  0  0  0  0
 69 11  1  0  0  0  0
 69 22  1  0  0  0  0
 70 41  3  0  0  0  0
 72 53  1  0  0  0  0
 72 73  1  0  0  0  0
 74 53  2  0  0  0  0
M  END
