1,2,3,5,7
 OpenBabel05122313063D

 47 47  0  0  0  0  0  0  0  0999 V2000
    0.0415   -0.3706    2.0796 S   0  0  0  0  0  1  0  0  0  0  0  0
   -1.6328   -0.6117   -0.6209 N   0  0  0  0  0  0  0  0  0  0  0  0
   -0.3848    1.9700   -0.0882 N   0  0  0  0  0  0  0  0  0  0  0  0
   -1.2559    2.1456    0.4348 H   0  0  0  0  0  0  0  0  0  0  0  0
    2.0585    0.8265    0.3396 N   0  0  0  0  0  0  0  0  0  0  0  0
    2.0301    0.7057    1.3731 H   0  0  0  0  0  0  0  0  0  0  0  0
    0.8457   -1.8420   -0.3420 N   0  0  0  0  0  0  0  0  0  0  0  0
    0.7048   -2.1800    0.6341 H   0  0  0  0  0  0  0  0  0  0  0  0
   -1.6722    0.0865    2.5329 C   0  0  0  0  0  0  0  0  0  0  0  0
   -1.7851   -0.1614    3.6087 H   0  0  0  0  0  0  0  0  0  0  0  0
   -1.8141    1.1890    2.4564 H   0  0  0  0  0  0  0  0  0  0  0  0
   -2.7348   -0.6471    1.7190 C   0  0  0  0  0  0  0  0  0  0  0  0
   -2.6044   -1.7415    1.8521 H   0  0  0  0  0  0  0  0  0  0  0  0
   -3.7388   -0.4154    2.1377 H   0  0  0  0  0  0  0  0  0  0  0  0
   -2.8104   -0.2700    0.2387 C   0  0  0  0  0  0  0  0  0  0  0  0
   -2.9672    0.8238    0.1696 H   0  0  0  0  0  0  0  0  0  0  0  0
   -3.7144   -0.7372   -0.2178 H   0  0  0  0  0  0  0  0  0  0  0  0
   -1.8159   -0.0160   -1.9806 C   0  0  0  0  0  0  0  0  0  0  0  0
   -2.7363   -0.4383   -2.4488 H   0  0  0  0  0  0  0  0  0  0  0  0
   -0.9646   -0.3626   -2.6064 H   0  0  0  0  0  0  0  0  0  0  0  0
   -1.8787    1.5137   -2.0401 C   0  0  0  0  0  0  0  0  0  0  0  0
   -2.0155    1.7889   -3.1056 H   0  0  0  0  0  0  0  0  0  0  0  0
   -2.7855    1.8984   -1.5274 H   0  0  0  0  0  0  0  0  0  0  0  0
   -0.6409    2.2449   -1.5230 C   0  0  0  0  0  0  0  0  0  0  0  0
    0.2572    1.9160   -2.0956 H   0  0  0  0  0  0  0  0  0  0  0  0
   -0.7403    3.3394   -1.7063 H   0  0  0  0  0  0  0  0  0  0  0  0
    0.6795    2.8104    0.5186 C   0  0  0  0  0  0  0  0  0  0  0  0
    0.5627    3.8856    0.2584 H   0  0  0  0  0  0  0  0  0  0  0  0
    0.5810    2.7017    1.6180 H   0  0  0  0  0  0  0  0  0  0  0  0
    2.0350    2.2825    0.0762 C   0  0  0  0  0  0  0  0  0  0  0  0
    2.8554    2.8174    0.6043 H   0  0  0  0  0  0  0  0  0  0  0  0
    2.1988    2.4453   -1.0104 H   0  0  0  0  0  0  0  0  0  0  0  0
    3.2723    0.1615   -0.1749 C   0  0  0  0  0  0  0  0  0  0  0  0
    4.1794    0.6183    0.2818 H   0  0  0  0  0  0  0  0  0  0  0  0
    3.3321    0.3583   -1.2677 H   0  0  0  0  0  0  0  0  0  0  0  0
    3.2569   -1.3428    0.0844 C   0  0  0  0  0  0  0  0  0  0  0  0
    3.0959   -1.5420    1.1674 H   0  0  0  0  0  0  0  0  0  0  0  0
    4.2648   -1.7423   -0.1476 H   0  0  0  0  0  0  0  0  0  0  0  0
    2.2391   -2.1170   -0.7488 C   0  0  0  0  0  0  0  0  0  0  0  0
    2.3402   -1.8389   -1.8206 H   0  0  0  0  0  0  0  0  0  0  0  0
    2.4439   -3.2094   -0.6833 H   0  0  0  0  0  0  0  0  0  0  0  0
   -0.1462   -2.5119   -1.2067 C   0  0  0  0  0  0  0  0  0  0  0  0
    0.0476   -2.2109   -2.2585 H   0  0  0  0  0  0  0  0  0  0  0  0
   -0.0520   -3.6211   -1.1767 H   0  0  0  0  0  0  0  0  0  0  0  0
   -1.5295   -2.0972   -0.7389 C   0  0  0  0  0  0  0  0  0  0  0  0
   -1.6985   -2.5163    0.2709 H   0  0  0  0  0  0  0  0  0  0  0  0
   -2.3225   -2.5007   -1.4077 H   0  0  0  0  0  0  0  0  0  0  0  0
  1  9  1  0  0  0  0
  2 15  1  0  0  0  0
  3  4  1  0  0  0  0
  3 27  1  0  0  0  0
  5  6  1  0  0  0  0
  7  8  1  0  0  0  0
  9 10  1  0  0  0  0
 11  9  1  0  0  0  0
 12 13  1  0  0  0  0
 12 14  1  0  0  0  0
 12  9  1  0  0  0  0
 15 12  1  0  0  0  0
 16 15  1  0  0  0  0
 17 15  1  0  0  0  0
 18  2  1  0  0  0  0
 19 18  1  0  0  0  0
 20 18  1  0  0  0  0
 21 18  1  0  0  0  0
 21 23  1  0  0  0  0
 21 24  1  0  0  0  0
 22 21  1  0  0  0  0
 24  3  1  0  0  0  0
 25 24  1  0  0  0  0
 26 24  1  0  0  0  0
 27 29  1  0  0  0  0
 28 27  1  0  0  0  0
 30  5  1  0  0  0  0
 30 27  1  0  0  0  0
 30 31  1  0  0  0  0
 32 30  1  0  0  0  0
 33 36  1  0  0  0  0
 33 34  1  0  0  0  0
 33  5  1  0  0  0  0
 35 33  1  0  0  0  0
 36 37  1  0  0  0  0
 38 36  1  0  0  0  0
 39 41  1  0  0  0  0
 39  7  1  0  0  0  0
 39 36  1  0  0  0  0
 40 39  1  0  0  0  0
 42 44  1  0  0  0  0
 42 45  1  0  0  0  0
 42  7  1  0  0  0  0
 43 42  1  0  0  0  0
 45  2  1  0  0  0  0
 45 46  1  0  0  0  0
 47 45  1  0  0  0  0
M  END
