1,11,18,28,41
q = -1.0, confidence = 0.0

 53 53  0  0  0  0  0  0  0  0999 V2000
   -1.4383   -1.2021   -0.3205 N   0  0  0  0  0  0  0  0  0  0  0  0
   -2.1177   -0.8687   -1.6152 C   0  0  0  0  0  0  0  0  0  0  0  0
   -2.8673   -1.6698   -1.8061 H   0  0  0  0  0  0  0  0  0  0  0  0
   -1.3542   -0.9507   -2.4132 H   0  0  0  0  0  0  0  0  0  0  0  0
   -2.8096    0.4827   -1.7407 C   0  0  0  0  0  0  0  0  0  0  0  0
   -3.6278    0.5854   -0.9997 H   0  0  0  0  0  0  0  0  0  0  0  0
   -3.3241    0.4782   -2.7236 H   0  0  0  0  0  0  0  0  0  0  0  0
   -1.8840    1.6931   -1.7134 C   0  0  0  0  0  0  0  0  0  0  0  0
   -1.1364    1.6027   -2.5291 H   0  0  0  0  0  0  0  0  0  0  0  0
   -2.4753    2.6195   -1.9133 H   0  0  0  0  0  0  0  0  0  0  0  0
   -1.1389    1.8203   -0.4474 N   0  0  0  0  0  0  0  0  0  0  0  0
   -0.0862    2.8446   -0.5476 C   0  0  0  0  0  0  0  0  0  0  0  0
   -0.5115    3.8732   -0.4718 H   0  0  0  0  0  0  0  0  0  0  0  0
    0.3826    2.7740   -1.5485 H   0  0  0  0  0  0  0  0  0  0  0  0
    0.9309    2.6332    0.5529 C   0  0  0  0  0  0  0  0  0  0  0  0
    1.7117    3.4259    0.5285 H   0  0  0  0  0  0  0  0  0  0  0  0
    0.4408    2.6822    1.5438 H   0  0  0  0  0  0  0  0  0  0  0  0
    1.5704    1.2872    0.4444 N   0  0  0  0  0  0  0  0  0  0  0  0
    2.5003    1.3165   -0.7326 C   0  0  0  0  0  0  0  0  0  0  0  0
    3.2118    2.1569   -0.5646 H   0  0  0  0  0  0  0  0  0  0  0  0
    1.8983    1.5781   -1.6244 H   0  0  0  0  0  0  0  0  0  0  0  0
    3.2948    0.0542   -1.0380 C   0  0  0  0  0  0  0  0  0  0  0  0
    4.0376    0.3271   -1.8153 H   0  0  0  0  0  0  0  0  0  0  0  0
    3.9030   -0.2580   -0.1653 H   0  0  0  0  0  0  0  0  0  0  0  0
    2.4636   -1.1008   -1.5831 C   0  0  0  0  0  0  0  0  0  0  0  0
    1.9573   -0.7768   -2.5163 H   0  0  0  0  0  0  0  0  0  0  0  0
    3.1323   -1.9532   -1.8544 H   0  0  0  0  0  0  0  0  0  0  0  0
    1.4149   -1.5454   -0.6466 N   0  0  0  0  0  0  0  0  0  0  0  0
    0.4599   -2.4469   -1.3121 C   0  0  0  0  0  0  0  0  0  0  0  0
    0.8942   -3.4645   -1.4577 H   0  0  0  0  0  0  0  0  0  0  0  0
    0.2492   -2.0478   -2.3240 H   0  0  0  0  0  0  0  0  0  0  0  0
   -0.8052   -2.5468   -0.4872 C   0  0  0  0  0  0  0  0  0  0  0  0
   -1.5301   -3.2499   -0.9534 H   0  0  0  0  0  0  0  0  0  0  0  0
   -0.5694   -2.9374    0.5185 H   0  0  0  0  0  0  0  0  0  0  0  0
   -2.4497   -1.2772    0.7906 C   0  0  0  0  0  0  0  0  0  0  0  0
   -3.1892   -2.0743    0.5401 H   0  0  0  0  0  0  0  0  0  0  0  0
   -2.9904   -0.3171    0.8026 H   0  0  0  0  0  0  0  0  0  0  0  0
   -1.8007   -1.4984    2.1450 C   0  0  0  0  0  0  0  0  0  0  0  0
   -1.4995   -2.5579    2.2886 H   0  0  0  0  0  0  0  0  0  0  0  0
   -2.5464   -1.2820    2.9369 H   0  0  0  0  0  0  0  0  0  0  0  0
   -0.3518   -0.3903    2.3391 S   0  0  0  0  0  1  0  0  0  0  0  0
   -2.0405    2.1706    0.6724 C   0  0  0  0  0  0  0  0  0  0  0  0
   -2.3291    3.2449    0.6230 H   0  0  0  0  0  0  0  0  0  0  0  0
   -1.5629    1.9268    1.6413 H   0  0  0  0  0  0  0  0  0  0  0  0
   -2.9666    1.5750    0.6211 H   0  0  0  0  0  0  0  0  0  0  0  0
    2.3395    1.0657    1.6944 C   0  0  0  0  0  0  0  0  0  0  0  0
    3.1426    1.8288    1.7883 H   0  0  0  0  0  0  0  0  0  0  0  0
    2.7875    0.0609    1.7081 H   0  0  0  0  0  0  0  0  0  0  0  0
    1.6564    1.1416    2.5595 H   0  0  0  0  0  0  0  0  0  0  0  0
    2.0036   -2.2312    0.5245 C   0  0  0  0  0  0  0  0  0  0  0  0
    2.3169   -3.2665    0.2604 H   0  0  0  0  0  0  0  0  0  0  0  0
    1.2871   -2.2312    1.3702 H   0  0  0  0  0  0  0  0  0  0  0  0
    2.9003   -1.6907    0.8701 H   0  0  0  0  0  0  0  0  0  0  0  0
  1 35  1  0  0  0  0
  2  1  1  0  0  0  0
  3  2  1  0  0  0  0
  4  2  1  0  0  0  0
  5  8  1  0  0  0  0
  5  2  1  0  0  0  0
  5  6  1  0  0  0  0
  7  5  1  0  0  0  0
  8 11  1  0  0  0  0
  9  8  1  0  0  0  0
 10  8  1  0  0  0  0
 11 42  1  0  0  0  0
 12 13  1  0  0  0  0
 12 11  1  0  0  0  0
 12 15  1  0  0  0  0
 14 12  1  0  0  0  0
 15 17  1  0  0  0  0
 16 15  1  0  0  0  0
 18 15  1  0  0  0  0
 18 46  1  0  0  0  0
 19 20  1  0  0  0  0
 19 18  1  0  0  0  0
 21 19  1  0  0  0  0
 22 19  1  0  0  0  0
 22 24  1  0  0  0  0
 23 22  1  0  0  0  0
 25 22  1  0  0  0  0
 25 28  1  0  0  0  0
 26 25  1  0  0  0  0
 27 25  1  0  0  0  0
 28 50  1  0  0  0  0
 29 28  1  0  0  0  0
 29 32  1  0  0  0  0
 30 29  1  0  0  0  0
 31 29  1  0  0  0  0
 32  1  1  0  0  0  0
 32 34  1  0  0  0  0
 33 32  1  0  0  0  0
 35 37  1  0  0  0  0
 35 38  1  0  0  0  0
 36 35  1  0  0  0  0
 38 39  1  0  0  0  0
 38 41  1  0  0  0  0
 38 40  1  0  0  0  0
 42 44  1  0  0  0  0
 43 42  1  0  0  0  0
 45 42  1  0  0  0  0
 46 48  1  0  0  0  0
 46 47  1  0  0  0  0
 46 49  1  0  0  0  0
 50 53  1  0  0  0  0
 50 52  1  0  0  0  0
 51 50  1  0  0  0  0
M  END
