2,3,5,8,10
q = -2.0, confidence = 0.918

 74 79  0  0  1  0  0  0  0  0999 V2000
   -0.3822    2.6988   -0.5580 S   0  0  0  0  0  0  0  0  0  0  0  0
    0.5943    1.1430   -1.7037 S   0  0  0  0  0  0  0  0  0  0  0  0
   -0.0029   -2.1267   -1.0806 N   0  0  0  0  0  2  0  0  0  0  0  0
   -4.2378   -2.6751   -1.5669 N   0  0  0  0  0  0  0  0  0  0  0  0
   -1.7479   -0.2254   -0.7410 N   0  0  0  0  0  2  0  0  0  0  0  0
   -2.5149    0.7843   -0.4116 N   0  0  0  0  0  0  0  0  0  0  0  0
   -2.6066    2.9520    0.5744 N   0  0  0  0  0  2  0  0  0  0  0  0
   -0.3580   -0.8680    1.6425 N   0  0  0  0  0  2  0  0  0  0  0  0
    4.2697   -1.5504    1.3250 N   0  0  0  0  0  0  0  0  0  0  0  0
    1.7879   -0.1415    0.5031 N   0  0  0  0  0  2  0  0  0  0  0  0
    2.7625    0.4900   -0.1067 N   0  0  0  0  0  0  0  0  0  0  0  0
    3.1363    1.9085   -2.0096 N   0  0  0  0  0  2  0  0  0  0  0  0
    0.9956   -3.0117   -1.2229 C   0  0  0  0  0  3  0  0  0  0  0  0
    1.9787   -2.7035   -0.8250 H   0  0  0  0  0  0  0  0  0  0  0  0
    0.8044   -4.2567   -1.8332 C   0  0  0  0  0  0  0  0  0  0  0  0
    1.6439   -4.9590   -1.9323 H   0  0  0  0  0  0  0  0  0  0  0  0
   -0.4824   -4.5700   -2.3048 C   0  0  0  0  0  0  0  0  0  0  0  0
   -0.6764   -5.5380   -2.7910 H   0  0  0  0  0  0  0  0  0  0  0  0
   -1.5251   -3.6522   -2.1503 C   0  0  0  0  0  0  0  0  0  0  0  0
   -2.5480   -3.8802   -2.4710 H   0  0  0  0  0  0  0  0  0  0  0  0
   -1.2633   -2.4116   -1.5224 C   0  0  0  0  0  0  0  0  0  0  0  0
   -2.2436   -1.3393   -1.3173 C   0  0  1  0  0  3  0  0  0  0  0  0
   -3.6722   -1.4530   -1.6989 C   0  0  0  0  0  0  0  0  0  0  0  0
   -4.4102   -0.3413   -2.1755 C   0  0  0  0  0  0  0  0  0  0  0  0
   -3.9266    0.6358   -2.2914 H   0  0  0  0  0  0  0  0  0  0  0  0
   -5.7629   -0.5101   -2.4862 C   0  0  0  0  0  0  0  0  0  0  0  0
   -6.3526    0.3420   -2.8571 H   0  0  0  0  0  0  0  0  0  0  0  0
   -6.3514   -1.7728   -2.3182 C   0  0  0  0  0  0  0  0  0  0  0  0
   -7.4146   -1.9465   -2.5406 H   0  0  0  0  0  0  0  0  0  0  0  0
   -5.5349   -2.8214   -1.8675 C   0  0  0  0  0  0  0  0  0  0  0  0
   -5.9516   -3.8369   -1.7406 H   0  0  0  0  0  0  0  0  0  0  0  0
   -2.0164    1.9927   -0.0530 C   0  0  0  0  0  0  0  0  0  0  0  0
   -3.8777    2.9962    1.1283 C   0  0  0  0  0  0  0  0  0  0  0  0
   -4.8574    1.9693    1.0289 C   0  0  0  0  0  0  0  0  0  0  0  0
   -4.6161    1.0515    0.4776 H   0  0  0  0  0  0  0  0  0  0  0  0
   -6.1155    2.1365    1.6204 C   0  0  0  0  0  0  0  0  0  0  0  0
   -6.8630    1.3324    1.5292 H   0  0  0  0  0  0  0  0  0  0  0  0
   -6.4325    3.3101    2.3262 C   0  0  0  0  0  0  0  0  0  0  0  0
   -7.4235    3.4291    2.7898 H   0  0  0  0  0  0  0  0  0  0  0  0
   -5.4709    4.3299    2.4334 C   0  0  0  0  0  0  0  0  0  0  0  0
   -5.7063    5.2548    2.9822 H   0  0  0  0  0  0  0  0  0  0  0  0
   -4.2133    4.1770    1.8416 C   0  0  0  0  0  0  0  0  0  0  0  0
   -3.4477    4.9638    1.9081 H   0  0  0  0  0  0  0  0  0  0  0  0
   -1.5623   -1.1779    2.1668 C   0  0  0  0  0  3  0  0  0  0  0  0
   -2.4411   -0.8341    1.6008 H   0  0  0  0  0  0  0  0  0  0  0  0
   -1.6986   -1.8701    3.3712 C   0  0  0  0  0  0  0  0  0  0  0  0
   -2.7017   -2.0754    3.7692 H   0  0  0  0  0  0  0  0  0  0  0  0
   -0.5337   -2.2943    4.0419 C   0  0  0  0  0  0  0  0  0  0  0  0
   -0.6059   -2.8671    4.9783 H   0  0  0  0  0  0  0  0  0  0  0  0
    0.7159   -1.9847    3.5062 C   0  0  0  0  0  0  0  0  0  0  0  0
    1.6416   -2.3152    3.9964 H   0  0  0  0  0  0  0  0  0  0  0  0
    0.7978   -1.2382    2.3058 C   0  0  0  0  0  0  0  0  0  0  0  0
    2.0082   -0.7996    1.6624 C   0  0  2  0  0  3  0  0  0  0  0  0
    3.3775   -1.0089    2.1855 C   0  0  0  0  0  0  0  0  0  0  0  0
    3.7229   -0.6625    3.5106 C   0  0  0  0  0  0  0  0  0  0  0  0
    2.9770   -0.1975    4.1717 H   0  0  0  0  0  0  0  0  0  0  0  0
    5.0341   -0.8898    3.9494 C   0  0  0  0  0  0  0  0  0  0  0  0
    5.3329   -0.6197    4.9738 H   0  0  0  0  0  0  0  0  0  0  0  0
    5.9584   -1.4476    3.0560 C   0  0  0  0  0  0  0  0  0  0  0  0
    7.0003   -1.6377    3.3530 H   0  0  0  0  0  0  0  0  0  0  0  0
    5.5195   -1.7558    1.7556 C   0  0  0  0  0  0  0  0  0  0  0  0
    6.2207   -2.1960    1.0236 H   0  0  0  0  0  0  0  0  0  0  0  0
    2.4285    1.2025   -1.1998 C   0  0  0  0  0  0  0  0  0  0  0  0
    4.5234    2.0215   -1.9907 C   0  0  0  0  0  0  0  0  0  0  0  0
    5.0853    3.0024   -2.8487 C   0  0  0  0  0  0  0  0  0  0  0  0
    4.3927    3.6065   -3.4529 H   0  0  0  0  0  0  0  0  0  0  0  0
    7.3280    2.3958   -2.1362 C   0  0  0  0  0  0  0  0  0  0  0  0
    8.4178    2.5402   -2.1897 H   0  0  0  0  0  0  0  0  0  0  0  0
    6.4691    3.1917   -2.9144 C   0  0  0  0  0  0  0  0  0  0  0  0
    6.8843    3.9630   -3.5813 H   0  0  0  0  0  0  0  0  0  0  0  0
    6.7840    1.4112   -1.2927 C   0  0  0  0  0  0  0  0  0  0  0  0
    7.4520    0.7806   -0.6845 H   0  0  0  0  0  0  0  0  0  0  0  0
    5.3999    1.2200   -1.2083 C   0  0  0  0  0  0  0  0  0  0  0  0
    4.9770    0.4526   -0.5456 H   0  0  0  0  0  0  0  0  0  0  0  0
  1 32  1  0  0  0  0
  2 63  1  0  0  0  0
  2  1  1  0  0  0  0
  5  6  1  0  0  0  0
  6 32  2  0  0  0  0
  7 33  1  0  0  0  0
  8 44  1  0  0  0  0
  8 52  1  0  0  0  0
  9 61  2  0  0  0  0
  9 54  1  0  0  0  0
 11 10  1  0  0  0  0
 12 64  1  0  0  0  0
 12 63  1  0  0  0  0
 13  3  1  0  0  0  0
 13 14  1  0  0  0  0
 15 13  1  0  0  0  0
 16 15  1  0  0  0  0
 17 19  1  0  0  0  0
 17 15  2  0  0  0  0
 18 17  1  0  0  0  0
 19 21  2  0  0  0  0
 20 19  1  0  0  0  0
 21 22  1  0  0  0  0
 21  3  1  0  0  0  0
 22  5  1  1  0  0  0
 23  4  1  0  0  0  0
 23 22  1  0  0  0  0
 24 23  2  0  0  0  0
 25 24  1  0  0  0  0
 26 28  2  0  0  0  0
 26 24  1  0  0  0  0
 27 26  1  0  0  0  0
 28 30  1  0  0  0  0
 29 28  1  0  0  0  0
 30 31  1  0  0  0  0
 30  4  2  0  0  0  0
 32  7  1  0  0  0  0
 33 42  1  0  0  0  0
 34 33  2  0  0  0  0
 34 36  1  0  0  0  0
 35 34  1  0  0  0  0
 36 38  2  0  0  0  0
 37 36  1  0  0  0  0
 38 40  1  0  0  0  0
 38 39  1  0  0  0  0
 40 41  1  0  0  0  0
 42 43  1  0  0  0  0
 42 40  2  0  0  0  0
 44 46  1  0  0  0  0
 45 44  1  0  0  0  0
 46 47  1  0  0  0  0
 46 48  2  0  0  0  0
 48 49  1  0  0  0  0
 50 51  1  0  0  0  0
 50 48  1  0  0  0  0
 52 50  2  0  0  0  0
 53 10  1  1  0  0  0
 53 54  1  0  0  0  0
 53 52  1  0  0  0  0
 54 55  2  0  0  0  0
 55 57  1  0  0  0  0
 55 56  1  0  0  0  0
 57 58  1  0  0  0  0
 59 60  1  0  0  0  0
 59 57  2  0  0  0  0
 61 59  1  0  0  0  0
 62 61  1  0  0  0  0
 63 11  2  0  0  0  0
 64 73  1  0  0  0  0
 65 64  2  0  0  0  0
 66 65  1  0  0  0  0
 67 71  1  0  0  0  0
 68 67  1  0  0  0  0
 69 65  1  0  0  0  0
 69 67  2  0  0  0  0
 70 69  1  0  0  0  0
 71 73  2  0  0  0  0
 71 72  1  0  0  0  0
 73 74  1  0  0  0  0
M  END
