2,3,4,5,6
q = 0.0, confidence = 0.996

 48 51  0  0  0  0  0  0  0  0999 V2000
   -1.5856   -1.3815    2.4625 S   0  0  0  0  0  0  0  0  0  0  0  0
   -1.0631   -2.0900    0.5081 S   0  0  0  0  0  0  0  0  0  0  0  0
    2.5998   -1.1396    0.0055 N   0  0  0  0  0  2  0  0  0  0  0  0
    0.8215    0.2695    1.4017 N   0  0  0  0  0  2  0  0  0  0  0  0
   -1.2896    0.4914   -1.0402 N   0  0  0  0  0  2  0  0  0  0  0  0
    1.2015    1.5348   -1.2720 N   0  0  0  0  0  2  0  0  0  0  0  0
    3.3938   -1.9602   -0.6946 C   0  0  0  0  0  3  0  0  0  0  0  0
    3.0002   -2.2628   -1.6816 H   0  0  0  0  0  0  0  0  0  0  0  0
    4.6225   -2.4133   -0.1796 C   0  0  0  0  0  0  0  0  0  0  0  0
    5.2532   -3.0838   -0.7806 H   0  0  0  0  0  0  0  0  0  0  0  0
    5.0156   -1.9994    1.1004 C   0  0  0  0  0  0  0  0  0  0  0  0
    5.9704   -2.3379    1.5295 H   0  0  0  0  0  0  0  0  0  0  0  0
    4.1670   -1.1571    1.8376 C   0  0  0  0  0  0  0  0  0  0  0  0
    4.4288   -0.8300    2.8549 H   0  0  0  0  0  0  0  0  0  0  0  0
    2.9555   -0.7522    1.2544 C   0  0  0  0  0  0  0  0  0  0  0  0
    1.9576    0.0636    1.9692 C   0  0  0  0  0  3  0  0  0  0  0  0
    2.1957    0.4372    2.9863 H   0  0  0  0  0  0  0  0  0  0  0  0
   -0.2189    1.0300    1.9519 C   0  0  0  0  0  0  0  0  0  0  0  0
   -0.1245    2.4334    2.0072 C   0  0  0  0  0  0  0  0  0  0  0  0
    0.8155    2.9140    1.6971 H   0  0  0  0  0  0  0  0  0  0  0  0
   -1.2222    3.2015    2.4243 C   0  0  0  0  0  0  0  0  0  0  0  0
   -1.1337    4.2972    2.4652 H   0  0  0  0  0  0  0  0  0  0  0  0
   -2.4247    2.5746    2.7839 C   0  0  0  0  0  0  0  0  0  0  0  0
   -3.2887    3.1735    3.1068 H   0  0  0  0  0  0  0  0  0  0  0  0
   -2.5281    1.1764    2.7300 C   0  0  0  0  0  0  0  0  0  0  0  0
   -3.4644    0.6729    3.0127 H   0  0  0  0  0  0  0  0  0  0  0  0
   -1.4348    0.3867    2.3225 C   0  0  0  0  0  0  0  0  0  0  0  0
   -2.4816   -1.5233   -0.4190 C   0  0  0  0  0  0  0  0  0  0  0  0
   -3.6255   -2.3351   -0.4715 C   0  0  0  0  0  0  0  0  0  0  0  0
   -3.6140   -3.3067    0.0428 H   0  0  0  0  0  0  0  0  0  0  0  0
   -4.7627   -1.9082   -1.1701 C   0  0  0  0  0  0  0  0  0  0  0  0
   -5.6519   -2.5539   -1.2146 H   0  0  0  0  0  0  0  0  0  0  0  0
   -4.7571   -0.6648   -1.8277 C   0  0  0  0  0  0  0  0  0  0  0  0
   -5.6410   -0.3365   -2.3941 H   0  0  0  0  0  0  0  0  0  0  0  0
   -3.6224    0.1488   -1.7848 C   0  0  0  0  0  0  0  0  0  0  0  0
   -3.6181    1.0973   -2.3410 H   0  0  0  0  0  0  0  0  0  0  0  0
   -2.4686   -0.2574   -1.0744 C   0  0  0  0  0  0  0  0  0  0  0  0
   -1.1936    1.7374   -1.3757 C   0  0  0  0  0  0  0  0  0  0  0  0
   -2.0681    2.3699   -1.6258 H   0  0  0  0  0  0  0  0  0  0  0  0
    0.1342    2.3548   -1.4570 C   0  0  0  0  0  0  0  0  0  0  0  0
    0.2985    3.7233   -1.7450 C   0  0  0  0  0  0  0  0  0  0  0  0
   -0.5857    4.3602   -1.8944 H   0  0  0  0  0  0  0  0  0  0  0  0
    1.5946    4.2466   -1.8382 C   0  0  0  0  0  0  0  0  0  0  0  0
    1.7504    5.3122   -2.0628 H   0  0  0  0  0  0  0  0  0  0  0  0
    2.6884    3.3892   -1.6479 C   0  0  0  0  0  0  0  0  0  0  0  0
    3.7222    3.7551   -1.7230 H   0  0  0  0  0  0  0  0  0  0  0  0
    2.4404    2.0358   -1.3662 C   0  0  0  0  0  0  0  0  0  0  0  0
    3.2680    1.3237   -1.2154 H   0  0  0  0  0  0  0  0  0  0  0  0
  2  1  1  0  0  0  0
  3 15  1  0  0  0  0
  4 18  1  0  0  0  0
  4 16  1  0  0  0  0
  7  9  1  0  0  0  0
  7  3  1  0  0  0  0
  8  7  1  0  0  0  0
  9 11  2  0  0  0  0
 10  9  1  0  0  0  0
 11 12  1  0  0  0  0
 11 13  1  0  0  0  0
 13 14  1  0  0  0  0
 15 13  2  0  0  0  0
 15 16  1  0  0  0  0
 16 17  1  0  0  0  0
 18 19  2  0  0  0  0
 18 27  1  0  0  0  0
 19 21  1  0  0  0  0
 20 19  1  0  0  0  0
 21 22  1  0  0  0  0
 21 23  2  0  0  0  0
 23 24  1  0  0  0  0
 25 23  1  0  0  0  0
 25 26  1  0  0  0  0
 27  1  1  0  0  0  0
 27 25  2  0  0  0  0
 28  2  1  0  0  0  0
 29 28  1  0  0  0  0
 29 30  1  0  0  0  0
 31 29  2  0  0  0  0
 32 31  1  0  0  0  0
 33 35  2  0  0  0  0
 33 31  1  0  0  0  0
 34 33  1  0  0  0  0
 35 37  1  0  0  0  0
 36 35  1  0  0  0  0
 37  5  1  0  0  0  0
 37 28  2  0  0  0  0
 38  5  1  0  0  0  0
 39 38  1  0  0  0  0
 40 38  2  0  0  0  0
 40  6  1  0  0  0  0
 41 40  1  0  0  0  0
 42 41  1  0  0  0  0
 43 41  2  0  0  0  0
 43 45  1  0  0  0  0
 44 43  1  0  0  0  0
 45 47  2  0  0  0  0
 46 45  1  0  0  0  0
 47  6  1  0  0  0  0
 47 48  1  0  0  0  0
M  END
