1,4,30,33
q = -2.0, confidence = 0.9

 57 60  0  0  0  0  0  0  0  0999 V2000
    0.8940   -1.1326   -0.7594 N   0  0  0  0  0  2  0  0  0  0  0  0
   -1.3300   -2.6766   -0.1187 N   0  0  0  0  0  0  0  0  0  0  0  0
   -2.9486   -1.4960   -0.9372 N   0  0  0  0  0  0  0  0  0  0  0  0
   -1.6926   -1.3818   -0.3889 C   0  0  0  0  0  2  0  0  0  0  0  0
   -3.3543   -2.8265   -0.9957 C   0  0  0  0  0  0  0  0  0  0  0  0
   -4.3202   -3.1272   -1.4124 H   0  0  0  0  0  0  0  0  0  0  0  0
   -2.3228   -3.5703   -0.4846 C   0  0  0  0  0  0  0  0  0  0  0  0
   -2.2066   -4.6517   -0.3675 H   0  0  0  0  0  0  0  0  0  0  0  0
   -3.8301   -0.3744   -1.2220 C   0  0  0  0  0  0  0  0  0  0  0  0
   -4.4794   -0.6446   -2.0780 H   0  0  0  0  0  0  0  0  0  0  0  0
   -3.1964    0.4762   -1.5393 H   0  0  0  0  0  0  0  0  0  0  0  0
   -4.6795    0.0002    0.0002 C   0  0  0  0  0  0  0  0  0  0  0  0
   -5.3409    0.8493   -0.2739 H   0  0  0  0  0  0  0  0  0  0  0  0
   -0.0194   -3.0375    0.4139 C   0  0  0  0  0  0  0  0  0  0  0  0
    0.0966   -4.1341    0.3634 H   0  0  0  0  0  0  0  0  0  0  0  0
    0.0576   -2.7186    1.4745 H   0  0  0  0  0  0  0  0  0  0  0  0
    1.1413   -2.4131   -0.3892 C   0  0  0  0  0  0  0  0  0  0  0  0
    2.1370   -3.1071   -0.6226 O   0  0  0  0  0  0  0  0  0  0  0  0
    1.7658   -0.4252   -1.6063 C   0  0  0  0  0  0  0  0  0  0  0  0
    1.1966    0.4855   -2.5304 C   0  0  0  0  0  0  0  0  0  0  0  0
    0.0974    0.5389   -2.5954 H   0  0  0  0  0  0  0  0  0  0  0  0
    2.0041    1.2751   -3.3583 C   0  0  0  0  0  0  0  0  0  0  0  0
    1.5389    1.9767   -4.0687 H   0  0  0  0  0  0  0  0  0  0  0  0
    3.4028    1.1599   -3.2938 C   0  0  0  0  0  0  0  0  0  0  0  0
    4.0423    1.7784   -3.9414 H   0  0  0  0  0  0  0  0  0  0  0  0
    3.9741    0.2393   -2.4004 C   0  0  0  0  0  0  0  0  0  0  0  0
    5.0694    0.1371   -2.3469 H   0  0  0  0  0  0  0  0  0  0  0  0
    3.1746   -0.5502   -1.5617 C   0  0  0  0  0  0  0  0  0  0  0  0
    3.6185   -1.2745   -0.8696 H   0  0  0  0  0  0  0  0  0  0  0  0
    0.8943    1.1324    0.7593 N   0  0  0  0  0  2  0  0  0  0  0  0
   -1.3296    2.6766    0.1186 N   0  0  0  0  0  0  0  0  0  0  0  0
   -2.9483    1.4962    0.9374 N   0  0  0  0  0  0  0  0  0  0  0  0
   -1.6924    1.3819    0.3890 C   0  0  0  0  0  2  0  0  0  0  0  0
   -3.3538    2.8269    0.9958 C   0  0  0  0  0  0  0  0  0  0  0  0
   -4.3196    3.1277    1.4126 H   0  0  0  0  0  0  0  0  0  0  0  0
   -2.3223    3.5704    0.4846 C   0  0  0  0  0  0  0  0  0  0  0  0
   -2.2060    4.6518    0.3673 H   0  0  0  0  0  0  0  0  0  0  0  0
   -3.8300    0.3748    1.2223 C   0  0  0  0  0  0  0  0  0  0  0  0
   -4.4791    0.6452    2.0783 H   0  0  0  0  0  0  0  0  0  0  0  0
   -3.1964   -0.4758    1.5396 H   0  0  0  0  0  0  0  0  0  0  0  0
   -5.3410   -0.8487    0.2743 H   0  0  0  0  0  0  0  0  0  0  0  0
   -0.0191    3.0372   -0.4142 C   0  0  0  0  0  0  0  0  0  0  0  0
    0.0971    4.1338   -0.3639 H   0  0  0  0  0  0  0  0  0  0  0  0
    0.0578    2.7181   -1.4748 H   0  0  0  0  0  0  0  0  0  0  0  0
    1.1417    2.4128    0.3888 C   0  0  0  0  0  0  0  0  0  0  0  0
    2.1375    3.1067    0.6221 O   0  0  0  0  0  0  0  0  0  0  0  0
    1.7660    0.4250    1.6062 C   0  0  0  0  0  0  0  0  0  0  0  0
    1.1969   -0.4852    2.5307 C   0  0  0  0  0  0  0  0  0  0  0  0
    0.0977   -0.5384    2.5960 H   0  0  0  0  0  0  0  0  0  0  0  0
    2.0043   -1.2746    3.3588 C   0  0  0  0  0  0  0  0  0  0  0  0
    1.5391   -1.9759    4.0695 H   0  0  0  0  0  0  0  0  0  0  0  0
    3.4030   -1.1598    3.2940 C   0  0  0  0  0  0  0  0  0  0  0  0
    4.0426   -1.7782    3.9417 H   0  0  0  0  0  0  0  0  0  0  0  0
    3.9744   -0.2395    2.4002 C   0  0  0  0  0  0  0  0  0  0  0  0
    5.0697   -0.1376    2.3465 H   0  0  0  0  0  0  0  0  0  0  0  0
    3.1749    0.5497    1.5614 C   0  0  0  0  0  0  0  0  0  0  0  0
    3.6188    1.2737    0.8690 H   0  0  0  0  0  0  0  0  0  0  0  0
  1 17  1  0  0  0  0
  2 14  1  0  0  0  0
  3  4  1  0  0  0  0
  4  2  1  0  0  0  0
  5  3  1  0  0  0  0
  5  7  2  0  0  0  0
  6  5  1  0  0  0  0
  7  8  1  0  0  0  0
  7  2  1  0  0  0  0
  9  3  1  0  0  0  0
  9 12  1  0  0  0  0
 10  9  1  0  0  0  0
 11  9  1  0  0  0  0
 12 41  1  0  0  0  0
 12 38  1  0  0  0  0
 13 12  1  0  0  0  0
 14 16  1  0  0  0  0
 15 14  1  0  0  0  0
 17 14  1  0  0  0  0
 18 17  2  0  0  0  0
 19 28  1  0  0  0  0
 19  1  1  0  0  0  0
 20 19  2  0  0  0  0
 21 20  1  0  0  0  0
 22 24  2  0  0  0  0
 22 20  1  0  0  0  0
 23 22  1  0  0  0  0
 24 26  1  0  0  0  0
 25 24  1  0  0  0  0
 26 27  1  0  0  0  0
 26 28  2  0  0  0  0
 28 29  1  0  0  0  0
 30 47  1  0  0  0  0
 31 33  1  0  0  0  0
 31 36  1  0  0  0  0
 32 34  1  0  0  0  0
 32 38  1  0  0  0  0
 33 32  1  0  0  0  0
 34 35  1  0  0  0  0
 36 34  2  0  0  0  0
 37 36  1  0  0  0  0
 38 40  1  0  0  0  0
 38 39  1  0  0  0  0
 42 43  1  0  0  0  0
 42 31  1  0  0  0  0
 42 45  1  0  0  0  0
 44 42  1  0  0  0  0
 45 46  2  0  0  0  0
 45 30  1  0  0  0  0
 47 48  1  0  0  0  0
 48 49  1  0  0  0  0
 48 50  2  0  0  0  0
 50 51  1  0  0  0  0
 52 50  1  0  0  0  0
 52 53  1  0  0  0  0
 54 52  2  0  0  0  0
 55 54  1  0  0  0  0
 56 47  2  0  0  0  0
 56 54  1  0  0  0  0
 57 56  1  0  0  0  0
M  END
