1,10,21,25
q = -1.0, confidence = 0.016

 50 52  0  0  1  0  0  0  0  0999 V2000
   -0.0454   -1.8171    0.0071 N   0  0  0  0  0  0  0  0  0  0  0  0
   -0.0809   -2.6187    0.6530 H   0  0  0  0  0  0  0  0  0  0  0  0
   -0.0411   -2.2022   -0.9484 H   0  0  0  0  0  0  0  0  0  0  0  0
   -1.2555   -0.9732    0.2278 C   0  0  1  0  0  0  0  0  0  0  0  0
   -1.2945   -0.8320    1.3241 H   0  0  0  0  0  0  0  0  0  0  0  0
   -1.0096    0.4178   -0.3948 C   0  0  2  0  0  0  0  0  0  0  0  0
   -1.2004    0.3504   -1.4953 H   0  0  0  0  0  0  0  0  0  0  0  0
   -0.2569    2.8294   -1.5405 O   0  0  0  0  0  0  0  0  0  0  0  0
    1.9469    2.8328   -0.2047 O   0  0  0  0  0  0  0  0  0  0  0  0
    0.3870    0.7885   -0.1169 N   0  0  0  0  0  2  0  0  0  0  0  0
    0.9125    2.1062   -0.9836 S   0  0  0  0  0  0  0  0  0  0  0  0
    1.8020    1.4349   -2.4530 C   0  0  0  0  0  0  0  0  0  0  0  0
    1.1824    0.6023   -2.8439 H   0  0  0  0  0  0  0  0  0  0  0  0
    1.7810    2.2646   -3.1859 H   0  0  0  0  0  0  0  0  0  0  0  0
    3.2271    1.0232   -2.1010 C   0  0  0  0  0  0  0  0  0  0  0  0
    3.7372    0.6299   -3.0058 H   0  0  0  0  0  0  0  0  0  0  0  0
    3.7752    1.9279   -1.7767 H   0  0  0  0  0  0  0  0  0  0  0  0
    3.3028   -0.0149   -0.9992 C   0  0  0  0  0  0  0  0  0  0  0  0
    3.6432    0.3734    0.3517 C   0  0  0  0  0  0  0  0  0  0  0  0
    3.7562    1.4409    0.5835 H   0  0  0  0  0  0  0  0  0  0  0  0
    3.6697   -0.6000    1.3872 C   0  0  0  0  0  3  0  0  0  0  0  0
    3.8046   -0.2731    2.4278 H   0  0  0  0  0  0  0  0  0  0  0  0
    3.3877   -1.9801    1.1168 C   0  0  0  0  0  3  0  0  0  0  0  0
    3.3310   -2.7054    1.9391 H   0  0  0  0  0  0  0  0  0  0  0  0
    2.9933   -2.3465   -0.2017 C   0  0  0  0  0  3  0  0  0  0  0  0
    2.6591   -3.3775   -0.3997 H   0  0  0  0  0  0  0  0  0  0  0  0
    2.9803   -1.3784   -1.2702 C   0  0  0  0  0  3  0  0  0  0  0  0
    2.6745   -1.6757   -2.2855 H   0  0  0  0  0  0  0  0  0  0  0  0
   -2.5274   -1.6319   -0.2576 C   0  0  0  0  0  0  0  0  0  0  0  0
   -2.6587   -2.0740   -1.5902 C   0  0  0  0  0  0  0  0  0  0  0  0
   -1.8281   -1.9389   -2.3039 H   0  0  0  0  0  0  0  0  0  0  0  0
   -3.8492   -2.6658   -2.0356 C   0  0  0  0  0  0  0  0  0  0  0  0
   -3.9368   -3.0054   -3.0788 H   0  0  0  0  0  0  0  0  0  0  0  0
   -4.9324   -2.8117   -1.1535 C   0  0  0  0  0  0  0  0  0  0  0  0
   -5.8699   -3.2702   -1.5026 H   0  0  0  0  0  0  0  0  0  0  0  0
   -4.8166   -2.3638    0.1714 C   0  0  0  0  0  0  0  0  0  0  0  0
   -5.6649   -2.4665    0.8649 H   0  0  0  0  0  0  0  0  0  0  0  0
   -3.6208   -1.7804    0.6159 C   0  0  0  0  0  0  0  0  0  0  0  0
   -3.5309   -1.4167    1.6509 H   0  0  0  0  0  0  0  0  0  0  0  0
   -2.0349    1.3789    0.1941 C   0  0  0  0  0  0  0  0  0  0  0  0
   -3.1945    1.7151   -0.5239 C   0  0  0  0  0  0  0  0  0  0  0  0
   -3.3221    1.3388   -1.5511 H   0  0  0  0  0  0  0  0  0  0  0  0
   -4.1765    2.5328    0.0541 C   0  0  0  0  0  0  0  0  0  0  0  0
   -5.0780    2.7959   -0.5204 H   0  0  0  0  0  0  0  0  0  0  0  0
   -4.0037    3.0226    1.3583 C   0  0  0  0  0  0  0  0  0  0  0  0
   -4.7697    3.6709    1.8110 H   0  0  0  0  0  0  0  0  0  0  0  0
   -2.8452    2.6880    2.0791 C   0  0  0  0  0  0  0  0  0  0  0  0
   -2.7017    3.0724    3.1008 H   0  0  0  0  0  0  0  0  0  0  0  0
   -1.8647    1.8678    1.5029 C   0  0  0  0  0  0  0  0  0  0  0  0
   -0.9523    1.5960    2.0573 H   0  0  0  0  0  0  0  0  0  0  0  0
  1  4  1  0  0  0  0
  1  2  1  0  0  0  0
  3  1  1  0  0  0  0
  4  5  1  1  0  0  0
  6  7  1  6  0  0  0
  6 10  1  0  0  0  0
  6 40  1  0  0  0  0
  6  4  1  0  0  0  0
  8 11  2  0  0  0  0
 11  9  2  0  0  0  0
 11 10  1  0  0  0  0
 12 15  1  0  0  0  0
 12 11  1  0  0  0  0
 13 12  1  0  0  0  0
 14 12  1  0  0  0  0
 15 17  1  0  0  0  0
 15 18  1  0  0  0  0
 16 15  1  0  0  0  0
 18 19  2  0  0  0  0
 19 20  1  0  0  0  0
 19 21  1  0  0  0  0
 21 22  1  0  0  0  0
 23 21  1  0  0  0  0
 23 24  1  0  0  0  0
 25 23  1  0  0  0  0
 26 25  1  0  0  0  0
 27 18  1  0  0  0  0
 27 25  1  0  0  0  0
 28 27  1  0  0  0  0
 29  4  1  0  0  0  0
 29 38  1  0  0  0  0
 30 29  2  0  0  0  0
 31 30  1  0  0  0  0
 32 30  1  0  0  0  0
 32 34  2  0  0  0  0
 33 32  1  0  0  0  0
 34 36  1  0  0  0  0
 35 34  1  0  0  0  0
 36 38  2  0  0  0  0
 36 37  1  0  0  0  0
 38 39  1  0  0  0  0
 40 49  1  0  0  0  0
 41 43  1  0  0  0  0
 41 40  2  0  0  0  0
 42 41  1  0  0  0  0
 43 45  2  0  0  0  0
 44 43  1  0  0  0  0
 45 46  1  0  0  0  0
 45 47  1  0  0  0  0
 47 48  1  0  0  0  0
 49 50  1  0  0  0  0
 49 47  2  0  0  0  0
M  END
