1,14,39,41
q = 0.0, confidence = 0.978

 82 89  0  0  1  0  0  0  0  0999 V2000
   -1.3713    0.2654    0.2152 N   0  0  0  0  0  0  0  0  0  0  0  0
   -1.4554    0.3294    1.2437 H   0  0  0  0  0  0  0  0  0  0  0  0
    2.7112   -0.5112    1.7200 C   0  0  0  0  0  0  0  0  0  0  0  0
   -0.7288    1.5293   -0.2627 C   0  0  2  0  0  0  0  0  0  0  0  0
   -0.7055    1.4683   -1.3717 H   0  0  0  0  0  0  0  0  0  0  0  0
   -2.7576   -0.0009   -0.2954 C   0  0  0  0  0  0  0  0  0  0  0  0
   -3.3190    0.9561   -0.2905 H   0  0  0  0  0  0  0  0  0  0  0  0
   -2.4808    4.1888    1.8655 C   0  0  0  0  0  0  0  0  0  0  0  0
   -2.6762    4.3947    2.9283 H   0  0  0  0  0  0  0  0  0  0  0  0
    2.8198   -2.1854   -1.0149 C   0  0  0  0  0  0  0  0  0  0  0  0
    1.5019    2.7683   -0.1400 C   0  0  0  0  0  0  0  0  0  0  0  0
    2.7575   -0.0004    0.2949 C   0  0  0  0  0  0  0  0  0  0  0  0
    3.3188    0.9567    0.2890 H   0  0  0  0  0  0  0  0  0  0  0  0
    1.3710    0.2654   -0.2155 N   0  0  0  0  0  0  0  0  0  0  0  0
    1.4550    0.3290   -1.2440 H   0  0  0  0  0  0  0  0  0  0  0  0
   -3.4231   -0.9381    0.6898 C   0  0  0  0  0  0  0  0  0  0  0  0
    3.3482    0.2278    2.7302 C   0  0  0  0  0  0  0  0  0  0  0  0
    3.8810    1.1525    2.4575 H   0  0  0  0  0  0  0  0  0  0  0  0
    0.7284    1.5294    0.2620 C   0  0  2  0  0  0  0  0  0  0  0  0
    0.7052    1.4688    1.3711 H   0  0  0  0  0  0  0  0  0  0  0  0
    1.6368   -2.7258   -0.3177 C   0  0  0  0  0  3  0  0  0  0  0  0
    1.2711   -3.6660   -0.7652 H   0  0  0  0  0  0  0  0  0  0  0  0
    4.5958   -0.5316   -1.3488 C   0  0  0  0  0  0  0  0  0  0  0  0
    5.0469    0.4389   -1.0885 H   0  0  0  0  0  0  0  0  0  0  0  0
   -1.6368   -2.7258    0.3196 C   0  0  0  0  0  3  0  0  0  0  0  0
   -1.2709   -3.6653    0.7683 H   0  0  0  0  0  0  0  0  0  0  0  0
   -2.0155   -1.7122   -2.0541 C   0  0  0  0  0  0  0  0  0  0  0  0
   -2.7107   -0.5129   -1.7200 C   0  0  0  0  0  0  0  0  0  0  0  0
   -1.5023    2.7683    0.1389 C   0  0  0  0  0  0  0  0  0  0  0  0
    3.3043   -0.1840    4.0710 C   0  0  0  0  0  0  0  0  0  0  0  0
    3.8052    0.4131    4.8472 H   0  0  0  0  0  0  0  0  0  0  0  0
   -3.3472    0.2255   -2.7311 C   0  0  0  0  0  0  0  0  0  0  0  0
   -3.8801    1.1505   -2.4592 H   0  0  0  0  0  0  0  0  0  0  0  0
   -3.3029   -0.1873   -4.0716 C   0  0  0  0  0  0  0  0  0  0  0  0
   -3.8033    0.4094   -4.8484 H   0  0  0  0  0  0  0  0  0  0  0  0
    3.4108   -2.9645   -2.0372 C   0  0  0  0  0  0  0  0  0  0  0  0
    2.9496   -3.9284   -2.3023 H   0  0  0  0  0  0  0  0  0  0  0  0
    3.4229   -0.9383   -0.6896 C   0  0  0  0  0  0  0  0  0  0  0  0
    1.3311   -2.5694    1.0719 C   0  0  0  0  0  3  0  0  0  0  0  0
    0.7845   -3.4060    1.5390 H   0  0  0  0  0  0  0  0  0  0  0  0
   -1.3311   -2.5709   -1.0701 C   0  0  0  0  0  3  0  0  0  0  0  0
   -0.7845   -3.4079   -1.5364 H   0  0  0  0  0  0  0  0  0  0  0  0
   -2.8198   -2.1848    1.0163 C   0  0  0  0  0  0  0  0  0  0  0  0
    1.9671   -2.0974    3.4164 C   0  0  0  0  0  0  0  0  0  0  0  0
    1.4277   -3.0192    3.6836 H   0  0  0  0  0  0  0  0  0  0  0  0
   -2.6042   -1.3554   -4.4129 C   0  0  0  0  0  0  0  0  0  0  0  0
   -2.5567   -1.6877   -5.4604 H   0  0  0  0  0  0  0  0  0  0  0  0
   -1.9662   -2.1003   -3.4151 C   0  0  0  0  0  0  0  0  0  0  0  0
   -1.4269   -3.0225   -3.6814 H   0  0  0  0  0  0  0  0  0  0  0  0
    2.6056   -1.3518    4.4135 C   0  0  0  0  0  0  0  0  0  0  0  0
    2.5584   -1.6834    5.4612 H   0  0  0  0  0  0  0  0  0  0  0  0
    4.5781   -2.5506   -2.6884 C   0  0  0  0  0  0  0  0  0  0  0  0
    5.0217   -3.1837   -3.4711 H   0  0  0  0  0  0  0  0  0  0  0  0
    5.1821   -1.3326   -2.3383 C   0  0  0  0  0  0  0  0  0  0  0  0
    6.0995   -0.9994   -2.8451 H   0  0  0  0  0  0  0  0  0  0  0  0
   -4.5962   -0.5309    1.3484 C   0  0  0  0  0  0  0  0  0  0  0  0
   -5.0474    0.4392    1.0871 H   0  0  0  0  0  0  0  0  0  0  0  0
    2.0159   -1.7102    2.0552 C   0  0  0  0  0  0  0  0  0  0  0  0
   -3.4109   -2.9630    2.0392 C   0  0  0  0  0  0  0  0  0  0  0  0
   -2.9496   -3.9266    2.3053 H   0  0  0  0  0  0  0  0  0  0  0  0
   -5.1825   -1.3312    2.3385 C   0  0  0  0  0  0  0  0  0  0  0  0
   -6.1000   -0.9977    2.8449 H   0  0  0  0  0  0  0  0  0  0  0  0
    1.9760    3.6584    0.8408 C   0  0  0  0  0  0  0  0  0  0  0  0
    1.7757    3.4499    1.9036 H   0  0  0  0  0  0  0  0  0  0  0  0
   -2.6948    4.8062   -0.4752 C   0  0  0  0  0  0  0  0  0  0  0  0
   -3.0585    5.4959   -1.2512 H   0  0  0  0  0  0  0  0  0  0  0  0
   -1.9765    3.6580   -0.8422 C   0  0  0  0  0  0  0  0  0  0  0  0
   -1.7761    3.4492   -1.9050 H   0  0  0  0  0  0  0  0  0  0  0  0
    1.7587    3.0443   -1.4984 C   0  0  0  0  0  0  0  0  0  0  0  0
    1.3939    2.3660   -2.2880 H   0  0  0  0  0  0  0  0  0  0  0  0
   -2.9489    5.0723    0.8789 C   0  0  0  0  0  0  0  0  0  0  0  0
   -3.5133    5.9711    1.1681 H   0  0  0  0  0  0  0  0  0  0  0  0
   -4.5783   -2.5487    2.6899 C   0  0  0  0  0  0  0  0  0  0  0  0
   -5.0219   -3.1812    3.4731 H   0  0  0  0  0  0  0  0  0  0  0  0
   -1.7592    3.0447    1.4972 C   0  0  0  0  0  0  0  0  0  0  0  0
   -1.3944    2.3667    2.2871 H   0  0  0  0  0  0  0  0  0  0  0  0
    2.9482    5.0722   -0.8809 C   0  0  0  0  0  0  0  0  0  0  0  0
    3.5125    5.9710   -1.1704 H   0  0  0  0  0  0  0  0  0  0  0  0
    2.4802    4.1883   -1.8671 C   0  0  0  0  0  0  0  0  0  0  0  0
    2.6755    4.3939   -2.9301 H   0  0  0  0  0  0  0  0  0  0  0  0
    2.6941    4.8065    0.4733 C   0  0  0  0  0  0  0  0  0  0  0  0
    3.0578    5.4966    1.2491 H   0  0  0  0  0  0  0  0  0  0  0  0
  1  2  1  0  0  0  0
  3 58  2  0  0  0  0
  3 17  1  0  0  0  0
  4  5  1  6  0  0  0
  4 29  1  0  0  0  0
  4  1  1  0  0  0  0
  4 19  1  0  0  0  0
  6  7  1  0  0  0  0
  6  1  1  0  0  0  0
  6 16  1  0  0  0  0
  8  9  1  0  0  0  0
 10 38  1  0  0  0  0
 10 21  1  0  0  0  0
 11 19  1  0  0  0  0
 11 63  1  0  0  0  0
 12  3  1  0  0  0  0
 13 12  1  0  0  0  0
 14 19  1  0  0  0  0
 14 12  1  0  0  0  0
 15 14  1  0  0  0  0
 16 43  2  0  0  0  0
 16 56  1  0  0  0  0
 17 30  2  0  0  0  0
 18 17  1  0  0  0  0
 19 20  1  1  0  0  0
 21 39  1  0  0  0  0
 22 21  1  0  0  0  0
 23 24  1  0  0  0  0
 23 38  2  0  0  0  0
 25 26  1  0  0  0  0
 25 43  1  0  0  0  0
 27 28  1  0  0  0  0
 27 41  1  0  0  0  0
 28  6  1  0  0  0  0
 29 75  2  0  0  0  0
 30 50  1  0  0  0  0
 30 31  1  0  0  0  0
 32 33  1  0  0  0  0
 32 28  2  0  0  0  0
 34 32  1  0  0  0  0
 35 34  1  0  0  0  0
 36 10  2  0  0  0  0
 37 36  1  0  0  0  0
 38 12  1  0  0  0  0
 39 40  1  0  0  0  0
 39 58  1  0  0  0  0
 41 25  1  0  0  0  0
 42 41  1  0  0  0  0
 43 59  1  0  0  0  0
 44 45  1  0  0  0  0
 44 50  2  0  0  0  0
 46 34  2  0  0  0  0
 46 48  1  0  0  0  0
 47 46  1  0  0  0  0
 48 27  2  0  0  0  0
 49 48  1  0  0  0  0
 50 51  1  0  0  0  0
 52 54  2  0  0  0  0
 52 36  1  0  0  0  0
 53 52  1  0  0  0  0
 54 23  1  0  0  0  0
 55 54  1  0  0  0  0
 56 61  2  0  0  0  0
 57 56  1  0  0  0  0
 58 44  1  0  0  0  0
 59 60  1  0  0  0  0
 59 73  2  0  0  0  0
 61 73  1  0  0  0  0
 61 62  1  0  0  0  0
 63 64  1  0  0  0  0
 65 71  1  0  0  0  0
 66 65  1  0  0  0  0
 67 65  2  0  0  0  0
 67 29  1  0  0  0  0
 68 67  1  0  0  0  0
 69 11  2  0  0  0  0
 70 69  1  0  0  0  0
 71 72  1  0  0  0  0
 71  8  2  0  0  0  0
 73 74  1  0  0  0  0
 75  8  1  0  0  0  0
 75 76  1  0  0  0  0
 77 81  1  0  0  0  0
 78 77  1  0  0  0  0
 79 69  1  0  0  0  0
 79 77  2  0  0  0  0
 80 79  1  0  0  0  0
 81 63  2  0  0  0  0
 81 82  1  0  0  0  0
M  END
