1,5,11,37
q = 0.0, confidence = 0.974

 72 78  0  0  1  0  0  0  0  0999 V2000
   -1.3525    0.3509    0.9806 N   0  0  0  0  0  0  0  0  0  0  0  0
   -1.3392    1.3835    1.0396 H   0  0  0  0  0  0  0  0  0  0  0  0
   -2.7775   -0.0304    0.6893 C   0  0  0  0  0  0  0  0  0  0  0  0
   -3.3631    0.0218    1.6292 H   0  0  0  0  0  0  0  0  0  0  0  0
    1.3527   -0.3526    0.9802 N   0  0  0  0  0  0  0  0  0  0  0  0
    1.3395   -1.3853    1.0373 H   0  0  0  0  0  0  0  0  0  0  0  0
   -3.3410    1.0145   -0.2513 C   0  0  0  0  0  0  0  0  0  0  0  0
   -2.7008    1.2848   -1.4923 C   0  0  0  0  0  0  0  0  0  0  0  0
   -1.5850    0.4798   -2.0239 C   0  0  0  0  0  3  0  0  0  0  0  0
   -1.1719    0.8922   -2.9604 H   0  0  0  0  0  0  0  0  0  0  0  0
   -1.4165   -0.9342   -1.8725 C   0  0  0  0  0  3  0  0  0  0  0  0
   -0.9144   -1.4483   -2.7094 H   0  0  0  0  0  0  0  0  0  0  0  0
   -2.1976   -1.8497   -1.0225 C   0  0  0  0  0  0  0  0  0  0  0  0
   -2.8635   -1.4525    0.1737 C   0  0  0  0  0  0  0  0  0  0  0  0
   -4.4560    1.7742    0.1434 C   0  0  0  0  0  0  0  0  0  0  0  0
   -4.9432    1.5523    1.1061 H   0  0  0  0  0  0  0  0  0  0  0  0
   -4.9433    2.8134   -0.6610 C   0  0  0  0  0  0  0  0  0  0  0  0
   -5.8157    3.3988   -0.3363 H   0  0  0  0  0  0  0  0  0  0  0  0
   -4.2972    3.1103   -1.8714 C   0  0  0  0  0  0  0  0  0  0  0  0
   -4.6621    3.9307   -2.5069 H   0  0  0  0  0  0  0  0  0  0  0  0
   -3.1894    2.3569   -2.2751 C   0  0  0  0  0  0  0  0  0  0  0  0
   -2.6972    2.5797   -3.2344 H   0  0  0  0  0  0  0  0  0  0  0  0
   -2.2802   -3.2071   -1.4171 C   0  0  0  0  0  0  0  0  0  0  0  0
   -1.7630   -3.5213   -2.3367 H   0  0  0  0  0  0  0  0  0  0  0  0
   -3.0196   -4.1399   -0.6819 C   0  0  0  0  0  0  0  0  0  0  0  0
   -3.0737   -5.1856   -1.0187 H   0  0  0  0  0  0  0  0  0  0  0  0
   -3.6906   -3.7352    0.4820 C   0  0  0  0  0  0  0  0  0  0  0  0
   -4.2715   -4.4601    1.0710 H   0  0  0  0  0  0  0  0  0  0  0  0
   -3.6044   -2.3987    0.9006 C   0  0  0  0  0  0  0  0  0  0  0  0
   -4.1205   -2.0810    1.8205 H   0  0  0  0  0  0  0  0  0  0  0  0
    2.7775    0.0295    0.6894 C   0  0  0  0  0  0  0  0  0  0  0  0
    3.3632   -0.0238    1.6292 H   0  0  0  0  0  0  0  0  0  0  0  0
    3.3413   -1.0138   -0.2526 C   0  0  0  0  0  0  0  0  0  0  0  0
    2.7012   -1.2826   -1.4940 C   0  0  0  0  0  0  0  0  0  0  0  0
    1.5852   -0.4770   -2.0245 C   0  0  0  0  0  3  0  0  0  0  0  0
    1.1721   -0.8883   -2.9615 H   0  0  0  0  0  0  0  0  0  0  0  0
    1.4166    0.9368   -1.8714 C   0  0  0  0  0  3  0  0  0  0  0  0
    0.9146    1.4519   -2.7078 H   0  0  0  0  0  0  0  0  0  0  0  0
    2.1974    1.8512   -1.0200 C   0  0  0  0  0  0  0  0  0  0  0  0
    2.8632    1.4524    0.1758 C   0  0  0  0  0  0  0  0  0  0  0  0
    4.4565   -1.7738    0.1409 C   0  0  0  0  0  0  0  0  0  0  0  0
    4.9437   -1.5531    1.1039 H   0  0  0  0  0  0  0  0  0  0  0  0
    4.9440   -2.8118   -0.6649 C   0  0  0  0  0  0  0  0  0  0  0  0
    5.8166   -3.3975   -0.3411 H   0  0  0  0  0  0  0  0  0  0  0  0
    4.2980   -3.1072   -1.8756 C   0  0  0  0  0  0  0  0  0  0  0  0
    4.6630   -3.9267   -2.5123 H   0  0  0  0  0  0  0  0  0  0  0  0
    3.1900   -2.3535   -2.2783 C   0  0  0  0  0  0  0  0  0  0  0  0
    2.6978   -2.5751   -3.2379 H   0  0  0  0  0  0  0  0  0  0  0  0
    2.2796    3.2092   -1.4125 C   0  0  0  0  0  0  0  0  0  0  0  0
    1.7625    3.5246   -2.3318 H   0  0  0  0  0  0  0  0  0  0  0  0
    3.0185    4.1412   -0.6758 C   0  0  0  0  0  0  0  0  0  0  0  0
    3.0723    5.1874   -1.0111 H   0  0  0  0  0  0  0  0  0  0  0  0
    3.6894    3.7350    0.4876 C   0  0  0  0  0  0  0  0  0  0  0  0
    4.2699    4.4593    1.0778 H   0  0  0  0  0  0  0  0  0  0  0  0
    3.6036    2.3978    0.9042 C   0  0  0  0  0  0  0  0  0  0  0  0
    4.1197    2.0790    1.8238 H   0  0  0  0  0  0  0  0  0  0  0  0
   -0.7510   -0.1798    2.2400 C   0  0  1  0  0  0  0  0  0  0  0  0
   -0.8504   -1.2881    2.1922 H   0  0  0  0  0  0  0  0  0  0  0  0
    0.7511    0.1759    2.2404 C   0  0  1  0  0  0  0  0  0  0  0  0
    0.8504    1.2843    2.1945 H   0  0  0  0  0  0  0  0  0  0  0  0
    1.4391   -0.3398    3.5125 C   0  0  0  0  0  0  0  0  0  0  0  0
    2.5064   -0.0411    3.5164 H   0  0  0  0  0  0  0  0  0  0  0  0
    1.4187   -1.4533    3.4990 H   0  0  0  0  0  0  0  0  0  0  0  0
    0.7437    0.1757    4.7784 C   0  0  0  0  0  0  0  0  0  0  0  0
    1.2463   -0.2376    5.6756 H   0  0  0  0  0  0  0  0  0  0  0  0
    0.8597    1.2803    4.8370 H   0  0  0  0  0  0  0  0  0  0  0  0
   -0.7439   -0.1840    4.7780 C   0  0  0  0  0  0  0  0  0  0  0  0
   -1.2465    0.2276    5.6759 H   0  0  0  0  0  0  0  0  0  0  0  0
   -0.8599   -1.2887    4.8347 H   0  0  0  0  0  0  0  0  0  0  0  0
   -1.4391    0.3337    3.5129 C   0  0  0  0  0  0  0  0  0  0  0  0
   -2.5065    0.0349    3.5163 H   0  0  0  0  0  0  0  0  0  0  0  0
   -1.4188    1.4472    3.5014 H   0  0  0  0  0  0  0  0  0  0  0  0
  1  2  1  0  0  0  0
  1 57  1  0  0  0  0
  3  1  1  0  0  0  0
  3  4  1  0  0  0  0
  5  6  1  0  0  0  0
  5 59  1  0  0  0  0
  7 15  1  0  0  0  0
  7  3  1  0  0  0  0
  8  7  2  0  0  0  0
  9 11  1  0  0  0  0
  9  8  1  0  0  0  0
 10  9  1  0  0  0  0
 11 13  1  0  0  0  0
 12 11  1  0  0  0  0
 13 14  1  0  0  0  0
 14  3  1  0  0  0  0
 14 29  2  0  0  0  0
 15 16  1  0  0  0  0
 17 18  1  0  0  0  0
 17 15  2  0  0  0  0
 19 17  1  0  0  0  0
 20 19  1  0  0  0  0
 21 19  2  0  0  0  0
 21  8  1  0  0  0  0
 22 21  1  0  0  0  0
 23 13  2  0  0  0  0
 23 25  1  0  0  0  0
 24 23  1  0  0  0  0
 25 27  2  0  0  0  0
 26 25  1  0  0  0  0
 27 29  1  0  0  0  0
 27 28  1  0  0  0  0
 29 30  1  0  0  0  0
 31  5  1  0  0  0  0
 31 32  1  0  0  0  0
 33 41  1  0  0  0  0
 33 31  1  0  0  0  0
 34 33  2  0  0  0  0
 35 37  1  0  0  0  0
 35 34  1  0  0  0  0
 36 35  1  0  0  0  0
 37 39  1  0  0  0  0
 38 37  1  0  0  0  0
 39 40  1  0  0  0  0
 40 31  1  0  0  0  0
 40 55  2  0  0  0  0
 41 42  1  0  0  0  0
 43 44  1  0  0  0  0
 43 41  2  0  0  0  0
 45 43  1  0  0  0  0
 46 45  1  0  0  0  0
 47 45  2  0  0  0  0
 47 34  1  0  0  0  0
 48 47  1  0  0  0  0
 49 39  2  0  0  0  0
 49 51  1  0  0  0  0
 50 49  1  0  0  0  0
 51 53  2  0  0  0  0
 52 51  1  0  0  0  0
 53 55  1  0  0  0  0
 53 54  1  0  0  0  0
 55 56  1  0  0  0  0
 57 58  1  6  0  0  0
 57 59  1  0  0  0  0
 57 70  1  0  0  0  0
 59 60  1  6  0  0  0
 59 61  1  0  0  0  0
 61 62  1  0  0  0  0
 61 64  1  0  0  0  0
 63 61  1  0  0  0  0
 64 66  1  0  0  0  0
 64 65  1  0  0  0  0
 67 64  1  0  0  0  0
 67 69  1  0  0  0  0
 67 68  1  0  0  0  0
 70 71  1  0  0  0  0
 70 67  1  0  0  0  0
 72 70  1  0  0  0  0
M  END
