9,10,11,26
q = -2.0, confidence = 0.804

 58 59  0  0  1  0  0  0  0  0999 V2000
   -3.5439   -1.1631   -0.9423 O   0  0  0  0  0  0  0  0  0  0  0  0
   -1.9642   -0.8945   -2.5389 O   0  0  0  0  0  0  0  0  0  0  0  0
   -0.9111   -2.9013    1.5898 O   0  0  0  0  0  0  0  0  0  0  0  0
   -2.3980   -1.1770    1.5759 O   0  0  0  0  0  0  0  0  0  0  0  0
   -2.7827    1.8134   -1.3708 O   0  0  0  0  0  0  0  0  0  0  0  0
   -3.0238    1.5544    0.8649 O   0  0  0  0  0  0  0  0  0  0  0  0
   -0.6791    1.3701    2.4248 O   0  0  0  0  0  0  0  0  0  0  0  0
    0.3736    3.1320    1.4739 O   0  0  0  0  0  0  0  0  0  0  0  0
    1.4922   -1.8334   -0.0240 N   0  0  0  0  0  2  0  0  0  0  0  0
    1.8383    1.2680   -0.5289 N   0  0  0  0  0  2  0  0  0  0  0  0
   -1.1985   -1.6179   -0.4230 C   0  0  0  0  0  3  0  0  0  0  0  0
   -0.4187   -2.7437   -1.1399 C   0  0  0  0  0  0  0  0  0  0  0  0
    0.9248   -2.9581   -0.5276 C   0  0  1  0  0  3  0  0  0  0  0  0
    1.6009   -4.1866   -0.4711 C   0  0  0  0  0  0  0  0  0  0  0  0
    2.8668   -4.2443    0.1243 C   0  0  0  0  0  0  0  0  0  0  0  0
    3.4096   -3.0853    0.6912 C   0  0  0  0  0  0  0  0  0  0  0  0
    2.6688   -1.8928    0.6374 C   0  0  0  0  0  0  0  0  0  0  0  0
    3.1395   -0.6147    1.3235 C   0  0  0  0  0  0  0  0  0  0  0  0
    3.8640   -0.0274    0.1724 C   0  0  0  0  0  2  0  0  0  0  0  0
    3.2030    1.0344   -0.5304 C   0  0  2  0  0  3  0  0  0  0  0  0
    4.0836    1.9563   -1.1586 C   0  0  0  0  0  0  0  0  0  0  0  0
    3.5940    3.1780   -1.6333 C   0  0  0  0  0  0  0  0  0  0  0  0
    2.2161    3.4073   -1.5763 C   0  0  0  0  0  0  0  0  0  0  0  0
    1.3534    2.4115   -1.0635 C   0  0  0  0  0  0  0  0  0  0  0  0
   -0.1336    2.5622   -1.0742 C   0  0  0  0  0  0  0  0  0  0  0  0
   -0.8085    1.6933   -0.0059 C   0  0  0  0  0  3  0  0  0  0  0  0
   -2.3701   -1.1894   -1.2694 C   0  0  0  0  0  0  0  0  0  0  0  0
   -1.4890   -1.9874    1.0048 C   0  0  0  0  0  0  0  0  0  0  0  0
   -3.0122   -0.5143   -3.4401 C   0  0  0  0  0  0  0  0  0  0  0  0
   -2.5900   -1.2665    2.9884 C   0  0  0  0  0  0  0  0  0  0  0  0
   -2.2899    1.6715   -0.2562 C   0  0  0  0  0  0  0  0  0  0  0  0
   -0.4100    2.0047    1.4176 C   0  0  0  0  0  0  0  0  0  0  0  0
   -4.4396    1.4337    0.6794 C   0  0  0  0  0  0  0  0  0  0  0  0
    0.9052    3.4382    2.7639 C   0  0  0  0  0  0  0  0  0  0  0  0
   -0.2831   -2.4458   -2.2002 H   0  0  0  0  0  0  0  0  0  0  0  0
   -0.9956   -3.6938   -1.1377 H   0  0  0  0  0  0  0  0  0  0  0  0
    1.1240   -5.0847   -0.8873 H   0  0  0  0  0  0  0  0  0  0  0  0
    3.4197   -5.1945    0.1684 H   0  0  0  0  0  0  0  0  0  0  0  0
    4.3860   -3.0902    1.1943 H   0  0  0  0  0  0  0  0  0  0  0  0
    3.8334   -0.9107    2.1355 H   0  0  0  0  0  0  0  0  0  0  0  0
    2.2578   -0.0714    1.7434 H   0  0  0  0  0  0  0  0  0  0  0  0
    5.1445    1.6778   -1.2113 H   0  0  0  0  0  0  0  0  0  0  0  0
    4.2716    3.9272   -2.0695 H   0  0  0  0  0  0  0  0  0  0  0  0
    1.7778    4.3443   -1.9484 H   0  0  0  0  0  0  0  0  0  0  0  0
   -0.5333    2.2279   -2.0564 H   0  0  0  0  0  0  0  0  0  0  0  0
   -0.4024    3.6375   -0.9829 H   0  0  0  0  0  0  0  0  0  0  0  0
   -2.5259   -0.3588   -4.4202 H   0  0  0  0  0  0  0  0  0  0  0  0
   -3.7793   -1.3122   -3.5108 H   0  0  0  0  0  0  0  0  0  0  0  0
   -3.4878    0.4200   -3.0864 H   0  0  0  0  0  0  0  0  0  0  0  0
   -3.6780   -1.1883    3.1772 H   0  0  0  0  0  0  0  0  0  0  0  0
   -2.1953   -2.2258    3.3750 H   0  0  0  0  0  0  0  0  0  0  0  0
   -2.0654   -0.4105    3.4571 H   0  0  0  0  0  0  0  0  0  0  0  0
   -4.8761    1.4488    1.6943 H   0  0  0  0  0  0  0  0  0  0  0  0
   -4.8315    2.2762    0.0744 H   0  0  0  0  0  0  0  0  0  0  0  0
   -4.6667    0.4776    0.1702 H   0  0  0  0  0  0  0  0  0  0  0  0
    1.4779    4.3762    2.6465 H   0  0  0  0  0  0  0  0  0  0  0  0
    0.0952    3.5679    3.5094 H   0  0  0  0  0  0  0  0  0  0  0  0
    1.5718    2.6249    3.1197 H   0  0  0  0  0  0  0  0  0  0  0  0
  2 27  1  0  0  0  0
  4 30  1  0  0  0  0
  5 31  2  0  0  0  0
  8 34  1  0  0  0  0
  9 17  1  0  0  0  0
 11 28  1  0  0  0  0
 12 36  1  0  0  0  0
 12 11  1  0  0  0  0
 13 12  1  6  0  0  0
 13 14  1  0  0  0  0
 13  9  1  0  0  0  0
 14 15  2  0  0  0  0
 15 38  1  0  0  0  0
 15 16  1  0  0  0  0
 16 39  1  0  0  0  0
 17 16  2  0  0  0  0
 17 18  1  0  0  0  0
 18 41  1  0  0  0  0
 18 40  1  0  0  0  0
 19 18  1  0  0  0  0
 20 10  1  0  0  0  0
 20 19  1  1  0  0  0
 21 20  1  0  0  0  0
 22 23  1  0  0  0  0
 22 21  2  0  0  0  0
 23 24  2  0  0  0  0
 24 10  1  0  0  0  0
 25 24  1  0  0  0  0
 25 46  1  0  0  0  0
 25 26  1  0  0  0  0
 26 32  1  0  0  0  0
 27  1  2  0  0  0  0
 27 11  1  0  0  0  0
 28  4  1  0  0  0  0
 28  3  2  0  0  0  0
 29 49  1  0  0  0  0
 29  2  1  0  0  0  0
 30 50  1  0  0  0  0
 30 51  1  0  0  0  0
 30 52  1  0  0  0  0
 31 26  1  0  0  0  0
 31  6  1  0  0  0  0
 32  8  1  0  0  0  0
 32  7  2  0  0  0  0
 33  6  1  0  0  0  0
 33 53  1  0  0  0  0
 34 58  1  0  0  0  0
 34 57  1  0  0  0  0
 35 12  1  0  0  0  0
 37 14  1  0  0  0  0
 42 21  1  0  0  0  0
 43 22  1  0  0  0  0
 44 23  1  0  0  0  0
 45 25  1  0  0  0  0
 47 29  1  0  0  0  0
 48 29  1  0  0  0  0
 54 33  1  0  0  0  0
 55 33  1  0  0  0  0
 56 34  1  0  0  0  0
M  END
