1,4,7,16
q = -2.0, confidence = 0.552

 71 74  0  0  1  0  0  0  0  0999 V2000
   -0.4873   -1.6747   -0.4892 N   0  0  0  0  0  2  0  0  0  0  0  0
    0.7542   -1.8513   -0.8715 N   0  0  0  0  0  2  0  0  0  0  0  0
    0.8941   -3.1714   -1.0672 N   0  0  0  0  0  0  0  0  0  0  0  0
   -0.4875    1.6748   -0.4892 N   0  0  0  0  0  2  0  0  0  0  0  0
    0.7540    1.8515   -0.8715 N   0  0  0  0  0  2  0  0  0  0  0  0
    0.8938    3.1716   -1.0672 N   0  0  0  0  0  0  0  0  0  0  0  0
   -3.0289   -1.4672    0.2832 C   0  0  0  0  0  2  0  0  0  0  0  0
   -2.5706   -2.7957   -0.0085 C   0  0  2  0  0  3  0  0  0  0  0  0
   -3.4055   -3.9207    0.1091 C   0  0  0  0  0  0  0  0  0  0  0  0
   -3.0239   -4.9263   -0.1300 H   0  0  0  0  0  0  0  0  0  0  0  0
   -4.7302   -3.7461    0.5288 C   0  0  0  0  0  0  0  0  0  0  0  0
   -5.4048   -4.6110    0.6166 H   0  0  0  0  0  0  0  0  0  0  0  0
   -5.1894   -2.4586    0.8426 C   0  0  0  0  0  0  0  0  0  0  0  0
   -6.2287   -2.3290    1.1883 H   0  0  0  0  0  0  0  0  0  0  0  0
   -4.3605   -1.3186    0.7379 C   0  0  0  0  0  0  0  0  0  0  0  0
   -3.0291    1.4669    0.2832 C   0  0  0  0  0  3  0  0  0  0  0  0
   -2.5710    2.7955   -0.0085 C   0  0  0  0  0  0  0  0  0  0  0  0
   -3.4059    3.9204    0.1091 C   0  0  0  0  0  0  0  0  0  0  0  0
   -3.0245    4.9261   -0.1300 H   0  0  0  0  0  0  0  0  0  0  0  0
   -4.7306    3.7457    0.5288 C   0  0  0  0  0  0  0  0  0  0  0  0
   -5.4054    4.6104    0.6167 H   0  0  0  0  0  0  0  0  0  0  0  0
   -5.1897    2.4581    0.8426 C   0  0  0  0  0  0  0  0  0  0  0  0
   -6.2290    2.3283    1.1884 H   0  0  0  0  0  0  0  0  0  0  0  0
   -4.3607    1.3182    0.7380 C   0  0  0  0  0  0  0  0  0  0  0  0
   -4.9328   -0.0002    1.2163 C   0  0  0  0  0  0  0  0  0  0  0  0
   -4.8315   -0.0002    2.3292 H   0  0  0  0  0  0  0  0  0  0  0  0
   -6.0300   -0.0003    1.0434 H   0  0  0  0  0  0  0  0  0  0  0  0
   -1.1755   -2.8715   -0.4224 C   0  0  0  0  0  0  0  0  0  0  0  0
   -0.2645   -3.8535   -0.7972 C   0  0  0  0  0  0  0  0  0  0  0  0
   -0.3436   -4.9391   -0.9000 H   0  0  0  0  0  0  0  0  0  0  0  0
   -1.1759    2.8715   -0.4224 C   0  0  0  0  0  0  0  0  0  0  0  0
   -0.2649    3.8536   -0.7972 C   0  0  0  0  0  0  0  0  0  0  0  0
   -0.3442    4.9391   -0.8999 H   0  0  0  0  0  0  0  0  0  0  0  0
    2.2039   -3.7107   -1.4042 C   0  0  0  0  0  0  0  0  0  0  0  0
    2.7030   -2.9513   -2.0379 H   0  0  0  0  0  0  0  0  0  0  0  0
    2.0456   -4.6164   -2.0244 H   0  0  0  0  0  0  0  0  0  0  0  0
    3.0506   -4.0275   -0.1685 C   0  0  0  0  0  0  0  0  0  0  0  0
    2.5097   -4.7635    0.4654 H   0  0  0  0  0  0  0  0  0  0  0  0
    3.1422   -3.1010    0.4374 H   0  0  0  0  0  0  0  0  0  0  0  0
    4.4372   -4.5646   -0.5284 C   0  0  0  0  0  0  0  0  0  0  0  0
    4.3319   -5.4812   -1.1525 H   0  0  0  0  0  0  0  0  0  0  0  0
    4.9647   -3.8240   -1.1711 H   0  0  0  0  0  0  0  0  0  0  0  0
    5.3029   -4.8818    0.6939 C   0  0  0  0  0  0  0  0  0  0  0  0
    4.7747   -5.6220    1.3366 H   0  0  0  0  0  0  0  0  0  0  0  0
    5.4055   -3.9656    1.3181 H   0  0  0  0  0  0  0  0  0  0  0  0
    6.6948   -5.4163    0.3433 C   0  0  0  0  0  0  0  0  0  0  0  0
    7.2178   -4.6743   -0.3005 H   0  0  0  0  0  0  0  0  0  0  0  0
    6.5868   -6.3303   -0.2826 H   0  0  0  0  0  0  0  0  0  0  0  0
    7.5522   -5.7297    1.5698 C   0  0  0  0  0  0  0  0  0  0  0  0
    8.5522   -6.1139    1.2849 H   0  0  0  0  0  0  0  0  0  0  0  0
    7.0708   -6.4954    2.2135 H   0  0  0  0  0  0  0  0  0  0  0  0
    7.7069   -4.8257    2.1952 H   0  0  0  0  0  0  0  0  0  0  0  0
    2.2035    3.7110   -1.4042 C   0  0  0  0  0  0  0  0  0  0  0  0
    2.0450    4.6168   -2.0242 H   0  0  0  0  0  0  0  0  0  0  0  0
    2.7026    2.9518   -2.0380 H   0  0  0  0  0  0  0  0  0  0  0  0
    3.0503    4.0278   -0.1684 C   0  0  0  0  0  0  0  0  0  0  0  0
    3.1419    3.1011    0.4373 H   0  0  0  0  0  0  0  0  0  0  0  0
    2.5093    4.7636    0.4656 H   0  0  0  0  0  0  0  0  0  0  0  0
    4.4368    4.5650   -0.5283 C   0  0  0  0  0  0  0  0  0  0  0  0
    4.3313    5.4817   -1.1523 H   0  0  0  0  0  0  0  0  0  0  0  0
    4.9642    3.8245   -1.1712 H   0  0  0  0  0  0  0  0  0  0  0  0
    5.3025    4.8821    0.6939 C   0  0  0  0  0  0  0  0  0  0  0  0
    4.7743    5.6222    1.3368 H   0  0  0  0  0  0  0  0  0  0  0  0
    5.4052    3.9658    1.3180 H   0  0  0  0  0  0  0  0  0  0  0  0
    6.6943    5.4167    0.3433 C   0  0  0  0  0  0  0  0  0  0  0  0
    7.2173    4.6749   -0.3007 H   0  0  0  0  0  0  0  0  0  0  0  0
    6.5863    6.3308   -0.2824 H   0  0  0  0  0  0  0  0  0  0  0  0
    7.5518    5.7300    1.5698 C   0  0  0  0  0  0  0  0  0  0  0  0
    8.5518    6.1143    1.2848 H   0  0  0  0  0  0  0  0  0  0  0  0
    7.7066    4.8259    2.1950 H   0  0  0  0  0  0  0  0  0  0  0  0
    7.0704    6.4956    2.2136 H   0  0  0  0  0  0  0  0  0  0  0  0
  1 28  1  0  0  0  0
  2  1  1  0  0  0  0
  3  2  1  0  0  0  0
  3 29  1  0  0  0  0
  4 31  1  0  0  0  0
  5  4  1  0  0  0  0
  6  5  1  0  0  0  0
  6 32  1  0  0  0  0
  7 15  1  0  0  0  0
  8 28  1  1  0  0  0
  8  9  1  0  0  0  0
  8  7  1  0  0  0  0
  9 11  2  0  0  0  0
 10  9  1  0  0  0  0
 11 12  1  0  0  0  0
 11 13  1  0  0  0  0
 13 14  1  0  0  0  0
 15 13  2  0  0  0  0
 15 25  1  0  0  0  0
 16 24  1  0  0  0  0
 17 18  1  0  0  0  0
 17 16  2  0  0  0  0
 18 20  2  0  0  0  0
 19 18  1  0  0  0  0
 20 21  1  0  0  0  0
 20 22  1  0  0  0  0
 22 23  1  0  0  0  0
 24 22  2  0  0  0  0
 24 25  1  0  0  0  0
 25 26  1  0  0  0  0
 27 25  1  0  0  0  0
 29 28  2  0  0  0  0
 30 29  1  0  0  0  0
 31 17  1  0  0  0  0
 32 31  2  0  0  0  0
 33 32  1  0  0  0  0
 34  3  1  0  0  0  0
 34 37  1  0  0  0  0
 35 34  1  0  0  0  0
 36 34  1  0  0  0  0
 37 39  1  0  0  0  0
 37 38  1  0  0  0  0
 40 37  1  0  0  0  0
 40 43  1  0  0  0  0
 41 40  1  0  0  0  0
 42 40  1  0  0  0  0
 43 45  1  0  0  0  0
 43 44  1  0  0  0  0
 46 43  1  0  0  0  0
 46 49  1  0  0  0  0
 47 46  1  0  0  0  0
 48 46  1  0  0  0  0
 49 52  1  0  0  0  0
 49 51  1  0  0  0  0
 50 49  1  0  0  0  0
 53  6  1  0  0  0  0
 53 56  1  0  0  0  0
 54 53  1  0  0  0  0
 55 53  1  0  0  0  0
 56 57  1  0  0  0  0
 56 58  1  0  0  0  0
 59 56  1  0  0  0  0
 59 62  1  0  0  0  0
 60 59  1  0  0  0  0
 61 59  1  0  0  0  0
 62 64  1  0  0  0  0
 62 63  1  0  0  0  0
 65 62  1  0  0  0  0
 65 68  1  0  0  0  0
 66 65  1  0  0  0  0
 67 65  1  0  0  0  0
 68 70  1  0  0  0  0
 68 71  1  0  0  0  0
 69 68  1  0  0  0  0
M  END
