2,5,8,17
q = 0.0, confidence = 0.572

 54 57  0  0  1  0  0  0  0  0999 V2000
   -3.7212   -2.1149    0.5976 O   0  0  0  0  0  0  0  0  0  0  0  0
   -1.2513    2.1103   -0.2072 N   0  0  0  0  0  2  0  0  0  0  0  0
   -0.4120    3.0830   -0.4606 N   0  0  0  0  0  2  0  0  0  0  0  0
   -1.1179    4.2199   -0.3421 N   0  0  0  0  0  0  0  0  0  0  0  0
    0.8409   -0.5789   -0.5930 N   0  0  0  0  0  2  0  0  0  0  0  0
    1.9509    0.0470   -0.8992 N   0  0  0  0  0  2  0  0  0  0  0  0
    2.8718   -0.9092   -1.0948 N   0  0  0  0  0  0  0  0  0  0  0  0
   -3.0641    0.2509    0.3259 C   0  0  0  0  0  3  0  0  0  0  0  0
   -3.5429    1.5984    0.3806 C   0  0  0  0  0  0  0  0  0  0  0  0
   -4.8776    1.9110    0.6946 C   0  0  0  0  0  0  0  0  0  0  0  0
   -5.2150    2.9586    0.7285 H   0  0  0  0  0  0  0  0  0  0  0  0
   -5.7751    0.8664    0.9647 C   0  0  0  0  0  0  0  0  0  0  0  0
   -6.8240    1.0871    1.2127 H   0  0  0  0  0  0  0  0  0  0  0  0
   -5.3384   -0.4636    0.9193 C   0  0  0  0  0  0  0  0  0  0  0  0
   -6.0249   -1.2977    1.1273 H   0  0  0  0  0  0  0  0  0  0  0  0
   -3.9965   -0.7698    0.6031 C   0  0  0  0  0  0  0  0  0  0  0  0
   -1.3274   -1.9819    0.0014 C   0  0  0  0  0  2  0  0  0  0  0  0
   -2.5039   -2.6887    0.3235 C   0  0  0  0  0  0  0  0  0  0  0  0
   -2.5108   -4.0995    0.3891 C   0  0  0  0  0  0  0  0  0  0  0  0
   -3.4555   -4.6017    0.6447 H   0  0  0  0  0  0  0  0  0  0  0  0
   -1.3439   -4.8308    0.1345 C   0  0  0  0  0  0  0  0  0  0  0  0
   -1.3666   -5.9293    0.1897 H   0  0  0  0  0  0  0  0  0  0  0  0
   -0.1520   -4.1637   -0.1893 C   0  0  0  0  0  0  0  0  0  0  0  0
    0.7686   -4.7332   -0.3903 H   0  0  0  0  0  0  0  0  0  0  0  0
   -0.1528   -2.7590   -0.2526 C   0  0  2  0  0  3  0  0  0  0  0  0
   -2.5174    2.5916    0.0810 C   0  0  0  0  0  0  0  0  0  0  0  0
   -2.4253    3.9758   -0.0087 C   0  0  0  0  0  0  0  0  0  0  0  0
   -3.1561    4.7768    0.1319 H   0  0  0  0  0  0  0  0  0  0  0  0
   -0.4680    5.4959   -0.5640 C   0  0  0  0  0  0  0  0  0  0  0  0
   -0.9477    6.0380   -1.4029 H   0  0  0  0  0  0  0  0  0  0  0  0
    0.5864    5.2863   -0.8159 H   0  0  0  0  0  0  0  0  0  0  0  0
   -0.5127    6.1214    0.3495 H   0  0  0  0  0  0  0  0  0  0  0  0
    1.0189   -1.9518   -0.5754 C   0  0  0  0  0  0  0  0  0  0  0  0
    2.3540   -2.1638   -0.9000 C   0  0  0  0  0  0  0  0  0  0  0  0
    2.9542   -3.0706   -1.0128 H   0  0  0  0  0  0  0  0  0  0  0  0
    4.2543   -0.5314   -1.3534 C   0  0  0  0  0  0  0  0  0  0  0  0
    4.2187    0.4053   -1.9438 H   0  0  0  0  0  0  0  0  0  0  0  0
    4.7038   -1.3171   -1.9941 H   0  0  0  0  0  0  0  0  0  0  0  0
    5.0642   -0.3339   -0.0692 C   0  0  0  0  0  0  0  0  0  0  0  0
    5.0516   -1.2775    0.5188 H   0  0  0  0  0  0  0  0  0  0  0  0
    4.5495    0.4288    0.5532 H   0  0  0  0  0  0  0  0  0  0  0  0
    6.5075    0.0929   -0.3440 C   0  0  0  0  0  0  0  0  0  0  0  0
    7.0061   -0.6686   -0.9859 H   0  0  0  0  0  0  0  0  0  0  0  0
    6.5075    1.0333   -0.9402 H   0  0  0  0  0  0  0  0  0  0  0  0
    7.3327    0.3000    0.9289 C   0  0  0  0  0  0  0  0  0  0  0  0
    7.3319   -0.6407    1.5247 H   0  0  0  0  0  0  0  0  0  0  0  0
    6.8316    1.0592    1.5710 H   0  0  0  0  0  0  0  0  0  0  0  0
    8.7781    0.7321    0.6648 C   0  0  0  0  0  0  0  0  0  0  0  0
    8.7737    1.6715    0.0681 H   0  0  0  0  0  0  0  0  0  0  0  0
    9.2735   -0.0280    0.0202 H   0  0  0  0  0  0  0  0  0  0  0  0
    9.5942    0.9362    1.9415 C   0  0  0  0  0  0  0  0  0  0  0  0
   10.6342    1.2484    1.7188 H   0  0  0  0  0  0  0  0  0  0  0  0
    9.6463    0.0029    2.5404 H   0  0  0  0  0  0  0  0  0  0  0  0
    9.1421    1.7166    2.5886 H   0  0  0  0  0  0  0  0  0  0  0  0
  1 16  1  0  0  0  0
  2 26  1  0  0  0  0
  3  4  1  0  0  0  0
  3  2  1  0  0  0  0
  4 27  1  0  0  0  0
  5 33  1  0  0  0  0
  6  5  1  0  0  0  0
  7 34  1  0  0  0  0
  7  6  1  0  0  0  0
  8  9  2  0  0  0  0
  8 16  1  0  0  0  0
  9 10  1  0  0  0  0
 10 11  1  0  0  0  0
 10 12  2  0  0  0  0
 12 13  1  0  0  0  0
 14 12  1  0  0  0  0
 14 15  1  0  0  0  0
 16 14  2  0  0  0  0
 17 18  1  0  0  0  0
 18 19  2  0  0  0  0
 18  1  1  0  0  0  0
 19 20  1  0  0  0  0
 21 22  1  0  0  0  0
 21 19  1  0  0  0  0
 23 21  2  0  0  0  0
 24 23  1  0  0  0  0
 25 33  1  1  0  0  0
 25 23  1  0  0  0  0
 25 17  1  0  0  0  0
 26  9  1  0  0  0  0
 27 26  2  0  0  0  0
 27 28  1  0  0  0  0
 29  4  1  0  0  0  0
 29 32  1  0  0  0  0
 30 29  1  0  0  0  0
 31 29  1  0  0  0  0
 34 33  2  0  0  0  0
 35 34  1  0  0  0  0
 36  7  1  0  0  0  0
 36 39  1  0  0  0  0
 37 36  1  0  0  0  0
 38 36  1  0  0  0  0
 39 40  1  0  0  0  0
 39 41  1  0  0  0  0
 42 39  1  0  0  0  0
 42 45  1  0  0  0  0
 43 42  1  0  0  0  0
 44 42  1  0  0  0  0
 45 46  1  0  0  0  0
 45 47  1  0  0  0  0
 48 45  1  0  0  0  0
 48 51  1  0  0  0  0
 49 48  1  0  0  0  0
 50 48  1  0  0  0  0
 51 53  1  0  0  0  0
 51 54  1  0  0  0  0
 52 51  1  0  0  0  0
M  END
