22,23,39,44
q = -1.0, confidence = 0.088

 82 90  0  0  0  0  0  0  0  0999 V2000
    2.6536   -4.5656    2.2166 F   0  0  0  0  0  0  0  0  0  0  0  0
    4.2642   -6.7575    2.2000 F   0  0  0  0  0  0  0  0  0  0  0  0
    5.7251   -7.3655   -0.0334 F   0  0  0  0  0  0  0  0  0  0  0  0
    5.5695   -5.7732   -2.2545 F   0  0  0  0  0  0  0  0  0  0  0  0
    3.9586   -3.5808   -2.2456 F   0  0  0  0  0  0  0  0  0  0  0  0
   -4.3752   -2.2460    2.0845 F   0  0  0  0  0  0  0  0  0  0  0  0
   -6.6478   -3.7204    1.9739 F   0  0  0  0  0  0  0  0  0  0  0  0
   -7.1765   -5.2635   -0.2288 F   0  0  0  0  0  0  0  0  0  0  0  0
   -5.4317   -5.2821   -2.3419 F   0  0  0  0  0  0  0  0  0  0  0  0
   -3.1809   -3.7636   -2.2589 F   0  0  0  0  0  0  0  0  0  0  0  0
   -1.7000    4.9124   -1.9637 F   0  0  0  0  0  0  0  0  0  0  0  0
   -3.3908    7.0347   -2.0098 F   0  0  0  0  0  0  0  0  0  0  0  0
   -5.3138    7.3008   -0.0740 F   0  0  0  0  0  0  0  0  0  0  0  0
   -5.5178    5.4403    1.9197 F   0  0  0  0  0  0  0  0  0  0  0  0
   -3.8064    3.3506    2.0155 F   0  0  0  0  0  0  0  0  0  0  0  0
    4.9876    2.1764    2.2733 F   0  0  0  0  0  0  0  0  0  0  0  0
    7.1302    3.8413    2.3421 F   0  0  0  0  0  0  0  0  0  0  0  0
    7.6378    5.5133    0.2354 F   0  0  0  0  0  0  0  0  0  0  0  0
    5.9906    5.5069   -1.9514 F   0  0  0  0  0  0  0  0  0  0  0  0
    3.8521    3.8350   -2.0394 F   0  0  0  0  0  0  0  0  0  0  0  0
   -5.1116   -0.5210   -0.1318 O   0  0  0  0  0  0  0  0  0  0  0  0
    2.3926   -0.3126    0.0198 N   0  0  0  0  0  2  0  0  0  0  0  0
   -0.0119   -2.0736   -0.0219 N   0  0  0  0  0  0  0  0  0  0  0  0
   -3.7663    1.3805   -0.0682 N   0  0  0  0  0  0  0  0  0  0  0  0
    0.2685    4.2067    0.1155 N   0  0  0  0  0  0  0  0  0  0  0  0
    3.3844    0.6591    0.0423 C   0  0  0  0  0  0  0  0  0  0  0  0
    4.6799    0.0041    0.0311 C   0  0  0  0  0  0  0  0  0  0  0  0
    4.4515   -1.3460    0.0193 C   0  0  0  0  0  0  0  0  0  0  0  0
    3.0090   -1.5392    0.0057 C   0  0  0  0  0  0  0  0  0  0  0  0
    2.3714   -2.8031   -0.0093 C   0  0  0  0  0  0  0  0  0  0  0  0
    0.9768   -3.0325   -0.0170 C   0  0  0  0  0  3  0  0  0  0  0  0
    0.3568   -4.3466   -0.0255 C   0  0  0  0  0  0  0  0  0  0  0  0
   -1.0006   -4.1529   -0.0216 C   0  0  0  0  0  0  0  0  0  0  0  0
   -1.2309   -2.7212   -0.0305 C   0  0  0  0  0  0  0  0  0  0  0  0
   -2.4912   -2.0931   -0.0474 C   0  0  0  0  0  0  0  0  0  0  0  0
   -2.6452   -0.6828   -0.0444 C   0  0  0  0  0  0  0  0  0  0  0  0
   -3.9249    0.0814   -0.0854 C   0  0  0  0  0  0  0  0  0  0  0  0
   -2.3764    1.5784   -0.0132 C   0  0  0  0  0  0  0  0  0  0  0  0
   -1.6622    0.3299   -0.0070 C   0  0  0  0  0  2  0  0  0  0  0  0
   -1.8176    2.8560    0.0176 C   0  0  0  0  0  0  0  0  0  0  0  0
   -0.3952    2.9772    0.0374 C   0  0  0  0  0  0  0  0  0  0  0  0
    1.6036    4.0235    0.1322 C   0  0  0  0  0  0  0  0  0  0  0  0
    1.8624    2.6234    0.0650 C   0  0  0  0  0  0  0  0  0  0  0  0
    0.5862    1.9747    0.0129 C   0  0  0  0  0  3  0  0  0  0  0  0
    3.1695    2.0412    0.0702 C   0  0  0  0  0  0  0  0  0  0  0  0
    3.2554   -4.0059   -0.0147 C   0  0  0  0  0  0  0  0  0  0  0  0
    3.3566   -4.8432    1.1130 C   0  0  0  0  0  0  0  0  0  0  0  0
    4.1831   -5.9790    1.1181 C   0  0  0  0  0  0  0  0  0  0  0  0
    4.9354   -6.2913   -0.0275 C   0  0  0  0  0  0  0  0  0  0  0  0
    4.8560   -5.4717   -1.1667 C   0  0  0  0  0  0  0  0  0  0  0  0
    4.0187   -4.3441   -1.1487 C   0  0  0  0  0  0  0  0  0  0  0  0
   -3.6960   -2.9709   -0.0748 C   0  0  0  0  0  0  0  0  0  0  0  0
   -4.6021   -2.9966    1.0013 C   0  0  0  0  0  0  0  0  0  0  0  0
   -5.7770   -3.7583    0.9578 C   0  0  0  0  0  0  0  0  0  0  0  0
   -6.0598   -4.5354   -0.1783 C   0  0  0  0  0  0  0  0  0  0  0  0
   -5.1653   -4.5424   -1.2613 C   0  0  0  0  0  0  0  0  0  0  0  0
   -4.0002   -3.7594   -1.1999 C   0  0  0  0  0  0  0  0  0  0  0  0
   -6.2791    0.3211   -0.0129 C   0  0  0  0  0  0  0  0  0  0  0  0
   -7.4813   -0.5903    0.1224 C   0  0  0  0  0  0  0  0  0  0  0  0
   -2.7013    4.0448    0.0190 C   0  0  0  0  0  0  0  0  0  0  0  0
   -2.6177    5.0283   -0.9891 C   0  0  0  0  0  0  0  0  0  0  0  0
   -3.4901    6.1272   -1.0345 C   0  0  0  0  0  0  0  0  0  0  0  0
   -4.4799    6.2613   -0.0465 C   0  0  0  0  0  0  0  0  0  0  0  0
   -4.5858    5.3003    0.9738 C   0  0  0  0  0  0  0  0  0  0  0  0
   -3.6988    4.2126    1.0051 C   0  0  0  0  0  0  0  0  0  0  0  0
    4.3505    2.9463    0.1123 C   0  0  0  0  0  0  0  0  0  0  0  0
    5.2168    2.9736    1.2244 C   0  0  0  0  0  0  0  0  0  0  0  0
    6.3279    3.8315    1.2754 C   0  0  0  0  0  0  0  0  0  0  0  0
    6.5875    4.6940    0.1963 C   0  0  0  0  0  0  0  0  0  0  0  0
    5.7385    4.6924   -0.9240 C   0  0  0  0  0  0  0  0  0  0  0  0
    4.6355    3.8235   -0.9540 C   0  0  0  0  0  0  0  0  0  0  0  0
    5.6471    0.5176    0.0299 H   0  0  0  0  0  0  0  0  0  0  0  0
    5.1954   -2.1492    0.0218 H   0  0  0  0  0  0  0  0  0  0  0  0
   -0.2026    5.1123    0.1399 H   0  0  0  0  0  0  0  0  0  0  0  0
    0.8961   -5.2992   -0.0342 H   0  0  0  0  0  0  0  0  0  0  0  0
   -1.7848   -4.9171   -0.0119 H   0  0  0  0  0  0  0  0  0  0  0  0
    2.3019    4.8650    0.1974 H   0  0  0  0  0  0  0  0  0  0  0  0
   -6.1414    0.9865    0.8655 H   0  0  0  0  0  0  0  0  0  0  0  0
   -6.3359    0.9780   -0.9070 H   0  0  0  0  0  0  0  0  0  0  0  0
   -7.3830   -1.2465    1.0100 H   0  0  0  0  0  0  0  0  0  0  0  0
   -8.4041    0.0119    0.2344 H   0  0  0  0  0  0  0  0  0  0  0  0
   -7.5947   -1.2346   -0.7723 H   0  0  0  0  0  0  0  0  0  0  0  0
  3 49  1  0  0  0  0
  4 50  1  0  0  0  0
  5 51  1  0  0  0  0
  8 55  1  0  0  0  0
  9 56  1  0  0  0  0
 10 57  1  0  0  0  0
 11 61  1  0  0  0  0
 12 62  1  0  0  0  0
 13 63  1  0  0  0  0
 19 70  1  0  0  0  0
 20 71  1  0  0  0  0
 21 37  1  0  0  0  0
 21 58  1  0  0  0  0
 22 26  1  0  0  0  0
 23 31  1  0  0  0  0
 24 38  1  0  0  0  0
 25 42  1  0  0  0  0
 25 74  1  0  0  0  0
 26 45  2  0  0  0  0
 27 26  1  0  0  0  0
 28 73  1  0  0  0  0
 28 27  2  0  0  0  0
 29 28  1  0  0  0  0
 29 22  1  0  0  0  0
 30 29  2  0  0  0  0
 31 30  1  0  0  0  0
 32 33  2  0  0  0  0
 32 31  1  0  0  0  0
 33 76  1  0  0  0  0
 34 23  2  0  0  0  0
 34 33  1  0  0  0  0
 35 36  2  0  0  0  0
 35 34  1  0  0  0  0
 36 39  1  0  0  0  0
 37 24  2  0  0  0  0
 37 36  1  0  0  0  0
 38 39  1  0  0  0  0
 38 40  2  0  0  0  0
 40 60  1  0  0  0  0
 40 41  1  0  0  0  0
 41 25  1  0  0  0  0
 42 77  1  0  0  0  0
 43 45  1  0  0  0  0
 43 42  2  0  0  0  0
 44 41  2  0  0  0  0
 44 43  1  0  0  0  0
 45 66  1  0  0  0  0
 46 30  1  0  0  0  0
 46 47  1  0  0  0  0
 47 48  2  0  0  0  0
 47  1  1  0  0  0  0
 48  2  1  0  0  0  0
 49 48  1  0  0  0  0
 50 51  1  0  0  0  0
 50 49  2  0  0  0  0
 51 46  2  0  0  0  0
 52 35  1  0  0  0  0
 52 53  1  0  0  0  0
 53  6  1  0  0  0  0
 54 53  2  0  0  0  0
 54  7  1  0  0  0  0
 55 54  1  0  0  0  0
 56 57  1  0  0  0  0
 56 55  2  0  0  0  0
 57 52  2  0  0  0  0
 58 59  1  0  0  0  0
 58 78  1  0  0  0  0
 59 81  1  0  0  0  0
 59 80  1  0  0  0  0
 60 65  1  0  0  0  0
 61 60  2  0  0  0  0
 62 61  1  0  0  0  0
 62 63  2  0  0  0  0
 63 64  1  0  0  0  0
 64 65  2  0  0  0  0
 64 14  1  0  0  0  0
 65 15  1  0  0  0  0
 66 67  1  0  0  0  0
 67 68  2  0  0  0  0
 67 16  1  0  0  0  0
 68 17  1  0  0  0  0
 69 18  1  0  0  0  0
 69 68  1  0  0  0  0
 70 69  2  0  0  0  0
 71 70  1  0  0  0  0
 71 66  2  0  0  0  0
 72 27  1  0  0  0  0
 75 32  1  0  0  0  0
 79 58  1  0  0  0  0
 82 59  1  0  0  0  0
M  END
