18,23,35,42
q = -1.0, confidence = 0.064

 70 73  0  0  1  0  0  0  0  0999 V2000
   -6.5045   -1.4194   -1.3212 C   0  0  0  0  0  0  0  0  0  0  0  0
   -6.6502   -0.4801   -1.8977 H   0  0  0  0  0  0  0  0  0  0  0  0
   -7.3598   -1.5008   -0.6205 H   0  0  0  0  0  0  0  0  0  0  0  0
   -6.5641   -2.2611   -2.0385 H   0  0  0  0  0  0  0  0  0  0  0  0
   -5.1864   -1.3985   -0.5896 C   0  0  0  0  0  0  0  0  0  0  0  0
   -5.0281   -0.6314    0.5825 C   0  0  0  0  0  0  0  0  0  0  0  0
   -5.8866   -0.0677    0.9809 H   0  0  0  0  0  0  0  0  0  0  0  0
   -3.7942   -0.5587    1.2411 C   0  0  0  0  0  0  0  0  0  0  0  0
   -3.6528    0.0506    2.1445 H   0  0  0  0  0  0  0  0  0  0  0  0
   -2.6991   -1.2595    0.7206 C   0  0  0  0  0  0  0  0  0  0  0  0
   -2.8294   -2.0533   -0.4284 C   0  0  0  0  0  0  0  0  0  0  0  0
   -1.9607   -2.6053   -0.8166 H   0  0  0  0  0  0  0  0  0  0  0  0
   -4.0712   -2.1163   -1.0732 C   0  0  0  0  0  0  0  0  0  0  0  0
   -4.1805   -2.7337   -1.9795 H   0  0  0  0  0  0  0  0  0  0  0  0
   -1.0848   -1.0851    1.5149 S   0  0  0  0  0  0  0  0  0  0  0  0
   -1.3058   -0.2274    2.7101 O   0  0  0  0  0  0  0  0  0  0  0  0
   -0.5492   -2.4612    1.6758 O   0  0  0  0  0  0  0  0  0  0  0  0
   -0.1611   -0.3061    0.3528 N   0  0  0  0  0  2  0  0  0  0  0  0
   -0.2724    1.1549    0.4482 C   0  0  1  0  0  0  0  0  0  0  0  0
   -0.0969    1.4981    1.4944 H   0  0  0  0  0  0  0  0  0  0  0  0
    0.8379    1.7685   -0.4302 C   0  0  2  0  0  0  0  0  0  0  0  0
    0.6218    1.5282   -1.4928 H   0  0  0  0  0  0  0  0  0  0  0  0
    2.1018    1.0673   -0.0857 N   0  0  0  0  0  0  0  0  0  0  0  0
    2.2721    1.1578    0.9410 H   0  0  0  0  0  0  0  0  0  0  0  0
    3.3003    1.5587   -0.8034 C   0  0  0  0  0  0  0  0  0  0  0  0
    3.4626    2.6193   -0.5163 H   0  0  0  0  0  0  0  0  0  0  0  0
    3.0787    1.5628   -1.8918 H   0  0  0  0  0  0  0  0  0  0  0  0
    4.5598    0.7423   -0.4886 C   0  0  0  0  0  0  0  0  0  0  0  0
    4.5561    0.5014    0.5965 H   0  0  0  0  0  0  0  0  0  0  0  0
    5.4439    1.3880   -0.6705 H   0  0  0  0  0  0  0  0  0  0  0  0
    4.7277   -0.5575   -1.3025 C   0  0  0  0  0  0  0  0  0  0  0  0
    4.8983   -0.3039   -2.3705 H   0  0  0  0  0  0  0  0  0  0  0  0
    5.6411   -1.0811   -0.9554 H   0  0  0  0  0  0  0  0  0  0  0  0
    3.5423   -1.4934   -1.2068 C   0  0  2  0  0  3  0  0  0  0  0  0
    2.3921   -1.2833   -2.0607 C   0  0  0  0  0  3  0  0  0  0  0  0
    2.4228   -0.4948   -2.8294 H   0  0  0  0  0  0  0  0  0  0  0  0
    1.1941   -2.0325   -1.8878 C   0  0  0  0  0  3  0  0  0  0  0  0
    0.3053   -1.8341   -2.5030 H   0  0  0  0  0  0  0  0  0  0  0  0
    1.1359   -3.0948   -0.9143 C   0  0  0  0  0  0  0  0  0  0  0  0
    2.1991   -3.2192    0.0196 C   0  0  0  0  0  0  0  0  0  0  0  0
    2.1025   -3.8793    0.8900 H   0  0  0  0  0  0  0  0  0  0  0  0
    3.4026   -2.4318   -0.1445 C   0  0  0  0  0  3  0  0  0  0  0  0
    4.1953   -2.5120    0.6136 H   0  0  0  0  0  0  0  0  0  0  0  0
    0.0181   -3.8357   -0.9282 O   0  0  0  0  0  0  0  0  0  0  0  0
   -0.1354   -4.8849    0.0353 C   0  0  0  0  0  0  0  0  0  0  0  0
   -1.0722   -5.4033   -0.2379 H   0  0  0  0  0  0  0  0  0  0  0  0
   -0.2301   -4.4546    1.0506 H   0  0  0  0  0  0  0  0  0  0  0  0
    0.7142   -5.5977   -0.0284 H   0  0  0  0  0  0  0  0  0  0  0  0
    0.9154    3.2731   -0.2608 C   0  0  0  0  0  0  0  0  0  0  0  0
    1.3338    3.8350    0.9631 C   0  0  0  0  0  0  0  0  0  0  0  0
    1.6278    3.1790    1.7990 H   0  0  0  0  0  0  0  0  0  0  0  0
    1.3695    5.2264    1.1322 C   0  0  0  0  0  0  0  0  0  0  0  0
    1.6990    5.6517    2.0922 H   0  0  0  0  0  0  0  0  0  0  0  0
    0.9771    6.0742    0.0832 C   0  0  0  0  0  0  0  0  0  0  0  0
    1.0002    7.1663    0.2180 H   0  0  0  0  0  0  0  0  0  0  0  0
    0.5515    5.5230   -1.1349 C   0  0  0  0  0  0  0  0  0  0  0  0
    0.2350    6.1809   -1.9585 H   0  0  0  0  0  0  0  0  0  0  0  0
    0.5248    4.1304   -1.3047 C   0  0  0  0  0  0  0  0  0  0  0  0
    0.1788    3.6962   -2.2557 H   0  0  0  0  0  0  0  0  0  0  0  0
   -1.6292    1.6825    0.0009 C   0  0  0  0  0  0  0  0  0  0  0  0
   -2.3336    2.6129    0.7828 C   0  0  0  0  0  0  0  0  0  0  0  0
   -1.9009    2.9448    1.7390 H   0  0  0  0  0  0  0  0  0  0  0  0
   -3.5819    3.0971    0.3611 C   0  0  0  0  0  0  0  0  0  0  0  0
   -4.1274    3.8211    0.9856 H   0  0  0  0  0  0  0  0  0  0  0  0
   -4.1385    2.6503   -0.8470 C   0  0  0  0  0  0  0  0  0  0  0  0
   -5.1224    3.0211   -1.1731 H   0  0  0  0  0  0  0  0  0  0  0  0
   -3.4403    1.7174   -1.6329 C   0  0  0  0  0  0  0  0  0  0  0  0
   -3.8795    1.3486   -2.5726 H   0  0  0  0  0  0  0  0  0  0  0  0
   -2.1933    1.2396   -1.2108 C   0  0  0  0  0  0  0  0  0  0  0  0
   -1.6587    0.4761   -1.7964 H   0  0  0  0  0  0  0  0  0  0  0  0
  1  3  1  0  0  0  0
  1  5  1  0  0  0  0
  2  1  1  0  0  0  0
  4  1  1  0  0  0  0
  5  6  1  0  0  0  0
  6  7  1  0  0  0  0
  6  8  2  0  0  0  0
  8  9  1  0  0  0  0
 10  8  1  0  0  0  0
 10 15  1  0  0  0  0
 11 10  2  0  0  0  0
 12 11  1  0  0  0  0
 13  5  2  0  0  0  0
 13 11  1  0  0  0  0
 14 13  1  0  0  0  0
 15 17  2  0  0  0  0
 15 16  2  0  0  0  0
 18 19  1  0  0  0  0
 18 15  1  0  0  0  0
 19 20  1  1  0  0  0
 21 22  1  6  0  0  0
 21 49  1  0  0  0  0
 21 23  1  0  0  0  0
 21 19  1  0  0  0  0
 23 24  1  0  0  0  0
 25 26  1  0  0  0  0
 25 28  1  0  0  0  0
 25 23  1  0  0  0  0
 27 25  1  0  0  0  0
 28 29  1  0  0  0  0
 30 28  1  0  0  0  0
 31 33  1  0  0  0  0
 31 28  1  0  0  0  0
 32 31  1  0  0  0  0
 34 31  1  1  0  0  0
 34 42  1  0  0  0  0
 35 37  1  0  0  0  0
 35 34  1  0  0  0  0
 36 35  1  0  0  0  0
 37 39  1  0  0  0  0
 38 37  1  0  0  0  0
 39 40  2  0  0  0  0
 40 41  1  0  0  0  0
 42 40  1  0  0  0  0
 42 43  1  0  0  0  0
 44 39  1  0  0  0  0
 44 45  1  0  0  0  0
 45 47  1  0  0  0  0
 46 45  1  0  0  0  0
 48 45  1  0  0  0  0
 49 50  1  0  0  0  0
 50 52  2  0  0  0  0
 50 51  1  0  0  0  0
 52 53  1  0  0  0  0
 54 55  1  0  0  0  0
 54 52  1  0  0  0  0
 56 54  2  0  0  0  0
 57 56  1  0  0  0  0
 58 56  1  0  0  0  0
 58 49  2  0  0  0  0
 59 58  1  0  0  0  0
 60 19  1  0  0  0  0
 60 61  1  0  0  0  0
 61 62  1  0  0  0  0
 63 61  2  0  0  0  0
 63 64  1  0  0  0  0
 65 63  1  0  0  0  0
 66 65  1  0  0  0  0
 67 69  1  0  0  0  0
 67 65  2  0  0  0  0
 68 67  1  0  0  0  0
 69 60  2  0  0  0  0
 70 69  1  0  0  0  0
M  END
