5,6,9,20
q = -2.0, confidence = 0.894

 44 46  0  0  0  0  0  0  0  0999 V2000
   -2.6687   -3.1283   -0.8189 O   0  0  0  0  0  0  0  0  0  0  0  0
    0.7910   -2.8202   -0.6633 N   0  0  0  0  0  0  0  0  0  0  0  0
    2.4441   -3.4380    0.6143 N   0  0  0  0  0  0  0  0  0  0  0  0
    1.4903    2.6254   -0.5123 N   0  0  0  0  0  0  0  0  0  0  0  0
   -1.5714   -1.1223   -0.2925 N   0  0  0  0  0  2  0  0  0  0  0  0
   -1.2573    1.5277   -0.1418 N   0  0  0  0  0  2  0  0  0  0  0  0
   -4.7392    1.2098    1.2711 C   0  0  0  0  0  0  0  0  0  0  0  0
   -5.5450    1.8426    1.6752 H   0  0  0  0  0  0  0  0  0  0  0  0
    1.2580   -1.6278   -0.0819 C   0  0  0  0  0  3  0  0  0  0  0  0
    2.9787    1.2729    0.3641 C   0  0  0  0  0  0  0  0  0  0  0  0
    3.5786    0.4506    0.7606 H   0  0  0  0  0  0  0  0  0  0  0  0
    2.3134   -2.0554    0.7197 C   0  0  0  0  0  0  0  0  0  0  0  0
    2.9484   -1.4969    1.4126 H   0  0  0  0  0  0  0  0  0  0  0  0
   -2.6627   -0.3999    0.2436 C   0  0  0  0  0  0  0  0  0  0  0  0
   -1.6843   -2.3733   -0.7931 C   0  0  0  0  0  0  0  0  0  0  0  0
    2.5785    3.3688   -0.2384 C   0  0  0  0  0  3  0  0  0  0  0  0
    2.6951    4.4412   -0.4235 H   0  0  0  0  0  0  0  0  0  0  0  0
   -3.5442    1.8096    0.8454 C   0  0  0  0  0  0  0  0  0  0  0  0
   -3.4035    2.8951    0.8863 H   0  0  0  0  0  0  0  0  0  0  0  0
    1.6797    1.2821   -0.1378 C   0  0  0  0  0  3  0  0  0  0  0  0
   -0.3959   -2.8827   -1.5050 C   0  0  0  0  0  0  0  0  0  0  0  0
   -0.5784   -3.9332   -1.7925 H   0  0  0  0  0  0  0  0  0  0  0  0
   -0.2091   -2.2725   -2.4116 H   0  0  0  0  0  0  0  0  0  0  0  0
    1.4976   -3.8835   -0.2376 C   0  0  0  0  0  3  0  0  0  0  0  0
    1.3382   -4.9271   -0.5263 H   0  0  0  0  0  0  0  0  0  0  0  0
   -2.4914    1.0201    0.3324 C   0  0  0  0  0  0  0  0  0  0  0  0
   -1.7936    3.8121   -0.1945 O   0  0  0  0  0  0  0  0  0  0  0  0
    3.5109    2.5572    0.3005 N   0  0  0  0  0  0  0  0  0  0  0  0
   -3.8779   -0.9812    0.6637 C   0  0  0  0  0  0  0  0  0  0  0  0
   -3.9980   -2.0651    0.5576 H   0  0  0  0  0  0  0  0  0  0  0  0
   -1.0472    2.8396   -0.3921 C   0  0  0  0  0  0  0  0  0  0  0  0
    4.8263    2.9632    0.7633 C   0  0  0  0  0  0  0  0  0  0  0  0
    4.9198    2.8003    1.8555 H   0  0  0  0  0  0  0  0  0  0  0  0
    4.9811    4.0361    0.5489 H   0  0  0  0  0  0  0  0  0  0  0  0
    5.6118    2.3789    0.2445 H   0  0  0  0  0  0  0  0  0  0  0  0
   -4.9066   -0.1790    1.1803 C   0  0  0  0  0  0  0  0  0  0  0  0
   -5.8453   -0.6506    1.5107 H   0  0  0  0  0  0  0  0  0  0  0  0
    0.2792    3.1386   -1.1420 C   0  0  0  0  0  0  0  0  0  0  0  0
    0.2153    2.7041   -2.1612 H   0  0  0  0  0  0  0  0  0  0  0  0
    0.3598    4.2374   -1.2176 H   0  0  0  0  0  0  0  0  0  0  0  0
    3.4157   -4.2619    1.3117 C   0  0  0  0  0  0  0  0  0  0  0  0
    4.4462   -3.9726    1.0249 H   0  0  0  0  0  0  0  0  0  0  0  0
    3.2576   -5.3240    1.0508 H   0  0  0  0  0  0  0  0  0  0  0  0
    3.3012   -4.1444    2.4075 H   0  0  0  0  0  0  0  0  0  0  0  0
  1 15  2  0  0  0  0
  2 24  1  0  0  0  0
  2  9  1  0  0  0  0
  3 12  1  0  0  0  0
  3 41  1  0  0  0  0
  4 16  1  0  0  0  0
  4 20  1  0  0  0  0
  5 14  1  0  0  0  0
  6 26  1  0  0  0  0
  7  8  1  0  0  0  0
  9 12  2  0  0  0  0
 10 11  1  0  0  0  0
 12 13  1  0  0  0  0
 14 26  2  0  0  0  0
 14 29  1  0  0  0  0
 15  5  1  0  0  0  0
 16 28  1  0  0  0  0
 17 16  1  0  0  0  0
 18 19  1  0  0  0  0
 18  7  2  0  0  0  0
 20 10  2  0  0  0  0
 21 15  1  0  0  0  0
 21  2  1  0  0  0  0
 22 21  1  0  0  0  0
 23 21  1  0  0  0  0
 24  3  1  0  0  0  0
 25 24  1  0  0  0  0
 26 18  1  0  0  0  0
 28 10  1  0  0  0  0
 28 32  1  0  0  0  0
 29 36  2  0  0  0  0
 30 29  1  0  0  0  0
 31 27  2  0  0  0  0
 31  6  1  0  0  0  0
 32 33  1  0  0  0  0
 34 32  1  0  0  0  0
 35 32  1  0  0  0  0
 36  7  1  0  0  0  0
 36 37  1  0  0  0  0
 38  4  1  0  0  0  0
 38 31  1  0  0  0  0
 39 38  1  0  0  0  0
 40 38  1  0  0  0  0
 41 44  1  0  0  0  0
 42 41  1  0  0  0  0
 43 41  1  0  0  0  0
M  END
