2,6,11,25
q = -2.0, confidence = 0.674

 58 62  0  0  0  0  0  0  0  0999 V2000
   -2.9497    2.3088   -0.7437 C   0  0  0  0  0  0  0  0  0  0  0  0
   -2.5961   -1.5855   -0.0140 N   0  0  0  0  0  2  0  0  0  0  0  0
    2.0792   -2.8977   -0.1868 N   0  0  0  0  0  0  0  0  0  0  0  0
   -3.8754    3.1237   -0.6085 O   0  0  0  0  0  0  0  0  0  0  0  0
   -3.2621   -3.8342    0.0696 O   0  0  0  0  0  0  0  0  0  0  0  0
   -2.8109    1.0678   -0.2269 N   0  0  0  0  0  2  0  0  0  0  0  0
   -0.0185   -2.8479   -0.7820 N   0  0  0  0  0  0  0  0  0  0  0  0
   -1.3358   -3.2914   -1.2183 C   0  0  0  0  0  0  0  0  0  0  0  0
   -1.3315   -4.3929   -1.2961 H   0  0  0  0  0  0  0  0  0  0  0  0
   -1.5295   -2.8503   -2.2177 H   0  0  0  0  0  0  0  0  0  0  0  0
    0.2960   -1.5099   -0.4702 C   0  0  0  0  0  3  0  0  0  0  0  0
    1.0395   -3.6579   -0.6061 C   0  0  0  0  0  3  0  0  0  0  0  0
    1.0539   -4.7449   -0.7262 H   0  0  0  0  0  0  0  0  0  0  0  0
   -3.8194    0.4250    0.5289 C   0  0  0  0  0  0  0  0  0  0  0  0
    1.6346   -1.5751   -0.1015 C   0  0  0  0  0  0  0  0  0  0  0  0
    2.3341   -0.7868    0.1807 H   0  0  0  0  0  0  0  0  0  0  0  0
   -1.8019    2.7140   -1.7164 C   0  0  0  0  0  0  0  0  0  0  0  0
   -1.8297    2.0572   -2.6091 H   0  0  0  0  0  0  0  0  0  0  0  0
   -1.9844    3.7611   -2.0152 H   0  0  0  0  0  0  0  0  0  0  0  0
    3.3818   -3.3783    0.1320 C   0  0  0  0  0  0  0  0  0  0  0  0
    3.9716   -4.3884   -0.6500 C   0  0  0  0  0  0  0  0  0  0  0  0
    3.4392   -4.7856   -1.5265 H   0  0  0  0  0  0  0  0  0  0  0  0
   -0.4768    2.6151   -1.1226 N   0  0  0  0  0  0  0  0  0  0  0  0
   -2.5064   -2.9098   -0.2690 C   0  0  0  0  0  0  0  0  0  0  0  0
    0.0411    1.4201   -0.5855 C   0  0  0  0  0  3  0  0  0  0  0  0
   -3.7017   -0.9981    0.6470 C   0  0  0  0  0  0  0  0  0  0  0  0
    4.0723   -2.8311    1.2288 C   0  0  0  0  0  0  0  0  0  0  0  0
    3.5895   -2.0626    1.8492 H   0  0  0  0  0  0  0  0  0  0  0  0
   -4.6807   -1.7139    1.3701 C   0  0  0  0  0  0  0  0  0  0  0  0
   -4.5870   -2.8037    1.4294 H   0  0  0  0  0  0  0  0  0  0  0  0
   -5.8661    0.3547    1.8576 C   0  0  0  0  0  0  0  0  0  0  0  0
   -6.7072    0.8862    2.3295 H   0  0  0  0  0  0  0  0  0  0  0  0
    5.3567   -3.2989    1.5379 C   0  0  0  0  0  0  0  0  0  0  0  0
    5.8937   -2.8742    2.3991 H   0  0  0  0  0  0  0  0  0  0  0  0
   -5.7507   -1.0375    1.9755 C   0  0  0  0  0  0  0  0  0  0  0  0
   -6.4999   -1.6124    2.5421 H   0  0  0  0  0  0  0  0  0  0  0  0
    5.9474   -4.3150    0.7698 C   0  0  0  0  0  0  0  0  0  0  0  0
    6.9531   -4.6830    1.0206 H   0  0  0  0  0  0  0  0  0  0  0  0
    5.2497   -4.8593   -0.3201 C   0  0  0  0  0  0  0  0  0  0  0  0
    5.7095   -5.6494   -0.9323 H   0  0  0  0  0  0  0  0  0  0  0  0
    1.4555    3.1783   -0.2828 N   0  0  0  0  0  0  0  0  0  0  0  0
    1.2727    1.8079   -0.0705 C   0  0  0  0  0  0  0  0  0  0  0  0
    2.0035    1.2517    0.5199 H   0  0  0  0  0  0  0  0  0  0  0  0
    0.3617    3.6473   -0.9303 C   0  0  0  0  0  3  0  0  0  0  0  0
    0.2234    4.6730   -1.2837 H   0  0  0  0  0  0  0  0  0  0  0  0
   -4.9111    1.0839    1.1332 C   0  0  0  0  0  0  0  0  0  0  0  0
   -4.9977    2.1686    1.0055 H   0  0  0  0  0  0  0  0  0  0  0  0
    2.5836    3.9555    0.1056 C   0  0  0  0  0  0  0  0  0  0  0  0
    3.8736    3.4028    0.0046 C   0  0  0  0  0  0  0  0  0  0  0  0
    4.0019    2.3882   -0.3989 H   0  0  0  0  0  0  0  0  0  0  0  0
    2.4041    5.2635    0.5926 C   0  0  0  0  0  0  0  0  0  0  0  0
    1.3896    5.6726    0.7064 H   0  0  0  0  0  0  0  0  0  0  0  0
    3.5234    6.0216    0.9619 C   0  0  0  0  0  0  0  0  0  0  0  0
    3.3814    7.0433    1.3443 H   0  0  0  0  0  0  0  0  0  0  0  0
    4.8138    5.4763    0.8674 C   0  0  0  0  0  0  0  0  0  0  0  0
    5.6881    6.0725    1.1669 H   0  0  0  0  0  0  0  0  0  0  0  0
    4.9831    4.1657    0.3931 C   0  0  0  0  0  0  0  0  0  0  0  0
    5.9917    3.7339    0.3110 H   0  0  0  0  0  0  0  0  0  0  0  0
  1  4  2  0  0  0  0
  1  6  1  0  0  0  0
  2 26  1  0  0  0  0
  3 15  1  0  0  0  0
  3 20  1  0  0  0  0
  6 14  1  0  0  0  0
  7 12  1  0  0  0  0
  7 11  1  0  0  0  0
  8  7  1  0  0  0  0
  8 24  1  0  0  0  0
  9  8  1  0  0  0  0
 10  8  1  0  0  0  0
 11 15  2  0  0  0  0
 12  3  1  0  0  0  0
 13 12  1  0  0  0  0
 14 26  2  0  0  0  0
 14 46  1  0  0  0  0
 15 16  1  0  0  0  0
 17 23  1  0  0  0  0
 17  1  1  0  0  0  0
 18 17  1  0  0  0  0
 19 17  1  0  0  0  0
 20 27  1  0  0  0  0
 21 39  1  0  0  0  0
 21 20  2  0  0  0  0
 22 21  1  0  0  0  0
 23 44  1  0  0  0  0
 23 25  1  0  0  0  0
 24  2  1  0  0  0  0
 24  5  2  0  0  0  0
 25 42  2  0  0  0  0
 26 29  1  0  0  0  0
 27 33  2  0  0  0  0
 27 28  1  0  0  0  0
 29 30  1  0  0  0  0
 29 35  2  0  0  0  0
 31 35  1  0  0  0  0
 31 32  1  0  0  0  0
 33 34  1  0  0  0  0
 35 36  1  0  0  0  0
 37 38  1  0  0  0  0
 37 33  1  0  0  0  0
 39 37  2  0  0  0  0
 40 39  1  0  0  0  0
 41 42  1  0  0  0  0
 41 48  1  0  0  0  0
 42 43  1  0  0  0  0
 44 41  1  0  0  0  0
 45 44  1  0  0  0  0
 46 31  2  0  0  0  0
 47 46  1  0  0  0  0
 48 51  1  0  0  0  0
 49 48  2  0  0  0  0
 49 57  1  0  0  0  0
 50 49  1  0  0  0  0
 51 52  1  0  0  0  0
 51 53  2  0  0  0  0
 53 54  1  0  0  0  0
 55 53  1  0  0  0  0
 55 56  1  0  0  0  0
 57 55  2  0  0  0  0
 58 57  1  0  0  0  0
M  END
