1,2,14,25
q = 0.0, confidence = 0.91

 36 38  0  0  1  0  0  0  0  0999 V2000
    1.3474   -1.6965    0.0050 N   0  0  0  0  0  2  0  0  0  0  0  0
    1.3473    1.6967   -0.0059 N   0  0  0  0  0  2  0  0  0  0  0  0
    2.6882   -1.8383    0.0466 C   0  0  0  0  0  3  0  0  0  0  0  0
    3.2683   -0.9039    0.0887 H   0  0  0  0  0  0  0  0  0  0  0  0
    3.3523   -3.0678    0.0430 C   0  0  0  0  0  0  0  0  0  0  0  0
    4.4502   -3.0991    0.0769 H   0  0  0  0  0  0  0  0  0  0  0  0
    2.5752   -4.2449   -0.0060 C   0  0  0  0  0  0  0  0  0  0  0  0
    3.0562   -5.2350   -0.0134 H   0  0  0  0  0  0  0  0  0  0  0  0
    1.1888   -4.1317   -0.0411 C   0  0  0  0  0  0  0  0  0  0  0  0
    0.5464   -5.0241   -0.0739 H   0  0  0  0  0  0  0  0  0  0  0  0
    0.5691   -2.8523   -0.0301 C   0  0  0  0  0  0  0  0  0  0  0  0
   -0.8440   -2.6224   -0.0418 C   0  0  0  0  0  0  0  0  0  0  0  0
   -1.5379   -3.4808   -0.0664 H   0  0  0  0  0  0  0  0  0  0  0  0
   -1.1965   -1.2766   -0.0097 C   0  0  0  0  0  3  0  0  0  0  0  0
   -2.5540   -0.7156   -0.0019 C   0  0  0  0  0  0  0  0  0  0  0  0
   -3.7799   -1.4141   -0.0014 C   0  0  0  0  0  0  0  0  0  0  0  0
   -3.7851   -2.5154   -0.0029 H   0  0  0  0  0  0  0  0  0  0  0  0
   -4.9897   -0.7052    0.0009 C   0  0  0  0  0  0  0  0  0  0  0  0
   -5.9467   -1.2501    0.0011 H   0  0  0  0  0  0  0  0  0  0  0  0
   -4.9897    0.7053    0.0021 C   0  0  0  0  0  0  0  0  0  0  0  0
   -5.9466    1.2502    0.0025 H   0  0  0  0  0  0  0  0  0  0  0  0
   -3.7799    1.4141    0.0036 C   0  0  0  0  0  0  0  0  0  0  0  0
   -3.7850    2.5155    0.0051 H   0  0  0  0  0  0  0  0  0  0  0  0
   -2.5540    0.7157    0.0033 C   0  0  0  0  0  0  0  0  0  0  0  0
   -1.1965    1.2767    0.0101 C   0  0  0  0  0  3  0  0  0  0  0  0
   -0.8440    2.6225    0.0422 C   0  0  0  0  0  0  0  0  0  0  0  0
   -1.5379    3.4809    0.0675 H   0  0  0  0  0  0  0  0  0  0  0  0
    0.5690    2.8525    0.0299 C   0  0  2  0  0  3  0  0  0  0  0  0
    1.1888    4.1319    0.0413 C   0  0  0  0  0  0  0  0  0  0  0  0
    0.5464    5.0243    0.0747 H   0  0  0  0  0  0  0  0  0  0  0  0
    2.5752    4.2451    0.0056 C   0  0  0  0  0  0  0  0  0  0  0  0
    3.0561    5.2352    0.0132 H   0  0  0  0  0  0  0  0  0  0  0  0
    3.3522    3.0681   -0.0444 C   0  0  0  0  0  0  0  0  0  0  0  0
    4.4501    3.0994   -0.0789 H   0  0  0  0  0  0  0  0  0  0  0  0
    2.6881    1.8386   -0.0481 C   0  0  0  0  0  0  0  0  0  0  0  0
    3.2682    0.9042   -0.0910 H   0  0  0  0  0  0  0  0  0  0  0  0
  1  3  1  0  0  0  0
  2 28  1  0  0  0  0
  3  4  1  0  0  0  0
  5  3  1  0  0  0  0
  5  6  1  0  0  0  0
  7  5  2  0  0  0  0
  8  7  1  0  0  0  0
  9 11  2  0  0  0  0
  9  7  1  0  0  0  0
 10  9  1  0  0  0  0
 11  1  1  0  0  0  0
 12 11  1  0  0  0  0
 12 14  2  0  0  0  0
 13 12  1  0  0  0  0
 14 15  1  0  0  0  0
 15 16  2  0  0  0  0
 15 24  1  0  0  0  0
 16 18  1  0  0  0  0
 17 16  1  0  0  0  0
 18 19  1  0  0  0  0
 18 20  2  0  0  0  0
 20 21  1  0  0  0  0
 20 22  1  0  0  0  0
 22 23  1  0  0  0  0
 24 22  2  0  0  0  0
 24 25  1  0  0  0  0
 25 26  2  0  0  0  0
 26 27  1  0  0  0  0
 28 29  1  0  0  0  0
 28 26  1  6  0  0  0
 29 30  1  0  0  0  0
 31 32  1  0  0  0  0
 31 29  2  0  0  0  0
 33 31  1  0  0  0  0
 34 33  1  0  0  0  0
 35 33  2  0  0  0  0
 35  2  1  0  0  0  0
 36 35  1  0  0  0  0
M  END
