15,16,47,49
 OpenBabel05122313063D

 50 55  0  0  1  0  0  0  0  0999 V2000
    2.5939    2.8274    1.1395 C   0  0  0  0  0  3  0  0  0  0  0  0
    1.7191    3.4751    1.2611 H   0  0  0  0  0  0  0  0  0  0  0  0
    3.9424    3.0605    1.4886 C   0  0  0  0  0  0  0  0  0  0  0  0
    4.3715    3.9578    1.9446 H   0  0  0  0  0  0  0  0  0  0  0  0
    4.6147    1.8903    1.1384 C   0  0  0  0  0  0  0  0  0  0  0  0
    5.6642    1.6004    1.2413 H   0  0  0  0  0  0  0  0  0  0  0  0
    3.7946   -0.3174    0.1797 C   0  0  0  0  0  0  0  0  0  0  0  0
    5.0339   -0.9559    0.0347 C   0  0  0  0  0  0  0  0  0  0  0  0
    5.9783   -0.4321    0.2390 H   0  0  0  0  0  0  0  0  0  0  0  0
    5.0389   -2.2927   -0.3970 C   0  0  0  0  0  0  0  0  0  0  0  0
    5.9947   -2.8219   -0.5225 H   0  0  0  0  0  0  0  0  0  0  0  0
    3.8363   -2.9542   -0.6691 C   0  0  0  0  0  0  0  0  0  0  0  0
    3.8201   -4.0010   -1.0050 H   0  0  0  0  0  0  0  0  0  0  0  0
    2.6049   -2.2821   -0.5102 C   0  0  0  0  0  0  0  0  0  0  0  0
    2.5487   -0.9416   -0.0862 C   0  0  0  0  0  3  0  0  0  0  0  0
   -0.2472   -1.3386   -0.3345 C   0  0  0  0  0  2  0  0  0  0  0  0
    0.1960   -2.6650   -0.5797 C   0  0  2  0  0  3  0  0  0  0  0  0
   -0.6817   -3.7786   -0.6074 C   0  0  0  0  0  0  0  0  0  0  0  0
   -0.2412   -4.7652   -0.8090 H   0  0  0  0  0  0  0  0  0  0  0  0
   -2.0392   -3.6309   -0.3338 C   0  0  0  0  0  0  0  0  0  0  0  0
   -2.7064   -4.5049   -0.3126 H   0  0  0  0  0  0  0  0  0  0  0  0
   -2.5286   -2.3410   -0.0633 C   0  0  0  0  0  0  0  0  0  0  0  0
   -3.8271   -1.8445    0.3429 C   0  0  0  0  0  0  0  0  0  0  0  0
   -5.0429   -2.4830    0.6467 C   0  0  0  0  0  0  0  0  0  0  0  0
   -5.1398   -3.5721    0.5241 H   0  0  0  0  0  0  0  0  0  0  0  0
   -6.1146   -1.7194    1.1274 C   0  0  0  0  0  0  0  0  0  0  0  0
   -7.0700   -2.2079    1.3706 H   0  0  0  0  0  0  0  0  0  0  0  0
   -5.9693   -0.3320    1.3307 C   0  0  0  0  0  0  0  0  0  0  0  0
   -6.8054    0.2495    1.7470 H   0  0  0  0  0  0  0  0  0  0  0  0
   -4.7666    0.3266    1.0267 C   0  0  0  0  0  0  0  0  0  0  0  0
   -4.6624    1.4000    1.2324 H   0  0  0  0  0  0  0  0  0  0  0  0
   -3.7081   -0.4325    0.5007 C   0  0  0  0  0  0  0  0  0  0  0  0
   -1.6376   -1.2334   -0.1173 C   0  0  0  0  0  0  0  0  0  0  0  0
   -2.0178    1.2381   -0.2351 C   0  0  1  0  0  3  0  0  0  0  0  0
   -2.9986    2.1663   -0.6711 C   0  0  0  0  0  0  0  0  0  0  0  0
   -4.0418    1.8378   -0.7450 H   0  0  0  0  0  0  0  0  0  0  0  0
   -2.6509    3.4595   -1.0621 C   0  0  0  0  0  0  0  0  0  0  0  0
   -1.2760    3.7919   -1.0314 C   0  0  0  0  0  0  0  0  0  0  0  0
   -0.9200    4.7862   -1.3367 H   0  0  0  0  0  0  0  0  0  0  0  0
   -0.3592    2.8203   -0.6580 C   0  0  0  0  0  0  0  0  0  0  0  0
    0.7197    3.0210   -0.7019 H   0  0  0  0  0  0  0  0  0  0  0  0
   -3.6819    4.4471   -1.5332 C   0  0  0  0  0  0  0  0  0  0  0  0
   -3.4456    4.8116   -2.5542 H   0  0  0  0  0  0  0  0  0  0  0  0
   -3.7008    5.3393   -0.8730 H   0  0  0  0  0  0  0  0  0  0  0  0
   -4.6973    4.0082   -1.5478 H   0  0  0  0  0  0  0  0  0  0  0  0
    3.6932    1.0347    0.6100 N   0  0  0  0  0  0  0  0  0  0  0  0
    2.4569    1.6007    0.6000 N   0  0  0  0  0  2  0  0  0  0  0  0
   -2.3888   -0.0471    0.1495 N   0  0  0  0  0  0  0  0  0  0  0  0
   -0.6961    1.5666   -0.2504 N   0  0  0  0  0  2  0  0  0  0  0  0
    1.5030   -3.0348   -0.7967 O   0  0  0  0  0  0  0  0  0  0  0  0
  1  2  1  0  0  0  0
  1  3  1  0  0  0  0
  3  4  1  0  0  0  0
  5  6  1  0  0  0  0
  5  3  2  0  0  0  0
  7 46  1  0  0  0  0
  8  7  1  0  0  0  0
  8  9  1  0  0  0  0
 10  8  2  0  0  0  0
 11 10  1  0  0  0  0
 12 14  2  0  0  0  0
 12 10  1  0  0  0  0
 13 12  1  0  0  0  0
 14 15  1  0  0  0  0
 15  7  2  0  0  0  0
 16 33  1  0  0  0  0
 17 50  1  1  0  0  0
 17 16  1  0  0  0  0
 18 17  1  0  0  0  0
 18 20  2  0  0  0  0
 19 18  1  0  0  0  0
 20 21  1  0  0  0  0
 20 22  1  0  0  0  0
 22 23  1  0  0  0  0
 23 32  2  0  0  0  0
 23 24  1  0  0  0  0
 24 26  2  0  0  0  0
 25 24  1  0  0  0  0
 26 28  1  0  0  0  0
 26 27  1  0  0  0  0
 28 29  1  0  0  0  0
 30 31  1  0  0  0  0
 30 28  2  0  0  0  0
 32 30  1  0  0  0  0
 33 22  2  0  0  0  0
 33 48  1  0  0  0  0
 34 48  1  6  0  0  0
 35 34  1  0  0  0  0
 36 35  1  0  0  0  0
 37 38  1  0  0  0  0
 37 35  2  0  0  0  0
 38 40  2  0  0  0  0
 39 38  1  0  0  0  0
 40 49  1  0  0  0  0
 41 40  1  0  0  0  0
 42 37  1  0  0  0  0
 42 44  1  0  0  0  0
 43 42  1  0  0  0  0
 45 42  1  0  0  0  0
 46  5  1  0  0  0  0
 47 46  1  0  0  0  0
 47  1  1  0  0  0  0
 48 32  1  0  0  0  0
 49 34  1  0  0  0  0
 50 14  1  0  0  0  0
M  END
