21,33,55,58
 OpenBabel05122313063D

 59 64  0  0  1  0  0  0  0  0999 V2000
    4.0406   -0.5248   -0.5445 C   0  0  0  0  0  0  0  0  0  0  0  0
   -2.1240    2.7972   -1.1690 C   0  0  2  0  0  3  0  0  0  0  0  0
   -3.4727    3.0759   -1.4896 C   0  0  0  0  0  0  0  0  0  0  0  0
   -3.8594    3.9569   -2.0123 H   0  0  0  0  0  0  0  0  0  0  0  0
   -4.2263    1.9902   -1.0418 C   0  0  0  0  0  0  0  0  0  0  0  0
   -5.6925    1.7646   -1.1948 C   0  0  0  0  0  0  0  0  0  0  0  0
   -5.9110    0.8072   -1.7105 H   0  0  0  0  0  0  0  0  0  0  0  0
   -6.1217    2.5875   -1.7955 H   0  0  0  0  0  0  0  0  0  0  0  0
   -6.2227    1.7458   -0.2202 H   0  0  0  0  0  0  0  0  0  0  0  0
   -0.9118    3.6022   -1.5123 C   0  0  0  0  0  0  0  0  0  0  0  0
   -0.6907    4.3831   -0.7554 H   0  0  0  0  0  0  0  0  0  0  0  0
   -1.0675    4.1190   -2.4790 H   0  0  0  0  0  0  0  0  0  0  0  0
   -0.0213    2.9525   -1.6020 H   0  0  0  0  0  0  0  0  0  0  0  0
   -3.4620   -0.2401   -0.0285 C   0  0  2  0  0  3  0  0  0  0  0  0
   -4.6976   -0.8399    0.2575 C   0  0  0  0  0  0  0  0  0  0  0  0
   -5.6351   -0.2762    0.2091 H   0  0  0  0  0  0  0  0  0  0  0  0
   -4.7389   -2.1967    0.6482 C   0  0  0  0  0  0  0  0  0  0  0  0
   -3.5359   -2.9068    0.7481 C   0  0  0  0  0  0  0  0  0  0  0  0
   -3.5263   -3.9657    1.0468 H   0  0  0  0  0  0  0  0  0  0  0  0
   -2.2996   -2.2799    0.4817 C   0  0  0  0  0  0  0  0  0  0  0  0
   -2.2248   -0.9299    0.0989 C   0  0  0  0  0  2  0  0  0  0  0  0
   -6.0637   -2.8622    0.9297 C   0  0  0  0  0  0  0  0  0  0  0  0
   -6.6265   -3.0575   -0.0086 H   0  0  0  0  0  0  0  0  0  0  0  0
   -6.7118   -2.2262    1.5672 H   0  0  0  0  0  0  0  0  0  0  0  0
   -5.9291   -3.8338    1.4431 H   0  0  0  0  0  0  0  0  0  0  0  0
    0.0957   -2.7517    0.3934 C   0  0  0  0  0  0  0  0  0  0  0  0
    0.9408   -3.8864    0.2892 C   0  0  0  0  0  0  0  0  0  0  0  0
    0.4784   -4.8761    0.4114 H   0  0  0  0  0  0  0  0  0  0  0  0
    2.2954   -3.7493   -0.0062 C   0  0  0  0  0  0  0  0  0  0  0  0
    2.9361   -4.6351   -0.1264 H   0  0  0  0  0  0  0  0  0  0  0  0
    2.8178   -2.4524   -0.1620 C   0  0  0  0  0  0  0  0  0  0  0  0
    1.9579   -1.3340    0.0160 C   0  0  0  0  0  0  0  0  0  0  0  0
    0.5701   -1.4224    0.2513 C   0  0  0  0  0  3  0  0  0  0  0  0
    4.1241   -1.9488   -0.5352 C   0  0  0  0  0  0  0  0  0  0  0  0
    5.3221   -2.5799   -0.9159 C   0  0  0  0  0  0  0  0  0  0  0  0
    5.3935   -3.6779   -0.9094 H   0  0  0  0  0  0  0  0  0  0  0  0
    6.4099   -1.7952   -1.3214 C   0  0  0  0  0  0  0  0  0  0  0  0
    7.3512   -2.2784   -1.6232 H   0  0  0  0  0  0  0  0  0  0  0  0
    6.3002   -0.3906   -1.3723 C   0  0  0  0  0  0  0  0  0  0  0  0
    7.1499    0.2110   -1.7282 H   0  0  0  0  0  0  0  0  0  0  0  0
    5.1157    0.2609   -0.9909 C   0  0  0  0  0  0  0  0  0  0  0  0
    5.0369    1.3529   -1.0754 H   0  0  0  0  0  0  0  0  0  0  0  0
    2.3998    1.0928    0.3975 C   0  0  1  0  0  3  0  0  0  0  0  0
    3.3993    1.9312    0.9547 C   0  0  0  0  0  0  0  0  0  0  0  0
    4.4379    1.5799    0.9691 H   0  0  0  0  0  0  0  0  0  0  0  0
    3.0723    3.1553    1.5393 C   0  0  0  0  0  0  0  0  0  0  0  0
    1.7019    3.5073    1.5740 C   0  0  0  0  0  0  0  0  0  0  0  0
    1.3642    4.4472    2.0339 H   0  0  0  0  0  0  0  0  0  0  0  0
    0.7680    2.6242    1.0530 C   0  0  0  0  0  0  0  0  0  0  0  0
   -0.3088    2.8334    1.1159 H   0  0  0  0  0  0  0  0  0  0  0  0
    4.1208    4.0463    2.1456 C   0  0  0  0  0  0  0  0  0  0  0  0
    3.9044    4.2422    3.2162 H   0  0  0  0  0  0  0  0  0  0  0  0
    4.1385    5.0337    1.6385 H   0  0  0  0  0  0  0  0  0  0  0  0
    5.1318    3.6031    2.0720 H   0  0  0  0  0  0  0  0  0  0  0  0
   -2.0604    1.6120   -0.5260 N   0  0  0  0  0  2  0  0  0  0  0  0
   -3.3371    1.1157   -0.4585 N   0  0  0  0  0  0  0  0  0  0  0  0
    2.7353   -0.1448   -0.1452 N   0  0  0  0  0  0  0  0  0  0  0  0
    1.0862    1.4464    0.4511 N   0  0  0  0  0  2  0  0  0  0  0  0
   -1.2134   -3.0961    0.6300 O   0  0  0  0  0  0  0  0  0  0  0  0
  1 34  1  0  0  0  0
  1 57  1  0  0  0  0
  2 10  1  6  0  0  0
  2 55  1  0  0  0  0
  3  2  1  0  0  0  0
  3  5  2  0  0  0  0
  4  3  1  0  0  0  0
  5 56  1  0  0  0  0
  6  5  1  0  0  0  0
  6  9  1  0  0  0  0
  7  6  1  0  0  0  0
  8  6  1  0  0  0  0
 10 11  1  0  0  0  0
 12 10  1  0  0  0  0
 13 10  1  0  0  0  0
 14 56  1  1  0  0  0
 14 21  1  0  0  0  0
 14 15  1  0  0  0  0
 15 17  2  0  0  0  0
 16 15  1  0  0  0  0
 17 18  1  0  0  0  0
 17 22  1  0  0  0  0
 18 19  1  0  0  0  0
 20 59  1  0  0  0  0
 20 18  2  0  0  0  0
 21 20  1  0  0  0  0
 22 25  1  0  0  0  0
 22 24  1  0  0  0  0
 23 22  1  0  0  0  0
 26 59  1  0  0  0  0
 27 26  1  0  0  0  0
 27 28  1  0  0  0  0
 29 27  2  0  0  0  0
 30 29  1  0  0  0  0
 31 29  1  0  0  0  0
 31 32  2  0  0  0  0
 32 33  1  0  0  0  0
 33 26  2  0  0  0  0
 34 31  1  0  0  0  0
 35 36  1  0  0  0  0
 35 34  2  0  0  0  0
 37 35  1  0  0  0  0
 38 37  1  0  0  0  0
 39 37  2  0  0  0  0
 39 41  1  0  0  0  0
 40 39  1  0  0  0  0
 41  1  2  0  0  0  0
 42 41  1  0  0  0  0
 43 57  1  1  0  0  0
 43 58  1  0  0  0  0
 43 44  1  0  0  0  0
 44 45  1  0  0  0  0
 44 46  2  0  0  0  0
 46 47  1  0  0  0  0
 46 51  1  0  0  0  0
 47 48  1  0  0  0  0
 49 50  1  0  0  0  0
 49 47  2  0  0  0  0
 51 52  1  0  0  0  0
 53 51  1  0  0  0  0
 54 51  1  0  0  0  0
 55 56  1  0  0  0  0
 57 32  1  0  0  0  0
 58 49  1  0  0  0  0
M  END
