18,25,39,43
 OpenBabel05122313063D

 46 47  0  0  0  0  0  0  0  0999 V2000
   -5.4686   -2.5421    0.5605 C   0  0  0  0  0  0  0  0  0  0  0  0
   -6.2844   -2.2343    1.2435 H   0  0  0  0  0  0  0  0  0  0  0  0
   -4.9272   -3.3803    1.0502 H   0  0  0  0  0  0  0  0  0  0  0  0
   -5.9249   -2.9484   -0.3643 H   0  0  0  0  0  0  0  0  0  0  0  0
   -4.5286   -1.4019    0.2634 C   0  0  0  0  0  0  0  0  0  0  0  0
   -4.4138   -0.3055    1.1421 C   0  0  0  0  0  0  0  0  0  0  0  0
   -5.0528   -0.2632    2.0385 H   0  0  0  0  0  0  0  0  0  0  0  0
   -3.5088    0.7344    0.8927 C   0  0  0  0  0  0  0  0  0  0  0  0
   -3.4347    1.6015    1.5644 H   0  0  0  0  0  0  0  0  0  0  0  0
   -2.6979    0.6805   -0.2515 C   0  0  0  0  0  0  0  0  0  0  0  0
   -2.8111   -0.3860   -1.1553 C   0  0  0  0  0  0  0  0  0  0  0  0
   -2.1913   -0.3987   -2.0613 H   0  0  0  0  0  0  0  0  0  0  0  0
   -3.7224   -1.4144   -0.8943 C   0  0  0  0  0  0  0  0  0  0  0  0
   -3.8120   -2.2513   -1.6051 H   0  0  0  0  0  0  0  0  0  0  0  0
   -1.1009    1.9840   -1.9238 O   0  0  0  0  0  0  0  0  0  0  0  0
   -1.9112    3.1571    0.2156 O   0  0  0  0  0  0  0  0  0  0  0  0
   -1.4253    1.9351   -0.4749 S   0  0  0  0  0  0  0  0  0  0  0  0
   -0.0890    1.3832    0.3476 N   0  0  0  0  0  2  0  0  0  0  0  0
   -0.1749    1.5171    1.7980 C   0  0  0  0  0  0  0  0  0  0  0  0
   -0.8003    0.7146    2.2604 H   0  0  0  0  0  0  0  0  0  0  0  0
   -0.6085    2.5005    2.0716 H   0  0  0  0  0  0  0  0  0  0  0  0
    1.2474    1.4121    2.3110 C   0  0  0  0  0  0  0  0  0  0  0  0
    1.8510    2.2604    1.9270 H   0  0  0  0  0  0  0  0  0  0  0  0
    1.2928    1.4188    3.4229 H   0  0  0  0  0  0  0  0  0  0  0  0
    1.8410    0.1630    1.7768 N   0  0  0  0  0  0  0  0  0  0  0  0
    1.3007   -0.6423    2.1594 H   0  0  0  0  0  0  0  0  0  0  0  0
    3.2673    0.0194    2.1245 C   0  0  0  0  0  0  0  0  0  0  0  0
    3.3513   -0.0594    3.2318 H   0  0  0  0  0  0  0  0  0  0  0  0
    3.7818    0.9615    1.8363 H   0  0  0  0  0  0  0  0  0  0  0  0
    3.9557   -1.1766    1.4672 C   0  0  0  0  0  0  0  0  0  0  0  0
    3.2993   -2.0701    1.5468 H   0  0  0  0  0  0  0  0  0  0  0  0
    4.8712   -1.4097    2.0493 H   0  0  0  0  0  0  0  0  0  0  0  0
    4.3532   -0.9325    0.0012 C   0  0  0  0  0  0  0  0  0  0  0  0
    5.0491   -0.0693   -0.0468 H   0  0  0  0  0  0  0  0  0  0  0  0
    4.9155   -1.8120   -0.3756 H   0  0  0  0  0  0  0  0  0  0  0  0
    3.1777   -0.6772   -0.9157 C   0  0  0  0  0  0  0  0  0  0  0  0
    2.3047   -1.7536   -1.2597 C   0  0  0  0  0  3  0  0  0  0  0  0
    2.4976   -2.7630   -0.8693 H   0  0  0  0  0  0  0  0  0  0  0  0
    1.0932   -1.4869   -1.9814 C   0  0  0  0  0  3  0  0  0  0  0  0
    0.3586   -2.2947   -2.1130 H   0  0  0  0  0  0  0  0  0  0  0  0
    0.7792   -0.1727   -2.4203 C   0  0  0  0  0  3  0  0  0  0  0  0
   -0.1788    0.0627   -2.8990 H   0  0  0  0  0  0  0  0  0  0  0  0
    1.6649    0.9112   -2.0841 C   0  0  0  0  0  3  0  0  0  0  0  0
    1.3391    1.9375   -2.3018 H   0  0  0  0  0  0  0  0  0  0  0  0
    2.8606    0.6656   -1.3561 C   0  0  0  0  0  0  0  0  0  0  0  0
    3.5022    1.5061   -1.0510 H   0  0  0  0  0  0  0  0  0  0  0  0
  1  3  1  0  0  0  0
  1  2  1  0  0  0  0
  4  1  1  0  0  0  0
  5  1  1  0  0  0  0
  5  6  1  0  0  0  0
  6  7  1  0  0  0  0
  8  6  2  0  0  0  0
  8  9  1  0  0  0  0
 10  8  1  0  0  0  0
 11 13  1  0  0  0  0
 11 10  2  0  0  0  0
 12 11  1  0  0  0  0
 13  5  2  0  0  0  0
 14 13  1  0  0  0  0
 15 17  2  0  0  0  0
 17 10  1  0  0  0  0
 17 16  2  0  0  0  0
 17 18  1  0  0  0  0
 18 19  1  0  0  0  0
 19 21  1  0  0  0  0
 19 20  1  0  0  0  0
 19 22  1  0  0  0  0
 22 24  1  0  0  0  0
 23 22  1  0  0  0  0
 25 27  1  0  0  0  0
 25 26  1  0  0  0  0
 25 22  1  0  0  0  0
 27 28  1  0  0  0  0
 29 27  1  0  0  0  0
 30 31  1  0  0  0  0
 30 32  1  0  0  0  0
 30 27  1  0  0  0  0
 33 30  1  0  0  0  0
 34 33  1  0  0  0  0
 35 33  1  0  0  0  0
 36 33  1  0  0  0  0
 37 36  1  0  0  0  0
 37 38  1  0  0  0  0
 39 37  1  0  0  0  0
 40 39  1  0  0  0  0
 41 43  1  0  0  0  0
 41 39  1  0  0  0  0
 42 41  1  0  0  0  0
 43 45  1  0  0  0  0
 44 43  1  0  0  0  0
 45 46  1  0  0  0  0
 45 36  2  0  0  0  0
M  END
