1,2,7,22
 OpenBabel05122313063D

 60 65  0  0  0  0  0  0  0  0999 V2000
   -1.4375    0.2549    1.4630 N   0  0  0  0  0  2  0  0  0  0  0  0
    1.4375   -0.2549    1.4630 N   0  0  0  0  0  2  0  0  0  0  0  0
   -2.8643    0.2794    1.0628 C   0  0  0  0  0  0  0  0  0  0  0  0
   -3.1637    1.3739    0.0608 C   0  0  0  0  0  0  0  0  0  0  0  0
   -2.4409    1.4257   -1.1657 C   0  0  0  0  0  0  0  0  0  0  0  0
   -1.4108    0.4478   -1.5149 C   0  0  0  0  0  3  0  0  0  0  0  0
   -1.4055   -0.9763   -1.1866 C   0  0  0  0  0  3  0  0  0  0  0  0
   -2.5254   -1.6730   -0.5209 C   0  0  0  0  0  0  0  0  0  0  0  0
   -3.2782   -1.0825    0.5311 C   0  0  0  0  0  0  0  0  0  0  0  0
   -2.7221    2.5052   -2.0425 C   0  0  0  0  0  0  0  0  0  0  0  0
   -3.6806    3.4787   -1.7373 C   0  0  0  0  0  0  0  0  0  0  0  0
   -4.4038    3.4013   -0.5353 C   0  0  0  0  0  0  0  0  0  0  0  0
   -4.1342    2.3453    0.3506 C   0  0  0  0  0  0  0  0  0  0  0  0
   -2.8899   -2.9741   -0.9389 C   0  0  0  0  0  0  0  0  0  0  0  0
   -3.9633   -3.6646   -0.3590 C   0  0  0  0  0  0  0  0  0  0  0  0
   -4.7122   -3.0617    0.6636 C   0  0  0  0  0  0  0  0  0  0  0  0
   -4.3600   -1.7732    1.0984 C   0  0  0  0  0  0  0  0  0  0  0  0
    2.8643   -0.2794    1.0629 C   0  0  0  0  0  0  0  0  0  0  0  0
    3.1638   -1.3739    0.0608 C   0  0  0  0  0  0  0  0  0  0  0  0
    2.4409   -1.4257   -1.1657 C   0  0  0  0  0  0  0  0  0  0  0  0
    1.4108   -0.4478   -1.5149 C   0  0  0  0  0  3  0  0  0  0  0  0
    1.4055    0.9763   -1.1867 C   0  0  0  0  0  3  0  0  0  0  0  0
    2.5254    1.6730   -0.5209 C   0  0  0  0  0  0  0  0  0  0  0  0
    3.2781    1.0825    0.5311 C   0  0  0  0  0  0  0  0  0  0  0  0
    2.7222   -2.5051   -2.0425 C   0  0  0  0  0  0  0  0  0  0  0  0
    3.6807   -3.4787   -1.7374 C   0  0  0  0  0  0  0  0  0  0  0  0
    4.4039   -3.4013   -0.5354 C   0  0  0  0  0  0  0  0  0  0  0  0
    4.1342   -2.3453    0.3506 C   0  0  0  0  0  0  0  0  0  0  0  0
    2.8899    2.9741   -0.9388 C   0  0  0  0  0  0  0  0  0  0  0  0
    3.9632    3.6646   -0.3589 C   0  0  0  0  0  0  0  0  0  0  0  0
    4.7121    3.0618    0.6637 C   0  0  0  0  0  0  0  0  0  0  0  0
    4.3600    1.7733    1.0984 C   0  0  0  0  0  0  0  0  0  0  0  0
   -1.2377    0.1455    2.7832 C   0  0  0  0  0  3  0  0  0  0  0  0
   -0.0000   -0.0001    3.4276 C   0  0  0  0  0  0  0  0  0  0  0  0
    1.2376   -0.1456    2.7832 C   0  0  0  0  0  0  0  0  0  0  0  0
   -3.4838    0.4819    1.9641 H   0  0  0  0  0  0  0  0  0  0  0  0
   -0.9226    0.6876   -2.4809 H   0  0  0  0  0  0  0  0  0  0  0  0
   -0.9328   -1.6174   -1.9547 H   0  0  0  0  0  0  0  0  0  0  0  0
   -2.1651    2.5611   -2.9920 H   0  0  0  0  0  0  0  0  0  0  0  0
   -3.8686    4.3027   -2.4449 H   0  0  0  0  0  0  0  0  0  0  0  0
   -5.1584    4.1622   -0.2819 H   0  0  0  0  0  0  0  0  0  0  0  0
   -4.6772    2.2795    1.3085 H   0  0  0  0  0  0  0  0  0  0  0  0
   -2.3076   -3.4425   -1.7488 H   0  0  0  0  0  0  0  0  0  0  0  0
   -4.2156   -4.6789   -0.7078 H   0  0  0  0  0  0  0  0  0  0  0  0
   -5.5539   -3.5952    1.1325 H   0  0  0  0  0  0  0  0  0  0  0  0
   -4.9256   -1.2932    1.9143 H   0  0  0  0  0  0  0  0  0  0  0  0
    3.4838   -0.4819    1.9641 H   0  0  0  0  0  0  0  0  0  0  0  0
    0.9226   -0.6877   -2.4808 H   0  0  0  0  0  0  0  0  0  0  0  0
    0.9328    1.6174   -1.9548 H   0  0  0  0  0  0  0  0  0  0  0  0
    2.1651   -2.5611   -2.9920 H   0  0  0  0  0  0  0  0  0  0  0  0
    3.8688   -4.3026   -2.4450 H   0  0  0  0  0  0  0  0  0  0  0  0
    5.1585   -4.1622   -0.2820 H   0  0  0  0  0  0  0  0  0  0  0  0
    4.6772   -2.2795    1.3085 H   0  0  0  0  0  0  0  0  0  0  0  0
    2.3076    3.4426   -1.7488 H   0  0  0  0  0  0  0  0  0  0  0  0
    4.2155    4.6790   -0.7077 H   0  0  0  0  0  0  0  0  0  0  0  0
    5.5538    3.5953    1.1326 H   0  0  0  0  0  0  0  0  0  0  0  0
    4.9255    1.2932    1.9144 H   0  0  0  0  0  0  0  0  0  0  0  0
   -2.1365    0.2015    3.4320 H   0  0  0  0  0  0  0  0  0  0  0  0
   -0.0000   -0.0002    4.5271 H   0  0  0  0  0  0  0  0  0  0  0  0
    2.1365   -0.2017    3.4320 H   0  0  0  0  0  0  0  0  0  0  0  0
  1 33  1  0  0  0  0
  2 35  1  0  0  0  0
  3  1  1  0  0  0  0
  3 36  1  0  0  0  0
  4 13  1  0  0  0  0
  4  3  1  0  0  0  0
  5  4  2  0  0  0  0
  6  7  1  0  0  0  0
  6  5  1  0  0  0  0
  7  8  1  0  0  0  0
  8  9  1  0  0  0  0
  9  3  1  0  0  0  0
  9 17  2  0  0  0  0
 10 11  2  0  0  0  0
 10  5  1  0  0  0  0
 11 12  1  0  0  0  0
 12 41  1  0  0  0  0
 12 13  2  0  0  0  0
 13 42  1  0  0  0  0
 14  8  2  0  0  0  0
 14 15  1  0  0  0  0
 15 16  2  0  0  0  0
 16 17  1  0  0  0  0
 16 45  1  0  0  0  0
 17 46  1  0  0  0  0
 18  2  1  0  0  0  0
 18 47  1  0  0  0  0
 19 28  1  0  0  0  0
 19 18  1  0  0  0  0
 20 19  2  0  0  0  0
 21 22  1  0  0  0  0
 21 20  1  0  0  0  0
 22 23  1  0  0  0  0
 23 24  1  0  0  0  0
 24 18  1  0  0  0  0
 24 32  2  0  0  0  0
 25 26  2  0  0  0  0
 25 20  1  0  0  0  0
 26 27  1  0  0  0  0
 27 52  1  0  0  0  0
 27 28  2  0  0  0  0
 28 53  1  0  0  0  0
 29 23  2  0  0  0  0
 29 30  1  0  0  0  0
 30 31  2  0  0  0  0
 31 32  1  0  0  0  0
 31 56  1  0  0  0  0
 32 57  1  0  0  0  0
 33 34  1  0  0  0  0
 33 58  1  0  0  0  0
 34 59  1  0  0  0  0
 35 34  2  0  0  0  0
 35 60  1  0  0  0  0
 37  6  1  0  0  0  0
 38  7  1  0  0  0  0
 39 10  1  0  0  0  0
 40 11  1  0  0  0  0
 43 14  1  0  0  0  0
 44 15  1  0  0  0  0
 48 21  1  0  0  0  0
 49 22  1  0  0  0  0
 50 25  1  0  0  0  0
 51 26  1  0  0  0  0
 54 29  1  0  0  0  0
 55 30  1  0  0  0  0
M  END
