14,20,30,59
 OpenBabel05122313063D

 59 64  0  0  1  0  0  0  0  0999 V2000
   -5.8576   -2.6970   -1.2632 F   0  0  0  0  0  0  0  0  0  0  0  0
   -6.4048   -1.6575    0.5722 F   0  0  0  0  0  0  0  0  0  0  0  0
   -5.3377   -3.5368    0.6828 F   0  0  0  0  0  0  0  0  0  0  0  0
   -3.2382    4.7393   -0.6433 F   0  0  0  0  0  0  0  0  0  0  0  0
   -1.2741    4.9474    0.2876 F   0  0  0  0  0  0  0  0  0  0  0  0
   -2.9841    4.2771    1.4672 F   0  0  0  0  0  0  0  0  0  0  0  0
    2.5004    4.5769    0.3524 F   0  0  0  0  0  0  0  0  0  0  0  0
    2.7438    4.6730   -1.8092 F   0  0  0  0  0  0  0  0  0  0  0  0
    4.4566    4.1942   -0.5457 F   0  0  0  0  0  0  0  0  0  0  0  0
    4.5902   -4.0139    1.3472 F   0  0  0  0  0  0  0  0  0  0  0  0
    5.9930   -2.3534    1.3768 F   0  0  0  0  0  0  0  0  0  0  0  0
    5.7006   -3.4984   -0.4558 F   0  0  0  0  0  0  0  0  0  0  0  0
    1.6985   -0.9694    1.7405 O   0  0  0  0  0  0  0  0  0  0  0  0
   -2.8470    0.4332    0.1780 N   0  0  0  0  0  0  0  0  0  0  0  0
    0.3496    2.9860   -0.5425 N   0  0  0  0  0  0  0  0  0  0  0  0
    0.5061    3.8260    0.0186 H   0  0  0  0  0  0  0  0  0  0  0  0
    3.2407    0.1744   -0.4904 N   0  0  0  0  0  0  0  0  0  0  0  0
    2.2737   -0.0852   -0.6932 H   0  0  0  0  0  0  0  0  0  0  0  0
    1.3958   -2.2172   -0.1605 N   0  0  0  0  0  0  0  0  0  0  0  0
   -1.6281   -2.0519   -0.3872 N   0  0  0  0  0  0  0  0  0  0  0  0
   -4.0828   -1.6546   -0.0550 C   0  0  2  0  0  3  0  0  0  0  0  0
   -4.0385   -0.2511    0.1288 C   0  0  0  0  0  3  0  0  0  0  0  0
   -5.1278    0.7195    0.1131 C   0  0  0  0  0  0  0  0  0  0  0  0
   -6.1938    0.4863    0.0627 H   0  0  0  0  0  0  0  0  0  0  0  0
   -4.5565    1.9722    0.0962 C   0  0  0  0  0  0  0  0  0  0  0  0
   -5.0665    2.9381    0.0221 H   0  0  0  0  0  0  0  0  0  0  0  0
   -3.1239    1.7725    0.0905 C   0  0  0  0  0  0  0  0  0  0  0  0
   -2.0903    2.7363   -0.0946 C   0  0  1  0  0  3  0  0  0  0  0  0
   -0.8479    2.3166   -0.5995 C   0  0  2  0  0  3  0  0  0  0  0  0
   -0.5694    1.0132   -1.2357 C   0  0  0  0  0  3  0  0  0  0  0  0
   -1.3423    0.5122   -1.8353 H   0  0  0  0  0  0  0  0  0  0  0  0
    0.8045    1.0512   -1.6142 C   0  0  0  0  0  3  0  0  0  0  0  0
    1.3021    0.3218   -2.2607 H   0  0  0  0  0  0  0  0  0  0  0  0
    1.3846    2.2101   -1.0680 C   0  0  2  0  0  3  0  0  0  0  0  0
    2.7681    2.5279   -0.8283 C   0  0  2  0  0  3  0  0  0  0  0  0
    3.6563    1.4839   -0.5040 C   0  0  0  0  0  0  0  0  0  0  0  0
    5.0225    1.4604   -0.0138 C   0  0  0  0  0  0  0  0  0  0  0  0
    5.6706    2.3352    0.0776 H   0  0  0  0  0  0  0  0  0  0  0  0
    5.3291    0.1629    0.3423 C   0  0  0  0  0  0  0  0  0  0  0  0
    6.2699   -0.1891    0.7719 H   0  0  0  0  0  0  0  0  0  0  0  0
    4.1802   -0.6753    0.0553 C   0  0  0  0  0  0  0  0  0  0  0  0
    3.9299   -2.0425    0.2018 C   0  0  1  0  0  3  0  0  0  0  0  0
    2.7200   -2.7071   -0.2241 C   0  0  0  0  0  0  0  0  0  0  0  0
    2.6778   -3.9413   -0.9140 C   0  0  0  0  0  0  0  0  0  0  0  0
    3.5605   -4.5357   -1.1711 H   0  0  0  0  0  0  0  0  0  0  0  0
    1.3541   -4.1985   -1.2838 C   0  0  0  0  0  0  0  0  0  0  0  0
    0.9845   -5.0623   -1.8456 H   0  0  0  0  0  0  0  0  0  0  0  0
    0.5555   -3.1373   -0.8038 C   0  0  0  0  0  0  0  0  0  0  0  0
   -0.8727   -3.0897   -0.8308 C   0  0  0  0  0  0  0  0  0  0  0  0
   -1.7246   -4.1906   -1.2016 C   0  0  0  0  0  0  0  0  0  0  0  0
   -1.3933   -5.1545   -1.6022 H   0  0  0  0  0  0  0  0  0  0  0  0
   -3.0184   -3.8131   -0.9066 C   0  0  0  0  0  0  0  0  0  0  0  0
   -3.9253   -4.4046   -1.0561 H   0  0  0  0  0  0  0  0  0  0  0  0
   -2.9662   -2.4599   -0.4008 C   0  0  0  0  0  3  0  0  0  0  0  0
   -5.4251   -2.3784   -0.0154 C   0  0  0  0  0  0  0  0  0  0  0  0
   -2.3947    4.1720    0.2563 C   0  0  0  0  0  0  0  0  0  0  0  0
    3.1378    3.9774   -0.7143 C   0  0  0  0  0  0  0  0  0  0  0  0
    5.0528   -2.9720    0.6256 C   0  0  0  0  0  0  0  0  0  0  0  0
    0.9070   -1.2279    0.8504 C   0  0  0  0  0  3  0  0  0  0  0  0
  1 55  1  0  0  0  0
  4 56  1  0  0  0  0
  8 57  1  0  0  0  0
 12 58  1  0  0  0  0
 15 16  1  0  0  0  0
 17 41  1  0  0  0  0
 18 17  1  0  0  0  0
 19 59  1  0  0  0  0
 21 55  1  6  0  0  0
 21 22  1  0  0  0  0
 22 14  1  0  0  0  0
 23 22  1  0  0  0  0
 24 23  1  0  0  0  0
 25 23  2  0  0  0  0
 26 25  1  0  0  0  0
 27 25  1  0  0  0  0
 27 14  2  0  0  0  0
 28 27  1  0  0  0  0
 28 56  1  6  0  0  0
 29 30  1  1  0  0  0
 29 15  1  0  0  0  0
 29 28  1  0  0  0  0
 31 30  1  0  0  0  0
 32 30  1  0  0  0  0
 33 32  1  0  0  0  0
 34 32  1  1  0  0  0
 34 35  1  0  0  0  0
 34 15  1  0  0  0  0
 35 57  1  1  0  0  0
 35 36  1  0  0  0  0
 36 17  1  0  0  0  0
 36 37  2  0  0  0  0
 37 38  1  0  0  0  0
 37 39  1  0  0  0  0
 39 40  1  0  0  0  0
 41 42  1  0  0  0  0
 41 39  2  0  0  0  0
 42 58  1  6  0  0  0
 43 19  1  0  0  0  0
 43 42  1  0  0  0  0
 44 43  2  0  0  0  0
 45 44  1  0  0  0  0
 46 44  1  0  0  0  0
 46 48  2  0  0  0  0
 47 46  1  0  0  0  0
 48 19  1  0  0  0  0
 49 48  1  0  0  0  0
 49 20  2  0  0  0  0
 50 52  2  0  0  0  0
 50 49  1  0  0  0  0
 51 50  1  0  0  0  0
 52 54  1  0  0  0  0
 53 52  1  0  0  0  0
 54 20  1  0  0  0  0
 54 21  1  0  0  0  0
 55  2  1  0  0  0  0
 55  3  1  0  0  0  0
 56  5  1  0  0  0  0
 56  6  1  0  0  0  0
 57  9  1  0  0  0  0
 57  7  1  0  0  0  0
 58 10  1  0  0  0  0
 58 11  1  0  0  0  0
 59 13  2  0  0  0  0
M  END
