5,6,9,36
 OpenBabel05122313063D

 40 41  0  0  0  0  0  0  0  0999 V2000
   -3.3145    2.7165    0.6482 O   0  0  0  0  0  0  0  0  0  0  0  0
    3.3131    2.7178   -0.6490 O   0  0  0  0  0  0  0  0  0  0  0  0
   -1.3386   -1.9766   -1.1515 N   0  0  0  0  0  0  0  0  0  0  0  0
   -2.6338   -0.7518    0.0788 N   0  0  0  0  0  0  0  0  0  0  0  0
   -1.2896    1.7684    0.0244 N   0  0  0  0  0  2  0  0  0  0  0  0
    1.2889    1.7688   -0.0238 N   0  0  0  0  0  2  0  0  0  0  0  0
    2.6340   -0.7509   -0.0789 N   0  0  0  0  0  0  0  0  0  0  0  0
    1.3395   -1.9762    1.1515 N   0  0  0  0  0  0  0  0  0  0  0  0
   -1.3371   -0.8639   -0.3407 C   0  0  0  0  0  2  0  0  0  0  0  0
   -0.1829   -2.4808   -1.8743 C   0  0  0  0  0  0  0  0  0  0  0  0
    0.3935   -3.2096   -1.2677 H   0  0  0  0  0  0  0  0  0  0  0  0
    0.4788   -1.6331   -2.1252 H   0  0  0  0  0  0  0  0  0  0  0  0
   -0.5182   -2.9725   -2.8067 H   0  0  0  0  0  0  0  0  0  0  0  0
   -2.6088   -2.5403   -1.2205 C   0  0  0  0  0  0  0  0  0  0  0  0
   -2.8263   -3.4232   -1.8287 H   0  0  0  0  0  0  0  0  0  0  0  0
   -3.4274   -1.7614   -0.4436 C   0  0  0  0  0  0  0  0  0  0  0  0
   -4.4988   -1.8330   -0.2346 H   0  0  0  0  0  0  0  0  0  0  0  0
   -3.0933    0.3586    0.9025 C   0  0  0  0  0  0  0  0  0  0  0  0
   -2.8016    0.1814    1.9608 H   0  0  0  0  0  0  0  0  0  0  0  0
   -4.1956    0.4045    0.8545 H   0  0  0  0  0  0  0  0  0  0  0  0
   -2.5605    1.7460    0.4735 C   0  0  0  0  0  0  0  0  0  0  0  0
   -0.7022    3.0706   -0.2943 C   0  0  0  0  0  0  0  0  0  0  0  0
   -1.3458    3.8781    0.1119 H   0  0  0  0  0  0  0  0  0  0  0  0
   -0.6435    3.2016   -1.3995 H   0  0  0  0  0  0  0  0  0  0  0  0
    0.7011    3.0709    0.2947 C   0  0  0  0  0  0  0  0  0  0  0  0
    1.3444    3.8785   -0.1116 H   0  0  0  0  0  0  0  0  0  0  0  0
    0.6423    3.2019    1.3999 H   0  0  0  0  0  0  0  0  0  0  0  0
    2.5597    1.7469   -0.4736 C   0  0  0  0  0  0  0  0  0  0  0  0
    3.0929    0.3597   -0.9027 C   0  0  0  0  0  0  0  0  0  0  0  0
    2.8012    0.1825   -1.9609 H   0  0  0  0  0  0  0  0  0  0  0  0
    4.1953    0.4061   -0.8549 H   0  0  0  0  0  0  0  0  0  0  0  0
    3.4281   -1.7603    0.4432 C   0  0  0  0  0  0  0  0  0  0  0  0
    4.4995   -1.8315    0.2339 H   0  0  0  0  0  0  0  0  0  0  0  0
    2.6099   -2.5396    1.2201 C   0  0  0  0  0  0  0  0  0  0  0  0
    2.8278   -3.4224    1.8282 H   0  0  0  0  0  0  0  0  0  0  0  0
    1.3374   -0.8635    0.3408 C   0  0  0  0  0  2  0  0  0  0  0  0
    0.1842   -2.4811    1.8744 C   0  0  0  0  0  0  0  0  0  0  0  0
   -0.3903   -3.2124    1.2690 H   0  0  0  0  0  0  0  0  0  0  0  0
   -0.4793   -1.6340    2.1228 H   0  0  0  0  0  0  0  0  0  0  0  0
    0.5196   -2.9700    2.8083 H   0  0  0  0  0  0  0  0  0  0  0  0
  2 28  2  0  0  0  0
  3  9  1  0  0  0  0
  4 18  1  0  0  0  0
  5 21  1  0  0  0  0
  6 25  1  0  0  0  0
  7 36  1  0  0  0  0
  7 32  1  0  0  0  0
  8 34  1  0  0  0  0
  8 37  1  0  0  0  0
  9  4  1  0  0  0  0
 10 11  1  0  0  0  0
 10  3  1  0  0  0  0
 12 10  1  0  0  0  0
 13 10  1  0  0  0  0
 14  3  1  0  0  0  0
 14 16  2  0  0  0  0
 15 14  1  0  0  0  0
 16 17  1  0  0  0  0
 16  4  1  0  0  0  0
 18 19  1  0  0  0  0
 20 18  1  0  0  0  0
 21  1  2  0  0  0  0
 21 18  1  0  0  0  0
 22  5  1  0  0  0  0
 22 23  1  0  0  0  0
 22 25  1  0  0  0  0
 24 22  1  0  0  0  0
 25 27  1  0  0  0  0
 26 25  1  0  0  0  0
 28  6  1  0  0  0  0
 29 31  1  0  0  0  0
 29 28  1  0  0  0  0
 29  7  1  0  0  0  0
 30 29  1  0  0  0  0
 32 34  2  0  0  0  0
 33 32  1  0  0  0  0
 34 35  1  0  0  0  0
 36  8  1  0  0  0  0
 37 39  1  0  0  0  0
 37 40  1  0  0  0  0
 38 37  1  0  0  0  0
M  END
