3,4,9,10
 OpenBabel05122313063D

 60 63  0  0  0  0  0  0  0  0999 V2000
   -0.8409    1.1827   -2.2971 N   0  0  0  0  0  0  0  0  0  0  0  0
    0.6623    2.4438   -1.3790 N   0  0  0  0  0  0  0  0  0  0  0  0
    0.1354    1.9570    1.3505 N   0  0  0  0  0  2  0  0  0  0  0  0
   -0.5638   -0.4224    2.0818 N   0  0  0  0  0  2  0  0  0  0  0  0
   -0.7244   -2.4616    0.1271 N   0  0  0  0  0  0  0  0  0  0  0  0
    0.9470   -1.9462   -1.1514 N   0  0  0  0  0  0  0  0  0  0  0  0
    1.2770    3.9277    1.8085 O   0  0  0  0  0  0  0  0  0  0  0  0
   -1.9000   -1.7536    3.4331 O   0  0  0  0  0  0  0  0  0  0  0  0
   -0.0145    1.2698   -1.1991 C   0  0  0  0  0  2  0  0  0  0  0  0
    0.0060   -1.3950   -0.3122 C   0  0  0  0  0  2  0  0  0  0  0  0
   -1.7791   -2.3228    1.1227 C   0  0  0  0  0  0  0  0  0  0  0  0
   -2.0426   -3.3254    1.5029 H   0  0  0  0  0  0  0  0  0  0  0  0
   -2.6806   -1.8821    0.6493 H   0  0  0  0  0  0  0  0  0  0  0  0
   -1.3874   -1.4600    2.3412 C   0  0  0  0  0  0  0  0  0  0  0  0
   -0.2167    0.4645    3.1917 C   0  0  0  0  0  0  0  0  0  0  0  0
    0.8536    0.3217    3.4699 H   0  0  0  0  0  0  0  0  0  0  0  0
   -0.8398    0.2126    4.0746 H   0  0  0  0  0  0  0  0  0  0  0  0
   -0.4265    1.8888    2.6999 C   0  0  0  0  0  0  0  0  0  0  0  0
   -1.5186    2.1118    2.6661 H   0  0  0  0  0  0  0  0  0  0  0  0
    0.0604    2.6500    3.3440 H   0  0  0  0  0  0  0  0  0  0  0  0
    0.9431    2.9985    1.0571 C   0  0  0  0  0  0  0  0  0  0  0  0
    1.5601    2.9733   -0.3617 C   0  0  0  0  0  0  0  0  0  0  0  0
    1.8278    4.0117   -0.6242 H   0  0  0  0  0  0  0  0  0  0  0  0
    2.4913    2.3673   -0.3388 H   0  0  0  0  0  0  0  0  0  0  0  0
    0.2622    3.0890   -2.5402 C   0  0  0  0  0  0  0  0  0  0  0  0
    0.6853    4.0479   -2.8533 H   0  0  0  0  0  0  0  0  0  0  0  0
   -0.6912    2.2931   -3.1216 C   0  0  0  0  0  0  0  0  0  0  0  0
   -1.2670    2.4189   -4.0431 H   0  0  0  0  0  0  0  0  0  0  0  0
   -1.7992    0.1105   -2.5219 C   0  0  0  0  0  0  0  0  0  0  0  0
   -1.2482   -0.8529   -2.5210 H   0  0  0  0  0  0  0  0  0  0  0  0
   -2.2062    0.2448   -3.5447 H   0  0  0  0  0  0  0  0  0  0  0  0
   -2.9350    0.0262   -1.5158 C   0  0  0  0  0  0  0  0  0  0  0  0
   -3.8897   -0.9967   -1.6849 C   0  0  0  0  0  0  0  0  0  0  0  0
   -3.8109   -1.6782   -2.5478 H   0  0  0  0  0  0  0  0  0  0  0  0
   -4.9281   -1.1667   -0.7580 C   0  0  0  0  0  0  0  0  0  0  0  0
   -5.6626   -1.9737   -0.9009 H   0  0  0  0  0  0  0  0  0  0  0  0
   -5.0202   -0.3170    0.3578 C   0  0  0  0  0  0  0  0  0  0  0  0
   -5.8218   -0.4592    1.0977 H   0  0  0  0  0  0  0  0  0  0  0  0
   -4.0795    0.7088    0.5255 C   0  0  0  0  0  0  0  0  0  0  0  0
   -4.1362    1.3747    1.3992 H   0  0  0  0  0  0  0  0  0  0  0  0
   -3.0435    0.8854   -0.4073 C   0  0  0  0  0  0  0  0  0  0  0  0
   -2.3150    1.6931   -0.2531 H   0  0  0  0  0  0  0  0  0  0  0  0
   -0.2505   -3.6523   -0.4033 C   0  0  0  0  0  0  0  0  0  0  0  0
   -0.7053   -4.6189   -0.1677 H   0  0  0  0  0  0  0  0  0  0  0  0
    0.8117   -3.3295   -1.2083 C   0  0  0  0  0  0  0  0  0  0  0  0
    1.4803   -3.9580   -1.8035 H   0  0  0  0  0  0  0  0  0  0  0  0
    2.0567   -1.2081   -1.7545 C   0  0  0  0  0  0  0  0  0  0  0  0
    1.6637   -0.2070   -2.0198 H   0  0  0  0  0  0  0  0  0  0  0  0
    2.3373   -1.7249   -2.6930 H   0  0  0  0  0  0  0  0  0  0  0  0
    3.2653   -1.0706   -0.8478 C   0  0  0  0  0  0  0  0  0  0  0  0
    3.1548   -0.3994    0.3873 C   0  0  0  0  0  0  0  0  0  0  0  0
    2.1704    0.0002    0.6999 H   0  0  0  0  0  0  0  0  0  0  0  0
    4.2743   -0.2512    1.2164 C   0  0  0  0  0  0  0  0  0  0  0  0
    4.1705    0.2764    2.1767 H   0  0  0  0  0  0  0  0  0  0  0  0
    5.5190   -0.7711    0.8220 C   0  0  0  0  0  0  0  0  0  0  0  0
    6.3981   -0.6543    1.4738 H   0  0  0  0  0  0  0  0  0  0  0  0
    5.6367   -1.4417   -0.4047 C   0  0  0  0  0  0  0  0  0  0  0  0
    6.6078   -1.8537   -0.7187 H   0  0  0  0  0  0  0  0  0  0  0  0
    4.5135   -1.5914   -1.2344 C   0  0  0  0  0  0  0  0  0  0  0  0
    4.6100   -2.1178   -2.1981 H   0  0  0  0  0  0  0  0  0  0  0  0
  1  9  1  0  0  0  0
  2  9  1  0  0  0  0
  2 22  1  0  0  0  0
  3 18  1  0  0  0  0
  4 14  1  0  0  0  0
  4 15  1  0  0  0  0
  5 11  1  0  0  0  0
  6 10  1  0  0  0  0
 10  5  1  0  0  0  0
 11 12  1  0  0  0  0
 11 14  1  0  0  0  0
 13 11  1  0  0  0  0
 14  8  2  0  0  0  0
 15 16  1  0  0  0  0
 15 17  1  0  0  0  0
 18 15  1  0  0  0  0
 18 20  1  0  0  0  0
 19 18  1  0  0  0  0
 21  3  1  0  0  0  0
 21  7  2  0  0  0  0
 22 24  1  0  0  0  0
 22 21  1  0  0  0  0
 23 22  1  0  0  0  0
 25  2  1  0  0  0  0
 26 25  1  0  0  0  0
 27 25  2  0  0  0  0
 27  1  1  0  0  0  0
 28 27  1  0  0  0  0
 29 30  1  0  0  0  0
 29  1  1  0  0  0  0
 29 32  1  0  0  0  0
 31 29  1  0  0  0  0
 32 41  1  0  0  0  0
 33 32  2  0  0  0  0
 33 35  1  0  0  0  0
 34 33  1  0  0  0  0
 35 37  2  0  0  0  0
 36 35  1  0  0  0  0
 37 39  1  0  0  0  0
 37 38  1  0  0  0  0
 39 40  1  0  0  0  0
 41 42  1  0  0  0  0
 41 39  2  0  0  0  0
 43 44  1  0  0  0  0
 43  5  1  0  0  0  0
 45  6  1  0  0  0  0
 45 43  2  0  0  0  0
 46 45  1  0  0  0  0
 47  6  1  0  0  0  0
 47 50  1  0  0  0  0
 48 47  1  0  0  0  0
 49 47  1  0  0  0  0
 50 51  1  0  0  0  0
 51 52  1  0  0  0  0
 51 53  2  0  0  0  0
 53 54  1  0  0  0  0
 55 53  1  0  0  0  0
 55 56  1  0  0  0  0
 57 55  2  0  0  0  0
 58 57  1  0  0  0  0
 59 50  2  0  0  0  0
 59 57  1  0  0  0  0
 60 59  1  0  0  0  0
M  END
