2,5,8,17
 OpenBabel05122313063D

 69 72  0  0  1  0  0  0  0  0999 V2000
   -4.9290   -0.0035    0.8855 O   0  0  0  0  0  0  0  0  0  0  0  0
   -0.5093    1.7141   -0.5663 N   0  0  0  0  0  2  0  0  0  0  0  0
    0.7154    1.9364   -0.9769 N   0  0  0  0  0  2  0  0  0  0  0  0
    0.8476    3.2705   -1.0379 N   0  0  0  0  0  0  0  0  0  0  0  0
   -0.5065   -1.7135   -0.5666 N   0  0  0  0  0  2  0  0  0  0  0  0
    0.7185   -1.9338   -0.9773 N   0  0  0  0  0  2  0  0  0  0  0  0
    0.8529   -3.2676   -1.0386 N   0  0  0  0  0  0  0  0  0  0  0  0
   -3.0125    1.4218    0.2538 C   0  0  0  0  0  3  0  0  0  0  0  0
   -2.5762    2.7770    0.1083 C   0  0  0  0  0  0  0  0  0  0  0  0
   -3.4157    3.8712    0.3824 C   0  0  0  0  0  0  0  0  0  0  0  0
   -3.0501    4.9026    0.2605 H   0  0  0  0  0  0  0  0  0  0  0  0
   -4.7292    3.6293    0.8144 C   0  0  0  0  0  0  0  0  0  0  0  0
   -5.4037    4.4701    1.0345 H   0  0  0  0  0  0  0  0  0  0  0  0
   -5.1872    2.3147    0.9671 C   0  0  0  0  0  0  0  0  0  0  0  0
   -6.2125    2.1023    1.3042 H   0  0  0  0  0  0  0  0  0  0  0  0
   -4.3381    1.2207    0.6897 C   0  0  0  0  0  0  0  0  0  0  0  0
   -3.0102   -1.4255    0.2536 C   0  0  0  0  0  2  0  0  0  0  0  0
   -2.5716   -2.7799    0.1078 C   0  0  2  0  0  3  0  0  0  0  0  0
   -3.4094   -3.8755    0.3817 C   0  0  0  0  0  0  0  0  0  0  0  0
   -3.0421   -4.9063    0.2596 H   0  0  0  0  0  0  0  0  0  0  0  0
   -4.7233   -3.6359    0.8138 C   0  0  0  0  0  0  0  0  0  0  0  0
   -5.3964   -4.4778    1.0338 H   0  0  0  0  0  0  0  0  0  0  0  0
   -5.1834   -2.3220    0.9667 C   0  0  0  0  0  0  0  0  0  0  0  0
   -6.2091   -2.1114    1.3039 H   0  0  0  0  0  0  0  0  0  0  0  0
   -4.3361   -1.2266    0.6895 C   0  0  0  0  0  0  0  0  0  0  0  0
   -1.1944    2.8966   -0.3448 C   0  0  0  0  0  0  0  0  0  0  0  0
   -0.2989    3.9152   -0.6504 C   0  0  0  0  0  0  0  0  0  0  0  0
   -0.3824    5.0051   -0.6334 H   0  0  0  0  0  0  0  0  0  0  0  0
   -1.1897   -2.8972   -0.3453 C   0  0  0  0  0  0  0  0  0  0  0  0
   -0.2925   -3.9143   -0.6511 C   0  0  0  0  0  0  0  0  0  0  0  0
   -0.3742   -5.0044   -0.6343 H   0  0  0  0  0  0  0  0  0  0  0  0
    2.1418    3.8484   -1.3717 C   0  0  0  0  0  0  0  0  0  0  0  0
    1.9567    4.8096   -1.8930 H   0  0  0  0  0  0  0  0  0  0  0  0
    2.6163    3.1580   -2.0966 H   0  0  0  0  0  0  0  0  0  0  0  0
    3.0369    4.0477   -0.1456 C   0  0  0  0  0  0  0  0  0  0  0  0
    3.1559    3.0668    0.3621 H   0  0  0  0  0  0  0  0  0  0  0  0
    2.5203    4.7142    0.5790 H   0  0  0  0  0  0  0  0  0  0  0  0
    4.4060    4.6272   -0.5067 C   0  0  0  0  0  0  0  0  0  0  0  0
    4.2722    5.5991   -1.0341 H   0  0  0  0  0  0  0  0  0  0  0  0
    4.9093    3.9563   -1.2391 H   0  0  0  0  0  0  0  0  0  0  0  0
    5.3197    4.8309    0.7047 C   0  0  0  0  0  0  0  0  0  0  0  0
    4.8157    5.5015    1.4370 H   0  0  0  0  0  0  0  0  0  0  0  0
    5.4511    3.8594    1.2324 H   0  0  0  0  0  0  0  0  0  0  0  0
    6.6941    5.4074    0.3515 C   0  0  0  0  0  0  0  0  0  0  0  0
    6.5571    6.3764   -0.1785 H   0  0  0  0  0  0  0  0  0  0  0  0
    7.1931    4.7349   -0.3815 H   0  0  0  0  0  0  0  0  0  0  0  0
    7.5997    5.6081    1.5669 C   0  0  0  0  0  0  0  0  0  0  0  0
    8.5857    6.0256    1.2801 H   0  0  0  0  0  0  0  0  0  0  0  0
    7.7835    4.6494    2.0955 H   0  0  0  0  0  0  0  0  0  0  0  0
    7.1422    6.3047    2.3002 H   0  0  0  0  0  0  0  0  0  0  0  0
    2.1481   -3.8434   -1.3724 C   0  0  0  0  0  0  0  0  0  0  0  0
    2.6223   -3.1509   -2.0954 H   0  0  0  0  0  0  0  0  0  0  0  0
    1.9646   -4.8038   -1.8959 H   0  0  0  0  0  0  0  0  0  0  0  0
    3.0424   -4.0442   -0.1460 C   0  0  0  0  0  0  0  0  0  0  0  0
    2.5259   -4.7129    0.5768 H   0  0  0  0  0  0  0  0  0  0  0  0
    3.1598   -3.0643    0.3639 H   0  0  0  0  0  0  0  0  0  0  0  0
    4.4124   -4.6215   -0.5072 C   0  0  0  0  0  0  0  0  0  0  0  0
    4.2801   -5.5924   -1.0367 H   0  0  0  0  0  0  0  0  0  0  0  0
    4.9156   -3.9484   -1.2377 H   0  0  0  0  0  0  0  0  0  0  0  0
    5.3253   -4.8267    0.7045 C   0  0  0  0  0  0  0  0  0  0  0  0
    4.8214   -5.4994    1.4350 H   0  0  0  0  0  0  0  0  0  0  0  0
    5.4552   -3.8561    1.2344 H   0  0  0  0  0  0  0  0  0  0  0  0
    6.7006   -5.4009    0.3513 C   0  0  0  0  0  0  0  0  0  0  0  0
    6.5652   -6.3690   -0.1808 H   0  0  0  0  0  0  0  0  0  0  0  0
    7.1995   -4.7263   -0.3799 H   0  0  0  0  0  0  0  0  0  0  0  0
    7.6055   -5.6031    1.5670 C   0  0  0  0  0  0  0  0  0  0  0  0
    8.5922   -6.0189    1.2801 H   0  0  0  0  0  0  0  0  0  0  0  0
    7.1482   -6.3018    2.2984 H   0  0  0  0  0  0  0  0  0  0  0  0
    7.7877   -4.6453    2.0977 H   0  0  0  0  0  0  0  0  0  0  0  0
  2 26  1  0  0  0  0
  3  2  1  0  0  0  0
  4  3  1  0  0  0  0
  4 27  1  0  0  0  0
  5 29  1  0  0  0  0
  6  5  1  0  0  0  0
  7  6  1  0  0  0  0
  7 30  1  0  0  0  0
  8 16  1  0  0  0  0
  9  8  2  0  0  0  0
  9 10  1  0  0  0  0
 10 12  2  0  0  0  0
 11 10  1  0  0  0  0
 12 14  1  0  0  0  0
 12 13  1  0  0  0  0
 14 15  1  0  0  0  0
 16  1  1  0  0  0  0
 16 14  2  0  0  0  0
 17 25  1  0  0  0  0
 18 29  1  1  0  0  0
 18 17  1  0  0  0  0
 18 19  1  0  0  0  0
 19 21  2  0  0  0  0
 20 19  1  0  0  0  0
 21 23  1  0  0  0  0
 21 22  1  0  0  0  0
 23 24  1  0  0  0  0
 25  1  1  0  0  0  0
 25 23  2  0  0  0  0
 26  9  1  0  0  0  0
 27 28  1  0  0  0  0
 27 26  2  0  0  0  0
 30 31  1  0  0  0  0
 30 29  2  0  0  0  0
 32  4  1  0  0  0  0
 32 35  1  0  0  0  0
 33 32  1  0  0  0  0
 34 32  1  0  0  0  0
 35 36  1  0  0  0  0
 35 37  1  0  0  0  0
 38 35  1  0  0  0  0
 38 41  1  0  0  0  0
 39 38  1  0  0  0  0
 40 38  1  0  0  0  0
 41 43  1  0  0  0  0
 41 42  1  0  0  0  0
 44 41  1  0  0  0  0
 44 47  1  0  0  0  0
 45 44  1  0  0  0  0
 46 44  1  0  0  0  0
 47 49  1  0  0  0  0
 47 50  1  0  0  0  0
 48 47  1  0  0  0  0
 51  7  1  0  0  0  0
 51 54  1  0  0  0  0
 52 51  1  0  0  0  0
 53 51  1  0  0  0  0
 54 56  1  0  0  0  0
 54 55  1  0  0  0  0
 57 54  1  0  0  0  0
 57 60  1  0  0  0  0
 58 57  1  0  0  0  0
 59 57  1  0  0  0  0
 60 62  1  0  0  0  0
 60 61  1  0  0  0  0
 63 60  1  0  0  0  0
 63 66  1  0  0  0  0
 64 63  1  0  0  0  0
 65 63  1  0  0  0  0
 66 69  1  0  0  0  0
 66 68  1  0  0  0  0
 67 66  1  0  0  0  0
M  END
