34,37,38,39
 OpenBabel05122313063D

 80 87  0  0  1  0  0  0  0  0999 V2000
    0.9081   -3.1007    0.3781 C   0  0  0  0  0  0  0  0  0  0  0  0
    1.9952   -4.0316    0.4595 C   0  0  0  0  0  0  0  0  0  0  0  0
    1.7302   -5.0769    0.6812 H   0  0  0  0  0  0  0  0  0  0  0  0
    3.3216   -3.6555    0.2852 C   0  0  0  0  0  0  0  0  0  0  0  0
    4.1344   -4.3907    0.3659 H   0  0  0  0  0  0  0  0  0  0  0  0
    3.6339   -2.2879    0.0462 C   0  0  0  0  0  0  0  0  0  0  0  0
    6.0088   -2.6045    0.1266 O   0  0  0  0  0  0  0  0  0  0  0  0
    4.9647   -1.7266    0.0131 C   0  0  0  0  0  0  0  0  0  0  0  0
    6.4310    0.1983   -0.1717 O   0  0  0  0  0  0  0  0  0  0  0  0
    5.1689   -0.3419   -0.1211 C   0  0  0  0  0  0  0  0  0  0  0  0
    4.0581    0.5735   -0.1552 C   0  0  0  0  0  0  0  0  0  0  0  0
    4.1571    1.9951   -0.1378 C   0  0  0  0  0  0  0  0  0  0  0  0
    5.1512    2.4632   -0.1155 H   0  0  0  0  0  0  0  0  0  0  0  0
    3.0090    2.7709   -0.1036 C   0  0  0  0  0  0  0  0  0  0  0  0
    3.1074    3.8639   -0.0427 H   0  0  0  0  0  0  0  0  0  0  0  0
    1.6765    2.2076   -0.1209 C   0  0  0  0  0  0  0  0  0  0  0  0
    0.5099    3.0663   -0.0349 C   0  0  1  0  0  3  0  0  0  0  0  0
   -0.8040    2.5853   -0.0917 C   0  0  0  0  0  0  0  0  0  0  0  0
   -2.0130    3.3874   -0.0142 C   0  0  0  0  0  3  0  0  0  0  0  0
   -2.0366    4.4761    0.1026 H   0  0  0  0  0  0  0  0  0  0  0  0
   -3.0791    2.5301   -0.1409 C   0  0  0  0  0  0  0  0  0  0  0  0
   -4.1451    2.7795   -0.1566 H   0  0  0  0  0  0  0  0  0  0  0  0
   -2.5351    1.1936   -0.3278 C   0  0  0  0  0  0  0  0  0  0  0  0
   -3.3111    0.0261   -0.6276 C   0  0  0  0  0  0  0  0  0  0  0  0
   -2.7147   -1.1471   -1.1177 C   0  0  0  0  0  0  0  0  0  0  0  0
   -3.4309   -2.3361   -1.6331 C   0  0  0  0  0  0  0  0  0  0  0  0
   -4.5162   -2.4739   -1.5708 H   0  0  0  0  0  0  0  0  0  0  0  0
   -2.5085   -3.1612   -2.1892 C   0  0  0  0  0  0  0  0  0  0  0  0
   -2.6513   -4.1243   -2.6916 H   0  0  0  0  0  0  0  0  0  0  0  0
   -1.1659   -2.5270   -2.0132 C   0  0  0  0  0  0  0  0  0  0  0  0
   -0.0863   -2.9217   -2.4297 O   0  0  0  0  0  0  0  0  0  0  0  0
   -0.4564   -3.6264    0.7164 C   0  0  0  0  0  0  0  0  0  0  0  0
   -0.7728   -4.7829    0.4357 O   0  0  0  0  0  0  0  0  0  0  0  0
    1.1958   -1.7892   -0.0038 C   0  0  0  0  0  3  0  0  0  0  0  0
    2.5461   -1.3881   -0.0964 C   0  0  0  0  0  0  0  0  0  0  0  0
    2.7502    0.0179   -0.1701 C   0  0  0  0  0  0  0  0  0  0  0  0
    1.5780    0.8014   -0.1723 C   0  0  0  0  0  3  0  0  0  0  0  0
   -1.1717    1.2590   -0.2802 N   0  0  0  0  0  0  0  0  0  0  0  0
   -1.3736   -1.3285   -1.2765 N   0  0  0  0  0  2  0  0  0  0  0  0
    0.6901    4.5390    0.1242 C   0  0  0  0  0  0  0  0  0  0  0  0
    1.1810    5.3228   -0.9430 C   0  0  0  0  0  0  0  0  0  0  0  0
    1.4317    4.8347   -1.8969 H   0  0  0  0  0  0  0  0  0  0  0  0
    1.3323    6.7091   -0.7976 C   0  0  0  0  0  0  0  0  0  0  0  0
    1.7066    7.3078   -1.6418 H   0  0  0  0  0  0  0  0  0  0  0  0
    1.0028    7.3327    0.4169 C   0  0  0  0  0  0  0  0  0  0  0  0
    1.1241    8.4206    0.5302 H   0  0  0  0  0  0  0  0  0  0  0  0
    0.5173    6.5621    1.4846 C   0  0  0  0  0  0  0  0  0  0  0  0
    0.2592    7.0431    2.4404 H   0  0  0  0  0  0  0  0  0  0  0  0
    0.3603    5.1755    1.3395 C   0  0  0  0  0  0  0  0  0  0  0  0
   -0.0164    4.5680    2.1761 H   0  0  0  0  0  0  0  0  0  0  0  0
   -4.7929    0.1294   -0.5222 C   0  0  0  0  0  0  0  0  0  0  0  0
   -5.3969    0.4779    0.7072 C   0  0  0  0  0  0  0  0  0  0  0  0
   -4.7543    0.6565    1.5809 H   0  0  0  0  0  0  0  0  0  0  0  0
   -6.7902    0.5806    0.8210 C   0  0  0  0  0  0  0  0  0  0  0  0
   -7.2405    0.8465    1.7898 H   0  0  0  0  0  0  0  0  0  0  0  0
   -7.6100    0.3389   -0.2932 C   0  0  0  0  0  0  0  0  0  0  0  0
   -8.7041    0.4175   -0.2038 H   0  0  0  0  0  0  0  0  0  0  0  0
   -7.0239    0.0062   -1.5245 C   0  0  0  0  0  0  0  0  0  0  0  0
   -7.6568   -0.1668   -2.4083 H   0  0  0  0  0  0  0  0  0  0  0  0
   -5.6294   -0.0915   -1.6397 C   0  0  0  0  0  0  0  0  0  0  0  0
   -5.1724   -0.3191   -2.6144 H   0  0  0  0  0  0  0  0  0  0  0  0
   -1.4121   -2.7495    1.4822 C   0  0  0  0  0  0  0  0  0  0  0  0
   -2.7540   -3.1782    1.5760 C   0  0  0  0  0  0  0  0  0  0  0  0
   -3.0294   -4.1104    1.0621 H   0  0  0  0  0  0  0  0  0  0  0  0
   -3.6894   -2.4351    2.3037 C   0  0  0  0  0  0  0  0  0  0  0  0
   -4.7360   -2.7707    2.3611 H   0  0  0  0  0  0  0  0  0  0  0  0
   -3.2926   -1.2570    2.9605 C   0  0  0  0  0  0  0  0  0  0  0  0
   -4.0250   -0.6797    3.5455 H   0  0  0  0  0  0  0  0  0  0  0  0
   -1.9602   -0.8238    2.8794 C   0  0  0  0  0  0  0  0  0  0  0  0
   -1.6433    0.0939    3.3975 H   0  0  0  0  0  0  0  0  0  0  0  0
   -1.0215   -1.5687    2.1501 C   0  0  0  0  0  0  0  0  0  0  0  0
    0.0297   -1.2466    2.1269 H   0  0  0  0  0  0  0  0  0  0  0  0
    6.8761   -2.4171    1.2499 C   0  0  0  0  0  0  0  0  0  0  0  0
    7.6355   -3.2193    1.1948 H   0  0  0  0  0  0  0  0  0  0  0  0
    7.3731   -1.4251    1.2313 H   0  0  0  0  0  0  0  0  0  0  0  0
    6.3075   -2.5181    2.1998 H   0  0  0  0  0  0  0  0  0  0  0  0
    7.2052   -0.1734   -1.3162 C   0  0  0  0  0  0  0  0  0  0  0  0
    8.1723    0.3564   -1.2280 H   0  0  0  0  0  0  0  0  0  0  0  0
    7.3822   -1.2691   -1.3572 H   0  0  0  0  0  0  0  0  0  0  0  0
    6.6984    0.1446   -2.2533 H   0  0  0  0  0  0  0  0  0  0  0  0
  1  2  1  0  0  0  0
  1 32  1  0  0  0  0
  2  3  1  0  0  0  0
  4  5  1  0  0  0  0
  4  2  2  0  0  0  0
  6  4  1  0  0  0  0
  7 73  1  0  0  0  0
  8  6  1  0  0  0  0
  8  7  1  0  0  0  0
  9 10  1  0  0  0  0
 10  8  2  0  0  0  0
 11 12  1  0  0  0  0
 11 10  1  0  0  0  0
 12 13  1  0  0  0  0
 12 14  2  0  0  0  0
 14 15  1  0  0  0  0
 16 14  1  0  0  0  0
 17 16  1  1  0  0  0
 17 40  1  0  0  0  0
 18 17  1  0  0  0  0
 18 19  1  0  0  0  0
 19 20  1  0  0  0  0
 21 19  1  0  0  0  0
 22 21  1  0  0  0  0
 23 38  1  0  0  0  0
 23 21  2  0  0  0  0
 24 51  1  0  0  0  0
 24 23  1  0  0  0  0
 25 24  2  0  0  0  0
 26 27  1  0  0  0  0
 26 25  1  0  0  0  0
 28 30  1  0  0  0  0
 28 26  2  0  0  0  0
 29 28  1  0  0  0  0
 30 39  1  0  0  0  0
 31 30  2  0  0  0  0
 32 62  1  0  0  0  0
 33 32  2  0  0  0  0
 34  1  2  0  0  0  0
 35 34  1  0  0  0  0
 35  6  2  0  0  0  0
 36 11  2  0  0  0  0
 36 35  1  0  0  0  0
 37 36  1  0  0  0  0
 37 16  2  0  0  0  0
 38 18  2  0  0  0  0
 39 25  1  0  0  0  0
 40 49  1  0  0  0  0
 41 43  1  0  0  0  0
 41 40  2  0  0  0  0
 42 41  1  0  0  0  0
 43 45  2  0  0  0  0
 44 43  1  0  0  0  0
 45 46  1  0  0  0  0
 45 47  1  0  0  0  0
 47 48  1  0  0  0  0
 49 47  2  0  0  0  0
 49 50  1  0  0  0  0
 51 52  1  0  0  0  0
 52 54  2  0  0  0  0
 52 53  1  0  0  0  0
 54 55  1  0  0  0  0
 56 57  1  0  0  0  0
 56 54  1  0  0  0  0
 58 56  2  0  0  0  0
 59 58  1  0  0  0  0
 60 58  1  0  0  0  0
 60 51  2  0  0  0  0
 61 60  1  0  0  0  0
 62 63  2  0  0  0  0
 62 71  1  0  0  0  0
 63 65  1  0  0  0  0
 64 63  1  0  0  0  0
 65 66  1  0  0  0  0
 65 67  2  0  0  0  0
 67 68  1  0  0  0  0
 69 67  1  0  0  0  0
 69 70  1  0  0  0  0
 71 69  2  0  0  0  0
 72 71  1  0  0  0  0
 73 76  1  0  0  0  0
 74 73  1  0  0  0  0
 75 73  1  0  0  0  0
 77 78  1  0  0  0  0
 77  9  1  0  0  0  0
 79 77  1  0  0  0  0
 80 77  1  0  0  0  0
M  END
