18,23,34,37
 OpenBabel05122313063D

 69 72  0  0  1  0  0  0  0  0999 V2000
    6.0911   -2.5902    1.7640 C   0  0  0  0  0  0  0  0  0  0  0  0
    6.8780   -3.0172    1.1104 H   0  0  0  0  0  0  0  0  0  0  0  0
    5.9671   -3.2586    2.6383 H   0  0  0  0  0  0  0  0  0  0  0  0
    6.4787   -1.6191    2.1419 H   0  0  0  0  0  0  0  0  0  0  0  0
    4.7951   -2.3956    1.0189 C   0  0  0  0  0  0  0  0  0  0  0  0
    4.7928   -1.9229   -0.3092 C   0  0  0  0  0  0  0  0  0  0  0  0
    5.7514   -1.7242   -0.8142 H   0  0  0  0  0  0  0  0  0  0  0  0
    3.5945   -1.6862   -0.9950 C   0  0  0  0  0  0  0  0  0  0  0  0
    3.5806   -1.2985   -2.0231 H   0  0  0  0  0  0  0  0  0  0  0  0
    2.3788   -1.9195   -0.3425 C   0  0  0  0  0  0  0  0  0  0  0  0
    2.3471   -2.4171    0.9679 C   0  0  0  0  0  0  0  0  0  0  0  0
    1.3806   -2.5999    1.4603 H   0  0  0  0  0  0  0  0  0  0  0  0
    3.5526   -2.6490    1.6400 C   0  0  0  0  0  0  0  0  0  0  0  0
    3.5347   -3.0327    2.6727 H   0  0  0  0  0  0  0  0  0  0  0  0
    0.8301   -1.6238   -1.2266 S   0  0  0  0  0  0  0  0  0  0  0  0
    1.1907   -1.0148   -2.5336 O   0  0  0  0  0  0  0  0  0  0  0  0
    0.1426   -2.9417   -1.2071 O   0  0  0  0  0  0  0  0  0  0  0  0
   -0.0077   -0.5438   -0.2378 N   0  0  0  0  0  2  0  0  0  0  0  0
    0.4093    0.8471   -0.5125 C   0  0  1  0  0  0  0  0  0  0  0  0
    0.1427    1.1265   -1.5553 H   0  0  0  0  0  0  0  0  0  0  0  0
   -0.3788    1.7567    0.4452 C   0  0  2  0  0  0  0  0  0  0  0  0
   -0.0219    1.5494    1.4736 H   0  0  0  0  0  0  0  0  0  0  0  0
   -1.8207    1.3796    0.4128 N   0  0  0  0  0  0  0  0  0  0  0  0
   -2.2092    1.7136   -0.4908 H   0  0  0  0  0  0  0  0  0  0  0  0
   -2.5803    1.9745    1.5366 C   0  0  0  0  0  0  0  0  0  0  0  0
   -3.6502    2.0008    1.2450 H   0  0  0  0  0  0  0  0  0  0  0  0
   -2.2517    3.0293    1.6581 H   0  0  0  0  0  0  0  0  0  0  0  0
   -2.4008    1.2175    2.8552 C   0  0  0  0  0  0  0  0  0  0  0  0
   -2.6218    1.9078    3.6952 H   0  0  0  0  0  0  0  0  0  0  0  0
   -1.3339    0.9307    2.9691 H   0  0  0  0  0  0  0  0  0  0  0  0
   -3.2939   -0.0278    2.9937 C   0  0  0  0  0  0  0  0  0  0  0  0
   -3.0395   -0.5561    3.9353 H   0  0  0  0  0  0  0  0  0  0  0  0
   -4.3505    0.2977    3.0913 H   0  0  0  0  0  0  0  0  0  0  0  0
   -3.1988   -1.0008    1.8388 C   0  0  1  0  0  3  0  0  0  0  0  0
   -4.1545   -0.9248    0.7629 C   0  0  0  0  0  3  0  0  0  0  0  0
   -4.9428   -0.1577    0.7828 H   0  0  0  0  0  0  0  0  0  0  0  0
   -3.9827   -1.7277   -0.3920 C   0  0  0  0  0  3  0  0  0  0  0  0
   -4.6217   -1.5465   -1.2687 H   0  0  0  0  0  0  0  0  0  0  0  0
   -2.9301   -2.7113   -0.4934 C   0  0  2  0  0  3  0  0  0  0  0  0
   -2.0252   -2.8091    0.6078 C   0  0  0  0  0  0  0  0  0  0  0  0
   -1.1458   -3.4571    0.4977 H   0  0  0  0  0  0  0  0  0  0  0  0
   -2.1467   -1.9724    1.7663 C   0  0  0  0  0  0  0  0  0  0  0  0
   -1.3919   -2.0233    2.5649 H   0  0  0  0  0  0  0  0  0  0  0  0
   -2.7896   -3.5337   -1.7417 C   0  0  0  0  0  0  0  0  0  0  0  0
   -3.0718   -2.9309   -2.6268 H   0  0  0  0  0  0  0  0  0  0  0  0
   -3.4586   -4.4194   -1.6959 H   0  0  0  0  0  0  0  0  0  0  0  0
   -1.7439   -3.8624   -1.8716 H   0  0  0  0  0  0  0  0  0  0  0  0
   -0.1693    3.2244    0.1266 C   0  0  0  0  0  0  0  0  0  0  0  0
   -0.6207    3.7503   -1.1022 C   0  0  0  0  0  0  0  0  0  0  0  0
   -1.1350    3.0927   -1.8235 H   0  0  0  0  0  0  0  0  0  0  0  0
   -0.4078    5.0998   -1.4168 C   0  0  0  0  0  0  0  0  0  0  0  0
   -0.7625    5.4979   -2.3797 H   0  0  0  0  0  0  0  0  0  0  0  0
    0.2639    5.9384   -0.5120 C   0  0  0  0  0  0  0  0  0  0  0  0
    0.4341    6.9967   -0.7621 H   0  0  0  0  0  0  0  0  0  0  0  0
    0.7216    5.4210    0.7094 C   0  0  0  0  0  0  0  0  0  0  0  0
    1.2551    6.0708    1.4197 H   0  0  0  0  0  0  0  0  0  0  0  0
    0.5043    4.0711    1.0255 C   0  0  0  0  0  0  0  0  0  0  0  0
    0.8780    3.6595    1.9763 H   0  0  0  0  0  0  0  0  0  0  0  0
    1.8942    1.1250   -0.3093 C   0  0  0  0  0  0  0  0  0  0  0  0
    2.6659    1.6480   -1.3602 C   0  0  0  0  0  0  0  0  0  0  0  0
    2.1915    1.8071   -2.3399 H   0  0  0  0  0  0  0  0  0  0  0  0
    4.0260    1.9379   -1.1715 C   0  0  0  0  0  0  0  0  0  0  0  0
    4.6191    2.3438   -2.0052 H   0  0  0  0  0  0  0  0  0  0  0  0
    4.6303    1.7030    0.0729 C   0  0  0  0  0  0  0  0  0  0  0  0
    5.6991    1.9225    0.2194 H   0  0  0  0  0  0  0  0  0  0  0  0
    3.8673    1.1758    1.1284 C   0  0  0  0  0  0  0  0  0  0  0  0
    4.3377    0.9721    2.1026 H   0  0  0  0  0  0  0  0  0  0  0  0
    2.5088    0.8936    0.9371 C   0  0  0  0  0  0  0  0  0  0  0  0
    1.9209    0.4494    1.7548 H   0  0  0  0  0  0  0  0  0  0  0  0
  1  4  1  0  0  0  0
  1  3  1  0  0  0  0
  2  1  1  0  0  0  0
  5 13  1  0  0  0  0
  5  1  1  0  0  0  0
  6  5  2  0  0  0  0
  7  6  1  0  0  0  0
  8 10  2  0  0  0  0
  8  6  1  0  0  0  0
  9  8  1  0  0  0  0
 10 11  1  0  0  0  0
 11 12  1  0  0  0  0
 11 13  2  0  0  0  0
 13 14  1  0  0  0  0
 15 17  2  0  0  0  0
 15 10  1  0  0  0  0
 15 18  1  0  0  0  0
 16 15  2  0  0  0  0
 19 20  1  6  0  0  0
 19 59  1  0  0  0  0
 19 18  1  0  0  0  0
 19 21  1  0  0  0  0
 21 22  1  1  0  0  0
 23 21  1  0  0  0  0
 23 25  1  0  0  0  0
 24 23  1  0  0  0  0
 25 27  1  0  0  0  0
 25 28  1  0  0  0  0
 26 25  1  0  0  0  0
 28 30  1  0  0  0  0
 28 31  1  0  0  0  0
 28 29  1  0  0  0  0
 31 33  1  0  0  0  0
 31 32  1  0  0  0  0
 34 31  1  6  0  0  0
 35 36  1  0  0  0  0
 35 34  1  0  0  0  0
 37 35  1  0  0  0  0
 38 37  1  0  0  0  0
 39 44  1  6  0  0  0
 39 37  1  0  0  0  0
 39 40  1  0  0  0  0
 40 42  2  0  0  0  0
 41 40  1  0  0  0  0
 42 34  1  0  0  0  0
 42 43  1  0  0  0  0
 44 46  1  0  0  0  0
 45 44  1  0  0  0  0
 47 44  1  0  0  0  0
 48 21  1  0  0  0  0
 48 57  1  0  0  0  0
 49 48  2  0  0  0  0
 50 49  1  0  0  0  0
 51 49  1  0  0  0  0
 51 53  2  0  0  0  0
 52 51  1  0  0  0  0
 53 55  1  0  0  0  0
 54 53  1  0  0  0  0
 55 57  2  0  0  0  0
 55 56  1  0  0  0  0
 57 58  1  0  0  0  0
 59 68  1  0  0  0  0
 60 62  1  0  0  0  0
 60 59  2  0  0  0  0
 61 60  1  0  0  0  0
 62 64  2  0  0  0  0
 63 62  1  0  0  0  0
 64 65  1  0  0  0  0
 64 66  1  0  0  0  0
 66 67  1  0  0  0  0
 68 66  2  0  0  0  0
 68 69  1  0  0  0  0
M  END
