2,5,16,41
 OpenBabel05122313063D

 57 60  0  0  0  0  0  0  0  0999 V2000
   -0.3118    3.4385    0.0348 O   0  0  0  0  0  0  0  0  0  0  0  0
    1.7917   -1.0495   -0.0578 N   0  0  0  0  0  2  0  0  0  0  0  0
    3.9780   -1.0360    0.0505 N   0  0  0  0  0  0  0  0  0  0  0  0
    3.6257   -2.3483   -0.0235 N   0  0  0  0  0  0  0  0  0  0  0  0
   -1.6375   -1.3294   -0.2495 N   0  0  0  0  0  2  0  0  0  0  0  0
   -3.7908   -1.6752   -0.4184 N   0  0  0  0  0  0  0  0  0  0  0  0
   -3.2223   -2.9128   -0.4352 N   0  0  0  0  0  0  0  0  0  0  0  0
    0.9596    2.9219    0.0743 C   0  0  0  0  0  0  0  0  0  0  0  0
    1.9673    3.9052    0.1686 C   0  0  0  0  0  0  0  0  0  0  0  0
    1.6601    4.9610    0.2005 H   0  0  0  0  0  0  0  0  0  0  0  0
    3.3175    3.5390    0.2199 C   0  0  0  0  0  0  0  0  0  0  0  0
    4.0915    4.3169    0.2935 H   0  0  0  0  0  0  0  0  0  0  0  0
    3.6838    2.1858    0.1782 C   0  0  0  0  0  0  0  0  0  0  0  0
    4.7458    1.9130    0.2198 H   0  0  0  0  0  0  0  0  0  0  0  0
    2.6732    1.2061    0.0836 C   0  0  0  0  0  0  0  0  0  0  0  0
    1.2803    1.5500    0.0287 C   0  0  0  0  0  2  0  0  0  0  0  0
    2.8750   -0.2365    0.0308 C   0  0  0  0  0  0  0  0  0  0  0  0
    2.2991   -2.3109   -0.0873 C   0  0  0  0  0  0  0  0  0  0  0  0
    1.6853   -3.2162   -0.1567 H   0  0  0  0  0  0  0  0  0  0  0  0
    5.3835   -0.6381    0.1363 C   0  0  0  0  0  0  0  0  0  0  0  0
    5.5135   -0.0409    1.0644 H   0  0  0  0  0  0  0  0  0  0  0  0
    5.5985    0.0414   -0.7163 H   0  0  0  0  0  0  0  0  0  0  0  0
    6.3451   -1.8205    0.1276 C   0  0  0  0  0  0  0  0  0  0  0  0
    6.1835   -2.4187   -0.7929 H   0  0  0  0  0  0  0  0  0  0  0  0
    6.1001   -2.4996    0.9703 H   0  0  0  0  0  0  0  0  0  0  0  0
    7.8044   -1.3630    0.2175 C   0  0  0  0  0  0  0  0  0  0  0  0
    8.0301   -0.6767   -0.6291 H   0  0  0  0  0  0  0  0  0  0  0  0
    7.9464   -0.7576    1.1405 H   0  0  0  0  0  0  0  0  0  0  0  0
    8.7927   -2.5295    0.2109 C   0  0  0  0  0  0  0  0  0  0  0  0
    8.6980   -3.1313   -0.7165 H   0  0  0  0  0  0  0  0  0  0  0  0
    8.6137   -3.2128    1.0668 H   0  0  0  0  0  0  0  0  0  0  0  0
    9.8412   -2.1766    0.2766 H   0  0  0  0  0  0  0  0  0  0  0  0
   -1.4795    2.7225   -0.0562 C   0  0  0  0  0  0  0  0  0  0  0  0
   -2.6371    3.5288   -0.0724 C   0  0  0  0  0  0  0  0  0  0  0  0
   -2.5101    4.6199   -0.0129 H   0  0  0  0  0  0  0  0  0  0  0  0
   -3.9082    2.9483   -0.1573 C   0  0  0  0  0  0  0  0  0  0  0  0
   -4.8020    3.5891   -0.1638 H   0  0  0  0  0  0  0  0  0  0  0  0
   -4.0432    1.5544   -0.2299 C   0  0  0  0  0  3  0  0  0  0  0  0
   -5.0471    1.1136   -0.2878 H   0  0  0  0  0  0  0  0  0  0  0  0
   -2.8836    0.7515   -0.2207 C   0  0  0  0  0  0  0  0  0  0  0  0
   -1.5672    1.3168   -0.1280 C   0  0  0  0  0  3  0  0  0  0  0  0
   -2.8424   -0.7052   -0.2943 C   0  0  0  0  0  0  0  0  0  0  0  0
   -1.9222   -2.6569   -0.3359 C   0  0  0  0  0  0  0  0  0  0  0  0
   -1.1620   -3.4464   -0.3295 H   0  0  0  0  0  0  0  0  0  0  0  0
   -5.8511   -1.4017    0.9472 C   0  0  0  0  0  0  0  0  0  0  0  0
   -5.3807   -0.5255    1.4415 H   0  0  0  0  0  0  0  0  0  0  0  0
   -5.5715   -2.2919    1.5509 H   0  0  0  0  0  0  0  0  0  0  0  0
   -5.2422   -1.5627   -0.4501 C   0  0  0  0  0  0  0  0  0  0  0  0
   -5.5965   -2.4882   -0.9408 H   0  0  0  0  0  0  0  0  0  0  0  0
   -5.5110   -0.7106   -1.1071 H   0  0  0  0  0  0  0  0  0  0  0  0
   -7.3749   -1.2270    0.9295 C   0  0  0  0  0  0  0  0  0  0  0  0
   -7.7091   -1.0092    1.9658 H   0  0  0  0  0  0  0  0  0  0  0  0
   -7.6318   -0.3195    0.3378 H   0  0  0  0  0  0  0  0  0  0  0  0
   -8.1494   -2.4323    0.3899 C   0  0  0  0  0  0  0  0  0  0  0  0
   -9.2436   -2.2723    0.4639 H   0  0  0  0  0  0  0  0  0  0  0  0
   -7.9066   -3.3531    0.9602 H   0  0  0  0  0  0  0  0  0  0  0  0
   -7.9232   -2.6353   -0.6771 H   0  0  0  0  0  0  0  0  0  0  0  0
  1  8  1  0  0  0  0
  2 17  1  0  0  0  0
  3 20  1  0  0  0  0
  4  3  1  0  0  0  0
  6 42  1  0  0  0  0
  7  6  1  0  0  0  0
  7 43  2  0  0  0  0
  8  9  2  0  0  0  0
  9 10  1  0  0  0  0
  9 11  1  0  0  0  0
 11 12  1  0  0  0  0
 13 14  1  0  0  0  0
 13 11  2  0  0  0  0
 15 13  1  0  0  0  0
 16  8  1  0  0  0  0
 16 15  1  0  0  0  0
 17  3  1  0  0  0  0
 17 15  2  0  0  0  0
 18  2  1  0  0  0  0
 18  4  2  0  0  0  0
 19 18  1  0  0  0  0
 20 21  1  0  0  0  0
 22 20  1  0  0  0  0
 23 20  1  0  0  0  0
 23 26  1  0  0  0  0
 23 25  1  0  0  0  0
 24 23  1  0  0  0  0
 26 28  1  0  0  0  0
 27 26  1  0  0  0  0
 29 26  1  0  0  0  0
 29 32  1  0  0  0  0
 29 31  1  0  0  0  0
 30 29  1  0  0  0  0
 33  1  1  0  0  0  0
 34 33  1  0  0  0  0
 34 35  1  0  0  0  0
 36 34  2  0  0  0  0
 37 36  1  0  0  0  0
 38 40  1  0  0  0  0
 38 36  1  0  0  0  0
 39 38  1  0  0  0  0
 40 41  1  0  0  0  0
 41 33  2  0  0  0  0
 42  5  1  0  0  0  0
 42 40  2  0  0  0  0
 43 44  1  0  0  0  0
 43  5  1  0  0  0  0
 45 46  1  0  0  0  0
 45 47  1  0  0  0  0
 48  6  1  0  0  0  0
 48 45  1  0  0  0  0
 49 48  1  0  0  0  0
 50 48  1  0  0  0  0
 51 45  1  0  0  0  0
 51 52  1  0  0  0  0
 53 51  1  0  0  0  0
 54 55  1  0  0  0  0
 54 51  1  0  0  0  0
 54 56  1  0  0  0  0
 57 54  1  0  0  0  0
M  END
