2,5,8,17
 OpenBabel05122313063D

 51 54  0  0  0  0  0  0  0  0999 V2000
   -0.0000    3.3254    0.0001 O   0  0  0  0  0  0  0  0  0  0  0  0
   -1.7197   -1.3147   -0.0330 N   0  0  0  0  0  2  0  0  0  0  0  0
   -3.4220   -2.7767   -0.1240 N   0  0  0  0  0  0  0  0  0  0  0  0
   -3.8968   -1.5021   -0.1442 N   0  0  0  0  0  0  0  0  0  0  0  0
    1.7197   -1.3147    0.0324 N   0  0  0  0  0  2  0  0  0  0  0  0
    3.8968   -1.5020    0.1442 N   0  0  0  0  0  0  0  0  0  0  0  0
    3.4220   -2.7767    0.1237 N   0  0  0  0  0  0  0  0  0  0  0  0
   -1.4339    1.3136   -0.0201 C   0  0  0  0  0  2  0  0  0  0  0  0
   -2.7956    0.8567   -0.0376 C   0  0  0  0  0  0  0  0  0  0  0  0
   -3.8818    1.7564   -0.0085 C   0  0  0  0  0  0  0  0  0  0  0  0
   -4.9212    1.4039    0.0092 H   0  0  0  0  0  0  0  0  0  0  0  0
   -3.6284    3.1355    0.0128 C   0  0  0  0  0  0  0  0  0  0  0  0
   -4.4657    3.8482    0.0354 H   0  0  0  0  0  0  0  0  0  0  0  0
   -2.3114    3.6095    0.0098 C   0  0  0  0  0  0  0  0  0  0  0  0
   -2.0913    4.6872    0.0253 H   0  0  0  0  0  0  0  0  0  0  0  0
   -1.2263    2.7082   -0.0041 C   0  0  0  0  0  0  0  0  0  0  0  0
    1.4339    1.3136    0.0200 C   0  0  0  0  0  2  0  0  0  0  0  0
    2.7956    0.8568    0.0375 C   0  0  0  0  0  0  0  0  0  0  0  0
    3.8818    1.7565    0.0085 C   0  0  0  0  0  0  0  0  0  0  0  0
    4.9211    1.4039   -0.0093 H   0  0  0  0  0  0  0  0  0  0  0  0
    3.6283    3.1355   -0.0126 C   0  0  0  0  0  0  0  0  0  0  0  0
    4.4656    3.8483   -0.0352 H   0  0  0  0  0  0  0  0  0  0  0  0
    2.3114    3.6096   -0.0096 C   0  0  0  0  0  0  0  0  0  0  0  0
    2.0913    4.6872   -0.0249 H   0  0  0  0  0  0  0  0  0  0  0  0
    1.2263    2.7083    0.0042 C   0  0  0  0  0  0  0  0  0  0  0  0
   -2.8753   -0.6018   -0.0713 C   0  0  0  0  0  0  0  0  0  0  0  0
   -2.1049   -2.6182   -0.0638 C   0  0  0  0  0  0  0  0  0  0  0  0
   -1.4064   -3.4626   -0.0449 H   0  0  0  0  0  0  0  0  0  0  0  0
    2.8753   -0.6017    0.0711 C   0  0  0  0  0  0  0  0  0  0  0  0
    2.1049   -2.6181    0.0631 C   0  0  0  0  0  0  0  0  0  0  0  0
    1.4064   -3.4626    0.0439 H   0  0  0  0  0  0  0  0  0  0  0  0
   -5.3512   -1.2629   -0.1595 C   0  0  0  0  0  0  0  0  0  0  0  0
   -5.4812   -0.3080   -0.7073 H   0  0  0  0  0  0  0  0  0  0  0  0
   -6.0662   -2.3659   -0.9375 C   0  0  0  0  0  0  0  0  0  0  0  0
   -5.6591   -2.4615   -1.9624 H   0  0  0  0  0  0  0  0  0  0  0  0
   -7.1438   -2.1203   -1.0083 H   0  0  0  0  0  0  0  0  0  0  0  0
   -5.9540   -3.3433   -0.4324 H   0  0  0  0  0  0  0  0  0  0  0  0
   -5.8694   -1.1077    1.2738 C   0  0  0  0  0  0  0  0  0  0  0  0
   -5.3454   -0.2887    1.8049 H   0  0  0  0  0  0  0  0  0  0  0  0
   -5.7111   -2.0482    1.8387 H   0  0  0  0  0  0  0  0  0  0  0  0
   -6.9538   -0.8807    1.2681 H   0  0  0  0  0  0  0  0  0  0  0  0
    5.3512   -1.2629    0.1602 C   0  0  0  0  0  0  0  0  0  0  0  0
    5.4809   -0.3078    0.7078 H   0  0  0  0  0  0  0  0  0  0  0  0
    6.0658   -2.3657    0.9388 C   0  0  0  0  0  0  0  0  0  0  0  0
    5.6581   -2.4610    1.9636 H   0  0  0  0  0  0  0  0  0  0  0  0
    7.1433   -2.1201    1.0101 H   0  0  0  0  0  0  0  0  0  0  0  0
    5.9537   -3.3432    0.4339 H   0  0  0  0  0  0  0  0  0  0  0  0
    5.8701   -1.1081   -1.2729 C   0  0  0  0  0  0  0  0  0  0  0  0
    5.3464   -0.2891   -1.8044 H   0  0  0  0  0  0  0  0  0  0  0  0
    5.7120   -2.0486   -1.8376 H   0  0  0  0  0  0  0  0  0  0  0  0
    6.9545   -0.8811   -1.2667 H   0  0  0  0  0  0  0  0  0  0  0  0
  1 25  1  0  0  0  0
  3 27  2  0  0  0  0
  4  3  1  0  0  0  0
  4 26  1  0  0  0  0
  5 30  1  0  0  0  0
  5 29  1  0  0  0  0
  6 42  1  0  0  0  0
  7  6  1  0  0  0  0
  8 16  1  0  0  0  0
  9  8  1  0  0  0  0
  9 10  1  0  0  0  0
 10 11  1  0  0  0  0
 10 12  2  0  0  0  0
 12 13  1  0  0  0  0
 14 12  1  0  0  0  0
 14 15  1  0  0  0  0
 16  1  1  0  0  0  0
 16 14  2  0  0  0  0
 17 18  1  0  0  0  0
 18 29  2  0  0  0  0
 19 18  1  0  0  0  0
 20 19  1  0  0  0  0
 21 23  1  0  0  0  0
 21 19  2  0  0  0  0
 22 21  1  0  0  0  0
 23 25  2  0  0  0  0
 24 23  1  0  0  0  0
 25 17  1  0  0  0  0
 26  9  2  0  0  0  0
 26  2  1  0  0  0  0
 27 28  1  0  0  0  0
 27  2  1  0  0  0  0
 29  6  1  0  0  0  0
 30  7  2  0  0  0  0
 31 30  1  0  0  0  0
 32  4  1  0  0  0  0
 32 38  1  0  0  0  0
 33 32  1  0  0  0  0
 34 37  1  0  0  0  0
 34 32  1  0  0  0  0
 35 34  1  0  0  0  0
 36 34  1  0  0  0  0
 38 39  1  0  0  0  0
 38 40  1  0  0  0  0
 41 38  1  0  0  0  0
 42 43  1  0  0  0  0
 42 44  1  0  0  0  0
 44 46  1  0  0  0  0
 44 45  1  0  0  0  0
 47 44  1  0  0  0  0
 48 51  1  0  0  0  0
 48 42  1  0  0  0  0
 49 48  1  0  0  0  0
 50 48  1  0  0  0  0
M  END
