48,51,63,64
 OpenBabel05122313063D

 68 72  0  0  1  0  0  0  0  0999 V2000
   -2.0610    0.5905   -0.0948 B   0  0  2  0  0  0  0  0  0  0  0  0
    0.2062   -2.5356   -3.2678 C   0  0  0  0  0  0  0  0  0  0  0  0
    0.4445   -1.5831   -3.7801 H   0  0  0  0  0  0  0  0  0  0  0  0
   -0.0056   -3.3069   -4.0359 H   0  0  0  0  0  0  0  0  0  0  0  0
    1.1014   -2.8535   -2.6994 H   0  0  0  0  0  0  0  0  0  0  0  0
   -0.9885   -2.3695   -2.3300 C   0  0  0  0  0  0  0  0  0  0  0  0
   -1.2865   -3.6741   -1.5729 C   0  0  0  0  0  0  0  0  0  0  0  0
   -0.4243   -3.9702   -0.9470 H   0  0  0  0  0  0  0  0  0  0  0  0
   -1.4965   -4.4964   -2.2869 H   0  0  0  0  0  0  0  0  0  0  0  0
   -2.1664   -3.5484   -0.9109 H   0  0  0  0  0  0  0  0  0  0  0  0
   -2.2531   -1.8471   -3.0548 C   0  0  0  0  0  0  0  0  0  0  0  0
   -2.0059   -1.3174   -4.0008 H   0  0  0  0  0  0  0  0  0  0  0  0
   -3.0113   -2.6268   -3.2598 H   0  0  0  0  0  0  0  0  0  0  0  0
   -1.8487   -0.5554   -1.2526 C   0  0  1  0  0  3  0  0  0  0  0  0
   -1.2466   -3.2586    2.4887 C   0  0  0  0  0  0  0  0  0  0  0  0
   -2.0932   -3.4024    1.7881 H   0  0  0  0  0  0  0  0  0  0  0  0
   -1.4552   -3.8309    3.4155 H   0  0  0  0  0  0  0  0  0  0  0  0
   -0.3362   -3.6795    2.0219 H   0  0  0  0  0  0  0  0  0  0  0  0
   -1.0551   -1.7690    2.8110 C   0  0  0  0  0  0  0  0  0  0  0  0
    0.1143   -1.5563    3.7743 C   0  0  0  0  0  0  0  0  0  0  0  0
    1.0466   -1.9733    3.3473 H   0  0  0  0  0  0  0  0  0  0  0  0
   -0.0831   -2.0576    4.7438 H   0  0  0  0  0  0  0  0  0  0  0  0
    0.2781   -0.4764    3.9588 H   0  0  0  0  0  0  0  0  0  0  0  0
   -2.3728   -1.1226    3.3255 C   0  0  0  0  0  0  0  0  0  0  0  0
   -3.1461   -1.8604    3.6154 H   0  0  0  0  0  0  0  0  0  0  0  0
   -2.2005   -0.4271    4.1746 H   0  0  0  0  0  0  0  0  0  0  0  0
   -1.8941   -0.2905    1.2810 C   0  0  2  0  0  3  0  0  0  0  0  0
   -0.6564    2.8264   -0.5478 C   0  0  0  0  0  0  0  0  0  0  0  0
   -1.5415    3.4454   -0.7207 H   0  0  0  0  0  0  0  0  0  0  0  0
    0.6809    3.1312   -0.6249 C   0  0  0  0  0  0  0  0  0  0  0  0
    1.1853    4.0565   -0.9073 H   0  0  0  0  0  0  0  0  0  0  0  0
    2.7913    1.7556   -0.2735 C   0  0  0  0  0  0  0  0  0  0  0  0
    3.6668    2.7194    0.2753 C   0  0  0  0  0  0  0  0  0  0  0  0
    3.1928    4.0184    0.8822 C   0  0  0  0  0  0  0  0  0  0  0  0
    3.9477    4.4035    1.5941 H   0  0  0  0  0  0  0  0  0  0  0  0
    2.2350    3.8999    1.4262 H   0  0  0  0  0  0  0  0  0  0  0  0
    3.0375    4.8116    0.1199 H   0  0  0  0  0  0  0  0  0  0  0  0
    5.0445    2.4205    0.2941 C   0  0  0  0  0  0  0  0  0  0  0  0
    5.7353    3.1647    0.7222 H   0  0  0  0  0  0  0  0  0  0  0  0
    5.5561    1.2021   -0.1804 C   0  0  0  0  0  0  0  0  0  0  0  0
    7.0359    0.9117   -0.1587 C   0  0  0  0  0  0  0  0  0  0  0  0
    7.4599    0.9165   -1.1857 H   0  0  0  0  0  0  0  0  0  0  0  0
    7.2463   -0.0898    0.2691 H   0  0  0  0  0  0  0  0  0  0  0  0
    7.5925    1.6627    0.4349 H   0  0  0  0  0  0  0  0  0  0  0  0
    4.6455    0.2527   -0.6792 C   0  0  0  0  0  0  0  0  0  0  0  0
    5.0177   -0.7210   -1.0370 H   0  0  0  0  0  0  0  0  0  0  0  0
    3.2620    0.4958   -0.7396 C   0  0  0  0  0  0  0  0  0  0  0  0
    2.3192   -0.5455   -1.2475 C   0  0  0  0  0  3  0  0  0  0  0  0
    2.8874   -1.4325   -1.5837 H   0  0  0  0  0  0  0  0  0  0  0  0
    1.7322   -0.1642   -2.1095 H   0  0  0  0  0  0  0  0  0  0  0  0
    0.4750    0.9613   -0.0413 C   0  0  0  0  0  2  0  0  0  0  0  0
   -3.3685    1.5290   -0.1741 C   0  0  0  0  0  0  0  0  0  0  0  0
   -4.0768    1.7664   -1.3747 C   0  0  0  0  0  0  0  0  0  0  0  0
   -3.7970    1.2122   -2.2819 H   0  0  0  0  0  0  0  0  0  0  0  0
   -5.1394    2.6834   -1.4372 C   0  0  0  0  0  0  0  0  0  0  0  0
   -5.6719    2.8398   -2.3888 H   0  0  0  0  0  0  0  0  0  0  0  0
   -5.5231    3.3990   -0.2931 C   0  0  0  0  0  0  0  0  0  0  0  0
   -6.3560    4.1179   -0.3388 H   0  0  0  0  0  0  0  0  0  0  0  0
   -4.8333    3.1877    0.9116 C   0  0  0  0  0  0  0  0  0  0  0  0
   -5.1237    3.7424    1.8178 H   0  0  0  0  0  0  0  0  0  0  0  0
   -3.7749    2.2681    0.9633 C   0  0  0  0  0  0  0  0  0  0  0  0
   -3.2520    2.1145    1.9197 H   0  0  0  0  0  0  0  0  0  0  0  0
   -0.7703   -1.2797   -1.3398 N   0  0  0  0  0  2  0  0  0  0  0  0
   -0.8477   -1.0171    1.5467 N   0  0  0  0  0  2  0  0  0  0  0  0
    1.3769    1.9633   -0.2998 N   0  0  0  0  0  0  0  0  0  0  0  0
   -0.7585    1.4918   -0.1856 N   0  0  0  0  0  0  0  0  0  0  0  0
   -2.8235   -0.8818   -2.1378 O   0  0  0  0  0  0  0  0  0  0  0  0
   -2.8765   -0.3477    2.2103 O   0  0  0  0  0  0  0  0  0  0  0  0
  1 52  1  6  0  0  0
  2  5  1  0  0  0  0
  2  6  1  0  0  0  0
  3  2  1  0  0  0  0
  4  2  1  0  0  0  0
  6  7  1  0  0  0  0
  6 63  1  0  0  0  0
  7  8  1  0  0  0  0
  7 10  1  0  0  0  0
  9  7  1  0  0  0  0
 11  6  1  0  0  0  0
 11 67  1  0  0  0  0
 12 11  1  0  0  0  0
 13 11  1  0  0  0  0
 14  1  1  1  0  0  0
 15 19  1  0  0  0  0
 15 17  1  0  0  0  0
 16 15  1  0  0  0  0
 18 15  1  0  0  0  0
 19 24  1  0  0  0  0
 19 20  1  0  0  0  0
 20 23  1  0  0  0  0
 20 22  1  0  0  0  0
 21 20  1  0  0  0  0
 24 25  1  0  0  0  0
 24 26  1  0  0  0  0
 27  1  1  6  0  0  0
 27 64  1  0  0  0  0
 27 68  1  0  0  0  0
 28 66  1  0  0  0  0
 29 28  1  0  0  0  0
 30 28  2  0  0  0  0
 30 65  1  0  0  0  0
 31 30  1  0  0  0  0
 32 33  1  0  0  0  0
 33 38  2  0  0  0  0
 33 34  1  0  0  0  0
 34 36  1  0  0  0  0
 34 35  1  0  0  0  0
 37 34  1  0  0  0  0
 38 39  1  0  0  0  0
 40 41  1  0  0  0  0
 40 38  1  0  0  0  0
 41 43  1  0  0  0  0
 41 44  1  0  0  0  0
 42 41  1  0  0  0  0
 45 40  2  0  0  0  0
 46 45  1  0  0  0  0
 47 45  1  0  0  0  0
 47 32  2  0  0  0  0
 48 47  1  0  0  0  0
 49 48  1  0  0  0  0
 50 48  1  0  0  0  0
 52 61  1  0  0  0  0
 53 52  2  0  0  0  0
 54 53  1  0  0  0  0
 55 53  1  0  0  0  0
 55 57  2  0  0  0  0
 56 55  1  0  0  0  0
 57 59  1  0  0  0  0
 58 57  1  0  0  0  0
 59 61  2  0  0  0  0
 59 60  1  0  0  0  0
 61 62  1  0  0  0  0
 63 14  1  0  0  0  0
 64 19  1  0  0  0  0
 65 32  1  0  0  0  0
 65 51  1  0  0  0  0
 66  1  1  0  0  0  0
 66 51  1  0  0  0  0
 67 14  1  0  0  0  0
 68 24  1  0  0  0  0
M  END
