9,14,18,25
 OpenBabel05122313063D

 60 63  0  0  1  0  0  0  0  0999 V2000
   -3.0839    2.6315    0.3319 C   0  0  0  0  0  0  0  0  0  0  0  0
   -3.9483    1.3707    0.4495 C   0  0  0  0  0  0  0  0  0  0  0  0
   -3.4963    0.3586   -0.4871 N   0  0  0  0  0  0  0  0  0  0  0  0
   -4.0112   -0.9717   -0.2312 C   0  0  0  0  0  0  0  0  0  0  0  0
   -3.3803   -1.9925   -1.1914 C   0  0  0  0  0  0  0  0  0  0  0  0
   -1.8716   -2.0099   -1.1018 C   0  0  0  0  0  0  0  0  0  0  0  0
   -1.0830   -1.4328   -2.1168 C   0  0  0  0  0  0  0  0  0  0  0  0
    0.3219   -1.4532   -2.0579 C   0  0  2  0  0  3  0  0  0  0  0  0
    0.9516   -2.0393   -0.9294 C   0  0  0  0  0  3  0  0  0  0  0  0
    0.1779   -2.6073    0.1191 C   0  0  0  0  0  0  0  0  0  0  0  0
   -1.2217   -2.5663    0.0219 C   0  0  0  0  0  0  0  0  0  0  0  0
    0.8670   -3.2750    1.2866 C   0  0  0  0  0  0  0  0  0  0  0  0
    2.0876   -2.5071    1.8148 C   0  0  0  0  0  0  0  0  0  0  0  0
    1.8219   -1.0578    1.9854 N   0  0  0  0  0  0  0  0  0  0  0  0
    0.7824   -0.7885    3.0044 C   0  0  0  0  0  0  0  0  0  0  0  0
    0.5985    0.7115    3.2666 C   0  0  0  0  0  0  0  0  0  0  0  0
    0.1570    1.4577    2.0327 C   0  0  0  0  0  0  0  0  0  0  0  0
    1.1296    1.8812    1.0879 C   0  0  0  0  0  3  0  0  0  0  0  0
    0.7374    2.5448   -0.1039 C   0  0  1  0  0  3  0  0  0  0  0  0
   -0.6333    2.7466   -0.3432 C   0  0  0  0  0  0  0  0  0  0  0  0
   -1.6161    2.3620    0.5915 C   0  0  0  0  0  0  0  0  0  0  0  0
   -1.1997    1.7019    1.7675 C   0  0  0  0  0  0  0  0  0  0  0  0
    1.7861    3.0452   -1.0696 C   0  0  0  0  0  0  0  0  0  0  0  0
    2.9198    2.0426   -1.3308 C   0  0  0  0  0  0  0  0  0  0  0  0
    2.4151    0.6728   -1.5904 N   0  0  0  0  0  0  0  0  0  0  0  0
    1.5919    0.5971   -2.8181 C   0  0  0  0  0  0  0  0  0  0  0  0
    1.1671   -0.8391   -3.1455 C   0  0  0  0  0  0  0  0  0  0  0  0
   -3.2043    3.0672   -0.6802 H   0  0  0  0  0  0  0  0  0  0  0  0
   -3.4544    3.3882    1.0559 H   0  0  0  0  0  0  0  0  0  0  0  0
   -3.9333    1.0094    1.5142 H   0  0  0  0  0  0  0  0  0  0  0  0
   -5.0094    1.6292    0.2402 H   0  0  0  0  0  0  0  0  0  0  0  0
   -2.4675    0.3247   -0.4712 H   0  0  0  0  0  0  0  0  0  0  0  0
   -5.1140   -0.9727   -0.3719 H   0  0  0  0  0  0  0  0  0  0  0  0
   -3.8393   -1.3080    0.8291 H   0  0  0  0  0  0  0  0  0  0  0  0
   -3.6862   -1.7487   -2.2281 H   0  0  0  0  0  0  0  0  0  0  0  0
   -3.7821   -2.9990   -0.9536 H   0  0  0  0  0  0  0  0  0  0  0  0
   -1.5819   -0.9800   -2.9883 H   0  0  0  0  0  0  0  0  0  0  0  0
    2.0345   -2.2513   -0.9747 H   0  0  0  0  0  0  0  0  0  0  0  0
   -1.8274   -3.0113    0.8285 H   0  0  0  0  0  0  0  0  0  0  0  0
    1.2182   -4.2869    0.9885 H   0  0  0  0  0  0  0  0  0  0  0  0
    0.1332   -3.4462    2.0995 H   0  0  0  0  0  0  0  0  0  0  0  0
    2.4101   -2.9634    2.7779 H   0  0  0  0  0  0  0  0  0  0  0  0
    2.9422   -2.6042    1.1148 H   0  0  0  0  0  0  0  0  0  0  0  0
    2.6969   -0.6244    2.3161 H   0  0  0  0  0  0  0  0  0  0  0  0
    1.0311   -1.3129    3.9556 H   0  0  0  0  0  0  0  0  0  0  0  0
   -0.1732   -1.2109    2.6327 H   0  0  0  0  0  0  0  0  0  0  0  0
   -0.1490    0.8250    4.0763 H   0  0  0  0  0  0  0  0  0  0  0  0
    1.5497    1.1382    3.6541 H   0  0  0  0  0  0  0  0  0  0  0  0
    2.1934    1.8853    1.3841 H   0  0  0  0  0  0  0  0  0  0  0  0
   -0.9476    3.2497   -1.2720 H   0  0  0  0  0  0  0  0  0  0  0  0
   -1.9536    1.3808    2.5040 H   0  0  0  0  0  0  0  0  0  0  0  0
    2.2498    3.9743   -0.6729 H   0  0  0  0  0  0  0  0  0  0  0  0
    1.3010    3.3410   -2.0212 H   0  0  0  0  0  0  0  0  0  0  0  0
    3.5322    2.4061   -2.1867 H   0  0  0  0  0  0  0  0  0  0  0  0
    3.5982    1.9835   -0.4555 H   0  0  0  0  0  0  0  0  0  0  0  0
    3.2356    0.0647   -1.7301 H   0  0  0  0  0  0  0  0  0  0  0  0
    2.1442    1.0364   -3.6803 H   0  0  0  0  0  0  0  0  0  0  0  0
    0.6848    1.2139   -2.6561 H   0  0  0  0  0  0  0  0  0  0  0  0
    0.6091   -0.8180   -4.1021 H   0  0  0  0  0  0  0  0  0  0  0  0
    2.0723   -1.4606   -3.3229 H   0  0  0  0  0  0  0  0  0  0  0  0
  1  2  1  0  0  0  0
  1 21  1  0  0  0  0
  1 29  1  0  0  0  0
  2 30  1  0  0  0  0
  3 32  1  0  0  0  0
  3  4  1  0  0  0  0
  3  2  1  0  0  0  0
  4 34  1  0  0  0  0
  5  6  1  0  0  0  0
  5 36  1  0  0  0  0
  5  4  1  0  0  0  0
  6 11  1  0  0  0  0
  7  6  2  0  0  0  0
  8  7  1  1  0  0  0
  8  9  1  0  0  0  0
  9 10  1  0  0  0  0
 10 12  1  0  0  0  0
 11 10  2  0  0  0  0
 11 39  1  0  0  0  0
 12 13  1  0  0  0  0
 12 41  1  0  0  0  0
 13 14  1  0  0  0  0
 13 42  1  0  0  0  0
 14 44  1  0  0  0  0
 14 15  1  0  0  0  0
 15 16  1  0  0  0  0
 15 45  1  0  0  0  0
 16 48  1  0  0  0  0
 16 47  1  0  0  0  0
 17 16  1  0  0  0  0
 18 49  1  0  0  0  0
 18 17  1  0  0  0  0
 19 20  1  1  0  0  0
 19 18  1  0  0  0  0
 20 21  2  0  0  0  0
 21 22  1  0  0  0  0
 22 17  2  0  0  0  0
 22 51  1  0  0  0  0
 23 52  1  0  0  0  0
 23 19  1  0  0  0  0
 24 23  1  0  0  0  0
 24 55  1  0  0  0  0
 25 24  1  0  0  0  0
 26 58  1  0  0  0  0
 26 25  1  0  0  0  0
 27 26  1  0  0  0  0
 27  8  1  0  0  0  0
 28  1  1  0  0  0  0
 31  2  1  0  0  0  0
 33  4  1  0  0  0  0
 35  5  1  0  0  0  0
 37  7  1  0  0  0  0
 38  9  1  0  0  0  0
 40 12  1  0  0  0  0
 43 13  1  0  0  0  0
 46 15  1  0  0  0  0
 50 20  1  0  0  0  0
 53 23  1  0  0  0  0
 54 24  1  0  0  0  0
 56 25  1  0  0  0  0
 57 26  1  0  0  0  0
 59 27  1  0  0  0  0
 60 27  1  0  0  0  0
M  END
