32,35,36,37
 OpenBabel05122313063D

 78 86  0  0  0  0  0  0  0  0999 V2000
    1.0194   -2.7668    0.0121 C   0  0  0  0  0  0  0  0  0  0  0  0
    2.2237   -3.5588   -0.0601 C   0  0  0  0  0  0  0  0  0  0  0  0
    2.1162   -4.6518   -0.0973 H   0  0  0  0  0  0  0  0  0  0  0  0
    3.4933   -3.0070   -0.0951 C   0  0  0  0  0  3  0  0  0  0  0  0
    4.3868   -3.6446   -0.1474 H   0  0  0  0  0  0  0  0  0  0  0  0
    3.6426   -1.5956   -0.0669 C   0  0  0  0  0  0  0  0  0  0  0  0
    6.0442   -1.6915   -0.1702 O   0  0  0  0  0  0  0  0  0  0  0  0
    4.9174   -0.9082   -0.1083 C   0  0  0  0  0  0  0  0  0  0  0  0
    6.1696    1.1675   -0.0723 O   0  0  0  0  0  0  0  0  0  0  0  0
    4.9781    0.4839   -0.0725 C   0  0  0  0  0  0  0  0  0  0  0  0
    3.7665    1.2783   -0.0554 C   0  0  0  0  0  0  0  0  0  0  0  0
    3.7403    2.6977   -0.0571 C   0  0  0  0  0  0  0  0  0  0  0  0
    4.6863    3.2560   -0.0883 H   0  0  0  0  0  0  0  0  0  0  0  0
    2.5226    3.3567   -0.0357 C   0  0  0  0  0  0  0  0  0  0  0  0
    2.5097    4.4554   -0.0570 H   0  0  0  0  0  0  0  0  0  0  0  0
    1.2536    2.6705   -0.0005 C   0  0  0  0  0  0  0  0  0  0  0  0
    0.0295    3.4538   -0.0016 C   0  0  0  0  0  0  0  0  0  0  0  0
   -1.2283    2.8667   -0.0245 C   0  0  0  0  0  0  0  0  0  0  0  0
   -2.4823    3.6041   -0.0435 C   0  0  0  0  0  0  0  0  0  0  0  0
   -2.5608    4.6960   -0.0406 H   0  0  0  0  0  0  0  0  0  0  0  0
   -3.4938    2.6861   -0.0719 C   0  0  0  0  0  0  0  0  0  0  0  0
   -4.5726    2.8684   -0.1071 H   0  0  0  0  0  0  0  0  0  0  0  0
   -2.8762    1.3662   -0.0405 C   0  0  0  0  0  0  0  0  0  0  0  0
   -3.6019    0.1560   -0.0282 C   0  0  0  0  0  0  0  0  0  0  0  0
   -2.9819   -1.1114    0.0022 C   0  0  0  0  0  0  0  0  0  0  0  0
   -3.7112   -2.3693    0.1010 C   0  0  0  0  0  0  0  0  0  0  0  0
   -4.8010   -2.4536    0.1612 H   0  0  0  0  0  0  0  0  0  0  0  0
   -2.7826   -3.3709    0.1332 C   0  0  0  0  0  0  0  0  0  0  0  0
   -2.9547   -4.4481    0.2255 H   0  0  0  0  0  0  0  0  0  0  0  0
   -1.4702   -2.7486    0.0473 C   0  0  0  0  0  0  0  0  0  0  0  0
   -0.2671   -3.4426    0.0568 C   0  0  0  0  0  0  0  0  0  0  0  0
    1.1543   -1.3653    0.0084 C   0  0  0  0  0  3  0  0  0  0  0  0
    2.4602   -0.8148   -0.0246 C   0  0  0  0  0  0  0  0  0  0  0  0
    2.5210    0.6018   -0.0315 C   0  0  0  0  0  0  0  0  0  0  0  0
    1.2672    1.2625   -0.0049 C   0  0  0  0  0  3  0  0  0  0  0  0
   -1.5082    1.4973   -0.0217 N   0  0  0  0  0  2  0  0  0  0  0  0
   -1.6306   -1.3616   -0.0180 N   0  0  0  0  0  2  0  0  0  0  0  0
    0.1064    4.9442    0.0157 C   0  0  0  0  0  0  0  0  0  0  0  0
    0.5265    5.6284    1.1777 C   0  0  0  0  0  0  0  0  0  0  0  0
    0.7988    5.0473    2.0718 H   0  0  0  0  0  0  0  0  0  0  0  0
    0.5865    7.0290    1.1999 C   0  0  0  0  0  0  0  0  0  0  0  0
    0.9072    7.5467    2.1169 H   0  0  0  0  0  0  0  0  0  0  0  0
    0.2336    7.7697    0.0599 C   0  0  0  0  0  0  0  0  0  0  0  0
    0.2820    8.8691    0.0779 H   0  0  0  0  0  0  0  0  0  0  0  0
   -0.1804    7.1005   -1.1021 C   0  0  0  0  0  0  0  0  0  0  0  0
   -0.4554    7.6732   -2.0010 H   0  0  0  0  0  0  0  0  0  0  0  0
   -0.2430    5.6987   -1.1246 C   0  0  0  0  0  0  0  0  0  0  0  0
   -0.5620    5.1709   -2.0360 H   0  0  0  0  0  0  0  0  0  0  0  0
   -5.0944    0.2163   -0.0336 C   0  0  0  0  0  0  0  0  0  0  0  0
   -5.8021    0.7548    1.0634 C   0  0  0  0  0  0  0  0  0  0  0  0
   -5.2376    1.1245    1.9329 H   0  0  0  0  0  0  0  0  0  0  0  0
   -7.2038    0.8103    1.0566 C   0  0  0  0  0  0  0  0  0  0  0  0
   -7.7376    1.2304    1.9228 H   0  0  0  0  0  0  0  0  0  0  0  0
   -7.9243    0.3231   -0.0456 C   0  0  0  0  0  0  0  0  0  0  0  0
   -9.0241    0.3648   -0.0503 H   0  0  0  0  0  0  0  0  0  0  0  0
   -7.2333   -0.2184   -1.1413 C   0  0  0  0  0  0  0  0  0  0  0  0
   -7.7900   -0.5985   -2.0116 H   0  0  0  0  0  0  0  0  0  0  0  0
   -5.8315   -0.2691   -1.1359 C   0  0  0  0  0  0  0  0  0  0  0  0
   -5.2887   -0.6836   -1.9991 H   0  0  0  0  0  0  0  0  0  0  0  0
   -0.3187   -4.9315    0.1210 C   0  0  0  0  0  0  0  0  0  0  0  0
   -0.8319   -5.6844   -0.9573 C   0  0  0  0  0  0  0  0  0  0  0  0
   -1.1789   -5.1562   -1.8582 H   0  0  0  0  0  0  0  0  0  0  0  0
   -0.8933   -7.0846   -0.8887 C   0  0  0  0  0  0  0  0  0  0  0  0
   -1.2942   -7.6553   -1.7403 H   0  0  0  0  0  0  0  0  0  0  0  0
   -0.4424   -7.7551    0.2586 C   0  0  0  0  0  0  0  0  0  0  0  0
   -0.4914   -8.8533    0.3131 H   0  0  0  0  0  0  0  0  0  0  0  0
    0.0726   -7.0171    1.3372 C   0  0  0  0  0  0  0  0  0  0  0  0
    0.4228   -7.5352    2.2431 H   0  0  0  0  0  0  0  0  0  0  0  0
    0.1377   -5.6186    1.2683 C   0  0  0  0  0  0  0  0  0  0  0  0
    0.5366   -5.0400    2.1152 H   0  0  0  0  0  0  0  0  0  0  0  0
    6.8483   -1.5182   -1.3401 C   0  0  0  0  0  0  0  0  0  0  0  0
    7.6860   -2.2359   -1.2556 H   0  0  0  0  0  0  0  0  0  0  0  0
    6.2621   -1.7478   -2.2566 H   0  0  0  0  0  0  0  0  0  0  0  0
    7.2473   -0.4849   -1.4201 H   0  0  0  0  0  0  0  0  0  0  0  0
    7.0153    0.9254    1.0551 C   0  0  0  0  0  0  0  0  0  0  0  0
    7.9071    1.5669    0.9234 H   0  0  0  0  0  0  0  0  0  0  0  0
    6.5001    1.2063    1.9996 H   0  0  0  0  0  0  0  0  0  0  0  0
    7.3260   -0.1388    1.1196 H   0  0  0  0  0  0  0  0  0  0  0  0
  1 31  1  0  0  0  0
  2  1  2  0  0  0  0
  3  2  1  0  0  0  0
  4  6  1  0  0  0  0
  4  2  1  0  0  0  0
  5  4  1  0  0  0  0
  6 33  1  0  0  0  0
  7  8  1  0  0  0  0
  8 10  1  0  0  0  0
  8  6  2  0  0  0  0
  9 75  1  0  0  0  0
 10  9  1  0  0  0  0
 10 11  2  0  0  0  0
 11 34  1  0  0  0  0
 12 11  1  0  0  0  0
 12 14  2  0  0  0  0
 13 12  1  0  0  0  0
 14 16  1  0  0  0  0
 15 14  1  0  0  0  0
 17 16  2  0  0  0  0
 17 38  1  0  0  0  0
 18 36  1  0  0  0  0
 18 17  1  0  0  0  0
 19 20  1  0  0  0  0
 19 18  2  0  0  0  0
 21 19  1  0  0  0  0
 21 23  2  0  0  0  0
 22 21  1  0  0  0  0
 23 24  1  0  0  0  0
 23 36  1  0  0  0  0
 24 25  2  0  0  0  0
 25 26  1  0  0  0  0
 26 28  2  0  0  0  0
 26 27  1  0  0  0  0
 28 29  1  0  0  0  0
 30 31  2  0  0  0  0
 30 28  1  0  0  0  0
 31 60  1  0  0  0  0
 32  1  1  0  0  0  0
 33 32  2  0  0  0  0
 34 33  1  0  0  0  0
 34 35  2  0  0  0  0
 35 16  1  0  0  0  0
 37 25  1  0  0  0  0
 37 30  1  0  0  0  0
 38 39  1  0  0  0  0
 39 41  2  0  0  0  0
 39 40  1  0  0  0  0
 41 42  1  0  0  0  0
 43 44  1  0  0  0  0
 43 41  1  0  0  0  0
 45 43  2  0  0  0  0
 46 45  1  0  0  0  0
 47 45  1  0  0  0  0
 47 38  2  0  0  0  0
 48 47  1  0  0  0  0
 49 24  1  0  0  0  0
 49 50  1  0  0  0  0
 50 51  1  0  0  0  0
 52 50  2  0  0  0  0
 52 53  1  0  0  0  0
 54 52  1  0  0  0  0
 55 54  1  0  0  0  0
 56 58  1  0  0  0  0
 56 54  2  0  0  0  0
 57 56  1  0  0  0  0
 58 49  2  0  0  0  0
 59 58  1  0  0  0  0
 60 69  1  0  0  0  0
 61 63  1  0  0  0  0
 61 60  2  0  0  0  0
 62 61  1  0  0  0  0
 63 65  2  0  0  0  0
 64 63  1  0  0  0  0
 65 66  1  0  0  0  0
 65 67  1  0  0  0  0
 67 68  1  0  0  0  0
 69 67  2  0  0  0  0
 69 70  1  0  0  0  0
 71 72  1  0  0  0  0
 71  7  1  0  0  0  0
 73 71  1  0  0  0  0
 74 71  1  0  0  0  0
 75 78  1  0  0  0  0
 75 77  1  0  0  0  0
 76 75  1  0  0  0  0
M  END
