4,22,24,25
 OpenBabel05122313063D

 52 56  0  0  1  0  0  0  0  0999 V2000
   -0.1325    2.7398    0.2712 C   0  0  0  0  0  0  0  0  0  0  0  0
    1.7792    1.2492    0.2065 C   0  0  0  0  0  0  0  0  0  0  0  0
    3.8458   -0.0001   -0.0000 C   0  0  0  0  0  0  0  0  0  0  0  0
    0.3710    1.4232    0.1139 C   0  0  0  0  0  3  0  0  0  0  0  0
    2.0388    3.6486    0.6940 C   0  0  0  0  0  0  0  0  0  0  0  0
    2.7008    4.4927    0.9373 H   0  0  0  0  0  0  0  0  0  0  0  0
    4.5477    0.3284   -1.1728 C   0  0  0  0  0  0  0  0  0  0  0  0
    3.9783    0.5825   -2.0787 H   0  0  0  0  0  0  0  0  0  0  0  0
    2.5919    2.3774    0.5104 C   0  0  0  0  0  0  0  0  0  0  0  0
    3.6775    2.2581    0.6094 H   0  0  0  0  0  0  0  0  0  0  0  0
    5.9505    0.3292   -1.1706 C   0  0  0  0  0  0  0  0  0  0  0  0
    6.4985    0.5864   -2.0898 H   0  0  0  0  0  0  0  0  0  0  0  0
   -2.2928    3.9775   -0.1963 C   0  0  0  0  0  3  0  0  0  0  0  0
   -1.8887    4.9857   -0.0684 H   0  0  0  0  0  0  0  0  0  0  0  0
    0.6594    3.8569    0.5692 C   0  0  0  0  0  0  0  0  0  0  0  0
    0.2239    4.8562    0.7086 H   0  0  0  0  0  0  0  0  0  0  0  0
   -3.5309    3.5334   -0.6479 C   0  0  0  0  0  0  0  0  0  0  0  0
   -4.3817    4.1495   -0.9555 H   0  0  0  0  0  0  0  0  0  0  0  0
   -0.1328   -2.7398   -0.2712 C   0  0  1  0  0  3  0  0  0  0  0  0
   -1.5336   -2.8729   -0.0533 N   0  0  0  0  0  0  0  0  0  0  0  0
   -1.5333    2.8731    0.0531 N   0  0  0  0  0  0  0  0  0  0  0  0
   -2.2366   -1.7354    0.2049 N   0  0  0  0  0  2  0  0  0  0  0  0
    1.7791   -1.2493   -0.2065 C   0  0  0  0  0  0  0  0  0  0  0  0
   -2.2365    1.7356   -0.2044 N   0  0  0  0  0  2  0  0  0  0  0  0
    0.3708   -1.4232   -0.1139 C   0  0  0  0  0  2  0  0  0  0  0  0
    2.0384   -3.6488   -0.6939 C   0  0  0  0  0  0  0  0  0  0  0  0
    2.7004   -4.4930   -0.9371 H   0  0  0  0  0  0  0  0  0  0  0  0
    2.5917   -2.3777   -0.5103 C   0  0  0  0  0  0  0  0  0  0  0  0
    3.6773   -2.2585   -0.6092 H   0  0  0  0  0  0  0  0  0  0  0  0
   -3.5316   -3.5332    0.6468 C   0  0  0  0  0  0  0  0  0  0  0  0
   -4.3826   -4.1492    0.9538 H   0  0  0  0  0  0  0  0  0  0  0  0
    2.4077   -0.0001   -0.0000 N   0  0  0  0  0  0  0  0  0  0  0  0
    0.6590   -3.8570   -0.5692 C   0  0  0  0  0  0  0  0  0  0  0  0
    0.2234   -4.8562   -0.7085 H   0  0  0  0  0  0  0  0  0  0  0  0
   -3.4496   -2.1154    0.6635 C   0  0  1  0  0  3  0  0  0  0  0  0
    4.5477   -0.3287    1.1727 C   0  0  0  0  0  0  0  0  0  0  0  0
    3.9784   -0.5828    2.0787 H   0  0  0  0  0  0  0  0  0  0  0  0
   -4.4498   -1.1388    1.1873 C   0  0  0  0  0  0  0  0  0  0  0  0
   -3.9956   -0.1363    1.2891 H   0  0  0  0  0  0  0  0  0  0  0  0
   -4.8005   -1.4622    2.1880 H   0  0  0  0  0  0  0  0  0  0  0  0
   -5.3441   -1.0625    0.5365 H   0  0  0  0  0  0  0  0  0  0  0  0
   -2.2935   -3.9773    0.1952 C   0  0  0  0  0  0  0  0  0  0  0  0
   -1.8896   -4.9855    0.0666 H   0  0  0  0  0  0  0  0  0  0  0  0
   -3.4493    2.1157   -0.6636 C   0  0  0  0  0  0  0  0  0  0  0  0
   -4.4499    1.1390   -1.1867 C   0  0  0  0  0  0  0  0  0  0  0  0
   -3.9957    0.1365   -1.2889 H   0  0  0  0  0  0  0  0  0  0  0  0
   -4.8013    1.4625   -2.1871 H   0  0  0  0  0  0  0  0  0  0  0  0
   -5.3437    1.0627   -0.5352 H   0  0  0  0  0  0  0  0  0  0  0  0
    5.9505   -0.3295    1.1704 C   0  0  0  0  0  0  0  0  0  0  0  0
    6.4986   -0.5868    2.0896 H   0  0  0  0  0  0  0  0  0  0  0  0
    6.6536   -0.0002   -0.0001 C   0  0  0  0  0  0  0  0  0  0  0  0
    7.7541   -0.0002   -0.0001 H   0  0  0  0  0  0  0  0  0  0  0  0
  1 15  1  0  0  0  0
  2  9  2  0  0  0  0
  3 32  1  0  0  0  0
  3 36  1  0  0  0  0
  4  2  1  0  0  0  0
  4  1  2  0  0  0  0
  5  6  1  0  0  0  0
  7 11  1  0  0  0  0
  7  3  2  0  0  0  0
  8  7  1  0  0  0  0
  9 10  1  0  0  0  0
  9  5  1  0  0  0  0
 11 51  2  0  0  0  0
 12 11  1  0  0  0  0
 13 14  1  0  0  0  0
 13 21  1  0  0  0  0
 15  5  2  0  0  0  0
 15 16  1  0  0  0  0
 17 13  1  0  0  0  0
 18 17  1  0  0  0  0
 19 25  1  1  0  0  0
 19 20  1  0  0  0  0
 20 42  1  0  0  0  0
 20 22  1  0  0  0  0
 21  1  1  0  0  0  0
 22 35  1  0  0  0  0
 23 25  1  0  0  0  0
 23 32  1  0  0  0  0
 24 21  1  0  0  0  0
 26 33  2  0  0  0  0
 26 28  1  0  0  0  0
 27 26  1  0  0  0  0
 28 23  2  0  0  0  0
 29 28  1  0  0  0  0
 30 35  1  0  0  0  0
 30 31  1  0  0  0  0
 32  2  1  0  0  0  0
 33 19  1  0  0  0  0
 34 33  1  0  0  0  0
 35 38  1  1  0  0  0
 36 37  1  0  0  0  0
 38 39  1  0  0  0  0
 38 40  1  0  0  0  0
 41 38  1  0  0  0  0
 42 30  2  0  0  0  0
 43 42  1  0  0  0  0
 44 17  2  0  0  0  0
 44 24  1  0  0  0  0
 45 44  1  0  0  0  0
 45 48  1  0  0  0  0
 46 45  1  0  0  0  0
 47 45  1  0  0  0  0
 49 36  2  0  0  0  0
 49 50  1  0  0  0  0
 51 49  1  0  0  0  0
 52 51  1  0  0  0  0
M  END
