1,2,7,34
 OpenBabel05122313063D

 62 67  0  0  0  0  0  0  0  0999 V2000
   -1.3468   -0.0628    1.4818 N   0  0  0  0  0  0  0  0  0  0  0  0
    1.3468   -0.0628    1.4818 N   0  0  0  0  0  0  0  0  0  0  0  0
   -2.7936    0.1517    1.1671 C   0  0  0  0  0  0  0  0  0  0  0  0
   -3.3537    0.2178    2.1263 H   0  0  0  0  0  0  0  0  0  0  0  0
   -3.0231    1.4399    0.4060 C   0  0  0  0  0  0  0  0  0  0  0  0
   -2.4003    1.6529   -0.8549 C   0  0  0  0  0  0  0  0  0  0  0  0
   -1.4686    0.6850   -1.4801 C   0  0  0  0  0  3  0  0  0  0  0  0
   -1.0033    1.0996   -2.3908 H   0  0  0  0  0  0  0  0  0  0  0  0
   -1.5983   -0.7472   -1.4646 C   0  0  0  0  0  3  0  0  0  0  0  0
   -1.2021   -1.2723   -2.3508 H   0  0  0  0  0  0  0  0  0  0  0  0
   -2.7047   -1.4756   -0.8079 C   0  0  0  0  0  0  0  0  0  0  0  0
   -3.3111   -1.0584    0.4105 C   0  0  0  0  0  0  0  0  0  0  0  0
   -2.6609    2.8692   -1.5244 C   0  0  0  0  0  0  0  0  0  0  0  0
   -2.1776    3.0461   -2.4982 H   0  0  0  0  0  0  0  0  0  0  0  0
   -3.5142    3.8400   -0.9851 C   0  0  0  0  0  0  0  0  0  0  0  0
   -3.6967    4.7754   -1.5357 H   0  0  0  0  0  0  0  0  0  0  0  0
   -4.1312    3.6175    0.2551 C   0  0  0  0  0  0  0  0  0  0  0  0
   -4.7997    4.3742    0.6920 H   0  0  0  0  0  0  0  0  0  0  0  0
   -3.8792    2.4193    0.9386 C   0  0  0  0  0  0  0  0  0  0  0  0
   -4.3548    2.2339    1.9154 H   0  0  0  0  0  0  0  0  0  0  0  0
   -3.1940   -2.6515   -1.4181 C   0  0  0  0  0  0  0  0  0  0  0  0
   -2.7154   -2.9958   -2.3478 H   0  0  0  0  0  0  0  0  0  0  0  0
   -4.2614   -3.3755   -0.8755 C   0  0  0  0  0  0  0  0  0  0  0  0
   -4.6174   -4.2866   -1.3801 H   0  0  0  0  0  0  0  0  0  0  0  0
   -4.8702   -2.9414    0.3116 C   0  0  0  0  0  0  0  0  0  0  0  0
   -5.7079   -3.5036    0.7505 H   0  0  0  0  0  0  0  0  0  0  0  0
   -4.3848   -1.7899    0.9462 C   0  0  0  0  0  0  0  0  0  0  0  0
   -4.8406   -1.4514    1.8908 H   0  0  0  0  0  0  0  0  0  0  0  0
    2.7936    0.1515    1.1671 C   0  0  0  0  0  0  0  0  0  0  0  0
    3.3110   -1.0586    0.4104 C   0  0  0  0  0  0  0  0  0  0  0  0
    2.7046   -1.4756   -0.8081 C   0  0  0  0  0  0  0  0  0  0  0  0
    1.5982   -0.7470   -1.4647 C   0  0  0  0  0  3  0  0  0  0  0  0
    1.2021   -1.2720   -2.3510 H   0  0  0  0  0  0  0  0  0  0  0  0
    1.4686    0.6852   -1.4799 C   0  0  0  0  0  3  0  0  0  0  0  0
    1.0033    1.0999   -2.3906 H   0  0  0  0  0  0  0  0  0  0  0  0
    2.4003    1.6530   -0.8547 C   0  0  0  0  0  0  0  0  0  0  0  0
    3.0232    1.4398    0.4061 C   0  0  0  0  0  0  0  0  0  0  0  0
    3.1939   -2.6515   -1.4184 C   0  0  0  0  0  0  0  0  0  0  0  0
    4.2611   -3.3757   -0.8758 C   0  0  0  0  0  0  0  0  0  0  0  0
    4.6170   -4.2868   -1.3805 H   0  0  0  0  0  0  0  0  0  0  0  0
    4.8699   -2.9417    0.3114 C   0  0  0  0  0  0  0  0  0  0  0  0
    4.3846   -1.7903    0.9461 C   0  0  0  0  0  0  0  0  0  0  0  0
    4.8404   -1.4519    1.8907 H   0  0  0  0  0  0  0  0  0  0  0  0
    2.6610    2.8693   -1.5241 C   0  0  0  0  0  0  0  0  0  0  0  0
    2.1776    3.0464   -2.4978 H   0  0  0  0  0  0  0  0  0  0  0  0
    3.5145    3.8400   -0.9847 C   0  0  0  0  0  0  0  0  0  0  0  0
    3.6970    4.7754   -1.5353 H   0  0  0  0  0  0  0  0  0  0  0  0
    4.1315    3.6173    0.2554 C   0  0  0  0  0  0  0  0  0  0  0  0
    4.8002    4.3738    0.6924 H   0  0  0  0  0  0  0  0  0  0  0  0
    3.8794    2.4190    0.9388 C   0  0  0  0  0  0  0  0  0  0  0  0
    4.3551    2.2334    1.9155 H   0  0  0  0  0  0  0  0  0  0  0  0
    0.7787    0.8437    2.5084 C   0  0  0  0  0  0  0  0  0  0  0  0
    1.1450    1.8613    2.2700 H   0  0  0  0  0  0  0  0  0  0  0  0
    1.1746    0.5756    3.5132 H   0  0  0  0  0  0  0  0  0  0  0  0
   -0.7787    0.8436    2.5085 C   0  0  0  0  0  0  0  0  0  0  0  0
   -1.1743    0.5751    3.5133 H   0  0  0  0  0  0  0  0  0  0  0  0
   -1.1451    1.8612    2.2704 H   0  0  0  0  0  0  0  0  0  0  0  0
   -1.2389   -1.0605    1.7666 H   0  0  0  0  0  0  0  0  0  0  0  0
    1.2388   -1.0605    1.7667 H   0  0  0  0  0  0  0  0  0  0  0  0
    3.3538    0.2174    2.1263 H   0  0  0  0  0  0  0  0  0  0  0  0
    2.7152   -2.9956   -2.3481 H   0  0  0  0  0  0  0  0  0  0  0  0
    5.7075   -3.5040    0.7502 H   0  0  0  0  0  0  0  0  0  0  0  0
  1 58  1  0  0  0  0
  1 55  1  0  0  0  0
  2 59  1  0  0  0  0
  2 52  1  0  0  0  0
  3  1  1  0  0  0  0
  3  4  1  0  0  0  0
  5 19  1  0  0  0  0
  5  3  1  0  0  0  0
  6  5  2  0  0  0  0
  7  9  1  0  0  0  0
  7  6  1  0  0  0  0
  8  7  1  0  0  0  0
  9 11  1  0  0  0  0
 10  9  1  0  0  0  0
 11 12  1  0  0  0  0
 12 27  2  0  0  0  0
 12  3  1  0  0  0  0
 13 15  2  0  0  0  0
 13  6  1  0  0  0  0
 14 13  1  0  0  0  0
 15 17  1  0  0  0  0
 16 15  1  0  0  0  0
 17 18  1  0  0  0  0
 17 19  2  0  0  0  0
 19 20  1  0  0  0  0
 21 23  1  0  0  0  0
 21 11  2  0  0  0  0
 22 21  1  0  0  0  0
 23 25  2  0  0  0  0
 24 23  1  0  0  0  0
 25 26  1  0  0  0  0
 25 27  1  0  0  0  0
 27 28  1  0  0  0  0
 29  2  1  0  0  0  0
 29 60  1  0  0  0  0
 30 42  1  0  0  0  0
 30 29  1  0  0  0  0
 31 30  2  0  0  0  0
 32 31  1  0  0  0  0
 33 32  1  0  0  0  0
 34 32  1  0  0  0  0
 34 36  1  0  0  0  0
 35 34  1  0  0  0  0
 36 37  1  0  0  0  0
 37 50  2  0  0  0  0
 37 29  1  0  0  0  0
 38 39  2  0  0  0  0
 38 31  1  0  0  0  0
 39 41  1  0  0  0  0
 40 39  1  0  0  0  0
 41 62  1  0  0  0  0
 41 42  2  0  0  0  0
 42 43  1  0  0  0  0
 44 46  1  0  0  0  0
 44 36  2  0  0  0  0
 45 44  1  0  0  0  0
 46 48  2  0  0  0  0
 47 46  1  0  0  0  0
 48 49  1  0  0  0  0
 48 50  1  0  0  0  0
 50 51  1  0  0  0  0
 52 55  1  0  0  0  0
 52 54  1  0  0  0  0
 53 52  1  0  0  0  0
 55 56  1  0  0  0  0
 57 55  1  0  0  0  0
 61 38  1  0  0  0  0
M  END
