1,4,6,14
 OpenBabel05122313063D

 47 49  0  0  1  0  0  0  0  0999 V2000
   -0.7226   -1.5555    0.2382 N   0  0  0  0  0  2  0  0  0  0  0  0
   -3.5127    2.1165   -1.3197 O   0  0  0  0  0  0  0  0  0  0  0  0
   -0.3570   -3.7963    0.8368 O   0  0  0  0  0  0  0  0  0  0  0  0
   -1.9397    0.7034   -0.3109 N   0  0  0  0  0  2  0  0  0  0  0  0
    2.2145   -1.4288    0.1378 N   0  0  0  0  0  0  0  0  0  0  0  0
    1.6659   -0.1818   -0.1855 C   0  0  0  0  0  3  0  0  0  0  0  0
   -0.2876    3.1001   -0.1695 N   0  0  0  0  0  0  0  0  0  0  0  0
    1.1489    2.5661    1.3584 N   0  0  0  0  0  0  0  0  0  0  0  0
    3.7333   -0.4640   -1.0819 N   0  0  0  0  0  0  0  0  0  0  0  0
   -2.1298   -1.6526    0.0827 C   0  0  0  0  0  0  0  0  0  0  0  0
    0.1406    4.2910    0.3966 C   0  0  0  0  0  0  0  0  0  0  0  0
   -0.2429    5.2647    0.0783 H   0  0  0  0  0  0  0  0  0  0  0  0
   -2.7947   -0.4125   -0.1620 C   0  0  0  0  0  0  0  0  0  0  0  0
    0.3156    2.0222    0.4079 C   0  0  0  0  0  2  0  0  0  0  0  0
    3.4434   -1.6059   -0.4079 C   0  0  2  0  0  3  0  0  0  0  0  0
    1.0541    3.9537    1.3630 C   0  0  0  0  0  0  0  0  0  0  0  0
    1.6214    4.5773    2.0601 H   0  0  0  0  0  0  0  0  0  0  0  0
    1.5034   -2.3835    0.9642 C   0  0  0  0  0  0  0  0  0  0  0  0
    1.5486   -2.0421    2.0217 H   0  0  0  0  0  0  0  0  0  0  0  0
    1.9948   -3.3698    0.9043 H   0  0  0  0  0  0  0  0  0  0  0  0
   -2.3783    1.8534   -0.8934 C   0  0  0  0  0  0  0  0  0  0  0  0
    0.0131   -2.6313    0.6178 C   0  0  0  0  0  0  0  0  0  0  0  0
   -1.3095    2.9343   -1.1872 C   0  0  0  0  0  0  0  0  0  0  0  0
   -0.8282    2.6866   -2.1582 H   0  0  0  0  0  0  0  0  0  0  0  0
   -1.8535    3.8877   -1.3065 H   0  0  0  0  0  0  0  0  0  0  0  0
    4.9309   -0.2197   -1.8688 C   0  0  0  0  0  0  0  0  0  0  0  0
    5.8447   -0.4189   -1.2757 H   0  0  0  0  0  0  0  0  0  0  0  0
    4.9391    0.8421   -2.1730 H   0  0  0  0  0  0  0  0  0  0  0  0
    4.9473   -0.8476   -2.7824 H   0  0  0  0  0  0  0  0  0  0  0  0
    1.9697    1.7976    2.2777 C   0  0  0  0  0  0  0  0  0  0  0  0
    1.5191    0.7950    2.3879 H   0  0  0  0  0  0  0  0  0  0  0  0
    1.9961    2.3017    3.2627 H   0  0  0  0  0  0  0  0  0  0  0  0
    3.0037    1.6804    1.8940 H   0  0  0  0  0  0  0  0  0  0  0  0
   -4.2042   -0.3836   -0.2577 C   0  0  0  0  0  0  0  0  0  0  0  0
   -4.6954    0.5743   -0.4534 H   0  0  0  0  0  0  0  0  0  0  0  0
   -2.8943   -2.8384    0.1768 C   0  0  0  0  0  0  0  0  0  0  0  0
   -2.3723   -3.7825    0.3578 H   0  0  0  0  0  0  0  0  0  0  0  0
    2.6628    0.4193   -0.9486 C   0  0  0  0  0  0  0  0  0  0  0  0
    2.6840    1.3990   -1.4349 H   0  0  0  0  0  0  0  0  0  0  0  0
    4.2961   -2.8185   -0.2953 C   0  0  0  0  0  0  0  0  0  0  0  0
    4.5243   -3.0598    0.7637 H   0  0  0  0  0  0  0  0  0  0  0  0
    5.2555   -2.6800   -0.8257 H   0  0  0  0  0  0  0  0  0  0  0  0
    3.7932   -3.7061   -0.7333 H   0  0  0  0  0  0  0  0  0  0  0  0
   -4.2912   -2.7908    0.0657 C   0  0  0  0  0  0  0  0  0  0  0  0
   -4.8689   -3.7247    0.1494 H   0  0  0  0  0  0  0  0  0  0  0  0
   -4.9446   -1.5680   -0.1404 C   0  0  0  0  0  0  0  0  0  0  0  0
   -6.0423   -1.5278   -0.2204 H   0  0  0  0  0  0  0  0  0  0  0  0
  1 22  1  0  0  0  0
  2 21  2  0  0  0  0
  4 13  1  0  0  0  0
  5 18  1  0  0  0  0
  6  5  1  0  0  0  0
  7 11  1  0  0  0  0
  7 14  1  0  0  0  0
  8 16  1  0  0  0  0
  8 30  1  0  0  0  0
  9 38  1  0  0  0  0
  9 15  1  0  0  0  0
 10 36  1  0  0  0  0
 10  1  1  0  0  0  0
 11 16  2  0  0  0  0
 12 11  1  0  0  0  0
 13 10  2  0  0  0  0
 14  8  1  0  0  0  0
 15 40  1  6  0  0  0
 15  5  1  0  0  0  0
 16 17  1  0  0  0  0
 18 19  1  0  0  0  0
 20 18  1  0  0  0  0
 21  4  1  0  0  0  0
 22  3  2  0  0  0  0
 22 18  1  0  0  0  0
 23 21  1  0  0  0  0
 23  7  1  0  0  0  0
 24 23  1  0  0  0  0
 25 23  1  0  0  0  0
 26 27  1  0  0  0  0
 26  9  1  0  0  0  0
 28 26  1  0  0  0  0
 29 26  1  0  0  0  0
 30 31  1  0  0  0  0
 30 32  1  0  0  0  0
 33 30  1  0  0  0  0
 34 13  1  0  0  0  0
 34 46  2  0  0  0  0
 35 34  1  0  0  0  0
 36 37  1  0  0  0  0
 38  6  2  0  0  0  0
 39 38  1  0  0  0  0
 40 41  1  0  0  0  0
 42 40  1  0  0  0  0
 43 40  1  0  0  0  0
 44 45  1  0  0  0  0
 44 36  2  0  0  0  0
 46 44  1  0  0  0  0
 47 46  1  0  0  0  0
M  END
