2,5,11,14
 OpenBabel05122313063D

 52 56  0  0  0  0  0  0  0  0999 V2000
    2.9575    3.3374    1.0123 O   0  0  0  0  0  0  0  0  0  0  0  0
    2.1747    1.2941    0.1757 N   0  0  0  0  0  2  0  0  0  0  0  0
   -1.6539   -1.2673    1.1921 N   0  0  0  0  0  0  0  0  0  0  0  0
   -1.6538    1.2677   -1.1918 N   0  0  0  0  0  0  0  0  0  0  0  0
    2.1745   -1.2942   -0.1758 N   0  0  0  0  0  2  0  0  0  0  0  0
    2.0608    2.5781    0.6179 C   0  0  0  0  0  0  0  0  0  0  0  0
    0.6485    3.1626    0.7505 C   0  0  0  0  0  0  0  0  0  0  0  0
    0.3118    3.0071    1.7993 H   0  0  0  0  0  0  0  0  0  0  0  0
    0.7492    4.2511    0.5927 H   0  0  0  0  0  0  0  0  0  0  0  0
   -0.3587    2.6507   -0.1554 N   0  0  0  0  0  0  0  0  0  0  0  0
   -0.5083    1.3170   -0.4173 C   0  0  0  0  0  2  0  0  0  0  0  0
    2.9571   -3.3376   -1.0125 O   0  0  0  0  0  0  0  0  0  0  0  0
   -0.3588   -2.6505    0.1559 N   0  0  0  0  0  0  0  0  0  0  0  0
   -0.5085   -1.3168    0.4174 C   0  0  0  0  0  2  0  0  0  0  0  0
    4.6898   -1.4048   -0.0830 C   0  0  0  0  0  0  0  0  0  0  0  0
    4.6814   -2.4939   -0.1769 H   0  0  0  0  0  0  0  0  0  0  0  0
   -2.1704    2.5410   -1.4081 C   0  0  0  0  0  0  0  0  0  0  0  0
   -3.0759    2.7082   -1.9981 H   0  0  0  0  0  0  0  0  0  0  0  0
   -3.7014    0.0003   -0.7121 C   0  0  0  0  0  0  0  0  0  0  0  0
   -2.4224   -0.0738    1.5310 C   0  0  0  0  0  0  0  0  0  0  0  0
   -1.7561    0.7945    1.3719 H   0  0  0  0  0  0  0  0  0  0  0  0
   -2.6739   -0.1048    2.6097 H   0  0  0  0  0  0  0  0  0  0  0  0
    4.6899    1.4045    0.0828 C   0  0  0  0  0  0  0  0  0  0  0  0
    4.6816    2.4936    0.1767 H   0  0  0  0  0  0  0  0  0  0  0  0
   -2.4222    0.0742   -1.5311 C   0  0  0  0  0  0  0  0  0  0  0  0
   -1.7558   -0.7941   -1.3720 H   0  0  0  0  0  0  0  0  0  0  0  0
   -2.6735    0.1053   -2.6099 H   0  0  0  0  0  0  0  0  0  0  0  0
   -1.3462    3.4156   -0.7559 C   0  0  0  0  0  0  0  0  0  0  0  0
   -1.3705    4.5062   -0.6742 H   0  0  0  0  0  0  0  0  0  0  0  0
   -1.3461   -3.4153    0.7568 C   0  0  0  0  0  0  0  0  0  0  0  0
   -1.3704   -4.5059    0.6755 H   0  0  0  0  0  0  0  0  0  0  0  0
   -3.7015   -0.0002    0.7118 C   0  0  0  0  0  0  0  0  0  0  0  0
    2.0606   -2.5782   -0.6179 C   0  0  0  0  0  0  0  0  0  0  0  0
   -4.9336   -0.0048   -1.3906 C   0  0  0  0  0  0  0  0  0  0  0  0
   -4.9317   -0.0007   -2.4925 H   0  0  0  0  0  0  0  0  0  0  0  0
   -4.9338    0.0046    1.3901 C   0  0  0  0  0  0  0  0  0  0  0  0
   -4.9321    0.0005    2.4920 H   0  0  0  0  0  0  0  0  0  0  0  0
    3.4586   -0.7080   -0.0650 C   0  0  0  0  0  0  0  0  0  0  0  0
    3.4586    0.7078    0.0648 C   0  0  0  0  0  0  0  0  0  0  0  0
    0.6481   -3.1626   -0.7502 C   0  0  0  0  0  0  0  0  0  0  0  0
    0.3113   -3.0072   -1.7989 H   0  0  0  0  0  0  0  0  0  0  0  0
    0.7488   -4.2511   -0.5923 H   0  0  0  0  0  0  0  0  0  0  0  0
   -2.1703   -2.5406    1.4088 C   0  0  0  0  0  0  0  0  0  0  0  0
   -3.0757   -2.7077    1.9989 H   0  0  0  0  0  0  0  0  0  0  0  0
    5.8990    0.7003    0.0306 C   0  0  0  0  0  0  0  0  0  0  0  0
    6.8478    1.2585    0.0536 H   0  0  0  0  0  0  0  0  0  0  0  0
   -6.1553    0.0073    0.6997 C   0  0  0  0  0  0  0  0  0  0  0  0
   -7.1031    0.0139    1.2583 H   0  0  0  0  0  0  0  0  0  0  0  0
    5.8990   -0.7006   -0.0310 C   0  0  0  0  0  0  0  0  0  0  0  0
    6.8478   -1.2589   -0.0540 H   0  0  0  0  0  0  0  0  0  0  0  0
   -6.1552   -0.0078   -0.7003 C   0  0  0  0  0  0  0  0  0  0  0  0
   -7.1029   -0.0147   -1.2591 H   0  0  0  0  0  0  0  0  0  0  0  0
  2  6  1  0  0  0  0
  3 43  1  0  0  0  0
  3 20  1  0  0  0  0
  4 11  1  0  0  0  0
  5 38  1  0  0  0  0
  6  7  1  0  0  0  0
  6  1  2  0  0  0  0
  7  8  1  0  0  0  0
  9  7  1  0  0  0  0
 10  7  1  0  0  0  0
 11 10  1  0  0  0  0
 12 33  2  0  0  0  0
 13 14  1  0  0  0  0
 13 30  1  0  0  0  0
 14  3  1  0  0  0  0
 15 38  2  0  0  0  0
 15 49  1  0  0  0  0
 16 15  1  0  0  0  0
 17  4  1  0  0  0  0
 17 28  2  0  0  0  0
 18 17  1  0  0  0  0
 19 32  1  0  0  0  0
 20 22  1  0  0  0  0
 21 20  1  0  0  0  0
 23 24  1  0  0  0  0
 25 26  1  0  0  0  0
 25  4  1  0  0  0  0
 25 19  1  0  0  0  0
 27 25  1  0  0  0  0
 28 29  1  0  0  0  0
 28 10  1  0  0  0  0
 30 43  2  0  0  0  0
 31 30  1  0  0  0  0
 32 36  2  0  0  0  0
 32 20  1  0  0  0  0
 33  5  1  0  0  0  0
 34 19  2  0  0  0  0
 34 51  1  0  0  0  0
 35 34  1  0  0  0  0
 36 37  1  0  0  0  0
 38 39  1  0  0  0  0
 39 23  2  0  0  0  0
 39  2  1  0  0  0  0
 40 33  1  0  0  0  0
 40 42  1  0  0  0  0
 40 13  1  0  0  0  0
 41 40  1  0  0  0  0
 43 44  1  0  0  0  0
 45 46  1  0  0  0  0
 45 23  1  0  0  0  0
 47 48  1  0  0  0  0
 47 36  1  0  0  0  0
 49 45  2  0  0  0  0
 50 49  1  0  0  0  0
 51 47  2  0  0  0  0
 52 51  1  0  0  0  0
M  END
