1,3,27,59
q = 0.0, confidence = 0.628

 74 80  0  0  0  0  0  0  0  0999 V2000
   -2.4820   -1.7109   -0.2972 N   0  0  0  0  0  2  0  0  0  0  0  0
    2.1914   -0.0039    0.0142 N   0  0  0  0  0  0  0  0  0  0  0  0
   -2.4792    1.7155    0.2939 N   0  0  0  0  0  2  0  0  0  0  0  0
   -3.8120   -1.6605   -0.5580 C   0  0  0  0  0  3  0  0  0  0  0  0
   -4.2212   -0.6611   -0.7605 H   0  0  0  0  0  0  0  0  0  0  0  0
   -4.5952   -2.7954   -0.6203 C   0  0  0  0  0  0  0  0  0  0  0  0
   -5.6602   -2.7261   -0.8835 H   0  0  0  0  0  0  0  0  0  0  0  0
   -4.0153   -4.0494   -0.2791 C   0  0  0  0  0  0  0  0  0  0  0  0
   -4.7941   -5.2374   -0.1745 C   0  0  0  0  0  0  0  0  0  0  0  0
   -5.8660   -5.1876   -0.4198 H   0  0  0  0  0  0  0  0  0  0  0  0
   -4.2220   -6.4226    0.2610 C   0  0  0  0  0  0  0  0  0  0  0  0
   -4.8349   -7.3324    0.3490 H   0  0  0  0  0  0  0  0  0  0  0  0
   -2.8549   -6.4527    0.6377 C   0  0  0  0  0  0  0  0  0  0  0  0
   -2.4214   -7.3765    1.0489 H   0  0  0  0  0  0  0  0  0  0  0  0
   -2.0630   -5.3190    0.5132 C   0  0  0  0  0  0  0  0  0  0  0  0
   -1.0222   -5.3458    0.8570 H   0  0  0  0  0  0  0  0  0  0  0  0
   -2.6013   -4.0993    0.0073 C   0  0  0  0  0  0  0  0  0  0  0  0
   -1.8325   -2.8866   -0.1624 C   0  0  0  0  0  0  0  0  0  0  0  0
   -0.3666   -2.7805   -0.2448 C   0  0  0  0  0  0  0  0  0  0  0  0
    0.4813   -3.8802   -0.5199 C   0  0  0  0  0  0  0  0  0  0  0  0
    0.0696   -4.8768   -0.7163 H   0  0  0  0  0  0  0  0  0  0  0  0
    1.8566   -3.6653   -0.6192 C   0  0  0  0  0  0  0  0  0  0  0  0
    2.5295   -4.5034   -0.8533 H   0  0  0  0  0  0  0  0  0  0  0  0
    2.3983   -2.3907   -0.4290 C   0  0  0  0  0  0  0  0  0  0  0  0
    3.4857   -2.2642   -0.4937 H   0  0  0  0  0  0  0  0  0  0  0  0
    1.5721   -1.2584   -0.1863 C   0  0  0  0  0  0  0  0  0  0  0  0
    0.1747   -1.4677   -0.1592 C   0  0  0  0  0  3  0  0  0  0  0  0
    3.6310   -0.0058    0.0186 C   0  0  0  0  0  0  0  0  0  0  0  0
    4.3347   -0.2661    1.2027 C   0  0  0  0  0  0  0  0  0  0  0  0
    3.7707   -0.4673    2.1255 H   0  0  0  0  0  0  0  0  0  0  0  0
    5.7382   -0.2685    1.2022 C   0  0  0  0  0  0  0  0  0  0  0  0
    6.2603   -0.4762    2.1457 H   0  0  0  0  0  0  0  0  0  0  0  0
    6.4734   -0.0112    0.0270 C   0  0  0  0  0  0  0  0  0  0  0  0
    5.7412    0.2495   -1.1541 C   0  0  0  0  0  0  0  0  0  0  0  0
    6.2754    0.4548   -2.0943 H   0  0  0  0  0  0  0  0  0  0  0  0
    4.3420    0.2530   -1.1655 C   0  0  0  0  0  0  0  0  0  0  0  0
    3.7829    0.4559   -2.0908 H   0  0  0  0  0  0  0  0  0  0  0  0
    8.0116   -0.0045   -0.0097 C   0  0  0  0  0  0  0  0  0  0  0  0
    8.4994   -1.0737   -1.0140 C   0  0  0  0  0  0  0  0  0  0  0  0
    8.1600   -2.0850   -0.7117 H   0  0  0  0  0  0  0  0  0  0  0  0
    9.6080   -1.0818   -1.0614 H   0  0  0  0  0  0  0  0  0  0  0  0
    8.1205   -0.8824   -2.0375 H   0  0  0  0  0  0  0  0  0  0  0  0
    8.6275   -0.3136    1.3656 C   0  0  0  0  0  0  0  0  0  0  0  0
    8.3348    0.4365    2.1277 H   0  0  0  0  0  0  0  0  0  0  0  0
    9.7335   -0.2994    1.2923 H   0  0  0  0  0  0  0  0  0  0  0  0
    8.3311   -1.3161    1.7349 H   0  0  0  0  0  0  0  0  0  0  0  0
    8.5007    1.3907   -0.4614 C   0  0  0  0  0  0  0  0  0  0  0  0
    8.1211    1.6550   -1.4682 H   0  0  0  0  0  0  0  0  0  0  0  0
    9.6093    1.4172   -0.5015 H   0  0  0  0  0  0  0  0  0  0  0  0
    8.1625    2.1764    0.2441 H   0  0  0  0  0  0  0  0  0  0  0  0
    1.5741    1.2526    0.2077 C   0  0  0  0  0  0  0  0  0  0  0  0
    2.4019    2.3833    0.4530 C   0  0  0  0  0  0  0  0  0  0  0  0
    3.4885    2.2539    0.5249 H   0  0  0  0  0  0  0  0  0  0  0  0
    1.8624    3.6597    0.6373 C   0  0  0  0  0  0  0  0  0  0  0  0
    2.5361    4.4965    0.8735 H   0  0  0  0  0  0  0  0  0  0  0  0
    0.4882    3.8779    0.5296 C   0  0  0  0  0  0  0  0  0  0  0  0
    0.0780    4.8758    0.7219 H   0  0  0  0  0  0  0  0  0  0  0  0
   -0.3609    2.7798    0.2515 C   0  0  0  0  0  0  0  0  0  0  0  0
    0.1775    1.4655    0.1712 C   0  0  0  0  0  3  0  0  0  0  0  0
   -1.8261    2.8895    0.1609 C   0  0  0  0  0  0  0  0  0  0  0  0
   -2.5910    4.1038   -0.0143 C   0  0  0  0  0  0  0  0  0  0  0  0
   -2.0471    5.3215   -0.5192 C   0  0  0  0  0  3  0  0  0  0  0  0
   -1.0045    5.3453   -0.8576 H   0  0  0  0  0  0  0  0  0  0  0  0
   -2.8355    6.4569   -0.6493 C   0  0  0  0  0  0  0  0  0  0  0  0
   -2.3977    7.3792   -1.0596 H   0  0  0  0  0  0  0  0  0  0  0  0
   -4.2047    6.4308   -0.2796 C   0  0  0  0  0  0  0  0  0  0  0  0
   -4.8149    7.3419   -0.3721 H   0  0  0  0  0  0  0  0  0  0  0  0
   -4.7819    5.2476    0.1546 C   0  0  0  0  0  0  0  0  0  0  0  0
   -5.8552    5.2007    0.3944 H   0  0  0  0  0  0  0  0  0  0  0  0
   -4.0066    4.0578    0.2649 C   0  0  0  0  0  0  0  0  0  0  0  0
   -4.5913    2.8057    0.6047 C   0  0  0  0  0  0  0  0  0  0  0  0
   -5.6579    2.7394    0.8626 H   0  0  0  0  0  0  0  0  0  0  0  0
   -3.8106    1.6687    0.5479 C   0  0  0  0  0  0  0  0  0  0  0  0
   -4.2234    0.6707    0.7497 H   0  0  0  0  0  0  0  0  0  0  0  0
  1 18  1  0  0  0  0
  2 28  1  0  0  0  0
  2 51  1  0  0  0  0
  3 73  1  0  0  0  0
  4  1  1  0  0  0  0
  5  4  1  0  0  0  0
  6  4  1  0  0  0  0
  6  8  2  0  0  0  0
  7  6  1  0  0  0  0
  8  9  1  0  0  0  0
  8 17  1  0  0  0  0
  9 11  2  0  0  0  0
 10  9  1  0  0  0  0
 11 12  1  0  0  0  0
 11 13  1  0  0  0  0
 13 14  1  0  0  0  0
 15 13  2  0  0  0  0
 15 16  1  0  0  0  0
 17 15  1  0  0  0  0
 18 17  2  0  0  0  0
 19 18  1  0  0  0  0
 19 27  1  0  0  0  0
 20 19  2  0  0  0  0
 21 20  1  0  0  0  0
 22 20  1  0  0  0  0
 22 24  2  0  0  0  0
 23 22  1  0  0  0  0
 24 26  1  0  0  0  0
 25 24  1  0  0  0  0
 26 27  2  0  0  0  0
 26  2  1  0  0  0  0
 28 29  1  0  0  0  0
 29 30  1  0  0  0  0
 31 29  2  0  0  0  0
 31 32  1  0  0  0  0
 33 31  1  0  0  0  0
 34 33  2  0  0  0  0
 35 34  1  0  0  0  0
 36 34  1  0  0  0  0
 36 28  2  0  0  0  0
 37 36  1  0  0  0  0
 38 33  1  0  0  0  0
 38 43  1  0  0  0  0
 39 40  1  0  0  0  0
 39 38  1  0  0  0  0
 41 39  1  0  0  0  0
 42 39  1  0  0  0  0
 43 46  1  0  0  0  0
 43 44  1  0  0  0  0
 45 43  1  0  0  0  0
 47 38  1  0  0  0  0
 47 50  1  0  0  0  0
 48 47  1  0  0  0  0
 49 47  1  0  0  0  0
 51 52  1  0  0  0  0
 52 53  1  0  0  0  0
 52 54  2  0  0  0  0
 54 55  1  0  0  0  0
 56 54  1  0  0  0  0
 56 57  1  0  0  0  0
 58 56  2  0  0  0  0
 59 51  2  0  0  0  0
 59 58  1  0  0  0  0
 60 58  1  0  0  0  0
 60  3  1  0  0  0  0
 61 60  2  0  0  0  0
 61 70  1  0  0  0  0
 62 61  1  0  0  0  0
 63 62  1  0  0  0  0
 64 62  1  0  0  0  0
 64 66  2  0  0  0  0
 65 64  1  0  0  0  0
 66 68  1  0  0  0  0
 67 66  1  0  0  0  0
 68 70  2  0  0  0  0
 68 69  1  0  0  0  0
 70 71  1  0  0  0  0
 71 72  1  0  0  0  0
 73 71  2  0  0  0  0
 73 74  1  0  0  0  0
M  END
