5,8,10,21
q = -2.0, confidence = 0.736

 50 52  0  0  1  0  0  0  0  0999 V2000
   -2.2599   -3.3720   -1.0786 O   0  0  0  0  0  0  0  0  0  0  0  0
   -2.2598    3.3715    1.0800 O   0  0  0  0  0  0  0  0  0  0  0  0
    1.0991   -2.5978   -0.2761 N   0  0  0  0  0  0  0  0  0  0  0  0
    2.8275   -2.6553    1.0397 N   0  0  0  0  0  0  0  0  0  0  0  0
   -1.5146   -1.2780   -0.3138 N   0  0  0  0  0  2  0  0  0  0  0  0
    1.0991    2.5978    0.2760 N   0  0  0  0  0  0  0  0  0  0  0  0
    2.8272    2.6554   -1.0400 N   0  0  0  0  0  0  0  0  0  0  0  0
   -1.5146    1.2779    0.3139 N   0  0  0  0  0  2  0  0  0  0  0  0
    2.0522   -3.4193    0.2276 C   0  0  1  0  0  3  0  0  0  0  0  0
    1.2114   -1.2890    0.2117 C   0  0  0  0  0  3  0  0  0  0  0  0
    2.3346   -1.3511    1.0319 C   0  0  0  0  0  0  0  0  0  0  0  0
    2.8092   -0.5709    1.6331 H   0  0  0  0  0  0  0  0  0  0  0  0
    0.0497   -2.9727   -1.2008 C   0  0  0  0  0  0  0  0  0  0  0  0
    0.0179   -4.0703   -1.3099 H   0  0  0  0  0  0  0  0  0  0  0  0
    0.2767   -2.5261   -2.1929 H   0  0  0  0  0  0  0  0  0  0  0  0
   -1.3818   -2.5372   -0.8006 C   0  0  0  0  0  0  0  0  0  0  0  0
   -2.7963   -0.7008   -0.1388 C   0  0  0  0  0  0  0  0  0  0  0  0
   -4.0296   -1.3842   -0.2481 C   0  0  0  0  0  0  0  0  0  0  0  0
   -4.0113   -2.4578   -0.4572 H   0  0  0  0  0  0  0  0  0  0  0  0
    2.0521    3.4194   -0.2277 C   0  0  1  0  0  3  0  0  0  0  0  0
    1.2114    1.2890   -0.2118 C   0  0  0  0  0  3  0  0  0  0  0  0
    2.3344    1.3512   -1.0322 C   0  0  0  0  0  0  0  0  0  0  0  0
    2.8089    0.5711   -1.6336 H   0  0  0  0  0  0  0  0  0  0  0  0
    0.0498    2.9726    1.2009 C   0  0  0  0  0  0  0  0  0  0  0  0
    0.0179    4.0702    1.3100 H   0  0  0  0  0  0  0  0  0  0  0  0
    0.2771    2.5261    2.1931 H   0  0  0  0  0  0  0  0  0  0  0  0
   -1.3818    2.5369    0.8012 C   0  0  0  0  0  0  0  0  0  0  0  0
   -2.7962    0.7009    0.1387 C   0  0  0  0  0  0  0  0  0  0  0  0
   -4.0295    1.3843    0.2477 C   0  0  0  0  0  0  0  0  0  0  0  0
   -4.0112    2.4580    0.4569 H   0  0  0  0  0  0  0  0  0  0  0  0
   -5.2411    0.6907    0.1177 C   0  0  0  0  0  0  0  0  0  0  0  0
   -6.1899    1.2423    0.2106 H   0  0  0  0  0  0  0  0  0  0  0  0
    2.2081   -4.8719   -0.0495 C   0  0  0  0  0  0  0  0  0  0  0  0
    3.0811   -5.2866    0.4863 H   0  0  0  0  0  0  0  0  0  0  0  0
    2.3492   -5.0687   -1.1328 H   0  0  0  0  0  0  0  0  0  0  0  0
    1.3119   -5.4422    0.2734 H   0  0  0  0  0  0  0  0  0  0  0  0
    3.9461   -3.1253    1.8381 C   0  0  0  0  0  0  0  0  0  0  0  0
    4.6707   -3.6884    1.2179 H   0  0  0  0  0  0  0  0  0  0  0  0
    3.6045   -3.7723    2.6716 H   0  0  0  0  0  0  0  0  0  0  0  0
    4.4639   -2.2482    2.2655 H   0  0  0  0  0  0  0  0  0  0  0  0
    2.2081    4.8719    0.0495 C   0  0  0  0  0  0  0  0  0  0  0  0
    3.0814    5.2864   -0.4860 H   0  0  0  0  0  0  0  0  0  0  0  0
    2.3488    5.0686    1.1329 H   0  0  0  0  0  0  0  0  0  0  0  0
    1.3122    5.4424   -0.2736 H   0  0  0  0  0  0  0  0  0  0  0  0
    3.9459    3.1256   -1.8383 C   0  0  0  0  0  0  0  0  0  0  0  0
    4.6719    3.6862   -1.2174 H   0  0  0  0  0  0  0  0  0  0  0  0
    3.6047    3.7749   -2.6700 H   0  0  0  0  0  0  0  0  0  0  0  0
    4.4620    2.2486   -2.2681 H   0  0  0  0  0  0  0  0  0  0  0  0
   -5.2411   -0.6903   -0.1185 C   0  0  0  0  0  0  0  0  0  0  0  0
   -6.1900   -1.2418   -0.2117 H   0  0  0  0  0  0  0  0  0  0  0  0
  1 16  2  0  0  0  0
  3 10  1  0  0  0  0
  3  9  1  0  0  0  0
  4 37  1  0  0  0  0
  5 17  1  0  0  0  0
  6 24  1  0  0  0  0
  7 22  1  0  0  0  0
  7 20  1  0  0  0  0
  8 27  1  0  0  0  0
  9 33  1  1  0  0  0
  9  4  1  0  0  0  0
 10 11  2  0  0  0  0
 11  4  1  0  0  0  0
 11 12  1  0  0  0  0
 13 16  1  0  0  0  0
 13  3  1  0  0  0  0
 14 13  1  0  0  0  0
 15 13  1  0  0  0  0
 16  5  1  0  0  0  0
 17 28  1  0  0  0  0
 18 17  2  0  0  0  0
 18 49  1  0  0  0  0
 19 18  1  0  0  0  0
 20 41  1  6  0  0  0
 20  6  1  0  0  0  0
 21  6  1  0  0  0  0
 22 21  2  0  0  0  0
 23 22  1  0  0  0  0
 24 25  1  0  0  0  0
 24 26  1  0  0  0  0
 27  2  2  0  0  0  0
 27 24  1  0  0  0  0
 28 29  2  0  0  0  0
 28  8  1  0  0  0  0
 29 30  1  0  0  0  0
 31 32  1  0  0  0  0
 31 29  1  0  0  0  0
 33 36  1  0  0  0  0
 33 34  1  0  0  0  0
 35 33  1  0  0  0  0
 37 40  1  0  0  0  0
 37 39  1  0  0  0  0
 38 37  1  0  0  0  0
 41 43  1  0  0  0  0
 42 41  1  0  0  0  0
 44 41  1  0  0  0  0
 45 46  1  0  0  0  0
 45  7  1  0  0  0  0
 47 45  1  0  0  0  0
 48 45  1  0  0  0  0
 49 31  2  0  0  0  0
 50 49  1  0  0  0  0
M  END
