1,2,3,5
q = 0.0, confidence = 0.998

 52 51  0  0  0  0  0  0  0  0999 V2000
    1.8846    0.1273    0.1603 P   0  0  0  0  0  0  0  0  0  0  0  0
   -1.5792    0.7081    0.2442 P   0  0  0  0  0  0  0  0  0  0  0  0
    0.0820   -1.9628    1.0546 N   0  0  0  0  0  0  0  0  0  0  0  0
   -0.4581   -1.5455    1.8280 H   0  0  0  0  0  0  0  0  0  0  0  0
   -1.5930   -1.8371   -1.1454 N   0  0  0  0  0  0  0  0  0  0  0  0
   -1.2354   -2.3543   -1.9587 H   0  0  0  0  0  0  0  0  0  0  0  0
   -0.6076   -3.2013    0.6292 C   0  0  0  0  0  0  0  0  0  0  0  0
   -0.8068   -3.8850    1.4843 H   0  0  0  0  0  0  0  0  0  0  0  0
    0.0657   -3.7287   -0.0763 H   0  0  0  0  0  0  0  0  0  0  0  0
   -1.8992   -2.8050   -0.0635 C   0  0  0  0  0  0  0  0  0  0  0  0
   -2.4451   -3.6948   -0.4450 H   0  0  0  0  0  0  0  0  0  0  0  0
   -2.5721   -2.3042    0.6627 H   0  0  0  0  0  0  0  0  0  0  0  0
    1.4657   -2.1881    1.5487 C   0  0  0  0  0  0  0  0  0  0  0  0
    1.9871   -2.7923    0.7792 H   0  0  0  0  0  0  0  0  0  0  0  0
    1.4550   -2.7800    2.4910 H   0  0  0  0  0  0  0  0  0  0  0  0
    2.1637   -0.8461    1.7289 C   0  0  0  0  0  0  0  0  0  0  0  0
    3.2411   -0.9737    1.9561 H   0  0  0  0  0  0  0  0  0  0  0  0
    1.7214   -0.2747    2.5726 H   0  0  0  0  0  0  0  0  0  0  0  0
   -2.7724   -1.0356   -1.5784 C   0  0  0  0  0  0  0  0  0  0  0  0
   -3.6334   -1.7021   -1.8085 H   0  0  0  0  0  0  0  0  0  0  0  0
   -2.4825   -0.5314   -2.5203 H   0  0  0  0  0  0  0  0  0  0  0  0
   -3.1499   -0.0013   -0.5165 C   0  0  0  0  0  0  0  0  0  0  0  0
   -3.7604   -0.4492    0.2946 H   0  0  0  0  0  0  0  0  0  0  0  0
   -3.7730    0.7986   -0.9628 H   0  0  0  0  0  0  0  0  0  0  0  0
   -2.0662    0.7829    2.0454 C   0  0  0  0  0  0  0  0  0  0  0  0
   -3.0551    1.2835    2.1128 H   0  0  0  0  0  0  0  0  0  0  0  0
   -2.2435   -0.2663    2.3722 H   0  0  0  0  0  0  0  0  0  0  0  0
   -1.0456    1.4701    2.9509 C   0  0  0  0  0  0  0  0  0  0  0  0
   -1.3855    1.4692    4.0054 H   0  0  0  0  0  0  0  0  0  0  0  0
   -0.8847    2.5277    2.6603 H   0  0  0  0  0  0  0  0  0  0  0  0
   -0.0597    0.9640    2.9177 H   0  0  0  0  0  0  0  0  0  0  0  0
   -1.5784    2.4884   -0.2817 C   0  0  0  0  0  0  0  0  0  0  0  0
   -0.6261    2.9194    0.0907 H   0  0  0  0  0  0  0  0  0  0  0  0
   -1.4713    2.4547   -1.3868 H   0  0  0  0  0  0  0  0  0  0  0  0
   -2.7700    3.3457    0.1406 C   0  0  0  0  0  0  0  0  0  0  0  0
   -2.6882    4.3597   -0.2989 H   0  0  0  0  0  0  0  0  0  0  0  0
   -2.8276    3.4714    1.2401 H   0  0  0  0  0  0  0  0  0  0  0  0
   -3.7363    2.9221   -0.2010 H   0  0  0  0  0  0  0  0  0  0  0  0
    3.3566   -0.2515   -0.9037 C   0  0  0  0  0  0  0  0  0  0  0  0
    3.3054   -1.3457   -1.0822 H   0  0  0  0  0  0  0  0  0  0  0  0
    3.1360    0.2115   -1.8893 H   0  0  0  0  0  0  0  0  0  0  0  0
    4.7251    0.1750   -0.3755 C   0  0  0  0  0  0  0  0  0  0  0  0
    5.5236   -0.1601   -1.0671 H   0  0  0  0  0  0  0  0  0  0  0  0
    4.9508   -0.2668    0.6166 H   0  0  0  0  0  0  0  0  0  0  0  0
    4.8166    1.2752   -0.2825 H   0  0  0  0  0  0  0  0  0  0  0  0
    2.1483    1.8933    0.6586 C   0  0  0  0  0  0  0  0  0  0  0  0
    1.3105    2.1494    1.3394 H   0  0  0  0  0  0  0  0  0  0  0  0
    3.0777    1.9475    1.2650 H   0  0  0  0  0  0  0  0  0  0  0  0
    2.2102    2.8556   -0.5305 C   0  0  0  0  0  0  0  0  0  0  0  0
    2.2560    3.9058   -0.1805 H   0  0  0  0  0  0  0  0  0  0  0  0
    1.3274    2.7568   -1.1925 H   0  0  0  0  0  0  0  0  0  0  0  0
    3.1078    2.6797   -1.1555 H   0  0  0  0  0  0  0  0  0  0  0  0
  1 46  1  0  0  0  0
  1 16  1  0  0  0  0
  2 25  1  0  0  0  0
  3 13  1  0  0  0  0
  3  4  1  0  0  0  0
  5 10  1  0  0  0  0
  6  5  1  0  0  0  0
  7  3  1  0  0  0  0
  7  8  1  0  0  0  0
  9  7  1  0  0  0  0
 10  7  1  0  0  0  0
 10 12  1  0  0  0  0
 11 10  1  0  0  0  0
 13 16  1  0  0  0  0
 13 15  1  0  0  0  0
 14 13  1  0  0  0  0
 16 17  1  0  0  0  0
 16 18  1  0  0  0  0
 19  5  1  0  0  0  0
 19 22  1  0  0  0  0
 20 19  1  0  0  0  0
 21 19  1  0  0  0  0
 22  2  1  0  0  0  0
 22 23  1  0  0  0  0
 24 22  1  0  0  0  0
 25 26  1  0  0  0  0
 25 27  1  0  0  0  0
 25 28  1  0  0  0  0
 28 29  1  0  0  0  0
 30 28  1  0  0  0  0
 31 28  1  0  0  0  0
 32 33  1  0  0  0  0
 32 35  1  0  0  0  0
 32  2  1  0  0  0  0
 34 32  1  0  0  0  0
 35 37  1  0  0  0  0
 36 35  1  0  0  0  0
 38 35  1  0  0  0  0
 39 42  1  0  0  0  0
 39  1  1  0  0  0  0
 40 39  1  0  0  0  0
 41 39  1  0  0  0  0
 42 45  1  0  0  0  0
 42 44  1  0  0  0  0
 43 42  1  0  0  0  0
 46 48  1  0  0  0  0
 46 47  1  0  0  0  0
 49 50  1  0  0  0  0
 49 46  1  0  0  0  0
 51 49  1  0  0  0  0
 52 49  1  0  0  0  0
M  END
