1,2,3,4
q = -1.0

 80 82  0  0  1  0  0  0  0  0999 V2000
   -1.0935    1.5285   -0.6707 P   0  0  0  0  0  0  0  0  0  0  0  0
    2.0684   -1.7726   -0.3635 P   0  0  0  0  0  0  0  0  0  0  0  0
   -0.0103   -0.1816    1.3592 N   0  0  0  0  0  2  0  0  0  0  0  0
    2.3219    1.2535    0.4888 N   0  0  0  0  0  2  0  0  0  0  0  0
   -5.8393    0.0296    0.4900 N   0  0  0  0  0  0  0  0  0  0  0  0
   -2.1186    0.7218    0.5630 C   0  0  0  0  0  0  0  0  0  0  0  0
   -1.3914    0.0234    1.5387 C   0  0  0  0  0  0  0  0  0  0  0  0
   -1.9739   -0.4868    2.7585 C   0  0  0  0  0  0  0  0  0  0  0  0
   -3.0655   -0.4633    2.8743 H   0  0  0  0  0  0  0  0  0  0  0  0
   -1.1712   -0.9521    3.7819 C   0  0  0  0  0  0  0  0  0  0  0  0
   -1.6278   -1.3135    4.7167 H   0  0  0  0  0  0  0  0  0  0  0  0
    0.2404   -0.9324    3.6416 C   0  0  0  0  0  0  0  0  0  0  0  0
    0.9100   -1.2242    4.4619 H   0  0  0  0  0  0  0  0  0  0  0  0
    0.7648   -0.5496    2.4033 C   0  0  0  0  0  0  0  0  0  0  0  0
    2.7530   -1.7860    1.3691 C   0  0  0  0  0  0  0  0  0  0  0  0
    2.4361   -2.7090    1.8948 H   0  0  0  0  0  0  0  0  0  0  0  0
    3.8612   -1.7944    1.3280 H   0  0  0  0  0  0  0  0  0  0  0  0
    2.2729   -0.5618    2.1973 C   0  0  1  0  0  0  0  0  0  0  0  0
    2.7162   -0.6813    3.2052 H   0  0  0  0  0  0  0  0  0  0  0  0
    2.8060    0.7594    1.6624 C   0  0  1  0  0  3  0  0  0  0  0  0
    3.8150    1.4399    2.3693 C   0  0  0  0  0  0  0  0  0  0  0  0
    4.1739    1.0189    3.3201 H   0  0  0  0  0  0  0  0  0  0  0  0
    4.3563    2.6272    1.8641 C   0  0  0  0  0  0  0  0  0  0  0  0
    5.1484    3.1607    2.4100 H   0  0  0  0  0  0  0  0  0  0  0  0
    3.8597    3.1170    0.6464 C   0  0  0  0  0  0  0  0  0  0  0  0
    4.2421    4.0453    0.1987 H   0  0  0  0  0  0  0  0  0  0  0  0
    2.8449    2.4077    0.0033 C   0  0  0  0  0  0  0  0  0  0  0  0
    2.4074    2.7598   -0.9424 H   0  0  0  0  0  0  0  0  0  0  0  0
   -3.5995    0.9577    0.6979 C   0  0  0  0  0  0  0  0  0  0  0  0
   -3.9440    1.7520    0.0040 H   0  0  0  0  0  0  0  0  0  0  0  0
   -3.8736    1.3519    1.7070 H   0  0  0  0  0  0  0  0  0  0  0  0
   -4.5165   -0.2342    0.4439 C   0  0  0  0  0  0  0  0  0  0  0  0
   -4.0200   -1.5268    0.1799 C   0  0  0  0  0  0  0  0  0  0  0  0
   -2.9329   -1.6875    0.1531 H   0  0  0  0  0  0  0  0  0  0  0  0
   -4.9273   -2.5700   -0.0497 C   0  0  0  0  0  0  0  0  0  0  0  0
   -4.5629   -3.5884   -0.2572 H   0  0  0  0  0  0  0  0  0  0  0  0
   -6.3012   -2.2945   -0.0097 C   0  0  0  0  0  0  0  0  0  0  0  0
   -7.0518   -3.0796   -0.1857 H   0  0  0  0  0  0  0  0  0  0  0  0
   -6.6976   -0.9749    0.2662 C   0  0  0  0  0  0  0  0  0  0  0  0
   -7.7725   -0.7178    0.3068 H   0  0  0  0  0  0  0  0  0  0  0  0
   -2.0719    1.6314   -2.2660 C   0  0  0  0  0  0  0  0  0  0  0  0
   -3.0187    2.1390   -1.9758 H   0  0  0  0  0  0  0  0  0  0  0  0
   -1.3577    2.4899   -3.3178 C   0  0  0  0  0  0  0  0  0  0  0  0
   -0.4053    2.0233   -3.6368 H   0  0  0  0  0  0  0  0  0  0  0  0
   -1.1312    3.5120   -2.9551 H   0  0  0  0  0  0  0  0  0  0  0  0
   -1.9964    2.5935   -4.2200 H   0  0  0  0  0  0  0  0  0  0  0  0
   -2.4247    0.2450   -2.8100 C   0  0  0  0  0  0  0  0  0  0  0  0
   -2.9250   -0.3801   -2.0457 H   0  0  0  0  0  0  0  0  0  0  0  0
   -1.5145   -0.2924   -3.1420 H   0  0  0  0  0  0  0  0  0  0  0  0
   -3.1079    0.3417   -3.6796 H   0  0  0  0  0  0  0  0  0  0  0  0
   -0.9240    3.3494   -0.1462 C   0  0  0  0  0  0  0  0  0  0  0  0
   -0.1369    3.7531   -0.8232 H   0  0  0  0  0  0  0  0  0  0  0  0
   -2.1934    4.1963   -0.2883 C   0  0  0  0  0  0  0  0  0  0  0  0
   -3.0077    3.8027    0.3533 H   0  0  0  0  0  0  0  0  0  0  0  0
   -2.5702    4.2444   -1.3286 H   0  0  0  0  0  0  0  0  0  0  0  0
   -1.9971    5.2397    0.0393 H   0  0  0  0  0  0  0  0  0  0  0  0
   -0.4031    3.3876    1.2950 C   0  0  0  0  0  0  0  0  0  0  0  0
    0.4953    2.7570    1.4294 H   0  0  0  0  0  0  0  0  0  0  0  0
   -1.1750    3.0073    1.9949 H   0  0  0  0  0  0  0  0  0  0  0  0
   -0.1497    4.4267    1.5926 H   0  0  0  0  0  0  0  0  0  0  0  0
    1.1359   -3.3940   -0.4950 C   0  0  0  0  0  0  0  0  0  0  0  0
    1.8458   -4.1812   -0.1554 H   0  0  0  0  0  0  0  0  0  0  0  0
   -0.0866   -3.3882    0.4299 C   0  0  0  0  0  0  0  0  0  0  0  0
   -0.7930   -2.5895    0.1284 H   0  0  0  0  0  0  0  0  0  0  0  0
    0.1747   -3.2110    1.4924 H   0  0  0  0  0  0  0  0  0  0  0  0
   -0.6100   -4.3647    0.3680 H   0  0  0  0  0  0  0  0  0  0  0  0
    0.7347   -3.6569   -1.9508 C   0  0  0  0  0  0  0  0  0  0  0  0
    1.6087   -3.7683   -2.6231 H   0  0  0  0  0  0  0  0  0  0  0  0
    0.1111   -2.8229   -2.3339 H   0  0  0  0  0  0  0  0  0  0  0  0
    0.1382   -4.5899   -2.0203 H   0  0  0  0  0  0  0  0  0  0  0  0
    3.5863   -2.0086   -1.4455 C   0  0  0  0  0  0  0  0  0  0  0  0
    3.1588   -2.0207   -2.4721 H   0  0  0  0  0  0  0  0  0  0  0  0
    4.5056   -0.7857   -1.3388 C   0  0  0  0  0  0  0  0  0  0  0  0
    4.9342   -0.6784   -0.3200 H   0  0  0  0  0  0  0  0  0  0  0  0
    3.9687    0.1504   -1.5808 H   0  0  0  0  0  0  0  0  0  0  0  0
    5.3565   -0.8865   -2.0434 H   0  0  0  0  0  0  0  0  0  0  0  0
    4.3391   -3.3194   -1.1970 C   0  0  0  0  0  0  0  0  0  0  0  0
    3.7078   -4.2125   -1.3717 H   0  0  0  0  0  0  0  0  0  0  0  0
    4.7293   -3.3766   -0.1592 H   0  0  0  0  0  0  0  0  0  0  0  0
    5.2133   -3.3941   -1.8773 H   0  0  0  0  0  0  0  0  0  0  0  0
  1 51  1  0  0  0  0
  1  6  1  0  0  0  0
  2 15  1  0  0  0  0
  3  7  1  0  0  0  0
  3 14  1  0  0  0  0
  4 20  1  0  0  0  0
  6 29  1  0  0  0  0
  6  7  2  0  0  0  0
  7  8  1  0  0  0  0
  8  9  1  0  0  0  0
  8 10  2  0  0  0  0
 10 11  1  0  0  0  0
 12 10  1  0  0  0  0
 12 13  1  0  0  0  0
 14 12  2  0  0  0  0
 15 16  1  0  0  0  0
 15 18  1  0  0  0  0
 17 15  1  0  0  0  0
 18 14  1  0  0  0  0
 18 19  1  1  0  0  0
 20 18  1  6  0  0  0
 20 21  1  0  0  0  0
 21 22  1  0  0  0  0
 23 21  2  0  0  0  0
 23 24  1  0  0  0  0
 25 23  1  0  0  0  0
 26 25  1  0  0  0  0
 27  4  1  0  0  0  0
 27 25  2  0  0  0  0
 28 27  1  0  0  0  0
 29 31  1  0  0  0  0
 30 29  1  0  0  0  0
 32  5  1  0  0  0  0
 32 29  1  0  0  0  0
 33 32  2  0  0  0  0
 34 33  1  0  0  0  0
 35 37  2  0  0  0  0
 35 33  1  0  0  0  0
 36 35  1  0  0  0  0
 37 39  1  0  0  0  0
 38 37  1  0  0  0  0
 39 40  1  0  0  0  0
 39  5  2  0  0  0  0
 41 42  1  0  0  0  0
 41  1  1  0  0  0  0
 43 45  1  0  0  0  0
 43 41  1  0  0  0  0
 44 43  1  0  0  0  0
 46 43  1  0  0  0  0
 47 41  1  0  0  0  0
 47 48  1  0  0  0  0
 49 47  1  0  0  0  0
 50 47  1  0  0  0  0
 51 57  1  0  0  0  0
 52 51  1  0  0  0  0
 53 51  1  0  0  0  0
 53 56  1  0  0  0  0
 53 54  1  0  0  0  0
 55 53  1  0  0  0  0
 57 58  1  0  0  0  0
 57 60  1  0  0  0  0
 57 59  1  0  0  0  0
 61  2  1  0  0  0  0
 61 62  1  0  0  0  0
 61 63  1  0  0  0  0
 63 65  1  0  0  0  0
 64 63  1  0  0  0  0
 66 63  1  0  0  0  0
 67 61  1  0  0  0  0
 68 67  1  0  0  0  0
 69 67  1  0  0  0  0
 70 67  1  0  0  0  0
 71 73  1  0  0  0  0
 71 77  1  0  0  0  0
 71  2  1  0  0  0  0
 72 71  1  0  0  0  0
 73 74  1  0  0  0  0
 75 73  1  0  0  0  0
 76 73  1  0  0  0  0
 77 79  1  0  0  0  0
 78 77  1  0  0  0  0
 80 77  1  0  0  0  0
M  END
