1,2,3,4
q = 0.0, confidence = 0.988

 80 81  0  0  1  0  0  0  0  0999 V2000
    2.0309    1.7203    0.2052 P   0  0  0  0  0  0  0  0  0  0  0  0
    1.8762   -1.9691    0.0442 P   0  0  0  0  0  0  0  0  0  0  0  0
   -0.7643    1.3054    0.2841 N   0  0  0  0  0  2  0  0  0  0  0  0
   -0.8634   -1.3085    0.1733 N   0  0  0  0  0  2  0  0  0  0  0  0
   -2.1090    0.7449    0.5416 C   0  0  2  0  0  0  0  0  0  0  0  0
   -2.1642    0.5783    1.6398 H   0  0  0  0  0  0  0  0  0  0  0  0
   -2.1430   -0.6469   -0.1473 C   0  0  2  0  0  0  0  0  0  0  0  0
   -2.0920   -0.4639   -1.2422 H   0  0  0  0  0  0  0  0  0  0  0  0
   -0.5638    2.5536    0.0227 C   0  0  0  0  0  3  0  0  0  0  0  0
   -1.4153    3.2605    0.0038 H   0  0  0  0  0  0  0  0  0  0  0  0
    0.8006    3.0094   -0.3640 C   0  0  0  0  0  0  0  0  0  0  0  0
    1.0266    4.0401   -0.0250 H   0  0  0  0  0  0  0  0  0  0  0  0
    0.8301    3.0052   -1.4772 H   0  0  0  0  0  0  0  0  0  0  0  0
   -0.7606   -2.5716    0.4245 C   0  0  0  0  0  3  0  0  0  0  0  0
   -1.6586   -3.2184    0.4138 H   0  0  0  0  0  0  0  0  0  0  0  0
    0.5819   -3.1257    0.7662 C   0  0  0  0  0  0  0  0  0  0  0  0
    0.6981   -4.1819    0.4526 H   0  0  0  0  0  0  0  0  0  0  0  0
    0.7011   -3.1088    1.8737 H   0  0  0  0  0  0  0  0  0  0  0  0
    3.4334    1.7516   -1.0351 C   0  0  0  0  0  0  0  0  0  0  0  0
    2.9732    1.1442   -1.8445 H   0  0  0  0  0  0  0  0  0  0  0  0
    3.7897    3.1218   -1.6238 C   0  0  0  0  0  0  0  0  0  0  0  0
    4.5123    2.9761   -2.4531 H   0  0  0  0  0  0  0  0  0  0  0  0
    4.2653    3.7982   -0.8897 H   0  0  0  0  0  0  0  0  0  0  0  0
    2.9110    3.6394   -2.0545 H   0  0  0  0  0  0  0  0  0  0  0  0
    4.6548    0.9944   -0.5023 C   0  0  0  0  0  0  0  0  0  0  0  0
    5.3871    0.8454   -1.3213 H   0  0  0  0  0  0  0  0  0  0  0  0
    4.3825   -0.0059   -0.1164 H   0  0  0  0  0  0  0  0  0  0  0  0
    5.1758    1.5410    0.3087 H   0  0  0  0  0  0  0  0  0  0  0  0
    2.6160    2.4264    1.8523 C   0  0  0  0  0  0  0  0  0  0  0  0
    3.1163    1.5648    2.3463 H   0  0  0  0  0  0  0  0  0  0  0  0
    1.4215    2.8533    2.7202 C   0  0  0  0  0  0  0  0  0  0  0  0
    1.7758    3.0786    3.7462 H   0  0  0  0  0  0  0  0  0  0  0  0
    0.6353    2.0831    2.8091 H   0  0  0  0  0  0  0  0  0  0  0  0
    0.9542    3.7803    2.3305 H   0  0  0  0  0  0  0  0  0  0  0  0
    3.6174    3.5825    1.7396 C   0  0  0  0  0  0  0  0  0  0  0  0
    3.8792    3.9383    2.7572 H   0  0  0  0  0  0  0  0  0  0  0  0
    3.1872    4.4484    1.1961 H   0  0  0  0  0  0  0  0  0  0  0  0
    4.5597    3.2949    1.2394 H   0  0  0  0  0  0  0  0  0  0  0  0
    2.2882   -2.8125   -1.5892 C   0  0  0  0  0  0  0  0  0  0  0  0
    2.8114   -3.7303   -1.2383 H   0  0  0  0  0  0  0  0  0  0  0  0
    1.0570   -3.2508   -2.3892 C   0  0  0  0  0  0  0  0  0  0  0  0
    1.3918   -3.7947   -3.2961 H   0  0  0  0  0  0  0  0  0  0  0  0
    0.4563   -2.3809   -2.7153 H   0  0  0  0  0  0  0  0  0  0  0  0
    0.4040   -3.9435   -1.8225 H   0  0  0  0  0  0  0  0  0  0  0  0
    3.2736   -1.9896   -2.4278 C   0  0  0  0  0  0  0  0  0  0  0  0
    3.6083   -2.5911   -3.2970 H   0  0  0  0  0  0  0  0  0  0  0  0
    4.1819   -1.7027   -1.8614 H   0  0  0  0  0  0  0  0  0  0  0  0
    2.7892   -1.0715   -2.8115 H   0  0  0  0  0  0  0  0  0  0  0  0
    3.4376   -2.3598    1.0314 C   0  0  0  0  0  0  0  0  0  0  0  0
    4.2395   -2.1014    0.3047 H   0  0  0  0  0  0  0  0  0  0  0  0
    3.5683   -3.8501    1.3778 C   0  0  0  0  0  0  0  0  0  0  0  0
    4.5769   -4.0452    1.7953 H   0  0  0  0  0  0  0  0  0  0  0  0
    3.4438   -4.5185    0.5035 H   0  0  0  0  0  0  0  0  0  0  0  0
    2.8345   -4.1524    2.1517 H   0  0  0  0  0  0  0  0  0  0  0  0
    3.6187   -1.4903    2.2763 C   0  0  0  0  0  0  0  0  0  0  0  0
    4.6166   -1.6781    2.7216 H   0  0  0  0  0  0  0  0  0  0  0  0
    2.8626   -1.7160    3.0530 H   0  0  0  0  0  0  0  0  0  0  0  0
    3.5523   -0.4113    2.0420 H   0  0  0  0  0  0  0  0  0  0  0  0
   -3.3895   -1.4330    0.1841 C   0  0  0  0  0  0  0  0  0  0  0  0
   -3.7145   -1.7496    1.5204 C   0  0  0  0  0  0  0  0  0  0  0  0
   -3.0453   -1.4440    2.3410 H   0  0  0  0  0  0  0  0  0  0  0  0
   -4.8847   -2.4617    1.8164 C   0  0  0  0  0  0  0  0  0  0  0  0
   -5.1298   -2.7032    2.8614 H   0  0  0  0  0  0  0  0  0  0  0  0
   -5.7460   -2.8614    0.7806 C   0  0  0  0  0  0  0  0  0  0  0  0
   -6.6668   -3.4165    1.0140 H   0  0  0  0  0  0  0  0  0  0  0  0
   -5.4304   -2.5504   -0.5504 C   0  0  0  0  0  0  0  0  0  0  0  0
   -6.1028   -2.8595   -1.3644 H   0  0  0  0  0  0  0  0  0  0  0  0
   -4.2563   -1.8409   -0.8463 C   0  0  0  0  0  0  0  0  0  0  0  0
   -4.0113   -1.5906   -1.8903 H   0  0  0  0  0  0  0  0  0  0  0  0
   -3.2681    1.6131    0.1083 C   0  0  0  0  0  0  0  0  0  0  0  0
   -3.4352    1.9515   -1.2521 C   0  0  0  0  0  0  0  0  0  0  0  0
   -2.6957    1.6149   -1.9974 H   0  0  0  0  0  0  0  0  0  0  0  0
   -4.5291    2.7281   -1.6563 C   0  0  0  0  0  0  0  0  0  0  0  0
   -4.6522    2.9886   -2.7182 H   0  0  0  0  0  0  0  0  0  0  0  0
   -5.4689    3.1698   -0.7092 C   0  0  0  0  0  0  0  0  0  0  0  0
   -6.3295    3.7760   -1.0291 H   0  0  0  0  0  0  0  0  0  0  0  0
   -5.3084    2.8366    0.6438 C   0  0  0  0  0  0  0  0  0  0  0  0
   -6.0425    3.1789    1.3883 H   0  0  0  0  0  0  0  0  0  0  0  0
   -4.2106    2.0622    1.0504 C   0  0  0  0  0  0  0  0  0  0  0  0
   -4.0894    1.7938    2.1116 H   0  0  0  0  0  0  0  0  0  0  0  0
  1 29  1  0  0  0  0
  2 16  1  0  0  0  0
  2 49  1  0  0  0  0
  3  5  1  0  0  0  0
  4 14  1  0  0  0  0
  5  6  1  1  0  0  0
  7  8  1  6  0  0  0
  7  4  1  0  0  0  0
  7 59  1  0  0  0  0
  7  5  1  0  0  0  0
  9  3  1  0  0  0  0
 10  9  1  0  0  0  0
 11 12  1  0  0  0  0
 11  9  1  0  0  0  0
 11  1  1  0  0  0  0
 13 11  1  0  0  0  0
 14 16  1  0  0  0  0
 15 14  1  0  0  0  0
 16 18  1  0  0  0  0
 17 16  1  0  0  0  0
 19 25  1  0  0  0  0
 19  1  1  0  0  0  0
 20 19  1  0  0  0  0
 21 19  1  0  0  0  0
 21 23  1  0  0  0  0
 22 21  1  0  0  0  0
 24 21  1  0  0  0  0
 25 27  1  0  0  0  0
 25 28  1  0  0  0  0
 26 25  1  0  0  0  0
 29 30  1  0  0  0  0
 29 31  1  0  0  0  0
 31 33  1  0  0  0  0
 31 32  1  0  0  0  0
 34 31  1  0  0  0  0
 35 29  1  0  0  0  0
 35 36  1  0  0  0  0
 37 35  1  0  0  0  0
 38 35  1  0  0  0  0
 39 40  1  0  0  0  0
 39  2  1  0  0  0  0
 41 44  1  0  0  0  0
 41 39  1  0  0  0  0
 42 41  1  0  0  0  0
 43 41  1  0  0  0  0
 45 47  1  0  0  0  0
 45 39  1  0  0  0  0
 46 45  1  0  0  0  0
 48 45  1  0  0  0  0
 49 51  1  0  0  0  0
 49 55  1  0  0  0  0
 50 49  1  0  0  0  0
 51 52  1  0  0  0  0
 51 54  1  0  0  0  0
 53 51  1  0  0  0  0
 55 56  1  0  0  0  0
 55 57  1  0  0  0  0
 58 55  1  0  0  0  0
 59 60  1  0  0  0  0
 60 62  2  0  0  0  0
 60 61  1  0  0  0  0
 62 63  1  0  0  0  0
 64 65  1  0  0  0  0
 64 62  1  0  0  0  0
 66 64  2  0  0  0  0
 67 66  1  0  0  0  0
 68 66  1  0  0  0  0
 68 59  2  0  0  0  0
 69 68  1  0  0  0  0
 70  5  1  0  0  0  0
 70 79  1  0  0  0  0
 71 70  2  0  0  0  0
 72 71  1  0  0  0  0
 73 71  1  0  0  0  0
 73 75  2  0  0  0  0
 74 73  1  0  0  0  0
 75 77  1  0  0  0  0
 76 75  1  0  0  0  0
 77 79  2  0  0  0  0
 77 78  1  0  0  0  0
 79 80  1  0  0  0  0
M  END
