1,2,3,4,26
 OpenBabel05122313063D

 60 59  0  0  0  0  0  0  0  0999 V2000
    0.6117   -2.1576   -0.2133 N   0  0  0  0  0  2  0  0  0  0  0  0
   -1.8988   -0.0916    0.9676 N   0  0  0  0  0  2  0  0  0  0  0  0
    1.7326    0.7488    0.8774 N   0  0  0  0  0  2  0  0  0  0  0  0
    0.3169   -1.1975    2.3074 N   0  0  0  0  0  0  0  0  0  0  0  0
    0.3859   -2.4014   -1.9391 Si  0  0  0  0  0  0  0  0  0  0  0  0
   -3.4418    0.0766    0.0927 Si  0  0  0  0  0  0  0  0  0  0  0  0
    3.2504    1.0499    0.0358 Si  0  0  0  0  0  0  0  0  0  0  0  0
    1.0508   -3.0353    0.8363 C   0  0  0  0  0  0  0  0  0  0  0  0
    2.1561   -2.9622    1.0080 H   0  0  0  0  0  0  0  0  0  0  0  0
    0.8574   -4.1152    0.6245 H   0  0  0  0  0  0  0  0  0  0  0  0
   -2.1045   -0.7369    2.2667 C   0  0  0  0  0  0  0  0  0  0  0  0
   -2.4523   -1.7967    2.1611 H   0  0  0  0  0  0  0  0  0  0  0  0
   -2.8948   -0.2345    2.8732 H   0  0  0  0  0  0  0  0  0  0  0  0
    1.8398    0.7257    2.3338 C   0  0  0  0  0  0  0  0  0  0  0  0
    1.1063    1.4222    2.8117 H   0  0  0  0  0  0  0  0  0  0  0  0
    2.8330    1.0686    2.7125 H   0  0  0  0  0  0  0  0  0  0  0  0
    0.3081   -2.6637    2.1254 C   0  0  0  0  0  0  0  0  0  0  0  0
   -0.7488   -2.9792    2.0192 H   0  0  0  0  0  0  0  0  0  0  0  0
    0.7287   -3.1765    3.0241 H   0  0  0  0  0  0  0  0  0  0  0  0
   -0.8274   -0.7090    3.0943 C   0  0  0  0  0  0  0  0  0  0  0  0
   -0.6139    0.3434    3.3734 H   0  0  0  0  0  0  0  0  0  0  0  0
   -0.9441   -1.2870    4.0438 H   0  0  0  0  0  0  0  0  0  0  0  0
    1.5987   -0.6967    2.8430 C   0  0  0  0  0  0  0  0  0  0  0  0
    2.4085   -1.3442    2.4537 H   0  0  0  0  0  0  0  0  0  0  0  0
    1.6165   -0.7608    3.9589 H   0  0  0  0  0  0  0  0  0  0  0  0
   -0.2031   -0.6531   -2.2597 C   0  0  0  0  0  3  0  0  0  0  0  0
   -1.2543   -0.6241   -2.6218 H   0  0  0  0  0  0  0  0  0  0  0  0
    0.4275   -0.0858   -2.9765 H   0  0  0  0  0  0  0  0  0  0  0  0
   -0.8872   -3.7708   -2.2821 C   0  0  0  0  0  0  0  0  0  0  0  0
   -1.0447   -3.9135   -3.3717 H   0  0  0  0  0  0  0  0  0  0  0  0
   -1.8654   -3.5262   -1.8207 H   0  0  0  0  0  0  0  0  0  0  0  0
   -0.5503   -4.7425   -1.8621 H   0  0  0  0  0  0  0  0  0  0  0  0
    1.9935   -2.9211   -2.8150 C   0  0  0  0  0  0  0  0  0  0  0  0
    1.8357   -3.0317   -3.9085 H   0  0  0  0  0  0  0  0  0  0  0  0
    2.3486   -3.8989   -2.4256 H   0  0  0  0  0  0  0  0  0  0  0  0
    2.8085   -2.1853   -2.6614 H   0  0  0  0  0  0  0  0  0  0  0  0
   -3.3605    1.2589   -1.3807 C   0  0  0  0  0  0  0  0  0  0  0  0
   -3.2164    2.3048   -1.0478 H   0  0  0  0  0  0  0  0  0  0  0  0
   -4.3308    1.2030   -1.9172 H   0  0  0  0  0  0  0  0  0  0  0  0
   -2.5568    0.9989   -2.0948 H   0  0  0  0  0  0  0  0  0  0  0  0
   -4.7719    0.7730    1.2608 C   0  0  0  0  0  0  0  0  0  0  0  0
   -4.4232    1.7035    1.7559 H   0  0  0  0  0  0  0  0  0  0  0  0
   -5.0718    0.0559    2.0514 H   0  0  0  0  0  0  0  0  0  0  0  0
   -5.6831    1.0220    0.6781 H   0  0  0  0  0  0  0  0  0  0  0  0
   -4.0248   -1.6146   -0.5377 C   0  0  0  0  0  0  0  0  0  0  0  0
   -4.0387   -2.3689    0.2757 H   0  0  0  0  0  0  0  0  0  0  0  0
   -3.3386   -1.9854   -1.3264 H   0  0  0  0  0  0  0  0  0  0  0  0
   -5.0464   -1.5613   -0.9679 H   0  0  0  0  0  0  0  0  0  0  0  0
    3.0538    0.8493   -1.8330 C   0  0  0  0  0  0  0  0  0  0  0  0
    2.3396    1.5674   -2.2797 H   0  0  0  0  0  0  0  0  0  0  0  0
    2.7222   -0.1718   -2.1033 H   0  0  0  0  0  0  0  0  0  0  0  0
    4.0413    1.0186   -2.3105 H   0  0  0  0  0  0  0  0  0  0  0  0
    3.8612    2.8142    0.3919 C   0  0  0  0  0  0  0  0  0  0  0  0
    3.1526    3.5639   -0.0183 H   0  0  0  0  0  0  0  0  0  0  0  0
    4.8555    3.0004   -0.0652 H   0  0  0  0  0  0  0  0  0  0  0  0
    3.9534    3.0016    1.4818 H   0  0  0  0  0  0  0  0  0  0  0  0
    4.5823   -0.1803    0.6037 C   0  0  0  0  0  0  0  0  0  0  0  0
    4.2789   -1.2141    0.3370 H   0  0  0  0  0  0  0  0  0  0  0  0
    4.7450   -0.1448    1.7008 H   0  0  0  0  0  0  0  0  0  0  0  0
    5.5579    0.0277    0.1171 H   0  0  0  0  0  0  0  0  0  0  0  0
  1  8  1  0  0  0  0
  2 11  1  0  0  0  0
  3 14  1  0  0  0  0
  4 23  1  0  0  0  0
  4 20  1  0  0  0  0
  5  1  1  0  0  0  0
  6  2  1  0  0  0  0
  6 41  1  0  0  0  0
  7 53  1  0  0  0  0
  7 57  1  0  0  0  0
  7  3  1  0  0  0  0
  8  9  1  0  0  0  0
  8 17  1  0  0  0  0
 10  8  1  0  0  0  0
 11 13  1  0  0  0  0
 11 20  1  0  0  0  0
 12 11  1  0  0  0  0
 14 16  1  0  0  0  0
 14 15  1  0  0  0  0
 14 23  1  0  0  0  0
 17  4  1  0  0  0  0
 17 19  1  0  0  0  0
 18 17  1  0  0  0  0
 20 21  1  0  0  0  0
 20 22  1  0  0  0  0
 23 25  1  0  0  0  0
 24 23  1  0  0  0  0
 26  5  1  0  0  0  0
 27 26  1  0  0  0  0
 28 26  1  0  0  0  0
 29  5  1  0  0  0  0
 29 32  1  0  0  0  0
 29 31  1  0  0  0  0
 30 29  1  0  0  0  0
 33 36  1  0  0  0  0
 33 35  1  0  0  0  0
 33  5  1  0  0  0  0
 34 33  1  0  0  0  0
 37 38  1  0  0  0  0
 37  6  1  0  0  0  0
 39 37  1  0  0  0  0
 40 37  1  0  0  0  0
 41 42  1  0  0  0  0
 41 43  1  0  0  0  0
 44 41  1  0  0  0  0
 45  6  1  0  0  0  0
 45 46  1  0  0  0  0
 47 45  1  0  0  0  0
 48 45  1  0  0  0  0
 49  7  1  0  0  0  0
 50 49  1  0  0  0  0
 51 49  1  0  0  0  0
 52 49  1  0  0  0  0
 53 56  1  0  0  0  0
 54 53  1  0  0  0  0
 55 53  1  0  0  0  0
 57 59  1  0  0  0  0
 58 57  1  0  0  0  0
 60 57  1  0  0  0  0
M  END
