1,3,4,14
 OpenBabel05122313063D

 41 42  0  0  1  0  0  0  0  0999 V2000
    0.5690   -0.5528   -1.4735 O   0  0  0  0  0  1  0  0  0  0  0  0
    2.1490    0.0231    0.0428 N   0  0  0  0  0  0  0  0  0  0  0  0
   -2.5872    1.2754    0.6039 C   0  0  0  0  0  3  0  0  0  0  0  0
    1.1537    0.8924    0.7187 C   0  0  0  0  0  3  0  0  0  0  0  0
    1.7681   -0.6346   -1.0628 C   0  0  1  0  0  3  0  0  0  0  0  0
    3.9799   -0.7669   -2.3847 C   0  0  0  0  0  0  0  0  0  0  0  0
    4.6580    0.3801   -0.1712 C   0  0  0  0  0  0  0  0  0  0  0  0
    5.0742   -0.5138   -1.3432 C   0  0  0  0  0  0  0  0  0  0  0  0
    2.7337   -1.4885   -1.8437 C   0  0  0  0  0  0  0  0  0  0  0  0
   -0.9943    2.9289    1.9014 C   0  0  0  0  0  0  0  0  0  0  0  0
    3.4739   -0.1519    0.6470 C   0  0  0  0  0  0  0  0  0  0  0  0
   -0.5938    3.8453    0.7560 C   0  0  0  0  0  0  0  0  0  0  0  0
    0.4170    3.1966   -0.1912 C   0  0  2  0  0  0  0  0  0  0  0  0
   -0.1669    2.1905   -1.1671 C   0  0  0  0  0  3  0  0  0  0  0  0
    1.5386    2.4023    0.5235 C   0  0  0  0  0  0  0  0  0  0  0  0
   -1.5225    1.5639    1.5214 C   0  0  0  0  0  3  0  0  0  0  0  0
   -2.6111    1.5443   -0.8091 C   0  0  0  0  0  3  0  0  0  0  0  0
   -1.5014    1.9062   -1.6265 C   0  0  0  0  0  3  0  0  0  0  0  0
   -3.3953    0.6024    0.9434 H   0  0  0  0  0  0  0  0  0  0  0  0
    1.1665    0.6120    1.7909 H   0  0  0  0  0  0  0  0  0  0  0  0
    0.5727    1.9648   -1.9623 H   0  0  0  0  0  0  0  0  0  0  0  0
   -1.6083    0.9318    2.4259 H   0  0  0  0  0  0  0  0  0  0  0  0
   -3.5030    1.1813   -1.3496 H   0  0  0  0  0  0  0  0  0  0  0  0
   -1.6415    1.6946   -2.7022 H   0  0  0  0  0  0  0  0  0  0  0  0
    3.6728    0.1913   -2.8588 H   0  0  0  0  0  0  0  0  0  0  0  0
    4.4055   -1.3865   -3.2010 H   0  0  0  0  0  0  0  0  0  0  0  0
    5.5215    0.4912    0.5186 H   0  0  0  0  0  0  0  0  0  0  0  0
    4.4150    1.4028   -0.5318 H   0  0  0  0  0  0  0  0  0  0  0  0
    5.4106   -1.4952   -0.9384 H   0  0  0  0  0  0  0  0  0  0  0  0
    5.9609   -0.0697   -1.8427 H   0  0  0  0  0  0  0  0  0  0  0  0
    3.0200   -2.3412   -1.1897 H   0  0  0  0  0  0  0  0  0  0  0  0
    2.1393   -1.9165   -2.6717 H   0  0  0  0  0  0  0  0  0  0  0  0
   -0.1269    2.7831    2.5799 H   0  0  0  0  0  0  0  0  0  0  0  0
   -1.7686    3.4274    2.5280 H   0  0  0  0  0  0  0  0  0  0  0  0
    3.4300    0.3714    1.6211 H   0  0  0  0  0  0  0  0  0  0  0  0
    3.6230   -1.2319    0.8741 H   0  0  0  0  0  0  0  0  0  0  0  0
   -1.4876    4.1595    0.1760 H   0  0  0  0  0  0  0  0  0  0  0  0
   -0.1537    4.7743    1.1761 H   0  0  0  0  0  0  0  0  0  0  0  0
    1.8296    2.8874    1.4802 H   0  0  0  0  0  0  0  0  0  0  0  0
    2.4442    2.4362   -0.1172 H   0  0  0  0  0  0  0  0  0  0  0  0
    0.8800    4.0170   -0.7875 H   0  0  0  0  0  0  0  0  0  0  0  0
  2 11  1  0  0  0  0
  2  4  1  0  0  0  0
  3 19  1  0  0  0  0
  3 16  1  0  0  0  0
  4 20  1  0  0  0  0
  5  1  1  1  0  0  0
  5  2  1  0  0  0  0
  6  9  1  0  0  0  0
  6  8  1  0  0  0  0
  7 27  1  0  0  0  0
  7 11  1  0  0  0  0
  8 29  1  0  0  0  0
  8  7  1  0  0  0  0
  9 31  1  0  0  0  0
  9  5  1  0  0  0  0
 10 34  1  0  0  0  0
 10 33  1  0  0  0  0
 11 36  1  0  0  0  0
 11 35  1  0  0  0  0
 12 38  1  0  0  0  0
 12 10  1  0  0  0  0
 13 41  1  6  0  0  0
 13 15  1  0  0  0  0
 13 12  1  0  0  0  0
 14 13  1  0  0  0  0
 15  4  1  0  0  0  0
 15 39  1  0  0  0  0
 16 10  1  0  0  0  0
 16 22  1  0  0  0  0
 17  3  1  0  0  0  0
 18 14  1  0  0  0  0
 18 17  1  0  0  0  0
 21 14  1  0  0  0  0
 23 17  1  0  0  0  0
 24 18  1  0  0  0  0
 25  6  1  0  0  0  0
 26  6  1  0  0  0  0
 28  7  1  0  0  0  0
 30  8  1  0  0  0  0
 32  9  1  0  0  0  0
 37 12  1  0  0  0  0
 40 15  1  0  0  0  0
M  END
