1,2,5,9
 OpenBabel05122313063D

 30 31  0  0  1  0  0  0  0  0999 V2000
    1.4114    0.4077   -0.8373 O   0  5  0  0  0  0  0  0  0  0  0  0
    2.3829   -1.8488    0.2759 C   0  0  2  0  0  3  0  0  0  0  0  0
    2.1979   -2.7290   -0.8336 C   0  0  0  0  0  3  0  0  0  0  0  0
    2.9342   -2.6397   -1.6460 H   0  0  0  0  0  0  0  0  0  0  0  0
    1.0279   -3.5008   -1.1265 C   0  0  0  0  0  3  0  0  0  0  0  0
    1.0163   -3.9268   -2.1436 H   0  0  0  0  0  0  0  0  0  0  0  0
   -0.1982   -3.6398   -0.4198 C   0  0  0  0  0  3  0  0  0  0  0  0
   -0.9933   -4.1890   -0.9492 H   0  0  0  0  0  0  0  0  0  0  0  0
   -0.5772   -3.0157    0.8059 C   0  0  0  0  0  3  0  0  0  0  0  0
   -1.6156   -3.1674    1.1386 H   0  0  0  0  0  0  0  0  0  0  0  0
    0.2531   -2.2272    1.6616 C   0  0  0  0  0  0  0  0  0  0  0  0
   -0.2591   -1.8027    2.5407 H   0  0  0  0  0  0  0  0  0  0  0  0
    1.5697   -1.7536    1.4666 C   0  0  0  0  0  0  0  0  0  0  0  0
    1.9063   -0.9961    2.1906 H   0  0  0  0  0  0  0  0  0  0  0  0
    3.3235   -0.7001    0.0885 C   0  0  0  0  0  0  0  0  0  0  0  0
    2.6917    0.4489   -0.4685 C   0  0  0  0  0  0  0  0  0  0  0  0
    3.4500    1.6468   -0.6283 C   0  0  0  0  0  0  0  0  0  0  0  0
    4.7988    1.6353   -0.2463 C   0  0  0  0  0  0  0  0  0  0  0  0
    5.3833    2.5625   -0.3749 H   0  0  0  0  0  0  0  0  0  0  0  0
    5.4411    0.4958    0.2921 C   0  0  0  0  0  0  0  0  0  0  0  0
    4.6763   -0.6727    0.4602 C   0  0  0  0  0  0  0  0  0  0  0  0
    5.1377   -1.5758    0.8914 H   0  0  0  0  0  0  0  0  0  0  0  0
    2.7734    2.8626   -1.1983 C   0  0  0  0  0  0  0  0  0  0  0  0
    3.4652    3.7253   -1.2536 H   0  0  0  0  0  0  0  0  0  0  0  0
    1.8877    3.1538   -0.5949 H   0  0  0  0  0  0  0  0  0  0  0  0
    2.3778    2.6583   -2.2153 H   0  0  0  0  0  0  0  0  0  0  0  0
    6.9033    0.5409    0.6634 C   0  0  0  0  0  0  0  0  0  0  0  0
    7.5507    0.6599   -0.2323 H   0  0  0  0  0  0  0  0  0  0  0  0
    7.2205   -0.3864    1.1798 H   0  0  0  0  0  0  0  0  0  0  0  0
    7.1308    1.3955    1.3349 H   0  0  0  0  0  0  0  0  0  0  0  0
  1 16  1  0  0  0  0
  2 15  1  6  0  0  0
  2 13  1  0  0  0  0
  3  2  1  0  0  0  0
  4  3  1  0  0  0  0
  5  3  1  0  0  0  0
  5  7  1  0  0  0  0
  6  5  1  0  0  0  0
  7  9  1  0  0  0  0
  8  7  1  0  0  0  0
  9 10  1  0  0  0  0
  9 11  1  0  0  0  0
 11 12  1  0  0  0  0
 13 11  2  0  0  0  0
 13 14  1  0  0  0  0
 15 21  1  0  0  0  0
 16 15  2  0  0  0  0
 17 16  1  0  0  0  0
 17 18  2  0  0  0  0
 18 20  1  0  0  0  0
 19 18  1  0  0  0  0
 20 21  2  0  0  0  0
 20 27  1  0  0  0  0
 21 22  1  0  0  0  0
 23 17  1  0  0  0  0
 23 25  1  0  0  0  0
 24 23  1  0  0  0  0
 26 23  1  0  0  0  0
 27 29  1  0  0  0  0
 27 30  1  0  0  0  0
 28 27  1  0  0  0  0
M  CHG  1   1  -1
M  END
