1
q = 0.0, confidence = 0.992

 13 13  0  0  0  0  0  0  0  0999 V2000
    1.7603   -0.5463    0.3504 N   0  0  0  0  0  2  0  0  0  0  0  0
    3.3365    1.2806    3.1190 N   0  0  0  0  0  0  0  0  0  0  0  0
    2.6922    2.0623    3.2163 H   0  0  0  0  0  0  0  0  0  0  0  0
    4.2445    1.3810    3.5684 H   0  0  0  0  0  0  0  0  0  0  0  0
    2.7125   -1.4702    0.0679 C   0  0  0  0  0  3  0  0  0  0  0  0
    2.4947   -2.1783   -0.7420 H   0  0  0  0  0  0  0  0  0  0  0  0
    3.9175   -1.5131    0.7791 C   0  0  0  0  0  0  0  0  0  0  0  0
    4.6673   -2.2743    0.5216 H   0  0  0  0  0  0  0  0  0  0  0  0
    4.1601   -0.5969    1.8016 C   0  0  0  0  0  0  0  0  0  0  0  0
    5.1045   -0.6231    2.3664 H   0  0  0  0  0  0  0  0  0  0  0  0
    3.1735    0.3744    2.1096 C   0  0  0  0  0  0  0  0  0  0  0  0
    1.9837    0.3468    1.3382 C   0  0  0  0  0  0  0  0  0  0  0  0
    1.1825    1.0752    1.5313 H   0  0  0  0  0  0  0  0  0  0  0  0
  1 12  1  0  0  0  0
  2  3  1  0  0  0  0
  2  4  1  0  0  0  0
  5  1  1  0  0  0  0
  5  7  1  0  0  0  0
  6  5  1  0  0  0  0
  7  9  2  0  0  0  0
  8  7  1  0  0  0  0
  9 11  1  0  0  0  0
  9 10  1  0  0  0  0
 11  2  1  0  0  0  0
 12 13  1  0  0  0  0
 12 11  2  0  0  0  0
M  END
