1
q = 0.0, confidence = 0.996

 29 29  0  0  0  0  0  0  0  0999 V2000
   -1.6788   -0.5222   -1.1757 N   0  0  0  0  0  0  0  0  0  0  0  0
   -1.4674   -1.5559   -1.2515 H   0  0  0  0  0  0  0  0  0  0  0  0
   -2.9748   -0.3695   -0.4613 C   0  0  0  0  0  0  0  0  0  0  0  0
   -3.7723   -0.7637   -1.1337 H   0  0  0  0  0  0  0  0  0  0  0  0
   -3.3181    1.0882   -0.1311 C   0  0  0  0  0  0  0  0  0  0  0  0
   -3.3221    1.7054   -1.0529 H   0  0  0  0  0  0  0  0  0  0  0  0
   -2.5093    1.4978    0.5099 H   0  0  0  0  0  0  0  0  0  0  0  0
   -4.6694    1.1897    0.5872 C   0  0  0  0  0  0  0  0  0  0  0  0
   -4.8853    2.2496    0.8362 H   0  0  0  0  0  0  0  0  0  0  0  0
   -5.4805    0.8613   -0.1020 H   0  0  0  0  0  0  0  0  0  0  0  0
   -4.7015    0.3208    1.8505 C   0  0  0  0  0  0  0  0  0  0  0  0
   -3.9626    0.7172    2.5828 H   0  0  0  0  0  0  0  0  0  0  0  0
   -5.6953    0.3825    2.3413 H   0  0  0  0  0  0  0  0  0  0  0  0
   -4.3512   -1.1360    1.5234 C   0  0  0  0  0  0  0  0  0  0  0  0
   -5.1493   -1.5679    0.8779 H   0  0  0  0  0  0  0  0  0  0  0  0
   -4.3331   -1.7518    2.4466 H   0  0  0  0  0  0  0  0  0  0  0  0
   -3.0020   -1.2410    0.8030 C   0  0  0  0  0  0  0  0  0  0  0  0
   -2.7778   -2.2928    0.5320 H   0  0  0  0  0  0  0  0  0  0  0  0
   -2.1859   -0.9067    1.4802 H   0  0  0  0  0  0  0  0  0  0  0  0
   -1.6043    0.0668   -2.5478 C   0  0  0  0  0  0  0  0  0  0  0  0
   -1.5600    1.1671   -2.4185 H   0  0  0  0  0  0  0  0  0  0  0  0
   -2.8141   -0.2982   -3.4177 C   0  0  0  0  0  0  0  0  0  0  0  0
   -3.7600    0.1419   -3.0465 H   0  0  0  0  0  0  0  0  0  0  0  0
   -2.9426   -1.3989   -3.4852 H   0  0  0  0  0  0  0  0  0  0  0  0
   -2.6558    0.0852   -4.4451 H   0  0  0  0  0  0  0  0  0  0  0  0
   -0.3035   -0.3949   -3.2095 C   0  0  0  0  0  0  0  0  0  0  0  0
    0.5711   -0.1241   -2.5841 H   0  0  0  0  0  0  0  0  0  0  0  0
   -0.1855    0.0875   -4.1996 H   0  0  0  0  0  0  0  0  0  0  0  0
   -0.2948   -1.4951   -3.3494 H   0  0  0  0  0  0  0  0  0  0  0  0
  1  3  1  0  0  0  0
  2  1  1  0  0  0  0
  3  5  1  0  0  0  0
  3 17  1  0  0  0  0
  4  3  1  0  0  0  0
  5  7  1  0  0  0  0
  5  8  1  0  0  0  0
  6  5  1  0  0  0  0
  8  9  1  0  0  0  0
  8 11  1  0  0  0  0
 10  8  1  0  0  0  0
 11 13  1  0  0  0  0
 11 12  1  0  0  0  0
 14 11  1  0  0  0  0
 14 16  1  0  0  0  0
 15 14  1  0  0  0  0
 17 19  1  0  0  0  0
 17 14  1  0  0  0  0
 18 17  1  0  0  0  0
 20 21  1  0  0  0  0
 20  1  1  0  0  0  0
 22 23  1  0  0  0  0
 22 20  1  0  0  0  0
 24 22  1  0  0  0  0
 25 22  1  0  0  0  0
 26 27  1  0  0  0  0
 26 20  1  0  0  0  0
 28 26  1  0  0  0  0
 29 26  1  0  0  0  0
M  END
