1
q = 0.0, confidence = 1.0

 15 15  0  0  0  0  0  0  0  0999 V2000
    1.0146   -0.7480   -0.4696 N   0  0  0  0  0  2  0  0  0  0  0  0
    1.1311   -1.8142   -1.2870 C   0  0  0  0  0  3  0  0  0  0  0  0
    2.3806   -2.3775   -1.5889 C   0  0  0  0  0  0  0  0  0  0  0  0
    3.5324   -1.8271   -1.0238 C   0  0  0  0  0  0  0  0  0  0  0  0
    3.4122   -0.7118   -0.1625 C   0  0  0  0  0  0  0  0  0  0  0  0
    2.1184   -0.2070    0.0783 C   0  0  0  0  0  0  0  0  0  0  0  0
    4.5609   -0.0706    0.4765 C   0  0  0  0  0  0  0  0  0  0  0  0
    5.7591   -0.5122    0.2708 N   0  0  0  0  0  0  0  0  0  0  0  0
    6.7046    0.2185    0.9543 O   0  0  0  0  0  0  0  0  0  0  0  0
    7.5394   -0.2226    0.7071 H   0  0  0  0  0  0  0  0  0  0  0  0
    0.1802   -2.2040   -1.6845 H   0  0  0  0  0  0  0  0  0  0  0  0
    2.4388   -3.2435   -2.2641 H   0  0  0  0  0  0  0  0  0  0  0  0
    4.5317   -2.2375   -1.2303 H   0  0  0  0  0  0  0  0  0  0  0  0
    1.9385    0.6688    0.7248 H   0  0  0  0  0  0  0  0  0  0  0  0
    4.3838    0.8006    1.1394 H   0  0  0  0  0  0  0  0  0  0  0  0
  1  6  1  0  0  0  0
  2  1  1  0  0  0  0
  3  2  1  0  0  0  0
  3  4  2  0  0  0  0
  4  5  1  0  0  0  0
  5  6  2  0  0  0  0
  5  7  1  0  0  0  0
  6 14  1  0  0  0  0
  7 15  1  0  0  0  0
  8  7  2  0  0  0  0
  8  9  1  0  0  0  0
 10  9  1  0  0  0  0
 11  2  1  0  0  0  0
 12  3  1  0  0  0  0
 13  4  1  0  0  0  0
M  END
