3
q = -1.0

  3  2  0  0  0  0  0  0  0  0999 V2000
    3.1359    1.1240   -1.6160 O   0  0  0  0  0  0  0  0  0  0  0  0
    3.5441   -0.8927   -0.8883 O   0  0  0  0  0  0  0  0  0  0  0  0
    2.8516    0.1112   -0.9927 N   0  0  0  0  0  4  0  0  0  0  0  0
  1  3  2  0  0  0  0
  3  2  2  0  0  0  0
M  END
