8
q = 0.0, confidence = 0.968

 13 13  0  0  0  0  0  0  0  0999 V2000
   -4.9004   -0.6007    0.4110 N   0  0  0  0  0  0  0  0  0  0  0  0
   -5.8849   -0.7232    0.1693 H   0  0  0  0  0  0  0  0  0  0  0  0
   -4.0236   -0.5553   -0.6957 C   0  0  0  0  0  0  0  0  0  0  0  0
   -4.4240   -0.6680   -1.8397 O   0  0  0  0  0  0  0  0  0  0  0  0
   -2.6976   -0.3785   -0.3341 N   0  0  0  0  0  0  0  0  0  0  0  0
   -1.9891   -0.3964   -1.1060 H   0  0  0  0  0  0  0  0  0  0  0  0
   -2.1987   -0.2633    0.9431 C   0  0  0  0  0  0  0  0  0  0  0  0
   -0.9107   -0.0735    1.1440 N   0  0  0  0  0  2  0  0  0  0  0  0
   -0.6994   -0.0340    2.1461 H   0  0  0  0  0  0  0  0  0  0  0  0
   -3.1645   -0.3592    2.0209 C   0  0  0  0  0  0  0  0  0  0  0  0
   -2.8339   -0.2798    3.0632 H   0  0  0  0  0  0  0  0  0  0  0  0
   -4.4850   -0.5179    1.7122 C   0  0  0  0  0  3  0  0  0  0  0  0
   -5.2692   -0.5795    2.4808 H   0  0  0  0  0  0  0  0  0  0  0  0
  1 12  1  0  0  0  0
  2  1  1  0  0  0  0
  3  5  1  0  0  0  0
  3  1  1  0  0  0  0
  4  3  2  0  0  0  0
  5  7  1  0  0  0  0
  6  5  1  0  0  0  0
  7  8  1  0  0  0  0
  7 10  2  0  0  0  0
  8  9  1  0  0  0  0
 10 11  1  0  0  0  0
 12 10  1  0  0  0  0
 12 13  1  0  0  0  0
M  END
