3
q = 0.0, confidence = 0.994

 25 25  0  0  1  0  0  0  0  0999 V2000
    7.4491   -2.1952    0.2267 O   0  0  0  0  0  0  0  0  0  0  0  0
    7.8068   -0.3660   -0.9185 O   0  0  0  0  0  0  0  0  0  0  0  0
   -0.3051    1.5128    0.6032 N   0  0  0  0  0  2  0  0  0  0  0  0
   -0.7442    2.4349    0.7062 H   0  0  0  0  0  0  0  0  0  0  0  0
    1.6614    0.3188    0.4954 N   0  0  0  0  0  0  0  0  0  0  0  0
    1.0402   -0.5121    0.6435 H   0  0  0  0  0  0  0  0  0  0  0  0
    7.0866   -1.1306   -0.2751 N   0  0  0  0  0  0  0  0  0  0  0  0
    1.0097    1.4985    0.5686 C   0  0  2  0  0  3  0  0  0  0  0  0
    1.7206    2.8305    0.6395 C   0  0  0  0  0  0  0  0  0  0  0  0
    2.7849    2.6786    0.8995 H   0  0  0  0  0  0  0  0  0  0  0  0
    1.2677    3.3866    1.4871 H   0  0  0  0  0  0  0  0  0  0  0  0
    1.5592    3.6417   -0.6557 C   0  0  0  0  0  0  0  0  0  0  0  0
    2.0093    3.1217   -1.5249 H   0  0  0  0  0  0  0  0  0  0  0  0
    2.0412    4.6332   -0.5554 H   0  0  0  0  0  0  0  0  0  0  0  0
    0.4885    3.7948   -0.8973 H   0  0  0  0  0  0  0  0  0  0  0  0
    3.0103    0.0215    0.2795 C   0  0  0  0  0  0  0  0  0  0  0  0
    3.8793    0.8277   -0.4922 C   0  0  0  0  0  0  0  0  0  0  0  0
    3.5033    1.7242   -0.9996 H   0  0  0  0  0  0  0  0  0  0  0  0
    5.2140    0.4528   -0.6651 C   0  0  0  0  0  0  0  0  0  0  0  0
    5.9108    1.0560   -1.2618 H   0  0  0  0  0  0  0  0  0  0  0  0
    5.6736   -0.7376   -0.0879 C   0  0  0  0  0  0  0  0  0  0  0  0
    4.8206   -1.5735    0.6475 C   0  0  0  0  0  0  0  0  0  0  0  0
    5.2208   -2.5050    1.0689 H   0  0  0  0  0  0  0  0  0  0  0  0
    3.4922   -1.1923    0.8292 C   0  0  0  0  0  0  0  0  0  0  0  0
    2.8036   -1.8275    1.4059 H   0  0  0  0  0  0  0  0  0  0  0  0
  2  7  2  0  0  0  0
  3  4  1  0  0  0  0
  5  8  1  0  0  0  0
  5  6  1  0  0  0  0
  7 21  1  0  0  0  0
  7  1  2  0  0  0  0
  8  3  1  1  0  0  0
  8  9  1  0  0  0  0
  9 10  1  0  0  0  0
  9 11  1  0  0  0  0
 12 14  1  0  0  0  0
 12  9  1  0  0  0  0
 13 12  1  0  0  0  0
 15 12  1  0  0  0  0
 16  5  1  0  0  0  0
 16 24  1  0  0  0  0
 17 16  2  0  0  0  0
 18 17  1  0  0  0  0
 19 17  1  0  0  0  0
 19 21  2  0  0  0  0
 20 19  1  0  0  0  0
 21 22  1  0  0  0  0
 22 24  2  0  0  0  0
 22 23  1  0  0  0  0
 24 25  1  0  0  0  0
M  END
