2
q = 0.0, confidence = 0.988

 15 14  0  0  1  0  0  0  0  0999 V2000
    4.3359   -2.6038    0.7839 O   0  0  0  0  0  0  0  0  0  0  0  0
    2.7746   -0.9152    0.6660 N   0  0  0  0  0  2  0  0  0  0  0  0
    2.8955   -0.8004    1.6815 H   0  0  0  0  0  0  0  0  0  0  0  0
    3.4635   -1.8548    0.0951 C   0  0  1  0  0  3  0  0  0  0  0  0
    3.4242   -2.2044   -1.3576 C   0  0  0  0  0  0  0  0  0  0  0  0
    2.5167   -1.7612   -1.8049 H   0  0  0  0  0  0  0  0  0  0  0  0
    3.3428   -3.3096   -1.4142 H   0  0  0  0  0  0  0  0  0  0  0  0
    4.6843   -1.7205   -2.0920 C   0  0  0  0  0  0  0  0  0  0  0  0
    4.7238   -0.6142   -2.0840 H   0  0  0  0  0  0  0  0  0  0  0  0
    4.6507   -2.0523   -3.1477 H   0  0  0  0  0  0  0  0  0  0  0  0
    5.6066   -2.1251   -1.6303 H   0  0  0  0  0  0  0  0  0  0  0  0
    4.5229   -2.3546    2.1798 C   0  0  0  0  0  0  0  0  0  0  0  0
    4.9015   -1.3243    2.3529 H   0  0  0  0  0  0  0  0  0  0  0  0
    5.2744   -3.0868    2.5225 H   0  0  0  0  0  0  0  0  0  0  0  0
    3.5767   -2.5050    2.7429 H   0  0  0  0  0  0  0  0  0  0  0  0
  1 12  1  0  0  0  0
  2  3  1  0  0  0  0
  4  2  1  6  0  0  0
  4  1  1  0  0  0  0
  5  4  1  0  0  0  0
  6  5  1  0  0  0  0
  7  5  1  0  0  0  0
  8  9  1  0  0  0  0
  8 11  1  0  0  0  0
  8  5  1  0  0  0  0
 10  8  1  0  0  0  0
 12 13  1  0  0  0  0
 12 14  1  0  0  0  0
 12 15  1  0  0  0  0
M  END
