8
q = -1.0, confidence = 0.0

 17 16  0  0  0  0  0  0  0  0999 V2000
    2.3183   -0.3957   -0.6048 S   0  0  0  0  0  0  0  0  0  0  0  0
    3.2668    1.9325    0.3797 F   0  0  0  0  0  0  0  0  0  0  0  0
    4.7521    0.6870   -0.6176 F   0  0  0  0  0  0  0  0  0  0  0  0
    4.0473    0.1577    1.3812 F   0  0  0  0  0  0  0  0  0  0  0  0
    1.8494    0.4281   -1.7403 O   0  0  0  0  0  0  0  0  0  0  0  0
    3.0068   -1.6915   -0.8141 O   0  0  0  0  0  0  0  0  0  0  0  0
   -0.8944   -2.0601    1.2713 N   0  0  0  0  0  0  0  0  0  0  0  0
    1.1820   -0.4191    0.5840 N   0  0  0  0  0  2  0  0  0  0  0  0
    0.4880   -2.5859    1.4576 C   0  0  0  0  0  0  0  0  0  0  0  0
    1.4218   -1.4019    1.6506 C   0  0  0  0  0  0  0  0  0  0  0  0
    3.6807    0.6663    0.1843 C   0  0  0  0  0  0  0  0  0  0  0  0
   -1.3824   -1.9381    2.1688 H   0  0  0  0  0  0  0  0  0  0  0  0
   -1.4360   -2.7116    0.6817 H   0  0  0  0  0  0  0  0  0  0  0  0
    0.5290   -3.3090    2.2999 H   0  0  0  0  0  0  0  0  0  0  0  0
    0.7604   -3.1000    0.5159 H   0  0  0  0  0  0  0  0  0  0  0  0
    2.4713   -1.7567    1.6524 H   0  0  0  0  0  0  0  0  0  0  0  0
    1.2351   -0.9089    2.6327 H   0  0  0  0  0  0  0  0  0  0  0  0
  1 11  1  0  0  0  0
  1  8  1  0  0  0  0
  3 11  1  0  0  0  0
  5  1  2  0  0  0  0
  6  1  2  0  0  0  0
  7  9  1  0  0  0  0
  7 12  1  0  0  0  0
  8 10  1  0  0  0  0
  9 10  1  0  0  0  0
  9 14  1  0  0  0  0
 10 16  1  0  0  0  0
 10 17  1  0  0  0  0
 11  2  1  0  0  0  0
 11  4  1  0  0  0  0
 13  7  1  0  0  0  0
 15  9  1  0  0  0  0
M  END
