1
q = 0.0, confidence = 0.998

 19 19  0  0  0  0  0  0  0  0999 V2000
   -1.5800    1.1390   -0.5800 N   0  0  0  0  0  2  0  0  0  0  0  0
   -2.7989    0.8766   -0.0608 C   0  0  0  0  0  3  0  0  0  0  0  0
   -3.9591    1.5360   -0.5208 C   0  0  0  0  0  0  0  0  0  0  0  0
   -5.2189    1.2157   -0.0260 N   0  0  0  0  0  0  0  0  0  0  0  0
   -5.6691   -0.2314    0.7959 S   0  0  0  0  0  0  0  0  0  0  0  0
   -4.7687   -0.4045    1.9467 O   0  0  0  0  0  0  0  0  0  0  0  0
   -7.1260   -0.0893    0.9417 O   0  0  0  0  0  0  0  0  0  0  0  0
   -5.3087   -1.5358   -0.3914 C   0  0  0  0  0  0  0  0  0  0  0  0
   -4.2257   -1.5370   -0.6361 H   0  0  0  0  0  0  0  0  0  0  0  0
   -5.5766   -2.4784    0.1223 H   0  0  0  0  0  0  0  0  0  0  0  0
   -5.9406   -1.3818   -1.2843 H   0  0  0  0  0  0  0  0  0  0  0  0
   -6.0353    1.6985   -0.4100 H   0  0  0  0  0  0  0  0  0  0  0  0
   -3.8065    2.5322   -1.5108 C   0  0  0  0  0  0  0  0  0  0  0  0
   -2.5283    2.8155   -1.9977 C   0  0  0  0  0  0  0  0  0  0  0  0
   -1.4266    2.0972   -1.5248 C   0  0  0  0  0  0  0  0  0  0  0  0
   -0.4036    2.2714   -1.8820 H   0  0  0  0  0  0  0  0  0  0  0  0
   -2.3781    3.5892   -2.7634 H   0  0  0  0  0  0  0  0  0  0  0  0
   -4.6872    3.0726   -1.8903 H   0  0  0  0  0  0  0  0  0  0  0  0
   -2.8475    0.1210    0.7332 H   0  0  0  0  0  0  0  0  0  0  0  0
  1  2  1  0  0  0  0
  2 19  1  0  0  0  0
  3  2  1  0  0  0  0
  3  4  1  0  0  0  0
  4  5  1  0  0  0  0
  5  7  2  0  0  0  0
  5  6  2  0  0  0  0
  8 10  1  0  0  0  0
  8  5  1  0  0  0  0
  9  8  1  0  0  0  0
 11  8  1  0  0  0  0
 12  4  1  0  0  0  0
 13  3  2  0  0  0  0
 14 15  2  0  0  0  0
 14 13  1  0  0  0  0
 15  1  1  0  0  0  0
 16 15  1  0  0  0  0
 17 14  1  0  0  0  0
 18 13  1  0  0  0  0
M  END
