1
q = -2.0, confidence = 0.602

 22 21  0  0  0  0  0  0  0  0999 V2000
   -3.7634    0.4688   -0.0201 N   0  0  0  0  0  2  0  0  0  0  0  0
   -4.2868    0.9294   -1.2336 C   0  0  0  0  0  0  0  0  0  0  0  0
   -5.1332    0.3812   -1.9171 O   0  0  0  0  0  0  0  0  0  0  0  0
   -3.7831    2.1795   -1.5123 O   0  0  0  0  0  0  0  0  0  0  0  0
   -4.3929    2.8554   -2.6253 C   0  0  0  0  0  0  0  0  0  0  0  0
   -4.5672    2.1217   -3.4391 H   0  0  0  0  0  0  0  0  0  0  0  0
   -3.6338    3.5916   -2.9583 H   0  0  0  0  0  0  0  0  0  0  0  0
   -5.6949    3.5347   -2.2293 C   0  0  0  0  0  0  0  0  0  0  0  0
   -6.1082    4.1029   -3.0876 H   0  0  0  0  0  0  0  0  0  0  0  0
   -5.5375    4.2397   -1.3885 H   0  0  0  0  0  0  0  0  0  0  0  0
   -6.4430    2.7777   -1.9241 H   0  0  0  0  0  0  0  0  0  0  0  0
   -3.6792   -0.9002    0.0464 N   0  0  0  0  0  2  0  0  0  0  0  0
   -4.0943   -1.4128    1.2832 C   0  0  0  0  0  0  0  0  0  0  0  0
   -4.9639   -0.9660    2.0086 O   0  0  0  0  0  0  0  0  0  0  0  0
   -3.4452   -2.5977    1.5343 O   0  0  0  0  0  0  0  0  0  0  0  0
   -3.8930   -3.2991    2.7026 C   0  0  0  0  0  0  0  0  0  0  0  0
   -4.9731   -3.5389    2.5954 H   0  0  0  0  0  0  0  0  0  0  0  0
   -3.8058   -2.6328    3.5877 H   0  0  0  0  0  0  0  0  0  0  0  0
   -3.0486   -4.5500    2.8499 C   0  0  0  0  0  0  0  0  0  0  0  0
   -3.3632   -5.1197    3.7469 H   0  0  0  0  0  0  0  0  0  0  0  0
   -1.9753   -4.2951    2.9619 H   0  0  0  0  0  0  0  0  0  0  0  0
   -3.1564   -5.2112    1.9666 H   0  0  0  0  0  0  0  0  0  0  0  0
  1 12  1  0  0  0  0
  2  1  1  0  0  0  0
  3  2  2  0  0  0  0
  4  2  1  0  0  0  0
  5  8  1  0  0  0  0
  5  4  1  0  0  0  0
  6  5  1  0  0  0  0
  7  5  1  0  0  0  0
  8 11  1  0  0  0  0
  8 10  1  0  0  0  0
  9  8  1  0  0  0  0
 12 13  1  0  0  0  0
 13 15  1  0  0  0  0
 13 14  2  0  0  0  0
 15 16  1  0  0  0  0
 16 19  1  0  0  0  0
 16 18  1  0  0  0  0
 17 16  1  0  0  0  0
 19 21  1  0  0  0  0
 19 20  1  0  0  0  0
 22 19  1  0  0  0  0
M  END
