2
q = 0.0, confidence = 0.996

 25 27  0  0  0  0  0  0  0  0999 V2000
   -1.9110    0.7237    0.7087 N   0  0  0  0  0  0  0  0  0  0  0  0
    0.6370    0.8514   -0.2494 N   0  0  0  0  0  2  0  0  0  0  0  0
   -3.2196    0.6067    0.9584 C   0  0  0  0  0  0  0  0  0  0  0  0
   -3.5857   -0.4096    1.1820 H   0  0  0  0  0  0  0  0  0  0  0  0
    2.4414   -0.4413   -0.8474 N   0  0  0  0  0  0  0  0  0  0  0  0
   -1.3992    1.9368    0.4148 C   0  0  0  0  0  0  0  0  0  0  0  0
    1.9648    0.7870   -0.5120 C   0  0  0  0  0  0  0  0  0  0  0  0
    0.0606    1.9910    0.1143 C   0  0  0  0  0  0  0  0  0  0  0  0
    2.8000    1.9511   -0.4121 C   0  0  0  0  0  0  0  0  0  0  0  0
    4.1868    1.7875   -0.6750 C   0  0  0  0  0  3  0  0  0  0  0  0
    4.8621    2.6541   -0.6027 H   0  0  0  0  0  0  0  0  0  0  0  0
    0.8174    3.1979    0.2233 C   0  0  0  0  0  0  0  0  0  0  0  0
    0.3309    4.1278    0.5454 H   0  0  0  0  0  0  0  0  0  0  0  0
    4.6599    0.5281   -1.0074 C   0  0  0  0  0  0  0  0  0  0  0  0
    5.7260    0.3536   -1.2123 H   0  0  0  0  0  0  0  0  0  0  0  0
    3.7401   -0.5571   -1.0787 C   0  0  0  0  0  0  0  0  0  0  0  0
    4.1046   -1.5664   -1.3394 H   0  0  0  0  0  0  0  0  0  0  0  0
   -2.2106    3.0876    0.3680 C   0  0  0  0  0  0  0  0  0  0  0  0
   -1.7858    4.0618    0.0915 H   0  0  0  0  0  0  0  0  0  0  0  0
    2.1763    3.1717   -0.0342 C   0  0  0  0  0  0  0  0  0  0  0  0
    2.7853    4.0831    0.0680 H   0  0  0  0  0  0  0  0  0  0  0  0
   -3.5798    2.9631    0.6307 C   0  0  0  0  0  0  0  0  0  0  0  0
   -4.2356    3.8451    0.5830 H   0  0  0  0  0  0  0  0  0  0  0  0
   -4.1009    1.6993    0.9362 C   0  0  0  0  0  0  0  0  0  0  0  0
   -5.1705    1.5540    1.1451 H   0  0  0  0  0  0  0  0  0  0  0  0
  1  3  1  0  0  0  0
  2  8  1  0  0  0  0
  3  4  1  0  0  0  0
  5  7  2  0  0  0  0
  6  1  2  0  0  0  0
  7  9  1  0  0  0  0
  7  2  1  0  0  0  0
  8 12  2  0  0  0  0
  8  6  1  0  0  0  0
  9 20  2  0  0  0  0
 10 11  1  0  0  0  0
 10  9  1  0  0  0  0
 12 13  1  0  0  0  0
 14 10  1  0  0  0  0
 15 14  1  0  0  0  0
 16 14  2  0  0  0  0
 16  5  1  0  0  0  0
 17 16  1  0  0  0  0
 18  6  1  0  0  0  0
 18 22  2  0  0  0  0
 19 18  1  0  0  0  0
 20 21  1  0  0  0  0
 20 12  1  0  0  0  0
 22 24  1  0  0  0  0
 23 22  1  0  0  0  0
 24  3  2  0  0  0  0
 24 25  1  0  0  0  0
M  END
