3
q = 0.0, confidence = 0.998

 21 21  0  0  0  0  0  0  0  0999 V2000
   -1.1026    0.0739   -1.5929 O   0  0  0  0  0  0  0  0  0  0  0  0
   -2.9329   -1.2593   -1.4109 O   0  0  0  0  0  0  0  0  0  0  0  0
    0.4575   -1.9448   -0.3226 N   0  0  0  0  0  2  0  0  0  0  0  0
   -1.5989   -0.9991   -1.2957 C   0  0  0  0  0  0  0  0  0  0  0  0
   -0.8503   -2.1353   -0.7298 C   0  0  0  0  0  0  0  0  0  0  0  0
   -0.1254   -4.0183    0.1304 N   0  0  0  0  0  0  0  0  0  0  0  0
   -1.2417   -3.4490   -0.4524 C   0  0  0  0  0  0  0  0  0  0  0  0
    0.8710   -3.0838    0.2004 C   0  0  0  0  0  3  0  0  0  0  0  0
   -3.7326   -0.1613   -1.9035 C   0  0  0  0  0  0  0  0  0  0  0  0
   -2.5128   -4.2001   -0.6544 C   0  0  0  0  0  0  0  0  0  0  0  0
   -5.1755   -0.6194   -1.9509 C   0  0  0  0  0  0  0  0  0  0  0  0
   -5.3008   -1.4846   -2.6320 H   0  0  0  0  0  0  0  0  0  0  0  0
   -5.8207    0.2026   -2.3191 H   0  0  0  0  0  0  0  0  0  0  0  0
   -5.5360   -0.9147   -0.9450 H   0  0  0  0  0  0  0  0  0  0  0  0
    1.8467   -3.2293    0.6858 H   0  0  0  0  0  0  0  0  0  0  0  0
   -3.3526    0.1419   -2.9016 H   0  0  0  0  0  0  0  0  0  0  0  0
   -3.0187   -4.4051    0.3135 H   0  0  0  0  0  0  0  0  0  0  0  0
   -0.0596   -4.9812    0.4644 H   0  0  0  0  0  0  0  0  0  0  0  0
   -2.3340   -5.1755   -1.1526 H   0  0  0  0  0  0  0  0  0  0  0  0
   -3.2024   -3.6037   -1.2751 H   0  0  0  0  0  0  0  0  0  0  0  0
   -3.5906    0.7082   -1.2272 H   0  0  0  0  0  0  0  0  0  0  0  0
  1  4  2  0  0  0  0
  2  4  1  0  0  0  0
  3  8  1  0  0  0  0
  4  5  1  0  0  0  0
  5  7  2  0  0  0  0
  5  3  1  0  0  0  0
  6  8  1  0  0  0  0
  6 18  1  0  0  0  0
  7  6  1  0  0  0  0
  8 15  1  0  0  0  0
  9  2  1  0  0  0  0
  9 21  1  0  0  0  0
 10  7  1  0  0  0  0
 10 17  1  0  0  0  0
 11  9  1  0  0  0  0
 11 14  1  0  0  0  0
 12 11  1  0  0  0  0
 13 11  1  0  0  0  0
 16  9  1  0  0  0  0
 19 10  1  0  0  0  0
 20 10  1  0  0  0  0
M  END
