1
q = 0.0, confidence = 0.99

 15 15  0  0  0  0  0  0  0  0999 V2000
    1.3169   -0.0465    1.0489 N   0  0  0  0  0  2  0  0  0  0  0  0
    2.9287    1.4639    2.7779 C   0  0  0  0  0  0  0  0  0  0  0  0
    3.5650    2.0472    3.4624 H   0  0  0  0  0  0  0  0  0  0  0  0
    2.2371    0.8224    0.5671 C   0  0  0  0  0  3  0  0  0  0  0  0
    2.3381    0.9079   -0.5239 H   0  0  0  0  0  0  0  0  0  0  0  0
    4.2081    2.3780   -0.6425 O   0  0  0  0  0  0  0  0  0  0  0  0
    4.8319    1.6406   -0.7789 H   0  0  0  0  0  0  0  0  0  0  0  0
    3.0667    1.5998    1.3843 C   0  0  0  0  0  0  0  0  0  0  0  0
    1.9787    0.5679    3.2830 C   0  0  0  0  0  0  0  0  0  0  0  0
    1.8481    0.4253    4.3650 H   0  0  0  0  0  0  0  0  0  0  0  0
    1.1921   -0.1693    2.3917 C   0  0  0  0  0  0  0  0  0  0  0  0
    0.4473   -0.8923    2.7543 H   0  0  0  0  0  0  0  0  0  0  0  0
    4.0495    2.5668    0.7448 C   0  0  0  0  0  0  0  0  0  0  0  0
    3.6582    3.5992    0.8853 H   0  0  0  0  0  0  0  0  0  0  0  0
    5.0147    2.5311    1.3023 H   0  0  0  0  0  0  0  0  0  0  0  0
  1 11  1  0  0  0  0
  2  9  1  0  0  0  0
  2  3  1  0  0  0  0
  4  1  1  0  0  0  0
  4  8  1  0  0  0  0
  5  4  1  0  0  0  0
  6 13  1  0  0  0  0
  7  6  1  0  0  0  0
  8  2  2  0  0  0  0
  9 10  1  0  0  0  0
 11 12  1  0  0  0  0
 11  9  2  0  0  0  0
 13 14  1  0  0  0  0
 13 15  1  0  0  0  0
 13  8  1  0  0  0  0
M  END
