3
q = 0.0, confidence = 1.0

 25 27  0  0  0  0  0  0  0  0999 V2000
    7.9430    2.8875    1.8308 F   0  0  0  0  0  0  0  0  0  0  0  0
    3.6692    0.1774   -0.4463 N   0  0  0  0  0  0  0  0  0  0  0  0
    1.5230   -0.3074   -0.8846 N   0  0  0  0  0  2  0  0  0  0  0  0
    2.3553    0.5510   -0.3115 C   0  0  0  0  0  3  0  0  0  0  0  0
    2.0415    1.4437    0.2420 H   0  0  0  0  0  0  0  0  0  0  0  0
    3.6809   -1.0231   -1.1664 C   0  0  0  0  0  0  0  0  0  0  0  0
    4.7206   -1.8864   -1.5464 C   0  0  0  0  0  0  0  0  0  0  0  0
    5.7689   -1.6749   -1.2950 H   0  0  0  0  0  0  0  0  0  0  0  0
    4.3559   -3.0402   -2.2516 C   0  0  0  0  0  0  0  0  0  0  0  0
    5.1398   -3.7442   -2.5684 H   0  0  0  0  0  0  0  0  0  0  0  0
    3.0040   -3.3160   -2.5696 C   0  0  0  0  0  0  0  0  0  0  0  0
    2.7633   -4.2241   -3.1423 H   0  0  0  0  0  0  0  0  0  0  0  0
    1.9678   -2.4620   -2.1765 C   0  0  0  0  0  0  0  0  0  0  0  0
    0.9167   -2.6454   -2.4392 H   0  0  0  0  0  0  0  0  0  0  0  0
    2.3141   -1.3084   -1.4498 C   0  0  0  0  0  0  0  0  0  0  0  0
    4.7726    0.8633    0.1313 C   0  0  0  0  0  0  0  0  0  0  0  0
    5.9370    1.1014   -0.6228 C   0  0  0  0  0  0  0  0  0  0  0  0
    5.9880    0.7712   -1.6698 H   0  0  0  0  0  0  0  0  0  0  0  0
    7.0167    1.7801   -0.0445 C   0  0  0  0  0  0  0  0  0  0  0  0
    7.9372    1.9805   -0.6106 H   0  0  0  0  0  0  0  0  0  0  0  0
    6.9104    2.2308    1.2779 C   0  0  0  0  0  0  0  0  0  0  0  0
    5.7528    2.0124    2.0362 C   0  0  0  0  0  0  0  0  0  0  0  0
    5.7083    2.3763    3.0723 H   0  0  0  0  0  0  0  0  0  0  0  0
    4.6829    1.3156    1.4621 C   0  0  0  0  0  0  0  0  0  0  0  0
    3.7749    1.1090    2.0481 H   0  0  0  0  0  0  0  0  0  0  0  0
  2  4  1  0  0  0  0
  2 16  1  0  0  0  0
  3  4  1  0  0  0  0
  4  5  1  0  0  0  0
  6  2  1  0  0  0  0
  7  8  1  0  0  0  0
  7  6  2  0  0  0  0
  9  7  1  0  0  0  0
 10  9  1  0  0  0  0
 11  9  2  0  0  0  0
 11 13  1  0  0  0  0
 12 11  1  0  0  0  0
 13 15  2  0  0  0  0
 14 13  1  0  0  0  0
 15  6  1  0  0  0  0
 15  3  1  0  0  0  0
 16 24  1  0  0  0  0
 17 19  1  0  0  0  0
 17 16  2  0  0  0  0
 18 17  1  0  0  0  0
 19 21  2  0  0  0  0
 20 19  1  0  0  0  0
 21  1  1  0  0  0  0
 21 22  1  0  0  0  0
 22 23  1  0  0  0  0
 24 22  2  0  0  0  0
 24 25  1  0  0  0  0
M  END
