1
q = 0.0, confidence = 0.976

 12 12  0  0  0  0  0  0  0  0999 V2000
    0.9186   -1.3096   -0.6830 N   0  0  0  0  0  2  0  0  0  0  0  0
    2.6844   -0.9106    2.3794 N   0  0  0  0  0  0  0  0  0  0  0  0
    0.7150   -1.8188   -1.9339 C   0  0  0  0  0  3  0  0  0  0  0  0
   -0.1879   -1.4501   -2.4365 H   0  0  0  0  0  0  0  0  0  0  0  0
    1.5905   -2.7118   -2.5450 C   0  0  0  0  0  0  0  0  0  0  0  0
    1.3635   -3.0664   -3.5604 H   0  0  0  0  0  0  0  0  0  0  0  0
    2.7479   -3.1309   -1.8665 C   0  0  0  0  0  0  0  0  0  0  0  0
    3.4622   -3.8263   -2.3291 H   0  0  0  0  0  0  0  0  0  0  0  0
    2.9673   -2.6311   -0.5814 C   0  0  0  0  0  0  0  0  0  0  0  0
    3.8505   -2.9173    0.0061 H   0  0  0  0  0  0  0  0  0  0  0  0
    2.0444   -1.7322   -0.0096 C   0  0  0  0  0  0  0  0  0  0  0  0
    2.3260   -1.2417    1.3101 C   0  0  0  0  0  0  0  0  0  0  0  0
  1 11  1  0  0  0  0
  3  1  1  0  0  0  0
  4  3  1  0  0  0  0
  5  3  1  0  0  0  0
  5  7  2  0  0  0  0
  6  5  1  0  0  0  0
  7  9  1  0  0  0  0
  8  7  1  0  0  0  0
  9 11  2  0  0  0  0
  9 10  1  0  0  0  0
 11 12  1  0  0  0  0
 12  2  3  0  0  0  0
M  END
