1
q = 0.0, confidence = 0.9

 22 24  0  0  0  0  0  0  0  0999 V2000
   -2.1437   -0.0170   -0.0762 N   0  0  0  0  0  2  0  0  0  0  0  0
   -4.9724   -0.0701   -0.2751 N   0  0  0  0  0  0  0  0  0  0  0  0
   -4.2328   -1.1202   -0.6675 C   0  0  0  0  0  0  0  0  0  0  0  0
   -4.8854   -2.2828   -1.1928 C   0  0  0  0  0  3  0  0  0  0  0  0
   -5.9827   -2.2587   -1.2516 H   0  0  0  0  0  0  0  0  0  0  0  0
   -2.2632    2.2234    0.8468 C   0  0  0  0  0  0  0  0  0  0  0  0
   -1.1632    2.2519    0.9237 H   0  0  0  0  0  0  0  0  0  0  0  0
   -3.0368    3.2987    1.2453 C   0  0  0  0  0  0  0  0  0  0  0  0
   -2.5502    4.1997    1.6478 H   0  0  0  0  0  0  0  0  0  0  0  0
   -2.7787   -1.1101   -0.5728 C   0  0  0  0  0  0  0  0  0  0  0  0
   -2.7179   -3.3562   -1.5085 C   0  0  0  0  0  0  0  0  0  0  0  0
   -2.1461   -4.2340   -1.8443 H   0  0  0  0  0  0  0  0  0  0  0  0
   -4.1446   -3.3728   -1.6024 C   0  0  0  0  0  0  0  0  0  0  0  0
   -4.6477   -4.2632   -2.0068 H   0  0  0  0  0  0  0  0  0  0  0  0
   -2.0484   -2.2552   -1.0068 C   0  0  0  0  0  0  0  0  0  0  0  0
   -0.9477   -2.2374   -0.9367 H   0  0  0  0  0  0  0  0  0  0  0  0
   -2.8826    1.0514    0.3206 C   0  0  0  0  0  0  0  0  0  0  0  0
   -4.4621    3.2608    1.1409 C   0  0  0  0  0  0  0  0  0  0  0  0
   -5.0498    4.1319    1.4653 H   0  0  0  0  0  0  0  0  0  0  0  0
   -4.3343    1.0073    0.2113 C   0  0  0  0  0  0  0  0  0  0  0  0
   -5.0967    2.1437    0.6362 C   0  0  0  0  0  0  0  0  0  0  0  0
   -6.1897    2.0789    0.5396 H   0  0  0  0  0  0  0  0  0  0  0  0
  1 17  1  0  0  0  0
  2 20  1  0  0  0  0
  3 10  1  0  0  0  0
  3  2  2  0  0  0  0
  4  3  1  0  0  0  0
  5  4  1  0  0  0  0
  6  7  1  0  0  0  0
  6  8  1  0  0  0  0
  8  9  1  0  0  0  0
 10  1  1  0  0  0  0
 11 15  1  0  0  0  0
 12 11  1  0  0  0  0
 13 11  2  0  0  0  0
 13  4  1  0  0  0  0
 14 13  1  0  0  0  0
 15 16  1  0  0  0  0
 15 10  2  0  0  0  0
 17  6  2  0  0  0  0
 18  8  2  0  0  0  0
 18 19  1  0  0  0  0
 20 17  1  0  0  0  0
 20 21  2  0  0  0  0
 21 18  1  0  0  0  0
 22 21  1  0  0  0  0
M  END
