1
q = 0.0, confidence = 0.994

 20 20  0  0  1  0  0  0  0  0999 V2000
   -1.0776    0.6227   -0.3288 N   0  0  0  0  0  0  0  0  0  0  0  0
   -0.9762    1.5763   -0.7133 H   0  0  0  0  0  0  0  0  0  0  0  0
   -1.4838    0.0550   -1.0910 H   0  0  0  0  0  0  0  0  0  0  0  0
   -2.0817    0.6500    0.7980 C   0  0  2  0  0  0  0  0  0  0  0  0
   -2.1057   -0.3990    1.1586 H   0  0  0  0  0  0  0  0  0  0  0  0
   -3.4504    0.9879    0.2275 C   0  0  0  0  0  0  0  0  0  0  0  0
   -3.9482    2.3047    0.1748 C   0  0  0  0  0  0  0  0  0  0  0  0
   -3.3674    3.1317    0.6104 H   0  0  0  0  0  0  0  0  0  0  0  0
   -5.1904    2.5749   -0.4206 C   0  0  0  0  0  0  0  0  0  0  0  0
   -5.5688    3.6081   -0.4499 H   0  0  0  0  0  0  0  0  0  0  0  0
   -5.9505    1.5322   -0.9725 C   0  0  0  0  0  0  0  0  0  0  0  0
   -6.9254    1.7451   -1.4366 H   0  0  0  0  0  0  0  0  0  0  0  0
   -5.4638    0.2157   -0.9252 C   0  0  0  0  0  0  0  0  0  0  0  0
   -6.0570   -0.6084   -1.3499 H   0  0  0  0  0  0  0  0  0  0  0  0
   -4.2233   -0.0531   -0.3298 C   0  0  0  0  0  0  0  0  0  0  0  0
   -3.8389   -1.0861   -0.2889 H   0  0  0  0  0  0  0  0  0  0  0  0
   -1.5902    1.5483    1.9247 C   0  0  0  0  0  0  0  0  0  0  0  0
   -0.6079    1.1869    2.2870 H   0  0  0  0  0  0  0  0  0  0  0  0
   -2.3133    1.5344    2.7626 H   0  0  0  0  0  0  0  0  0  0  0  0
   -1.4625    2.6021    1.6027 H   0  0  0  0  0  0  0  0  0  0  0  0
  1  4  1  0  0  0  0
  2  1  1  0  0  0  0
  3  1  1  0  0  0  0
  4  5  1  1  0  0  0
  4 17  1  0  0  0  0
  6  4  1  0  0  0  0
  7  6  1  0  0  0  0
  7  8  1  0  0  0  0
  9  7  2  0  0  0  0
 10  9  1  0  0  0  0
 11 13  2  0  0  0  0
 11  9  1  0  0  0  0
 12 11  1  0  0  0  0
 13 15  1  0  0  0  0
 14 13  1  0  0  0  0
 15 16  1  0  0  0  0
 15  6  2  0  0  0  0
 17 18  1  0  0  0  0
 17 19  1  0  0  0  0
 20 17  1  0  0  0  0
M  END
