2
q = 0.0, confidence = 0.996

 12 12  0  0  1  0  0  0  0  0999 V2000
   -0.1624   -4.9598    0.3351 S   0  0  0  0  0  0  0  0  0  0  0  0
    0.0286   -2.4167   -0.2497 N   0  0  0  0  0  2  0  0  0  0  0  0
   -0.8183   -2.8567    1.9062 N   0  0  0  0  0  0  0  0  0  0  0  0
   -1.0023   -1.8686    2.1091 H   0  0  0  0  0  0  0  0  0  0  0  0
   -0.8882   -3.5285    2.6674 H   0  0  0  0  0  0  0  0  0  0  0  0
    0.3556   -3.0892   -1.5041 C   0  0  0  0  0  0  0  0  0  0  0  0
    1.1464   -2.5229   -2.0356 H   0  0  0  0  0  0  0  0  0  0  0  0
   -0.5454   -3.1119   -2.1576 H   0  0  0  0  0  0  0  0  0  0  0  0
    0.8321   -4.5020   -1.1463 C   0  0  0  0  0  0  0  0  0  0  0  0
    1.9045   -4.5241   -0.8672 H   0  0  0  0  0  0  0  0  0  0  0  0
    0.6428   -5.2396   -1.9479 H   0  0  0  0  0  0  0  0  0  0  0  0
   -0.3261   -3.2311    0.7147 C   0  0  1  0  0  3  0  0  0  0  0  0
  1 12  1  0  0  0  0
  2 12  1  0  0  0  0
  3  4  1  0  0  0  0
  3  5  1  0  0  0  0
  6  9  1  0  0  0  0
  6  2  1  0  0  0  0
  7  6  1  0  0  0  0
  8  6  1  0  0  0  0
  9 10  1  0  0  0  0
  9  1  1  0  0  0  0
 11  9  1  0  0  0  0
 12  3  1  6  0  0  0
M  END
