2
q = -1.0, confidence = 0.0

 11 11  0  0  0  0  0  0  0  0999 V2000
    1.5308    1.1775   -1.8399 S   0  0  0  0  0  0  0  0  0  0  0  0
    0.1710    1.5766    0.2637 N   0  0  0  0  0  2  0  0  0  0  0  0
    0.6405    2.2644   -0.8188 C   0  0  0  0  0  0  0  0  0  0  0  0
    0.3872    3.6427   -0.9760 C   0  0  0  0  0  0  0  0  0  0  0  0
    0.7670    4.1675   -1.8637 H   0  0  0  0  0  0  0  0  0  0  0  0
   -0.3364    4.2993    0.0209 C   0  0  0  0  0  0  0  0  0  0  0  0
   -0.7987    3.5811    1.1444 C   0  0  0  0  0  0  0  0  0  0  0  0
   -0.5277    2.2144    1.2262 C   0  0  0  0  0  0  0  0  0  0  0  0
   -0.5421    5.3767   -0.0681 H   0  0  0  0  0  0  0  0  0  0  0  0
   -1.3611    4.0760    1.9477 H   0  0  0  0  0  0  0  0  0  0  0  0
   -0.8646    1.6130    2.0824 H   0  0  0  0  0  0  0  0  0  0  0  0
  1  3  2  0  0  0  0
  2  8  1  0  0  0  0
  3  2  1  0  0  0  0
  4  3  1  0  0  0  0
  4  6  2  0  0  0  0
  5  4  1  0  0  0  0
  6  7  1  0  0  0  0
  7  8  2  0  0  0  0
  7 10  1  0  0  0  0
  8 11  1  0  0  0  0
  9  6  1  0  0  0  0
M  END
