2
q = -1.0

 25 25  0  0  0  0  0  0  0  0999 V2000
    2.1704   -0.7319   -0.0795 N   0  0  0  0  0  0  0  0  0  0  0  0
    2.2752    0.6012    0.1615 N   0  0  0  0  0  2  0  0  0  0  0  0
    4.3299   -0.2400    0.1174 N   0  0  0  0  0  0  0  0  0  0  0  0
    3.4259   -1.2243   -0.1069 C   0  0  0  0  0  0  0  0  0  0  0  0
    3.5927    0.8834    0.2649 C   0  0  0  0  0  0  0  0  0  0  0  0
    3.7800   -2.6627   -0.3660 C   0  0  0  0  0  0  0  0  0  0  0  0
    4.3595   -2.6599   -1.3175 H   0  0  0  0  0  0  0  0  0  0  0  0
    2.5392   -3.5375   -0.5616 C   0  0  0  0  0  0  0  0  0  0  0  0
    1.8656   -3.1245   -1.3377 H   0  0  0  0  0  0  0  0  0  0  0  0
    1.9592   -3.6100    0.3817 H   0  0  0  0  0  0  0  0  0  0  0  0
    2.8318   -4.5649   -0.8547 H   0  0  0  0  0  0  0  0  0  0  0  0
    4.1561    2.2738    0.3557 C   0  0  0  0  0  0  0  0  0  0  0  0
    5.0986    2.1874    0.9371 H   0  0  0  0  0  0  0  0  0  0  0  0
    4.7110   -3.1920    0.7375 C   0  0  0  0  0  0  0  0  0  0  0  0
    5.5868   -2.5264    0.8617 H   0  0  0  0  0  0  0  0  0  0  0  0
    5.0692   -4.2120    0.4924 H   0  0  0  0  0  0  0  0  0  0  0  0
    4.1771   -3.2398    1.7097 H   0  0  0  0  0  0  0  0  0  0  0  0
    3.2044    3.2511    1.0528 C   0  0  0  0  0  0  0  0  0  0  0  0
    3.6488    4.2656    1.0844 H   0  0  0  0  0  0  0  0  0  0  0  0
    2.9867    2.9399    2.0934 H   0  0  0  0  0  0  0  0  0  0  0  0
    2.2440    3.3146    0.5018 H   0  0  0  0  0  0  0  0  0  0  0  0
    4.5118    2.7539   -1.0668 C   0  0  0  0  0  0  0  0  0  0  0  0
    4.9949    3.7515   -1.0332 H   0  0  0  0  0  0  0  0  0  0  0  0
    3.5933    2.8307   -1.6843 H   0  0  0  0  0  0  0  0  0  0  0  0
    5.2042    2.0445   -1.5606 H   0  0  0  0  0  0  0  0  0  0  0  0
  1  2  1  0  0  0  0
  2  5  1  0  0  0  0
  3  5  2  0  0  0  0
  4  1  2  0  0  0  0
  4  3  1  0  0  0  0
  5 12  1  0  0  0  0
  6  4  1  0  0  0  0
  6 14  1  0  0  0  0
  7  6  1  0  0  0  0
  8  6  1  0  0  0  0
  8 10  1  0  0  0  0
  9  8  1  0  0  0  0
 11  8  1  0  0  0  0
 12 13  1  0  0  0  0
 12 18  1  0  0  0  0
 14 15  1  0  0  0  0
 14 17  1  0  0  0  0
 16 14  1  0  0  0  0
 18 19  1  0  0  0  0
 18 20  1  0  0  0  0
 21 18  1  0  0  0  0
 22 23  1  0  0  0  0
 22 12  1  0  0  0  0
 24 22  1  0  0  0  0
 25 22  1  0  0  0  0
M  END
