1
q = -1.0, confidence = 0.036

  9  8  0  0  0  0  0  0  0  0999 V2000
    3.2551   -2.1077   -1.2291 N   0  0  0  0  0  2  0  0  0  0  0  0
    2.6441   -2.6226   -2.4394 C   0  0  0  0  0  0  0  0  0  0  0  0
    3.1862   -2.2906   -3.3583 H   0  0  0  0  0  0  0  0  0  0  0  0
    1.5940   -2.2764   -2.5379 H   0  0  0  0  0  0  0  0  0  0  0  0
    2.6265   -3.7397   -2.4474 H   0  0  0  0  0  0  0  0  0  0  0  0
    4.6226   -2.5584   -1.0575 C   0  0  0  0  0  0  0  0  0  0  0  0
    4.6887   -3.6714   -0.9769 H   0  0  0  0  0  0  0  0  0  0  0  0
    5.0701   -2.1239   -0.1400 H   0  0  0  0  0  0  0  0  0  0  0  0
    5.2667   -2.2525   -1.9173 H   0  0  0  0  0  0  0  0  0  0  0  0
  1  6  1  0  0  0  0
  2  1  1  0  0  0  0
  3  2  1  0  0  0  0
  4  2  1  0  0  0  0
  5  2  1  0  0  0  0
  6  7  1  0  0  0  0
  6  8  1  0  0  0  0
  9  6  1  0  0  0  0
M  END
