4
q = -1.0

 15 16  0  0  0  0  0  0  0  0999 V2000
   -0.3782   -3.0737    0.0023 S   0  0  0  0  0  0  0  0  0  0  0  0
   -3.1448   -2.8819   -0.0012 N   0  0  0  0  0  0  0  0  0  0  0  0
   -3.2890   -3.8906   -0.0029 H   0  0  0  0  0  0  0  0  0  0  0  0
   -2.0322   -0.9375    0.0032 N   0  0  0  0  0  0  0  0  0  0  0  0
   -1.9027   -2.2843    0.0015 C   0  0  0  0  0  0  0  0  0  0  0  0
   -4.1166   -1.8903   -0.0014 C   0  0  0  0  0  3  0  0  0  0  0  0
   -3.3911   -0.6579    0.0014 C   0  0  0  0  0  0  0  0  0  0  0  0
   -4.0942    0.5599    0.0021 C   0  0  0  0  0  0  0  0  0  0  0  0
   -3.5603    1.5185    0.0044 H   0  0  0  0  0  0  0  0  0  0  0  0
   -5.5154   -1.9377   -0.0035 C   0  0  0  0  0  0  0  0  0  0  0  0
   -6.0588   -2.8940   -0.0057 H   0  0  0  0  0  0  0  0  0  0  0  0
   -5.4974    0.5150   -0.0001 C   0  0  0  0  0  0  0  0  0  0  0  0
   -6.0639    1.4585    0.0004 H   0  0  0  0  0  0  0  0  0  0  0  0
   -6.1986   -0.7095   -0.0029 C   0  0  0  0  0  0  0  0  0  0  0  0
   -7.2988   -0.7054   -0.0046 H   0  0  0  0  0  0  0  0  0  0  0  0
  2  5  1  0  0  0  0
  3  2  1  0  0  0  0
  5  1  2  0  0  0  0
  5  4  1  0  0  0  0
  6  2  1  0  0  0  0
  6  7  1  0  0  0  0
  7  8  1  0  0  0  0
  7  4  2  0  0  0  0
  8  9  1  0  0  0  0
 10 14  2  0  0  0  0
 10  6  1  0  0  0  0
 11 10  1  0  0  0  0
 12 13  1  0  0  0  0
 12  8  2  0  0  0  0
 14 12  1  0  0  0  0
 15 14  1  0  0  0  0
M  END
