2
q = 0.0, confidence = 0.986

 32 33  0  0  1  0  0  0  0  0999 V2000
    0.9318   -0.1710   -1.1743 S   0  0  0  0  0  0  0  0  0  0  0  0
   -1.5018    1.5169   -0.3421 N   0  0  0  0  0  2  0  0  0  0  0  0
    3.4778   -1.0055    0.6342 N   0  0  0  0  0  0  0  0  0  0  0  0
    2.8271    1.1931    0.1242 N   0  0  0  0  0  0  0  0  0  0  0  0
    3.1703    2.1449    0.2873 H   0  0  0  0  0  0  0  0  0  0  0  0
   -0.6044    2.4017    0.1440 C   0  0  2  0  0  3  0  0  0  0  0  0
    0.6941    1.9757    0.4739 N   0  0  0  0  0  0  0  0  0  0  0  0
    1.1657    2.5703    1.1609 H   0  0  0  0  0  0  0  0  0  0  0  0
    5.0946    0.4767   -0.4347 C   0  0  0  0  0  0  0  0  0  0  0  0
   -2.7291    1.9534   -0.7151 C   0  0  0  0  0  0  0  0  0  0  0  0
   -3.3690    1.1942   -1.1897 H   0  0  0  0  0  0  0  0  0  0  0  0
    6.0451   -0.5593   -0.3765 C   0  0  0  0  0  0  0  0  0  0  0  0
    7.0559   -0.3853   -0.7767 H   0  0  0  0  0  0  0  0  0  0  0  0
    3.8191    0.1695    0.0979 C   0  0  0  0  0  0  0  0  0  0  0  0
    5.4007    1.8212   -1.0362 C   0  0  0  0  0  0  0  0  0  0  0  0
    6.4052    1.8314   -1.4984 H   0  0  0  0  0  0  0  0  0  0  0  0
    5.3929    2.6318   -0.2734 H   0  0  0  0  0  0  0  0  0  0  0  0
    4.6632    2.0933   -1.8195 H   0  0  0  0  0  0  0  0  0  0  0  0
    1.4936    1.0356   -0.1372 C   0  0  0  0  0  0  0  0  0  0  0  0
    5.7019   -1.8036    0.1668 C   0  0  0  0  0  0  0  0  0  0  0  0
    6.4305   -2.6255    0.2108 H   0  0  0  0  0  0  0  0  0  0  0  0
   -0.9229    3.7684    0.3662 C   0  0  0  0  0  0  0  0  0  0  0  0
   -3.1282    3.2771   -0.5335 C   0  0  0  0  0  0  0  0  0  0  0  0
   -4.1372    3.5892   -0.8360 H   0  0  0  0  0  0  0  0  0  0  0  0
    4.3986   -1.9792    0.6558 C   0  0  0  0  0  0  0  0  0  0  0  0
    4.0848   -2.9416    1.0946 H   0  0  0  0  0  0  0  0  0  0  0  0
    0.1004    4.7290    0.9114 C   0  0  0  0  0  0  0  0  0  0  0  0
    0.4447    4.4462    1.9312 H   0  0  0  0  0  0  0  0  0  0  0  0
   -0.3212    5.7475    0.9926 H   0  0  0  0  0  0  0  0  0  0  0  0
    0.9947    4.7919    0.2561 H   0  0  0  0  0  0  0  0  0  0  0  0
   -2.2203    4.1833    0.0293 C   0  0  0  0  0  0  0  0  0  0  0  0
   -2.5059    5.2346    0.1862 H   0  0  0  0  0  0  0  0  0  0  0  0
  1 19  2  0  0  0  0
  2  6  1  0  0  0  0
  3 25  1  0  0  0  0
  4  5  1  0  0  0  0
  6 22  1  0  0  0  0
  6  7  1  1  0  0  0
  7  8  1  0  0  0  0
  9 12  2  0  0  0  0
  9 14  1  0  0  0  0
 10 23  2  0  0  0  0
 10  2  1  0  0  0  0
 11 10  1  0  0  0  0
 12 20  1  0  0  0  0
 13 12  1  0  0  0  0
 14  4  1  0  0  0  0
 14  3  2  0  0  0  0
 15  9  1  0  0  0  0
 15 17  1  0  0  0  0
 16 15  1  0  0  0  0
 18 15  1  0  0  0  0
 19  4  1  0  0  0  0
 19  7  1  0  0  0  0
 20 21  1  0  0  0  0
 20 25  2  0  0  0  0
 22 27  1  0  0  0  0
 23 31  1  0  0  0  0
 24 23  1  0  0  0  0
 25 26  1  0  0  0  0
 27 29  1  0  0  0  0
 27 28  1  0  0  0  0
 30 27  1  0  0  0  0
 31 32  1  0  0  0  0
 31 22  2  0  0  0  0
M  END
