1
q = 0.0, confidence = 0.944

 14 14  0  0  0  0  0  0  0  0999 V2000
   -0.6427   -1.6162   -2.2096 N   0  0  0  0  0  0  0  0  0  0  0  0
   -1.5993   -2.3710   -1.4394 C   0  0  0  0  0  0  0  0  0  0  0  0
   -2.9703   -2.0680   -1.5124 C   0  0  0  0  0  0  0  0  0  0  0  0
   -3.8770   -2.7475   -0.6860 C   0  0  0  0  0  0  0  0  0  0  0  0
   -3.4244   -3.7259    0.2136 C   0  0  0  0  0  0  0  0  0  0  0  0
   -2.0559   -4.0326    0.2742 C   0  0  0  0  0  0  0  0  0  0  0  0
   -1.1402   -3.3580   -0.5464 C   0  0  0  0  0  0  0  0  0  0  0  0
    0.1100   -2.2143   -2.5752 H   0  0  0  0  0  0  0  0  0  0  0  0
   -1.0870   -1.1519   -3.0124 H   0  0  0  0  0  0  0  0  0  0  0  0
   -3.3269   -1.3020   -2.2189 H   0  0  0  0  0  0  0  0  0  0  0  0
   -4.9492   -2.5104   -0.7512 H   0  0  0  0  0  0  0  0  0  0  0  0
   -4.1394   -4.2577    0.8577 H   0  0  0  0  0  0  0  0  0  0  0  0
   -1.6929   -4.8085    0.9644 H   0  0  0  0  0  0  0  0  0  0  0  0
   -0.0679   -3.6042   -0.5032 H   0  0  0  0  0  0  0  0  0  0  0  0
  1  2  1  0  0  0  0
  2  7  1  0  0  0  0
  3  2  2  0  0  0  0
  3  4  1  0  0  0  0
  4  5  2  0  0  0  0
  5  6  1  0  0  0  0
  5 12  1  0  0  0  0
  6 13  1  0  0  0  0
  7 14  1  0  0  0  0
  7  6  2  0  0  0  0
  8  1  1  0  0  0  0
  9  1  1  0  0  0  0
 10  3  1  0  0  0  0
 11  4  1  0  0  0  0
M  END
