1
q = -1.0

 16 16  0  0  0  0  0  0  0  0999 V2000
    0.1768   -1.4579   -1.3807 N   0  0  0  0  0  2  0  0  0  0  0  0
    0.5346   -1.2461   -2.7755 C   0  0  0  0  0  0  0  0  0  0  0  0
    0.8049   -0.1790   -2.9279 H   0  0  0  0  0  0  0  0  0  0  0  0
   -0.3543   -1.4414   -3.4331 H   0  0  0  0  0  0  0  0  0  0  0  0
    1.6865   -2.1547   -3.2397 C   0  0  0  0  0  0  0  0  0  0  0  0
    1.8559   -2.0151   -4.3287 H   0  0  0  0  0  0  0  0  0  0  0  0
    2.6173   -1.8401   -2.7222 H   0  0  0  0  0  0  0  0  0  0  0  0
    1.3879   -3.6230   -2.9157 C   0  0  0  0  0  0  0  0  0  0  0  0
    2.2532   -4.2671   -3.1784 H   0  0  0  0  0  0  0  0  0  0  0  0
    0.5363   -3.9705   -3.5442 H   0  0  0  0  0  0  0  0  0  0  0  0
    1.0109   -3.7867   -1.4378 C   0  0  0  0  0  0  0  0  0  0  0  0
    1.8851   -3.5418   -0.7955 H   0  0  0  0  0  0  0  0  0  0  0  0
    0.7240   -4.8371   -1.2176 H   0  0  0  0  0  0  0  0  0  0  0  0
   -0.1473   -2.8442   -1.0779 C   0  0  0  0  0  0  0  0  0  0  0  0
   -1.0583   -3.1755   -1.6430 H   0  0  0  0  0  0  0  0  0  0  0  0
   -0.4039   -2.9375   -0.0027 H   0  0  0  0  0  0  0  0  0  0  0  0
  1 14  1  0  0  0  0
  2  1  1  0  0  0  0
  3  2  1  0  0  0  0
  4  2  1  0  0  0  0
  5  8  1  0  0  0  0
  5  2  1  0  0  0  0
  5  7  1  0  0  0  0
  6  5  1  0  0  0  0
  8 11  1  0  0  0  0
  9  8  1  0  0  0  0
 10  8  1  0  0  0  0
 11 13  1  0  0  0  0
 11 14  1  0  0  0  0
 11 12  1  0  0  0  0
 14 16  1  0  0  0  0
 15 14  1  0  0  0  0
M  END
