1
q = -1.0, confidence = 0.004

 15 14  0  0  0  0  0  0  0  0999 V2000
   -0.2303   -2.0359   -0.0223 N   0  0  0  0  0  0  0  0  0  0  0  0
   -1.2990   -2.6647    1.0969 S   0  0  0  0  0  0  0  0  0  0  0  0
   -1.6173   -1.5452    2.0108 O   0  0  0  0  0  0  0  0  0  0  0  0
   -0.9491   -4.0014    1.5928 O   0  0  0  0  0  0  0  0  0  0  0  0
   -2.8393   -2.8658    0.0112 C   0  0  0  0  0  0  0  0  0  0  0  0
   -3.2339   -1.6590   -0.4315 F   0  0  0  0  0  0  0  0  0  0  0  0
   -3.8221   -3.4110    0.7364 F   0  0  0  0  0  0  0  0  0  0  0  0
   -2.5663   -3.6482   -1.0360 F   0  0  0  0  0  0  0  0  0  0  0  0
    0.7952   -2.9693   -0.9528 S   0  0  0  0  0  0  0  0  0  0  0  0
    1.1329   -2.1670   -2.1450 O   0  0  0  0  0  0  0  0  0  0  0  0
    0.3871   -4.3766   -1.0449 O   0  0  0  0  0  0  0  0  0  0  0  0
    2.3573   -2.9186    0.1243 C   0  0  0  0  0  0  0  0  0  0  0  0
    2.8560   -1.6681    0.1283 F   0  0  0  0  0  0  0  0  0  0  0  0
    3.2719   -3.7538   -0.3776 F   0  0  0  0  0  0  0  0  0  0  0  0
    2.0670   -3.2733    1.3812 F   0  0  0  0  0  0  0  0  0  0  0  0
  1  2  1  0  0  0  0
  2  4  2  0  0  0  0
  2  3  2  0  0  0  0
  5  7  1  0  0  0  0
  5  2  1  0  0  0  0
  6  5  1  0  0  0  0
  8  5  1  0  0  0  0
  9  1  1  0  0  0  0
  9 12  1  0  0  0  0
 10  9  2  0  0  0  0
 11  9  2  0  0  0  0
 12 13  1  0  0  0  0
 12 15  1  0  0  0  0
 14 12  1  0  0  0  0
M  END
