16
q = 0.0, confidence = 1.0

 28 30  0  0  0  0  0  0  0  0999 V2000
    2.0076   -1.4021   -0.1452 N   0  0  0  0  0  0  0  0  0  0  0  0
    2.2648   -2.3982   -0.9997 C   0  0  0  0  0  0  0  0  0  0  0  0
    3.5145   -2.4755   -1.6790 C   0  0  0  0  0  0  0  0  0  0  0  0
    3.6826   -3.2804   -2.4088 H   0  0  0  0  0  0  0  0  0  0  0  0
    4.5132   -1.5622   -1.3833 C   0  0  0  0  0  0  0  0  0  0  0  0
    5.5044   -1.6330   -1.8572 H   0  0  0  0  0  0  0  0  0  0  0  0
    4.2550   -0.5096   -0.4624 C   0  0  0  0  0  0  0  0  0  0  0  0
    2.9339   -0.4398    0.0766 C   0  0  0  0  0  0  0  0  0  0  0  0
    2.5688    0.6909    0.9108 C   0  0  0  0  0  0  0  0  0  0  0  0
    3.5927    1.5934    1.3358 C   0  0  0  0  0  0  0  0  0  0  0  0
    3.2241    2.6258    2.2346 C   0  0  0  0  0  0  0  0  0  0  0  0
    3.9867    3.3386    2.5840 H   0  0  0  0  0  0  0  0  0  0  0  0
    1.9097    2.7211    2.6632 C   0  0  0  0  0  0  0  0  0  0  0  0
    1.6022    3.4999    3.3753 H   0  0  0  0  0  0  0  0  0  0  0  0
    0.9211    1.8394    2.1558 C   0  0  0  0  0  0  0  0  0  0  0  0
    1.2521    0.8778    1.2641 N   0  0  0  0  0  2  0  0  0  0  0  0
    5.2399    0.4544   -0.0674 C   0  0  0  0  0  0  0  0  0  0  0  0
    6.2541    0.3763   -0.4886 H   0  0  0  0  0  0  0  0  0  0  0  0
    4.9289    1.4485    0.8300 C   0  0  0  0  0  3  0  0  0  0  0  0
    5.6902    2.1731    1.1561 H   0  0  0  0  0  0  0  0  0  0  0  0
    1.1819   -3.4174   -1.1953 C   0  0  0  0  0  0  0  0  0  0  0  0
    1.4788   -4.2057   -1.9107 H   0  0  0  0  0  0  0  0  0  0  0  0
    0.2795   -2.8932   -1.5716 H   0  0  0  0  0  0  0  0  0  0  0  0
    0.9119   -3.8886   -0.2272 H   0  0  0  0  0  0  0  0  0  0  0  0
   -0.5063    1.9650    2.5848 C   0  0  0  0  0  0  0  0  0  0  0  0
   -0.6557    2.8593    3.2168 H   0  0  0  0  0  0  0  0  0  0  0  0
   -0.8220    1.0705    3.1604 H   0  0  0  0  0  0  0  0  0  0  0  0
   -1.1647    2.0060    1.6895 H   0  0  0  0  0  0  0  0  0  0  0  0
  1  8  1  0  0  0  0
  2  1  2  0  0  0  0
  3  5  2  0  0  0  0
  3  2  1  0  0  0  0
  4  3  1  0  0  0  0
  5  7  1  0  0  0  0
  6  5  1  0  0  0  0
  7 17  2  0  0  0  0
  7  8  1  0  0  0  0
  8  9  2  0  0  0  0
  9 16  1  0  0  0  0
  9 10  1  0  0  0  0
 10 11  2  0  0  0  0
 11 12  1  0  0  0  0
 11 13  1  0  0  0  0
 13 14  1  0  0  0  0
 15 25  1  0  0  0  0
 15 13  2  0  0  0  0
 16 15  1  0  0  0  0
 17 19  1  0  0  0  0
 18 17  1  0  0  0  0
 19 20  1  0  0  0  0
 19 10  1  0  0  0  0
 21  2  1  0  0  0  0
 21 24  1  0  0  0  0
 22 21  1  0  0  0  0
 23 21  1  0  0  0  0
 25 27  1  0  0  0  0
 25 26  1  0  0  0  0
 28 25  1  0  0  0  0
M  END
