2
q = -1.0

 24 24  0  0  0  0  0  0  0  0999 V2000
   -2.3776    1.8161   -0.5293 Si  0  0  0  0  0  0  0  0  0  0  0  0
   -0.8944    0.8696   -0.6526 N   0  0  0  0  0  2  0  0  0  0  0  0
   -0.3190    0.5095   -1.9006 N   0  0  0  0  0  0  0  0  0  0  0  0
   -1.2170   -0.2442   -2.7908 C   0  0  0  0  0  0  0  0  0  0  0  0
    0.3160    1.5788   -2.6827 C   0  0  0  0  0  0  0  0  0  0  0  0
   -3.9114    0.7131   -0.4852 C   0  0  0  0  0  0  0  0  0  0  0  0
   -3.7838   -0.6921   -0.4088 C   0  0  0  0  0  0  0  0  0  0  0  0
   -4.9204   -1.5152   -0.3652 C   0  0  0  0  0  0  0  0  0  0  0  0
   -6.2033   -0.9460   -0.3967 C   0  0  0  0  0  0  0  0  0  0  0  0
   -6.3465    0.4492   -0.4748 C   0  0  0  0  0  0  0  0  0  0  0  0
   -5.2088    1.2699   -0.5201 C   0  0  0  0  0  0  0  0  0  0  0  0
   -2.2988    2.6725    0.7026 H   0  0  0  0  0  0  0  0  0  0  0  0
   -2.4834    2.7493   -1.7126 H   0  0  0  0  0  0  0  0  0  0  0  0
   -0.6268   -0.6631   -3.6284 H   0  0  0  0  0  0  0  0  0  0  0  0
   -1.9981    0.4332   -3.2080 H   0  0  0  0  0  0  0  0  0  0  0  0
   -1.6806   -1.0809   -2.2475 H   0  0  0  0  0  0  0  0  0  0  0  0
    0.9243    1.1066   -3.4788 H   0  0  0  0  0  0  0  0  0  0  0  0
   -0.4455    2.2367   -3.1609 H   0  0  0  0  0  0  0  0  0  0  0  0
    0.9772    2.1783   -2.0481 H   0  0  0  0  0  0  0  0  0  0  0  0
   -2.7806   -1.1484   -0.3792 H   0  0  0  0  0  0  0  0  0  0  0  0
   -4.7999   -2.6082   -0.3070 H   0  0  0  0  0  0  0  0  0  0  0  0
   -7.0953   -1.5905   -0.3624 H   0  0  0  0  0  0  0  0  0  0  0  0
   -7.3509    0.8997   -0.5016 H   0  0  0  0  0  0  0  0  0  0  0  0
   -5.3393    2.3634   -0.5842 H   0  0  0  0  0  0  0  0  0  0  0  0
  1  6  1  0  0  0  0
  1 12  1  0  0  0  0
  2  1  1  0  0  0  0
  3  2  1  0  0  0  0
  4 16  1  0  0  0  0
  4  3  1  0  0  0  0
  5 19  1  0  0  0  0
  5  3  1  0  0  0  0
  6  7  1  0  0  0  0
  7 20  1  0  0  0  0
  7  8  2  0  0  0  0
  8 21  1  0  0  0  0
  9  8  1  0  0  0  0
  9 22  1  0  0  0  0
 10  9  2  0  0  0  0
 11  6  2  0  0  0  0
 11 10  1  0  0  0  0
 13  1  1  0  0  0  0
 14  4  1  0  0  0  0
 15  4  1  0  0  0  0
 17  5  1  0  0  0  0
 18  5  1  0  0  0  0
 23 10  1  0  0  0  0
 24 11  1  0  0  0  0
M  END
