1
q = 0.0, confidence = 0.998

 15 15  0  0  0  0  0  0  0  0999 V2000
    2.0610   -0.2105   -0.3298 N   0  0  0  0  0  2  0  0  0  0  0  0
    3.0018   -0.0566    0.6126 C   0  0  0  0  0  3  0  0  0  0  0  0
    2.8262    0.0868    1.6846 H   0  0  0  0  0  0  0  0  0  0  0  0
    4.2388   -0.1097    0.0582 N   0  0  0  0  0  0  0  0  0  0  0  0
    4.0838   -0.2992   -1.3027 C   0  0  0  0  0  0  0  0  0  0  0  0
    4.9394   -0.3777   -1.9805 H   0  0  0  0  0  0  0  0  0  0  0  0
    2.7250   -0.3635   -1.5351 C   0  0  0  0  0  0  0  0  0  0  0  0
    2.1943   -0.5152   -2.4804 H   0  0  0  0  0  0  0  0  0  0  0  0
    5.5135    0.0755    0.7659 C   0  0  0  0  0  0  0  0  0  0  0  0
    6.2079   -0.7098    0.4057 H   0  0  0  0  0  0  0  0  0  0  0  0
    5.3211   -0.1330    1.8366 H   0  0  0  0  0  0  0  0  0  0  0  0
    6.1012    1.4695    0.5697 C   0  0  0  0  0  0  0  0  0  0  0  0
    6.3098    1.6757   -0.4987 H   0  0  0  0  0  0  0  0  0  0  0  0
    7.0566    1.5524    1.1233 H   0  0  0  0  0  0  0  0  0  0  0  0
    5.4148    2.2524    0.9480 H   0  0  0  0  0  0  0  0  0  0  0  0
  1  2  1  0  0  0  0
  2  3  1  0  0  0  0
  4  2  1  0  0  0  0
  4  9  1  0  0  0  0
  5  4  1  0  0  0  0
  6  5  1  0  0  0  0
  7  5  2  0  0  0  0
  7  1  1  0  0  0  0
  8  7  1  0  0  0  0
  9 11  1  0  0  0  0
 10  9  1  0  0  0  0
 12  9  1  0  0  0  0
 12 15  1  0  0  0  0
 12 14  1  0  0  0  0
 13 12  1  0  0  0  0
M  END
