5
q = -1.0, confidence = 0.0

 20 20  0  0  0  0  0  0  0  0999 V2000
   -2.3306   -3.3042   -2.8469 O   0  5  0  0  0  0  0  0  0  0  0  0
   -4.2770   -3.3337   -1.6405 O   0  0  0  0  0  0  0  0  0  0  0  0
   -3.7993    1.1586    1.8422 O   0  0  0  0  0  0  0  0  0  0  0  0
   -5.3076    0.4396    3.3726 O   0  0  0  0  0  0  0  0  0  0  0  0
   -0.8778   -0.9883    0.3428 N   0  0  0  0  0  2  0  0  0  0  0  0
   -2.0126   -0.8848    1.0105 N   0  0  0  0  0  2  0  0  0  0  0  0
   -2.9008   -1.6523    0.3454 N   0  0  0  0  0  0  0  0  0  0  0  0
   -2.3380   -2.2697   -0.7601 C   0  0  0  0  0  0  0  0  0  0  0  0
   -1.0254   -1.8378   -0.7236 C   0  0  0  0  0  0  0  0  0  0  0  0
   -3.0651   -3.0734   -1.8619 C   0  0  0  0  0  0  0  0  0  0  0  0
   -4.2447   -1.7695    0.7206 C   0  0  0  0  0  0  0  0  0  0  0  0
   -4.9431   -0.9795    1.5744 C   0  0  0  0  0  0  0  0  0  0  0  0
   -4.5735    0.2946    2.2309 C   0  0  0  0  0  0  0  0  0  0  0  0
   -5.0938    1.6590    4.0855 C   0  0  0  0  0  0  0  0  0  0  0  0
   -0.2346   -2.0814   -1.4340 H   0  0  0  0  0  0  0  0  0  0  0  0
   -4.6971   -2.6119    0.1577 H   0  0  0  0  0  0  0  0  0  0  0  0
   -5.9623   -1.3240    1.8074 H   0  0  0  0  0  0  0  0  0  0  0  0
   -5.8109    1.6545    4.9258 H   0  0  0  0  0  0  0  0  0  0  0  0
   -5.2653    2.5388    3.4323 H   0  0  0  0  0  0  0  0  0  0  0  0
   -4.0550    1.7168    4.4723 H   0  0  0  0  0  0  0  0  0  0  0  0
  1 10  1  0  0  0  0
  3 13  2  0  0  0  0
  4 14  1  0  0  0  0
  5  6  1  0  0  0  0
  7 11  1  0  0  0  0
  7  6  1  0  0  0  0
  8  9  2  0  0  0  0
  8  7  1  0  0  0  0
  9  5  1  0  0  0  0
 10  2  2  0  0  0  0
 10  8  1  0  0  0  0
 11 12  2  0  0  0  0
 12 17  1  0  0  0  0
 12 13  1  0  0  0  0
 13  4  1  0  0  0  0
 14 20  1  0  0  0  0
 14 18  1  0  0  0  0
 15  9  1  0  0  0  0
 16 11  1  0  0  0  0
 19 14  1  0  0  0  0
M  CHG  1   1  -1
M  END
