3
q = 0.0, confidence = 1.0

 42 42  0  0  1  0  0  0  0  0999 V2000
    1.6220    1.5932   -0.0151 P   0  0  2  0  0  0  0  0  0  0  0  0
   -1.8330    3.5127   -0.5613 O   0  0  0  0  0  0  0  0  0  0  0  0
   -1.2474    1.3693   -0.2357 N   0  0  0  0  0  2  0  0  0  0  0  0
    1.8039    1.9890    1.7698 C   0  0  0  0  0  0  0  0  0  0  0  0
    3.3163    1.8508   -0.8005 C   0  0  0  0  0  0  0  0  0  0  0  0
    3.6866    3.3433   -0.8180 C   0  0  0  0  0  0  0  0  0  0  0  0
    3.2415    1.2898   -2.2303 C   0  0  0  0  0  0  0  0  0  0  0  0
    4.3381    1.0590    0.0365 C   0  0  0  0  0  0  0  0  0  0  0  0
    0.5541    2.9937   -0.6651 C   0  0  0  0  0  0  0  0  0  0  0  0
   -0.8722    2.5917   -0.4846 C   0  0  2  0  0  3  0  0  0  0  0  0
   -3.0971    2.7715   -0.4953 C   0  0  0  0  0  0  0  0  0  0  0  0
   -2.6943    1.3928    0.0739 C   0  0  2  0  0  0  0  0  0  0  0  0
   -2.9760    1.2090    1.6024 C   0  0  0  0  0  0  0  0  0  0  0  0
   -2.4421    2.3976    2.4213 C   0  0  0  0  0  0  0  0  0  0  0  0
   -4.5026    1.0906    1.7729 C   0  0  0  0  0  0  0  0  0  0  0  0
   -2.3149   -0.0852    2.1064 C   0  0  0  0  0  0  0  0  0  0  0  0
    0.7936    2.0643    2.2160 H   0  0  0  0  0  0  0  0  0  0  0  0
    2.3409    1.1593    2.2679 H   0  0  0  0  0  0  0  0  0  0  0  0
    2.3517    2.9383    1.9327 H   0  0  0  0  0  0  0  0  0  0  0  0
    4.7230    3.4527   -1.1997 H   0  0  0  0  0  0  0  0  0  0  0  0
    3.0310    3.9380   -1.4840 H   0  0  0  0  0  0  0  0  0  0  0  0
    3.6654    3.7966    0.1936 H   0  0  0  0  0  0  0  0  0  0  0  0
    4.2151    1.4412   -2.7401 H   0  0  0  0  0  0  0  0  0  0  0  0
    3.0221    0.2045   -2.2256 H   0  0  0  0  0  0  0  0  0  0  0  0
    2.4675    1.7965   -2.8431 H   0  0  0  0  0  0  0  0  0  0  0  0
    4.4879    1.5049    1.0392 H   0  0  0  0  0  0  0  0  0  0  0  0
    4.0492   -0.0021    0.1614 H   0  0  0  0  0  0  0  0  0  0  0  0
    5.3191    1.0781   -0.4813 H   0  0  0  0  0  0  0  0  0  0  0  0
    0.7464    3.9696   -0.1747 H   0  0  0  0  0  0  0  0  0  0  0  0
    0.7667    3.1294   -1.7468 H   0  0  0  0  0  0  0  0  0  0  0  0
   -3.7936    3.3502    0.1368 H   0  0  0  0  0  0  0  0  0  0  0  0
   -3.4964    2.7176   -1.5285 H   0  0  0  0  0  0  0  0  0  0  0  0
   -3.1958    0.5670   -0.4695 H   0  0  0  0  0  0  0  0  0  0  0  0
   -2.9212    3.3597    2.1515 H   0  0  0  0  0  0  0  0  0  0  0  0
   -2.6353    2.2302    3.4994 H   0  0  0  0  0  0  0  0  0  0  0  0
   -1.3454    2.5159    2.3029 H   0  0  0  0  0  0  0  0  0  0  0  0
   -5.0374    1.9977    1.4237 H   0  0  0  0  0  0  0  0  0  0  0  0
   -4.8994    0.2196    1.2117 H   0  0  0  0  0  0  0  0  0  0  0  0
   -4.7602    0.9519    2.8416 H   0  0  0  0  0  0  0  0  0  0  0  0
   -2.5617   -0.2455    3.1748 H   0  0  0  0  0  0  0  0  0  0  0  0
   -2.6746   -0.9659    1.5408 H   0  0  0  0  0  0  0  0  0  0  0  0
   -1.2093   -0.0450    2.0152 H   0  0  0  0  0  0  0  0  0  0  0  0
  1  5  1  6  0  0  0
  1  4  1  0  0  0  0
  2 11  1  0  0  0  0
  2 10  1  0  0  0  0
  3 12  1  0  0  0  0
  4 19  1  0  0  0  0
  4 17  1  0  0  0  0
  4 18  1  0  0  0  0
  5  8  1  0  0  0  0
  6  5  1  0  0  0  0
  6 22  1  0  0  0  0
  7 24  1  0  0  0  0
  7  5  1  0  0  0  0
  8 27  1  0  0  0  0
  8 26  1  0  0  0  0
  9 29  1  0  0  0  0
  9  1  1  0  0  0  0
 10  9  1  1  0  0  0
 10  3  1  0  0  0  0
 11 12  1  0  0  0  0
 11 31  1  0  0  0  0
 12 33  1  6  0  0  0
 12 13  1  0  0  0  0
 13 15  1  0  0  0  0
 13 16  1  0  0  0  0
 13 14  1  0  0  0  0
 14 35  1  0  0  0  0
 15 39  1  0  0  0  0
 16 40  1  0  0  0  0
 20  6  1  0  0  0  0
 21  6  1  0  0  0  0
 23  7  1  0  0  0  0
 25  7  1  0  0  0  0
 28  8  1  0  0  0  0
 30  9  1  0  0  0  0
 32 11  1  0  0  0  0
 34 14  1  0  0  0  0
 36 14  1  0  0  0  0
 37 15  1  0  0  0  0
 38 15  1  0  0  0  0
 41 16  1  0  0  0  0
 42 16  1  0  0  0  0
M  END
