1
q = 0.0, confidence = 0.996

  9  9  0  0  0  0  0  0  0  0999 V2000
   -0.0660    1.4206   -0.8914 N   0  0  0  0  0  2  0  0  0  0  0  0
   -0.1619    2.6628   -2.7020 N   0  0  0  0  0  0  0  0  0  0  0  0
   -0.2482    2.9204   -3.6851 H   0  0  0  0  0  0  0  0  0  0  0  0
   -0.1925    1.3912   -2.2158 C   0  0  0  0  0  3  0  0  0  0  0  0
   -0.3570    0.4712   -2.7966 H   0  0  0  0  0  0  0  0  0  0  0  0
   -0.0050    3.5373   -1.6400 C   0  0  0  0  0  0  0  0  0  0  0  0
    0.0506    4.6213   -1.7754 H   0  0  0  0  0  0  0  0  0  0  0  0
    0.0531    2.7418   -0.5113 C   0  0  0  0  0  0  0  0  0  0  0  0
    0.1822    3.0133    0.5430 H   0  0  0  0  0  0  0  0  0  0  0  0
  1  8  1  0  0  0  0
  2  4  1  0  0  0  0
  2  6  1  0  0  0  0
  3  2  1  0  0  0  0
  4  1  1  0  0  0  0
  5  4  1  0  0  0  0
  6  8  2  0  0  0  0
  7  6  1  0  0  0  0
  8  9  1  0  0  0  0
M  END
