8
q = 0.0, confidence = 1.0

 32 34  0  0  1  0  0  0  0  0999 V2000
    0.1168    1.3013   -0.0258 N   0  0  0  0  0  0  0  0  0  0  0  0
    1.3449    2.0044   -0.1963 C   0  0  0  0  0  0  0  0  0  0  0  0
    2.2674    1.5566   -1.1604 C   0  0  0  0  0  0  0  0  0  0  0  0
    3.4810    2.2439   -1.3043 C   0  0  0  0  0  0  0  0  0  0  0  0
    3.7585    3.3717   -0.5153 C   0  0  0  0  0  0  0  0  0  0  0  0
    2.8181    3.8195    0.4266 C   0  0  0  0  0  0  0  0  0  0  0  0
    1.6074    3.1335    0.5973 C   0  0  0  0  0  0  0  0  0  0  0  0
    0.0661   -0.0762    0.0906 N   0  0  0  0  0  2  0  0  0  0  0  0
   -1.2146   -0.4597    0.1393 C   0  0  1  0  0  3  0  0  0  0  0  0
   -1.5312   -1.9084    0.2913 C   0  0  0  0  0  0  0  0  0  0  0  0
   -2.0559    0.7039    0.0522 C   0  0  0  0  0  0  0  0  0  0  0  0
   -3.4643    1.0529    0.0067 C   0  0  0  0  0  0  0  0  0  0  0  0
   -3.7762    2.2843   -0.0638 O   0  0  0  0  0  0  0  0  0  0  0  0
   -4.5721    0.1060    0.0168 C   0  0  0  0  0  0  0  0  0  0  0  0
   -4.3505   -1.2467    0.0457 O   0  0  0  0  0  0  0  0  0  0  0  0
   -5.5613   -1.8552    0.0342 C   0  0  0  0  0  0  0  0  0  0  0  0
   -6.5771   -0.9200   -0.0012 C   0  0  0  0  0  0  0  0  0  0  0  0
   -5.9375    0.3528   -0.0139 C   0  0  0  0  0  0  0  0  0  0  0  0
   -1.1462    1.8006   -0.0411 C   0  0  0  0  0  0  0  0  0  0  0  0
   -1.4427    3.0659   -0.1454 O   0  0  0  0  0  0  0  0  0  0  0  0
    2.0285    0.6833   -1.7869 H   0  0  0  0  0  0  0  0  0  0  0  0
    4.2105    1.8953   -2.0503 H   0  0  0  0  0  0  0  0  0  0  0  0
    4.7115    3.9079   -0.6374 H   0  0  0  0  0  0  0  0  0  0  0  0
    3.0314    4.7041    1.0448 H   0  0  0  0  0  0  0  0  0  0  0  0
    0.8684    3.4661    1.3390 H   0  0  0  0  0  0  0  0  0  0  0  0
   -0.5928   -2.4674    0.4765 H   0  0  0  0  0  0  0  0  0  0  0  0
   -1.9938   -2.3066   -0.6326 H   0  0  0  0  0  0  0  0  0  0  0  0
   -2.2404   -2.0771    1.1225 H   0  0  0  0  0  0  0  0  0  0  0  0
   -5.5456   -2.9501    0.0517 H   0  0  0  0  0  0  0  0  0  0  0  0
   -7.6522   -1.1282   -0.0180 H   0  0  0  0  0  0  0  0  0  0  0  0
   -6.3934    1.3474   -0.0435 H   0  0  0  0  0  0  0  0  0  0  0  0
   -2.5083    3.0059   -0.1293 H   0  0  0  0  0  0  0  0  0  0  0  0
  1  8  1  0  0  0  0
  2  1  1  0  0  0  0
  2  7  1  0  0  0  0
  3  2  2  0  0  0  0
  4  3  1  0  0  0  0
  4  5  2  0  0  0  0
  5  6  1  0  0  0  0
  6  7  2  0  0  0  0
  6 24  1  0  0  0  0
  7 25  1  0  0  0  0
  8  9  1  0  0  0  0
  9 10  1  1  0  0  0
 10 26  1  0  0  0  0
 10 28  1  0  0  0  0
 11  9  1  0  0  0  0
 12 14  1  0  0  0  0
 12 11  1  0  0  0  0
 13 12  2  0  0  0  0
 14 15  1  0  0  0  0
 16 15  1  0  0  0  0
 16 29  1  0  0  0  0
 17 16  2  0  0  0  0
 18 17  1  0  0  0  0
 18 14  2  0  0  0  0
 19  1  1  0  0  0  0
 19 11  2  0  0  0  0
 20 32  1  0  0  0  0
 20 19  1  0  0  0  0
 21  3  1  0  0  0  0
 22  4  1  0  0  0  0
 23  5  1  0  0  0  0
 27 10  1  0  0  0  0
 30 17  1  0  0  0  0
 31 18  1  0  0  0  0
M  END
