2
q = 0.0, confidence = 1.0

 22 24  0  0  0  0  0  0  0  0999 V2000
    1.8799   -0.1417    1.5705 N   0  0  0  0  0  0  0  0  0  0  0  0
    1.1351    1.0245   -0.8080 N   0  0  0  0  0  2  0  0  0  0  0  0
    2.2500   -0.9434    2.5697 C   0  0  0  0  0  0  0  0  0  0  0  0
    1.4336   -1.3602    3.1843 H   0  0  0  0  0  0  0  0  0  0  0  0
    3.6017   -1.2598    2.8466 C   0  0  0  0  0  0  0  0  0  0  0  0
    3.8446   -1.9604    3.6585 H   0  0  0  0  0  0  0  0  0  0  0  0
    4.6047   -0.6581    2.0952 C   0  0  0  0  0  0  0  0  0  0  0  0
    5.6669   -0.8689    2.2847 H   0  0  0  0  0  0  0  0  0  0  0  0
    4.2441    0.2209    1.0385 C   0  0  0  0  0  0  0  0  0  0  0  0
    5.2027    0.9045    0.2154 C   0  0  0  0  0  0  0  0  0  0  0  0
    6.2722    0.7580    0.4263 H   0  0  0  0  0  0  0  0  0  0  0  0
    4.7978    1.7116   -0.8208 C   0  0  0  0  0  3  0  0  0  0  0  0
    5.5364    2.2437   -1.4388 H   0  0  0  0  0  0  0  0  0  0  0  0
    3.4081    1.8234   -1.1730 C   0  0  0  0  0  0  0  0  0  0  0  0
    2.9462    2.5549   -2.2962 C   0  0  0  0  0  0  0  0  0  0  0  0
    3.6664    3.1233   -2.9044 H   0  0  0  0  0  0  0  0  0  0  0  0
    1.5971    2.5171   -2.6344 C   0  0  0  0  0  0  0  0  0  0  0  0
    1.2098    3.0625   -3.5064 H   0  0  0  0  0  0  0  0  0  0  0  0
    0.7218    1.7098   -1.8811 C   0  0  0  0  0  0  0  0  0  0  0  0
   -0.3327    1.5579   -2.1597 H   0  0  0  0  0  0  0  0  0  0  0  0
    2.4382    1.1108   -0.4020 C   0  0  0  0  0  0  0  0  0  0  0  0
    2.8507    0.3866    0.7804 C   0  0  0  0  0  0  0  0  0  0  0  0
  1  3  2  0  0  0  0
  2 21  1  0  0  0  0
  3  5  1  0  0  0  0
  3  4  1  0  0  0  0
  5  6  1  0  0  0  0
  7  8  1  0  0  0  0
  7  5  2  0  0  0  0
  9  7  1  0  0  0  0
 10 11  1  0  0  0  0
 10  9  2  0  0  0  0
 12 10  1  0  0  0  0
 13 12  1  0  0  0  0
 14 12  1  0  0  0  0
 14 21  1  0  0  0  0
 15 14  2  0  0  0  0
 16 15  1  0  0  0  0
 17 15  1  0  0  0  0
 17 19  2  0  0  0  0
 18 17  1  0  0  0  0
 19  2  1  0  0  0  0
 20 19  1  0  0  0  0
 21 22  2  0  0  0  0
 22  9  1  0  0  0  0
 22  1  1  0  0  0  0
M  END
