2
q = -1.0

 16 17  0  0  0  0  0  0  0  0999 V2000
   -1.2978   -0.4777   -0.0978 N   0  0  0  0  0  0  0  0  0  0  0  0
   -0.2557    0.1229   -0.6773 N   0  0  0  0  0  0  0  0  0  0  0  0
   -0.6554    1.1525   -1.4356 N   0  0  0  0  0  0  0  0  0  0  0  0
   -1.9767    1.2310   -1.3747 N   0  0  0  0  0  0  0  0  0  0  0  0
   -2.3658    0.2225   -0.5502 C   0  0  0  0  0  3  0  0  0  0  0  0
   -3.7601   -0.0635   -0.1945 C   0  0  0  0  0  0  0  0  0  0  0  0
   -4.0826   -1.1623    0.6315 C   0  0  0  0  0  0  0  0  0  0  0  0
   -3.2721   -1.8114    0.9939 H   0  0  0  0  0  0  0  0  0  0  0  0
   -5.4166   -1.4209    0.9720 C   0  0  0  0  0  0  0  0  0  0  0  0
   -5.6590   -2.2813    1.6144 H   0  0  0  0  0  0  0  0  0  0  0  0
   -6.4435   -0.5906    0.4922 C   0  0  0  0  0  0  0  0  0  0  0  0
   -7.4911   -0.7970    0.7596 H   0  0  0  0  0  0  0  0  0  0  0  0
   -6.1279    0.5014   -0.3338 C   0  0  0  0  0  0  0  0  0  0  0  0
   -6.9293    1.1526   -0.7154 H   0  0  0  0  0  0  0  0  0  0  0  0
   -4.7961    0.7658   -0.6770 C   0  0  0  0  0  0  0  0  0  0  0  0
   -4.5312    1.6145   -1.3242 H   0  0  0  0  0  0  0  0  0  0  0  0
  2  1  2  0  0  0  0
  3  4  2  0  0  0  0
  3  2  1  0  0  0  0
  4  5  1  0  0  0  0
  5  6  1  0  0  0  0
  5  1  1  0  0  0  0
  6  7  1  0  0  0  0
  7  9  2  0  0  0  0
  7  8  1  0  0  0  0
  9 10  1  0  0  0  0
 11 12  1  0  0  0  0
 11  9  1  0  0  0  0
 13 11  2  0  0  0  0
 14 13  1  0  0  0  0
 15 13  1  0  0  0  0
 15  6  2  0  0  0  0
 16 15  1  0  0  0  0
M  END
