2
q = -1.0

 19 19  0  0  0  0  0  0  0  0999 V2000
    1.4195    0.7554   -0.1662 N   0  0  0  0  0  0  0  0  0  0  0  0
    1.0976    0.2438    1.0139 N   0  0  0  0  0  2  0  0  0  0  0  0
    2.1690   -0.1148    1.7368 N   0  0  0  0  0  0  0  0  0  0  0  0
    2.7694    0.7468   -0.2386 C   0  0  0  0  0  0  0  0  0  0  0  0
    3.2421    0.1929    0.9792 C   0  0  0  0  0  0  0  0  0  0  0  0
    3.4149    1.1318   -1.5035 C   0  0  0  0  0  0  0  0  0  0  0  0
    5.3977    1.0558   -2.7657 C   0  0  0  0  0  0  0  0  0  0  0  0
    4.9408    0.5092   -3.6164 H   0  0  0  0  0  0  0  0  0  0  0  0
    6.4441    0.7330   -2.6205 H   0  0  0  0  0  0  0  0  0  0  0  0
    5.3537    2.1404   -2.9916 H   0  0  0  0  0  0  0  0  0  0  0  0
    4.6187   -0.1388    1.4305 C   0  0  0  0  0  0  0  0  0  0  0  0
    6.8272    0.6481    1.5730 C   0  0  0  0  0  0  0  0  0  0  0  0
    6.9427    0.3246    2.6272 H   0  0  0  0  0  0  0  0  0  0  0  0
    7.3705    1.5937    1.3973 H   0  0  0  0  0  0  0  0  0  0  0  0
    7.2295   -0.1550    0.9216 H   0  0  0  0  0  0  0  0  0  0  0  0
    2.8503    1.6880   -2.4379 O   0  0  0  0  0  0  0  0  0  0  0  0
    4.7174    0.7559   -1.5464 O   0  0  0  0  0  0  0  0  0  0  0  0
    4.9652   -1.2153    1.8840 O   0  0  0  0  0  0  0  0  0  0  0  0
    5.4570    0.9124    1.2625 O   0  0  0  0  0  0  0  0  0  0  0  0
  1  2  1  0  0  0  0
  2  3  1  0  0  0  0
  4  1  2  0  0  0  0
  4  5  1  0  0  0  0
  5 11  1  0  0  0  0
  5  3  2  0  0  0  0
  6  4  1  0  0  0  0
  7  9  1  0  0  0  0
  7 17  1  0  0  0  0
  8  7  1  0  0  0  0
 10  7  1  0  0  0  0
 11 18  2  0  0  0  0
 12 13  1  0  0  0  0
 14 12  1  0  0  0  0
 15 12  1  0  0  0  0
 16  6  2  0  0  0  0
 17  6  1  0  0  0  0
 19 11  1  0  0  0  0
 19 12  1  0  0  0  0
M  END
