2
q = -1.0, confidence = 0.0

 18 18  0  0  0  0  0  0  0  0999 V2000
    1.6003   -0.2891    0.4630 N   0  0  0  0  0  0  0  0  0  0  0  0
    0.6070   -0.4160   -0.4251 N   0  0  0  0  0  0  0  0  0  0  0  0
    1.0743   -0.4853   -1.6706 N   0  0  0  0  0  0  0  0  0  0  0  0
    2.4034   -0.4119   -1.6144 N   0  0  0  0  0  0  0  0  0  0  0  0
    2.7142   -0.2955   -0.3026 C   0  0  0  0  0  3  0  0  0  0  0  0
    4.1175   -0.2125    0.2563 C   0  0  0  0  0  0  0  0  0  0  0  0
    4.4160   -1.5204    1.0238 C   0  0  0  0  0  0  0  0  0  0  0  0
    3.6827   -1.6735    1.8402 H   0  0  0  0  0  0  0  0  0  0  0  0
    5.4335   -1.4867    1.4651 H   0  0  0  0  0  0  0  0  0  0  0  0
    4.3612   -2.3958    0.3463 H   0  0  0  0  0  0  0  0  0  0  0  0
    5.1219   -0.0369   -0.8945 C   0  0  0  0  0  0  0  0  0  0  0  0
    5.0546   -0.8766   -1.6122 H   0  0  0  0  0  0  0  0  0  0  0  0
    6.1547    0.0085   -0.4935 H   0  0  0  0  0  0  0  0  0  0  0  0
    4.9229    0.8940   -1.4616 H   0  0  0  0  0  0  0  0  0  0  0  0
    4.2061    0.9847    1.2261 C   0  0  0  0  0  0  0  0  0  0  0  0
    3.9883    1.9383    0.7020 H   0  0  0  0  0  0  0  0  0  0  0  0
    5.2249    1.0575    1.6586 H   0  0  0  0  0  0  0  0  0  0  0  0
    3.4842    0.8740    2.0596 H   0  0  0  0  0  0  0  0  0  0  0  0
  2  1  2  0  0  0  0
  3  4  2  0  0  0  0
  3  2  1  0  0  0  0
  4  5  1  0  0  0  0
  5  6  1  0  0  0  0
  5  1  1  0  0  0  0
  6  7  1  0  0  0  0
  6 15  1  0  0  0  0
  7  9  1  0  0  0  0
  7  8  1  0  0  0  0
 10  7  1  0  0  0  0
 11 13  1  0  0  0  0
 11  6  1  0  0  0  0
 12 11  1  0  0  0  0
 14 11  1  0  0  0  0
 15 17  1  0  0  0  0
 15 18  1  0  0  0  0
 16 15  1  0  0  0  0
M  END
