1
q = 0.0, confidence = 0.994

 15 15  0  0  1  0  0  0  0  0999 V2000
    1.7604   -0.0219    0.0110 N   0  0  0  0  0  2  0  0  0  0  0  0
    2.4575    0.5855    1.0123 C   0  0  1  0  0  3  0  0  0  0  0  0
    3.8573    0.4987    1.0471 C   0  0  0  0  0  0  0  0  0  0  0  0
    4.4034    0.9921    1.8618 H   0  0  0  0  0  0  0  0  0  0  0  0
    4.5346   -0.2095    0.0451 C   0  0  0  0  0  0  0  0  0  0  0  0
    5.6321   -0.2856    0.0603 H   0  0  0  0  0  0  0  0  0  0  0  0
    3.8078   -0.8182   -0.9778 C   0  0  0  0  0  0  0  0  0  0  0  0
    4.3039   -1.3787   -1.7838 H   0  0  0  0  0  0  0  0  0  0  0  0
    2.4044   -0.6990   -0.9640 C   0  0  0  0  0  0  0  0  0  0  0  0
    1.6787    1.3462    2.0391 C   0  0  0  0  0  0  0  0  0  0  0  0
    1.1291    2.1723    1.5399 H   0  0  0  0  0  0  0  0  0  0  0  0
    2.3445    1.7536    2.8218 H   0  0  0  0  0  0  0  0  0  0  0  0
    0.9136    0.6893    2.5011 H   0  0  0  0  0  0  0  0  0  0  0  0
    1.6108   -1.2353   -1.9024 O   0  0  0  0  0  0  0  0  0  0  0  0
    2.1616   -1.7041   -2.5577 H   0  0  0  0  0  0  0  0  0  0  0  0
  1  2  1  0  0  0  0
  2  3  1  0  0  0  0
  2 10  1  6  0  0  0
  3  4  1  0  0  0  0
  5  6  1  0  0  0  0
  5  3  2  0  0  0  0
  7  9  2  0  0  0  0
  7  5  1  0  0  0  0
  8  7  1  0  0  0  0
  9  1  1  0  0  0  0
 10 13  1  0  0  0  0
 10 12  1  0  0  0  0
 11 10  1  0  0  0  0
 14  9  1  0  0  0  0
 15 14  1  0  0  0  0
M  END
