5
q = 0.0, confidence = 1.0

 24 24  0  0  1  0  0  0  0  0999 V2000
    0.2192    1.9642   -1.5888 O   0  0  0  0  0  0  0  0  0  0  0  0
    0.2965    1.1361   -2.1349 H   0  0  0  0  0  0  0  0  0  0  0  0
   -5.1338   -1.5115    1.2341 O   0  0  0  0  0  0  0  0  0  0  0  0
   -6.6058   -0.1919    0.1127 O   0  0  0  0  0  0  0  0  0  0  0  0
   -1.9521    0.6575   -0.4462 N   0  0  0  0  0  2  0  0  0  0  0  0
   -1.0452    2.5345   -1.7655 C   0  0  0  0  0  0  0  0  0  0  0  0
   -1.2560    2.7976   -2.8304 H   0  0  0  0  0  0  0  0  0  0  0  0
   -1.0507    3.4967   -1.2049 H   0  0  0  0  0  0  0  0  0  0  0  0
   -2.2126    1.7127   -1.2412 C   0  0  2  0  0  3  0  0  0  0  0  0
   -3.5359    2.0794   -1.5513 C   0  0  0  0  0  0  0  0  0  0  0  0
   -3.7212    2.9352   -2.2179 H   0  0  0  0  0  0  0  0  0  0  0  0
   -4.5946    1.3502   -1.0094 C   0  0  0  0  0  0  0  0  0  0  0  0
   -5.6403    1.6071   -1.2296 H   0  0  0  0  0  0  0  0  0  0  0  0
   -4.3091    0.2594   -0.1648 C   0  0  0  0  0  0  0  0  0  0  0  0
   -2.9654   -0.0554    0.0815 C   0  0  0  0  0  0  0  0  0  0  0  0
   -2.6961   -0.9020    0.7317 H   0  0  0  0  0  0  0  0  0  0  0  0
   -5.3628   -0.5861    0.4774 C   0  0  0  0  0  0  0  0  0  0  0  0
   -7.6956   -0.9540    0.6798 C   0  0  0  0  0  0  0  0  0  0  0  0
   -7.6289   -0.8983    1.7869 H   0  0  0  0  0  0  0  0  0  0  0  0
   -7.5609   -2.0218    0.4066 H   0  0  0  0  0  0  0  0  0  0  0  0
   -8.9923   -0.3806    0.1491 C   0  0  0  0  0  0  0  0  0  0  0  0
   -9.1059    0.6837    0.4361 H   0  0  0  0  0  0  0  0  0  0  0  0
   -9.8512   -0.9433    0.5649 H   0  0  0  0  0  0  0  0  0  0  0  0
   -9.0368   -0.4503   -0.9559 H   0  0  0  0  0  0  0  0  0  0  0  0
  2  1  1  0  0  0  0
  4 17  1  0  0  0  0
  4 18  1  0  0  0  0
  5 15  1  0  0  0  0
  6  1  1  0  0  0  0
  6  8  1  0  0  0  0
  7  6  1  0  0  0  0
  9  6  1  1  0  0  0
  9  5  1  0  0  0  0
 10  9  1  0  0  0  0
 10 12  2  0  0  0  0
 11 10  1  0  0  0  0
 12 14  1  0  0  0  0
 13 12  1  0  0  0  0
 14 15  2  0  0  0  0
 14 17  1  0  0  0  0
 15 16  1  0  0  0  0
 17  3  2  0  0  0  0
 18 19  1  0  0  0  0
 20 18  1  0  0  0  0
 21 22  1  0  0  0  0
 21 23  1  0  0  0  0
 21 18  1  0  0  0  0
 24 21  1  0  0  0  0
M  END
