2
q = 0.0, confidence = 0.99

 15 15  0  0  1  0  0  0  0  0999 V2000
    1.1054   -1.5680   -1.5993 O   0  0  0  0  0  0  0  0  0  0  0  0
    1.5192    0.9383   -0.1777 N   0  0  0  0  0  2  0  0  0  0  0  0
    3.2152   -2.0851   -0.8390 N   0  0  0  0  0  0  0  0  0  0  0  0
    2.4652    0.2368   -0.8385 C   0  0  2  0  0  3  0  0  0  0  0  0
    3.6024    0.8646   -1.3703 C   0  0  0  0  0  0  0  0  0  0  0  0
    3.7351    2.2545   -1.2344 C   0  0  0  0  0  0  0  0  0  0  0  0
    2.7358    2.9715   -0.5637 C   0  0  0  0  0  0  0  0  0  0  0  0
    1.6429    2.2694   -0.0381 C   0  0  0  0  0  0  0  0  0  0  0  0
    2.1747   -1.2340   -1.0964 C   0  0  0  0  0  0  0  0  0  0  0  0
    4.3555    0.2621   -1.8976 H   0  0  0  0  0  0  0  0  0  0  0  0
    4.6117    2.7722   -1.6526 H   0  0  0  0  0  0  0  0  0  0  0  0
    2.7991    4.0615   -0.4369 H   0  0  0  0  0  0  0  0  0  0  0  0
    0.8320    2.7593    0.5263 H   0  0  0  0  0  0  0  0  0  0  0  0
    2.9792   -3.0771   -0.9312 H   0  0  0  0  0  0  0  0  0  0  0  0
    3.8272   -1.8740   -0.0421 H   0  0  0  0  0  0  0  0  0  0  0  0
  1  9  2  0  0  0  0
  2  8  1  0  0  0  0
  3 15  1  0  0  0  0
  4  9  1  6  0  0  0
  4  2  1  0  0  0  0
  5  6  2  0  0  0  0
  5  4  1  0  0  0  0
  6  7  1  0  0  0  0
  7 12  1  0  0  0  0
  7  8  2  0  0  0  0
  8 13  1  0  0  0  0
  9  3  1  0  0  0  0
 10  5  1  0  0  0  0
 11  6  1  0  0  0  0
 14  3  1  0  0  0  0
M  END
