2
q = -1.0

 10 10  0  0  0  0  0  0  0  0999 V2000
    2.5446    1.3041   -1.6551 S   0  0  0  0  0  0  0  0  0  0  0  0
    0.6258    1.5200    0.1603 N   0  0  0  0  0  2  0  0  0  0  0  0
    2.2359    3.2920    0.1429 N   0  0  0  0  0  0  0  0  0  0  0  0
    1.7745    2.1089   -0.3766 C   0  0  0  0  0  0  0  0  0  0  0  0
   -0.0842    2.1408    1.1133 C   0  0  0  0  0  0  0  0  0  0  0  0
   -0.9910    1.6052    1.4448 H   0  0  0  0  0  0  0  0  0  0  0  0
    0.3302    3.3710    1.6343 C   0  0  0  0  0  0  0  0  0  0  0  0
   -0.2422    3.8893    2.4158 H   0  0  0  0  0  0  0  0  0  0  0  0
    1.5317    3.8848    1.1015 C   0  0  0  0  0  0  0  0  0  0  0  0
    1.9397    4.8419    1.4864 H   0  0  0  0  0  0  0  0  0  0  0  0
  1  4  2  0  0  0  0
  2  5  1  0  0  0  0
  3  9  2  0  0  0  0
  4  3  1  0  0  0  0
  4  2  1  0  0  0  0
  5  6  1  0  0  0  0
  5  7  2  0  0  0  0
  7  8  1  0  0  0  0
  9 10  1  0  0  0  0
  9  7  1  0  0  0  0
M  END
