1
q = 0.0, confidence = 1.0

 27 28  0  0  1  0  0  0  0  0999 V2000
    1.3191    0.3619   -0.5908 N   0  0  0  0  0  2  0  0  0  0  0  0
    1.1354    1.2686   -1.0364 H   0  0  0  0  0  0  0  0  0  0  0  0
    3.0289   -1.0396    0.0593 N   0  0  0  0  0  0  0  0  0  0  0  0
    2.3170   -1.7941   -0.0559 H   0  0  0  0  0  0  0  0  0  0  0  0
    2.6031    0.1730   -0.3920 C   0  0  1  0  0  3  0  0  0  0  0  0
    4.2291   -1.3969    0.6928 C   0  0  0  0  0  0  0  0  0  0  0  0
    4.6316   -2.7498    0.6174 C   0  0  0  0  0  0  0  0  0  0  0  0
    4.0047   -3.4605    0.0575 H   0  0  0  0  0  0  0  0  0  0  0  0
    5.8084   -3.1725    1.2465 C   0  0  0  0  0  0  0  0  0  0  0  0
    6.1066   -4.2298    1.1783 H   0  0  0  0  0  0  0  0  0  0  0  0
    6.6070   -2.2580    1.9530 C   0  0  0  0  0  0  0  0  0  0  0  0
    7.5346   -2.5906    2.4417 H   0  0  0  0  0  0  0  0  0  0  0  0
    6.1998   -0.9172    2.0410 C   0  0  0  0  0  0  0  0  0  0  0  0
    6.8044   -0.1941    2.6096 H   0  0  0  0  0  0  0  0  0  0  0  0
    5.0158   -0.4840    1.4298 C   0  0  0  0  0  0  0  0  0  0  0  0
    4.6938    0.5608    1.5337 H   0  0  0  0  0  0  0  0  0  0  0  0
    3.5891    1.2382   -0.7396 C   0  0  0  0  0  0  0  0  0  0  0  0
    3.2987    2.5871   -0.4491 C   0  0  0  0  0  0  0  0  0  0  0  0
    2.3715    2.8414    0.0867 H   0  0  0  0  0  0  0  0  0  0  0  0
    4.1902    3.5995   -0.8307 C   0  0  0  0  0  0  0  0  0  0  0  0
    3.9561    4.6481   -0.5924 H   0  0  0  0  0  0  0  0  0  0  0  0
    5.3737    3.2756   -1.5126 C   0  0  0  0  0  0  0  0  0  0  0  0
    6.0731    4.0704   -1.8132 H   0  0  0  0  0  0  0  0  0  0  0  0
    5.6618    1.9338   -1.8149 C   0  0  0  0  0  0  0  0  0  0  0  0
    6.5828    1.6767   -2.3594 H   0  0  0  0  0  0  0  0  0  0  0  0
    4.7792    0.9179   -1.4277 C   0  0  0  0  0  0  0  0  0  0  0  0
    5.0033   -0.1317   -1.6665 H   0  0  0  0  0  0  0  0  0  0  0  0
  2  1  1  0  0  0  0
  3  6  1  0  0  0  0
  4  3  1  0  0  0  0
  5  1  1  6  0  0  0
  5  3  1  0  0  0  0
  6 15  1  0  0  0  0
  7  6  2  0  0  0  0
  7  9  1  0  0  0  0
  8  7  1  0  0  0  0
  9 11  2  0  0  0  0
 10  9  1  0  0  0  0
 11 13  1  0  0  0  0
 11 12  1  0  0  0  0
 13 14  1  0  0  0  0
 15 16  1  0  0  0  0
 15 13  2  0  0  0  0
 17 18  1  0  0  0  0
 17  5  1  0  0  0  0
 18 19  1  0  0  0  0
 20 21  1  0  0  0  0
 20 18  2  0  0  0  0
 22 20  1  0  0  0  0
 23 22  1  0  0  0  0
 24 22  2  0  0  0  0
 24 26  1  0  0  0  0
 25 24  1  0  0  0  0
 26 17  2  0  0  0  0
 27 26  1  0  0  0  0
M  END
