9
q = 0.0, confidence = 1.0

 13 13  0  0  1  0  0  0  0  0999 V2000
   -2.4696    0.5041   -1.1021 C   0  0  1  0  0  3  0  0  0  0  0  0
   -3.5552   -0.3902   -1.3939 C   0  0  0  0  0  0  0  0  0  0  0  0
   -4.4062   -0.2128   -2.0577 H   0  0  0  0  0  0  0  0  0  0  0  0
   -3.2839   -1.5168   -0.6551 C   0  0  0  0  0  0  0  0  0  0  0  0
   -3.9835   -2.8167   -0.4790 C   0  0  0  0  0  0  0  0  0  0  0  0
   -4.2546   -2.9739    0.5848 H   0  0  0  0  0  0  0  0  0  0  0  0
   -3.3299   -3.6604   -0.7805 H   0  0  0  0  0  0  0  0  0  0  0  0
   -4.9037   -2.8432   -1.0895 H   0  0  0  0  0  0  0  0  0  0  0  0
   -1.6257   -0.0848   -0.2409 N   0  0  0  0  0  2  0  0  0  0  0  0
   -2.2306    1.7393   -1.6113 N   0  0  0  0  0  0  0  0  0  0  0  0
   -1.5263    2.3094   -1.1017 H   0  0  0  0  0  0  0  0  0  0  0  0
   -3.0274    2.2370   -2.0040 H   0  0  0  0  0  0  0  0  0  0  0  0
   -2.1356   -1.3528    0.0352 O   0  0  0  0  0  0  0  0  0  0  0  0
  1 10  1  6  0  0  0
  1  9  1  0  0  0  0
  2  1  1  0  0  0  0
  2  4  2  0  0  0  0
  3  2  1  0  0  0  0
  4  5  1  0  0  0  0
  4 13  1  0  0  0  0
  5  6  1  0  0  0  0
  7  5  1  0  0  0  0
  8  5  1  0  0  0  0
  9 13  1  0  0  0  0
 10 11  1  0  0  0  0
 12 10  1  0  0  0  0
M  END
