1
q = -1.0

  8  8  0  0  0  0  0  0  0  0999 V2000
    0.0347   -0.5055    1.6901 N   0  0  0  0  0  0  0  0  0  0  0  0
    1.5270   -0.4518    3.4034 N   0  0  0  0  0  0  0  0  0  0  0  0
    1.0781   -1.7386    3.2356 C   0  0  0  0  0  0  0  0  0  0  0  0
    1.4253   -2.5620    3.8751 H   0  0  0  0  0  0  0  0  0  0  0  0
    0.1590   -1.7889    2.1886 C   0  0  0  0  0  0  0  0  0  0  0  0
   -0.4170   -2.6265    1.7767 H   0  0  0  0  0  0  0  0  0  0  0  0
    0.8855    0.2474    2.4664 C   0  0  0  0  0  3  0  0  0  0  0  0
    0.9974    1.3315    2.3257 H   0  0  0  0  0  0  0  0  0  0  0  0
  1  5  2  0  0  0  0
  1  7  1  0  0  0  0
  3  2  2  0  0  0  0
  3  4  1  0  0  0  0
  5  3  1  0  0  0  0
  6  5  1  0  0  0  0
  7  2  1  0  0  0  0
  8  7  1  0  0  0  0
M  END
