2
q = -1.0

 30 32  0  0  0  0  0  0  0  0999 V2000
    1.6398    1.6099    0.1480 N   0  0  0  0  0  0  0  0  0  0  0  0
    2.0010   -1.1165   -0.0400 N   0  0  0  0  0  0  0  0  0  0  0  0
    1.3496    2.9387    0.1028 C   0  0  0  0  0  0  0  0  0  0  0  0
    0.0140    3.3745    0.3484 C   0  0  0  0  0  0  0  0  0  0  0  0
   -0.7468    2.6128    0.5656 H   0  0  0  0  0  0  0  0  0  0  0  0
   -0.3086    4.7229    0.3002 C   0  0  0  0  0  0  0  0  0  0  0  0
   -1.3471    5.0389    0.4827 H   0  0  0  0  0  0  0  0  0  0  0  0
    0.6861    5.6960    0.0126 C   0  0  0  0  0  0  0  0  0  0  0  0
    0.4146    6.7619   -0.0213 H   0  0  0  0  0  0  0  0  0  0  0  0
    1.9973    5.3031   -0.2241 C   0  0  0  0  0  0  0  0  0  0  0  0
    2.7760    6.0497   -0.4470 H   0  0  0  0  0  0  0  0  0  0  0  0
    2.3578    3.9279   -0.1866 C   0  0  0  0  0  0  0  0  0  0  0  0
    3.6753    3.4453   -0.4363 C   0  0  0  0  0  0  0  0  0  0  0  0
    4.4746    4.1627   -0.6806 H   0  0  0  0  0  0  0  0  0  0  0  0
    3.9433    2.0921   -0.3936 C   0  0  0  0  0  0  0  0  0  0  0  0
    4.9471    1.7210   -0.6250 H   0  0  0  0  0  0  0  0  0  0  0  0
    2.8842    1.1737   -0.0832 C   0  0  0  0  0  0  0  0  0  0  0  0
    3.0906   -0.2785   -0.0354 C   0  0  0  0  0  0  0  0  0  0  0  0
    4.2684   -1.0788    0.0282 C   0  0  0  0  0  0  0  0  0  0  0  0
    3.8525   -2.4302    0.0583 C   0  0  0  0  0  0  0  0  0  0  0  0
    4.4948   -3.3136    0.1186 H   0  0  0  0  0  0  0  0  0  0  0  0
    2.4532   -2.4047    0.0101 C   0  0  0  0  0  3  0  0  0  0  0  0
    5.6978   -0.6651    0.1286 C   0  0  0  0  0  0  0  0  0  0  0  0
    1.5228   -3.5706   -0.0103 C   0  0  0  0  0  0  0  0  0  0  0  0
    5.9165    0.2388    1.1233 F   0  0  0  0  0  0  0  0  0  0  0  0
    6.1683   -0.0774   -1.0189 F   0  0  0  0  0  0  0  0  0  0  0  0
    6.5041   -1.7254    0.3685 F   0  0  0  0  0  0  0  0  0  0  0  0
    2.2035   -4.7357    0.0598 F   0  0  0  0  0  0  0  0  0  0  0  0
    0.7588   -3.6150   -1.1424 F   0  0  0  0  0  0  0  0  0  0  0  0
    0.6341   -3.5577    1.0289 F   0  0  0  0  0  0  0  0  0  0  0  0
  2 18  2  0  0  0  0
  2 22  1  0  0  0  0
  3  1  1  0  0  0  0
  3  4  1  0  0  0  0
  4  5  1  0  0  0  0
  6  4  2  0  0  0  0
  6  7  1  0  0  0  0
  8  6  1  0  0  0  0
  9  8  1  0  0  0  0
 10 12  1  0  0  0  0
 10  8  2  0  0  0  0
 11 10  1  0  0  0  0
 12  3  2  0  0  0  0
 13 15  2  0  0  0  0
 13 12  1  0  0  0  0
 14 13  1  0  0  0  0
 15 17  1  0  0  0  0
 16 15  1  0  0  0  0
 17 18  1  0  0  0  0
 17  1  2  0  0  0  0
 18 19  1  0  0  0  0
 19 20  2  0  0  0  0
 19 23  1  0  0  0  0
 20 21  1  0  0  0  0
 22 20  1  0  0  0  0
 23 27  1  0  0  0  0
 23 25  1  0  0  0  0
 24 22  1  0  0  0  0
 24 28  1  0  0  0  0
 24 30  1  0  0  0  0
 26 23  1  0  0  0  0
 29 24  1  0  0  0  0
M  END
