2
q = -1.0

 24 25  0  0  0  0  0  0  0  0999 V2000
    1.5777   -2.0306    0.1807 N   0  0  0  0  0  0  0  0  0  0  0  0
    2.0734    0.6724   -0.0710 N   0  0  0  0  0  0  0  0  0  0  0  0
    1.2503   -3.3281    0.1960 C   0  0  0  0  0  0  0  0  0  0  0  0
    0.1836   -3.5567    0.3713 H   0  0  0  0  0  0  0  0  0  0  0  0
    2.1842   -4.3566    0.0085 C   0  0  0  0  0  0  0  0  0  0  0  0
    1.8725   -5.4106    0.0401 H   0  0  0  0  0  0  0  0  0  0  0  0
    3.5175   -3.9860   -0.2315 C   0  0  0  0  0  0  0  0  0  0  0  0
    4.2887   -4.7520   -0.4052 H   0  0  0  0  0  0  0  0  0  0  0  0
    3.8648   -2.6331   -0.2658 C   0  0  0  0  0  0  0  0  0  0  0  0
    4.8949   -2.3365   -0.4897 H   0  0  0  0  0  0  0  0  0  0  0  0
    2.8637   -1.6556   -0.0372 C   0  0  0  0  0  0  0  0  0  0  0  0
    3.1264   -0.2108   -0.0403 C   0  0  0  0  0  3  0  0  0  0  0  0
    4.3366    0.5399   -0.0092 C   0  0  0  0  0  0  0  0  0  0  0  0
    3.9790    1.9088   -0.0256 C   0  0  0  0  0  0  0  0  0  0  0  0
    4.6592    2.7651   -0.0001 H   0  0  0  0  0  0  0  0  0  0  0  0
    2.5807    1.9423   -0.0676 C   0  0  0  0  0  0  0  0  0  0  0  0
    5.7473    0.0687    0.0930 C   0  0  0  0  0  0  0  0  0  0  0  0
    1.7020    3.1468   -0.0958 C   0  0  0  0  0  0  0  0  0  0  0  0
    5.9441   -0.7886    1.1336 F   0  0  0  0  0  0  0  0  0  0  0  0
    6.1718   -0.6024   -1.0261 F   0  0  0  0  0  0  0  0  0  0  0  0
    6.6040    1.1029    0.2626 F   0  0  0  0  0  0  0  0  0  0  0  0
    0.8691    3.1731   -1.1748 F   0  0  0  0  0  0  0  0  0  0  0  0
    0.8827    3.2257    1.0007 F   0  0  0  0  0  0  0  0  0  0  0  0
    2.4355    4.2814   -0.1234 F   0  0  0  0  0  0  0  0  0  0  0  0
  1  3  1  0  0  0  0
  2 16  2  0  0  0  0
  2 12  1  0  0  0  0
  3  4  1  0  0  0  0
  5  6  1  0  0  0  0
  5  3  2  0  0  0  0
  7  5  1  0  0  0  0
  8  7  1  0  0  0  0
  9  7  2  0  0  0  0
  9 11  1  0  0  0  0
 10  9  1  0  0  0  0
 11  1  2  0  0  0  0
 12 11  1  0  0  0  0
 12 13  1  0  0  0  0
 13 17  1  0  0  0  0
 14 13  2  0  0  0  0
 14 15  1  0  0  0  0
 16 14  1  0  0  0  0
 17 21  1  0  0  0  0
 17 19  1  0  0  0  0
 18 16  1  0  0  0  0
 18 23  1  0  0  0  0
 20 17  1  0  0  0  0
 22 18  1  0  0  0  0
 24 18  1  0  0  0  0
M  END
