1
q = -1.0, confidence = 0.008

 34 36  0  0  0  0  0  0  0  0999 V2000
   -2.2803    0.8051    0.0412 N   0  0  0  0  0  0  0  0  0  0  0  0
   -1.6894   -1.9470    0.0627 N   0  0  0  0  0  0  0  0  0  0  0  0
   -2.8828    2.0182    0.2578 C   0  0  0  0  0  3  0  0  0  0  0  0
   -4.2735    1.8726    0.2928 C   0  0  0  0  0  0  0  0  0  0  0  0
   -5.0133    2.6593    0.4672 H   0  0  0  0  0  0  0  0  0  0  0  0
   -4.5283    0.4978    0.0768 C   0  0  0  0  0  0  0  0  0  0  0  0
   -3.2678   -0.1415   -0.0798 C   0  0  0  0  0  0  0  0  0  0  0  0
   -2.9260   -1.5504   -0.3139 C   0  0  0  0  0  0  0  0  0  0  0  0
   -3.8300   -2.4509   -0.9297 C   0  0  0  0  0  0  0  0  0  0  0  0
   -4.8095   -2.1050   -1.2790 H   0  0  0  0  0  0  0  0  0  0  0  0
   -3.4372   -3.7788   -1.1076 C   0  0  0  0  0  0  0  0  0  0  0  0
   -4.1265   -4.4995   -1.5732 H   0  0  0  0  0  0  0  0  0  0  0  0
   -2.1630   -4.1863   -0.6921 C   0  0  0  0  0  0  0  0  0  0  0  0
   -1.8470   -5.2343   -0.7866 H   0  0  0  0  0  0  0  0  0  0  0  0
   -1.3035   -3.2258   -0.1165 C   0  0  0  0  0  0  0  0  0  0  0  0
    0.0575   -3.5945    0.3571 C   0  0  0  0  0  0  0  0  0  0  0  0
    0.7931   -4.6365   -0.2515 C   0  0  0  0  0  0  0  0  0  0  0  0
    0.3665   -5.1742   -1.1115 H   0  0  0  0  0  0  0  0  0  0  0  0
    2.0786   -4.9646    0.2027 C   0  0  0  0  0  0  0  0  0  0  0  0
    2.6444   -5.7680   -0.2934 H   0  0  0  0  0  0  0  0  0  0  0  0
    2.6463   -4.2644    1.2797 C   0  0  0  0  0  0  0  0  0  0  0  0
    3.6559   -4.5190    1.6361 H   0  0  0  0  0  0  0  0  0  0  0  0
    1.9202   -3.2338    1.8984 C   0  0  0  0  0  0  0  0  0  0  0  0
    2.3577   -2.6820    2.7429 H   0  0  0  0  0  0  0  0  0  0  0  0
    0.6415   -2.8959    1.4372 C   0  0  0  0  0  0  0  0  0  0  0  0
    0.0688   -2.0835    1.9071 H   0  0  0  0  0  0  0  0  0  0  0  0
   -2.1170    3.2921    0.3555 C   0  0  0  0  0  0  0  0  0  0  0  0
   -5.8934   -0.1006    0.1078 C   0  0  0  0  0  0  0  0  0  0  0  0
   -1.1225    3.2532    1.2887 F   0  0  0  0  0  0  0  0  0  0  0  0
   -1.5009    3.6257   -0.8253 F   0  0  0  0  0  0  0  0  0  0  0  0
   -2.9292    4.3230    0.6750 F   0  0  0  0  0  0  0  0  0  0  0  0
   -6.8114    0.7864    0.5603 F   0  0  0  0  0  0  0  0  0  0  0  0
   -6.3325   -0.5028   -1.1303 F   0  0  0  0  0  0  0  0  0  0  0  0
   -5.9697   -1.2014    0.9031 F   0  0  0  0  0  0  0  0  0  0  0  0
  1  3  1  0  0  0  0
  3  4  1  0  0  0  0
  3 27  1  0  0  0  0
  4  5  1  0  0  0  0
  6 28  1  0  0  0  0
  6  4  2  0  0  0  0
  7  1  2  0  0  0  0
  7  6  1  0  0  0  0
  8  7  1  0  0  0  0
  8  2  2  0  0  0  0
  9  8  1  0  0  0  0
 10  9  1  0  0  0  0
 11  9  2  0  0  0  0
 11 13  1  0  0  0  0
 12 11  1  0  0  0  0
 13 15  2  0  0  0  0
 14 13  1  0  0  0  0
 15  2  1  0  0  0  0
 15 16  1  0  0  0  0
 16 25  1  0  0  0  0
 17 19  1  0  0  0  0
 17 16  2  0  0  0  0
 18 17  1  0  0  0  0
 19 21  2  0  0  0  0
 20 19  1  0  0  0  0
 21 22  1  0  0  0  0
 21 23  1  0  0  0  0
 23 24  1  0  0  0  0
 25 23  2  0  0  0  0
 25 26  1  0  0  0  0
 27 31  1  0  0  0  0
 27 29  1  0  0  0  0
 28 32  1  0  0  0  0
 28 34  1  0  0  0  0
 30 27  1  0  0  0  0
 33 28  1  0  0  0  0
M  END
