5
q = -1.0

 19 20  0  0  0  0  0  0  0  0999 V2000
   -6.6238   -0.2822    0.0057 O   0  0  0  0  0  0  0  0  0  0  0  0
   -5.1050    1.4696   -0.1529 N   0  0  0  0  0  0  0  0  0  0  0  0
   -2.7143    1.1423   -0.1189 N   0  0  0  0  0  0  0  0  0  0  0  0
   -4.1842   -2.1318    0.1796 N   0  0  0  0  0  0  0  0  0  0  0  0
   -2.0872   -1.2103    0.0988 N   0  0  0  0  0  0  0  0  0  0  0  0
   -3.8213    1.8891   -0.1895 C   0  0  0  0  0  0  0  0  0  0  0  0
   -3.6762    2.9801   -0.2902 H   0  0  0  0  0  0  0  0  0  0  0  0
   -2.9887   -0.1738    0.0015 C   0  0  0  0  0  0  0  0  0  0  0  0
   -4.2840   -0.7618    0.0531 C   0  0  0  0  0  0  0  0  0  0  0  0
   -5.3573    0.1603   -0.0332 C   0  0  0  0  0  3  0  0  0  0  0  0
   -7.6692    0.7008   -0.0863 C   0  0  0  0  0  0  0  0  0  0  0  0
   -7.5529    1.2732   -1.0317 H   0  0  0  0  0  0  0  0  0  0  0  0
   -7.5548    1.4370    0.7382 H   0  0  0  0  0  0  0  0  0  0  0  0
   -2.8722   -2.3426    0.2017 C   0  0  0  0  0  0  0  0  0  0  0  0
   -2.4151   -3.3383    0.2943 H   0  0  0  0  0  0  0  0  0  0  0  0
   -8.9927   -0.0349   -0.0197 C   0  0  0  0  0  0  0  0  0  0  0  0
   -9.8325    0.6849   -0.0873 H   0  0  0  0  0  0  0  0  0  0  0  0
   -9.0877   -0.5941    0.9323 H   0  0  0  0  0  0  0  0  0  0  0  0
   -9.0857   -0.7594   -0.8530 H   0  0  0  0  0  0  0  0  0  0  0  0
  2 10  1  0  0  0  0
  3  8  2  0  0  0  0
  4 14  1  0  0  0  0
  5 14  2  0  0  0  0
  6  2  2  0  0  0  0
  6  3  1  0  0  0  0
  7  6  1  0  0  0  0
  8  9  1  0  0  0  0
  8  5  1  0  0  0  0
  9  4  2  0  0  0  0
 10  1  1  0  0  0  0
 10  9  1  0  0  0  0
 11 16  1  0  0  0  0
 11  1  1  0  0  0  0
 11 13  1  0  0  0  0
 12 11  1  0  0  0  0
 14 15  1  0  0  0  0
 16 18  1  0  0  0  0
 17 16  1  0  0  0  0
 19 16  1  0  0  0  0
M  END
