15
q = -1.0, confidence = 0.0

 20 21  0  0  0  0  0  0  0  0999 V2000
   -6.4482   -0.0881    0.0103 O   0  0  0  0  0  0  0  0  0  0  0  0
   -4.8920    1.6334    0.1466 N   0  0  0  0  0  0  0  0  0  0  0  0
   -3.5980    2.0229    0.1756 C   0  0  0  0  0  0  0  0  0  0  0  0
   -3.4269    3.1111    0.2639 H   0  0  0  0  0  0  0  0  0  0  0  0
   -2.5097    1.2488    0.1107 N   0  0  0  0  0  0  0  0  0  0  0  0
   -2.8142   -0.0617    0.0053 C   0  0  0  0  0  0  0  0  0  0  0  0
   -4.1233   -0.6190   -0.0369 C   0  0  0  0  0  3  0  0  0  0  0  0
   -5.1720    0.3297    0.0418 C   0  0  0  0  0  0  0  0  0  0  0  0
   -4.0584   -1.9919   -0.1483 N   0  0  0  0  0  0  0  0  0  0  0  0
   -7.4707    0.9038    0.0936 C   0  0  0  0  0  0  0  0  0  0  0  0
   -7.3520    1.6425   -0.7324 H   0  0  0  0  0  0  0  0  0  0  0  0
   -7.3492    1.4975    1.0289 H   0  0  0  0  0  0  0  0  0  0  0  0
   -2.7517   -2.2348   -0.1708 C   0  0  0  0  0  0  0  0  0  0  0  0
   -2.3194   -3.2423   -0.2533 H   0  0  0  0  0  0  0  0  0  0  0  0
   -1.9389   -1.1210   -0.0823 N   0  0  0  0  0  0  0  0  0  0  0  0
   -8.8132    0.2429    0.0413 C   0  0  0  0  0  0  0  0  0  0  0  0
   -9.6652    0.9436    0.1009 H   0  0  0  0  0  0  0  0  0  0  0  0
   -9.0255   -1.0785   -0.0679 C   0  0  0  0  0  0  0  0  0  0  0  0
   -8.1796   -1.7803   -0.1276 H   0  0  0  0  0  0  0  0  0  0  0  0
  -10.0461   -1.4890   -0.1001 H   0  0  0  0  0  0  0  0  0  0  0  0
  1  8  1  0  0  0  0
  1 10  1  0  0  0  0
  2  3  1  0  0  0  0
  3  4  1  0  0  0  0
  5  3  2  0  0  0  0
  6  5  1  0  0  0  0
  7  6  1  0  0  0  0
  7  8  1  0  0  0  0
  8  2  2  0  0  0  0
  9  7  1  0  0  0  0
 10 12  1  0  0  0  0
 11 10  1  0  0  0  0
 13  9  2  0  0  0  0
 13 15  1  0  0  0  0
 14 13  1  0  0  0  0
 15  6  2  0  0  0  0
 16 10  1  0  0  0  0
 16 17  1  0  0  0  0
 18 16  2  0  0  0  0
 19 18  1  0  0  0  0
 20 18  1  0  0  0  0
M  END
