5
q = -1.0

 25 26  0  0  0  0  0  0  0  0999 V2000
   -7.5968   -0.9468   -0.6290 F   0  0  0  0  0  0  0  0  0  0  0  0
    1.6738    6.5683   -0.2165 F   0  0  0  0  0  0  0  0  0  0  0  0
   -2.1333    0.0474   -0.2722 N   0  0  0  0  0  2  0  0  0  0  0  0
   -1.7406    1.2765   -0.2830 N   0  0  0  0  0  2  0  0  0  0  0  0
   -0.4454    1.4231   -0.1438 N   0  0  0  0  0  2  0  0  0  0  0  0
    0.0342    2.7377   -0.1700 C   0  0  0  0  0  0  0  0  0  0  0  0
    1.3761    2.9609    0.2237 C   0  0  0  0  0  0  0  0  0  0  0  0
    1.9349    4.2447    0.2103 C   0  0  0  0  0  0  0  0  0  0  0  0
    1.1446    5.3260   -0.1968 C   0  0  0  0  0  0  0  0  0  0  0  0
   -0.1889    5.1378   -0.5887 C   0  0  0  0  0  0  0  0  0  0  0  0
   -0.7426    3.8536   -0.5778 C   0  0  0  0  0  0  0  0  0  0  0  0
   -3.5230   -0.1244   -0.3648 C   0  0  0  0  0  0  0  0  0  0  0  0
   -3.9887   -1.4532   -0.5204 C   0  0  0  0  0  0  0  0  0  0  0  0
   -5.3565   -1.7370   -0.6119 C   0  0  0  0  0  0  0  0  0  0  0  0
   -6.2752   -0.6828   -0.5452 C   0  0  0  0  0  0  0  0  0  0  0  0
   -5.8479    0.6439   -0.3871 C   0  0  0  0  0  0  0  0  0  0  0  0
   -4.4806    0.9210   -0.2959 C   0  0  0  0  0  0  0  0  0  0  0  0
    1.9694    2.0901    0.5433 H   0  0  0  0  0  0  0  0  0  0  0  0
    2.9768    4.4190    0.5157 H   0  0  0  0  0  0  0  0  0  0  0  0
   -0.7797    6.0090   -0.9078 H   0  0  0  0  0  0  0  0  0  0  0  0
   -1.7824    3.6884   -0.8881 H   0  0  0  0  0  0  0  0  0  0  0  0
   -3.2485   -2.2654   -0.5736 H   0  0  0  0  0  0  0  0  0  0  0  0
   -5.7241   -2.7659   -0.7352 H   0  0  0  0  0  0  0  0  0  0  0  0
   -6.6006    1.4443   -0.3321 H   0  0  0  0  0  0  0  0  0  0  0  0
   -4.1270    1.9525   -0.1642 H   0  0  0  0  0  0  0  0  0  0  0  0
  1 15  1  0  0  0  0
  2  9  1  0  0  0  0
  4  3  1  0  0  0  0
  4  5  1  0  0  0  0
  6  5  1  0  0  0  0
  6  7  1  0  0  0  0
  7 18  1  0  0  0  0
  8  7  2  0  0  0  0
  8 19  1  0  0  0  0
  9  8  1  0  0  0  0
 10 11  1  0  0  0  0
 10  9  2  0  0  0  0
 11  6  2  0  0  0  0
 12 17  1  0  0  0  0
 12  3  1  0  0  0  0
 13 12  2  0  0  0  0
 14 15  2  0  0  0  0
 14 13  1  0  0  0  0
 15 16  1  0  0  0  0
 16 24  1  0  0  0  0
 16 17  2  0  0  0  0
 17 25  1  0  0  0  0
 20 10  1  0  0  0  0
 21 11  1  0  0  0  0
 22 13  1  0  0  0  0
 23 14  1  0  0  0  0
M  END
