1
q = 0.0, confidence = 0.998

 28 29  0  0  0  0  0  0  0  0999 V2000
   -1.7195   -1.0049   -0.3257 N   0  0  0  0  0  2  0  0  0  0  0  0
   -2.4198   -0.5246    0.7243 C   0  0  0  0  0  3  0  0  0  0  0  0
   -2.1679   -0.9601    1.7076 H   0  0  0  0  0  0  0  0  0  0  0  0
   -3.4091    0.4478    0.5875 C   0  0  0  0  0  0  0  0  0  0  0  0
   -3.9393    0.7953    1.4854 H   0  0  0  0  0  0  0  0  0  0  0  0
   -3.7160    0.9689   -0.6951 C   0  0  0  0  0  0  0  0  0  0  0  0
   -2.9697    0.4450   -1.7793 C   0  0  0  0  0  0  0  0  0  0  0  0
   -3.1589    0.7993   -2.8038 H   0  0  0  0  0  0  0  0  0  0  0  0
   -1.9941   -0.5289   -1.5558 C   0  0  0  0  0  0  0  0  0  0  0  0
   -1.4071   -0.9655   -2.3834 H   0  0  0  0  0  0  0  0  0  0  0  0
   -4.7347    1.9848   -0.9441 C   0  0  0  0  0  0  0  0  0  0  0  0
   -4.8306    2.2924   -1.9984 H   0  0  0  0  0  0  0  0  0  0  0  0
   -5.5497    2.5455   -0.0065 C   0  0  0  0  0  0  0  0  0  0  0  0
   -5.4421    2.1950    1.0315 H   0  0  0  0  0  0  0  0  0  0  0  0
   -6.5723    3.5686   -0.2215 C   0  0  0  0  0  0  0  0  0  0  0  0
   -6.7328    4.2003   -1.4804 C   0  0  0  0  0  0  0  0  0  0  0  0
   -6.0661    3.9247   -2.3106 H   0  0  0  0  0  0  0  0  0  0  0  0
   -7.7097    5.1750   -1.6917 C   0  0  0  0  0  0  0  0  0  0  0  0
   -7.8091    5.6493   -2.6795 H   0  0  0  0  0  0  0  0  0  0  0  0
   -8.5575    5.5470   -0.6354 C   0  0  0  0  0  0  0  0  0  0  0  0
   -9.3312    6.3148   -0.7867 H   0  0  0  0  0  0  0  0  0  0  0  0
   -8.4119    4.9366    0.6177 C   0  0  0  0  0  0  0  0  0  0  0  0
   -9.0773    5.2295    1.4448 H   0  0  0  0  0  0  0  0  0  0  0  0
   -7.4346    3.9515    0.8533 C   0  0  0  0  0  0  0  0  0  0  0  0
   -7.3283    3.3237    2.2216 C   0  0  0  0  0  0  0  0  0  0  0  0
   -8.0822    3.7510    2.9094 H   0  0  0  0  0  0  0  0  0  0  0  0
   -6.3306    3.4896    2.6796 H   0  0  0  0  0  0  0  0  0  0  0  0
   -7.4908    2.2264    2.1893 H   0  0  0  0  0  0  0  0  0  0  0  0
  1  2  1  0  0  0  0
  2  3  1  0  0  0  0
  4  2  1  0  0  0  0
  4  5  1  0  0  0  0
  6  4  2  0  0  0  0
  7  9  2  0  0  0  0
  7  6  1  0  0  0  0
  8  7  1  0  0  0  0
  9  1  1  0  0  0  0
 10  9  1  0  0  0  0
 11  6  1  0  0  0  0
 11 13  2  0  0  0  0
 12 11  1  0  0  0  0
 13 14  1  0  0  0  0
 15 13  1  0  0  0  0
 15 24  1  0  0  0  0
 16 15  2  0  0  0  0
 17 16  1  0  0  0  0
 18 16  1  0  0  0  0
 18 20  2  0  0  0  0
 19 18  1  0  0  0  0
 20 22  1  0  0  0  0
 21 20  1  0  0  0  0
 22 24  2  0  0  0  0
 22 23  1  0  0  0  0
 24 25  1  0  0  0  0
 25 27  1  0  0  0  0
 25 26  1  0  0  0  0
 28 25  1  0  0  0  0
M  END
