3
q = 0.0, confidence = 1.0

 31 31  0  0  0  0  0  0  0  0999 V2000
   -2.7239   -0.3530    0.9316 S   0  0  0  0  0  0  0  0  0  0  0  0
    6.2713   -0.3417   -0.0875 O   0  0  0  0  0  0  0  0  0  0  0  0
   -0.1911   -1.3638   -0.2396 N   0  0  0  0  0  2  0  0  0  0  0  0
   -1.3119   -2.1584   -0.4091 N   0  0  0  0  0  0  0  0  0  0  0  0
   -1.1406   -3.1034   -0.7731 H   0  0  0  0  0  0  0  0  0  0  0  0
   -3.5100   -2.7535    0.0232 N   0  0  0  0  0  0  0  0  0  0  0  0
   -3.3393   -3.6009   -0.5234 H   0  0  0  0  0  0  0  0  0  0  0  0
    7.2617   -0.5893   -1.0825 C   0  0  0  0  0  0  0  0  0  0  0  0
    7.0207   -0.0662   -2.0327 H   0  0  0  0  0  0  0  0  0  0  0  0
    7.3750   -1.6771   -1.2774 H   0  0  0  0  0  0  0  0  0  0  0  0
    8.2089   -0.1914   -0.6777 H   0  0  0  0  0  0  0  0  0  0  0  0
    5.0039   -0.7260   -0.3061 C   0  0  0  0  0  0  0  0  0  0  0  0
    4.0879   -0.4752    0.7497 C   0  0  0  0  0  0  0  0  0  0  0  0
    4.4775   -0.0255    1.6745 H   0  0  0  0  0  0  0  0  0  0  0  0
    2.7494   -0.8214    0.6276 C   0  0  0  0  0  0  0  0  0  0  0  0
    2.0521   -0.6583    1.4658 H   0  0  0  0  0  0  0  0  0  0  0  0
    2.2746   -1.4450   -0.5608 C   0  0  0  0  0  0  0  0  0  0  0  0
    3.2077   -1.7399   -1.5878 C   0  0  0  0  0  0  0  0  0  0  0  0
    2.8685   -2.2557   -2.5001 H   0  0  0  0  0  0  0  0  0  0  0  0
    4.5493   -1.3703   -1.4828 C   0  0  0  0  0  0  0  0  0  0  0  0
    5.2392   -1.5984   -2.3053 H   0  0  0  0  0  0  0  0  0  0  0  0
    0.9105   -1.8895   -0.7340 C   0  0  0  0  0  3  0  0  0  0  0  0
    0.7813   -2.8028   -1.3530 H   0  0  0  0  0  0  0  0  0  0  0  0
   -2.5190   -1.8473    0.1364 C   0  0  0  0  0  0  0  0  0  0  0  0
   -4.8838   -2.5182    0.4781 C   0  0  0  0  0  0  0  0  0  0  0  0
   -4.8215   -1.9265    1.4145 H   0  0  0  0  0  0  0  0  0  0  0  0
   -5.3056   -3.5056    0.7524 H   0  0  0  0  0  0  0  0  0  0  0  0
   -5.7541   -1.8126   -0.5603 C   0  0  0  0  0  0  0  0  0  0  0  0
   -5.3369   -0.8184   -0.8162 H   0  0  0  0  0  0  0  0  0  0  0  0
   -6.7740   -1.6608   -0.1559 H   0  0  0  0  0  0  0  0  0  0  0  0
   -5.8435   -2.4091   -1.4902 H   0  0  0  0  0  0  0  0  0  0  0  0
  4  3  1  0  0  0  0
  4 24  1  0  0  0  0
  5  4  1  0  0  0  0
  6 24  1  0  0  0  0
  6 25  1  0  0  0  0
  7  6  1  0  0  0  0
  8 11  1  0  0  0  0
  8  2  1  0  0  0  0
  9  8  1  0  0  0  0
 10  8  1  0  0  0  0
 12  2  1  0  0  0  0
 12 13  1  0  0  0  0
 13 14  1  0  0  0  0
 15 13  2  0  0  0  0
 15 16  1  0  0  0  0
 17 15  1  0  0  0  0
 18 20  1  0  0  0  0
 18 17  2  0  0  0  0
 19 18  1  0  0  0  0
 20 12  2  0  0  0  0
 21 20  1  0  0  0  0
 22 17  1  0  0  0  0
 22  3  1  0  0  0  0
 23 22  1  0  0  0  0
 24  1  2  0  0  0  0
 25 27  1  0  0  0  0
 25 26  1  0  0  0  0
 28 30  1  0  0  0  0
 28 25  1  0  0  0  0
 29 28  1  0  0  0  0
 31 28  1  0  0  0  0
M  END
