3
q = 0, confidence = 1.0

 23 25  0  0  1  0  0  0  0  0999 V2000
   -2.6358    0.9483    0.2352 P   0  0  1  0  0  0  0  0  0  0  0  0
   -3.4632    2.1771    0.5359 O   0  0  0  0  0  0  0  0  0  0  0  0
   -0.1061   -0.1676    0.0313 N   0  0  1  0  0  0  0  0  0  0  0  0
   -1.9090   -1.6315    0.8551 N   0  0  2  0  0  0  0  0  0  0  0  0
   -1.8337   -1.0090   -1.5182 N   0  0  1  0  0  0  0  0  0  0  0  0
   -0.7860    1.1190    0.3471 C   0  0  0  0  0  0  0  0  0  0  0  0
   -0.4162    1.9043   -0.3461 H   0  0  0  0  0  0  0  0  0  0  0  0
   -0.5083    1.4369    1.3741 H   0  0  0  0  0  0  0  0  0  0  0  0
   -2.8355   -0.5748    1.2948 C   0  0  0  0  0  0  0  0  0  0  0  0
   -2.6426   -0.3050    2.3551 H   0  0  0  0  0  0  0  0  0  0  0  0
   -3.8848   -0.9331    1.2322 H   0  0  0  0  0  0  0  0  0  0  0  0
   -2.7458    0.1450   -1.4449 C   0  0  0  0  0  0  0  0  0  0  0  0
   -3.7917   -0.1781   -1.6316 H   0  0  0  0  0  0  0  0  0  0  0  0
   -2.4872    0.8940   -2.2232 H   0  0  0  0  0  0  0  0  0  0  0  0
   -0.5169   -1.2493    0.9905 C   0  0  0  0  0  0  0  0  0  0  0  0
    0.1453   -2.1152    0.7852 H   0  0  0  0  0  0  0  0  0  0  0  0
   -0.3114   -0.8882    2.0182 H   0  0  0  0  0  0  0  0  0  0  0  0
   -0.4452   -0.6313   -1.3616 C   0  0  0  0  0  0  0  0  0  0  0  0
   -0.1721    0.1841   -2.0615 H   0  0  0  0  0  0  0  0  0  0  0  0
    0.2080   -1.5064   -1.5607 H   0  0  0  0  0  0  0  0  0  0  0  0
   -2.1666   -2.0444   -0.5305 C   0  0  0  0  0  0  0  0  0  0  0  0
   -3.2340   -2.3234   -0.6378 H   0  0  0  0  0  0  0  0  0  0  0  0
   -1.5460   -2.9380   -0.7457 H   0  0  0  0  0  0  0  0  0  0  0  0
  1  6  1  0  0  0  0
  1  2  2  1  0  0  0
  1  9  1  0  0  0  0
  3 18  1  6  0  0  0
  3  6  1  0  0  0  0
  3 15  1  0  0  0  0
  4 21  1  6  0  0  0
  4 15  1  0  0  0  0
  4  9  1  0  0  0  0
  5 12  1  1  0  0  0
  5 18  1  0  0  0  0
  5 21  1  0  0  0  0
  6  8  1  0  0  0  0
  7  6  1  0  0  0  0
  9 10  1  0  0  0  0
 11  9  1  0  0  0  0
 12  1  1  0  0  0  0
 13 12  1  0  0  0  0
 14 12  1  0  0  0  0
 15 17  1  0  0  0  0
 16 15  1  0  0  0  0
 19 18  1  0  0  0  0
 20 18  1  0  0  0  0
 22 21  1  0  0  0  0
 23 21  1  0  0  0  0
M  END
