1
q = 0.0, confidence = 0.988

 10  9  0  0  0  0  0  0  0  0999 V2000
   -2.2482   -0.3799    0.4582 N   0  0  0  0  0  0  0  0  0  0  0  0
   -3.1035   -0.9291   -0.6108 C   0  0  0  0  0  0  0  0  0  0  0  0
   -2.8832    0.7652    1.1332 C   0  0  0  0  0  0  0  0  0  0  0  0
   -2.1143   -1.1229    1.1616 H   0  0  0  0  0  0  0  0  0  0  0  0
   -2.6340   -1.8448   -1.0138 H   0  0  0  0  0  0  0  0  0  0  0  0
   -4.1222   -1.1667   -0.2310 H   0  0  0  0  0  0  0  0  0  0  0  0
   -3.1873   -0.1938   -1.4330 H   0  0  0  0  0  0  0  0  0  0  0  0
   -3.8906    0.5022    1.5268 H   0  0  0  0  0  0  0  0  0  0  0  0
   -2.2429    1.1004    1.9700 H   0  0  0  0  0  0  0  0  0  0  0  0
   -3.0015    1.5978    0.4149 H   0  0  0  0  0  0  0  0  0  0  0  0
  1  3  1  0  0  0  0
  1  4  1  0  0  0  0
  2  6  1  0  0  0  0
  2  1  1  0  0  0  0
  3  8  1  0  0  0  0
  3  9  1  0  0  0  0
  5  2  1  0  0  0  0
  7  2  1  0  0  0  0
 10  3  1  0  0  0  0
M  END
