1
q = -2.0, confidence = 0.986

 59 65  0  0  1  0  0  0  0  0999 V2000
    0.2697    0.7595   -0.0000 N   0  0  0  0  0  2  0  0  0  0  0  0
    2.5940    0.5297    0.0000 N   0  0  0  0  0  0  0  0  0  0  0  0
    0.3821   -2.0866   -1.4389 B   0  0  0  0  0  2  0  0  0  0  0  0
    0.2792   -1.3216   -2.3628 H   0  0  0  0  0  0  0  0  0  0  0  0
   -0.8796   -3.1931   -0.8843 B   0  0  1  0  0  0  0  0  0  0  0  0
   -1.9056   -3.2354   -1.5173 H   0  0  0  0  0  0  0  0  0  0  0  0
   -0.8797   -3.1931    0.8842 B   0  0  1  0  0  0  0  0  0  0  0  0
   -1.9057   -3.2355    1.5171 H   0  0  0  0  0  0  0  0  0  0  0  0
    0.3820   -2.0866    1.4389 B   0  0  0  0  0  0  0  0  0  0  0  0
    0.2791   -1.3217    2.3628 H   0  0  0  0  0  0  0  0  0  0  0  0
    1.9559   -2.7180    0.8915 B   0  0  1  0  0  0  0  0  0  0  0  0
    2.9276   -2.4034    1.5295 H   0  0  0  0  0  0  0  0  0  0  0  0
    1.9559   -2.7180   -0.8915 B   0  0  2  0  0  0  0  0  0  0  0  0
    2.9277   -2.4034   -1.5294 H   0  0  0  0  0  0  0  0  0  0  0  0
    0.6853   -3.8331   -1.4474 B   0  0  0  0  0  0  0  0  0  0  0  0
    0.7858   -4.4154   -2.5023 H   0  0  0  0  0  0  0  0  0  0  0  0
   -0.1001   -4.5296   -0.0000 B   0  0  2  0  0  0  0  0  0  0  0  0
   -0.5804   -5.6400   -0.0001 H   0  0  0  0  0  0  0  0  0  0  0  0
    0.6852   -3.8331    1.4474 B   0  0  0  0  0  0  0  0  0  0  0  0
    0.7856   -4.4155    2.5022 H   0  0  0  0  0  0  0  0  0  0  0  0
    1.6615   -4.2292    0.0000 B   0  0  2  0  0  0  0  0  0  0  0  0
    2.4839   -5.1159    0.0000 H   0  0  0  0  0  0  0  0  0  0  0  0
   -0.5196   -1.7735   -0.0000 C   0  0  2  0  0  0  0  0  0  0  0  0
    1.1249   -1.5163    0.0000 C   0  0  1  0  0  0  0  0  0  0  0  0
    1.4362   -0.0264    0.0000 C   0  0  0  0  0  0  0  0  0  0  0  0
    0.4252    2.2304   -0.0000 C   0  0  0  0  0  0  0  0  0  0  0  0
   -0.6155    2.6085    0.0000 H   0  0  0  0  0  0  0  0  0  0  0  0
    1.0746    2.7956   -1.2773 C   0  0  0  0  0  0  0  0  0  0  0  0
    2.1250    2.4491   -1.3299 H   0  0  0  0  0  0  0  0  0  0  0  0
    0.5464    2.3849   -2.1639 H   0  0  0  0  0  0  0  0  0  0  0  0
    1.0208    4.3286   -1.2670 C   0  0  0  0  0  0  0  0  0  0  0  0
    1.5156    4.7323   -2.1750 H   0  0  0  0  0  0  0  0  0  0  0  0
   -0.0406    4.6669   -1.3173 H   0  0  0  0  0  0  0  0  0  0  0  0
    1.6675    4.9047   -0.0000 C   0  0  0  0  0  0  0  0  0  0  0  0
    1.6022    6.0131   -0.0000 H   0  0  0  0  0  0  0  0  0  0  0  0
    2.7513    4.6523   -0.0001 H   0  0  0  0  0  0  0  0  0  0  0  0
    1.0208    4.3286    1.2669 C   0  0  0  0  0  0  0  0  0  0  0  0
   -0.0405    4.6669    1.3173 H   0  0  0  0  0  0  0  0  0  0  0  0
    1.5158    4.7323    2.1749 H   0  0  0  0  0  0  0  0  0  0  0  0
    1.0747    2.7956    1.2772 C   0  0  0  0  0  0  0  0  0  0  0  0
    2.1251    2.4491    1.3297 H   0  0  0  0  0  0  0  0  0  0  0  0
    0.5466    2.3849    2.1639 H   0  0  0  0  0  0  0  0  0  0  0  0
    3.8779   -0.1263    0.0000 C   0  0  0  0  0  0  0  0  0  0  0  0
    3.8086   -1.2341    0.0000 H   0  0  0  0  0  0  0  0  0  0  0  0
    4.6584    0.2827    1.2650 C   0  0  0  0  0  0  0  0  0  0  0  0
    4.0902   -0.0416    2.1620 H   0  0  0  0  0  0  0  0  0  0  0  0
    4.7086    1.3937    1.3014 H   0  0  0  0  0  0  0  0  0  0  0  0
    6.0702   -0.3145    1.2663 C   0  0  0  0  0  0  0  0  0  0  0  0
    6.6194    0.0107    2.1747 H   0  0  0  0  0  0  0  0  0  0  0  0
    5.9974   -1.4236    1.3273 H   0  0  0  0  0  0  0  0  0  0  0  0
    6.8456    0.0716   -0.0000 C   0  0  0  0  0  0  0  0  0  0  0  0
    7.0173    1.1719   -0.0000 H   0  0  0  0  0  0  0  0  0  0  0  0
    7.8497   -0.4021    0.0000 H   0  0  0  0  0  0  0  0  0  0  0  0
    6.0702   -0.3146   -1.2663 C   0  0  0  0  0  0  0  0  0  0  0  0
    5.9973   -1.4237   -1.3273 H   0  0  0  0  0  0  0  0  0  0  0  0
    6.6194    0.0106   -2.1747 H   0  0  0  0  0  0  0  0  0  0  0  0
    4.6583    0.2826   -1.2650 C   0  0  0  0  0  0  0  0  0  0  0  0
    4.0902   -0.0417   -2.1620 H   0  0  0  0  0  0  0  0  0  0  0  0
    4.7086    1.3936   -1.3015 H   0  0  0  0  0  0  0  0  0  0  0  0
  1 25  1  0  0  0  0
  2 25  2  0  0  0  0
  2 43  1  0  0  0  0
  3  5  1  0  0  0  0
  4  3  1  0  0  0  0
  5  6  1  6  0  0  0
  5 23  1  0  0  0  0
  5  7  1  0  0  0  0
  7  9  1  0  0  0  0
  7  8  1  1  0  0  0
  9 10  1  0  0  0  0
 11 19  1  0  0  0  0
 11 12  1  1  0  0  0
 13 14  1  6  0  0  0
 13 21  1  0  0  0  0
 13 24  1  0  0  0  0
 15 13  1  0  0  0  0
 15 17  1  0  0  0  0
 16 15  1  0  0  0  0
 17 18  1  6  0  0  0
 17 21  1  0  0  0  0
 17 19  1  0  0  0  0
 19 20  1  0  0  0  0
 21 22  1  1  0  0  0
 21 11  1  0  0  0  0
 23 24  1  0  0  0  0
 23  7  1  0  0  0  0
 23  9  1  6  0  0  0
 24 25  1  1  0  0  0
 24 11  1  0  0  0  0
 26  1  1  0  0  0  0
 26 27  1  0  0  0  0
 26 40  1  0  0  0  0
 28 31  1  0  0  0  0
 28 26  1  0  0  0  0
 29 28  1  0  0  0  0
 30 28  1  0  0  0  0
 31 34  1  0  0  0  0
 32 31  1  0  0  0  0
 33 31  1  0  0  0  0
 34 35  1  0  0  0  0
 34 37  1  0  0  0  0
 36 34  1  0  0  0  0
 37 40  1  0  0  0  0
 37 38  1  0  0  0  0
 37 39  1  0  0  0  0
 40 41  1  0  0  0  0
 40 42  1  0  0  0  0
 43 44  1  0  0  0  0
 43 45  1  0  0  0  0
 45 48  1  0  0  0  0
 45 47  1  0  0  0  0
 45 46  1  0  0  0  0
 48 50  1  0  0  0  0
 48 49  1  0  0  0  0
 51 53  1  0  0  0  0
 51 48  1  0  0  0  0
 52 51  1  0  0  0  0
 54 57  1  0  0  0  0
 54 51  1  0  0  0  0
 55 54  1  0  0  0  0
 56 54  1  0  0  0  0
 57 43  1  0  0  0  0
 58 57  1  0  0  0  0
 59 57  1  0  0  0  0
M  END
