1
q = -2.0, confidence = 0.968

 45 51  0  0  1  0  0  0  0  0999 V2000
   -0.5476   -1.2695    0.0045 N   0  0  0  0  0  2  0  0  0  0  0  0
   -2.8535   -1.6336   -0.0013 N   0  0  0  0  0  0  0  0  0  0  0  0
   -0.4193    1.3795    0.0028 C   0  0  1  0  0  0  0  0  0  0  0  0
   -1.9466    0.7183    0.0005 C   0  0  1  0  0  0  0  0  0  0  0  0
   -1.3683    1.4582   -1.4371 B   0  0  2  0  0  0  0  0  0  0  0  0
   -1.0748    0.7447   -2.3615 H   0  0  0  0  0  0  0  0  0  0  0  0
   -0.4246    2.8450   -0.8799 B   0  0  1  0  0  0  0  0  0  0  0  0
    0.5595    3.1423   -1.5108 H   0  0  0  0  0  0  0  0  0  0  0  0
   -0.4275    2.8430    0.8888 B   0  0  1  0  0  0  0  0  0  0  0  0
    0.5537    3.1398    1.5250 H   0  0  0  0  0  0  0  0  0  0  0  0
   -1.3724    1.4553    1.4409 B   0  0  0  0  0  0  0  0  0  0  0  0
   -1.0810    0.7401    2.3645 H   0  0  0  0  0  0  0  0  0  0  0  0
   -3.0534    1.6727    0.8911 B   0  0  1  0  0  0  0  0  0  0  0  0
   -3.9166    1.1236    1.5262 H   0  0  0  0  0  0  0  0  0  0  0  0
   -3.0508    1.6745   -0.8917 B   0  0  2  0  0  0  0  0  0  0  0  0
   -3.9122    1.1268   -1.5304 H   0  0  0  0  0  0  0  0  0  0  0  0
   -2.0995    3.0730   -1.4450 B   0  0  1  0  0  0  0  0  0  0  0  0
   -2.3413    3.6127   -2.4996 H   0  0  0  0  0  0  0  0  0  0  0  0
   -1.5154    3.9424    0.0041 B   0  0  2  0  0  0  0  0  0  0  0  0
   -1.3288    5.1376    0.0056 H   0  0  0  0  0  0  0  0  0  0  0  0
   -2.1036    3.0701    1.4499 B   0  0  2  0  0  0  0  0  0  0  0  0
   -2.3480    3.6078    2.5049 H   0  0  0  0  0  0  0  0  0  0  0  0
   -3.1457    3.2106    0.0011 B   0  0  2  0  0  0  0  0  0  0  0  0
   -4.1639    3.8631    0.0003 H   0  0  0  0  0  0  0  0  0  0  0  0
   -1.8745   -0.8025    0.0008 C   0  0  0  0  0  0  0  0  0  0  0  0
   -0.3305   -2.7409    0.0103 C   0  0  0  0  0  0  0  0  0  0  0  0
    0.7710   -2.8343    0.0141 H   0  0  0  0  0  0  0  0  0  0  0  0
   -0.8273   -3.4182    1.2949 C   0  0  0  0  0  0  0  0  0  0  0  0
   -0.4437   -2.8841    2.1878 H   0  0  0  0  0  0  0  0  0  0  0  0
   -0.4544   -4.4624    1.3322 H   0  0  0  0  0  0  0  0  0  0  0  0
   -1.9309   -3.4296    1.3380 H   0  0  0  0  0  0  0  0  0  0  0  0
   -0.8196   -3.4275   -1.2724 C   0  0  0  0  0  0  0  0  0  0  0  0
   -1.9230   -3.4408   -1.3210 H   0  0  0  0  0  0  0  0  0  0  0  0
   -0.4448   -4.4712   -1.3010 H   0  0  0  0  0  0  0  0  0  0  0  0
   -0.4326   -2.8986   -2.1668 H   0  0  0  0  0  0  0  0  0  0  0  0
   -4.2700   -1.3293   -0.0058 C   0  0  0  0  0  0  0  0  0  0  0  0
   -4.4803   -0.2404   -0.0053 H   0  0  0  0  0  0  0  0  0  0  0  0
   -4.8877   -1.9268   -1.2778 C   0  0  0  0  0  0  0  0  0  0  0  0
   -4.4394   -1.4712   -2.1833 H   0  0  0  0  0  0  0  0  0  0  0  0
   -5.9806   -1.7419   -1.3022 H   0  0  0  0  0  0  0  0  0  0  0  0
   -4.7139   -3.0217   -1.3195 H   0  0  0  0  0  0  0  0  0  0  0  0
   -4.8963   -1.9296    1.2607 C   0  0  0  0  0  0  0  0  0  0  0  0
   -4.7230   -3.0246    1.3009 H   0  0  0  0  0  0  0  0  0  0  0  0
   -5.9894   -1.7445    1.2781 H   0  0  0  0  0  0  0  0  0  0  0  0
   -4.4540   -1.4762    2.1701 H   0  0  0  0  0  0  0  0  0  0  0  0
  1 26  1  0  0  0  0
  2 25  2  0  0  0  0
  3  9  1  0  0  0  0
  4 25  1  0  0  0  0
  4  3  1  0  0  0  0
  4 13  1  0  0  0  0
  5  7  1  0  0  0  0
  5  3  1  0  0  0  0
  6  5  1  0  0  0  0
  7  3  1  0  0  0  0
  7  9  1  0  0  0  0
  8  7  1  0  0  0  0
  9 11  1  0  0  0  0
  9 10  1  0  0  0  0
 11 21  1  0  0  0  0
 11 12  1  0  0  0  0
 13 21  1  0  0  0  0
 13 14  1  0  0  0  0
 15  4  1  0  0  0  0
 15 23  1  0  0  0  0
 16 15  1  0  0  0  0
 17  5  1  0  0  0  0
 17 15  1  0  0  0  0
 17 19  1  0  0  0  0
 18 17  1  0  0  0  0
 19 20  1  0  0  0  0
 19 21  1  0  0  0  0
 21 22  1  0  0  0  0
 23 19  1  0  0  0  0
 23 13  1  0  0  0  0
 24 23  1  0  0  0  0
 25  1  1  0  0  0  0
 26 27  1  0  0  0  0
 26 28  1  0  0  0  0
 28 30  1  0  0  0  0
 28 31  1  0  0  0  0
 28 29  1  0  0  0  0
 32 26  1  0  0  0  0
 33 32  1  0  0  0  0
 34 32  1  0  0  0  0
 35 32  1  0  0  0  0
 36 37  1  0  0  0  0
 36  2  1  0  0  0  0
 36 42  1  0  0  0  0
 38 36  1  0  0  0  0
 39 38  1  0  0  0  0
 40 38  1  0  0  0  0
 41 38  1  0  0  0  0
 42 44  1  0  0  0  0
 42 43  1  0  0  0  0
 42 45  1  0  0  0  0
M  END
