1
q = -1.0

 44 48  0  0  1  0  0  0  0  0999 V2000
    0.5537   -1.3074    0.2570 N   0  0  0  0  0  2  0  0  0  0  0  0
    2.8137   -1.6836   -0.3013 N   0  0  0  0  0  0  0  0  0  0  0  0
    2.5242   -2.6391   -0.5131 H   0  0  0  0  0  0  0  0  0  0  0  0
    0.5292    2.9411   -0.4133 B   0  0  1  0  0  0  0  0  0  0  0  0
   -0.4646    3.3536   -0.9521 H   0  0  0  0  0  0  0  0  0  0  0  0
    2.0762    2.9805   -1.2969 B   0  0  0  0  0  0  0  0  0  0  0  0
    2.1495    3.4295   -2.4136 H   0  0  0  0  0  0  0  0  0  0  0  0
    2.9378    1.4683   -0.9325 B   0  0  2  0  0  0  0  0  0  0  0  0
    3.5497    0.8359   -1.7539 H   0  0  0  0  0  0  0  0  0  0  0  0
    3.2910    1.4498    0.8368 B   0  0  1  0  0  0  0  0  0  0  0  0
    4.2326    0.8326    1.2612 H   0  0  0  0  0  0  0  0  0  0  0  0
    1.7170    1.3777    1.6854 B   0  0  2  0  0  0  0  0  0  0  0  0
    1.6020    0.6686    2.6564 H   0  0  0  0  0  0  0  0  0  0  0  0
    0.8380    2.8801    1.3296 B   0  0  0  0  0  0  0  0  0  0  0  0
    0.0827    3.3758    2.1322 H   0  0  0  0  0  0  0  0  0  0  0  0
    1.8722    3.8740    0.2469 B   0  0  0  0  0  0  0  0  0  0  0  0
    1.8422    5.0832    0.2535 H   0  0  0  0  0  0  0  0  0  0  0  0
    3.3821    2.9642   -0.0813 B   0  0  2  0  0  0  0  0  0  0  0  0
    4.4473    3.4961   -0.2903 H   0  0  0  0  0  0  0  0  0  0  0  0
    2.6146    2.9178    1.5488 B   0  0  2  0  0  0  0  0  0  0  0  0
    3.1447    3.4140    2.5160 H   0  0  0  0  0  0  0  0  0  0  0  0
    1.2180    1.5360   -1.0629 C   0  0  1  0  0  3  0  0  0  0  0  0
    1.9670    0.6213    0.1927 C   0  0  1  0  0  0  0  0  0  0  0  0
    1.7886   -0.8684    0.0703 C   0  0  1  0  0  3  0  0  0  0  0  0
    0.2322   -2.7486    0.3268 C   0  0  0  0  0  0  0  0  0  0  0  0
   -0.8023   -2.7502    0.7136 H   0  0  0  0  0  0  0  0  0  0  0  0
    1.0509   -3.5377    1.3623 C   0  0  0  0  0  0  0  0  0  0  0  0
    2.0822   -3.7883    1.0462 H   0  0  0  0  0  0  0  0  0  0  0  0
    0.5354   -4.4966    1.5706 H   0  0  0  0  0  0  0  0  0  0  0  0
    1.1181   -2.9709    2.3120 H   0  0  0  0  0  0  0  0  0  0  0  0
    0.1692   -3.4009   -1.0625 C   0  0  0  0  0  0  0  0  0  0  0  0
   -0.4432   -2.7739   -1.7397 H   0  0  0  0  0  0  0  0  0  0  0  0
   -0.2907   -4.4067   -0.9905 H   0  0  0  0  0  0  0  0  0  0  0  0
    1.1632   -3.5261   -1.5410 H   0  0  0  0  0  0  0  0  0  0  0  0
    4.2667   -1.5339   -0.1632 C   0  0  0  0  0  0  0  0  0  0  0  0
    4.4977   -0.4589   -0.2555 H   0  0  0  0  0  0  0  0  0  0  0  0
    4.9354   -2.2702   -1.3249 C   0  0  0  0  0  0  0  0  0  0  0  0
    4.6994   -3.3564   -1.3003 H   0  0  0  0  0  0  0  0  0  0  0  0
    6.0364   -2.1701   -1.2646 H   0  0  0  0  0  0  0  0  0  0  0  0
    4.5984   -1.8626   -2.2980 H   0  0  0  0  0  0  0  0  0  0  0  0
    4.7514   -2.0251    1.2063 C   0  0  0  0  0  0  0  0  0  0  0  0
    4.2343   -1.4858    2.0242 H   0  0  0  0  0  0  0  0  0  0  0  0
    5.8407   -1.8533    1.3183 H   0  0  0  0  0  0  0  0  0  0  0  0
    4.5637   -3.1121    1.3316 H   0  0  0  0  0  0  0  0  0  0  0  0
  1 25  1  0  0  0  0
  2 35  1  0  0  0  0
  2 24  1  0  0  0  0
  3  2  1  0  0  0  0
  4  5  1  6  0  0  0
  4 16  1  0  0  0  0
  4 14  1  0  0  0  0
  6 18  1  0  0  0  0
  7  6  1  0  0  0  0
  8  9  1  6  0  0  0
  8 18  1  0  0  0  0
  8 23  1  0  0  0  0
 10 11  1  1  0  0  0
 10 20  1  0  0  0  0
 12 13  1  1  0  0  0
 14 12  1  0  0  0  0
 14 15  1  0  0  0  0
 16 17  1  0  0  0  0
 16 20  1  0  0  0  0
 18 19  1  6  0  0  0
 18 10  1  0  0  0  0
 20 12  1  0  0  0  0
 20 21  1  1  0  0  0
 22  6  1  6  0  0  0
 22  8  1  0  0  0  0
 22  4  1  0  0  0  0
 23 24  1  6  0  0  0
 23 10  1  0  0  0  0
 23 12  1  0  0  0  0
 24  1  1  6  0  0  0
 25 26  1  0  0  0  0
 25 27  1  0  0  0  0
 27 29  1  0  0  0  0
 27 30  1  0  0  0  0
 28 27  1  0  0  0  0
 31 33  1  0  0  0  0
 31 25  1  0  0  0  0
 32 31  1  0  0  0  0
 34 31  1  0  0  0  0
 35 41  1  0  0  0  0
 36 35  1  0  0  0  0
 37 38  1  0  0  0  0
 37 39  1  0  0  0  0
 37 35  1  0  0  0  0
 40 37  1  0  0  0  0
 41 43  1  0  0  0  0
 41 44  1  0  0  0  0
 41 42  1  0  0  0  0
M  END
