1
q = -1.0

 34 35  0  0  1  0  0  0  0  0999 V2000
   -0.1398   -0.2355    1.3228 N   0  0  0  0  0  0  0  0  0  0  0  0
   -0.7122    0.3967    0.1590 C   0  0  2  0  0  3  0  0  0  0  0  0
   -0.3463    1.8437    0.1243 C   0  0  0  0  0  0  0  0  0  0  0  0
   -0.5374    2.6373   -1.0352 C   0  0  0  0  0  0  0  0  0  0  0  0
   -0.1195    3.9675   -1.0167 C   0  0  0  0  0  0  0  0  0  0  0  0
    0.4800    4.4893    0.1478 C   0  0  0  0  0  0  0  0  0  0  0  0
    0.6233    3.6350    1.2486 C   0  0  0  0  0  0  0  0  0  0  0  0
    0.2146    2.3561    1.2453 N   0  0  0  0  0  0  0  0  0  0  0  0
   -0.8750   -1.1519    2.2318 C   0  0  0  0  0  0  0  0  0  0  0  0
    0.1384   -1.8468    3.1388 C   0  0  0  0  0  0  0  0  0  0  0  0
   -1.9340   -0.3806    3.0235 C   0  0  0  0  0  0  0  0  0  0  0  0
   -2.1003    0.0120   -0.2742 C   0  0  0  0  0  0  0  0  0  0  0  0
   -3.1312    0.9821   -0.2626 C   0  0  0  0  0  0  0  0  0  0  0  0
   -4.4511    0.6482   -0.5983 C   0  0  0  0  0  0  0  0  0  0  0  0
   -4.7815   -0.6720   -0.9385 C   0  0  0  0  0  0  0  0  0  0  0  0
   -3.7741   -1.6490   -0.9439 C   0  0  0  0  0  0  0  0  0  0  0  0
   -2.4517   -1.3108   -0.6268 C   0  0  0  0  0  0  0  0  0  0  0  0
    0.2728    0.5562    1.8734 H   0  0  0  0  0  0  0  0  0  0  0  0
   -0.9883    2.1870   -1.9312 H   0  0  0  0  0  0  0  0  0  0  0  0
   -0.2505    4.6004   -1.9078 H   0  0  0  0  0  0  0  0  0  0  0  0
    0.8256    5.5315    0.1993 H   0  0  0  0  0  0  0  0  0  0  0  0
    1.0850    3.9971    2.1841 H   0  0  0  0  0  0  0  0  0  0  0  0
   -1.3683   -1.9113    1.5947 H   0  0  0  0  0  0  0  0  0  0  0  0
    0.8830   -2.4075    2.5424 H   0  0  0  0  0  0  0  0  0  0  0  0
    0.6764   -1.1077    3.7697 H   0  0  0  0  0  0  0  0  0  0  0  0
   -0.3757   -2.5571    3.8150 H   0  0  0  0  0  0  0  0  0  0  0  0
   -1.4641    0.4099    3.6454 H   0  0  0  0  0  0  0  0  0  0  0  0
   -2.6706    0.0983    2.3502 H   0  0  0  0  0  0  0  0  0  0  0  0
   -2.4814   -1.0666    3.6998 H   0  0  0  0  0  0  0  0  0  0  0  0
   -2.8990    2.0172    0.0275 H   0  0  0  0  0  0  0  0  0  0  0  0
   -5.2283    1.4277   -0.5834 H   0  0  0  0  0  0  0  0  0  0  0  0
   -5.8166   -0.9371   -1.2017 H   0  0  0  0  0  0  0  0  0  0  0  0
   -4.0134   -2.6886   -1.2146 H   0  0  0  0  0  0  0  0  0  0  0  0
   -1.6708   -2.0815   -0.6663 H   0  0  0  0  0  0  0  0  0  0  0  0
  1 18  1  0  0  0  0
  1  9  1  0  0  0  0
  2  1  1  1  0  0  0
  3  2  1  0  0  0  0
  3  8  1  0  0  0  0
  4  5  1  0  0  0  0
  4  3  2  0  0  0  0
  5  6  2  0  0  0  0
  6 21  1  0  0  0  0
  6  7  1  0  0  0  0
  7 22  1  0  0  0  0
  8  7  2  0  0  0  0
  9 11  1  0  0  0  0
  9 10  1  0  0  0  0
 10 25  1  0  0  0  0
 10 26  1  0  0  0  0
 11 27  1  0  0  0  0
 11 29  1  0  0  0  0
 12 13  1  0  0  0  0
 12  2  1  0  0  0  0
 13 30  1  0  0  0  0
 14 31  1  0  0  0  0
 14 13  2  0  0  0  0
 15 14  1  0  0  0  0
 16 15  2  0  0  0  0
 16 17  1  0  0  0  0
 17 12  2  0  0  0  0
 19  4  1  0  0  0  0
 20  5  1  0  0  0  0
 23  9  1  0  0  0  0
 24 10  1  0  0  0  0
 28 11  1  0  0  0  0
 32 15  1  0  0  0  0
 33 16  1  0  0  0  0
 34 17  1  0  0  0  0
M  END
