1
q = 0.0, confidence = 0.964

 16 17  0  0  0  0  0  0  0  0999 V2000
   -1.6620   -0.0909   -0.3644 N   0  0  0  0  0  2  0  0  0  0  0  0
   -1.7621   -0.5482   -1.6373 N   0  0  0  0  0  2  0  0  0  0  0  0
   -2.7534    0.2068    0.3644 C   0  0  0  0  0  0  0  0  0  0  0  0
   -2.5518    0.5703    1.3806 H   0  0  0  0  0  0  0  0  0  0  0  0
   -4.0644    0.0574   -0.1489 C   0  0  0  0  0  0  0  0  0  0  0  0
   -5.2405    0.3595    0.5959 C   0  0  0  0  0  0  0  0  0  0  0  0
   -5.1428    0.7297    1.6272 H   0  0  0  0  0  0  0  0  0  0  0  0
   -6.4876    0.1815    0.0119 C   0  0  0  0  0  0  0  0  0  0  0  0
   -7.3972    0.4138    0.5861 H   0  0  0  0  0  0  0  0  0  0  0  0
   -6.6090   -0.2985   -1.3212 C   0  0  0  0  0  0  0  0  0  0  0  0
   -7.6088   -0.4309   -1.7609 H   0  0  0  0  0  0  0  0  0  0  0  0
   -5.4738   -0.6000   -2.0670 C   0  0  0  0  0  0  0  0  0  0  0  0
   -5.5586   -0.9725   -3.0998 H   0  0  0  0  0  0  0  0  0  0  0  0
   -4.1893   -0.4270   -1.4932 C   0  0  0  0  0  0  0  0  0  0  0  0
   -2.9598   -0.7048   -2.1663 C   0  0  0  0  0  0  0  0  0  0  0  0
   -2.9695   -1.0800   -3.2050 H   0  0  0  0  0  0  0  0  0  0  0  0
  1  3  1  0  0  0  0
  2  1  1  0  0  0  0
  3  4  1  0  0  0  0
  5  3  2  0  0  0  0
  5  6  1  0  0  0  0
  6  7  1  0  0  0  0
  8  9  1  0  0  0  0
  8  6  2  0  0  0  0
 10  8  1  0  0  0  0
 11 10  1  0  0  0  0
 12 14  1  0  0  0  0
 12 10  2  0  0  0  0
 13 12  1  0  0  0  0
 14  5  1  0  0  0  0
 15  2  1  0  0  0  0
 15 14  2  0  0  0  0
 16 15  1  0  0  0  0
M  END
