1
q = -1.0, confidence = 0.0

 13 13  0  0  0  0  0  0  0  0999 V2000
    1.7341   -1.3999   -0.1337 N   0  0  0  0  0  2  0  0  0  0  0  0
    1.7861   -2.1667   -1.2398 C   0  0  0  0  0  3  0  0  0  0  0  0
    2.6404   -1.5667    0.8744 C   0  0  0  0  0  0  0  0  0  0  0  0
    2.7498   -3.1653   -1.4117 C   0  0  0  0  0  0  0  0  0  0  0  0
    1.0361   -1.9396   -2.0103 H   0  0  0  0  0  0  0  0  0  0  0  0
    3.6115   -2.5423    0.7433 C   0  0  0  0  0  3  0  0  0  0  0  0
    2.5043   -0.9006    1.7413 H   0  0  0  0  0  0  0  0  0  0  0  0
    3.7034   -3.3651   -0.3877 C   0  0  0  0  0  0  0  0  0  0  0  0
    2.7509   -3.7681   -2.3359 H   0  0  0  0  0  0  0  0  0  0  0  0
    4.7788   -4.4156   -0.5102 C   0  0  0  0  0  0  0  0  0  0  0  0
    4.7375   -5.1120    0.3517 H   0  0  0  0  0  0  0  0  0  0  0  0
    5.7812   -3.9416   -0.4804 H   0  0  0  0  0  0  0  0  0  0  0  0
    4.6907   -4.9988   -1.4470 H   0  0  0  0  0  0  0  0  0  0  0  0
  1  3  1  0  0  0  0
  2  1  1  0  0  0  0
  3  7  1  0  0  0  0
  4  2  1  0  0  0  0
  4  8  2  0  0  0  0
  5  2  1  0  0  0  0
  6  3  2  0  0  0  0
  8  6  1  0  0  0  0
  9  4  1  0  0  0  0
 10 12  1  0  0  0  0
 10  8  1  0  0  0  0
 10 11  1  0  0  0  0
 13 10  1  0  0  0  0
M  END
