1
q = 0.0, confidence = 1.0

 16 17  0  0  1  0  0  0  0  0999 V2000
    1.7335   -0.9423    0.4920 N   0  0  0  0  0  2  0  0  0  0  0  0
    2.3006   -2.3155    0.6850 C   0  0  0  0  0  0  0  0  0  0  0  0
    2.4108   -2.6556    1.7305 H   0  0  0  0  0  0  0  0  0  0  0  0
    1.9822   -3.0842   -0.0414 H   0  0  0  0  0  0  0  0  0  0  0  0
    2.9749   -1.0839    0.2255 C   0  0  1  0  0  3  0  0  0  0  0  0
    4.1583   -0.4313   -0.2624 C   0  0  0  0  0  0  0  0  0  0  0  0
    4.1528    0.9491   -0.5846 C   0  0  0  0  0  0  0  0  0  0  0  0
    3.2257    1.5286   -0.4337 H   0  0  0  0  0  0  0  0  0  0  0  0
    5.3246    1.5407   -1.0664 C   0  0  0  0  0  0  0  0  0  0  0  0
    5.3286    2.6122   -1.3165 H   0  0  0  0  0  0  0  0  0  0  0  0
    6.4946    0.7766   -1.2292 C   0  0  0  0  0  0  0  0  0  0  0  0
    7.4118    1.2529   -1.6083 H   0  0  0  0  0  0  0  0  0  0  0  0
    6.5013   -0.5922   -0.9079 C   0  0  0  0  0  0  0  0  0  0  0  0
    7.4191   -1.1852   -1.0356 H   0  0  0  0  0  0  0  0  0  0  0  0
    5.3377   -1.1985   -0.4239 C   0  0  0  0  0  0  0  0  0  0  0  0
    5.3235   -2.2686   -0.1675 H   0  0  0  0  0  0  0  0  0  0  0  0
  1  2  1  0  0  0  0
  2  3  1  0  0  0  0
  4  2  1  0  0  0  0
  5  6  1  6  0  0  0
  5  1  1  0  0  0  0
  5  2  1  0  0  0  0
  7  8  1  0  0  0  0
  7  6  2  0  0  0  0
  9  7  1  0  0  0  0
 10  9  1  0  0  0  0
 11  9  2  0  0  0  0
 11 13  1  0  0  0  0
 12 11  1  0  0  0  0
 13 15  2  0  0  0  0
 14 13  1  0  0  0  0
 15  6  1  0  0  0  0
 15 16  1  0  0  0  0
M  END
