3
q = -2.0, confidence = 0.862

 42 42  0  0  1  0  0  0  0  0999 V2000
    2.3529    0.6234    0.7675 Si  0  0  0  0  0  0  0  0  0  0  0  0
    4.0967   -1.6089   -0.5723 O   0  0  0  0  0  0  0  0  0  0  0  0
    1.4020   -0.5383   -0.1572 N   0  0  0  0  0  2  0  0  0  0  0  0
    0.8453    1.7748    0.9193 C   0  0  0  0  0  0  0  0  0  0  0  0
   -0.2983    1.4902    1.7579 C   0  0  2  0  0  3  0  0  0  0  0  0
   -1.4799    1.9482    1.0921 C   0  0  0  0  0  0  0  0  0  0  0  0
   -1.0932    2.5232   -0.1600 C   0  0  0  0  0  0  0  0  0  0  0  0
    0.3360    2.4321   -0.2636 C   0  0  0  0  0  0  0  0  0  0  0  0
   -0.2775    0.9780    3.1684 C   0  0  0  0  0  0  0  0  0  0  0  0
   -2.8647    1.8789    1.6598 C   0  0  0  0  0  0  0  0  0  0  0  0
   -2.0023    3.1392   -1.1812 C   0  0  0  0  0  0  0  0  0  0  0  0
    1.1317    2.9388   -1.4359 C   0  0  0  0  0  0  0  0  0  0  0  0
    3.0419   -0.1029    2.3706 C   0  0  0  0  0  0  0  0  0  0  0  0
    3.7865    1.4908   -0.1177 C   0  0  0  0  0  0  0  0  0  0  0  0
    1.7274   -1.8519   -0.6611 C   0  0  0  0  0  0  0  0  0  0  0  0
    3.0248   -1.8834   -1.4570 C   0  0  0  0  0  0  0  0  0  0  0  0
    5.3391   -1.5052   -1.2231 C   0  0  0  0  0  0  0  0  0  0  0  0
    0.6434    0.4116    3.3902 H   0  0  0  0  0  0  0  0  0  0  0  0
   -1.1481    0.3327    3.3975 H   0  0  0  0  0  0  0  0  0  0  0  0
   -0.3117    1.8322    3.8798 H   0  0  0  0  0  0  0  0  0  0  0  0
   -3.6380    2.0506    0.8868 H   0  0  0  0  0  0  0  0  0  0  0  0
   -3.0105    2.6472    2.4498 H   0  0  0  0  0  0  0  0  0  0  0  0
   -3.0696    0.8940    2.1272 H   0  0  0  0  0  0  0  0  0  0  0  0
   -1.9238    4.2475   -1.1693 H   0  0  0  0  0  0  0  0  0  0  0  0
   -3.0617    2.8795   -0.9939 H   0  0  0  0  0  0  0  0  0  0  0  0
   -1.7500    2.7856   -2.2002 H   0  0  0  0  0  0  0  0  0  0  0  0
    1.9529    3.6018   -1.0985 H   0  0  0  0  0  0  0  0  0  0  0  0
    0.4879    3.5168   -2.1246 H   0  0  0  0  0  0  0  0  0  0  0  0
    1.5745    2.1155   -2.0301 H   0  0  0  0  0  0  0  0  0  0  0  0
    3.4115    0.6863    3.0570 H   0  0  0  0  0  0  0  0  0  0  0  0
    3.8947   -0.7561    2.0941 H   0  0  0  0  0  0  0  0  0  0  0  0
    2.3050   -0.7281    2.9099 H   0  0  0  0  0  0  0  0  0  0  0  0
    4.7446    0.9901    0.1206 H   0  0  0  0  0  0  0  0  0  0  0  0
    3.8525    2.5463    0.2188 H   0  0  0  0  0  0  0  0  0  0  0  0
    3.6588    1.4924   -1.2170 H   0  0  0  0  0  0  0  0  0  0  0  0
    1.8237   -2.5972    0.1669 H   0  0  0  0  0  0  0  0  0  0  0  0
    0.9152   -2.2183   -1.3304 H   0  0  0  0  0  0  0  0  0  0  0  0
    3.1587   -2.8869   -1.9346 H   0  0  0  0  0  0  0  0  0  0  0  0
    2.9794   -1.1222   -2.2745 H   0  0  0  0  0  0  0  0  0  0  0  0
    5.6176   -2.4536   -1.7444 H   0  0  0  0  0  0  0  0  0  0  0  0
    6.1073   -1.2867   -0.4555 H   0  0  0  0  0  0  0  0  0  0  0  0
    5.3495   -0.6838   -1.9802 H   0  0  0  0  0  0  0  0  0  0  0  0
  1  4  1  0  0  0  0
  1 13  1  0  0  0  0
  3  1  1  0  0  0  0
  4  5  1  0  0  0  0
  5  9  1  1  0  0  0
  6 10  1  0  0  0  0
  6  5  1  0  0  0  0
  7  6  2  0  0  0  0
  8  7  1  0  0  0  0
  8  4  2  0  0  0  0
  9 18  1  0  0  0  0
  9 19  1  0  0  0  0
  9 20  1  0  0  0  0
 10 23  1  0  0  0  0
 10 22  1  0  0  0  0
 11 24  1  0  0  0  0
 11 25  1  0  0  0  0
 11  7  1  0  0  0  0
 12 27  1  0  0  0  0
 12  8  1  0  0  0  0
 13 32  1  0  0  0  0
 13 30  1  0  0  0  0
 14 33  1  0  0  0  0
 14 34  1  0  0  0  0
 14  1  1  0  0  0  0
 15  3  1  0  0  0  0
 15 36  1  0  0  0  0
 16 15  1  0  0  0  0
 16  2  1  0  0  0  0
 17  2  1  0  0  0  0
 17 41  1  0  0  0  0
 21 10  1  0  0  0  0
 26 11  1  0  0  0  0
 28 12  1  0  0  0  0
 29 12  1  0  0  0  0
 31 13  1  0  0  0  0
 35 14  1  0  0  0  0
 37 15  1  0  0  0  0
 38 16  1  0  0  0  0
 39 16  1  0  0  0  0
 40 17  1  0  0  0  0
 42 17  1  0  0  0  0
M  END
