8
q = 0.0, confidence = 0.956

 19 20  0  0  0  0  0  0  0  0999 V2000
   -1.9770   -0.1758    1.2395 C   0  0  0  0  0  0  0  0  0  0  0  0
   -2.3901   -2.3853    0.0581 C   0  0  0  0  0  3  0  0  0  0  0  0
   -1.6053   -3.2463   -0.7054 C   0  0  0  0  0  0  0  0  0  0  0  0
   -0.3343   -2.6418   -0.7428 C   0  0  0  0  0  0  0  0  0  0  0  0
   -3.1477    1.7057    0.0013 C   0  0  0  0  0  0  0  0  0  0  0  0
   -2.6736    2.7767   -0.7453 C   0  0  0  0  0  0  0  0  0  0  0  0
   -1.2610    2.6640   -0.6860 C   0  0  0  0  0  0  0  0  0  0  0  0
   -0.3456   -1.4881   -0.0435 N   0  0  0  0  0  2  0  0  0  0  0  0
   -1.6040   -1.3407    0.4424 N   0  0  0  0  0  0  0  0  0  0  0  0
   -0.8889    1.6071    0.0499 N   0  0  0  0  0  0  0  0  0  0  0  0
   -2.0445    1.0348    0.4640 N   0  0  0  0  0  0  0  0  0  0  0  0
   -1.2318   -0.0487    2.0503 H   0  0  0  0  0  0  0  0  0  0  0  0
   -2.9634   -0.3801    1.6922 H   0  0  0  0  0  0  0  0  0  0  0  0
   -3.4408   -2.4449    0.3649 H   0  0  0  0  0  0  0  0  0  0  0  0
   -1.9109   -4.1907   -1.1665 H   0  0  0  0  0  0  0  0  0  0  0  0
    0.5856   -2.9831   -1.2334 H   0  0  0  0  0  0  0  0  0  0  0  0
   -4.1655    1.3846    0.2513 H   0  0  0  0  0  0  0  0  0  0  0  0
   -3.2670    3.5438   -1.2531 H   0  0  0  0  0  0  0  0  0  0  0  0
   -0.5009    3.3127   -1.1391 H   0  0  0  0  0  0  0  0  0  0  0  0
  1 13  1  0  0  0  0
  1 12  1  0  0  0  0
  2 14  1  0  0  0  0
  2  9  1  0  0  0  0
  3  2  1  0  0  0  0
  4  3  2  0  0  0  0
  4  8  1  0  0  0  0
  5 17  1  0  0  0  0
  5 11  1  0  0  0  0
  6  7  1  0  0  0  0
  6  5  2  0  0  0  0
  7 10  2  0  0  0  0
  8  9  1  0  0  0  0
  9  1  1  0  0  0  0
 10 11  1  0  0  0  0
 11  1  1  0  0  0  0
 15  3  1  0  0  0  0
 16  4  1  0  0  0  0
 18  6  1  0  0  0  0
 19  7  1  0  0  0  0
M  END
