1
q = 0.0, confidence = 0.968

 18 19  0  0  0  0  0  0  0  0999 V2000
   -0.4070    1.0718   -0.5288 N   0  0  0  0  0  0  0  0  0  0  0  0
   -1.7089    0.5109   -0.2475 C   0  0  0  0  0  0  0  0  0  0  0  0
   -2.1999    0.5422    1.0719 C   0  0  0  0  0  0  0  0  0  0  0  0
   -3.4403   -0.0354    1.3674 C   0  0  0  0  0  0  0  0  0  0  0  0
   -4.2009   -0.6519    0.3579 C   0  0  0  0  0  0  0  0  0  0  0  0
   -3.7136   -0.6731   -0.9561 C   0  0  0  0  0  0  0  0  0  0  0  0
   -2.4744   -0.0874   -1.2630 C   0  0  0  0  0  0  0  0  0  0  0  0
   -0.2890    2.5421   -0.4162 C   0  0  0  0  0  0  0  0  0  0  0  0
   -0.2542    1.8842   -1.7527 C   0  0  0  0  0  0  0  0  0  0  0  0
   -1.5945    1.0027    1.8651 H   0  0  0  0  0  0  0  0  0  0  0  0
   -3.8147   -0.0072    2.4018 H   0  0  0  0  0  0  0  0  0  0  0  0
   -5.1722   -1.1096    0.5967 H   0  0  0  0  0  0  0  0  0  0  0  0
   -4.3016   -1.1451   -1.7577 H   0  0  0  0  0  0  0  0  0  0  0  0
   -2.1012   -0.1015   -2.2973 H   0  0  0  0  0  0  0  0  0  0  0  0
   -1.2142    3.0718   -0.1370 H   0  0  0  0  0  0  0  0  0  0  0  0
    0.6385    2.9035    0.0489 H   0  0  0  0  0  0  0  0  0  0  0  0
   -1.1444    1.9862   -2.3940 H   0  0  0  0  0  0  0  0  0  0  0  0
    0.7058    1.7483   -2.2701 H   0  0  0  0  0  0  0  0  0  0  0  0
  1  8  1  0  0  0  0
  1  2  1  0  0  0  0
  2  3  1  0  0  0  0
  3  4  2  0  0  0  0
  3 10  1  0  0  0  0
  4 11  1  0  0  0  0
  5 12  1  0  0  0  0
  5  4  1  0  0  0  0
  6  5  2  0  0  0  0
  7  6  1  0  0  0  0
  7  2  2  0  0  0  0
  8 15  1  0  0  0  0
  8 16  1  0  0  0  0
  9  1  1  0  0  0  0
  9  8  1  0  0  0  0
 13  6  1  0  0  0  0
 14  7  1  0  0  0  0
 17  9  1  0  0  0  0
 18  9  1  0  0  0  0
M  END
