1
q = -1.0

 15 14  0  0  0  0  0  0  0  0999 V2000
   -1.4110   -0.4221   -1.2907 N   0  0  0  0  0  2  0  0  0  0  0  0
   -1.1168   -2.4320   -0.1992 O   0  0  0  0  0  0  0  0  0  0  0  0
   -4.4186   -1.1157    0.2878 O   0  0  0  0  0  0  0  0  0  0  0  0
   -1.7748   -1.6715   -0.9320 C   0  0  0  0  0  0  0  0  0  0  0  0
   -3.1421   -2.1483   -1.4592 C   0  0  0  0  0  0  0  0  0  0  0  0
   -4.1050   -2.3704   -0.3030 C   0  0  0  0  0  0  0  0  0  0  0  0
   -5.3085   -1.2315    1.3719 C   0  0  0  0  0  0  0  0  0  0  0  0
   -2.1002    0.0724   -1.8633 H   0  0  0  0  0  0  0  0  0  0  0  0
   -3.5927   -1.4445   -2.1895 H   0  0  0  0  0  0  0  0  0  0  0  0
   -2.9829   -3.1202   -1.9694 H   0  0  0  0  0  0  0  0  0  0  0  0
   -5.0416   -2.8698   -0.6556 H   0  0  0  0  0  0  0  0  0  0  0  0
   -3.6176   -3.0434    0.4442 H   0  0  0  0  0  0  0  0  0  0  0  0
   -5.4928   -0.2135    1.7681 H   0  0  0  0  0  0  0  0  0  0  0  0
   -4.8908   -1.8632    2.1935 H   0  0  0  0  0  0  0  0  0  0  0  0
   -6.2863   -1.6767    1.0639 H   0  0  0  0  0  0  0  0  0  0  0  0
  1  4  1  0  0  0  0
  3  7  1  0  0  0  0
  4  2  2  0  0  0  0
  5  4  1  0  0  0  0
  5  6  1  0  0  0  0
  6  3  1  0  0  0  0
  6 12  1  0  0  0  0
  7 13  1  0  0  0  0
  7 14  1  0  0  0  0
  8  1  1  0  0  0  0
  9  5  1  0  0  0  0
 10  5  1  0  0  0  0
 11  6  1  0  0  0  0
 15  7  1  0  0  0  0
M  END
