5
q = -1.0, confidence = 0.396

 51 52  0  0  1  0  0  0  0  0999 V2000
    4.4881   -1.1561    1.0547 O   0  0  0  0  0  0  0  0  0  0  0  0
    4.7394   -1.4790   -1.2628 O   0  0  0  0  0  0  0  0  0  0  0  0
   -5.0262   -1.3246   -1.0031 O   0  0  0  0  0  0  0  0  0  0  0  0
   -5.3511   -0.0371    0.9393 O   0  0  0  0  0  0  0  0  0  0  0  0
    0.8960    0.1432   -1.1400 N   0  0  0  0  0  2  0  0  0  0  0  0
    1.4223   -1.5684    0.2059 N   0  0  0  0  0  0  0  0  0  0  0  0
   -1.2869   -0.3466    1.5127 N   0  0  0  0  0  0  0  0  0  0  0  0
   -0.5392    0.2068    2.0694 H   0  0  0  0  0  0  0  0  0  0  0  0
   -2.0737   -0.7776   -0.4923 N   0  0  0  0  0  0  0  0  0  0  0  0
    2.2296   -0.1322   -1.2819 C   0  0  0  0  0  0  0  0  0  0  0  0
    2.8766    0.4895   -1.9087 H   0  0  0  0  0  0  0  0  0  0  0  0
    2.5836   -1.1879   -0.4518 C   0  0  0  0  0  0  0  0  0  0  0  0
    0.4279   -0.7369   -0.2461 C   0  0  1  0  0  3  0  0  0  0  0  0
   -0.9412   -0.6851    0.2514 C   0  0  1  0  0  3  0  0  0  0  0  0
   -2.6475   -0.1829    1.5725 C   0  0  0  0  0  0  0  0  0  0  0  0
   -3.1733    0.1559    2.4678 H   0  0  0  0  0  0  0  0  0  0  0  0
   -3.1528   -0.4564    0.3170 C   0  0  0  0  0  0  0  0  0  0  0  0
    1.2826   -2.5979    1.2410 C   0  0  0  0  0  0  0  0  0  0  0  0
    1.8179   -3.5041    0.8901 H   0  0  0  0  0  0  0  0  0  0  0  0
    0.2058   -2.8592    1.2784 H   0  0  0  0  0  0  0  0  0  0  0  0
    1.7914   -2.1483    2.6090 C   0  0  0  0  0  0  0  0  0  0  0  0
    2.8814   -1.9598    2.5747 H   0  0  0  0  0  0  0  0  0  0  0  0
    1.5820   -2.9341    3.3613 H   0  0  0  0  0  0  0  0  0  0  0  0
    1.3035   -1.2039    2.9188 H   0  0  0  0  0  0  0  0  0  0  0  0
    3.9525   -1.7215   -0.1274 C   0  0  0  0  0  0  0  0  0  0  0  0
    3.9225   -2.8156    0.1057 H   0  0  0  0  0  0  0  0  0  0  0  0
    4.5222    0.2812    1.0872 C   0  0  0  0  0  0  0  0  0  0  0  0
    4.9697    0.6980    0.1611 H   0  0  0  0  0  0  0  0  0  0  0  0
    5.1569    0.5489    1.9520 H   0  0  0  0  0  0  0  0  0  0  0  0
    3.5116    0.7220    1.2253 H   0  0  0  0  0  0  0  0  0  0  0  0
    6.0463   -2.0230   -1.1711 C   0  0  0  0  0  0  0  0  0  0  0  0
    6.6044   -1.6148   -0.3015 H   0  0  0  0  0  0  0  0  0  0  0  0
    6.5737   -1.7564   -2.1058 H   0  0  0  0  0  0  0  0  0  0  0  0
    6.0167   -3.1346   -1.0753 H   0  0  0  0  0  0  0  0  0  0  0  0
   -2.0846   -0.9422   -1.9575 C   0  0  0  0  0  0  0  0  0  0  0  0
   -1.5018   -0.0902   -2.3611 H   0  0  0  0  0  0  0  0  0  0  0  0
   -3.1366   -0.8340   -2.2735 H   0  0  0  0  0  0  0  0  0  0  0  0
   -1.5351   -2.2907   -2.4066 C   0  0  0  0  0  0  0  0  0  0  0  0
   -0.4753   -2.4248   -2.1137 H   0  0  0  0  0  0  0  0  0  0  0  0
   -1.5845   -2.3538   -3.5110 H   0  0  0  0  0  0  0  0  0  0  0  0
   -2.1292   -3.1281   -1.9890 H   0  0  0  0  0  0  0  0  0  0  0  0
   -4.5585   -0.2632   -0.1901 C   0  0  0  0  0  0  0  0  0  0  0  0
   -4.5672    0.6218   -0.8719 H   0  0  0  0  0  0  0  0  0  0  0  0
   -5.0766   -2.5897   -0.3511 C   0  0  0  0  0  0  0  0  0  0  0  0
   -4.0595   -2.9664   -0.0948 H   0  0  0  0  0  0  0  0  0  0  0  0
   -5.5523   -3.2935   -1.0590 H   0  0  0  0  0  0  0  0  0  0  0  0
   -5.6759   -2.5428    0.5827 H   0  0  0  0  0  0  0  0  0  0  0  0
   -6.6058    0.5626    0.6378 C   0  0  0  0  0  0  0  0  0  0  0  0
   -6.4706    1.5757    0.1953 H   0  0  0  0  0  0  0  0  0  0  0  0
   -7.1574    0.6554    1.5915 H   0  0  0  0  0  0  0  0  0  0  0  0
   -7.1952   -0.0605   -0.0689 H   0  0  0  0  0  0  0  0  0  0  0  0
  1 27  1  0  0  0  0
  2 31  1  0  0  0  0
  2 25  1  0  0  0  0
  3 44  1  0  0  0  0
  3 42  1  0  0  0  0
  6 18  1  0  0  0  0
  7 15  1  0  0  0  0
  7  8  1  0  0  0  0
  9 17  1  0  0  0  0
 10  5  1  0  0  0  0
 10 12  2  0  0  0  0
 11 10  1  0  0  0  0
 12 25  1  0  0  0  0
 12  6  1  0  0  0  0
 13  5  1  1  0  0  0
 13  6  1  0  0  0  0
 13 14  1  0  0  0  0
 14  9  1  6  0  0  0
 14  7  1  0  0  0  0
 15 16  1  0  0  0  0
 17 15  2  0  0  0  0
 18 20  1  0  0  0  0
 18 21  1  0  0  0  0
 19 18  1  0  0  0  0
 21 24  1  0  0  0  0
 21 23  1  0  0  0  0
 22 21  1  0  0  0  0
 25 26  1  0  0  0  0
 25  1  1  0  0  0  0
 27 30  1  0  0  0  0
 27 29  1  0  0  0  0
 28 27  1  0  0  0  0
 31 34  1  0  0  0  0
 31 32  1  0  0  0  0
 33 31  1  0  0  0  0
 35  9  1  0  0  0  0
 36 35  1  0  0  0  0
 37 35  1  0  0  0  0
 38 39  1  0  0  0  0
 38 41  1  0  0  0  0
 38 35  1  0  0  0  0
 40 38  1  0  0  0  0
 42 17  1  0  0  0  0
 42  4  1  0  0  0  0
 43 42  1  0  0  0  0
 44 45  1  0  0  0  0
 44 47  1  0  0  0  0
 46 44  1  0  0  0  0
 48  4  1  0  0  0  0
 48 50  1  0  0  0  0
 49 48  1  0  0  0  0
 51 48  1  0  0  0  0
M  END
