2
q = -1.0, confidence = 0.0

 27 27  0  0  1  0  0  0  0  0999 V2000
    1.9108    1.1067   -1.7653 S   0  0  0  0  0  0  0  0  0  0  0  0
   -0.1897    1.1941   -0.3769 N   0  0  0  0  0  2  0  0  0  0  0  0
    0.3928    1.8332   -1.3746 C   0  0  0  0  0  0  0  0  0  0  0  0
   -0.1174    3.0464   -2.1018 C   0  0  0  0  0  0  0  0  0  0  0  0
   -1.4653    1.6544    0.1995 C   0  0  2  0  0  0  0  0  0  0  0  0
   -1.2702    2.2687    1.5969 C   0  0  0  0  0  0  0  0  0  0  0  0
   -2.4963    0.5352    0.1409 C   0  0  0  0  0  0  0  0  0  0  0  0
   -3.2250    0.3421   -1.0507 C   0  0  0  0  0  0  0  0  0  0  0  0
   -4.1391   -0.7137   -1.1783 C   0  0  0  0  0  0  0  0  0  0  0  0
   -4.3421   -1.5976   -0.1055 C   0  0  0  0  0  0  0  0  0  0  0  0
   -3.6318   -1.4086    1.0901 C   0  0  0  0  0  0  0  0  0  0  0  0
   -2.7168   -0.3503    1.2127 C   0  0  0  0  0  0  0  0  0  0  0  0
   -0.2322    3.3881    1.6292 C   0  0  0  0  0  0  0  0  0  0  0  0
   -0.1878    3.9248   -1.4278 H   0  0  0  0  0  0  0  0  0  0  0  0
    0.5751    3.2975   -2.9260 H   0  0  0  0  0  0  0  0  0  0  0  0
   -1.1252    2.8728   -2.5333 H   0  0  0  0  0  0  0  0  0  0  0  0
   -1.8499    2.4644   -0.4569 H   0  0  0  0  0  0  0  0  0  0  0  0
   -2.2618    2.6405    1.9329 H   0  0  0  0  0  0  0  0  0  0  0  0
   -0.9745    1.4830    2.3172 H   0  0  0  0  0  0  0  0  0  0  0  0
   -3.0641    1.0306   -1.8960 H   0  0  0  0  0  0  0  0  0  0  0  0
   -4.6980   -0.8462   -2.1172 H   0  0  0  0  0  0  0  0  0  0  0  0
   -5.0581   -2.4279   -0.1995 H   0  0  0  0  0  0  0  0  0  0  0  0
   -3.7911   -2.0920    1.9384 H   0  0  0  0  0  0  0  0  0  0  0  0
   -2.1610   -0.2219    2.1524 H   0  0  0  0  0  0  0  0  0  0  0  0
   -0.1212    3.7947    2.6535 H   0  0  0  0  0  0  0  0  0  0  0  0
    0.7614    3.0146    1.3080 H   0  0  0  0  0  0  0  0  0  0  0  0
   -0.5138    4.2321    0.9651 H   0  0  0  0  0  0  0  0  0  0  0  0
  1  3  2  0  0  0  0
  2  5  1  0  0  0  0
  3  2  1  0  0  0  0
  4 14  1  0  0  0  0
  4  3  1  0  0  0  0
  5 17  1  6  0  0  0
  5  6  1  0  0  0  0
  6 13  1  0  0  0  0
  6 18  1  0  0  0  0
  6 19  1  0  0  0  0
  7  5  1  0  0  0  0
  7 12  1  0  0  0  0
  8  7  2  0  0  0  0
  9  8  1  0  0  0  0
  9 10  2  0  0  0  0
 10 11  1  0  0  0  0
 11 12  2  0  0  0  0
 11 23  1  0  0  0  0
 12 24  1  0  0  0  0
 13 25  1  0  0  0  0
 15  4  1  0  0  0  0
 16  4  1  0  0  0  0
 20  8  1  0  0  0  0
 21  9  1  0  0  0  0
 22 10  1  0  0  0  0
 26 13  1  0  0  0  0
 27 13  1  0  0  0  0
M  END
