2
q = 0.0, confidence = 1.0

 40 42  0  0  0  0  0  0  0  0999 V2000
   -2.1978   -0.0939    1.4733 Se  0  0  0  0  0  0  0  0  0  0  0  0
    0.6472    0.1850    0.0798 N   0  0  0  0  0  0  0  0  0  0  0  0
    0.1601    1.4144    0.7564 C   0  0  0  0  0  0  0  0  0  0  0  0
    1.0229    2.0594    1.0393 H   0  0  0  0  0  0  0  0  0  0  0  0
   -0.4434    1.9806    0.0170 H   0  0  0  0  0  0  0  0  0  0  0  0
   -3.6748    0.6218   -0.9079 C   0  0  0  0  0  0  0  0  0  0  0  0
   -3.5019   -0.4347   -1.1730 H   0  0  0  0  0  0  0  0  0  0  0  0
   -3.1588    1.1329    0.2962 C   0  0  0  0  0  0  0  0  0  0  0  0
   -0.6879    1.1048    1.9718 C   0  0  0  0  0  0  0  0  0  0  0  0
   -1.0795    2.0250    2.4459 H   0  0  0  0  0  0  0  0  0  0  0  0
   -0.1355    0.5305    2.7437 H   0  0  0  0  0  0  0  0  0  0  0  0
    1.4006    0.5117   -1.1776 C   0  0  0  0  0  0  0  0  0  0  0  0
    0.7545    1.1800   -1.7789 H   0  0  0  0  0  0  0  0  0  0  0  0
    1.5007   -0.4446   -1.7305 H   0  0  0  0  0  0  0  0  0  0  0  0
    2.7314    1.1545   -0.8788 C   0  0  0  0  0  0  0  0  0  0  0  0
    3.7848    0.3643   -0.2944 C   0  0  0  0  0  0  0  0  0  0  0  0
    5.0187    1.0161    0.0799 C   0  0  0  0  0  0  0  0  0  0  0  0
    3.6599   -1.0430   -0.0726 C   0  0  0  0  0  0  0  0  0  0  0  0
    2.7545   -1.5846   -0.3981 H   0  0  0  0  0  0  0  0  0  0  0  0
    4.6925   -1.7611    0.5166 C   0  0  0  0  0  0  0  0  0  0  0  0
    4.5774   -2.8445    0.6711 H   0  0  0  0  0  0  0  0  0  0  0  0
    2.9363    2.5131   -1.1044 C   0  0  0  0  0  0  0  0  0  0  0  0
    2.1285    3.1086   -1.5593 H   0  0  0  0  0  0  0  0  0  0  0  0
    6.0556    0.2442    0.6814 C   0  0  0  0  0  0  0  0  0  0  0  0
    6.9922    0.7504    0.9633 H   0  0  0  0  0  0  0  0  0  0  0  0
   -4.4084    1.4739   -1.7478 C   0  0  0  0  0  0  0  0  0  0  0  0
   -4.8123    1.0794   -2.6923 H   0  0  0  0  0  0  0  0  0  0  0  0
   -3.3832    2.4678    0.6737 C   0  0  0  0  0  0  0  0  0  0  0  0
   -3.0072    2.8597    1.6308 H   0  0  0  0  0  0  0  0  0  0  0  0
    5.1762    2.4116   -0.1699 C   0  0  0  0  0  0  0  0  0  0  0  0
    6.1243    2.8950    0.1127 H   0  0  0  0  0  0  0  0  0  0  0  0
    4.1605    3.1445   -0.7616 C   0  0  0  0  0  0  0  0  0  0  0  0
    4.2934    4.2187   -0.9599 H   0  0  0  0  0  0  0  0  0  0  0  0
   -4.6188    2.8168   -1.3947 C   0  0  0  0  0  0  0  0  0  0  0  0
   -5.1874    3.4806   -2.0631 H   0  0  0  0  0  0  0  0  0  0  0  0
   -4.1075    3.3112   -0.1846 C   0  0  0  0  0  0  0  0  0  0  0  0
   -4.2779    4.3600    0.1024 H   0  0  0  0  0  0  0  0  0  0  0  0
    5.8958   -1.1152    0.9034 C   0  0  0  0  0  0  0  0  0  0  0  0
    6.7050   -1.6981    1.3687 H   0  0  0  0  0  0  0  0  0  0  0  0
    1.3167   -0.2895    0.7088 H   0  0  0  0  0  0  0  0  0  0  0  0
  1  9  1  0  0  0  0
  2 40  1  0  0  0  0
  2  3  1  0  0  0  0
  3  4  1  0  0  0  0
  3  9  1  0  0  0  0
  5  3  1  0  0  0  0
  6  8  1  0  0  0  0
  7  6  1  0  0  0  0
  8 28  2  0  0  0  0
  8  1  1  0  0  0  0
  9 10  1  0  0  0  0
  9 11  1  0  0  0  0
 12 15  1  0  0  0  0
 12  2  1  0  0  0  0
 13 12  1  0  0  0  0
 14 12  1  0  0  0  0
 15 16  1  0  0  0  0
 16 18  2  0  0  0  0
 16 17  1  0  0  0  0
 17 24  2  0  0  0  0
 18 20  1  0  0  0  0
 19 18  1  0  0  0  0
 20 21  1  0  0  0  0
 20 38  2  0  0  0  0
 22 15  2  0  0  0  0
 22 32  1  0  0  0  0
 23 22  1  0  0  0  0
 24 38  1  0  0  0  0
 24 25  1  0  0  0  0
 26 34  1  0  0  0  0
 26  6  2  0  0  0  0
 27 26  1  0  0  0  0
 28 29  1  0  0  0  0
 30 17  1  0  0  0  0
 30 31  1  0  0  0  0
 32 30  2  0  0  0  0
 33 32  1  0  0  0  0
 34 36  2  0  0  0  0
 35 34  1  0  0  0  0
 36 37  1  0  0  0  0
 36 28  1  0  0  0  0
 38 39  1  0  0  0  0
M  END
