1
q = 0.0, confidence = 0.996

 49 52  0  0  1  0  0  0  0  0999 V2000
   -0.5517   -0.3319    0.0002 N   0  0  0  0  0  2  0  0  0  0  0  0
    0.7901   -2.8448    0.0010 O   0  0  0  0  0  0  0  0  0  0  0  0
    0.7527   -0.4106    0.0003 C   0  0  1  0  0  3  0  0  0  0  0  0
    1.4102   -1.7881    0.0006 C   0  0  0  0  0  0  0  0  0  0  0  0
   -1.1885    0.9544   -0.0001 C   0  0  0  0  0  0  0  0  0  0  0  0
    5.4482   -0.3726   -0.0009 C   0  0  0  0  0  0  0  0  0  0  0  0
    6.4632    0.0543   -0.0013 H   0  0  0  0  0  0  0  0  0  0  0  0
    3.0472   -0.1204   -0.0003 C   0  0  0  0  0  0  0  0  0  0  0  0
   -2.1017    2.8314    1.2131 C   0  0  0  0  0  0  0  0  0  0  0  0
   -2.3507    3.3303    2.1609 H   0  0  0  0  0  0  0  0  0  0  0  0
    1.8090    0.6026   -0.0002 C   0  0  0  0  0  0  0  0  0  0  0  0
    4.3245    1.9321   -0.0013 C   0  0  0  0  0  0  0  0  0  0  0  0
    5.2831    2.4735   -0.0017 H   0  0  0  0  0  0  0  0  0  0  0  0
    1.8501    1.9976   -0.0007 C   0  0  0  0  0  0  0  0  0  0  0  0
    0.9291    2.5963   -0.0007 H   0  0  0  0  0  0  0  0  0  0  0  0
    2.8752   -1.5318    0.0002 C   0  0  0  0  0  0  0  0  0  0  0  0
   -0.8811    1.7273   -3.7203 C   0  0  0  0  0  0  0  0  0  0  0  0
   -1.7156    2.3940   -4.0204 H   0  0  0  0  0  0  0  0  0  0  0  0
   -0.6187    1.1205   -4.6100 H   0  0  0  0  0  0  0  0  0  0  0  0
   -0.0089    2.3640   -3.4685 H   0  0  0  0  0  0  0  0  0  0  0  0
    5.2777   -1.7594   -0.0005 C   0  0  0  0  0  0  0  0  0  0  0  0
    6.1680   -2.4061   -0.0005 H   0  0  0  0  0  0  0  0  0  0  0  0
   -1.4990    1.5605    1.2437 C   0  0  0  0  0  0  0  0  0  0  0  0
   -1.2668    0.8148    2.5524 C   0  0  0  0  0  0  0  0  0  0  0  0
   -0.4222    0.1130    2.3926 H   0  0  0  0  0  0  0  0  0  0  0  0
    4.3199    0.5033   -0.0008 C   0  0  0  0  0  0  0  0  0  0  0  0
   -1.2692    0.8124   -2.5523 C   0  0  0  0  0  0  0  0  0  0  0  0
   -0.4254    0.1098   -2.3923 H   0  0  0  0  0  0  0  0  0  0  0  0
    3.1219    2.6399   -0.0012 C   0  0  0  0  0  0  0  0  0  0  0  0
    3.1511    3.7399   -0.0016 H   0  0  0  0  0  0  0  0  0  0  0  0
   -2.1029    2.8302   -1.2142 C   0  0  0  0  0  0  0  0  0  0  0  0
   -2.3528    3.3281   -2.1622 H   0  0  0  0  0  0  0  0  0  0  0  0
    3.9885   -2.3629    0.0001 C   0  0  0  0  0  0  0  0  0  0  0  0
    3.8746   -3.4571    0.0004 H   0  0  0  0  0  0  0  0  0  0  0  0
   -1.5003    1.5593   -1.2441 C   0  0  0  0  0  0  0  0  0  0  0  0
   -2.3912    3.4683   -0.0007 C   0  0  0  0  0  0  0  0  0  0  0  0
   -2.8569    4.4653   -0.0010 H   0  0  0  0  0  0  0  0  0  0  0  0
   -2.5133   -0.0351   -2.8881 C   0  0  0  0  0  0  0  0  0  0  0  0
   -3.3952    0.6177   -3.0523 H   0  0  0  0  0  0  0  0  0  0  0  0
   -2.7690   -0.7429   -2.0700 H   0  0  0  0  0  0  0  0  0  0  0  0
   -2.3470   -0.6313   -3.8084 H   0  0  0  0  0  0  0  0  0  0  0  0
   -0.8793    1.7309    3.7197 C   0  0  0  0  0  0  0  0  0  0  0  0
   -0.0079    2.3684    3.4672 H   0  0  0  0  0  0  0  0  0  0  0  0
   -0.6160    1.1249    4.6097 H   0  0  0  0  0  0  0  0  0  0  0  0
   -1.7145    2.3968    4.0195 H   0  0  0  0  0  0  0  0  0  0  0  0
   -2.5098   -0.0338    2.8892 C   0  0  0  0  0  0  0  0  0  0  0  0
   -3.3923    0.6183    3.0535 H   0  0  0  0  0  0  0  0  0  0  0  0
   -2.3425   -0.6294    3.8096 H   0  0  0  0  0  0  0  0  0  0  0  0
   -2.7653   -0.7422    2.0715 H   0  0  0  0  0  0  0  0  0  0  0  0
  3  1  1  6  0  0  0
  3  4  1  0  0  0  0
  4  2  2  0  0  0  0
  5  1  1  0  0  0  0
  5 23  1  0  0  0  0
  6 26  2  0  0  0  0
  6 21  1  0  0  0  0
  7  6  1  0  0  0  0
  8 11  1  0  0  0  0
  8 16  2  0  0  0  0
  9 23  2  0  0  0  0
  9 10  1  0  0  0  0
 11  3  1  0  0  0  0
 12 29  2  0  0  0  0
 12 26  1  0  0  0  0
 13 12  1  0  0  0  0
 14 11  2  0  0  0  0
 15 14  1  0  0  0  0
 16  4  1  0  0  0  0
 17 20  1  0  0  0  0
 17 27  1  0  0  0  0
 18 17  1  0  0  0  0
 19 17  1  0  0  0  0
 21 33  2  0  0  0  0
 22 21  1  0  0  0  0
 23 24  1  0  0  0  0
 24 46  1  0  0  0  0
 24 42  1  0  0  0  0
 25 24  1  0  0  0  0
 26  8  1  0  0  0  0
 27 28  1  0  0  0  0
 27 35  1  0  0  0  0
 29 14  1  0  0  0  0
 30 29  1  0  0  0  0
 31 36  2  0  0  0  0
 32 31  1  0  0  0  0
 33 16  1  0  0  0  0
 33 34  1  0  0  0  0
 35 31  1  0  0  0  0
 35  5  2  0  0  0  0
 36  9  1  0  0  0  0
 37 36  1  0  0  0  0
 38 27  1  0  0  0  0
 38 40  1  0  0  0  0
 39 38  1  0  0  0  0
 41 38  1  0  0  0  0
 42 45  1  0  0  0  0
 42 44  1  0  0  0  0
 43 42  1  0  0  0  0
 46 47  1  0  0  0  0
 46 48  1  0  0  0  0
 49 46  1  0  0  0  0
M  END
