1
q = -1.0

 21 22  0  0  0  0  0  0  0  0999 V2000
   -2.0073   -0.0006   -0.0032 N   0  0  0  0  0  2  0  0  0  0  0  0
   -2.7183    1.1698   -0.0057 C   0  0  0  0  0  3  0  0  0  0  0  0
   -2.1191    2.0958   -0.0196 H   0  0  0  0  0  0  0  0  0  0  0  0
   -4.1020    1.2128   -0.0023 C   0  0  0  0  0  0  0  0  0  0  0  0
   -4.6532    2.1639   -0.0021 H   0  0  0  0  0  0  0  0  0  0  0  0
   -4.8475    0.0002   -0.0013 C   0  0  0  0  0  0  0  0  0  0  0  0
   -4.1027   -1.2128   -0.0013 C   0  0  0  0  0  0  0  0  0  0  0  0
   -4.6545   -2.1636   -0.0009 H   0  0  0  0  0  0  0  0  0  0  0  0
   -2.7189   -1.1705    0.0003 C   0  0  0  0  0  0  0  0  0  0  0  0
   -2.1203   -2.0969    0.0132 H   0  0  0  0  0  0  0  0  0  0  0  0
   -6.3044    0.0006   -0.0002 C   0  0  0  0  0  0  0  0  0  0  0  0
   -6.9206    1.2098    0.0237 N   0  0  0  0  0  0  0  0  0  0  0  0
   -8.2528    1.1984    0.0071 C   0  0  0  0  0  0  0  0  0  0  0  0
   -8.7765    2.1704   -0.0122 H   0  0  0  0  0  0  0  0  0  0  0  0
   -9.0107    0.0013    0.0016 C   0  0  0  0  0  0  0  0  0  0  0  0
   -8.2534   -1.1961   -0.0049 C   0  0  0  0  0  0  0  0  0  0  0  0
   -8.7776   -2.1678    0.0151 H   0  0  0  0  0  0  0  0  0  0  0  0
   -6.9213   -1.2082   -0.0234 N   0  0  0  0  0  0  0  0  0  0  0  0
  -10.5213    0.0017    0.0028 C   0  0  0  0  0  0  0  0  0  0  0  0
  -11.0580    0.7231   -0.8735 O   0  5  0  0  0  0  0  0  0  0  0  0
  -11.0568   -0.7195    0.8800 O   0  0  0  0  0  0  0  0  0  0  0  0
  1  9  1  0  0  0  0
  2  1  1  0  0  0  0
  2  4  1  0  0  0  0
  3  2  1  0  0  0  0
  4  5  1  0  0  0  0
  4  6  2  0  0  0  0
  6 11  1  0  0  0  0
  7  6  1  0  0  0  0
  7  8  1  0  0  0  0
  7  9  2  0  0  0  0
  9 10  1  0  0  0  0
 11 12  1  0  0  0  0
 13 12  2  0  0  0  0
 14 13  1  0  0  0  0
 15 19  1  0  0  0  0
 15 13  1  0  0  0  0
 16 15  2  0  0  0  0
 16 17  1  0  0  0  0
 18 16  1  0  0  0  0
 18 11  2  0  0  0  0
 19 21  2  0  0  0  0
 20 19  1  0  0  0  0
M  CHG  1  20  -1
M  END
