1
q = 0.0, confidence = 0.988

 16 16  0  0  0  0  0  0  0  0999 V2000
    1.5299   -1.3335   -0.0055 N   0  0  0  0  0  0  0  0  0  0  0  0
    2.3486   -1.4134    1.2217 C   0  0  0  0  0  0  0  0  0  0  0  0
    3.1813   -2.7031    1.1956 C   0  0  0  0  0  0  0  0  0  0  0  0
    3.9935   -2.7224   -0.0069 N   0  0  0  0  0  0  0  0  0  0  0  0
    3.1862   -2.6922   -1.2125 C   0  0  0  0  0  0  0  0  0  0  0  0
    2.3533   -1.4024   -1.2303 C   0  0  0  0  0  0  0  0  0  0  0  0
    0.8740   -2.1335   -0.0105 H   0  0  0  0  0  0  0  0  0  0  0  0
    1.6749   -1.3641   -2.1022 H   0  0  0  0  0  0  0  0  0  0  0  0
    3.0265   -0.5244   -1.2501 H   0  0  0  0  0  0  0  0  0  0  0  0
    2.4826   -3.5647   -1.3052 H   0  0  0  0  0  0  0  0  0  0  0  0
    3.8415   -2.7022   -2.1070 H   0  0  0  0  0  0  0  0  0  0  0  0
    4.6628   -3.4977   -0.0091 H   0  0  0  0  0  0  0  0  0  0  0  0
    3.8329   -2.7213    2.0927 H   0  0  0  0  0  0  0  0  0  0  0  0
    2.4773   -3.5765    1.2775 H   0  0  0  0  0  0  0  0  0  0  0  0
    1.6666   -1.3827    2.0913 H   0  0  0  0  0  0  0  0  0  0  0  0
    3.0222   -0.5361    1.2520 H   0  0  0  0  0  0  0  0  0  0  0  0
  1  2  1  0  0  0  0
  2 16  1  0  0  0  0
  2 15  1  0  0  0  0
  3  2  1  0  0  0  0
  3 14  1  0  0  0  0
  3 13  1  0  0  0  0
  4  3  1  0  0  0  0
  5  4  1  0  0  0  0
  6  5  1  0  0  0  0
  6  1  1  0  0  0  0
  7  1  1  0  0  0  0
  8  6  1  0  0  0  0
  9  6  1  0  0  0  0
 10  5  1  0  0  0  0
 11  5  1  0  0  0  0
 12  4  1  0  0  0  0
M  END
