3
q = 0.0, confidence = 1.0

 31 34  0  0  1  0  0  0  0  0999 V2000
    2.9500    0.1255    0.4066 N   0  0  0  0  0  0  0  0  0  0  0  0
    2.9506    1.1737    1.2514 N   0  0  0  0  0  0  0  0  0  0  0  0
    0.3122    2.0828   -0.0535 N   0  0  0  0  0  2  0  0  0  0  0  0
    0.9708    2.5208    1.0389 N   0  0  0  0  0  0  0  0  0  0  0  0
    4.1478    1.8293    1.3379 C   0  0  0  0  0  0  0  0  0  0  0  0
    4.2780    2.7030    1.9851 H   0  0  0  0  0  0  0  0  0  0  0  0
    5.0273    1.1461    0.4816 C   0  0  0  0  0  0  0  0  0  0  0  0
    6.3947    1.2721    0.1088 C   0  0  0  0  0  0  0  0  0  0  0  0
    7.0235    2.0724    0.5263 H   0  0  0  0  0  0  0  0  0  0  0  0
    6.9087    0.3568   -0.7977 C   0  0  0  0  0  0  0  0  0  0  0  0
    7.9624    0.4313   -1.1062 H   0  0  0  0  0  0  0  0  0  0  0  0
    6.1019   -0.6906   -1.3472 C   0  0  0  0  0  0  0  0  0  0  0  0
    6.5600   -1.3911   -2.0620 H   0  0  0  0  0  0  0  0  0  0  0  0
    4.7674   -0.8434   -1.0034 C   0  0  0  0  0  0  0  0  0  0  0  0
    4.1449   -1.6474   -1.4212 H   0  0  0  0  0  0  0  0  0  0  0  0
    4.2145    0.0846   -0.0780 C   0  0  0  0  0  0  0  0  0  0  0  0
    0.9189    3.8728    1.1972 C   0  0  0  0  0  0  0  0  0  0  0  0
    1.4152    4.3651    2.0398 H   0  0  0  0  0  0  0  0  0  0  0  0
    0.1478    4.3726    0.1320 C   0  0  0  0  0  0  0  0  0  0  0  0
   -0.3073    5.6538   -0.2853 C   0  0  0  0  0  0  0  0  0  0  0  0
   -0.0436    6.5590    0.2812 H   0  0  0  0  0  0  0  0  0  0  0  0
   -1.0960    5.7243   -1.4247 C   0  0  0  0  0  0  0  0  0  0  0  0
   -1.4638    6.7018   -1.7707 H   0  0  0  0  0  0  0  0  0  0  0  0
   -1.4542    4.5520   -2.1631 C   0  0  0  0  0  0  0  0  0  0  0  0
   -2.0943    4.6615   -3.0515 H   0  0  0  0  0  0  0  0  0  0  0  0
   -1.0257    3.2876   -1.7853 C   0  0  0  0  0  0  0  0  0  0  0  0
   -1.3209    2.3750   -2.3226 H   0  0  0  0  0  0  0  0  0  0  0  0
   -0.2096    3.1969   -0.6274 C   0  0  2  0  0  3  0  0  0  0  0  0
    1.7075    1.5797    1.8787 C   0  0  0  0  0  0  0  0  0  0  0  0
    1.0682    0.6869    2.0768 H   0  0  0  0  0  0  0  0  0  0  0  0
    1.9368    2.0949    2.8283 H   0  0  0  0  0  0  0  0  0  0  0  0
  1  2  1  0  0  0  0
  2  5  1  0  0  0  0
  2 29  1  0  0  0  0
  3  4  1  0  0  0  0
  4 17  1  0  0  0  0
  4 29  1  0  0  0  0
  5  6  1  0  0  0  0
  7  5  2  0  0  0  0
  8  7  1  0  0  0  0
  8  9  1  0  0  0  0
 10  8  2  0  0  0  0
 11 10  1  0  0  0  0
 12 14  2  0  0  0  0
 12 10  1  0  0  0  0
 13 12  1  0  0  0  0
 14 16  1  0  0  0  0
 15 14  1  0  0  0  0
 16  1  2  0  0  0  0
 16  7  1  0  0  0  0
 17 18  1  0  0  0  0
 19 17  2  0  0  0  0
 20 19  1  0  0  0  0
 20 21  1  0  0  0  0
 22 20  2  0  0  0  0
 23 22  1  0  0  0  0
 24 26  2  0  0  0  0
 24 22  1  0  0  0  0
 25 24  1  0  0  0  0
 27 26  1  0  0  0  0
 28 26  1  1  0  0  0
 28  3  1  0  0  0  0
 28 19  1  0  0  0  0
 29 30  1  0  0  0  0
 29 31  1  0  0  0  0
M  END
