1
q = -1.0

 29 31  0  0  0  0  0  0  0  0999 V2000
   -1.9657    0.3223   -0.0160 N   0  0  0  0  0  2  0  0  0  0  0  0
   -9.1021    0.1163    0.1630 N   0  0  0  0  0  0  0  0  0  0  0  0
  -11.1175   -0.0046   -1.0291 N   0  0  0  0  0  0  0  0  0  0  0  0
  -12.6071   -0.0885    1.3453 N   0  0  0  0  0  0  0  0  0  0  0  0
   -2.6746    0.3486   -1.1633 C   0  0  0  0  0  3  0  0  0  0  0  0
   -2.0936    0.4120   -2.0932 H   0  0  0  0  0  0  0  0  0  0  0  0
   -4.0645    0.3144   -1.1693 C   0  0  0  0  0  0  0  0  0  0  0  0
   -4.5733    0.3735   -2.1399 H   0  0  0  0  0  0  0  0  0  0  0  0
   -4.7884    0.2552    0.0525 C   0  0  0  0  0  0  0  0  0  0  0  0
   -4.0025    0.2317    1.2375 C   0  0  0  0  0  0  0  0  0  0  0  0
   -4.4640    0.1821    2.2327 H   0  0  0  0  0  0  0  0  0  0  0  0
   -2.6140    0.2561    1.1656 C   0  0  0  0  0  0  0  0  0  0  0  0
   -1.9733    0.2315    2.0578 H   0  0  0  0  0  0  0  0  0  0  0  0
   -6.2427    0.2218    0.0885 C   0  0  0  0  0  0  0  0  0  0  0  0
   -6.9894    0.3964    1.2943 C   0  0  0  0  0  0  0  0  0  0  0  0
   -6.4815    0.6065    2.2446 H   0  0  0  0  0  0  0  0  0  0  0  0
   -8.3628    0.3522    1.3174 C   0  0  0  0  0  3  0  0  0  0  0  0
   -8.9296    0.5324    2.2362 H   0  0  0  0  0  0  0  0  0  0  0  0
   -8.4106   -0.0340   -1.0362 C   0  0  0  0  0  0  0  0  0  0  0  0
   -9.0548   -0.1983   -1.9077 H   0  0  0  0  0  0  0  0  0  0  0  0
   -7.0386    0.0150   -1.0818 C   0  0  0  0  0  0  0  0  0  0  0  0
   -6.5670   -0.1386   -2.0613 H   0  0  0  0  0  0  0  0  0  0  0  0
  -11.2764   -0.0371    1.3729 C   0  0  0  0  0  0  0  0  0  0  0  0
  -10.8044   -0.0735    2.3687 H   0  0  0  0  0  0  0  0  0  0  0  0
  -10.5170    0.0300    0.1731 C   0  0  0  0  0  0  0  0  0  0  0  0
  -12.4522   -0.0673   -1.0449 C   0  0  0  0  0  0  0  0  0  0  0  0
  -12.9409   -0.1003   -2.0344 H   0  0  0  0  0  0  0  0  0  0  0  0
  -13.2071   -0.0906    0.1402 C   0  0  0  0  0  0  0  0  0  0  0  0
  -14.3091   -0.1245    0.1179 H   0  0  0  0  0  0  0  0  0  0  0  0
  1 12  1  0  0  0  0
  2 25  1  0  0  0  0
  2 17  1  0  0  0  0
  3 25  1  0  0  0  0
  4 23  1  0  0  0  0
  5  1  1  0  0  0  0
  6  5  1  0  0  0  0
  7  5  1  0  0  0  0
  7  9  2  0  0  0  0
  8  7  1  0  0  0  0
  9 14  1  0  0  0  0
  9 10  1  0  0  0  0
 10 11  1  0  0  0  0
 12 10  2  0  0  0  0
 12 13  1  0  0  0  0
 14 15  2  0  0  0  0
 15 17  1  0  0  0  0
 15 16  1  0  0  0  0
 17 18  1  0  0  0  0
 19  2  1  0  0  0  0
 20 19  1  0  0  0  0
 21 19  2  0  0  0  0
 21 14  1  0  0  0  0
 22 21  1  0  0  0  0
 23 24  1  0  0  0  0
 25 23  2  0  0  0  0
 26  3  2  0  0  0  0
 26 28  1  0  0  0  0
 27 26  1  0  0  0  0
 28  4  2  0  0  0  0
 29 28  1  0  0  0  0
M  END
