2
q = -1.0

 13 13  0  0  0  0  0  0  0  0999 V2000
   -6.1698   -0.2741   -0.4140 Br  0  0  0  0  0  0  0  0  0  0  0  0
   -0.1424   -1.3503   -0.8967 N   0  0  0  0  0  2  0  0  0  0  0  0
   -1.4946   -1.0943   -0.8256 C   0  0  0  0  0  0  0  0  0  0  0  0
   -2.0341    0.2218   -0.8816 C   0  0  0  0  0  0  0  0  0  0  0  0
   -3.4055    0.4662   -0.7605 C   0  0  0  0  0  0  0  0  0  0  0  0
   -4.2981   -0.6058   -0.5964 C   0  0  0  0  0  0  0  0  0  0  0  0
   -3.8107   -1.9237   -0.5793 C   0  0  0  0  0  0  0  0  0  0  0  0
   -2.4371   -2.1575   -0.6927 C   0  0  0  0  0  0  0  0  0  0  0  0
   -1.3523    1.0639   -1.0427 H   0  0  0  0  0  0  0  0  0  0  0  0
   -3.7854    1.4973   -0.8043 H   0  0  0  0  0  0  0  0  0  0  0  0
   -4.5074   -2.7668   -0.4647 H   0  0  0  0  0  0  0  0  0  0  0  0
   -2.0644   -3.1943   -0.6568 H   0  0  0  0  0  0  0  0  0  0  0  0
    0.0093   -2.3482   -1.0897 H   0  0  0  0  0  0  0  0  0  0  0  0
  2  3  1  0  0  0  0
  3  8  1  0  0  0  0
  4  3  2  0  0  0  0
  4  5  1  0  0  0  0
  5  6  2  0  0  0  0
  6  7  1  0  0  0  0
  6  1  1  0  0  0  0
  7 11  1  0  0  0  0
  8 12  1  0  0  0  0
  8  7  2  0  0  0  0
  9  4  1  0  0  0  0
 10  5  1  0  0  0  0
 13  2  1  0  0  0  0
M  END
