3
q = 0.0, confidence = 0.99

 43 47  0  0  1  0  0  0  0  0999 V2000
    2.5847   -0.2244   -0.4540 N   0  0  0  0  0  0  0  0  0  0  0  0
    3.9253   -1.7512    0.5467 N   0  0  0  0  0  0  0  0  0  0  0  0
    0.3875   -1.9115   -0.4570 N   0  0  0  0  0  2  0  0  0  0  0  0
   -2.1123   -0.7812   -1.1258 N   0  0  0  0  0  0  0  0  0  0  0  0
   -3.1715   -2.4047    0.0525 N   0  0  0  0  0  0  0  0  0  0  0  0
    3.7379    0.4067   -0.0519 C   0  0  0  0  0  0  0  0  0  0  0  0
    4.1223    1.7588   -0.1738 C   0  0  0  0  0  0  0  0  0  0  0  0
    3.4489    2.4840   -0.6523 H   0  0  0  0  0  0  0  0  0  0  0  0
    5.3668    2.1245    0.3418 C   0  0  0  0  0  0  0  0  0  0  0  0
    5.7007    3.1699    0.2677 H   0  0  0  0  0  0  0  0  0  0  0  0
    6.2198    1.1743    0.9636 C   0  0  0  0  0  0  0  0  0  0  0  0
    7.1947    1.5050    1.3510 H   0  0  0  0  0  0  0  0  0  0  0  0
    5.8591   -0.1715    1.0948 C   0  0  0  0  0  0  0  0  0  0  0  0
    6.5352   -0.8945    1.5733 H   0  0  0  0  0  0  0  0  0  0  0  0
    4.6046   -0.5385    0.5777 C   0  0  0  0  0  0  0  0  0  0  0  0
    4.3871   -2.9605    1.2063 C   0  0  0  0  0  0  0  0  0  0  0  0
    3.5416   -3.4843    1.6897 H   0  0  0  0  0  0  0  0  0  0  0  0
    5.1089   -2.6818    1.9962 H   0  0  0  0  0  0  0  0  0  0  0  0
    4.8936   -3.6525    0.5016 H   0  0  0  0  0  0  0  0  0  0  0  0
    2.7121   -1.4998   -0.0929 C   0  0  0  0  0  0  0  0  0  0  0  0
    1.6282   -2.4607   -0.3214 C   0  0  1  0  0  3  0  0  0  0  0  0
    1.7968   -3.8603   -0.3798 C   0  0  0  0  0  0  0  0  0  0  0  0
    2.7995   -4.3005   -0.3372 H   0  0  0  0  0  0  0  0  0  0  0  0
    0.6734   -4.6813   -0.5327 C   0  0  0  0  0  0  0  0  0  0  0  0
    0.7929   -5.7715   -0.6139 H   0  0  0  0  0  0  0  0  0  0  0  0
   -0.6006   -4.1049   -0.5879 C   0  0  0  0  0  0  0  0  0  0  0  0
   -1.4944   -4.7294   -0.7110 H   0  0  0  0  0  0  0  0  0  0  0  0
   -0.7182   -2.7010   -0.5431 C   0  0  0  0  0  0  0  0  0  0  0  0
   -1.9985   -1.9851   -0.5700 C   0  0  0  0  0  0  0  0  0  0  0  0
   -3.3981   -3.5751    0.8816 C   0  0  0  0  0  0  0  0  0  0  0  0
   -3.8151   -4.4226    0.2988 H   0  0  0  0  0  0  0  0  0  0  0  0
   -4.1150   -3.3148    1.6834 H   0  0  0  0  0  0  0  0  0  0  0  0
   -2.4534   -3.8926    1.3599 H   0  0  0  0  0  0  0  0  0  0  0  0
   -4.0883   -1.3753   -0.1215 C   0  0  0  0  0  0  0  0  0  0  0  0
   -5.4152   -1.2121    0.3115 C   0  0  0  0  0  0  0  0  0  0  0  0
   -5.9504   -1.9890    0.8762 H   0  0  0  0  0  0  0  0  0  0  0  0
   -6.0358   -0.0012   -0.0180 C   0  0  0  0  0  0  0  0  0  0  0  0
   -7.0753    0.1694    0.2987 H   0  0  0  0  0  0  0  0  0  0  0  0
   -5.3640    1.0106   -0.7535 C   0  0  0  0  0  0  0  0  0  0  0  0
   -5.8989    1.9434   -0.9850 H   0  0  0  0  0  0  0  0  0  0  0  0
   -4.0470    0.8438   -1.1871 C   0  0  0  0  0  0  0  0  0  0  0  0
   -3.5135    1.6214   -1.7519 H   0  0  0  0  0  0  0  0  0  0  0  0
   -3.3996   -0.3661   -0.8619 C   0  0  0  0  0  0  0  0  0  0  0  0
  1 20  2  0  0  0  0
  1  6  1  0  0  0  0
  2 15  1  0  0  0  0
  2 16  1  0  0  0  0
  3 21  1  0  0  0  0
  4 43  1  0  0  0  0
  4 29  2  0  0  0  0
  5 30  1  0  0  0  0
  6 15  1  0  0  0  0
  7  6  2  0  0  0  0
  7  9  1  0  0  0  0
  8  7  1  0  0  0  0
  9 11  2  0  0  0  0
 10  9  1  0  0  0  0
 11 13  1  0  0  0  0
 11 12  1  0  0  0  0
 13 14  1  0  0  0  0
 15 13  2  0  0  0  0
 16 17  1  0  0  0  0
 16 18  1  0  0  0  0
 19 16  1  0  0  0  0
 20  2  1  0  0  0  0
 21 20  1  1  0  0  0
 22 23  1  0  0  0  0
 22 21  1  0  0  0  0
 24 22  2  0  0  0  0
 25 24  1  0  0  0  0
 26 28  2  0  0  0  0
 26 24  1  0  0  0  0
 27 26  1  0  0  0  0
 28  3  1  0  0  0  0
 29 28  1  0  0  0  0
 29  5  1  0  0  0  0
 30 33  1  0  0  0  0
 30 32  1  0  0  0  0
 31 30  1  0  0  0  0
 34  5  1  0  0  0  0
 34 35  1  0  0  0  0
 35 36  1  0  0  0  0
 37 38  1  0  0  0  0
 37 35  2  0  0  0  0
 39 37  1  0  0  0  0
 40 39  1  0  0  0  0
 41 43  1  0  0  0  0
 41 39  2  0  0  0  0
 42 41  1  0  0  0  0
 43 34  2  0  0  0  0
M  END
