1
q = 0.0, confidence = 0.978

 10 10  0  0  0  0  0  0  0  0999 V2000
   -1.7157   -0.5451   -0.5447 N   0  0  0  0  0  2  0  0  0  0  0  0
   -2.7906   -0.0962    0.1269 C   0  0  0  0  0  3  0  0  0  0  0  0
   -2.6136    0.5701    0.9885 H   0  0  0  0  0  0  0  0  0  0  0  0
   -4.0697   -0.5028   -0.3029 C   0  0  0  0  0  0  0  0  0  0  0  0
   -3.1725   -1.7320   -1.9920 C   0  0  0  0  0  0  0  0  0  0  0  0
   -3.3264   -2.3939   -2.8604 H   0  0  0  0  0  0  0  0  0  0  0  0
   -1.8764   -1.3697   -1.6050 C   0  0  0  0  0  0  0  0  0  0  0  0
   -0.9632   -1.7168   -2.1171 H   0  0  0  0  0  0  0  0  0  0  0  0
   -5.4517    0.0796    0.5733 Cl  0  0  0  0  0  0  0  0  0  0  0  0
   -4.2667   -1.3017   -1.3436 N   0  0  0  0  0  0  0  0  0  0  0  0
  1  2  1  0  0  0  0
  2  3  1  0  0  0  0
  4  2  1  0  0  0  0
  4  9  1  0  0  0  0
  5  7  2  0  0  0  0
  5 10  1  0  0  0  0
  6  5  1  0  0  0  0
  7  1  1  0  0  0  0
  8  7  1  0  0  0  0
 10  4  2  0  0  0  0
M  END
