1
q = 0.0, confidence = 0.978

 23 25  0  0  1  0  0  0  0  0999 V2000
    0.8399    1.6853    0.0008 N   0  0  0  0  0  2  0  0  0  0  0  0
   -0.5163    1.8108    0.0010 C   0  0  0  0  0  0  0  0  0  0  0  0
   -1.1521    3.1160    0.0022 C   0  0  0  0  0  0  0  0  0  0  0  0
   -0.3321    4.2533    0.0031 C   0  0  0  0  0  0  0  0  0  0  0  0
    1.0686    4.1269    0.0026 C   0  0  0  0  0  0  0  0  0  0  0  0
    1.6366    2.7942    0.0014 C   0  0  2  0  0  3  0  0  0  0  0  0
    3.0585    2.6571    0.0008 C   0  0  0  0  0  0  0  0  0  0  0  0
    3.8723    3.7755    0.0016 C   0  0  0  0  0  0  0  0  0  0  0  0
    3.3166    5.0891    0.0028 C   0  0  0  0  0  0  0  0  0  0  0  0
    1.9455    5.2577    0.0034 C   0  0  0  0  0  0  0  0  0  0  0  0
   -2.5830    3.1933    0.0024 C   0  0  0  0  0  0  0  0  0  0  0  0
   -3.3435    2.0431    0.0014 C   0  0  0  0  0  0  0  0  0  0  0  0
   -2.7080    0.7667    0.0002 C   0  0  0  0  0  0  0  0  0  0  0  0
   -1.3343    0.6463    0.0000 C   0  0  0  0  0  0  0  0  0  0  0  0
   -0.7886    5.2561    0.0040 H   0  0  0  0  0  0  0  0  0  0  0  0
    3.4731    1.6363   -0.0001 H   0  0  0  0  0  0  0  0  0  0  0  0
    4.9653    3.6487    0.0011 H   0  0  0  0  0  0  0  0  0  0  0  0
    3.9834    5.9639    0.0034 H   0  0  0  0  0  0  0  0  0  0  0  0
    1.4996    6.2642    0.0043 H   0  0  0  0  0  0  0  0  0  0  0  0
   -3.0536    4.1883    0.0034 H   0  0  0  0  0  0  0  0  0  0  0  0
   -4.4421    2.0941    0.0015 H   0  0  0  0  0  0  0  0  0  0  0  0
   -3.3329   -0.1312   -0.0008 H   0  0  0  0  0  0  0  0  0  0  0  0
   -0.8414   -0.3353   -0.0011 H   0  0  0  0  0  0  0  0  0  0  0  0
  1  2  1  0  0  0  0
  2  3  1  0  0  0  0
  3 11  2  0  0  0  0
  3  4  1  0  0  0  0
  4 15  1  0  0  0  0
  5  4  2  0  0  0  0
  5 10  1  0  0  0  0
  6  1  1  6  0  0  0
  6  5  1  0  0  0  0
  7  6  1  0  0  0  0
  7  8  2  0  0  0  0
  8  9  1  0  0  0  0
  9 10  2  0  0  0  0
  9 18  1  0  0  0  0
 10 19  1  0  0  0  0
 11 20  1  0  0  0  0
 12 21  1  0  0  0  0
 12 11  1  0  0  0  0
 13 12  2  0  0  0  0
 14 13  1  0  0  0  0
 14  2  2  0  0  0  0
 16  7  1  0  0  0  0
 17  8  1  0  0  0  0
 22 13  1  0  0  0  0
 23 14  1  0  0  0  0
M  END
