1
q = 0.0, confidence = 1.0

 42 42  0  0  0  0  0  0  0  0999 V2000
   -0.4630    0.0085    0.8512 N   0  0  0  0  0  0  0  0  0  0  0  0
   -1.1393   -0.2748    0.0964 H   0  0  0  0  0  0  0  0  0  0  0  0
   -3.1579    1.2019    0.2602 N   0  0  0  0  0  0  0  0  0  0  0  0
   -2.5125   -1.7258    0.4338 N   0  0  0  0  0  0  0  0  0  0  0  0
   -0.8510    1.3909    1.2095 C   0  0  0  0  0  0  0  0  0  0  0  0
   -0.5165    2.0317    0.3745 H   0  0  0  0  0  0  0  0  0  0  0  0
   -0.3058    1.6976    2.1253 H   0  0  0  0  0  0  0  0  0  0  0  0
   -2.3666    1.5840    1.4196 C   0  0  0  0  0  0  0  0  0  0  0  0
   -2.6995    1.0064    2.3082 H   0  0  0  0  0  0  0  0  0  0  0  0
   -2.5243    2.6517    1.7041 H   0  0  0  0  0  0  0  0  0  0  0  0
   -4.1882    0.2017    0.4828 C   0  0  0  0  0  0  0  0  0  0  0  0
   -5.0049    0.5464    1.1757 H   0  0  0  0  0  0  0  0  0  0  0  0
   -4.6796    0.0337   -0.4955 H   0  0  0  0  0  0  0  0  0  0  0  0
   -3.6991   -1.1482    1.0471 C   0  0  0  0  0  0  0  0  0  0  0  0
   -3.4857   -1.0201    2.1291 H   0  0  0  0  0  0  0  0  0  0  0  0
   -4.5741   -1.8440    1.0169 H   0  0  0  0  0  0  0  0  0  0  0  0
   -1.5049   -2.1787    1.3783 C   0  0  0  0  0  0  0  0  0  0  0  0
   -0.7984   -2.8319    0.8331 H   0  0  0  0  0  0  0  0  0  0  0  0
   -1.9184   -2.7596    2.2404 H   0  0  0  0  0  0  0  0  0  0  0  0
   -0.6938   -0.9832    1.9299 C   0  0  0  0  0  0  0  0  0  0  0  0
    0.2718   -1.3459    2.3346 H   0  0  0  0  0  0  0  0  0  0  0  0
   -1.2374   -0.4944    2.7671 H   0  0  0  0  0  0  0  0  0  0  0  0
   -3.5974    2.2983   -0.6252 C   0  0  0  0  0  0  0  0  0  0  0  0
   -4.0288    1.7849   -1.5137 H   0  0  0  0  0  0  0  0  0  0  0  0
   -2.4308    3.1527   -1.1277 C   0  0  0  0  0  0  0  0  0  0  0  0
   -1.9960    3.7728   -0.3150 H   0  0  0  0  0  0  0  0  0  0  0  0
   -2.7907    3.8546   -1.9063 H   0  0  0  0  0  0  0  0  0  0  0  0
   -1.6298    2.5200   -1.5591 H   0  0  0  0  0  0  0  0  0  0  0  0
   -4.7034    3.1808   -0.0125 C   0  0  0  0  0  0  0  0  0  0  0  0
   -4.3349    3.7241    0.8835 H   0  0  0  0  0  0  0  0  0  0  0  0
   -5.5898    2.5878    0.2897 H   0  0  0  0  0  0  0  0  0  0  0  0
   -5.0436    3.9442   -0.7409 H   0  0  0  0  0  0  0  0  0  0  0  0
   -2.6678   -2.5626   -0.7731 C   0  0  0  0  0  0  0  0  0  0  0  0
   -1.6267   -2.8367   -1.0459 H   0  0  0  0  0  0  0  0  0  0  0  0
   -3.2260   -1.7674   -1.9571 C   0  0  0  0  0  0  0  0  0  0  0  0
   -4.3035   -1.5306   -1.8354 H   0  0  0  0  0  0  0  0  0  0  0  0
   -3.1278   -2.3630   -2.8868 H   0  0  0  0  0  0  0  0  0  0  0  0
   -2.6586   -0.8249   -2.0883 H   0  0  0  0  0  0  0  0  0  0  0  0
   -3.4573   -3.8578   -0.5217 C   0  0  0  0  0  0  0  0  0  0  0  0
   -3.0108   -4.4490    0.3039 H   0  0  0  0  0  0  0  0  0  0  0  0
   -3.4590   -4.4959   -1.4284 H   0  0  0  0  0  0  0  0  0  0  0  0
   -4.5185   -3.6545   -0.2636 H   0  0  0  0  0  0  0  0  0  0  0  0
  1  5  1  0  0  0  0
  1 20  1  0  0  0  0
  2  1  1  0  0  0  0
  3 11  1  0  0  0  0
  3  8  1  0  0  0  0
  4 14  1  0  0  0  0
  4 17  1  0  0  0  0
  5  8  1  0  0  0  0
  5  7  1  0  0  0  0
  6  5  1  0  0  0  0
  8 10  1  0  0  0  0
  8  9  1  0  0  0  0
 11 14  1  0  0  0  0
 11 12  1  0  0  0  0
 13 11  1  0  0  0  0
 14 15  1  0  0  0  0
 16 14  1  0  0  0  0
 17 20  1  0  0  0  0
 17 19  1  0  0  0  0
 18 17  1  0  0  0  0
 20 21  1  0  0  0  0
 20 22  1  0  0  0  0
 23 29  1  0  0  0  0
 23  3  1  0  0  0  0
 24 23  1  0  0  0  0
 25 23  1  0  0  0  0
 25 26  1  0  0  0  0
 27 25  1  0  0  0  0
 28 25  1  0  0  0  0
 29 31  1  0  0  0  0
 29 30  1  0  0  0  0
 32 29  1  0  0  0  0
 33 39  1  0  0  0  0
 33  4  1  0  0  0  0
 34 33  1  0  0  0  0
 35 36  1  0  0  0  0
 35 33  1  0  0  0  0
 37 35  1  0  0  0  0
 38 35  1  0  0  0  0
 39 42  1  0  0  0  0
 39 40  1  0  0  0  0
 41 39  1  0  0  0  0
M  END
