5
q = -1.0, confidence = 0.0

 11 11  0  0  0  0  0  0  0  0999 V2000
    3.2586   -1.9804   -0.1235 N   0  0  0  0  0  0  0  0  0  0  0  0
    3.4715   -2.8914    0.2858 H   0  0  0  0  0  0  0  0  0  0  0  0
    2.2187   -1.2727    0.4907 C   0  0  0  0  0  0  0  0  0  0  0  0
    1.6481   -1.7832    1.4788 O   0  0  0  0  0  0  0  0  0  0  0  0
    1.9010   -0.0567   -0.0425 N   0  0  0  0  0  2  0  0  0  0  0  0
    2.5595    0.5103   -1.1408 C   0  0  0  0  0  0  0  0  0  0  0  0
    2.2355    1.6277   -1.5791 O   0  0  0  0  0  0  0  0  0  0  0  0
    3.6379   -0.2824   -1.7377 C   0  0  0  0  0  0  0  0  0  0  0  0
    4.1685    0.1259   -2.6058 H   0  0  0  0  0  0  0  0  0  0  0  0
    3.9447   -1.5008   -1.2118 C   0  0  0  0  0  0  0  0  0  0  0  0
    4.7354   -2.1526   -1.6120 H   0  0  0  0  0  0  0  0  0  0  0  0
  1  2  1  0  0  0  0
  1  3  1  0  0  0  0
  3  4  2  0  0  0  0
  5  3  1  0  0  0  0
  6  5  1  0  0  0  0
  7  6  2  0  0  0  0
  8 10  2  0  0  0  0
  8  6  1  0  0  0  0
  9  8  1  0  0  0  0
 10  1  1  0  0  0  0
 11 10  1  0  0  0  0
M  END
