1
q = -1.0

 28 28  0  0  0  0  0  0  0  0999 V2000
   -0.7019   -0.0000   -0.0859 N   0  0  0  0  0  2  0  0  0  0  0  0
   -1.4273    1.3285    0.0088 C   0  0  0  0  0  0  0  0  0  0  0  0
   -2.8491    1.2254   -0.5907 C   0  0  0  0  0  0  0  0  0  0  0  0
   -3.6259    0.0000   -0.1367 C   0  0  0  0  0  0  0  0  0  0  0  0
   -0.6774    2.3838   -0.8321 C   0  0  0  0  0  0  0  0  0  0  0  0
   -1.4969    1.7877    1.4787 C   0  0  0  0  0  0  0  0  0  0  0  0
   -3.3776    2.1668   -0.3363 H   0  0  0  0  0  0  0  0  0  0  0  0
   -2.7632    1.1992   -1.6984 H   0  0  0  0  0  0  0  0  0  0  0  0
   -4.6414    0.0000   -0.5826 H   0  0  0  0  0  0  0  0  0  0  0  0
   -3.7690    0.0000    0.9647 H   0  0  0  0  0  0  0  0  0  0  0  0
   -0.5161    2.0196   -1.8661 H   0  0  0  0  0  0  0  0  0  0  0  0
    0.2977    2.6657   -0.3925 H   0  0  0  0  0  0  0  0  0  0  0  0
   -1.2898    3.3057   -0.8849 H   0  0  0  0  0  0  0  0  0  0  0  0
   -1.9633    2.7912    1.5428 H   0  0  0  0  0  0  0  0  0  0  0  0
   -0.4810    1.8574    1.9143 H   0  0  0  0  0  0  0  0  0  0  0  0
   -2.0950    1.0939    2.0998 H   0  0  0  0  0  0  0  0  0  0  0  0
   -1.4273   -1.3285    0.0088 C   0  0  0  0  0  0  0  0  0  0  0  0
   -2.8491   -1.2253   -0.5907 C   0  0  0  0  0  0  0  0  0  0  0  0
   -0.6774   -2.3838   -0.8321 C   0  0  0  0  0  0  0  0  0  0  0  0
   -1.4969   -1.7877    1.4787 C   0  0  0  0  0  0  0  0  0  0  0  0
   -3.3776   -2.1668   -0.3362 H   0  0  0  0  0  0  0  0  0  0  0  0
   -2.7633   -1.1992   -1.6984 H   0  0  0  0  0  0  0  0  0  0  0  0
   -0.5161   -2.0196   -1.8661 H   0  0  0  0  0  0  0  0  0  0  0  0
    0.2977   -2.6658   -0.3925 H   0  0  0  0  0  0  0  0  0  0  0  0
   -1.2899   -3.3057   -0.8849 H   0  0  0  0  0  0  0  0  0  0  0  0
   -1.9633   -2.7912    1.5428 H   0  0  0  0  0  0  0  0  0  0  0  0
   -0.4810   -1.8574    1.9143 H   0  0  0  0  0  0  0  0  0  0  0  0
   -2.0949   -1.0939    2.0998 H   0  0  0  0  0  0  0  0  0  0  0  0
  1  2  1  0  0  0  0
  1 17  1  0  0  0  0
  2  6  1  0  0  0  0
  3  7  1  0  0  0  0
  3  4  1  0  0  0  0
  3  2  1  0  0  0  0
  4 10  1  0  0  0  0
  5 12  1  0  0  0  0
  5  2  1  0  0  0  0
  6 14  1  0  0  0  0
  6 15  1  0  0  0  0
  6 16  1  0  0  0  0
  8  3  1  0  0  0  0
  9  4  1  0  0  0  0
 11  5  1  0  0  0  0
 13  5  1  0  0  0  0
 17 20  1  0  0  0  0
 18 21  1  0  0  0  0
 18  4  1  0  0  0  0
 18 17  1  0  0  0  0
 19 24  1  0  0  0  0
 19 17  1  0  0  0  0
 20 26  1  0  0  0  0
 20 27  1  0  0  0  0
 20 28  1  0  0  0  0
 22 18  1  0  0  0  0
 23 19  1  0  0  0  0
 25 19  1  0  0  0  0
M  END
