4
q = -2.0, confidence = 0.896

 42 43  0  0  0  0  0  0  0  0999 V2000
   -1.7520   -1.7834    0.6175 S   0  0  0  0  0  0  0  0  0  0  0  0
    0.8832    1.3435   -1.7511 S   0  0  0  0  0  1  0  0  0  0  0  0
   -2.2506    0.8400   -0.9765 N   0  0  0  0  0  0  0  0  0  0  0  0
   -0.2123    1.4083    1.1165 N   0  0  0  0  0  0  0  0  0  0  0  0
   -1.2551   -2.1172   -1.2348 B   0  0  0  0  0  0  0  0  0  0  0  0
   -3.3276   -0.9643    0.3964 C   0  0  0  0  0  0  0  0  0  0  0  0
   -4.4718   -1.5195    1.0022 C   0  0  0  0  0  0  0  0  0  0  0  0
   -5.7289   -0.9308    0.8245 C   0  0  0  0  0  0  0  0  0  0  0  0
   -5.8510    0.2219    0.0318 C   0  0  0  0  0  0  0  0  0  0  0  0
   -4.7126    0.7800   -0.5646 C   0  0  0  0  0  0  0  0  0  0  0  0
   -3.4402    0.2044   -0.3835 C   0  0  0  0  0  0  0  0  0  0  0  0
   -2.0478    2.1863   -0.3714 C   0  0  0  0  0  0  0  0  0  0  0  0
   -2.3978    0.9553   -2.4489 C   0  0  0  0  0  0  0  0  0  0  0  0
    1.2903    2.5396   -0.5325 C   0  0  0  0  0  0  0  0  0  0  0  0
    2.1825    3.5993   -0.8394 C   0  0  0  0  0  0  0  0  0  0  0  0
    2.5741    4.5235    0.1312 C   0  0  0  0  0  0  0  0  0  0  0  0
    2.0824    4.4190    1.4451 C   0  0  0  0  0  0  0  0  0  0  0  0
    1.1860    3.3886    1.7613 C   0  0  0  0  0  0  0  0  0  0  0  0
    0.7877    2.4506    0.7911 C   0  0  0  0  0  0  0  0  0  0  0  0
   -1.5800    2.0271    1.0569 C   0  0  0  0  0  0  0  0  0  0  0  0
   -0.0241    0.8750    2.4842 C   0  0  0  0  0  0  0  0  0  0  0  0
   -2.2434   -2.0220   -1.9524 H   0  0  0  0  0  0  0  0  0  0  0  0
   -0.6528   -3.1746   -1.3346 H   0  0  0  0  0  0  0  0  0  0  0  0
   -0.3559   -1.1665   -1.7957 H   0  0  0  0  0  0  0  0  0  0  0  0
   -4.3575   -2.4319    1.6068 H   0  0  0  0  0  0  0  0  0  0  0  0
   -6.6160   -1.3760    1.2997 H   0  0  0  0  0  0  0  0  0  0  0  0
   -6.8339    0.6918   -0.1217 H   0  0  0  0  0  0  0  0  0  0  0  0
   -4.8182    1.6871   -1.1783 H   0  0  0  0  0  0  0  0  0  0  0  0
   -2.9847    2.7863   -0.4029 H   0  0  0  0  0  0  0  0  0  0  0  0
   -1.2835    2.7122   -0.9768 H   0  0  0  0  0  0  0  0  0  0  0  0
   -2.5519   -0.0543   -2.8683 H   0  0  0  0  0  0  0  0  0  0  0  0
   -1.4614    1.3879   -2.8508 H   0  0  0  0  0  0  0  0  0  0  0  0
   -3.2548    1.6077   -2.7248 H   0  0  0  0  0  0  0  0  0  0  0  0
    2.5781    3.6627   -1.8646 H   0  0  0  0  0  0  0  0  0  0  0  0
    3.2790    5.3267   -0.1336 H   0  0  0  0  0  0  0  0  0  0  0  0
    2.3931    5.1340    2.2207 H   0  0  0  0  0  0  0  0  0  0  0  0
    0.7936    3.3220    2.7863 H   0  0  0  0  0  0  0  0  0  0  0  0
   -1.5687    3.0090    1.5782 H   0  0  0  0  0  0  0  0  0  0  0  0
   -2.2772    1.3605    1.6052 H   0  0  0  0  0  0  0  0  0  0  0  0
   -0.2614    1.6317    3.2641 H   0  0  0  0  0  0  0  0  0  0  0  0
   -0.6899    0.0054    2.6173 H   0  0  0  0  0  0  0  0  0  0  0  0
    1.0225    0.5522    2.6080 H   0  0  0  0  0  0  0  0  0  0  0  0
  2 14  1  0  0  0  0
  3 11  1  0  0  0  0
  3 12  1  0  0  0  0
  4 21  1  0  0  0  0
  5  1  1  0  0  0  0
  6  1  1  0  0  0  0
  6  7  1  0  0  0  0
  7 25  1  0  0  0  0
  8  7  2  0  0  0  0
  8 26  1  0  0  0  0
  9  8  1  0  0  0  0
 10 11  1  0  0  0  0
 10  9  2  0  0  0  0
 11  6  2  0  0  0  0
 12 20  1  0  0  0  0
 13  3  1  0  0  0  0
 14 19  1  0  0  0  0
 15 14  2  0  0  0  0
 15 16  1  0  0  0  0
 16 17  2  0  0  0  0
 17 18  1  0  0  0  0
 17 36  1  0  0  0  0
 18 37  1  0  0  0  0
 19  4  1  0  0  0  0
 19 18  2  0  0  0  0
 20  4  1  0  0  0  0
 20 38  1  0  0  0  0
 20 39  1  0  0  0  0
 21 42  1  0  0  0  0
 21 41  1  0  0  0  0
 21 40  1  0  0  0  0
 22  5  1  0  0  0  0
 23  5  1  0  0  0  0
 24  5  1  0  0  0  0
 27  9  1  0  0  0  0
 28 10  1  0  0  0  0
 29 12  1  0  0  0  0
 30 12  1  0  0  0  0
 31 13  1  0  0  0  0
 32 13  1  0  0  0  0
 33 13  1  0  0  0  0
 34 15  1  0  0  0  0
 35 16  1  0  0  0  0
M  END
