8
q = 0.0, confidence = 0.996

 15 16  0  0  1  0  0  0  0  0999 V2000
    1.6755   -1.7040    1.5457 Cl  0  0  0  0  0  0  0  0  0  0  0  0
    3.0400   -0.8389   -0.6858 N   0  0  0  0  0  0  0  0  0  0  0  0
    3.8055    0.2960   -0.5896 C   0  0  0  0  0  0  0  0  0  0  0  0
    3.3539    1.4983   -0.3356 N   0  0  0  0  0  0  0  0  0  0  0  0
    2.0004    1.5053   -0.1655 C   0  0  0  0  0  0  0  0  0  0  0  0
    1.1412    0.4109   -0.1697 C   0  0  0  0  0  0  0  0  0  0  0  0
    1.6915   -0.9519   -0.2105 C   0  0  2  0  0  0  0  0  0  0  0  0
   -0.1516    0.8397    0.0025 N   0  0  0  0  0  2  0  0  0  0  0  0
   -0.1061    2.1705    0.1029 C   0  0  0  0  0  3  0  0  0  0  0  0
    1.1819    2.6108    0.0082 N   0  0  0  0  0  0  0  0  0  0  0  0
    3.5297   -1.7188   -0.8608 H   0  0  0  0  0  0  0  0  0  0  0  0
    4.8808    0.1524   -0.7918 H   0  0  0  0  0  0  0  0  0  0  0  0
    1.0796   -1.6856   -0.7681 H   0  0  0  0  0  0  0  0  0  0  0  0
   -0.9935    2.8022    0.2379 H   0  0  0  0  0  0  0  0  0  0  0  0
    1.4997    3.5811    0.0468 H   0  0  0  0  0  0  0  0  0  0  0  0
  2  3  1  0  0  0  0
  2  7  1  0  0  0  0
  3  4  2  0  0  0  0
  4  5  1  0  0  0  0
  5 10  1  0  0  0  0
  6  5  2  0  0  0  0
  6  8  1  0  0  0  0
  7 13  1  6  0  0  0
  7  6  1  0  0  0  0
  7  1  1  0  0  0  0
  8  9  1  0  0  0  0
  9 14  1  0  0  0  0
 10 15  1  0  0  0  0
 10  9  1  0  0  0  0
 11  2  1  0  0  0  0
 12  3  1  0  0  0  0
M  END
