2
q = -1.0

 16 17  0  0  0  0  0  0  0  0999 V2000
   -2.8389    1.2739    0.7346 S   0  0  0  0  0  0  0  0  0  0  0  0
   -1.9767    0.3017   -0.3526 N   0  0  0  0  0  2  0  0  0  0  0  0
   -2.3866   -1.2493   -2.0355 O   0  0  0  0  0  0  0  0  0  0  0  0
   -2.4452    0.9071    2.1287 O   0  0  0  0  0  0  0  0  0  0  0  0
   -2.7968    2.7085    0.3827 O   0  0  0  0  0  0  0  0  0  0  0  0
   -2.7828   -0.4827   -1.1614 C   0  0  0  0  0  0  0  0  0  0  0  0
   -4.2337   -0.2949   -0.7941 C   0  0  0  0  0  0  0  0  0  0  0  0
   -4.4323    0.5936    0.2691 C   0  0  0  0  0  0  0  0  0  0  0  0
   -5.6955    0.9031    0.7734 C   0  0  0  0  0  0  0  0  0  0  0  0
   -5.8244    1.6159    1.6007 H   0  0  0  0  0  0  0  0  0  0  0  0
   -6.7954    0.2575    0.1786 C   0  0  0  0  0  0  0  0  0  0  0  0
   -7.8099    0.4637    0.5521 H   0  0  0  0  0  0  0  0  0  0  0  0
   -6.6158   -0.6453   -0.8878 C   0  0  0  0  0  0  0  0  0  0  0  0
   -7.4947   -1.1334   -1.3353 H   0  0  0  0  0  0  0  0  0  0  0  0
   -5.3322   -0.9278   -1.3860 C   0  0  0  0  0  0  0  0  0  0  0  0
   -5.1643   -1.6269   -2.2186 H   0  0  0  0  0  0  0  0  0  0  0  0
  1  4  2  0  0  0  0
  2  1  1  0  0  0  0
  3  6  2  0  0  0  0
  5  1  2  0  0  0  0
  6  7  1  0  0  0  0
  6  2  1  0  0  0  0
  7  8  1  0  0  0  0
  8  1  1  0  0  0  0
  8  9  2  0  0  0  0
  9 10  1  0  0  0  0
 11 12  1  0  0  0  0
 11  9  1  0  0  0  0
 13 11  2  0  0  0  0
 14 13  1  0  0  0  0
 15 13  1  0  0  0  0
 15  7  2  0  0  0  0
 16 15  1  0  0  0  0
M  END
