2
q = 0.0, confidence = 0.998

 25 26  0  0  1  0  0  0  0  0999 V2000
   -4.2503   -1.5148    1.1985 O   0  0  0  0  0  0  0  0  0  0  0  0
   -2.2912   -0.6549    0.6089 N   0  0  0  0  0  2  0  0  0  0  0  0
   -4.5405   -0.4146    0.2475 N   0  0  0  0  0  0  0  0  0  0  0  0
   -2.9410   -1.4353    1.4255 C   0  0  1  0  0  3  0  0  0  0  0  0
   -2.3941   -2.2050    2.5707 C   0  0  0  0  0  0  0  0  0  0  0  0
   -2.7305   -1.7503    3.5245 H   0  0  0  0  0  0  0  0  0  0  0  0
   -1.2910   -2.2112    2.5279 H   0  0  0  0  0  0  0  0  0  0  0  0
   -2.7780   -3.2433    2.5440 H   0  0  0  0  0  0  0  0  0  0  0  0
   -5.6247   -0.8368   -0.6132 C   0  0  0  0  0  0  0  0  0  0  0  0
   -5.3746   -1.7281   -1.2360 H   0  0  0  0  0  0  0  0  0  0  0  0
   -5.8461    0.0201   -1.2797 H   0  0  0  0  0  0  0  0  0  0  0  0
   -6.5256   -1.0393   -0.0052 H   0  0  0  0  0  0  0  0  0  0  0  0
   -3.0435    1.2319   -0.8560 C   0  0  0  0  0  0  0  0  0  0  0  0
   -3.2461   -0.2038   -0.4258 C   0  0  1  0  0  0  0  0  0  0  0  0
   -3.1109   -0.8765   -1.3153 H   0  0  0  0  0  0  0  0  0  0  0  0
   -3.4250    2.2940   -0.0148 C   0  0  0  0  0  0  0  0  0  0  0  0
   -3.9243    2.0699    0.9392 H   0  0  0  0  0  0  0  0  0  0  0  0
   -2.4225    1.5030   -2.0890 C   0  0  0  0  0  0  0  0  0  0  0  0
   -2.1311    0.6683   -2.7462 H   0  0  0  0  0  0  0  0  0  0  0  0
   -3.1838    3.6179   -0.4083 C   0  0  0  0  0  0  0  0  0  0  0  0
   -3.4898    4.4476    0.2463 H   0  0  0  0  0  0  0  0  0  0  0  0
   -2.5594    3.8868   -1.6384 C   0  0  0  0  0  0  0  0  0  0  0  0
   -2.3767    4.9272   -1.9466 H   0  0  0  0  0  0  0  0  0  0  0  0
   -2.1780    2.8288   -2.4786 C   0  0  0  0  0  0  0  0  0  0  0  0
   -1.6968    3.0367   -3.4460 H   0  0  0  0  0  0  0  0  0  0  0  0
  1  4  1  0  0  0  0
  2  4  1  0  0  0  0
  3  1  1  0  0  0  0
  4  5  1  1  0  0  0
  5  6  1  0  0  0  0
  7  5  1  0  0  0  0
  8  5  1  0  0  0  0
  9 12  1  0  0  0  0
  9  3  1  0  0  0  0
 10  9  1  0  0  0  0
 11  9  1  0  0  0  0
 13 14  1  0  0  0  0
 13 16  1  0  0  0  0
 14 15  1  6  0  0  0
 14  3  1  0  0  0  0
 14  2  1  0  0  0  0
 16 17  1  0  0  0  0
 18 13  2  0  0  0  0
 19 18  1  0  0  0  0
 20 16  2  0  0  0  0
 20 21  1  0  0  0  0
 22 20  1  0  0  0  0
 23 22  1  0  0  0  0
 24 18  1  0  0  0  0
 24 22  2  0  0  0  0
 25 24  1  0  0  0  0
M  END
