2
q = -2.0, confidence = 0.538

 38 43  0  0  1  0  0  0  0  0999 V2000
   -0.3140   -2.2916    0.3123 N   0  0  0  0  0  2  0  0  0  0  0  0
    0.3757   -1.2382    0.0501 N   0  0  0  0  0  2  0  0  0  0  0  0
    5.9016   -2.0592    0.1795 O   0  0  0  0  0  0  0  0  0  0  0  0
   -2.1916   -1.6757   -1.4185 B   0  0  2  0  0  0  0  0  0  0  0  0
   -1.4136   -1.6351   -2.3267 H   0  0  0  0  0  0  0  0  0  0  0  0
   -2.6777   -3.2064   -0.6545 B   0  0  0  0  0  0  0  0  0  0  0  0
   -2.1698   -4.2264   -1.0449 H   0  0  0  0  0  0  0  0  0  0  0  0
   -2.8953   -2.8886    1.0828 B   0  0  2  0  0  0  0  0  0  0  0  0
   -2.5444   -3.7090    1.8937 H   0  0  0  0  0  0  0  0  0  0  0  0
   -2.5352   -1.1632    1.3798 B   0  0  1  0  0  0  0  0  0  0  0  0
   -1.9429   -0.8601    2.3843 H   0  0  0  0  0  0  0  0  0  0  0  0
   -3.7018   -0.1791    0.4822 B   0  0  1  0  0  0  0  0  0  0  0  0
   -4.0987    0.9218    0.7640 H   0  0  0  0  0  0  0  0  0  0  0  0
   -3.4418   -0.5951   -1.1501 C   0  0  2  0  0  0  0  0  0  0  0  0
   -3.6100    0.1714   -1.9175 H   0  0  0  0  0  0  0  0  0  0  0  0
   -3.8587   -2.2203   -1.5460 B   0  0  1  0  0  0  0  0  0  0  0  0
   -4.2955   -2.4754   -2.6402 H   0  0  0  0  0  0  0  0  0  0  0  0
   -4.3137   -2.9671    0.0046 B   0  0  0  0  0  0  0  0  0  0  0  0
   -5.1134   -3.8710    0.0491 H   0  0  0  0  0  0  0  0  0  0  0  0
   -4.2172   -1.7048    1.2663 B   0  0  0  0  0  0  0  0  0  0  0  0
   -4.9367   -1.6908    2.2371 H   0  0  0  0  0  0  0  0  0  0  0  0
   -4.8011   -1.2893   -0.3645 B   0  0  1  0  0  0  0  0  0  0  0  0
   -5.9095   -0.9098   -0.6501 H   0  0  0  0  0  0  0  0  0  0  0  0
   -1.7093   -2.0527    0.1683 C   0  0  1  0  0  0  0  0  0  0  0  0
    1.7906   -1.4428    0.0885 C   0  0  0  0  0  0  0  0  0  0  0  0
    2.5753   -0.8578   -0.9196 C   0  0  0  0  0  0  0  0  0  0  0  0
    2.0765   -0.2695   -1.7060 H   0  0  0  0  0  0  0  0  0  0  0  0
    3.9610   -1.0589   -0.9321 C   0  0  0  0  0  0  0  0  0  0  0  0
    4.5568   -0.6153   -1.7403 H   0  0  0  0  0  0  0  0  0  0  0  0
    4.5699   -1.8255    0.0866 C   0  0  0  0  0  0  0  0  0  0  0  0
    3.7694   -2.4083    1.0992 C   0  0  0  0  0  0  0  0  0  0  0  0
    4.2683   -2.9987    1.8809 H   0  0  0  0  0  0  0  0  0  0  0  0
    2.3870   -2.2369    1.0898 C   0  0  0  0  0  0  0  0  0  0  0  0
    1.7479   -2.7021    1.8531 H   0  0  0  0  0  0  0  0  0  0  0  0
    6.7587   -1.5074   -0.8056 C   0  0  0  0  0  0  0  0  0  0  0  0
    6.5182   -1.8895   -1.8223 H   0  0  0  0  0  0  0  0  0  0  0  0
    7.7843   -1.8196   -0.5364 H   0  0  0  0  0  0  0  0  0  0  0  0
    6.7093   -0.3957   -0.8191 H   0  0  0  0  0  0  0  0  0  0  0  0
  2 25  1  0  0  0  0
  2  1  1  0  0  0  0
  4  5  1  6  0  0  0
  4 14  1  0  0  0  0
  4 24  1  0  0  0  0
  6  8  1  0  0  0  0
  7  6  1  0  0  0  0
  8  9  1  1  0  0  0
 10 11  1  1  0  0  0
 12 13  1  1  0  0  0
 12 10  1  0  0  0  0
 14 15  1  6  0  0  0
 14 22  1  0  0  0  0
 14 12  1  0  0  0  0
 16 17  1  6  0  0  0
 16  4  1  0  0  0  0
 16  6  1  0  0  0  0
 16 22  1  0  0  0  0
 18 19  1  0  0  0  0
 18  8  1  0  0  0  0
 18 20  1  0  0  0  0
 20 10  1  0  0  0  0
 20 21  1  0  0  0  0
 22 23  1  6  0  0  0
 22 12  1  0  0  0  0
 24  1  1  1  0  0  0
 24  8  1  0  0  0  0
 24 10  1  0  0  0  0
 25 33  1  0  0  0  0
 26 25  2  0  0  0  0
 27 26  1  0  0  0  0
 28 26  1  0  0  0  0
 28 30  2  0  0  0  0
 29 28  1  0  0  0  0
 30  3  1  0  0  0  0
 30 31  1  0  0  0  0
 31 32  1  0  0  0  0
 33 31  2  0  0  0  0
 33 34  1  0  0  0  0
 35 37  1  0  0  0  0
 35  3  1  0  0  0  0
 36 35  1  0  0  0  0
 38 35  1  0  0  0  0
M  END
