1
q = -1.0, confidence = 0.0

 34 35  0  0  1  0  0  0  0  0999 V2000
   -0.4624    1.8564   -0.6947 N   0  0  0  0  0  0  0  0  0  0  0  0
   -0.6626   -1.3591   -1.6948 C   0  0  0  0  0  0  0  0  0  0  0  0
    0.0935   -2.4146   -1.1151 C   0  0  0  0  0  0  0  0  0  0  0  0
   -0.3396   -2.5719    0.2326 C   0  0  0  0  0  0  0  0  0  0  0  0
   -1.3803   -1.6282    0.4766 C   0  0  0  0  0  0  0  0  0  0  0  0
   -1.5797   -0.8662   -0.7099 C   0  0  1  0  0  3  0  0  0  0  0  0
   -2.4950    0.3345   -0.8799 C   0  0  1  0  0  0  0  0  0  0  0  0
   -3.8895    0.0992   -0.3130 C   0  0  0  0  0  0  0  0  0  0  0  0
   -4.9499   -0.2304   -1.1797 C   0  0  0  0  0  0  0  0  0  0  0  0
   -6.2368   -0.4877   -0.6849 C   0  0  0  0  0  0  0  0  0  0  0  0
   -6.4866   -0.4171    0.6943 C   0  0  0  0  0  0  0  0  0  0  0  0
   -5.4399   -0.0883    1.5694 C   0  0  0  0  0  0  0  0  0  0  0  0
   -4.1534    0.1684    1.0713 C   0  0  0  0  0  0  0  0  0  0  0  0
   -1.8655    1.6042   -0.2689 C   0  0  0  0  0  0  0  0  0  0  0  0
    0.0426    3.0368    0.0380 C   0  0  0  0  0  0  0  0  0  0  0  0
   -0.3830    2.1129   -2.1424 C   0  0  0  0  0  0  0  0  0  0  0  0
   -0.5861   -1.0140   -2.7352 H   0  0  0  0  0  0  0  0  0  0  0  0
    0.8534   -3.0178   -1.6245 H   0  0  0  0  0  0  0  0  0  0  0  0
    0.0324   -3.3161    0.9492 H   0  0  0  0  0  0  0  0  0  0  0  0
   -1.9181   -1.5021    1.4225 H   0  0  0  0  0  0  0  0  0  0  0  0
   -2.6217    0.4974   -1.9702 H   0  0  0  0  0  0  0  0  0  0  0  0
   -4.7581   -0.2903   -2.2631 H   0  0  0  0  0  0  0  0  0  0  0  0
   -7.0496   -0.7437   -1.3817 H   0  0  0  0  0  0  0  0  0  0  0  0
   -7.4952   -0.6172    1.0866 H   0  0  0  0  0  0  0  0  0  0  0  0
   -5.6239   -0.0305    2.6531 H   0  0  0  0  0  0  0  0  0  0  0  0
   -3.3470    0.4186    1.7777 H   0  0  0  0  0  0  0  0  0  0  0  0
   -2.4943    2.4958   -0.5114 H   0  0  0  0  0  0  0  0  0  0  0  0
   -1.8367    1.5053    0.8342 H   0  0  0  0  0  0  0  0  0  0  0  0
    1.0858    3.2444   -0.2627 H   0  0  0  0  0  0  0  0  0  0  0  0
    0.0238    2.8294    1.1246 H   0  0  0  0  0  0  0  0  0  0  0  0
   -0.5754    3.9387   -0.1819 H   0  0  0  0  0  0  0  0  0  0  0  0
   -0.7028    1.2265   -2.7178 H   0  0  0  0  0  0  0  0  0  0  0  0
    0.6591    2.3495   -2.4215 H   0  0  0  0  0  0  0  0  0  0  0  0
   -1.0306    2.9746   -2.4320 H   0  0  0  0  0  0  0  0  0  0  0  0
  1 14  1  0  0  0  0
  1 15  1  0  0  0  0
  2  3  2  0  0  0  0
  2  6  1  0  0  0  0
  3  4  1  0  0  0  0
  4  5  2  0  0  0  0
  4 19  1  0  0  0  0
  5 20  1  0  0  0  0
  6  7  1  1  0  0  0
  6  5  1  0  0  0  0
  7 21  1  6  0  0  0
  7  8  1  0  0  0  0
  7 14  1  0  0  0  0
  8 13  1  0  0  0  0
  9 10  1  0  0  0  0
  9  8  2  0  0  0  0
 10 11  2  0  0  0  0
 11 24  1  0  0  0  0
 11 12  1  0  0  0  0
 12 25  1  0  0  0  0
 13 12  2  0  0  0  0
 13 26  1  0  0  0  0
 14 28  1  0  0  0  0
 15 30  1  0  0  0  0
 16  1  1  0  0  0  0
 17  2  1  0  0  0  0
 18  3  1  0  0  0  0
 22  9  1  0  0  0  0
 23 10  1  0  0  0  0
 27 14  1  0  0  0  0
 29 15  1  0  0  0  0
 31 15  1  0  0  0  0
 32 16  1  0  0  0  0
 33 16  1  0  0  0  0
 34 16  1  0  0  0  0
M  END
