2
q = -1.0

 32 32  0  0  0  0  0  0  0  0999 V2000
    0.7364    1.4652    0.4239 N   0  0  0  0  0  0  0  0  0  0  0  0
    1.3342    0.7922   -0.5946 N   0  0  0  0  0  0  0  0  0  0  0  0
    2.3127    1.5408   -1.1796 C   0  0  0  0  0  0  0  0  0  0  0  0
    2.3788    2.7326   -0.4395 C   0  0  0  0  0  0  0  0  0  0  0  0
    3.0785    3.5589   -0.5996 H   0  0  0  0  0  0  0  0  0  0  0  0
    1.3522    2.6521    0.5477 C   0  0  0  0  0  3  0  0  0  0  0  0
    0.9313    3.6708    1.5893 C   0  0  0  0  0  0  0  0  0  0  0  0
    0.2210    4.8420    0.8719 C   0  0  0  0  0  0  0  0  0  0  0  0
   -0.6803    4.4848    0.3346 H   0  0  0  0  0  0  0  0  0  0  0  0
    0.8896    5.3230    0.1297 H   0  0  0  0  0  0  0  0  0  0  0  0
   -0.0930    5.6141    1.6048 H   0  0  0  0  0  0  0  0  0  0  0  0
   -0.0333    3.0240    2.5991 C   0  0  0  0  0  0  0  0  0  0  0  0
    0.4454    2.1744    3.1253 H   0  0  0  0  0  0  0  0  0  0  0  0
   -0.9339    2.6270    2.0935 H   0  0  0  0  0  0  0  0  0  0  0  0
   -0.3521    3.7710    3.3539 H   0  0  0  0  0  0  0  0  0  0  0  0
    2.1804    4.1954    2.3274 C   0  0  0  0  0  0  0  0  0  0  0  0
    2.7195    3.3691    2.8335 H   0  0  0  0  0  0  0  0  0  0  0  0
    1.8900    4.9410    3.0959 H   0  0  0  0  0  0  0  0  0  0  0  0
    2.8889    4.6881    1.6313 H   0  0  0  0  0  0  0  0  0  0  0  0
    3.0483    1.0796   -2.4214 C   0  0  0  0  0  0  0  0  0  0  0  0
    4.2347    2.0192   -2.6964 C   0  0  0  0  0  0  0  0  0  0  0  0
    4.9430    2.0348   -1.8432 H   0  0  0  0  0  0  0  0  0  0  0  0
    3.8959    3.0582   -2.8838 H   0  0  0  0  0  0  0  0  0  0  0  0
    4.7888    1.6795   -3.5943 H   0  0  0  0  0  0  0  0  0  0  0  0
    2.0657    1.1248   -3.6164 C   0  0  0  0  0  0  0  0  0  0  0  0
    1.2127    0.4346   -3.4649 H   0  0  0  0  0  0  0  0  0  0  0  0
    2.5869    0.8257   -4.5490 H   0  0  0  0  0  0  0  0  0  0  0  0
    1.6555    2.1448   -3.7566 H   0  0  0  0  0  0  0  0  0  0  0  0
    3.5575   -0.3639   -2.2296 C   0  0  0  0  0  0  0  0  0  0  0  0
    4.2927   -0.4259   -1.4037 H   0  0  0  0  0  0  0  0  0  0  0  0
    4.0503   -0.7189   -3.1575 H   0  0  0  0  0  0  0  0  0  0  0  0
    2.7297   -1.0602   -1.9914 H   0  0  0  0  0  0  0  0  0  0  0  0
  1  6  1  0  0  0  0
  2  1  2  0  0  0  0
  3  2  1  0  0  0  0
  3  4  2  0  0  0  0
  4  6  1  0  0  0  0
  5  4  1  0  0  0  0
  6  7  1  0  0  0  0
  7 16  1  0  0  0  0
  7 12  1  0  0  0  0
  8  7  1  0  0  0  0
  8 11  1  0  0  0  0
  9  8  1  0  0  0  0
 10  8  1  0  0  0  0
 12 13  1  0  0  0  0
 12 15  1  0  0  0  0
 14 12  1  0  0  0  0
 16 17  1  0  0  0  0
 16 18  1  0  0  0  0
 19 16  1  0  0  0  0
 20 29  1  0  0  0  0
 20  3  1  0  0  0  0
 21 20  1  0  0  0  0
 21 22  1  0  0  0  0
 23 21  1  0  0  0  0
 24 21  1  0  0  0  0
 25 26  1  0  0  0  0
 25 20  1  0  0  0  0
 27 25  1  0  0  0  0
 28 25  1  0  0  0  0
 29 32  1  0  0  0  0
 29 30  1  0  0  0  0
 31 29  1  0  0  0  0
M  END
