1
q = -1.0

  8  7  0  0  0  0  0  0  0  0999 V2000
   -0.0255    1.1035   -1.3524 N   0  0  0  0  0  2  0  0  0  0  0  0
   -0.1640    2.4170    0.4533 O   0  0  0  0  0  0  0  0  0  0  0  0
   -0.1384    2.3211   -0.8057 C   0  0  0  0  0  0  0  0  0  0  0  0
   -0.2359    3.5544   -1.6819 C   0  0  0  0  0  0  0  0  0  0  0  0
    0.5903    4.2473   -1.4253 H   0  0  0  0  0  0  0  0  0  0  0  0
   -1.1789    4.0883   -1.4491 H   0  0  0  0  0  0  0  0  0  0  0  0
   -0.2020    3.3360   -2.7662 H   0  0  0  0  0  0  0  0  0  0  0  0
    0.0146    0.9924   -2.3680 H   0  0  0  0  0  0  0  0  0  0  0  0
  1  3  1  0  0  0  0
  3  2  2  0  0  0  0
  4  6  1  0  0  0  0
  4  5  1  0  0  0  0
  4  3  1  0  0  0  0
  7  4  1  0  0  0  0
  8  1  1  0  0  0  0
M  END
