14
q = -1.0

 15 15  0  0  0  0  0  0  0  0999 V2000
    1.8698    0.2557    1.9902 O   0  0  0  0  0  0  0  0  0  0  0  0
    2.0972    0.2372    0.7383 C   0  0  0  0  0  0  0  0  0  0  0  0
    4.4945    0.7691    1.2298 C   0  0  0  0  0  0  0  0  0  0  0  0
    4.1325    1.0298    2.2350 H   0  0  0  0  0  0  0  0  0  0  0  0
    3.5417    0.3204    0.2927 C   0  0  0  0  0  0  0  0  0  0  0  0
    3.9823   -0.0577   -0.9934 C   0  0  0  0  0  0  0  0  0  0  0  0
    3.2674   -0.4502   -1.7344 H   0  0  0  0  0  0  0  0  0  0  0  0
    6.2750    0.5006   -0.4046 C   0  0  0  0  0  0  0  0  0  0  0  0
    7.3390    0.5723   -0.6773 H   0  0  0  0  0  0  0  0  0  0  0  0
    5.8481    0.8675    0.8826 C   0  0  0  0  0  0  0  0  0  0  0  0
    6.5793    1.2287    1.6224 H   0  0  0  0  0  0  0  0  0  0  0  0
    5.3383    0.0317   -1.3399 C   0  0  0  0  0  0  0  0  0  0  0  0
    5.6669   -0.2738   -2.3452 H   0  0  0  0  0  0  0  0  0  0  0  0
    1.1424    0.1560   -0.1917 N   0  0  0  0  0  2  0  0  0  0  0  0
    1.5308    0.2070   -1.1367 H   0  0  0  0  0  0  0  0  0  0  0  0
  2  1  2  0  0  0  0
  3  4  1  0  0  0  0
  5  2  1  0  0  0  0
  5  3  2  0  0  0  0
  6  5  1  0  0  0  0
  7  6  1  0  0  0  0
  8 10  2  0  0  0  0
  9  8  1  0  0  0  0
 10  3  1  0  0  0  0
 10 11  1  0  0  0  0
 12  6  2  0  0  0  0
 12  8  1  0  0  0  0
 13 12  1  0  0  0  0
 14  2  1  0  0  0  0
 15 14  1  0  0  0  0
M  END
