2
q = -1.0

 14 14  0  0  0  0  0  0  0  0999 V2000
   -1.8797   -0.0011    2.0731 O   0  0  0  0  0  0  0  0  0  0  0  0
   -1.1611   -0.0002   -0.1347 N   0  0  0  0  0  2  0  0  0  0  0  0
   -3.7523    0.0001   -0.9878 N   0  0  0  0  0  0  0  0  0  0  0  0
   -3.5303   -0.0007    0.3425 C   0  0  0  0  0  0  0  0  0  0  0  0
   -2.0893   -0.0007    0.8170 C   0  0  0  0  0  0  0  0  0  0  0  0
   -4.5727   -0.0015    1.2889 C   0  0  0  0  0  0  0  0  0  0  0  0
   -4.3058   -0.0021    2.3548 H   0  0  0  0  0  0  0  0  0  0  0  0
   -5.8946   -0.0016    0.8271 C   0  0  0  0  0  0  0  0  0  0  0  0
   -6.7363   -0.0022    1.5371 H   0  0  0  0  0  0  0  0  0  0  0  0
   -6.1289   -0.0008   -0.5568 C   0  0  0  0  0  0  0  0  0  0  0  0
   -7.1505   -0.0009   -0.9650 H   0  0  0  0  0  0  0  0  0  0  0  0
   -5.0198    0.0000   -1.4208 C   0  0  0  0  0  0  0  0  0  0  0  0
   -5.1653    0.0007   -2.5159 H   0  0  0  0  0  0  0  0  0  0  0  0
   -1.6343    0.0000   -1.0504 H   0  0  0  0  0  0  0  0  0  0  0  0
  2  5  1  0  0  0  0
  3  4  1  0  0  0  0
  4  5  1  0  0  0  0
  4  6  2  0  0  0  0
  5  1  2  0  0  0  0
  6  7  1  0  0  0  0
  8  6  1  0  0  0  0
  8  9  1  0  0  0  0
 10  8  2  0  0  0  0
 11 10  1  0  0  0  0
 12  3  2  0  0  0  0
 12 10  1  0  0  0  0
 13 12  1  0  0  0  0
 14  2  1  0  0  0  0
M  END
