1
q = 0.0, confidence = 0.986

 13 13  0  0  1  0  0  0  0  0999 V2000
    1.1046    2.5710   -0.0993 N   0  0  0  0  0  2  0  0  0  0  0  0
    2.8046    4.0302   -0.0732 O   0  0  0  0  0  0  0  0  0  0  0  0
    0.4446    3.8546    0.1421 C   0  0  0  0  0  0  0  0  0  0  0  0
   -0.1185    3.7955    1.0959 H   0  0  0  0  0  0  0  0  0  0  0  0
   -0.2798    4.0613   -0.6727 H   0  0  0  0  0  0  0  0  0  0  0  0
    1.6280    4.8517    0.1769 C   0  0  0  0  0  0  0  0  0  0  0  0
    1.5835    5.6281   -0.6122 H   0  0  0  0  0  0  0  0  0  0  0  0
    1.7650    5.3453    1.1599 H   0  0  0  0  0  0  0  0  0  0  0  0
    2.3819    2.7559   -0.1984 C   0  0  1  0  0  3  0  0  0  0  0  0
    3.4051    1.6995   -0.4230 C   0  0  0  0  0  0  0  0  0  0  0  0
    3.4583    1.0338    0.4625 H   0  0  0  0  0  0  0  0  0  0  0  0
    4.3951    2.1506   -0.6115 H   0  0  0  0  0  0  0  0  0  0  0  0
    3.0830    1.0704   -1.2771 H   0  0  0  0  0  0  0  0  0  0  0  0
  1  3  1  0  0  0  0
  2  6  1  0  0  0  0
  3  6  1  0  0  0  0
  3  4  1  0  0  0  0
  5  3  1  0  0  0  0
  6  8  1  0  0  0  0
  7  6  1  0  0  0  0
  9 10  1  1  0  0  0
  9  1  1  0  0  0  0
  9  2  1  0  0  0  0
 10 11  1  0  0  0  0
 12 10  1  0  0  0  0
 13 10  1  0  0  0  0
M  END
