8
q = -1.0

 29 30  0  0  0  0  0  0  0  0999 V2000
    1.7790   -2.2827    2.5985 Cl  0  0  0  0  0  0  0  0  0  0  0  0
    6.1709   -2.1340   -0.5782 Cl  0  0  0  0  0  0  0  0  0  0  0  0
   -2.0790    1.2913   -0.4903 S   0  0  0  0  0  0  0  0  0  0  0  0
   -6.9819    0.4683   -1.0234 F   0  0  0  0  0  0  0  0  0  0  0  0
   -0.4882   -2.8566    0.2571 O   0  0  0  0  0  0  0  0  0  0  0  0
   -2.6315   -1.4112   -0.1013 N   0  0  0  0  0  0  0  0  0  0  0  0
   -2.0945   -2.2921    0.1030 H   0  0  0  0  0  0  0  0  0  0  0  0
   -0.4188   -0.5824   -0.1763 N   0  0  0  0  0  2  0  0  0  0  0  0
   -4.0298   -1.4665   -0.1551 C   0  0  0  0  0  0  0  0  0  0  0  0
   -4.8333   -0.3932   -0.5924 C   0  0  0  0  0  0  0  0  0  0  0  0
   -4.4024    0.5549   -0.9378 H   0  0  0  0  0  0  0  0  0  0  0  0
   -6.2217   -0.5596   -0.6053 C   0  0  0  0  0  0  0  0  0  0  0  0
   -6.8446   -1.7484   -0.2080 C   0  0  0  0  0  0  0  0  0  0  0  0
   -7.9401   -1.8255   -0.2380 H   0  0  0  0  0  0  0  0  0  0  0  0
   -6.0296   -2.8106    0.2144 C   0  0  0  0  0  0  0  0  0  0  0  0
   -6.4917   -3.7584    0.5280 H   0  0  0  0  0  0  0  0  0  0  0  0
   -4.6376   -2.6807    0.2445 C   0  0  0  0  0  0  0  0  0  0  0  0
   -4.0057   -3.5165    0.5796 H   0  0  0  0  0  0  0  0  0  0  0  0
   -1.7716   -0.3826   -0.2397 C   0  0  0  0  0  0  0  0  0  0  0  0
    0.1515   -1.8144    0.0191 C   0  0  0  0  0  0  0  0  0  0  0  0
    1.6495   -1.8556   -0.1043 C   0  0  0  0  0  0  0  0  0  0  0  0
    2.4770   -2.1277    1.0014 C   0  0  0  0  0  0  0  0  0  0  0  0
    3.8716   -2.2136    0.8705 C   0  0  0  0  0  0  0  0  0  0  0  0
    4.5029   -2.4093    1.7467 H   0  0  0  0  0  0  0  0  0  0  0  0
    4.4398   -2.0333   -0.4008 C   0  0  0  0  0  0  0  0  0  0  0  0
    3.6392   -1.7549   -1.5220 C   0  0  0  0  0  0  0  0  0  0  0  0
    4.1051   -1.6014   -2.5049 H   0  0  0  0  0  0  0  0  0  0  0  0
    2.2521   -1.6575   -1.3620 C   0  0  0  0  0  0  0  0  0  0  0  0
    1.6158   -1.3710   -2.2149 H   0  0  0  0  0  0  0  0  0  0  0  0
  2 25  1  0  0  0  0
  3 19  2  0  0  0  0
  4 12  1  0  0  0  0
  6  7  1  0  0  0  0
  8 20  1  0  0  0  0
  9  6  1  0  0  0  0
  9 17  1  0  0  0  0
 10  9  2  0  0  0  0
 11 10  1  0  0  0  0
 12 10  1  0  0  0  0
 12 13  2  0  0  0  0
 13 15  1  0  0  0  0
 14 13  1  0  0  0  0
 15 17  2  0  0  0  0
 15 16  1  0  0  0  0
 17 18  1  0  0  0  0
 19  8  1  0  0  0  0
 19  6  1  0  0  0  0
 20  5  2  0  0  0  0
 21 20  1  0  0  0  0
 21 22  1  0  0  0  0
 22  1  1  0  0  0  0
 23 22  2  0  0  0  0
 23 24  1  0  0  0  0
 25 23  1  0  0  0  0
 26 28  1  0  0  0  0
 26 25  2  0  0  0  0
 27 26  1  0  0  0  0
 28 21  2  0  0  0  0
 29 28  1  0  0  0  0
M  END
