3
q = 0.0, confidence = 1.0

 17 17  0  0  0  0  0  0  0  0999 V2000
    6.7480   -3.2350   -0.9672 O   0  0  0  0  0  0  0  0  0  0  0  0
    7.2881   -3.0799   -1.7625 H   0  0  0  0  0  0  0  0  0  0  0  0
    1.6471    0.4286   -0.0178 N   0  0  0  0  0  2  0  0  0  0  0  0
    5.7502   -2.2609   -1.0872 N   0  0  0  0  0  2  0  0  0  0  0  0
    5.1097   -3.1845    0.9997 N   0  0  0  0  0  4  0  0  0  0  0  0
    4.2692   -3.5115    1.4766 H   0  0  0  0  0  0  0  0  0  0  0  0
    5.8229   -3.8999    0.8416 H   0  0  0  0  0  0  0  0  0  0  0  0
    2.0137   -0.2129    1.1092 C   0  0  0  0  0  3  0  0  0  0  0  0
    1.4195    0.0352    2.0069 H   0  0  0  0  0  0  0  0  0  0  0  0
    3.0837   -1.1140    1.1377 C   0  0  0  0  0  0  0  0  0  0  0  0
    3.3659   -1.5837    2.0908 H   0  0  0  0  0  0  0  0  0  0  0  0
    3.8055   -1.3740   -0.0462 C   0  0  0  0  0  0  0  0  0  0  0  0
    3.4136   -0.6852   -1.2148 C   0  0  0  0  0  0  0  0  0  0  0  0
    3.9561   -0.8589   -2.1537 H   0  0  0  0  0  0  0  0  0  0  0  0
    2.3390    0.2022   -1.1578 C   0  0  0  0  0  0  0  0  0  0  0  0
    1.9844    0.7634   -2.0374 H   0  0  0  0  0  0  0  0  0  0  0  0
    4.9332   -2.3295   -0.0672 C   0  0  0  0  0  0  0  0  0  0  0  0
  2  1  1  0  0  0  0
  3  8  1  0  0  0  0
  4  1  1  0  0  0  0
  4 17  1  0  0  0  0
  5  6  1  0  0  0  0
  7  5  1  0  0  0  0
  8 10  1  0  0  0  0
  8  9  1  0  0  0  0
 10 11  1  0  0  0  0
 12 10  2  0  0  0  0
 13 15  2  0  0  0  0
 13 12  1  0  0  0  0
 14 13  1  0  0  0  0
 15  3  1  0  0  0  0
 16 15  1  0  0  0  0
 17 12  1  0  0  0  0
 17  5  2  0  0  0  0
M  END
