1
q = 0.0, confidence = 0.988

 16 15  0  0  0  0  0  0  0  0999 V2000
    1.0002    0.4444   -0.7211 N   0  0  0  0  0  0  0  0  0  0  0  0
    1.1496    1.4549   -0.8630 H   0  0  0  0  0  0  0  0  0  0  0  0
    1.0742    0.0415   -1.6686 H   0  0  0  0  0  0  0  0  0  0  0  0
    2.1184   -0.0819    0.1165 C   0  0  0  0  0  0  0  0  0  0  0  0
    1.9394   -1.1650    0.2717 H   0  0  0  0  0  0  0  0  0  0  0  0
    2.0407    0.3998    1.1121 H   0  0  0  0  0  0  0  0  0  0  0  0
    3.4891    0.1641   -0.5072 C   0  0  0  0  0  0  0  0  0  0  0  0
    3.6310    1.2565   -0.6702 H   0  0  0  0  0  0  0  0  0  0  0  0
    3.5306   -0.3095   -1.5146 H   0  0  0  0  0  0  0  0  0  0  0  0
    4.6358   -0.3756    0.3586 C   0  0  0  0  0  0  0  0  0  0  0  0
    4.5829    0.0954    1.3646 H   0  0  0  0  0  0  0  0  0  0  0  0
    4.4842   -1.4651    0.5242 H   0  0  0  0  0  0  0  0  0  0  0  0
    6.0127   -0.1306   -0.2582 C   0  0  0  0  0  0  0  0  0  0  0  0
    6.2062    0.9524   -0.3999 H   0  0  0  0  0  0  0  0  0  0  0  0
    6.1067   -0.6207   -1.2490 H   0  0  0  0  0  0  0  0  0  0  0  0
    6.8165   -0.5309    0.3895 H   0  0  0  0  0  0  0  0  0  0  0  0
  1  4  1  0  0  0  0
  2  1  1  0  0  0  0
  3  1  1  0  0  0  0
  4  5  1  0  0  0  0
  4  6  1  0  0  0  0
  7  4  1  0  0  0  0
  7 10  1  0  0  0  0
  8  7  1  0  0  0  0
  9  7  1  0  0  0  0
 10 12  1  0  0  0  0
 10 11  1  0  0  0  0
 13 10  1  0  0  0  0
 13 16  1  0  0  0  0
 14 13  1  0  0  0  0
 15 13  1  0  0  0  0
M  END
