1
q = 0.0, confidence = 0.99

 20 21  0  0  1  0  0  0  0  0999 V2000
   -1.6935    0.5240    1.2090 N   0  0  0  0  0  0  0  0  0  0  0  0
   -2.2172   -0.5004    2.1121 C   0  0  0  0  0  0  0  0  0  0  0  0
   -2.8876   -0.2338    0.7967 C   0  0  1  0  0  0  0  0  0  0  0  0
   -4.1635    0.5726    0.8427 C   0  0  0  0  0  0  0  0  0  0  0  0
   -4.1525    1.6487    1.4441 O   0  0  0  0  0  0  0  0  0  0  0  0
   -5.3862    0.0396    0.1862 C   0  0  0  0  0  0  0  0  0  0  0  0
   -6.5546    0.8339    0.2243 C   0  0  0  0  0  0  0  0  0  0  0  0
   -7.7356    0.3803   -0.3692 C   0  0  0  0  0  0  0  0  0  0  0  0
   -7.7648   -0.8743   -1.0048 C   0  0  0  0  0  0  0  0  0  0  0  0
   -6.6101   -1.6723   -1.0447 C   0  0  0  0  0  0  0  0  0  0  0  0
   -5.4230   -1.2189   -0.4542 C   0  0  0  0  0  0  0  0  0  0  0  0
   -2.0242    1.4692    1.4836 H   0  0  0  0  0  0  0  0  0  0  0  0
   -2.7260   -0.1471    3.0236 H   0  0  0  0  0  0  0  0  0  0  0  0
   -1.5963   -1.4087    2.1840 H   0  0  0  0  0  0  0  0  0  0  0  0
   -2.7071   -0.9548   -0.0157 H   0  0  0  0  0  0  0  0  0  0  0  0
   -6.4987    1.8091    0.7297 H   0  0  0  0  0  0  0  0  0  0  0  0
   -8.6414    1.0044   -0.3404 H   0  0  0  0  0  0  0  0  0  0  0  0
   -8.6944   -1.2314   -1.4739 H   0  0  0  0  0  0  0  0  0  0  0  0
   -6.6335   -2.6531   -1.5425 H   0  0  0  0  0  0  0  0  0  0  0  0
   -4.5265   -1.8539   -0.4945 H   0  0  0  0  0  0  0  0  0  0  0  0
  1 12  1  0  0  0  0
  1  2  1  0  0  0  0
  2 14  1  0  0  0  0
  2 13  1  0  0  0  0
  3 15  1  6  0  0  0
  3  4  1  0  0  0  0
  3  1  1  0  0  0  0
  3  2  1  0  0  0  0
  4  5  2  0  0  0  0
  6  7  1  0  0  0  0
  6  4  1  0  0  0  0
  7 16  1  0  0  0  0
  8 17  1  0  0  0  0
  8  7  2  0  0  0  0
  9  8  1  0  0  0  0
 10  9  2  0  0  0  0
 10 11  1  0  0  0  0
 11  6  2  0  0  0  0
 18  9  1  0  0  0  0
 19 10  1  0  0  0  0
 20 11  1  0  0  0  0
M  END
