1
q = 0.0, confidence = 0.896

 11 10  0  0  0  0  0  0  0  0999 V2000
    2.1246   -0.7891   -0.5890 N   0  0  0  0  0  2  0  0  0  0  0  0
    2.4173   -0.9574   -1.5635 H   0  0  0  0  0  0  0  0  0  0  0  0
    2.9123   -0.4432    1.6773 C   0  0  0  0  0  0  0  0  0  0  0  0
    1.8340   -0.2971    1.8813 H   0  0  0  0  0  0  0  0  0  0  0  0
    3.4548    0.4809    1.9600 H   0  0  0  0  0  0  0  0  0  0  0  0
    3.3133   -1.2773    2.2913 H   0  0  0  0  0  0  0  0  0  0  0  0
    3.1332   -0.7110    0.2197 C   0  0  0  0  0  3  0  0  0  0  0  0
    4.5519   -0.8152   -0.2575 C   0  0  0  0  0  0  0  0  0  0  0  0
    4.6202   -1.2192   -1.2863 H   0  0  0  0  0  0  0  0  0  0  0  0
    5.1762   -1.4279    0.4231 H   0  0  0  0  0  0  0  0  0  0  0  0
    4.9652    0.2162   -0.2603 H   0  0  0  0  0  0  0  0  0  0  0  0
  1  7  1  0  0  0  0
  2  1  1  0  0  0  0
  3  4  1  0  0  0  0
  3  5  1  0  0  0  0
  3  6  1  0  0  0  0
  7  3  1  0  0  0  0
  8  7  1  0  0  0  0
  8 10  1  0  0  0  0
  9  8  1  0  0  0  0
 11  8  1  0  0  0  0
M  END
