36
q = 0.0, confidence = 0.986

 38 41  0  0  1  0  0  0  0  0999 V2000
    0.6962   -4.4379   -0.9287 S   0  0  0  0  0  0  0  0  0  0  0  0
   -2.3343   -5.6946   -1.4565 S   0  0  0  0  0  0  0  0  0  0  0  0
   -0.6948   -1.7480   -0.6194 S   0  0  0  0  0  0  0  0  0  0  0  0
   -3.3850   -2.8471   -1.3110 S   0  0  0  0  0  0  0  0  0  0  0  0
   -1.7401    1.2763   -1.1462 S   0  0  0  0  0  0  0  0  0  0  0  0
   -4.5059    0.2918   -1.5221 S   0  0  0  0  0  0  0  0  0  0  0  0
   -2.1137    3.8153   -2.6460 S   0  0  0  0  0  0  0  0  0  0  0  0
   -5.4015    2.8049   -2.9749 S   0  0  0  0  0  0  0  0  0  0  0  0
    1.4185   -3.5095    2.2984 C   0  0  0  0  0  0  0  0  0  0  0  0
    2.1592   -3.6774    3.1048 H   0  0  0  0  0  0  0  0  0  0  0  0
    0.9199   -4.4659    2.0544 H   0  0  0  0  0  0  0  0  0  0  0  0
    0.6380   -2.8203    2.6843 H   0  0  0  0  0  0  0  0  0  0  0  0
    2.0512   -2.9549    1.0722 C   0  0  1  0  0  3  0  0  0  0  0  0
    2.8068   -2.2689   -2.5127 C   0  0  0  0  0  0  0  0  0  0  0  0
    2.4343   -1.2929   -2.8823 H   0  0  0  0  0  0  0  0  0  0  0  0
    2.2107   -3.0702   -2.9882 H   0  0  0  0  0  0  0  0  0  0  0  0
    3.8626   -2.3613   -2.8335 H   0  0  0  0  0  0  0  0  0  0  0  0
    2.6782   -2.3746   -1.0336 C   0  0  0  0  0  0  0  0  0  0  0  0
    1.8120   -3.2303   -0.2910 C   0  0  0  0  0  0  0  0  0  0  0  0
   -0.7787   -3.4600   -1.0547 C   0  0  0  0  0  0  0  0  0  0  0  0
   -2.8053   -5.8739   -3.2187 C   0  0  0  0  0  0  0  0  0  0  0  0
   -3.6565   -5.2103   -3.4634 H   0  0  0  0  0  0  0  0  0  0  0  0
   -3.1098   -6.9294   -3.3561 H   0  0  0  0  0  0  0  0  0  0  0  0
   -1.9439   -5.6463   -3.8748 H   0  0  0  0  0  0  0  0  0  0  0  0
   -2.0080   -3.9743   -1.3551 C   0  0  0  0  0  0  0  0  0  0  0  0
   -2.3723   -1.4134   -1.0959 C   0  0  0  0  0  0  0  0  0  0  0  0
   -2.8139   -0.1307   -1.2483 C   0  0  0  0  0  0  0  0  0  0  0  0
   -4.0983    1.8397   -2.3027 C   0  0  0  0  0  0  0  0  0  0  0  0
   -2.8189    2.2936   -2.1286 C   0  0  0  0  0  0  0  0  0  0  0  0
   -4.8676    4.4108   -2.2555 C   0  0  0  0  0  0  0  0  0  0  0  0
   -5.6911    5.1229   -2.4672 H   0  0  0  0  0  0  0  0  0  0  0  0
   -4.7708    4.2904   -1.1573 H   0  0  0  0  0  0  0  0  0  0  0  0
   -3.5797    4.9247   -2.8727 C   0  0  0  0  0  0  0  0  0  0  0  0
   -3.2838    5.8807   -2.3916 H   0  0  0  0  0  0  0  0  0  0  0  0
   -3.7023    5.0853   -3.9611 H   0  0  0  0  0  0  0  0  0  0  0  0
    3.3898   -1.6289   -0.1644 N   0  0  0  0  0  2  0  0  0  0  0  0
    2.9918   -1.9878    1.0815 N   0  0  0  0  0  0  0  0  0  0  0  0
    3.5565   -1.5849    1.8605 H   0  0  0  0  0  0  0  0  0  0  0  0
  1 19  1  0  0  0  0
  2 25  1  0  0  0  0
  4 26  1  0  0  0  0
  6 27  1  0  0  0  0
  7 29  1  0  0  0  0
  8 28  1  0  0  0  0
  8 30  1  0  0  0  0
  9 12  1  0  0  0  0
  9 10  1  0  0  0  0
 11  9  1  0  0  0  0
 13 37  1  0  0  0  0
 13  9  1  6  0  0  0
 14 18  1  0  0  0  0
 15 14  1  0  0  0  0
 16 14  1  0  0  0  0
 17 14  1  0  0  0  0
 18 19  2  0  0  0  0
 18 36  1  0  0  0  0
 19 13  1  0  0  0  0
 20  1  1  0  0  0  0
 20  3  1  0  0  0  0
 21  2  1  0  0  0  0
 22 21  1  0  0  0  0
 23 21  1  0  0  0  0
 24 21  1  0  0  0  0
 25  4  1  0  0  0  0
 25 20  2  0  0  0  0
 26  3  1  0  0  0  0
 27  5  1  0  0  0  0
 27 26  2  0  0  0  0
 28 29  2  0  0  0  0
 28  6  1  0  0  0  0
 29  5  1  0  0  0  0
 30 32  1  0  0  0  0
 31 30  1  0  0  0  0
 33  7  1  0  0  0  0
 33 34  1  0  0  0  0
 33 30  1  0  0  0  0
 35 33  1  0  0  0  0
 36 37  1  0  0  0  0
 37 38  1  0  0  0  0
M  END
