2
q = -1.0, confidence = 0.0

 19 20  0  0  0  0  0  0  0  0999 V2000
    2.5901    0.0008    1.1035 N   0  0  0  0  0  0  0  0  0  0  0  0
    1.8783   -0.0001   -0.0126 N   0  0  0  0  0  0  0  0  0  0  0  0
    2.6022   -0.0010   -1.1426 N   0  0  0  0  0  0  0  0  0  0  0  0
    3.8761   -0.0006   -0.7025 C   0  0  0  0  0  0  0  0  0  0  0  0
    5.0228   -0.0012   -1.4598 N   0  0  0  0  0  0  0  0  0  0  0  0
    4.9525   -0.0024   -2.9132 C   0  0  0  0  0  0  0  0  0  0  0  0
    4.4105   -0.9007   -3.2714 H   0  0  0  0  0  0  0  0  0  0  0  0
    4.4095    0.8947   -3.2728 H   0  0  0  0  0  0  0  0  0  0  0  0
    5.9885   -0.0022   -3.2940 H   0  0  0  0  0  0  0  0  0  0  0  0
    6.2700   -0.0007   -0.8165 C   0  0  0  0  0  0  0  0  0  0  0  0
    7.3270   -0.0011   -1.4383 O   0  0  0  0  0  0  0  0  0  0  0  0
    6.2544    0.0005    0.5982 N   0  0  0  0  0  0  0  0  0  0  0  0
    7.5754    0.0011    1.2212 C   0  0  0  0  0  0  0  0  0  0  0  0
    8.1492    0.8950    0.9084 H   0  0  0  0  0  0  0  0  0  0  0  0
    7.4175    0.0020    2.3136 H   0  0  0  0  0  0  0  0  0  0  0  0
    8.1492   -0.8933    0.9100 H   0  0  0  0  0  0  0  0  0  0  0  0
    5.1182    0.0012    1.4697 C   0  0  0  0  0  0  0  0  0  0  0  0
    5.2310    0.0022    2.6909 O   0  0  0  0  0  0  0  0  0  0  0  0
    3.8870    0.0006    0.7023 C   0  0  0  0  0  3  0  0  0  0  0  0
  2  1  2  0  0  0  0
  3  4  2  0  0  0  0
  3  2  1  0  0  0  0
  4 19  1  0  0  0  0
  5 10  1  0  0  0  0
  5  4  1  0  0  0  0
  6  5  1  0  0  0  0
  7  6  1  0  0  0  0
  8  6  1  0  0  0  0
  9  6  1  0  0  0  0
 10 12  1  0  0  0  0
 11 10  2  0  0  0  0
 12 13  1  0  0  0  0
 12 17  1  0  0  0  0
 13 15  1  0  0  0  0
 14 13  1  0  0  0  0
 16 13  1  0  0  0  0
 17 18  2  0  0  0  0
 19  1  1  0  0  0  0
 19 17  1  0  0  0  0
M  END
