1
q = -1.0, confidence = 0.0

 14 15  0  0  0  0  0  0  0  0999 V2000
   -2.1713   -0.3342   -0.0522 N   0  0  0  0  0  2  0  0  0  0  0  0
   -4.7562   -2.4343    0.6746 O   0  0  0  0  0  1  0  0  0  0  0  0
   -4.0188   -1.4859    0.3403 N   0  0  0  0  0  0  0  0  0  0  0  0
   -2.6689   -1.5320    0.3634 N   0  0  0  0  0  2  0  0  0  0  0  0
   -3.2675    1.8485   -0.7833 C   0  0  0  0  0  0  0  0  0  0  0  0
   -4.5354    2.3941   -0.9807 C   0  0  0  0  0  0  0  0  0  0  0  0
   -5.7321    1.6502   -0.7576 C   0  0  0  0  0  0  0  0  0  0  0  0
   -5.6871    0.3281   -0.3148 C   0  0  0  0  0  0  0  0  0  0  0  0
   -3.2095    0.5017   -0.3467 C   0  0  0  0  0  0  0  0  0  0  0  0
   -4.4096   -0.2167   -0.1160 C   0  0  0  0  0  0  0  0  0  0  0  0
   -2.3458    2.4300   -0.9276 H   0  0  0  0  0  0  0  0  0  0  0  0
   -4.6191    3.4396   -1.3148 H   0  0  0  0  0  0  0  0  0  0  0  0
   -6.7040    2.1349   -0.9317 H   0  0  0  0  0  0  0  0  0  0  0  0
   -6.5827   -0.2779   -0.1191 H   0  0  0  0  0  0  0  0  0  0  0  0
  1  4  1  0  0  0  0
  3  4  1  0  0  0  0
  3  2  1  0  0  0  0
  5  9  1  0  0  0  0
  6  5  2  0  0  0  0
  6  7  1  0  0  0  0
  7  8  2  0  0  0  0
  8 14  1  0  0  0  0
  8 10  1  0  0  0  0
  9 10  2  0  0  0  0
  9  1  1  0  0  0  0
 10  3  1  0  0  0  0
 11  5  1  0  0  0  0
 12  6  1  0  0  0  0
 13  7  1  0  0  0  0
M  END
