1
q = -1.0

 18 18  0  0  0  0  0  0  0  0999 V2000
    1.3338    0.9479   -0.9521 N   0  0  0  0  0  2  0  0  0  0  0  0
    1.3367    2.2796   -0.9779 C   0  0  0  0  0  3  0  0  0  0  0  0
    2.6310    0.5031   -1.0942 C   0  0  0  0  0  0  0  0  0  0  0  0
    2.6204    2.7055   -1.1242 N   0  0  0  0  0  0  0  0  0  0  0  0
    0.4281    2.8923   -0.8287 H   0  0  0  0  0  0  0  0  0  0  0  0
    3.4650    1.6029   -1.1834 C   0  0  0  0  0  0  0  0  0  0  0  0
    2.8816   -0.5646   -1.0808 H   0  0  0  0  0  0  0  0  0  0  0  0
    2.9085    3.6838   -1.1515 H   0  0  0  0  0  0  0  0  0  0  0  0
    4.9578    1.7021   -1.1813 C   0  0  0  0  0  0  0  0  0  0  0  0
    5.6367    0.3655   -0.8760 C   0  0  0  0  0  0  0  0  0  0  0  0
    5.2726    2.4637   -0.4330 H   0  0  0  0  0  0  0  0  0  0  0  0
    5.3491    2.0504   -2.1631 H   0  0  0  0  0  0  0  0  0  0  0  0
    5.2925   -0.2104    0.4616 N   0  3  0  0  0  0  0  0  0  0  0  0
    5.3358   -0.4022   -1.6208 H   0  0  0  0  0  0  0  0  0  0  0  0
    6.7347    0.4806   -0.9417 H   0  0  0  0  0  0  0  0  0  0  0  0
    6.1220   -0.3410    1.0577 H   0  0  0  0  0  0  0  0  0  0  0  0
    4.8579   -1.2266    0.2914 H   0  0  0  0  0  0  0  0  0  0  0  0
    4.5978    0.3513    1.0575 H   0  0  0  0  0  0  0  0  0  0  0  0
  2  1  1  0  0  0  0
  2  5  1  0  0  0  0
  3  7  1  0  0  0  0
  3  1  1  0  0  0  0
  4  2  1  0  0  0  0
  6  9  1  0  0  0  0
  6  4  1  0  0  0  0
  6  3  2  0  0  0  0
  8  4  1  0  0  0  0
  9 10  1  0  0  0  0
  9 11  1  0  0  0  0
 10 13  1  0  0  0  0
 12  9  1  0  0  0  0
 13 18  1  0  0  0  0
 13 16  1  0  0  0  0
 14 10  1  0  0  0  0
 15 10  1  0  0  0  0
 17 13  1  0  0  0  0
M  CHG  1  13   1
M  END
