1
q = 0.0, confidence = 0.996

 18 19  0  0  1  0  0  0  0  0999 V2000
    0.9434    0.6699    0.0935 N   0  0  0  0  0  2  0  0  0  0  0  0
    1.9883   -0.1639   -0.1367 C   0  0  1  0  0  3  0  0  0  0  0  0
    0.8287   -2.3972   -0.6253 C   0  0  0  0  0  0  0  0  0  0  0  0
    0.3580   -2.5610    0.3655 H   0  0  0  0  0  0  0  0  0  0  0  0
    1.1945   -3.3491   -1.0522 H   0  0  0  0  0  0  0  0  0  0  0  0
    0.0509   -1.9628   -1.2838 H   0  0  0  0  0  0  0  0  0  0  0  0
    3.6420    1.5833    0.3193 C   0  0  0  0  0  0  0  0  0  0  0  0
    4.6781    1.9430    0.4044 H   0  0  0  0  0  0  0  0  0  0  0  0
    1.9681   -1.4931   -0.5044 N   0  0  0  0  0  0  0  0  0  0  0  0
    3.3674    0.2543   -0.0452 C   0  0  0  0  0  0  0  0  0  0  0  0
    2.5563    2.4254    0.5809 C   0  0  0  0  0  0  0  0  0  0  0  0
    2.7062    3.4697    0.8879 H   0  0  0  0  0  0  0  0  0  0  0  0
    3.2848   -1.9146   -0.6362 C   0  0  0  0  0  0  0  0  0  0  0  0
    3.4846   -2.9565   -0.9114 H   0  0  0  0  0  0  0  0  0  0  0  0
    1.2434    1.9416    0.4636 C   0  0  0  0  0  0  0  0  0  0  0  0
    0.3767    2.5788    0.6873 H   0  0  0  0  0  0  0  0  0  0  0  0
    4.1678   -0.8860   -0.3729 C   0  0  0  0  0  0  0  0  0  0  0  0
    5.2605   -0.9407   -0.4067 H   0  0  0  0  0  0  0  0  0  0  0  0
  1 15  1  0  0  0  0
  2 10  1  6  0  0  0
  2  1  1  0  0  0  0
  3  9  1  0  0  0  0
  3  4  1  0  0  0  0
  5  3  1  0  0  0  0
  6  3  1  0  0  0  0
  7  8  1  0  0  0  0
  7 11  1  0  0  0  0
  9  2  1  0  0  0  0
 10  7  2  0  0  0  0
 11 12  1  0  0  0  0
 13  9  1  0  0  0  0
 13 17  2  0  0  0  0
 14 13  1  0  0  0  0
 15 11  2  0  0  0  0
 15 16  1  0  0  0  0
 17 10  1  0  0  0  0
 18 17  1  0  0  0  0
M  END
