5
q = 0.0, confidence = 0.996

 40 40  0  0  1  0  0  0  0  0999 V2000
   -3.0923   -0.3353   -1.9153 O   0  0  0  0  0  0  0  0  0  0  0  0
   -1.2046    3.2888   -0.0427 O   0  0  0  0  0  0  0  0  0  0  0  0
    0.4988    0.7438    2.6715 O   0  0  0  0  0  0  0  0  0  0  0  0
   -1.1782   -2.7518    1.0868 O   0  0  0  0  0  0  0  0  0  0  0  0
   -1.9918   -0.9806   -1.3738 N   0  0  0  0  0  2  0  0  0  0  0  0
   -1.3216    2.3571   -1.0573 N   0  0  0  0  0  0  0  0  0  0  0  0
   -0.1357    1.6192    1.7768 N   0  0  0  0  0  0  0  0  0  0  0  0
   -0.7131   -1.5007    1.4875 N   0  0  0  0  0  0  0  0  0  0  0  0
   -2.7299    0.9848   -2.3673 C   0  0  0  0  0  0  0  0  0  0  0  0
   -3.5877    1.2827   -3.0037 H   0  0  0  0  0  0  0  0  0  0  0  0
   -1.8082    0.9394   -2.9832 H   0  0  0  0  0  0  0  0  0  0  0  0
   -2.5456    1.9550   -1.2299 C   0  0  0  0  0  0  0  0  0  0  0  0
   -3.7006    2.3500   -0.3633 C   0  0  0  0  0  0  0  0  0  0  0  0
   -4.5327    1.6286   -0.4702 H   0  0  0  0  0  0  0  0  0  0  0  0
   -4.0735    3.3619   -0.6309 H   0  0  0  0  0  0  0  0  0  0  0  0
   -3.3733    2.3966    0.6941 H   0  0  0  0  0  0  0  0  0  0  0  0
    0.1654    3.4730    0.2888 C   0  0  0  0  0  0  0  0  0  0  0  0
    0.2401    4.4966    0.7157 H   0  0  0  0  0  0  0  0  0  0  0  0
    0.7888    3.4360   -0.6326 H   0  0  0  0  0  0  0  0  0  0  0  0
    0.7053    2.4743    1.2879 C   0  0  0  0  0  0  0  0  0  0  0  0
    2.1659    2.5325    1.6003 C   0  0  0  0  0  0  0  0  0  0  0  0
    2.6762    1.7603    0.9828 H   0  0  0  0  0  0  0  0  0  0  0  0
    2.3491    2.2978    2.6655 H   0  0  0  0  0  0  0  0  0  0  0  0
    2.5950    3.5213    1.3469 H   0  0  0  0  0  0  0  0  0  0  0  0
   -0.4490   -0.0139    3.3868 C   0  0  0  0  0  0  0  0  0  0  0  0
   -1.3259    0.6177    3.6632 H   0  0  0  0  0  0  0  0  0  0  0  0
    0.0583   -0.2962    4.3356 H   0  0  0  0  0  0  0  0  0  0  0  0
   -0.9447   -1.2890    2.7396 C   0  0  0  0  0  0  0  0  0  0  0  0
   -1.6752   -2.2597    3.6234 C   0  0  0  0  0  0  0  0  0  0  0  0
   -1.0607   -3.1707    3.7827 H   0  0  0  0  0  0  0  0  0  0  0  0
   -2.6107   -2.5969    3.1346 H   0  0  0  0  0  0  0  0  0  0  0  0
   -1.9111   -1.8166    4.6099 H   0  0  0  0  0  0  0  0  0  0  0  0
   -1.0493   -2.9004   -0.3414 C   0  0  0  0  0  0  0  0  0  0  0  0
   -1.0933   -3.9945   -0.5080 H   0  0  0  0  0  0  0  0  0  0  0  0
   -0.0602   -2.5069   -0.6736 H   0  0  0  0  0  0  0  0  0  0  0  0
   -2.2058   -2.2141   -1.0283 C   0  0  1  0  0  3  0  0  0  0  0  0
   -3.5159   -2.9268   -1.1456 C   0  0  0  0  0  0  0  0  0  0  0  0
   -3.4025   -3.8288   -1.7833 H   0  0  0  0  0  0  0  0  0  0  0  0
   -4.3078   -2.2824   -1.5629 H   0  0  0  0  0  0  0  0  0  0  0  0
   -3.8202   -3.2864   -0.1397 H   0  0  0  0  0  0  0  0  0  0  0  0
  1  5  1  0  0  0  0
  2 17  1  0  0  0  0
  3 25  1  0  0  0  0
  4  8  1  0  0  0  0
  5 36  1  0  0  0  0
  6  2  1  0  0  0  0
  7  3  1  0  0  0  0
  8 28  2  0  0  0  0
  9  1  1  0  0  0  0
  9 12  1  0  0  0  0
 10  9  1  0  0  0  0
 11  9  1  0  0  0  0
 12  6  2  0  0  0  0
 12 13  1  0  0  0  0
 13 16  1  0  0  0  0
 14 13  1  0  0  0  0
 15 13  1  0  0  0  0
 17 18  1  0  0  0  0
 17 20  1  0  0  0  0
 19 17  1  0  0  0  0
 20 21  1  0  0  0  0
 20  7  2  0  0  0  0
 21 23  1  0  0  0  0
 22 21  1  0  0  0  0
 24 21  1  0  0  0  0
 25 26  1  0  0  0  0
 25 27  1  0  0  0  0
 28 25  1  0  0  0  0
 28 29  1  0  0  0  0
 29 30  1  0  0  0  0
 29 32  1  0  0  0  0
 31 29  1  0  0  0  0
 33  4  1  0  0  0  0
 34 33  1  0  0  0  0
 35 33  1  0  0  0  0
 36 37  1  1  0  0  0
 36 33  1  0  0  0  0
 37 40  1  0  0  0  0
 38 37  1  0  0  0  0
 39 37  1  0  0  0  0
M  END
