1
q = -1.0

 45 47  0  0  1  0  0  0  0  0999 V2000
    1.1900   -1.2246   -0.4427 N   0  0  0  0  0  2  0  0  0  0  0  0
    1.0095    0.6785    0.8431 N   0  0  0  0  0  0  0  0  0  0  0  0
   -0.3893    0.8425    0.3416 C   0  0  0  0  0  3  0  0  0  0  0  0
    1.7662   -0.3020    0.3050 C   0  0  2  0  0  3  0  0  0  0  0  0
    1.6341    1.8256    1.5078 C   0  0  0  0  0  0  0  0  0  0  0  0
    1.9839   -2.2462   -1.1079 C   0  0  0  0  0  0  0  0  0  0  0  0
   -1.3533    0.9794    1.4935 C   0  0  0  0  0  0  0  0  0  0  0  0
   -2.6925    1.3923    1.2769 C   0  0  0  0  0  0  0  0  0  0  0  0
   -3.6113    1.4740    2.3306 C   0  0  0  0  0  0  0  0  0  0  0  0
   -3.2280    1.1532    3.6445 C   0  0  0  0  0  0  0  0  0  0  0  0
   -1.9066    0.7480    3.8817 C   0  0  0  0  0  0  0  0  0  0  0  0
   -0.9866    0.6659    2.8247 C   0  0  0  0  0  0  0  0  0  0  0  0
   -0.3218    2.0498   -0.6007 C   0  0  0  0  0  0  0  0  0  0  0  0
    0.3934    1.9293   -1.8154 C   0  0  0  0  0  0  0  0  0  0  0  0
    0.5849    3.0283   -2.6608 C   0  0  0  0  0  0  0  0  0  0  0  0
    0.0584    4.2861   -2.3178 C   0  0  0  0  0  0  0  0  0  0  0  0
   -0.6446    4.4259   -1.1139 C   0  0  0  0  0  0  0  0  0  0  0  0
   -0.8223    3.3230   -0.2609 C   0  0  0  0  0  0  0  0  0  0  0  0
    3.2420   -0.2754    0.5542 C   0  0  0  0  0  0  0  0  0  0  0  0
    3.8098   -1.0189    1.6072 C   0  0  0  0  0  0  0  0  0  0  0  0
    5.1958   -0.9866    1.8224 C   0  0  0  0  0  0  0  0  0  0  0  0
    6.0200   -0.2145    0.9881 C   0  0  0  0  0  0  0  0  0  0  0  0
    5.4563    0.5279   -0.0623 C   0  0  0  0  0  0  0  0  0  0  0  0
    4.0711    0.5011   -0.2793 C   0  0  0  0  0  0  0  0  0  0  0  0
    0.8616    2.3536    2.0951 H   0  0  0  0  0  0  0  0  0  0  0  0
    2.0628    2.5427    0.7766 H   0  0  0  0  0  0  0  0  0  0  0  0
    2.4332    1.4913    2.1949 H   0  0  0  0  0  0  0  0  0  0  0  0
    1.5232   -3.2431   -0.9571 H   0  0  0  0  0  0  0  0  0  0  0  0
    3.0285   -2.2815   -0.7400 H   0  0  0  0  0  0  0  0  0  0  0  0
    2.0024   -2.0657   -2.2035 H   0  0  0  0  0  0  0  0  0  0  0  0
   -3.0215    1.6399    0.2581 H   0  0  0  0  0  0  0  0  0  0  0  0
   -4.6438    1.7936    2.1204 H   0  0  0  0  0  0  0  0  0  0  0  0
   -3.9511    1.2198    4.4710 H   0  0  0  0  0  0  0  0  0  0  0  0
   -1.5822    0.4913    4.9023 H   0  0  0  0  0  0  0  0  0  0  0  0
    0.0363    0.3170    3.0293 H   0  0  0  0  0  0  0  0  0  0  0  0
    0.7739    0.9383   -2.1049 H   0  0  0  0  0  0  0  0  0  0  0  0
    1.1349    2.8986   -3.6058 H   0  0  0  0  0  0  0  0  0  0  0  0
    0.1940    5.1485   -2.9880 H   0  0  0  0  0  0  0  0  0  0  0  0
   -1.0579    5.4052   -0.8263 H   0  0  0  0  0  0  0  0  0  0  0  0
   -1.3595    3.4611    0.6886 H   0  0  0  0  0  0  0  0  0  0  0  0
    3.1584   -1.6234    2.2569 H   0  0  0  0  0  0  0  0  0  0  0  0
    5.6351   -1.5690    2.6462 H   0  0  0  0  0  0  0  0  0  0  0  0
    7.1071   -0.1913    1.1572 H   0  0  0  0  0  0  0  0  0  0  0  0
    6.1000    1.1336   -0.7178 H   0  0  0  0  0  0  0  0  0  0  0  0
    3.6211    1.0834   -1.0983 H   0  0  0  0  0  0  0  0  0  0  0  0
  2  5  1  0  0  0  0
  3  2  1  0  0  0  0
  3  7  1  0  0  0  0
  4  1  1  6  0  0  0
  4 19  1  0  0  0  0
  4  2  1  0  0  0  0
  5 25  1  0  0  0  0
  5 27  1  0  0  0  0
  6 28  1  0  0  0  0
  6 29  1  0  0  0  0
  6  1  1  0  0  0  0
  7 12  1  0  0  0  0
  8  7  2  0  0  0  0
  8  9  1  0  0  0  0
  9 10  2  0  0  0  0
 10 11  1  0  0  0  0
 10 33  1  0  0  0  0
 11 34  1  0  0  0  0
 12 35  1  0  0  0  0
 12 11  2  0  0  0  0
 13 18  1  0  0  0  0
 13  3  1  0  0  0  0
 14 13  2  0  0  0  0
 15 16  2  0  0  0  0
 15 14  1  0  0  0  0
 16 17  1  0  0  0  0
 17 39  1  0  0  0  0
 17 18  2  0  0  0  0
 18 40  1  0  0  0  0
 19 20  1  0  0  0  0
 20 21  2  0  0  0  0
 20 41  1  0  0  0  0
 21 42  1  0  0  0  0
 22 43  1  0  0  0  0
 22 21  1  0  0  0  0
 23 22  2  0  0  0  0
 24 23  1  0  0  0  0
 24 19  2  0  0  0  0
 26  5  1  0  0  0  0
 30  6  1  0  0  0  0
 31  8  1  0  0  0  0
 32  9  1  0  0  0  0
 36 14  1  0  0  0  0
 37 15  1  0  0  0  0
 38 16  1  0  0  0  0
 44 23  1  0  0  0  0
 45 24  1  0  0  0  0
M  END
