4
q = 0.0, confidence = 0.992

 22 22  0  0  1  0  0  0  0  0999 V2000
   -4.7635    1.7495   -0.2344 O   0  0  0  0  0  0  0  0  0  0  0  0
   -5.4496    1.9100    0.4382 H   0  0  0  0  0  0  0  0  0  0  0  0
   -2.8264   -0.5641    0.2995 N   0  0  0  0  0  0  0  0  0  0  0  0
   -1.6001   -0.6423   -0.2761 N   0  0  0  0  0  2  0  0  0  0  0  0
   -1.6561   -1.6305   -1.1951 C   0  0  1  0  0  3  0  0  0  0  0  0
   -2.9518   -2.1945   -1.1913 C   0  0  0  0  0  0  0  0  0  0  0  0
   -3.3199   -3.0129   -1.8182 H   0  0  0  0  0  0  0  0  0  0  0  0
   -3.6850   -1.4801   -0.2373 C   0  0  0  0  0  0  0  0  0  0  0  0
   -0.4774   -1.9592   -2.0533 C   0  0  0  0  0  0  0  0  0  0  0  0
   -0.0671   -1.0229   -2.4862 H   0  0  0  0  0  0  0  0  0  0  0  0
   -0.7746   -2.6374   -2.8742 H   0  0  0  0  0  0  0  0  0  0  0  0
    0.3329   -2.4468   -1.4734 H   0  0  0  0  0  0  0  0  0  0  0  0
   -5.1176   -1.5803    0.1688 C   0  0  0  0  0  0  0  0  0  0  0  0
   -5.2297   -1.8368    1.2434 H   0  0  0  0  0  0  0  0  0  0  0  0
   -5.6239   -2.3646   -0.4224 H   0  0  0  0  0  0  0  0  0  0  0  0
   -5.6281   -0.6137   -0.0119 H   0  0  0  0  0  0  0  0  0  0  0  0
   -3.1311    0.5488    1.1885 C   0  0  0  0  0  0  0  0  0  0  0  0
   -2.2254    0.7546    1.7987 H   0  0  0  0  0  0  0  0  0  0  0  0
   -3.9497    0.2352    1.8668 H   0  0  0  0  0  0  0  0  0  0  0  0
   -3.5052    1.8227    0.4212 C   0  0  0  0  0  0  0  0  0  0  0  0
   -3.4403    2.6816    1.1282 H   0  0  0  0  0  0  0  0  0  0  0  0
   -2.7388    1.9977   -0.3637 H   0  0  0  0  0  0  0  0  0  0  0  0
  1 20  1  0  0  0  0
  1  2  1  0  0  0  0
  3 17  1  0  0  0  0
  4  3  1  0  0  0  0
  5  9  1  6  0  0  0
  5  6  1  0  0  0  0
  5  4  1  0  0  0  0
  6  8  2  0  0  0  0
  7  6  1  0  0  0  0
  8 13  1  0  0  0  0
  8  3  1  0  0  0  0
  9 12  1  0  0  0  0
 10  9  1  0  0  0  0
 11  9  1  0  0  0  0
 13 14  1  0  0  0  0
 15 13  1  0  0  0  0
 16 13  1  0  0  0  0
 17 18  1  0  0  0  0
 17 19  1  0  0  0  0
 20 21  1  0  0  0  0
 20 17  1  0  0  0  0
 22 20  1  0  0  0  0
M  END
