1
q = 0.0, confidence = 0.998

 22 23  0  0  0  0  0  0  0  0999 V2000
    1.6893   -2.0496   -0.8774 N   0  0  0  0  0  2  0  0  0  0  0  0
    2.4646   -2.7640   -1.7499 N   0  0  0  0  0  0  0  0  0  0  0  0
    3.4395   -0.8236   -1.3114 N   0  0  0  0  0  0  0  0  0  0  0  0
    4.3954    0.1688   -1.3265 N   0  0  0  0  0  0  0  0  0  0  0  0
    6.0940    1.7721   -2.4627 O   0  0  0  0  0  0  0  0  0  0  0  0
    5.4284    1.0222   -2.3553 H   0  0  0  0  0  0  0  0  0  0  0  0
    3.5119   -2.0097   -2.0151 C   0  0  0  0  0  0  0  0  0  0  0  0
    4.3518   -2.2594   -2.6730 H   0  0  0  0  0  0  0  0  0  0  0  0
    2.2670   -0.8827   -0.6126 C   0  0  0  0  0  3  0  0  0  0  0  0
    1.8533   -0.0910    0.0243 H   0  0  0  0  0  0  0  0  0  0  0  0
    4.5807    0.8070   -0.1949 C   0  0  0  0  0  0  0  0  0  0  0  0
    4.0446    0.4985    0.7326 H   0  0  0  0  0  0  0  0  0  0  0  0
    5.5095    1.9032   -0.1127 C   0  0  0  0  0  0  0  0  0  0  0  0
    6.2342    2.3541   -1.2688 C   0  0  0  0  0  0  0  0  0  0  0  0
    7.1206    3.4460   -1.1354 C   0  0  0  0  0  0  0  0  0  0  0  0
    7.6672    3.7807   -2.0285 H   0  0  0  0  0  0  0  0  0  0  0  0
    7.2903    4.0661    0.1037 C   0  0  0  0  0  0  0  0  0  0  0  0
    7.9895    4.9123    0.1873 H   0  0  0  0  0  0  0  0  0  0  0  0
    6.5855    3.6277    1.2479 C   0  0  0  0  0  0  0  0  0  0  0  0
    6.7331    4.1268    2.2160 H   0  0  0  0  0  0  0  0  0  0  0  0
    5.7044    2.5566    1.1337 C   0  0  0  0  0  0  0  0  0  0  0  0
    5.1404    2.1928    2.0070 H   0  0  0  0  0  0  0  0  0  0  0  0
  1  9  1  0  0  0  0
  2  1  1  0  0  0  0
  3  9  1  0  0  0  0
  4  3  1  0  0  0  0
  4 11  2  0  0  0  0
  5  6  1  0  0  0  0
  5 14  1  0  0  0  0
  7  2  2  0  0  0  0
  7  3  1  0  0  0  0
  8  7  1  0  0  0  0
  9 10  1  0  0  0  0
 11 13  1  0  0  0  0
 11 12  1  0  0  0  0
 13 21  1  0  0  0  0
 14 15  1  0  0  0  0
 14 13  2  0  0  0  0
 15 17  2  0  0  0  0
 16 15  1  0  0  0  0
 17 18  1  0  0  0  0
 17 19  1  0  0  0  0
 19 20  1  0  0  0  0
 21 19  2  0  0  0  0
 21 22  1  0  0  0  0
M  END
