14
q = 0.0, confidence = 0.996

 30 32  0  0  0  0  0  0  0  0999 V2000
   -4.0303   -0.9217   -0.7100 N   0  0  0  0  0  0  0  0  0  0  0  0
   -5.0614   -0.0621   -0.4910 N   0  0  0  0  0  0  0  0  0  0  0  0
   -1.9342    0.1688   -1.1829 N   0  0  0  0  0  0  0  0  0  0  0  0
   -1.9075    1.4517   -0.6848 C   0  0  0  0  0  0  0  0  0  0  0  0
   -2.8759    2.4672   -0.5708 C   0  0  0  0  0  0  0  0  0  0  0  0
   -3.9174    2.2972   -0.8762 H   0  0  0  0  0  0  0  0  0  0  0  0
   -2.4350    3.6631   -0.0011 C   0  0  0  0  0  0  0  0  0  0  0  0
   -3.1479    4.4925    0.1181 H   0  0  0  0  0  0  0  0  0  0  0  0
   -1.0948    3.8409    0.4416 C   0  0  0  0  0  0  0  0  0  0  0  0
   -0.8043    4.8055    0.8831 H   0  0  0  0  0  0  0  0  0  0  0  0
   -0.1445    2.8245    0.3415 C   0  0  0  0  0  0  0  0  0  0  0  0
    0.8879    2.9537    0.6910 H   0  0  0  0  0  0  0  0  0  0  0  0
   -0.5723    1.6099   -0.2313 C   0  0  0  0  0  0  0  0  0  0  0  0
    0.0855    0.4101   -0.4689 N   0  0  0  0  0  2  0  0  0  0  0  0
   -0.7394   -0.4371   -1.0333 N   0  0  0  0  0  2  0  0  0  0  0  0
   -3.0608   -0.5905   -1.7146 C   0  0  0  0  0  0  0  0  0  0  0  0
   -3.5738    0.0134   -2.4865 H   0  0  0  0  0  0  0  0  0  0  0  0
   -2.6260   -1.5008   -2.1664 H   0  0  0  0  0  0  0  0  0  0  0  0
   -5.7012   -0.5503    0.5794 C   0  0  0  0  0  0  0  0  0  0  0  0
   -5.0575   -1.7317    1.0586 C   0  0  0  0  0  0  0  0  0  0  0  0
   -5.3507   -2.3570    1.9089 H   0  0  0  0  0  0  0  0  0  0  0  0
   -3.9727   -1.9458    0.2149 C   0  0  0  0  0  0  0  0  0  0  0  0
   -2.9182   -3.0032    0.1981 C   0  0  0  0  0  0  0  0  0  0  0  0
   -2.9251   -3.5798   -0.7512 H   0  0  0  0  0  0  0  0  0  0  0  0
   -3.0912   -3.7181    1.0227 H   0  0  0  0  0  0  0  0  0  0  0  0
   -1.8964   -2.5872    0.3181 H   0  0  0  0  0  0  0  0  0  0  0  0
   -6.9226    0.1261    1.1176 C   0  0  0  0  0  0  0  0  0  0  0  0
   -6.7766    0.4432    2.1707 H   0  0  0  0  0  0  0  0  0  0  0  0
   -7.8014   -0.5507    1.0993 H   0  0  0  0  0  0  0  0  0  0  0  0
   -7.1590    1.0206    0.5116 H   0  0  0  0  0  0  0  0  0  0  0  0
  1  2  1  0  0  0  0
  1 22  1  0  0  0  0
  2 19  2  0  0  0  0
  3 15  1  0  0  0  0
  3  4  1  0  0  0  0
  4  5  2  0  0  0  0
  4 13  1  0  0  0  0
  5  7  1  0  0  0  0
  6  5  1  0  0  0  0
  7  8  1  0  0  0  0
  7  9  2  0  0  0  0
  9 10  1  0  0  0  0
 11  9  1  0  0  0  0
 11 12  1  0  0  0  0
 13 11  2  0  0  0  0
 14 13  1  0  0  0  0
 15 14  1  0  0  0  0
 16  3  1  0  0  0  0
 16  1  1  0  0  0  0
 17 16  1  0  0  0  0
 18 16  1  0  0  0  0
 19 20  1  0  0  0  0
 19 27  1  0  0  0  0
 20 21  1  0  0  0  0
 22 20  2  0  0  0  0
 23 22  1  0  0  0  0
 23 26  1  0  0  0  0
 23 25  1  0  0  0  0
 24 23  1  0  0  0  0
 27 28  1  0  0  0  0
 29 27  1  0  0  0  0
 30 27  1  0  0  0  0
M  END
