2
q = 0.0, confidence = 0.988

 16 16  0  0  0  0  0  0  0  0999 V2000
   -3.8935    1.9599    0.0605 O   0  0  0  0  0  0  0  0  0  0  0  0
   -0.9881   -0.9570   -0.0617 N   0  0  0  0  0  2  0  0  0  0  0  0
   -1.9649   -0.0375    0.0623 C   0  0  0  0  0  3  0  0  0  0  0  0
   -1.6675    0.9589    0.4171 H   0  0  0  0  0  0  0  0  0  0  0  0
   -3.3152   -0.3252   -0.2050 C   0  0  0  0  0  0  0  0  0  0  0  0
   -3.6549   -1.6414   -0.5740 C   0  0  0  0  0  0  0  0  0  0  0  0
   -4.6979   -1.9189   -0.7857 H   0  0  0  0  0  0  0  0  0  0  0  0
   -2.6367   -2.5978   -0.6762 C   0  0  0  0  0  0  0  0  0  0  0  0
   -2.8562   -3.6379   -0.9556 H   0  0  0  0  0  0  0  0  0  0  0  0
   -1.3131   -2.2240   -0.4174 C   0  0  0  0  0  0  0  0  0  0  0  0
   -0.4734   -2.9346   -0.4456 H   0  0  0  0  0  0  0  0  0  0  0  0
   -4.2949    0.8125   -0.0934 C   0  0  0  0  0  0  0  0  0  0  0  0
   -5.7734    0.4904   -0.1840 C   0  0  0  0  0  0  0  0  0  0  0  0
   -6.0661   -0.2584    0.5804 H   0  0  0  0  0  0  0  0  0  0  0  0
   -6.0219    0.0572   -1.1754 H   0  0  0  0  0  0  0  0  0  0  0  0
   -6.3530    1.4189   -0.0385 H   0  0  0  0  0  0  0  0  0  0  0  0
  2  3  1  0  0  0  0
  3  4  1  0  0  0  0
  5 12  1  0  0  0  0
  5  3  1  0  0  0  0
  6  5  2  0  0  0  0
  7  6  1  0  0  0  0
  8  6  1  0  0  0  0
  8 10  2  0  0  0  0
  9  8  1  0  0  0  0
 10  2  1  0  0  0  0
 11 10  1  0  0  0  0
 12  1  2  0  0  0  0
 13 12  1  0  0  0  0
 13 16  1  0  0  0  0
 13 14  1  0  0  0  0
 15 13  1  0  0  0  0
M  END
