1
q = 0.0, confidence = 1.0

 25 26  0  0  0  0  0  0  0  0999 V2000
    0.0770    1.5102    0.1044 N   0  0  0  0  0  2  0  0  0  0  0  0
   -0.3492    2.7548   -0.2035 C   0  0  0  0  0  3  0  0  0  0  0  0
   -1.4027    2.8463   -0.5037 H   0  0  0  0  0  0  0  0  0  0  0  0
    0.5105    3.8509   -0.1454 C   0  0  0  0  0  0  0  0  0  0  0  0
    0.1352    4.8491   -0.4093 H   0  0  0  0  0  0  0  0  0  0  0  0
    1.8430    3.6391    0.2431 C   0  0  0  0  0  0  0  0  0  0  0  0
    2.5509    4.4801    0.2899 H   0  0  0  0  0  0  0  0  0  0  0  0
    2.2582    2.3502    0.5861 C   0  0  0  0  0  0  0  0  0  0  0  0
    3.2857    2.1444    0.9127 H   0  0  0  0  0  0  0  0  0  0  0  0
    1.3473    1.2771    0.5303 C   0  0  0  0  0  0  0  0  0  0  0  0
    1.7049   -0.0982    0.9409 C   0  0  0  0  0  0  0  0  0  0  0  0
    0.9744   -0.7532    1.9523 C   0  0  0  0  0  0  0  0  0  0  0  0
    0.1599   -0.2145    2.4607 H   0  0  0  0  0  0  0  0  0  0  0  0
    1.2616   -2.0816    2.2935 C   0  0  0  0  0  0  0  0  0  0  0  0
    0.6832   -2.5827    3.0822 H   0  0  0  0  0  0  0  0  0  0  0  0
    2.2745   -2.7642    1.6050 C   0  0  0  0  0  0  0  0  0  0  0  0
    2.4965   -3.8136    1.8513 H   0  0  0  0  0  0  0  0  0  0  0  0
    3.0099   -2.1324    0.5911 C   0  0  0  0  0  0  0  0  0  0  0  0
    3.7861   -2.6918    0.0530 H   0  0  0  0  0  0  0  0  0  0  0  0
    2.7398   -0.7916    0.2585 C   0  0  0  0  0  0  0  0  0  0  0  0
    3.3855   -0.0963   -0.7116 O   0  0  0  0  0  0  0  0  0  0  0  0
    4.1750   -0.8130   -1.6475 C   0  0  0  0  0  0  0  0  0  0  0  0
    4.5040   -0.0765   -2.4033 H   0  0  0  0  0  0  0  0  0  0  0  0
    3.5768   -1.6062   -2.1455 H   0  0  0  0  0  0  0  0  0  0  0  0
    5.0729   -1.2686   -1.1742 H   0  0  0  0  0  0  0  0  0  0  0  0
  1 10  1  0  0  0  0
  2  4  1  0  0  0  0
  2  1  1  0  0  0  0
  3  2  1  0  0  0  0
  4  6  2  0  0  0  0
  5  4  1  0  0  0  0
  6  7  1  0  0  0  0
  6  8  1  0  0  0  0
  8  9  1  0  0  0  0
 10  8  2  0  0  0  0
 10 11  1  0  0  0  0
 11 12  1  0  0  0  0
 12 14  2  0  0  0  0
 12 13  1  0  0  0  0
 14 15  1  0  0  0  0
 16 17  1  0  0  0  0
 16 14  1  0  0  0  0
 18 16  2  0  0  0  0
 19 18  1  0  0  0  0
 20 18  1  0  0  0  0
 20 11  2  0  0  0  0
 21 20  1  0  0  0  0
 22 25  1  0  0  0  0
 22 21  1  0  0  0  0
 23 22  1  0  0  0  0
 24 22  1  0  0  0  0
M  END
