17
q = 0.0, confidence = 0.992

 17 18  0  0  1  0  0  0  0  0999 V2000
    0.3517    2.0887   -0.2071 C   0  0  0  0  0  0  0  0  0  0  0  0
   -0.6540    2.5546   -0.2442 H   0  0  0  0  0  0  0  0  0  0  0  0
    1.5531    2.8445   -0.1507 C   0  0  0  0  0  0  0  0  0  0  0  0
    1.5033    3.9437   -0.1583 H   0  0  0  0  0  0  0  0  0  0  0  0
    2.7643    2.1763   -0.0797 C   0  0  0  0  0  0  0  0  0  0  0  0
    3.7187    2.7262   -0.0278 H   0  0  0  0  0  0  0  0  0  0  0  0
    2.7832    0.7529   -0.0708 C   0  0  0  0  0  0  0  0  0  0  0  0
    3.9846   -0.0110   -0.0012 C   0  0  0  0  0  0  0  0  0  0  0  0
    4.9495    0.5189    0.0519 H   0  0  0  0  0  0  0  0  0  0  0  0
    3.9299   -1.3967   -0.0016 C   0  0  0  0  0  0  0  0  0  0  0  0
    4.8603   -1.9839    0.0531 H   0  0  0  0  0  0  0  0  0  0  0  0
    2.6777   -2.0670   -0.0751 C   0  0  0  0  0  0  0  0  0  0  0  0
    2.6522   -3.1677   -0.0800 H   0  0  0  0  0  0  0  0  0  0  0  0
    1.4859   -1.3603   -0.1397 C   0  0  0  0  0  0  0  0  0  0  0  0
    0.5073   -1.8599   -0.2200 H   0  0  0  0  0  0  0  0  0  0  0  0
    1.5174    0.0656   -0.1373 C   0  0  2  0  0  3  0  0  0  0  0  0
    0.3401    0.7622   -0.2005 N   0  0  0  0  0  2  0  0  0  0  0  0
  1 17  1  0  0  0  0
  1  3  2  0  0  0  0
  2  1  1  0  0  0  0
  3  5  1  0  0  0  0
  4  3  1  0  0  0  0
  5  7  2  0  0  0  0
  5  6  1  0  0  0  0
  7  8  1  0  0  0  0
  8  9  1  0  0  0  0
 10  8  2  0  0  0  0
 10 11  1  0  0  0  0
 12 10  1  0  0  0  0
 13 12  1  0  0  0  0
 14 16  1  0  0  0  0
 14 12  2  0  0  0  0
 15 14  1  0  0  0  0
 16 17  1  6  0  0  0
 16  7  1  0  0  0  0
M  END
