1
q = 0.0, confidence = 0.996

 31 31  0  0  0  0  0  0  0  0999 V2000
    1.9679   -0.2871   -0.2328 N   0  0  0  0  0  2  0  0  0  0  0  0
    2.8660    0.5416    0.2557 N   0  0  0  0  0  2  0  0  0  0  0  0
    0.7576   -4.5045   -1.0838 O   0  0  0  0  0  0  0  0  0  0  0  0
    4.0265    0.0014   -0.0626 N   0  0  0  0  0  0  0  0  0  0  0  0
    1.1105   -3.0168    0.6039 O   0  0  0  0  0  0  0  0  0  0  0  0
    3.9363   -1.1463   -0.7364 N   0  0  0  0  0  0  0  0  0  0  0  0
    2.6174   -1.3264   -0.8454 C   0  0  0  0  0  0  0  0  0  0  0  0
    5.3396    0.6142    0.2962 C   0  0  0  0  0  0  0  0  0  0  0  0
    6.0947    0.8702   -1.0174 C   0  0  0  0  0  0  0  0  0  0  0  0
    6.2368   -0.0726   -1.5792 H   0  0  0  0  0  0  0  0  0  0  0  0
    7.0886    1.3034   -0.7928 H   0  0  0  0  0  0  0  0  0  0  0  0
    5.5391    1.5841   -1.6571 H   0  0  0  0  0  0  0  0  0  0  0  0
    1.2133   -3.4605   -0.6641 C   0  0  0  0  0  0  0  0  0  0  0  0
    1.9504   -2.4538   -1.5460 C   0  0  0  0  0  0  0  0  0  0  0  0
    2.6836   -3.0010   -2.1660 H   0  0  0  0  0  0  0  0  0  0  0  0
    1.1776   -2.0148   -2.2198 H   0  0  0  0  0  0  0  0  0  0  0  0
    5.0713    1.9202    1.0491 C   0  0  0  0  0  0  0  0  0  0  0  0
    4.5044    2.6384    0.4272 H   0  0  0  0  0  0  0  0  0  0  0  0
    6.0447    2.3745    1.3166 H   0  0  0  0  0  0  0  0  0  0  0  0
    4.4942    1.7434    1.9759 H   0  0  0  0  0  0  0  0  0  0  0  0
    6.0837   -0.3984    1.1810 C   0  0  0  0  0  0  0  0  0  0  0  0
    5.5191   -0.5928    2.1141 H   0  0  0  0  0  0  0  0  0  0  0  0
    7.0773    0.0084    1.4514 H   0  0  0  0  0  0  0  0  0  0  0  0
    6.2256   -1.3568    0.6462 H   0  0  0  0  0  0  0  0  0  0  0  0
   -1.1784   -3.4182    1.3755 C   0  0  0  0  0  0  0  0  0  0  0  0
   -1.7811   -4.0158    2.0897 H   0  0  0  0  0  0  0  0  0  0  0  0
   -1.5462   -3.6263    0.3515 H   0  0  0  0  0  0  0  0  0  0  0  0
   -1.3197   -2.3438    1.6018 H   0  0  0  0  0  0  0  0  0  0  0  0
    0.2885   -3.7912    1.5112 C   0  0  0  0  0  0  0  0  0  0  0  0
    0.4581   -4.8674    1.3043 H   0  0  0  0  0  0  0  0  0  0  0  0
    0.6769   -3.5332    2.5145 H   0  0  0  0  0  0  0  0  0  0  0  0
  1  2  1  0  0  0  0
  3 13  2  0  0  0  0
  4  2  1  0  0  0  0
  4  8  1  0  0  0  0
  5 29  1  0  0  0  0
  6  4  1  0  0  0  0
  7  6  2  0  0  0  0
  7  1  1  0  0  0  0
  8 17  1  0  0  0  0
  8 21  1  0  0  0  0
  9 11  1  0  0  0  0
  9  8  1  0  0  0  0
 10  9  1  0  0  0  0
 12  9  1  0  0  0  0
 13  5  1  0  0  0  0
 14  7  1  0  0  0  0
 14 13  1  0  0  0  0
 15 14  1  0  0  0  0
 16 14  1  0  0  0  0
 17 19  1  0  0  0  0
 17 20  1  0  0  0  0
 18 17  1  0  0  0  0
 21 23  1  0  0  0  0
 21 22  1  0  0  0  0
 24 21  1  0  0  0  0
 25 29  1  0  0  0  0
 25 28  1  0  0  0  0
 25 26  1  0  0  0  0
 27 25  1  0  0  0  0
 29 31  1  0  0  0  0
 30 29  1  0  0  0  0
M  END
