1
q = 0.0, confidence = 0.998

 22 22  0  0  0  0  0  0  0  0999 V2000
   -1.9959   -0.0766   -0.1532 N   0  0  0  0  0  2  0  0  0  0  0  0
   -2.7865    0.9383    0.1247 N   0  0  0  0  0  2  0  0  0  0  0  0
   -4.0043    0.4746   -0.0948 N   0  0  0  0  0  0  0  0  0  0  0  0
   -1.9960   -2.9989    1.4494 O   0  0  0  0  0  0  0  0  0  0  0  0
   -4.0554   -0.7939   -0.4975 N   0  0  0  0  0  0  0  0  0  0  0  0
   -0.8408   -4.2025   -0.0827 O   0  0  0  0  0  0  0  0  0  0  0  0
   -0.5563   -4.6374    0.7508 H   0  0  0  0  0  0  0  0  0  0  0  0
   -2.2179   -2.4650   -0.9176 C   0  0  0  0  0  0  0  0  0  0  0  0
   -1.3954   -2.3123   -1.6510 H   0  0  0  0  0  0  0  0  0  0  0  0
   -3.0125   -3.0722   -1.3948 H   0  0  0  0  0  0  0  0  0  0  0  0
   -1.6903   -3.2203    0.2961 C   0  0  0  0  0  0  0  0  0  0  0  0
   -2.7675   -1.1403   -0.5352 C   0  0  0  0  0  0  0  0  0  0  0  0
   -6.0204    0.7112    1.2802 C   0  0  0  0  0  0  0  0  0  0  0  0
   -6.3862   -0.3021    1.0222 H   0  0  0  0  0  0  0  0  0  0  0  0
   -6.8939    1.3595    1.4869 H   0  0  0  0  0  0  0  0  0  0  0  0
   -5.4093    0.6418    2.2010 H   0  0  0  0  0  0  0  0  0  0  0  0
   -5.2068    1.2971    0.1253 C   0  0  0  0  0  0  0  0  0  0  0  0
   -4.7891    2.2815    0.4163 H   0  0  0  0  0  0  0  0  0  0  0  0
   -5.9929    1.4208   -1.1798 C   0  0  0  0  0  0  0  0  0  0  0  0
   -5.3678    1.8560   -1.9837 H   0  0  0  0  0  0  0  0  0  0  0  0
   -6.8697    2.0789   -1.0245 H   0  0  0  0  0  0  0  0  0  0  0  0
   -6.3534    0.4274   -1.5116 H   0  0  0  0  0  0  0  0  0  0  0  0
  1  2  1  0  0  0  0
  3  2  1  0  0  0  0
  3 17  1  0  0  0  0
  5  3  1  0  0  0  0
  6 11  1  0  0  0  0
  6  7  1  0  0  0  0
  8 12  1  0  0  0  0
  8 11  1  0  0  0  0
  9  8  1  0  0  0  0
 10  8  1  0  0  0  0
 11  4  2  0  0  0  0
 12  5  2  0  0  0  0
 12  1  1  0  0  0  0
 13 15  1  0  0  0  0
 13 16  1  0  0  0  0
 14 13  1  0  0  0  0
 17 18  1  0  0  0  0
 17 13  1  0  0  0  0
 19 21  1  0  0  0  0
 19 17  1  0  0  0  0
 20 19  1  0  0  0  0
 22 19  1  0  0  0  0
M  END
