1
q = 0.0, confidence = 1.0

 16 16  0  0  1  0  0  0  0  0999 V2000
    1.8696   -0.6923   -0.1597 N   0  0  0  0  0  2  0  0  0  0  0  0
    2.2944   -1.5744   -1.0943 N   0  0  0  0  0  0  0  0  0  0  0  0
    3.5636   -1.7577   -0.9671 N   0  0  0  0  0  0  0  0  0  0  0  0
    3.9738   -0.9888    0.0816 N   0  0  0  0  0  0  0  0  0  0  0  0
    2.9140   -0.3102    0.5842 C   0  0  1  0  0  3  0  0  0  0  0  0
    2.8904    0.6716    1.6914 C   0  0  0  0  0  0  0  0  0  0  0  0
    2.1671    0.3451    2.4648 H   0  0  0  0  0  0  0  0  0  0  0  0
    2.5110    1.6308    1.2768 H   0  0  0  0  0  0  0  0  0  0  0  0
    3.8866    0.8134    2.1469 H   0  0  0  0  0  0  0  0  0  0  0  0
    5.2347    1.2371   -0.6335 O   0  0  0  0  0  0  0  0  0  0  0  0
    5.7605    2.0212   -0.9056 H   0  0  0  0  0  0  0  0  0  0  0  0
    5.3762   -0.9028    0.4204 C   0  0  0  0  0  0  0  0  0  0  0  0
    5.8795   -1.7728   -0.0426 H   0  0  0  0  0  0  0  0  0  0  0  0
    5.5161   -0.9830    1.5170 H   0  0  0  0  0  0  0  0  0  0  0  0
    6.0858    0.3679   -0.0568 C   0  0  0  0  0  0  0  0  0  0  0  0
    7.2733    0.5448    0.0981 O   0  0  0  0  0  0  0  0  0  0  0  0
  1  5  1  0  0  0  0
  2  3  2  0  0  0  0
  2  1  1  0  0  0  0
  3  4  1  0  0  0  0
  4 12  1  0  0  0  0
  4  5  1  0  0  0  0
  5  6  1  6  0  0  0
  6  9  1  0  0  0  0
  6  7  1  0  0  0  0
  8  6  1  0  0  0  0
 10 15  1  0  0  0  0
 11 10  1  0  0  0  0
 12 14  1  0  0  0  0
 13 12  1  0  0  0  0
 15 16  2  0  0  0  0
 15 12  1  0  0  0  0
M  END
