1
q = 0.0, confidence = 0.996

 28 28  0  0  0  0  0  0  0  0999 V2000
   -1.9665    0.3168   -0.1703 N   0  0  0  0  0  2  0  0  0  0  0  0
    0.2910    3.1773   -0.4298 O   0  0  0  0  0  0  0  0  0  0  0  0
   -1.5669    3.8048    0.7217 O   0  0  0  0  0  0  0  0  0  0  0  0
   -4.0357    0.0760   -0.1011 N   0  0  0  0  0  0  0  0  0  0  0  0
   -2.9024   -0.5091    0.2440 N   0  0  0  0  0  2  0  0  0  0  0  0
   -3.8885    1.2495   -0.7178 N   0  0  0  0  0  0  0  0  0  0  0  0
   -5.3811   -0.4932    0.2075 C   0  0  0  0  0  0  0  0  0  0  0  0
   -6.1466   -0.5980   -1.1204 C   0  0  0  0  0  0  0  0  0  0  0  0
   -6.2351    0.3940   -1.6022 H   0  0  0  0  0  0  0  0  0  0  0  0
   -7.1632   -0.9919   -0.9279 H   0  0  0  0  0  0  0  0  0  0  0  0
   -5.6313   -1.2863   -1.8192 H   0  0  0  0  0  0  0  0  0  0  0  0
   -2.5635    1.3946   -0.7636 C   0  0  0  0  0  0  0  0  0  0  0  0
   -1.0381    3.2594   -0.2246 C   0  0  0  0  0  0  0  0  0  0  0  0
   -1.8061    2.5392   -1.3400 C   0  0  0  0  0  0  0  0  0  0  0  0
   -2.5287    3.2453   -1.7894 H   0  0  0  0  0  0  0  0  0  0  0  0
   -1.1074    2.1534   -2.1089 H   0  0  0  0  0  0  0  0  0  0  0  0
   -6.0703    0.4820    1.1758 C   0  0  0  0  0  0  0  0  0  0  0  0
   -5.4954    0.5706    2.1185 H   0  0  0  0  0  0  0  0  0  0  0  0
   -7.0844    0.1083    1.4167 H   0  0  0  0  0  0  0  0  0  0  0  0
   -6.1601    1.4870    0.7213 H   0  0  0  0  0  0  0  0  0  0  0  0
   -5.1877   -1.8697    0.8491 C   0  0  0  0  0  0  0  0  0  0  0  0
   -4.6612   -2.5640    0.1668 H   0  0  0  0  0  0  0  0  0  0  0  0
   -6.1855   -2.2909    1.0779 H   0  0  0  0  0  0  0  0  0  0  0  0
   -4.6059   -1.8038    1.7873 H   0  0  0  0  0  0  0  0  0  0  0  0
    1.1146    3.6345    0.6565 C   0  0  0  0  0  0  0  0  0  0  0  0
    0.9936    2.9422    1.5154 H   0  0  0  0  0  0  0  0  0  0  0  0
    0.8324    4.6616    0.9600 H   0  0  0  0  0  0  0  0  0  0  0  0
    2.1513    3.6000    0.2779 H   0  0  0  0  0  0  0  0  0  0  0  0
  1  5  1  0  0  0  0
  2 13  1  0  0  0  0
  2 25  1  0  0  0  0
  4  7  1  0  0  0  0
  4  5  1  0  0  0  0
  6  4  1  0  0  0  0
  7 21  1  0  0  0  0
  7 17  1  0  0  0  0
  8 10  1  0  0  0  0
  8  7  1  0  0  0  0
  9  8  1  0  0  0  0
 11  8  1  0  0  0  0
 12  6  2  0  0  0  0
 12  1  1  0  0  0  0
 13  3  2  0  0  0  0
 14 12  1  0  0  0  0
 14 13  1  0  0  0  0
 15 14  1  0  0  0  0
 16 14  1  0  0  0  0
 17 19  1  0  0  0  0
 17 18  1  0  0  0  0
 20 17  1  0  0  0  0
 21 23  1  0  0  0  0
 21 24  1  0  0  0  0
 22 21  1  0  0  0  0
 25 27  1  0  0  0  0
 25 26  1  0  0  0  0
 28 25  1  0  0  0  0
M  END
