1
q = 0.0, confidence = 0.972

 20 20  0  0  1  0  0  0  0  0999 V2000
   -1.5635   -0.0732   -0.3431 N   0  0  0  0  0  0  0  0  0  0  0  0
   -2.4021    1.0256    0.2495 C   0  0  2  0  0  0  0  0  0  0  0  0
   -3.8978    0.8400   -0.0704 C   0  0  0  0  0  0  0  0  0  0  0  0
   -4.4314   -0.5469    0.2903 C   0  0  0  0  0  0  0  0  0  0  0  0
   -3.5696   -1.6191   -0.3767 C   0  0  0  0  0  0  0  0  0  0  0  0
   -2.1004   -1.4255   -0.0079 C   0  0  0  0  0  0  0  0  0  0  0  0
   -1.9324    2.3984   -0.2209 C   0  0  0  0  0  0  0  0  0  0  0  0
   -1.6338    0.0322   -1.3683 H   0  0  0  0  0  0  0  0  0  0  0  0
   -2.2534    0.9409    1.3489 H   0  0  0  0  0  0  0  0  0  0  0  0
   -4.0468    1.0245   -1.1593 H   0  0  0  0  0  0  0  0  0  0  0  0
   -4.4674    1.6334    0.4560 H   0  0  0  0  0  0  0  0  0  0  0  0
   -5.4951   -0.6443   -0.0088 H   0  0  0  0  0  0  0  0  0  0  0  0
   -4.3996   -0.6833    1.3941 H   0  0  0  0  0  0  0  0  0  0  0  0
   -3.8844   -2.6401   -0.0769 H   0  0  0  0  0  0  0  0  0  0  0  0
   -3.6861   -1.5670   -1.4829 H   0  0  0  0  0  0  0  0  0  0  0  0
   -1.4557   -2.1736   -0.5074 H   0  0  0  0  0  0  0  0  0  0  0  0
   -1.9598   -1.5615    1.0843 H   0  0  0  0  0  0  0  0  0  0  0  0
   -2.6010    3.1812    0.1875 H   0  0  0  0  0  0  0  0  0  0  0  0
   -1.9688    2.4725   -1.3282 H   0  0  0  0  0  0  0  0  0  0  0  0
   -0.9022    2.6256    0.1040 H   0  0  0  0  0  0  0  0  0  0  0  0
  1  6  1  0  0  0  0
  1  2  1  0  0  0  0
  2  9  1  1  0  0  0
  3  2  1  0  0  0  0
  3  4  1  0  0  0  0
  3 11  1  0  0  0  0
  4 13  1  0  0  0  0
  5 14  1  0  0  0  0
  5  6  1  0  0  0  0
  5  4  1  0  0  0  0
  6 17  1  0  0  0  0
  7 20  1  0  0  0  0
  7 18  1  0  0  0  0
  7  2  1  0  0  0  0
  8  1  1  0  0  0  0
 10  3  1  0  0  0  0
 12  4  1  0  0  0  0
 15  5  1  0  0  0  0
 16  6  1  0  0  0  0
 19  7  1  0  0  0  0
M  END
