1
q = -1.0

 12 12  0  0  0  0  0  0  0  0999 V2000
   -2.7045   -0.0347    0.0015 N   0  0  0  0  0  0  0  0  0  0  0  0
   -3.4508    1.0700   -0.0202 N   0  0  0  0  0  0  0  0  0  0  0  0
   -5.8347    1.6061   -0.0258 N   0  0  0  0  0  0  0  0  0  0  0  0
   -2.9859   -2.4871    0.0532 N   0  0  0  0  0  0  0  0  0  0  0  0
   -5.5597    2.8020   -0.0508 O   0  0  0  0  0  0  0  0  0  0  0  0
   -6.9707    1.1208   -0.0137 O   0  0  0  0  0  0  0  0  0  0  0  0
   -3.8011   -3.4086    0.0693 O   0  0  0  0  0  0  0  0  0  0  0  0
   -1.7526   -2.6332    0.0585 O   0  0  0  0  0  0  0  0  0  0  0  0
   -4.7338    0.6486   -0.0084 C   0  0  0  0  0  0  0  0  0  0  0  0
   -4.8534   -0.7519    0.0210 C   0  0  0  0  0  0  0  0  0  0  0  0
   -5.7519   -1.3720    0.0361 H   0  0  0  0  0  0  0  0  0  0  0  0
   -3.5126   -1.1449    0.0264 C   0  0  0  0  0  3  0  0  0  0  0  0
  1 12  1  0  0  0  0
  2  9  1  0  0  0  0
  2  1  2  0  0  0  0
  3  6  2  0  0  0  0
  3  9  1  0  0  0  0
  4  8  2  0  0  0  0
  4  7  2  0  0  0  0
  5  3  2  0  0  0  0
  9 10  2  0  0  0  0
 10 12  1  0  0  0  0
 10 11  1  0  0  0  0
 12  4  1  0  0  0  0
M  END
