2
q = -1.0, confidence = 0.0

 11 11  0  0  0  0  0  0  0  0999 V2000
   -1.8309    2.0458    0.7267 O   0  0  0  0  0  0  0  0  0  0  0  0
   -1.3845   -0.1403    0.0173 N   0  0  0  0  0  2  0  0  0  0  0  0
   -2.2482    0.9285    0.2932 C   0  0  0  0  0  0  0  0  0  0  0  0
   -3.6509    0.6891    0.0747 C   0  0  0  0  0  0  0  0  0  0  0  0
   -4.3095    1.5499    0.2546 H   0  0  0  0  0  0  0  0  0  0  0  0
   -4.1293   -0.5520   -0.2963 C   0  0  0  0  0  0  0  0  0  0  0  0
   -5.2104   -0.7075   -0.4373 H   0  0  0  0  0  0  0  0  0  0  0  0
   -3.2220   -1.6217   -0.4792 C   0  0  0  0  0  0  0  0  0  0  0  0
   -3.5530   -2.6312   -0.7555 H   0  0  0  0  0  0  0  0  0  0  0  0
   -1.8704   -1.3708   -0.3172 C   0  0  0  0  0  0  0  0  0  0  0  0
   -1.1171   -2.1520   -0.4811 H   0  0  0  0  0  0  0  0  0  0  0  0
  2  3  1  0  0  0  0
  3  1  2  0  0  0  0
  4  5  1  0  0  0  0
  4  3  1  0  0  0  0
  6  4  2  0  0  0  0
  7  6  1  0  0  0  0
  8 10  2  0  0  0  0
  8  6  1  0  0  0  0
  9  8  1  0  0  0  0
 10  2  1  0  0  0  0
 11 10  1  0  0  0  0
M  END
