15
q = 0.0, confidence = 1.0

 50 54  0  0  0  0  0  0  0  0999 V2000
   -0.1150   -0.1064    0.3074 As  0  0  2  0  0  0  0  0  0  0  0  0
   -0.8635    0.1094    2.0898 C   0  0  0  0  0  0  0  0  0  0  0  0
   -1.1530   -1.0728    2.7981 C   0  0  0  0  0  0  0  0  0  0  0  0
   -1.6868   -0.9852    4.0929 C   0  0  0  0  0  0  0  0  0  0  0  0
   -1.9156    0.2688    4.6814 C   0  0  0  0  0  0  0  0  0  0  0  0
   -1.6056    1.4429    3.9755 C   0  0  0  0  0  0  0  0  0  0  0  0
   -1.0796    1.3679    2.6770 C   0  0  0  0  0  0  0  0  0  0  0  0
    0.5124    1.6440   -0.2833 C   0  0  0  0  0  0  0  0  0  0  0  0
   -0.2827    2.7679   -0.4594 C   0  0  0  0  0  0  0  0  0  0  0  0
    0.2667    4.0196   -0.8689 C   0  0  0  0  0  0  0  0  0  0  0  0
    1.6376    4.0941   -1.0861 C   0  0  0  0  0  3  0  0  0  0  0  0
    3.8901    3.0282   -1.1544 C   0  0  0  0  0  0  0  0  0  0  0  0
    4.6555    1.8867   -0.9939 C   0  0  0  0  0  0  0  0  0  0  0  0
    4.0315    0.6751   -0.6180 C   0  0  0  0  0  0  0  0  0  0  0  0
    2.7157    0.5741   -0.3948 N   0  0  0  0  0  2  0  0  0  0  0  0
    2.4876    2.9621   -0.9266 C   0  0  0  0  0  0  0  0  0  0  0  0
    1.9184    1.7019   -0.5279 C   0  0  0  0  0  0  0  0  0  0  0  0
   -0.6412    5.2074   -1.0478 C   0  0  0  0  0  0  0  0  0  0  0  0
   -1.6056   -0.6773   -0.8167 C   0  0  0  0  0  0  0  0  0  0  0  0
   -1.4415   -1.8411   -1.5536 C   0  0  0  0  0  0  0  0  0  0  0  0
   -2.5075   -2.3973   -2.3274 C   0  0  0  0  0  0  0  0  0  0  0  0
   -3.7390   -1.7530   -2.3184 C   0  0  0  0  0  0  0  0  0  0  0  0
   -5.1991    0.1172   -1.5236 C   0  0  0  0  0  0  0  0  0  0  0  0
   -5.3284    1.2699   -0.7642 C   0  0  0  0  0  0  0  0  0  0  0  0
   -4.1906    1.7513   -0.0640 C   0  0  0  0  0  0  0  0  0  0  0  0
   -3.0052    1.1569   -0.0863 N   0  0  0  0  0  0  0  0  0  0  0  0
   -3.9484   -0.5598   -1.5686 C   0  0  0  0  0  0  0  0  0  0  0  0
   -2.8622    0.0085   -0.8073 C   0  0  0  0  0  0  0  0  0  0  0  0
   -2.2642   -3.6660   -3.0986 C   0  0  0  0  0  0  0  0  0  0  0  0
   -0.9323   -2.0522    2.3421 H   0  0  0  0  0  0  0  0  0  0  0  0
   -1.9140   -1.9074    4.6490 H   0  0  0  0  0  0  0  0  0  0  0  0
   -2.3292    0.3326    5.6995 H   0  0  0  0  0  0  0  0  0  0  0  0
   -1.7744    2.4271    4.4389 H   0  0  0  0  0  0  0  0  0  0  0  0
   -0.8406    2.2888    2.1260 H   0  0  0  0  0  0  0  0  0  0  0  0
   -1.3653    2.6654   -0.2790 H   0  0  0  0  0  0  0  0  0  0  0  0
    2.0964    5.0462   -1.3969 H   0  0  0  0  0  0  0  0  0  0  0  0
    4.3428    3.9854   -1.4564 H   0  0  0  0  0  0  0  0  0  0  0  0
    5.7422    1.8919   -1.1586 H   0  0  0  0  0  0  0  0  0  0  0  0
    4.5896   -0.2732   -0.5008 H   0  0  0  0  0  0  0  0  0  0  0  0
   -1.4234    4.9970   -1.8065 H   0  0  0  0  0  0  0  0  0  0  0  0
   -1.1719    5.4480   -0.1031 H   0  0  0  0  0  0  0  0  0  0  0  0
   -0.0847    6.1087   -1.3679 H   0  0  0  0  0  0  0  0  0  0  0  0
   -0.4810   -2.3792   -1.4985 H   0  0  0  0  0  0  0  0  0  0  0  0
   -4.5832   -2.1681   -2.8924 H   0  0  0  0  0  0  0  0  0  0  0  0
   -6.0510   -0.2883   -2.0922 H   0  0  0  0  0  0  0  0  0  0  0  0
   -6.2833    1.8118   -0.7022 H   0  0  0  0  0  0  0  0  0  0  0  0
   -4.2666    2.6743    0.5393 H   0  0  0  0  0  0  0  0  0  0  0  0
   -1.4802   -3.5160   -3.8698 H   0  0  0  0  0  0  0  0  0  0  0  0
   -1.8920   -4.4658   -2.4254 H   0  0  0  0  0  0  0  0  0  0  0  0
   -3.1808   -4.0277   -3.6021 H   0  0  0  0  0  0  0  0  0  0  0  0
  1 19  1  6  0  0  0
  1  2  1  0  0  0  0
  2  7  2  0  0  0  0
  2  3  1  0  0  0  0
  3  4  2  0  0  0  0
  4 31  1  0  0  0  0
  4  5  1  0  0  0  0
  5 32  1  0  0  0  0
  6 33  1  0  0  0  0
  6  5  2  0  0  0  0
  7  6  1  0  0  0  0
  8  1  1  0  0  0  0
  9  8  1  0  0  0  0
  9 35  1  0  0  0  0
 10  9  2  0  0  0  0
 11 16  1  0  0  0  0
 11 10  1  0  0  0  0
 12 13  1  0  0  0  0
 12 16  2  0  0  0  0
 13 14  2  0  0  0  0
 14 39  1  0  0  0  0
 14 15  1  0  0  0  0
 16 17  1  0  0  0  0
 17 15  1  0  0  0  0
 17  8  2  0  0  0  0
 18 10  1  0  0  0  0
 18 41  1  0  0  0  0
 19 28  1  0  0  0  0
 20 43  1  0  0  0  0
 20 19  2  0  0  0  0
 21 22  2  0  0  0  0
 21 20  1  0  0  0  0
 22 27  1  0  0  0  0
 23 24  1  0  0  0  0
 24 46  1  0  0  0  0
 24 25  2  0  0  0  0
 25 47  1  0  0  0  0
 26 25  1  0  0  0  0
 27 23  2  0  0  0  0
 27 28  1  0  0  0  0
 28 26  2  0  0  0  0
 29 49  1  0  0  0  0
 29 21  1  0  0  0  0
 30  3  1  0  0  0  0
 34  7  1  0  0  0  0
 36 11  1  0  0  0  0
 37 12  1  0  0  0  0
 38 13  1  0  0  0  0
 40 18  1  0  0  0  0
 42 18  1  0  0  0  0
 44 22  1  0  0  0  0
 45 23  1  0  0  0  0
 48 29  1  0  0  0  0
 50 29  1  0  0  0  0
M  END
