4
q = -1.0

 26 27  0  0  0  0  0  0  0  0999 V2000
    2.7941   -0.3912   -1.6779 S   0  0  0  0  0  0  0  0  0  0  0  0
    4.2388   -0.5290   -1.9363 O   0  0  0  0  0  0  0  0  0  0  0  0
    1.8231   -0.8292   -2.7271 O   0  0  0  0  0  0  0  0  0  0  0  0
    2.3071   -1.3062   -0.3211 N   0  0  0  0  0  2  0  0  0  0  0  0
    3.0228   -1.2148    0.8376 C   0  0  0  0  0  0  0  0  0  0  0  0
    2.6809   -2.0835    1.8435 N   0  0  0  0  0  0  0  0  0  0  0  0
    3.3649   -2.0069    2.9895 C   0  0  0  0  0  0  0  0  0  0  0  0
    4.4074   -1.0939    3.1964 C   0  0  0  0  0  0  0  0  0  0  0  0
    4.6789   -0.2411    2.1126 C   0  0  0  0  0  0  0  0  0  0  0  0
    4.0083   -0.2863    0.9638 N   0  0  0  0  0  0  0  0  0  0  0  0
    2.3851    1.3018   -1.3025 C   0  0  0  0  0  0  0  0  0  0  0  0
    3.3437    2.1636   -0.7438 C   0  0  0  0  0  0  0  0  0  0  0  0
    2.9719    3.4606   -0.3847 C   0  0  0  0  0  0  0  0  0  0  0  0
    1.6395    3.9145   -0.5695 C   0  0  0  0  0  0  0  0  0  0  0  0
    0.6992    3.0326   -1.1596 C   0  0  0  0  0  0  0  0  0  0  0  0
    1.0693    1.7407   -1.5278 C   0  0  0  0  0  0  0  0  0  0  0  0
    1.2754    5.2021   -0.2274 N   0  0  0  0  0  0  0  0  0  0  0  0
    3.0636   -2.7132    3.7850 H   0  0  0  0  0  0  0  0  0  0  0  0
    4.9674   -1.0474    4.1398 H   0  0  0  0  0  0  0  0  0  0  0  0
    5.4732    0.5260    2.1841 H   0  0  0  0  0  0  0  0  0  0  0  0
    4.3671    1.7974   -0.5917 H   0  0  0  0  0  0  0  0  0  0  0  0
    3.7196    4.1431    0.0498 H   0  0  0  0  0  0  0  0  0  0  0  0
   -0.3414    3.3505   -1.3246 H   0  0  0  0  0  0  0  0  0  0  0  0
    0.3229    1.0786   -1.9848 H   0  0  0  0  0  0  0  0  0  0  0  0
    1.8717    5.7074    0.4263 H   0  0  0  0  0  0  0  0  0  0  0  0
    0.2796    5.3995   -0.1379 H   0  0  0  0  0  0  0  0  0  0  0  0
  1 11  1  0  0  0  0
  1  4  1  0  0  0  0
  2  1  2  0  0  0  0
  3  1  2  0  0  0  0
  4  5  1  0  0  0  0
  5 10  2  0  0  0  0
  5  6  1  0  0  0  0
  6  7  2  0  0  0  0
  7  8  1  0  0  0  0
  7 18  1  0  0  0  0
  8 19  1  0  0  0  0
  9 20  1  0  0  0  0
  9  8  2  0  0  0  0
 10  9  1  0  0  0  0
 11 12  1  0  0  0  0
 12 21  1  0  0  0  0
 12 13  2  0  0  0  0
 13 22  1  0  0  0  0
 14 13  1  0  0  0  0
 14 17  1  0  0  0  0
 15 14  2  0  0  0  0
 16 11  2  0  0  0  0
 16 15  1  0  0  0  0
 17 26  1  0  0  0  0
 17 25  1  0  0  0  0
 23 15  1  0  0  0  0
 24 16  1  0  0  0  0
M  END
