1
q = -1.0

  9  9  0  0  0  0  0  0  0  0999 V2000
    2.2669   -0.0398    0.1073 N   0  0  0  0  0  0  0  0  0  0  0  0
    3.1558    0.0661   -0.9515 C   0  0  0  0  0  0  0  0  0  0  0  0
    2.7961    0.1297   -1.9867 H   0  0  0  0  0  0  0  0  0  0  0  0
    4.4667    0.0652   -0.4602 C   0  0  0  0  0  0  0  0  0  0  0  0
    5.3815    0.1295   -1.0623 H   0  0  0  0  0  0  0  0  0  0  0  0
    4.3722   -0.0429    0.9583 C   0  0  0  0  0  0  0  0  0  0  0  0
    5.2000   -0.0739    1.6772 H   0  0  0  0  0  0  0  0  0  0  0  0
    3.0097   -0.1035    1.2643 C   0  0  0  0  0  3  0  0  0  0  0  0
    2.5237   -0.1884    2.2448 H   0  0  0  0  0  0  0  0  0  0  0  0
  1  8  1  0  0  0  0
  2  4  1  0  0  0  0
  2  1  2  0  0  0  0
  3  2  1  0  0  0  0
  4  6  2  0  0  0  0
  5  4  1  0  0  0  0
  6  8  1  0  0  0  0
  6  7  1  0  0  0  0
  8  9  1  0  0  0  0
M  END
