2
q = -1.0

 36 36  0  0  0  0  0  0  0  0999 V2000
   -1.5902   -1.0394   -0.0795 P   0  0  0  0  0  0  0  0  0  0  0  0
   -0.5813    1.6604   -0.3327 N   0  0  0  0  0  2  0  0  0  0  0  0
   -2.3905    0.3755    0.6256 C   0  0  0  0  0  0  0  0  0  0  0  0
   -3.3875    0.3242    1.0791 H   0  0  0  0  0  0  0  0  0  0  0  0
   -1.8361    1.6188    0.2928 C   0  0  0  0  0  0  0  0  0  0  0  0
   -2.5195    2.8778    0.5472 C   0  0  0  0  0  0  0  0  0  0  0  0
   -1.9956    4.0476    0.0226 C   0  0  0  0  0  0  0  0  0  0  0  0
   -2.5286    4.9969    0.1941 H   0  0  0  0  0  0  0  0  0  0  0  0
   -0.8053    4.0310   -0.7502 C   0  0  0  0  0  0  0  0  0  0  0  0
   -0.4028    4.9378   -1.2197 H   0  0  0  0  0  0  0  0  0  0  0  0
   -0.1409    2.8243   -0.8864 C   0  0  0  0  0  0  0  0  0  0  0  0
    0.7981    2.7628   -1.4531 H   0  0  0  0  0  0  0  0  0  0  0  0
   -3.8034    2.8610    1.3247 C   0  0  0  0  0  0  0  0  0  0  0  0
   -4.5886    2.2769    0.7957 H   0  0  0  0  0  0  0  0  0  0  0  0
   -4.1894    3.8857    1.4864 H   0  0  0  0  0  0  0  0  0  0  0  0
   -3.6729    2.3761    2.3165 H   0  0  0  0  0  0  0  0  0  0  0  0
   -1.6869   -2.4732    1.1512 C   0  0  0  0  0  0  0  0  0  0  0  0
   -0.7249   -2.3761    1.6957 H   0  0  0  0  0  0  0  0  0  0  0  0
   -1.6994   -3.8535    0.4838 C   0  0  0  0  0  0  0  0  0  0  0  0
   -2.6496   -4.0443   -0.0540 H   0  0  0  0  0  0  0  0  0  0  0  0
   -1.6004   -4.6396    1.2615 H   0  0  0  0  0  0  0  0  0  0  0  0
   -0.8593   -3.9644   -0.2269 H   0  0  0  0  0  0  0  0  0  0  0  0
   -2.8281   -2.3096    2.1618 C   0  0  0  0  0  0  0  0  0  0  0  0
   -2.7614   -1.3496    2.7082 H   0  0  0  0  0  0  0  0  0  0  0  0
   -2.7906   -3.1336    2.9054 H   0  0  0  0  0  0  0  0  0  0  0  0
   -3.8221   -2.3519    1.6718 H   0  0  0  0  0  0  0  0  0  0  0  0
   -2.5370   -1.5823   -1.6130 C   0  0  0  0  0  0  0  0  0  0  0  0
   -2.0590   -2.5389   -1.9132 H   0  0  0  0  0  0  0  0  0  0  0  0
   -2.3139   -0.5450   -2.7177 C   0  0  0  0  0  0  0  0  0  0  0  0
   -2.6898    0.4525   -2.4075 H   0  0  0  0  0  0  0  0  0  0  0  0
   -2.8608   -0.8419   -3.6366 H   0  0  0  0  0  0  0  0  0  0  0  0
   -1.2409   -0.4415   -2.9680 H   0  0  0  0  0  0  0  0  0  0  0  0
   -4.0264   -1.7933   -1.3241 C   0  0  0  0  0  0  0  0  0  0  0  0
   -4.2113   -2.5962   -0.5838 H   0  0  0  0  0  0  0  0  0  0  0  0
   -4.5631   -2.0689   -2.2561 H   0  0  0  0  0  0  0  0  0  0  0  0
   -4.4866   -0.8592   -0.9393 H   0  0  0  0  0  0  0  0  0  0  0  0
  1  3  1  0  0  0  0
  1 17  1  0  0  0  0
  2  5  1  0  0  0  0
  3  4  1  0  0  0  0
  5  6  1  0  0  0  0
  5  3  2  0  0  0  0
  6 13  1  0  0  0  0
  7  8  1  0  0  0  0
  7  6  2  0  0  0  0
  9  7  1  0  0  0  0
 10  9  1  0  0  0  0
 11  9  2  0  0  0  0
 11  2  1  0  0  0  0
 12 11  1  0  0  0  0
 13 15  1  0  0  0  0
 13 16  1  0  0  0  0
 14 13  1  0  0  0  0
 17 18  1  0  0  0  0
 17 23  1  0  0  0  0
 19 17  1  0  0  0  0
 19 21  1  0  0  0  0
 20 19  1  0  0  0  0
 22 19  1  0  0  0  0
 23 24  1  0  0  0  0
 23 25  1  0  0  0  0
 26 23  1  0  0  0  0
 27 33  1  0  0  0  0
 27  1  1  0  0  0  0
 28 27  1  0  0  0  0
 29 30  1  0  0  0  0
 29 27  1  0  0  0  0
 31 29  1  0  0  0  0
 32 29  1  0  0  0  0
 33 36  1  0  0  0  0
 33 34  1  0  0  0  0
 35 33  1  0  0  0  0
M  END
