1
q = 0.0, confidence = 0.954

 16 17  0  0  0  0  0  0  0  0999 V2000
    1.2955   -0.8776    0.1404 N   0  0  0  0  0  2  0  0  0  0  0  0
    2.1186    1.3116    0.1467 N   0  0  0  0  0  0  0  0  0  0  0  0
    1.5234   -2.1933    0.2461 C   0  0  0  0  0  0  0  0  0  0  0  0
    0.6220   -2.8264    0.2199 H   0  0  0  0  0  0  0  0  0  0  0  0
    2.8203   -2.7572    0.2912 C   0  0  0  0  0  0  0  0  0  0  0  0
    2.9186   -3.8489    0.3717 H   0  0  0  0  0  0  0  0  0  0  0  0
    3.9266   -1.9326    0.1906 C   0  0  0  0  0  0  0  0  0  0  0  0
    4.9508   -2.3369    0.1780 H   0  0  0  0  0  0  0  0  0  0  0  0
    4.7855    0.4122   -0.0027 C   0  0  0  0  0  3  0  0  0  0  0  0
    5.8232    0.0461   -0.0423 H   0  0  0  0  0  0  0  0  0  0  0  0
    4.4931    1.7644   -0.0447 C   0  0  0  0  0  0  0  0  0  0  0  0
    5.2848    2.5226   -0.1310 H   0  0  0  0  0  0  0  0  0  0  0  0
    3.1318    2.1591    0.0644 C   0  0  0  0  0  0  0  0  0  0  0  0
    2.8728    3.2335    0.0955 H   0  0  0  0  0  0  0  0  0  0  0  0
    2.3777   -0.0145    0.1237 C   0  0  0  0  0  0  0  0  0  0  0  0
    3.7226   -0.5293    0.1013 C   0  0  0  0  0  0  0  0  0  0  0  0
  1  3  1  0  0  0  0
  3  5  2  0  0  0  0
  4  3  1  0  0  0  0
  5  6  1  0  0  0  0
  7  5  1  0  0  0  0
  8  7  1  0  0  0  0
  9 16  1  0  0  0  0
 10  9  1  0  0  0  0
 11  9  1  0  0  0  0
 11 13  2  0  0  0  0
 12 11  1  0  0  0  0
 13 14  1  0  0  0  0
 13  2  1  0  0  0  0
 15  1  1  0  0  0  0
 15  2  2  0  0  0  0
 16 15  1  0  0  0  0
 16  7  2  0  0  0  0
M  END
