1
q = -1.0

 13 13  0  0  0  0  0  0  0  0999 V2000
   -0.8611   -1.2845    0.8796 N   0  0  0  0  0  2  0  0  0  0  0  0
   -2.1447   -1.4017    0.4378 C   0  0  0  0  0  0  0  0  0  0  0  0
   -3.2622   -1.4203    1.3243 C   0  0  0  0  0  0  0  0  0  0  0  0
   -4.5902   -1.5001    0.8937 C   0  0  0  0  0  0  0  0  0  0  0  0
   -4.8798   -1.5984   -0.4801 C   0  0  0  0  0  0  0  0  0  0  0  0
   -3.8102   -1.6063   -1.3917 C   0  0  0  0  0  0  0  0  0  0  0  0
   -2.4869   -1.5379   -0.9380 C   0  0  0  0  0  0  0  0  0  0  0  0
   -3.0082   -1.3035    2.6516 F   0  0  0  0  0  0  0  0  0  0  0  0
   -5.5923   -1.4833    1.7851 F   0  0  0  0  0  0  0  0  0  0  0  0
   -6.1499   -1.6774   -0.9094 F   0  0  0  0  0  0  0  0  0  0  0  0
   -4.0562   -1.7034   -2.7072 F   0  0  0  0  0  0  0  0  0  0  0  0
   -1.5043   -1.5952   -1.8730 F   0  0  0  0  0  0  0  0  0  0  0  0
   -0.8474   -1.3580    1.9039 H   0  0  0  0  0  0  0  0  0  0  0  0
  1 13  1  0  0  0  0
  2  1  1  0  0  0  0
  2  3  1  0  0  0  0
  3  8  1  0  0  0  0
  4  3  2  0  0  0  0
  4  9  1  0  0  0  0
  5  4  1  0  0  0  0
  6  7  1  0  0  0  0
  6  5  2  0  0  0  0
  7  2  2  0  0  0  0
 10  5  1  0  0  0  0
 11  6  1  0  0  0  0
 12  7  1  0  0  0  0
M  END
