6
q = -1.0

 11 11  0  0  0  0  0  0  0  0999 V2000
    5.9784    0.0006    0.0006 O   0  0  0  0  0  0  0  0  0  0  0  0
    2.0040    1.6336    1.6320 O   0  0  0  0  0  0  0  0  0  0  0  0
    2.0053   -1.6339   -1.6325 O   0  0  0  0  0  0  0  0  0  0  0  0
    3.9714   -0.8096   -0.8088 N   0  0  0  0  0  0  0  0  0  0  0  0
    4.4631   -1.4422   -1.4408 H   0  0  0  0  0  0  0  0  0  0  0  0
    1.8944   -0.0002   -0.0003 N   0  0  0  0  0  2  0  0  0  0  0  0
    3.9708    0.8100    0.8093 N   0  0  0  0  0  0  0  0  0  0  0  0
    4.4620    1.4428    1.4414 H   0  0  0  0  0  0  0  0  0  0  0  0
    4.7498    0.0003    0.0004 C   0  0  0  0  0  0  0  0  0  0  0  0
    2.5522   -0.8557   -0.8549 C   0  0  0  0  0  0  0  0  0  0  0  0
    2.5516    0.8556    0.8547 C   0  0  0  0  0  0  0  0  0  0  0  0
  3 10  2  0  0  0  0
  4  9  1  0  0  0  0
  5  4  1  0  0  0  0
  6 11  1  0  0  0  0
  7 11  1  0  0  0  0
  7  8  1  0  0  0  0
  9  1  2  0  0  0  0
  9  7  1  0  0  0  0
 10  4  1  0  0  0  0
 10  6  1  0  0  0  0
 11  2  2  0  0  0  0
M  END
