1
q = 0.0, confidence = 0.998

 57 57  0  0  1  0  0  0  0  0999 V2000
   -0.0002    1.5631    0.0001 N   0  0  0  0  0  2  0  0  0  0  0  0
   -1.1424    2.2536   -0.3064 C   0  0  1  0  0  3  0  0  0  0  0  0
   -1.1657    3.6568   -0.3019 C   0  0  0  0  0  0  0  0  0  0  0  0
   -2.0994    4.1805   -0.5498 H   0  0  0  0  0  0  0  0  0  0  0  0
    0.0000    4.3682    0.0001 C   0  0  0  0  0  0  0  0  0  0  0  0
    0.0001    5.4682    0.0001 H   0  0  0  0  0  0  0  0  0  0  0  0
    1.1656    3.6567    0.3023 C   0  0  0  0  0  0  0  0  0  0  0  0
    2.0993    4.1803    0.5503 H   0  0  0  0  0  0  0  0  0  0  0  0
    1.1421    2.2534    0.3068 C   0  0  0  0  0  0  0  0  0  0  0  0
   -2.2859   -0.2703   -0.0038 P   0  0  0  0  0  0  0  0  0  0  0  0
   -2.3627    1.4648   -0.6873 C   0  0  0  0  0  0  0  0  0  0  0  0
   -2.3791    1.3505   -1.7930 H   0  0  0  0  0  0  0  0  0  0  0  0
   -3.2915    2.0021   -0.4077 H   0  0  0  0  0  0  0  0  0  0  0  0
   -3.1356   -0.1368    1.6579 C   0  0  0  0  0  0  0  0  0  0  0  0
   -4.1300    0.3179    1.4531 H   0  0  0  0  0  0  0  0  0  0  0  0
   -3.4388   -1.2459   -1.1109 C   0  0  0  0  0  0  0  0  0  0  0  0
   -3.3234   -2.2880   -0.7361 H   0  0  0  0  0  0  0  0  0  0  0  0
   -3.3333   -1.5248    2.2785 C   0  0  0  0  0  0  0  0  0  0  0  0
   -2.3587   -2.0013    2.5078 H   0  0  0  0  0  0  0  0  0  0  0  0
   -3.9083   -2.2118    1.6264 H   0  0  0  0  0  0  0  0  0  0  0  0
   -3.8884   -1.4353    3.2342 H   0  0  0  0  0  0  0  0  0  0  0  0
   -2.3396    0.7926    2.5824 C   0  0  0  0  0  0  0  0  0  0  0  0
   -2.8402    0.8632    3.5694 H   0  0  0  0  0  0  0  0  0  0  0  0
   -2.2544    1.8221    2.1810 H   0  0  0  0  0  0  0  0  0  0  0  0
   -1.3128    0.4029    2.7431 H   0  0  0  0  0  0  0  0  0  0  0  0
   -2.9413   -1.1981   -2.5631 C   0  0  0  0  0  0  0  0  0  0  0  0
   -3.4545   -1.9727   -3.1674 H   0  0  0  0  0  0  0  0  0  0  0  0
   -1.8484   -1.3670   -2.6403 H   0  0  0  0  0  0  0  0  0  0  0  0
   -3.1686   -0.2207   -3.0362 H   0  0  0  0  0  0  0  0  0  0  0  0
   -4.9121   -0.8387   -0.9935 C   0  0  0  0  0  0  0  0  0  0  0  0
   -5.0670    0.2222   -1.2796 H   0  0  0  0  0  0  0  0  0  0  0  0
   -5.3184   -0.9839    0.0258 H   0  0  0  0  0  0  0  0  0  0  0  0
   -5.5272   -1.4532   -1.6824 H   0  0  0  0  0  0  0  0  0  0  0  0
    2.2859   -0.2704    0.0038 P   0  0  0  0  0  0  0  0  0  0  0  0
    2.3621    1.4644    0.6882 C   0  0  0  0  0  0  0  0  0  0  0  0
    2.3776    1.3496    1.7939 H   0  0  0  0  0  0  0  0  0  0  0  0
    3.2911    2.0018    0.4097 H   0  0  0  0  0  0  0  0  0  0  0  0
    3.1379   -0.1359   -1.6566 C   0  0  0  0  0  0  0  0  0  0  0  0
    4.1316    0.3196   -1.4502 H   0  0  0  0  0  0  0  0  0  0  0  0
    3.4371   -1.2467    1.1119 C   0  0  0  0  0  0  0  0  0  0  0  0
    3.3231   -2.2883    0.7357 H   0  0  0  0  0  0  0  0  0  0  0  0
    2.3423    0.7931   -2.5820 C   0  0  0  0  0  0  0  0  0  0  0  0
    2.8443    0.8646   -3.5682 H   0  0  0  0  0  0  0  0  0  0  0  0
    2.2555    1.8223   -2.1803 H   0  0  0  0  0  0  0  0  0  0  0  0
    1.3161    0.4024   -2.7442 H   0  0  0  0  0  0  0  0  0  0  0  0
    3.3378   -1.5236   -2.2773 C   0  0  0  0  0  0  0  0  0  0  0  0
    2.3640   -2.0010   -2.5080 H   0  0  0  0  0  0  0  0  0  0  0  0
    3.9126   -2.2101   -1.6246 H   0  0  0  0  0  0  0  0  0  0  0  0
    3.8940   -1.4332   -3.2323 H   0  0  0  0  0  0  0  0  0  0  0  0
    2.9368   -1.2010    2.5632 C   0  0  0  0  0  0  0  0  0  0  0  0
    3.4496   -1.9756    3.1677 H   0  0  0  0  0  0  0  0  0  0  0  0
    1.8438   -1.3712    2.6379 H   0  0  0  0  0  0  0  0  0  0  0  0
    3.1619   -0.2238    3.0379 H   0  0  0  0  0  0  0  0  0  0  0  0
    4.9105   -0.8384    0.9979 C   0  0  0  0  0  0  0  0  0  0  0  0
    5.0642    0.2222    1.2858 H   0  0  0  0  0  0  0  0  0  0  0  0
    5.3188   -0.9819   -0.0209 H   0  0  0  0  0  0  0  0  0  0  0  0
    5.5246   -1.4535    1.6870 H   0  0  0  0  0  0  0  0  0  0  0  0
  1  9  1  0  0  0  0
  2 11  1  6  0  0  0
  2  3  1  0  0  0  0
  2  1  1  0  0  0  0
  3  5  2  0  0  0  0
  4  3  1  0  0  0  0
  5  7  1  0  0  0  0
  6  5  1  0  0  0  0
  7  9  2  0  0  0  0
  7  8  1  0  0  0  0
  9 35  1  0  0  0  0
 10 14  1  0  0  0  0
 11 13  1  0  0  0  0
 11 10  1  0  0  0  0
 12 11  1  0  0  0  0
 14 18  1  0  0  0  0
 14 22  1  0  0  0  0
 15 14  1  0  0  0  0
 16 30  1  0  0  0  0
 16 17  1  0  0  0  0
 16 10  1  0  0  0  0
 18 19  1  0  0  0  0
 18 21  1  0  0  0  0
 20 18  1  0  0  0  0
 22 25  1  0  0  0  0
 22 23  1  0  0  0  0
 24 22  1  0  0  0  0
 26 16  1  0  0  0  0
 27 26  1  0  0  0  0
 28 26  1  0  0  0  0
 29 26  1  0  0  0  0
 30 32  1  0  0  0  0
 31 30  1  0  0  0  0
 33 30  1  0  0  0  0
 34 35  1  0  0  0  0
 34 40  1  0  0  0  0
 35 36  1  0  0  0  0
 37 35  1  0  0  0  0
 38 39  1  0  0  0  0
 38 34  1  0  0  0  0
 40 50  1  0  0  0  0
 41 40  1  0  0  0  0
 42 44  1  0  0  0  0
 42 38  1  0  0  0  0
 43 42  1  0  0  0  0
 45 42  1  0  0  0  0
 46 38  1  0  0  0  0
 46 48  1  0  0  0  0
 47 46  1  0  0  0  0
 49 46  1  0  0  0  0
 50 52  1  0  0  0  0
 50 53  1  0  0  0  0
 50 51  1  0  0  0  0
 54 40  1  0  0  0  0
 54 55  1  0  0  0  0
 54 57  1  0  0  0  0
 56 54  1  0  0  0  0
M  END
