4
q = -1.0

 29 30  0  0  0  0  0  0  0  0999 V2000
   -2.6727    0.0646   -1.5642 S   0  0  0  0  0  0  0  0  0  0  0  0
   -2.8794    1.2409   -2.4421 O   0  0  0  0  0  0  0  0  0  0  0  0
   -1.8912   -1.0914   -2.0893 O   0  0  0  0  0  0  0  0  0  0  0  0
   -1.8531    0.4717   -0.1470 N   0  0  0  0  0  2  0  0  0  0  0  0
   -1.4560    1.7504    1.7186 N   0  0  0  0  0  0  0  0  0  0  0  0
   -3.5235    2.0090    0.5031 N   0  0  0  0  0  0  0  0  0  0  0  0
   -8.0328   -1.9755    0.1420 N   0  0  0  0  0  0  0  0  0  0  0  0
   -8.7845   -1.2987    0.2670 H   0  0  0  0  0  0  0  0  0  0  0  0
   -8.0643   -2.7665    0.7838 H   0  0  0  0  0  0  0  0  0  0  0  0
   -2.3090    1.4469    0.6987 C   0  0  0  0  0  0  0  0  0  0  0  0
   -1.8770    2.6757    2.5830 C   0  0  0  0  0  0  0  0  0  0  0  0
   -1.1807    2.9255    3.4048 H   0  0  0  0  0  0  0  0  0  0  0  0
   -3.1256    3.3104    2.4786 C   0  0  0  0  0  0  0  0  0  0  0  0
   -3.4512    4.0677    3.2053 H   0  0  0  0  0  0  0  0  0  0  0  0
   -3.9353    2.9277    1.3892 C   0  0  0  0  0  0  0  0  0  0  0  0
   -4.2703   -0.5461   -1.0523 C   0  0  0  0  0  0  0  0  0  0  0  0
   -5.4044    0.2664   -1.2067 C   0  0  0  0  0  0  0  0  0  0  0  0
   -5.2805    1.2677   -1.6398 H   0  0  0  0  0  0  0  0  0  0  0  0
   -6.6535   -0.2057   -0.8026 C   0  0  0  0  0  0  0  0  0  0  0  0
   -7.5461    0.4272   -0.9306 H   0  0  0  0  0  0  0  0  0  0  0  0
   -6.7916   -1.4944   -0.2238 C   0  0  0  0  0  0  0  0  0  0  0  0
   -5.6299   -2.2961   -0.0752 C   0  0  0  0  0  0  0  0  0  0  0  0
   -5.7190   -3.3019    0.3648 H   0  0  0  0  0  0  0  0  0  0  0  0
   -4.3821   -1.8273   -0.4899 C   0  0  0  0  0  0  0  0  0  0  0  0
   -3.4875   -2.4556   -0.3791 H   0  0  0  0  0  0  0  0  0  0  0  0
   -5.2972    3.5234    1.1483 C   0  0  0  0  0  0  0  0  0  0  0  0
   -5.3107    4.0492    0.1716 H   0  0  0  0  0  0  0  0  0  0  0  0
   -5.5912    4.2342    1.9433 H   0  0  0  0  0  0  0  0  0  0  0  0
   -6.0529    2.7142    1.0812 H   0  0  0  0  0  0  0  0  0  0  0  0
  1 16  1  0  0  0  0
  1  4  1  0  0  0  0
  2  1  2  0  0  0  0
  3  1  2  0  0  0  0
  4 10  1  0  0  0  0
  5 11  1  0  0  0  0
  6 10  1  0  0  0  0
  6 15  2  0  0  0  0
  7  8  1  0  0  0  0
  7  9  1  0  0  0  0
 10  5  2  0  0  0  0
 11 12  1  0  0  0  0
 13 11  2  0  0  0  0
 13 14  1  0  0  0  0
 15 13  1  0  0  0  0
 16 24  1  0  0  0  0
 17 16  2  0  0  0  0
 17 19  1  0  0  0  0
 18 17  1  0  0  0  0
 19 21  2  0  0  0  0
 20 19  1  0  0  0  0
 21 22  1  0  0  0  0
 21  7  1  0  0  0  0
 22 23  1  0  0  0  0
 24 25  1  0  0  0  0
 24 22  2  0  0  0  0
 26 15  1  0  0  0  0
 26 28  1  0  0  0  0
 27 26  1  0  0  0  0
 29 26  1  0  0  0  0
M  END
