5
q = -1.0, confidence = 0.0

 28 29  0  0  0  0  0  0  0  0999 V2000
    2.8820    0.3994    1.1623 S   0  0  0  0  0  0  0  0  0  0  0  0
    2.5058    1.8110    0.9339 O   0  0  0  0  0  0  0  0  0  0  0  0
    3.2880   -0.0314    2.5326 O   0  0  0  0  0  0  0  0  0  0  0  0
    0.6144   -2.4672   -0.1578 N   0  0  0  0  0  0  0  0  0  0  0  0
    1.6183   -0.5111    0.5427 N   0  0  0  0  0  2  0  0  0  0  0  0
    0.5370   -3.8027   -0.2290 C   0  0  0  0  0  0  0  0  0  0  0  0
   -0.3327   -4.2047   -0.7795 H   0  0  0  0  0  0  0  0  0  0  0  0
    1.4723   -4.6746    0.3453 C   0  0  0  0  0  0  0  0  0  0  0  0
    1.3597   -5.7641    0.2523 H   0  0  0  0  0  0  0  0  0  0  0  0
    2.5400   -4.0950    1.0507 C   0  0  0  0  0  0  0  0  0  0  0  0
    3.2968   -4.7281    1.5400 H   0  0  0  0  0  0  0  0  0  0  0  0
    2.6313   -2.7063    1.1611 C   0  0  0  0  0  0  0  0  0  0  0  0
    3.4239   -2.2369    1.7556 H   0  0  0  0  0  0  0  0  0  0  0  0
    1.6401   -1.9021    0.5306 C   0  0  0  0  0  0  0  0  0  0  0  0
    4.2444    0.0133    0.0511 C   0  0  0  0  0  0  0  0  0  0  0  0
    5.4604   -0.4485    0.5664 C   0  0  0  0  0  0  0  0  0  0  0  0
    5.5622   -0.5946    1.6516 H   0  0  0  0  0  0  0  0  0  0  0  0
    6.5204   -0.7087   -0.3158 C   0  0  0  0  0  0  0  0  0  0  0  0
    7.4801   -1.0728    0.0836 H   0  0  0  0  0  0  0  0  0  0  0  0
    6.3798   -0.5135   -1.7034 C   0  0  0  0  0  0  0  0  0  0  0  0
    5.1406   -0.0379   -2.1914 C   0  0  0  0  0  0  0  0  0  0  0  0
    5.0136    0.1262   -3.2734 H   0  0  0  0  0  0  0  0  0  0  0  0
    4.0759    0.2304   -1.3268 C   0  0  0  0  0  0  0  0  0  0  0  0
    3.1136    0.6040   -1.7066 H   0  0  0  0  0  0  0  0  0  0  0  0
    7.5116   -0.8064   -2.6548 C   0  0  0  0  0  0  0  0  0  0  0  0
    7.7440    0.0747   -3.2881 H   0  0  0  0  0  0  0  0  0  0  0  0
    7.2493   -1.6360   -3.3449 H   0  0  0  0  0  0  0  0  0  0  0  0
    8.4352   -1.0941   -2.1169 H   0  0  0  0  0  0  0  0  0  0  0  0
  1  3  2  0  0  0  0
  2  1  2  0  0  0  0
  4 14  1  0  0  0  0
  5  1  1  0  0  0  0
  6  4  2  0  0  0  0
  6  8  1  0  0  0  0
  7  6  1  0  0  0  0
  8 10  2  0  0  0  0
  9  8  1  0  0  0  0
 10 12  1  0  0  0  0
 10 11  1  0  0  0  0
 12 13  1  0  0  0  0
 14  5  1  0  0  0  0
 14 12  2  0  0  0  0
 15 16  1  0  0  0  0
 15  1  1  0  0  0  0
 16 17  1  0  0  0  0
 18 19  1  0  0  0  0
 18 16  2  0  0  0  0
 20 18  1  0  0  0  0
 21 20  2  0  0  0  0
 21 23  1  0  0  0  0
 22 21  1  0  0  0  0
 23 15  2  0  0  0  0
 24 23  1  0  0  0  0
 25 28  1  0  0  0  0
 25 20  1  0  0  0  0
 26 25  1  0  0  0  0
 27 25  1  0  0  0  0
M  END
