3
q = 0.0, confidence = 0.964

 10 10  0  0  0  0  0  0  0  0999 V2000
    4.4877   -2.7893   -0.4899 Br  0  0  0  0  0  0  0  0  0  0  0  0
    3.1304    0.5929   -2.4608 N   0  0  0  0  0  0  0  0  0  0  0  0
    1.6551    0.2077   -0.6405 N   0  0  0  0  0  2  0  0  0  0  0  0
    2.0581    0.9150   -1.7290 C   0  0  0  0  0  3  0  0  0  0  0  0
    3.8367   -0.4888   -2.1088 C   0  0  0  0  0  0  0  0  0  0  0  0
    3.4839   -1.2715   -0.9931 C   0  0  0  0  0  0  0  0  0  0  0  0
    2.3585   -0.8769   -0.2596 C   0  0  0  0  0  0  0  0  0  0  0  0
    1.4213    1.8118   -1.9803 H   0  0  0  0  0  0  0  0  0  0  0  0
    4.7173   -0.7508   -2.7220 H   0  0  0  0  0  0  0  0  0  0  0  0
    2.0127   -1.4094    0.6445 H   0  0  0  0  0  0  0  0  0  0  0  0
  2  5  2  0  0  0  0
  2  4  1  0  0  0  0
  3  7  1  0  0  0  0
  4  3  1  0  0  0  0
  5  6  1  0  0  0  0
  6  1  1  0  0  0  0
  6  7  2  0  0  0  0
  7 10  1  0  0  0  0
  8  4  1  0  0  0  0
  9  5  1  0  0  0  0
M  END
