2
q = -1.0, confidence = 0.216

 11 10  0  0  0  0  0  0  0  0999 V2000
    0.6507   -1.5013   -1.5000 N   0  0  0  0  0  0  0  0  0  0  0  0
    0.9381   -1.9569    1.3301 N   0  0  0  0  0  0  0  0  0  0  0  0
    0.3055   -2.8176   -0.8989 C   0  0  0  0  0  0  0  0  0  0  0  0
   -0.0181   -2.4968    0.5395 C   0  0  0  0  0  3  0  0  0  0  0  0
    1.6359   -1.4384   -1.7925 H   0  0  0  0  0  0  0  0  0  0  0  0
    0.0611   -1.3075   -2.3196 H   0  0  0  0  0  0  0  0  0  0  0  0
    1.9280   -1.8331    1.0487 H   0  0  0  0  0  0  0  0  0  0  0  0
    0.7234   -1.6783    2.3072 H   0  0  0  0  0  0  0  0  0  0  0  0
    1.1271   -3.5598   -0.9954 H   0  0  0  0  0  0  0  0  0  0  0  0
   -0.5925   -3.2460   -1.3789 H   0  0  0  0  0  0  0  0  0  0  0  0
   -0.9541   -2.8246    1.0175 H   0  0  0  0  0  0  0  0  0  0  0  0
  1  3  1  0  0  0  0
  2  8  1  0  0  0  0
  3  4  1  0  0  0  0
  4 11  1  0  0  0  0
  4  2  1  0  0  0  0
  5  1  1  0  0  0  0
  6  1  1  0  0  0  0
  7  2  1  0  0  0  0
  9  3  1  0  0  0  0
 10  3  1  0  0  0  0
M  END
