3
q = 0.0, confidence = 0.998

 16 16  0  0  0  0  0  0  0  0999 V2000
   -0.7753    1.0039    1.7413 O   0  0  0  0  0  0  0  0  0  0  0  0
   -2.7773    1.7870    0.9464 N   0  0  0  0  0  0  0  0  0  0  0  0
   -1.6405   -0.0180   -0.1333 N   0  0  0  0  0  2  0  0  0  0  0  0
   -2.4435   -0.9063   -2.1144 N   0  0  0  0  0  0  0  0  0  0  0  0
   -2.8048    2.7257    2.0595 C   0  0  0  0  0  0  0  0  0  0  0  0
   -1.6539    0.9020    0.8916 C   0  0  0  0  0  0  0  0  0  0  0  0
   -2.5663   -0.0250   -1.1158 C   0  0  0  0  0  0  0  0  0  0  0  0
   -3.6768    0.8933   -1.0720 C   0  0  0  0  0  0  0  0  0  0  0  0
   -3.7371    1.7666   -0.0192 C   0  0  0  0  0  3  0  0  0  0  0  0
   -4.4508    0.8921   -1.8488 H   0  0  0  0  0  0  0  0  0  0  0  0
   -4.5560    2.4933    0.0928 H   0  0  0  0  0  0  0  0  0  0  0  0
   -2.7315    2.1765    3.0180 H   0  0  0  0  0  0  0  0  0  0  0  0
   -3.7464    3.3036    2.0253 H   0  0  0  0  0  0  0  0  0  0  0  0
   -1.9375    3.4137    2.0073 H   0  0  0  0  0  0  0  0  0  0  0  0
   -1.5818   -1.5088   -2.1823 H   0  0  0  0  0  0  0  0  0  0  0  0
   -3.1194   -0.8995   -2.8746 H   0  0  0  0  0  0  0  0  0  0  0  0
  2  5  1  0  0  0  0
  3  6  1  0  0  0  0
  4  7  1  0  0  0  0
  5 12  1  0  0  0  0
  6  2  1  0  0  0  0
  6  1  2  0  0  0  0
  7  8  2  0  0  0  0
  7  3  1  0  0  0  0
  8  9  1  0  0  0  0
  9 11  1  0  0  0  0
  9  2  1  0  0  0  0
 10  8  1  0  0  0  0
 13  5  1  0  0  0  0
 14  5  1  0  0  0  0
 15  4  1  0  0  0  0
 16  4  1  0  0  0  0
M  END
