5
q = -1.0

 35 36  0  0  0  0  0  0  0  0999 V2000
    1.6867   -1.2044    0.1259 Si  0  0  0  0  0  0  0  0  0  0  0  0
    0.1652    1.4518    1.0103 Si  0  0  0  0  0  0  0  0  0  0  0  0
    3.2006    0.5816   -1.4492 O   0  0  0  0  0  0  0  0  0  0  0  0
   -1.8155    1.3144   -0.8789 O   0  0  0  0  0  0  0  0  0  0  0  0
    0.1896   -0.2068    0.3073 N   0  0  0  0  0  2  0  0  0  0  0  0
    4.3827    1.2504   -1.5160 C   0  0  0  0  0  0  0  0  0  0  0  0
    4.5505    1.8399   -2.4237 H   0  0  0  0  0  0  0  0  0  0  0  0
    5.1330    1.0181   -0.3860 C   0  0  0  0  0  0  0  0  0  0  0  0
    6.1290    1.4199   -0.1697 H   0  0  0  0  0  0  0  0  0  0  0  0
    4.3444    0.1438    0.4311 C   0  0  0  0  0  0  0  0  0  0  0  0
    4.6151   -0.2643    1.4120 H   0  0  0  0  0  0  0  0  0  0  0  0
    3.1619   -0.1003   -0.2483 C   0  0  0  0  0  0  0  0  0  0  0  0
    2.0623   -2.0426    1.7683 C   0  0  0  0  0  0  0  0  0  0  0  0
    2.9499   -2.7015    1.6803 H   0  0  0  0  0  0  0  0  0  0  0  0
    1.1979   -2.6571    2.0861 H   0  0  0  0  0  0  0  0  0  0  0  0
    2.2628   -1.2893    2.5569 H   0  0  0  0  0  0  0  0  0  0  0  0
    1.5302   -2.3769   -1.3353 C   0  0  0  0  0  0  0  0  0  0  0  0
    1.3167   -1.8054   -2.2603 H   0  0  0  0  0  0  0  0  0  0  0  0
    0.7361   -3.1341   -1.1971 H   0  0  0  0  0  0  0  0  0  0  0  0
    2.5020   -2.8963   -1.4648 H   0  0  0  0  0  0  0  0  0  0  0  0
    1.6795    2.5175    0.6943 C   0  0  0  0  0  0  0  0  0  0  0  0
    1.9485    2.5315   -0.3785 H   0  0  0  0  0  0  0  0  0  0  0  0
    2.5640    2.1972    1.2764 H   0  0  0  0  0  0  0  0  0  0  0  0
    1.4120    3.5517    0.9992 H   0  0  0  0  0  0  0  0  0  0  0  0
   -0.1998    1.3710    2.8534 C   0  0  0  0  0  0  0  0  0  0  0  0
   -1.1229    0.7893    3.0414 H   0  0  0  0  0  0  0  0  0  0  0  0
   -0.3334    2.3903    3.2705 H   0  0  0  0  0  0  0  0  0  0  0  0
    0.6414    0.8881    3.3917 H   0  0  0  0  0  0  0  0  0  0  0  0
   -1.2676    2.2026    0.0406 C   0  0  0  0  0  0  0  0  0  0  0  0
   -1.9801    3.3800   -0.0414 C   0  0  0  0  0  0  0  0  0  0  0  0
   -1.7929    4.2851    0.5482 H   0  0  0  0  0  0  0  0  0  0  0  0
   -3.0048    3.1996   -1.0338 C   0  0  0  0  0  0  0  0  0  0  0  0
   -3.7488    3.9342   -1.3612 H   0  0  0  0  0  0  0  0  0  0  0  0
   -2.8678    1.9191   -1.5074 C   0  0  0  0  0  0  0  0  0  0  0  0
   -3.3887    1.3069   -2.2498 H   0  0  0  0  0  0  0  0  0  0  0  0
  1  5  1  0  0  0  0
  1 13  1  0  0  0  0
  2 25  1  0  0  0  0
  3 12  1  0  0  0  0
  4 29  1  0  0  0  0
  5  2  1  0  0  0  0
  6  3  1  0  0  0  0
  6  8  2  0  0  0  0
  7  6  1  0  0  0  0
  8  9  1  0  0  0  0
  8 10  1  0  0  0  0
 10 11  1  0  0  0  0
 12  1  1  0  0  0  0
 12 10  2  0  0  0  0
 13 15  1  0  0  0  0
 13 16  1  0  0  0  0
 14 13  1  0  0  0  0
 17 19  1  0  0  0  0
 17  1  1  0  0  0  0
 18 17  1  0  0  0  0
 20 17  1  0  0  0  0
 21 24  1  0  0  0  0
 21  2  1  0  0  0  0
 21 23  1  0  0  0  0
 22 21  1  0  0  0  0
 25 26  1  0  0  0  0
 25 27  1  0  0  0  0
 25 28  1  0  0  0  0
 29  2  1  0  0  0  0
 30 29  2  0  0  0  0
 30 31  1  0  0  0  0
 32 30  1  0  0  0  0
 33 32  1  0  0  0  0
 34 32  2  0  0  0  0
 34  4  1  0  0  0  0
 35 34  1  0  0  0  0
M  END
