5
q = -1

 35 34  0  0  0  0  0  0  0  0999 V2000
   -2.2902   -0.1046   -0.1405 P   0  0  0  0  0  4  0  0  0  0  0  0
   -2.2721   -0.1800    1.5352 N   0  0  0  0  0  0  0  0  0  0  0  0
   -2.7117   -1.5835   -0.8021 N   0  0  0  0  0  0  0  0  0  0  0  0
   -3.5231    1.0401   -0.4087 N   0  0  0  0  0  0  0  0  0  0  0  0
   -0.0999    1.5027   -0.3510 N   0  0  0  0  0  2  0  0  0  0  0  0
   -2.0212    1.0239    2.3285 C   0  0  0  0  0  0  0  0  0  0  0  0
   -2.7241    1.0588    3.1901 H   0  0  0  0  0  0  0  0  0  0  0  0
   -2.1846    1.9287    1.7149 H   0  0  0  0  0  0  0  0  0  0  0  0
   -0.9746    1.0454    2.7031 H   0  0  0  0  0  0  0  0  0  0  0  0
   -2.1824   -1.4320    2.2742 C   0  0  0  0  0  0  0  0  0  0  0  0
   -1.2025   -1.5219    2.7865 H   0  0  0  0  0  0  0  0  0  0  0  0
   -2.2733   -2.2924    1.5883 H   0  0  0  0  0  0  0  0  0  0  0  0
   -3.0002   -1.4812    3.0283 H   0  0  0  0  0  0  0  0  0  0  0  0
   -1.7688   -2.4674   -1.4861 C   0  0  0  0  0  0  0  0  0  0  0  0
   -1.6115   -3.4053   -0.9112 H   0  0  0  0  0  0  0  0  0  0  0  0
   -0.7841   -1.9813   -1.6086 H   0  0  0  0  0  0  0  0  0  0  0  0
   -2.1703   -2.7282   -2.4897 H   0  0  0  0  0  0  0  0  0  0  0  0
   -4.0554   -2.1140   -0.6312 C   0  0  0  0  0  0  0  0  0  0  0  0
   -4.4946   -2.3835   -1.6173 H   0  0  0  0  0  0  0  0  0  0  0  0
   -4.7183   -1.3691   -0.1542 H   0  0  0  0  0  0  0  0  0  0  0  0
   -4.0568   -3.0293    0.0035 H   0  0  0  0  0  0  0  0  0  0  0  0
   -4.6906    1.1953    0.4458 C   0  0  0  0  0  0  0  0  0  0  0  0
   -4.8470    2.2668    0.7019 H   0  0  0  0  0  0  0  0  0  0  0  0
   -4.5519    0.6301    1.3851 H   0  0  0  0  0  0  0  0  0  0  0  0
   -5.6188    0.8302   -0.0531 H   0  0  0  0  0  0  0  0  0  0  0  0
   -3.6544    1.6535   -1.7227 C   0  0  0  0  0  0  0  0  0  0  0  0
   -4.4774    1.1929   -2.3172 H   0  0  0  0  0  0  0  0  0  0  0  0
   -2.7138    1.5507   -2.2945 H   0  0  0  0  0  0  0  0  0  0  0  0
   -3.8730    2.7389   -1.6206 H   0  0  0  0  0  0  0  0  0  0  0  0
   -0.3462    2.9190   -0.3264 C   0  0  0  0  0  0  0  0  0  0  0  0
    0.2092    3.4218   -1.1507 H   0  0  0  0  0  0  0  0  0  0  0  0
    0.0375    3.3339    0.6286 H   0  0  0  0  0  0  0  0  0  0  0  0
   -1.4294    3.1420   -0.4163 H   0  0  0  0  0  0  0  0  0  0  0  0
   -0.7950    0.4456   -0.9437 C   0  0  0  0  0  3  0  0  0  0  0  0
   -0.8486    0.3742   -2.0533 H   0  0  0  0  0  0  0  0  0  0  0  0
  1  2  1  0  0  0  0
  2 10  1  0  0  0  0
  2  6  1  0  0  0  0
  3 18  1  0  0  0  0
  3  1  1  0  0  0  0
  4  1  1  0  0  0  0
  4 22  1  0  0  0  0
  5 30  1  0  0  0  0
  6  9  1  0  0  0  0
  6  7  1  0  0  0  0
  8  6  1  0  0  0  0
 10 11  1  0  0  0  0
 10 13  1  0  0  0  0
 12 10  1  0  0  0  0
 14 15  1  0  0  0  0
 14  3  1  0  0  0  0
 16 14  1  0  0  0  0
 17 14  1  0  0  0  0
 18 20  1  0  0  0  0
 18 21  1  0  0  0  0
 19 18  1  0  0  0  0
 22 23  1  0  0  0  0
 22 24  1  0  0  0  0
 25 22  1  0  0  0  0
 26 29  1  0  0  0  0
 26  4  1  0  0  0  0
 27 26  1  0  0  0  0
 28 26  1  0  0  0  0
 30 32  1  0  0  0  0
 31 30  1  0  0  0  0
 33 30  1  0  0  0  0
 34  5  1  0  0  0  0
 34  1  1  0  0  0  0
 35 34  1  0  0  0  0
M  END
