1
q = 0.0, confidence = 1.0

 23 24  0  0  0  0  0  0  0  0999 V2000
    1.9143   -0.6780   -0.0488 N   0  0  0  0  0  2  0  0  0  0  0  0
    4.1184   -0.7160   -0.0442 N   0  0  0  0  0  0  0  0  0  0  0  0
    5.6251    1.0572    0.1229 N   0  0  0  0  0  0  0  0  0  0  0  0
    6.3974   -1.2084   -0.0923 N   0  0  0  0  0  0  0  0  0  0  0  0
    2.3264   -2.0031   -0.1628 C   0  0  0  0  0  0  0  0  0  0  0  0
    1.5836   -2.8061   -0.2075 H   0  0  0  0  0  0  0  0  0  0  0  0
    3.6996   -2.0401   -0.1636 C   0  0  0  0  0  0  0  0  0  0  0  0
    4.4281   -2.8507   -0.2333 H   0  0  0  0  0  0  0  0  0  0  0  0
    3.0040    0.0810    0.0222 C   0  0  0  0  0  3  0  0  0  0  0  0
    3.0226    1.1730    0.0870 H   0  0  0  0  0  0  0  0  0  0  0  0
    5.4592   -0.2620   -0.0017 C   0  0  0  0  0  0  0  0  0  0  0  0
    7.6758   -0.7815   -0.0545 C   0  0  0  0  0  0  0  0  0  0  0  0
    7.9717    0.5886    0.0728 C   0  0  0  0  0  0  0  0  0  0  0  0
    9.0124    0.9410    0.1032 H   0  0  0  0  0  0  0  0  0  0  0  0
    6.8976    1.4961    0.1605 C   0  0  0  0  0  0  0  0  0  0  0  0
    8.7438   -1.8326   -0.1550 C   0  0  0  0  0  0  0  0  0  0  0  0
    8.6277   -2.3987   -1.1015 H   0  0  0  0  0  0  0  0  0  0  0  0
    8.6275   -2.5680    0.6669 H   0  0  0  0  0  0  0  0  0  0  0  0
    9.7604   -1.4006   -0.1137 H   0  0  0  0  0  0  0  0  0  0  0  0
    7.0989    2.9775    0.2984 C   0  0  0  0  0  0  0  0  0  0  0  0
    8.1688    3.2542    0.3216 H   0  0  0  0  0  0  0  0  0  0  0  0
    6.6079    3.3389    1.2247 H   0  0  0  0  0  0  0  0  0  0  0  0
    6.6031    3.5037   -0.5424 H   0  0  0  0  0  0  0  0  0  0  0  0
  1  9  1  0  0  0  0
  2 11  1  0  0  0  0
  2  9  1  0  0  0  0
  3 15  1  0  0  0  0
  4 12  2  0  0  0  0
  4 11  1  0  0  0  0
  5  1  1  0  0  0  0
  6  5  1  0  0  0  0
  7  5  2  0  0  0  0
  7  2  1  0  0  0  0
  8  7  1  0  0  0  0
  9 10  1  0  0  0  0
 11  3  2  0  0  0  0
 12 13  1  0  0  0  0
 13 14  1  0  0  0  0
 13 15  2  0  0  0  0
 15 20  1  0  0  0  0
 16 19  1  0  0  0  0
 16 12  1  0  0  0  0
 16 18  1  0  0  0  0
 17 16  1  0  0  0  0
 20 21  1  0  0  0  0
 20 22  1  0  0  0  0
 23 20  1  0  0  0  0
M  END
