1
q = 0.0, confidence = 1.0

 25 24  0  0  0  0  0  0  0  0999 V2000
   -0.4344   -0.1926    2.1203 N   0  0  0  0  0  0  0  0  0  0  0  0
   -0.6495    0.6858    2.6144 H   0  0  0  0  0  0  0  0  0  0  0  0
   -1.1549   -0.8661    2.4159 H   0  0  0  0  0  0  0  0  0  0  0  0
    0.9154   -0.6728    2.4899 C   0  0  0  0  0  0  0  0  0  0  0  0
    0.9466   -1.0561    3.5349 H   0  0  0  0  0  0  0  0  0  0  0  0
    1.1498   -1.5320    1.8268 H   0  0  0  0  0  0  0  0  0  0  0  0
    1.9524    0.4309    2.2952 C   0  0  0  0  0  0  0  0  0  0  0  0
    1.8806    1.1664    3.1281 H   0  0  0  0  0  0  0  0  0  0  0  0
    1.6958    0.9910    1.3728 H   0  0  0  0  0  0  0  0  0  0  0  0
    3.3853   -0.0909    2.1741 C   0  0  0  0  0  0  0  0  0  0  0  0
    3.6592   -0.6517    3.0948 H   0  0  0  0  0  0  0  0  0  0  0  0
    3.4269   -0.8296    1.3424 H   0  0  0  0  0  0  0  0  0  0  0  0
    4.4051    1.0192    1.8985 C   0  0  0  0  0  0  0  0  0  0  0  0
    4.0397    1.6219    1.0385 H   0  0  0  0  0  0  0  0  0  0  0  0
    4.4386    1.7157    2.7672 H   0  0  0  0  0  0  0  0  0  0  0  0
    5.8190    0.5153    1.5851 C   0  0  0  0  0  0  0  0  0  0  0  0
    5.7769   -0.1394    0.6859 H   0  0  0  0  0  0  0  0  0  0  0  0
    6.4521    1.3823    1.2923 H   0  0  0  0  0  0  0  0  0  0  0  0
    6.5122   -0.2380    2.7256 C   0  0  0  0  0  0  0  0  0  0  0  0
    5.9111   -1.1305    3.0058 H   0  0  0  0  0  0  0  0  0  0  0  0
    6.5326    0.4076    3.6327 H   0  0  0  0  0  0  0  0  0  0  0  0
    7.9330   -0.6800    2.3721 C   0  0  0  0  0  0  0  0  0  0  0  0
    7.9338   -1.3493    1.4862 H   0  0  0  0  0  0  0  0  0  0  0  0
    8.4168   -1.2275    3.2061 H   0  0  0  0  0  0  0  0  0  0  0  0
    8.5763    0.1906    2.1249 H   0  0  0  0  0  0  0  0  0  0  0  0
  1  3  1  0  0  0  0
  1  4  1  0  0  0  0
  1  2  1  0  0  0  0
  4  5  1  0  0  0  0
  6  4  1  0  0  0  0
  7  4  1  0  0  0  0
  7  8  1  0  0  0  0
  9  7  1  0  0  0  0
 10  7  1  0  0  0  0
 10 11  1  0  0  0  0
 12 10  1  0  0  0  0
 13 10  1  0  0  0  0
 13 15  1  0  0  0  0
 14 13  1  0  0  0  0
 16 13  1  0  0  0  0
 16 19  1  0  0  0  0
 17 16  1  0  0  0  0
 18 16  1  0  0  0  0
 19 20  1  0  0  0  0
 19 21  1  0  0  0  0
 22 19  1  0  0  0  0
 22 24  1  0  0  0  0
 23 22  1  0  0  0  0
 25 22  1  0  0  0  0
M  END
