12
q = 0.0, confidence = 0.8

 34 34  0  0  1  0  0  0  0  0999 V2000
    1.3032    3.8200   -0.4165 N   0  0  0  0  0  0  0  0  0  0  0  0
    0.0720    3.2809   -0.3311 C   0  0  0  0  0  0  0  0  0  0  0  0
   -0.7471    3.0678   -1.4583 C   0  0  0  0  0  0  0  0  0  0  0  0
   -0.2668    3.4505   -2.7161 C   0  0  0  0  0  0  0  0  0  0  0  0
    1.0139    4.0168   -2.8108 C   0  0  0  0  0  0  0  0  0  0  0  0
    1.7571    4.1726   -1.6297 C   0  0  0  0  0  0  0  0  0  0  0  0
   -1.7189    2.5679   -1.3333 H   0  0  0  0  0  0  0  0  0  0  0  0
   -0.8839    3.3012   -3.6159 H   0  0  0  0  0  0  0  0  0  0  0  0
    1.4316    4.3345   -3.7780 H   0  0  0  0  0  0  0  0  0  0  0  0
    2.7735    4.6047   -1.6645 H   0  0  0  0  0  0  0  0  0  0  0  0
   -2.1089    0.2939   -0.3339 O   0  0  0  0  0  1  0  0  0  0  0  0
   -0.6788    0.5105    1.8710 N   0  0  0  0  0  2  0  0  0  0  0  0
   -0.4012    2.8603    1.0445 C   0  0  0  0  0  0  0  0  0  0  0  0
   -3.1370   -0.1533    0.3970 C   0  0  0  0  0  0  0  0  0  0  0  0
   -1.8392    0.4313    2.4461 C   0  0  2  0  0  3  0  0  0  0  0  0
    0.1614    1.5127    1.4614 C   0  0  0  0  0  3  0  0  0  0  0  0
   -1.5026    2.8145    1.0507 H   0  0  0  0  0  0  0  0  0  0  0  0
   -0.0598    3.6283    1.7709 H   0  0  0  0  0  0  0  0  0  0  0  0
   -4.2199    0.9860    0.4970 C   0  0  0  0  0  0  0  0  0  0  0  0
   -3.8435   -1.4124   -0.2435 C   0  0  0  0  0  0  0  0  0  0  0  0
   -2.7440   -0.6067    1.8946 C   0  0  0  0  0  0  0  0  0  0  0  0
   -2.2898    1.3939    3.5030 C   0  0  0  0  0  0  0  0  0  0  0  0
    1.1778    1.4861    1.8829 H   0  0  0  0  0  0  0  0  0  0  0  0
   -3.6271    2.1659    0.8324 F   0  0  0  0  0  0  0  0  0  0  0  0
   -4.8454    1.1850   -0.6786 F   0  0  0  0  0  0  0  0  0  0  0  0
   -5.1737    0.7621    1.4382 F   0  0  0  0  0  0  0  0  0  0  0  0
   -5.0397   -1.6903    0.3320 F   0  0  0  0  0  0  0  0  0  0  0  0
   -4.0518   -1.2412   -1.5650 F   0  0  0  0  0  0  0  0  0  0  0  0
   -3.0780   -2.5268   -0.1081 F   0  0  0  0  0  0  0  0  0  0  0  0
   -3.6448   -0.7849    2.5081 H   0  0  0  0  0  0  0  0  0  0  0  0
   -2.1889   -1.5537    1.7625 H   0  0  0  0  0  0  0  0  0  0  0  0
   -3.2620    1.8495    3.2290 H   0  0  0  0  0  0  0  0  0  0  0  0
   -2.4516    0.8416    4.4532 H   0  0  0  0  0  0  0  0  0  0  0  0
   -1.5440    2.1899    3.6813 H   0  0  0  0  0  0  0  0  0  0  0  0
  1  2  1  0  0  0  0
  2 13  1  0  0  0  0
  3  7  1  0  0  0  0
  3  2  2  0  0  0  0
  4  3  1  0  0  0  0
  5  4  2  0  0  0  0
  5  6  1  0  0  0  0
  6  1  2  0  0  0  0
  8  4  1  0  0  0  0
  9  5  1  0  0  0  0
 10  6  1  0  0  0  0
 11 14  1  0  0  0  0
 13 17  1  0  0  0  0
 13 16  1  0  0  0  0
 13 18  1  0  0  0  0
 14 19  1  0  0  0  0
 14 21  1  0  0  0  0
 15 12  1  6  0  0  0
 15 22  1  0  0  0  0
 16 12  1  0  0  0  0
 16 23  1  0  0  0  0
 19 24  1  0  0  0  0
 19 26  1  0  0  0  0
 20 29  1  0  0  0  0
 20 27  1  0  0  0  0
 20 14  1  0  0  0  0
 21 15  1  0  0  0  0
 21 30  1  0  0  0  0
 22 34  1  0  0  0  0
 22 33  1  0  0  0  0
 25 19  1  0  0  0  0
 28 20  1  0  0  0  0
 31 21  1  0  0  0  0
 32 22  1  0  0  0  0
M  END
