17
q = 0.0, confidence = 0.998

 23 24  0  0  1  0  0  0  0  0999 V2000
   -5.8991   -1.3010   -0.4930 C   0  0  0  0  0  0  0  0  0  0  0  0
   -6.0809   -1.0308   -1.5526 H   0  0  0  0  0  0  0  0  0  0  0  0
   -6.4768   -0.6078    0.1508 H   0  0  0  0  0  0  0  0  0  0  0  0
   -6.2059   -2.3446   -0.3038 H   0  0  0  0  0  0  0  0  0  0  0  0
   -3.9289   -0.0310   -0.3373 C   0  0  0  0  0  0  0  0  0  0  0  0
   -1.7712    0.9996    0.0215 C   0  0  1  0  0  3  0  0  0  0  0  0
   -0.0046    2.2688    0.2144 C   0  0  0  0  0  0  0  0  0  0  0  0
    1.2649    2.8249    0.4445 C   0  0  0  0  0  0  0  0  0  0  0  0
    2.0736    2.1839    0.8196 H   0  0  0  0  0  0  0  0  0  0  0  0
    1.4148    4.2050    0.2522 C   0  0  0  0  0  0  0  0  0  0  0  0
    2.3975    4.6655    0.4334 H   0  0  0  0  0  0  0  0  0  0  0  0
    0.3344    5.0231   -0.1509 C   0  0  0  0  0  0  0  0  0  0  0  0
    0.4937    6.1030   -0.2874 H   0  0  0  0  0  0  0  0  0  0  0  0
   -0.9438    4.4870   -0.3629 C   0  0  0  0  0  0  0  0  0  0  0  0
   -1.7927    5.1192   -0.6603 H   0  0  0  0  0  0  0  0  0  0  0  0
   -1.0923    3.1071   -0.1696 C   0  0  0  0  0  0  0  0  0  0  0  0
   -0.4613    0.9484    0.2963 N   0  0  0  0  0  2  0  0  0  0  0  0
   -2.1907    2.2649   -0.2740 N   0  0  0  0  0  0  0  0  0  0  0  0
   -3.1695    2.4464   -0.5289 H   0  0  0  0  0  0  0  0  0  0  0  0
   -2.6010   -0.0938    0.0274 N   0  0  0  0  0  0  0  0  0  0  0  0
   -2.2298   -0.8963    0.6094 H   0  0  0  0  0  0  0  0  0  0  0  0
   -4.5078    0.9682   -0.7563 O   0  0  0  0  0  0  0  0  0  0  0  0
   -4.5025   -1.2430   -0.1824 O   0  0  0  0  0  0  0  0  0  0  0  0
  1  4  1  0  0  0  0
  1 23  1  0  0  0  0
  1  3  1  0  0  0  0
  2  1  1  0  0  0  0
  5 23  1  0  0  0  0
  5 20  1  0  0  0  0
  6 20  1  6  0  0  0
  6 17  1  0  0  0  0
  7 17  1  0  0  0  0
  7  8  1  0  0  0  0
  8  9  1  0  0  0  0
 10 11  1  0  0  0  0
 10  8  2  0  0  0  0
 12 10  1  0  0  0  0
 13 12  1  0  0  0  0
 14 16  1  0  0  0  0
 14 12  2  0  0  0  0
 15 14  1  0  0  0  0
 16  7  2  0  0  0  0
 18 16  1  0  0  0  0
 18  6  1  0  0  0  0
 19 18  1  0  0  0  0
 20 21  1  0  0  0  0
 22  5  2  0  0  0  0
M  END
