3
q = 0.0, confidence = 0.986

 12 12  0  0  0  0  0  0  0  0999 V2000
    3.2581    5.3463   -0.1235 O   0  0  0  0  0  0  0  0  0  0  0  0
    3.8773    4.5954   -0.2053 H   0  0  0  0  0  0  0  0  0  0  0  0
    0.4214    3.0551    0.0034 N   0  0  0  0  0  2  0  0  0  0  0  0
   -0.6034    3.9225    0.1311 C   0  0  0  0  0  3  0  0  0  0  0  0
   -1.6052    3.4728    0.2006 H   0  0  0  0  0  0  0  0  0  0  0  0
   -0.3741    5.3044    0.1732 C   0  0  0  0  0  0  0  0  0  0  0  0
   -1.2231    5.9953    0.2748 H   0  0  0  0  0  0  0  0  0  0  0  0
    0.9330    5.7920    0.0864 C   0  0  0  0  0  0  0  0  0  0  0  0
    1.1562    6.8685    0.1171 H   0  0  0  0  0  0  0  0  0  0  0  0
    1.9951    4.8741   -0.0431 C   0  0  0  0  0  0  0  0  0  0  0  0
    1.6896    3.5006   -0.0826 C   0  0  0  0  0  0  0  0  0  0  0  0
    2.4654    2.7216   -0.1862 H   0  0  0  0  0  0  0  0  0  0  0  0
  1 10  1  0  0  0  0
  2  1  1  0  0  0  0
  3  4  1  0  0  0  0
  4  6  1  0  0  0  0
  4  5  1  0  0  0  0
  6  7  1  0  0  0  0
  8  9  1  0  0  0  0
  8  6  2  0  0  0  0
 10  8  1  0  0  0  0
 11 10  2  0  0  0  0
 11  3  1  0  0  0  0
 12 11  1  0  0  0  0
M  END
