4
q = -1.0, confidence = 0.0

 10 10  0  0  0  0  0  0  0  0999 V2000
   -1.7669    0.3303    2.3790 F   0  0  0  0  0  0  0  0  0  0  0  0
   -5.9072    0.1497    0.5682 F   0  0  0  0  0  0  0  0  0  0  0  0
   -2.0242   -0.4128   -2.1050 O   0  0  0  0  0  0  0  0  0  0  0  0
   -1.9016   -0.0431    0.1595 N   0  0  0  0  0  2  0  0  0  0  0  0
   -3.8510    0.2274    1.5025 N   0  0  0  0  0  0  0  0  0  0  0  0
   -2.5580    0.1599    1.2961 C   0  0  0  0  0  0  0  0  0  0  0  0
   -4.0739   -0.1343   -0.8824 C   0  0  0  0  0  0  0  0  0  0  0  0
   -4.7230   -0.2485   -1.7587 H   0  0  0  0  0  0  0  0  0  0  0  0
   -4.5834    0.0781    0.3843 C   0  0  0  0  0  0  0  0  0  0  0  0
   -2.6390   -0.2102   -1.0421 C   0  0  0  0  0  0  0  0  0  0  0  0
  3 10  2  0  0  0  0
  4  6  1  0  0  0  0
  6  5  2  0  0  0  0
  6  1  1  0  0  0  0
  7  9  2  0  0  0  0
  8  7  1  0  0  0  0
  9  2  1  0  0  0  0
  9  5  1  0  0  0  0
 10  7  1  0  0  0  0
 10  4  1  0  0  0  0
M  END
