2
q = -1.0

  8  7  0  0  0  0  0  0  0  0999 V2000
    2.1757   -1.6486   -1.6040 O   0  0  0  0  0  0  0  0  0  0  0  0
    2.0666    0.0031   -0.0194 N   0  0  0  0  0  2  0  0  0  0  0  0
    1.9311    1.6581    1.5739 N   0  0  0  0  0  0  0  0  0  0  0  0
    2.5019    2.2776    2.1651 H   0  0  0  0  0  0  0  0  0  0  0  0
    2.6663    0.9007    0.8400 C   0  0  0  0  0  0  0  0  0  0  0  0
    3.7808    0.8912    0.8229 H   0  0  0  0  0  0  0  0  0  0  0  0
    2.7347   -0.8630   -0.8533 C   0  0  0  0  0  0  0  0  0  0  0  0
    3.8566   -0.7792   -0.7784 H   0  0  0  0  0  0  0  0  0  0  0  0
  1  7  2  0  0  0  0
  2  5  1  0  0  0  0
  3  4  1  0  0  0  0
  5  3  2  0  0  0  0
  6  5  1  0  0  0  0
  7  8  1  0  0  0  0
  7  2  1  0  0  0  0
M  END
