1
q = 0.0, confidence = 1.0

 18 18  0  0  0  0  0  0  0  0999 V2000
    1.0139    1.7066   -0.3598 N   0  0  0  0  0  2  0  0  0  0  0  0
    2.2991    1.8491   -0.3668 C   0  0  0  0  0  3  0  0  0  0  0  0
    0.1437    2.8568   -0.5373 C   0  0  0  0  0  0  0  0  0  0  0  0
    3.2884    0.7750   -0.2640 C   0  0  0  0  0  0  0  0  0  0  0  0
    2.6976    2.8831   -0.4420 H   0  0  0  0  0  0  0  0  0  0  0  0
    0.7226    3.7908   -0.7013 H   0  0  0  0  0  0  0  0  0  0  0  0
   -0.4977    2.9657    0.3605 H   0  0  0  0  0  0  0  0  0  0  0  0
   -0.5143    2.6603   -1.4080 H   0  0  0  0  0  0  0  0  0  0  0  0
    3.0417   -0.5312   -0.7492 C   0  0  0  0  0  0  0  0  0  0  0  0
    4.5429    1.0735    0.3147 C   0  0  0  0  0  0  0  0  0  0  0  0
    4.0207   -1.5216   -0.6129 C   0  0  0  0  0  0  0  0  0  0  0  0
    2.0917   -0.7414   -1.2667 H   0  0  0  0  0  0  0  0  0  0  0  0
    5.5107    0.0728    0.4646 C   0  0  0  0  0  0  0  0  0  0  0  0
    4.7462    2.0953    0.6718 H   0  0  0  0  0  0  0  0  0  0  0  0
    5.2483   -1.2287    0.0062 C   0  0  0  0  0  0  0  0  0  0  0  0
    3.8279   -2.5325   -1.0031 H   0  0  0  0  0  0  0  0  0  0  0  0
    6.4755    0.3087    0.9378 H   0  0  0  0  0  0  0  0  0  0  0  0
    6.0109   -2.0146    0.1175 H   0  0  0  0  0  0  0  0  0  0  0  0
  2  1  1  0  0  0  0
  2  4  1  0  0  0  0
  3  1  1  0  0  0  0
  3  7  1  0  0  0  0
  4 10  1  0  0  0  0
  5  2  1  0  0  0  0
  6  3  1  0  0  0  0
  8  3  1  0  0  0  0
  9 11  1  0  0  0  0
  9  4  2  0  0  0  0
 10 13  2  0  0  0  0
 10 14  1  0  0  0  0
 11 15  2  0  0  0  0
 12  9  1  0  0  0  0
 13 17  1  0  0  0  0
 15 18  1  0  0  0  0
 15 13  1  0  0  0  0
 16 11  1  0  0  0  0
M  END
