24
q = -1.0

 24 23  0  0  0  0  0  0  0  0999 V2000
    2.1444   -1.2658    0.0324 Si  0  0  0  0  0  0  0  0  0  0  0  0
    0.9832   -2.2392   -0.0189 H   0  0  0  0  0  0  0  0  0  0  0  0
    3.0673   -1.6634    1.6442 C   0  0  0  0  0  0  0  0  0  0  0  0
    4.0055   -1.0815    1.7437 H   0  0  0  0  0  0  0  0  0  0  0  0
    3.3379   -2.7401    1.6648 H   0  0  0  0  0  0  0  0  0  0  0  0
    2.4396   -1.4520    2.5328 H   0  0  0  0  0  0  0  0  0  0  0  0
    3.2751   -1.7204   -1.4271 C   0  0  0  0  0  0  0  0  0  0  0  0
    2.8722   -1.3468   -2.3898 H   0  0  0  0  0  0  0  0  0  0  0  0
    3.3708   -2.8240   -1.4973 H   0  0  0  0  0  0  0  0  0  0  0  0
    4.2942   -1.3030   -1.3010 H   0  0  0  0  0  0  0  0  0  0  0  0
    1.9934    1.5923   -0.0898 C   0  0  0  0  0  0  0  0  0  0  0  0
    3.5295    1.4479   -0.1040 C   0  0  0  0  0  0  0  0  0  0  0  0
    3.8982    0.9130    0.7940 H   0  0  0  0  0  0  0  0  0  0  0  0
    4.0073    2.4483   -0.1091 H   0  0  0  0  0  0  0  0  0  0  0  0
    3.8790    0.9108   -1.0072 H   0  0  0  0  0  0  0  0  0  0  0  0
    1.6117    2.4190    1.1567 C   0  0  0  0  0  0  0  0  0  0  0  0
    0.5154    2.5584    1.2065 H   0  0  0  0  0  0  0  0  0  0  0  0
    2.0917    3.4194    1.1364 H   0  0  0  0  0  0  0  0  0  0  0  0
    1.9417    1.8986    2.0788 H   0  0  0  0  0  0  0  0  0  0  0  0
    1.5871    2.3549   -1.3689 C   0  0  0  0  0  0  0  0  0  0  0  0
    1.8767    1.7708   -2.2661 H   0  0  0  0  0  0  0  0  0  0  0  0
    2.0890    3.3433   -1.4216 H   0  0  0  0  0  0  0  0  0  0  0  0
    0.4928    2.5144   -1.3932 H   0  0  0  0  0  0  0  0  0  0  0  0
    1.3077    0.2693   -0.0518 N   0  0  0  0  0  2  0  0  0  0  0  0
  1  3  1  0  0  0  0
  2  1  1  0  0  0  0
  3  5  1  0  0  0  0
  3  4  1  0  0  0  0
  3  6  1  0  0  0  0
  7 10  1  0  0  0  0
  7  1  1  0  0  0  0
  8  7  1  0  0  0  0
  9  7  1  0  0  0  0
 11 24  1  0  0  0  0
 11 16  1  0  0  0  0
 12 11  1  0  0  0  0
 12 13  1  0  0  0  0
 14 12  1  0  0  0  0
 15 12  1  0  0  0  0
 16 17  1  0  0  0  0
 16 19  1  0  0  0  0
 18 16  1  0  0  0  0
 20 11  1  0  0  0  0
 21 20  1  0  0  0  0
 22 20  1  0  0  0  0
 23 20  1  0  0  0  0
 24  1  1  0  0  0  0
M  END
