21
q = 0.0, confidence = 0.984

 26 28  0  0  1  0  0  0  0  0999 V2000
   -0.9625   -0.4801    1.5336 C   0  0  0  0  0  3  0  0  0  0  0  0
   -0.4496    0.2022    2.2265 H   0  0  0  0  0  0  0  0  0  0  0  0
   -4.4085   -1.4527    0.4003 C   0  0  1  0  0  3  0  0  0  0  0  0
   -2.9570   -1.4288    0.5304 C   0  0  0  0  0  0  0  0  0  0  0  0
   -2.3484   -0.5491    1.4519 C   0  0  0  0  0  0  0  0  0  0  0  0
   -2.9687    0.0801    2.1039 H   0  0  0  0  0  0  0  0  0  0  0  0
   -0.7219   -2.0946   -0.1403 C   0  0  0  0  0  0  0  0  0  0  0  0
   -0.0167   -2.6763   -0.7527 H   0  0  0  0  0  0  0  0  0  0  0  0
   -2.1021   -2.2258   -0.2643 C   0  0  0  0  0  0  0  0  0  0  0  0
   -2.5009   -2.9137   -1.0244 H   0  0  0  0  0  0  0  0  0  0  0  0
  -10.1130    0.0870    0.1775 C   0  0  0  0  0  0  0  0  0  0  0  0
  -11.0997   -0.3310   -0.0920 H   0  0  0  0  0  0  0  0  0  0  0  0
   -8.9105    1.8911    0.9225 C   0  0  0  0  0  0  0  0  0  0  0  0
   -8.9154    2.9430    1.2605 H   0  0  0  0  0  0  0  0  0  0  0  0
   -7.7000    1.1852    0.8617 C   0  0  0  0  0  0  0  0  0  0  0  0
   -6.7500    1.6579    1.1492 H   0  0  0  0  0  0  0  0  0  0  0  0
   -7.7219   -0.1539    0.4254 C   0  0  0  0  0  0  0  0  0  0  0  0
   -8.9673   -0.7133    0.0751 C   0  0  0  0  0  0  0  0  0  0  0  0
   -9.0265   -1.7550   -0.2711 H   0  0  0  0  0  0  0  0  0  0  0  0
   -6.4840   -0.9386    0.3405 C   0  0  0  0  0  0  0  0  0  0  0  0
   -0.1456   -1.2262    0.7386 N   0  0  0  0  0  2  0  0  0  0  0  0
   -5.2406   -0.4239    0.6139 N   0  0  0  0  0  0  0  0  0  0  0  0
   -6.4670   -2.2304   -0.0270 N   0  0  0  0  0  2  0  0  0  0  0  0
   -5.1559   -2.5288    0.0111 N   0  0  0  0  0  0  0  0  0  0  0  0
  -10.1010    1.3660    0.5907 N   0  0  0  0  0  0  0  0  0  0  0  0
   -4.8419   -3.4813   -0.1854 H   0  0  0  0  0  0  0  0  0  0  0  0
  1  2  1  0  0  0  0
  3  4  1  6  0  0  0
  3 22  1  0  0  0  0
  4  5  2  0  0  0  0
  5  1  1  0  0  0  0
  5  6  1  0  0  0  0
  7 21  1  0  0  0  0
  8  7  1  0  0  0  0
  9  7  2  0  0  0  0
  9  4  1  0  0  0  0
 10  9  1  0  0  0  0
 11 25  1  0  0  0  0
 12 11  1  0  0  0  0
 13 14  1  0  0  0  0
 15 13  1  0  0  0  0
 15 16  1  0  0  0  0
 17 15  2  0  0  0  0
 18 11  2  0  0  0  0
 18 17  1  0  0  0  0
 19 18  1  0  0  0  0
 20 17  1  0  0  0  0
 20 22  2  0  0  0  0
 21  1  1  0  0  0  0
 23 24  1  0  0  0  0
 23 20  1  0  0  0  0
 24  3  1  0  0  0  0
 25 13  2  0  0  0  0
 26 24  1  0  0  0  0
M  END
