2
q = 0.0, confidence = 0.972

 11 11  0  0  0  0  0  0  0  0999 V2000
    5.4220    0.0001   -0.0001 Br  0  0  0  0  0  0  0  0  0  0  0  0
    0.7405    0.0000    0.0000 N   0  0  0  0  0  2  0  0  0  0  0  0
    1.4259   -0.1227   -1.1573 C   0  0  0  0  0  3  0  0  0  0  0  0
    0.8236   -0.2259   -2.0731 H   0  0  0  0  0  0  0  0  0  0  0  0
    2.8229   -0.1272   -1.2050 C   0  0  0  0  0  0  0  0  0  0  0  0
    3.3418   -0.2297   -2.1675 H   0  0  0  0  0  0  0  0  0  0  0  0
    3.5313    0.0001   -0.0000 C   0  0  0  0  0  0  0  0  0  0  0  0
    2.8229    0.1273    1.2050 C   0  0  0  0  0  0  0  0  0  0  0  0
    3.3419    0.2298    2.1675 H   0  0  0  0  0  0  0  0  0  0  0  0
    1.4260    0.1228    1.1573 C   0  0  0  0  0  0  0  0  0  0  0  0
    0.8237    0.2259    2.0731 H   0  0  0  0  0  0  0  0  0  0  0  0
  1  7  1  0  0  0  0
  2 10  1  0  0  0  0
  3  2  1  0  0  0  0
  4  3  1  0  0  0  0
  5  3  1  0  0  0  0
  5  7  2  0  0  0  0
  6  5  1  0  0  0  0
  7  8  1  0  0  0  0
  8  9  1  0  0  0  0
 10  8  2  0  0  0  0
 10 11  1  0  0  0  0
M  END
