34
q = -1.0, confidence = 0.0

 34 35  0  0  0  0  0  0  0  0999 V2000
    1.4666    3.9766    0.0648 C   0  0  0  0  0  0  0  0  0  0  0  0
    1.8306    2.6260    0.1152 C   0  0  0  0  0  0  0  0  0  0  0  0
    2.8840    2.3116    0.1344 H   0  0  0  0  0  0  0  0  0  0  0  0
    0.8090    1.6423    0.1519 C   0  0  0  0  0  0  0  0  0  0  0  0
    5.5006   -3.0870   -0.1724 C   0  0  0  0  0  0  0  0  0  0  0  0
    6.3141   -2.7540    0.5060 H   0  0  0  0  0  0  0  0  0  0  0  0
    5.9096   -3.1159   -1.2009 H   0  0  0  0  0  0  0  0  0  0  0  0
    5.2486   -4.1282    0.1202 H   0  0  0  0  0  0  0  0  0  0  0  0
    3.7981   -1.5063   -1.2045 C   0  0  0  0  0  0  0  0  0  0  0  0
    4.2943   -1.6463   -2.1792 H   0  0  0  0  0  0  0  0  0  0  0  0
    2.5131   -1.1616    1.2759 C   0  0  0  0  0  0  0  0  0  0  0  0
   -0.8706    3.3073    0.0682 C   0  0  0  0  0  0  0  0  0  0  0  0
   -1.9509    3.5243    0.0438 H   0  0  0  0  0  0  0  0  0  0  0  0
    1.8251   -0.9520    2.5992 C   0  0  0  0  0  0  0  0  0  0  0  0
    2.2582   -1.5971    3.3874 H   0  0  0  0  0  0  0  0  0  0  0  0
    0.7367   -1.1557    2.5245 H   0  0  0  0  0  0  0  0  0  0  0  0
    1.9080    0.1044    2.9304 H   0  0  0  0  0  0  0  0  0  0  0  0
    2.1290    0.0241   -2.3579 C   0  0  0  0  0  0  0  0  0  0  0  0
    2.6111   -0.3525   -3.2803 H   0  0  0  0  0  0  0  0  0  0  0  0
    2.2858    1.1233   -2.3165 H   0  0  0  0  0  0  0  0  0  0  0  0
    1.0307   -0.1225   -2.4382 H   0  0  0  0  0  0  0  0  0  0  0  0
    2.6723   -0.6645   -1.1336 C   0  0  0  0  0  0  0  0  0  0  0  0
    4.2974   -2.1813   -0.0769 C   0  0  0  0  0  0  0  0  0  0  0  0
    2.0334   -0.4883    0.1209 C   0  0  0  0  0  0  0  0  0  0  0  0
    3.6359   -1.9955    1.1535 C   0  0  0  0  0  0  0  0  0  0  0  0
    4.0100   -2.5153    2.0512 H   0  0  0  0  0  0  0  0  0  0  0  0
    0.0867    4.3227    0.0431 C   0  0  0  0  0  0  0  0  0  0  0  0
   -0.2281    5.3749    0.0053 H   0  0  0  0  0  0  0  0  0  0  0  0
    2.5120    5.0601    0.0353 C   0  0  0  0  0  0  0  0  0  0  0  0
    3.5377    4.6454    0.0375 H   0  0  0  0  0  0  0  0  0  0  0  0
    2.4077    5.7316    0.9132 H   0  0  0  0  0  0  0  0  0  0  0  0
    2.3958    5.6967   -0.8664 H   0  0  0  0  0  0  0  0  0  0  0  0
   -0.5226    2.0134    0.1234 N   0  0  0  0  0  0  0  0  0  0  0  0
    0.8665    0.2929    0.2189 N   0  0  0  0  0  2  0  0  0  0  0  0
  1  2  1  0  0  0  0
  2  3  1  0  0  0  0
  2  4  2  0  0  0  0
  4 34  1  0  0  0  0
  5 23  1  0  0  0  0
  5  8  1  0  0  0  0
  5  6  1  0  0  0  0
  7  5  1  0  0  0  0
  9 22  2  0  0  0  0
  9 23  1  0  0  0  0
 10  9  1  0  0  0  0
 11 14  1  0  0  0  0
 12 33  2  0  0  0  0
 13 12  1  0  0  0  0
 14 17  1  0  0  0  0
 14 15  1  0  0  0  0
 16 14  1  0  0  0  0
 18 20  1  0  0  0  0
 18 22  1  0  0  0  0
 19 18  1  0  0  0  0
 21 18  1  0  0  0  0
 22 24  1  0  0  0  0
 23 25  2  0  0  0  0
 24 34  1  0  0  0  0
 24 11  2  0  0  0  0
 25 11  1  0  0  0  0
 25 26  1  0  0  0  0
 27  1  2  0  0  0  0
 27 12  1  0  0  0  0
 28 27  1  0  0  0  0
 29 30  1  0  0  0  0
 29  1  1  0  0  0  0
 29 31  1  0  0  0  0
 32 29  1  0  0  0  0
 33  4  1  0  0  0  0
M  END
