1
q = -1.0

 23 24  0  0  0  0  0  0  0  0999 V2000
    0.9259    0.1123    0.1205 N   0  0  0  0  0  2  0  0  0  0  0  0
    1.3115    1.4633   -0.0452 C   0  0  0  0  0  0  0  0  0  0  0  0
    2.5661    1.9189    0.4357 C   0  0  0  0  0  0  0  0  0  0  0  0
    2.9199    3.2665    0.3150 C   0  0  0  0  0  0  0  0  0  0  0  0
    2.0452    4.1803   -0.3008 C   0  0  0  0  0  0  0  0  0  0  0  0
    0.8131    3.7305   -0.8007 C   0  0  0  0  0  0  0  0  0  0  0  0
    0.4442    2.3836   -0.6783 C   0  0  0  0  0  0  0  0  0  0  0  0
    1.9599   -0.8348   -0.1067 C   0  0  0  0  0  0  0  0  0  0  0  0
    2.2938   -1.8041    0.8624 C   0  0  0  0  0  0  0  0  0  0  0  0
    3.3072   -2.7372    0.6074 C   0  0  0  0  0  0  0  0  0  0  0  0
    3.9987   -2.7194   -0.6142 C   0  0  0  0  0  0  0  0  0  0  0  0
    3.6741   -1.7514   -1.5796 C   0  0  0  0  0  0  0  0  0  0  0  0
    2.6704   -0.8085   -1.3290 C   0  0  0  0  0  0  0  0  0  0  0  0
    3.2477    1.2024    0.9168 H   0  0  0  0  0  0  0  0  0  0  0  0
    3.8890    3.6103    0.7077 H   0  0  0  0  0  0  0  0  0  0  0  0
    2.3306    5.2384   -0.3982 H   0  0  0  0  0  0  0  0  0  0  0  0
    0.1330    4.4326   -1.3069 H   0  0  0  0  0  0  0  0  0  0  0  0
   -0.5023    2.0102   -1.0979 H   0  0  0  0  0  0  0  0  0  0  0  0
    1.7557   -1.8038    1.8206 H   0  0  0  0  0  0  0  0  0  0  0  0
    3.5598   -3.4847    1.3746 H   0  0  0  0  0  0  0  0  0  0  0  0
    4.7895   -3.4577   -0.8139 H   0  0  0  0  0  0  0  0  0  0  0  0
    4.2050   -1.7334   -2.5435 H   0  0  0  0  0  0  0  0  0  0  0  0
    2.4047   -0.0541   -2.0834 H   0  0  0  0  0  0  0  0  0  0  0  0
  2  1  1  0  0  0  0
  2  3  1  0  0  0  0
  3 14  1  0  0  0  0
  4  3  2  0  0  0  0
  4 15  1  0  0  0  0
  5  4  1  0  0  0  0
  6  7  1  0  0  0  0
  6  5  2  0  0  0  0
  7  2  2  0  0  0  0
  8  1  1  0  0  0  0
  8  9  1  0  0  0  0
  9 19  1  0  0  0  0
 10  9  2  0  0  0  0
 10 20  1  0  0  0  0
 11 10  1  0  0  0  0
 12 13  1  0  0  0  0
 12 11  2  0  0  0  0
 13  8  2  0  0  0  0
 16  5  1  0  0  0  0
 17  6  1  0  0  0  0
 18  7  1  0  0  0  0
 21 11  1  0  0  0  0
 22 12  1  0  0  0  0
 23 13  1  0  0  0  0
M  END
