2
q = -1.0, confidence = 0.0

 30 31  0  0  1  0  0  0  0  0999 V2000
   -0.3889   -0.0938    1.5062 S   0  0  0  0  0  0  0  0  0  0  0  0
    1.4112    1.5217   -0.1535 N   0  0  0  0  0  2  0  0  0  0  0  0
   -2.0604    1.9249    0.6987 N   0  0  0  0  0  2  0  0  0  0  0  0
    2.4089    2.2172   -0.7625 C   0  0  0  0  0  3  0  0  0  0  0  0
    2.2790    3.5458   -1.1625 C   0  0  0  0  0  0  0  0  0  0  0  0
    1.0546    4.2052   -0.9490 C   0  0  0  0  0  0  0  0  0  0  0  0
    0.0230    3.4989   -0.3341 C   0  0  0  0  0  0  0  0  0  0  0  0
    0.2275    2.1646    0.0701 C   0  0  0  0  0  0  0  0  0  0  0  0
   -0.8693    1.4157    0.7287 C   0  0  0  0  0  0  0  0  0  0  0  0
   -3.1698    1.1463    1.2384 C   0  0  1  0  0  0  0  0  0  0  0  0
   -4.3856    2.0578    1.4391 C   0  0  0  0  0  0  0  0  0  0  0  0
   -3.4782   -0.0197    0.2986 C   0  0  0  0  0  0  0  0  0  0  0  0
   -3.6093    0.2092   -1.0867 C   0  0  0  0  0  0  0  0  0  0  0  0
   -3.8779   -0.8509   -1.9653 C   0  0  0  0  0  0  0  0  0  0  0  0
   -4.0185   -2.1592   -1.4708 C   0  0  0  0  0  0  0  0  0  0  0  0
   -3.8895   -2.3963   -0.0930 C   0  0  0  0  0  0  0  0  0  0  0  0
   -3.6189   -1.3329    0.7833 C   0  0  0  0  0  0  0  0  0  0  0  0
    3.3467    1.6698   -0.9266 H   0  0  0  0  0  0  0  0  0  0  0  0
    3.1333    4.0506   -1.6350 H   0  0  0  0  0  0  0  0  0  0  0  0
    0.9158    5.2524   -1.2570 H   0  0  0  0  0  0  0  0  0  0  0  0
   -0.9729    3.9207   -0.1384 H   0  0  0  0  0  0  0  0  0  0  0  0
   -2.8870    0.7052    2.2244 H   0  0  0  0  0  0  0  0  0  0  0  0
   -3.4782    1.2314   -1.4734 H   0  0  0  0  0  0  0  0  0  0  0  0
   -3.9771   -0.6567   -3.0445 H   0  0  0  0  0  0  0  0  0  0  0  0
   -4.2256   -2.9924   -2.1595 H   0  0  0  0  0  0  0  0  0  0  0  0
   -3.9898   -3.4187    0.3027 H   0  0  0  0  0  0  0  0  0  0  0  0
   -3.4951   -1.5236    1.8606 H   0  0  0  0  0  0  0  0  0  0  0  0
   -4.7040    2.4975    0.4726 H   0  0  0  0  0  0  0  0  0  0  0  0
   -5.2384    1.4930    1.8646 H   0  0  0  0  0  0  0  0  0  0  0  0
   -4.1286    2.8889    2.1257 H   0  0  0  0  0  0  0  0  0  0  0  0
  2  8  1  0  0  0  0
  3  9  1  0  0  0  0
  3 10  1  0  0  0  0
  4  2  1  0  0  0  0
  5  6  2  0  0  0  0
  5  4  1  0  0  0  0
  6  7  1  0  0  0  0
  7 21  1  0  0  0  0
  7  8  2  0  0  0  0
  8  9  1  0  0  0  0
  9  1  2  0  0  0  0
 10 11  1  0  0  0  0
 10 22  1  1  0  0  0
 11 29  1  0  0  0  0
 11 30  1  0  0  0  0
 12 17  1  0  0  0  0
 12 10  1  0  0  0  0
 13 12  2  0  0  0  0
 14 15  2  0  0  0  0
 14 13  1  0  0  0  0
 15 16  1  0  0  0  0
 16 26  1  0  0  0  0
 16 17  2  0  0  0  0
 17 27  1  0  0  0  0
 18  4  1  0  0  0  0
 19  5  1  0  0  0  0
 20  6  1  0  0  0  0
 23 13  1  0  0  0  0
 24 14  1  0  0  0  0
 25 15  1  0  0  0  0
 28 11  1  0  0  0  0
M  END
