1
q = -1.0

 14 14  0  0  0  0  0  0  0  0999 V2000
   -2.0661    0.2583   -0.0601 N   0  0  0  0  0  0  0  0  0  0  0  0
   -5.1699   -0.2158   -0.0082 S   0  0  0  0  0  0  0  0  0  0  0  0
   -2.6548   -0.0047    1.2891 C   0  0  0  0  0  0  0  0  0  0  0  0
   -4.1061    0.5122    1.2909 C   0  0  0  0  0  0  0  0  0  0  0  0
   -2.7567   -0.4261   -1.0774 C   0  0  0  0  0  3  0  0  0  0  0  0
   -4.0223    0.1677   -1.4961 C   0  0  0  0  0  0  0  0  0  0  0  0
   -2.5928   -1.0938    1.4741 H   0  0  0  0  0  0  0  0  0  0  0  0
   -2.0463    0.5275    2.0485 H   0  0  0  0  0  0  0  0  0  0  0  0
   -4.5946    0.2491    2.2512 H   0  0  0  0  0  0  0  0  0  0  0  0
   -4.1142    1.6208    1.2046 H   0  0  0  0  0  0  0  0  0  0  0  0
   -2.5780   -1.5122   -1.1093 H   0  0  0  0  0  0  0  0  0  0  0  0
   -4.5069   -0.3244   -2.3594 H   0  0  0  0  0  0  0  0  0  0  0  0
   -3.9956    1.2679   -1.6394 H   0  0  0  0  0  0  0  0  0  0  0  0
   -2.0952    1.2892   -0.2229 H   0  0  0  0  0  0  0  0  0  0  0  0
  1  3  1  0  0  0  0
  2  4  1  0  0  0  0
  3  4  1  0  0  0  0
  3  7  1  0  0  0  0
  3  8  1  0  0  0  0
  4  9  1  0  0  0  0
  5  1  1  0  0  0  0
  6  5  1  0  0  0  0
  6  2  1  0  0  0  0
 10  4  1  0  0  0  0
 11  5  1  0  0  0  0
 12  6  1  0  0  0  0
 13  6  1  0  0  0  0
 14  1  1  0  0  0  0
M  END
