6
q = 0.0, confidence = 1.0

 14 14  0  0  1  0  0  0  0  0999 V2000
   -0.9817    1.4507   -1.4375 O   0  0  0  0  0  0  0  0  0  0  0  0
   -3.0348    2.0640   -2.2569 N   0  0  0  0  0  0  0  0  0  0  0  0
   -2.7001    2.9641   -2.5964 H   0  0  0  0  0  0  0  0  0  0  0  0
   -4.0168    1.7862   -2.3254 H   0  0  0  0  0  0  0  0  0  0  0  0
   -4.1565   -0.2151   -1.3865 N   0  0  0  0  0  0  0  0  0  0  0  0
   -2.0669   -0.8975   -0.4589 N   0  0  0  0  0  2  0  0  0  0  0  0
   -2.1844    1.2340   -1.6122 C   0  0  0  0  0  0  0  0  0  0  0  0
   -2.8522   -0.0427   -1.1222 C   0  0  1  0  0  3  0  0  0  0  0  0
   -2.6179   -2.0256    0.0142 C   0  0  0  0  0  0  0  0  0  0  0  0
   -1.9389   -2.6700    0.6000 H   0  0  0  0  0  0  0  0  0  0  0  0
   -3.9755   -2.3015   -0.2093 C   0  0  0  0  0  0  0  0  0  0  0  0
   -4.4425   -3.2204    0.1721 H   0  0  0  0  0  0  0  0  0  0  0  0
   -4.7118   -1.3490   -0.9281 C   0  0  0  0  0  0  0  0  0  0  0  0
   -5.7853   -1.4971   -1.1396 H   0  0  0  0  0  0  0  0  0  0  0  0
  2  7  1  0  0  0  0
  3  2  1  0  0  0  0
  4  2  1  0  0  0  0
  5  8  1  0  0  0  0
  5 13  2  0  0  0  0
  6  9  1  0  0  0  0
  7  1  2  0  0  0  0
  8  7  1  6  0  0  0
  8  6  1  0  0  0  0
  9 10  1  0  0  0  0
 11  9  2  0  0  0  0
 11 12  1  0  0  0  0
 13 11  1  0  0  0  0
 14 13  1  0  0  0  0
M  END
