21
q = 0.0, confidence = 0.98

 30 32  0  0  1  0  0  0  0  0999 V2000
   -0.9601    4.0991   -0.2838 N   0  0  0  0  0  0  0  0  0  0  0  0
   -0.4764    5.0610    0.5069 C   0  0  0  0  0  0  0  0  0  0  0  0
   -1.1636    5.8934    0.7437 H   0  0  0  0  0  0  0  0  0  0  0  0
    0.7509    5.1303    1.0506 N   0  0  0  0  0  0  0  0  0  0  0  0
    3.1479    4.1025    1.4822 Cl  0  0  0  0  0  0  0  0  0  0  0  0
    1.5533    4.1100    0.7527 C   0  0  0  0  0  0  0  0  0  0  0  0
    1.2002    3.0349   -0.0626 C   0  0  0  0  0  0  0  0  0  0  0  0
    1.8659    2.1694   -0.2012 H   0  0  0  0  0  0  0  0  0  0  0  0
   -0.6326    2.0563   -1.3504 N   0  0  0  0  0  0  0  0  0  0  0  0
   -0.1212    3.0827   -0.5696 C   0  0  0  0  0  0  0  0  0  0  0  0
   -2.7426    1.3191   -0.5984 N   0  0  0  0  0  0  0  0  0  0  0  0
   -2.0537    1.9194   -1.5754 C   0  0  0  0  0  0  0  0  0  0  0  0
   -2.6099    2.2965   -2.8033 C   0  0  0  0  0  0  0  0  0  0  0  0
   -1.9869    2.7826   -3.5671 H   0  0  0  0  0  0  0  0  0  0  0  0
   -3.9713    2.0285   -3.0134 C   0  0  0  0  0  0  0  0  0  0  0  0
   -4.4506    2.3012   -3.9652 H   0  0  0  0  0  0  0  0  0  0  0  0
   -4.7011    1.3899   -2.0000 C   0  0  0  0  0  0  0  0  0  0  0  0
   -5.7603    1.1315   -2.1353 H   0  0  0  0  0  0  0  0  0  0  0  0
   -4.0453    1.0574   -0.8061 C   0  0  0  0  0  0  0  0  0  0  0  0
   -4.5627    0.5216    0.0065 H   0  0  0  0  0  0  0  0  0  0  0  0
   -0.1042   -0.2528   -1.4486 N   0  0  0  0  0  2  0  0  0  0  0  0
    0.1785    1.0123   -1.8518 C   0  0  1  0  0  3  0  0  0  0  0  0
    1.1906    1.2791   -2.7894 C   0  0  0  0  0  0  0  0  0  0  0  0
    1.3781    2.3212   -3.0824 H   0  0  0  0  0  0  0  0  0  0  0  0
    1.9163    0.2152   -3.3338 C   0  0  0  0  0  0  0  0  0  0  0  0
    2.7228    0.4015   -4.0579 H   0  0  0  0  0  0  0  0  0  0  0  0
    1.5724   -1.0928   -2.9597 C   0  0  0  0  0  0  0  0  0  0  0  0
    2.0979   -1.9656   -3.3711 H   0  0  0  0  0  0  0  0  0  0  0  0
    0.5478   -1.2872   -2.0309 C   0  0  0  0  0  0  0  0  0  0  0  0
    0.2536   -2.2881   -1.6892 H   0  0  0  0  0  0  0  0  0  0  0  0
  1  2  1  0  0  0  0
  2  3  1  0  0  0  0
  2  4  2  0  0  0  0
  6  4  1  0  0  0  0
  6  5  1  0  0  0  0
  7  6  2  0  0  0  0
  8  7  1  0  0  0  0
  9 10  1  0  0  0  0
 10  1  2  0  0  0  0
 10  7  1  0  0  0  0
 12  9  1  0  0  0  0
 12 11  2  0  0  0  0
 13 12  1  0  0  0  0
 14 13  1  0  0  0  0
 15 13  2  0  0  0  0
 15 17  1  0  0  0  0
 16 15  1  0  0  0  0
 17 19  2  0  0  0  0
 18 17  1  0  0  0  0
 19 11  1  0  0  0  0
 19 20  1  0  0  0  0
 22 21  1  0  0  0  0
 22  9  1  6  0  0  0
 23 22  1  0  0  0  0
 24 23  1  0  0  0  0
 25 27  1  0  0  0  0
 25 23  2  0  0  0  0
 26 25  1  0  0  0  0
 27 29  2  0  0  0  0
 28 27  1  0  0  0  0
 29 30  1  0  0  0  0
 29 21  1  0  0  0  0
M  END
