2
q = 0.0, confidence = 0.998

 33 36  0  0  1  0  0  0  0  0999 V2000
    2.9632   -1.3899   -1.9764 O   0  0  0  0  0  0  0  0  0  0  0  0
    0.3976   -0.9266    0.5786 N   0  0  0  0  0  2  0  0  0  0  0  0
    1.3753   -2.7633   -0.2435 N   0  0  0  0  0  0  0  0  0  0  0  0
    1.4092   -1.3922   -0.1605 C   0  0  1  0  0  3  0  0  0  0  0  0
    2.4792   -0.6054   -0.8597 C   0  0  1  0  0  0  0  0  0  0  0  0
    3.6080   -0.1422    0.0446 C   0  0  0  0  0  0  0  0  0  0  0  0
    3.9768   -0.8339    1.2132 C   0  0  0  0  0  0  0  0  0  0  0  0
    5.0426   -0.3763    2.0010 C   0  0  0  0  0  0  0  0  0  0  0  0
    5.7510    0.7724    1.6213 C   0  0  0  0  0  0  0  0  0  0  0  0
    5.3835    1.4692    0.4584 C   0  0  0  0  0  0  0  0  0  0  0  0
    4.3137    1.0183   -0.3238 C   0  0  0  0  0  0  0  0  0  0  0  0
    3.4179   -2.6677   -1.5730 C   0  0  0  0  0  0  0  0  0  0  0  0
    2.2447   -3.5446   -1.1160 C   0  0  0  0  0  0  0  0  0  0  0  0
    0.2693   -3.2061    0.4751 C   0  0  0  0  0  0  0  0  0  0  0  0
   -0.2591   -4.4862    0.7004 C   0  0  0  0  0  0  0  0  0  0  0  0
   -1.4051   -4.5605    1.5044 C   0  0  0  0  0  0  0  0  0  0  0  0
   -1.9882   -3.4010    2.0720 C   0  0  0  0  0  0  0  0  0  0  0  0
   -1.4598   -2.1243    1.8447 C   0  0  0  0  0  0  0  0  0  0  0  0
   -0.3277   -2.0321    1.0170 C   0  0  0  0  0  0  0  0  0  0  0  0
    1.9984    0.2881   -1.3044 H   0  0  0  0  0  0  0  0  0  0  0  0
    3.4000   -1.7130    1.5418 H   0  0  0  0  0  0  0  0  0  0  0  0
    5.3049   -0.9072    2.9281 H   0  0  0  0  0  0  0  0  0  0  0  0
    6.5785    1.1403    2.2465 H   0  0  0  0  0  0  0  0  0  0  0  0
    5.9201    2.3867    0.1729 H   0  0  0  0  0  0  0  0  0  0  0  0
    3.9881    1.5879   -1.2067 H   0  0  0  0  0  0  0  0  0  0  0  0
    0.2029   -5.3883    0.2743 H   0  0  0  0  0  0  0  0  0  0  0  0
   -1.8518   -5.5443    1.7115 H   0  0  0  0  0  0  0  0  0  0  0  0
   -2.8706   -3.5082    2.7202 H   0  0  0  0  0  0  0  0  0  0  0  0
   -1.8843   -1.2238    2.3072 H   0  0  0  0  0  0  0  0  0  0  0  0
    4.1737   -2.5816   -0.7586 H   0  0  0  0  0  0  0  0  0  0  0  0
    3.9093   -3.1339   -2.4489 H   0  0  0  0  0  0  0  0  0  0  0  0
    1.6482   -3.8959   -1.9861 H   0  0  0  0  0  0  0  0  0  0  0  0
    2.6113   -4.4379   -0.5688 H   0  0  0  0  0  0  0  0  0  0  0  0
  1 12  1  0  0  0  0
  1  5  1  0  0  0  0
  2 19  1  0  0  0  0
  3  4  1  0  0  0  0
  3 14  1  0  0  0  0
  4  2  1  6  0  0  0
  5 20  1  6  0  0  0
  5  4  1  0  0  0  0
  5  6  1  0  0  0  0
  6  7  1  0  0  0  0
  7 21  1  0  0  0  0
  7  8  2  0  0  0  0
  8 22  1  0  0  0  0
  9  8  1  0  0  0  0
  9 23  1  0  0  0  0
 10  9  2  0  0  0  0
 11  6  2  0  0  0  0
 11 10  1  0  0  0  0
 12 13  1  0  0  0  0
 12 30  1  0  0  0  0
 13 33  1  0  0  0  0
 13  3  1  0  0  0  0
 14 15  2  0  0  0  0
 14 19  1  0  0  0  0
 15 16  1  0  0  0  0
 16 27  1  0  0  0  0
 16 17  2  0  0  0  0
 17 28  1  0  0  0  0
 18 17  1  0  0  0  0
 18 29  1  0  0  0  0
 19 18  2  0  0  0  0
 24 10  1  0  0  0  0
 25 11  1  0  0  0  0
 26 15  1  0  0  0  0
 31 12  1  0  0  0  0
 32 13  1  0  0  0  0
M  END
