1
q = -1.0

 17 17  0  0  0  0  0  0  0  0999 V2000
    2.8560   -1.3475    0.4189 N   0  0  0  0  0  0  0  0  0  0  0  0
    3.9733   -0.5442    0.3436 C   0  0  0  0  0  0  0  0  0  0  0  0
    5.1078   -1.2370    0.4497 N   0  0  0  0  0  0  0  0  0  0  0  0
    4.7196   -2.5486    0.6010 C   0  0  0  0  0  0  0  0  0  0  0  0
    3.3342   -2.6392    0.5826 C   0  0  0  0  0  3  0  0  0  0  0  0
    3.8970    0.9443    0.0980 C   0  0  0  0  0  0  0  0  0  0  0  0
    5.1274    1.6573    0.6688 C   0  0  0  0  0  0  0  0  0  0  0  0
    3.7200    1.2512   -1.4025 C   0  0  0  0  0  0  0  0  0  0  0  0
    5.4518   -3.3582    0.7238 H   0  0  0  0  0  0  0  0  0  0  0  0
    2.6587   -3.4966    0.6861 H   0  0  0  0  0  0  0  0  0  0  0  0
    2.9882    1.3186    0.6264 H   0  0  0  0  0  0  0  0  0  0  0  0
    5.2034    1.5091    1.7640 H   0  0  0  0  0  0  0  0  0  0  0  0
    6.0474    1.2324    0.2213 H   0  0  0  0  0  0  0  0  0  0  0  0
    5.0931    2.7462    0.4589 H   0  0  0  0  0  0  0  0  0  0  0  0
    4.5945    0.8808   -1.9756 H   0  0  0  0  0  0  0  0  0  0  0  0
    2.8162    0.7521   -1.8101 H   0  0  0  0  0  0  0  0  0  0  0  0
    3.6244    2.3435   -1.5835 H   0  0  0  0  0  0  0  0  0  0  0  0
  1  5  1  0  0  0  0
  2  1  2  0  0  0  0
  2  3  1  0  0  0  0
  3  4  2  0  0  0  0
  4  9  1  0  0  0  0
  5  4  1  0  0  0  0
  5 10  1  0  0  0  0
  6  2  1  0  0  0  0
  6 11  1  0  0  0  0
  6  7  1  0  0  0  0
  7 12  1  0  0  0  0
  8  6  1  0  0  0  0
 13  7  1  0  0  0  0
 14  7  1  0  0  0  0
 15  8  1  0  0  0  0
 16  8  1  0  0  0  0
 17  8  1  0  0  0  0
M  END
