1
q = 0.0, confidence = 0.996

 19 19  0  0  1  0  0  0  0  0999 V2000
    2.0440    0.0000    0.0001 N   0  0  0  0  0  2  0  0  0  0  0  0
    6.8459    1.0747   -0.2067 O   0  0  0  0  0  0  0  0  0  0  0  0
    6.2890   -0.0002   -0.0006 N   0  0  0  0  0  0  0  0  0  0  0  0
    1.9119    2.4147   -0.4370 C   0  0  0  0  0  0  0  0  0  0  0  0
    6.8458   -1.0752    0.2051 O   0  0  0  0  0  0  0  0  0  0  0  0
    4.1137    1.1923   -0.2237 C   0  0  0  0  0  0  0  0  0  0  0  0
    4.7965   -0.0001   -0.0003 C   0  0  0  0  0  0  0  0  0  0  0  0
    4.1136   -1.1924    0.2233 C   0  0  0  0  0  0  0  0  0  0  0  0
    2.7095   -1.1683    0.2178 C   0  0  2  0  0  3  0  0  0  0  0  0
    2.7096    1.1683   -0.2177 C   0  0  0  0  0  0  0  0  0  0  0  0
    1.9118   -2.4146    0.4376 C   0  0  0  0  0  0  0  0  0  0  0  0
    4.6698    2.1216   -0.3982 H   0  0  0  0  0  0  0  0  0  0  0  0
    4.6697   -2.1218    0.3976 H   0  0  0  0  0  0  0  0  0  0  0  0
    1.2321    2.2837   -1.3030 H   0  0  0  0  0  0  0  0  0  0  0  0
    2.5725    3.2819   -0.6188 H   0  0  0  0  0  0  0  0  0  0  0  0
    1.2812    2.6026    0.4567 H   0  0  0  0  0  0  0  0  0  0  0  0
    1.2326   -2.2835    1.3040 H   0  0  0  0  0  0  0  0  0  0  0  0
    1.2807   -2.6026   -0.4558 H   0  0  0  0  0  0  0  0  0  0  0  0
    2.5725   -3.2818    0.6191 H   0  0  0  0  0  0  0  0  0  0  0  0
  1  9  1  0  0  0  0
  2  3  2  0  0  0  0
  3  7  1  0  0  0  0
  3  5  2  0  0  0  0
  4 10  1  0  0  0  0
  4 16  1  0  0  0  0
  6 10  2  0  0  0  0
  6  7  1  0  0  0  0
  7  8  2  0  0  0  0
  8 13  1  0  0  0  0
  9  8  1  0  0  0  0
  9 11  1  6  0  0  0
 10  1  1  0  0  0  0
 11 19  1  0  0  0  0
 11 17  1  0  0  0  0
 12  6  1  0  0  0  0
 14  4  1  0  0  0  0
 15  4  1  0  0  0  0
 18 11  1  0  0  0  0
M  END
