2
q = -1.0

 29 29  0  0  0  0  0  0  0  0999 V2000
    1.9531   -1.8332    0.0002 O   0  0  0  0  0  1  0  0  0  0  0  0
    2.2945   -0.5363    0.0001 N   0  0  0  0  0  0  0  0  0  0  0  0
    2.9431   -0.0744    1.3270 C   0  0  0  0  0  0  0  0  0  0  0  0
    4.4503   -0.4022    1.2536 C   0  0  0  0  0  0  0  0  0  0  0  0
    5.1377    0.1371    0.0000 C   0  0  0  0  0  0  0  0  0  0  0  0
    4.4503   -0.4025   -1.2534 C   0  0  0  0  0  0  0  0  0  0  0  0
    2.9431   -0.0747   -1.3270 C   0  0  0  0  0  0  0  0  0  0  0  0
    2.6724    1.4198    1.5625 C   0  0  0  0  0  0  0  0  0  0  0  0
    2.2987   -0.8681    2.4697 C   0  0  0  0  0  0  0  0  0  0  0  0
    2.2988   -0.8688   -2.4695 C   0  0  0  0  0  0  0  0  0  0  0  0
    2.6724    1.4193   -1.5630 C   0  0  0  0  0  0  0  0  0  0  0  0
    4.5587   -1.5077    1.2831 H   0  0  0  0  0  0  0  0  0  0  0  0
    4.9303   -0.0090    2.1736 H   0  0  0  0  0  0  0  0  0  0  0  0
    6.2058   -0.1619    0.0001 H   0  0  0  0  0  0  0  0  0  0  0  0
    5.1352    1.2480   -0.0001 H   0  0  0  0  0  0  0  0  0  0  0  0
    4.5588   -1.5080   -1.2827 H   0  0  0  0  0  0  0  0  0  0  0  0
    4.9303   -0.0096   -2.1736 H   0  0  0  0  0  0  0  0  0  0  0  0
    1.6119    1.6658    1.3578 H   0  0  0  0  0  0  0  0  0  0  0  0
    3.3093    2.0886    0.9593 H   0  0  0  0  0  0  0  0  0  0  0  0
    2.8775    1.6476    2.6266 H   0  0  0  0  0  0  0  0  0  0  0  0
    2.7934   -0.5767    3.4169 H   0  0  0  0  0  0  0  0  0  0  0  0
    2.4090   -1.9565    2.3230 H   0  0  0  0  0  0  0  0  0  0  0  0
    1.2173   -0.6351    2.5563 H   0  0  0  0  0  0  0  0  0  0  0  0
    2.7936   -0.5777   -3.4167 H   0  0  0  0  0  0  0  0  0  0  0  0
    1.2174   -0.6358   -2.5562 H   0  0  0  0  0  0  0  0  0  0  0  0
    2.4090   -1.9572   -2.3224 H   0  0  0  0  0  0  0  0  0  0  0  0
    3.3094    2.0883   -0.9599 H   0  0  0  0  0  0  0  0  0  0  0  0
    1.6119    1.6654   -1.3582 H   0  0  0  0  0  0  0  0  0  0  0  0
    2.8775    1.6468   -2.6272 H   0  0  0  0  0  0  0  0  0  0  0  0
  2  1  1  0  0  0  0
  2  3  1  0  0  0  0
  3  8  1  0  0  0  0
  3  9  1  0  0  0  0
  4 12  1  0  0  0  0
  4  3  1  0  0  0  0
  4 13  1  0  0  0  0
  5 14  1  0  0  0  0
  5  4  1  0  0  0  0
  6  5  1  0  0  0  0
  7  6  1  0  0  0  0
  7  2  1  0  0  0  0
  8 20  1  0  0  0  0
  9 23  1  0  0  0  0
  9 21  1  0  0  0  0
 10 26  1  0  0  0  0
 10  7  1  0  0  0  0
 11 28  1  0  0  0  0
 11  7  1  0  0  0  0
 11 27  1  0  0  0  0
 15  5  1  0  0  0  0
 16  6  1  0  0  0  0
 17  6  1  0  0  0  0
 18  8  1  0  0  0  0
 19  8  1  0  0  0  0
 22  9  1  0  0  0  0
 24 10  1  0  0  0  0
 25 10  1  0  0  0  0
 29 11  1  0  0  0  0
M  END
