2
q = 0.0, confidence = 1.0

 26 27  0  0  0  0  0  0  0  0999 V2000
    6.4489    2.7690    3.1996 N   0  0  0  0  0  0  0  0  0  0  0  0
    1.6191   -1.7998   -0.3103 N   0  0  0  0  0  2  0  0  0  0  0  0
    6.8209    2.3433   -0.3018 C   0  0  0  0  0  0  0  0  0  0  0  0
    5.6816    1.4631   -0.0568 C   0  0  0  0  0  0  0  0  0  0  0  0
    5.3888    1.3693    1.0018 H   0  0  0  0  0  0  0  0  0  0  0  0
    7.3858    2.5389   -1.5838 C   0  0  0  0  0  0  0  0  0  0  0  0
    6.9614    2.0050   -2.4462 H   0  0  0  0  0  0  0  0  0  0  0  0
    3.8308   -0.0990   -0.7211 C   0  0  0  0  0  0  0  0  0  0  0  0
    7.4141    3.0509    0.7927 C   0  0  0  0  0  0  0  0  0  0  0  0
    3.3621   -0.4035    0.5820 C   0  0  0  0  0  0  0  0  0  0  0  0
    3.8505    0.0086    1.4763 H   0  0  0  0  0  0  0  0  0  0  0  0
    9.0472    4.0782   -0.6940 C   0  0  0  0  0  0  0  0  0  0  0  0
    9.9071    4.7461   -0.8490 H   0  0  0  0  0  0  0  0  0  0  0  0
    6.8869    2.8976    2.1171 C   0  0  0  0  0  0  0  0  0  0  0  0
    2.2680   -1.2517    0.7397 C   0  0  0  0  0  3  0  0  0  0  0  0
    1.8828   -1.5368    1.7333 H   0  0  0  0  0  0  0  0  0  0  0  0
    4.9671    0.7788   -0.9918 C   0  0  0  0  0  0  0  0  0  0  0  0
    5.2326    0.8760   -2.0576 H   0  0  0  0  0  0  0  0  0  0  0  0
    2.0496   -1.5357   -1.5601 C   0  0  0  0  0  0  0  0  0  0  0  0
    1.4852   -2.0391   -2.3644 H   0  0  0  0  0  0  0  0  0  0  0  0
    3.1415   -0.6999   -1.8023 C   0  0  0  0  0  0  0  0  0  0  0  0
    3.4632   -0.5118   -2.8376 H   0  0  0  0  0  0  0  0  0  0  0  0
    8.5175    3.9090    0.5885 C   0  0  0  0  0  0  0  0  0  0  0  0
    8.9495    4.4378    1.4498 H   0  0  0  0  0  0  0  0  0  0  0  0
    8.4769    3.3892   -1.7800 C   0  0  0  0  0  0  0  0  0  0  0  0
    8.8921    3.5163   -2.7909 H   0  0  0  0  0  0  0  0  0  0  0  0
  2 15  1  0  0  0  0
  3  4  1  0  0  0  0
  3  9  1  0  0  0  0
  4  5  1  0  0  0  0
  6  3  2  0  0  0  0
  7  6  1  0  0  0  0
  8 10  2  0  0  0  0
  9 14  1  0  0  0  0
 10 15  1  0  0  0  0
 10 11  1  0  0  0  0
 12 23  1  0  0  0  0
 13 12  1  0  0  0  0
 14  1  3  0  0  0  0
 15 16  1  0  0  0  0
 17  8  1  0  0  0  0
 17  4  2  0  0  0  0
 18 17  1  0  0  0  0
 19  2  1  0  0  0  0
 20 19  1  0  0  0  0
 21 19  2  0  0  0  0
 21  8  1  0  0  0  0
 22 21  1  0  0  0  0
 23  9  2  0  0  0  0
 23 24  1  0  0  0  0
 25  6  1  0  0  0  0
 25 12  2  0  0  0  0
 26 25  1  0  0  0  0
M  END
