1
q = 0.0, confidence = 0.976

 21 21  0  0  0  0  0  0  0  0999 V2000
   -1.7895    0.2640    1.0082 N   0  0  0  0  0  2  0  0  0  0  0  0
   -2.7949    0.9518    0.4645 C   0  0  0  0  0  3  0  0  0  0  0  0
   -2.7232    1.5366   -0.4597 H   0  0  0  0  0  0  0  0  0  0  0  0
   -3.9406    0.7501    1.1691 N   0  0  0  0  0  0  0  0  0  0  0  0
   -3.6494   -0.1256    2.2038 C   0  0  0  0  0  0  0  0  0  0  0  0
   -4.4132   -0.4570    2.9138 H   0  0  0  0  0  0  0  0  0  0  0  0
   -2.3030   -0.4171    2.0938 C   0  0  0  0  0  0  0  0  0  0  0  0
   -1.6756   -1.0638    2.7152 H   0  0  0  0  0  0  0  0  0  0  0  0
   -5.2618    1.2520    0.8028 C   0  0  0  0  0  0  0  0  0  0  0  0
   -5.1180    2.2169    0.2758 H   0  0  0  0  0  0  0  0  0  0  0  0
   -5.8145    1.4766    1.7382 H   0  0  0  0  0  0  0  0  0  0  0  0
   -6.0472    0.2727   -0.0744 C   0  0  0  0  0  0  0  0  0  0  0  0
   -5.4476    0.0486   -0.9834 H   0  0  0  0  0  0  0  0  0  0  0  0
   -6.1572   -0.6920    0.4676 H   0  0  0  0  0  0  0  0  0  0  0  0
   -7.4249    0.8100   -0.4713 C   0  0  0  0  0  0  0  0  0  0  0  0
   -7.3001    1.7796   -1.0029 H   0  0  0  0  0  0  0  0  0  0  0  0
   -8.0075    1.0441    0.4477 H   0  0  0  0  0  0  0  0  0  0  0  0
   -8.2142   -0.1610   -1.3499 C   0  0  0  0  0  0  0  0  0  0  0  0
   -7.6710   -0.3839   -2.2913 H   0  0  0  0  0  0  0  0  0  0  0  0
   -9.2050    0.2523   -1.6241 H   0  0  0  0  0  0  0  0  0  0  0  0
   -8.3854   -1.1266   -0.8304 H   0  0  0  0  0  0  0  0  0  0  0  0
  1  7  1  0  0  0  0
  2  1  1  0  0  0  0
  2  4  1  0  0  0  0
  3  2  1  0  0  0  0
  4  5  1  0  0  0  0
  5  6  1  0  0  0  0
  7  5  2  0  0  0  0
  7  8  1  0  0  0  0
  9  4  1  0  0  0  0
  9 11  1  0  0  0  0
 10  9  1  0  0  0  0
 12 14  1  0  0  0  0
 12  9  1  0  0  0  0
 13 12  1  0  0  0  0
 15 12  1  0  0  0  0
 15 17  1  0  0  0  0
 16 15  1  0  0  0  0
 18 21  1  0  0  0  0
 18 15  1  0  0  0  0
 19 18  1  0  0  0  0
 20 18  1  0  0  0  0
M  END
