4
q = 0.0, confidence = 0.996

 51 54  0  0  1  0  0  0  0  0999 V2000
   -0.2217    1.0734   -0.1052 P   0  0  0  0  0  0  0  0  0  0  0  0
    3.7069    0.1922    1.9487 O   0  0  0  0  0  0  0  0  0  0  0  0
    2.4345    0.2619    1.5014 C   0  0  2  0  0  3  0  0  0  0  0  0
    2.0906   -0.6585    0.6432 N   0  0  0  0  0  2  0  0  0  0  0  0
    3.2818   -1.4919    0.3458 C   0  0  2  0  0  0  0  0  0  0  0  0
    2.9651   -2.5484    0.4624 H   0  0  0  0  0  0  0  0  0  0  0  0
    4.2579   -1.0565    1.4517 C   0  0  0  0  0  0  0  0  0  0  0  0
    4.2941   -1.7697    2.3008 H   0  0  0  0  0  0  0  0  0  0  0  0
    5.2871   -0.8549    1.0982 H   0  0  0  0  0  0  0  0  0  0  0  0
    1.6369    1.3708    2.0444 C   0  0  0  0  0  0  0  0  0  0  0  0
    0.4340    1.8322    1.4454 C   0  0  0  0  0  0  0  0  0  0  0  0
   -0.2335    2.9298    2.0134 C   0  0  0  0  0  0  0  0  0  0  0  0
   -1.1617    3.2935    1.5507 H   0  0  0  0  0  0  0  0  0  0  0  0
    0.2605    3.5611    3.1660 C   0  0  0  0  0  0  0  0  0  0  0  0
   -0.2875    4.4122    3.5974 H   0  0  0  0  0  0  0  0  0  0  0  0
    1.4453    3.1055    3.7586 C   0  0  0  0  0  0  0  0  0  0  0  0
    1.8391    3.5911    4.6638 H   0  0  0  0  0  0  0  0  0  0  0  0
    2.1311    2.0235    3.1949 C   0  0  0  0  0  0  0  0  0  0  0  0
    3.0615    1.6556    3.6470 H   0  0  0  0  0  0  0  0  0  0  0  0
   -1.9621    1.6492   -0.1478 C   0  0  0  0  0  0  0  0  0  0  0  0
   -2.8192    1.1485    0.8581 C   0  0  0  0  0  0  0  0  0  0  0  0
   -2.4262    0.4192    1.5869 H   0  0  0  0  0  0  0  0  0  0  0  0
   -4.1463    1.5898    0.9174 C   0  0  0  0  0  0  0  0  0  0  0  0
   -4.8097    1.1979    1.7016 H   0  0  0  0  0  0  0  0  0  0  0  0
   -4.6340    2.5040   -0.0316 C   0  0  0  0  0  0  0  0  0  0  0  0
   -5.6820    2.8375    0.0130 H   0  0  0  0  0  0  0  0  0  0  0  0
   -3.7872    2.9875   -1.0398 C   0  0  0  0  0  0  0  0  0  0  0  0
   -4.1653    3.7045   -1.7844 H   0  0  0  0  0  0  0  0  0  0  0  0
   -2.4468    2.5705   -1.0960 C   0  0  0  0  0  0  0  0  0  0  0  0
   -1.7790    2.9768   -1.8694 H   0  0  0  0  0  0  0  0  0  0  0  0
    0.6570    2.0515   -1.4071 C   0  0  0  0  0  0  0  0  0  0  0  0
    0.3933    1.8120   -2.7747 C   0  0  0  0  0  0  0  0  0  0  0  0
   -0.3809    1.0915   -3.0722 H   0  0  0  0  0  0  0  0  0  0  0  0
    1.1062    2.4933   -3.7710 C   0  0  0  0  0  0  0  0  0  0  0  0
    0.8842    2.2933   -4.8301 H   0  0  0  0  0  0  0  0  0  0  0  0
    2.0991    3.4222   -3.4203 C   0  0  0  0  0  0  0  0  0  0  0  0
    2.6628    3.9517   -4.2031 H   0  0  0  0  0  0  0  0  0  0  0  0
    2.3644    3.6725   -2.0664 C   0  0  0  0  0  0  0  0  0  0  0  0
    3.1369    4.4019   -1.7796 H   0  0  0  0  0  0  0  0  0  0  0  0
    1.6484    2.9960   -1.0664 C   0  0  0  0  0  0  0  0  0  0  0  0
    1.8676    3.2064   -0.0102 H   0  0  0  0  0  0  0  0  0  0  0  0
    3.7787   -1.2963   -1.1034 C   0  0  0  0  0  0  0  0  0  0  0  0
    2.9170   -1.5858   -1.7375 H   0  0  0  0  0  0  0  0  0  0  0  0
    4.1424    0.1541   -1.4301 C   0  0  0  0  0  0  0  0  0  0  0  0
    4.9852    0.5244   -0.8079 H   0  0  0  0  0  0  0  0  0  0  0  0
    3.2801    0.8318   -1.2780 H   0  0  0  0  0  0  0  0  0  0  0  0
    4.4535    0.2508   -2.4898 H   0  0  0  0  0  0  0  0  0  0  0  0
    4.9245   -2.2704   -1.3985 C   0  0  0  0  0  0  0  0  0  0  0  0
    5.2290   -2.2062   -2.4623 H   0  0  0  0  0  0  0  0  0  0  0  0
    4.6250   -3.3181   -1.1927 H   0  0  0  0  0  0  0  0  0  0  0  0
    5.8266   -2.0469   -0.7892 H   0  0  0  0  0  0  0  0  0  0  0  0
  1 11  1  0  0  0  0
  3  2  1  0  0  0  0
  3 10  1  6  0  0  0
  4  3  1  0  0  0  0
  5  6  1  1  0  0  0
  5  4  1  0  0  0  0
  5  7  1  0  0  0  0
  7  2  1  0  0  0  0
  7  8  1  0  0  0  0
  9  7  1  0  0  0  0
 10 18  1  0  0  0  0
 11 12  1  0  0  0  0
 11 10  2  0  0  0  0
 12 14  2  0  0  0  0
 13 12  1  0  0  0  0
 14 15  1  0  0  0  0
 14 16  1  0  0  0  0
 16 17  1  0  0  0  0
 18 19  1  0  0  0  0
 18 16  2  0  0  0  0
 20  1  1  0  0  0  0
 20 21  1  0  0  0  0
 21 23  2  0  0  0  0
 21 22  1  0  0  0  0
 23 24  1  0  0  0  0
 25 26  1  0  0  0  0
 25 23  1  0  0  0  0
 27 25  2  0  0  0  0
 28 27  1  0  0  0  0
 29 27  1  0  0  0  0
 29 20  2  0  0  0  0
 30 29  1  0  0  0  0
 31 40  1  0  0  0  0
 31  1  1  0  0  0  0
 32 31  2  0  0  0  0
 33 32  1  0  0  0  0
 34 36  2  0  0  0  0
 34 32  1  0  0  0  0
 35 34  1  0  0  0  0
 36 38  1  0  0  0  0
 37 36  1  0  0  0  0
 38 39  1  0  0  0  0
 38 40  2  0  0  0  0
 40 41  1  0  0  0  0
 42  5  1  0  0  0  0
 43 42  1  0  0  0  0
 44 46  1  0  0  0  0
 44 42  1  0  0  0  0
 44 45  1  0  0  0  0
 47 44  1  0  0  0  0
 48 50  1  0  0  0  0
 48 42  1  0  0  0  0
 48 51  1  0  0  0  0
 49 48  1  0  0  0  0
M  END
