6
q = 0.0, confidence = 0.994

 18 19  0  0  1  0  0  0  0  0999 V2000
    2.9771    2.3353   -0.3833 N   0  0  0  0  0  0  0  0  0  0  0  0
    4.1685    0.2628   -0.0464 N   0  0  0  0  0  2  0  0  0  0  0  0
    0.6517    2.5372   -0.4424 N   0  0  0  0  0  0  0  0  0  0  0  0
   -0.2112    2.0977   -0.7876 H   0  0  0  0  0  0  0  0  0  0  0  0
    0.8290    3.5028   -0.7355 H   0  0  0  0  0  0  0  0  0  0  0  0
    0.7077   -0.6018    0.0200 N   0  0  0  0  0  2  0  0  0  0  0  0
    2.6791   -1.6508    0.2213 N   0  0  0  0  0  0  0  0  0  0  0  0
    4.0895    1.5903   -0.2384 C   0  0  0  0  0  0  0  0  0  0  0  0
    5.0462    2.1380   -0.2871 H   0  0  0  0  0  0  0  0  0  0  0  0
    2.9652   -0.3060    0.0062 C   0  0  0  0  0  0  0  0  0  0  0  0
    1.7193    0.3436   -0.1257 C   0  0  0  0  0  0  0  0  0  0  0  0
    1.7687    1.7515   -0.3393 C   0  0  2  0  0  3  0  0  0  0  0  0
    1.3215   -1.7779    0.2279 C   0  0  0  0  0  3  0  0  0  0  0  0
    0.8091   -2.7306    0.4057 H   0  0  0  0  0  0  0  0  0  0  0  0
    3.6805   -2.6951    0.4135 C   0  0  0  0  0  0  0  0  0  0  0  0
    3.5335   -3.1994    1.3873 H   0  0  0  0  0  0  0  0  0  0  0  0
    4.6692   -2.2004    0.3996 H   0  0  0  0  0  0  0  0  0  0  0  0
    3.6312   -3.4381   -0.4053 H   0  0  0  0  0  0  0  0  0  0  0  0
  1 12  1  0  0  0  0
  1  8  2  0  0  0  0
  2 10  1  0  0  0  0
  4  3  1  0  0  0  0
  5  3  1  0  0  0  0
  6 13  1  0  0  0  0
  7 13  1  0  0  0  0
  7 15  1  0  0  0  0
  8  2  1  0  0  0  0
  9  8  1  0  0  0  0
 10  7  1  0  0  0  0
 11 10  2  0  0  0  0
 11  6  1  0  0  0  0
 12  3  1  1  0  0  0
 12 11  1  0  0  0  0
 13 14  1  0  0  0  0
 15 16  1  0  0  0  0
 17 15  1  0  0  0  0
 18 15  1  0  0  0  0
M  END
