4
q = -1.0, confidence = 0.0

 16 17  0  0  0  0  0  0  0  0999 V2000
   -0.9212   -2.6390    0.2167 O   0  0  0  0  0  0  0  0  0  0  0  0
   -3.1720   -2.2402    0.4790 N   0  0  0  0  0  0  0  0  0  0  0  0
   -4.1972   -0.0655    0.1602 N   0  0  0  0  0  2  0  0  0  0  0  0
   -0.6862    0.4975   -0.1543 N   0  0  0  0  0  2  0  0  0  0  0  0
   -2.5752    1.6908   -0.2767 N   0  0  0  0  0  0  0  0  0  0  0  0
   -4.1986   -1.3943    0.4268 C   0  0  0  0  0  0  0  0  0  0  0  0
   -5.1974   -1.8317    0.6193 H   0  0  0  0  0  0  0  0  0  0  0  0
   -2.9501    0.3734   -0.0142 C   0  0  0  0  0  0  0  0  0  0  0  0
   -1.7579   -0.3786    0.0442 C   0  0  0  0  0  0  0  0  0  0  0  0
   -1.8825   -1.8174    0.2539 C   0  0  0  0  0  0  0  0  0  0  0  0
   -1.2116    1.7154   -0.3517 C   0  0  0  0  0  3  0  0  0  0  0  0
   -0.6408    2.6239   -0.5707 H   0  0  0  0  0  0  0  0  0  0  0  0
   -3.5077    2.7901   -0.4388 C   0  0  0  0  0  0  0  0  0  0  0  0
   -4.5190    2.3673   -0.2846 H   0  0  0  0  0  0  0  0  0  0  0  0
   -3.4428    3.2232   -1.4569 H   0  0  0  0  0  0  0  0  0  0  0  0
   -3.3245    3.5850    0.3114 H   0  0  0  0  0  0  0  0  0  0  0  0
  1 10  2  0  0  0  0
  3  6  1  0  0  0  0
  4  9  1  0  0  0  0
  5  8  1  0  0  0  0
  6  2  2  0  0  0  0
  6  7  1  0  0  0  0
  8  9  2  0  0  0  0
  8  3  1  0  0  0  0
  9 10  1  0  0  0  0
 10  2  1  0  0  0  0
 11  5  1  0  0  0  0
 11  4  1  0  0  0  0
 12 11  1  0  0  0  0
 13 14  1  0  0  0  0
 13  5  1  0  0  0  0
 13 16  1  0  0  0  0
 15 13  1  0  0  0  0
M  END
