2
q = 0.0, confidence = 0.892

 61 63  0  0  1  0  0  0  0  0999 V2000
    2.0101    0.5243    0.0019 N   0  0  0  0  0  0  0  0  0  0  0  0
   -0.0000    1.9924    0.0118 N   0  0  0  0  0  2  0  0  0  0  0  0
   -2.0101    0.5243    0.0012 N   0  0  0  0  0  0  0  0  0  0  0  0
    2.3305    1.8297    0.0222 C   0  0  0  0  0  0  0  0  0  0  0  0
    1.1984    2.7029    0.0244 C   0  0  2  0  0  3  0  0  0  0  0  0
    1.2098    4.1083    0.0414 C   0  0  0  0  0  0  0  0  0  0  0  0
    2.1740    4.6353    0.0499 H   0  0  0  0  0  0  0  0  0  0  0  0
   -0.0000    4.8197    0.0482 C   0  0  0  0  0  0  0  0  0  0  0  0
   -0.0000    5.9187    0.0610 H   0  0  0  0  0  0  0  0  0  0  0  0
   -1.2098    4.1083    0.0409 C   0  0  0  0  0  0  0  0  0  0  0  0
   -2.1740    4.6353    0.0490 H   0  0  0  0  0  0  0  0  0  0  0  0
   -1.1984    2.7029    0.0239 C   0  0  0  0  0  0  0  0  0  0  0  0
   -2.3305    1.8297    0.0213 C   0  0  0  0  0  0  0  0  0  0  0  0
    3.0791   -0.4252    0.0057 C   0  0  0  0  0  0  0  0  0  0  0  0
    3.6107   -0.8746   -1.2264 C   0  0  0  0  0  0  0  0  0  0  0  0
    4.6196   -1.8538   -1.1962 C   0  0  0  0  0  0  0  0  0  0  0  0
    5.0310   -2.2154   -2.1529 H   0  0  0  0  0  0  0  0  0  0  0  0
    5.1083   -2.3879    0.0114 C   0  0  0  0  0  0  0  0  0  0  0  0
    4.5478   -1.9211    1.2151 C   0  0  0  0  0  0  0  0  0  0  0  0
    4.9028   -2.3357    2.1728 H   0  0  0  0  0  0  0  0  0  0  0  0
    3.5362   -0.9438    1.2398 C   0  0  0  0  0  0  0  0  0  0  0  0
    3.0728   -0.3285   -2.5211 C   0  0  0  0  0  0  0  0  0  0  0  0
    1.9643   -0.4083   -2.5438 H   0  0  0  0  0  0  0  0  0  0  0  0
    3.4961   -0.8636   -3.3922 H   0  0  0  0  0  0  0  0  0  0  0  0
    3.3044    0.7515   -2.6367 H   0  0  0  0  0  0  0  0  0  0  0  0
    6.2148   -3.4135    0.0136 C   0  0  0  0  0  0  0  0  0  0  0  0
    6.1509   -4.0855   -0.8654 H   0  0  0  0  0  0  0  0  0  0  0  0
    6.1908   -4.0389    0.9278 H   0  0  0  0  0  0  0  0  0  0  0  0
    7.2136   -2.9267   -0.0232 H   0  0  0  0  0  0  0  0  0  0  0  0
    2.9220   -0.4689    2.5283 C   0  0  0  0  0  0  0  0  0  0  0  0
    3.3025   -1.0435    3.3939 H   0  0  0  0  0  0  0  0  0  0  0  0
    1.8145   -0.5586    2.4839 H   0  0  0  0  0  0  0  0  0  0  0  0
    3.1333    0.6064    2.7089 H   0  0  0  0  0  0  0  0  0  0  0  0
    3.7363    2.3531    0.0437 C   0  0  0  0  0  0  0  0  0  0  0  0
    4.4740    1.5321    0.0882 H   0  0  0  0  0  0  0  0  0  0  0  0
    3.8979    3.0161    0.9194 H   0  0  0  0  0  0  0  0  0  0  0  0
    3.9475    2.9602   -0.8622 H   0  0  0  0  0  0  0  0  0  0  0  0
   -3.7363    2.3531    0.0424 C   0  0  0  0  0  0  0  0  0  0  0  0
   -3.9468    2.9614   -0.8629 H   0  0  0  0  0  0  0  0  0  0  0  0
   -3.8986    3.0150    0.9188 H   0  0  0  0  0  0  0  0  0  0  0  0
   -4.4741    1.5321    0.0854 H   0  0  0  0  0  0  0  0  0  0  0  0
   -3.0791   -0.4251    0.0050 C   0  0  0  0  0  0  0  0  0  0  0  0
   -3.5362   -0.9438    1.2395 C   0  0  0  0  0  0  0  0  0  0  0  0
   -4.5475   -1.9210    1.2150 C   0  0  0  0  0  0  0  0  0  0  0  0
   -4.9022   -2.3355    2.1729 H   0  0  0  0  0  0  0  0  0  0  0  0
   -5.1082   -2.3880    0.0112 C   0  0  0  0  0  0  0  0  0  0  0  0
   -4.6197   -1.8542   -1.1963 C   0  0  0  0  0  0  0  0  0  0  0  0
   -5.0313   -2.2160   -2.1528 H   0  0  0  0  0  0  0  0  0  0  0  0
   -3.6107   -0.8747   -1.2267 C   0  0  0  0  0  0  0  0  0  0  0  0
   -2.9217   -0.4686    2.5278 C   0  0  0  0  0  0  0  0  0  0  0  0
   -3.1322    0.6070    2.7076 H   0  0  0  0  0  0  0  0  0  0  0  0
   -1.8143   -0.5591    2.4835 H   0  0  0  0  0  0  0  0  0  0  0  0
   -3.3027   -1.0423    3.3936 H   0  0  0  0  0  0  0  0  0  0  0  0
   -6.2151   -3.4132    0.0159 C   0  0  0  0  0  0  0  0  0  0  0  0
   -7.2134   -2.9259    0.0585 H   0  0  0  0  0  0  0  0  0  0  0  0
   -6.1453   -4.0862    0.8934 H   0  0  0  0  0  0  0  0  0  0  0  0
   -6.1980   -4.0375   -0.8994 H   0  0  0  0  0  0  0  0  0  0  0  0
   -3.0730   -0.3290   -2.5217 C   0  0  0  0  0  0  0  0  0  0  0  0
   -3.3056    0.7507   -2.6381 H   0  0  0  0  0  0  0  0  0  0  0  0
   -3.4955   -0.8651   -3.3925 H   0  0  0  0  0  0  0  0  0  0  0  0
   -1.9644   -0.4077   -2.5441 H   0  0  0  0  0  0  0  0  0  0  0  0
  1 14  1  0  0  0  0
  1  4  2  0  0  0  0
  2 12  1  0  0  0  0
  2  5  1  0  0  0  0
  3 42  1  0  0  0  0
  3 13  2  0  0  0  0
  4 34  1  0  0  0  0
  5  4  1  1  0  0  0
  5  6  1  0  0  0  0
  6  8  2  0  0  0  0
  6  7  1  0  0  0  0
  8  9  1  0  0  0  0
 10  8  1  0  0  0  0
 10 11  1  0  0  0  0
 12 10  2  0  0  0  0
 13 12  1  0  0  0  0
 13 38  1  0  0  0  0
 14 21  1  0  0  0  0
 15 16  1  0  0  0  0
 15 14  2  0  0  0  0
 16 18  2  0  0  0  0
 17 16  1  0  0  0  0
 18 26  1  0  0  0  0
 18 19  1  0  0  0  0
 19 21  2  0  0  0  0
 19 20  1  0  0  0  0
 21 30  1  0  0  0  0
 22 15  1  0  0  0  0
 23 22  1  0  0  0  0
 24 22  1  0  0  0  0
 25 22  1  0  0  0  0
 26 28  1  0  0  0  0
 27 26  1  0  0  0  0
 29 26  1  0  0  0  0
 30 33  1  0  0  0  0
 30 31  1  0  0  0  0
 32 30  1  0  0  0  0
 34 35  1  0  0  0  0
 34 36  1  0  0  0  0
 37 34  1  0  0  0  0
 38 41  1  0  0  0  0
 38 40  1  0  0  0  0
 39 38  1  0  0  0  0
 42 43  1  0  0  0  0
 43 50  1  0  0  0  0
 44 43  2  0  0  0  0
 44 45  1  0  0  0  0
 46 54  1  0  0  0  0
 46 44  1  0  0  0  0
 47 46  2  0  0  0  0
 48 47  1  0  0  0  0
 49 47  1  0  0  0  0
 49 42  2  0  0  0  0
 50 51  1  0  0  0  0
 50 53  1  0  0  0  0
 52 50  1  0  0  0  0
 54 55  1  0  0  0  0
 54 56  1  0  0  0  0
 57 54  1  0  0  0  0
 58 49  1  0  0  0  0
 59 58  1  0  0  0  0
 60 58  1  0  0  0  0
 61 58  1  0  0  0  0
M  END
