1
q = -1.0, confidence = 0.004

 11 10  0  0  0  0  0  0  0  0999 V2000
    1.5484    0.0003    1.1634 N   0  0  0  0  0  2  0  0  0  0  0  0
    2.5714   -0.0002    0.2255 N   0  0  0  0  0  0  0  0  0  0  0  0
    3.3751   -1.2237    0.1878 C   0  0  0  0  0  0  0  0  0  0  0  0
    3.3759    1.2227    0.1873 C   0  0  0  0  0  0  0  0  0  0  0  0
    1.8077   -0.0017    2.1623 H   0  0  0  0  0  0  0  0  0  0  0  0
    2.6997   -2.0962    0.1367 H   0  0  0  0  0  0  0  0  0  0  0  0
    4.0317   -1.2958    1.0877 H   0  0  0  0  0  0  0  0  0  0  0  0
    4.0107   -1.2206   -0.7185 H   0  0  0  0  0  0  0  0  0  0  0  0
    2.7011    2.0957    0.1363 H   0  0  0  0  0  0  0  0  0  0  0  0
    4.0329    1.2946    1.0869 H   0  0  0  0  0  0  0  0  0  0  0  0
    4.0110    1.2191   -0.7194 H   0  0  0  0  0  0  0  0  0  0  0  0
  1  5  1  0  0  0  0
  2  1  1  0  0  0  0
  3  2  1  0  0  0  0
  3  7  1  0  0  0  0
  4  2  1  0  0  0  0
  4 10  1  0  0  0  0
  6  3  1  0  0  0  0
  8  3  1  0  0  0  0
  9  4  1  0  0  0  0
 11  4  1  0  0  0  0
M  END
