7
q = 0.0, confidence = 0.994

 51 52  0  0  0  0  0  0  0  0999 V2000
    4.1776   -2.5778    0.4027 O   0  0  0  0  0  0  0  0  0  0  0  0
    3.1642   -2.5634    0.5109 H   0  0  0  0  0  0  0  0  0  0  0  0
    1.7533   -1.7682    0.7007 N   0  0  0  0  0  0  0  0  0  0  0  0
    0.8454   -3.7140    2.4474 N   0  0  0  0  0  0  0  0  0  0  0  0
    0.5728   -4.4863    3.0514 H   0  0  0  0  0  0  0  0  0  0  0  0
    1.8351   -3.4857    2.3488 H   0  0  0  0  0  0  0  0  0  0  0  0
   -1.8991   -1.5772    0.0903 N   0  0  0  0  0  2  0  0  0  0  0  0
   -0.5625   -1.3616    0.0112 C   0  0  0  0  0  3  0  0  0  0  0  0
   -0.2184   -0.6410   -0.7430 H   0  0  0  0  0  0  0  0  0  0  0  0
    0.3895   -2.0238    0.7917 C   0  0  0  0  0  0  0  0  0  0  0  0
   -0.0573   -3.0493    1.6945 C   0  0  0  0  0  0  0  0  0  0  0  0
   -1.4543   -3.2816    1.7479 C   0  0  0  0  0  0  0  0  0  0  0  0
   -1.8654   -4.0502    2.4179 H   0  0  0  0  0  0  0  0  0  0  0  0
   -2.3206   -2.5320    0.9592 C   0  0  0  0  0  0  0  0  0  0  0  0
   -3.4046   -2.7091    1.0079 H   0  0  0  0  0  0  0  0  0  0  0  0
    2.2035   -0.5510    0.5004 C   0  0  0  0  0  0  0  0  0  0  0  0
    1.4995    0.3125    0.5093 H   0  0  0  0  0  0  0  0  0  0  0  0
    3.5887   -0.2536    0.2788 C   0  0  0  0  0  0  0  0  0  0  0  0
    4.5667   -1.3071    0.2361 C   0  0  0  0  0  0  0  0  0  0  0  0
    5.9369   -0.9852    0.0142 C   0  0  0  0  0  0  0  0  0  0  0  0
    6.2518    0.3728   -0.1580 C   0  0  0  0  0  0  0  0  0  0  0  0
    7.3037    0.6240   -0.3319 H   0  0  0  0  0  0  0  0  0  0  0  0
    5.3150    1.4386   -0.1269 C   0  0  0  0  0  0  0  0  0  0  0  0
    3.9842    1.0959    0.0983 C   0  0  0  0  0  0  0  0  0  0  0  0
    3.1998    1.8684    0.1394 H   0  0  0  0  0  0  0  0  0  0  0  0
    7.0180   -2.0807   -0.0378 C   0  0  0  0  0  0  0  0  0  0  0  0
    6.7062   -3.0603   -1.1949 C   0  0  0  0  0  0  0  0  0  0  0  0
    7.4854   -3.8483   -1.2402 H   0  0  0  0  0  0  0  0  0  0  0  0
    6.7041   -2.5293   -2.1683 H   0  0  0  0  0  0  0  0  0  0  0  0
    5.7258   -3.5529   -1.0630 H   0  0  0  0  0  0  0  0  0  0  0  0
    7.0520   -2.8390    1.3110 C   0  0  0  0  0  0  0  0  0  0  0  0
    7.2974   -2.1487    2.1436 H   0  0  0  0  0  0  0  0  0  0  0  0
    7.8339   -3.6250    1.2804 H   0  0  0  0  0  0  0  0  0  0  0  0
    6.0846   -3.3254    1.5320 H   0  0  0  0  0  0  0  0  0  0  0  0
    8.4183   -1.4900   -0.2824 C   0  0  0  0  0  0  0  0  0  0  0  0
    8.7270   -0.7942    0.5242 H   0  0  0  0  0  0  0  0  0  0  0  0
    8.4841   -0.9544   -1.2511 H   0  0  0  0  0  0  0  0  0  0  0  0
    9.1608   -2.3116   -0.3103 H   0  0  0  0  0  0  0  0  0  0  0  0
    5.7191    2.9107   -0.3293 C   0  0  0  0  0  0  0  0  0  0  0  0
    4.9658    3.4787   -1.5538 C   0  0  0  0  0  0  0  0  0  0  0  0
    3.8655    3.4168   -1.4237 H   0  0  0  0  0  0  0  0  0  0  0  0
    5.2239    2.9195   -2.4754 H   0  0  0  0  0  0  0  0  0  0  0  0
    5.2270    4.5449   -1.7130 H   0  0  0  0  0  0  0  0  0  0  0  0
    5.3395    3.7190    0.9324 C   0  0  0  0  0  0  0  0  0  0  0  0
    5.8691    3.3320    1.8260 H   0  0  0  0  0  0  0  0  0  0  0  0
    4.2514    3.6709    1.1406 H   0  0  0  0  0  0  0  0  0  0  0  0
    5.6119    4.7870    0.8071 H   0  0  0  0  0  0  0  0  0  0  0  0
    7.2297    3.0709   -0.5732 C   0  0  0  0  0  0  0  0  0  0  0  0
    7.4750    4.1420   -0.7160 H   0  0  0  0  0  0  0  0  0  0  0  0
    7.5621    2.5309   -1.4824 H   0  0  0  0  0  0  0  0  0  0  0  0
    7.8284    2.7062    0.2853 H   0  0  0  0  0  0  0  0  0  0  0  0
  1  2  1  0  0  0  0
  3 10  1  0  0  0  0
  4  5  1  0  0  0  0
  6  4  1  0  0  0  0
  7 14  1  0  0  0  0
  8  7  1  0  0  0  0
  8 10  1  0  0  0  0
  9  8  1  0  0  0  0
 10 11  2  0  0  0  0
 11 12  1  0  0  0  0
 11  4  1  0  0  0  0
 12 13  1  0  0  0  0
 14 15  1  0  0  0  0
 14 12  2  0  0  0  0
 16 17  1  0  0  0  0
 16  3  2  0  0  0  0
 18 16  1  0  0  0  0
 19 18  1  0  0  0  0
 19  1  1  0  0  0  0
 20 19  2  0  0  0  0
 21 23  2  0  0  0  0
 21 20  1  0  0  0  0
 22 21  1  0  0  0  0
 23 24  1  0  0  0  0
 24 25  1  0  0  0  0
 24 18  2  0  0  0  0
 26 20  1  0  0  0  0
 26 31  1  0  0  0  0
 27 30  1  0  0  0  0
 27 26  1  0  0  0  0
 28 27  1  0  0  0  0
 29 27  1  0  0  0  0
 31 34  1  0  0  0  0
 31 32  1  0  0  0  0
 33 31  1  0  0  0  0
 35 26  1  0  0  0  0
 35 36  1  0  0  0  0
 37 35  1  0  0  0  0
 38 35  1  0  0  0  0
 39 23  1  0  0  0  0
 39 44  1  0  0  0  0
 40 41  1  0  0  0  0
 40 39  1  0  0  0  0
 42 40  1  0  0  0  0
 43 40  1  0  0  0  0
 44 46  1  0  0  0  0
 44 45  1  0  0  0  0
 47 44  1  0  0  0  0
 48 39  1  0  0  0  0
 48 51  1  0  0  0  0
 49 48  1  0  0  0  0
 50 48  1  0  0  0  0
M  END
