2
q = 0.0, confidence = 1.0

 33 35  0  0  0  0  0  0  0  0999 V2000
    4.2373    1.5612    1.6698 P   0  0  0  0  0  0  0  0  0  0  0  0
    0.0042   -0.0049    0.5458 N   0  0  0  0  0  2  0  0  0  0  0  0
    2.5053    1.0484    1.2786 C   0  0  0  0  0  0  0  0  0  0  0  0
    2.0664   -0.2015    1.7668 C   0  0  0  0  0  0  0  0  0  0  0  0
    2.7133   -0.8139    2.4135 H   0  0  0  0  0  0  0  0  0  0  0  0
    0.8260   -0.6958    1.3639 C   0  0  0  0  0  3  0  0  0  0  0  0
    0.4893   -1.7019    1.6608 H   0  0  0  0  0  0  0  0  0  0  0  0
    0.3714    1.2287    0.1492 C   0  0  0  0  0  0  0  0  0  0  0  0
   -0.3470    1.7447   -0.5127 H   0  0  0  0  0  0  0  0  0  0  0  0
    1.6077    1.7914    0.4897 C   0  0  0  0  0  0  0  0  0  0  0  0
    1.8850    2.7801    0.0965 H   0  0  0  0  0  0  0  0  0  0  0  0
    4.3525    3.1582    0.7430 C   0  0  0  0  0  0  0  0  0  0  0  0
    4.0219    4.3343    1.4503 C   0  0  0  0  0  0  0  0  0  0  0  0
    3.7333    4.2673    2.5118 H   0  0  0  0  0  0  0  0  0  0  0  0
    4.0584    5.5827    0.8115 C   0  0  0  0  0  0  0  0  0  0  0  0
    3.7924    6.4923    1.3714 H   0  0  0  0  0  0  0  0  0  0  0  0
    4.4461    5.6714   -0.5353 C   0  0  0  0  0  0  0  0  0  0  0  0
    4.4837    6.6512   -1.0351 H   0  0  0  0  0  0  0  0  0  0  0  0
    4.7918    4.5074   -1.2407 C   0  0  0  0  0  0  0  0  0  0  0  0
    5.0989    4.5729   -2.2958 H   0  0  0  0  0  0  0  0  0  0  0  0
    4.7435    3.2557   -0.6082 C   0  0  0  0  0  0  0  0  0  0  0  0
    5.0087    2.3460   -1.1676 H   0  0  0  0  0  0  0  0  0  0  0  0
    5.1500    0.3996    0.5484 C   0  0  0  0  0  0  0  0  0  0  0  0
    6.5424    0.2916    0.7573 C   0  0  0  0  0  0  0  0  0  0  0  0
    7.0147    0.8644    1.5716 H   0  0  0  0  0  0  0  0  0  0  0  0
    7.3255   -0.5350   -0.0613 C   0  0  0  0  0  0  0  0  0  0  0  0
    8.4102   -0.6059    0.1117 H   0  0  0  0  0  0  0  0  0  0  0  0
    6.7246   -1.2783   -1.0903 C   0  0  0  0  0  0  0  0  0  0  0  0
    7.3371   -1.9321   -1.7296 H   0  0  0  0  0  0  0  0  0  0  0  0
    5.3391   -1.1867   -1.2972 C   0  0  0  0  0  0  0  0  0  0  0  0
    4.8581   -1.7627   -2.1025 H   0  0  0  0  0  0  0  0  0  0  0  0
    4.5526   -0.3528   -0.4863 C   0  0  0  0  0  0  0  0  0  0  0  0
    3.4687   -0.3004   -0.6693 H   0  0  0  0  0  0  0  0  0  0  0  0
  2  6  1  0  0  0  0
  3  1  1  0  0  0  0
  3  4  2  0  0  0  0
  4  5  1  0  0  0  0
  6  7  1  0  0  0  0
  6  4  1  0  0  0  0
  8 10  2  0  0  0  0
  8  2  1  0  0  0  0
  9  8  1  0  0  0  0
 10  3  1  0  0  0  0
 11 10  1  0  0  0  0
 12 13  1  0  0  0  0
 12  1  1  0  0  0  0
 13 14  1  0  0  0  0
 15 16  1  0  0  0  0
 15 13  2  0  0  0  0
 17 15  1  0  0  0  0
 18 17  1  0  0  0  0
 19 21  1  0  0  0  0
 19 17  2  0  0  0  0
 20 19  1  0  0  0  0
 21 12  2  0  0  0  0
 22 21  1  0  0  0  0
 23 24  1  0  0  0  0
 23  1  1  0  0  0  0
 24 25  1  0  0  0  0
 26 27  1  0  0  0  0
 26 24  2  0  0  0  0
 28 26  1  0  0  0  0
 29 28  1  0  0  0  0
 30 28  2  0  0  0  0
 30 32  1  0  0  0  0
 31 30  1  0  0  0  0
 32 23  2  0  0  0  0
 33 32  1  0  0  0  0
M  END
