1
q = -1.0

  9  9  0  0  0  0  0  0  0  0999 V2000
    1.9298    0.4885    0.0333 N   0  0  0  0  0  2  0  0  0  0  0  0
    2.5430   -1.7836    0.2685 O   0  0  0  0  0  0  0  0  0  0  0  0
    2.7771   -0.5855    0.1783 C   0  0  0  0  0  0  0  0  0  0  0  0
    4.0412    0.3081    0.1831 C   0  0  0  0  0  0  0  0  0  0  0  0
    4.7302    0.1318   -0.6667 H   0  0  0  0  0  0  0  0  0  0  0  0
    4.6013    0.2924    1.1390 H   0  0  0  0  0  0  0  0  0  0  0  0
    3.0288    1.4699    0.0115 C   0  0  0  0  0  0  0  0  0  0  0  0
    2.9993    2.2064    0.8455 H   0  0  0  0  0  0  0  0  0  0  0  0
    3.1211    2.0267   -0.9494 H   0  0  0  0  0  0  0  0  0  0  0  0
  1  3  1  0  0  0  0
  3  4  1  0  0  0  0
  3  2  2  0  0  0  0
  4  6  1  0  0  0  0
  5  4  1  0  0  0  0
  7  1  1  0  0  0  0
  7  4  1  0  0  0  0
  7  8  1  0  0  0  0
  9  7  1  0  0  0  0
M  END
