1
q = -1.0

 40 41  0  0  0  0  0  0  0  0999 V2000
    0.4125    0.0835   -0.1995 N   0  0  0  0  0  2  0  0  0  0  0  0
    3.8164    0.2553   -1.2401 N   0  0  0  0  0  0  0  0  0  0  0  0
    1.1847    1.0997    0.4220 C   0  0  0  0  0  0  0  0  0  0  0  0
    1.6990    0.9049    1.7325 C   0  0  0  0  0  0  0  0  0  0  0  0
    2.3977    1.9641    2.3479 C   0  0  0  0  0  0  0  0  0  0  0  0
    2.7840    1.8209    3.3696 H   0  0  0  0  0  0  0  0  0  0  0  0
    2.5876    3.1870    1.6954 C   0  0  0  0  0  0  0  0  0  0  0  0
    3.1200    4.0076    2.2000 H   0  0  0  0  0  0  0  0  0  0  0  0
    2.1011    3.3586    0.3915 C   0  0  0  0  0  0  0  0  0  0  0  0
    2.2600    4.3132   -0.1350 H   0  0  0  0  0  0  0  0  0  0  0  0
    1.4141    2.3239   -0.2688 C   0  0  0  0  0  0  0  0  0  0  0  0
    1.5103   -0.3895    2.4803 C   0  0  0  0  0  0  0  0  0  0  0  0
    0.6531   -0.9691    2.0909 H   0  0  0  0  0  0  0  0  0  0  0  0
    1.3643   -0.2060    3.5640 H   0  0  0  0  0  0  0  0  0  0  0  0
    2.4033   -1.0405    2.3747 H   0  0  0  0  0  0  0  0  0  0  0  0
    0.9777    2.5019   -1.6990 C   0  0  0  0  0  0  0  0  0  0  0  0
    0.8037    3.5683   -1.9411 H   0  0  0  0  0  0  0  0  0  0  0  0
    0.0620    1.9269   -1.9356 H   0  0  0  0  0  0  0  0  0  0  0  0
    1.7697    2.1331   -2.3857 H   0  0  0  0  0  0  0  0  0  0  0  0
    1.1182   -0.7919   -1.1727 C   0  0  0  0  0  0  0  0  0  0  0  0
    2.2847   -1.5401   -0.5596 C   0  0  0  0  0  0  0  0  0  0  0  0
    3.5756   -0.9429   -0.5122 C   0  0  0  0  0  0  0  0  0  0  0  0
    4.5794   -1.5524    0.2714 C   0  0  0  0  0  0  0  0  0  0  0  0
    5.5730   -1.0864    0.3349 H   0  0  0  0  0  0  0  0  0  0  0  0
    4.3336   -2.7551    0.9504 C   0  0  0  0  0  0  0  0  0  0  0  0
    5.1343   -3.2143    1.5509 H   0  0  0  0  0  0  0  0  0  0  0  0
    3.0830   -3.3810    0.8422 C   0  0  0  0  0  0  0  0  0  0  0  0
    2.8889   -4.3346    1.3553 H   0  0  0  0  0  0  0  0  0  0  0  0
    2.0672   -2.7643    0.0966 C   0  0  0  0  0  0  0  0  0  0  0  0
    1.0639   -3.2149    0.0538 H   0  0  0  0  0  0  0  0  0  0  0  0
    3.9815    0.0804   -2.6762 C   0  0  0  0  0  0  0  0  0  0  0  0
    4.9848   -0.3389   -2.9464 H   0  0  0  0  0  0  0  0  0  0  0  0
    3.8717    1.0571   -3.1934 H   0  0  0  0  0  0  0  0  0  0  0  0
    3.2157   -0.6103   -3.0776 H   0  0  0  0  0  0  0  0  0  0  0  0
    4.7668    1.1914   -0.6728 C   0  0  0  0  0  0  0  0  0  0  0  0
    4.5635    1.3220    0.4070 H   0  0  0  0  0  0  0  0  0  0  0  0
    4.6356    2.1799   -1.1601 H   0  0  0  0  0  0  0  0  0  0  0  0
    5.8385    0.8924   -0.8083 H   0  0  0  0  0  0  0  0  0  0  0  0
    1.4209   -0.2005   -2.0600 H   0  0  0  0  0  0  0  0  0  0  0  0
    0.3896   -1.5483   -1.5631 H   0  0  0  0  0  0  0  0  0  0  0  0
  1  3  1  0  0  0  0
  2 35  1  0  0  0  0
  2 22  1  0  0  0  0
  3  4  1  0  0  0  0
  4  5  2  0  0  0  0
  4 12  1  0  0  0  0
  5  6  1  0  0  0  0
  7  8  1  0  0  0  0
  7  5  1  0  0  0  0
  9  7  2  0  0  0  0
 10  9  1  0  0  0  0
 11  9  1  0  0  0  0
 11  3  2  0  0  0  0
 12 14  1  0  0  0  0
 13 12  1  0  0  0  0
 15 12  1  0  0  0  0
 16 11  1  0  0  0  0
 17 16  1  0  0  0  0
 18 16  1  0  0  0  0
 19 16  1  0  0  0  0
 20 21  1  0  0  0  0
 20  1  1  0  0  0  0
 21 22  2  0  0  0  0
 21 29  1  0  0  0  0
 22 23  1  0  0  0  0
 23 24  1  0  0  0  0
 23 25  2  0  0  0  0
 25 26  1  0  0  0  0
 27 25  1  0  0  0  0
 27 28  1  0  0  0  0
 29 27  2  0  0  0  0
 30 29  1  0  0  0  0
 31  2  1  0  0  0  0
 32 31  1  0  0  0  0
 33 31  1  0  0  0  0
 34 31  1  0  0  0  0
 35 36  1  0  0  0  0
 37 35  1  0  0  0  0
 38 35  1  0  0  0  0
 39 20  1  0  0  0  0
 40 20  1  0  0  0  0
M  END
