1
q = -1.0

 33 33  0  0  0  0  0  0  0  0999 V2000
   -0.4196   -0.9469   -0.2849 N   0  0  0  0  0  2  0  0  0  0  0  0
   -4.4819   -0.7923    1.0246 N   0  0  0  0  0  0  0  0  0  0  0  0
   -1.6530   -0.7770    0.4491 C   0  0  0  0  0  0  0  0  0  0  0  0
   -1.3943   -0.5805    1.5102 H   0  0  0  0  0  0  0  0  0  0  0  0
   -2.2478   -1.7196    0.4741 H   0  0  0  0  0  0  0  0  0  0  0  0
   -2.5798    0.3180   -0.0657 C   0  0  0  0  0  0  0  0  0  0  0  0
   -3.9761    0.2605    0.2158 C   0  0  0  0  0  0  0  0  0  0  0  0
   -4.8321    1.2252   -0.3636 C   0  0  0  0  0  0  0  0  0  0  0  0
   -5.9117    1.1819   -0.1626 H   0  0  0  0  0  0  0  0  0  0  0  0
   -4.3256    2.2481   -1.1769 C   0  0  0  0  0  0  0  0  0  0  0  0
   -5.0138    2.9887   -1.6124 H   0  0  0  0  0  0  0  0  0  0  0  0
   -2.9482    2.3267   -1.4250 C   0  0  0  0  0  0  0  0  0  0  0  0
   -2.5368    3.1216   -2.0649 H   0  0  0  0  0  0  0  0  0  0  0  0
   -2.0946    1.3592   -0.8744 C   0  0  0  0  0  0  0  0  0  0  0  0
   -1.0219    1.3738   -1.1221 H   0  0  0  0  0  0  0  0  0  0  0  0
   -4.1379   -0.7415    2.4392 C   0  0  0  0  0  0  0  0  0  0  0  0
   -3.0800   -0.4556    2.5817 H   0  0  0  0  0  0  0  0  0  0  0  0
   -4.2888   -1.7379    2.9050 H   0  0  0  0  0  0  0  0  0  0  0  0
   -4.7625   -0.0009    3.0003 H   0  0  0  0  0  0  0  0  0  0  0  0
   -5.8597   -1.1919    0.8115 C   0  0  0  0  0  0  0  0  0  0  0  0
   -6.6107   -0.4847    1.2489 H   0  0  0  0  0  0  0  0  0  0  0  0
   -6.0284   -2.1804    1.2869 H   0  0  0  0  0  0  0  0  0  0  0  0
   -6.0659   -1.2897   -0.2717 H   0  0  0  0  0  0  0  0  0  0  0  0
   -0.4699   -1.8625   -1.4479 C   0  0  0  0  0  0  0  0  0  0  0  0
   -1.4729   -1.4535   -2.5346 C   0  0  0  0  0  0  0  0  0  0  0  0
   -2.5119   -1.4916   -2.1503 H   0  0  0  0  0  0  0  0  0  0  0  0
   -1.4013   -2.1480   -3.3956 H   0  0  0  0  0  0  0  0  0  0  0  0
   -1.2759   -0.4271   -2.8957 H   0  0  0  0  0  0  0  0  0  0  0  0
   -0.6302   -3.3291   -1.0234 C   0  0  0  0  0  0  0  0  0  0  0  0
    0.1708   -3.6197   -0.3164 H   0  0  0  0  0  0  0  0  0  0  0  0
   -0.5793   -4.0003   -1.9036 H   0  0  0  0  0  0  0  0  0  0  0  0
   -1.6136   -3.4917   -0.5363 H   0  0  0  0  0  0  0  0  0  0  0  0
    0.5437   -1.8033   -1.9419 H   0  0  0  0  0  0  0  0  0  0  0  0
  1  3  1  0  0  0  0
  2 16  1  0  0  0  0
  3  5  1  0  0  0  0
  3  4  1  0  0  0  0
  6  7  1  0  0  0  0
  6  3  1  0  0  0  0
  7  2  1  0  0  0  0
  8  9  1  0  0  0  0
  8  7  2  0  0  0  0
 10  8  1  0  0  0  0
 11 10  1  0  0  0  0
 12 10  2  0  0  0  0
 12 14  1  0  0  0  0
 13 12  1  0  0  0  0
 14  6  2  0  0  0  0
 15 14  1  0  0  0  0
 16 17  1  0  0  0  0
 16 18  1  0  0  0  0
 16 19  1  0  0  0  0
 20  2  1  0  0  0  0
 20 21  1  0  0  0  0
 20 22  1  0  0  0  0
 23 20  1  0  0  0  0
 24 29  1  0  0  0  0
 24  1  1  0  0  0  0
 25 26  1  0  0  0  0
 25 24  1  0  0  0  0
 27 25  1  0  0  0  0
 28 25  1  0  0  0  0
 29 32  1  0  0  0  0
 29 30  1  0  0  0  0
 31 29  1  0  0  0  0
 33 24  1  0  0  0  0
M  END
