1
q = 0.0, confidence = 0.996

 22 23  0  0  0  0  0  0  0  0999 V2000
    1.4654   -1.6523   -0.7284 N   0  0  0  0  0  2  0  0  0  0  0  0
   -2.1849   -2.1857   -0.7694 N   0  0  0  0  0  0  0  0  0  0  0  0
   -2.8262   -2.4896   -1.5047 H   0  0  0  0  0  0  0  0  0  0  0  0
   -4.4297   -0.4939    2.4135 N   0  0  0  0  0  0  0  0  0  0  0  0
    1.7700   -1.7138   -2.0361 C   0  0  0  0  0  3  0  0  0  0  0  0
    2.8240   -1.5177   -2.2933 H   0  0  0  0  0  0  0  0  0  0  0  0
    0.7792   -2.0232   -2.9803 C   0  0  0  0  0  0  0  0  0  0  0  0
    1.0373   -2.1063   -4.0459 H   0  0  0  0  0  0  0  0  0  0  0  0
   -0.5411   -2.1939   -2.5551 C   0  0  0  0  0  0  0  0  0  0  0  0
   -1.3375   -2.4011   -3.2882 H   0  0  0  0  0  0  0  0  0  0  0  0
   -0.8649   -2.0827   -1.1784 C   0  0  0  0  0  0  0  0  0  0  0  0
    0.2135   -1.8673   -0.2917 C   0  0  0  0  0  0  0  0  0  0  0  0
    0.1138   -1.8695    0.8042 H   0  0  0  0  0  0  0  0  0  0  0  0
   -2.8493   -1.6412    0.3333 C   0  0  0  0  0  0  0  0  0  0  0  0
   -4.2602   -1.7594    0.3554 C   0  0  0  0  0  0  0  0  0  0  0  0
   -4.7869   -2.2761   -0.4620 H   0  0  0  0  0  0  0  0  0  0  0  0
   -4.9852   -1.1788    1.3976 C   0  0  0  0  0  0  0  0  0  0  0  0
   -6.0865   -1.2667    1.4043 H   0  0  0  0  0  0  0  0  0  0  0  0
   -3.0924   -0.3991    2.3950 C   0  0  0  0  0  0  0  0  0  0  0  0
   -2.6250    0.1520    3.2308 H   0  0  0  0  0  0  0  0  0  0  0  0
   -2.2540   -0.9440    1.4088 C   0  0  0  0  0  0  0  0  0  0  0  0
   -1.1728   -0.8097    1.5295 H   0  0  0  0  0  0  0  0  0  0  0  0
  1 12  1  0  0  0  0
  2 14  1  0  0  0  0
  3  2  1  0  0  0  0
  5  1  1  0  0  0  0
  6  5  1  0  0  0  0
  7  9  2  0  0  0  0
  7  5  1  0  0  0  0
  8  7  1  0  0  0  0
  9 11  1  0  0  0  0
 10  9  1  0  0  0  0
 11  2  1  0  0  0  0
 11 12  2  0  0  0  0
 12 13  1  0  0  0  0
 14 15  2  0  0  0  0
 14 21  1  0  0  0  0
 15 17  1  0  0  0  0
 16 15  1  0  0  0  0
 17 18  1  0  0  0  0
 17  4  2  0  0  0  0
 19  4  1  0  0  0  0
 19 20  1  0  0  0  0
 21 22  1  0  0  0  0
 21 19  2  0  0  0  0
M  END
