1
q = 0.0, confidence = 0.996

 36 38  0  0  1  0  0  0  0  0999 V2000
    1.9390    0.0594    0.4345 N   0  0  0  0  0  2  0  0  0  0  0  0
    2.7257   -0.9160    0.2580 N   0  0  0  0  0  2  0  0  0  0  0  0
    2.6659    1.2862    0.8777 C   0  0  1  0  0  0  0  0  0  0  0  0
    3.9954   -0.5227    0.3984 N   0  0  0  0  0  0  0  0  0  0  0  0
    4.0997    0.9624    0.4002 C   0  0  1  0  0  0  0  0  0  0  0  0
    1.9873    2.5646    0.4050 C   0  0  0  0  0  0  0  0  0  0  0  0
    2.6229    1.2427    1.9921 H   0  0  0  0  0  0  0  0  0  0  0  0
    5.0535   -1.4340    0.2374 C   0  0  0  0  0  0  0  0  0  0  0  0
    4.4861    1.4629   -1.0076 C   0  0  0  0  0  0  0  0  0  0  0  0
    4.8468    1.2717    1.1557 H   0  0  0  0  0  0  0  0  0  0  0  0
    2.5235    3.8485    1.0427 C   0  0  0  0  0  0  0  0  0  0  0  0
    0.9110    2.4580    0.6586 H   0  0  0  0  0  0  0  0  0  0  0  0
    2.0129    2.6093   -0.7017 H   0  0  0  0  0  0  0  0  0  0  0  0
    4.7918   -2.7957   -0.0358 C   0  0  0  0  0  0  0  0  0  0  0  0
    6.3876   -0.9900    0.3681 C   0  0  0  0  0  0  0  0  0  0  0  0
    5.2239    2.8077   -1.0626 C   0  0  0  0  0  0  0  0  0  0  0  0
    5.1592    0.6989   -1.4475 H   0  0  0  0  0  0  0  0  0  0  0  0
    3.5784    1.4605   -1.6487 H   0  0  0  0  0  0  0  0  0  0  0  0
    4.0062    4.1734    0.7972 C   0  0  0  0  0  0  0  0  0  0  0  0
    2.3346    3.8225    2.1383 H   0  0  0  0  0  0  0  0  0  0  0  0
    1.9099    4.6882    0.6518 H   0  0  0  0  0  0  0  0  0  0  0  0
    5.8582   -3.6888   -0.1783 C   0  0  0  0  0  0  0  0  0  0  0  0
    3.7511   -3.1306   -0.1318 H   0  0  0  0  0  0  0  0  0  0  0  0
    7.4429   -1.9009    0.2184 C   0  0  0  0  0  0  0  0  0  0  0  0
    6.6069    0.0636    0.5884 H   0  0  0  0  0  0  0  0  0  0  0  0
    4.4646    4.0860   -0.6747 C   0  0  0  0  0  0  0  0  0  0  0  0
    6.1345    2.7330   -0.4232 H   0  0  0  0  0  0  0  0  0  0  0  0
    5.6023    2.9314   -2.0993 H   0  0  0  0  0  0  0  0  0  0  0  0
    4.6529    3.5193    1.4237 H   0  0  0  0  0  0  0  0  0  0  0  0
    4.1906    5.1979    1.1821 H   0  0  0  0  0  0  0  0  0  0  0  0
    7.1889   -3.2525   -0.0551 C   0  0  0  0  0  0  0  0  0  0  0  0
    5.6434   -4.7469   -0.3917 H   0  0  0  0  0  0  0  0  0  0  0  0
    8.4781   -1.5419    0.3211 H   0  0  0  0  0  0  0  0  0  0  0  0
    5.1384    4.9401   -0.8947 H   0  0  0  0  0  0  0  0  0  0  0  0
    3.5915    4.2214   -1.3503 H   0  0  0  0  0  0  0  0  0  0  0  0
    8.0207   -3.9626   -0.1702 H   0  0  0  0  0  0  0  0  0  0  0  0
  1  3  1  0  0  0  0
  2  4  1  0  0  0  0
  2  1  1  0  0  0  0
  3  7  1  1  0  0  0
  4  5  1  0  0  0  0
  5  3  1  0  0  0  0
  5 10  1  1  0  0  0
  6 12  1  0  0  0  0
  6  3  1  0  0  0  0
  6 11  1  0  0  0  0
  8 15  1  0  0  0  0
  8  4  1  0  0  0  0
  9  5  1  0  0  0  0
 11 20  1  0  0  0  0
 13  6  1  0  0  0  0
 14  8  2  0  0  0  0
 15 25  1  0  0  0  0
 16  9  1  0  0  0  0
 16 26  1  0  0  0  0
 16 27  1  0  0  0  0
 17  9  1  0  0  0  0
 18  9  1  0  0  0  0
 19 11  1  0  0  0  0
 19 30  1  0  0  0  0
 19 29  1  0  0  0  0
 21 11  1  0  0  0  0
 22 31  2  0  0  0  0
 22 14  1  0  0  0  0
 23 14  1  0  0  0  0
 24 33  1  0  0  0  0
 24 15  2  0  0  0  0
 26 19  1  0  0  0  0
 28 16  1  0  0  0  0
 31 24  1  0  0  0  0
 32 22  1  0  0  0  0
 34 26  1  0  0  0  0
 35 26  1  0  0  0  0
 36 31  1  0  0  0  0
M  END
