32
q = 0.0, confidence = 0.988

 34 35  0  0  0  0  0  0  0  0999 V2000
    1.6248    2.9995   -1.3993 C   0  0  0  0  0  0  0  0  0  0  0  0
    2.6419    3.2818   -1.0975 H   0  0  0  0  0  0  0  0  0  0  0  0
    0.6221    3.7732   -1.9858 C   0  0  0  0  0  3  0  0  0  0  0  0
    0.6057    4.8180   -2.3123 H   0  0  0  0  0  0  0  0  0  0  0  0
   -0.1111    1.7179   -1.6255 C   0  0  0  0  0  0  0  0  0  0  0  0
   -1.7816    3.3006   -2.6736 C   0  0  0  0  0  0  0  0  0  0  0  0
   -2.1942    2.3796   -3.1305 H   0  0  0  0  0  0  0  0  0  0  0  0
   -1.6151    4.0398   -3.4826 H   0  0  0  0  0  0  0  0  0  0  0  0
   -2.7357    3.8375   -1.6109 C   0  0  0  0  0  0  0  0  0  0  0  0
   -2.8998    3.0824   -0.8181 H   0  0  0  0  0  0  0  0  0  0  0  0
   -3.7149    4.0768   -2.0719 H   0  0  0  0  0  0  0  0  0  0  0  0
   -2.3392    4.7558   -1.1345 H   0  0  0  0  0  0  0  0  0  0  0  0
   -1.0111    0.6860   -1.6480 N   0  0  0  0  0  0  0  0  0  0  0  0
   -0.5726   -0.4344   -1.2184 N   0  0  0  0  0  2  0  0  0  0  0  0
   -1.4902   -1.4778   -1.2584 C   0  0  0  0  0  0  0  0  0  0  0  0
   -0.9284   -2.7607   -1.0411 C   0  0  0  0  0  0  0  0  0  0  0  0
    0.1645   -2.8053   -0.9222 H   0  0  0  0  0  0  0  0  0  0  0  0
   -1.7193   -3.9070   -1.0430 C   0  0  0  0  0  0  0  0  0  0  0  0
   -1.2616   -4.8953   -0.8915 H   0  0  0  0  0  0  0  0  0  0  0  0
   -3.1043   -3.7790   -1.2496 C   0  0  0  0  0  0  0  0  0  0  0  0
   -3.7505   -4.6701   -1.2484 H   0  0  0  0  0  0  0  0  0  0  0  0
   -3.6830   -2.5231   -1.4766 C   0  0  0  0  0  0  0  0  0  0  0  0
   -4.7641   -2.4719   -1.6544 H   0  0  0  0  0  0  0  0  0  0  0  0
   -2.9032   -1.3439   -1.5040 C   0  0  0  0  0  0  0  0  0  0  0  0
   -5.4205   -0.1224   -1.9131 C   0  0  0  0  0  0  0  0  0  0  0  0
   -5.6146   -0.8009   -2.7693 H   0  0  0  0  0  0  0  0  0  0  0  0
   -5.7480   -0.6323   -0.9849 H   0  0  0  0  0  0  0  0  0  0  0  0
   -6.1479    1.2074   -2.0949 C   0  0  0  0  0  0  0  0  0  0  0  0
   -5.9774    1.8848   -1.2331 H   0  0  0  0  0  0  0  0  0  0  0  0
   -7.2398    1.0412   -2.1860 H   0  0  0  0  0  0  0  0  0  0  0  0
   -5.8080    1.7330   -3.0104 H   0  0  0  0  0  0  0  0  0  0  0  0
    1.1564    1.7383   -1.1884 N   0  0  0  0  0  0  0  0  0  0  0  0
   -0.4687    2.9506   -2.1306 N   0  0  0  0  0  0  0  0  0  0  0  0
   -3.6142    0.2444   -1.8273 S   0  0  0  0  0  0  0  0  0  0  0  0
  1 32  2  0  0  0  0
  1  2  1  0  0  0  0
  3  1  1  0  0  0  0
  4  3  1  0  0  0  0
  5 32  1  0  0  0  0
  6 33  1  0  0  0  0
  6  9  1  0  0  0  0
  7  6  1  0  0  0  0
  8  6  1  0  0  0  0
  9 12  1  0  0  0  0
  9 10  1  0  0  0  0
 11  9  1  0  0  0  0
 13  5  2  0  0  0  0
 13 14  1  0  0  0  0
 15 14  1  0  0  0  0
 15 16  1  0  0  0  0
 16 17  1  0  0  0  0
 18 16  2  0  0  0  0
 18 19  1  0  0  0  0
 20 21  1  0  0  0  0
 20 18  1  0  0  0  0
 22 20  2  0  0  0  0
 23 22  1  0  0  0  0
 24 22  1  0  0  0  0
 24 15  2  0  0  0  0
 25 34  1  0  0  0  0
 25 27  1  0  0  0  0
 26 25  1  0  0  0  0
 28 25  1  0  0  0  0
 28 29  1  0  0  0  0
 30 28  1  0  0  0  0
 31 28  1  0  0  0  0
 33  3  1  0  0  0  0
 33  5  1  0  0  0  0
 34 24  1  0  0  0  0
M  END
