1
q = 0.0, confidence = 0.976

 11 11  0  0  0  0  0  0  0  0999 V2000
   -1.1871    1.3914   -0.7231 N   0  0  0  0  0  2  0  0  0  0  0  0
   -2.8294    2.7931   -1.0732 N   0  0  0  0  0  0  0  0  0  0  0  0
   -1.9461    3.0426   -2.0679 N   0  0  0  0  0  0  0  0  0  0  0  0
   -2.3801    1.8042   -0.2635 C   0  0  0  0  0  3  0  0  0  0  0  0
   -2.9193    1.4332    0.6185 H   0  0  0  0  0  0  0  0  0  0  0  0
   -0.9665    2.1774   -1.8284 C   0  0  0  0  0  0  0  0  0  0  0  0
   -0.0706    2.0810   -2.4505 H   0  0  0  0  0  0  0  0  0  0  0  0
   -4.0641    3.5445   -0.9684 C   0  0  0  0  0  0  0  0  0  0  0  0
   -3.8415    4.6226   -0.8495 H   0  0  0  0  0  0  0  0  0  0  0  0
   -4.6730    3.4025   -1.8822 H   0  0  0  0  0  0  0  0  0  0  0  0
   -4.6261    3.1846   -0.0876 H   0  0  0  0  0  0  0  0  0  0  0  0
  1  4  1  0  0  0  0
  2  8  1  0  0  0  0
  2  4  1  0  0  0  0
  3  6  2  0  0  0  0
  3  2  1  0  0  0  0
  4  5  1  0  0  0  0
  6  1  1  0  0  0  0
  7  6  1  0  0  0  0
  8  9  1  0  0  0  0
  8 11  1  0  0  0  0
 10  8  1  0  0  0  0
M  END
