1
q = 0.0, confidence = 1.0

 32 35  0  0  1  0  0  0  0  0999 V2000
   -2.2448   -1.2850   -0.1812 N   0  0  0  0  0  2  0  0  0  0  0  0
   -3.1223   -0.3076    0.1135 C   0  0  0  0  0  0  0  0  0  0  0  0
   -2.6854   -2.5401   -0.5207 C   0  0  0  0  0  0  0  0  0  0  0  0
   -1.9047   -3.2818   -0.7398 H   0  0  0  0  0  0  0  0  0  0  0  0
   -4.0274   -2.8518   -0.5763 C   0  0  0  0  0  0  0  0  0  0  0  0
   -4.3418   -3.8685   -0.8527 H   0  0  0  0  0  0  0  0  0  0  0  0
   -4.9994   -1.8581   -0.2730 C   0  0  1  0  0  3  0  0  0  0  0  0
   -4.5321   -0.5416    0.0871 C   0  0  0  0  0  0  0  0  0  0  0  0
   -5.4835    0.4769    0.3902 C   0  0  0  0  0  0  0  0  0  0  0  0
   -5.1305    1.4758    0.6770 H   0  0  0  0  0  0  0  0  0  0  0  0
   -6.8398    0.1962    0.3399 C   0  0  0  0  0  0  0  0  0  0  0  0
   -7.5700    0.9840    0.5762 H   0  0  0  0  0  0  0  0  0  0  0  0
   -7.2995   -1.1025   -0.0114 C   0  0  0  0  0  0  0  0  0  0  0  0
   -8.3806   -1.3043   -0.0433 H   0  0  0  0  0  0  0  0  0  0  0  0
   -6.3985   -2.1128   -0.3133 C   0  0  0  0  0  0  0  0  0  0  0  0
   -6.7508   -3.1185   -0.5866 H   0  0  0  0  0  0  0  0  0  0  0  0
   -2.5502    1.0230    0.5083 C   0  0  0  0  0  0  0  0  0  0  0  0
   -2.7744    1.3838    1.7665 N   0  0  0  0  0  0  0  0  0  0  0  0
   -2.2090    2.5323    2.2242 C   0  0  0  0  0  0  0  0  0  0  0  0
   -2.4327    2.7937    3.2720 H   0  0  0  0  0  0  0  0  0  0  0  0
   -1.3863    3.3370    1.4489 C   0  0  0  0  0  0  0  0  0  0  0  0
   -0.9273    4.2431    1.8728 H   0  0  0  0  0  0  0  0  0  0  0  0
   -1.1462    2.9909    0.0894 C   0  0  0  0  0  0  0  0  0  0  0  0
   -1.7793    1.8024   -0.4245 C   0  0  0  0  0  0  0  0  0  0  0  0
   -1.6079    1.4630   -1.8002 C   0  0  0  0  0  0  0  0  0  0  0  0
   -2.1217    0.5823   -2.2118 H   0  0  0  0  0  0  0  0  0  0  0  0
   -0.8057    2.2450   -2.6176 C   0  0  0  0  0  0  0  0  0  0  0  0
   -0.6763    1.9779   -3.6765 H   0  0  0  0  0  0  0  0  0  0  0  0
   -0.1479    3.3937   -2.1000 C   0  0  0  0  0  0  0  0  0  0  0  0
    0.4959    3.9922   -2.7606 H   0  0  0  0  0  0  0  0  0  0  0  0
   -0.3201    3.7656   -0.7763 C   0  0  0  0  0  0  0  0  0  0  0  0
    0.1707    4.6660   -0.3770 H   0  0  0  0  0  0  0  0  0  0  0  0
  1  2  1  0  0  0  0
  2 17  1  0  0  0  0
  3  1  1  0  0  0  0
  4  3  1  0  0  0  0
  5  3  2  0  0  0  0
  6  5  1  0  0  0  0
  7  5  1  6  0  0  0
  7  8  1  0  0  0  0
  8  2  2  0  0  0  0
  8  9  1  0  0  0  0
  9 10  1  0  0  0  0
 11  9  2  0  0  0  0
 11 12  1  0  0  0  0
 13 11  1  0  0  0  0
 14 13  1  0  0  0  0
 15  7  1  0  0  0  0
 15 13  2  0  0  0  0
 16 15  1  0  0  0  0
 17 18  1  0  0  0  0
 18 19  2  0  0  0  0
 19 20  1  0  0  0  0
 21 22  1  0  0  0  0
 21 19  1  0  0  0  0
 23 21  2  0  0  0  0
 24 23  1  0  0  0  0
 24 17  2  0  0  0  0
 25 24  1  0  0  0  0
 26 25  1  0  0  0  0
 27 29  1  0  0  0  0
 27 25  2  0  0  0  0
 28 27  1  0  0  0  0
 29 31  2  0  0  0  0
 30 29  1  0  0  0  0
 31 32  1  0  0  0  0
 31 23  1  0  0  0  0
M  END
