15
q = 0.0, confidence = 1.0

 31 32  0  0  1  0  0  0  0  0999 V2000
   -1.1043    1.2854   -1.2887 N   0  0  0  0  0  0  0  0  0  0  0  0
   -2.4389    1.2245   -1.0422 N   0  0  0  0  0  0  0  0  0  0  0  0
    0.3660    1.3728   -3.2748 C   0  0  0  0  0  0  0  0  0  0  0  0
    1.1423    0.9490   -2.6102 H   0  0  0  0  0  0  0  0  0  0  0  0
    0.6454    2.4257   -3.4895 H   0  0  0  0  0  0  0  0  0  0  0  0
    0.3789    0.8256   -4.2366 H   0  0  0  0  0  0  0  0  0  0  0  0
   -0.9797    1.2904   -2.6278 C   0  0  0  0  0  0  0  0  0  0  0  0
   -2.2634    1.2258   -3.2395 C   0  0  0  0  0  0  0  0  0  0  0  0
   -2.4927    1.2274   -4.3105 H   0  0  0  0  0  0  0  0  0  0  0  0
   -3.1882    1.1731   -2.1974 C   0  0  0  0  0  0  0  0  0  0  0  0
   -4.6777    1.0824   -2.2116 C   0  0  0  0  0  0  0  0  0  0  0  0
   -5.0403    0.1086   -1.8200 H   0  0  0  0  0  0  0  0  0  0  0  0
   -5.0482    1.1780   -3.2482 H   0  0  0  0  0  0  0  0  0  0  0  0
   -5.1533    1.8875   -1.6139 H   0  0  0  0  0  0  0  0  0  0  0  0
   -1.4156   -0.7286    1.0629 N   0  0  0  0  0  2  0  0  0  0  0  0
   -2.6721   -0.2346    0.8749 N   0  0  0  0  0  0  0  0  0  0  0  0
   -5.0825   -0.8006    1.3616 C   0  0  0  0  0  0  0  0  0  0  0  0
   -5.3389    0.0813    1.9851 H   0  0  0  0  0  0  0  0  0  0  0  0
   -5.6338   -1.6658    1.7717 H   0  0  0  0  0  0  0  0  0  0  0  0
   -5.4642   -0.6149    0.3370 H   0  0  0  0  0  0  0  0  0  0  0  0
   -3.6186   -1.0898    1.3794 C   0  0  2  0  0  3  0  0  0  0  0  0
   -2.9178   -2.1743    1.9085 C   0  0  0  0  0  0  0  0  0  0  0  0
   -3.3504   -3.0459    2.4098 H   0  0  0  0  0  0  0  0  0  0  0  0
   -1.5425   -1.9109    1.7025 C   0  0  0  0  0  0  0  0  0  0  0  0
   -0.3631   -2.7236    2.1233 C   0  0  0  0  0  0  0  0  0  0  0  0
    0.1027   -3.2505    1.2654 H   0  0  0  0  0  0  0  0  0  0  0  0
   -0.6728   -3.4869    2.8604 H   0  0  0  0  0  0  0  0  0  0  0  0
    0.3967   -2.0675    2.5916 H   0  0  0  0  0  0  0  0  0  0  0  0
   -2.8594    1.1068    0.3318 C   0  0  0  0  0  0  0  0  0  0  0  0
   -2.2605    1.8086    0.9448 H   0  0  0  0  0  0  0  0  0  0  0  0
   -3.9309    1.3551    0.4134 H   0  0  0  0  0  0  0  0  0  0  0  0
  1  2  1  0  0  0  0
  2 29  1  0  0  0  0
  3  7  1  0  0  0  0
  3  4  1  0  0  0  0
  5  3  1  0  0  0  0
  6  3  1  0  0  0  0
  7  1  2  0  0  0  0
  8  7  1  0  0  0  0
  8 10  2  0  0  0  0
  9  8  1  0  0  0  0
 10  2  1  0  0  0  0
 11 10  1  0  0  0  0
 11 12  1  0  0  0  0
 11 14  1  0  0  0  0
 13 11  1  0  0  0  0
 15 24  1  0  0  0  0
 16 15  1  0  0  0  0
 16 21  1  0  0  0  0
 17 19  1  0  0  0  0
 17 18  1  0  0  0  0
 20 17  1  0  0  0  0
 21 17  1  1  0  0  0
 21 22  1  0  0  0  0
 22 23  1  0  0  0  0
 24 22  2  0  0  0  0
 24 25  1  0  0  0  0
 25 28  1  0  0  0  0
 25 27  1  0  0  0  0
 26 25  1  0  0  0  0
 29 31  1  0  0  0  0
 29 16  1  0  0  0  0
 29 30  1  0  0  0  0
M  END
