5
q = 0.0, confidence = 0.926

 36 38  0  0  1  0  0  0  0  0999 V2000
    6.0093    2.0428    0.2826 N   0  0  0  0  0  2  0  0  0  0  0  0
    0.4293   -0.5136    1.4442 N   0  0  0  0  0  0  0  0  0  0  0  0
    7.1132    2.8446   -0.0766 C   0  0  0  0  0  0  0  0  0  0  0  0
    1.5412    0.3254    1.4053 C   0  0  0  0  0  0  0  0  0  0  0  0
   -1.7075   -2.2000    1.0948 N   0  0  0  0  0  2  0  0  0  0  0  0
    2.8322   -0.2424    1.5695 C   0  0  0  0  0  0  0  0  0  0  0  0
    2.9339   -1.2915    1.8892 H   0  0  0  0  0  0  0  0  0  0  0  0
    4.9294    2.6746    0.5035 N   0  0  0  0  0  2  0  0  0  0  0  0
   -1.8730   -1.0582    1.8070 C   0  0  1  0  0  3  0  0  0  0  0  0
   -0.7012   -0.1871    1.9677 C   0  0  0  0  0  0  0  0  0  0  0  0
   -0.8403    0.7453    2.5576 H   0  0  0  0  0  0  0  0  0  0  0  0
    1.4226    1.6980    1.0675 C   0  0  0  0  0  0  0  0  0  0  0  0
    0.4223    2.1415    0.9556 H   0  0  0  0  0  0  0  0  0  0  0  0
    2.5652    2.4589    0.8134 C   0  0  0  0  0  0  0  0  0  0  0  0
    2.4996    3.5141    0.5095 H   0  0  0  0  0  0  0  0  0  0  0  0
    3.8452    1.8665    0.8859 C   0  0  0  0  0  0  0  0  0  0  0  0
    3.9657    0.5208    1.3178 C   0  0  0  0  0  0  0  0  0  0  0  0
    4.9701    0.0868    1.4164 H   0  0  0  0  0  0  0  0  0  0  0  0
   -4.2099   -1.5592    2.1797 C   0  0  0  0  0  0  0  0  0  0  0  0
   -5.1976   -1.2962    2.5863 H   0  0  0  0  0  0  0  0  0  0  0  0
   -3.1170   -0.7009    2.3586 C   0  0  0  0  0  0  0  0  0  0  0  0
   -3.2172    0.2449    2.9112 H   0  0  0  0  0  0  0  0  0  0  0  0
    9.4638    2.8542   -0.7235 C   0  0  0  0  0  0  0  0  0  0  0  0
   10.3961    2.3106   -0.9383 H   0  0  0  0  0  0  0  0  0  0  0  0
    8.2344    4.9519   -0.5368 C   0  0  0  0  0  0  0  0  0  0  0  0
    8.2136    6.0504   -0.6087 H   0  0  0  0  0  0  0  0  0  0  0  0
   -2.7469   -3.0313    0.9437 C   0  0  0  0  0  0  0  0  0  0  0  0
   -2.5638   -3.9387    0.3482 H   0  0  0  0  0  0  0  0  0  0  0  0
   -4.0190   -2.7529    1.4730 C   0  0  0  0  0  0  0  0  0  0  0  0
   -4.8416   -3.4620    1.3053 H   0  0  0  0  0  0  0  0  0  0  0  0
    9.4276    4.2553   -0.8156 C   0  0  0  0  0  0  0  0  0  0  0  0
   10.3327    4.8112   -1.1038 H   0  0  0  0  0  0  0  0  0  0  0  0
    8.3109    2.1500   -0.3547 C   0  0  0  0  0  0  0  0  0  0  0  0
    8.3015    1.0534   -0.2672 H   0  0  0  0  0  0  0  0  0  0  0  0
    7.0805    4.2572   -0.1683 C   0  0  0  0  0  0  0  0  0  0  0  0
    6.1346    4.7696    0.0566 H   0  0  0  0  0  0  0  0  0  0  0  0
  1  8  1  0  0  0  0
  2 10  2  0  0  0  0
  3  1  1  0  0  0  0
  4  2  1  0  0  0  0
  4  6  1  0  0  0  0
  5  9  1  0  0  0  0
  6  7  1  0  0  0  0
  8 16  1  0  0  0  0
  9 10  1  6  0  0  0
  9 21  1  0  0  0  0
 10 11  1  0  0  0  0
 12  4  2  0  0  0  0
 13 12  1  0  0  0  0
 14 16  2  0  0  0  0
 14 12  1  0  0  0  0
 15 14  1  0  0  0  0
 16 17  1  0  0  0  0
 17 18  1  0  0  0  0
 17  6  2  0  0  0  0
 19 21  2  0  0  0  0
 19 20  1  0  0  0  0
 21 22  1  0  0  0  0
 23 33  1  0  0  0  0
 24 23  1  0  0  0  0
 25 35  2  0  0  0  0
 26 25  1  0  0  0  0
 27  5  1  0  0  0  0
 27 29  2  0  0  0  0
 28 27  1  0  0  0  0
 29 19  1  0  0  0  0
 30 29  1  0  0  0  0
 31 23  2  0  0  0  0
 31 25  1  0  0  0  0
 32 31  1  0  0  0  0
 33 34  1  0  0  0  0
 33  3  2  0  0  0  0
 35  3  1  0  0  0  0
 35 36  1  0  0  0  0
M  END
