1
q = 0.0, confidence = 0.994

 14 14  0  0  0  0  0  0  0  0999 V2000
    2.1559   -0.0522    0.0721 N   0  0  0  0  0  0  0  0  0  0  0  0
    2.5922    0.6625    1.3072 C   0  0  0  0  0  0  0  0  0  0  0  0
    4.0526    1.0775    1.0357 C   0  0  0  0  0  0  0  0  0  0  0  0
    4.1775    1.1087   -0.5157 C   0  0  0  0  0  0  0  0  0  0  0  0
    2.7734    0.7388   -1.0315 C   0  0  0  0  0  0  0  0  0  0  0  0
    2.5590   -1.0090    0.0689 H   0  0  0  0  0  0  0  0  0  0  0  0
    2.4458    0.0073    2.1856 H   0  0  0  0  0  0  0  0  0  0  0  0
    1.9256    1.5407    1.4129 H   0  0  0  0  0  0  0  0  0  0  0  0
    4.7600    0.3445    1.4721 H   0  0  0  0  0  0  0  0  0  0  0  0
    4.2774    2.0572    1.4990 H   0  0  0  0  0  0  0  0  0  0  0  0
    4.9297    0.3728   -0.8637 H   0  0  0  0  0  0  0  0  0  0  0  0
    4.4939    2.0981   -0.8979 H   0  0  0  0  0  0  0  0  0  0  0  0
    2.7556    0.1490   -1.9664 H   0  0  0  0  0  0  0  0  0  0  0  0
    2.1365    1.6340   -1.1720 H   0  0  0  0  0  0  0  0  0  0  0  0
  1  2  1  0  0  0  0
  2  8  1  0  0  0  0
  2  7  1  0  0  0  0
  3  2  1  0  0  0  0
  3  9  1  0  0  0  0
  3 10  1  0  0  0  0
  4  3  1  0  0  0  0
  5  4  1  0  0  0  0
  5  1  1  0  0  0  0
  6  1  1  0  0  0  0
 11  4  1  0  0  0  0
 12  4  1  0  0  0  0
 13  5  1  0  0  0  0
 14  5  1  0  0  0  0
M  END
