4
q = -1.0, confidence = 0.0

 19 18  0  0  1  0  0  0  0  0999 V2000
   -2.0853   -1.4184    0.4923 Se  0  0  0  0  0  0  0  0  0  0  0  0
    0.1106    3.0188   -0.1468 O   0  5  0  0  0  0  0  0  0  0  0  0
   -0.6751    2.2947    1.8750 O   0  0  0  0  0  0  0  0  0  0  0  0
   -1.4730    1.2471   -1.2316 N   0  0  0  0  0  0  0  0  0  0  0  0
   -0.8474    1.9302   -1.7043 H   0  0  0  0  0  0  0  0  0  0  0  0
   -2.1801    0.9245   -1.9103 H   0  0  0  0  0  0  0  0  0  0  0  0
   -2.7862    0.1451    1.4979 C   0  0  0  0  0  0  0  0  0  0  0  0
   -3.6537   -0.2413    2.0684 H   0  0  0  0  0  0  0  0  0  0  0  0
   -1.9598    0.4003    2.1920 H   0  0  0  0  0  0  0  0  0  0  0  0
   -3.1546    1.3712    0.6717 C   0  0  0  0  0  0  0  0  0  0  0  0
   -3.5212    2.1197    1.4063 H   0  0  0  0  0  0  0  0  0  0  0  0
   -4.0246    1.1582    0.0120 H   0  0  0  0  0  0  0  0  0  0  0  0
   -2.0557    2.0749   -0.1192 C   0  0  1  0  0  0  0  0  0  0  0  0
   -2.4977    2.9808   -0.5879 H   0  0  0  0  0  0  0  0  0  0  0  0
   -0.7581    2.5280    0.6629 C   0  0  0  0  0  0  0  0  0  0  0  0
   -3.4866   -1.6362   -0.8641 C   0  0  0  0  0  0  0  0  0  0  0  0
   -4.4086   -1.9618   -0.3472 H   0  0  0  0  0  0  0  0  0  0  0  0
   -3.1422   -2.4251   -1.5572 H   0  0  0  0  0  0  0  0  0  0  0  0
   -3.6690   -0.6965   -1.4148 H   0  0  0  0  0  0  0  0  0  0  0  0
  1  7  1  0  0  0  0
  2 15  1  0  0  0  0
  4 13  1  0  0  0  0
  5  4  1  0  0  0  0
  6  4  1  0  0  0  0
  7  8  1  0  0  0  0
  7  9  1  0  0  0  0
 10 11  1  0  0  0  0
 10  7  1  0  0  0  0
 12 10  1  0  0  0  0
 13 14  1  6  0  0  0
 13 15  1  0  0  0  0
 13 10  1  0  0  0  0
 15  3  2  0  0  0  0
 16 17  1  0  0  0  0
 16  1  1  0  0  0  0
 18 16  1  0  0  0  0
 19 16  1  0  0  0  0
M  CHG  1   2  -1
M  END
