6
q = -1.0

 44 44  0  0  0  0  0  0  0  0999 V2000
    0.9140   -0.1853    0.0611 B   0  0  0  0  0  0  0  0  0  0  0  0
    0.1239   -2.6603    0.0708 C   0  0  0  0  0  0  0  0  0  0  0  0
    1.5738   -3.1063    0.3448 C   0  0  0  0  0  0  0  0  0  0  0  0
   -0.7510   -3.2297    1.2071 C   0  0  0  0  0  0  0  0  0  0  0  0
   -0.3335   -3.2308   -1.2870 C   0  0  0  0  0  0  0  0  0  0  0  0
   -0.0214   -1.1890    0.0436 N   0  0  0  0  0  2  0  0  0  0  0  0
    2.3765   -0.0140    0.0400 N   0  0  0  0  0  0  0  0  0  0  0  0
    2.9680    0.5890    1.2690 C   0  0  0  0  0  0  0  0  0  0  0  0
    4.4800    0.2701    1.3172 C   0  0  0  0  0  0  0  0  0  0  0  0
    5.2137    0.6275    0.0275 C   0  0  0  0  0  0  0  0  0  0  0  0
    4.5481   -0.0839   -1.1476 C   0  0  0  0  0  0  0  0  0  0  0  0
    3.0386    0.2297   -1.2733 C   0  0  0  0  0  0  0  0  0  0  0  0
    2.7422    2.1202    1.3929 C   0  0  0  0  0  0  0  0  0  0  0  0
    2.3157   -0.0841    2.4902 C   0  0  0  0  0  0  0  0  0  0  0  0
    2.4527   -0.7312   -2.3229 C   0  0  0  0  0  0  0  0  0  0  0  0
    2.8490    1.6786   -1.8016 C   0  0  0  0  0  0  0  0  0  0  0  0
    3.4510    2.4182   -1.2437 H   0  0  0  0  0  0  0  0  0  0  0  0
    1.7906    1.9934   -1.7263 H   0  0  0  0  0  0  0  0  0  0  0  0
    3.1521    1.7467   -2.8661 H   0  0  0  0  0  0  0  0  0  0  0  0
    0.2736    0.9541    0.1351 H   0  0  0  0  0  0  0  0  0  0  0  0
    2.2868   -2.7120   -0.3996 H   0  0  0  0  0  0  0  0  0  0  0  0
    1.6254   -4.2135    0.3288 H   0  0  0  0  0  0  0  0  0  0  0  0
    1.9148   -2.7654    1.3408 H   0  0  0  0  0  0  0  0  0  0  0  0
   -1.8139   -2.9626    1.0638 H   0  0  0  0  0  0  0  0  0  0  0  0
   -0.6650   -4.3348    1.2352 H   0  0  0  0  0  0  0  0  0  0  0  0
   -0.4077   -2.8400    2.1874 H   0  0  0  0  0  0  0  0  0  0  0  0
   -1.3837   -2.9486   -1.4907 H   0  0  0  0  0  0  0  0  0  0  0  0
    0.3068   -2.8453   -2.1055 H   0  0  0  0  0  0  0  0  0  0  0  0
   -0.2594   -4.3373   -1.2858 H   0  0  0  0  0  0  0  0  0  0  0  0
    4.5909   -0.8207    1.4994 H   0  0  0  0  0  0  0  0  0  0  0  0
    4.9258    0.7910    2.1908 H   0  0  0  0  0  0  0  0  0  0  0  0
    5.2129    1.7276   -0.1306 H   0  0  0  0  0  0  0  0  0  0  0  0
    6.2813    0.3334    0.0995 H   0  0  0  0  0  0  0  0  0  0  0  0
    5.0464    0.1736   -2.1060 H   0  0  0  0  0  0  0  0  0  0  0  0
    4.6576   -1.1814   -1.0104 H   0  0  0  0  0  0  0  0  0  0  0  0
    2.9668    2.4626    2.4235 H   0  0  0  0  0  0  0  0  0  0  0  0
    1.6903    2.3835    1.1658 H   0  0  0  0  0  0  0  0  0  0  0  0
    3.3831    2.7041    0.7078 H   0  0  0  0  0  0  0  0  0  0  0  0
    2.7475    0.3188    3.4275 H   0  0  0  0  0  0  0  0  0  0  0  0
    2.4804   -1.1777    2.4687 H   0  0  0  0  0  0  0  0  0  0  0  0
    1.2230    0.0904    2.5203 H   0  0  0  0  0  0  0  0  0  0  0  0
    1.3571   -0.6139   -2.4314 H   0  0  0  0  0  0  0  0  0  0  0  0
    2.9178   -0.5411   -3.3099 H   0  0  0  0  0  0  0  0  0  0  0  0
    2.6436   -1.7855   -2.0502 H   0  0  0  0  0  0  0  0  0  0  0  0
  1 20  1  0  0  0  0
  2  3  1  0  0  0  0
  2  4  1  0  0  0  0
  3 23  1  0  0  0  0
  4 25  1  0  0  0  0
  4 26  1  0  0  0  0
  5 29  1  0  0  0  0
  5  2  1  0  0  0  0
  6  1  1  0  0  0  0
  6  2  1  0  0  0  0
  7  1  1  0  0  0  0
  7  8  1  0  0  0  0
  8  9  1  0  0  0  0
  8 13  1  0  0  0  0
  8 14  1  0  0  0  0
  9 30  1  0  0  0  0
  9 31  1  0  0  0  0
 10 33  1  0  0  0  0
 10  9  1  0  0  0  0
 11 35  1  0  0  0  0
 11 10  1  0  0  0  0
 12 11  1  0  0  0  0
 12  7  1  0  0  0  0
 13 36  1  0  0  0  0
 14 41  1  0  0  0  0
 14 39  1  0  0  0  0
 15 44  1  0  0  0  0
 15 12  1  0  0  0  0
 16 18  1  0  0  0  0
 16 12  1  0  0  0  0
 16 17  1  0  0  0  0
 19 16  1  0  0  0  0
 21  3  1  0  0  0  0
 22  3  1  0  0  0  0
 24  4  1  0  0  0  0
 27  5  1  0  0  0  0
 28  5  1  0  0  0  0
 32 10  1  0  0  0  0
 34 11  1  0  0  0  0
 37 13  1  0  0  0  0
 38 13  1  0  0  0  0
 40 14  1  0  0  0  0
 42 15  1  0  0  0  0
 43 15  1  0  0  0  0
M  END
