4
q = 0.0, confidence = 1.0

 19 20  0  0  0  0  0  0  0  0999 V2000
    0.5672    1.8773   -1.3221 N   0  0  0  0  0  0  0  0  0  0  0  0
   -0.4310    1.6836   -1.4784 H   0  0  0  0  0  0  0  0  0  0  0  0
    0.8266    2.8508   -1.1794 H   0  0  0  0  0  0  0  0  0  0  0  0
   -0.0864   -0.8708   -1.4931 N   0  0  0  0  0  2  0  0  0  0  0  0
    1.2090   -0.4513   -1.6662 C   0  0  0  0  0  0  0  0  0  0  0  0
    1.5441    0.9456   -1.4906 C   0  0  0  0  0  0  0  0  0  0  0  0
    2.9087    1.2951   -1.4913 C   0  0  0  0  0  0  0  0  0  0  0  0
    3.1805    2.3470   -1.3159 H   0  0  0  0  0  0  0  0  0  0  0  0
    3.9183    0.3457   -1.7379 C   0  0  0  0  0  0  0  0  0  0  0  0
    4.9680    0.6760   -1.7301 H   0  0  0  0  0  0  0  0  0  0  0  0
    3.6096   -0.9797   -2.0224 C   0  0  0  0  0  3  0  0  0  0  0  0
    4.3919   -1.7115   -2.2697 H   0  0  0  0  0  0  0  0  0  0  0  0
    2.2503   -1.3914   -2.0063 C   0  0  0  0  0  0  0  0  0  0  0  0
    1.8496   -2.7212   -2.3155 C   0  0  0  0  0  0  0  0  0  0  0  0
    2.6203   -3.4531   -2.6047 H   0  0  0  0  0  0  0  0  0  0  0  0
    0.5125   -3.0814   -2.2586 C   0  0  0  0  0  0  0  0  0  0  0  0
    0.1744   -4.0957   -2.5129 H   0  0  0  0  0  0  0  0  0  0  0  0
   -0.4223   -2.1296   -1.7956 C   0  0  0  0  0  0  0  0  0  0  0  0
   -1.4697   -2.4150   -1.6088 H   0  0  0  0  0  0  0  0  0  0  0  0
  1  3  1  0  0  0  0
  2  1  1  0  0  0  0
  5  4  1  0  0  0  0
  5  6  2  0  0  0  0
  6  1  1  0  0  0  0
  7  6  1  0  0  0  0
  7  8  1  0  0  0  0
  9 10  1  0  0  0  0
  9  7  2  0  0  0  0
 11 13  1  0  0  0  0
 11  9  1  0  0  0  0
 12 11  1  0  0  0  0
 13  5  1  0  0  0  0
 14 16  1  0  0  0  0
 14 13  2  0  0  0  0
 15 14  1  0  0  0  0
 16 18  2  0  0  0  0
 17 16  1  0  0  0  0
 18 19  1  0  0  0  0
 18  4  1  0  0  0  0
M  END
