7
q = -1.0, confidence = 0.0

 17 18  0  0  0  0  0  0  0  0999 V2000
    1.0873   -0.5134   -0.0001 N   0  0  0  0  0  0  0  0  0  0  0  0
   -1.8167    2.1442    0.0007 N   0  0  0  0  0  0  0  0  0  0  0  0
    3.8005    0.1103   -0.0000 C   0  0  0  0  0  0  0  0  0  0  0  0
    4.8741    0.3578   -0.0001 H   0  0  0  0  0  0  0  0  0  0  0  0
    0.2333    3.1483   -0.0003 C   0  0  0  0  0  0  0  0  0  0  0  0
    1.0236    3.9079   -0.0009 H   0  0  0  0  0  0  0  0  0  0  0  0
   -0.8819    1.2009    0.0012 N   0  0  0  0  0  2  0  0  0  0  0  0
    0.3715    1.7402    0.0008 C   0  0  0  0  0  0  0  0  0  0  0  0
    2.8440    1.1337    0.0005 C   0  0  0  0  0  0  0  0  0  0  0  0
    3.1405    2.1928    0.0008 H   0  0  0  0  0  0  0  0  0  0  0  0
   -1.1628    3.3388   -0.0001 C   0  0  0  0  0  0  0  0  0  0  0  0
   -1.7298    4.2802   -0.0006 H   0  0  0  0  0  0  0  0  0  0  0  0
    1.4733    0.7939    0.0006 C   0  0  0  0  0  0  0  0  0  0  0  0
    1.9988   -1.4928   -0.0005 C   0  0  0  0  0  0  0  0  0  0  0  0
    1.5852   -2.5133   -0.0009 H   0  0  0  0  0  0  0  0  0  0  0  0
    3.3784   -1.2301   -0.0005 C   0  0  0  0  0  0  0  0  0  0  0  0
    4.1007   -2.0598   -0.0009 H   0  0  0  0  0  0  0  0  0  0  0  0
  1 13  1  0  0  0  0
  2  7  1  0  0  0  0
  3  9  1  0  0  0  0
  4  3  1  0  0  0  0
  5 11  1  0  0  0  0
  5  8  2  0  0  0  0
  6  5  1  0  0  0  0
  8  7  1  0  0  0  0
  9 13  2  0  0  0  0
  9 10  1  0  0  0  0
 11  2  2  0  0  0  0
 12 11  1  0  0  0  0
 13  8  1  0  0  0  0
 14 16  1  0  0  0  0
 14  1  2  0  0  0  0
 15 14  1  0  0  0  0
 16  3  2  0  0  0  0
 17 16  1  0  0  0  0
M  END
