2
q = -1.0, confidence = 0.0

 16 16  0  0  0  0  0  0  0  0999 V2000
    1.8005   -1.8518   -2.3188 S   0  0  0  0  0  0  0  0  0  0  0  0
    0.8460   -1.5354    0.1183 N   0  0  0  0  0  2  0  0  0  0  0  0
    1.4457   -2.4306   -0.7580 C   0  0  0  0  0  0  0  0  0  0  0  0
    1.7560   -3.6964   -0.3515 N   0  0  0  0  0  0  0  0  0  0  0  0
    1.5461   -4.0352    0.9213 C   0  0  0  0  0  0  0  0  0  0  0  0
    1.0165   -3.1289    1.8716 C   0  0  0  0  0  0  0  0  0  0  0  0
    0.8668   -3.4094    2.9242 H   0  0  0  0  0  0  0  0  0  0  0  0
    0.6474   -1.8564    1.4124 C   0  0  0  0  0  0  0  0  0  0  0  0
    1.8889   -5.4518    1.3198 C   0  0  0  0  0  0  0  0  0  0  0  0
    0.9713   -6.0229    1.5776 H   0  0  0  0  0  0  0  0  0  0  0  0
    2.5476   -5.4749    2.2132 H   0  0  0  0  0  0  0  0  0  0  0  0
    2.3944   -5.9551    0.4751 H   0  0  0  0  0  0  0  0  0  0  0  0
    0.0646   -0.7925    2.2924 C   0  0  0  0  0  0  0  0  0  0  0  0
   -0.8279   -0.3337    1.8050 H   0  0  0  0  0  0  0  0  0  0  0  0
    0.7958    0.0337    2.4222 H   0  0  0  0  0  0  0  0  0  0  0  0
   -0.1994   -1.1933    3.2909 H   0  0  0  0  0  0  0  0  0  0  0  0
  1  3  2  0  0  0  0
  2  8  1  0  0  0  0
  3  4  1  0  0  0  0
  3  2  1  0  0  0  0
  4  5  2  0  0  0  0
  5  9  1  0  0  0  0
  5  6  1  0  0  0  0
  6  7  1  0  0  0  0
  8  6  2  0  0  0  0
  8 13  1  0  0  0  0
  9 10  1  0  0  0  0
  9 11  1  0  0  0  0
 12  9  1  0  0  0  0
 13 15  1  0  0  0  0
 13 16  1  0  0  0  0
 14 13  1  0  0  0  0
M  END
