2
q = 0.0, confidence = 1.0

 23 24  0  0  1  0  0  0  0  0999 V2000
   -0.8050    1.7329   -0.0026 O   0  0  0  0  0  0  0  0  0  0  0  0
   -0.3631   -0.4888   -0.0004 N   0  0  0  0  0  2  0  0  0  0  0  0
   -1.0640   -1.7695    0.0005 C   0  0  0  0  0  0  0  0  0  0  0  0
   -1.2521    0.4802   -0.0011 C   0  0  2  0  0  3  0  0  0  0  0  0
   -2.6421   -0.0184   -0.0007 C   0  0  0  0  0  0  0  0  0  0  0  0
   -3.9136    0.5890   -0.0013 C   0  0  0  0  0  0  0  0  0  0  0  0
   -5.0475   -0.2379   -0.0007 C   0  0  0  0  0  0  0  0  0  0  0  0
   -4.9261   -1.6398    0.0005 C   0  0  0  0  0  0  0  0  0  0  0  0
   -3.6589   -2.2489    0.0010 C   0  0  0  0  0  0  0  0  0  0  0  0
   -2.5272   -1.4307    0.0004 C   0  0  0  0  0  0  0  0  0  0  0  0
   -1.6751    2.8767    0.0005 C   0  0  0  0  0  0  0  0  0  0  0  0
   -0.7846    4.1027    0.0021 C   0  0  0  0  0  0  0  0  0  0  0  0
   -0.7653   -2.3670    0.8898 H   0  0  0  0  0  0  0  0  0  0  0  0
   -0.7656   -2.3682   -0.8880 H   0  0  0  0  0  0  0  0  0  0  0  0
   -4.0411    1.6781   -0.0022 H   0  0  0  0  0  0  0  0  0  0  0  0
   -6.0476    0.2205   -0.0012 H   0  0  0  0  0  0  0  0  0  0  0  0
   -5.8321   -2.2641    0.0009 H   0  0  0  0  0  0  0  0  0  0  0  0
   -3.5631   -3.3453    0.0018 H   0  0  0  0  0  0  0  0  0  0  0  0
   -2.3242    2.8490   -0.9016 H   0  0  0  0  0  0  0  0  0  0  0  0
   -2.3227    2.8454    0.9034 H   0  0  0  0  0  0  0  0  0  0  0  0
   -0.1349    4.1074    0.8990 H   0  0  0  0  0  0  0  0  0  0  0  0
   -0.1361    4.1105   -0.8956 H   0  0  0  0  0  0  0  0  0  0  0  0
   -1.4016    5.0223    0.0041 H   0  0  0  0  0  0  0  0  0  0  0  0
  1 11  1  0  0  0  0
  2  3  1  0  0  0  0
  3 13  1  0  0  0  0
  4  1  1  6  0  0  0
  4  5  1  0  0  0  0
  4  2  1  0  0  0  0
  5 10  1  0  0  0  0
  6  7  1  0  0  0  0
  6  5  2  0  0  0  0
  7  8  2  0  0  0  0
  8 17  1  0  0  0  0
  8  9  1  0  0  0  0
  9 18  1  0  0  0  0
 10  3  1  0  0  0  0
 10  9  2  0  0  0  0
 11 12  1  0  0  0  0
 11 20  1  0  0  0  0
 12 23  1  0  0  0  0
 12 21  1  0  0  0  0
 14  3  1  0  0  0  0
 15  6  1  0  0  0  0
 16  7  1  0  0  0  0
 19 11  1  0  0  0  0
 22 12  1  0  0  0  0
M  END
