1
q = 0.0, confidence = 0.998

 12 12  0  0  1  0  0  0  0  0999 V2000
    1.6852    1.3463   -0.0001 N   0  0  0  0  0  2  0  0  0  0  0  0
    2.9804    0.9349   -0.0004 N   0  0  0  0  0  0  0  0  0  0  0  0
    3.0025    3.0646   -0.0004 N   0  0  0  0  0  0  0  0  0  0  0  0
    3.7822    1.9385   -0.0007 N   0  0  0  0  0  0  0  0  0  0  0  0
    1.6906    2.6918   -0.0001 C   0  0  2  0  0  3  0  0  0  0  0  0
    0.6130    3.4934    0.0005 N   0  0  0  0  0  0  0  0  0  0  0  0
   -0.3416    3.0939    0.0004 H   0  0  0  0  0  0  0  0  0  0  0  0
    0.7116    4.5061   -0.0015 H   0  0  0  0  0  0  0  0  0  0  0  0
    3.5808    4.3934   -0.0006 C   0  0  0  0  0  0  0  0  0  0  0  0
    4.6786    4.2754    0.0009 H   0  0  0  0  0  0  0  0  0  0  0  0
    3.2750    4.9528    0.9063 H   0  0  0  0  0  0  0  0  0  0  0  0
    3.2774    4.9517   -0.9090 H   0  0  0  0  0  0  0  0  0  0  0  0
  2  1  1  0  0  0  0
  3  5  1  0  0  0  0
  4  3  1  0  0  0  0
  4  2  2  0  0  0  0
  5  1  1  0  0  0  0
  5  6  1  1  0  0  0
  7  6  1  0  0  0  0
  8  6  1  0  0  0  0
  9  3  1  0  0  0  0
  9 10  1  0  0  0  0
  9 11  1  0  0  0  0
 12  9  1  0  0  0  0
M  END
