2
q = -1.0

 20 21  0  0  0  0  0  0  0  0999 V2000
    0.7780    0.9410   -0.0001 N   0  0  0  0  0  0  0  0  0  0  0  0
   -0.4339    1.4981   -0.0001 N   0  0  0  0  0  0  0  0  0  0  0  0
   -0.3582    2.8393   -0.0001 N   0  0  0  0  0  0  0  0  0  0  0  0
    0.9208    3.1682   -0.0000 N   0  0  0  0  0  0  0  0  0  0  0  0
    1.6130    1.9958   -0.0000 C   0  0  0  0  0  3  0  0  0  0  0  0
    3.0737    1.8695   -0.0000 C   0  0  0  0  0  0  0  0  0  0  0  0
    3.6633    0.5925    0.0002 C   0  0  0  0  0  0  0  0  0  0  0  0
    3.0346   -0.3085    0.0003 H   0  0  0  0  0  0  0  0  0  0  0  0
    5.0629    0.4506    0.0001 C   0  0  0  0  0  0  0  0  0  0  0  0
    5.8850    1.5966   -0.0001 C   0  0  0  0  0  0  0  0  0  0  0  0
    6.9798    1.5125   -0.0002 H   0  0  0  0  0  0  0  0  0  0  0  0
    5.2854    2.8699   -0.0003 C   0  0  0  0  0  0  0  0  0  0  0  0
    5.9305    3.7620   -0.0004 H   0  0  0  0  0  0  0  0  0  0  0  0
    3.8958    3.0197   -0.0002 C   0  0  0  0  0  0  0  0  0  0  0  0
    3.4207    4.0105   -0.0004 H   0  0  0  0  0  0  0  0  0  0  0  0
    5.5298   -0.8362    0.0003 O   0  0  0  0  0  0  0  0  0  0  0  0
    6.9281   -1.0351    0.0003 C   0  0  0  0  0  0  0  0  0  0  0  0
    7.4139   -0.5999   -0.9028 H   0  0  0  0  0  0  0  0  0  0  0  0
    7.0920   -2.1294    0.0005 H   0  0  0  0  0  0  0  0  0  0  0  0
    7.4139   -0.5996    0.9032 H   0  0  0  0  0  0  0  0  0  0  0  0
  1  5  1  0  0  0  0
  2  3  1  0  0  0  0
  2  1  2  0  0  0  0
  3  4  2  0  0  0  0
  5  4  1  0  0  0  0
  5  6  1  0  0  0  0
  6  7  1  0  0  0  0
  7  8  1  0  0  0  0
  9  7  2  0  0  0  0
  9 16  1  0  0  0  0
 10  9  1  0  0  0  0
 11 10  1  0  0  0  0
 12 14  1  0  0  0  0
 12 10  2  0  0  0  0
 13 12  1  0  0  0  0
 14  6  2  0  0  0  0
 15 14  1  0  0  0  0
 16 17  1  0  0  0  0
 17 19  1  0  0  0  0
 17 20  1  0  0  0  0
 18 17  1  0  0  0  0
M  END
