4
q = 0.0, confidence = 1.0

 36 38  0  0  1  0  0  0  0  0999 V2000
    5.4831    1.2574   -0.3711 S   0  0  0  0  0  0  0  0  0  0  0  0
    4.9407    1.7163   -1.6591 O   0  0  0  0  0  0  0  0  0  0  0  0
    6.8177    1.6485    0.1102 O   0  0  0  0  0  0  0  0  0  0  0  0
    1.0280    1.7608   -0.6810 N   0  0  0  0  0  2  0  0  0  0  0  0
    4.3666    1.8375    0.8945 N   0  0  0  0  0  0  0  0  0  0  0  0
    0.4308    2.5393   -1.7787 C   0  0  0  0  0  0  0  0  0  0  0  0
   -0.6549    2.6621   -1.5948 H   0  0  0  0  0  0  0  0  0  0  0  0
    0.5454    1.9339   -2.7050 H   0  0  0  0  0  0  0  0  0  0  0  0
    1.2254    3.8560   -1.8003 C   0  0  0  0  0  0  0  0  0  0  0  0
    0.7069    4.6186   -1.1844 H   0  0  0  0  0  0  0  0  0  0  0  0
    1.3442    4.2673   -2.8204 H   0  0  0  0  0  0  0  0  0  0  0  0
    2.5637    3.4668   -1.1470 C   0  0  0  0  0  0  0  0  0  0  0  0
    3.3353    3.1607   -1.8826 H   0  0  0  0  0  0  0  0  0  0  0  0
    3.0180    4.2576   -0.5184 H   0  0  0  0  0  0  0  0  0  0  0  0
    2.1851    2.2506   -0.3252 C   0  0  1  0  0  3  0  0  0  0  0  0
    2.9601    1.7552    0.8046 C   0  0  0  0  0  0  0  0  0  0  0  0
    2.4827    1.4534    2.0828 C   0  0  0  0  0  0  0  0  0  0  0  0
    1.4156    1.4195    2.3441 H   0  0  0  0  0  0  0  0  0  0  0  0
    3.6056    1.3233    2.9543 C   0  0  0  0  0  0  0  0  0  0  0  0
    3.5746    1.1218    4.0311 H   0  0  0  0  0  0  0  0  0  0  0  0
    4.7455    1.5332    2.1998 C   0  0  0  0  0  0  0  0  0  0  0  0
    5.8092    1.4736    2.4526 H   0  0  0  0  0  0  0  0  0  0  0  0
    5.2770   -0.5090   -0.2292 C   0  0  0  0  0  0  0  0  0  0  0  0
    4.1238   -1.0971   -0.7672 C   0  0  0  0  0  0  0  0  0  0  0  0
    3.3634   -0.5141   -1.3090 H   0  0  0  0  0  0  0  0  0  0  0  0
    3.9349   -2.4723   -0.5957 C   0  0  0  0  0  0  0  0  0  0  0  0
    3.0197   -2.9204   -1.0139 H   0  0  0  0  0  0  0  0  0  0  0  0
    4.8818   -3.2633    0.0903 C   0  0  0  0  0  0  0  0  0  0  0  0
    6.0365   -2.6356    0.6064 C   0  0  0  0  0  0  0  0  0  0  0  0
    6.7875   -3.2385    1.1404 H   0  0  0  0  0  0  0  0  0  0  0  0
    6.2436   -1.2583    0.4577 C   0  0  0  0  0  0  0  0  0  0  0  0
    7.1388   -0.7629    0.8597 H   0  0  0  0  0  0  0  0  0  0  0  0
    4.6687   -4.7466    0.2439 C   0  0  0  0  0  0  0  0  0  0  0  0
    5.3202   -5.1788    1.0276 H   0  0  0  0  0  0  0  0  0  0  0  0
    4.8930   -5.2759   -0.7069 H   0  0  0  0  0  0  0  0  0  0  0  0
    3.6146   -4.9783    0.4971 H   0  0  0  0  0  0  0  0  0  0  0  0
  1 23  1  0  0  0  0
  1  3  2  0  0  0  0
  1  5  1  0  0  0  0
  2  1  2  0  0  0  0
  4 15  1  0  0  0  0
  5 21  1  0  0  0  0
  6  7  1  0  0  0  0
  6  4  1  0  0  0  0
  8  6  1  0  0  0  0
  9  6  1  0  0  0  0
  9 10  1  0  0  0  0
  9 12  1  0  0  0  0
 11  9  1  0  0  0  0
 12 14  1  0  0  0  0
 12 15  1  0  0  0  0
 13 12  1  0  0  0  0
 15 16  1  1  0  0  0
 16  5  1  0  0  0  0
 16 17  2  0  0  0  0
 17 18  1  0  0  0  0
 17 19  1  0  0  0  0
 19 20  1  0  0  0  0
 21 22  1  0  0  0  0
 21 19  2  0  0  0  0
 23 31  1  0  0  0  0
 24 26  1  0  0  0  0
 24 23  2  0  0  0  0
 25 24  1  0  0  0  0
 26 28  2  0  0  0  0
 27 26  1  0  0  0  0
 28 33  1  0  0  0  0
 28 29  1  0  0  0  0
 29 30  1  0  0  0  0
 31 29  2  0  0  0  0
 31 32  1  0  0  0  0
 33 36  1  0  0  0  0
 33 34  1  0  0  0  0
 35 33  1  0  0  0  0
M  END
