7
q = 0.0, confidence = 0.998

 29 32  0  0  0  0  0  0  0  0999 V2000
    7.0126    0.5039   -2.5225 S   0  0  0  0  0  0  0  0  0  0  0  0
    5.2882   -0.3391   -0.2475 S   0  0  0  0  0  0  0  0  0  0  0  0
    7.5387   -2.5916    0.6209 S   0  0  0  0  0  0  0  0  0  0  0  0
    9.2249   -1.8048   -1.6901 S   0  0  0  0  0  0  0  0  0  0  0  0
   11.8011   -2.7171   -0.4278 S   0  0  0  0  0  0  0  0  0  0  0  0
    9.9143   -3.7849    2.1287 S   0  0  0  0  0  0  0  0  0  0  0  0
    1.6457    3.5106    0.5489 N   0  0  0  0  0  2  0  0  0  0  0  0
    2.1796    3.8152   -0.6534 C   0  0  0  0  0  3  0  0  0  0  0  0
    1.7121    4.6743   -1.1661 H   0  0  0  0  0  0  0  0  0  0  0  0
    3.2490    3.1039   -1.1928 C   0  0  0  0  0  0  0  0  0  0  0  0
    3.6266    3.3790   -2.1874 H   0  0  0  0  0  0  0  0  0  0  0  0
    3.8188    2.0301   -0.4638 C   0  0  0  0  0  0  0  0  0  0  0  0
    3.2487    1.7416    0.8003 C   0  0  0  0  0  0  0  0  0  0  0  0
    3.6609    0.9412    1.4324 H   0  0  0  0  0  0  0  0  0  0  0  0
    2.1731    2.5005    1.2661 C   0  0  0  0  0  0  0  0  0  0  0  0
    1.7084    2.3365    2.2545 H   0  0  0  0  0  0  0  0  0  0  0  0
    4.9413    1.2503   -0.9850 C   0  0  0  0  0  0  0  0  0  0  0  0
    5.7463    1.5931   -2.0345 C   0  0  0  0  0  0  0  0  0  0  0  0
    5.6468    2.5242   -2.6089 H   0  0  0  0  0  0  0  0  0  0  0  0
    6.8055   -0.5781   -1.1287 C   0  0  0  0  0  0  0  0  0  0  0  0
    7.7286   -1.5210   -0.7790 C   0  0  0  0  0  0  0  0  0  0  0  0
    9.2936   -2.8386    0.7908 C   0  0  0  0  0  0  0  0  0  0  0  0
   10.0731   -2.4821   -0.2787 C   0  0  0  0  0  0  0  0  0  0  0  0
   12.1013   -4.3332    0.4493 C   0  0  0  0  0  0  0  0  0  0  0  0
   12.8687   -4.1056    1.2146 H   0  0  0  0  0  0  0  0  0  0  0  0
   12.5396   -5.0249   -0.3010 H   0  0  0  0  0  0  0  0  0  0  0  0
   10.8786   -4.9661    1.0863 C   0  0  0  0  0  0  0  0  0  0  0  0
   10.1803   -5.3753    0.3297 H   0  0  0  0  0  0  0  0  0  0  0  0
   11.1905   -5.7902    1.7601 H   0  0  0  0  0  0  0  0  0  0  0  0
  1 18  1  0  0  0  0
  1 20  1  0  0  0  0
  3 22  1  0  0  0  0
  4 21  1  0  0  0  0
  4 23  1  0  0  0  0
  5 23  1  0  0  0  0
  5 24  1  0  0  0  0
  7 15  1  0  0  0  0
  8  7  1  0  0  0  0
  9  8  1  0  0  0  0
 10  8  1  0  0  0  0
 10 12  2  0  0  0  0
 11 10  1  0  0  0  0
 12 13  1  0  0  0  0
 13 15  2  0  0  0  0
 13 14  1  0  0  0  0
 15 16  1  0  0  0  0
 17 12  1  0  0  0  0
 17  2  1  0  0  0  0
 18 17  2  0  0  0  0
 19 18  1  0  0  0  0
 20 21  2  0  0  0  0
 20  2  1  0  0  0  0
 21  3  1  0  0  0  0
 22  6  1  0  0  0  0
 23 22  2  0  0  0  0
 24 27  1  0  0  0  0
 24 25  1  0  0  0  0
 26 24  1  0  0  0  0
 27 29  1  0  0  0  0
 27  6  1  0  0  0  0
 28 27  1  0  0  0  0
M  END
