55
q = 0.0, confidence = 0.986

 61 64  0  0  1  0  0  0  0  0999 V2000
   -0.8200   -0.2876    0.9514 C   0  0  0  0  0  0  0  0  0  0  0  0
   -1.7858    0.5831    1.5543 C   0  0  0  0  0  0  0  0  0  0  0  0
   -2.9403    0.0202    2.1510 C   0  0  0  0  0  0  0  0  0  0  0  0
   -3.6976    0.6784    2.6021 H   0  0  0  0  0  0  0  0  0  0  0  0
   -3.1386   -1.3603    2.1535 C   0  0  0  0  0  0  0  0  0  0  0  0
   -2.1912   -2.2217    1.5604 C   0  0  0  0  0  0  0  0  0  0  0  0
   -2.3784   -3.3062    1.5657 H   0  0  0  0  0  0  0  0  0  0  0  0
   -1.0428   -1.7006    0.9640 C   0  0  0  0  0  0  0  0  0  0  0  0
   -1.6837    2.0295    1.4465 C   0  0  0  0  0  3  0  0  0  0  0  0
   -2.6173    2.5866    1.6944 H   0  0  0  0  0  0  0  0  0  0  0  0
   -0.7733    4.1439    0.8356 C   0  0  0  0  0  0  0  0  0  0  0  0
   -0.0815    4.6442    1.5492 H   0  0  0  0  0  0  0  0  0  0  0  0
   -1.8064    4.4945    1.0749 H   0  0  0  0  0  0  0  0  0  0  0  0
   -0.3673    4.5600   -0.5876 C   0  0  0  0  0  0  0  0  0  0  0  0
    0.6437    4.1535   -0.8090 H   0  0  0  0  0  0  0  0  0  0  0  0
   -0.2848    5.6667   -0.6043 H   0  0  0  0  0  0  0  0  0  0  0  0
   -1.3297    4.1512   -1.7142 C   0  0  0  0  0  0  0  0  0  0  0  0
   -2.3586    4.5378   -1.5058 H   0  0  0  0  0  0  0  0  0  0  0  0
   -0.9770    4.6432   -2.6470 H   0  0  0  0  0  0  0  0  0  0  0  0
   -2.4672    2.0685   -1.8430 C   0  0  0  0  0  0  0  0  0  0  0  0
   -3.4209    2.5889   -1.5862 H   0  0  0  0  0  0  0  0  0  0  0  0
   -2.5113    0.6195   -1.9683 C   0  0  0  0  0  0  0  0  0  0  0  0
   -1.3010   -0.0954   -2.2357 C   0  0  0  0  0  0  0  0  0  0  0  0
   -1.3072   -1.5152   -2.1325 C   0  0  0  0  0  0  0  0  0  0  0  0
   -2.5055   -2.1932   -1.8815 C   0  0  0  0  0  0  0  0  0  0  0  0
   -2.5090   -3.2896   -1.7904 H   0  0  0  0  0  0  0  0  0  0  0  0
   -3.7032   -1.4847   -1.6758 C   0  0  0  0  0  0  0  0  0  0  0  0
   -3.7023   -0.0883   -1.7011 C   0  0  0  0  0  0  0  0  0  0  0  0
   -4.6269    0.4643   -1.4773 H   0  0  0  0  0  0  0  0  0  0  0  0
    0.0231   -2.2139   -2.1153 C   0  0  0  0  0  0  0  0  0  0  0  0
    0.6867   -1.7988   -2.8972 H   0  0  0  0  0  0  0  0  0  0  0  0
   -0.0792   -3.3079   -2.2685 H   0  0  0  0  0  0  0  0  0  0  0  0
    0.0390   -2.5904    0.3854 C   0  0  0  0  0  0  0  0  0  0  0  0
   -0.3512   -3.5911    0.1079 H   0  0  0  0  0  0  0  0  0  0  0  0
    0.8295   -2.7399    1.1501 H   0  0  0  0  0  0  0  0  0  0  0  0
    2.1978   -2.2684   -0.8516 C   0  0  0  0  0  0  0  0  0  0  0  0
    2.3573   -3.3496   -0.6494 H   0  0  0  0  0  0  0  0  0  0  0  0
    2.5336   -2.0731   -1.8883 H   0  0  0  0  0  0  0  0  0  0  0  0
    2.9877   -1.3679    0.1075 C   0  0  0  0  0  0  0  0  0  0  0  0
    2.6594   -1.5041    1.1604 H   0  0  0  0  0  0  0  0  0  0  0  0
    2.7695   -0.3107   -0.1433 H   0  0  0  0  0  0  0  0  0  0  0  0
    4.4763   -1.5966   -0.0205 C   0  0  0  0  0  0  0  0  0  0  0  0
    5.2909   -0.5924   -0.5811 C   0  0  0  0  0  0  0  0  0  0  0  0
    4.8280    0.3604   -0.8860 H   0  0  0  0  0  0  0  0  0  0  0  0
    6.6721   -0.7949   -0.7246 C   0  0  0  0  0  0  0  0  0  0  0  0
    7.2972    0.0015   -1.1564 H   0  0  0  0  0  0  0  0  0  0  0  0
    7.2562   -2.0031   -0.3132 C   0  0  0  0  0  0  0  0  0  0  0  0
    8.3400   -2.1603   -0.4243 H   0  0  0  0  0  0  0  0  0  0  0  0
    6.4533   -3.0076    0.2512 C   0  0  0  0  0  0  0  0  0  0  0  0
    6.9065   -3.9528    0.5875 H   0  0  0  0  0  0  0  0  0  0  0  0
    5.0733   -2.8034    0.3971 C   0  0  0  0  0  0  0  0  0  0  0  0
    4.4526   -3.5900    0.8574 H   0  0  0  0  0  0  0  0  0  0  0  0
   -4.5790   -2.0391    2.8709 Cl  0  0  0  0  0  0  0  0  0  0  0  0
   -5.1650   -2.3579   -1.2959 Cl  0  0  0  0  0  0  0  0  0  0  0  0
   -0.6537    2.7078    1.0422 N   0  0  0  0  0  2  0  0  0  0  0  0
   -1.3579    2.7219   -1.9568 N   0  0  0  0  0  0  0  0  0  0  0  0
    0.7298   -1.9746   -0.8079 N   0  3  1  0  0  0  0  0  0  0  0  0
    0.2223    0.1725    0.3020 O   0  5  0  0  0  0  0  0  0  0  0  0
    0.6266   -0.8702   -0.5051 H   0  0  0  0  0  0  0  0  0  0  0  0
   -0.1567    0.5251   -2.4960 O   0  0  0  0  0  0  0  0  0  0  0  0
   -0.3165    1.5354   -2.3130 H   0  0  0  0  0  0  0  0  0  0  0  0
  1  8  2  0  0  0  0
  1  2  1  0  0  0  0
  2  3  2  0  0  0  0
  3  5  1  0  0  0  0
  3  4  1  0  0  0  0
  5 53  1  0  0  0  0
  6  7  1  0  0  0  0
  6  5  2  0  0  0  0
  8  6  1  0  0  0  0
  9  2  1  0  0  0  0
  9 10  1  0  0  0  0
 11 55  1  0  0  0  0
 11 13  1  0  0  0  0
 11 12  1  0  0  0  0
 14 11  1  0  0  0  0
 15 14  1  0  0  0  0
 16 14  1  0  0  0  0
 17 18  1  0  0  0  0
 17 14  1  0  0  0  0
 19 17  1  0  0  0  0
 20 21  1  0  0  0  0
 22 20  1  0  0  0  0
 22 28  1  0  0  0  0
 23 24  1  0  0  0  0
 23 22  2  0  0  0  0
 24 30  1  0  0  0  0
 24 25  2  0  0  0  0
 25 26  1  0  0  0  0
 25 27  1  0  0  0  0
 27 54  1  0  0  0  0
 28 27  2  0  0  0  0
 28 29  1  0  0  0  0
 30 57  1  0  0  0  0
 31 30  1  0  0  0  0
 32 30  1  0  0  0  0
 33  8  1  0  0  0  0
 33 35  1  0  0  0  0
 34 33  1  0  0  0  0
 36 57  1  0  0  0  0
 36 37  1  0  0  0  0
 36 39  1  0  0  0  0
 38 36  1  0  0  0  0
 39 40  1  0  0  0  0
 41 39  1  0  0  0  0
 42 39  1  0  0  0  0
 42 51  1  0  0  0  0
 43 42  2  0  0  0  0
 44 43  1  0  0  0  0
 45 43  1  0  0  0  0
 45 47  2  0  0  0  0
 46 45  1  0  0  0  0
 47 49  1  0  0  0  0
 48 47  1  0  0  0  0
 49 51  2  0  0  0  0
 49 50  1  0  0  0  0
 51 52  1  0  0  0  0
 55  9  1  0  0  0  0
 56 20  2  0  0  0  0
 56 17  1  0  0  0  0
 57 59  1  1  0  0  0
 57 33  1  0  0  0  0
 58  1  1  0  0  0  0
 60 61  1  0  0  0  0
 60 23  1  0  0  0  0
M  CHG  2  57   1  58  -1
M  END
