2
q = 0.0, confidence = 0.998

 20 20  0  0  1  0  0  0  0  0999 V2000
    7.3052    1.3170   -0.5081 F   0  0  0  0  0  0  0  0  0  0  0  0
    1.2593   -0.2679   -0.5814 N   0  0  0  0  0  0  0  0  0  0  0  0
    1.1801   -0.2280   -1.6130 H   0  0  0  0  0  0  0  0  0  0  0  0
    1.6154    0.6518   -0.2746 H   0  0  0  0  0  0  0  0  0  0  0  0
    2.2923   -1.3088   -0.1958 C   0  0  2  0  0  0  0  0  0  0  0  0
    2.0727   -1.5386    0.8656 H   0  0  0  0  0  0  0  0  0  0  0  0
    3.6603   -0.6538   -0.2969 C   0  0  0  0  0  0  0  0  0  0  0  0
    4.1202    0.1309    0.7835 C   0  0  0  0  0  0  0  0  0  0  0  0
    3.4999    0.2151    1.6909 H   0  0  0  0  0  0  0  0  0  0  0  0
    5.3482    0.8011    0.7211 C   0  0  0  0  0  0  0  0  0  0  0  0
    5.7185    1.4089    1.5589 H   0  0  0  0  0  0  0  0  0  0  0  0
    6.1238    0.6812   -0.4393 C   0  0  0  0  0  0  0  0  0  0  0  0
    5.6981   -0.0901   -1.5278 C   0  0  0  0  0  0  0  0  0  0  0  0
    6.3383   -0.1645   -2.4184 H   0  0  0  0  0  0  0  0  0  0  0  0
    4.4649   -0.7522   -1.4499 C   0  0  0  0  0  0  0  0  0  0  0  0
    4.1351   -1.3636   -2.3026 H   0  0  0  0  0  0  0  0  0  0  0  0
    2.0977   -2.5754   -1.0148 C   0  0  0  0  0  0  0  0  0  0  0  0
    1.1068   -3.0116   -0.7896 H   0  0  0  0  0  0  0  0  0  0  0  0
    2.8788   -3.3117   -0.7450 H   0  0  0  0  0  0  0  0  0  0  0  0
    2.1615   -2.3858   -2.1063 H   0  0  0  0  0  0  0  0  0  0  0  0
  1 12  1  0  0  0  0
  2  4  1  0  0  0  0
  2  5  1  0  0  0  0
  3  2  1  0  0  0  0
  5  6  1  1  0  0  0
  7  5  1  0  0  0  0
  7  8  1  0  0  0  0
  8  9  1  0  0  0  0
 10  8  2  0  0  0  0
 10 11  1  0  0  0  0
 12 10  1  0  0  0  0
 13 15  1  0  0  0  0
 13 12  2  0  0  0  0
 14 13  1  0  0  0  0
 15  7  2  0  0  0  0
 16 15  1  0  0  0  0
 17 18  1  0  0  0  0
 17 19  1  0  0  0  0
 17  5  1  0  0  0  0
 20 17  1  0  0  0  0
M  END
