2
q = 0.0, confidence = 0.986

 17 17  0  0  0  0  0  0  0  0999 V2000
    7.6387    1.5016   -0.4867 I   0  0  0  0  0  0  0  0  0  0  0  0
    1.9970   -0.8853   -0.1571 N   0  0  0  0  0  0  0  0  0  0  0  0
    2.1092   -1.6756   -0.8150 H   0  0  0  0  0  0  0  0  0  0  0  0
    2.3269   -0.0639   -0.6924 H   0  0  0  0  0  0  0  0  0  0  0  0
    2.9451   -1.1010    1.0004 C   0  0  0  0  0  0  0  0  0  0  0  0
    2.8321   -0.2342    1.6792 H   0  0  0  0  0  0  0  0  0  0  0  0
    2.6014   -2.0039    1.5400 H   0  0  0  0  0  0  0  0  0  0  0  0
    4.3617   -1.2483    0.5093 C   0  0  0  0  0  0  0  0  0  0  0  0
    5.1563   -0.0991    0.3180 C   0  0  0  0  0  0  0  0  0  0  0  0
    4.7709    0.8941    0.5968 H   0  0  0  0  0  0  0  0  0  0  0  0
    6.4514   -0.2255   -0.2104 C   0  0  0  0  0  0  0  0  0  0  0  0
    6.9643   -1.4910   -0.5475 C   0  0  0  0  0  0  0  0  0  0  0  0
    7.9808   -1.5875   -0.9546 H   0  0  0  0  0  0  0  0  0  0  0  0
    6.1712   -2.6318   -0.3498 C   0  0  0  0  0  0  0  0  0  0  0  0
    6.5779   -3.6223   -0.6025 H   0  0  0  0  0  0  0  0  0  0  0  0
    4.8754   -2.5172    0.1737 C   0  0  0  0  0  0  0  0  0  0  0  0
    4.2672   -3.4208    0.3386 H   0  0  0  0  0  0  0  0  0  0  0  0
  1 11  1  0  0  0  0
  2  5  1  0  0  0  0
  3  2  1  0  0  0  0
  4  2  1  0  0  0  0
  5  7  1  0  0  0  0
  5  6  1  0  0  0  0
  8  5  1  0  0  0  0
  9  8  1  0  0  0  0
  9 10  1  0  0  0  0
 11  9  2  0  0  0  0
 12 14  2  0  0  0  0
 12 11  1  0  0  0  0
 13 12  1  0  0  0  0
 14 16  1  0  0  0  0
 15 14  1  0  0  0  0
 16 17  1  0  0  0  0
 16  8  2  0  0  0  0
M  END
