3
q = 0.0, confidence = 0.994

 50 50  0  0  0  0  0  0  0  0999 V2000
   -4.5943    3.6582   -1.6677 O   0  0  0  0  0  0  0  0  0  0  0  0
   -3.1753    3.4692    0.1010 O   0  0  0  0  0  0  0  0  0  0  0  0
   -4.3639   -1.0537   -0.5432 N   0  0  0  0  0  2  0  0  0  0  0  0
   -4.7586    0.2191   -0.2891 C   0  0  0  0  0  3  0  0  0  0  0  0
   -3.9542    0.8833    0.0569 H   0  0  0  0  0  0  0  0  0  0  0  0
   -6.0782    0.6576   -0.4773 C   0  0  0  0  0  0  0  0  0  0  0  0
   -7.0062   -0.2786   -0.9770 C   0  0  0  0  0  0  0  0  0  0  0  0
   -8.0540    0.0208   -1.1383 H   0  0  0  0  0  0  0  0  0  0  0  0
   -6.5863   -1.5787   -1.2736 C   0  0  0  0  0  0  0  0  0  0  0  0
   -7.2827   -2.3244   -1.6829 H   0  0  0  0  0  0  0  0  0  0  0  0
   -5.2542   -1.9394   -1.0446 C   0  0  0  0  0  0  0  0  0  0  0  0
   -4.8466   -2.9320   -1.2879 H   0  0  0  0  0  0  0  0  0  0  0  0
   -6.5152    2.0734   -0.1674 C   0  0  0  0  0  0  0  0  0  0  0  0
   -7.4201    2.0300    0.4744 H   0  0  0  0  0  0  0  0  0  0  0  0
   -6.8295    2.5596   -1.1164 H   0  0  0  0  0  0  0  0  0  0  0  0
   -5.4641    2.9699    0.4875 C   0  0  0  0  0  0  0  0  0  0  0  0
   -5.9549    3.9040    0.8349 H   0  0  0  0  0  0  0  0  0  0  0  0
   -5.0003    2.5074    1.3807 H   0  0  0  0  0  0  0  0  0  0  0  0
   -4.3878    3.3954   -0.4989 C   0  0  0  0  0  0  0  0  0  0  0  0
   -2.0738    3.8686   -0.7438 C   0  0  0  0  0  0  0  0  0  0  0  0
   -2.4527    4.5666   -1.5155 H   0  0  0  0  0  0  0  0  0  0  0  0
   -1.6923    2.9614   -1.2539 H   0  0  0  0  0  0  0  0  0  0  0  0
   -1.0235    4.5399    0.1328 C   0  0  0  0  0  0  0  0  0  0  0  0
   -1.5280    5.1376    0.9181 H   0  0  0  0  0  0  0  0  0  0  0  0
   -0.4143    5.2454   -0.4661 H   0  0  0  0  0  0  0  0  0  0  0  0
   -0.0652    3.5983    0.8579 C   0  0  0  0  0  0  0  0  0  0  0  0
    1.1700    3.2086   -0.0269 C   0  0  0  0  0  0  0  0  0  0  0  0
    1.9558    1.9552    0.4752 C   0  0  0  0  0  0  0  0  0  0  0  0
    3.4057    1.8406   -0.1187 C   0  0  0  0  0  0  0  0  0  0  0  0
    3.9684    0.3775   -0.0164 C   0  0  0  0  0  0  0  0  0  0  0  0
    5.5254    0.2976   -0.1691 C   0  0  0  0  0  0  0  0  0  0  0  0
    6.0211   -1.1545   -0.4933 C   0  0  0  0  0  0  0  0  0  0  0  0
    7.5490   -1.3673   -0.2334 C   0  0  0  0  0  0  0  0  0  0  0  0
   -0.7017    2.4580    1.2630 F   0  0  0  0  0  0  0  0  0  0  0  0
    0.4272    4.2131    1.9743 F   0  0  0  0  0  0  0  0  0  0  0  0
    2.0091    4.2808   -0.0527 F   0  0  0  0  0  0  0  0  0  0  0  0
    0.7564    2.9640   -1.2954 F   0  0  0  0  0  0  0  0  0  0  0  0
    1.2525    0.8549    0.1129 F   0  0  0  0  0  0  0  0  0  0  0  0
    2.0570    1.9967    1.8255 F   0  0  0  0  0  0  0  0  0  0  0  0
    4.2200    2.6780    0.5662 F   0  0  0  0  0  0  0  0  0  0  0  0
    3.3889    2.1973   -1.4227 F   0  0  0  0  0  0  0  0  0  0  0  0
    3.6402   -0.1406    1.1944 F   0  0  0  0  0  0  0  0  0  0  0  0
    3.4001   -0.3653   -0.9944 F   0  0  0  0  0  0  0  0  0  0  0  0
    5.9182    1.1148   -1.1735 F   0  0  0  0  0  0  0  0  0  0  0  0
    6.0944    0.7072    0.9900 F   0  0  0  0  0  0  0  0  0  0  0  0
    5.3461   -2.0473    0.2750 F   0  0  0  0  0  0  0  0  0  0  0  0
    5.7804   -1.4148   -1.7962 F   0  0  0  0  0  0  0  0  0  0  0  0
    7.9239   -2.5322   -0.7822 F   0  0  0  0  0  0  0  0  0  0  0  0
    8.2589   -0.3737   -0.7935 F   0  0  0  0  0  0  0  0  0  0  0  0
    7.8039   -1.4062    1.0812 F   0  0  0  0  0  0  0  0  0  0  0  0
  1 19  2  0  0  0  0
  3  4  1  0  0  0  0
  4  5  1  0  0  0  0
  6  4  1  0  0  0  0
  6 13  1  0  0  0  0
  7  6  2  0  0  0  0
  8  7  1  0  0  0  0
  9 11  2  0  0  0  0
  9  7  1  0  0  0  0
 10  9  1  0  0  0  0
 11  3  1  0  0  0  0
 12 11  1  0  0  0  0
 13 14  1  0  0  0  0
 13 16  1  0  0  0  0
 15 13  1  0  0  0  0
 16 17  1  0  0  0  0
 16 18  1  0  0  0  0
 19  2  1  0  0  0  0
 19 16  1  0  0  0  0
 20  2  1  0  0  0  0
 20 23  1  0  0  0  0
 21 20  1  0  0  0  0
 22 20  1  0  0  0  0
 23 26  1  0  0  0  0
 23 24  1  0  0  0  0
 25 23  1  0  0  0  0
 26 34  1  0  0  0  0
 26 35  1  0  0  0  0
 27 28  1  0  0  0  0
 27 26  1  0  0  0  0
 28 39  1  0  0  0  0
 29 30  1  0  0  0  0
 29 28  1  0  0  0  0
 29 40  1  0  0  0  0
 30 42  1  0  0  0  0
 31 30  1  0  0  0  0
 31 45  1  0  0  0  0
 32 33  1  0  0  0  0
 32 31  1  0  0  0  0
 32 46  1  0  0  0  0
 33 50  1  0  0  0  0
 36 27  1  0  0  0  0
 37 27  1  0  0  0  0
 38 28  1  0  0  0  0
 41 29  1  0  0  0  0
 43 30  1  0  0  0  0
 44 31  1  0  0  0  0
 47 32  1  0  0  0  0
 48 33  1  0  0  0  0
 49 33  1  0  0  0  0
M  END
