1
q = 0.0, confidence = 0.988

 15 15  0  0  0  0  0  0  0  0999 V2000
    0.1205   -0.4585   -1.5521 N   0  0  0  0  0  0  0  0  0  0  0  0
    1.9553   -1.7553   -0.9663 N   0  0  0  0  0  0  0  0  0  0  0  0
    3.6508   -3.1333   -0.2229 N   0  0  0  0  0  0  0  0  0  0  0  0
    1.5341   -0.6015   -1.4852 C   0  0  0  0  0  0  0  0  0  0  0  0
    2.3779    0.4576   -1.8635 C   0  0  0  0  0  0  0  0  0  0  0  0
    3.7541    0.2649   -1.6600 C   0  0  0  0  0  0  0  0  0  0  0  0
    4.2248   -0.9222   -1.0951 C   0  0  0  0  0  0  0  0  0  0  0  0
    3.2747   -1.9247   -0.7542 C   0  0  0  0  0  0  0  0  0  0  0  0
   -0.1828    0.2023   -2.2781 H   0  0  0  0  0  0  0  0  0  0  0  0
   -0.3319   -1.3736   -1.6799 H   0  0  0  0  0  0  0  0  0  0  0  0
    4.5712   -3.2144    0.2045 H   0  0  0  0  0  0  0  0  0  0  0  0
    2.8987   -3.6738    0.2066 H   0  0  0  0  0  0  0  0  0  0  0  0
    1.9669    1.3949   -2.2640 H   0  0  0  0  0  0  0  0  0  0  0  0
    4.4648    1.0587   -1.9369 H   0  0  0  0  0  0  0  0  0  0  0  0
    5.2987   -1.0862   -0.9243 H   0  0  0  0  0  0  0  0  0  0  0  0
  1  4  1  0  0  0  0
  2  8  1  0  0  0  0
  3 11  1  0  0  0  0
  3 12  1  0  0  0  0
  4  2  2  0  0  0  0
  5  6  2  0  0  0  0
  5  4  1  0  0  0  0
  6  7  1  0  0  0  0
  7 15  1  0  0  0  0
  7  8  2  0  0  0  0
  8  3  1  0  0  0  0
  9  1  1  0  0  0  0
 10  1  1  0  0  0  0
 13  5  1  0  0  0  0
 14  6  1  0  0  0  0
M  END
