6
q = -1.0, confidence = 0.0

 12 13  0  0  0  0  0  0  0  0999 V2000
    6.7201   -0.4694   -0.4456 O   0  0  0  0  0  0  0  0  0  0  0  0
    5.5576    1.3638    0.3522 N   0  0  0  0  0  0  0  0  0  0  0  0
    3.2067    1.5922    0.5484 N   0  0  0  0  0  0  0  0  0  0  0  0
    3.8121   -1.6771   -0.8041 N   0  0  0  0  0  0  0  0  0  0  0  0
    2.5032   -1.6140   -0.7053 N   0  0  0  0  0  0  0  0  0  0  0  0
    2.0776   -0.4354   -0.1890 N   0  0  0  0  0  0  0  0  0  0  0  0
    4.4249    2.0596    0.6713 C   0  0  0  0  0  0  0  0  0  0  0  0
    3.1764    0.3102    0.0536 C   0  0  0  0  0  0  0  0  0  0  0  0
    4.2819   -0.4881   -0.3309 C   0  0  0  0  0  3  0  0  0  0  0  0
    5.6358    0.0249   -0.1912 C   0  0  0  0  0  0  0  0  0  0  0  0
    6.4712    1.8092    0.4834 H   0  0  0  0  0  0  0  0  0  0  0  0
    4.5784    3.0838    1.0521 H   0  0  0  0  0  0  0  0  0  0  0  0
  1 10  2  0  0  0  0
  2 11  1  0  0  0  0
  2  7  1  0  0  0  0
  3  7  2  0  0  0  0
  4  5  2  0  0  0  0
  4  9  1  0  0  0  0
  5  6  1  0  0  0  0
  6  8  2  0  0  0  0
  7 12  1  0  0  0  0
  8  3  1  0  0  0  0
  9 10  1  0  0  0  0
  9  8  1  0  0  0  0
 10  2  1  0  0  0  0
M  END
