1
q = -1.0, confidence = 0.0

 10 10  0  0  0  0  0  0  0  0999 V2000
   -1.4952    1.5428   -0.0008 N   0  0  0  0  0  0  0  0  0  0  0  0
   -2.3645    3.6592   -0.0003 N   0  0  0  0  0  0  0  0  0  0  0  0
   -5.9138    3.4126    0.0009 N   0  0  0  0  0  0  0  0  0  0  0  0
   -4.2155   -0.7795   -0.0002 N   0  0  0  0  0  0  0  0  0  0  0  0
   -1.2722    2.8823   -0.0007 C   0  0  0  0  0  0  0  0  0  0  0  0
   -0.2555    3.2970   -0.0009 H   0  0  0  0  0  0  0  0  0  0  0  0
   -3.3963    2.7634   -0.0001 C   0  0  0  0  0  0  0  0  0  0  0  0
   -2.8711    1.4403   -0.0004 C   0  0  0  0  0  3  0  0  0  0  0  0
   -4.7718    3.1348    0.0003 C   0  0  0  0  0  0  0  0  0  0  0  0
   -3.5931    0.2214   -0.0003 C   0  0  0  0  0  0  0  0  0  0  0  0
  1  5  2  0  0  0  0
  1  8  1  0  0  0  0
  2  7  2  0  0  0  0
  5  2  1  0  0  0  0
  6  5  1  0  0  0  0
  7  9  1  0  0  0  0
  8 10  1  0  0  0  0
  8  7  1  0  0  0  0
  9  3  3  0  0  0  0
 10  4  3  0  0  0  0
M  END
