4
q = 0.0, confidence = 0.988

 76 78  0  0  1  0  0  0  0  0999 V2000
   -1.3220    0.5183   -0.1442 N   0  0  0  0  0  0  0  0  0  0  0  0
   -0.2094   -2.4301   -0.6894 N   0  0  0  0  0  0  0  0  0  0  0  0
    0.0893   -2.2744    1.4709 N   0  0  0  0  0  0  0  0  0  0  0  0
    0.9449    0.5984    0.5253 N   0  0  0  0  0  2  0  0  0  0  0  0
   -0.2033   -0.0492    0.2260 C   0  0  0  0  0  0  0  0  0  0  0  0
   -2.4915   -0.1632   -0.4778 C   0  0  0  0  0  0  0  0  0  0  0  0
   -2.9505   -0.0574   -1.8298 C   0  0  0  0  0  0  0  0  0  0  0  0
   -3.2801   -0.8583    0.4891 C   0  0  0  0  0  0  0  0  0  0  0  0
   -0.0482   -1.5462    0.3256 C   0  0  2  0  0  3  0  0  0  0  0  0
    0.9766    2.0169    0.3726 C   0  0  0  0  0  0  0  0  0  0  0  0
   -0.2063   -2.0985   -2.1078 C   0  0  0  0  0  0  0  0  0  0  0  0
    0.7779   -2.4000   -2.5154 H   0  0  0  0  0  0  0  0  0  0  0  0
   -0.3327   -1.0093   -2.2167 H   0  0  0  0  0  0  0  0  0  0  0  0
   -1.0474   -2.6090   -2.6112 H   0  0  0  0  0  0  0  0  0  0  0  0
   -2.1904    0.8445   -2.7955 C   0  0  0  0  0  0  0  0  0  0  0  0
   -1.1096    0.7436   -2.5568 H   0  0  0  0  0  0  0  0  0  0  0  0
    0.0624   -3.6233    1.1588 C   0  0  0  0  0  0  0  0  0  0  0  0
    0.1838   -4.3953    1.9234 H   0  0  0  0  0  0  0  0  0  0  0  0
    0.5437    2.8512    1.4363 C   0  0  0  0  0  0  0  0  0  0  0  0
   -4.1222   -0.7335   -2.2051 C   0  0  0  0  0  0  0  0  0  0  0  0
   -4.4707   -0.6738   -3.2469 H   0  0  0  0  0  0  0  0  0  0  0  0
   -0.1223   -3.7175   -0.1969 C   0  0  0  0  0  0  0  0  0  0  0  0
   -0.1785   -4.5887   -0.8541 H   0  0  0  0  0  0  0  0  0  0  0  0
    1.4568    2.5676   -0.8453 C   0  0  0  0  0  0  0  0  0  0  0  0
    1.9202    1.6572   -1.9766 C   0  0  0  0  0  0  0  0  0  0  0  0
    1.4167    0.6788   -1.8307 H   0  0  0  0  0  0  0  0  0  0  0  0
   -2.9435   -0.7576    1.9718 C   0  0  0  0  0  0  0  0  0  0  0  0
   -1.8636   -0.5333    2.0510 H   0  0  0  0  0  0  0  0  0  0  0  0
    0.0503    2.2197    2.7319 C   0  0  0  0  0  0  0  0  0  0  0  0
   -0.5357    1.3226    2.4360 H   0  0  0  0  0  0  0  0  0  0  0  0
   -4.4521   -1.5117    0.0640 C   0  0  0  0  0  0  0  0  0  0  0  0
   -5.0642   -2.0525    0.8022 H   0  0  0  0  0  0  0  0  0  0  0  0
   -4.8642   -1.4756   -1.2735 C   0  0  0  0  0  0  0  0  0  0  0  0
   -5.7772   -2.0041   -1.5869 H   0  0  0  0  0  0  0  0  0  0  0  0
    0.6276    4.2450    1.2719 C   0  0  0  0  0  0  0  0  0  0  0  0
    0.2992    4.9091    2.0845 H   0  0  0  0  0  0  0  0  0  0  0  0
    0.4550   -1.7295    2.7687 C   0  0  0  0  0  0  0  0  0  0  0  0
    1.5614   -1.6685    2.8402 H   0  0  0  0  0  0  0  0  0  0  0  0
    0.0440   -2.3773    3.5639 H   0  0  0  0  0  0  0  0  0  0  0  0
    0.0462   -0.7102    2.8705 H   0  0  0  0  0  0  0  0  0  0  0  0
    1.1202    4.8030    0.0842 C   0  0  0  0  0  0  0  0  0  0  0  0
    1.1786    5.8964   -0.0275 H   0  0  0  0  0  0  0  0  0  0  0  0
    1.5287    3.9681   -0.9627 C   0  0  0  0  0  0  0  0  0  0  0  0
    1.9042    4.4140   -1.8960 H   0  0  0  0  0  0  0  0  0  0  0  0
   -3.2089   -2.0422    2.7658 C   0  0  0  0  0  0  0  0  0  0  0  0
   -4.2918   -2.2762    2.8250 H   0  0  0  0  0  0  0  0  0  0  0  0
   -2.8475   -1.9375    3.8099 H   0  0  0  0  0  0  0  0  0  0  0  0
   -2.7046   -2.9170    2.3066 H   0  0  0  0  0  0  0  0  0  0  0  0
    3.4333    1.3911   -1.8753 C   0  0  0  0  0  0  0  0  0  0  0  0
    4.0105    2.3309   -1.9980 H   0  0  0  0  0  0  0  0  0  0  0  0
    3.7640    0.6671   -2.6479 H   0  0  0  0  0  0  0  0  0  0  0  0
    3.7014    0.9597   -0.8844 H   0  0  0  0  0  0  0  0  0  0  0  0
    1.5403    2.1725   -3.3709 C   0  0  0  0  0  0  0  0  0  0  0  0
    0.4584    2.4048   -3.4362 H   0  0  0  0  0  0  0  0  0  0  0  0
    1.7790    1.4112   -4.1414 H   0  0  0  0  0  0  0  0  0  0  0  0
    2.0991    3.0924   -3.6409 H   0  0  0  0  0  0  0  0  0  0  0  0
   -2.3807    0.4928   -4.2737 C   0  0  0  0  0  0  0  0  0  0  0  0
   -2.1550   -0.5741   -4.4787 H   0  0  0  0  0  0  0  0  0  0  0  0
   -1.7102    1.1111   -4.9043 H   0  0  0  0  0  0  0  0  0  0  0  0
   -3.4183    0.6881   -4.6159 H   0  0  0  0  0  0  0  0  0  0  0  0
   -3.6707    0.4532    2.5864 C   0  0  0  0  0  0  0  0  0  0  0  0
   -3.4095    1.3817    2.0411 H   0  0  0  0  0  0  0  0  0  0  0  0
   -3.3921    0.5901    3.6525 H   0  0  0  0  0  0  0  0  0  0  0  0
   -4.7711    0.3224    2.5295 H   0  0  0  0  0  0  0  0  0  0  0  0
   -2.5389    2.3196   -2.5165 C   0  0  0  0  0  0  0  0  0  0  0  0
   -3.6182    2.5071   -2.6938 H   0  0  0  0  0  0  0  0  0  0  0  0
   -1.9581    2.9948   -3.1791 H   0  0  0  0  0  0  0  0  0  0  0  0
   -2.2981    2.5793   -1.4676 H   0  0  0  0  0  0  0  0  0  0  0  0
    1.2481    1.7504    3.5796 C   0  0  0  0  0  0  0  0  0  0  0  0
    1.9075    1.0790    2.9933 H   0  0  0  0  0  0  0  0  0  0  0  0
    0.9124    1.2091    4.4897 H   0  0  0  0  0  0  0  0  0  0  0  0
    1.8550    2.6195    3.9070 H   0  0  0  0  0  0  0  0  0  0  0  0
   -0.8910    3.1118    3.5475 C   0  0  0  0  0  0  0  0  0  0  0  0
   -0.3670    3.9971    3.9639 H   0  0  0  0  0  0  0  0  0  0  0  0
   -1.3070    2.5475    4.4070 H   0  0  0  0  0  0  0  0  0  0  0  0
   -1.7400    3.4742    2.9342 H   0  0  0  0  0  0  0  0  0  0  0  0
  1  5  2  0  0  0  0
  2 22  1  0  0  0  0
  2  9  1  0  0  0  0
  3 37  1  0  0  0  0
  5  4  1  0  0  0  0
  6  1  1  0  0  0  0
  6  8  1  0  0  0  0
  7  6  2  0  0  0  0
  8 27  1  0  0  0  0
  9  5  1  1  0  0  0
  9  3  1  0  0  0  0
 10  4  1  0  0  0  0
 10 19  1  0  0  0  0
 11  2  1  0  0  0  0
 12 11  1  0  0  0  0
 13 11  1  0  0  0  0
 14 11  1  0  0  0  0
 15 16  1  0  0  0  0
 15 65  1  0  0  0  0
 15  7  1  0  0  0  0
 17  3  1  0  0  0  0
 17 18  1  0  0  0  0
 19 29  1  0  0  0  0
 20  7  1  0  0  0  0
 20 33  2  0  0  0  0
 21 20  1  0  0  0  0
 22 17  2  0  0  0  0
 23 22  1  0  0  0  0
 24 10  2  0  0  0  0
 25 49  1  0  0  0  0
 25 26  1  0  0  0  0
 25 24  1  0  0  0  0
 27 28  1  0  0  0  0
 27 61  1  0  0  0  0
 27 45  1  0  0  0  0
 29 73  1  0  0  0  0
 29 69  1  0  0  0  0
 30 29  1  0  0  0  0
 31  8  2  0  0  0  0
 31 32  1  0  0  0  0
 33 31  1  0  0  0  0
 34 33  1  0  0  0  0
 35 19  2  0  0  0  0
 35 36  1  0  0  0  0
 37 38  1  0  0  0  0
 37 40  1  0  0  0  0
 37 39  1  0  0  0  0
 41 35  1  0  0  0  0
 42 41  1  0  0  0  0
 43 24  1  0  0  0  0
 43 41  2  0  0  0  0
 44 43  1  0  0  0  0
 45 46  1  0  0  0  0
 45 47  1  0  0  0  0
 48 45  1  0  0  0  0
 49 52  1  0  0  0  0
 50 49  1  0  0  0  0
 51 49  1  0  0  0  0
 53 25  1  0  0  0  0
 54 53  1  0  0  0  0
 55 53  1  0  0  0  0
 56 53  1  0  0  0  0
 57 15  1  0  0  0  0
 58 57  1  0  0  0  0
 59 57  1  0  0  0  0
 60 57  1  0  0  0  0
 61 63  1  0  0  0  0
 62 61  1  0  0  0  0
 64 61  1  0  0  0  0
 65 68  1  0  0  0  0
 66 65  1  0  0  0  0
 67 65  1  0  0  0  0
 69 72  1  0  0  0  0
 69 71  1  0  0  0  0
 70 69  1  0  0  0  0
 73 74  1  0  0  0  0
 73 75  1  0  0  0  0
 76 73  1  0  0  0  0
M  END
