3
q = 0.0, confidence = 0.99

 63 67  0  0  1  0  0  0  0  0999 V2000
   -0.5865   -0.0385   -0.2497 C   0  0  2  0  0  0  0  0  0  0  0  0
   -0.4436   -0.2065   -1.3498 H   0  0  0  0  0  0  0  0  0  0  0  0
   -1.4236   -1.1665    0.2389 N   0  0  0  0  0  2  0  0  0  0  0  0
   -0.6700   -2.0887    0.7894 C   0  0  1  0  0  3  0  0  0  0  0  0
    0.6295   -1.6346    0.8698 N   0  0  0  0  0  0  0  0  0  0  0  0
    1.8986   -2.1661    1.0246 C   0  0  0  0  0  0  0  0  0  0  0  0
    2.8388   -0.9685    0.7893 C   0  0  2  0  0  0  0  0  0  0  0  0
    3.0219   -0.4540    1.7634 H   0  0  0  0  0  0  0  0  0  0  0  0
    1.9619   -0.0192   -0.0842 C   0  0  1  0  0  0  0  0  0  0  0  0
    1.9895   -0.4178   -1.1320 H   0  0  0  0  0  0  0  0  0  0  0  0
    0.6518   -0.2534    0.5306 N   0  0  1  0  0  0  0  0  0  0  0  0
   -1.0802   -3.4282    1.2920 C   0  0  0  0  0  0  0  0  0  0  0  0
   -2.1088   -3.6066    0.9238 H   0  0  0  0  0  0  0  0  0  0  0  0
   -0.3998   -4.1760    0.8317 H   0  0  0  0  0  0  0  0  0  0  0  0
   -1.0151   -3.5322    2.8240 C   0  0  0  0  0  0  0  0  0  0  0  0
   -1.3359   -4.5434    3.1409 H   0  0  0  0  0  0  0  0  0  0  0  0
   -1.6984   -2.7876    3.2754 H   0  0  0  0  0  0  0  0  0  0  0  0
    0.0162   -3.3724    3.1956 H   0  0  0  0  0  0  0  0  0  0  0  0
    2.1943   -3.3275    1.2605 O   0  0  0  0  0  0  0  0  0  0  0  0
    4.0897   -1.3932    0.2377 N   0  0  0  0  0  0  0  0  0  0  0  0
    4.1645   -2.3877    0.0056 H   0  0  0  0  0  0  0  0  0  0  0  0
    5.2428   -0.6892    0.5440 C   0  0  0  0  0  0  0  0  0  0  0  0
    5.2002    0.3597    1.1860 O   0  0  0  0  0  0  0  0  0  0  0  0
    6.5267   -1.2815    0.0385 C   0  0  0  0  0  0  0  0  0  0  0  0
    6.5796   -2.2626   -0.9733 C   0  0  0  0  0  0  0  0  0  0  0  0
    5.6521   -2.6099   -1.4560 H   0  0  0  0  0  0  0  0  0  0  0  0
    7.8047   -2.7895   -1.4205 C   0  0  0  0  0  0  0  0  0  0  0  0
    8.9908   -2.3058   -0.8278 C   0  0  0  0  0  0  0  0  0  0  0  0
    9.9614   -2.7059   -1.1623 H   0  0  0  0  0  0  0  0  0  0  0  0
    8.9514   -1.3202    0.1692 C   0  0  0  0  0  0  0  0  0  0  0  0
    9.8893   -0.9522    0.6123 H   0  0  0  0  0  0  0  0  0  0  0  0
    7.7243   -0.8010    0.6000 C   0  0  0  0  0  0  0  0  0  0  0  0
    7.6596   -0.0202    1.3715 H   0  0  0  0  0  0  0  0  0  0  0  0
    7.8580   -3.8354   -2.5058 C   0  0  0  0  0  0  0  0  0  0  0  0
    6.8477   -4.0895   -2.8802 H   0  0  0  0  0  0  0  0  0  0  0  0
    8.3282   -4.7713   -2.1384 H   0  0  0  0  0  0  0  0  0  0  0  0
    8.4638   -3.4902   -3.3693 H   0  0  0  0  0  0  0  0  0  0  0  0
    2.2846    1.4549   -0.0982 C   0  0  0  0  0  0  0  0  0  0  0  0
    2.8283    2.0566   -1.2451 C   0  0  0  0  0  0  0  0  0  0  0  0
    3.0886    1.4353   -2.1163 H   0  0  0  0  0  0  0  0  0  0  0  0
    3.0105    3.4455   -1.3114 C   0  0  0  0  0  0  0  0  0  0  0  0
    3.4174    3.9212   -2.2144 H   0  0  0  0  0  0  0  0  0  0  0  0
    2.6318    4.2337   -0.2152 C   0  0  0  0  0  0  0  0  0  0  0  0
    2.7625    5.9757   -0.3184 Cl  0  0  0  0  0  0  0  0  0  0  0  0
    2.1172    3.6499    0.9538 C   0  0  0  0  0  0  0  0  0  0  0  0
    1.8220    4.2850    1.8002 H   0  0  0  0  0  0  0  0  0  0  0  0
    1.9520    2.2633    1.0059 C   0  0  0  0  0  0  0  0  0  0  0  0
    1.4985    1.8020    1.8946 H   0  0  0  0  0  0  0  0  0  0  0  0
   -1.1059    1.3547   -0.0203 C   0  0  0  0  0  0  0  0  0  0  0  0
   -0.8325    2.3400   -0.9792 C   0  0  0  0  0  0  0  0  0  0  0  0
   -0.3991    2.0474   -1.9479 H   0  0  0  0  0  0  0  0  0  0  0  0
   -1.0571    3.6976   -0.7105 C   0  0  0  0  0  0  0  0  0  0  0  0
   -0.8005    4.4479   -1.4692 H   0  0  0  0  0  0  0  0  0  0  0  0
   -1.5812    4.0754    0.5423 C   0  0  0  0  0  0  0  0  0  0  0  0
   -1.7957    5.3615    0.9274 O   0  0  0  0  0  0  0  0  0  0  0  0
   -1.3742    6.4003    0.0606 C   0  0  0  0  0  0  0  0  0  0  0  0
   -1.9193    6.3791   -0.9099 H   0  0  0  0  0  0  0  0  0  0  0  0
   -0.2801    6.3514   -0.1404 H   0  0  0  0  0  0  0  0  0  0  0  0
   -1.6049    7.3502    0.5777 H   0  0  0  0  0  0  0  0  0  0  0  0
   -1.9176    3.0787    1.4887 C   0  0  0  0  0  0  0  0  0  0  0  0
   -2.3585    3.3964    2.4446 H   0  0  0  0  0  0  0  0  0  0  0  0
   -1.6717    1.7339    1.2152 C   0  0  0  0  0  0  0  0  0  0  0  0
   -1.9325    0.9634    1.9577 H   0  0  0  0  0  0  0  0  0  0  0  0
  1  2  1  6  0  0  0
  1 49  1  0  0  0  0
  1  3  1  0  0  0  0
  1 11  1  0  0  0  0
  3  4  1  0  0  0  0
  4  5  1  0  0  0  0
  4 12  1  1  0  0  0
  5  6  1  0  0  0  0
  6 19  2  0  0  0  0
  7  6  1  0  0  0  0
  7  8  1  1  0  0  0
  9 10  1  6  0  0  0
  9 11  1  0  0  0  0
  9  7  1  0  0  0  0
 11  5  1  6  0  0  0
 12 15  1  0  0  0  0
 13 12  1  0  0  0  0
 14 12  1  0  0  0  0
 15 16  1  0  0  0  0
 15 18  1  0  0  0  0
 15 17  1  0  0  0  0
 20 22  1  0  0  0  0
 20  7  1  0  0  0  0
 21 20  1  0  0  0  0
 22 23  2  0  0  0  0
 24 22  1  0  0  0  0
 24 32  1  0  0  0  0
 25 24  2  0  0  0  0
 26 25  1  0  0  0  0
 27 25  1  0  0  0  0
 27 28  2  0  0  0  0
 28 30  1  0  0  0  0
 29 28  1  0  0  0  0
 30 32  2  0  0  0  0
 30 31  1  0  0  0  0
 32 33  1  0  0  0  0
 34 36  1  0  0  0  0
 34 27  1  0  0  0  0
 35 34  1  0  0  0  0
 37 34  1  0  0  0  0
 38  9  1  0  0  0  0
 38 47  1  0  0  0  0
 39 38  2  0  0  0  0
 40 39  1  0  0  0  0
 41 39  1  0  0  0  0
 41 43  2  0  0  0  0
 42 41  1  0  0  0  0
 43 45  1  0  0  0  0
 44 43  1  0  0  0  0
 45 47  2  0  0  0  0
 45 46  1  0  0  0  0
 47 48  1  0  0  0  0
 49 62  1  0  0  0  0
 50 52  1  0  0  0  0
 50 49  2  0  0  0  0
 51 50  1  0  0  0  0
 52 54  2  0  0  0  0
 53 52  1  0  0  0  0
 54 55  1  0  0  0  0
 54 60  1  0  0  0  0
 56 59  1  0  0  0  0
 56 55  1  0  0  0  0
 57 56  1  0  0  0  0
 58 56  1  0  0  0  0
 60 61  1  0  0  0  0
 62 60  2  0  0  0  0
 62 63  1  0  0  0  0
M  END
