1
q = 0.0, confidence = 0.986

 20 21  0  0  0  0  0  0  0  0999 V2000
   -1.5440    0.3295    0.0024 N   0  0  0  0  0  2  0  0  0  0  0  0
   -8.5620    1.6335    0.1086 N   0  0  0  0  0  0  0  0  0  0  0  0
   -2.4260   -0.6853    0.0934 C   0  0  0  0  0  3  0  0  0  0  0  0
   -1.9827   -1.6924    0.1730 H   0  0  0  0  0  0  0  0  0  0  0  0
   -3.8064   -0.4718    0.1132 C   0  0  0  0  0  0  0  0  0  0  0  0
   -4.4857   -1.3349    0.1592 H   0  0  0  0  0  0  0  0  0  0  0  0
   -4.3126    0.8444    0.0450 C   0  0  0  0  0  0  0  0  0  0  0  0
   -3.3696    1.8910   -0.0457 C   0  0  0  0  0  0  0  0  0  0  0  0
   -3.6943    2.9408   -0.0770 H   0  0  0  0  0  0  0  0  0  0  0  0
   -2.0046    1.5938   -0.0687 C   0  0  0  0  0  0  0  0  0  0  0  0
   -1.2321    2.3748   -0.1701 H   0  0  0  0  0  0  0  0  0  0  0  0
   -5.7698    1.1152    0.0670 C   0  0  0  0  0  0  0  0  0  0  0  0
   -6.6597    0.3041    0.8025 C   0  0  0  0  0  0  0  0  0  0  0  0
   -6.2880   -0.5397    1.4027 H   0  0  0  0  0  0  0  0  0  0  0  0
   -8.0292    0.6070    0.7904 C   0  0  0  0  0  0  0  0  0  0  0  0
   -8.7338   -0.0161    1.3700 H   0  0  0  0  0  0  0  0  0  0  0  0
   -7.7162    2.4042   -0.5936 C   0  0  0  0  0  0  0  0  0  0  0  0
   -8.1666    3.2417   -1.1559 H   0  0  0  0  0  0  0  0  0  0  0  0
   -6.3301    2.1955   -0.6468 C   0  0  0  0  0  0  0  0  0  0  0  0
   -5.6978    2.8529   -1.2619 H   0  0  0  0  0  0  0  0  0  0  0  0
  1  3  1  0  0  0  0
  2 15  1  0  0  0  0
  3  5  1  0  0  0  0
  3  4  1  0  0  0  0
  5  6  1  0  0  0  0
  7 12  1  0  0  0  0
  7  5  2  0  0  0  0
  8  7  1  0  0  0  0
  9  8  1  0  0  0  0
 10  8  2  0  0  0  0
 10  1  1  0  0  0  0
 11 10  1  0  0  0  0
 12 13  1  0  0  0  0
 13 14  1  0  0  0  0
 15 13  2  0  0  0  0
 15 16  1  0  0  0  0
 17  2  2  0  0  0  0
 18 17  1  0  0  0  0
 19 17  1  0  0  0  0
 19 12  2  0  0  0  0
 20 19  1  0  0  0  0
M  END
