2
q = 0.0, confidence = 0.95

 15 16  0  0  0  0  0  0  0  0999 V2000
    2.8034   -1.9303   -0.4396 S   0  0  0  0  0  0  0  0  0  0  0  0
   -0.6757    0.8041   -1.2940 N   0  0  0  0  0  0  0  0  0  0  0  0
    1.3952   -1.1656   -0.8934 N   0  0  0  0  0  0  0  0  0  0  0  0
    0.5816    1.1668   -0.7686 C   0  0  0  0  0  0  0  0  0  0  0  0
    2.8335    0.4336    0.0549 C   0  0  0  0  0  0  0  0  0  0  0  0
    2.1615    2.7264    0.2904 C   0  0  0  0  0  0  0  0  0  0  0  0
    2.3531    3.7591    0.6176 H   0  0  0  0  0  0  0  0  0  0  0  0
    1.5494    0.1311   -0.5621 C   0  0  0  0  0  0  0  0  0  0  0  0
    3.1324    1.7600    0.4839 C   0  0  0  0  0  0  0  0  0  0  0  0
    4.0985    1.9786    0.9565 H   0  0  0  0  0  0  0  0  0  0  0  0
    0.9043    2.4411   -0.3279 C   0  0  0  0  0  0  0  0  0  0  0  0
    0.1713    3.2526   -0.4518 H   0  0  0  0  0  0  0  0  0  0  0  0
    3.6282   -0.6508    0.1715 N   0  0  0  0  0  0  0  0  0  0  0  0
   -0.6182    0.1571   -2.0915 H   0  0  0  0  0  0  0  0  0  0  0  0
   -1.3009    1.5851   -1.5318 H   0  0  0  0  0  0  0  0  0  0  0  0
  1 13  1  0  0  0  0
  2  4  1  0  0  0  0
  3  8  2  0  0  0  0
  3  1  1  0  0  0  0
  4  8  1  0  0  0  0
  4 11  2  0  0  0  0
  5 13  2  0  0  0  0
  5  9  1  0  0  0  0
  6  9  2  0  0  0  0
  6  7  1  0  0  0  0
  8  5  1  0  0  0  0
  9 10  1  0  0  0  0
 11  6  1  0  0  0  0
 12 11  1  0  0  0  0
 14  2  1  0  0  0  0
 15  2  1  0  0  0  0
M  END
