2
q = 0.0, confidence = 0.974

 14 14  0  0  0  0  0  0  0  0999 V2000
   -7.3813    0.0007    0.3201 I   0  0  0  0  0  0  0  0  0  0  0  0
   -1.3223   -0.0006   -1.5864 N   0  0  0  0  0  0  0  0  0  0  0  0
   -1.0847   -0.8456   -2.1261 H   0  0  0  0  0  0  0  0  0  0  0  0
   -1.0845    0.8443   -2.1262 H   0  0  0  0  0  0  0  0  0  0  0  0
   -2.6998   -0.0004   -1.1687 C   0  0  0  0  0  0  0  0  0  0  0  0
   -3.3594    1.2198   -0.9432 C   0  0  0  0  0  0  0  0  0  0  0  0
   -2.8116    2.1661   -1.0668 H   0  0  0  0  0  0  0  0  0  0  0  0
   -4.6945    1.2215   -0.5194 C   0  0  0  0  0  0  0  0  0  0  0  0
   -5.2109    2.1756   -0.3444 H   0  0  0  0  0  0  0  0  0  0  0  0
   -5.3586    0.0002   -0.3152 C   0  0  0  0  0  0  0  0  0  0  0  0
   -4.6950   -1.2213   -0.5195 C   0  0  0  0  0  0  0  0  0  0  0  0
   -5.2119   -2.1751   -0.3446 H   0  0  0  0  0  0  0  0  0  0  0  0
   -3.3600   -1.2202   -0.9434 C   0  0  0  0  0  0  0  0  0  0  0  0
   -2.8127   -2.1668   -1.0671 H   0  0  0  0  0  0  0  0  0  0  0  0
  2  5  1  0  0  0  0
  3  2  1  0  0  0  0
  4  2  1  0  0  0  0
  5 13  2  0  0  0  0
  5  6  1  0  0  0  0
  6  8  2  0  0  0  0
  7  6  1  0  0  0  0
  8  9  1  0  0  0  0
  8 10  1  0  0  0  0
 10  1  1  0  0  0  0
 11 12  1  0  0  0  0
 11 10  2  0  0  0  0
 13 11  1  0  0  0  0
 14 13  1  0  0  0  0
M  END
