13
q = -1.0

 26 28  0  0  1  0  0  0  0  0999 V2000
   -0.0001   -1.1685    0.5681 B   0  0  0  0  0  0  0  0  0  0  0  0
   -0.0002   -2.0600    1.3799 H   0  0  0  0  0  0  0  0  0  0  0  0
    0.0001   -0.8788    3.9500 Br  0  0  0  0  0  0  0  0  0  0  0  0
    0.0014    2.7504    4.4705 Br  0  0  0  0  0  0  0  0  0  0  0  0
    0.0014    4.1874    1.1106 Br  0  0  0  0  0  0  0  0  0  0  0  0
   -2.2331   -3.7166    0.8232 Br  0  0  0  0  0  0  0  0  0  0  0  0
   -5.2215   -2.1775   -0.6656 Br  0  0  0  0  0  0  0  0  0  0  0  0
   -4.1285    1.0449   -1.8831 Br  0  0  0  0  0  0  0  0  0  0  0  0
    2.2323   -3.7171    0.8230 Br  0  0  0  0  0  0  0  0  0  0  0  0
    5.2207   -2.1786   -0.6662 Br  0  0  0  0  0  0  0  0  0  0  0  0
    4.1279    1.0434   -1.8849 Br  0  0  0  0  0  0  0  0  0  0  0  0
    0.0004    0.2043    1.3054 N   0  0  0  0  0  0  0  0  0  0  0  0
    0.0006    1.3943    0.6215 N   0  0  0  0  0  2  0  0  0  0  0  0
   -1.2908   -1.2523   -0.2727 N   0  0  0  0  0  0  0  0  0  0  0  0
   -1.6892   -0.1446   -0.9712 N   0  0  0  0  0  0  0  0  0  0  0  0
    1.2900   -1.2530   -0.2733 N   0  0  0  0  0  0  0  0  0  0  0  0
    1.6885   -0.1454   -0.9722 N   0  0  0  0  0  0  0  0  0  0  0  0
    0.0003    0.4488    2.6449 C   0  0  2  0  0  3  0  0  0  0  0  0
    0.0009    1.8362    2.8485 C   0  0  0  0  0  0  0  0  0  0  0  0
    0.0008    2.3800    1.5428 C   0  0  0  0  0  0  0  0  0  0  0  0
   -2.3492   -2.0883   -0.0710 C   0  0  0  0  0  0  0  0  0  0  0  0
   -3.4862   -1.5033   -0.6384 C   0  0  0  0  0  0  0  0  0  0  0  0
   -3.0189   -0.2708   -1.1617 C   0  0  0  0  0  0  0  0  0  0  0  0
    2.3484   -2.0890   -0.0715 C   0  0  0  0  0  0  0  0  0  0  0  0
    3.4855   -1.5042   -0.6391 C   0  0  0  0  0  0  0  0  0  0  0  0
    3.0182   -0.2719   -1.1628 C   0  0  0  0  0  0  0  0  0  0  0  0
  1 12  1  0  0  0  0
  1  2  1  0  0  0  0
  5 20  1  0  0  0  0
  7 22  1  0  0  0  0
  8 23  1  0  0  0  0
 10 25  1  0  0  0  0
 11 26  1  0  0  0  0
 12 18  1  0  0  0  0
 13 12  1  0  0  0  0
 13 20  1  0  0  0  0
 14 21  1  0  0  0  0
 14  1  1  0  0  0  0
 15 14  1  0  0  0  0
 16 24  1  0  0  0  0
 16  1  1  0  0  0  0
 17 16  1  0  0  0  0
 18 19  1  0  0  0  0
 18  3  1  1  0  0  0
 19  4  1  0  0  0  0
 20 19  2  0  0  0  0
 21  6  1  0  0  0  0
 22 21  2  0  0  0  0
 23 15  2  0  0  0  0
 23 22  1  0  0  0  0
 24  9  1  0  0  0  0
 25 24  2  0  0  0  0
 26 17  2  0  0  0  0
 26 25  1  0  0  0  0
M  END
