3
q = -1.0

 18 18  0  0  0  0  0  0  0  0999 V2000
    5.1908   -0.8376    0.2118 O   0  0  0  0  0  0  0  0  0  0  0  0
    2.0566    1.8499   -0.5003 N   0  0  0  0  0  2  0  0  0  0  0  0
    1.8485    0.5295   -0.1542 N   0  0  0  0  0  2  0  0  0  0  0  0
    2.9103   -0.2345    0.0168 C   0  0  0  0  0  3  0  0  0  0  0  0
    4.2770    0.1672   -0.0507 C   0  0  0  0  0  0  0  0  0  0  0  0
    4.9659    1.3502   -0.3166 C   0  0  0  0  0  0  0  0  0  0  0  0
    6.3493    1.0412   -0.2072 C   0  0  0  0  0  0  0  0  0  0  0  0
    6.4372   -0.3051    0.1164 C   0  0  0  0  0  0  0  0  0  0  0  0
    7.5830   -1.2177    0.3617 C   0  0  0  0  0  0  0  0  0  0  0  0
    7.5399   -1.6525    1.3822 H   0  0  0  0  0  0  0  0  0  0  0  0
    7.5820   -2.0658   -0.3547 H   0  0  0  0  0  0  0  0  0  0  0  0
    8.5364   -0.6691    0.2543 H   0  0  0  0  0  0  0  0  0  0  0  0
    7.1953    1.7225   -0.3499 H   0  0  0  0  0  0  0  0  0  0  0  0
    4.4921    2.3037   -0.5635 H   0  0  0  0  0  0  0  0  0  0  0  0
    2.7054   -1.2918    0.2375 H   0  0  0  0  0  0  0  0  0  0  0  0
   -0.4132    2.0288    0.9374 S   0  0  0  0  0  0  0  0  0  0  0  0
    0.9925    2.5284   -0.2146 C   0  0  0  0  0  0  0  0  0  0  0  0
    0.0542    3.3779   -0.3394 N   0  0  0  0  0  1  0  0  0  0  0  0
  2 17  1  0  0  0  0
  2  3  1  0  0  0  0
  3  4  1  0  0  0  0
  4 15  1  0  0  0  0
  5  4  1  0  0  0  0
  5  1  1  0  0  0  0
  6  7  1  0  0  0  0
  6  5  2  0  0  0  0
  7  8  2  0  0  0  0
  8  1  1  0  0  0  0
  8  9  1  0  0  0  0
  9 10  1  0  0  0  0
 11  9  1  0  0  0  0
 12  9  1  0  0  0  0
 13  7  1  0  0  0  0
 14  6  1  0  0  0  0
 17 16  2  0  0  0  0
 18 17  1  0  0  0  0
M  END
