3
q = 0.0, confidence = 0.992

 16 16  0  0  0  0  0  0  0  0999 V2000
    1.8605    2.2530   -0.0228 O   0  0  0  0  0  0  0  0  0  0  0  0
    1.0070    2.4700    0.4569 H   0  0  0  0  0  0  0  0  0  0  0  0
    1.8740    0.8848   -0.0321 N   0  0  0  0  0  2  0  0  0  0  0  0
    3.0570    0.3578   -0.1067 C   0  0  0  0  0  3  0  0  0  0  0  0
    3.4078   -1.1002   -0.1484 C   0  0  0  0  0  0  0  0  0  0  0  0
    3.3560   -1.4407   -1.2059 H   0  0  0  0  0  0  0  0  0  0  0  0
    2.6936   -1.7189    0.4264 H   0  0  0  0  0  0  0  0  0  0  0  0
    4.8623   -1.1070    0.3595 C   0  0  0  0  0  0  0  0  0  0  0  0
    5.4145   -2.0161    0.0533 H   0  0  0  0  0  0  0  0  0  0  0  0
    4.8654   -1.0730    1.4700 H   0  0  0  0  0  0  0  0  0  0  0  0
    5.4537    0.1934   -0.2123 C   0  0  0  0  0  0  0  0  0  0  0  0
    5.7089    0.0508   -1.2837 H   0  0  0  0  0  0  0  0  0  0  0  0
    6.3755    0.5253    0.3034 H   0  0  0  0  0  0  0  0  0  0  0  0
    4.3030    1.2100   -0.0856 C   0  0  0  0  0  0  0  0  0  0  0  0
    4.3176    1.7609    0.8817 H   0  0  0  0  0  0  0  0  0  0  0  0
    4.2737    1.9920   -0.8711 H   0  0  0  0  0  0  0  0  0  0  0  0
  1  2  1  0  0  0  0
  3  1  1  0  0  0  0
  4 14  1  0  0  0  0
  4  3  1  0  0  0  0
  5  4  1  0  0  0  0
  5  8  1  0  0  0  0
  5  7  1  0  0  0  0
  6  5  1  0  0  0  0
  8 10  1  0  0  0  0
  9  8  1  0  0  0  0
 11 14  1  0  0  0  0
 11 13  1  0  0  0  0
 11  8  1  0  0  0  0
 12 11  1  0  0  0  0
 14 15  1  0  0  0  0
 16 14  1  0  0  0  0
M  END
