1
q = 0.0, confidence = 0.966

 21 21  0  0  0  0  0  0  0  0999 V2000
   -0.7477    0.3904    0.0004 N   0  0  0  0  0  2  0  0  0  0  0  0
   -1.6747   -0.4954    0.0002 N   0  0  0  0  0  0  0  0  0  0  0  0
   -1.3333    1.7825    0.0008 C   0  0  0  0  0  0  0  0  0  0  0  0
   -4.1833   -1.9179    0.0020 O   0  0  0  0  0  0  0  0  0  0  0  0
   -2.7996    1.4902    0.0009 C   0  0  0  0  0  3  0  0  0  0  0  0
   -2.9336    0.1351    0.0004 C   0  0  0  0  0  0  0  0  0  0  0  0
   -5.2683    0.0845   -0.0013 O   0  0  0  0  0  0  0  0  0  0  0  0
   -4.1637   -0.7045    0.0005 C   0  0  0  0  0  0  0  0  0  0  0  0
   -6.5156   -0.6223   -0.0011 C   0  0  0  0  0  0  0  0  0  0  0  0
   -6.6020   -1.2677   -0.8983 H   0  0  0  0  0  0  0  0  0  0  0  0
   -7.3051    0.1496   -0.0022 H   0  0  0  0  0  0  0  0  0  0  0  0
   -6.6028   -1.2659    0.8973 H   0  0  0  0  0  0  0  0  0  0  0  0
   -0.8965    2.5229    1.2808 C   0  0  0  0  0  0  0  0  0  0  0  0
    0.2001    2.6636    1.2798 H   0  0  0  0  0  0  0  0  0  0  0  0
   -1.1801    1.9494    2.1839 H   0  0  0  0  0  0  0  0  0  0  0  0
   -1.3833    3.5165    1.3208 H   0  0  0  0  0  0  0  0  0  0  0  0
   -0.8969    2.5239   -1.2789 C   0  0  0  0  0  0  0  0  0  0  0  0
    0.1996    2.6650   -1.2780 H   0  0  0  0  0  0  0  0  0  0  0  0
   -1.3841    3.5174   -1.3180 H   0  0  0  0  0  0  0  0  0  0  0  0
   -1.1805    1.9509   -2.1823 H   0  0  0  0  0  0  0  0  0  0  0  0
   -3.6005    2.2380    0.0012 H   0  0  0  0  0  0  0  0  0  0  0  0
  1  3  1  0  0  0  0
  2  1  1  0  0  0  0
  2  6  2  0  0  0  0
  3  5  1  0  0  0  0
  3 13  1  0  0  0  0
  5 21  1  0  0  0  0
  6  8  1  0  0  0  0
  6  5  1  0  0  0  0
  7  9  1  0  0  0  0
  7  8  1  0  0  0  0
  8  4  2  0  0  0  0
  9 12  1  0  0  0  0
 10  9  1  0  0  0  0
 11  9  1  0  0  0  0
 13 16  1  0  0  0  0
 13 15  1  0  0  0  0
 14 13  1  0  0  0  0
 17 18  1  0  0  0  0
 17  3  1  0  0  0  0
 19 17  1  0  0  0  0
 20 17  1  0  0  0  0
M  END
