1
q = -1.0

 14 15  0  0  0  0  0  0  0  0999 V2000
    1.3803   -1.4998   -0.4071 N   0  0  0  0  0  0  0  0  0  0  0  0
    1.2016   -2.7722   -0.8092 N   0  0  0  0  0  0  0  0  0  0  0  0
    2.3302   -3.4142   -0.6099 N   0  0  0  0  0  0  0  0  0  0  0  0
    3.2591   -2.5900   -0.0861 N   0  0  0  0  0  0  0  0  0  0  0  0
    2.3588    0.8557    0.7876 N   0  0  0  0  0  0  0  0  0  0  0  0
    5.0953    1.1244    1.3477 N   0  0  0  0  0  0  0  0  0  0  0  0
    2.6585   -1.4024    0.0427 C   0  0  0  0  0  3  0  0  0  0  0  0
    3.2194   -0.1643    0.5832 C   0  0  0  0  0  0  0  0  0  0  0  0
    2.8616    2.0090    1.2431 C   0  0  0  0  0  0  0  0  0  0  0  0
    2.1579    2.8456    1.3893 H   0  0  0  0  0  0  0  0  0  0  0  0
    4.2339    2.1393    1.5234 C   0  0  0  0  0  0  0  0  0  0  0  0
    4.6414    3.0921    1.9030 H   0  0  0  0  0  0  0  0  0  0  0  0
    4.5946   -0.0230    0.8762 C   0  0  0  0  0  0  0  0  0  0  0  0
    5.2806   -0.8711    0.7130 H   0  0  0  0  0  0  0  0  0  0  0  0
  1  7  1  0  0  0  0
  2  3  1  0  0  0  0
  2  1  2  0  0  0  0
  3  4  2  0  0  0  0
  4  7  1  0  0  0  0
  5  9  1  0  0  0  0
  6 11  1  0  0  0  0
  7  8  1  0  0  0  0
  8  5  2  0  0  0  0
  8 13  1  0  0  0  0
  9 10  1  0  0  0  0
  9 11  2  0  0  0  0
 11 12  1  0  0  0  0
 13  6  2  0  0  0  0
 14 13  1  0  0  0  0
M  END
