3
q = 0.0, confidence = 0.998

 44 46  0  0  1  0  0  0  0  0999 V2000
   -1.0744   -2.1143   -0.5644 N   0  0  0  0  0  0  0  0  0  0  0  0
   -2.3238   -1.9911   -0.0292 N   0  0  0  0  0  0  0  0  0  0  0  0
   -1.6229    0.6398   -1.0859 N   0  0  0  0  0  2  0  0  0  0  0  0
   -2.7675    0.3319   -0.4118 N   0  0  0  0  0  0  0  0  0  0  0  0
   -0.6114   -0.2405    1.5825 N   0  0  0  0  0  0  0  0  0  0  0  0
   -1.9521   -0.4065    1.7287 N   0  0  0  0  0  0  0  0  0  0  0  0
    0.2432   -3.9318   -1.6591 C   0  0  0  0  0  0  0  0  0  0  0  0
    0.5799   -3.2975   -2.5010 H   0  0  0  0  0  0  0  0  0  0  0  0
    0.0446   -4.9470   -2.0473 H   0  0  0  0  0  0  0  0  0  0  0  0
    1.0769   -4.0068   -0.9322 H   0  0  0  0  0  0  0  0  0  0  0  0
   -0.9843   -3.3827   -1.0104 C   0  0  0  0  0  0  0  0  0  0  0  0
   -2.2011   -4.0675   -0.7492 C   0  0  0  0  0  0  0  0  0  0  0  0
   -2.4330   -5.1083   -0.9970 H   0  0  0  0  0  0  0  0  0  0  0  0
   -3.0453   -3.1605   -0.1190 C   0  0  0  0  0  0  0  0  0  0  0  0
   -4.4405   -3.3091    0.3891 C   0  0  0  0  0  0  0  0  0  0  0  0
   -4.5115   -3.1420    1.4846 H   0  0  0  0  0  0  0  0  0  0  0  0
   -4.7965   -4.3364    0.1927 H   0  0  0  0  0  0  0  0  0  0  0  0
   -5.1488   -2.6161   -0.1120 H   0  0  0  0  0  0  0  0  0  0  0  0
   -0.9718    2.0758   -3.0051 C   0  0  0  0  0  0  0  0  0  0  0  0
   -0.1208    1.3823   -3.1400 H   0  0  0  0  0  0  0  0  0  0  0  0
   -0.5717    3.0384   -2.6257 H   0  0  0  0  0  0  0  0  0  0  0  0
   -1.4433    2.2668   -3.9873 H   0  0  0  0  0  0  0  0  0  0  0  0
   -1.9672    1.5072   -2.0546 C   0  0  2  0  0  3  0  0  0  0  0  0
   -3.3674    1.7523   -1.9853 C   0  0  0  0  0  0  0  0  0  0  0  0
   -3.9479    2.4152   -2.6349 H   0  0  0  0  0  0  0  0  0  0  0  0
   -3.8634    0.9838   -0.9392 C   0  0  0  0  0  0  0  0  0  0  0  0
   -5.2495    0.8098   -0.4151 C   0  0  0  0  0  0  0  0  0  0  0  0
   -5.6288   -0.2247   -0.5573 H   0  0  0  0  0  0  0  0  0  0  0  0
   -5.9370    1.4837   -0.9574 H   0  0  0  0  0  0  0  0  0  0  0  0
   -5.3270    1.0587    0.6641 H   0  0  0  0  0  0  0  0  0  0  0  0
    1.3269    0.2778    3.0325 C   0  0  0  0  0  0  0  0  0  0  0  0
    1.9494   -0.3556    2.3722 H   0  0  0  0  0  0  0  0  0  0  0  0
    1.6036    0.0908    4.0861 H   0  0  0  0  0  0  0  0  0  0  0  0
    1.5678    1.3349    2.7950 H   0  0  0  0  0  0  0  0  0  0  0  0
   -0.1227    0.0081    2.8101 C   0  0  0  0  0  0  0  0  0  0  0  0
   -1.1870   -0.0079    3.7538 C   0  0  0  0  0  0  0  0  0  0  0  0
   -1.1115    0.1557    4.8337 H   0  0  0  0  0  0  0  0  0  0  0  0
   -2.3518   -0.2794    3.0412 C   0  0  0  0  0  0  0  0  0  0  0  0
   -3.7680   -0.4295    3.4869 C   0  0  0  0  0  0  0  0  0  0  0  0
   -4.4442    0.3015    2.9958 H   0  0  0  0  0  0  0  0  0  0  0  0
   -3.8341   -0.2562    4.5760 H   0  0  0  0  0  0  0  0  0  0  0  0
   -4.1653   -1.4484    3.2931 H   0  0  0  0  0  0  0  0  0  0  0  0
   -2.7487   -0.7367    0.5648 C   0  0  0  0  0  0  0  0  0  0  0  0
   -3.7866   -0.8768    0.9112 H   0  0  0  0  0  0  0  0  0  0  0  0
  1  2  1  0  0  0  0
  2 43  1  0  0  0  0
  3  4  1  0  0  0  0
  4 43  1  0  0  0  0
  5  6  1  0  0  0  0
  5 35  2  0  0  0  0
  6 38  1  0  0  0  0
  7 11  1  0  0  0  0
  7 10  1  0  0  0  0
  8  7  1  0  0  0  0
  9  7  1  0  0  0  0
 11 12  1  0  0  0  0
 11  1  2  0  0  0  0
 12 14  2  0  0  0  0
 13 12  1  0  0  0  0
 14  2  1  0  0  0  0
 14 15  1  0  0  0  0
 15 16  1  0  0  0  0
 17 15  1  0  0  0  0
 18 15  1  0  0  0  0
 19 21  1  0  0  0  0
 20 19  1  0  0  0  0
 22 19  1  0  0  0  0
 23 19  1  1  0  0  0
 23 24  1  0  0  0  0
 23  3  1  0  0  0  0
 24 26  2  0  0  0  0
 25 24  1  0  0  0  0
 26 27  1  0  0  0  0
 26  4  1  0  0  0  0
 27 30  1  0  0  0  0
 28 27  1  0  0  0  0
 29 27  1  0  0  0  0
 31 33  1  0  0  0  0
 32 31  1  0  0  0  0
 34 31  1  0  0  0  0
 35 31  1  0  0  0  0
 35 36  1  0  0  0  0
 36 37  1  0  0  0  0
 38 39  1  0  0  0  0
 38 36  2  0  0  0  0
 39 41  1  0  0  0  0
 40 39  1  0  0  0  0
 42 39  1  0  0  0  0
 43 44  1  0  0  0  0
 43  6  1  0  0  0  0
M  END
