1
q = 0.0, confidence = 0.906

 10 10  0  0  0  0  0  0  0  0999 V2000
    1.1318   -0.5787   -1.0936 N   0  0  0  0  0  2  0  0  0  0  0  0
    0.4268   -1.4769   -1.7784 N   0  0  0  0  0  2  0  0  0  0  0  0
    1.0875   -2.4104   -2.4724 C   0  0  0  0  0  0  0  0  0  0  0  0
    0.4484   -3.1220   -3.0201 H   0  0  0  0  0  0  0  0  0  0  0  0
    2.4923   -2.4965   -2.5146 C   0  0  0  0  0  0  0  0  0  0  0  0
    2.9903   -3.2808   -3.1038 H   0  0  0  0  0  0  0  0  0  0  0  0
    3.2106   -1.5562   -1.7796 C   0  0  0  0  0  0  0  0  0  0  0  0
    4.3095   -1.5483   -1.7436 H   0  0  0  0  0  0  0  0  0  0  0  0
    2.4763   -0.5943   -1.0667 C   0  0  0  0  0  0  0  0  0  0  0  0
    2.9638    0.1779   -0.4477 H   0  0  0  0  0  0  0  0  0  0  0  0
  1  9  1  0  0  0  0
  2  1  1  0  0  0  0
  3  2  1  0  0  0  0
  4  3  1  0  0  0  0
  5  3  2  0  0  0  0
  5  7  1  0  0  0  0
  6  5  1  0  0  0  0
  7  8  1  0  0  0  0
  7  9  2  0  0  0  0
  9 10  1  0  0  0  0
M  END
