4
q = -1.0, confidence = 0.0

 22 22  0  0  0  0  0  0  0  0999 V2000
    1.3391   -2.3302    0.7324 S   0  0  0  0  0  0  0  0  0  0  0  0
    0.6476   -1.9101    1.9861 O   0  0  0  0  0  0  0  0  0  0  0  0
    1.8769   -3.7100    0.6136 O   0  0  0  0  0  0  0  0  0  0  0  0
    0.3867   -1.9660   -0.5323 N   0  0  0  0  0  2  0  0  0  0  0  0
    0.6512   -2.6261   -1.8004 C   0  0  0  0  0  0  0  0  0  0  0  0
    1.3818   -2.0717   -2.4435 H   0  0  0  0  0  0  0  0  0  0  0  0
   -0.3043   -2.6764   -2.3575 H   0  0  0  0  0  0  0  0  0  0  0  0
    1.0419   -3.6514   -1.6395 H   0  0  0  0  0  0  0  0  0  0  0  0
    2.7989   -1.2517    0.6176 C   0  0  0  0  0  0  0  0  0  0  0  0
    3.0781   -0.3323    1.6371 C   0  0  0  0  0  0  0  0  0  0  0  0
    2.4216   -0.3130    2.5191 H   0  0  0  0  0  0  0  0  0  0  0  0
    4.1782    0.5318    1.5163 C   0  0  0  0  0  0  0  0  0  0  0  0
    4.3967    1.2487    2.3249 H   0  0  0  0  0  0  0  0  0  0  0  0
    5.0140    0.4960    0.3832 C   0  0  0  0  0  0  0  0  0  0  0  0
    4.7272   -0.4559   -0.6226 C   0  0  0  0  0  0  0  0  0  0  0  0
    5.3787   -0.5160   -1.5096 H   0  0  0  0  0  0  0  0  0  0  0  0
    3.6423   -1.3305   -0.5080 C   0  0  0  0  0  0  0  0  0  0  0  0
    3.4510   -2.0855   -1.2835 H   0  0  0  0  0  0  0  0  0  0  0  0
    6.1915    1.4277    0.2424 C   0  0  0  0  0  0  0  0  0  0  0  0
    6.1351    2.0163   -0.6980 H   0  0  0  0  0  0  0  0  0  0  0  0
    7.1485    0.8660    0.2051 H   0  0  0  0  0  0  0  0  0  0  0  0
    6.2544    2.1404    1.0876 H   0  0  0  0  0  0  0  0  0  0  0  0
  1  2  2  0  0  0  0
  3  1  2  0  0  0  0
  4  1  1  0  0  0  0
  5  8  1  0  0  0  0
  5  4  1  0  0  0  0
  6  5  1  0  0  0  0
  7  5  1  0  0  0  0
  9  1  1  0  0  0  0
  9 10  1  0  0  0  0
 10 11  1  0  0  0  0
 12 10  2  0  0  0  0
 12 13  1  0  0  0  0
 14 12  1  0  0  0  0
 15 17  1  0  0  0  0
 15 14  2  0  0  0  0
 16 15  1  0  0  0  0
 17  9  2  0  0  0  0
 18 17  1  0  0  0  0
 19 14  1  0  0  0  0
 19 22  1  0  0  0  0
 20 19  1  0  0  0  0
 21 19  1  0  0  0  0
M  END
