18
q = 0.0, confidence = 0.99

 24 25  0  0  1  0  0  0  0  0999 V2000
    4.7759   -1.4442    1.2582 S   0  0  0  0  0  0  0  0  0  0  0  0
    1.6856    3.0559   -2.2863 S   0  0  0  0  0  0  0  0  0  0  0  0
    3.1380   -1.2085    1.8821 C   0  0  0  0  0  0  0  0  0  0  0  0
    4.4586   -0.2643   -0.0122 C   0  0  0  0  0  0  0  0  0  0  0  0
    3.1773    0.2300    0.1523 C   0  0  0  0  0  0  0  0  0  0  0  0
    2.4665    1.1550   -0.7418 C   0  0  0  0  0  0  0  0  0  0  0  0
    2.9470    2.3336   -1.2843 C   0  0  0  0  0  0  0  0  0  0  0  0
    0.5919    1.7268   -1.8581 C   0  0  2  0  0  3  0  0  0  0  0  0
    5.4378   -0.0461   -1.1191 C   0  0  0  0  0  0  0  0  0  0  0  0
    4.9175    0.4168   -1.9797 H   0  0  0  0  0  0  0  0  0  0  0  0
    5.8735   -1.0059   -1.4638 H   0  0  0  0  0  0  0  0  0  0  0  0
    6.2813    0.6186   -0.8331 H   0  0  0  0  0  0  0  0  0  0  0  0
    4.2428    3.0403   -1.0515 C   0  0  0  0  0  0  0  0  0  0  0  0
    4.7527    2.5920   -0.1769 H   0  0  0  0  0  0  0  0  0  0  0  0
    4.0852    4.1186   -0.8410 H   0  0  0  0  0  0  0  0  0  0  0  0
    4.9376    2.9733   -1.9162 H   0  0  0  0  0  0  0  0  0  0  0  0
    2.4514   -0.2963    1.2136 N   0  0  0  0  0  0  0  0  0  0  0  0
    1.1507    0.8408   -1.0523 N   0  0  0  0  0  2  0  0  0  0  0  0
    2.6622   -1.8804    2.9609 N   0  0  0  0  0  0  0  0  0  0  0  0
    1.6231   -1.9704    2.9765 H   0  0  0  0  0  0  0  0  0  0  0  0
    3.1749   -2.7145    3.2467 H   0  0  0  0  0  0  0  0  0  0  0  0
   -0.6587    1.6319   -2.3484 N   0  0  0  0  0  0  0  0  0  0  0  0
   -1.2861    0.8685   -1.9905 H   0  0  0  0  0  0  0  0  0  0  0  0
   -1.0733    2.4260   -2.8298 H   0  0  0  0  0  0  0  0  0  0  0  0
  1  3  1  0  0  0  0
  2  8  1  0  0  0  0
  2  7  1  0  0  0  0
  3 19  1  0  0  0  0
  4  5  2  0  0  0  0
  4  1  1  0  0  0  0
  5 17  1  0  0  0  0
  6  5  1  0  0  0  0
  7 13  1  0  0  0  0
  7  6  2  0  0  0  0
  8 22  1  6  0  0  0
  8 18  1  0  0  0  0
  9 12  1  0  0  0  0
  9  4  1  0  0  0  0
 10  9  1  0  0  0  0
 11  9  1  0  0  0  0
 13 15  1  0  0  0  0
 13 14  1  0  0  0  0
 16 13  1  0  0  0  0
 17  3  2  0  0  0  0
 18  6  1  0  0  0  0
 19 20  1  0  0  0  0
 19 21  1  0  0  0  0
 22 23  1  0  0  0  0
 24 22  1  0  0  0  0
M  END
