3
q = -1.0, confidence = 0.0

 30 32  0  0  0  0  0  0  0  0999 V2000
   -3.7301   -0.8001   -1.5070 N   0  0  0  0  0  0  0  0  0  0  0  0
   -4.2772   -1.5911   -1.8524 H   0  0  0  0  0  0  0  0  0  0  0  0
   -1.8173   -0.1450   -0.4591 N   0  0  0  0  0  2  0  0  0  0  0  0
   -1.7165   -1.7676   -2.1568 O   0  0  0  0  0  0  0  0  0  0  0  0
   -2.7393    1.2851    1.1441 O   0  0  0  0  0  0  0  0  0  0  0  0
   -2.3379   -0.9885   -1.4460 C   0  0  0  0  0  0  0  0  0  0  0  0
   -2.8214    0.4881    0.2164 C   0  0  0  0  0  0  0  0  0  0  0  0
   -4.2017   -0.0286   -0.3668 C   0  0  0  0  0  0  0  0  0  0  0  0
   -5.0687    1.1620   -0.7477 C   0  0  0  0  0  0  0  0  0  0  0  0
   -5.4056    1.4263   -2.0868 C   0  0  0  0  0  0  0  0  0  0  0  0
   -5.0208    0.7507   -2.8649 H   0  0  0  0  0  0  0  0  0  0  0  0
   -6.1979    2.5371   -2.4192 C   0  0  0  0  0  0  0  0  0  0  0  0
   -6.4546    2.7282   -3.4733 H   0  0  0  0  0  0  0  0  0  0  0  0
   -6.6547    3.4042   -1.4150 C   0  0  0  0  0  0  0  0  0  0  0  0
   -7.2745    4.2770   -1.6742 H   0  0  0  0  0  0  0  0  0  0  0  0
   -6.3068    3.1550   -0.0761 C   0  0  0  0  0  0  0  0  0  0  0  0
   -6.6472    3.8386    0.7177 H   0  0  0  0  0  0  0  0  0  0  0  0
   -5.5221    2.0430    0.2577 C   0  0  0  0  0  0  0  0  0  0  0  0
   -5.2247    1.8553    1.2987 H   0  0  0  0  0  0  0  0  0  0  0  0
   -4.8760   -0.9574    0.6548 C   0  0  0  0  0  0  0  0  0  0  0  0
   -4.0913   -1.7682    1.5028 C   0  0  0  0  0  0  0  0  0  0  0  0
   -2.9945   -1.6760    1.4798 H   0  0  0  0  0  0  0  0  0  0  0  0
   -4.6952   -2.6867    2.3720 C   0  0  0  0  0  0  0  0  0  0  0  0
   -4.0644   -3.3037    3.0306 H   0  0  0  0  0  0  0  0  0  0  0  0
   -6.0938   -2.8158    2.4096 C   0  0  0  0  0  0  0  0  0  0  0  0
   -6.5666   -3.5351    3.0965 H   0  0  0  0  0  0  0  0  0  0  0  0
   -6.8824   -2.0170    1.5679 C   0  0  0  0  0  0  0  0  0  0  0  0
   -7.9800   -2.1084    1.5876 H   0  0  0  0  0  0  0  0  0  0  0  0
   -6.2774   -1.0938    0.7001 C   0  0  0  0  0  0  0  0  0  0  0  0
   -6.9002   -0.4612    0.0497 H   0  0  0  0  0  0  0  0  0  0  0  0
  1  6  1  0  0  0  0
  1  8  1  0  0  0  0
  2  1  1  0  0  0  0
  3  7  1  0  0  0  0
  4  6  2  0  0  0  0
  6  3  1  0  0  0  0
  7  5  2  0  0  0  0
  8  7  1  0  0  0  0
  8 20  1  0  0  0  0
  9  8  1  0  0  0  0
  9 18  1  0  0  0  0
 10  9  2  0  0  0  0
 11 10  1  0  0  0  0
 12 10  1  0  0  0  0
 12 14  2  0  0  0  0
 13 12  1  0  0  0  0
 14 16  1  0  0  0  0
 15 14  1  0  0  0  0
 16 18  2  0  0  0  0
 16 17  1  0  0  0  0
 18 19  1  0  0  0  0
 20 29  2  0  0  0  0
 20 21  1  0  0  0  0
 21 23  2  0  0  0  0
 22 21  1  0  0  0  0
 23 25  1  0  0  0  0
 23 24  1  0  0  0  0
 25 26  1  0  0  0  0
 27 28  1  0  0  0  0
 27 25  2  0  0  0  0
 29 27  1  0  0  0  0
 30 29  1  0  0  0  0
M  END
