1
q = -1.0

 15 16  0  0  0  0  0  0  0  0999 V2000
   -2.0282    0.0002   -0.0002 N   0  0  0  0  0  2  0  0  0  0  0  0
   -2.4160   -2.3029   -0.1626 O   0  0  0  0  0  0  0  0  0  0  0  0
   -2.4163    2.3032    0.1628 O   0  0  0  0  0  0  0  0  0  0  0  0
   -2.8242   -1.1350   -0.0877 C   0  0  0  0  0  0  0  0  0  0  0  0
   -4.2567   -0.6996   -0.0608 C   0  0  0  0  0  0  0  0  0  0  0  0
   -5.4435   -1.4277   -0.1235 C   0  0  0  0  0  0  0  0  0  0  0  0
   -5.4299   -2.5234   -0.2183 H   0  0  0  0  0  0  0  0  0  0  0  0
   -6.6513   -0.7011   -0.0608 C   0  0  0  0  0  0  0  0  0  0  0  0
   -7.6109   -1.2379   -0.1075 H   0  0  0  0  0  0  0  0  0  0  0  0
   -6.6514    0.7010    0.0611 C   0  0  0  0  0  0  0  0  0  0  0  0
   -7.6111    1.2376    0.1080 H   0  0  0  0  0  0  0  0  0  0  0  0
   -5.4437    1.4277    0.1236 C   0  0  0  0  0  0  0  0  0  0  0  0
   -5.4302    2.5234    0.2184 H   0  0  0  0  0  0  0  0  0  0  0  0
   -4.2567    0.6997    0.0608 C   0  0  0  0  0  0  0  0  0  0  0  0
   -2.8243    1.1353    0.0875 C   0  0  0  0  0  0  0  0  0  0  0  0
  1 15  1  0  0  0  0
  2  4  2  0  0  0  0
  4  5  1  0  0  0  0
  4  1  1  0  0  0  0
  5 14  1  0  0  0  0
  6  5  2  0  0  0  0
  6  8  1  0  0  0  0
  7  6  1  0  0  0  0
  8 10  2  0  0  0  0
  9  8  1  0  0  0  0
 10 11  1  0  0  0  0
 10 12  1  0  0  0  0
 12 13  1  0  0  0  0
 14 15  1  0  0  0  0
 14 12  2  0  0  0  0
 15  3  2  0  0  0  0
M  END
