1
q = 0.0, confidence = 0.986

 15 15  0  0  1  0  0  0  0  0999 V2000
   -1.3485   -1.6956   -0.3646 N   0  0  0  0  0  2  0  0  0  0  0  0
   -2.2842   -2.0333    1.7387 N   0  0  0  0  0  0  0  0  0  0  0  0
   -2.3218   -0.9921    1.8620 H   0  0  0  0  0  0  0  0  0  0  0  0
   -2.9831   -2.5406    2.2831 H   0  0  0  0  0  0  0  0  0  0  0  0
   -0.4430   -1.1626   -2.4484 N   0  0  0  0  0  0  0  0  0  0  0  0
    0.2149   -0.4828   -1.9974 H   0  0  0  0  0  0  0  0  0  0  0  0
   -0.1567   -1.5041   -3.3645 H   0  0  0  0  0  0  0  0  0  0  0  0
   -2.1435   -2.4588    0.4486 C   0  0  2  0  0  3  0  0  0  0  0  0
   -2.7467   -3.6393   -0.0431 C   0  0  0  0  0  0  0  0  0  0  0  0
   -3.3758   -4.2443    0.6237 H   0  0  0  0  0  0  0  0  0  0  0  0
   -2.5481   -3.9854   -1.3830 C   0  0  0  0  0  0  0  0  0  0  0  0
   -3.0152   -4.8977   -1.7849 H   0  0  0  0  0  0  0  0  0  0  0  0
   -1.7805   -3.1770   -2.2219 C   0  0  0  0  0  0  0  0  0  0  0  0
   -1.6253   -3.4251   -3.2808 H   0  0  0  0  0  0  0  0  0  0  0  0
   -1.1796   -2.0096   -1.6856 C   0  0  0  0  0  0  0  0  0  0  0  0
  1  8  1  0  0  0  0
  2  3  1  0  0  0  0
  2  4  1  0  0  0  0
  5  6  1  0  0  0  0
  5 15  1  0  0  0  0
  7  5  1  0  0  0  0
  8  2  1  1  0  0  0
  9  8  1  0  0  0  0
  9 10  1  0  0  0  0
 11  9  2  0  0  0  0
 12 11  1  0  0  0  0
 13 15  2  0  0  0  0
 13 11  1  0  0  0  0
 14 13  1  0  0  0  0
 15  1  1  0  0  0  0
M  END
