1
q = -1.0

 25 26  0  0  0  0  0  0  0  0999 V2000
   -0.0866   -1.5198    0.8135 N   0  0  0  0  0  2  0  0  0  0  0  0
    1.2323   -1.7942    0.9614 N   0  0  0  0  0  0  0  0  0  0  0  0
    2.1339   -0.7779    1.3616 C   0  0  0  0  0  0  0  0  0  0  0  0
    3.4663   -0.7977    0.8958 C   0  0  0  0  0  0  0  0  0  0  0  0
    4.3666    0.1845    1.3230 C   0  0  0  0  0  0  0  0  0  0  0  0
    3.9486    1.2096    2.1868 C   0  0  0  0  0  0  0  0  0  0  0  0
    2.6159    1.2359    2.6311 C   0  0  0  0  0  0  0  0  0  0  0  0
    1.7100    0.2434    2.2389 C   0  0  0  0  0  0  0  0  0  0  0  0
    1.6421   -3.1224    0.6771 C   0  0  0  0  0  0  0  0  0  0  0  0
    2.6177   -3.7643    1.4715 C   0  0  0  0  0  0  0  0  0  0  0  0
    2.9720   -5.0888    1.1921 C   0  0  0  0  0  0  0  0  0  0  0  0
    2.3535   -5.7892    0.1410 C   0  0  0  0  0  0  0  0  0  0  0  0
    1.3781   -5.1485   -0.6393 C   0  0  0  0  0  0  0  0  0  0  0  0
    1.0234   -3.8164   -0.3865 C   0  0  0  0  0  0  0  0  0  0  0  0
   -0.6420   -2.3696    1.0164 H   0  0  0  0  0  0  0  0  0  0  0  0
    3.7854   -1.5708    0.1840 H   0  0  0  0  0  0  0  0  0  0  0  0
    5.4001    0.1630    0.9474 H   0  0  0  0  0  0  0  0  0  0  0  0
    4.6564    1.9882    2.5079 H   0  0  0  0  0  0  0  0  0  0  0  0
    2.2730    2.0340    3.3069 H   0  0  0  0  0  0  0  0  0  0  0  0
    0.6706    0.2631    2.5979 H   0  0  0  0  0  0  0  0  0  0  0  0
    3.0834   -3.2222    2.3065 H   0  0  0  0  0  0  0  0  0  0  0  0
    3.7303   -5.5866    1.8153 H   0  0  0  0  0  0  0  0  0  0  0  0
    2.6357   -6.8315   -0.0694 H   0  0  0  0  0  0  0  0  0  0  0  0
    0.8972   -5.6827   -1.4727 H   0  0  0  0  0  0  0  0  0  0  0  0
    0.2942   -3.2899   -1.0258 H   0  0  0  0  0  0  0  0  0  0  0  0
  1  2  1  0  0  0  0
  1 15  1  0  0  0  0
  2  3  1  0  0  0  0
  3  8  1  0  0  0  0
  4  5  1  0  0  0  0
  4  3  2  0  0  0  0
  5  6  2  0  0  0  0
  6 18  1  0  0  0  0
  6  7  1  0  0  0  0
  7 19  1  0  0  0  0
  8 20  1  0  0  0  0
  8  7  2  0  0  0  0
  9  2  1  0  0  0  0
  9 10  1  0  0  0  0
 10 21  1  0  0  0  0
 11 10  2  0  0  0  0
 11 22  1  0  0  0  0
 12 11  1  0  0  0  0
 13 14  1  0  0  0  0
 13 12  2  0  0  0  0
 14  9  2  0  0  0  0
 16  4  1  0  0  0  0
 17  5  1  0  0  0  0
 23 12  1  0  0  0  0
 24 13  1  0  0  0  0
 25 14  1  0  0  0  0
M  END
