1
q = -1.0

 26 27  0  0  0  0  0  0  0  0999 V2000
   -0.8552    0.7950   -0.6127 N   0  0  0  0  0  2  0  0  0  0  0  0
   -1.6713    0.0938   -1.5813 C   0  0  0  0  0  0  0  0  0  0  0  0
   -1.1545   -0.8558   -1.8333 H   0  0  0  0  0  0  0  0  0  0  0  0
   -1.7477    0.6489   -2.5522 H   0  0  0  0  0  0  0  0  0  0  0  0
   -3.0811   -0.2878   -1.1452 C   0  0  0  0  0  0  0  0  0  0  0  0
   -3.5157   -0.1028    0.1792 C   0  0  0  0  0  0  0  0  0  0  0  0
   -2.8356    0.4015    0.8790 H   0  0  0  0  0  0  0  0  0  0  0  0
   -4.7836   -0.5444    0.5889 C   0  0  0  0  0  0  0  0  0  0  0  0
   -5.1077   -0.3857    1.6295 H   0  0  0  0  0  0  0  0  0  0  0  0
   -5.6405   -1.1788   -0.3245 C   0  0  0  0  0  0  0  0  0  0  0  0
   -6.6345   -1.5274   -0.0051 H   0  0  0  0  0  0  0  0  0  0  0  0
   -5.2228   -1.3548   -1.6547 C   0  0  0  0  0  0  0  0  0  0  0  0
   -5.8900   -1.8441   -2.3813 H   0  0  0  0  0  0  0  0  0  0  0  0
   -3.9562   -0.9081   -2.0595 C   0  0  0  0  0  0  0  0  0  0  0  0
   -3.6318   -1.0521   -3.1038 H   0  0  0  0  0  0  0  0  0  0  0  0
   -1.2241    2.1042   -0.3657 C   0  0  0  0  0  0  0  0  0  0  0  0
   -2.2938    2.7701   -1.0487 C   0  0  0  0  0  0  0  0  0  0  0  0
   -2.8934    2.2311   -1.7935 H   0  0  0  0  0  0  0  0  0  0  0  0
   -2.6179    4.1069   -0.7847 C   0  0  0  0  0  0  0  0  0  0  0  0
   -3.4488    4.5684   -1.3426 H   0  0  0  0  0  0  0  0  0  0  0  0
   -1.9191    4.8593    0.1731 C   0  0  0  0  0  0  0  0  0  0  0  0
   -2.1857    5.9065    0.3776 H   0  0  0  0  0  0  0  0  0  0  0  0
   -0.8738    4.2262    0.8697 C   0  0  0  0  0  0  0  0  0  0  0  0
   -0.3042    4.7813    1.6335 H   0  0  0  0  0  0  0  0  0  0  0  0
   -0.5381    2.8947    0.6096 C   0  0  0  0  0  0  0  0  0  0  0  0
    0.2891    2.4147    1.1509 H   0  0  0  0  0  0  0  0  0  0  0  0
  1 16  1  0  0  0  0
  2  5  1  0  0  0  0
  2  1  1  0  0  0  0
  3  2  1  0  0  0  0
  4  2  1  0  0  0  0
  5  6  1  0  0  0  0
  6  8  2  0  0  0  0
  6  7  1  0  0  0  0
  8  9  1  0  0  0  0
 10 11  1  0  0  0  0
 10  8  1  0  0  0  0
 12 10  2  0  0  0  0
 13 12  1  0  0  0  0
 14 12  1  0  0  0  0
 14  5  2  0  0  0  0
 15 14  1  0  0  0  0
 16 25  1  0  0  0  0
 17 19  1  0  0  0  0
 17 16  2  0  0  0  0
 18 17  1  0  0  0  0
 19 21  2  0  0  0  0
 20 19  1  0  0  0  0
 21 22  1  0  0  0  0
 21 23  1  0  0  0  0
 23 24  1  0  0  0  0
 25 23  2  0  0  0  0
 25 26  1  0  0  0  0
M  END
