1
q = -1.0

 32 34  0  0  0  0  0  0  0  0999 V2000
    0.2798    0.9836   -0.5099 N   0  0  0  0  0  2  0  0  0  0  0  0
    0.1648    2.3550   -0.6343 C   0  0  0  0  0  0  0  0  0  0  0  0
   -0.9865    3.0489   -0.1430 C   0  0  0  0  0  0  0  0  0  0  0  0
   -1.7710    2.4442    0.3332 H   0  0  0  0  0  0  0  0  0  0  0  0
   -1.1406    4.4324   -0.2687 C   0  0  0  0  0  0  0  0  0  0  0  0
   -2.0529    4.9063    0.1302 H   0  0  0  0  0  0  0  0  0  0  0  0
   -0.1556    5.2179   -0.8943 C   0  0  0  0  0  0  0  0  0  0  0  0
   -0.2749    6.3067   -0.9927 H   0  0  0  0  0  0  0  0  0  0  0  0
    0.9906    4.5671   -1.3792 C   0  0  0  0  0  0  0  0  0  0  0  0
    1.7872    5.1528   -1.8660 H   0  0  0  0  0  0  0  0  0  0  0  0
    1.1588    3.1827   -1.2521 C   0  0  0  0  0  0  0  0  0  0  0  0
    2.0895    2.7389   -1.6289 H   0  0  0  0  0  0  0  0  0  0  0  0
    1.5122    0.4104   -1.0089 C   0  0  0  0  0  0  0  0  0  0  0  0
    1.7236    0.7391   -2.0591 H   0  0  0  0  0  0  0  0  0  0  0  0
    1.3698   -0.6884   -1.0751 H   0  0  0  0  0  0  0  0  0  0  0  0
    2.7652    0.6284   -0.1730 C   0  0  0  0  0  0  0  0  0  0  0  0
    2.7128    1.3352    1.0228 C   0  0  0  0  0  0  0  0  0  0  0  0
    1.7556    1.7896    1.3099 H   0  0  0  0  0  0  0  0  0  0  0  0
    3.8520    1.4683    1.8585 C   0  0  0  0  0  0  0  0  0  0  0  0
    3.7715    2.0397    2.7962 H   0  0  0  0  0  0  0  0  0  0  0  0
    5.0567    0.8853    1.4993 C   0  0  0  0  0  0  0  0  0  0  0  0
    5.9442    0.9775    2.1446 H   0  0  0  0  0  0  0  0  0  0  0  0
    6.3912   -0.4610   -0.1141 C   0  0  0  0  0  0  0  0  0  0  0  0
    7.2670   -0.3550    0.5456 H   0  0  0  0  0  0  0  0  0  0  0  0
    6.4860   -1.1795   -1.2961 C   0  0  0  0  0  0  0  0  0  0  0  0
    7.4387   -1.6492   -1.5841 H   0  0  0  0  0  0  0  0  0  0  0  0
    5.3505   -1.3079   -2.1387 C   0  0  0  0  0  0  0  0  0  0  0  0
    5.4294   -1.8760   -3.0783 H   0  0  0  0  0  0  0  0  0  0  0  0
    4.1443   -0.7176   -1.7872 C   0  0  0  0  0  0  0  0  0  0  0  0
    3.2795   -0.8218   -2.4574 H   0  0  0  0  0  0  0  0  0  0  0  0
    4.0090    0.0298   -0.5775 C   0  0  0  0  0  0  0  0  0  0  0  0
    5.1667    0.1561    0.2786 C   0  0  0  0  0  0  0  0  0  0  0  0
  2  1  1  0  0  0  0
  2  3  1  0  0  0  0
  3  4  1  0  0  0  0
  5  3  2  0  0  0  0
  5  6  1  0  0  0  0
  7  5  1  0  0  0  0
  8  7  1  0  0  0  0
  9 11  1  0  0  0  0
  9  7  2  0  0  0  0
 10  9  1  0  0  0  0
 11  2  2  0  0  0  0
 12 11  1  0  0  0  0
 13  1  1  0  0  0  0
 13 16  1  0  0  0  0
 14 13  1  0  0  0  0
 15 13  1  0  0  0  0
 16 17  1  0  0  0  0
 17 18  1  0  0  0  0
 17 19  2  0  0  0  0
 19 20  1  0  0  0  0
 21 19  1  0  0  0  0
 21 22  1  0  0  0  0
 23 32  1  0  0  0  0
 23 24  1  0  0  0  0
 25 23  2  0  0  0  0
 26 25  1  0  0  0  0
 27 29  2  0  0  0  0
 27 25  1  0  0  0  0
 28 27  1  0  0  0  0
 29 31  1  0  0  0  0
 30 29  1  0  0  0  0
 31 16  2  0  0  0  0
 31 32  1  0  0  0  0
 32 21  2  0  0  0  0
M  END
