4
q = -1.0

 12 12  0  0  0  0  0  0  0  0999 V2000
   -3.3691    1.5235    0.5481 N   0  0  0  0  0  2  0  0  0  0  0  0
   -2.4802    0.5001    0.6411 C   0  0  0  0  0  0  0  0  0  0  0  0
   -2.5441   -0.3850    1.5413 O   0  0  0  0  0  0  0  0  0  0  0  0
   -1.4160    0.3971   -0.2888 N   0  0  0  0  0  0  0  0  0  0  0  0
   -1.3056    1.2570   -1.3431 C   0  0  0  0  0  0  0  0  0  0  0  0
   -0.3252    1.0540   -2.2627 N   0  0  0  0  0  0  0  0  0  0  0  0
    0.4257    0.3711   -2.0871 H   0  0  0  0  0  0  0  0  0  0  0  0
   -0.1375    1.7901   -2.9402 H   0  0  0  0  0  0  0  0  0  0  0  0
   -2.2412    2.3127   -1.4509 C   0  0  0  0  0  0  0  0  0  0  0  0
   -2.1823    3.0353   -2.2756 H   0  0  0  0  0  0  0  0  0  0  0  0
   -3.2259    2.3856   -0.4617 C   0  0  0  0  0  0  0  0  0  0  0  0
   -3.9616    3.2121   -0.5011 H   0  0  0  0  0  0  0  0  0  0  0  0
  1  2  1  0  0  0  0
  2  3  2  0  0  0  0
  4  2  1  0  0  0  0
  5  4  2  0  0  0  0
  6  7  1  0  0  0  0
  6  5  1  0  0  0  0
  8  6  1  0  0  0  0
  9  5  1  0  0  0  0
  9 11  2  0  0  0  0
 10  9  1  0  0  0  0
 11  1  1  0  0  0  0
 12 11  1  0  0  0  0
M  END
