14
q = 0.0, confidence = 0.994

 17 18  0  0  0  0  0  0  0  0999 V2000
   -2.9756    0.3107   -1.0490 C   0  0  0  0  0  3  0  0  0  0  0  0
   -2.3831   -0.0628   -1.8995 H   0  0  0  0  0  0  0  0  0  0  0  0
   -4.3660    0.2009   -1.0293 C   0  0  0  0  0  0  0  0  0  0  0  0
   -4.8942   -0.2836   -1.8599 H   0  0  0  0  0  0  0  0  0  0  0  0
   -5.0674    0.6849    0.0920 C   0  0  0  0  0  0  0  0  0  0  0  0
   -4.3379    1.3226    1.1172 C   0  0  0  0  0  0  0  0  0  0  0  0
   -4.8423    1.7217    2.0080 H   0  0  0  0  0  0  0  0  0  0  0  0
   -2.9471    1.3840    1.0075 C   0  0  0  0  0  0  0  0  0  0  0  0
   -2.3448    1.8563    1.8006 H   0  0  0  0  0  0  0  0  0  0  0  0
   -7.2057   -0.5859   -0.2221 C   0  0  0  0  0  0  0  0  0  0  0  0
   -6.7322   -1.4936   -0.6334 H   0  0  0  0  0  0  0  0  0  0  0  0
   -7.3973    1.3772    0.7372 C   0  0  0  0  0  0  0  0  0  0  0  0
   -7.1458    2.3707    1.1285 H   0  0  0  0  0  0  0  0  0  0  0  0
   -2.2709    0.8667   -0.0386 N   0  0  0  0  0  2  0  0  0  0  0  0
   -6.4564    0.5150    0.1898 N   0  0  0  0  0  0  0  0  0  0  0  0
   -8.4737   -0.3916    0.0645 N   0  0  0  0  0  0  0  0  0  0  0  0
   -8.5986    0.8565    0.6459 N   0  0  0  0  0  0  0  0  0  0  0  0
  1  3  1  0  0  0  0
  1 14  1  0  0  0  0
  2  1  1  0  0  0  0
  3  5  2  0  0  0  0
  4  3  1  0  0  0  0
  5 15  1  0  0  0  0
  5  6  1  0  0  0  0
  6  7  1  0  0  0  0
  8  6  2  0  0  0  0
  8  9  1  0  0  0  0
 10 16  2  0  0  0  0
 10 15  1  0  0  0  0
 11 10  1  0  0  0  0
 12 13  1  0  0  0  0
 14  8  1  0  0  0  0
 15 12  1  0  0  0  0
 16 17  1  0  0  0  0
 17 12  2  0  0  0  0
M  END
