36
q = -2.0, confidence = 0.912

 36 41  0  0  1  0  0  0  0  0999 V2000
    2.2665   -0.6155    0.7863 C   0  0  2  0  0  0  0  0  0  0  0  0
    2.0611   -0.9030   -0.7545 C   0  0  1  0  0  0  0  0  0  0  0  0
    1.7425   -1.9121   -1.0443 H   0  0  0  0  0  0  0  0  0  0  0  0
    2.0888   -1.7292    1.8235 C   0  0  0  0  0  0  0  0  0  0  0  0
    2.7512   -2.5833    1.5802 H   0  0  0  0  0  0  0  0  0  0  0  0
    2.4552   -1.3387    2.7925 H   0  0  0  0  0  0  0  0  0  0  0  0
    0.6791   -2.2710    1.9628 C   0  0  0  0  0  0  0  0  0  0  0  0
    0.3810   -2.8166    1.0462 H   0  0  0  0  0  0  0  0  0  0  0  0
    0.6329   -2.9954    2.8115 H   0  0  0  0  0  0  0  0  0  0  0  0
   -0.1026   -0.5113    3.4549 C   0  0  0  0  0  0  0  0  0  0  0  0
   -0.0928   -1.2353    4.3017 H   0  0  0  0  0  0  0  0  0  0  0  0
   -0.9068    0.2242    3.6291 H   0  0  0  0  0  0  0  0  0  0  0  0
    0.8573    0.0304    3.4207 H   0  0  0  0  0  0  0  0  0  0  0  0
   -1.6549   -1.8972    2.2596 C   0  0  0  0  0  0  0  0  0  0  0  0
   -1.6393   -2.6649    3.0674 H   0  0  0  0  0  0  0  0  0  0  0  0
   -1.8752   -2.3769    1.2905 H   0  0  0  0  0  0  0  0  0  0  0  0
   -2.4491   -1.1687    2.4855 H   0  0  0  0  0  0  0  0  0  0  0  0
    1.6391    0.4720   -1.6079 B   0  0  1  0  0  0  0  0  0  0  0  0
    0.9472    0.3633   -2.6037 H   0  0  0  0  0  0  0  0  0  0  0  0
    1.6730    1.7991   -0.4365 B   0  0  1  0  0  0  0  0  0  0  0  0
    1.1361    2.8691   -0.5530 H   0  0  0  0  0  0  0  0  0  0  0  0
    2.0080    1.0121    1.1004 B   0  0  2  0  0  0  0  0  0  0  0  0
    1.6242    1.3617    2.2029 H   0  0  0  0  0  0  0  0  0  0  0  0
    3.6750   -0.9199   -0.1845 B   0  0  1  0  0  0  0  0  0  0  0  0
    4.2276   -1.9846   -0.0458 H   0  0  0  0  0  0  0  0  0  0  0  0
    3.2763   -0.2007   -1.7457 B   0  0  2  0  0  0  0  0  0  0  0  0
    3.6247   -0.7937   -2.7404 H   0  0  0  0  0  0  0  0  0  0  0  0
    3.0622    1.5441   -1.5076 B   0  0  0  0  0  0  0  0  0  0  0  0
    3.3347    2.3297   -2.3896 H   0  0  0  0  0  0  0  0  0  0  0  0
    3.3108    1.8858    0.2348 B   0  0  1  0  0  0  0  0  0  0  0  0
    3.7642    2.9295    0.6524 H   0  0  0  0  0  0  0  0  0  0  0  0
    3.6659    0.3577    1.0411 B   0  0  2  0  0  0  0  0  0  0  0  0
    4.2990    0.1741    2.0564 H   0  0  0  0  0  0  0  0  0  0  0  0
    4.3244    0.6659   -0.5896 B   0  0  1  0  0  0  0  0  0  0  0  0
    5.5138    0.7897   -0.7752 H   0  0  0  0  0  0  0  0  0  0  0  0
   -0.3480   -1.2148    2.1772 N   0  0  0  0  0  0  0  0  0  0  0  0
  1 32  1  0  0  0  0
  1 22  1  0  0  0  0
  1  4  1  1  0  0  0
  2  3  1  6  0  0  0
  2 24  1  0  0  0  0
  2  1  1  0  0  0  0
  4  7  1  0  0  0  0
  4  6  1  0  0  0  0
  5  4  1  0  0  0  0
  7 36  1  0  0  0  0
  7  9  1  0  0  0  0
  8  7  1  0  0  0  0
 10 12  1  0  0  0  0
 10 11  1  0  0  0  0
 13 10  1  0  0  0  0
 14 17  1  0  0  0  0
 14 15  1  0  0  0  0
 16 14  1  0  0  0  0
 18 19  1  6  0  0  0
 18  2  1  0  0  0  0
 18 20  1  0  0  0  0
 20 21  1  6  0  0  0
 20 30  1  0  0  0  0
 20 22  1  0  0  0  0
 22 23  1  1  0  0  0
 24 25  1  1  0  0  0
 26 27  1  6  0  0  0
 26 18  1  0  0  0  0
 26 28  1  0  0  0  0
 26 24  1  0  0  0  0
 28 34  1  0  0  0  0
 29 28  1  0  0  0  0
 30 31  1  1  0  0  0
 30 32  1  0  0  0  0
 32 22  1  0  0  0  0
 32 33  1  1  0  0  0
 34 35  1  6  0  0  0
 34 24  1  0  0  0  0
 34 30  1  0  0  0  0
 36 14  1  0  0  0  0
 36 10  1  0  0  0  0
M  END
