2
q = 0.0, confidence = 0.994

 19 20  0  0  1  0  0  0  0  0999 V2000
    0.7784   -2.8651   -3.6916 S   0  0  0  0  0  0  0  0  0  0  0  0
    0.5956   -1.4954   -1.4650 N   0  0  0  0  0  2  0  0  0  0  0  0
   -0.8984   -0.7900   -3.1588 N   0  0  0  0  0  0  0  0  0  0  0  0
   -1.3486   -0.1114   -2.5096 H   0  0  0  0  0  0  0  0  0  0  0  0
   -1.2574   -0.9281   -4.0998 H   0  0  0  0  0  0  0  0  0  0  0  0
    1.5944   -2.4417   -1.2528 C   0  0  0  0  0  0  0  0  0  0  0  0
    1.8401   -3.3017   -2.3555 C   0  0  0  0  0  0  0  0  0  0  0  0
    2.8070   -4.3136   -2.3108 C   0  0  0  0  0  0  0  0  0  0  0  0
    2.9786   -4.9662   -3.1797 H   0  0  0  0  0  0  0  0  0  0  0  0
    3.5620   -4.4868   -1.1354 C   0  0  0  0  0  0  0  0  0  0  0  0
    3.3247   -3.6194   -0.0412 C   0  0  0  0  0  0  0  0  0  0  0  0
    3.9251   -3.7431    0.8737 H   0  0  0  0  0  0  0  0  0  0  0  0
    2.3613   -2.6068   -0.0839 C   0  0  0  0  0  0  0  0  0  0  0  0
    2.2176   -1.9197    0.7603 H   0  0  0  0  0  0  0  0  0  0  0  0
    0.0792   -1.5795   -2.6852 C   0  0  2  0  0  3  0  0  0  0  0  0
    4.6069   -5.5705   -1.0377 C   0  0  0  0  0  0  0  0  0  0  0  0
    4.7177   -6.1207   -1.9918 H   0  0  0  0  0  0  0  0  0  0  0  0
    4.3481   -6.3099   -0.2506 H   0  0  0  0  0  0  0  0  0  0  0  0
    5.5993   -5.1518   -0.7703 H   0  0  0  0  0  0  0  0  0  0  0  0
  1 15  1  0  0  0  0
  1  7  1  0  0  0  0
  2  6  1  0  0  0  0
  3  4  1  0  0  0  0
  5  3  1  0  0  0  0
  6 13  1  0  0  0  0
  7  8  1  0  0  0  0
  7  6  2  0  0  0  0
  8 10  2  0  0  0  0
  9  8  1  0  0  0  0
 10 16  1  0  0  0  0
 10 11  1  0  0  0  0
 11 12  1  0  0  0  0
 13 11  2  0  0  0  0
 13 14  1  0  0  0  0
 15  3  1  1  0  0  0
 15  2  1  0  0  0  0
 16 19  1  0  0  0  0
 16 18  1  0  0  0  0
 17 16  1  0  0  0  0
M  END
