1
q = 0.0, confidence = 0.974

 37 38  0  0  0  0  0  0  0  0999 V2000
    1.4719   -1.7108   -1.1998 N   0  0  0  0  0  2  0  0  0  0  0  0
   -0.2361   -0.2378   -1.4277 N   0  0  0  0  0  2  0  0  0  0  0  0
   -0.6398    0.9520   -1.6451 N   0  0  0  0  0  2  0  0  0  0  0  0
   -6.1174    1.8781   -0.7784 N   0  0  0  0  0  0  0  0  0  0  0  0
    2.7208   -2.1607   -1.3796 C   0  0  0  0  0  3  0  0  0  0  0  0
    2.9376   -3.1282   -0.8947 H   0  0  0  0  0  0  0  0  0  0  0  0
    3.6737   -1.4180   -2.0917 C   0  0  0  0  0  0  0  0  0  0  0  0
    4.6810   -1.8284   -2.2519 H   0  0  0  0  0  0  0  0  0  0  0  0
    3.3137   -0.1486   -2.5828 C   0  0  0  0  0  0  0  0  0  0  0  0
    4.0495    0.4658   -3.1251 H   0  0  0  0  0  0  0  0  0  0  0  0
    2.0173    0.3281   -2.3745 C   0  0  0  0  0  0  0  0  0  0  0  0
    1.6702    1.3105   -2.7221 H   0  0  0  0  0  0  0  0  0  0  0  0
    1.1088   -0.5027   -1.6846 C   0  0  0  0  0  0  0  0  0  0  0  0
   -2.0042    1.1229   -1.4437 C   0  0  0  0  0  0  0  0  0  0  0  0
   -2.4949    2.4477   -1.3775 C   0  0  0  0  0  0  0  0  0  0  0  0
   -1.7745    3.2705   -1.4969 H   0  0  0  0  0  0  0  0  0  0  0  0
   -3.8385    2.7054   -1.1337 C   0  0  0  0  0  0  0  0  0  0  0  0
   -4.1695    3.7486   -1.0632 H   0  0  0  0  0  0  0  0  0  0  0  0
   -4.7753    1.6352   -0.9831 C   0  0  0  0  0  0  0  0  0  0  0  0
   -4.2673    0.2982   -1.0816 C   0  0  0  0  0  0  0  0  0  0  0  0
   -4.9435   -0.5602   -0.9829 H   0  0  0  0  0  0  0  0  0  0  0  0
   -2.9233    0.0455   -1.3024 C   0  0  0  0  0  0  0  0  0  0  0  0
   -2.5488   -0.9894   -1.3845 H   0  0  0  0  0  0  0  0  0  0  0  0
   -7.0630    0.7804   -0.5871 C   0  0  0  0  0  0  0  0  0  0  0  0
   -6.8445   -0.0149   -1.3295 H   0  0  0  0  0  0  0  0  0  0  0  0
   -8.0689    1.1675   -0.8479 H   0  0  0  0  0  0  0  0  0  0  0  0
   -7.0812    0.1893    0.8265 C   0  0  0  0  0  0  0  0  0  0  0  0
   -6.0782   -0.1839    1.1120 H   0  0  0  0  0  0  0  0  0  0  0  0
   -7.7920   -0.6600    0.8807 H   0  0  0  0  0  0  0  0  0  0  0  0
   -7.3916    0.9424    1.5774 H   0  0  0  0  0  0  0  0  0  0  0  0
   -6.6153    3.2398   -0.6007 C   0  0  0  0  0  0  0  0  0  0  0  0
   -7.7004    3.2233   -0.8280 H   0  0  0  0  0  0  0  0  0  0  0  0
   -6.1571    3.8944   -1.3717 H   0  0  0  0  0  0  0  0  0  0  0  0
   -6.3846    3.8284    0.7959 C   0  0  0  0  0  0  0  0  0  0  0  0
   -6.9201    3.2476    1.5724 H   0  0  0  0  0  0  0  0  0  0  0  0
   -6.7500    4.8743    0.8398 H   0  0  0  0  0  0  0  0  0  0  0  0
   -5.3078    3.8302    1.0573 H   0  0  0  0  0  0  0  0  0  0  0  0
  3 14  1  0  0  0  0
  3  2  1  0  0  0  0
  4 31  1  0  0  0  0
  4 24  1  0  0  0  0
  5  1  1  0  0  0  0
  5  6  1  0  0  0  0
  7  5  1  0  0  0  0
  8  7  1  0  0  0  0
  9 11  1  0  0  0  0
  9  7  2  0  0  0  0
 10  9  1  0  0  0  0
 11 13  2  0  0  0  0
 12 11  1  0  0  0  0
 13  2  1  0  0  0  0
 13  1  1  0  0  0  0
 14 15  2  0  0  0  0
 14 22  1  0  0  0  0
 15 17  1  0  0  0  0
 16 15  1  0  0  0  0
 17 18  1  0  0  0  0
 17 19  2  0  0  0  0
 19  4  1  0  0  0  0
 20 19  1  0  0  0  0
 20 21  1  0  0  0  0
 22 20  2  0  0  0  0
 23 22  1  0  0  0  0
 24 27  1  0  0  0  0
 25 24  1  0  0  0  0
 26 24  1  0  0  0  0
 27 29  1  0  0  0  0
 27 28  1  0  0  0  0
 27 30  1  0  0  0  0
 31 34  1  0  0  0  0
 32 31  1  0  0  0  0
 33 31  1  0  0  0  0
 34 36  1  0  0  0  0
 34 37  1  0  0  0  0
 34 35  1  0  0  0  0
M  END
