2
q = 0.0, confidence = 0.994

 19 19  0  0  1  0  0  0  0  0999 V2000
    3.1705    0.9825    2.3836 O   0  0  0  0  0  0  0  0  0  0  0  0
    1.6555   -0.0234    1.0588 N   0  0  0  0  0  2  0  0  0  0  0  0
    0.9758    1.9731    2.3760 C   0  0  0  0  0  0  0  0  0  0  0  0
   -0.0406    1.5570    2.4958 H   0  0  0  0  0  0  0  0  0  0  0  0
    0.9135    2.7496    1.5819 H   0  0  0  0  0  0  0  0  0  0  0  0
    1.3325    2.4281    3.3168 H   0  0  0  0  0  0  0  0  0  0  0  0
    1.9146    0.9184    1.9132 C   0  0  2  0  0  3  0  0  0  0  0  0
    3.9211   -0.0847    1.7507 C   0  0  0  0  0  0  0  0  0  0  0  0
    4.2959   -0.7564    2.5495 H   0  0  0  0  0  0  0  0  0  0  0  0
    4.7828    0.3713    1.2244 H   0  0  0  0  0  0  0  0  0  0  0  0
    2.9114   -0.7825    0.7862 C   0  0  0  0  0  0  0  0  0  0  0  0
    3.3109   -0.6011   -0.6837 C   0  0  0  0  0  0  0  0  0  0  0  0
    2.5504   -1.0531   -1.3514 H   0  0  0  0  0  0  0  0  0  0  0  0
    4.2818   -1.1014   -0.8759 H   0  0  0  0  0  0  0  0  0  0  0  0
    3.4001    0.4729   -0.9403 H   0  0  0  0  0  0  0  0  0  0  0  0
    2.7142   -2.2623    1.1318 C   0  0  0  0  0  0  0  0  0  0  0  0
    1.9171   -2.6992    0.4970 H   0  0  0  0  0  0  0  0  0  0  0  0
    2.4351   -2.3880    2.1977 H   0  0  0  0  0  0  0  0  0  0  0  0
    3.6517   -2.8258    0.9500 H   0  0  0  0  0  0  0  0  0  0  0  0
  2  7  1  0  0  0  0
  3  4  1  0  0  0  0
  3  6  1  0  0  0  0
  5  3  1  0  0  0  0
  7  3  1  6  0  0  0
  7  1  1  0  0  0  0
  8  1  1  0  0  0  0
  8  9  1  0  0  0  0
 10  8  1  0  0  0  0
 11  2  1  0  0  0  0
 11 16  1  0  0  0  0
 11  8  1  0  0  0  0
 12 11  1  0  0  0  0
 13 12  1  0  0  0  0
 14 12  1  0  0  0  0
 15 12  1  0  0  0  0
 16 18  1  0  0  0  0
 17 16  1  0  0  0  0
 19 16  1  0  0  0  0
M  END
