17
q = 0.0, confidence = 0.98

 19 20  0  0  0  0  0  0  0  0999 V2000
    3.5337    3.3768   -0.7661 C   0  0  0  0  0  0  0  0  0  0  0  0
    3.5028    1.3313    0.1395 C   0  0  0  0  0  0  0  0  0  0  0  0
    2.2167    0.9880   -0.3309 C   0  0  0  0  0  0  0  0  0  0  0  0
    1.5142    1.9498   -1.1347 C   0  0  0  0  0  0  0  0  0  0  0  0
    2.9590   -0.7123    0.7912 C   0  0  0  0  0  3  0  0  0  0  0  0
    3.0455   -1.6919    1.2754 H   0  0  0  0  0  0  0  0  0  0  0  0
    5.2490    0.1148    1.4997 C   0  0  0  0  0  0  0  0  0  0  0  0
    5.8517   -0.6830    1.0244 H   0  0  0  0  0  0  0  0  0  0  0  0
    5.1220   -0.1095    2.5759 H   0  0  0  0  0  0  0  0  0  0  0  0
    5.7690    1.0827    1.3838 H   0  0  0  0  0  0  0  0  0  0  0  0
    2.2705    3.1401   -1.2796 N   0  0  0  0  0  0  0  0  0  0  0  0
    1.8031    3.8457   -1.8582 H   0  0  0  0  0  0  0  0  0  0  0  0
    4.1038    4.5809   -1.0069 N   0  0  0  0  0  0  0  0  0  0  0  0
    3.7028    5.2658   -1.6436 H   0  0  0  0  0  0  0  0  0  0  0  0
    5.0584    4.7208   -0.6767 H   0  0  0  0  0  0  0  0  0  0  0  0
    4.1839    2.4747   -0.0433 N   0  0  0  0  0  0  0  0  0  0  0  0
    1.8987   -0.2974    0.0954 N   0  0  0  0  0  2  0  0  0  0  0  0
    3.9518    0.2325    0.8467 N   0  0  0  0  0  0  0  0  0  0  0  0
    0.4070    1.8747   -1.6904 O   0  0  0  0  0  0  0  0  0  0  0  0
  1 16  2  0  0  0  0
  2 18  1  0  0  0  0
  3 17  1  0  0  0  0
  3  2  2  0  0  0  0
  4  3  1  0  0  0  0
  5 18  1  0  0  0  0
  5  6  1  0  0  0  0
  7  9  1  0  0  0  0
  8  7  1  0  0  0  0
 10  7  1  0  0  0  0
 11  4  1  0  0  0  0
 11  1  1  0  0  0  0
 12 11  1  0  0  0  0
 13  1  1  0  0  0  0
 13 15  1  0  0  0  0
 14 13  1  0  0  0  0
 16  2  1  0  0  0  0
 17  5  1  0  0  0  0
 18  7  1  0  0  0  0
 19  4  2  0  0  0  0
M  END
