18
q = 0.0, confidence = 0.988

 19 20  0  0  0  0  0  0  0  0999 V2000
    4.6862    0.2671    0.4897 C   0  0  0  0  0  0  0  0  0  0  0  0
    2.5686    0.7860   -0.0618 C   0  0  0  0  0  0  0  0  0  0  0  0
    2.8482    2.1548   -0.2053 C   0  0  0  0  0  0  0  0  0  0  0  0
    4.1702    2.6794    0.0349 C   0  0  0  0  0  0  0  0  0  0  0  0
    1.4941    4.1992   -0.8467 C   0  0  0  0  0  0  0  0  0  0  0  0
    1.4146    4.3671   -1.9390 H   0  0  0  0  0  0  0  0  0  0  0  0
    2.3891    4.7277   -0.4712 H   0  0  0  0  0  0  0  0  0  0  0  0
    0.5871    4.5852   -0.3450 H   0  0  0  0  0  0  0  0  0  0  0  0
    0.7164    1.8036   -0.6196 C   0  0  0  0  0  3  0  0  0  0  0  0
   -0.3314    2.0069   -0.8694 H   0  0  0  0  0  0  0  0  0  0  0  0
    5.0406    1.6026    0.3802 N   0  0  0  0  0  0  0  0  0  0  0  0
    6.0020    1.9034    0.5706 H   0  0  0  0  0  0  0  0  0  0  0  0
    5.6502   -0.6177    0.8370 N   0  0  0  0  0  0  0  0  0  0  0  0
    5.3864   -1.6017    0.8807 H   0  0  0  0  0  0  0  0  0  0  0  0
    6.6273   -0.3606    0.9538 H   0  0  0  0  0  0  0  0  0  0  0  0
    3.4524   -0.1716    0.2791 N   0  0  0  0  0  0  0  0  0  0  0  0
    1.6606    2.7768   -0.5569 N   0  0  0  0  0  0  0  0  0  0  0  0
    1.2189    0.5873   -0.3257 N   0  0  0  0  0  2  0  0  0  0  0  0
    4.5715    3.8372   -0.0178 O   0  0  0  0  0  0  0  0  0  0  0  0
  1 13  1  0  0  0  0
  2 16  1  0  0  0  0
  3  2  2  0  0  0  0
  3  4  1  0  0  0  0
  4 11  1  0  0  0  0
  5 17  1  0  0  0  0
  5  7  1  0  0  0  0
  5  8  1  0  0  0  0
  6  5  1  0  0  0  0
  9 17  1  0  0  0  0
  9 18  1  0  0  0  0
 10  9  1  0  0  0  0
 11  1  1  0  0  0  0
 11 12  1  0  0  0  0
 13 14  1  0  0  0  0
 13 15  1  0  0  0  0
 16  1  2  0  0  0  0
 17  3  1  0  0  0  0
 18  2  1  0  0  0  0
 19  4  2  0  0  0  0
M  END
