1
q = -1.0

 28 28  0  0  0  0  0  0  0  0999 V2000
    0.6919    1.5765   -0.0688 N   0  0  0  0  0  2  0  0  0  0  0  0
    0.2105    3.8393   -0.4152 O   0  0  0  0  0  0  0  0  0  0  0  0
   -1.3109    2.3442    0.4834 O   0  0  0  0  0  0  0  0  0  0  0  0
   -0.0768    2.7121   -0.0356 C   0  0  0  0  0  0  0  0  0  0  0  0
   -2.4443    3.2643    0.4553 C   0  0  0  0  0  0  0  0  0  0  0  0
   -3.5594    2.4499    1.1171 C   0  0  0  0  0  0  0  0  0  0  0  0
   -3.7255    1.5035    0.5688 H   0  0  0  0  0  0  0  0  0  0  0  0
   -4.5059    3.0267    1.1267 H   0  0  0  0  0  0  0  0  0  0  0  0
   -3.2891    2.2021    2.1627 H   0  0  0  0  0  0  0  0  0  0  0  0
   -2.7992    3.5913   -1.0009 C   0  0  0  0  0  0  0  0  0  0  0  0
   -1.9686    4.1369   -1.4862 H   0  0  0  0  0  0  0  0  0  0  0  0
   -3.7122    4.2189   -1.0433 H   0  0  0  0  0  0  0  0  0  0  0  0
   -2.9937    2.6547   -1.5624 H   0  0  0  0  0  0  0  0  0  0  0  0
   -2.1380    4.5261    1.2719 C   0  0  0  0  0  0  0  0  0  0  0  0
   -1.8401    4.2479    2.3027 H   0  0  0  0  0  0  0  0  0  0  0  0
   -3.0429    5.1642    1.3331 H   0  0  0  0  0  0  0  0  0  0  0  0
   -1.3146    5.0983    0.8087 H   0  0  0  0  0  0  0  0  0  0  0  0
    2.0537    1.6544   -0.3056 C   0  0  0  0  0  0  0  0  0  0  0  0
    2.6695    0.7402   -1.1982 C   0  0  0  0  0  0  0  0  0  0  0  0
    4.0557    0.7208   -1.3857 C   0  0  0  0  0  0  0  0  0  0  0  0
    4.8873    1.6282   -0.7217 C   0  0  0  0  0  0  0  0  0  0  0  0
    5.9729    1.6228   -0.8802 H   0  0  0  0  0  0  0  0  0  0  0  0
    4.2949    2.5485    0.1509 C   0  0  0  0  0  0  0  0  0  0  0  0
    2.9098    2.5599    0.3726 C   0  0  0  0  0  0  0  0  0  0  0  0
    4.5935   -0.1905   -2.2264 F   0  0  0  0  0  0  0  0  0  0  0  0
    1.9021   -0.1429   -1.8725 F   0  0  0  0  0  0  0  0  0  0  0  0
    2.4038    3.4001    1.2845 F   0  0  0  0  0  0  0  0  0  0  0  0
    5.0660    3.4207    0.8239 F   0  0  0  0  0  0  0  0  0  0  0  0
  1  4  1  0  0  0  0
  2  4  2  0  0  0  0
  4  3  1  0  0  0  0
  5  3  1  0  0  0  0
  5  6  1  0  0  0  0
  5 14  1  0  0  0  0
  6  8  1  0  0  0  0
  6  9  1  0  0  0  0
  7  6  1  0  0  0  0
 10  5  1  0  0  0  0
 11 10  1  0  0  0  0
 12 10  1  0  0  0  0
 13 10  1  0  0  0  0
 14 16  1  0  0  0  0
 14 15  1  0  0  0  0
 17 14  1  0  0  0  0
 18  1  1  0  0  0  0
 18 24  1  0  0  0  0
 19 18  2  0  0  0  0
 20 19  1  0  0  0  0
 20 21  2  0  0  0  0
 21 23  1  0  0  0  0
 22 21  1  0  0  0  0
 23 24  2  0  0  0  0
 23 28  1  0  0  0  0
 24 27  1  0  0  0  0
 25 20  1  0  0  0  0
 26 19  1  0  0  0  0
M  END
