4
q = 0.0, confidence = 0.996

 17 18  0  0  1  0  0  0  0  0999 V2000
   -2.0609   -1.4162   -2.4276 N   0  0  0  0  0  0  0  0  0  0  0  0
   -2.1983   -1.7626   -3.3747 H   0  0  0  0  0  0  0  0  0  0  0  0
   -1.1113   -0.4922   -2.0414 C   0  0  1  0  0  3  0  0  0  0  0  0
   -1.1699   -0.2951   -0.7128 N   0  0  0  0  0  2  0  0  0  0  0  0
   -2.1863   -1.0966   -0.2124 C   0  0  0  0  0  0  0  0  0  0  0  0
   -2.6794   -1.2513    1.0917 C   0  0  0  0  0  0  0  0  0  0  0  0
   -2.2504   -0.6621    1.9132 H   0  0  0  0  0  0  0  0  0  0  0  0
   -3.7369   -2.1550    1.2837 C   0  0  0  0  0  0  0  0  0  0  0  0
   -4.1457   -2.2947    2.2957 H   0  0  0  0  0  0  0  0  0  0  0  0
   -4.2940   -2.8826    0.2104 C   0  0  0  0  0  0  0  0  0  0  0  0
   -5.1220   -3.5816    0.3996 H   0  0  0  0  0  0  0  0  0  0  0  0
   -3.8157   -2.7255   -1.1034 C   0  0  0  0  0  0  0  0  0  0  0  0
   -4.2550   -3.2857   -1.9420 H   0  0  0  0  0  0  0  0  0  0  0  0
   -2.7628   -1.8260   -1.2918 C   0  0  0  0  0  0  0  0  0  0  0  0
   -0.2288    0.1040   -2.8629 N   0  0  0  0  0  0  0  0  0  0  0  0
    0.4096    0.8567   -2.4709 H   0  0  0  0  0  0  0  0  0  0  0  0
   -0.3525    0.0390   -3.8708 H   0  0  0  0  0  0  0  0  0  0  0  0
  1  3  1  0  0  0  0
  1 14  1  0  0  0  0
  2  1  1  0  0  0  0
  3 15  1  1  0  0  0
  3  4  1  0  0  0  0
  4  5  1  0  0  0  0
  5  6  1  0  0  0  0
  6  8  2  0  0  0  0
  6  7  1  0  0  0  0
  8  9  1  0  0  0  0
 10 11  1  0  0  0  0
 10  8  1  0  0  0  0
 12 10  2  0  0  0  0
 13 12  1  0  0  0  0
 14 12  1  0  0  0  0
 14  5  2  0  0  0  0
 15 16  1  0  0  0  0
 17 15  1  0  0  0  0
M  END
