4
q = -1.0, confidence = 0.0

 25 25  0  0  0  0  0  0  0  0999 V2000
   -0.9145   -0.4008    2.3748 Si  0  0  1  0  0  0  0  0  0  0  0  0
    0.4110    0.4944    2.1013 H   0  0  0  0  0  0  0  0  0  0  0  0
   -0.1166   -2.2026    3.1455 Cl  0  0  0  0  0  0  0  0  0  0  0  0
   -1.5718   -0.4685    0.8181 N   0  0  0  0  0  2  0  0  0  0  0  0
   -2.6565   -1.0567    0.1501 C   0  0  0  0  0  0  0  0  0  0  0  0
   -2.4894   -2.3301   -0.4686 C   0  0  0  0  0  0  0  0  0  0  0  0
   -3.5467   -2.8645   -1.2275 C   0  0  0  0  0  0  0  0  0  0  0  0
   -3.4074   -3.8426   -1.7157 H   0  0  0  0  0  0  0  0  0  0  0  0
   -4.7588   -2.1759   -1.3717 C   0  0  0  0  0  0  0  0  0  0  0  0
   -5.5724   -2.6038   -1.9769 H   0  0  0  0  0  0  0  0  0  0  0  0
   -4.9306   -0.9427   -0.7273 C   0  0  0  0  0  0  0  0  0  0  0  0
   -5.8868   -0.4024   -0.8181 H   0  0  0  0  0  0  0  0  0  0  0  0
   -3.9011   -0.3712    0.0448 C   0  0  0  0  0  0  0  0  0  0  0  0
   -1.1983   -3.0844   -0.3037 C   0  0  0  0  0  0  0  0  0  0  0  0
   -0.3239   -2.4300   -0.4867 H   0  0  0  0  0  0  0  0  0  0  0  0
   -1.1505   -3.9580   -0.9823 H   0  0  0  0  0  0  0  0  0  0  0  0
   -1.0762   -3.4486    0.7372 H   0  0  0  0  0  0  0  0  0  0  0  0
   -4.1113    0.9360    0.7604 C   0  0  0  0  0  0  0  0  0  0  0  0
   -5.0495    1.4261    0.4353 H   0  0  0  0  0  0  0  0  0  0  0  0
   -3.2612    1.6326    0.6189 H   0  0  0  0  0  0  0  0  0  0  0  0
   -4.1822    0.7790    1.8587 H   0  0  0  0  0  0  0  0  0  0  0  0
   -1.7950    0.4400    3.7918 C   0  0  0  0  0  0  0  0  0  0  0  0
   -2.7082   -0.1289    4.0583 H   0  0  0  0  0  0  0  0  0  0  0  0
   -2.0733    1.4615    3.4675 H   0  0  0  0  0  0  0  0  0  0  0  0
   -1.1409    0.4933    4.6842 H   0  0  0  0  0  0  0  0  0  0  0  0
  1  2  1  6  0  0  0
  1  3  1  0  0  0  0
  1 22  1  0  0  0  0
  4  1  1  0  0  0  0
  5  4  1  0  0  0  0
  6 14  1  0  0  0  0
  6  5  2  0  0  0  0
  7  6  1  0  0  0  0
  8  7  1  0  0  0  0
  9  7  2  0  0  0  0
  9 11  1  0  0  0  0
 10  9  1  0  0  0  0
 11 13  2  0  0  0  0
 12 11  1  0  0  0  0
 13  5  1  0  0  0  0
 13 18  1  0  0  0  0
 14 17  1  0  0  0  0
 15 14  1  0  0  0  0
 16 14  1  0  0  0  0
 18 21  1  0  0  0  0
 19 18  1  0  0  0  0
 20 18  1  0  0  0  0
 22 23  1  0  0  0  0
 22 25  1  0  0  0  0
 24 22  1  0  0  0  0
M  END
