8
q = -1.0, confidence = 0.02

 32 33  0  0  0  0  0  0  0  0999 V2000
   -1.6242   -3.4424    0.1419 S   0  0  0  0  0  0  0  0  0  0  0  0
   -0.1579   -3.6311   -0.0590 O   0  0  0  0  0  0  0  0  0  0  0  0
   -2.2687   -4.0851    1.3122 O   0  0  0  0  0  0  0  0  0  0  0  0
   -7.9326    0.0511    0.3245 O   0  0  0  0  0  0  0  0  0  0  0  0
   -6.9687    1.8999   -0.3406 O   0  0  0  0  0  0  0  0  0  0  0  0
   -2.0914    0.8083   -0.6501 O   0  0  0  0  0  0  0  0  0  0  0  0
   -6.9395    0.7156    0.0126 N   0  0  0  0  0  0  0  0  0  0  0  0
   -1.8433   -1.7860    0.0707 N   0  0  0  0  0  2  0  0  0  0  0  0
   -3.1025   -1.2224    0.1267 C   0  0  0  0  0  0  0  0  0  0  0  0
   -4.2934   -1.9053    0.5147 C   0  0  0  0  0  0  0  0  0  0  0  0
   -4.2045   -2.9340    0.8889 H   0  0  0  0  0  0  0  0  0  0  0  0
   -5.5408   -1.2830    0.4814 C   0  0  0  0  0  0  0  0  0  0  0  0
   -6.4548   -1.8079    0.7881 H   0  0  0  0  0  0  0  0  0  0  0  0
   -5.6330    0.0525    0.0646 C   0  0  0  0  0  0  0  0  0  0  0  0
   -4.4892    0.7768   -0.3046 C   0  0  0  0  0  0  0  0  0  0  0  0
   -4.5991    1.8203   -0.6267 H   0  0  0  0  0  0  0  0  0  0  0  0
   -3.2440    0.1552   -0.2534 C   0  0  0  0  0  0  0  0  0  0  0  0
   -1.8647    2.1273   -0.3088 C   0  0  0  0  0  0  0  0  0  0  0  0
   -2.3509    2.7095    0.8763 C   0  0  0  0  0  0  0  0  0  0  0  0
   -2.9943    2.1304    1.5530 H   0  0  0  0  0  0  0  0  0  0  0  0
   -1.9960    4.0314    1.1828 C   0  0  0  0  0  0  0  0  0  0  0  0
   -2.3780    4.4865    2.1093 H   0  0  0  0  0  0  0  0  0  0  0  0
   -1.1564    4.7680    0.3310 C   0  0  0  0  0  0  0  0  0  0  0  0
   -0.8813    5.8026    0.5831 H   0  0  0  0  0  0  0  0  0  0  0  0
   -0.6750    4.1724   -0.8464 C   0  0  0  0  0  0  0  0  0  0  0  0
   -0.0129    4.7311   -1.5245 H   0  0  0  0  0  0  0  0  0  0  0  0
   -1.0331    2.8576   -1.1744 C   0  0  0  0  0  0  0  0  0  0  0  0
   -0.6671    2.3808   -2.0932 H   0  0  0  0  0  0  0  0  0  0  0  0
   -2.4338   -4.0782   -1.3451 C   0  0  0  0  0  0  0  0  0  0  0  0
   -1.9366   -3.6381   -2.2274 H   0  0  0  0  0  0  0  0  0  0  0  0
   -3.5076   -3.8160   -1.3166 H   0  0  0  0  0  0  0  0  0  0  0  0
   -2.3016   -5.1754   -1.3178 H   0  0  0  0  0  0  0  0  0  0  0  0
  1  3  2  0  0  0  0
  2  1  2  0  0  0  0
  5  7  2  0  0  0  0
  6 18  1  0  0  0  0
  6 17  1  0  0  0  0
  7 14  1  0  0  0  0
  7  4  2  0  0  0  0
  8  9  1  0  0  0  0
  8  1  1  0  0  0  0
  9 10  1  0  0  0  0
 10 11  1  0  0  0  0
 12 10  2  0  0  0  0
 12 13  1  0  0  0  0
 14 12  1  0  0  0  0
 15 17  1  0  0  0  0
 15 14  2  0  0  0  0
 16 15  1  0  0  0  0
 17  9  2  0  0  0  0
 18 19  1  0  0  0  0
 19 21  2  0  0  0  0
 19 20  1  0  0  0  0
 21 22  1  0  0  0  0
 23 24  1  0  0  0  0
 23 21  1  0  0  0  0
 25 23  2  0  0  0  0
 26 25  1  0  0  0  0
 27 25  1  0  0  0  0
 27 18  2  0  0  0  0
 28 27  1  0  0  0  0
 29 32  1  0  0  0  0
 29 31  1  0  0  0  0
 29  1  1  0  0  0  0
 30 29  1  0  0  0  0
M  END
