3
q = 0.0, confidence = 1.0

 17 17  0  0  0  0  0  0  0  0999 V2000
   -0.7113    2.7483    1.0039 O   0  0  0  0  0  0  0  0  0  0  0  0
    1.6780    0.0843   -0.9536 N   0  0  0  0  0  0  0  0  0  0  0  0
    0.0886    1.7399    0.5094 N   0  0  0  0  0  2  0  0  0  0  0  0
    1.8481    3.2616    0.8281 N   0  0  0  0  0  4  0  0  0  0  0  0
    2.4556   -0.8507   -1.5137 C   0  0  0  0  0  0  0  0  0  0  0  0
    1.9372   -1.6364   -2.0883 H   0  0  0  0  0  0  0  0  0  0  0  0
    3.8524   -0.8655   -1.3769 C   0  0  0  0  0  0  0  0  0  0  0  0
    4.4523    0.1238   -0.5886 C   0  0  0  0  0  0  0  0  0  0  0  0
    5.5398    0.1282   -0.4237 H   0  0  0  0  0  0  0  0  0  0  0  0
    3.6436    1.0940    0.0156 C   0  0  0  0  0  0  0  0  0  0  0  0
    2.2533    1.0476   -0.2016 C   0  0  0  0  0  0  0  0  0  0  0  0
    1.3476    2.0643    0.3960 C   0  0  0  0  0  0  0  0  0  0  0  0
   -1.6176    2.4441    0.7353 H   0  0  0  0  0  0  0  0  0  0  0  0
    1.1396    3.9456    1.1055 H   0  0  0  0  0  0  0  0  0  0  0  0
    2.6751    3.6341    0.3623 H   0  0  0  0  0  0  0  0  0  0  0  0
    4.4473   -1.6520   -1.8622 H   0  0  0  0  0  0  0  0  0  0  0  0
    4.0759    1.8504    0.6857 H   0  0  0  0  0  0  0  0  0  0  0  0
  2 11  1  0  0  0  0
  3  1  1  0  0  0  0
  4 14  1  0  0  0  0
  5  7  1  0  0  0  0
  5  2  2  0  0  0  0
  6  5  1  0  0  0  0
  7  8  2  0  0  0  0
  8  9  1  0  0  0  0
  8 10  1  0  0  0  0
 10 17  1  0  0  0  0
 11 10  2  0  0  0  0
 11 12  1  0  0  0  0
 12  3  1  0  0  0  0
 12  4  2  0  0  0  0
 13  1  1  0  0  0  0
 15  4  1  0  0  0  0
 16  7  1  0  0  0  0
M  END
