1
q = 0.0, confidence = 0.994

 25 27  0  0  0  0  0  0  0  0999 V2000
    1.9100   -0.3417   -0.0819 N   0  0  0  0  0  2  0  0  0  0  0  0
    2.3968   -1.5077   -0.5906 C   0  0  0  0  0  3  0  0  0  0  0  0
    1.6468   -2.2675   -0.8584 H   0  0  0  0  0  0  0  0  0  0  0  0
    3.7580   -1.7660   -0.7156 C   0  0  0  0  0  0  0  0  0  0  0  0
    4.1142   -2.7181   -1.1325 H   0  0  0  0  0  0  0  0  0  0  0  0
    4.6862   -0.7914   -0.2835 C   0  0  0  0  0  0  0  0  0  0  0  0
    4.1774    0.4053    0.2679 C   0  0  0  0  0  0  0  0  0  0  0  0
    4.8530    1.1935    0.6267 H   0  0  0  0  0  0  0  0  0  0  0  0
    2.7993    0.5913    0.3472 C   0  0  0  0  0  0  0  0  0  0  0  0
    2.3682    1.5148    0.7544 H   0  0  0  0  0  0  0  0  0  0  0  0
    6.1080   -1.0442   -0.4104 C   0  0  0  0  0  0  0  0  0  0  0  0
    7.0151   -0.1143    0.0224 O   0  0  0  0  0  0  0  0  0  0  0  0
    8.2163   -0.7071   -0.2654 C   0  0  0  0  0  0  0  0  0  0  0  0
    8.0524   -1.8898   -0.8226 N   0  0  0  0  0  0  0  0  0  0  0  0
    6.7030   -2.1064   -0.9160 N   0  0  0  0  0  0  0  0  0  0  0  0
    9.4617   -0.0236    0.0493 C   0  0  0  0  0  0  0  0  0  0  0  0
    9.4832    1.2534    0.6468 C   0  0  0  0  0  0  0  0  0  0  0  0
    8.5486    1.7763    0.8947 H   0  0  0  0  0  0  0  0  0  0  0  0
   10.7287    1.8393    0.9162 C   0  0  0  0  0  0  0  0  0  0  0  0
   11.9056    1.2563    0.6388 N   0  0  0  0  0  0  0  0  0  0  0  0
   11.8740    0.0389    0.0689 C   0  0  0  0  0  0  0  0  0  0  0  0
   12.8520   -0.4243   -0.1518 H   0  0  0  0  0  0  0  0  0  0  0  0
   10.6936   -0.6455   -0.2469 C   0  0  0  0  0  0  0  0  0  0  0  0
   10.7081   -1.6410   -0.7129 H   0  0  0  0  0  0  0  0  0  0  0  0
   10.7739    2.8391    1.3837 H   0  0  0  0  0  0  0  0  0  0  0  0
  1  9  1  0  0  0  0
  2  1  1  0  0  0  0
  3  2  1  0  0  0  0
  4  2  1  0  0  0  0
  4  6  2  0  0  0  0
  5  4  1  0  0  0  0
  6  7  1  0  0  0  0
  7  9  2  0  0  0  0
  7  8  1  0  0  0  0
  9 10  1  0  0  0  0
 11  6  1  0  0  0  0
 11 12  1  0  0  0  0
 13 12  1  0  0  0  0
 13 16  1  0  0  0  0
 14 13  2  0  0  0  0
 15 14  1  0  0  0  0
 15 11  2  0  0  0  0
 16 17  1  0  0  0  0
 17 18  1  0  0  0  0
 17 19  2  0  0  0  0
 19 25  1  0  0  0  0
 20 19  1  0  0  0  0
 21 20  2  0  0  0  0
 22 21  1  0  0  0  0
 23 16  2  0  0  0  0
 23 21  1  0  0  0  0
 24 23  1  0  0  0  0
M  END
