1
q = 0.0, confidence = 0.998

 30 31  0  0  0  0  0  0  0  0999 V2000
   -1.9122    0.6230   -0.3118 N   0  0  0  0  0  2  0  0  0  0  0  0
   -2.5537    0.3184   -1.4643 C   0  0  0  0  0  3  0  0  0  0  0  0
   -1.9901   -0.3063   -2.1716 H   0  0  0  0  0  0  0  0  0  0  0  0
   -3.8613    0.7405   -1.7119 C   0  0  0  0  0  0  0  0  0  0  0  0
   -4.3353    0.4744   -2.6687 H   0  0  0  0  0  0  0  0  0  0  0  0
   -4.5597    1.4930   -0.7485 C   0  0  0  0  0  0  0  0  0  0  0  0
   -3.8726    1.7884    0.4446 C   0  0  0  0  0  0  0  0  0  0  0  0
   -4.3552    2.3752    1.2405 H   0  0  0  0  0  0  0  0  0  0  0  0
   -2.5595    1.3512    0.6282 C   0  0  0  0  0  0  0  0  0  0  0  0
   -1.9717    1.6038    1.5220 H   0  0  0  0  0  0  0  0  0  0  0  0
   -5.9923    1.9077   -0.9569 C   0  0  0  0  0  0  0  0  0  0  0  0
   -6.1776    2.8788   -0.4504 H   0  0  0  0  0  0  0  0  0  0  0  0
   -6.1804    2.0704   -2.0393 H   0  0  0  0  0  0  0  0  0  0  0  0
   -6.9856    0.8594   -0.4213 C   0  0  0  0  0  0  0  0  0  0  0  0
   -6.7967   -0.1175   -0.9162 H   0  0  0  0  0  0  0  0  0  0  0  0
   -6.7973    0.6885    0.6605 H   0  0  0  0  0  0  0  0  0  0  0  0
   -8.4550    1.2642   -0.6283 C   0  0  0  0  0  0  0  0  0  0  0  0
   -8.6379    1.4262   -1.7125 H   0  0  0  0  0  0  0  0  0  0  0  0
   -8.6368    2.2408   -0.1300 H   0  0  0  0  0  0  0  0  0  0  0  0
   -9.4200    0.2306   -0.0952 C   0  0  0  0  0  0  0  0  0  0  0  0
   -9.8460   -0.8434   -0.9028 C   0  0  0  0  0  0  0  0  0  0  0  0
   -9.5049   -0.8996   -1.9494 H   0  0  0  0  0  0  0  0  0  0  0  0
  -10.6999   -1.8336   -0.3947 C   0  0  0  0  0  0  0  0  0  0  0  0
  -11.0248   -2.6617   -1.0431 H   0  0  0  0  0  0  0  0  0  0  0  0
  -11.1425   -1.7667    0.9359 C   0  0  0  0  0  0  0  0  0  0  0  0
  -11.8145   -2.5412    1.3356 H   0  0  0  0  0  0  0  0  0  0  0  0
  -10.7260   -0.7030    1.7518 C   0  0  0  0  0  0  0  0  0  0  0  0
  -11.0716   -0.6400    2.7951 H   0  0  0  0  0  0  0  0  0  0  0  0
   -9.8719    0.2846    1.2389 C   0  0  0  0  0  0  0  0  0  0  0  0
   -9.5512    1.1192    1.8834 H   0  0  0  0  0  0  0  0  0  0  0  0
  1  9  1  0  0  0  0
  2  1  1  0  0  0  0
  3  2  1  0  0  0  0
  4  2  1  0  0  0  0
  4  6  2  0  0  0  0
  5  4  1  0  0  0  0
  6  7  1  0  0  0  0
  7  9  2  0  0  0  0
  7  8  1  0  0  0  0
  9 10  1  0  0  0  0
 11  6  1  0  0  0  0
 11 12  1  0  0  0  0
 11 14  1  0  0  0  0
 13 11  1  0  0  0  0
 14 16  1  0  0  0  0
 15 14  1  0  0  0  0
 17 14  1  0  0  0  0
 17 19  1  0  0  0  0
 17 20  1  0  0  0  0
 18 17  1  0  0  0  0
 20 29  1  0  0  0  0
 21 23  1  0  0  0  0
 21 20  2  0  0  0  0
 22 21  1  0  0  0  0
 23 25  2  0  0  0  0
 24 23  1  0  0  0  0
 25 26  1  0  0  0  0
 25 27  1  0  0  0  0
 27 28  1  0  0  0  0
 29 27  2  0  0  0  0
 29 30  1  0  0  0  0
M  END
