1
q = 0.0, confidence = 0.99

 22 23  0  0  0  0  0  0  0  0999 V2000
   -0.4891   -0.5939   -1.3559 N   0  0  0  0  0  2  0  0  0  0  0  0
   -1.7187   -0.4746   -1.9156 C   0  0  0  0  0  3  0  0  0  0  0  0
   -2.2713   -1.4307   -2.7660 C   0  0  0  0  0  0  0  0  0  0  0  0
   -1.5152   -2.5778   -3.0636 C   0  0  0  0  0  0  0  0  0  0  0  0
   -0.2261   -2.6821   -2.5459 C   0  0  0  0  0  0  0  0  0  0  0  0
    0.2824   -1.6565   -1.7102 C   0  0  0  0  0  0  0  0  0  0  0  0
    1.5844   -1.7772   -1.2479 N   0  0  0  0  0  0  0  0  0  0  0  0
    2.5284   -0.7759   -0.9885 C   0  0  0  0  0  0  0  0  0  0  0  0
    3.8165   -1.1542   -0.5457 C   0  0  0  0  0  0  0  0  0  0  0  0
    4.7506   -0.1444   -0.2987 C   0  0  0  0  0  0  0  0  0  0  0  0
    4.3712    1.1973   -0.4889 C   0  0  0  0  0  0  0  0  0  0  0  0
    3.0698    1.4641   -0.9299 C   0  0  0  0  0  0  0  0  0  0  0  0
    2.1575    0.5005   -1.1785 N   0  0  0  0  0  0  0  0  0  0  0  0
   -2.2530    0.4506   -1.6545 H   0  0  0  0  0  0  0  0  0  0  0  0
    1.9746   -2.7150   -1.3332 H   0  0  0  0  0  0  0  0  0  0  0  0
   -1.9132   -3.3663   -3.7197 H   0  0  0  0  0  0  0  0  0  0  0  0
    4.0695   -2.2153   -0.3959 H   0  0  0  0  0  0  0  0  0  0  0  0
    2.7223    2.4973   -1.0908 H   0  0  0  0  0  0  0  0  0  0  0  0
    0.4224   -3.5323   -2.8057 H   0  0  0  0  0  0  0  0  0  0  0  0
   -3.2791   -1.2769   -3.1747 H   0  0  0  0  0  0  0  0  0  0  0  0
    5.0728    2.0232   -0.3059 H   0  0  0  0  0  0  0  0  0  0  0  0
    5.7643   -0.4018    0.0430 H   0  0  0  0  0  0  0  0  0  0  0  0
  2 14  1  0  0  0  0
  2  1  1  0  0  0  0
  3  2  1  0  0  0  0
  4  3  2  0  0  0  0
  4  5  1  0  0  0  0
  5  6  2  0  0  0  0
  6  1  1  0  0  0  0
  6  7  1  0  0  0  0
  7  8  1  0  0  0  0
  8  9  1  0  0  0  0
  9 17  1  0  0  0  0
  9 10  2  0  0  0  0
 10 22  1  0  0  0  0
 11 21  1  0  0  0  0
 11 10  1  0  0  0  0
 12 11  2  0  0  0  0
 13  8  2  0  0  0  0
 13 12  1  0  0  0  0
 15  7  1  0  0  0  0
 16  4  1  0  0  0  0
 18 12  1  0  0  0  0
 19  5  1  0  0  0  0
 20  3  1  0  0  0  0
M  END
