1
q = -1.0

  9  9  0  0  0  0  0  0  0  0999 V2000
    0.9154   -0.1401    0.0581 N   0  0  0  0  0  2  0  0  0  0  0  0
    1.5603   -1.3738   -0.0095 C   0  0  0  0  0  0  0  0  0  0  0  0
    1.0499   -2.4816    0.0194 O   0  0  0  0  0  0  0  0  0  0  0  0
    2.9481   -1.1256   -0.1290 N   0  0  0  0  0  0  0  0  0  0  0  0
    3.6374   -1.8787   -0.1795 H   0  0  0  0  0  0  0  0  0  0  0  0
    3.2302    0.2315   -0.1561 C   0  0  0  0  0  0  0  0  0  0  0  0
    4.3081    0.7766   -0.2511 O   0  0  0  0  0  0  0  0  0  0  0  0
    1.8163    0.8955   -0.0408 C   0  0  0  0  0  0  0  0  0  0  0  0
    1.5910    2.0954   -0.0418 O   0  0  0  0  0  0  0  0  0  0  0  0
  2  3  2  0  0  0  0
  2  1  1  0  0  0  0
  4  2  1  0  0  0  0
  5  4  1  0  0  0  0
  6  4  1  0  0  0  0
  6  8  1  0  0  0  0
  7  6  2  0  0  0  0
  8  1  1  0  0  0  0
  9  8  2  0  0  0  0
M  END
