19
q = 0.0, confidence = 0.998

 35 36  0  0  0  0  0  0  0  0999 V2000
   -2.0763   -0.3922   -0.0007 S   0  0  0  0  0  0  0  0  0  0  0  0
   -4.6695    1.3813   -0.7010 C   0  0  0  0  0  0  0  0  0  0  0  0
   -4.1077    0.8231   -1.4622 H   0  0  0  0  0  0  0  0  0  0  0  0
   -6.0702    1.3416   -0.6822 C   0  0  0  0  0  0  0  0  0  0  0  0
   -6.6002    0.7343   -1.4307 H   0  0  0  0  0  0  0  0  0  0  0  0
   -6.7946    2.0819    0.2657 C   0  0  0  0  0  0  0  0  0  0  0  0
   -7.8939    2.0487    0.2689 H   0  0  0  0  0  0  0  0  0  0  0  0
    5.4616    2.1094    1.5476 C   0  0  0  0  0  0  0  0  0  0  0  0
    5.7537    1.1599    2.0305 H   0  0  0  0  0  0  0  0  0  0  0  0
    5.4153    2.9099    2.3161 H   0  0  0  0  0  0  0  0  0  0  0  0
    6.2163    2.3780    0.7784 H   0  0  0  0  0  0  0  0  0  0  0  0
   -6.1117    2.8724    1.2033 C   0  0  0  0  0  0  0  0  0  0  0  0
   -6.6711    3.4603    1.9457 H   0  0  0  0  0  0  0  0  0  0  0  0
    4.1813    1.8791    0.9623 O   0  0  0  0  0  0  0  0  0  0  0  0
   -2.5695    2.2586    0.2639 N   0  0  0  0  0  0  0  0  0  0  0  0
   -2.2013    3.1764    0.5308 H   0  0  0  0  0  0  0  0  0  0  0  0
   -0.3615    1.6433    0.0286 N   0  0  0  0  0  0  0  0  0  0  0  0
   -0.0866    2.6352    0.0453 H   0  0  0  0  0  0  0  0  0  0  0  0
    0.6548    0.7354   -0.0654 N   0  0  0  0  0  2  0  0  0  0  0  0
   -4.7112    2.9104    1.2050 C   0  0  0  0  0  0  0  0  0  0  0  0
   -4.1732    3.5179    1.9494 H   0  0  0  0  0  0  0  0  0  0  0  0
   -3.9918    2.1603    0.2557 C   0  0  0  0  0  0  0  0  0  0  0  0
   -1.6704    1.2570    0.0985 C   0  0  0  0  0  0  0  0  0  0  0  0
    1.8832    1.1681   -0.2183 C   0  0  0  0  0  3  0  0  0  0  0  0
    2.6381    0.3713   -0.2082 H   0  0  0  0  0  0  0  0  0  0  0  0
    2.3428    2.5431   -0.3541 C   0  0  0  0  0  0  0  0  0  0  0  0
    3.5927    2.8751    0.2575 C   0  0  0  0  0  0  0  0  0  0  0  0
    4.1210    4.1718    0.1137 C   0  0  0  0  0  0  0  0  0  0  0  0
    5.0745    4.4421    0.5854 H   0  0  0  0  0  0  0  0  0  0  0  0
    3.4243    5.1311   -0.6359 C   0  0  0  0  0  0  0  0  0  0  0  0
    3.8495    6.1406   -0.7387 H   0  0  0  0  0  0  0  0  0  0  0  0
    2.2095    4.8148   -1.2660 C   0  0  0  0  0  0  0  0  0  0  0  0
    1.6934    5.5611   -1.8862 H   0  0  0  0  0  0  0  0  0  0  0  0
    1.6776    3.5282   -1.1269 C   0  0  0  0  0  0  0  0  0  0  0  0
    0.7762    3.2513   -1.6965 H   0  0  0  0  0  0  0  0  0  0  0  0
  1 23  2  0  0  0  0
  2  4  2  0  0  0  0
  2 22  1  0  0  0  0
  3  2  1  0  0  0  0
  4  6  1  0  0  0  0
  5  4  1  0  0  0  0
  6  7  1  0  0  0  0
  6 12  2  0  0  0  0
  8  9  1  0  0  0  0
  8 10  1  0  0  0  0
 11  8  1  0  0  0  0
 12 20  1  0  0  0  0
 12 13  1  0  0  0  0
 14  8  1  0  0  0  0
 15 16  1  0  0  0  0
 17 18  1  0  0  0  0
 17 23  1  0  0  0  0
 19 17  1  0  0  0  0
 20 21  1  0  0  0  0
 22 15  1  0  0  0  0
 22 20  2  0  0  0  0
 23 15  1  0  0  0  0
 24 25  1  0  0  0  0
 24 19  1  0  0  0  0
 26 24  1  0  0  0  0
 26 27  1  0  0  0  0
 27 14  1  0  0  0  0
 28 27  2  0  0  0  0
 28 29  1  0  0  0  0
 30 28  1  0  0  0  0
 31 30  1  0  0  0  0
 32 34  1  0  0  0  0
 32 30  2  0  0  0  0
 33 32  1  0  0  0  0
 34 26  2  0  0  0  0
 35 34  1  0  0  0  0
M  END
