1
q = -1.0

 22 23  0  0  0  0  0  0  0  0999 V2000
    0.5886    0.5057   -0.1002 N   0  0  0  0  0  2  0  0  0  0  0  0
   -0.4213   -0.0486   -0.8808 C   0  0  0  0  0  0  0  0  0  0  0  0
   -0.4259   -1.1452   -1.4222 O   0  0  0  0  0  0  0  0  0  0  0  0
   -1.4802    0.8894   -0.9692 N   0  0  0  0  0  0  0  0  0  0  0  0
   -1.1865    2.0355   -0.2468 C   0  0  0  0  0  0  0  0  0  0  0  0
   -1.8913    3.0132   -0.0925 O   0  0  0  0  0  0  0  0  0  0  0  0
    0.2486    1.7747    0.3110 C   0  0  0  0  0  0  0  0  0  0  0  0
    0.9108    2.5530    0.9794 O   0  0  0  0  0  0  0  0  0  0  0  0
   -2.7606    0.6026   -1.6069 C   0  0  0  0  0  0  0  0  0  0  0  0
   -2.5504   -0.0475   -2.4777 H   0  0  0  0  0  0  0  0  0  0  0  0
   -3.1599    1.5717   -1.9646 H   0  0  0  0  0  0  0  0  0  0  0  0
   -3.7398   -0.0645   -0.6613 C   0  0  0  0  0  0  0  0  0  0  0  0
   -4.6080    0.7143    0.1284 C   0  0  0  0  0  0  0  0  0  0  0  0
   -4.5803    1.8113    0.0371 H   0  0  0  0  0  0  0  0  0  0  0  0
   -5.4853    0.0990    1.0339 C   0  0  0  0  0  0  0  0  0  0  0  0
   -6.1617    0.7158    1.6453 H   0  0  0  0  0  0  0  0  0  0  0  0
   -5.4994   -1.2992    1.1612 C   0  0  0  0  0  0  0  0  0  0  0  0
   -6.1889   -1.7817    1.8708 H   0  0  0  0  0  0  0  0  0  0  0  0
   -4.6295   -2.0803    0.3833 C   0  0  0  0  0  0  0  0  0  0  0  0
   -4.6340   -3.1765    0.4833 H   0  0  0  0  0  0  0  0  0  0  0  0
   -3.7522   -1.4664   -0.5228 C   0  0  0  0  0  0  0  0  0  0  0  0
   -3.0543   -2.0713   -1.1223 H   0  0  0  0  0  0  0  0  0  0  0  0
  1  7  1  0  0  0  0
  2  1  1  0  0  0  0
  3  2  2  0  0  0  0
  4  2  1  0  0  0  0
  4  5  1  0  0  0  0
  5  6  2  0  0  0  0
  5  7  1  0  0  0  0
  7  8  2  0  0  0  0
  9  4  1  0  0  0  0
  9 12  1  0  0  0  0
 10  9  1  0  0  0  0
 11  9  1  0  0  0  0
 12 21  2  0  0  0  0
 12 13  1  0  0  0  0
 13 15  2  0  0  0  0
 14 13  1  0  0  0  0
 15 17  1  0  0  0  0
 15 16  1  0  0  0  0
 17 18  1  0  0  0  0
 19 20  1  0  0  0  0
 19 17  2  0  0  0  0
 21 19  1  0  0  0  0
 22 21  1  0  0  0  0
M  END
