4
q = 0.0, confidence = 0.998

 45 47  0  0  1  0  0  0  0  0999 V2000
   -3.5338    1.9772   -0.4761 O   0  0  0  0  0  0  0  0  0  0  0  0
    2.3684    0.0840    0.2446 N   0  0  0  0  0  0  0  0  0  0  0  0
   -2.3310    0.0511   -0.2855 N   0  0  0  0  0  0  0  0  0  0  0  0
    0.0335    1.4728   -0.1634 N   0  0  0  0  0  2  0  0  0  0  0  0
    3.6035    1.9936    0.1202 O   0  0  0  0  0  0  0  0  0  0  0  0
    4.1305   -1.5932   -0.3458 C   0  0  0  0  0  0  0  0  0  0  0  0
    3.9924   -1.3143   -1.4158 H   0  0  0  0  0  0  0  0  0  0  0  0
    5.6008   -1.9650   -0.1181 C   0  0  0  0  0  0  0  0  0  0  0  0
    5.8771   -2.8559   -0.7168 H   0  0  0  0  0  0  0  0  0  0  0  0
    5.7836   -2.2126    0.9496 H   0  0  0  0  0  0  0  0  0  0  0  0
    6.2978   -1.1489   -0.4005 H   0  0  0  0  0  0  0  0  0  0  0  0
   -3.7250   -0.3897   -0.4301 C   0  0  1  0  0  0  0  0  0  0  0  0
   -3.8256   -0.8383   -1.4479 H   0  0  0  0  0  0  0  0  0  0  0  0
    3.7484   -0.3522    0.4815 C   0  0  1  0  0  0  0  0  0  0  0  0
    3.8260   -0.6325    1.5597 H   0  0  0  0  0  0  0  0  0  0  0  0
   -4.1254   -1.4692    0.5921 C   0  0  0  0  0  0  0  0  0  0  0  0
   -3.9315   -1.0354    1.5999 H   0  0  0  0  0  0  0  0  0  0  0  0
    1.2393    3.5750   -0.2137 C   0  0  0  0  0  0  0  0  0  0  0  0
    2.2125    4.0825   -0.1723 H   0  0  0  0  0  0  0  0  0  0  0  0
   -2.3382    1.3381   -0.3436 C   0  0  0  0  0  0  0  0  0  0  0  0
   -4.5334    0.9348   -0.3330 C   0  0  0  0  0  0  0  0  0  0  0  0
   -5.2947    1.0703   -1.1239 H   0  0  0  0  0  0  0  0  0  0  0  0
   -5.0161    1.0577    0.6619 H   0  0  0  0  0  0  0  0  0  0  0  0
   -1.1683    3.5644   -0.3972 C   0  0  0  0  0  0  0  0  0  0  0  0
   -2.1411    4.0637   -0.5012 H   0  0  0  0  0  0  0  0  0  0  0  0
    4.5859    0.9249    0.1846 C   0  0  0  0  0  0  0  0  0  0  0  0
    5.3283    1.1814    0.9636 H   0  0  0  0  0  0  0  0  0  0  0  0
    5.0976    0.8704   -0.8018 H   0  0  0  0  0  0  0  0  0  0  0  0
    2.3982    1.3604    0.0839 C   0  0  0  0  0  0  0  0  0  0  0  0
    0.0362    4.2803   -0.3600 C   0  0  0  0  0  0  0  0  0  0  0  0
    0.0374    5.3771   -0.4395 H   0  0  0  0  0  0  0  0  0  0  0  0
    1.1899    2.1734   -0.1094 C   0  0  1  0  0  3  0  0  0  0  0  0
    3.1966   -2.7639   -0.0259 C   0  0  0  0  0  0  0  0  0  0  0  0
    3.4213   -3.6361   -0.6720 H   0  0  0  0  0  0  0  0  0  0  0  0
    2.1375   -2.4804   -0.1777 H   0  0  0  0  0  0  0  0  0  0  0  0
    3.3155   -3.0841    1.0310 H   0  0  0  0  0  0  0  0  0  0  0  0
   -5.6184   -1.8014    0.4744 C   0  0  0  0  0  0  0  0  0  0  0  0
   -5.9041   -2.5815    1.2080 H   0  0  0  0  0  0  0  0  0  0  0  0
   -5.8558   -2.1949   -0.5373 H   0  0  0  0  0  0  0  0  0  0  0  0
   -6.2704   -0.9225    0.6579 H   0  0  0  0  0  0  0  0  0  0  0  0
   -1.1224    2.1615   -0.2996 C   0  0  0  0  0  0  0  0  0  0  0  0
   -3.2603   -2.7208    0.4266 C   0  0  0  0  0  0  0  0  0  0  0  0
   -3.4857   -3.4640    1.2176 H   0  0  0  0  0  0  0  0  0  0  0  0
   -2.1843   -2.4694    0.4813 H   0  0  0  0  0  0  0  0  0  0  0  0
   -3.4512   -3.2035   -0.5553 H   0  0  0  0  0  0  0  0  0  0  0  0
  1 20  1  0  0  0  0
  1 21  1  0  0  0  0
  2 14  1  0  0  0  0
  4 32  1  0  0  0  0
  5 26  1  0  0  0  0
  6  8  1  0  0  0  0
  6 33  1  0  0  0  0
  6 14  1  0  0  0  0
  7  6  1  0  0  0  0
  8 10  1  0  0  0  0
  9  8  1  0  0  0  0
 11  8  1  0  0  0  0
 12 13  1  6  0  0  0
 12 21  1  0  0  0  0
 12  3  1  0  0  0  0
 12 16  1  0  0  0  0
 14 15  1  1  0  0  0
 16 17  1  0  0  0  0
 18 19  1  0  0  0  0
 18 32  1  0  0  0  0
 20 41  1  0  0  0  0
 20  3  2  0  0  0  0
 21 23  1  0  0  0  0
 22 21  1  0  0  0  0
 24 30  1  0  0  0  0
 24 41  2  0  0  0  0
 25 24  1  0  0  0  0
 26 14  1  0  0  0  0
 26 27  1  0  0  0  0
 28 26  1  0  0  0  0
 29  5  1  0  0  0  0
 29  2  2  0  0  0  0
 30 18  2  0  0  0  0
 31 30  1  0  0  0  0
 32 29  1  1  0  0  0
 33 36  1  0  0  0  0
 34 33  1  0  0  0  0
 35 33  1  0  0  0  0
 37 16  1  0  0  0  0
 37 40  1  0  0  0  0
 37 38  1  0  0  0  0
 39 37  1  0  0  0  0
 41  4  1  0  0  0  0
 42 44  1  0  0  0  0
 42 16  1  0  0  0  0
 42 43  1  0  0  0  0
 45 42  1  0  0  0  0
M  END
