5
q = 0.0, confidence = 0.998

 25 26  0  0  1  0  0  0  0  0999 V2000
    1.6187   -2.5327   -0.8494 S   0  0  0  0  0  0  0  0  0  0  0  0
   -1.1378   -1.4274   -2.6762 S   0  0  0  0  0  0  0  0  0  0  0  0
    3.7294   -0.7021   -1.9850 S   0  0  0  0  0  0  0  0  0  0  0  0
    1.1479   -0.0956   -1.9002 N   0  0  0  0  0  0  0  0  0  0  0  0
   -0.9440    0.7635   -1.2442 N   0  0  0  0  0  2  0  0  0  0  0  0
   -4.9660   -0.1785   -1.9374 C   0  0  0  0  0  0  0  0  0  0  0  0
   -4.6644    0.9833   -1.1952 C   0  0  0  0  0  0  0  0  0  0  0  0
    2.0371   -0.9950   -1.6287 C   0  0  0  0  0  0  0  0  0  0  0  0
   -2.3027    0.5377   -1.4156 C   0  0  0  0  0  0  0  0  0  0  0  0
   -3.9429   -0.9952   -2.4410 C   0  0  0  0  0  0  0  0  0  0  0  0
   -2.6141   -0.6284   -2.1741 C   0  0  0  0  0  0  0  0  0  0  0  0
   -3.3424    1.3537   -0.9286 C   0  0  0  0  0  0  0  0  0  0  0  0
   -0.1941   -0.1579   -1.8337 C   0  0  1  0  0  3  0  0  0  0  0  0
    3.6272    0.9352   -2.7621 C   0  0  0  0  0  0  0  0  0  0  0  0
    4.6616    1.3274   -2.7578 H   0  0  0  0  0  0  0  0  0  0  0  0
    2.9504    1.6018   -2.1824 H   0  0  0  0  0  0  0  0  0  0  0  0
    3.2588    0.8391   -3.8006 H   0  0  0  0  0  0  0  0  0  0  0  0
    3.2390   -3.2664   -0.4712 C   0  0  0  0  0  0  0  0  0  0  0  0
   -6.0149   -0.4462   -2.1342 H   0  0  0  0  0  0  0  0  0  0  0  0
    3.8042   -3.4990   -1.3939 H   0  0  0  0  0  0  0  0  0  0  0  0
   -3.0797    2.2503   -0.3429 H   0  0  0  0  0  0  0  0  0  0  0  0
    3.8225   -2.5971    0.1909 H   0  0  0  0  0  0  0  0  0  0  0  0
   -4.1739   -1.8912   -3.0354 H   0  0  0  0  0  0  0  0  0  0  0  0
   -5.4842    1.6131   -0.8185 H   0  0  0  0  0  0  0  0  0  0  0  0
    3.0076   -4.2067    0.0649 H   0  0  0  0  0  0  0  0  0  0  0  0
  1 18  1  0  0  0  0
  2 11  1  0  0  0  0
  2 13  1  0  0  0  0
  3  8  1  0  0  0  0
  4  8  2  0  0  0  0
  6  7  1  0  0  0  0
  7 12  2  0  0  0  0
  7 24  1  0  0  0  0
  8  1  1  0  0  0  0
  9  5  1  0  0  0  0
  9 12  1  0  0  0  0
 10 11  1  0  0  0  0
 10  6  2  0  0  0  0
 11  9  2  0  0  0  0
 12 21  1  0  0  0  0
 13  4  1  6  0  0  0
 13  5  1  0  0  0  0
 14 15  1  0  0  0  0
 14 16  1  0  0  0  0
 14  3  1  0  0  0  0
 17 14  1  0  0  0  0
 18 25  1  0  0  0  0
 18 22  1  0  0  0  0
 19  6  1  0  0  0  0
 20 18  1  0  0  0  0
 23 10  1  0  0  0  0
M  END
