2
q = -1.0

 21 22  0  0  0  0  0  0  0  0999 V2000
   -1.2077    2.3224   -0.3456 O   0  0  0  0  0  0  0  0  0  0  0  0
    0.7677    1.3488   -0.1467 N   0  0  0  0  0  2  0  0  0  0  0  0
    0.0714    2.5210   -0.2802 C   0  0  0  0  0  0  0  0  0  0  0  0
    0.7677    3.7596   -0.3110 C   0  0  0  0  0  0  0  0  0  0  0  0
    0.2037    4.6946   -0.4289 H   0  0  0  0  0  0  0  0  0  0  0  0
    2.1554    3.7262   -0.1880 C   0  0  0  0  0  0  0  0  0  0  0  0
    2.7257    4.6682   -0.2035 H   0  0  0  0  0  0  0  0  0  0  0  0
    2.8460    2.5008   -0.0693 C   0  0  0  0  0  0  0  0  0  0  0  0
    3.9424    2.4678   -0.0206 H   0  0  0  0  0  0  0  0  0  0  0  0
    2.1163    1.2994   -0.0774 C   0  0  0  0  0  0  0  0  0  0  0  0
    2.7755   -0.0285   -0.0398 C   0  0  0  0  0  0  0  0  0  0  0  0
    3.8343   -0.2836    0.8579 C   0  0  0  0  0  0  0  0  0  0  0  0
    4.1548    0.5070    1.5537 H   0  0  0  0  0  0  0  0  0  0  0  0
    4.4533   -1.5415    0.8891 C   0  0  0  0  0  0  0  0  0  0  0  0
    5.2674   -1.7333    1.6048 H   0  0  0  0  0  0  0  0  0  0  0  0
    4.0336   -2.5543    0.0110 C   0  0  0  0  0  0  0  0  0  0  0  0
    4.5235   -3.5399    0.0307 H   0  0  0  0  0  0  0  0  0  0  0  0
    2.9926   -2.2996   -0.8980 C   0  0  0  0  0  0  0  0  0  0  0  0
    2.6731   -3.0829   -1.6028 H   0  0  0  0  0  0  0  0  0  0  0  0
    2.3579   -1.0492   -0.9231 C   0  0  0  0  0  0  0  0  0  0  0  0
    1.5399   -0.8450   -1.6343 H   0  0  0  0  0  0  0  0  0  0  0  0
  1  3  2  0  0  0  0
  2 10  1  0  0  0  0
  3  2  1  0  0  0  0
  4  3  1  0  0  0  0
  4  6  2  0  0  0  0
  5  4  1  0  0  0  0
  6  8  1  0  0  0  0
  7  6  1  0  0  0  0
  8  9  1  0  0  0  0
 10  8  2  0  0  0  0
 10 11  1  0  0  0  0
 11 12  1  0  0  0  0
 12 14  2  0  0  0  0
 12 13  1  0  0  0  0
 14 15  1  0  0  0  0
 16 17  1  0  0  0  0
 16 14  1  0  0  0  0
 18 16  2  0  0  0  0
 19 18  1  0  0  0  0
 20 18  1  0  0  0  0
 20 11  2  0  0  0  0
 21 20  1  0  0  0  0
M  END
