1
q = -1.0

 35 40  0  0  1  0  0  0  0  0999 V2000
    0.3180    1.8408    0.6999 N   0  0  0  0  0  2  0  0  0  0  0  0
    3.1454    0.7269    0.6631 B   0  0  0  0  0  0  0  0  0  0  0  0
    2.8475    1.5880    1.4478 H   0  0  0  0  0  0  0  0  0  0  0  0
    4.2392    1.0328   -0.7058 B   0  0  1  0  0  0  0  0  0  0  0  0
    4.6718    2.1519   -0.8454 H   0  0  0  0  0  0  0  0  0  0  0  0
    3.6102    0.1426   -2.1128 B   0  0  1  0  0  0  0  0  0  0  0  0
    3.6175    0.6590   -3.2043 H   0  0  0  0  0  0  0  0  0  0  0  0
    2.1324   -0.7105   -1.5967 B   0  0  0  0  0  0  0  0  0  0  0  0
    1.1593   -0.7566   -2.3085 H   0  0  0  0  0  0  0  0  0  0  0  0
    3.1791   -0.9930    1.0336 B   0  0  2  0  0  0  0  0  0  0  0  0
    2.9267   -1.3403    2.1633 H   0  0  0  0  0  0  0  0  0  0  0  0
    4.6801   -0.1485    0.5499 B   0  0  0  0  0  0  0  0  0  0  0  0
    5.5577    0.0819    1.3486 H   0  0  0  0  0  0  0  0  0  0  0  0
    4.9740   -0.5168   -1.1767 B   0  0  2  0  0  0  0  0  0  0  0  0
    6.0861   -0.5529   -1.6502 H   0  0  0  0  0  0  0  0  0  0  0  0
    3.6632   -1.5965   -1.7424 B   0  0  0  0  0  0  0  0  0  0  0  0
    3.7986   -2.4204   -2.6166 H   0  0  0  0  0  0  0  0  0  0  0  0
    2.5732   -1.8828   -0.3646 B   0  0  0  0  0  0  0  0  0  0  0  0
    1.8940   -2.8695   -0.2365 H   0  0  0  0  0  0  0  0  0  0  0  0
    4.3264   -1.7775   -0.0917 B   0  0  2  0  0  0  0  0  0  0  0  0
    4.9575   -2.7523    0.2464 H   0  0  0  0  0  0  0  0  0  0  0  0
    2.5617    0.8098   -0.9437 C   0  0  1  0  0  0  0  0  0  0  0  0
    1.9204   -0.3356    0.0699 C   0  0  2  0  0  0  0  0  0  0  0  0
    1.6513    1.9809   -1.3281 C   0  0  0  0  0  0  0  0  0  0  0  0
    2.2469    2.7144   -1.8998 H   0  0  0  0  0  0  0  0  0  0  0  0
    0.8510    1.6057   -1.9965 H   0  0  0  0  0  0  0  0  0  0  0  0
    1.0413    2.6378   -0.1273 C   0  0  2  0  0  3  0  0  0  0  0  0
    1.2455    3.9918    0.1784 C   0  0  0  0  0  0  0  0  0  0  0  0
    1.8238    4.6134   -0.5194 H   0  0  0  0  0  0  0  0  0  0  0  0
    0.7312    4.5232    1.3661 C   0  0  0  0  0  0  0  0  0  0  0  0
    0.8858    5.5828    1.6175 H   0  0  0  0  0  0  0  0  0  0  0  0
    0.0273    3.6746    2.2321 C   0  0  0  0  0  0  0  0  0  0  0  0
   -0.3884    4.0346    3.1831 H   0  0  0  0  0  0  0  0  0  0  0  0
   -0.1668    2.3445    1.8588 C   0  0  0  0  0  0  0  0  0  0  0  0
   -0.7530    1.6554    2.4820 H   0  0  0  0  0  0  0  0  0  0  0  0
  1 34  1  0  0  0  0
  2 10  1  0  0  0  0
  2  3  1  0  0  0  0
  4  5  1  6  0  0  0
  4 12  1  0  0  0  0
  6  7  1  6  0  0  0
  6 16  1  0  0  0  0
  6 14  1  0  0  0  0
  6 22  1  0  0  0  0
  8 18  1  0  0  0  0
  9  8  1  0  0  0  0
 10 11  1  1  0  0  0
 12 13  1  0  0  0  0
 14 15  1  6  0  0  0
 14  4  1  0  0  0  0
 14 20  1  0  0  0  0
 16 20  1  0  0  0  0
 17 16  1  0  0  0  0
 18 19  1  0  0  0  0
 18 10  1  0  0  0  0
 20 21  1  1  0  0  0
 20 12  1  0  0  0  0
 22 24  1  6  0  0  0
 22  4  1  0  0  0  0
 22 23  1  0  0  0  0
 23  8  1  1  0  0  0
 23  2  1  0  0  0  0
 23 10  1  0  0  0  0
 25 24  1  0  0  0  0
 26 24  1  0  0  0  0
 27 24  1  1  0  0  0
 27 28  1  0  0  0  0
 27  1  1  0  0  0  0
 28 30  2  0  0  0  0
 29 28  1  0  0  0  0
 30 31  1  0  0  0  0
 30 32  1  0  0  0  0
 32 33  1  0  0  0  0
 34 32  2  0  0  0  0
 34 35  1  0  0  0  0
M  END
