2
q = -1.0, confidence = 0.002

 12 12  0  0  0  0  0  0  0  0999 V2000
    2.3261    2.2266   -0.5256 O   0  0  0  0  0  0  0  0  0  0  0  0
    2.0491   -0.0397   -0.0389 N   0  0  0  0  0  2  0  0  0  0  0  0
    4.2468    0.7685   -0.0360 C   0  0  0  0  0  0  0  0  0  0  0  0
    4.8696    1.3413   -0.7506 H   0  0  0  0  0  0  0  0  0  0  0  0
    4.5271    1.0961    0.9901 H   0  0  0  0  0  0  0  0  0  0  0  0
    2.7599    1.0808   -0.2367 C   0  0  0  0  0  0  0  0  0  0  0  0
    2.8877   -1.1921    0.2664 C   0  0  0  0  0  0  0  0  0  0  0  0
    2.5069   -2.0899   -0.2603 H   0  0  0  0  0  0  0  0  0  0  0  0
    2.8502   -1.4189    1.3565 H   0  0  0  0  0  0  0  0  0  0  0  0
    4.2941   -0.7553   -0.1922 C   0  0  0  0  0  0  0  0  0  0  0  0
    5.1048   -1.2480    0.3822 H   0  0  0  0  0  0  0  0  0  0  0  0
    4.4295   -1.0152   -1.2632 H   0  0  0  0  0  0  0  0  0  0  0  0
  1  6  2  0  0  0  0
  2  7  1  0  0  0  0
  3  5  1  0  0  0  0
  4  3  1  0  0  0  0
  6  2  1  0  0  0  0
  6  3  1  0  0  0  0
  7  9  1  0  0  0  0
  8  7  1  0  0  0  0
 10  3  1  0  0  0  0
 10  7  1  0  0  0  0
 10 11  1  0  0  0  0
 12 10  1  0  0  0  0
M  END
