2
q = -1.0

 15 15  0  0  0  0  0  0  0  0999 V2000
    0.8979    1.3352   -2.8226 O   0  0  0  0  0  0  0  0  0  0  0  0
   -0.4128    1.4058   -0.9012 N   0  0  0  0  0  2  0  0  0  0  0  0
    0.0494    1.8846   -2.0706 C   0  0  0  0  0  0  0  0  0  0  0  0
   -0.3598    2.8884   -2.3711 H   0  0  0  0  0  0  0  0  0  0  0  0
   -1.4841    2.1520   -0.3532 C   0  0  0  0  0  0  0  0  0  0  0  0
   -1.5042    2.5437    1.0053 C   0  0  0  0  0  0  0  0  0  0  0  0
   -0.6668    2.2693    1.6576 H   0  0  0  0  0  0  0  0  0  0  0  0
   -2.5793    3.2730    1.5292 C   0  0  0  0  0  0  0  0  0  0  0  0
   -2.5641    3.5608    2.5919 H   0  0  0  0  0  0  0  0  0  0  0  0
   -3.6662    3.6391    0.7176 C   0  0  0  0  0  0  0  0  0  0  0  0
   -4.5105    4.2067    1.1366 H   0  0  0  0  0  0  0  0  0  0  0  0
   -3.6592    3.2664   -0.6351 C   0  0  0  0  0  0  0  0  0  0  0  0
   -4.5039    3.5361   -1.2881 H   0  0  0  0  0  0  0  0  0  0  0  0
   -2.5873    2.5310   -1.1624 C   0  0  0  0  0  0  0  0  0  0  0  0
   -2.6117    2.2064   -2.2138 H   0  0  0  0  0  0  0  0  0  0  0  0
  1  3  2  0  0  0  0
  2  5  1  0  0  0  0
  3  2  1  0  0  0  0
  4  3  1  0  0  0  0
  5  6  1  0  0  0  0
  6  8  2  0  0  0  0
  6  7  1  0  0  0  0
  8  9  1  0  0  0  0
 10 11  1  0  0  0  0
 10  8  1  0  0  0  0
 12 10  2  0  0  0  0
 13 12  1  0  0  0  0
 14 12  1  0  0  0  0
 14  5  2  0  0  0  0
 15 14  1  0  0  0  0
M  END
