1
q = -1.0, confidence = 0.002

 44 46  0  0  1  0  0  0  0  0999 V2000
    0.1828   -0.3040   -0.2403 N   0  0  0  0  0  0  0  0  0  0  0  0
    0.6940    0.4383    0.8648 C   0  0  0  0  0  3  0  0  0  0  0  0
   -0.9351   -1.2376   -0.0290 C   0  0  0  0  0  0  0  0  0  0  0  0
   -4.7250   -1.2758    0.0037 C   0  0  1  0  0  0  0  0  0  0  0  0
   -3.3579   -1.5349    0.6638 C   0  0  1  0  0  0  0  0  0  0  0  0
   -2.2783   -0.5235    0.1581 C   0  0  2  0  0  0  0  0  0  0  0  0
   -2.6898    0.2935   -1.1065 C   0  0  0  0  0  0  0  0  0  0  0  0
   -4.1777    0.1636   -1.4527 C   0  0  2  0  0  0  0  0  0  0  0  0
   -5.0899    0.2473   -0.1785 C   0  0  0  0  0  0  0  0  0  0  0  0
   -4.5282   -1.3440   -1.5343 C   0  0  0  0  0  0  0  0  0  0  0  0
   -4.7648    1.2837    0.8995 C   0  0  0  0  0  0  0  0  0  0  0  0
   -6.5720    0.4125   -0.5496 C   0  0  0  0  0  0  0  0  0  0  0  0
   -3.4127   -1.5878    2.1947 C   0  0  0  0  0  0  0  0  0  0  0  0
    0.7540    1.8955    0.6428 C   0  0  0  0  0  0  0  0  0  0  0  0
    0.3954    2.3340   -0.5884 N   0  0  0  0  0  0  0  0  0  0  0  0
    0.4662    3.6478   -0.8540 C   0  0  0  0  0  0  0  0  0  0  0  0
    0.8874    4.6028    0.0816 C   0  0  0  0  0  0  0  0  0  0  0  0
    1.2446    4.1527    1.3667 C   0  0  0  0  0  0  0  0  0  0  0  0
    1.1771    2.7886    1.6561 C   0  0  0  0  0  0  0  0  0  0  0  0
   -0.0036    0.3805   -1.0039 H   0  0  0  0  0  0  0  0  0  0  0  0
    0.3616    0.1100    1.8618 H   0  0  0  0  0  0  0  0  0  0  0  0
   -0.9740   -1.9256   -0.8995 H   0  0  0  0  0  0  0  0  0  0  0  0
   -0.6804   -1.8534    0.8569 H   0  0  0  0  0  0  0  0  0  0  0  0
   -5.5048   -1.9215    0.4619 H   0  0  0  0  0  0  0  0  0  0  0  0
   -3.0566   -2.5507    0.3167 H   0  0  0  0  0  0  0  0  0  0  0  0
   -2.1192    0.2038    0.9821 H   0  0  0  0  0  0  0  0  0  0  0  0
   -2.1112   -0.0578   -1.9908 H   0  0  0  0  0  0  0  0  0  0  0  0
   -2.4083    1.3579   -0.9677 H   0  0  0  0  0  0  0  0  0  0  0  0
   -4.4460    0.8171   -2.3101 H   0  0  0  0  0  0  0  0  0  0  0  0
   -5.4589   -1.5517   -2.0927 H   0  0  0  0  0  0  0  0  0  0  0  0
   -3.7344   -2.0257   -1.9056 H   0  0  0  0  0  0  0  0  0  0  0  0
   -3.7098    1.2807    1.2255 H   0  0  0  0  0  0  0  0  0  0  0  0
   -4.9895    2.3032    0.5208 H   0  0  0  0  0  0  0  0  0  0  0  0
   -5.3949    1.1261    1.7996 H   0  0  0  0  0  0  0  0  0  0  0  0
   -6.9058   -0.2919   -1.3352 H   0  0  0  0  0  0  0  0  0  0  0  0
   -7.2137    0.2475    0.3409 H   0  0  0  0  0  0  0  0  0  0  0  0
   -6.7677    1.4416   -0.9169 H   0  0  0  0  0  0  0  0  0  0  0  0
   -2.4147   -1.8101    2.6264 H   0  0  0  0  0  0  0  0  0  0  0  0
   -3.7578   -0.6276    2.6265 H   0  0  0  0  0  0  0  0  0  0  0  0
   -4.1063   -2.3812    2.5401 H   0  0  0  0  0  0  0  0  0  0  0  0
    0.1641    3.9562   -1.8707 H   0  0  0  0  0  0  0  0  0  0  0  0
    0.9283    5.6682   -0.1865 H   0  0  0  0  0  0  0  0  0  0  0  0
    1.5733    4.8673    2.1370 H   0  0  0  0  0  0  0  0  0  0  0  0
    1.4572    2.3969    2.6452 H   0  0  0  0  0  0  0  0  0  0  0  0
  1  3  1  0  0  0  0
  1  2  1  0  0  0  0
  2 21  1  0  0  0  0
  3  6  1  0  0  0  0
  3 23  1  0  0  0  0
  4 24  1  1  0  0  0
  4  5  1  0  0  0  0
  5 25  1  6  0  0  0
  5 13  1  0  0  0  0
  6  5  1  0  0  0  0
  6 26  1  1  0  0  0
  7 28  1  0  0  0  0
  7  6  1  0  0  0  0
  8 29  1  6  0  0  0
  8  7  1  0  0  0  0
  8  9  1  0  0  0  0
  9  4  1  0  0  0  0
  9 11  1  0  0  0  0
 10  8  1  0  0  0  0
 10  4  1  0  0  0  0
 11 32  1  0  0  0  0
 11 34  1  0  0  0  0
 12  9  1  0  0  0  0
 12 36  1  0  0  0  0
 13 40  1  0  0  0  0
 13 38  1  0  0  0  0
 13 39  1  0  0  0  0
 14  2  1  0  0  0  0
 14 19  1  0  0  0  0
 15 14  2  0  0  0  0
 16 15  1  0  0  0  0
 16 17  2  0  0  0  0
 17 18  1  0  0  0  0
 18 19  2  0  0  0  0
 18 43  1  0  0  0  0
 19 44  1  0  0  0  0
 20  1  1  0  0  0  0
 22  3  1  0  0  0  0
 27  7  1  0  0  0  0
 30 10  1  0  0  0  0
 31 10  1  0  0  0  0
 33 11  1  0  0  0  0
 35 12  1  0  0  0  0
 37 12  1  0  0  0  0
 41 16  1  0  0  0  0
 42 17  1  0  0  0  0
M  END
