2
q = 0.0, confidence = 0.992

 23 25  0  0  0  0  0  0  0  0999 V2000
    6.8411   -0.1867   -0.9843 O   0  0  0  0  0  0  0  0  0  0  0  0
    2.1855   -1.4414   -0.6004 N   0  0  0  0  0  2  0  0  0  0  0  0
    5.4392    1.2663    0.0599 N   0  0  0  0  0  0  0  0  0  0  0  0
    7.5877    0.9019   -0.6098 C   0  0  0  0  0  0  0  0  0  0  0  0
    3.1907   -0.5715   -0.4216 C   0  0  0  0  0  3  0  0  0  0  0  0
    2.9330    0.4076    0.0123 H   0  0  0  0  0  0  0  0  0  0  0  0
    4.5178   -0.8717   -0.7964 C   0  0  0  0  0  0  0  0  0  0  0  0
    2.4299   -2.6440   -1.1659 C   0  0  0  0  0  0  0  0  0  0  0  0
    1.5535   -3.3053   -1.2740 H   0  0  0  0  0  0  0  0  0  0  0  0
    4.7773   -2.1232   -1.3938 C   0  0  0  0  0  0  0  0  0  0  0  0
    5.8015   -2.3816   -1.6990 H   0  0  0  0  0  0  0  0  0  0  0  0
    5.5626    0.1127   -0.5463 C   0  0  0  0  0  0  0  0  0  0  0  0
    6.7159    1.8112    0.0415 C   0  0  0  0  0  0  0  0  0  0  0  0
    7.2173    3.0300    0.5354 C   0  0  0  0  0  0  0  0  0  0  0  0
    6.5531    3.7449    1.0405 H   0  0  0  0  0  0  0  0  0  0  0  0
    3.7159   -3.0149   -1.5817 C   0  0  0  0  0  0  0  0  0  0  0  0
    3.8774   -3.9997   -2.0424 H   0  0  0  0  0  0  0  0  0  0  0  0
    8.9492    1.1346   -0.8025 C   0  0  0  0  0  0  0  0  0  0  0  0
    9.5997    0.4105   -1.3117 H   0  0  0  0  0  0  0  0  0  0  0  0
    8.5829    3.2825    0.3517 C   0  0  0  0  0  0  0  0  0  0  0  0
    9.0121    4.2248    0.7233 H   0  0  0  0  0  0  0  0  0  0  0  0
    9.4309    2.3560   -0.3024 C   0  0  0  0  0  0  0  0  0  0  0  0
   10.4972    2.5986   -0.4233 H   0  0  0  0  0  0  0  0  0  0  0  0
  1  4  1  0  0  0  0
  1 12  1  0  0  0  0
  2  5  1  0  0  0  0
  4 13  1  0  0  0  0
  5  6  1  0  0  0  0
  7 12  1  0  0  0  0
  7  5  1  0  0  0  0
  8  2  1  0  0  0  0
  9  8  1  0  0  0  0
 10  7  2  0  0  0  0
 11 10  1  0  0  0  0
 12  3  2  0  0  0  0
 13  3  1  0  0  0  0
 13 14  2  0  0  0  0
 14 15  1  0  0  0  0
 16 10  1  0  0  0  0
 16  8  2  0  0  0  0
 17 16  1  0  0  0  0
 18  4  2  0  0  0  0
 18 22  1  0  0  0  0
 19 18  1  0  0  0  0
 20 14  1  0  0  0  0
 20 21  1  0  0  0  0
 22 20  2  0  0  0  0
 23 22  1  0  0  0  0
M  END
