2
q = -1.0

 19 20  0  0  1  0  0  0  0  0999 V2000
    2.0493   -2.0432   -0.0001 S   0  0  0  0  0  0  0  0  0  0  0  0
   -0.6283   -1.2798   -0.0002 N   0  0  0  0  0  2  0  0  0  0  0  0
   -0.8410   -2.2806   -0.0003 H   0  0  0  0  0  0  0  0  0  0  0  0
    0.6439   -0.9652   -0.0001 C   0  0  2  0  0  3  0  0  0  0  0  0
    0.9982    0.3559   -0.0002 N   0  0  0  0  0  0  0  0  0  0  0  0
   -0.1613    1.3240   -0.0004 B   0  0  0  0  0  0  0  0  0  0  0  0
    0.1418    2.4999   -0.0004 H   0  0  0  0  0  0  0  0  0  0  0  0
   -0.9258    1.0594   -1.0426 H   0  0  0  0  0  0  0  0  0  0  0  0
   -0.9260    1.0596    1.0418 H   0  0  0  0  0  0  0  0  0  0  0  0
    2.3779    0.5694   -0.0001 C   0  0  0  0  0  0  0  0  0  0  0  0
    3.0448    1.8045   -0.0001 C   0  0  0  0  0  0  0  0  0  0  0  0
    2.4657    2.7377   -0.0001 H   0  0  0  0  0  0  0  0  0  0  0  0
    4.4469    1.8117   -0.0000 C   0  0  0  0  0  0  0  0  0  0  0  0
    4.9784    2.7747   -0.0000 H   0  0  0  0  0  0  0  0  0  0  0  0
    5.1815    0.6109    0.0000 C   0  0  0  0  0  0  0  0  0  0  0  0
    6.2808    0.6394    0.0000 H   0  0  0  0  0  0  0  0  0  0  0  0
    4.5243   -0.6298    0.0000 C   0  0  0  0  0  0  0  0  0  0  0  0
    5.0928   -1.5708    0.0000 H   0  0  0  0  0  0  0  0  0  0  0  0
    3.1245   -0.6367   -0.0000 C   0  0  0  0  0  0  0  0  0  0  0  0
  1 19  1  0  0  0  0
  3  2  1  0  0  0  0
  4  2  1  6  0  0  0
  4  1  1  0  0  0  0
  5  4  1  0  0  0  0
  5 10  1  0  0  0  0
  6  5  1  0  0  0  0
  6  9  1  0  0  0  0
  7  6  1  0  0  0  0
  8  6  1  0  0  0  0
 10 11  2  0  0  0  0
 10 19  1  0  0  0  0
 11 13  1  0  0  0  0
 12 11  1  0  0  0  0
 13 14  1  0  0  0  0
 13 15  2  0  0  0  0
 15 16  1  0  0  0  0
 17 15  1  0  0  0  0
 17 18  1  0  0  0  0
 19 17  2  0  0  0  0
M  END
