4
q = -1.0

 24 24  0  0  0  0  0  0  0  0999 V2000
   -2.6571    1.3425   -1.4638 O   0  0  0  0  0  0  0  0  0  0  0  0
   -5.2647   -2.3500   -0.9157 O   0  0  0  0  0  0  0  0  0  0  0  0
   -1.0215   -1.9327    1.2603 O   0  0  0  0  0  0  0  0  0  0  0  0
   -1.7654   -0.3332   -0.1681 N   0  0  0  0  0  2  0  0  0  0  0  0
   -3.9175   -0.5312   -1.1521 N   0  0  0  0  0  0  0  0  0  0  0  0
   -4.6281   -0.0930   -1.7458 H   0  0  0  0  0  0  0  0  0  0  0  0
   -1.9587   -3.6211   -1.6821 C   0  0  0  0  0  0  0  0  0  0  0  0
   -2.5726   -3.0943   -2.4428 H   0  0  0  0  0  0  0  0  0  0  0  0
   -1.7229   -4.6235   -2.0928 H   0  0  0  0  0  0  0  0  0  0  0  0
   -1.0003   -3.0755   -1.5649 H   0  0  0  0  0  0  0  0  0  0  0  0
   -2.6995   -3.7505   -0.3511 C   0  0  0  0  0  0  0  0  0  0  0  0
   -2.0477   -4.2446    0.3981 H   0  0  0  0  0  0  0  0  0  0  0  0
   -3.6141   -4.3679   -0.4674 H   0  0  0  0  0  0  0  0  0  0  0  0
   -3.1493   -2.3985    0.2677 C   0  0  0  0  0  0  0  0  0  0  0  0
   -3.8082   -2.6492    1.6508 C   0  0  0  0  0  0  0  0  0  0  0  0
   -4.6607   -3.3398    1.4883 H   0  0  0  0  0  0  0  0  0  0  0  0
   -3.0533   -3.1746    2.2699 H   0  0  0  0  0  0  0  0  0  0  0  0
   -4.2813   -1.3806    2.3603 C   0  0  0  0  0  0  0  0  0  0  0  0
   -4.7232   -1.6215    3.3479 H   0  0  0  0  0  0  0  0  0  0  0  0
   -5.0580   -0.8466    1.7748 H   0  0  0  0  0  0  0  0  0  0  0  0
   -3.4437   -0.6733    2.5349 H   0  0  0  0  0  0  0  0  0  0  0  0
   -4.2104   -1.7857   -0.6488 C   0  0  0  0  0  0  0  0  0  0  0  0
   -2.7489    0.2274   -0.9475 C   0  0  0  0  0  0  0  0  0  0  0  0
   -1.8994   -1.5285    0.4827 C   0  0  0  0  0  0  0  0  0  0  0  0
  1 23  2  0  0  0  0
  2 22  2  0  0  0  0
  4 24  1  0  0  0  0
  5 23  1  0  0  0  0
  5 22  1  0  0  0  0
  6  5  1  0  0  0  0
  7 10  1  0  0  0  0
  7 11  1  0  0  0  0
  8  7  1  0  0  0  0
  9  7  1  0  0  0  0
 11 14  1  0  0  0  0
 11 12  1  0  0  0  0
 13 11  1  0  0  0  0
 14 24  1  0  0  0  0
 14 15  1  0  0  0  0
 15 17  1  0  0  0  0
 15 18  1  0  0  0  0
 16 15  1  0  0  0  0
 18 21  1  0  0  0  0
 18 19  1  0  0  0  0
 20 18  1  0  0  0  0
 22 14  1  0  0  0  0
 23  4  1  0  0  0  0
 24  3  2  0  0  0  0
M  END
