1
q = 0.0, confidence = 0.998

 15 15  0  0  0  0  0  0  0  0999 V2000
   -0.2801   -0.0012   -1.5100 N   0  0  0  0  0  0  0  0  0  0  0  0
   -0.1000    0.8480   -2.0690 H   0  0  0  0  0  0  0  0  0  0  0  0
   -0.0999   -0.8520   -2.0665 H   0  0  0  0  0  0  0  0  0  0  0  0
   -2.2201   -1.2249   -0.6272 C   0  0  0  0  0  0  0  0  0  0  0  0
   -1.6920   -2.1698   -0.8225 H   0  0  0  0  0  0  0  0  0  0  0  0
   -2.2183    1.2244   -0.6257 C   0  0  0  0  0  0  0  0  0  0  0  0
   -1.6887    2.1686   -0.8197 H   0  0  0  0  0  0  0  0  0  0  0  0
   -3.4891   -1.2233   -0.0447 C   0  0  0  0  0  0  0  0  0  0  0  0
   -3.9875   -2.1729    0.1942 H   0  0  0  0  0  0  0  0  0  0  0  0
   -1.5989   -0.0006   -0.9308 C   0  0  0  0  0  0  0  0  0  0  0  0
   -6.5146    0.0017    1.3167 N   0  0  0  0  0  0  0  0  0  0  0  0
   -3.4873    1.2239   -0.0433 C   0  0  0  0  0  0  0  0  0  0  0  0
   -3.9843    2.1740    0.1968 H   0  0  0  0  0  0  0  0  0  0  0  0
   -4.1368    0.0006    0.2464 C   0  0  0  0  0  0  0  0  0  0  0  0
   -5.4433    0.0012    0.8366 C   0  0  0  0  0  0  0  0  0  0  0  0
  1 10  1  0  0  0  0
  2  1  1  0  0  0  0
  3  1  1  0  0  0  0
  4  8  1  0  0  0  0
  5  4  1  0  0  0  0
  6 12  2  0  0  0  0
  7  6  1  0  0  0  0
  8  9  1  0  0  0  0
  8 14  2  0  0  0  0
 10  4  2  0  0  0  0
 10  6  1  0  0  0  0
 12 13  1  0  0  0  0
 12 14  1  0  0  0  0
 14 15  1  0  0  0  0
 15 11  3  0  0  0  0
M  END
