3
q = -1.0

 42 45  0  0  1  0  0  0  0  0999 V2000
    0.5716    0.1429    0.5979 P   0  0  1  0  0  0  0  0  0  0  0  0
    0.7966    0.4920    2.0783 O   0  0  0  0  0  1  0  0  0  0  0  0
   -0.8326   -2.2575   -0.2507 N   0  0  0  0  0  2  0  0  0  0  0  0
    1.5811    1.2627   -0.5355 C   0  0  2  0  0  0  0  0  0  0  0  0
    1.2662    0.8516   -1.5278 H   0  0  0  0  0  0  0  0  0  0  0  0
    3.0300    0.9926   -0.2950 C   0  0  0  0  0  0  0  0  0  0  0  0
    3.6907    1.8718   -0.2103 H   0  0  0  0  0  0  0  0  0  0  0  0
    3.5882   -0.2585   -0.1699 C   0  0  0  0  0  0  0  0  0  0  0  0
    2.7425   -1.4471   -0.1802 C   0  0  0  0  0  0  0  0  0  0  0  0
    3.2324   -2.3914   -0.4813 H   0  0  0  0  0  0  0  0  0  0  0  0
    1.3999   -1.4327    0.0943 C   0  0  0  0  0  0  0  0  0  0  0  0
    0.5042   -2.5590   -0.0944 C   0  0  2  0  0  3  0  0  0  0  0  0
    0.9332   -3.9047   -0.1783 C   0  0  0  0  0  0  0  0  0  0  0  0
    1.9948   -4.1285   -0.0044 H   0  0  0  0  0  0  0  0  0  0  0  0
    0.0307   -4.9221   -0.4760 C   0  0  0  0  0  0  0  0  0  0  0  0
    0.3683   -5.9670   -0.5430 H   0  0  0  0  0  0  0  0  0  0  0  0
   -1.3162   -4.5829   -0.7016 C   0  0  0  0  0  0  0  0  0  0  0  0
   -2.0669   -5.3373   -0.9742 H   0  0  0  0  0  0  0  0  0  0  0  0
   -1.6967   -3.2484   -0.5788 C   0  0  0  0  0  0  0  0  0  0  0  0
   -2.7301   -2.9306   -0.7647 H   0  0  0  0  0  0  0  0  0  0  0  0
    1.1627    2.6996   -0.4034 C   0  0  0  0  0  0  0  0  0  0  0  0
    0.3425    3.3037   -1.3774 C   0  0  0  0  0  0  0  0  0  0  0  0
    0.0183    2.7058   -2.2432 H   0  0  0  0  0  0  0  0  0  0  0  0
   -0.0714    4.6368   -1.2299 C   0  0  0  0  0  0  0  0  0  0  0  0
   -0.7051    5.0997   -2.0024 H   0  0  0  0  0  0  0  0  0  0  0  0
    0.3215    5.3805   -0.1045 C   0  0  0  0  0  0  0  0  0  0  0  0
   -0.0025    6.4264    0.0089 H   0  0  0  0  0  0  0  0  0  0  0  0
    1.1295    4.7806    0.8759 C   0  0  0  0  0  0  0  0  0  0  0  0
    1.4307    5.3521    1.7673 H   0  0  0  0  0  0  0  0  0  0  0  0
    1.5449    3.4494    0.7299 C   0  0  0  0  0  0  0  0  0  0  0  0
    2.1418    2.9613    1.5156 H   0  0  0  0  0  0  0  0  0  0  0  0
    5.0564   -0.4408   -0.0540 C   0  0  0  0  0  0  0  0  0  0  0  0
    5.5885   -1.4968    0.7221 C   0  0  0  0  0  0  0  0  0  0  0  0
    4.9020   -2.1695    1.2590 H   0  0  0  0  0  0  0  0  0  0  0  0
    6.9732   -1.6740    0.8488 C   0  0  0  0  0  0  0  0  0  0  0  0
    7.3633   -2.4974    1.4667 H   0  0  0  0  0  0  0  0  0  0  0  0
    7.8597   -0.7990    0.2018 C   0  0  0  0  0  0  0  0  0  0  0  0
    8.9470   -0.9380    0.2994 H   0  0  0  0  0  0  0  0  0  0  0  0
    7.3472    0.2528   -0.5756 C   0  0  0  0  0  0  0  0  0  0  0  0
    8.0334    0.9371   -1.0978 H   0  0  0  0  0  0  0  0  0  0  0  0
    5.9635    0.4262   -0.7066 C   0  0  0  0  0  0  0  0  0  0  0  0
    5.5720    1.2309   -1.3471 H   0  0  0  0  0  0  0  0  0  0  0  0
  1  2  1  1  0  0  0
  3 12  1  0  0  0  0
  4  5  1  6  0  0  0
  4 21  1  0  0  0  0
  4  6  1  0  0  0  0
  4  1  1  0  0  0  0
  6  7  1  0  0  0  0
  6  8  2  0  0  0  0
  8 32  1  0  0  0  0
  9  8  1  0  0  0  0
  9 11  2  0  0  0  0
 10  9  1  0  0  0  0
 11  1  1  0  0  0  0
 12 11  1  6  0  0  0
 13 12  1  0  0  0  0
 13 14  1  0  0  0  0
 15 13  2  0  0  0  0
 16 15  1  0  0  0  0
 17 19  2  0  0  0  0
 17 15  1  0  0  0  0
 18 17  1  0  0  0  0
 19  3  1  0  0  0  0
 20 19  1  0  0  0  0
 21 30  1  0  0  0  0
 22 24  1  0  0  0  0
 22 21  2  0  0  0  0
 23 22  1  0  0  0  0
 24 26  2  0  0  0  0
 25 24  1  0  0  0  0
 26 27  1  0  0  0  0
 26 28  1  0  0  0  0
 28 29  1  0  0  0  0
 30 28  2  0  0  0  0
 30 31  1  0  0  0  0
 32 33  1  0  0  0  0
 33 35  2  0  0  0  0
 33 34  1  0  0  0  0
 35 36  1  0  0  0  0
 37 38  1  0  0  0  0
 37 35  1  0  0  0  0
 39 37  2  0  0  0  0
 40 39  1  0  0  0  0
 41 39  1  0  0  0  0
 41 32  2  0  0  0  0
 42 41  1  0  0  0  0
M  END
