2
q = 0.0, confidence = 1.0

 40 43  0  0  1  0  0  0  0  0999 V2000
    0.5845    0.1335   -0.1354 P   0  0  0  0  0  0  0  0  0  0  0  0
   -0.8604   -2.2219   -0.3625 N   0  0  0  0  0  2  0  0  0  0  0  0
    1.8012    1.3715   -0.1414 C   0  0  0  0  0  0  0  0  0  0  0  0
    3.1488    0.9775   -0.0358 C   0  0  0  0  0  0  0  0  0  0  0  0
    3.8856    1.7972   -0.0087 H   0  0  0  0  0  0  0  0  0  0  0  0
    3.6579   -0.3443    0.0140 C   0  0  0  0  0  0  0  0  0  0  0  0
    2.8072   -1.4730   -0.0624 C   0  0  0  0  0  0  0  0  0  0  0  0
    3.2912   -2.4618   -0.0920 H   0  0  0  0  0  0  0  0  0  0  0  0
    1.4096   -1.3973   -0.1396 C   0  0  0  0  0  0  0  0  0  0  0  0
    0.4834   -2.5234   -0.3121 C   0  0  2  0  0  3  0  0  0  0  0  0
    0.9111   -3.8545   -0.4926 C   0  0  0  0  0  0  0  0  0  0  0  0
    1.9840   -4.0834   -0.4457 H   0  0  0  0  0  0  0  0  0  0  0  0
   -0.0152   -4.8643   -0.7584 C   0  0  0  0  0  0  0  0  0  0  0  0
    0.3199   -5.9018   -0.9027 H   0  0  0  0  0  0  0  0  0  0  0  0
   -1.3726   -4.5252   -0.8681 C   0  0  0  0  0  0  0  0  0  0  0  0
   -2.1385   -5.2740   -1.1123 H   0  0  0  0  0  0  0  0  0  0  0  0
   -1.7473   -3.1957   -0.6719 C   0  0  0  0  0  0  0  0  0  0  0  0
   -2.7922   -2.8768   -0.7760 H   0  0  0  0  0  0  0  0  0  0  0  0
    1.3810    2.7861   -0.2562 C   0  0  0  0  0  0  0  0  0  0  0  0
    0.3670    3.1469   -1.1751 C   0  0  0  0  0  0  0  0  0  0  0  0
   -0.0877    2.3761   -1.8194 H   0  0  0  0  0  0  0  0  0  0  0  0
   -0.0405    4.4837   -1.2861 C   0  0  0  0  0  0  0  0  0  0  0  0
   -0.8138    4.7572   -2.0196 H   0  0  0  0  0  0  0  0  0  0  0  0
    0.5473    5.4726   -0.4796 C   0  0  0  0  0  0  0  0  0  0  0  0
    0.2258    6.5210   -0.5690 H   0  0  0  0  0  0  0  0  0  0  0  0
    1.5553    5.1214    0.4338 C   0  0  0  0  0  0  0  0  0  0  0  0
    2.0176    5.8922    1.0682 H   0  0  0  0  0  0  0  0  0  0  0  0
    1.9739    3.7884    0.5440 C   0  0  0  0  0  0  0  0  0  0  0  0
    2.7498    3.5152    1.2754 H   0  0  0  0  0  0  0  0  0  0  0  0
    5.1260   -0.5500    0.1113 C   0  0  0  0  0  0  0  0  0  0  0  0
    5.6547   -1.5972    0.9006 C   0  0  0  0  0  0  0  0  0  0  0  0
    4.9747   -2.2438    1.4765 H   0  0  0  0  0  0  0  0  0  0  0  0
    7.0385   -1.7937    0.9957 C   0  0  0  0  0  0  0  0  0  0  0  0
    7.4324   -2.6047    1.6262 H   0  0  0  0  0  0  0  0  0  0  0  0
    7.9201   -0.9514    0.2996 C   0  0  0  0  0  0  0  0  0  0  0  0
    9.0066   -1.1073    0.3725 H   0  0  0  0  0  0  0  0  0  0  0  0
    7.4087    0.0906   -0.4903 C   0  0  0  0  0  0  0  0  0  0  0  0
    8.0928    0.7468   -1.0486 H   0  0  0  0  0  0  0  0  0  0  0  0
    6.0255    0.2920   -0.5823 C   0  0  0  0  0  0  0  0  0  0  0  0
    5.6372    1.0916   -1.2315 H   0  0  0  0  0  0  0  0  0  0  0  0
  2 10  1  0  0  0  0
  3  1  2  0  0  0  0
  3  4  1  0  0  0  0
  4  5  1  0  0  0  0
  4  6  2  0  0  0  0
  6 30  1  0  0  0  0
  7  6  1  0  0  0  0
  8  7  1  0  0  0  0
  9  1  1  0  0  0  0
  9  7  2  0  0  0  0
 10  9  1  6  0  0  0
 11 12  1  0  0  0  0
 11 10  1  0  0  0  0
 13 11  2  0  0  0  0
 14 13  1  0  0  0  0
 15 13  1  0  0  0  0
 15 17  2  0  0  0  0
 16 15  1  0  0  0  0
 17  2  1  0  0  0  0
 18 17  1  0  0  0  0
 19  3  1  0  0  0  0
 19 28  1  0  0  0  0
 20 19  2  0  0  0  0
 21 20  1  0  0  0  0
 22 20  1  0  0  0  0
 22 24  2  0  0  0  0
 23 22  1  0  0  0  0
 24 26  1  0  0  0  0
 25 24  1  0  0  0  0
 26 28  2  0  0  0  0
 26 27  1  0  0  0  0
 28 29  1  0  0  0  0
 30 31  1  0  0  0  0
 31 33  2  0  0  0  0
 31 32  1  0  0  0  0
 33 34  1  0  0  0  0
 35 36  1  0  0  0  0
 35 33  1  0  0  0  0
 37 35  2  0  0  0  0
 38 37  1  0  0  0  0
 39 37  1  0  0  0  0
 39 30  2  0  0  0  0
 40 39  1  0  0  0  0
M  END
