1
q = 0.0, confidence = 0.98

 13 12  0  0  1  0  0  0  0  0999 V2000
   -1.7835    0.6198   -0.0712 N   0  0  0  0  0  2  0  0  0  0  0  0
   -4.2849    0.8483    1.6059 C   0  0  0  0  0  0  0  0  0  0  0  0
   -5.2871    0.7901    2.0709 H   0  0  0  0  0  0  0  0  0  0  0  0
   -3.5887    0.1658    2.1296 H   0  0  0  0  0  0  0  0  0  0  0  0
   -3.9244    1.8933    1.6681 H   0  0  0  0  0  0  0  0  0  0  0  0
   -2.8050   -0.0196   -0.5587 C   0  0  1  0  0  3  0  0  0  0  0  0
   -1.4844   -1.2438   -2.1259 N   0  0  0  0  0  0  0  0  0  0  0  0
   -4.4996    0.3143   -0.1244 S   0  0  0  0  0  0  0  0  0  0  0  0
   -2.6865   -1.0262   -1.4723 N   0  0  0  0  0  0  0  0  0  0  0  0
   -1.6369   -1.3615   -3.1330 H   0  0  0  0  0  0  0  0  0  0  0  0
   -0.9388   -2.0261   -1.7206 H   0  0  0  0  0  0  0  0  0  0  0  0
   -3.4467   -1.7180   -1.4913 H   0  0  0  0  0  0  0  0  0  0  0  0
   -1.9657    1.5075    0.4122 H   0  0  0  0  0  0  0  0  0  0  0  0
  1 13  1  0  0  0  0
  2  5  1  0  0  0  0
  2  3  1  0  0  0  0
  2  4  1  0  0  0  0
  6  8  1  6  0  0  0
  6  1  1  0  0  0  0
  7 11  1  0  0  0  0
  7  9  1  0  0  0  0
  8  2  1  0  0  0  0
  9  6  1  0  0  0  0
 10  7  1  0  0  0  0
 12  9  1  0  0  0  0
M  END
