2
q = -1.0

 36 38  0  0  0  0  0  0  0  0999 V2000
    1.6849   -0.4440   -0.8279 O   0  0  0  0  0  0  0  0  0  0  0  0
    1.6570   -0.5627    1.8470 N   0  0  0  0  0  2  0  0  0  0  0  0
    2.8875   -0.3620    1.2955 N   0  0  0  0  0  0  0  0  0  0  0  0
    1.6641   -1.3957   -1.8948 C   0  0  0  0  0  0  0  0  0  0  0  0
    0.6734   -1.3534   -2.3841 H   0  0  0  0  0  0  0  0  0  0  0  0
    1.8269   -2.4266   -1.5182 H   0  0  0  0  0  0  0  0  0  0  0  0
    2.4534   -1.1497   -2.6307 H   0  0  0  0  0  0  0  0  0  0  0  0
    4.2994   -0.8202   -0.8226 C   0  0  0  0  0  0  0  0  0  0  0  0
    3.1464    1.6181   -0.4327 C   0  0  0  0  0  0  0  0  0  0  0  0
    3.8322   -0.5118    2.2441 C   0  0  0  0  0  3  0  0  0  0  0  0
    4.8910   -0.4002    1.9868 H   0  0  0  0  0  0  0  0  0  0  0  0
    3.2058   -0.8331    3.4601 C   0  0  0  0  0  0  0  0  0  0  0  0
    3.6828   -1.0341    4.4238 H   0  0  0  0  0  0  0  0  0  0  0  0
    1.8396   -0.8584    3.1575 C   0  0  0  0  0  0  0  0  0  0  0  0
    0.9853   -1.1009    3.7955 H   0  0  0  0  0  0  0  0  0  0  0  0
    5.2583   -0.2408   -1.6819 C   0  0  0  0  0  0  0  0  0  0  0  0
    5.1720    0.8262   -1.9406 H   0  0  0  0  0  0  0  0  0  0  0  0
    6.3240   -0.9899   -2.2094 C   0  0  0  0  0  0  0  0  0  0  0  0
    7.0570   -0.5077   -2.8751 H   0  0  0  0  0  0  0  0  0  0  0  0
    6.4590   -2.3478   -1.8840 C   0  0  0  0  0  0  0  0  0  0  0  0
    7.2933   -2.9375   -2.2946 H   0  0  0  0  0  0  0  0  0  0  0  0
    5.5242   -2.9481   -1.0238 C   0  0  0  0  0  0  0  0  0  0  0  0
    5.6232   -4.0124   -0.7580 H   0  0  0  0  0  0  0  0  0  0  0  0
    4.4662   -2.1899   -0.5019 C   0  0  0  0  0  0  0  0  0  0  0  0
    3.7467   -2.6783    0.1765 H   0  0  0  0  0  0  0  0  0  0  0  0
    2.8883    2.1674   -1.7108 C   0  0  0  0  0  0  0  0  0  0  0  0
    2.5882    1.4981   -2.5338 H   0  0  0  0  0  0  0  0  0  0  0  0
    2.9941    3.5450   -1.9612 C   0  0  0  0  0  0  0  0  0  0  0  0
    2.7885    3.9398   -2.9687 H   0  0  0  0  0  0  0  0  0  0  0  0
    3.3569    4.4204   -0.9236 C   0  0  0  0  0  0  0  0  0  0  0  0
    3.4377    5.5021   -1.1118 H   0  0  0  0  0  0  0  0  0  0  0  0
    3.6126    3.9013    0.3550 C   0  0  0  0  0  0  0  0  0  0  0  0
    3.8920    4.5785    1.1776 H   0  0  0  0  0  0  0  0  0  0  0  0
    3.5109    2.5193    0.5888 C   0  0  0  0  0  0  0  0  0  0  0  0
    3.7097    2.1381    1.6039 H   0  0  0  0  0  0  0  0  0  0  0  0
    3.0428    0.0166   -0.2303 B   0  0  0  0  0  0  0  0  0  0  0  0
  1 36  1  0  0  0  0
  2 14  1  0  0  0  0
  3  2  1  0  0  0  0
  3 10  1  0  0  0  0
  4  6  1  0  0  0  0
  4  1  1  0  0  0  0
  5  4  1  0  0  0  0
  7  4  1  0  0  0  0
  8 24  1  0  0  0  0
  8 36  1  0  0  0  0
  9 36  1  0  0  0  0
  9 34  1  0  0  0  0
 10 12  1  0  0  0  0
 11 10  1  0  0  0  0
 12 13  1  0  0  0  0
 14 12  2  0  0  0  0
 14 15  1  0  0  0  0
 16  8  2  0  0  0  0
 17 16  1  0  0  0  0
 18 20  2  0  0  0  0
 18 16  1  0  0  0  0
 19 18  1  0  0  0  0
 20 22  1  0  0  0  0
 21 20  1  0  0  0  0
 22 23  1  0  0  0  0
 22 24  2  0  0  0  0
 24 25  1  0  0  0  0
 26  9  2  0  0  0  0
 27 26  1  0  0  0  0
 28 26  1  0  0  0  0
 28 30  2  0  0  0  0
 29 28  1  0  0  0  0
 30 32  1  0  0  0  0
 31 30  1  0  0  0  0
 32 34  2  0  0  0  0
 32 33  1  0  0  0  0
 34 35  1  0  0  0  0
 36  3  1  0  0  0  0
M  END
