1
q = 0.0, confidence = 0.992

 24 25  0  0  0  0  0  0  0  0999 V2000
   -1.9351    0.1340   -0.1128 N   0  0  0  0  0  2  0  0  0  0  0  0
  -11.4467    0.0993    0.0134 N   0  0  0  0  0  0  0  0  0  0  0  0
   -2.5251    1.2041   -0.7053 C   0  0  0  0  0  3  0  0  0  0  0  0
   -3.9079    1.3494   -0.7761 C   0  0  0  0  0  0  0  0  0  0  0  0
   -4.7713    0.3731   -0.2193 C   0  0  0  0  0  0  0  0  0  0  0  0
   -4.1348   -0.7407    0.3856 C   0  0  0  0  0  0  0  0  0  0  0  0
   -2.7474   -0.8254    0.4119 C   0  0  0  0  0  0  0  0  0  0  0  0
   -6.2148    0.5484   -0.2968 C   0  0  0  0  0  0  0  0  0  0  0  0
   -7.1593   -0.3103    0.1812 C   0  0  0  0  0  0  0  0  0  0  0  0
   -8.6081   -0.1371    0.1065 C   0  0  0  0  0  0  0  0  0  0  0  0
   -9.2434    0.9875   -0.4743 C   0  0  0  0  0  0  0  0  0  0  0  0
  -10.6411    1.0509   -0.4926 C   0  0  0  0  0  0  0  0  0  0  0  0
  -10.8500   -0.9689    0.5655 C   0  0  0  0  0  0  0  0  0  0  0  0
   -9.4599   -1.1343    0.6374 C   0  0  0  0  0  0  0  0  0  0  0  0
   -1.8437    1.9587   -1.1193 H   0  0  0  0  0  0  0  0  0  0  0  0
   -4.3248    2.2405   -1.2686 H   0  0  0  0  0  0  0  0  0  0  0  0
   -4.7175   -1.5598    0.8298 H   0  0  0  0  0  0  0  0  0  0  0  0
   -2.2425   -1.7125    0.8241 H   0  0  0  0  0  0  0  0  0  0  0  0
   -6.5420    1.4745   -0.7979 H   0  0  0  0  0  0  0  0  0  0  0  0
   -6.8320   -1.2396    0.6774 H   0  0  0  0  0  0  0  0  0  0  0  0
   -8.6579    1.8109   -0.9091 H   0  0  0  0  0  0  0  0  0  0  0  0
  -11.1428    1.9257   -0.9439 H   0  0  0  0  0  0  0  0  0  0  0  0
  -11.5181   -1.7460    0.9787 H   0  0  0  0  0  0  0  0  0  0  0  0
   -9.0325   -2.0359    1.1036 H   0  0  0  0  0  0  0  0  0  0  0  0
  1  7  1  0  0  0  0
  2 13  1  0  0  0  0
  3  1  1  0  0  0  0
  4  3  1  0  0  0  0
  4  5  2  0  0  0  0
  5  6  1  0  0  0  0
  6  7  2  0  0  0  0
  6 17  1  0  0  0  0
  7 18  1  0  0  0  0
  8  5  1  0  0  0  0
  8  9  2  0  0  0  0
  9 20  1  0  0  0  0
 10  9  1  0  0  0  0
 10 14  1  0  0  0  0
 11 10  2  0  0  0  0
 12 11  1  0  0  0  0
 12  2  2  0  0  0  0
 13 14  2  0  0  0  0
 13 23  1  0  0  0  0
 14 24  1  0  0  0  0
 15  3  1  0  0  0  0
 16  4  1  0  0  0  0
 19  8  1  0  0  0  0
 21 11  1  0  0  0  0
 22 12  1  0  0  0  0
M  END
