2
q = 0.0, confidence = 1.0

 25 25  0  0  0  0  0  0  0  0999 V2000
    2.3798    2.5842    1.0350 O   0  0  0  0  0  0  0  0  0  0  0  0
    2.4487    0.0666   -0.2478 N   0  0  0  0  0  2  0  0  0  0  0  0
    1.9696    1.2583   -0.7995 N   0  0  0  0  0  0  0  0  0  0  0  0
    4.2114   -1.2155    0.7895 C   0  0  0  0  0  0  0  0  0  0  0  0
    3.7118    0.0036    0.0893 C   0  0  0  0  0  3  0  0  0  0  0  0
    4.6755    1.1071   -0.2095 C   0  0  0  0  0  0  0  0  0  0  0  0
    1.7425    2.3724    0.0022 C   0  0  0  0  0  0  0  0  0  0  0  0
    0.6694    3.2940   -0.4928 C   0  0  0  0  0  0  0  0  0  0  0  0
   -0.4057    2.8624   -1.2990 C   0  0  0  0  0  0  0  0  0  0  0  0
   -1.4185    3.7599   -1.6649 C   0  0  0  0  0  0  0  0  0  0  0  0
   -1.3648    5.0944   -1.2323 C   0  0  0  0  0  0  0  0  0  0  0  0
   -0.3018    5.5277   -0.4213 C   0  0  0  0  0  0  0  0  0  0  0  0
    0.7049    4.6308   -0.0460 C   0  0  0  0  0  0  0  0  0  0  0  0
    1.2974    1.0603   -1.5464 H   0  0  0  0  0  0  0  0  0  0  0  0
   -0.4914    1.8095   -1.6097 H   0  0  0  0  0  0  0  0  0  0  0  0
   -2.2601    3.4116   -2.2823 H   0  0  0  0  0  0  0  0  0  0  0  0
   -2.1600    5.7980   -1.5215 H   0  0  0  0  0  0  0  0  0  0  0  0
   -0.2628    6.5718   -0.0759 H   0  0  0  0  0  0  0  0  0  0  0  0
    1.5357    4.9389    0.6054 H   0  0  0  0  0  0  0  0  0  0  0  0
    3.3871   -1.9027    1.0531 H   0  0  0  0  0  0  0  0  0  0  0  0
    4.9062   -1.7628    0.1198 H   0  0  0  0  0  0  0  0  0  0  0  0
    4.7814   -0.9166    1.6943 H   0  0  0  0  0  0  0  0  0  0  0  0
    4.6765    1.8379    0.6258 H   0  0  0  0  0  0  0  0  0  0  0  0
    4.3741    1.6577   -1.1214 H   0  0  0  0  0  0  0  0  0  0  0  0
    5.6973    0.7002   -0.3296 H   0  0  0  0  0  0  0  0  0  0  0  0
  2  5  1  0  0  0  0
  3  2  1  0  0  0  0
  3  7  1  0  0  0  0
  4 20  1  0  0  0  0
  4 22  1  0  0  0  0
  5  4  1  0  0  0  0
  6  5  1  0  0  0  0
  6 23  1  0  0  0  0
  7  1  2  0  0  0  0
  8 13  1  0  0  0  0
  8  7  1  0  0  0  0
  9  8  2  0  0  0  0
 10  9  1  0  0  0  0
 10 11  2  0  0  0  0
 11 12  1  0  0  0  0
 12 18  1  0  0  0  0
 12 13  2  0  0  0  0
 13 19  1  0  0  0  0
 14  3  1  0  0  0  0
 15  9  1  0  0  0  0
 16 10  1  0  0  0  0
 17 11  1  0  0  0  0
 21  4  1  0  0  0  0
 24  6  1  0  0  0  0
 25  6  1  0  0  0  0
M  END
