1
q = 0.0, confidence = 0.994

 25 25  0  0  0  0  0  0  0  0999 V2000
   -1.7573    1.3031   -0.6229 N   0  0  0  0  0  2  0  0  0  0  0  0
   -1.9288   -1.1440    0.4314 N   0  0  0  0  0  0  0  0  0  0  0  0
   -1.3999    2.5728   -0.9378 C   0  0  0  0  0  3  0  0  0  0  0  0
   -0.5125    2.6730   -1.5775 H   0  0  0  0  0  0  0  0  0  0  0  0
   -2.1026    3.6857   -0.4718 C   0  0  0  0  0  0  0  0  0  0  0  0
   -1.7668    4.6928   -0.7546 H   0  0  0  0  0  0  0  0  0  0  0  0
   -3.2145    3.4912    0.3605 C   0  0  0  0  0  0  0  0  0  0  0  0
   -3.7840    4.3473    0.7499 H   0  0  0  0  0  0  0  0  0  0  0  0
   -3.5806    2.1800    0.6936 C   0  0  0  0  0  0  0  0  0  0  0  0
   -4.4410    1.9801    1.3484 H   0  0  0  0  0  0  0  0  0  0  0  0
   -2.8358    1.1082    0.1871 C   0  0  0  0  0  0  0  0  0  0  0  0
   -3.1692   -0.3332    0.4491 C   0  0  0  0  0  0  0  0  0  0  0  0
   -3.7411   -0.4429    1.3959 H   0  0  0  0  0  0  0  0  0  0  0  0
   -3.8154   -0.6978   -0.3763 H   0  0  0  0  0  0  0  0  0  0  0  0
   -2.1447   -2.6268    0.6300 C   0  0  0  0  0  0  0  0  0  0  0  0
   -1.1903   -3.0799    0.3026 H   0  0  0  0  0  0  0  0  0  0  0  0
   -2.3315   -2.9396    2.1169 C   0  0  0  0  0  0  0  0  0  0  0  0
   -1.4637   -2.5882    2.7130 H   0  0  0  0  0  0  0  0  0  0  0  0
   -2.4109   -4.0338    2.2685 H   0  0  0  0  0  0  0  0  0  0  0  0
   -3.2567   -2.4840    2.5268 H   0  0  0  0  0  0  0  0  0  0  0  0
   -3.2701   -3.1900   -0.2312 C   0  0  0  0  0  0  0  0  0  0  0  0
   -4.2724   -2.8825    0.1290 H   0  0  0  0  0  0  0  0  0  0  0  0
   -3.2384   -4.2958   -0.1885 H   0  0  0  0  0  0  0  0  0  0  0  0
   -3.1698   -2.8927   -1.2913 H   0  0  0  0  0  0  0  0  0  0  0  0
   -1.3672   -0.8651    1.2493 H   0  0  0  0  0  0  0  0  0  0  0  0
  1 11  1  0  0  0  0
  2 12  1  0  0  0  0
  2 15  1  0  0  0  0
  2 25  1  0  0  0  0
  3  1  1  0  0  0  0
  3  5  1  0  0  0  0
  4  3  1  0  0  0  0
  5  7  2  0  0  0  0
  6  5  1  0  0  0  0
  7  9  1  0  0  0  0
  7  8  1  0  0  0  0
  9 10  1  0  0  0  0
 11 12  1  0  0  0  0
 11  9  2  0  0  0  0
 12 13  1  0  0  0  0
 14 12  1  0  0  0  0
 15 17  1  0  0  0  0
 16 15  1  0  0  0  0
 17 19  1  0  0  0  0
 17 20  1  0  0  0  0
 17 18  1  0  0  0  0
 21 23  1  0  0  0  0
 21 22  1  0  0  0  0
 21 15  1  0  0  0  0
 24 21  1  0  0  0  0
M  END
