1
q = -1.0, confidence = 0.01

 14 13  0  0  0  0  0  0  0  0999 V2000
    1.0538    1.1054    0.0001 N   0  0  0  0  0  2  0  0  0  0  0  0
    1.9321    0.0161    0.0001 N   0  0  0  0  0  0  0  0  0  0  0  0
    1.5675    2.4507    0.0003 C   0  0  0  0  0  0  0  0  0  0  0  0
    2.7248   -0.1613    1.2221 C   0  0  0  0  0  0  0  0  0  0  0  0
    0.7182    3.1595    0.0002 H   0  0  0  0  0  0  0  0  0  0  0  0
    2.1873    2.6625    0.9018 H   0  0  0  0  0  0  0  0  0  0  0  0
    3.5722    0.5611    1.2636 H   0  0  0  0  0  0  0  0  0  0  0  0
    2.0682   -0.0390    2.1014 H   0  0  0  0  0  0  0  0  0  0  0  0
    3.1321   -1.1899    1.2389 H   0  0  0  0  0  0  0  0  0  0  0  0
    2.7250   -0.1611   -1.2218 C   0  0  0  0  0  0  0  0  0  0  0  0
    2.1875    2.6626   -0.9011 H   0  0  0  0  0  0  0  0  0  0  0  0
    3.5723    0.5614   -1.2631 H   0  0  0  0  0  0  0  0  0  0  0  0
    2.0685   -0.0386   -2.1013 H   0  0  0  0  0  0  0  0  0  0  0  0
    3.1322   -1.1897   -1.2388 H   0  0  0  0  0  0  0  0  0  0  0  0
  1  3  1  0  0  0  0
  2  1  1  0  0  0  0
  2  4  1  0  0  0  0
  3  6  1  0  0  0  0
  4  9  1  0  0  0  0
  4  7  1  0  0  0  0
  4  8  1  0  0  0  0
  5  3  1  0  0  0  0
 10  2  1  0  0  0  0
 11  3  1  0  0  0  0
 12 10  1  0  0  0  0
 13 10  1  0  0  0  0
 14 10  1  0  0  0  0
M  END
