1
q = -1.0

 12 12  0  0  0  0  0  0  0  0999 V2000
    1.1620   -1.6029    0.7318 N   0  0  0  0  0  2  0  0  0  0  0  0
    2.3246   -2.3192    0.4872 C   0  0  0  0  0  0  0  0  0  0  0  0
    3.4573   -1.7051   -0.1126 C   0  0  0  0  0  0  0  0  0  0  0  0
    4.5835   -2.4942   -0.3488 C   0  0  0  0  0  0  0  0  0  0  0  0
    4.5778   -3.8493    0.0306 C   0  0  0  0  0  0  0  0  0  0  0  0
    3.4231   -4.3471    0.6541 C   0  0  0  0  0  0  0  0  0  0  0  0
    2.3230   -3.6158    0.8798 N   0  0  0  0  0  0  0  0  0  0  0  0
    0.5796   -2.1471    1.3868 H   0  0  0  0  0  0  0  0  0  0  0  0
    3.4368   -0.6293   -0.3478 H   0  0  0  0  0  0  0  0  0  0  0  0
    5.4754   -2.0479   -0.8157 H   0  0  0  0  0  0  0  0  0  0  0  0
    5.4493   -4.4989   -0.1362 H   0  0  0  0  0  0  0  0  0  0  0  0
    3.3835   -5.3995    0.9902 H   0  0  0  0  0  0  0  0  0  0  0  0
  1  8  1  0  0  0  0
  2  1  1  0  0  0  0
  2  7  1  0  0  0  0
  3  2  2  0  0  0  0
  4  3  1  0  0  0  0
  4  5  2  0  0  0  0
  5  6  1  0  0  0  0
  6  7  2  0  0  0  0
  6 12  1  0  0  0  0
  9  3  1  0  0  0  0
 10  4  1  0  0  0  0
 11  5  1  0  0  0  0
M  END
