1
q = 0.0, confidence = 1.0

 23 23  0  0  0  0  0  0  0  0999 V2000
    1.1262   -0.7752   -0.7200 N   0  0  0  0  0  2  0  0  0  0  0  0
    0.6996    0.4179   -1.1992 C   0  0  0  0  0  3  0  0  0  0  0  0
    1.5432    1.5371   -1.2882 C   0  0  0  0  0  0  0  0  0  0  0  0
    2.4412   -0.9262   -0.4529 C   0  0  0  0  0  0  0  0  0  0  0  0
    3.3681    0.1194   -0.5996 C   0  0  0  0  0  0  0  0  0  0  0  0
    4.7996   -0.1744   -0.2742 C   0  0  0  0  0  0  0  0  0  0  0  0
    5.5754    0.9232   -0.4141 O   0  0  0  0  0  0  0  0  0  0  0  0
    6.9648    0.7335   -0.1117 C   0  0  0  0  0  0  0  0  0  0  0  0
    5.2115   -1.2662    0.0726 O   0  0  0  0  0  0  0  0  0  0  0  0
    1.6634    3.9263   -1.5177 O   0  0  0  0  0  0  0  0  0  0  0  0
   -0.3377    2.8740   -1.7593 O   0  0  0  0  0  0  0  0  0  0  0  0
    2.9038    1.3888   -0.9817 C   0  0  0  0  0  0  0  0  0  0  0  0
    0.9961    2.9055   -1.5540 C   0  0  0  0  0  0  0  0  0  0  0  0
   -0.9953    4.1435   -1.8917 C   0  0  0  0  0  0  0  0  0  0  0  0
   -0.3630    0.4637   -1.4845 H   0  0  0  0  0  0  0  0  0  0  0  0
    2.7764   -1.9024   -0.0717 H   0  0  0  0  0  0  0  0  0  0  0  0
    7.4492    1.7116   -0.2764 H   0  0  0  0  0  0  0  0  0  0  0  0
    7.4071   -0.0376   -0.7737 H   0  0  0  0  0  0  0  0  0  0  0  0
    7.0943    0.4062    0.9392 H   0  0  0  0  0  0  0  0  0  0  0  0
    3.5762    2.2566   -1.0236 H   0  0  0  0  0  0  0  0  0  0  0  0
   -2.0777    3.9346   -1.8239 H   0  0  0  0  0  0  0  0  0  0  0  0
   -0.7453    4.6101   -2.8654 H   0  0  0  0  0  0  0  0  0  0  0  0
   -0.6806    4.8236   -1.0762 H   0  0  0  0  0  0  0  0  0  0  0  0
  1  4  1  0  0  0  0
  2  1  1  0  0  0  0
  3  2  1  0  0  0  0
  3 12  2  0  0  0  0
  4 16  1  0  0  0  0
  5  4  2  0  0  0  0
  5  6  1  0  0  0  0
  6  9  2  0  0  0  0
  7  6  1  0  0  0  0
  7  8  1  0  0  0  0
  8 19  1  0  0  0  0
 11 13  1  0  0  0  0
 12  5  1  0  0  0  0
 13 10  2  0  0  0  0
 13  3  1  0  0  0  0
 14 21  1  0  0  0  0
 14 11  1  0  0  0  0
 14 23  1  0  0  0  0
 15  2  1  0  0  0  0
 17  8  1  0  0  0  0
 18  8  1  0  0  0  0
 20 12  1  0  0  0  0
 22 14  1  0  0  0  0
M  END
