5
q = -1.0

 33 33  0  0  0  0  0  0  0  0999 V2000
   -1.5416    1.7691    0.0445 S   0  0  0  0  0  0  0  0  0  0  0  0
   -1.0946    1.8209   -1.3752 O   0  0  0  0  0  0  0  0  0  0  0  0
   -1.6090    3.0478    0.8027 O   0  0  0  0  0  0  0  0  0  0  0  0
    1.0436   -0.9585    2.2571 N   0  0  0  0  0  0  0  0  0  0  0  0
   -0.6674    0.6454    0.8545 N   0  0  0  0  0  2  0  0  0  0  0  0
    0.5944    0.3229    2.8772 C   0  0  0  0  0  0  0  0  0  0  0  0
   -0.7496    0.7338    2.3112 C   0  0  0  0  0  0  0  0  0  0  0  0
    2.4795   -1.1563    2.5528 C   0  0  0  0  0  0  0  0  0  0  0  0
    0.2466   -2.0892    2.7654 C   0  0  0  0  0  0  0  0  0  0  0  0
   -3.2395    1.1435    0.0296 C   0  0  0  0  0  0  0  0  0  0  0  0
   -3.5152   -0.1839    0.3807 C   0  0  0  0  0  0  0  0  0  0  0  0
   -4.8386   -0.6501    0.3390 C   0  0  0  0  0  0  0  0  0  0  0  0
   -5.8959    0.1940   -0.0526 C   0  0  0  0  0  0  0  0  0  0  0  0
   -5.5901    1.5313   -0.3941 C   0  0  0  0  0  0  0  0  0  0  0  0
   -4.2773    2.0117   -0.3497 C   0  0  0  0  0  0  0  0  0  0  0  0
   -7.3194   -0.3005   -0.0991 C   0  0  0  0  0  0  0  0  0  0  0  0
    0.5625    0.2065    3.9849 H   0  0  0  0  0  0  0  0  0  0  0  0
    1.3582    1.0739    2.6070 H   0  0  0  0  0  0  0  0  0  0  0  0
   -0.9738    1.7727    2.6301 H   0  0  0  0  0  0  0  0  0  0  0  0
   -1.5698    0.0923    2.7217 H   0  0  0  0  0  0  0  0  0  0  0  0
    2.8100   -2.1294    2.1482 H   0  0  0  0  0  0  0  0  0  0  0  0
    2.6521   -1.1453    3.6526 H   0  0  0  0  0  0  0  0  0  0  0  0
    3.0353   -0.3345    2.0625 H   0  0  0  0  0  0  0  0  0  0  0  0
   -0.8198   -1.9426    2.5193 H   0  0  0  0  0  0  0  0  0  0  0  0
    0.3603   -2.1840    3.8698 H   0  0  0  0  0  0  0  0  0  0  0  0
    0.5893   -3.0250    2.2912 H   0  0  0  0  0  0  0  0  0  0  0  0
   -2.6818   -0.8380    0.6788 H   0  0  0  0  0  0  0  0  0  0  0  0
   -5.0564   -1.6937    0.6178 H   0  0  0  0  0  0  0  0  0  0  0  0
   -6.4040    2.2100   -0.6957 H   0  0  0  0  0  0  0  0  0  0  0  0
   -4.0461    3.0577   -0.5989 H   0  0  0  0  0  0  0  0  0  0  0  0
   -7.7605   -0.1631   -1.1082 H   0  0  0  0  0  0  0  0  0  0  0  0
   -7.9634    0.2615    0.6095 H   0  0  0  0  0  0  0  0  0  0  0  0
   -7.3890   -1.3746    0.1596 H   0  0  0  0  0  0  0  0  0  0  0  0
  1  3  2  0  0  0  0
  1  5  1  0  0  0  0
  2  1  2  0  0  0  0
  4  8  1  0  0  0  0
  4  9  1  0  0  0  0
  4  6  1  0  0  0  0
  5  7  1  0  0  0  0
  6 17  1  0  0  0  0
  7 19  1  0  0  0  0
  7 20  1  0  0  0  0
  7  6  1  0  0  0  0
  8 22  1  0  0  0  0
  9 25  1  0  0  0  0
 10  1  1  0  0  0  0
 10 11  1  0  0  0  0
 11 27  1  0  0  0  0
 12 11  2  0  0  0  0
 12 28  1  0  0  0  0
 13 12  1  0  0  0  0
 14 15  1  0  0  0  0
 14 13  2  0  0  0  0
 15 10  2  0  0  0  0
 16 13  1  0  0  0  0
 16 33  1  0  0  0  0
 16 32  1  0  0  0  0
 18  6  1  0  0  0  0
 21  8  1  0  0  0  0
 23  8  1  0  0  0  0
 24  9  1  0  0  0  0
 26  9  1  0  0  0  0
 29 14  1  0  0  0  0
 30 15  1  0  0  0  0
 31 16  1  0  0  0  0
M  END
