2
q = 0, confidence = 1.0

 37 39  0  0  1  0  0  0  0  0999 V2000
    2.7130    0.7192    0.1240 P   0  0  1  0  0  0  0  0  0  0  0  0
   -0.6372    0.9465   -0.4175 N   0  0  0  0  0  0  0  0  0  0  0  0
    1.6359    0.4710    1.4425 N   0  0  2  0  0  0  0  0  0  0  0  0
    3.6110   -0.6856    0.4370 N   0  0  1  0  0  0  0  0  0  0  0  0
    2.0462    0.3135   -1.3956 N   0  0  1  0  0  0  0  0  0  0  0  0
    3.2697    2.1185    0.0823 O   0  0  0  0  0  0  0  0  0  0  0  0
   -0.5619    2.2352    0.3251 C   0  0  0  0  0  0  0  0  0  0  0  0
   -0.3432    1.9891    1.8187 C   0  0  0  0  0  0  0  0  0  0  0  0
    1.1153    1.6450    2.1537 C   0  0  0  0  0  0  0  0  0  0  0  0
    2.0090   -0.7039    2.2338 C   0  0  0  0  0  0  0  0  0  0  0  0
    2.8784   -1.5898    1.3288 C   0  0  0  0  0  0  0  0  0  0  0  0
    4.2776   -1.2521   -0.7331 C   0  0  0  0  0  0  0  0  0  0  0  0
    3.2954   -1.8354   -1.7783 C   0  0  0  0  0  0  0  0  0  0  0  0
    1.9333   -1.1054   -1.7725 C   0  0  0  0  0  0  0  0  0  0  0  0
    1.2152    1.2785   -2.0960 C   0  0  0  0  0  0  0  0  0  0  0  0
   -0.2940    1.0544   -1.8568 C   0  0  0  0  0  0  0  0  0  0  0  0
    0.0676    0.3152    0.0263 H   0  0  0  0  0  0  0  0  0  0  0  0
    0.2809    2.8449   -0.0706 H   0  0  0  0  0  0  0  0  0  0  0  0
   -1.4937    2.8035    0.1349 H   0  0  0  0  0  0  0  0  0  0  0  0
   -1.0328    1.1847    2.1577 H   0  0  0  0  0  0  0  0  0  0  0  0
   -0.6218    2.9068    2.3769 H   0  0  0  0  0  0  0  0  0  0  0  0
    1.7640    2.5137    1.9035 H   0  0  0  0  0  0  0  0  0  0  0  0
    1.2176    1.4685    3.2454 H   0  0  0  0  0  0  0  0  0  0  0  0
    1.1096   -1.2639    2.5643 H   0  0  0  0  0  0  0  0  0  0  0  0
    2.5844   -0.3847    3.1347 H   0  0  0  0  0  0  0  0  0  0  0  0
    3.5848   -2.1990    1.9319 H   0  0  0  0  0  0  0  0  0  0  0  0
    2.2256   -2.2916    0.7605 H   0  0  0  0  0  0  0  0  0  0  0  0
    5.0100   -2.0178   -0.4015 H   0  0  0  0  0  0  0  0  0  0  0  0
    4.8700   -0.4341   -1.1909 H   0  0  0  0  0  0  0  0  0  0  0  0
    3.7715   -1.7671   -2.7780 H   0  0  0  0  0  0  0  0  0  0  0  0
    3.1105   -2.9133   -1.5922 H   0  0  0  0  0  0  0  0  0  0  0  0
    1.4946   -1.1407   -2.7910 H   0  0  0  0  0  0  0  0  0  0  0  0
    1.2063   -1.6394   -1.1177 H   0  0  0  0  0  0  0  0  0  0  0  0
    1.5392    2.2876   -1.7700 H   0  0  0  0  0  0  0  0  0  0  0  0
    1.4017    1.2241   -3.1925 H   0  0  0  0  0  0  0  0  0  0  0  0
   -0.8939    1.8693   -2.3126 H   0  0  0  0  0  0  0  0  0  0  0  0
   -0.6130    0.1089   -2.3396 H   0  0  0  0  0  0  0  0  0  0  0  0
  1  6  2  1  0  0  0
  1  4  1  0  0  0  0
  1  3  1  0  0  0  0
  2 17  1  0  0  0  0
  2  7  1  0  0  0  0
  3  9  1  1  0  0  0
  3 10  1  0  0  0  0
  4 12  1  6  0  0  0
  4 11  1  0  0  0  0
  5 15  1  1  0  0  0
  5  1  1  0  0  0  0
  7  8  1  0  0  0  0
  8  9  1  0  0  0  0
  8 20  1  0  0  0  0
  8 21  1  0  0  0  0
  9 23  1  0  0  0  0
 10 24  1  0  0  0  0
 10 25  1  0  0  0  0
 11 26  1  0  0  0  0
 11 10  1  0  0  0  0
 12 28  1  0  0  0  0
 13 14  1  0  0  0  0
 13 31  1  0  0  0  0
 13 12  1  0  0  0  0
 14  5  1  0  0  0  0
 14 33  1  0  0  0  0
 15 16  1  0  0  0  0
 15 34  1  0  0  0  0
 16  2  1  0  0  0  0
 18  7  1  0  0  0  0
 19  7  1  0  0  0  0
 22  9  1  0  0  0  0
 27 11  1  0  0  0  0
 29 12  1  0  0  0  0
 30 13  1  0  0  0  0
 32 14  1  0  0  0  0
 35 15  1  0  0  0  0
 36 16  1  0  0  0  0
 37 16  1  0  0  0  0
M  END
