16
q = 0.0, confidence = 0.952

 16 17  0  0  0  0  0  0  0  0999 V2000
    7.7189    1.2006    0.3017 C   0  0  0  0  0  0  0  0  0  0  0  0
    7.7721    0.2320   -0.7291 C   0  0  0  0  0  0  0  0  0  0  0  0
    8.7226   -0.0081   -1.2253 H   0  0  0  0  0  0  0  0  0  0  0  0
    6.5793   -0.3907   -1.0771 C   0  0  0  0  0  0  0  0  0  0  0  0
    6.5051   -1.1559   -1.8618 H   0  0  0  0  0  0  0  0  0  0  0  0
    5.4498    0.0254   -0.3503 C   0  0  0  0  0  0  0  0  0  0  0  0
    3.0015   -0.2127    0.0246 C   0  0  0  0  0  3  0  0  0  0  0  0
    2.9356    0.5340    0.8231 H   0  0  0  0  0  0  0  0  0  0  0  0
    2.6631   -1.7229   -1.4708 C   0  0  0  0  0  0  0  0  0  0  0  0
    2.1545   -2.4554   -2.1084 H   0  0  0  0  0  0  0  0  0  0  0  0
    9.1571    2.0138    0.7866 Cl  0  0  0  0  0  0  0  0  0  0  0  0
    6.5952    1.5405    0.9472 N   0  0  0  0  0  0  0  0  0  0  0  0
    5.4598    0.9460    0.6142 N   0  0  0  0  0  0  0  0  0  0  0  0
    4.1592   -0.5294   -0.6022 N   0  0  0  0  0  0  0  0  0  0  0  0
    3.9598   -1.4801   -1.5470 N   0  0  0  0  0  0  0  0  0  0  0  0
    2.0269   -0.9624   -0.5122 N   0  0  0  0  0  2  0  0  0  0  0  0
  1 11  1  0  0  0  0
  1 12  1  0  0  0  0
  2  1  2  0  0  0  0
  3  2  1  0  0  0  0
  4  2  1  0  0  0  0
  4  6  2  0  0  0  0
  5  4  1  0  0  0  0
  6 13  1  0  0  0  0
  7  8  1  0  0  0  0
  9 16  1  0  0  0  0
 10  9  1  0  0  0  0
 13 12  2  0  0  0  0
 14  6  1  0  0  0  0
 14  7  1  0  0  0  0
 15  9  2  0  0  0  0
 15 14  1  0  0  0  0
 16  7  1  0  0  0  0
M  END
