24
q = 0.0, confidence = 0.98

 27 27  0  0  0  0  0  0  0  0999 V2000
   -0.7838    0.5588   -1.0140 C   0  0  0  0  0  3  0  0  0  0  0  0
   -0.1705    1.0031   -1.8164 H   0  0  0  0  0  0  0  0  0  0  0  0
   -2.1752    0.5853   -1.0554 C   0  0  0  0  0  0  0  0  0  0  0  0
   -2.6558    1.0637   -1.9174 H   0  0  0  0  0  0  0  0  0  0  0  0
   -2.9322   -0.0007   -0.0002 C   0  0  0  0  0  0  0  0  0  0  0  0
   -2.1750   -0.5865    1.0549 C   0  0  0  0  0  0  0  0  0  0  0  0
   -2.6555   -1.0650    1.9170 H   0  0  0  0  0  0  0  0  0  0  0  0
   -0.7836   -0.5598    1.0134 C   0  0  0  0  0  0  0  0  0  0  0  0
   -0.1702   -1.0039    1.8157 H   0  0  0  0  0  0  0  0  0  0  0  0
   -5.0641    0.6130   -1.0856 C   0  0  0  0  0  0  0  0  0  0  0  0
   -6.0615    0.1367   -1.1306 H   0  0  0  0  0  0  0  0  0  0  0  0
   -4.5818    0.3920   -2.0580 H   0  0  0  0  0  0  0  0  0  0  0  0
   -5.2182    2.1458   -0.9346 C   0  0  0  0  0  0  0  0  0  0  0  0
   -4.2214    2.6352   -0.9283 H   0  0  0  0  0  0  0  0  0  0  0  0
   -5.7730    2.5530   -1.8062 H   0  0  0  0  0  0  0  0  0  0  0  0
   -5.9239    2.5060    0.2940 C   0  0  0  0  0  0  0  0  0  0  0  0
   -5.0639   -0.6148    1.0853 C   0  0  0  0  0  0  0  0  0  0  0  0
   -6.0614   -0.1388    1.1304 H   0  0  0  0  0  0  0  0  0  0  0  0
   -4.5816   -0.3937    2.0577 H   0  0  0  0  0  0  0  0  0  0  0  0
   -5.2176   -2.1477    0.9343 C   0  0  0  0  0  0  0  0  0  0  0  0
   -4.2207   -2.6369    0.9280 H   0  0  0  0  0  0  0  0  0  0  0  0
   -5.7724   -2.5550    1.8060 H   0  0  0  0  0  0  0  0  0  0  0  0
   -5.9233   -2.5081   -0.2942 C   0  0  0  0  0  0  0  0  0  0  0  0
   -0.0884   -0.0004   -0.0003 N   0  0  0  0  0  2  0  0  0  0  0  0
   -4.3112   -0.0009   -0.0002 N   0  0  0  0  0  0  0  0  0  0  0  0
   -6.4891    2.7303    1.2951 N   0  0  0  0  0  0  0  0  0  0  0  0
   -6.4886   -2.7325   -1.2952 N   0  0  0  0  0  0  0  0  0  0  0  0
  1 24  1  0  0  0  0
  2  1  1  0  0  0  0
  3  1  1  0  0  0  0
  3  5  2  0  0  0  0
  4  3  1  0  0  0  0
  5 25  1  0  0  0  0
  5  6  1  0  0  0  0
  6  7  1  0  0  0  0
  8  6  2  0  0  0  0
  8  9  1  0  0  0  0
 10 13  1  0  0  0  0
 10 25  1  0  0  0  0
 11 10  1  0  0  0  0
 12 10  1  0  0  0  0
 13 14  1  0  0  0  0
 13 16  1  0  0  0  0
 15 13  1  0  0  0  0
 16 26  3  0  0  0  0
 17 18  1  0  0  0  0
 17 19  1  0  0  0  0
 20 17  1  0  0  0  0
 20 22  1  0  0  0  0
 21 20  1  0  0  0  0
 23 20  1  0  0  0  0
 24  8  1  0  0  0  0
 25 17  1  0  0  0  0
 27 23  3  0  0  0  0
M  END
