1
q = 0.0, confidence = 0.986

 16 16  0  0  1  0  0  0  0  0999 V2000
   -1.6272    0.0672   -0.3912 N   0  0  0  0  0  2  0  0  0  0  0  0
   -2.7135   -1.8609   -0.4847 N   0  0  0  0  0  0  0  0  0  0  0  0
    0.2157   -2.8252   -0.0685 O   0  0  0  0  0  0  0  0  0  0  0  0
    0.2410   -2.2749    0.7683 H   0  0  0  0  0  0  0  0  0  0  0  0
   -2.9338    0.2846   -0.0105 C   0  0  0  0  0  0  0  0  0  0  0  0
   -3.2808    1.2745    0.3038 H   0  0  0  0  0  0  0  0  0  0  0  0
   -3.6250   -0.9092   -0.0642 C   0  0  0  0  0  0  0  0  0  0  0  0
   -4.6640   -1.1643    0.1663 H   0  0  0  0  0  0  0  0  0  0  0  0
   -2.9520   -3.2856   -0.6595 C   0  0  0  0  0  0  0  0  0  0  0  0
   -3.1694   -3.5310   -1.7193 H   0  0  0  0  0  0  0  0  0  0  0  0
   -2.0519   -3.8366   -0.3268 H   0  0  0  0  0  0  0  0  0  0  0  0
   -3.8140   -3.5903   -0.0385 H   0  0  0  0  0  0  0  0  0  0  0  0
   -1.5128   -1.2341   -0.6872 C   0  0  2  0  0  3  0  0  0  0  0  0
   -0.2655   -1.9641   -1.0884 C   0  0  0  0  0  0  0  0  0  0  0  0
    0.4745   -1.1988   -1.4086 H   0  0  0  0  0  0  0  0  0  0  0  0
   -0.4702   -2.5956   -1.9798 H   0  0  0  0  0  0  0  0  0  0  0  0
  1  5  1  0  0  0  0
  2  7  1  0  0  0  0
  3  4  1  0  0  0  0
  5  6  1  0  0  0  0
  7  5  2  0  0  0  0
  7  8  1  0  0  0  0
  9  2  1  0  0  0  0
  9 11  1  0  0  0  0
  9 12  1  0  0  0  0
 10  9  1  0  0  0  0
 13 14  1  1  0  0  0
 13  2  1  0  0  0  0
 13  1  1  0  0  0  0
 14  3  1  0  0  0  0
 15 14  1  0  0  0  0
 16 14  1  0  0  0  0
M  END
