17
q = -1.0

 25 25  0  0  0  0  0  0  0  0999 V2000
    2.1229    2.7291   -0.2466 S   0  0  0  0  0  0  0  0  0  0  0  0
    5.5051    1.7875   -0.9171 S   0  0  0  0  0  0  0  0  0  0  0  0
    5.5057   -1.7868   -0.9165 S   0  0  0  0  0  0  0  0  0  0  0  0
    2.1236   -2.7294   -0.2467 S   0  0  0  0  0  0  0  0  0  0  0  0
    0.5923    1.9305   -2.2956 F   0  0  0  0  0  0  0  0  0  0  0  0
    2.4853    2.8086   -2.8842 F   0  0  0  0  0  0  0  0  0  0  0  0
    0.9025    4.0847   -2.0810 F   0  0  0  0  0  0  0  0  0  0  0  0
    6.8471    3.2841    0.6894 F   0  0  0  0  0  0  0  0  0  0  0  0
    4.8238    2.8838    1.4186 F   0  0  0  0  0  0  0  0  0  0  0  0
    6.3465    1.3542    1.5789 F   0  0  0  0  0  0  0  0  0  0  0  0
    6.3442   -1.3536    1.5804 F   0  0  0  0  0  0  0  0  0  0  0  0
    6.8477   -3.2827    0.6908 F   0  0  0  0  0  0  0  0  0  0  0  0
    4.8233   -2.8848    1.4180 F   0  0  0  0  0  0  0  0  0  0  0  0
    0.5914   -1.9313   -2.2947 F   0  0  0  0  0  0  0  0  0  0  0  0
    2.4853   -2.8068   -2.8845 F   0  0  0  0  0  0  0  0  0  0  0  0
    0.9043   -4.0852   -2.0816 F   0  0  0  0  0  0  0  0  0  0  0  0
    2.0370   -0.0002   -0.1938 N   0  0  0  0  0  0  0  0  0  0  0  0
    2.8164    1.1221   -0.3606 C   0  0  0  0  0  0  0  0  0  0  0  0
    4.1489    0.7167   -0.5811 C   0  0  0  0  0  0  0  0  0  0  0  0
    4.1491   -0.7165   -0.5811 C   0  0  0  0  0  0  0  0  0  0  0  0
    2.8166   -1.1222   -0.3605 C   0  0  0  0  0  0  0  0  0  0  0  0
    1.5019    2.8929   -1.9832 C   0  0  0  0  0  0  0  0  0  0  0  0
    5.8926    2.3453    0.7979 C   0  0  0  0  0  0  0  0  0  0  0  0
    5.8922   -2.3449    0.7987 C   0  0  0  0  0  0  0  0  0  0  0  0
    1.5023   -2.8929   -1.9831 C   0  0  0  0  0  0  0  0  0  0  0  0
  2 19  1  0  0  0  0
  2 23  1  0  0  0  0
  3 20  1  0  0  0  0
  3 24  1  0  0  0  0
  5 22  1  0  0  0  0
  6 22  1  0  0  0  0
  7 22  1  0  0  0  0
  8 23  1  0  0  0  0
 12 24  1  0  0  0  0
 14 25  1  0  0  0  0
 15 25  1  0  0  0  0
 16 25  1  0  0  0  0
 18  1  1  0  0  0  0
 18 17  2  0  0  0  0
 19 20  2  0  0  0  0
 19 18  1  0  0  0  0
 20 21  1  0  0  0  0
 21  4  1  0  0  0  0
 21 17  1  0  0  0  0
 22  1  1  0  0  0  0
 23  9  1  0  0  0  0
 23 10  1  0  0  0  0
 24 13  1  0  0  0  0
 24 11  1  0  0  0  0
 25  4  1  0  0  0  0
M  END
