13
q = 0.0, confidence = 0.982

 16 16  0  0  0  0  0  0  0  0999 V2000
   -1.6629    0.7387   -0.3309 C   0  0  0  0  0  3  0  0  0  0  0  0
   -1.2230    1.7520   -0.4126 H   0  0  0  0  0  0  0  0  0  0  0  0
   -3.0368    0.5346   -0.1434 C   0  0  0  0  0  0  0  0  0  0  0  0
   -3.4508   -0.8115   -0.0064 C   0  0  0  0  0  0  0  0  0  0  0  0
   -4.5167   -1.0425    0.1610 H   0  0  0  0  0  0  0  0  0  0  0  0
   -2.5300   -1.8504   -0.0814 C   0  0  0  0  0  0  0  0  0  0  0  0
   -2.8482   -2.9001    0.0147 H   0  0  0  0  0  0  0  0  0  0  0  0
   -1.1527   -1.5467   -0.2951 C   0  0  0  0  0  0  0  0  0  0  0  0
   -4.0048    1.6864   -0.0689 C   0  0  0  0  0  0  0  0  0  0  0  0
   -3.4759    2.6535   -0.1790 H   0  0  0  0  0  0  0  0  0  0  0  0
   -4.5461    1.7105    0.9018 H   0  0  0  0  0  0  0  0  0  0  0  0
   -4.7777    1.6340   -0.8669 H   0  0  0  0  0  0  0  0  0  0  0  0
   -0.7572   -0.2516   -0.3996 N   0  0  0  0  0  2  0  0  0  0  0  0
   -0.2090   -2.5080   -0.4400 N   0  0  0  0  0  0  0  0  0  0  0  0
   -0.4188   -3.4526   -0.1294 H   0  0  0  0  0  0  0  0  0  0  0  0
    0.7884   -2.2168   -0.5604 H   0  0  0  0  0  0  0  0  0  0  0  0
  1  3  1  0  0  0  0
  2  1  1  0  0  0  0
  3  9  1  0  0  0  0
  3  4  2  0  0  0  0
  4  5  1  0  0  0  0
  6  4  1  0  0  0  0
  6  7  1  0  0  0  0
  8  6  2  0  0  0  0
  9 11  1  0  0  0  0
 10  9  1  0  0  0  0
 12  9  1  0  0  0  0
 13  1  1  0  0  0  0
 13  8  1  0  0  0  0
 14  8  1  0  0  0  0
 14 15  1  0  0  0  0
 16 14  1  0  0  0  0
M  END
