1
q = 0.0, confidence = 0.976

 16 16  0  0  0  0  0  0  0  0999 V2000
   -1.6803   -1.6273   -0.5410 N   0  0  0  0  0  2  0  0  0  0  0  0
   -4.8004   -4.2248   -1.5929 N   0  0  0  0  0  0  0  0  0  0  0  0
   -4.9390   -4.4679   -2.5716 H   0  0  0  0  0  0  0  0  0  0  0  0
   -5.6144   -4.3024   -0.9869 H   0  0  0  0  0  0  0  0  0  0  0  0
   -2.6442   -1.9570    0.3413 C   0  0  0  0  0  3  0  0  0  0  0  0
   -2.5659   -1.5115    1.3456 H   0  0  0  0  0  0  0  0  0  0  0  0
   -3.7213   -2.8015    0.0563 C   0  0  0  0  0  0  0  0  0  0  0  0
   -3.7941   -3.3572   -1.2550 C   0  0  0  0  0  0  0  0  0  0  0  0
   -2.7801   -3.0028   -2.1789 C   0  0  0  0  0  0  0  0  0  0  0  0
   -2.7979   -3.3998   -3.2055 H   0  0  0  0  0  0  0  0  0  0  0  0
   -1.7574   -2.1418   -1.7844 C   0  0  0  0  0  0  0  0  0  0  0  0
   -0.9644   -1.8232   -2.4821 H   0  0  0  0  0  0  0  0  0  0  0  0
   -4.7610   -3.1042    1.0996 C   0  0  0  0  0  0  0  0  0  0  0  0
   -4.5540   -2.5395    2.0295 H   0  0  0  0  0  0  0  0  0  0  0  0
   -4.7906   -4.1870    1.3521 H   0  0  0  0  0  0  0  0  0  0  0  0
   -5.7821   -2.8201    0.7585 H   0  0  0  0  0  0  0  0  0  0  0  0
  1  5  1  0  0  0  0
  2  8  1  0  0  0  0
  2  4  1  0  0  0  0
  3  2  1  0  0  0  0
  5  6  1  0  0  0  0
  7  5  1  0  0  0  0
  7 13  1  0  0  0  0
  8  7  2  0  0  0  0
  9 11  2  0  0  0  0
  9  8  1  0  0  0  0
 10  9  1  0  0  0  0
 11  1  1  0  0  0  0
 12 11  1  0  0  0  0
 13 15  1  0  0  0  0
 13 14  1  0  0  0  0
 16 13  1  0  0  0  0
M  END
