3
q = -1.0, confidence = 0.02

 35 36  0  0  0  0  0  0  0  0999 V2000
    1.6683   -1.7307   -0.2500 S   0  0  0  0  0  0  0  0  0  0  0  0
    1.3969    2.6802    0.5389 O   0  0  0  0  0  0  0  0  0  0  0  0
    0.6357    0.5140    0.2872 N   0  0  0  0  0  2  0  0  0  0  0  0
    2.9831    0.7006    0.0743 N   0  0  0  0  0  0  0  0  0  0  0  0
    2.7243    1.6969    0.3125 H   0  0  0  0  0  0  0  0  0  0  0  0
    1.8626   -0.0448    0.0590 C   0  0  0  0  0  0  0  0  0  0  0  0
    0.4480    1.8768    0.4052 C   0  0  0  0  0  0  0  0  0  0  0  0
   -0.9737    2.3856    0.3163 C   0  0  0  0  0  0  0  0  0  0  0  0
   -1.6454    1.5074    0.2741 H   0  0  0  0  0  0  0  0  0  0  0  0
   -1.3373    3.2616    1.5291 C   0  0  0  0  0  0  0  0  0  0  0  0
   -0.5889    4.0803    1.6012 H   0  0  0  0  0  0  0  0  0  0  0  0
   -1.2455    2.6706    2.4664 H   0  0  0  0  0  0  0  0  0  0  0  0
   -2.7495    3.8433    1.3960 C   0  0  0  0  0  0  0  0  0  0  0  0
   -3.4929    3.0132    1.4246 H   0  0  0  0  0  0  0  0  0  0  0  0
   -2.9781    4.4930    2.2669 H   0  0  0  0  0  0  0  0  0  0  0  0
   -2.9170    4.6199    0.0837 C   0  0  0  0  0  0  0  0  0  0  0  0
   -3.9539    5.0066   -0.0075 H   0  0  0  0  0  0  0  0  0  0  0  0
   -2.2498    5.5110    0.1038 H   0  0  0  0  0  0  0  0  0  0  0  0
   -2.5572    3.7500   -1.1272 C   0  0  0  0  0  0  0  0  0  0  0  0
   -2.6448    4.3347   -2.0668 H   0  0  0  0  0  0  0  0  0  0  0  0
   -3.2908    2.9169   -1.2115 H   0  0  0  0  0  0  0  0  0  0  0  0
   -1.1458    3.1651   -1.0080 C   0  0  0  0  0  0  0  0  0  0  0  0
   -0.3890    3.9792   -1.0328 H   0  0  0  0  0  0  0  0  0  0  0  0
   -0.9285    2.4806   -1.8536 H   0  0  0  0  0  0  0  0  0  0  0  0
    4.3248    0.3792   -0.1750 C   0  0  0  0  0  0  0  0  0  0  0  0
    5.2829    1.3735    0.1335 C   0  0  0  0  0  0  0  0  0  0  0  0
    4.9441    2.3353    0.5486 H   0  0  0  0  0  0  0  0  0  0  0  0
    6.6437    1.1369   -0.0844 C   0  0  0  0  0  0  0  0  0  0  0  0
    7.3748    1.9217    0.1618 H   0  0  0  0  0  0  0  0  0  0  0  0
    7.0750   -0.0920   -0.6116 C   0  0  0  0  0  0  0  0  0  0  0  0
    8.1456   -0.2791   -0.7811 H   0  0  0  0  0  0  0  0  0  0  0  0
    6.1245   -1.0752   -0.9255 C   0  0  0  0  0  0  0  0  0  0  0  0
    6.4476   -2.0378   -1.3501 H   0  0  0  0  0  0  0  0  0  0  0  0
    4.7565   -0.8515   -0.7161 C   0  0  0  0  0  0  0  0  0  0  0  0
    4.0235   -1.6222   -0.9882 H   0  0  0  0  0  0  0  0  0  0  0  0
  1  6  2  0  0  0  0
  3  7  1  0  0  0  0
  4  5  1  0  0  0  0
  6  4  1  0  0  0  0
  6  3  1  0  0  0  0
  7  2  2  0  0  0  0
  8  7  1  0  0  0  0
  8 10  1  0  0  0  0
  9  8  1  0  0  0  0
 10 11  1  0  0  0  0
 10 12  1  0  0  0  0
 13 14  1  0  0  0  0
 13 10  1  0  0  0  0
 13 15  1  0  0  0  0
 16 18  1  0  0  0  0
 16 13  1  0  0  0  0
 17 16  1  0  0  0  0
 19 22  1  0  0  0  0
 19 16  1  0  0  0  0
 20 19  1  0  0  0  0
 21 19  1  0  0  0  0
 22  8  1  0  0  0  0
 23 22  1  0  0  0  0
 24 22  1  0  0  0  0
 25  4  1  0  0  0  0
 25 26  1  0  0  0  0
 26 27  1  0  0  0  0
 28 26  2  0  0  0  0
 28 29  1  0  0  0  0
 30 28  1  0  0  0  0
 31 30  1  0  0  0  0
 32 34  1  0  0  0  0
 32 30  2  0  0  0  0
 33 32  1  0  0  0  0
 34 25  2  0  0  0  0
 35 34  1  0  0  0  0
M  END
