1
q = 0.0, confidence = 1.0

 28 29  0  0  0  0  0  0  0  0999 V2000
   -1.3985   -1.0691   -0.3335 N   0  0  0  0  0  0  0  0  0  0  0  0
   -0.8853   -1.7567    0.2375 H   0  0  0  0  0  0  0  0  0  0  0  0
   -1.9388   -0.4476    0.3025 H   0  0  0  0  0  0  0  0  0  0  0  0
   -3.9988   -0.3928    0.7134 N   0  0  0  0  0  0  0  0  0  0  0  0
   -3.7028    2.5592    1.0926 N   0  0  0  0  0  0  0  0  0  0  0  0
   -2.8273    2.2472    0.5898 H   0  0  0  0  0  0  0  0  0  0  0  0
   -2.4102   -1.7548   -1.1722 C   0  0  0  0  0  0  0  0  0  0  0  0
   -1.8888   -2.4456   -1.8644 H   0  0  0  0  0  0  0  0  0  0  0  0
   -2.8926   -0.9742   -1.7960 H   0  0  0  0  0  0  0  0  0  0  0  0
   -3.4348   -2.4945   -0.3453 C   0  0  0  0  0  0  0  0  0  0  0  0
   -3.6136   -3.8802   -0.4785 C   0  0  0  0  0  0  0  0  0  0  0  0
   -3.0084   -4.4239   -1.2218 H   0  0  0  0  0  0  0  0  0  0  0  0
   -4.5377   -4.5772    0.3160 C   0  0  0  0  0  0  0  0  0  0  0  0
   -4.6590   -5.6644    0.1996 H   0  0  0  0  0  0  0  0  0  0  0  0
   -5.2840   -3.8766    1.2763 C   0  0  0  0  0  0  0  0  0  0  0  0
   -5.9891   -4.4147    1.9285 H   0  0  0  0  0  0  0  0  0  0  0  0
   -5.1226   -2.4935    1.4247 C   0  0  0  0  0  0  0  0  0  0  0  0
   -5.6834   -1.9609    2.2070 H   0  0  0  0  0  0  0  0  0  0  0  0
   -4.2178   -1.7736    0.6064 C   0  0  0  0  0  0  0  0  0  0  0  0
   -4.9562    0.3932    1.1203 C   0  0  0  0  0  0  0  0  0  0  0  0
   -5.9785   -0.0030    1.3200 H   0  0  0  0  0  0  0  0  0  0  0  0
   -4.8349    1.8031    1.3403 C   0  0  0  0  0  0  0  0  0  0  0  0
   -5.8197    2.6742    1.8645 C   0  0  0  0  0  0  0  0  0  0  0  0
   -6.8270    2.3711    2.1743 H   0  0  0  0  0  0  0  0  0  0  0  0
   -5.2548    3.9659    1.9256 C   0  0  0  0  0  0  0  0  0  0  0  0
   -5.7308    4.8839    2.2874 H   0  0  0  0  0  0  0  0  0  0  0  0
   -3.9458    3.8542    1.4279 C   0  0  0  0  0  0  0  0  0  0  0  0
   -3.1746    4.6206    1.2851 H   0  0  0  0  0  0  0  0  0  0  0  0
  1  2  1  0  0  0  0
  1  3  1  0  0  0  0
  4 20  2  0  0  0  0
  5 22  1  0  0  0  0
  5 27  1  0  0  0  0
  6  5  1  0  0  0  0
  7 10  1  0  0  0  0
  7  1  1  0  0  0  0
  8  7  1  0  0  0  0
  9  7  1  0  0  0  0
 10 19  1  0  0  0  0
 11 10  2  0  0  0  0
 11 13  1  0  0  0  0
 12 11  1  0  0  0  0
 13 15  2  0  0  0  0
 14 13  1  0  0  0  0
 15 17  1  0  0  0  0
 15 16  1  0  0  0  0
 17 18  1  0  0  0  0
 19  4  1  0  0  0  0
 19 17  2  0  0  0  0
 20 21  1  0  0  0  0
 20 22  1  0  0  0  0
 22 23  2  0  0  0  0
 23 25  1  0  0  0  0
 23 24  1  0  0  0  0
 25 26  1  0  0  0  0
 27 25  2  0  0  0  0
 28 27  1  0  0  0  0
M  END
