1
q = -1.0

 42 44  0  0  1  0  0  0  0  0999 V2000
    0.8724   -0.6900    1.0501 N   0  0  0  0  0  2  0  0  0  0  0  0
    0.4471    0.3589    1.8129 N   0  0  0  0  0  0  0  0  0  0  0  0
    0.0890    2.6046    0.0193 N   0  0  0  0  0  0  0  0  0  0  0  0
   -1.6286    2.1607   -1.2441 N   0  0  0  0  0  0  0  0  0  0  0  0
   -5.5091   -2.4071    0.7015 F   0  0  0  0  0  0  0  0  0  0  0  0
    0.0408   -1.7223    1.2889 C   0  0  2  0  0  3  0  0  0  0  0  0
   -0.9460   -1.3151    2.2215 C   0  0  0  0  0  0  0  0  0  0  0  0
   -1.7686   -1.9190    2.6169 H   0  0  0  0  0  0  0  0  0  0  0  0
   -0.6659    0.0119    2.5418 C   0  0  0  0  0  0  0  0  0  0  0  0
    0.2298   -3.0467    0.6279 C   0  0  0  0  0  0  0  0  0  0  0  0
    1.2405   -3.4466    0.8481 H   0  0  0  0  0  0  0  0  0  0  0  0
    0.1681   -2.9417   -0.4748 H   0  0  0  0  0  0  0  0  0  0  0  0
   -0.5263   -3.7718    0.9830 H   0  0  0  0  0  0  0  0  0  0  0  0
   -1.3554    0.9428    3.4838 C   0  0  0  0  0  0  0  0  0  0  0  0
   -2.2562    0.4496    3.8927 H   0  0  0  0  0  0  0  0  0  0  0  0
   -1.6845    1.8782    2.9838 H   0  0  0  0  0  0  0  0  0  0  0  0
   -0.7128    1.2275    4.3440 H   0  0  0  0  0  0  0  0  0  0  0  0
    1.2503    1.5631    1.9621 C   0  0  0  0  0  0  0  0  0  0  0  0
    2.2880    1.2521    2.2354 H   0  0  0  0  0  0  0  0  0  0  0  0
    0.7979    2.1513    2.7816 H   0  0  0  0  0  0  0  0  0  0  0  0
    1.3790    2.3965    0.6806 C   0  0  0  0  0  0  0  0  0  0  0  0
    1.8373    3.3777    0.9092 H   0  0  0  0  0  0  0  0  0  0  0  0
    2.0369    1.8511   -0.0351 H   0  0  0  0  0  0  0  0  0  0  0  0
   -0.3528    1.8222   -0.9829 C   0  0  0  0  0  3  0  0  0  0  0  0
    0.1979    0.9722   -1.4658 H   0  0  0  0  0  0  0  0  0  0  0  0
   -2.0181    3.1761   -0.3850 C   0  0  0  0  0  0  0  0  0  0  0  0
   -3.0206    3.6126   -0.4140 H   0  0  0  0  0  0  0  0  0  0  0  0
   -0.9327    3.4576    0.4134 C   0  0  0  0  0  0  0  0  0  0  0  0
   -0.7995    4.1992    1.2067 H   0  0  0  0  0  0  0  0  0  0  0  0
   -2.4948    1.4049   -2.1744 C   0  0  0  0  0  0  0  0  0  0  0  0
   -1.8141    0.9242   -2.9028 H   0  0  0  0  0  0  0  0  0  0  0  0
   -3.1290    2.1360   -2.7111 H   0  0  0  0  0  0  0  0  0  0  0  0
   -3.3227    0.3750   -1.4396 C   0  0  0  0  0  0  0  0  0  0  0  0
   -4.6776    0.6140   -1.1407 C   0  0  0  0  0  0  0  0  0  0  0  0
   -5.1636    1.5411   -1.4854 H   0  0  0  0  0  0  0  0  0  0  0  0
   -5.4266   -0.3247   -0.4174 C   0  0  0  0  0  0  0  0  0  0  0  0
   -6.4873   -0.1619   -0.1798 H   0  0  0  0  0  0  0  0  0  0  0  0
   -4.7992   -1.5041    0.0046 C   0  0  0  0  0  0  0  0  0  0  0  0
   -3.4535   -1.7663   -0.2840 C   0  0  0  0  0  0  0  0  0  0  0  0
   -2.9979   -2.7071    0.0558 H   0  0  0  0  0  0  0  0  0  0  0  0
   -2.7154   -0.8222   -1.0066 C   0  0  0  0  0  0  0  0  0  0  0  0
   -1.6522   -1.0163   -1.2411 H   0  0  0  0  0  0  0  0  0  0  0  0
  1  6  1  0  0  0  0
  1  2  1  0  0  0  0
  2 18  1  0  0  0  0
  2  9  1  0  0  0  0
  3 28  1  0  0  0  0
  3 21  1  0  0  0  0
  4 24  1  0  0  0  0
  4 26  1  0  0  0  0
  6 10  1  1  0  0  0
  6  7  1  0  0  0  0
  7  9  2  0  0  0  0
  7  8  1  0  0  0  0
  9 14  1  0  0  0  0
 10 11  1  0  0  0  0
 10 13  1  0  0  0  0
 12 10  1  0  0  0  0
 14 15  1  0  0  0  0
 14 17  1  0  0  0  0
 16 14  1  0  0  0  0
 18 19  1  0  0  0  0
 18 20  1  0  0  0  0
 21 22  1  0  0  0  0
 21 18  1  0  0  0  0
 23 21  1  0  0  0  0
 24  3  1  0  0  0  0
 25 24  1  0  0  0  0
 26 28  2  0  0  0  0
 27 26  1  0  0  0  0
 28 29  1  0  0  0  0
 30 33  1  0  0  0  0
 30  4  1  0  0  0  0
 31 30  1  0  0  0  0
 32 30  1  0  0  0  0
 33 34  2  0  0  0  0
 33 41  1  0  0  0  0
 34 36  1  0  0  0  0
 35 34  1  0  0  0  0
 36 37  1  0  0  0  0
 36 38  2  0  0  0  0
 38  5  1  0  0  0  0
 39 38  1  0  0  0  0
 39 40  1  0  0  0  0
 41 39  2  0  0  0  0
 42 41  1  0  0  0  0
M  END
