7
q = 0.0, confidence = 0.984

 32 34  0  0  1  0  0  0  0  0999 V2000
   -2.6992   -3.7060   -1.6353 O   0  0  0  0  0  0  0  0  0  0  0  0
    2.8636   -2.5254   -0.5256 N   0  0  0  0  0  0  0  0  0  0  0  0
   -0.3707   -3.4852   -2.6397 N   0  0  0  0  0  0  0  0  0  0  0  0
   -1.2564   -3.6362   -3.1368 H   0  0  0  0  0  0  0  0  0  0  0  0
    1.9618   -3.0535   -2.7450 N   0  0  0  0  0  0  0  0  0  0  0  0
   -1.6936   -3.4756   -0.6643 N   0  0  0  0  0  2  0  0  0  0  0  0
    0.9935   -2.7360    0.7094 N   0  0  0  0  0  2  0  0  0  0  0  0
    2.2902   -2.4268    0.7197 C   0  0  0  0  0  3  0  0  0  0  0  0
    2.8269   -2.0538    1.5998 H   0  0  0  0  0  0  0  0  0  0  0  0
    0.7151   -3.0625   -0.5942 C   0  0  0  0  0  0  0  0  0  0  0  0
    5.7755    1.4458    0.8610 C   0  0  0  0  0  0  0  0  0  0  0  0
    6.1699    2.3639    1.3225 H   0  0  0  0  0  0  0  0  0  0  0  0
    3.9143    0.2107   -0.1174 C   0  0  0  0  0  0  0  0  0  0  0  0
    2.8495    0.1765   -0.4086 H   0  0  0  0  0  0  0  0  0  0  0  0
    1.8591   -2.9184   -1.3914 C   0  0  0  0  0  0  0  0  0  0  0  0
    4.2309   -2.1928   -0.9171 C   0  0  0  0  0  0  0  0  0  0  0  0
    4.2071   -2.1178   -2.0250 H   0  0  0  0  0  0  0  0  0  0  0  0
    4.9036   -3.0403   -0.6677 H   0  0  0  0  0  0  0  0  0  0  0  0
    6.0911   -0.8488    0.1293 C   0  0  0  0  0  0  0  0  0  0  0  0
    6.7404   -1.7321    0.0158 H   0  0  0  0  0  0  0  0  0  0  0  0
   -3.8302   -2.9011   -1.3194 C   0  0  0  0  0  0  0  0  0  0  0  0
   -4.2431   -3.1728   -0.3246 H   0  0  0  0  0  0  0  0  0  0  0  0
   -4.5859   -3.1235   -2.0979 H   0  0  0  0  0  0  0  0  0  0  0  0
   -3.5657   -1.8229   -1.3254 H   0  0  0  0  0  0  0  0  0  0  0  0
    4.7468   -0.9156   -0.2842 C   0  0  0  0  0  0  0  0  0  0  0  0
   -0.5302   -3.3653   -1.2498 C   0  0  2  0  0  3  0  0  0  0  0  0
    4.4302    1.3797    0.4643 C   0  0  0  0  0  0  0  0  0  0  0  0
    3.7571    2.2287    0.6497 H   0  0  0  0  0  0  0  0  0  0  0  0
    0.8127   -3.3261   -3.3106 C   0  0  0  0  0  0  0  0  0  0  0  0
    0.7524   -3.4403   -4.4060 H   0  0  0  0  0  0  0  0  0  0  0  0
    6.6081    0.3294    0.6895 C   0  0  0  0  0  0  0  0  0  0  0  0
    7.6606    0.3671    1.0095 H   0  0  0  0  0  0  0  0  0  0  0  0
  1 21  1  0  0  0  0
  1  6  1  0  0  0  0
  2  8  1  0  0  0  0
  3 26  1  0  0  0  0
  4  3  1  0  0  0  0
  5 15  1  0  0  0  0
  7  8  1  0  0  0  0
  8  9  1  0  0  0  0
 10  7  1  0  0  0  0
 11 12  1  0  0  0  0
 13 27  1  0  0  0  0
 14 13  1  0  0  0  0
 15 10  2  0  0  0  0
 15  2  1  0  0  0  0
 16 18  1  0  0  0  0
 16  2  1  0  0  0  0
 16 25  1  0  0  0  0
 17 16  1  0  0  0  0
 19 31  2  0  0  0  0
 20 19  1  0  0  0  0
 21 22  1  0  0  0  0
 23 21  1  0  0  0  0
 24 21  1  0  0  0  0
 25 13  2  0  0  0  0
 25 19  1  0  0  0  0
 26  6  1  6  0  0  0
 26 10  1  0  0  0  0
 27 28  1  0  0  0  0
 27 11  2  0  0  0  0
 29  5  2  0  0  0  0
 29  3  1  0  0  0  0
 30 29  1  0  0  0  0
 31 11  1  0  0  0  0
 31 32  1  0  0  0  0
M  END
