10
q = 0.0, confidence = 0.998

 32 34  0  0  0  0  0  0  0  0999 V2000
   -4.6225    2.5709   -0.8152 C   0  0  0  0  0  0  0  0  0  0  0  0
   -5.4174    2.9029   -1.5040 H   0  0  0  0  0  0  0  0  0  0  0  0
   -5.4174   -0.9522    0.7293 O   0  0  0  0  0  0  0  0  0  0  0  0
    0.5712    4.3695   -3.4506 C   0  0  0  0  0  0  0  0  0  0  0  0
    0.3043    4.7420   -4.4514 H   0  0  0  0  0  0  0  0  0  0  0  0
   -4.8340    1.3508   -0.2224 N   0  0  0  0  0  0  0  0  0  0  0  0
   -5.6827    0.8105   -0.4183 H   0  0  0  0  0  0  0  0  0  0  0  0
   -1.4755    3.3079    0.6653 N   0  0  0  0  0  0  0  0  0  0  0  0
    0.0666    4.1795   -1.0706 C   0  0  0  0  0  0  0  0  0  0  0  0
   -1.6668    1.3215    1.6894 N   0  0  0  0  0  2  0  0  0  0  0  0
    2.0649    3.1304   -1.9884 C   0  0  0  0  0  0  0  0  0  0  0  0
    2.9680    2.5203   -1.8392 H   0  0  0  0  0  0  0  0  0  0  0  0
   -4.1997   -0.4279    1.2260 N   0  0  0  0  0  0  0  0  0  0  0  0
   -3.5743    3.3262   -0.6120 N   0  0  0  0  0  0  0  0  0  0  0  0
   -5.9170   -1.9064    1.6540 C   0  0  0  0  0  0  0  0  0  0  0  0
   -5.1560   -2.6880    1.8697 H   0  0  0  0  0  0  0  0  0  0  0  0
   -6.7993   -2.3675    1.1702 H   0  0  0  0  0  0  0  0  0  0  0  0
   -6.2190   -1.4294    2.6125 H   0  0  0  0  0  0  0  0  0  0  0  0
   -2.7850    1.5382    0.9223 C   0  0  0  0  0  0  0  0  0  0  0  0
    1.7408    3.6162   -3.2656 C   0  0  0  0  0  0  0  0  0  0  0  0
    2.3970    3.3965   -4.1216 H   0  0  0  0  0  0  0  0  0  0  0  0
   -2.6861    2.7697    0.2603 C   0  0  0  0  0  0  0  0  0  0  0  0
   -0.2641    4.6461   -2.3565 C   0  0  0  0  0  0  0  0  0  0  0  0
   -1.1885    5.2276   -2.4995 H   0  0  0  0  0  0  0  0  0  0  0  0
    1.2334    3.4074   -0.8941 C   0  0  0  0  0  0  0  0  0  0  0  0
    1.4881    2.9950    0.0955 H   0  0  0  0  0  0  0  0  0  0  0  0
   -3.9549    0.7368    0.6813 C   0  0  0  0  0  0  0  0  0  0  0  0
   -0.9005    2.4033    1.5169 C   0  0  0  0  0  3  0  0  0  0  0  0
    0.1228    2.4819    1.9345 H   0  0  0  0  0  0  0  0  0  0  0  0
   -0.8324    4.4987    0.1106 C   0  0  0  0  0  0  0  0  0  0  0  0
   -0.2527    4.9686    0.9297 H   0  0  0  0  0  0  0  0  0  0  0  0
   -1.6380    5.1947   -0.1897 H   0  0  0  0  0  0  0  0  0  0  0  0
  1 14  2  0  0  0  0
  1  6  1  0  0  0  0
  2  1  1  0  0  0  0
  3 13  1  0  0  0  0
  3 15  1  0  0  0  0
  4 20  2  0  0  0  0
  4 23  1  0  0  0  0
  5  4  1  0  0  0  0
  6 27  1  0  0  0  0
  7  6  1  0  0  0  0
  8 28  1  0  0  0  0
  9 25  1  0  0  0  0
  9 30  1  0  0  0  0
 11 12  1  0  0  0  0
 11 25  2  0  0  0  0
 14 22  1  0  0  0  0
 15 16  1  0  0  0  0
 15 18  1  0  0  0  0
 17 15  1  0  0  0  0
 19 10  1  0  0  0  0
 20 11  1  0  0  0  0
 21 20  1  0  0  0  0
 22  8  1  0  0  0  0
 22 19  2  0  0  0  0
 23  9  2  0  0  0  0
 24 23  1  0  0  0  0
 25 26  1  0  0  0  0
 27 19  1  0  0  0  0
 27 13  2  0  0  0  0
 28 10  1  0  0  0  0
 28 29  1  0  0  0  0
 30  8  1  0  0  0  0
 30 31  1  0  0  0  0
 32 30  1  0  0  0  0
M  END
