1
q = 0.0, confidence = 0.998

 28 28  0  0  1  0  0  0  0  0999 V2000
    1.8930    0.5325   -0.4803 N   0  0  0  0  0  2  0  0  0  0  0  0
    2.4582    1.6141   -0.0350 C   0  0  1  0  0  3  0  0  0  0  0  0
    2.6683   -0.3886   -1.3215 C   0  0  0  0  0  0  0  0  0  0  0  0
    3.7235    1.8407   -0.4216 O   0  0  0  0  0  0  0  0  0  0  0  0
    1.7360    2.5702    0.8634 C   0  0  0  0  0  0  0  0  0  0  0  0
    3.8816   -0.9875   -0.6312 C   0  0  0  0  0  0  0  0  0  0  0  0
    2.9869    0.1396   -2.2445 H   0  0  0  0  0  0  0  0  0  0  0  0
    1.9668   -1.1841   -1.6420 H   0  0  0  0  0  0  0  0  0  0  0  0
    4.6006    2.6882    0.3461 C   0  0  0  0  0  0  0  0  0  0  0  0
    1.6972    2.1478    1.8894 H   0  0  0  0  0  0  0  0  0  0  0  0
    2.2033    3.5711    0.8736 H   0  0  0  0  0  0  0  0  0  0  0  0
    0.6863    2.6526    0.5221 H   0  0  0  0  0  0  0  0  0  0  0  0
    3.8468   -1.3320    0.7350 C   0  0  0  0  0  0  0  0  0  0  0  0
    5.0609   -1.2168   -1.3646 C   0  0  0  0  0  0  0  0  0  0  0  0
    6.0229    2.3073   -0.0141 C   0  0  0  0  0  0  0  0  0  0  0  0
    4.4096    2.5343    1.4290 H   0  0  0  0  0  0  0  0  0  0  0  0
    4.3891    3.7535    0.1042 H   0  0  0  0  0  0  0  0  0  0  0  0
    4.9805   -1.8846    1.3507 C   0  0  0  0  0  0  0  0  0  0  0  0
    2.9303   -1.1489    1.3221 H   0  0  0  0  0  0  0  0  0  0  0  0
    6.1910   -1.7764   -0.7490 C   0  0  0  0  0  0  0  0  0  0  0  0
    5.0987   -0.9385   -2.4302 H   0  0  0  0  0  0  0  0  0  0  0  0
    6.7373    2.9457    0.5423 H   0  0  0  0  0  0  0  0  0  0  0  0
    6.2170    1.2461    0.2378 H   0  0  0  0  0  0  0  0  0  0  0  0
    6.2027    2.4444   -1.0985 H   0  0  0  0  0  0  0  0  0  0  0  0
    6.1558   -2.1087    0.6147 C   0  0  0  0  0  0  0  0  0  0  0  0
    4.9417   -2.1448    2.4199 H   0  0  0  0  0  0  0  0  0  0  0  0
    7.1072   -1.9445   -1.3360 H   0  0  0  0  0  0  0  0  0  0  0  0
    7.0427   -2.5416    1.1023 H   0  0  0  0  0  0  0  0  0  0  0  0
  2  1  1  6  0  0  0
  2  5  1  0  0  0  0
  3  6  1  0  0  0  0
  3  1  1  0  0  0  0
  4  2  1  0  0  0  0
  4  9  1  0  0  0  0
  5 11  1  0  0  0  0
  5 10  1  0  0  0  0
  6 13  1  0  0  0  0
  7  3  1  0  0  0  0
  8  3  1  0  0  0  0
  9 16  1  0  0  0  0
 12  5  1  0  0  0  0
 13 19  1  0  0  0  0
 13 18  2  0  0  0  0
 14 20  1  0  0  0  0
 14  6  2  0  0  0  0
 15 23  1  0  0  0  0
 15  9  1  0  0  0  0
 15 22  1  0  0  0  0
 17  9  1  0  0  0  0
 18 26  1  0  0  0  0
 20 25  2  0  0  0  0
 21 14  1  0  0  0  0
 24 15  1  0  0  0  0
 25 28  1  0  0  0  0
 25 18  1  0  0  0  0
 27 20  1  0  0  0  0
M  END
