20
q = 0.0, confidence = 0.998

 21 22  0  0  0  0  0  0  0  0999 V2000
    2.5650    1.1185   -1.5319 C   0  0  0  0  0  3  0  0  0  0  0  0
    1.8200    1.7118   -2.0802 H   0  0  0  0  0  0  0  0  0  0  0  0
    3.9151    1.1728   -1.8122 C   0  0  0  0  0  0  0  0  0  0  0  0
    4.2681    1.8107   -2.6355 H   0  0  0  0  0  0  0  0  0  0  0  0
    4.8456    0.4160   -1.0420 C   0  0  0  0  0  0  0  0  0  0  0  0
    6.2471    0.4233   -1.2754 C   0  0  0  0  0  0  0  0  0  0  0  0
    6.6393    1.0401   -2.0947 H   0  0  0  0  0  0  0  0  0  0  0  0
    7.0902   -0.3451   -0.4695 C   0  0  0  0  0  0  0  0  0  0  0  0
    6.5491   -1.1403    0.5904 C   0  0  0  0  0  0  0  0  0  0  0  0
    7.2521   -1.7299    1.1961 H   0  0  0  0  0  0  0  0  0  0  0  0
    5.1907   -1.1584    0.8294 C   0  0  0  0  0  0  0  0  0  0  0  0
    4.7776   -1.7743    1.6430 H   0  0  0  0  0  0  0  0  0  0  0  0
    4.3027   -0.3837    0.0232 C   0  0  0  0  0  0  0  0  0  0  0  0
    2.9025   -0.3794    0.2284 C   0  0  0  0  0  0  0  0  0  0  0  0
    2.4674   -0.9944    1.0305 H   0  0  0  0  0  0  0  0  0  0  0  0
    9.0535    0.3385   -1.6311 C   0  0  0  0  0  0  0  0  0  0  0  0
    8.6899    0.0313   -2.6367 H   0  0  0  0  0  0  0  0  0  0  0  0
   10.1377    0.1361   -1.5600 H   0  0  0  0  0  0  0  0  0  0  0  0
    8.8766    1.4295   -1.5037 H   0  0  0  0  0  0  0  0  0  0  0  0
    2.0541    0.3386   -0.5195 N   0  0  0  0  0  2  0  0  0  0  0  0
    8.4367   -0.4148   -0.6003 O   0  0  0  0  0  0  0  0  0  0  0  0
  1 20  1  0  0  0  0
  2  1  1  0  0  0  0
  3  1  1  0  0  0  0
  3  5  2  0  0  0  0
  4  3  1  0  0  0  0
  5 13  1  0  0  0  0
  6  5  1  0  0  0  0
  6  8  2  0  0  0  0
  7  6  1  0  0  0  0
  8  9  1  0  0  0  0
  9 11  2  0  0  0  0
  9 10  1  0  0  0  0
 11 12  1  0  0  0  0
 13 14  2  0  0  0  0
 13 11  1  0  0  0  0
 14 15  1  0  0  0  0
 16 18  1  0  0  0  0
 16 19  1  0  0  0  0
 16 21  1  0  0  0  0
 17 16  1  0  0  0  0
 20 14  1  0  0  0  0
 21  8  1  0  0  0  0
M  END
