5
q = -1.0

 30 31  0  0  0  0  0  0  0  0999 V2000
    2.5013    1.1548   -1.4249 S   0  0  0  0  0  0  0  0  0  0  0  0
    1.3121    2.0566   -1.2842 O   0  0  0  0  0  0  0  0  0  0  0  0
    2.9563    0.7415   -2.7616 O   0  0  0  0  0  0  0  0  0  0  0  0
    5.3213   -4.4375    0.0465 O   0  0  0  0  0  0  0  0  0  0  0  0
    1.9697   -0.1988   -0.5008 N   0  0  0  0  0  2  0  0  0  0  0  0
    4.0200   -1.2990   -0.7486 N   0  0  0  0  0  0  0  0  0  0  0  0
    4.8234   -2.3403   -0.6006 N   0  0  0  0  0  0  0  0  0  0  0  0
    6.9925    3.6284    1.6131 N   0  0  0  0  0  0  0  0  0  0  0  0
    7.9214    3.2175    1.5385 H   0  0  0  0  0  0  0  0  0  0  0  0
    6.7916    4.1052    2.4903 H   0  0  0  0  0  0  0  0  0  0  0  0
    2.7391   -1.3477   -0.3270 C   0  0  0  0  0  0  0  0  0  0  0  0
    2.2041   -2.5066    0.2917 C   0  0  0  0  0  0  0  0  0  0  0  0
    1.1604   -2.5473    0.6456 H   0  0  0  0  0  0  0  0  0  0  0  0
    3.0478   -3.5984    0.4447 C   0  0  0  0  0  0  0  0  0  0  0  0
    2.6791   -4.5180    0.9188 H   0  0  0  0  0  0  0  0  0  0  0  0
    4.3776   -3.4657   -0.0292 C   0  0  0  0  0  0  0  0  0  0  0  0
    4.9577   -5.6735    0.6296 C   0  0  0  0  0  0  0  0  0  0  0  0
    4.6469   -5.5602    1.6932 H   0  0  0  0  0  0  0  0  0  0  0  0
    5.8576   -6.3146    0.5889 H   0  0  0  0  0  0  0  0  0  0  0  0
    4.1357   -6.1750    0.0700 H   0  0  0  0  0  0  0  0  0  0  0  0
    3.8410    1.8855   -0.5218 C   0  0  0  0  0  0  0  0  0  0  0  0
    5.1663    1.5366   -0.8364 C   0  0  0  0  0  0  0  0  0  0  0  0
    5.3553    0.8017   -1.6294 H   0  0  0  0  0  0  0  0  0  0  0  0
    6.2113    2.1140   -0.1186 C   0  0  0  0  0  0  0  0  0  0  0  0
    7.2510    1.8441   -0.3605 H   0  0  0  0  0  0  0  0  0  0  0  0
    5.9561    3.0405    0.9277 C   0  0  0  0  0  0  0  0  0  0  0  0
    4.6075    3.3772    1.2219 C   0  0  0  0  0  0  0  0  0  0  0  0
    4.3916    4.1034    2.0209 H   0  0  0  0  0  0  0  0  0  0  0  0
    3.5585    2.8062    0.5023 C   0  0  0  0  0  0  0  0  0  0  0  0
    2.5153    3.0789    0.7154 H   0  0  0  0  0  0  0  0  0  0  0  0
  1  2  2  0  0  0  0
  1 21  1  0  0  0  0
  1  5  1  0  0  0  0
  3  1  2  0  0  0  0
  4 17  1  0  0  0  0
  5 11  1  0  0  0  0
  6  7  2  0  0  0  0
  6 11  1  0  0  0  0
  7 16  1  0  0  0  0
  8 10  1  0  0  0  0
  9  8  1  0  0  0  0
 11 12  2  0  0  0  0
 12 14  1  0  0  0  0
 12 13  1  0  0  0  0
 14 15  1  0  0  0  0
 16  4  1  0  0  0  0
 16 14  2  0  0  0  0
 17 18  1  0  0  0  0
 19 17  1  0  0  0  0
 20 17  1  0  0  0  0
 21 29  1  0  0  0  0
 22 21  2  0  0  0  0
 22 24  1  0  0  0  0
 23 22  1  0  0  0  0
 24 26  2  0  0  0  0
 25 24  1  0  0  0  0
 26 27  1  0  0  0  0
 26  8  1  0  0  0  0
 27 28  1  0  0  0  0
 29 30  1  0  0  0  0
 29 27  2  0  0  0  0
M  END
