6
q = -1.0

 27 28  0  0  1  0  0  0  0  0999 V2000
   -4.3873   -1.7143    1.6633 S   0  0  0  0  0  0  0  0  0  0  0  0
   -4.9459   -3.0306    1.2488 O   0  0  0  0  0  0  0  0  0  0  0  0
   -4.3600   -1.3293    3.0907 O   0  0  0  0  0  0  0  0  0  0  0  0
   -0.8717   -2.5889   -1.5635 O   0  0  0  0  0  0  0  0  0  0  0  0
   -2.8476   -1.4808    1.1005 N   0  0  0  0  0  2  0  0  0  0  0  0
   -1.1620   -1.7528   -0.4745 N   0  0  0  0  0  2  0  0  0  0  0  0
   -7.4766    2.5572   -1.2278 N   0  0  0  0  0  0  0  0  0  0  0  0
   -5.3543   -0.4561    0.8083 C   0  0  0  0  0  0  0  0  0  0  0  0
   -5.9584   -0.7411   -0.4267 C   0  0  0  0  0  0  0  0  0  0  0  0
   -1.8922   -3.4747   -1.7074 C   0  0  2  0  0  3  0  0  0  0  0  0
   -6.6875    0.2502   -1.0906 C   0  0  0  0  0  0  0  0  0  0  0  0
   -2.8534   -3.2530   -0.7576 C   0  0  0  0  0  0  0  0  0  0  0  0
   -6.8318    1.5413   -0.5273 C   0  0  0  0  0  0  0  0  0  0  0  0
   -2.3573   -2.1416    0.0273 C   0  0  0  0  0  0  0  0  0  0  0  0
   -6.2398    1.7987    0.7330 C   0  0  0  0  0  0  0  0  0  0  0  0
   -5.5051    0.8109    1.3932 C   0  0  0  0  0  0  0  0  0  0  0  0
   -1.7519   -4.4669   -2.8074 C   0  0  0  0  0  0  0  0  0  0  0  0
   -1.6184   -3.9628   -3.7865 H   0  0  0  0  0  0  0  0  0  0  0  0
   -2.6507   -5.1075   -2.8572 H   0  0  0  0  0  0  0  0  0  0  0  0
   -0.8656   -5.1155   -2.6482 H   0  0  0  0  0  0  0  0  0  0  0  0
   -5.8671   -1.7517   -0.8507 H   0  0  0  0  0  0  0  0  0  0  0  0
   -7.1605    0.0268   -2.0604 H   0  0  0  0  0  0  0  0  0  0  0  0
   -6.3558    2.7939    1.1915 H   0  0  0  0  0  0  0  0  0  0  0  0
   -5.0497    0.9992    2.3763 H   0  0  0  0  0  0  0  0  0  0  0  0
   -3.7810   -3.7982   -0.5692 H   0  0  0  0  0  0  0  0  0  0  0  0
   -8.1374    2.2538   -1.9452 H   0  0  0  0  0  0  0  0  0  0  0  0
   -7.8441    3.3233   -0.6607 H   0  0  0  0  0  0  0  0  0  0  0  0
  1  3  2  0  0  0  0
  2  1  2  0  0  0  0
  4  6  1  0  0  0  0
  5  1  1  0  0  0  0
  6 14  1  0  0  0  0
  7 27  1  0  0  0  0
  7 13  1  0  0  0  0
  8 16  1  0  0  0  0
  8  1  1  0  0  0  0
  9  8  2  0  0  0  0
 10 17  1  1  0  0  0
 10  4  1  0  0  0  0
 10 12  1  0  0  0  0
 11 13  2  0  0  0  0
 11  9  1  0  0  0  0
 12 25  1  0  0  0  0
 12 14  2  0  0  0  0
 13 15  1  0  0  0  0
 14  5  1  0  0  0  0
 15 23  1  0  0  0  0
 15 16  2  0  0  0  0
 16 24  1  0  0  0  0
 17 20  1  0  0  0  0
 18 17  1  0  0  0  0
 19 17  1  0  0  0  0
 21  9  1  0  0  0  0
 22 11  1  0  0  0  0
 26  7  1  0  0  0  0
M  END
