1
q = -1.0

 49 53  0  0  1  0  0  0  0  0999 V2000
   -1.2504   -0.7816   -1.4272 N   0  0  0  0  0  2  0  0  0  0  0  0
    0.2973   -0.2807    2.4697 B   0  0  2  0  0  0  0  0  0  0  0  0
    0.4086    0.8896    2.7802 H   0  0  0  0  0  0  0  0  0  0  0  0
    1.5174   -1.3086    1.7102 B   0  0  2  0  0  0  0  0  0  0  0  0
    2.6760   -1.0233    1.5405 H   0  0  0  0  0  0  0  0  0  0  0  0
    0.5728   -2.4393    0.7328 B   0  0  0  0  0  0  0  0  0  0  0  0
    0.8688   -2.9280   -0.3408 H   0  0  0  0  0  0  0  0  0  0  0  0
   -1.5305   -2.4488    2.6430 B   0  0  2  0  0  0  0  0  0  0  0  0
   -2.6868   -2.7468    2.8277 H   0  0  0  0  0  0  0  0  0  0  0  0
   -0.6535   -1.2543    3.6011 B   0  0  0  0  0  0  0  0  0  0  0  0
   -1.2300   -0.7393    4.5318 H   0  0  0  0  0  0  0  0  0  0  0  0
    1.0781   -1.5688    3.4138 B   0  0  0  0  0  0  0  0  0  0  0  0
    1.8585   -1.3092    4.3033 H   0  0  0  0  0  0  0  0  0  0  0  0
    1.2673   -2.9615    2.2999 B   0  0  0  0  0  0  0  0  0  0  0  0
    2.1833   -3.7510    2.3717 H   0  0  0  0  0  0  0  0  0  0  0  0
   -0.3485   -3.4875    1.8379 B   0  0  0  0  0  0  0  0  0  0  0  0
   -0.7136   -4.5861    1.4899 H   0  0  0  0  0  0  0  0  0  0  0  0
   -0.0653   -2.9352    3.5014 B   0  0  0  0  0  0  0  0  0  0  0  0
   -0.1513   -3.6915    4.4416 H   0  0  0  0  0  0  0  0  0  0  0  0
   -1.0477   -2.1394    1.0265 C   0  0  1  0  0  0  0  0  0  0  0  0
   -1.2073   -0.8741    2.0059 C   0  0  2  0  0  0  0  0  0  0  0  0
   -2.1485   -2.5183    0.0379 C   0  0  0  0  0  0  0  0  0  0  0  0
   -2.3308   -3.6079    0.1061 H   0  0  0  0  0  0  0  0  0  0  0  0
   -3.0928   -2.0257    0.3308 H   0  0  0  0  0  0  0  0  0  0  0  0
   -1.8018   -2.1327   -1.3882 C   0  0  0  0  0  0  0  0  0  0  0  0
   -1.0720   -2.8608   -1.8154 H   0  0  0  0  0  0  0  0  0  0  0  0
   -2.7144   -2.1980   -2.0232 H   0  0  0  0  0  0  0  0  0  0  0  0
   -1.7053   -0.0586   -2.5999 C   0  0  0  0  0  0  0  0  0  0  0  0
   -2.8138   -0.1244   -2.6965 H   0  0  0  0  0  0  0  0  0  0  0  0
   -1.2709   -0.4673   -3.5453 H   0  0  0  0  0  0  0  0  0  0  0  0
   -1.4526    1.0169   -2.5467 H   0  0  0  0  0  0  0  0  0  0  0  0
   -1.3862    1.8937    0.7375 C   0  0  0  0  0  0  0  0  0  0  0  0
   -1.3285    2.7084    0.0082 H   0  0  0  0  0  0  0  0  0  0  0  0
   -0.6906    1.9424    1.5854 H   0  0  0  0  0  0  0  0  0  0  0  0
   -2.4454    1.0167    0.7741 C   0  0  0  0  0  0  0  0  0  0  0  0
   -2.4663    0.0001    1.9117 C   0  0  0  0  0  0  0  0  0  0  0  0
   -3.3609   -0.6421    1.8687 H   0  0  0  0  0  0  0  0  0  0  0  0
   -2.5530    0.5611    2.8637 H   0  0  0  0  0  0  0  0  0  0  0  0
   -3.5814    1.1156   -0.1792 C   0  0  0  0  0  0  0  0  0  0  0  0
   -4.6160    0.1507   -0.2228 C   0  0  0  0  0  0  0  0  0  0  0  0
   -4.6025   -0.7072    0.4616 H   0  0  0  0  0  0  0  0  0  0  0  0
   -5.6762    0.2542   -1.1332 C   0  0  0  0  0  0  0  0  0  0  0  0
   -6.4593   -0.5186   -1.1418 H   0  0  0  0  0  0  0  0  0  0  0  0
   -5.7420    1.3362   -2.0231 C   0  0  0  0  0  0  0  0  0  0  0  0
   -6.5747    1.4198   -2.7373 H   0  0  0  0  0  0  0  0  0  0  0  0
   -4.7390    2.3188   -1.9833 C   0  0  0  0  0  0  0  0  0  0  0  0
   -4.7850    3.1830   -2.6628 H   0  0  0  0  0  0  0  0  0  0  0  0
   -3.6815    2.2106   -1.0751 C   0  0  0  0  0  0  0  0  0  0  0  0
   -2.9236    3.0054   -1.0560 H   0  0  0  0  0  0  0  0  0  0  0  0
  1 25  1  0  0  0  0
  2  3  1  1  0  0  0
  2 10  1  0  0  0  0
  4  5  1  6  0  0  0
  4 14  1  0  0  0  0
  4  2  1  0  0  0  0
  6 20  1  0  0  0  0
  6  4  1  0  0  0  0
  7  6  1  0  0  0  0
  8  9  1  1  0  0  0
  8 10  1  0  0  0  0
 10 11  1  0  0  0  0
 12 18  1  0  0  0  0
 12 13  1  0  0  0  0
 14 15  1  0  0  0  0
 14 12  1  0  0  0  0
 16 14  1  0  0  0  0
 16 18  1  0  0  0  0
 17 16  1  0  0  0  0
 18 19  1  0  0  0  0
 20 22  1  6  0  0  0
 20 21  1  0  0  0  0
 20  8  1  0  0  0  0
 21 36  1  6  0  0  0
 21  2  1  0  0  0  0
 21  8  1  0  0  0  0
 22 23  1  0  0  0  0
 22 24  1  0  0  0  0
 25 22  1  0  0  0  0
 26 25  1  0  0  0  0
 27 25  1  0  0  0  0
 28 31  1  0  0  0  0
 28  1  1  0  0  0  0
 29 28  1  0  0  0  0
 30 28  1  0  0  0  0
 32 35  2  0  0  0  0
 32 34  1  0  0  0  0
 33 32  1  0  0  0  0
 35 36  1  0  0  0  0
 36 38  1  0  0  0  0
 37 36  1  0  0  0  0
 39 35  1  0  0  0  0
 40 39  1  0  0  0  0
 40 41  1  0  0  0  0
 42 40  2  0  0  0  0
 43 42  1  0  0  0  0
 44 46  2  0  0  0  0
 44 42  1  0  0  0  0
 45 44  1  0  0  0  0
 46 48  1  0  0  0  0
 47 46  1  0  0  0  0
 48 49  1  0  0  0  0
 48 39  2  0  0  0  0
M  END
