1
q = -1.0

 13 12  0  0  1  0  0  0  0  0999 V2000
    1.4488    0.8030   -0.8007 N   0  0  0  0  0  2  0  0  0  0  0  0
    1.5110   -0.8567    1.6125 N   0  0  0  0  0  0  0  0  0  0  0  0
    2.3981   -0.9212    0.6793 C   0  0  0  0  0  0  0  0  0  0  0  0
    3.7966    0.4223   -0.9137 C   0  0  0  0  0  0  0  0  0  0  0  0
    2.5201    0.1296   -0.3517 C   0  0  1  0  0  3  0  0  0  0  0  0
    1.6208    1.7401   -1.6419 O   0  0  0  0  0  1  0  0  0  0  0  0
    4.8646    0.6650   -1.3412 N   0  0  0  0  0  0  0  0  0  0  0  0
    3.3439   -1.8739    0.4882 O   0  0  0  0  0  0  0  0  0  0  0  0
    3.3170   -3.0067    1.3422 C   0  0  0  0  0  0  0  0  0  0  0  0
    3.4198   -2.7189    2.4127 H   0  0  0  0  0  0  0  0  0  0  0  0
    4.1782   -3.6341    1.0511 H   0  0  0  0  0  0  0  0  0  0  0  0
    2.3784   -3.5861    1.2014 H   0  0  0  0  0  0  0  0  0  0  0  0
    1.5045   -1.7080    2.1927 H   0  0  0  0  0  0  0  0  0  0  0  0
  1  5  1  0  0  0  0
  2 13  1  0  0  0  0
  3  2  2  0  0  0  0
  5  4  1  6  0  0  0
  5  3  1  0  0  0  0
  6  1  1  0  0  0  0
  7  4  3  0  0  0  0
  8  3  1  0  0  0  0
  8  9  1  0  0  0  0
  9 10  1  0  0  0  0
 11  9  1  0  0  0  0
 12  9  1  0  0  0  0
M  END
