4
q = -1.0, confidence = 0.0

 20 22  0  0  0  0  0  0  0  0999 V2000
    1.3088    1.6934    0.1102 S   0  0  0  0  0  0  0  0  0  0  0  0
    0.8017    2.1738    1.4168 O   0  0  0  0  0  0  0  0  0  0  0  0
    1.0327    2.5438   -1.0780 O   0  0  0  0  0  0  0  0  0  0  0  0
    0.7572    0.0791   -0.1890 N   0  0  0  0  0  2  0  0  0  0  0  0
    3.0353    1.2175    0.1536 C   0  0  0  0  0  0  0  0  0  0  0  0
    4.1663    1.9901    0.3616 C   0  0  0  0  0  0  0  0  0  0  0  0
    5.4211    1.3259    0.2665 C   0  0  0  0  0  0  0  0  0  0  0  0
    5.5153   -0.0337   -0.0341 C   0  0  0  0  0  0  0  0  0  0  0  0
    4.3513   -0.8299   -0.2550 C   0  0  0  0  0  0  0  0  0  0  0  0
    4.3109   -2.2181   -0.5792 C   0  0  0  0  0  0  0  0  0  0  0  0
    3.0756   -2.8329   -0.7757 C   0  0  0  0  0  0  0  0  0  0  0  0
    1.8336   -2.1488   -0.6649 C   0  0  0  0  0  0  0  0  0  0  0  0
    1.8304   -0.7922   -0.3317 C   0  0  0  0  0  0  0  0  0  0  0  0
    3.1022   -0.1546   -0.1405 C   0  0  0  0  0  0  0  0  0  0  0  0
    4.1040    3.0639    0.5882 H   0  0  0  0  0  0  0  0  0  0  0  0
    6.3413    1.9069    0.4305 H   0  0  0  0  0  0  0  0  0  0  0  0
    6.5063   -0.5082   -0.1071 H   0  0  0  0  0  0  0  0  0  0  0  0
    5.2467   -2.7881   -0.6745 H   0  0  0  0  0  0  0  0  0  0  0  0
    3.0485   -3.9041   -1.0293 H   0  0  0  0  0  0  0  0  0  0  0  0
    0.8894   -2.6881   -0.8129 H   0  0  0  0  0  0  0  0  0  0  0  0
  1  5  1  0  0  0  0
  1  2  2  0  0  0  0
  3  1  2  0  0  0  0
  4  1  1  0  0  0  0
  5  6  1  0  0  0  0
  6 15  1  0  0  0  0
  7  6  2  0  0  0  0
  7 16  1  0  0  0  0
  8  7  1  0  0  0  0
  9 14  1  0  0  0  0
  9  8  2  0  0  0  0
 10  9  1  0  0  0  0
 11 12  1  0  0  0  0
 11 10  2  0  0  0  0
 12 13  2  0  0  0  0
 13  4  1  0  0  0  0
 13 14  1  0  0  0  0
 14  5  2  0  0  0  0
 17  8  1  0  0  0  0
 18 10  1  0  0  0  0
 19 11  1  0  0  0  0
 20 12  1  0  0  0  0
M  END
