27
q = 0.0, confidence = 0.994

 31 32  0  0  1  0  0  0  0  0999 V2000
   -1.7535    2.9404   -1.2350 C   0  0  0  0  0  0  0  0  0  0  0  0
   -2.6187    3.2977   -0.6629 H   0  0  0  0  0  0  0  0  0  0  0  0
   -0.9211    3.6250   -2.1197 C   0  0  0  0  0  0  0  0  0  0  0  0
   -0.9376    4.6584   -2.4801 H   0  0  0  0  0  0  0  0  0  0  0  0
   -0.2327    1.5383   -1.8962 C   0  0  2  0  0  3  0  0  0  0  0  0
    0.8708   -1.7524   -1.6492 C   0  0  0  0  0  0  0  0  0  0  0  0
    0.2085   -2.9899   -1.4522 C   0  0  0  0  0  0  0  0  0  0  0  0
   -0.8823   -2.9467   -1.3064 H   0  0  0  0  0  0  0  0  0  0  0  0
    0.9112   -4.1914   -1.4947 C   0  0  0  0  0  0  0  0  0  0  0  0
    0.3817   -5.1465   -1.3648 H   0  0  0  0  0  0  0  0  0  0  0  0
    2.3024   -4.1661   -1.7100 C   0  0  0  0  0  0  0  0  0  0  0  0
    2.8749   -5.1057   -1.7427 H   0  0  0  0  0  0  0  0  0  0  0  0
    2.9778   -2.9531   -1.8922 C   0  0  0  0  0  0  0  0  0  0  0  0
    4.0615   -2.9743   -2.0655 H   0  0  0  0  0  0  0  0  0  0  0  0
    2.2888   -1.7190   -1.8827 C   0  0  0  0  0  0  0  0  0  0  0  0
    1.1862    2.9744   -3.4029 C   0  0  0  0  0  0  0  0  0  0  0  0
    0.8543    3.6655   -4.2035 H   0  0  0  0  0  0  0  0  0  0  0  0
    1.4415    2.0041   -3.8711 H   0  0  0  0  0  0  0  0  0  0  0  0
    2.3873    3.5297   -2.6414 C   0  0  0  0  0  0  0  0  0  0  0  0
    2.1528    4.4994   -2.1597 H   0  0  0  0  0  0  0  0  0  0  0  0
    3.2343    3.6828   -3.3393 H   0  0  0  0  0  0  0  0  0  0  0  0
    2.7082    2.8232   -1.8511 H   0  0  0  0  0  0  0  0  0  0  0  0
    4.8452   -0.6315   -1.6943 C   0  0  0  0  0  0  0  0  0  0  0  0
    4.8940   -1.1271   -0.7052 H   0  0  0  0  0  0  0  0  0  0  0  0
    5.3894    0.3316   -1.6491 H   0  0  0  0  0  0  0  0  0  0  0  0
    5.3154   -1.2631   -2.4736 H   0  0  0  0  0  0  0  0  0  0  0  0
   -1.3097    1.6573   -1.1068 N   0  0  0  0  0  2  0  0  0  0  0  0
    0.0356    2.7257   -2.5332 N   0  0  0  0  0  0  0  0  0  0  0  0
    0.5295    0.4227   -2.1171 N   0  0  0  0  0  2  0  0  0  0  0  0
    0.0771   -0.6221   -1.5334 N   0  0  0  0  0  2  0  0  0  0  0  0
    3.1247   -0.1736   -2.1046 S   0  0  0  0  0  0  0  0  0  0  0  0
  1 27  1  0  0  0  0
  1  2  1  0  0  0  0
  3  1  2  0  0  0  0
  4  3  1  0  0  0  0
  5 29  1  6  0  0  0
  5 27  1  0  0  0  0
  6 30  1  0  0  0  0
  6  7  1  0  0  0  0
  7  8  1  0  0  0  0
  9  7  2  0  0  0  0
  9 10  1  0  0  0  0
 11  9  1  0  0  0  0
 12 11  1  0  0  0  0
 13 15  1  0  0  0  0
 13 11  2  0  0  0  0
 14 13  1  0  0  0  0
 15  6  2  0  0  0  0
 16 19  1  0  0  0  0
 16 28  1  0  0  0  0
 17 16  1  0  0  0  0
 18 16  1  0  0  0  0
 19 20  1  0  0  0  0
 19 22  1  0  0  0  0
 21 19  1  0  0  0  0
 23 25  1  0  0  0  0
 23 24  1  0  0  0  0
 26 23  1  0  0  0  0
 28  3  1  0  0  0  0
 28  5  1  0  0  0  0
 29 30  1  0  0  0  0
 31 15  1  0  0  0  0
 31 23  1  0  0  0  0
M  END
