1
q = -1.0

 19 20  0  0  0  0  0  0  0  0999 V2000
    0.4639   -0.6769   -0.9551 N   0  0  0  0  0  0  0  0  0  0  0  0
   -0.0357   -1.4224   -2.0142 C   0  0  0  0  0  0  0  0  0  0  0  0
    0.6507   -1.8940   -2.7258 H   0  0  0  0  0  0  0  0  0  0  0  0
   -0.6068   -0.1910   -0.2387 C   0  0  0  0  0  3  0  0  0  0  0  0
   -0.4696    0.4338    0.6483 H   0  0  0  0  0  0  0  0  0  0  0  0
   -1.4177   -1.4260   -1.9668 C   0  0  0  0  0  0  0  0  0  0  0  0
   -2.0891   -1.9265   -2.6696 H   0  0  0  0  0  0  0  0  0  0  0  0
   -1.8059   -0.6266   -0.8238 C   0  0  0  0  0  0  0  0  0  0  0  0
   -3.1603   -0.2995   -0.3753 C   0  0  0  0  0  0  0  0  0  0  0  0
   -4.2942   -1.0523   -0.7709 C   0  0  0  0  0  0  0  0  0  0  0  0
   -3.4320    0.7999    0.4771 C   0  0  0  0  0  0  0  0  0  0  0  0
   -5.5983   -0.7351   -0.3604 C   0  0  0  0  0  0  0  0  0  0  0  0
   -4.7245    1.1337    0.9052 C   0  0  0  0  0  0  0  0  0  0  0  0
   -5.8206    0.3623    0.4862 C   0  0  0  0  0  0  0  0  0  0  0  0
   -4.1561   -2.1256   -1.5655 F   0  0  0  0  0  0  0  0  0  0  0  0
   -2.4313    1.5944    0.9069 F   0  0  0  0  0  0  0  0  0  0  0  0
   -6.6303   -1.4846   -0.7626 F   0  0  0  0  0  0  0  0  0  0  0  0
   -4.9182    2.1881    1.7060 F   0  0  0  0  0  0  0  0  0  0  0  0
   -7.0572    0.6690    0.8884 F   0  0  0  0  0  0  0  0  0  0  0  0
  1  4  1  0  0  0  0
  2  6  1  0  0  0  0
  2  1  2  0  0  0  0
  3  2  1  0  0  0  0
  4  5  1  0  0  0  0
  6  8  2  0  0  0  0
  7  6  1  0  0  0  0
  8  9  1  0  0  0  0
  8  4  1  0  0  0  0
  9 11  1  0  0  0  0
 10  9  2  0  0  0  0
 10 12  1  0  0  0  0
 11 13  2  0  0  0  0
 11 16  1  0  0  0  0
 12 14  2  0  0  0  0
 13 18  1  0  0  0  0
 14 19  1  0  0  0  0
 14 13  1  0  0  0  0
 15 10  1  0  0  0  0
 17 12  1  0  0  0  0
M  END
