4
q = -1.0, confidence = 0.002

 41 41  0  0  0  0  0  0  0  0999 V2000
    1.1523   -1.4471   -1.3426 S   0  0  0  0  0  0  0  0  0  0  0  0
   -0.1737   -0.5556    1.7130 S   0  0  0  0  0  0  0  0  0  0  0  0
    2.4375    0.9384   -1.8035 N   0  0  0  0  0  0  0  0  0  0  0  0
    0.1750    0.8762   -1.0748 N   0  0  0  0  0  2  0  0  0  0  0  0
    1.7224    1.3499    1.2543 N   0  0  0  0  0  0  0  0  0  0  0  0
    2.4222   -0.5499    2.3452 N   0  0  0  0  0  0  0  0  0  0  0  0
    4.4041    1.0393   -3.2572 C   0  0  0  0  0  0  0  0  0  0  0  0
    3.7612    1.0515   -4.1586 H   0  0  0  0  0  0  0  0  0  0  0  0
    5.3599    0.5471   -3.5204 H   0  0  0  0  0  0  0  0  0  0  0  0
    4.6382    2.0891   -2.9788 H   0  0  0  0  0  0  0  0  0  0  0  0
    4.6019    0.2232   -0.8469 C   0  0  0  0  0  0  0  0  0  0  0  0
    4.8568    1.2400   -0.4783 H   0  0  0  0  0  0  0  0  0  0  0  0
    5.5537   -0.3010   -1.0638 H   0  0  0  0  0  0  0  0  0  0  0  0
    4.0813   -0.3377   -0.0456 H   0  0  0  0  0  0  0  0  0  0  0  0
    3.7244    0.3033   -2.1032 C   0  0  0  0  0  0  0  0  0  0  0  0
    3.4790   -0.7319   -2.4264 H   0  0  0  0  0  0  0  0  0  0  0  0
    1.3191    0.2812   -1.4333 C   0  0  0  0  0  0  0  0  0  0  0  0
    0.1060    2.1300   -0.4432 C   0  0  0  0  0  0  0  0  0  0  0  0
   -0.7358    3.1504   -0.9256 C   0  0  0  0  0  0  0  0  0  0  0  0
   -1.2808    2.9759   -1.8645 H   0  0  0  0  0  0  0  0  0  0  0  0
   -0.8612    4.3612   -0.2307 C   0  0  0  0  0  0  0  0  0  0  0  0
   -1.5168    5.1513   -0.6255 H   0  0  0  0  0  0  0  0  0  0  0  0
   -0.1503    4.5694    0.9619 C   0  0  0  0  0  0  0  0  0  0  0  0
   -0.2489    5.5176    1.5097 H   0  0  0  0  0  0  0  0  0  0  0  0
    0.6880    3.5607    1.4597 C   0  0  0  0  0  0  0  0  0  0  0  0
    1.2433    3.7061    2.3983 H   0  0  0  0  0  0  0  0  0  0  0  0
    0.8159    2.3454    0.7698 C   0  0  0  0  0  0  0  0  0  0  0  0
    1.4216    0.1169    1.7434 C   0  0  0  0  0  0  0  0  0  0  0  0
    2.4414   -1.9718    2.7323 C   0  0  0  0  0  0  0  0  0  0  0  0
    1.4398   -2.3529    2.4486 H   0  0  0  0  0  0  0  0  0  0  0  0
    2.6238   -2.1011    4.2450 C   0  0  0  0  0  0  0  0  0  0  0  0
    3.5987   -1.6836    4.5743 H   0  0  0  0  0  0  0  0  0  0  0  0
    2.6040   -3.1682    4.5404 H   0  0  0  0  0  0  0  0  0  0  0  0
    1.8148   -1.5767    4.7899 H   0  0  0  0  0  0  0  0  0  0  0  0
    3.5127   -2.7041    1.9207 C   0  0  0  0  0  0  0  0  0  0  0  0
    3.3064   -2.6189    0.8353 H   0  0  0  0  0  0  0  0  0  0  0  0
    3.5243   -3.7785    2.1894 H   0  0  0  0  0  0  0  0  0  0  0  0
    4.5268   -2.3004    2.1268 H   0  0  0  0  0  0  0  0  0  0  0  0
    2.3838    1.9613   -1.8381 H   0  0  0  0  0  0  0  0  0  0  0  0
    2.7142    1.6135    1.2507 H   0  0  0  0  0  0  0  0  0  0  0  0
    3.2980   -0.0412    2.5143 H   0  0  0  0  0  0  0  0  0  0  0  0
  2 28  2  0  0  0  0
  3 17  1  0  0  0  0
  4 18  1  0  0  0  0
  5 28  1  0  0  0  0
  6 41  1  0  0  0  0
  6 29  1  0  0  0  0
  7 10  1  0  0  0  0
  7 15  1  0  0  0  0
  8  7  1  0  0  0  0
  9  7  1  0  0  0  0
 11 12  1  0  0  0  0
 11 14  1  0  0  0  0
 13 11  1  0  0  0  0
 15  3  1  0  0  0  0
 15 11  1  0  0  0  0
 16 15  1  0  0  0  0
 17  1  2  0  0  0  0
 17  4  1  0  0  0  0
 18 27  1  0  0  0  0
 19 18  2  0  0  0  0
 19 21  1  0  0  0  0
 20 19  1  0  0  0  0
 21 23  2  0  0  0  0
 22 21  1  0  0  0  0
 23 25  1  0  0  0  0
 23 24  1  0  0  0  0
 25 26  1  0  0  0  0
 27  5  1  0  0  0  0
 27 25  2  0  0  0  0
 28  6  1  0  0  0  0
 29 31  1  0  0  0  0
 30 29  1  0  0  0  0
 31 33  1  0  0  0  0
 31 32  1  0  0  0  0
 31 34  1  0  0  0  0
 35 38  1  0  0  0  0
 35 37  1  0  0  0  0
 35 29  1  0  0  0  0
 36 35  1  0  0  0  0
 39  3  1  0  0  0  0
 40  5  1  0  0  0  0
M  END
