5
q = 0.0, confidence = 0.998

 24 25  0  0  0  0  0  0  0  0999 V2000
   -5.4219   -1.2958    1.9901 O   0  0  0  0  0  0  0  0  0  0  0  0
   -6.8166   -2.3750   -1.1184 N   0  0  0  0  0  0  0  0  0  0  0  0
   -4.8856   -0.8156   -0.2238 N   0  0  0  0  0  0  0  0  0  0  0  0
   -5.2336   -1.0831   -1.1588 H   0  0  0  0  0  0  0  0  0  0  0  0
   -1.6460    1.8357   -0.0522 N   0  0  0  0  0  2  0  0  0  0  0  0
   -7.7823   -3.1483   -1.6328 C   0  0  0  0  0  0  0  0  0  0  0  0
   -7.8505   -3.1866   -2.7337 H   0  0  0  0  0  0  0  0  0  0  0  0
   -8.6762   -3.8831   -0.8345 C   0  0  0  0  0  0  0  0  0  0  0  0
   -9.4532   -4.5036   -1.3045 H   0  0  0  0  0  0  0  0  0  0  0  0
   -8.5534   -3.8047    0.5611 C   0  0  0  0  0  0  0  0  0  0  0  0
   -9.2368   -4.3664    1.2159 H   0  0  0  0  0  0  0  0  0  0  0  0
   -7.5462   -2.9985    1.1067 C   0  0  0  0  0  0  0  0  0  0  0  0
   -7.3873   -2.8854    2.1883 H   0  0  0  0  0  0  0  0  0  0  0  0
   -6.7045   -2.3042    0.2221 C   0  0  0  0  0  0  0  0  0  0  0  0
   -5.6082   -1.4234    0.7831 C   0  0  0  0  0  0  0  0  0  0  0  0
   -3.8159    0.0616   -0.1254 C   0  0  0  0  0  0  0  0  0  0  0  0
   -3.2305    0.5530   -1.3170 C   0  0  0  0  0  0  0  0  0  0  0  0
   -3.6208    0.2499   -2.3003 H   0  0  0  0  0  0  0  0  0  0  0  0
   -2.1549    1.4337   -1.2347 C   0  0  0  0  0  3  0  0  0  0  0  0
   -1.6693    1.8707   -2.1253 H   0  0  0  0  0  0  0  0  0  0  0  0
   -3.2816    0.4997    1.1101 C   0  0  0  0  0  0  0  0  0  0  0  0
   -3.7175    0.1483    2.0524 H   0  0  0  0  0  0  0  0  0  0  0  0
   -2.2039    1.3858    1.0898 C   0  0  0  0  0  0  0  0  0  0  0  0
   -1.7566    1.7890    2.0153 H   0  0  0  0  0  0  0  0  0  0  0  0
  2 14  1  0  0  0  0
  3 16  1  0  0  0  0
  3 15  1  0  0  0  0
  4  3  1  0  0  0  0
  5 23  1  0  0  0  0
  6  2  2  0  0  0  0
  6  8  1  0  0  0  0
  7  6  1  0  0  0  0
  8 10  2  0  0  0  0
  9  8  1  0  0  0  0
 10 12  1  0  0  0  0
 10 11  1  0  0  0  0
 12 13  1  0  0  0  0
 14 15  1  0  0  0  0
 14 12  2  0  0  0  0
 15  1  2  0  0  0  0
 16 21  1  0  0  0  0
 17 19  1  0  0  0  0
 17 16  2  0  0  0  0
 18 17  1  0  0  0  0
 19  5  1  0  0  0  0
 20 19  1  0  0  0  0
 21 22  1  0  0  0  0
 23 21  2  0  0  0  0
 23 24  1  0  0  0  0
M  END
