1
q = 0.0, confidence = 0.994

 20 21  0  0  0  0  0  0  0  0999 V2000
    2.0431   -0.7189   -0.3034 N   0  0  0  0  0  2  0  0  0  0  0  0
    2.9653    0.1775   -0.7901 C   0  0  0  0  0  0  0  0  0  0  0  0
    4.3620   -0.1561   -0.8828 C   0  0  0  0  0  0  0  0  0  0  0  0
    2.4329   -1.9379    0.0964 C   0  0  0  0  0  0  0  0  0  0  0  0
    1.3899   -2.8712    0.6320 C   0  0  0  0  0  0  0  0  0  0  0  0
    0.5906   -3.0281   -0.1228 H   0  0  0  0  0  0  0  0  0  0  0  0
    0.8900   -2.4215    1.5206 H   0  0  0  0  0  0  0  0  0  0  0  0
    1.8192   -3.8535    0.9017 H   0  0  0  0  0  0  0  0  0  0  0  0
    2.5395    1.4679   -1.2107 C   0  0  0  0  0  0  0  0  0  0  0  0
    1.4655    1.7041   -1.1298 H   0  0  0  0  0  0  0  0  0  0  0  0
    4.7556   -1.4527   -0.4523 C   0  0  0  0  0  0  0  0  0  0  0  0
    5.8169   -1.7417   -0.5048 H   0  0  0  0  0  0  0  0  0  0  0  0
    4.8343    2.0624   -1.7861 C   0  0  0  0  0  0  0  0  0  0  0  0
    5.5480    2.8054   -2.1719 H   0  0  0  0  0  0  0  0  0  0  0  0
    3.4546    2.3897   -1.6965 C   0  0  0  0  0  0  0  0  0  0  0  0
    3.1094    3.3848   -2.0148 H   0  0  0  0  0  0  0  0  0  0  0  0
    5.2782    0.8108   -1.3872 C   0  0  0  0  0  3  0  0  0  0  0  0
    6.3448    0.5450   -1.4502 H   0  0  0  0  0  0  0  0  0  0  0  0
    3.8029   -2.3311    0.0282 C   0  0  0  0  0  0  0  0  0  0  0  0
    4.0820   -3.3384    0.3680 H   0  0  0  0  0  0  0  0  0  0  0  0
  1  4  1  0  0  0  0
  2  1  1  0  0  0  0
  3  2  1  0  0  0  0
  3 11  2  0  0  0  0
  4  5  1  0  0  0  0
  5  8  1  0  0  0  0
  5  7  1  0  0  0  0
  6  5  1  0  0  0  0
  9 10  1  0  0  0  0
  9  2  2  0  0  0  0
 11 19  1  0  0  0  0
 12 11  1  0  0  0  0
 13 15  2  0  0  0  0
 13 17  1  0  0  0  0
 14 13  1  0  0  0  0
 15  9  1  0  0  0  0
 16 15  1  0  0  0  0
 17  3  1  0  0  0  0
 18 17  1  0  0  0  0
 19  4  2  0  0  0  0
 19 20  1  0  0  0  0
M  END
