2
q = 0.0, confidence = 1.0

 22 21  0  0  1  0  0  0  0  0999 V2000
    3.2925    0.0124   -0.8109 O   0  0  0  0  0  0  0  0  0  0  0  0
    1.4595    1.3044   -0.5642 N   0  0  0  0  0  2  0  0  0  0  0  0
    1.0908    2.2592   -0.6058 H   0  0  0  0  0  0  0  0  0  0  0  0
    3.5713    2.2492   -0.1915 N   0  0  0  0  0  0  0  0  0  0  0  0
    4.4630   -0.3532   -0.0125 N   0  0  0  0  0  2  0  0  0  0  0  0
    3.6049   -2.5091   -0.5347 N   0  0  0  0  0  4  0  0  0  0  0  0
    2.7032   -2.1317   -0.8730 H   0  0  0  0  0  0  0  0  0  0  0  0
    3.5720   -3.4648   -0.1827 H   0  0  0  0  0  0  0  0  0  0  0  0
    2.7694    1.1986   -0.5017 C   0  0  2  0  0  3  0  0  0  0  0  0
    3.0489    3.3713    0.5726 C   0  0  0  0  0  0  0  0  0  0  0  0
    2.1288    3.0682    1.1088 H   0  0  0  0  0  0  0  0  0  0  0  0
    3.8061    3.6846    1.3211 H   0  0  0  0  0  0  0  0  0  0  0  0
    2.8222    4.2499   -0.0733 H   0  0  0  0  0  0  0  0  0  0  0  0
    4.9388    2.3648   -0.6765 C   0  0  0  0  0  0  0  0  0  0  0  0
    5.0689    3.3506   -1.1734 H   0  0  0  0  0  0  0  0  0  0  0  0
    5.6650    2.2766    0.1575 H   0  0  0  0  0  0  0  0  0  0  0  0
    5.1555    1.5611   -1.3987 H   0  0  0  0  0  0  0  0  0  0  0  0
    4.4773   -1.6601    0.0608 C   0  0  0  0  0  0  0  0  0  0  0  0
    5.6071   -2.2384    0.8671 C   0  0  0  0  0  0  0  0  0  0  0  0
    6.2795   -1.4302    1.2044 H   0  0  0  0  0  0  0  0  0  0  0  0
    5.2041   -2.7629    1.7581 H   0  0  0  0  0  0  0  0  0  0  0  0
    6.1844   -2.9695    0.2654 H   0  0  0  0  0  0  0  0  0  0  0  0
  1  5  1  0  0  0  0
  2  9  1  0  0  0  0
  3  2  1  0  0  0  0
  4 10  1  0  0  0  0
  5 18  1  0  0  0  0
  6  8  1  0  0  0  0
  6 18  2  0  0  0  0
  7  6  1  0  0  0  0
  9  1  1  6  0  0  0
  9  4  1  0  0  0  0
 10 11  1  0  0  0  0
 10 12  1  0  0  0  0
 13 10  1  0  0  0  0
 14  4  1  0  0  0  0
 14 16  1  0  0  0  0
 15 14  1  0  0  0  0
 17 14  1  0  0  0  0
 18 19  1  0  0  0  0
 19 20  1  0  0  0  0
 19 21  1  0  0  0  0
 22 19  1  0  0  0  0
M  END
