2
q = -1.0

 11 10  0  0  0  0  0  0  0  0999 V2000
    0.0046   -0.9441    1.8788 O   0  0  0  0  0  0  0  0  0  0  0  0
    0.0055   -2.2786    0.1165 N   0  0  0  0  0  2  0  0  0  0  0  0
    0.0070   -2.1592    1.4345 C   0  0  0  0  0  0  0  0  0  0  0  0
    0.0112   -3.3236    2.3911 C   0  0  0  0  0  0  0  0  0  0  0  0
    0.9026   -3.9614    2.2198 H   0  0  0  0  0  0  0  0  0  0  0  0
   -0.8796   -3.9638    2.2244 H   0  0  0  0  0  0  0  0  0  0  0  0
    0.0132   -2.9593    3.4336 H   0  0  0  0  0  0  0  0  0  0  0  0
    0.0077   -3.5291   -0.5977 C   0  0  0  0  0  0  0  0  0  0  0  0
   -0.0055   -3.3236   -1.6849 H   0  0  0  0  0  0  0  0  0  0  0  0
   -0.8822   -4.1562   -0.3591 H   0  0  0  0  0  0  0  0  0  0  0  0
    0.9128   -4.1414   -0.3785 H   0  0  0  0  0  0  0  0  0  0  0  0
  2  3  1  0  0  0  0
  3  1  2  0  0  0  0
  3  4  1  0  0  0  0
  4  7  1  0  0  0  0
  5  4  1  0  0  0  0
  6  4  1  0  0  0  0
  8 11  1  0  0  0  0
  8 10  1  0  0  0  0
  8  2  1  0  0  0  0
  9  8  1  0  0  0  0
M  END
