2
q = 0.0, confidence = 0.994

 56 59  0  0  0  0  0  0  0  0999 V2000
    1.5854   -0.3402    0.0451 P   0  0  0  0  0  0  0  0  0  0  0  0
   -1.3553   -0.8135   -0.6071 N   0  0  0  0  0  2  0  0  0  0  0  0
   -0.9355   -1.8793   -1.2280 C   0  0  0  0  0  3  0  0  0  0  0  0
   -1.6887   -2.6695   -1.4182 H   0  0  0  0  0  0  0  0  0  0  0  0
    0.3997   -2.2039   -1.7256 C   0  0  0  0  0  0  0  0  0  0  0  0
    1.6159   -1.6082   -1.2845 C   0  0  0  0  0  0  0  0  0  0  0  0
    2.8350   -2.0734   -1.8073 C   0  0  0  0  0  0  0  0  0  0  0  0
    3.7790   -1.6390   -1.4485 H   0  0  0  0  0  0  0  0  0  0  0  0
    2.8672   -3.0889   -2.7785 C   0  0  0  0  0  0  0  0  0  0  0  0
    3.8342   -3.4260   -3.1805 H   0  0  0  0  0  0  0  0  0  0  0  0
    1.6738   -3.6799   -3.2167 C   0  0  0  0  0  0  0  0  0  0  0  0
    1.6915   -4.4820   -3.9687 H   0  0  0  0  0  0  0  0  0  0  0  0
    0.4564   -3.2525   -2.6753 C   0  0  0  0  0  0  0  0  0  0  0  0
   -0.4826   -3.7299   -2.9961 H   0  0  0  0  0  0  0  0  0  0  0  0
   -2.7530   -0.8188   -0.2607 C   0  0  0  0  0  0  0  0  0  0  0  0
   -3.0989   -0.7981    1.1160 C   0  0  0  0  0  0  0  0  0  0  0  0
   -4.4584   -0.7724    1.4577 C   0  0  0  0  0  0  0  0  0  0  0  0
   -4.7322   -0.7641    2.5249 H   0  0  0  0  0  0  0  0  0  0  0  0
   -5.4762   -0.7546    0.4817 C   0  0  0  0  0  0  0  0  0  0  0  0
   -5.0922   -0.7702   -0.8691 C   0  0  0  0  0  0  0  0  0  0  0  0
   -5.8709   -0.7441   -1.6478 H   0  0  0  0  0  0  0  0  0  0  0  0
   -3.7428   -0.8141   -1.2739 C   0  0  0  0  0  0  0  0  0  0  0  0
   -2.0241   -0.8064    2.1661 C   0  0  0  0  0  0  0  0  0  0  0  0
   -1.4150   -1.7333    2.1329 H   0  0  0  0  0  0  0  0  0  0  0  0
   -2.4474   -0.7062    3.1825 H   0  0  0  0  0  0  0  0  0  0  0  0
   -1.3056    0.0311    1.9961 H   0  0  0  0  0  0  0  0  0  0  0  0
   -6.9269   -0.7309    0.8860 C   0  0  0  0  0  0  0  0  0  0  0  0
   -7.2260   -1.6981    1.3422 H   0  0  0  0  0  0  0  0  0  0  0  0
   -7.1226    0.0537    1.6447 H   0  0  0  0  0  0  0  0  0  0  0  0
   -7.5922   -0.5483    0.0211 H   0  0  0  0  0  0  0  0  0  0  0  0
   -3.4087   -0.8485   -2.7474 C   0  0  0  0  0  0  0  0  0  0  0  0
   -2.4363   -0.3721   -2.9810 H   0  0  0  0  0  0  0  0  0  0  0  0
   -4.1932   -0.3346   -3.3351 H   0  0  0  0  0  0  0  0  0  0  0  0
   -3.3560   -1.8896   -3.1315 H   0  0  0  0  0  0  0  0  0  0  0  0
    1.5709   -1.3221    1.5998 C   0  0  0  0  0  0  0  0  0  0  0  0
    1.7583   -2.7186    1.6050 C   0  0  0  0  0  0  0  0  0  0  0  0
    1.9388   -3.2580    0.6638 H   0  0  0  0  0  0  0  0  0  0  0  0
    1.7149   -3.4276    2.8160 C   0  0  0  0  0  0  0  0  0  0  0  0
    1.8574   -4.5186    2.8122 H   0  0  0  0  0  0  0  0  0  0  0  0
    1.4967   -2.7505    4.0256 C   0  0  0  0  0  0  0  0  0  0  0  0
    1.4655   -3.3098    4.9724 H   0  0  0  0  0  0  0  0  0  0  0  0
    1.3159   -1.3572    4.0255 C   0  0  0  0  0  0  0  0  0  0  0  0
    1.1427   -0.8220    4.9711 H   0  0  0  0  0  0  0  0  0  0  0  0
    1.3426   -0.6457    2.8187 C   0  0  0  0  0  0  0  0  0  0  0  0
    1.1747    0.4418    2.8224 H   0  0  0  0  0  0  0  0  0  0  0  0
    3.2501    0.4288   -0.0324 C   0  0  0  0  0  0  0  0  0  0  0  0
    3.6517    1.0433   -1.2416 C   0  0  0  0  0  0  0  0  0  0  0  0
    2.9930    1.0066   -2.1240 H   0  0  0  0  0  0  0  0  0  0  0  0
    4.8986    1.6762   -1.3300 C   0  0  0  0  0  0  0  0  0  0  0  0
    5.2077    2.1435   -2.2768 H   0  0  0  0  0  0  0  0  0  0  0  0
    5.7496    1.7150   -0.2122 C   0  0  0  0  0  0  0  0  0  0  0  0
    6.7262    2.2166   -0.2815 H   0  0  0  0  0  0  0  0  0  0  0  0
    5.3543    1.1087    0.9893 C   0  0  0  0  0  0  0  0  0  0  0  0
    6.0215    1.1295    1.8639 H   0  0  0  0  0  0  0  0  0  0  0  0
    4.1105    0.4633    1.0826 C   0  0  0  0  0  0  0  0  0  0  0  0
    3.8166   -0.0235    2.0239 H   0  0  0  0  0  0  0  0  0  0  0  0
  1 35  1  0  0  0  0
  2 15  1  0  0  0  0
  3  2  1  0  0  0  0
  4  3  1  0  0  0  0
  5  6  1  0  0  0  0
  5  3  1  0  0  0  0
  6  1  1  0  0  0  0
  7  8  1  0  0  0  0
  7  6  2  0  0  0  0
  9  7  1  0  0  0  0
 10  9  1  0  0  0  0
 11  9  2  0  0  0  0
 11 13  1  0  0  0  0
 12 11  1  0  0  0  0
 13  5  2  0  0  0  0
 14 13  1  0  0  0  0
 15 16  1  0  0  0  0
 16 17  2  0  0  0  0
 16 23  1  0  0  0  0
 17 18  1  0  0  0  0
 19 27  1  0  0  0  0
 19 17  1  0  0  0  0
 20 19  2  0  0  0  0
 21 20  1  0  0  0  0
 22 20  1  0  0  0  0
 22 15  2  0  0  0  0
 23 25  1  0  0  0  0
 24 23  1  0  0  0  0
 26 23  1  0  0  0  0
 27 28  1  0  0  0  0
 27 29  1  0  0  0  0
 30 27  1  0  0  0  0
 31 22  1  0  0  0  0
 32 31  1  0  0  0  0
 33 31  1  0  0  0  0
 34 31  1  0  0  0  0
 35 36  2  0  0  0  0
 35 44  1  0  0  0  0
 36 38  1  0  0  0  0
 37 36  1  0  0  0  0
 38 40  2  0  0  0  0
 39 38  1  0  0  0  0
 40 41  1  0  0  0  0
 42 40  1  0  0  0  0
 42 43  1  0  0  0  0
 44 45  1  0  0  0  0
 44 42  2  0  0  0  0
 46  1  1  0  0  0  0
 46 55  1  0  0  0  0
 47 46  2  0  0  0  0
 48 47  1  0  0  0  0
 49 47  1  0  0  0  0
 49 51  2  0  0  0  0
 50 49  1  0  0  0  0
 51 53  1  0  0  0  0
 52 51  1  0  0  0  0
 53 55  2  0  0  0  0
 53 54  1  0  0  0  0
 55 56  1  0  0  0  0
M  END
