2
q = 0.0, confidence = 0.996

 55 57  0  0  0  0  0  0  0  0999 V2000
   -1.5646   -0.0643    0.2832 P   0  0  0  0  0  0  0  0  0  0  0  0
    1.2894   -0.3176    0.7734 N   0  0  0  0  0  2  0  0  0  0  0  0
    0.6376   -0.4373    1.8848 C   0  0  0  0  0  3  0  0  0  0  0  0
    1.1966   -0.4124    2.8445 H   0  0  0  0  0  0  0  0  0  0  0  0
   -0.8452   -0.7046    1.9428 C   0  0  0  0  0  0  0  0  0  0  0  0
   -1.4990   -0.1131    3.1982 C   0  0  0  0  0  0  0  0  0  0  0  0
   -1.4124    0.9881    3.2477 H   0  0  0  0  0  0  0  0  0  0  0  0
   -1.0313   -0.5410    4.1092 H   0  0  0  0  0  0  0  0  0  0  0  0
   -2.5737   -0.3763    3.2287 H   0  0  0  0  0  0  0  0  0  0  0  0
   -1.0117   -2.2479    1.9340 C   0  0  0  0  0  0  0  0  0  0  0  0
   -2.0805   -2.5164    2.0398 H   0  0  0  0  0  0  0  0  0  0  0  0
   -0.4588   -2.6933    2.7861 H   0  0  0  0  0  0  0  0  0  0  0  0
   -0.6240   -2.6961    0.9973 H   0  0  0  0  0  0  0  0  0  0  0  0
    2.7231   -0.2401    0.7705 C   0  0  0  0  0  0  0  0  0  0  0  0
    3.3430    0.9892    0.4447 C   0  0  0  0  0  0  0  0  0  0  0  0
    4.7460    1.0175    0.3731 C   0  0  0  0  0  0  0  0  0  0  0  0
    5.2405    1.9708    0.1270 H   0  0  0  0  0  0  0  0  0  0  0  0
    5.5328   -0.1277    0.6016 C   0  0  0  0  0  0  0  0  0  0  0  0
    4.8714   -1.3342    0.8989 C   0  0  0  0  0  0  0  0  0  0  0  0
    5.4651   -2.2488    1.0561 H   0  0  0  0  0  0  0  0  0  0  0  0
    3.4713   -1.4220    0.9895 C   0  0  0  0  0  0  0  0  0  0  0  0
    2.5250    2.2285    0.1968 C   0  0  0  0  0  0  0  0  0  0  0  0
    1.6499    2.0204   -0.4564 H   0  0  0  0  0  0  0  0  0  0  0  0
    3.1344    3.0227   -0.2736 H   0  0  0  0  0  0  0  0  0  0  0  0
    2.1179    2.6446    1.1429 H   0  0  0  0  0  0  0  0  0  0  0  0
    7.0365   -0.0597    0.5481 C   0  0  0  0  0  0  0  0  0  0  0  0
    7.3867    0.7259   -0.1492 H   0  0  0  0  0  0  0  0  0  0  0  0
    7.4796   -1.0256    0.2371 H   0  0  0  0  0  0  0  0  0  0  0  0
    7.4540    0.1832    1.5488 H   0  0  0  0  0  0  0  0  0  0  0  0
    2.7937   -2.7434    1.2537 C   0  0  0  0  0  0  0  0  0  0  0  0
    2.2919   -2.7746    2.2433 H   0  0  0  0  0  0  0  0  0  0  0  0
    3.5261   -3.5714    1.2339 H   0  0  0  0  0  0  0  0  0  0  0  0
    2.0126   -2.9568    0.4934 H   0  0  0  0  0  0  0  0  0  0  0  0
   -3.1469   -0.9411    0.0736 C   0  0  0  0  0  0  0  0  0  0  0  0
   -3.2141   -1.9984   -0.8569 C   0  0  0  0  0  0  0  0  0  0  0  0
   -2.3340   -2.2320   -1.4751 H   0  0  0  0  0  0  0  0  0  0  0  0
   -4.3947   -2.7438   -0.9913 C   0  0  0  0  0  0  0  0  0  0  0  0
   -4.4430   -3.5658   -1.7207 H   0  0  0  0  0  0  0  0  0  0  0  0
   -5.5124   -2.4367   -0.1997 C   0  0  0  0  0  0  0  0  0  0  0  0
   -6.4392   -3.0197   -0.3074 H   0  0  0  0  0  0  0  0  0  0  0  0
   -5.4523   -1.3813    0.7263 C   0  0  0  0  0  0  0  0  0  0  0  0
   -6.3304   -1.1374    1.3426 H   0  0  0  0  0  0  0  0  0  0  0  0
   -4.2757   -0.6325    0.8665 C   0  0  0  0  0  0  0  0  0  0  0  0
   -4.2414    0.2020    1.5830 H   0  0  0  0  0  0  0  0  0  0  0  0
   -1.9594    1.7091    0.4864 C   0  0  0  0  0  0  0  0  0  0  0  0
   -1.0557    2.5658    1.1524 C   0  0  0  0  0  0  0  0  0  0  0  0
   -0.1460    2.1619    1.6198 H   0  0  0  0  0  0  0  0  0  0  0  0
   -1.3019    3.9440    1.2137 C   0  0  0  0  0  0  0  0  0  0  0  0
   -0.5955    4.6005    1.7435 H   0  0  0  0  0  0  0  0  0  0  0  0
   -2.4429    4.4846    0.5988 C   0  0  0  0  0  0  0  0  0  0  0  0
   -2.6349    5.5667    0.6473 H   0  0  0  0  0  0  0  0  0  0  0  0
   -3.3347    3.6410   -0.0812 C   0  0  0  0  0  0  0  0  0  0  0  0
   -4.2270    4.0596   -0.5701 H   0  0  0  0  0  0  0  0  0  0  0  0
   -3.0974    2.2596   -0.1422 C   0  0  0  0  0  0  0  0  0  0  0  0
   -3.8015    1.6095   -0.6821 H   0  0  0  0  0  0  0  0  0  0  0  0
  1 45  1  0  0  0  0
  1  5  1  0  0  0  0
  2  3  1  0  0  0  0
  3  5  1  0  0  0  0
  3  4  1  0  0  0  0
  5  6  1  0  0  0  0
  6  9  1  0  0  0  0
  6  7  1  0  0  0  0
  6  8  1  0  0  0  0
 10  5  1  0  0  0  0
 10 11  1  0  0  0  0
 10 12  1  0  0  0  0
 13 10  1  0  0  0  0
 14  2  1  0  0  0  0
 14 21  1  0  0  0  0
 15 14  2  0  0  0  0
 16 15  1  0  0  0  0
 16 18  2  0  0  0  0
 17 16  1  0  0  0  0
 18 19  1  0  0  0  0
 19 21  2  0  0  0  0
 19 20  1  0  0  0  0
 21 30  1  0  0  0  0
 22 15  1  0  0  0  0
 22 25  1  0  0  0  0
 23 22  1  0  0  0  0
 24 22  1  0  0  0  0
 26 18  1  0  0  0  0
 26 29  1  0  0  0  0
 27 26  1  0  0  0  0
 28 26  1  0  0  0  0
 30 31  1  0  0  0  0
 32 30  1  0  0  0  0
 33 30  1  0  0  0  0
 34  1  1  0  0  0  0
 34 43  1  0  0  0  0
 35 34  2  0  0  0  0
 36 35  1  0  0  0  0
 37 35  1  0  0  0  0
 37 39  2  0  0  0  0
 38 37  1  0  0  0  0
 39 41  1  0  0  0  0
 40 39  1  0  0  0  0
 41 43  2  0  0  0  0
 41 42  1  0  0  0  0
 43 44  1  0  0  0  0
 45 46  1  0  0  0  0
 46 48  2  0  0  0  0
 46 47  1  0  0  0  0
 48 49  1  0  0  0  0
 50 51  1  0  0  0  0
 50 48  1  0  0  0  0
 52 50  2  0  0  0  0
 53 52  1  0  0  0  0
 54 52  1  0  0  0  0
 54 45  2  0  0  0  0
 55 54  1  0  0  0  0
M  END
