1
q = -1.0

 47 49  0  0  0  0  0  0  0  0999 V2000
    0.0403   -0.9327   -0.0306 N   0  0  0  0  0  2  0  0  0  0  0  0
   -0.7568    1.1050   -0.1998 N   0  0  0  0  0  2  0  0  0  0  0  0
    1.6190    0.8390   -0.5000 N   0  0  0  0  0  0  0  0  0  0  0  0
    1.8697    1.7200   -0.0445 H   0  0  0  0  0  0  0  0  0  0  0  0
    1.6246   -0.0984    2.2068 F   0  0  0  0  0  0  0  0  0  0  0  0
    2.8559   -1.6203    3.1489 F   0  0  0  0  0  0  0  0  0  0  0  0
    0.6821   -1.8090    3.1683 F   0  0  0  0  0  0  0  0  0  0  0  0
    0.9413    2.6647    1.6735 F   0  0  0  0  0  0  0  0  0  0  0  0
   -1.1533    2.7543    2.2857 F   0  0  0  0  0  0  0  0  0  0  0  0
    0.0205    4.5818    2.1398 F   0  0  0  0  0  0  0  0  0  0  0  0
    4.2176    0.4870    1.2028 F   0  0  0  0  0  0  0  0  0  0  0  0
    3.8587    2.3844    0.1853 F   0  0  0  0  0  0  0  0  0  0  0  0
    5.7894    1.3837   -0.0098 F   0  0  0  0  0  0  0  0  0  0  0  0
    0.3523    0.3510   -0.2343 C   0  0  0  0  0  3  0  0  0  0  0  0
    0.8703   -2.0476    0.0542 C   0  0  0  0  0  0  0  0  0  0  0  0
    0.7593   -3.0392   -0.9490 C   0  0  0  0  0  0  0  0  0  0  0  0
    0.0255   -2.8600   -1.7499 H   0  0  0  0  0  0  0  0  0  0  0  0
    1.5764   -4.1722   -0.9337 C   0  0  0  0  0  0  0  0  0  0  0  0
    1.4818   -4.9220   -1.7340 H   0  0  0  0  0  0  0  0  0  0  0  0
    2.5288   -4.3417    0.0853 C   0  0  0  0  0  0  0  0  0  0  0  0
    3.1910   -5.2197    0.0928 H   0  0  0  0  0  0  0  0  0  0  0  0
    2.6143   -3.3946    1.1119 C   0  0  0  0  0  0  0  0  0  0  0  0
    3.3235   -3.5383    1.9386 H   0  0  0  0  0  0  0  0  0  0  0  0
    1.7845   -2.2566    1.1252 C   0  0  0  0  0  0  0  0  0  0  0  0
    1.7543   -1.4273    2.3891 C   0  0  0  0  0  0  0  0  0  0  0  0
   -0.8881    2.4050   -0.7064 C   0  0  0  0  0  0  0  0  0  0  0  0
   -1.3573    2.6021   -2.0248 C   0  0  0  0  0  0  0  0  0  0  0  0
   -1.5603    1.7033   -2.6281 H   0  0  0  0  0  0  0  0  0  0  0  0
   -1.5432    3.8925   -2.5325 C   0  0  0  0  0  0  0  0  0  0  0  0
   -1.9014    4.0206   -3.5656 H   0  0  0  0  0  0  0  0  0  0  0  0
   -1.2661    5.0177   -1.7384 C   0  0  0  0  0  0  0  0  0  0  0  0
   -1.4057    6.0330   -2.1376 H   0  0  0  0  0  0  0  0  0  0  0  0
   -0.8131    4.8399   -0.4259 C   0  0  0  0  0  0  0  0  0  0  0  0
   -0.6023    5.7089    0.2124 H   0  0  0  0  0  0  0  0  0  0  0  0
   -0.6291    3.5480    0.1004 C   0  0  0  0  0  0  0  0  0  0  0  0
   -0.2059    3.3926    1.5393 C   0  0  0  0  0  0  0  0  0  0  0  0
    2.5504    0.2362   -1.3539 C   0  0  0  0  0  0  0  0  0  0  0  0
    2.1090   -0.5295   -2.4554 C   0  0  0  0  0  0  0  0  0  0  0  0
    1.0264   -0.6320   -2.6353 H   0  0  0  0  0  0  0  0  0  0  0  0
    3.0338   -1.1218   -3.3202 C   0  0  0  0  0  0  0  0  0  0  0  0
    2.6645   -1.7150   -4.1705 H   0  0  0  0  0  0  0  0  0  0  0  0
    4.4136   -0.9450   -3.1275 C   0  0  0  0  0  0  0  0  0  0  0  0
    5.1396   -1.4016   -3.8155 H   0  0  0  0  0  0  0  0  0  0  0  0
    4.8593   -0.1715   -2.0493 C   0  0  0  0  0  0  0  0  0  0  0  0
    5.9338   -0.0186   -1.8788 H   0  0  0  0  0  0  0  0  0  0  0  0
    3.9458    0.4137   -1.1558 C   0  0  0  0  0  0  0  0  0  0  0  0
    4.4595    1.1579    0.0489 C   0  0  0  0  0  0  0  0  0  0  0  0
  1 15  1  0  0  0  0
  3 14  1  0  0  0  0
  3  4  1  0  0  0  0
  5 25  1  0  0  0  0
 13 47  1  0  0  0  0
 14  2  1  0  0  0  0
 14  1  1  0  0  0  0
 15 24  1  0  0  0  0
 16 18  1  0  0  0  0
 16 15  2  0  0  0  0
 17 16  1  0  0  0  0
 18 20  2  0  0  0  0
 19 18  1  0  0  0  0
 20 21  1  0  0  0  0
 20 22  1  0  0  0  0
 22 24  2  0  0  0  0
 22 23  1  0  0  0  0
 24 25  1  0  0  0  0
 25  6  1  0  0  0  0
 25  7  1  0  0  0  0
 26  2  1  0  0  0  0
 26 35  1  0  0  0  0
 27 26  2  0  0  0  0
 28 27  1  0  0  0  0
 29 27  1  0  0  0  0
 29 31  2  0  0  0  0
 30 29  1  0  0  0  0
 31 33  1  0  0  0  0
 32 31  1  0  0  0  0
 33 35  2  0  0  0  0
 33 34  1  0  0  0  0
 35 36  1  0  0  0  0
 36  8  1  0  0  0  0
 36 10  1  0  0  0  0
 36  9  1  0  0  0  0
 37 46  1  0  0  0  0
 37  3  1  0  0  0  0
 38 37  2  0  0  0  0
 39 38  1  0  0  0  0
 40 42  2  0  0  0  0
 40 38  1  0  0  0  0
 41 40  1  0  0  0  0
 42 44  1  0  0  0  0
 43 42  1  0  0  0  0
 44 45  1  0  0  0  0
 44 46  2  0  0  0  0
 46 47  1  0  0  0  0
 47 12  1  0  0  0  0
 47 11  1  0  0  0  0
M  END
