3
q = 0.0, confidence = 1.0

 33 35  0  0  1  0  0  0  0  0999 V2000
    0.1483    0.1561   -1.3966 N   0  0  0  0  0  2  0  0  0  0  0  0
   -0.9632   -0.1834   -1.9283 N   0  0  0  0  0  2  0  0  0  0  0  0
   -1.9012    1.7877   -0.8535 N   0  0  0  0  0  2  0  0  0  0  0  0
   -3.2283    0.5670   -2.1716 N   0  0  0  0  0  0  0  0  0  0  0  0
    3.6363   -1.0540   -1.4430 C   0  0  0  0  0  0  0  0  0  0  0  0
   -1.9668    0.7109   -1.6495 C   0  0  2  0  0  3  0  0  0  0  0  0
   -3.9812    1.6093   -1.6868 C   0  0  0  0  0  0  0  0  0  0  0  0
   -5.0352    1.7332   -1.9550 H   0  0  0  0  0  0  0  0  0  0  0  0
    2.4999   -0.2062   -1.4626 C   0  0  0  0  0  0  0  0  0  0  0  0
    2.6055    0.8881   -1.4527 H   0  0  0  0  0  0  0  0  0  0  0  0
    3.4455   -2.4866   -1.4635 C   0  0  0  0  0  0  0  0  0  0  0  0
    1.2107   -0.7438   -1.5097 C   0  0  0  0  0  0  0  0  0  0  0  0
    1.0187   -2.1606   -1.5722 C   0  0  0  0  0  0  0  0  0  0  0  0
   -0.0099   -2.5460   -1.6099 H   0  0  0  0  0  0  0  0  0  0  0  0
   -3.1340    2.3637   -0.8726 C   0  0  0  0  0  0  0  0  0  0  0  0
   -3.3524    3.2694   -0.2951 H   0  0  0  0  0  0  0  0  0  0  0  0
    6.0562   -1.3845   -1.3029 C   0  0  0  0  0  0  0  0  0  0  0  0
    7.0748   -0.9720   -1.2454 H   0  0  0  0  0  0  0  0  0  0  0  0
    2.1137   -3.0027   -1.5385 C   0  0  0  0  0  0  0  0  0  0  0  0
    1.9729   -4.0951   -1.5570 H   0  0  0  0  0  0  0  0  0  0  0  0
    4.9634   -0.5326   -1.3691 C   0  0  0  0  0  0  0  0  0  0  0  0
    5.0980    0.5598   -1.3570 H   0  0  0  0  0  0  0  0  0  0  0  0
   -3.6701   -0.5390   -3.0222 C   0  0  0  0  0  0  0  0  0  0  0  0
   -2.8258   -0.7789   -3.6967 H   0  0  0  0  0  0  0  0  0  0  0  0
   -4.5027   -0.1583   -3.6460 H   0  0  0  0  0  0  0  0  0  0  0  0
    4.5890   -3.3311   -1.3941 C   0  0  0  0  0  0  0  0  0  0  0  0
    4.4437   -4.4226   -1.4066 H   0  0  0  0  0  0  0  0  0  0  0  0
    5.8674   -2.7937   -1.3139 C   0  0  0  0  0  0  0  0  0  0  0  0
    6.7416   -3.4603   -1.2636 H   0  0  0  0  0  0  0  0  0  0  0  0
   -4.0861   -1.7653   -2.2126 C   0  0  0  0  0  0  0  0  0  0  0  0
   -4.4252   -2.5700   -2.8944 H   0  0  0  0  0  0  0  0  0  0  0  0
   -4.9098   -1.5322   -1.5091 H   0  0  0  0  0  0  0  0  0  0  0  0
   -3.2320   -2.1483   -1.6206 H   0  0  0  0  0  0  0  0  0  0  0  0
  2  1  1  0  0  0  0
  4  7  1  0  0  0  0
  4  6  1  0  0  0  0
  5 21  1  0  0  0  0
  6  2  1  1  0  0  0
  6  3  1  0  0  0  0
  7 15  2  0  0  0  0
  8  7  1  0  0  0  0
  9 10  1  0  0  0  0
  9  5  1  0  0  0  0
 11  5  2  0  0  0  0
 11 26  1  0  0  0  0
 12  9  2  0  0  0  0
 12  1  1  0  0  0  0
 13 19  2  0  0  0  0
 13 12  1  0  0  0  0
 14 13  1  0  0  0  0
 15  3  1  0  0  0  0
 15 16  1  0  0  0  0
 17 18  1  0  0  0  0
 19 11  1  0  0  0  0
 20 19  1  0  0  0  0
 21 22  1  0  0  0  0
 21 17  2  0  0  0  0
 23 30  1  0  0  0  0
 23  4  1  0  0  0  0
 24 23  1  0  0  0  0
 25 23  1  0  0  0  0
 26 28  2  0  0  0  0
 27 26  1  0  0  0  0
 28 17  1  0  0  0  0
 28 29  1  0  0  0  0
 30 33  1  0  0  0  0
 30 32  1  0  0  0  0
 31 30  1  0  0  0  0
M  END
