11
q = 0.0, confidence = 1.0

 48 50  0  0  0  0  0  0  0  0999 V2000
   -1.6355   -0.0497   -1.4068 As  0  0  1  0  0  0  0  0  0  0  0  0
    1.5737   -1.5694    1.1653 As  0  0  1  0  0  0  0  0  0  0  0  0
   -1.7827    1.4672   -2.6324 C   0  0  0  0  0  0  0  0  0  0  0  0
   -3.4809   -0.4387   -0.8804 C   0  0  0  0  0  0  0  0  0  0  0  0
   -4.5505    0.1102   -1.6079 C   0  0  0  0  0  0  0  0  0  0  0  0
   -5.8857   -0.1605   -1.2636 C   0  0  0  0  0  0  0  0  0  0  0  0
   -6.1689   -1.0184   -0.1919 C   0  0  0  0  0  0  0  0  0  0  0  0
   -5.1142   -1.5855    0.5306 C   0  0  0  0  0  0  0  0  0  0  0  0
   -3.7602   -1.2895    0.2300 C   0  0  0  0  0  0  0  0  0  0  0  0
   -2.7879   -1.9414    1.1217 C   0  0  0  0  0  3  0  0  0  0  0  0
   -1.5493   -1.6467    1.3658 N   0  0  0  0  0  2  0  0  0  0  0  0
   -0.8462   -2.4973    2.3422 C   0  0  0  0  0  0  0  0  0  0  0  0
    0.4458   -3.0868    1.7772 C   0  0  0  0  0  0  0  0  0  0  0  0
    2.5893   -1.3183    2.8441 C   0  0  0  0  0  0  0  0  0  0  0  0
    2.9814   -2.3149    0.0112 C   0  0  0  0  0  0  0  0  0  0  0  0
    4.3171   -2.1457    0.4264 C   0  0  0  0  0  0  0  0  0  0  0  0
    5.3957   -2.5843   -0.3584 C   0  0  0  0  0  0  0  0  0  0  0  0
    5.1599   -3.2043   -1.5928 C   0  0  0  0  0  0  0  0  0  0  0  0
    3.8426   -3.3593   -2.0334 C   0  0  0  0  0  0  0  0  0  0  0  0
    2.7418   -2.9168   -1.2620 C   0  0  0  0  0  0  0  0  0  0  0  0
    1.4196   -3.0805   -1.8723 C   0  0  0  0  0  0  0  0  0  0  0  0
    0.3192   -2.7191   -1.3163 N   0  0  0  0  0  0  0  0  0  0  0  0
   -0.9037   -2.8426   -2.0858 C   0  0  0  0  0  0  0  0  0  0  0  0
   -1.3053   -1.5041   -2.7161 C   0  0  0  0  0  0  0  0  0  0  0  0
   -2.2703    2.3167   -2.1208 H   0  0  0  0  0  0  0  0  0  0  0  0
   -2.3374    1.1991   -3.5513 H   0  0  0  0  0  0  0  0  0  0  0  0
   -0.7477    1.7625   -2.8916 H   0  0  0  0  0  0  0  0  0  0  0  0
    1.8470   -1.1789    3.6528 H   0  0  0  0  0  0  0  0  0  0  0  0
    3.2153   -2.2000    3.0800 H   0  0  0  0  0  0  0  0  0  0  0  0
    3.2170   -0.4091    2.7943 H   0  0  0  0  0  0  0  0  0  0  0  0
   -1.5194   -3.3091    2.6987 H   0  0  0  0  0  0  0  0  0  0  0  0
   -0.6152   -1.8566    3.2235 H   0  0  0  0  0  0  0  0  0  0  0  0
    0.2400   -3.7334    0.9057 H   0  0  0  0  0  0  0  0  0  0  0  0
    0.9793   -3.6689    2.5537 H   0  0  0  0  0  0  0  0  0  0  0  0
   -0.8048   -3.5956   -2.9059 H   0  0  0  0  0  0  0  0  0  0  0  0
   -1.7170   -3.1972   -1.4151 H   0  0  0  0  0  0  0  0  0  0  0  0
   -2.2242   -1.6163   -3.3269 H   0  0  0  0  0  0  0  0  0  0  0  0
   -0.4937   -1.1332   -3.3762 H   0  0  0  0  0  0  0  0  0  0  0  0
   -4.3491    0.7637   -2.4694 H   0  0  0  0  0  0  0  0  0  0  0  0
   -6.7029    0.2908   -1.8459 H   0  0  0  0  0  0  0  0  0  0  0  0
   -7.2093   -1.2514    0.0775 H   0  0  0  0  0  0  0  0  0  0  0  0
   -5.3350   -2.2682    1.3662 H   0  0  0  0  0  0  0  0  0  0  0  0
   -3.2233   -2.7943    1.6866 H   0  0  0  0  0  0  0  0  0  0  0  0
    4.5417   -1.6630    1.3865 H   0  0  0  0  0  0  0  0  0  0  0  0
    6.4241   -2.4402    0.0052 H   0  0  0  0  0  0  0  0  0  0  0  0
    5.9976   -3.5578   -2.2114 H   0  0  0  0  0  0  0  0  0  0  0  0
    3.6430   -3.8304   -3.0088 H   0  0  0  0  0  0  0  0  0  0  0  0
    1.4282   -3.5311   -2.8965 H   0  0  0  0  0  0  0  0  0  0  0  0
  1  3  1  6  0  0  0
  1  4  1  0  0  0  0
  2 13  1  0  0  0  0
  2 14  1  1  0  0  0
  3 25  1  0  0  0  0
  4  9  1  0  0  0  0
  5  6  1  0  0  0  0
  5  4  2  0  0  0  0
  6  7  2  0  0  0  0
  7 41  1  0  0  0  0
  7  8  1  0  0  0  0
  8 42  1  0  0  0  0
  9  8  2  0  0  0  0
  9 10  1  0  0  0  0
 10 11  1  0  0  0  0
 10 43  1  0  0  0  0
 11 12  1  0  0  0  0
 12 31  1  0  0  0  0
 12 32  1  0  0  0  0
 13 12  1  0  0  0  0
 13 34  1  0  0  0  0
 14 29  1  0  0  0  0
 14 28  1  0  0  0  0
 15 16  1  0  0  0  0
 15  2  1  0  0  0  0
 16 44  1  0  0  0  0
 17 45  1  0  0  0  0
 17 16  2  0  0  0  0
 18 17  1  0  0  0  0
 19 18  2  0  0  0  0
 19 20  1  0  0  0  0
 20 15  2  0  0  0  0
 21 22  2  0  0  0  0
 21 20  1  0  0  0  0
 23 36  1  0  0  0  0
 23 22  1  0  0  0  0
 24 23  1  0  0  0  0
 24  1  1  0  0  0  0
 26  3  1  0  0  0  0
 27  3  1  0  0  0  0
 30 14  1  0  0  0  0
 33 13  1  0  0  0  0
 35 23  1  0  0  0  0
 37 24  1  0  0  0  0
 38 24  1  0  0  0  0
 39  5  1  0  0  0  0
 40  6  1  0  0  0  0
 46 18  1  0  0  0  0
 47 19  1  0  0  0  0
 48 21  1  0  0  0  0
M  END
