1
q = 0.0, confidence = 1.0

 46 45  0  0  0  0  0  0  0  0999 V2000
    2.0752   -1.7486   -1.1431 N   0  0  0  0  0  0  0  0  0  0  0  0
   -2.4550    2.1858   -0.1953 N   0  0  0  0  0  0  0  0  0  0  0  0
   -3.8967   -1.5801    0.3320 N   0  0  0  0  0  0  0  0  0  0  0  0
   -0.5878   -0.3180   -1.1046 N   0  0  0  0  0  0  0  0  0  0  0  0
    2.9084   -2.6534   -0.3447 C   0  0  0  0  0  0  0  0  0  0  0  0
    3.1845   -3.5750   -0.9137 H   0  0  0  0  0  0  0  0  0  0  0  0
    2.3684   -2.9485    0.5729 H   0  0  0  0  0  0  0  0  0  0  0  0
    3.8388   -2.1331   -0.0462 H   0  0  0  0  0  0  0  0  0  0  0  0
    2.8037   -1.3469   -2.3497 C   0  0  0  0  0  0  0  0  0  0  0  0
    3.0052   -2.2221   -3.0159 H   0  0  0  0  0  0  0  0  0  0  0  0
    3.7694   -0.8915   -2.0652 H   0  0  0  0  0  0  0  0  0  0  0  0
    2.2398   -0.5885   -2.9215 H   0  0  0  0  0  0  0  0  0  0  0  0
    0.7838   -2.3680   -1.4759 C   0  0  0  0  0  0  0  0  0  0  0  0
    0.3693   -2.8033   -0.5440 H   0  0  0  0  0  0  0  0  0  0  0  0
    0.9203   -3.2140   -2.1969 H   0  0  0  0  0  0  0  0  0  0  0  0
   -0.2097   -1.3682   -2.0643 C   0  0  0  0  0  0  0  0  0  0  0  0
    0.2343   -0.8786   -2.9533 H   0  0  0  0  0  0  0  0  0  0  0  0
   -1.0950   -1.9298   -2.4435 H   0  0  0  0  0  0  0  0  0  0  0  0
   -3.4944    2.6681   -1.0847 C   0  0  0  0  0  0  0  0  0  0  0  0
   -3.5334    2.0588   -2.0101 H   0  0  0  0  0  0  0  0  0  0  0  0
   -3.3469    3.7396   -1.3905 H   0  0  0  0  0  0  0  0  0  0  0  0
   -4.4849    2.5849   -0.5928 H   0  0  0  0  0  0  0  0  0  0  0  0
   -2.4265    2.9322    1.0507 C   0  0  0  0  0  0  0  0  0  0  0  0
   -3.4178    2.8763    1.5457 H   0  0  0  0  0  0  0  0  0  0  0  0
   -2.1776    4.0186    0.9125 H   0  0  0  0  0  0  0  0  0  0  0  0
   -1.6743    2.4966    1.7384 H   0  0  0  0  0  0  0  0  0  0  0  0
   -1.1450    2.1263   -0.8347 C   0  0  0  0  0  0  0  0  0  0  0  0
   -0.3673    2.0562   -0.0461 H   0  0  0  0  0  0  0  0  0  0  0  0
   -0.9218    3.0739   -1.3952 H   0  0  0  0  0  0  0  0  0  0  0  0
   -0.9303    0.9482   -1.7860 C   0  0  0  0  0  0  0  0  0  0  0  0
   -1.8129    0.8253   -2.4592 H   0  0  0  0  0  0  0  0  0  0  0  0
   -0.0704    1.1978   -2.4372 H   0  0  0  0  0  0  0  0  0  0  0  0
   -5.0368   -2.2989   -0.2018 C   0  0  0  0  0  0  0  0  0  0  0  0
   -5.6332   -2.7334    0.6267 H   0  0  0  0  0  0  0  0  0  0  0  0
   -4.6976   -3.1334   -0.8495 H   0  0  0  0  0  0  0  0  0  0  0  0
   -5.7294   -1.6543   -0.8106 H   0  0  0  0  0  0  0  0  0  0  0  0
   -4.3111   -0.5562    1.2764 C   0  0  0  0  0  0  0  0  0  0  0  0
   -3.4350   -0.0475    1.7212 H   0  0  0  0  0  0  0  0  0  0  0  0
   -4.8866   -1.0207    2.1028 H   0  0  0  0  0  0  0  0  0  0  0  0
   -4.9577    0.2362    0.8100 H   0  0  0  0  0  0  0  0  0  0  0  0
   -3.0143   -1.0782   -0.7154 C   0  0  0  0  0  0  0  0  0  0  0  0
   -3.4388   -0.1686   -1.2129 H   0  0  0  0  0  0  0  0  0  0  0  0
   -2.9494   -1.8648   -1.4968 H   0  0  0  0  0  0  0  0  0  0  0  0
   -1.6153   -0.7890   -0.1532 C   0  0  0  0  0  0  0  0  0  0  0  0
   -1.6913   -0.0361    0.6488 H   0  0  0  0  0  0  0  0  0  0  0  0
   -1.2416   -1.7137    0.3224 H   0  0  0  0  0  0  0  0  0  0  0  0
  1  5  1  0  0  0  0
  2 23  1  0  0  0  0
  3 37  1  0  0  0  0
  4 44  1  0  0  0  0
  5  8  1  0  0  0  0
  5  7  1  0  0  0  0
  6  5  1  0  0  0  0
  9 11  1  0  0  0  0
  9  1  1  0  0  0  0
 10  9  1  0  0  0  0
 12  9  1  0  0  0  0
 13  1  1  0  0  0  0
 13 14  1  0  0  0  0
 15 13  1  0  0  0  0
 16 13  1  0  0  0  0
 16  4  1  0  0  0  0
 17 16  1  0  0  0  0
 18 16  1  0  0  0  0
 19 22  1  0  0  0  0
 19  2  1  0  0  0  0
 20 19  1  0  0  0  0
 21 19  1  0  0  0  0
 23 24  1  0  0  0  0
 23 26  1  0  0  0  0
 25 23  1  0  0  0  0
 27  2  1  0  0  0  0
 27 28  1  0  0  0  0
 29 27  1  0  0  0  0
 30  4  1  0  0  0  0
 30 27  1  0  0  0  0
 31 30  1  0  0  0  0
 32 30  1  0  0  0  0
 33  3  1  0  0  0  0
 33 34  1  0  0  0  0
 35 33  1  0  0  0  0
 36 33  1  0  0  0  0
 37 38  1  0  0  0  0
 37 39  1  0  0  0  0
 40 37  1  0  0  0  0
 41 44  1  0  0  0  0
 41  3  1  0  0  0  0
 42 41  1  0  0  0  0
 43 41  1  0  0  0  0
 44 46  1  0  0  0  0
 44 45  1  0  0  0  0
M  END
