1
q = 0.0, confidence = 0.996

 30 32  0  0  0  0  0  0  0  0999 V2000
    0.0870    1.8815   -0.0122 N   0  0  0  0  0  2  0  0  0  0  0  0
    2.3379    0.4650   -1.0582 N   0  0  0  0  0  0  0  0  0  0  0  0
    3.4932   -0.1309   -1.0477 N   0  0  0  0  0  0  0  0  0  0  0  0
    4.3830    0.6945   -0.4099 N   0  0  0  0  0  0  0  0  0  0  0  0
   -1.0436    2.5884    0.1910 C   0  0  0  0  0  3  0  0  0  0  0  0
   -1.9648    1.9975    0.2983 H   0  0  0  0  0  0  0  0  0  0  0  0
   -1.0362    3.9836    0.2726 C   0  0  0  0  0  0  0  0  0  0  0  0
   -1.9776    4.5189    0.4596 H   0  0  0  0  0  0  0  0  0  0  0  0
    0.1781    4.6688    0.1125 C   0  0  0  0  0  0  0  0  0  0  0  0
    0.2162    5.7670    0.1647 H   0  0  0  0  0  0  0  0  0  0  0  0
    1.3398    3.9313   -0.1357 C   0  0  0  0  0  0  0  0  0  0  0  0
    2.3051    4.4277   -0.3089 H   0  0  0  0  0  0  0  0  0  0  0  0
    1.2708    2.5267   -0.1918 C   0  0  0  0  0  0  0  0  0  0  0  0
    2.4436    1.6868   -0.4338 C   0  0  0  0  0  0  0  0  0  0  0  0
    3.7613    1.8488   -0.0255 C   0  0  0  0  0  0  0  0  0  0  0  0
    4.2567    2.6265    0.5601 H   0  0  0  0  0  0  0  0  0  0  0  0
    5.7325    0.3005   -0.2246 C   0  0  0  0  0  0  0  0  0  0  0  0
    6.7326    1.2592    0.0120 C   0  0  0  0  0  0  0  0  0  0  0  0
    6.4862    2.3302    0.0305 H   0  0  0  0  0  0  0  0  0  0  0  0
    8.0577    0.8459    0.2031 C   0  0  0  0  0  0  0  0  0  0  0  0
    8.8332    1.6054    0.3884 H   0  0  0  0  0  0  0  0  0  0  0  0
    8.4203   -0.5139    0.1497 C   0  0  0  0  0  0  0  0  0  0  0  0
    7.3988   -1.4552   -0.1043 C   0  0  0  0  0  0  0  0  0  0  0  0
    7.6517   -2.5262   -0.1535 H   0  0  0  0  0  0  0  0  0  0  0  0
    6.0695   -1.0656   -0.2862 C   0  0  0  0  0  0  0  0  0  0  0  0
    5.2770   -1.8005   -0.4771 H   0  0  0  0  0  0  0  0  0  0  0  0
    9.8446   -0.9594    0.3604 C   0  0  0  0  0  0  0  0  0  0  0  0
    9.9400   -1.5783    1.2775 H   0  0  0  0  0  0  0  0  0  0  0  0
   10.2026   -1.5830   -0.4848 H   0  0  0  0  0  0  0  0  0  0  0  0
   10.5320   -0.0979    0.4634 H   0  0  0  0  0  0  0  0  0  0  0  0
  1  5  1  0  0  0  0
  2  3  2  0  0  0  0
  2 14  1  0  0  0  0
  3  4  1  0  0  0  0
  4 17  1  0  0  0  0
  4 15  1  0  0  0  0
  5  7  1  0  0  0  0
  5  6  1  0  0  0  0
  7  8  1  0  0  0  0
  9 10  1  0  0  0  0
  9  7  2  0  0  0  0
 11  9  1  0  0  0  0
 12 11  1  0  0  0  0
 13 11  2  0  0  0  0
 13  1  1  0  0  0  0
 14 13  1  0  0  0  0
 14 15  2  0  0  0  0
 15 16  1  0  0  0  0
 17 18  1  0  0  0  0
 18 19  1  0  0  0  0
 18 20  2  0  0  0  0
 20 21  1  0  0  0  0
 22 20  1  0  0  0  0
 22 27  1  0  0  0  0
 23 22  2  0  0  0  0
 24 23  1  0  0  0  0
 25 17  2  0  0  0  0
 25 23  1  0  0  0  0
 26 25  1  0  0  0  0
 27 30  1  0  0  0  0
 27 28  1  0  0  0  0
 29 27  1  0  0  0  0
M  END
