2
q = 0.0, confidence = 0.968

 21 21  0  0  0  0  0  0  0  0999 V2000
    0.1823   -1.8091   -1.8998 O   0  0  0  0  0  1  0  0  0  0  0  0
    0.3792   -1.0030   -0.9587 N   0  0  0  0  0  2  0  0  0  0  0  0
    5.6394    0.4025    0.3739 N   0  0  0  0  0  0  0  0  0  0  0  0
    1.7041   -0.6723   -0.6451 C   0  0  0  0  0  0  0  0  0  0  0  0
    1.9454    0.3003    0.3551 C   0  0  0  0  0  0  0  0  0  0  0  0
    1.0827    0.7716    0.8550 H   0  0  0  0  0  0  0  0  0  0  0  0
    3.2368    0.6653    0.6964 C   0  0  0  0  0  0  0  0  0  0  0  0
    3.3895    1.4254    1.4716 H   0  0  0  0  0  0  0  0  0  0  0  0
    4.3623    0.0584    0.0437 C   0  0  0  0  0  0  0  0  0  0  0  0
    4.0985   -0.9253   -0.9706 C   0  0  0  0  0  0  0  0  0  0  0  0
    4.9306   -1.4126   -1.4932 H   0  0  0  0  0  0  0  0  0  0  0  0
    2.8040   -1.2766   -1.3060 C   0  0  0  0  0  0  0  0  0  0  0  0
    2.5929   -2.0262   -2.0816 H   0  0  0  0  0  0  0  0  0  0  0  0
    5.8910    1.3988    1.4074 C   0  0  0  0  0  0  0  0  0  0  0  0
    5.4532    2.3843    1.1403 H   0  0  0  0  0  0  0  0  0  0  0  0
    6.9795    1.5309    1.5290 H   0  0  0  0  0  0  0  0  0  0  0  0
    5.4714    1.0856    2.3871 H   0  0  0  0  0  0  0  0  0  0  0  0
    6.7723   -0.2209   -0.3014 C   0  0  0  0  0  0  0  0  0  0  0  0
    6.7556   -0.0230   -1.3940 H   0  0  0  0  0  0  0  0  0  0  0  0
    6.7853   -1.3205   -0.1465 H   0  0  0  0  0  0  0  0  0  0  0  0
    7.7104    0.1926    0.1064 H   0  0  0  0  0  0  0  0  0  0  0  0
  1  2  1  0  0  0  0
  2  4  1  0  0  0  0
  3 14  1  0  0  0  0
  4  5  1  0  0  0  0
  5  7  2  0  0  0  0
  5  6  1  0  0  0  0
  7  8  1  0  0  0  0
  9  3  1  0  0  0  0
  9  7  1  0  0  0  0
 10  9  2  0  0  0  0
 11 10  1  0  0  0  0
 12 10  1  0  0  0  0
 12  4  2  0  0  0  0
 13 12  1  0  0  0  0
 14 16  1  0  0  0  0
 14 17  1  0  0  0  0
 15 14  1  0  0  0  0
 18 20  1  0  0  0  0
 18 21  1  0  0  0  0
 18  3  1  0  0  0  0
 19 18  1  0  0  0  0
M  END
