1
q = 0.0, confidence = 0.974

 37 39  0  0  1  0  0  0  0  0999 V2000
    1.2411   -0.7325   -0.3822 N   0  0  0  0  0  2  0  0  0  0  0  0
    2.4780   -0.5666   -0.0100 C   0  0  1  0  0  3  0  0  0  0  0  0
    3.5006   -1.6337    0.3817 C   0  0  0  0  0  0  0  0  0  0  0  0
    4.7590   -0.8323    0.7406 C   0  0  2  0  0  0  0  0  0  0  0  0
    4.3635   -0.1215    2.0769 C   0  0  0  0  0  0  0  0  0  0  0  0
    3.9610   -0.8446    2.8149 H   0  0  0  0  0  0  0  0  0  0  0  0
    5.2704    0.3243    2.5324 H   0  0  0  0  0  0  0  0  0  0  0  0
    3.3272    0.9560    1.6502 C   0  0  0  0  0  0  0  0  0  0  0  0
    3.6814    1.9847    1.8556 H   0  0  0  0  0  0  0  0  0  0  0  0
    2.3492    0.8490    2.1572 H   0  0  0  0  0  0  0  0  0  0  0  0
    3.2047    0.7412    0.1117 C   0  0  1  0  0  0  0  0  0  0  0  0
    2.7349    1.5653   -0.4528 H   0  0  0  0  0  0  0  0  0  0  0  0
    3.3643   -2.8433    0.3822 O   0  0  0  0  0  0  0  0  0  0  0  0
    4.6578    0.3397   -0.3053 C   0  0  0  0  0  0  0  0  0  0  0  0
    6.0185   -1.6720    0.7945 C   0  0  0  0  0  0  0  0  0  0  0  0
    6.8910   -1.0652    1.1087 H   0  0  0  0  0  0  0  0  0  0  0  0
    6.2418   -2.1236   -0.1923 H   0  0  0  0  0  0  0  0  0  0  0  0
    5.8969   -2.5065    1.5135 H   0  0  0  0  0  0  0  0  0  0  0  0
    4.7415   -0.1432   -1.7597 C   0  0  0  0  0  0  0  0  0  0  0  0
    4.0517   -0.9851   -1.9741 H   0  0  0  0  0  0  0  0  0  0  0  0
    5.7704   -0.4760   -2.0050 H   0  0  0  0  0  0  0  0  0  0  0  0
    4.4558    0.6721   -2.4524 H   0  0  0  0  0  0  0  0  0  0  0  0
    5.6815    1.4597   -0.0947 C   0  0  0  0  0  0  0  0  0  0  0  0
    5.7036    1.8568    0.9380 H   0  0  0  0  0  0  0  0  0  0  0  0
    5.4574    2.3055   -0.7758 H   0  0  0  0  0  0  0  0  0  0  0  0
    6.7018    1.0995   -0.3369 H   0  0  0  0  0  0  0  0  0  0  0  0
    0.5727   -1.9977   -0.2795 C   0  0  0  0  0  0  0  0  0  0  0  0
    0.4608   -2.6428    0.9664 C   0  0  0  0  0  0  0  0  0  0  0  0
    0.9585   -2.2097    1.8456 H   0  0  0  0  0  0  0  0  0  0  0  0
   -0.2916   -3.8192    1.0706 C   0  0  0  0  0  0  0  0  0  0  0  0
   -0.3852   -4.3205    2.0458 H   0  0  0  0  0  0  0  0  0  0  0  0
   -0.9210   -4.3577   -0.0647 C   0  0  0  0  0  0  0  0  0  0  0  0
   -1.5131   -5.2813    0.0206 H   0  0  0  0  0  0  0  0  0  0  0  0
   -0.7974   -3.7119   -1.3060 C   0  0  0  0  0  0  0  0  0  0  0  0
   -1.2937   -4.1233   -2.1971 H   0  0  0  0  0  0  0  0  0  0  0  0
   -0.0637   -2.5242   -1.4175 C   0  0  0  0  0  0  0  0  0  0  0  0
    0.0114   -1.9815   -2.3696 H   0  0  0  0  0  0  0  0  0  0  0  0
  1 27  1  0  0  0  0
  2  1  1  6  0  0  0
  2 11  1  0  0  0  0
  2  3  1  0  0  0  0
  3 13  2  0  0  0  0
  3  4  1  0  0  0  0
  4 15  1  1  0  0  0
  4  5  1  0  0  0  0
  5  7  1  0  0  0  0
  5  6  1  0  0  0  0
  8  9  1  0  0  0  0
  8  5  1  0  0  0  0
  8 10  1  0  0  0  0
 11 12  1  6  0  0  0
 11  8  1  0  0  0  0
 14 23  1  0  0  0  0
 14 11  1  0  0  0  0
 14  4  1  0  0  0  0
 15 16  1  0  0  0  0
 15 18  1  0  0  0  0
 17 15  1  0  0  0  0
 19 14  1  0  0  0  0
 20 19  1  0  0  0  0
 21 19  1  0  0  0  0
 22 19  1  0  0  0  0
 23 24  1  0  0  0  0
 25 23  1  0  0  0  0
 26 23  1  0  0  0  0
 27 28  1  0  0  0  0
 28 30  2  0  0  0  0
 28 29  1  0  0  0  0
 30 31  1  0  0  0  0
 32 33  1  0  0  0  0
 32 30  1  0  0  0  0
 34 32  2  0  0  0  0
 35 34  1  0  0  0  0
 36 34  1  0  0  0  0
 36 27  2  0  0  0  0
 37 36  1  0  0  0  0
M  END
