1
q = 0.0, confidence = 0.998

 20 21  0  0  0  0  0  0  0  0999 V2000
    1.2782   -0.2822   -0.1878 N   0  0  0  0  0  2  0  0  0  0  0  0
    6.2153   -0.5777   -1.1804 N   0  0  0  0  0  0  0  0  0  0  0  0
    1.9139   -0.2193    1.0059 C   0  0  0  0  0  3  0  0  0  0  0  0
    1.2674   -0.1211    1.8911 H   0  0  0  0  0  0  0  0  0  0  0  0
    3.3036   -0.2693    1.1275 C   0  0  0  0  0  0  0  0  0  0  0  0
    3.7387   -0.2158    2.1348 H   0  0  0  0  0  0  0  0  0  0  0  0
    4.1065   -0.3833   -0.0273 C   0  0  0  0  0  0  0  0  0  0  0  0
    3.4303   -0.4510   -1.2632 C   0  0  0  0  0  0  0  0  0  0  0  0
    4.0195   -0.5460   -2.1854 H   0  0  0  0  0  0  0  0  0  0  0  0
    2.0364   -0.3990   -1.3049 C   0  0  0  0  0  0  0  0  0  0  0  0
    1.4579   -0.4725   -2.2442 H   0  0  0  0  0  0  0  0  0  0  0  0
    5.5932   -0.4351    0.0107 C   0  0  0  0  0  0  0  0  0  0  0  0
    6.3216   -0.3391    1.2180 C   0  0  0  0  0  0  0  0  0  0  0  0
    5.8062   -0.2187    2.1808 H   0  0  0  0  0  0  0  0  0  0  0  0
    7.7198   -0.3959    1.1772 C   0  0  0  0  0  0  0  0  0  0  0  0
    8.3050   -0.3226    2.1064 H   0  0  0  0  0  0  0  0  0  0  0  0
    8.3571   -0.5459   -0.0620 C   0  0  0  0  0  0  0  0  0  0  0  0
    9.4529   -0.5955   -0.1426 H   0  0  0  0  0  0  0  0  0  0  0  0
    7.5502   -0.6308   -1.2101 C   0  0  0  0  0  0  0  0  0  0  0  0
    8.0125   -0.7481   -2.2068 H   0  0  0  0  0  0  0  0  0  0  0  0
  1  3  1  0  0  0  0
  2 12  1  0  0  0  0
  3  5  1  0  0  0  0
  3  4  1  0  0  0  0
  5  6  1  0  0  0  0
  7 12  1  0  0  0  0
  7  5  2  0  0  0  0
  8  7  1  0  0  0  0
  9  8  1  0  0  0  0
 10  8  2  0  0  0  0
 10  1  1  0  0  0  0
 11 10  1  0  0  0  0
 12 13  2  0  0  0  0
 13 14  1  0  0  0  0
 15 13  1  0  0  0  0
 15 16  1  0  0  0  0
 17 15  2  0  0  0  0
 18 17  1  0  0  0  0
 19  2  2  0  0  0  0
 19 17  1  0  0  0  0
 20 19  1  0  0  0  0
M  END
