1
q = 0.0, confidence = 0.982

 14 14  0  0  1  0  0  0  0  0999 V2000
   -1.9998    0.1157   -0.1637 N   0  0  0  0  0  2  0  0  0  0  0  0
   -2.6679    1.2664   -0.7899 C   0  0  0  0  0  0  0  0  0  0  0  0
   -4.1738   -0.1605    0.2762 N   0  0  0  0  0  0  0  0  0  0  0  0
   -2.5758   -1.8364    1.2466 C   0  0  0  0  0  0  0  0  0  0  0  0
   -4.1730    0.9014   -0.7354 C   0  0  0  0  0  0  0  0  0  0  0  0
   -2.8934   -0.6317    0.4278 C   0  0  2  0  0  3  0  0  0  0  0  0
   -4.5422    0.5199   -1.7147 H   0  0  0  0  0  0  0  0  0  0  0  0
   -2.2916    1.4189   -1.8201 H   0  0  0  0  0  0  0  0  0  0  0  0
   -2.4135    2.1716   -0.1982 H   0  0  0  0  0  0  0  0  0  0  0  0
   -4.9643   -0.7985    0.3702 H   0  0  0  0  0  0  0  0  0  0  0  0
   -3.4667   -2.4748    1.3998 H   0  0  0  0  0  0  0  0  0  0  0  0
   -4.8122    1.7550   -0.4336 H   0  0  0  0  0  0  0  0  0  0  0  0
   -1.7735   -2.4038    0.7321 H   0  0  0  0  0  0  0  0  0  0  0  0
   -2.1869   -1.5215    2.2364 H   0  0  0  0  0  0  0  0  0  0  0  0
  1  6  1  0  0  0  0
  2  5  1  0  0  0  0
  2  9  1  0  0  0  0
  2  1  1  0  0  0  0
  3 10  1  0  0  0  0
  3  6  1  0  0  0  0
  4 11  1  0  0  0  0
  4 14  1  0  0  0  0
  5 12  1  0  0  0  0
  5  3  1  0  0  0  0
  6  4  1  1  0  0  0
  7  5  1  0  0  0  0
  8  2  1  0  0  0  0
 13  4  1  0  0  0  0
M  END
