3
q = 0.0, confidence = 0.88

 21 22  0  0  1  0  0  0  0  0999 V2000
   -1.7994    0.3486   -0.5475 H   0  0  0  0  0  0  0  0  0  0  0  0
   -7.4530    0.8639   -0.5497 O   0  5  0  0  0  0  0  0  0  0  0  0
    0.6910    2.9583    0.3020 N   0  0  0  0  0  2  0  0  0  0  0  0
   -6.3504   -1.1575   -0.6051 O   0  0  0  0  0  0  0  0  0  0  0  0
   -1.4140    2.4618    0.7654 N   0  0  0  0  0  0  0  0  0  0  0  0
   -3.8770    2.4957    1.0587 C   0  0  0  0  0  0  0  0  0  0  0  0
   -3.8084    3.4030    1.6761 H   0  0  0  0  0  0  0  0  0  0  0  0
   -0.4899    2.6246   -0.2197 C   0  0  0  0  0  3  0  0  0  0  0  0
   -0.6737    2.4504   -1.2865 H   0  0  0  0  0  0  0  0  0  0  0  0
   -2.7104    1.9214    0.5528 C   0  0  1  0  0  3  0  0  0  0  0  0
   -2.7528    0.8015   -0.2249 N   0  0  0  0  0  0  0  0  0  0  0  0
   -5.1454    0.7667   -0.0995 C   0  0  0  0  0  0  0  0  0  0  0  0
   -6.4832    0.0838   -0.4685 C   0  0  0  0  0  0  0  0  0  0  0  0
   -0.7870    2.7244    1.9833 C   0  0  0  0  0  0  0  0  0  0  0  0
   -1.3232    2.6427    2.9335 H   0  0  0  0  0  0  0  0  0  0  0  0
    0.5226    3.0308    1.6768 C   0  0  0  0  0  0  0  0  0  0  0  0
    1.3594    3.2849    2.3373 H   0  0  0  0  0  0  0  0  0  0  0  0
   -5.1083    1.9363    0.6814 C   0  0  0  0  0  0  0  0  0  0  0  0
   -6.0749    2.4001    0.9354 H   0  0  0  0  0  0  0  0  0  0  0  0
   -3.9316    0.2021   -0.5092 C   0  0  0  0  0  0  0  0  0  0  0  0
   -3.9139   -0.7534   -1.0557 H   0  0  0  0  0  0  0  0  0  0  0  0
  1 11  1  0  0  0  0
  2 13  1  0  0  0  0
  3 16  1  0  0  0  0
  4 13  2  0  0  0  0
  5 14  1  0  0  0  0
  6  7  1  0  0  0  0
  8  3  1  0  0  0  0
  8  5  1  0  0  0  0
  9  8  1  0  0  0  0
 10  5  1  6  0  0  0
 10  6  1  0  0  0  0
 11 10  1  0  0  0  0
 12 18  1  0  0  0  0
 13 12  1  0  0  0  0
 14 15  1  0  0  0  0
 16 14  2  0  0  0  0
 16 17  1  0  0  0  0
 18 19  1  0  0  0  0
 18  6  2  0  0  0  0
 20 11  1  0  0  0  0
 20 12  2  0  0  0  0
 21 20  1  0  0  0  0
M  CHG  1   2  -1
M  END
