3
q = -1.0

 10 10  0  0  0  0  0  0  0  0999 V2000
    5.4486    0.2293   -0.0543 O   0  0  0  0  0  0  0  0  0  0  0  0
    4.7109    2.2929    0.0077 O   0  0  0  0  0  0  0  0  0  0  0  0
    1.7163   -1.1518   -0.0469 N   0  0  0  0  0  2  0  0  0  0  0  0
    1.7869   -2.5028   -0.0122 N   0  0  0  0  0  0  0  0  0  0  0  0
    3.0166   -2.8913   -0.0042 N   0  0  0  0  0  0  0  0  0  0  0  0
    3.7778   -1.7644   -0.0285 N   0  0  0  0  0  0  0  0  0  0  0  0
    3.2129    0.6684   -0.0145 N   0  0  0  0  0  0  0  0  0  0  0  0
    4.5400    1.0818   -0.0220 N   0  0  0  0  0  0  0  0  0  0  0  0
    2.9780   -0.6637   -0.0418 C   0  0  0  0  0  0  0  0  0  0  0  0
    4.8028   -1.7439   -0.0323 H   0  0  0  0  0  0  0  0  0  0  0  0
  1  8  2  0  0  0  0
  3  9  1  0  0  0  0
  3  4  1  0  0  0  0
  4  5  2  0  0  0  0
  6  5  1  0  0  0  0
  8  7  1  0  0  0  0
  8  2  2  0  0  0  0
  9  6  1  0  0  0  0
  9  7  2  0  0  0  0
 10  6  1  0  0  0  0
M  END
