21
q = 0.0, confidence = 1.0

 30 32  0  0  0  0  0  0  0  0999 V2000
    0.5803   -0.6672   -1.3155 N   0  0  0  0  0  0  0  0  0  0  0  0
    1.7978   -1.3309   -1.1647 C   0  0  0  0  0  0  0  0  0  0  0  0
    2.9644   -0.5622   -1.2241 C   0  0  0  0  0  0  0  0  0  0  0  0
    4.2298   -1.1465   -0.9609 C   0  0  0  0  0  0  0  0  0  0  0  0
    5.4314   -0.3759   -0.9933 C   0  0  0  0  0  0  0  0  0  0  0  0
    6.6508   -0.9532   -0.6752 C   0  0  0  0  0  0  0  0  0  0  0  0
    6.7234   -2.3278   -0.3160 C   0  0  0  0  0  0  0  0  0  0  0  0
    5.5748   -3.1060   -0.2827 C   0  0  0  0  0  0  0  0  0  0  0  0
    4.3049   -2.5445   -0.6025 C   0  0  0  0  0  0  0  0  0  0  0  0
    3.0997   -3.3078   -0.5677 C   0  0  0  0  0  0  0  0  0  0  0  0
    1.8760   -2.7256   -0.8506 C   0  0  0  0  0  0  0  0  0  0  0  0
   -0.4571   -1.1675   -1.8897 C   0  0  0  0  0  0  0  0  0  0  0  0
    2.8673    0.5106   -1.4591 H   0  0  0  0  0  0  0  0  0  0  0  0
    5.3656    0.6874   -1.2701 H   0  0  0  0  0  0  0  0  0  0  0  0
    7.5702   -0.3490   -0.7026 H   0  0  0  0  0  0  0  0  0  0  0  0
    7.6982   -2.7750   -0.0688 H   0  0  0  0  0  0  0  0  0  0  0  0
    5.6303   -4.1715   -0.0096 H   0  0  0  0  0  0  0  0  0  0  0  0
    3.1554   -4.3735   -0.2954 H   0  0  0  0  0  0  0  0  0  0  0  0
    0.9496   -3.3172   -0.7941 H   0  0  0  0  0  0  0  0  0  0  0  0
   -0.4562   -2.1566   -2.3985 H   0  0  0  0  0  0  0  0  0  0  0  0
   -1.6788    0.8119   -1.2958 N   0  0  0  0  0  2  0  0  0  0  0  0
   -2.7667    1.5919   -1.3208 C   0  0  0  0  0  3  0  0  0  0  0  0
   -3.9592    1.1891   -1.9466 C   0  0  0  0  0  0  0  0  0  0  0  0
   -4.0113   -0.0699   -2.5588 C   0  0  0  0  0  0  0  0  0  0  0  0
   -2.8627   -0.8723   -2.5531 C   0  0  0  0  0  0  0  0  0  0  0  0
   -1.7049   -0.3900   -1.9160 C   0  0  0  0  0  0  0  0  0  0  0  0
   -2.6687    2.5518   -0.7917 H   0  0  0  0  0  0  0  0  0  0  0  0
   -4.8340    1.8543   -1.9338 H   0  0  0  0  0  0  0  0  0  0  0  0
   -4.9373   -0.4254   -3.0344 H   0  0  0  0  0  0  0  0  0  0  0  0
   -2.8530   -1.8638   -3.0291 H   0  0  0  0  0  0  0  0  0  0  0  0
  1  2  1  0  0  0  0
  2 11  1  0  0  0  0
  3  2  2  0  0  0  0
  3  4  1  0  0  0  0
  4  9  1  0  0  0  0
  5  4  2  0  0  0  0
  5  6  1  0  0  0  0
  6  7  2  0  0  0  0
  7  8  1  0  0  0  0
  7 16  1  0  0  0  0
  8 17  1  0  0  0  0
  9 10  1  0  0  0  0
  9  8  2  0  0  0  0
 10 18  1  0  0  0  0
 11 19  1  0  0  0  0
 11 10  2  0  0  0  0
 12  1  2  0  0  0  0
 13  3  1  0  0  0  0
 14  5  1  0  0  0  0
 15  6  1  0  0  0  0
 20 12  1  0  0  0  0
 22 21  1  0  0  0  0
 22 27  1  0  0  0  0
 23 28  1  0  0  0  0
 23 22  1  0  0  0  0
 24 25  1  0  0  0  0
 24 23  2  0  0  0  0
 25 26  2  0  0  0  0
 26 12  1  0  0  0  0
 26 21  1  0  0  0  0
 29 24  1  0  0  0  0
 30 25  1  0  0  0  0
M  END
