1
q = 0.0, confidence = 0.982

 11 11  0  0  1  0  0  0  0  0999 V2000
   -0.6313   -1.0811   -0.5805 N   0  0  0  0  0  2  0  0  0  0  0  0
    0.0323   -2.2087   -0.2041 N   0  0  0  0  0  0  0  0  0  0  0  0
   -0.6965   -3.2565   -0.3499 N   0  0  0  0  0  0  0  0  0  0  0  0
   -1.9058   -2.8097   -0.8440 N   0  0  0  0  0  0  0  0  0  0  0  0
   -2.9928   -3.6050   -1.1233 N   0  0  0  0  0  0  0  0  0  0  0  0
   -2.8408   -0.6822   -1.4554 N   0  0  0  0  0  0  0  0  0  0  0  0
   -3.7498   -1.1112   -1.6194 H   0  0  0  0  0  0  0  0  0  0  0  0
   -2.6701    0.3495   -1.4606 H   0  0  0  0  0  0  0  0  0  0  0  0
   -1.8628   -1.4504   -0.9834 C   0  0  2  0  0  3  0  0  0  0  0  0
   -3.2728   -4.1090   -0.2703 H   0  0  0  0  0  0  0  0  0  0  0  0
   -2.7323   -4.3026   -1.8341 H   0  0  0  0  0  0  0  0  0  0  0  0
  1  2  1  0  0  0  0
  3  2  2  0  0  0  0
  4  3  1  0  0  0  0
  5  4  1  0  0  0  0
  5 10  1  0  0  0  0
  7  6  1  0  0  0  0
  8  6  1  0  0  0  0
  9  6  1  6  0  0  0
  9  4  1  0  0  0  0
  9  1  1  0  0  0  0
 11  5  1  0  0  0  0
M  END
