35
q = 0.0, confidence = 1.0

 35 37  0  0  1  0  0  0  0  0999 V2000
   -4.9704   -0.1517    0.0321 C   0  0  0  0  0  0  0  0  0  0  0  0
   -6.2190   -0.0509   -0.6190 C   0  0  0  0  0  0  0  0  0  0  0  0
   -6.4381    0.8556   -1.2017 H   0  0  0  0  0  0  0  0  0  0  0  0
   -7.1485   -1.0920   -0.5207 C   0  0  0  0  0  0  0  0  0  0  0  0
   -8.1128   -1.0182   -1.0457 H   0  0  0  0  0  0  0  0  0  0  0  0
   -6.8542   -2.2276    0.2543 C   0  0  0  0  0  0  0  0  0  0  0  0
   -7.5891   -3.0427    0.3367 H   0  0  0  0  0  0  0  0  0  0  0  0
   -5.6290   -2.3176    0.9340 C   0  0  0  0  0  0  0  0  0  0  0  0
   -5.4084   -3.1934    1.5625 H   0  0  0  0  0  0  0  0  0  0  0  0
   -4.6857   -1.2872    0.8196 C   0  0  0  0  0  0  0  0  0  0  0  0
   -3.7400   -1.3423    1.3766 H   0  0  0  0  0  0  0  0  0  0  0  0
   -4.0250    0.9914   -0.0588 C   0  0  0  0  0  0  0  0  0  0  0  0
   -2.5826    0.8352   -0.0909 C   0  0  0  0  0  0  0  0  0  0  0  0
   -1.7784   -1.6801   -0.5036 C   0  0  0  0  0  0  0  0  0  0  0  0
   -0.9802   -2.0250   -1.1903 H   0  0  0  0  0  0  0  0  0  0  0  0
   -2.7686   -1.9122   -0.9343 H   0  0  0  0  0  0  0  0  0  0  0  0
   -1.6664   -2.2452    0.4447 H   0  0  0  0  0  0  0  0  0  0  0  0
   -1.6216   -0.2140   -0.2746 C   0  0  1  0  0  3  0  0  0  0  0  0
    0.6420    2.5442   -0.0960 C   0  0  0  0  0  0  0  0  0  0  0  0
    1.5790    2.4130   -1.1371 C   0  0  0  0  0  0  0  0  0  0  0  0
    1.4320    1.6544   -1.9205 H   0  0  0  0  0  0  0  0  0  0  0  0
    2.7007    3.2534   -1.1443 C   0  0  0  0  0  0  0  0  0  0  0  0
    3.4405    3.1566   -1.9532 H   0  0  0  0  0  0  0  0  0  0  0  0
    2.8743    4.2186   -0.1386 C   0  0  0  0  0  0  0  0  0  0  0  0
    3.7551    4.8780   -0.1543 H   0  0  0  0  0  0  0  0  0  0  0  0
    1.9230    4.3442    0.8861 C   0  0  0  0  0  0  0  0  0  0  0  0
    2.0579    5.0955    1.6782 H   0  0  0  0  0  0  0  0  0  0  0  0
    0.8047    3.4998    0.9185 C   0  0  0  0  0  0  0  0  0  0  0  0
    0.0659    3.5665    1.7283 H   0  0  0  0  0  0  0  0  0  0  0  0
   -1.8079    2.0292    0.0063 C   0  0  0  0  0  0  0  0  0  0  0  0
   -2.2577    3.2525    0.0916 O   0  0  0  0  0  0  0  0  0  0  0  0
   -3.2948    3.0777    0.0104 H   0  0  0  0  0  0  0  0  0  0  0  0
   -4.4954    2.1653   -0.0914 O   0  0  0  0  0  0  0  0  0  0  0  0
   -0.4975    1.6888   -0.0662 N   0  0  0  0  0  0  0  0  0  0  0  0
   -0.3945    0.3207   -0.2457 N   0  0  0  0  0  2  0  0  0  0  0  0
  1 10  1  0  0  0  0
  2  4  1  0  0  0  0
  2  1  2  0  0  0  0
  3  2  1  0  0  0  0
  4  6  2  0  0  0  0
  5  4  1  0  0  0  0
  6  7  1  0  0  0  0
  6  8  1  0  0  0  0
  8  9  1  0  0  0  0
 10  8  2  0  0  0  0
 10 11  1  0  0  0  0
 12  1  1  0  0  0  0
 13 12  1  0  0  0  0
 13 30  2  0  0  0  0
 14 17  1  0  0  0  0
 15 14  1  0  0  0  0
 16 14  1  0  0  0  0
 18 14  1  6  0  0  0
 18 35  1  0  0  0  0
 18 13  1  0  0  0  0
 19 34  1  0  0  0  0
 19 28  1  0  0  0  0
 20 19  2  0  0  0  0
 21 20  1  0  0  0  0
 22 20  1  0  0  0  0
 22 24  2  0  0  0  0
 23 22  1  0  0  0  0
 24 26  1  0  0  0  0
 25 24  1  0  0  0  0
 26 28  2  0  0  0  0
 26 27  1  0  0  0  0
 28 29  1  0  0  0  0
 30 31  1  0  0  0  0
 32 31  1  0  0  0  0
 33 12  2  0  0  0  0
 34 30  1  0  0  0  0
 35 34  1  0  0  0  0
M  END
