3
q = -1.0

 14 15  0  0  0  0  0  0  0  0999 V2000
    2.8275    2.1636    0.1497 O   0  0  0  0  0  0  0  0  0  0  0  0
    3.1004   -2.4414   -0.1662 O   0  0  0  0  0  0  0  0  0  0  0  0
    2.5974   -0.1606   -0.0114 N   0  0  0  0  0  2  0  0  0  0  0  0
    7.2425   -0.6225   -0.0174 N   0  0  0  0  0  0  0  0  0  0  0  0
    3.3064    1.0368    0.0752 C   0  0  0  0  0  0  0  0  0  0  0  0
    3.4482   -1.2714   -0.0834 C   0  0  0  0  0  0  0  0  0  0  0  0
    4.8527   -0.7296   -0.0381 C   0  0  0  0  0  0  0  0  0  0  0  0
    6.1058   -1.3455   -0.0737 C   0  0  0  0  0  0  0  0  0  0  0  0
    6.2021   -2.4427   -0.1490 H   0  0  0  0  0  0  0  0  0  0  0  0
    7.1474    0.7154    0.0747 C   0  0  0  0  0  0  0  0  0  0  0  0
    8.1058    1.2641    0.1180 H   0  0  0  0  0  0  0  0  0  0  0  0
    5.9311    1.4329    0.1176 C   0  0  0  0  0  0  0  0  0  0  0  0
    5.9020    2.5300    0.1935 H   0  0  0  0  0  0  0  0  0  0  0  0
    4.7698    0.6668    0.0582 C   0  0  0  0  0  0  0  0  0  0  0  0
  2  6  2  0  0  0  0
  3  5  1  0  0  0  0
  4 10  1  0  0  0  0
  5  1  2  0  0  0  0
  6  7  1  0  0  0  0
  6  3  1  0  0  0  0
  7 14  2  0  0  0  0
  8  7  1  0  0  0  0
  8  4  2  0  0  0  0
  9  8  1  0  0  0  0
 10 12  2  0  0  0  0
 10 11  1  0  0  0  0
 12 13  1  0  0  0  0
 14  5  1  0  0  0  0
 14 12  1  0  0  0  0
M  END
