1
q = -1.0

 36 36  0  0  0  0  0  0  0  0999 V2000
   -1.9509   -0.5185   -0.0630 N   0  0  0  0  0  2  0  0  0  0  0  0
   -1.8300    0.7410   -0.6950 C   0  0  0  0  0  0  0  0  0  0  0  0
   -0.8214    0.9382   -1.6933 C   0  0  0  0  0  0  0  0  0  0  0  0
   -0.5835    2.2307   -2.1872 C   0  0  0  0  0  0  0  0  0  0  0  0
    0.1973    2.3840   -2.9445 H   0  0  0  0  0  0  0  0  0  0  0  0
   -1.3455    3.3283   -1.7551 C   0  0  0  0  0  0  0  0  0  0  0  0
   -1.1406    4.3296   -2.1650 H   0  0  0  0  0  0  0  0  0  0  0  0
   -2.3744    3.1548   -0.8149 C   0  0  0  0  0  0  0  0  0  0  0  0
   -2.5870    1.8630   -0.2936 C   0  0  0  0  0  0  0  0  0  0  0  0
   -3.3332    1.7367    0.5020 H   0  0  0  0  0  0  0  0  0  0  0  0
   -0.1140   -0.2135   -2.1641 N   0  0  0  0  0  0  0  0  0  0  0  0
    1.1415    0.0398   -2.8637 C   0  0  0  0  0  0  0  0  0  0  0  0
    0.9931    0.5169   -3.8642 H   0  0  0  0  0  0  0  0  0  0  0  0
    1.6550   -0.9270   -3.0293 H   0  0  0  0  0  0  0  0  0  0  0  0
    1.7976    0.6888   -2.2575 H   0  0  0  0  0  0  0  0  0  0  0  0
   -0.9980   -1.0648   -2.9804 C   0  0  0  0  0  0  0  0  0  0  0  0
   -1.8471   -1.4203   -2.3704 H   0  0  0  0  0  0  0  0  0  0  0  0
   -0.4371   -1.9409   -3.3528 H   0  0  0  0  0  0  0  0  0  0  0  0
   -1.3926   -0.5008   -3.8586 H   0  0  0  0  0  0  0  0  0  0  0  0
   -3.1890    4.3185   -0.3072 C   0  0  0  0  0  0  0  0  0  0  0  0
   -3.0023    5.2355   -0.8990 H   0  0  0  0  0  0  0  0  0  0  0  0
   -2.9426    4.5484    0.7519 H   0  0  0  0  0  0  0  0  0  0  0  0
   -4.2766    4.1030   -0.3439 H   0  0  0  0  0  0  0  0  0  0  0  0
   -3.3161   -1.1047    0.1983 C   0  0  0  0  0  0  0  0  0  0  0  0
   -4.3450   -0.6051   -0.8382 C   0  0  0  0  0  0  0  0  0  0  0  0
   -4.5809    0.4697   -0.7440 H   0  0  0  0  0  0  0  0  0  0  0  0
   -5.2882   -1.1708   -0.7065 H   0  0  0  0  0  0  0  0  0  0  0  0
   -3.9842   -0.7804   -1.8712 H   0  0  0  0  0  0  0  0  0  0  0  0
   -3.7991   -0.7945    1.6285 C   0  0  0  0  0  0  0  0  0  0  0  0
   -3.0615   -1.1622    2.3672 H   0  0  0  0  0  0  0  0  0  0  0  0
   -4.7647   -1.3047    1.8196 H   0  0  0  0  0  0  0  0  0  0  0  0
   -3.9554    0.2896    1.7929 H   0  0  0  0  0  0  0  0  0  0  0  0
   -3.2316   -2.6374    0.0390 C   0  0  0  0  0  0  0  0  0  0  0  0
   -2.8807   -2.9136   -0.9740 H   0  0  0  0  0  0  0  0  0  0  0  0
   -4.2368   -3.0782    0.1923 H   0  0  0  0  0  0  0  0  0  0  0  0
   -2.5380   -3.0848    0.7729 H   0  0  0  0  0  0  0  0  0  0  0  0
  1 24  1  0  0  0  0
  2  9  1  0  0  0  0
  2  1  1  0  0  0  0
  3  2  2  0  0  0  0
  4  6  2  0  0  0  0
  4  3  1  0  0  0  0
  5  4  1  0  0  0  0
  6  8  1  0  0  0  0
  7  6  1  0  0  0  0
  8 20  1  0  0  0  0
  8  9  2  0  0  0  0
  9 10  1  0  0  0  0
 11  3  1  0  0  0  0
 12 15  1  0  0  0  0
 12 11  1  0  0  0  0
 13 12  1  0  0  0  0
 14 12  1  0  0  0  0
 16 17  1  0  0  0  0
 16 11  1  0  0  0  0
 18 16  1  0  0  0  0
 19 16  1  0  0  0  0
 20 22  1  0  0  0  0
 21 20  1  0  0  0  0
 23 20  1  0  0  0  0
 24 29  1  0  0  0  0
 25 26  1  0  0  0  0
 25 27  1  0  0  0  0
 25 24  1  0  0  0  0
 28 25  1  0  0  0  0
 29 32  1  0  0  0  0
 29 31  1  0  0  0  0
 29 30  1  0  0  0  0
 33 35  1  0  0  0  0
 33 24  1  0  0  0  0
 33 36  1  0  0  0  0
 34 33  1  0  0  0  0
M  END
