3
q = -1.0, confidence = 0.002

 23 24  0  0  0  0  0  0  0  0999 V2000
   -4.0686    1.8267   -1.1046 O   0  0  0  0  0  0  0  0  0  0  0  0
   -3.1882    0.0137   -0.0377 N   0  0  0  0  0  0  0  0  0  0  0  0
   -0.4613    0.9596   -1.2222 N   0  0  0  0  0  0  0  0  0  0  0  0
    0.3595    1.6321   -2.1041 C   0  0  0  0  0  0  0  0  0  0  0  0
    1.4197    1.3719   -2.1860 H   0  0  0  0  0  0  0  0  0  0  0  0
   -0.3477    2.5952   -2.8271 C   0  0  0  0  0  0  0  0  0  0  0  0
    0.0633    3.2606   -3.5953 H   0  0  0  0  0  0  0  0  0  0  0  0
   -1.6888    2.5204   -2.3796 C   0  0  0  0  0  0  0  0  0  0  0  0
   -2.5506    3.1045   -2.7197 H   0  0  0  0  0  0  0  0  0  0  0  0
   -1.7423    1.4995   -1.4132 C   0  0  0  0  0  3  0  0  0  0  0  0
   -2.9710    1.0438   -0.7930 C   0  0  0  0  0  0  0  0  0  0  0  0
   -5.1431    1.3322   -0.2949 C   0  0  0  0  0  0  0  0  0  0  0  0
   -6.0635    1.2843   -0.9110 H   0  0  0  0  0  0  0  0  0  0  0  0
   -5.3141    2.0392    0.5491 H   0  0  0  0  0  0  0  0  0  0  0  0
   -4.6441   -0.0562    0.2008 C   0  0  0  0  0  0  0  0  0  0  0  0
   -5.2320   -1.1923   -0.6568 C   0  0  0  0  0  0  0  0  0  0  0  0
   -5.0363   -1.0057   -1.7320 H   0  0  0  0  0  0  0  0  0  0  0  0
   -6.3286   -1.2778   -0.5087 H   0  0  0  0  0  0  0  0  0  0  0  0
   -4.7678   -2.1621   -0.3884 H   0  0  0  0  0  0  0  0  0  0  0  0
   -4.9429   -0.2907    1.6847 C   0  0  0  0  0  0  0  0  0  0  0  0
   -4.5068   -1.2542    2.0169 H   0  0  0  0  0  0  0  0  0  0  0  0
   -6.0357   -0.3221    1.8745 H   0  0  0  0  0  0  0  0  0  0  0  0
   -4.5047    0.5148    2.3074 H   0  0  0  0  0  0  0  0  0  0  0  0
  1 11  1  0  0  0  0
  1 12  1  0  0  0  0
  2 15  1  0  0  0  0
  4  3  2  0  0  0  0
  5  4  1  0  0  0  0
  6  8  2  0  0  0  0
  6  4  1  0  0  0  0
  7  6  1  0  0  0  0
  8 10  1  0  0  0  0
  9  8  1  0  0  0  0
 10  3  1  0  0  0  0
 10 11  1  0  0  0  0
 11  2  2  0  0  0  0
 12 15  1  0  0  0  0
 12 14  1  0  0  0  0
 13 12  1  0  0  0  0
 15 20  1  0  0  0  0
 16 18  1  0  0  0  0
 16 19  1  0  0  0  0
 16 15  1  0  0  0  0
 17 16  1  0  0  0  0
 20 22  1  0  0  0  0
 20 21  1  0  0  0  0
 20 23  1  0  0  0  0
M  END
