11
q = -1.0, confidence = 0.0

 21 22  0  0  0  0  0  0  0  0999 V2000
   -3.6884    2.8311    0.1107 N   0  0  0  0  0  0  0  0  0  0  0  0
   -4.9213    2.2860    0.2034 C   0  0  0  0  0  0  0  0  0  0  0  0
   -5.9428    3.1515    0.4444 N   0  0  0  0  0  0  0  0  0  0  0  0
   -6.9008    2.8106    0.4389 H   0  0  0  0  0  0  0  0  0  0  0  0
   -5.7406    4.1482    0.4599 H   0  0  0  0  0  0  0  0  0  0  0  0
   -5.2689    0.9705    0.0755 N   0  0  0  0  0  2  0  0  0  0  0  0
   -4.1908    0.2089   -0.0743 C   0  0  0  0  0  0  0  0  0  0  0  0
   -2.8454    0.6284   -0.1071 C   0  0  0  0  0  0  0  0  0  0  0  0
   -2.5946    2.0625   -0.0886 C   0  0  0  0  0  0  0  0  0  0  0  0
   -1.4373    2.5749   -0.2792 O   0  0  0  0  0  0  0  0  0  0  0  0
   -2.0422   -0.5034   -0.2415 N   0  0  0  0  0  2  0  0  0  0  0  0
   -2.8608   -1.5637   -0.3239 C   0  0  0  0  0  3  0  0  0  0  0  0
   -2.5461   -2.6046   -0.4502 H   0  0  0  0  0  0  0  0  0  0  0  0
   -4.1696   -1.1772   -0.2336 N   0  0  0  0  0  0  0  0  0  0  0  0
   -5.3553   -2.0310   -0.2177 C   0  0  0  0  0  0  0  0  0  0  0  0
   -6.1205   -1.5213   -0.8371 H   0  0  0  0  0  0  0  0  0  0  0  0
   -5.0915   -2.9830   -0.7204 H   0  0  0  0  0  0  0  0  0  0  0  0
   -5.8870   -2.2597    1.1950 C   0  0  0  0  0  0  0  0  0  0  0  0
   -5.1343   -2.7635    1.8348 H   0  0  0  0  0  0  0  0  0  0  0  0
   -6.7932   -2.8958    1.1627 H   0  0  0  0  0  0  0  0  0  0  0  0
   -6.1590   -1.2917    1.6588 H   0  0  0  0  0  0  0  0  0  0  0  0
  1  2  2  0  0  0  0
  2  3  1  0  0  0  0
  3  5  1  0  0  0  0
  4  3  1  0  0  0  0
  6  2  1  0  0  0  0
  7  6  1  0  0  0  0
  8  9  1  0  0  0  0
  8  7  2  0  0  0  0
  9  1  1  0  0  0  0
 10  9  2  0  0  0  0
 11  8  1  0  0  0  0
 12 11  1  0  0  0  0
 12 14  1  0  0  0  0
 13 12  1  0  0  0  0
 14 15  1  0  0  0  0
 14  7  1  0  0  0  0
 15 18  1  0  0  0  0
 16 15  1  0  0  0  0
 17 15  1  0  0  0  0
 18 21  1  0  0  0  0
 18 19  1  0  0  0  0
 20 18  1  0  0  0  0
M  END
