4
q = -1.0

 19 19  0  0  0  0  0  0  0  0999 V2000
   -5.3743   -2.0143   -0.3387 O   0  0  0  0  0  0  0  0  0  0  0  0
   -4.8675   -1.0928    1.6857 O   0  0  0  0  0  0  0  0  0  0  0  0
   -1.1941   -1.3202   -0.9615 N   0  0  0  0  0  0  0  0  0  0  0  0
   -1.0736   -0.8403    0.2954 N   0  0  0  0  0  2  0  0  0  0  0  0
   -2.1979   -0.8798    0.9877 N   0  0  0  0  0  0  0  0  0  0  0  0
   -2.4823   -1.6935   -1.0933 C   0  0  0  0  0  0  0  0  0  0  0  0
   -3.1211   -1.4148    0.1404 C   0  0  0  0  0  0  0  0  0  0  0  0
   -4.5467   -1.5568    0.4430 C   0  0  0  0  0  0  0  0  0  0  0  0
   -6.2645   -1.1287    2.0214 C   0  0  0  0  0  0  0  0  0  0  0  0
   -6.2920   -1.1833    3.1280 H   0  0  0  0  0  0  0  0  0  0  0  0
   -6.7184   -2.0483    1.5984 H   0  0  0  0  0  0  0  0  0  0  0  0
   -6.9915    0.1068    1.5089 C   0  0  0  0  0  0  0  0  0  0  0  0
   -6.5251    1.0328    1.9020 H   0  0  0  0  0  0  0  0  0  0  0  0
   -8.0534    0.0916    1.8285 H   0  0  0  0  0  0  0  0  0  0  0  0
   -6.9649    0.1349    0.4019 H   0  0  0  0  0  0  0  0  0  0  0  0
   -3.0389   -2.2397   -2.3642 C   0  0  0  0  0  0  0  0  0  0  0  0
   -2.2198   -2.5411   -3.0448 H   0  0  0  0  0  0  0  0  0  0  0  0
   -3.6593   -1.4734   -2.8757 H   0  0  0  0  0  0  0  0  0  0  0  0
   -3.7066   -3.1005   -2.1711 H   0  0  0  0  0  0  0  0  0  0  0  0
  1  8  2  0  0  0  0
  2  9  1  0  0  0  0
  3  4  1  0  0  0  0
  4  5  1  0  0  0  0
  6  3  2  0  0  0  0
  6  7  1  0  0  0  0
  7  8  1  0  0  0  0
  7  5  2  0  0  0  0
  8  2  1  0  0  0  0
  9 10  1  0  0  0  0
 11  9  1  0  0  0  0
 12 14  1  0  0  0  0
 12 13  1  0  0  0  0
 12  9  1  0  0  0  0
 15 12  1  0  0  0  0
 16 19  1  0  0  0  0
 16  6  1  0  0  0  0
 17 16  1  0  0  0  0
 18 16  1  0  0  0  0
M  END
