3
q = 0, confidence = 1.0

 36 35  0  0  0  0  0  0  0  0999 V2000
   -2.8274   -0.6840   -0.6736 P   0  0  0  0  0  4  0  0  0  0  0  0
   -2.2210    1.9286    0.9092 Si  0  0  0  0  0  0  0  0  0  0  0  0
   -1.8297    0.3931    0.0563 N   0  0  0  0  0  2  0  0  0  0  0  0
   -4.6274   -0.4520   -0.3168 C   0  0  0  0  0  0  0  0  0  0  0  0
   -4.7279   -0.4249    0.7853 H   0  0  0  0  0  0  0  0  0  0  0  0
   -4.8947    0.5611   -0.6728 H   0  0  0  0  0  0  0  0  0  0  0  0
   -5.5559   -1.5047   -0.9277 C   0  0  0  0  0  0  0  0  0  0  0  0
   -5.5038   -1.5193   -2.0345 H   0  0  0  0  0  0  0  0  0  0  0  0
   -6.6076   -1.2855   -0.6548 H   0  0  0  0  0  0  0  0  0  0  0  0
   -5.3305   -2.5273   -0.5652 H   0  0  0  0  0  0  0  0  0  0  0  0
   -2.7400   -0.6304   -2.5123 C   0  0  0  0  0  0  0  0  0  0  0  0
   -1.7477   -1.0271   -2.8007 H   0  0  0  0  0  0  0  0  0  0  0  0
   -3.5070   -1.3387   -2.8897 H   0  0  0  0  0  0  0  0  0  0  0  0
   -2.9314    0.7820   -3.0658 C   0  0  0  0  0  0  0  0  0  0  0  0
   -3.9266    1.2016   -2.8116 H   0  0  0  0  0  0  0  0  0  0  0  0
   -2.8419    0.7802   -4.1700 H   0  0  0  0  0  0  0  0  0  0  0  0
   -2.1540    1.4600   -2.6649 H   0  0  0  0  0  0  0  0  0  0  0  0
   -2.4896   -2.4236   -0.1973 C   0  0  0  0  0  0  0  0  0  0  0  0
   -3.0329   -3.0685   -0.9194 H   0  0  0  0  0  0  0  0  0  0  0  0
   -1.4026   -2.5790   -0.3441 H   0  0  0  0  0  0  0  0  0  0  0  0
   -2.8764   -2.7199    1.2513 C   0  0  0  0  0  0  0  0  0  0  0  0
   -2.3749   -2.0078    1.9344 H   0  0  0  0  0  0  0  0  0  0  0  0
   -2.5583   -3.7414    1.5375 H   0  0  0  0  0  0  0  0  0  0  0  0
   -3.9700   -2.6549    1.4208 H   0  0  0  0  0  0  0  0  0  0  0  0
   -1.4219    1.9279    2.6225 C   0  0  0  0  0  0  0  0  0  0  0  0
   -0.3431    1.7017    2.5747 H   0  0  0  0  0  0  0  0  0  0  0  0
   -1.9221    1.1747    3.2660 H   0  0  0  0  0  0  0  0  0  0  0  0
   -1.5534    2.9215    3.0992 H   0  0  0  0  0  0  0  0  0  0  0  0
   -4.0673    2.1660    1.3353 C   0  0  0  0  0  0  0  0  0  0  0  0
   -4.7349    2.3088    0.4631 H   0  0  0  0  0  0  0  0  0  0  0  0
   -4.1008    3.1113    1.9190 H   0  0  0  0  0  0  0  0  0  0  0  0
   -4.4911    1.3756    1.9864 H   0  0  0  0  0  0  0  0  0  0  0  0
   -1.8358    3.4071   -0.2054 C   0  0  0  0  0  0  0  0  0  0  0  0
   -0.8539    3.2958   -0.6988 H   0  0  0  0  0  0  0  0  0  0  0  0
   -1.8280    4.3481    0.3825 H   0  0  0  0  0  0  0  0  0  0  0  0
   -2.6208    3.5028   -0.9843 H   0  0  0  0  0  0  0  0  0  0  0  0
  1  4  1  0  0  0  0
  1 18  1  0  0  0  0
  1  3  1  0  0  0  0
  2 29  1  0  0  0  0
  2 25  1  0  0  0  0
  3  2  1  0  0  0  0
  4  5  1  0  0  0  0
  6  4  1  0  0  0  0
  7  9  1  0  0  0  0
  7 10  1  0  0  0  0
  7  4  1  0  0  0  0
  8  7  1  0  0  0  0
 11  1  1  0  0  0  0
 12 11  1  0  0  0  0
 13 11  1  0  0  0  0
 14 15  1  0  0  0  0
 14 17  1  0  0  0  0
 14 11  1  0  0  0  0
 16 14  1  0  0  0  0
 18 21  1  0  0  0  0
 19 18  1  0  0  0  0
 20 18  1  0  0  0  0
 21 24  1  0  0  0  0
 21 23  1  0  0  0  0
 21 22  1  0  0  0  0
 25 28  1  0  0  0  0
 25 27  1  0  0  0  0
 26 25  1  0  0  0  0
 29 31  1  0  0  0  0
 29 32  1  0  0  0  0
 30 29  1  0  0  0  0
 33 35  1  0  0  0  0
 33  2  1  0  0  0  0
 34 33  1  0  0  0  0
 36 33  1  0  0  0  0
M  END
