1
q = 0.0, confidence = 0.984

 17 17  0  0  1  0  0  0  0  0999 V2000
    1.1587   -0.4519   -0.2173 N   0  0  0  0  0  2  0  0  0  0  0  0
    2.1525    0.3704    0.2466 C   0  0  2  0  0  3  0  0  0  0  0  0
    3.4996    0.0282    0.0317 C   0  0  0  0  0  0  0  0  0  0  0  0
    4.2829    0.7011    0.4062 H   0  0  0  0  0  0  0  0  0  0  0  0
    3.8439   -1.1541   -0.6370 C   0  0  0  0  0  0  0  0  0  0  0  0
    4.9002   -1.4135   -0.8085 H   0  0  0  0  0  0  0  0  0  0  0  0
    2.8115   -2.0008   -1.0635 C   0  0  0  0  0  0  0  0  0  0  0  0
    3.0153   -2.9533   -1.5740 H   0  0  0  0  0  0  0  0  0  0  0  0
    1.4894   -1.6203   -0.8277 C   0  0  0  0  0  0  0  0  0  0  0  0
    0.6337   -2.2500   -1.1062 H   0  0  0  0  0  0  0  0  0  0  0  0
    1.7319    1.6046    0.9942 C   0  0  0  0  0  0  0  0  0  0  0  0
    1.1329    2.2187    0.2800 H   0  0  0  0  0  0  0  0  0  0  0  0
    0.9745    1.2807    1.7424 H   0  0  0  0  0  0  0  0  0  0  0  0
    2.8490    2.4193    1.6375 C   0  0  0  0  0  0  0  0  0  0  0  0
    2.4213    3.2819    2.1862 H   0  0  0  0  0  0  0  0  0  0  0  0
    3.5534    2.8312    0.8838 H   0  0  0  0  0  0  0  0  0  0  0  0
    3.4449    1.8256    2.3634 H   0  0  0  0  0  0  0  0  0  0  0  0
  1  2  1  0  0  0  0
  2 11  1  1  0  0  0
  3  2  1  0  0  0  0
  3  4  1  0  0  0  0
  5  3  2  0  0  0  0
  6  5  1  0  0  0  0
  7  9  2  0  0  0  0
  7  5  1  0  0  0  0
  8  7  1  0  0  0  0
  9  1  1  0  0  0  0
 10  9  1  0  0  0  0
 11 14  1  0  0  0  0
 11 13  1  0  0  0  0
 12 11  1  0  0  0  0
 14 15  1  0  0  0  0
 14 17  1  0  0  0  0
 16 14  1  0  0  0  0
M  END
