3
q = -1.0, confidence = 0.008

 39 40  0  0  0  0  0  0  0  0999 V2000
   -3.0814   -0.3085    0.3231 O   0  0  0  0  0  0  0  0  0  0  0  0
    3.3047   -0.6256   -0.1578 O   0  0  0  0  0  0  0  0  0  0  0  0
   -0.8466    1.1650    0.0332 N   0  0  0  0  0  2  0  0  0  0  0  0
    0.2724    1.8380    0.0639 N   0  0  0  0  0  2  0  0  0  0  0  0
    1.2916    1.0687    0.0564 N   0  0  0  0  0  2  0  0  0  0  0  0
   -2.0783    1.8005   -0.1053 C   0  0  0  0  0  0  0  0  0  0  0  0
   -3.2650    1.0136    0.0295 C   0  0  0  0  0  0  0  0  0  0  0  0
   -4.5223    1.6167   -0.1404 C   0  0  0  0  0  0  0  0  0  0  0  0
   -5.4363    1.0157   -0.0511 H   0  0  0  0  0  0  0  0  0  0  0  0
   -4.6214    2.9915   -0.4144 C   0  0  0  0  0  0  0  0  0  0  0  0
   -5.6149    3.4469   -0.5377 H   0  0  0  0  0  0  0  0  0  0  0  0
   -3.4617    3.7708   -0.5304 C   0  0  0  0  0  0  0  0  0  0  0  0
   -3.5340    4.8472   -0.7452 H   0  0  0  0  0  0  0  0  0  0  0  0
   -2.2012    3.1788   -0.3857 C   0  0  0  0  0  0  0  0  0  0  0  0
   -1.2795    3.7666   -0.4879 H   0  0  0  0  0  0  0  0  0  0  0  0
   -4.2219   -1.1638    0.4543 C   0  0  0  0  0  0  0  0  0  0  0  0
   -4.7649   -1.2051   -0.5179 H   0  0  0  0  0  0  0  0  0  0  0  0
   -4.9190   -0.7319    1.2080 H   0  0  0  0  0  0  0  0  0  0  0  0
   -3.7473   -2.5380    0.8836 C   0  0  0  0  0  0  0  0  0  0  0  0
   -4.6149   -3.2209    0.9738 H   0  0  0  0  0  0  0  0  0  0  0  0
   -3.2420   -2.4909    1.8687 H   0  0  0  0  0  0  0  0  0  0  0  0
   -3.0326   -2.9736    0.1577 H   0  0  0  0  0  0  0  0  0  0  0  0
    2.5715    1.6033    0.1532 C   0  0  0  0  0  0  0  0  0  0  0  0
    3.6519    0.6681    0.0471 C   0  0  0  0  0  0  0  0  0  0  0  0
    4.9771    1.1322    0.1555 C   0  0  0  0  0  0  0  0  0  0  0  0
    5.8157    0.4280    0.0808 H   0  0  0  0  0  0  0  0  0  0  0  0
    5.2363    2.4979    0.3565 C   0  0  0  0  0  0  0  0  0  0  0  0
    6.2788    2.8405    0.4377 H   0  0  0  0  0  0  0  0  0  0  0  0
    4.1803    3.4181    0.4558 C   0  0  0  0  0  0  0  0  0  0  0  0
    4.3877    4.4865    0.6160 H   0  0  0  0  0  0  0  0  0  0  0  0
    2.8584    2.9706    0.3572 C   0  0  0  0  0  0  0  0  0  0  0  0
    2.0126    3.6671    0.4415 H   0  0  0  0  0  0  0  0  0  0  0  0
    4.3281   -1.6156   -0.2588 C   0  0  0  0  0  0  0  0  0  0  0  0
    4.9234   -1.6358    0.6840 H   0  0  0  0  0  0  0  0  0  0  0  0
    5.0278   -1.3496   -1.0853 H   0  0  0  0  0  0  0  0  0  0  0  0
    3.6642   -2.9539   -0.5175 C   0  0  0  0  0  0  0  0  0  0  0  0
    4.4315   -3.7501   -0.5867 H   0  0  0  0  0  0  0  0  0  0  0  0
    3.0906   -2.9348   -1.4646 H   0  0  0  0  0  0  0  0  0  0  0  0
    2.9541   -3.2128    0.2915 H   0  0  0  0  0  0  0  0  0  0  0  0
  1 16  1  0  0  0  0
  2 24  1  0  0  0  0
  3  4  1  0  0  0  0
  5  4  1  0  0  0  0
  5 23  1  0  0  0  0
  6  7  1  0  0  0  0
  6  3  1  0  0  0  0
  7  1  1  0  0  0  0
  8  9  1  0  0  0  0
  8  7  2  0  0  0  0
 10  8  1  0  0  0  0
 11 10  1  0  0  0  0
 12 10  2  0  0  0  0
 12 14  1  0  0  0  0
 13 12  1  0  0  0  0
 14  6  2  0  0  0  0
 15 14  1  0  0  0  0
 16 19  1  0  0  0  0
 16 18  1  0  0  0  0
 17 16  1  0  0  0  0
 19 20  1  0  0  0  0
 19 21  1  0  0  0  0
 22 19  1  0  0  0  0
 23 31  1  0  0  0  0
 24 23  2  0  0  0  0
 24 25  1  0  0  0  0
 25 27  2  0  0  0  0
 26 25  1  0  0  0  0
 27 28  1  0  0  0  0
 27 29  1  0  0  0  0
 29 30  1  0  0  0  0
 31 32  1  0  0  0  0
 31 29  2  0  0  0  0
 33  2  1  0  0  0  0
 33 34  1  0  0  0  0
 35 33  1  0  0  0  0
 36 33  1  0  0  0  0
 36 39  1  0  0  0  0
 37 36  1  0  0  0  0
 38 36  1  0  0  0  0
M  END
