3
q = -1.0, confidence = 0.026

 19 20  0  0  0  0  0  0  0  0999 V2000
    7.1882    2.0305   -0.0593 S   0  0  0  0  0  0  0  0  0  0  0  0
    7.0372   -0.5780   -0.1110 N   0  0  0  0  0  0  0  0  0  0  0  0
    1.9922    0.1993   -0.0350 N   0  0  0  0  0  2  0  0  0  0  0  0
   10.4956   -0.7640    0.6481 O   0  5  0  0  0  0  0  0  0  0  0  0
    9.3493   -2.4455   -0.3606 O   0  0  0  0  0  0  0  0  0  0  0  0
    9.4993   -1.2865    0.0636 C   0  0  0  0  0  0  0  0  0  0  0  0
    8.3558   -0.2714   -0.0934 C   0  0  0  0  0  0  0  0  0  0  0  0
    8.6342    1.1039   -0.0851 C   0  0  0  0  0  0  0  0  0  0  0  0
    9.6333    1.5553   -0.0695 H   0  0  0  0  0  0  0  0  0  0  0  0
    6.2658    0.5038   -0.0681 C   0  0  0  0  0  0  0  0  0  0  0  0
    2.6010    1.4264   -0.0365 C   0  0  0  0  0  3  0  0  0  0  0  0
    1.9262    2.2984   -0.0441 H   0  0  0  0  0  0  0  0  0  0  0  0
    3.9752    1.5922   -0.0460 C   0  0  0  0  0  0  0  0  0  0  0  0
    4.3946    2.6092   -0.0516 H   0  0  0  0  0  0  0  0  0  0  0  0
    4.8349    0.4517   -0.0507 C   0  0  0  0  0  0  0  0  0  0  0  0
    4.1883   -0.8264   -0.0486 C   0  0  0  0  0  0  0  0  0  0  0  0
    4.8190   -1.7269   -0.0538 H   0  0  0  0  0  0  0  0  0  0  0  0
    2.8108   -0.9037   -0.0417 C   0  0  0  0  0  0  0  0  0  0  0  0
    2.3003   -1.8816   -0.0353 H   0  0  0  0  0  0  0  0  0  0  0  0
  2  7  1  0  0  0  0
  2 10  2  0  0  0  0
  5  6  2  0  0  0  0
  6  4  1  0  0  0  0
  7  8  2  0  0  0  0
  7  6  1  0  0  0  0
  8  9  1  0  0  0  0
  8  1  1  0  0  0  0
 10  1  1  0  0  0  0
 10 15  1  0  0  0  0
 11  3  1  0  0  0  0
 12 11  1  0  0  0  0
 13 11  1  0  0  0  0
 14 13  1  0  0  0  0
 15 16  1  0  0  0  0
 15 13  2  0  0  0  0
 16 18  2  0  0  0  0
 17 16  1  0  0  0  0
 18 19  1  0  0  0  0
 18  3  1  0  0  0  0
M  CHG  1   4  -1
M  END
