1
q = 0.0, confidence = 0.998

 13 13  0  0  0  0  0  0  0  0999 V2000
    1.6440    0.1950   -0.2467 N   0  0  0  0  0  2  0  0  0  0  0  0
    2.3692   -0.1911    0.8217 C   0  0  0  0  0  3  0  0  0  0  0  0
    2.0312    0.2137    1.7910 H   0  0  0  0  0  0  0  0  0  0  0  0
    3.4822   -1.0250    0.7103 C   0  0  0  0  0  0  0  0  0  0  0  0
    4.0489   -1.3138    1.6077 H   0  0  0  0  0  0  0  0  0  0  0  0
    3.8616   -1.4762   -0.5744 C   0  0  0  0  0  0  0  0  0  0  0  0
    3.1035   -1.0589   -1.6890 C   0  0  0  0  0  0  0  0  0  0  0  0
    3.3851   -1.3865   -2.6988 H   0  0  0  0  0  0  0  0  0  0  0  0
    2.0074   -0.2236   -1.4765 C   0  0  0  0  0  0  0  0  0  0  0  0
    1.3867    0.1565   -2.3054 H   0  0  0  0  0  0  0  0  0  0  0  0
    4.9554   -2.3146   -0.8188 N   0  0  0  0  0  0  0  0  0  0  0  0
    5.6645   -2.7097    0.1162 N   0  0  0  0  0  4  0  0  0  0  0  0
    6.4080   -3.1559    0.8691 N   0  0  0  0  0  2  0  0  0  0  0  0
  1  2  1  0  0  0  0
  2  3  1  0  0  0  0
  4  2  1  0  0  0  0
  4  5  1  0  0  0  0
  6  4  2  0  0  0  0
  7  9  2  0  0  0  0
  7  6  1  0  0  0  0
  8  7  1  0  0  0  0
  9  1  1  0  0  0  0
 10  9  1  0  0  0  0
 11  6  1  0  0  0  0
 11 12  2  0  0  0  0
 12 13  2  0  0  0  0
M  END
