1
q = 0.0, confidence = 0.982

 12 12  0  0  0  0  0  0  0  0999 V2000
    2.0779   -0.1717   -0.2422 N   0  0  0  0  0  2  0  0  0  0  0  0
    2.5127   -0.4601    1.9784 O   0  0  0  0  0  0  0  0  0  0  0  0
    3.2549   -0.6085    2.5930 H   0  0  0  0  0  0  0  0  0  0  0  0
    2.5059   -0.0769   -1.5281 C   0  0  0  0  0  3  0  0  0  0  0  0
    1.7092    0.0929   -2.2662 H   0  0  0  0  0  0  0  0  0  0  0  0
    3.8479   -0.1841   -1.8936 C   0  0  0  0  0  0  0  0  0  0  0  0
    4.1330   -0.0982   -2.9509 H   0  0  0  0  0  0  0  0  0  0  0  0
    4.8025   -0.4000   -0.8872 C   0  0  0  0  0  0  0  0  0  0  0  0
    5.8718   -0.4907   -1.1294 H   0  0  0  0  0  0  0  0  0  0  0  0
    4.3734   -0.4979    0.4386 C   0  0  0  0  0  0  0  0  0  0  0  0
    5.0887   -0.6669    1.2586 H   0  0  0  0  0  0  0  0  0  0  0  0
    2.9980   -0.3784    0.7293 C   0  0  0  0  0  0  0  0  0  0  0  0
  1 12  1  0  0  0  0
  2  3  1  0  0  0  0
  4  1  1  0  0  0  0
  5  4  1  0  0  0  0
  6  4  1  0  0  0  0
  6  8  2  0  0  0  0
  7  6  1  0  0  0  0
  8 10  1  0  0  0  0
  9  8  1  0  0  0  0
 10 12  2  0  0  0  0
 10 11  1  0  0  0  0
 12  2  1  0  0  0  0
M  END
