8
q = -1.0

 24 25  0  0  0  0  0  0  0  0999 V2000
    0.8453    0.0488   -2.6702 S   0  0  0  0  0  0  0  0  0  0  0  0
   -4.5848   -0.0042    0.2897 N   0  0  0  0  0  0  0  0  0  0  0  0
   -4.7793   -1.2671   -0.3343 C   0  0  0  0  0  0  0  0  0  0  0  0
   -3.7379   -1.7021   -1.1614 N   0  0  0  0  0  0  0  0  0  0  0  0
   -2.6120   -0.9266   -1.3299 C   0  0  0  0  0  0  0  0  0  0  0  0
   -2.4612    0.3234   -0.7020 C   0  0  0  0  0  3  0  0  0  0  0  0
   -3.4721    0.8469    0.1556 C   0  0  0  0  0  0  0  0  0  0  0  0
   -1.2136    0.8047   -1.0732 N   0  0  0  0  0  0  0  0  0  0  0  0
   -0.7242   -0.1661   -1.8926 C   0  0  0  0  0  0  0  0  0  0  0  0
   -1.5332   -1.2338   -2.0861 N   0  0  0  0  0  0  0  0  0  0  0  0
   -3.8494   -2.9834   -1.8479 C   0  0  0  0  0  0  0  0  0  0  0  0
   -5.7949   -1.9300   -0.1521 O   0  0  0  0  0  0  0  0  0  0  0  0
   -5.6560    0.4702    1.1657 C   0  0  0  0  0  0  0  0  0  0  0  0
   -3.4749    1.9387    0.7808 O   0  0  0  0  0  0  0  0  0  0  0  0
    1.5761   -1.5984   -2.3794 C   0  0  0  0  0  0  0  0  0  0  0  0
   -6.4430   -0.3016    1.1771 H   0  0  0  0  0  0  0  0  0  0  0  0
   -5.2608    0.6448    2.1851 H   0  0  0  0  0  0  0  0  0  0  0  0
   -6.0564    1.4316    0.7905 H   0  0  0  0  0  0  0  0  0  0  0  0
   -4.8291   -3.4180   -1.5858 H   0  0  0  0  0  0  0  0  0  0  0  0
   -3.0301   -3.6584   -1.5307 H   0  0  0  0  0  0  0  0  0  0  0  0
   -3.7690   -2.8348   -2.9425 H   0  0  0  0  0  0  0  0  0  0  0  0
    0.8378   -2.3669   -2.6750 H   0  0  0  0  0  0  0  0  0  0  0  0
    1.8609   -1.7191   -1.3161 H   0  0  0  0  0  0  0  0  0  0  0  0
    2.4738   -1.6673   -3.0218 H   0  0  0  0  0  0  0  0  0  0  0  0
  1 15  1  0  0  0  0
  1  9  1  0  0  0  0
  2 13  1  0  0  0  0
  3 12  2  0  0  0  0
  3  2  1  0  0  0  0
  4  3  1  0  0  0  0
  5  4  1  0  0  0  0
  5  6  1  0  0  0  0
  6  7  1  0  0  0  0
  7  2  1  0  0  0  0
  7 14  2  0  0  0  0
  8  6  1  0  0  0  0
  9  8  2  0  0  0  0
 10  9  1  0  0  0  0
 10  5  2  0  0  0  0
 11 19  1  0  0  0  0
 11 20  1  0  0  0  0
 11  4  1  0  0  0  0
 13 16  1  0  0  0  0
 13 17  1  0  0  0  0
 15 23  1  0  0  0  0
 18 13  1  0  0  0  0
 21 11  1  0  0  0  0
 22 15  1  0  0  0  0
 24 15  1  0  0  0  0
M  END
