3
q = -1.0, confidence = 0.0

 20 22  0  0  0  0  0  0  0  0999 V2000
   -5.3276    1.2010   -1.4643 S   0  0  0  0  0  0  0  0  0  0  0  0
   -1.6435    3.2830    0.5523 N   0  0  0  0  0  0  0  0  0  0  0  0
   -0.6417    1.2477    0.2468 N   0  0  0  0  0  0  0  0  0  0  0  0
   -2.8678    0.4063   -1.4410 N   0  0  0  0  0  0  0  0  0  0  0  0
    2.0692    2.7210    2.3587 C   0  0  0  0  0  0  0  0  0  0  0  0
    3.0281    2.5135    2.8594 H   0  0  0  0  0  0  0  0  0  0  0  0
    1.4746    4.0046    2.4935 C   0  0  0  0  0  0  0  0  0  0  0  0
    1.9955    4.7756    3.0821 H   0  0  0  0  0  0  0  0  0  0  0  0
    0.2301    4.2963    1.9253 C   0  0  0  0  0  0  0  0  0  0  0  0
   -0.2482    5.2786    2.0538 H   0  0  0  0  0  0  0  0  0  0  0  0
   -0.4200    3.2845    1.1841 C   0  0  0  0  0  3  0  0  0  0  0  0
    0.2157    2.0034    1.0152 C   0  0  0  0  0  0  0  0  0  0  0  0
    1.4475    1.7013    1.6286 C   0  0  0  0  0  0  0  0  0  0  0  0
    1.8780    0.6918    1.5687 H   0  0  0  0  0  0  0  0  0  0  0  0
   -1.7290    2.0590    0.0104 C   0  0  0  0  0  0  0  0  0  0  0  0
   -2.9174    1.5594   -0.6764 C   0  0  0  0  0  0  0  0  0  0  0  0
   -4.1749    2.1411   -0.5894 C   0  0  0  0  0  0  0  0  0  0  0  0
   -4.4425    3.0417   -0.0263 H   0  0  0  0  0  0  0  0  0  0  0  0
   -4.0529    0.0952   -1.9092 C   0  0  0  0  0  0  0  0  0  0  0  0
   -4.2596   -0.7819   -2.5392 H   0  0  0  0  0  0  0  0  0  0  0  0
  1 17  1  0  0  0  0
  2 11  1  0  0  0  0
  3 12  2  0  0  0  0
  4 16  1  0  0  0  0
  5  7  1  0  0  0  0
  5  6  1  0  0  0  0
  7  8  1  0  0  0  0
  9 10  1  0  0  0  0
  9  7  2  0  0  0  0
 11  9  1  0  0  0  0
 12 11  1  0  0  0  0
 12 13  1  0  0  0  0
 13  5  2  0  0  0  0
 14 13  1  0  0  0  0
 15  3  1  0  0  0  0
 15  2  2  0  0  0  0
 16 17  2  0  0  0  0
 16 15  1  0  0  0  0
 17 18  1  0  0  0  0
 19  1  1  0  0  0  0
 19  4  2  0  0  0  0
 20 19  1  0  0  0  0
M  END
