1
q = -1.0, confidence = 0.0

 35 42  0  0  1  0  0  0  0  0999 V2000
   -0.6734    1.8711   -0.3564 N   0  0  0  0  0  2  0  0  0  0  0  0
   -0.8125   -1.0670    0.0233 C   0  0  1  0  0  0  0  0  0  0  0  0
   -2.3048   -0.5526    0.5446 C   0  0  2  0  0  0  0  0  0  0  0  0
   -2.3698    0.8616    1.1125 C   0  0  0  0  0  0  0  0  0  0  0  0
   -3.4074    1.0601    1.4348 H   0  0  0  0  0  0  0  0  0  0  0  0
   -1.7324    0.8921    2.0181 H   0  0  0  0  0  0  0  0  0  0  0  0
   -1.9269    1.9406    0.1690 C   0  0  1  0  0  3  0  0  0  0  0  0
   -2.7899    2.9993   -0.1593 C   0  0  0  0  0  0  0  0  0  0  0  0
   -3.7991    3.0109    0.2758 H   0  0  0  0  0  0  0  0  0  0  0  0
   -2.3686    4.0082   -1.0322 C   0  0  0  0  0  0  0  0  0  0  0  0
   -3.0390    4.8404   -1.2931 H   0  0  0  0  0  0  0  0  0  0  0  0
   -1.0801    3.9209   -1.5726 C   0  0  0  0  0  0  0  0  0  0  0  0
   -0.6946    4.6726   -2.2753 H   0  0  0  0  0  0  0  0  0  0  0  0
   -0.2717    2.8373   -1.2208 C   0  0  0  0  0  0  0  0  0  0  0  0
    0.7234    2.6912   -1.6616 H   0  0  0  0  0  0  0  0  0  0  0  0
   -1.4718   -1.6728    1.5180 B   0  0  2  0  0  0  0  0  0  0  0  0
   -1.0326   -1.2838    2.5678 H   0  0  0  0  0  0  0  0  0  0  0  0
   -0.6883   -2.7613    0.3916 B   0  0  1  0  0  0  0  0  0  0  0  0
    0.3885   -3.2252    0.6701 H   0  0  0  0  0  0  0  0  0  0  0  0
   -1.0529   -2.2184   -1.2472 B   0  0  1  0  0  0  0  0  0  0  0  0
   -0.2325   -2.2905   -2.1222 H   0  0  0  0  0  0  0  0  0  0  0  0
   -2.0689   -0.7800   -1.1364 B   0  0  1  0  0  0  0  0  0  0  0  0
   -1.9911    0.1793   -1.8512 H   0  0  0  0  0  0  0  0  0  0  0  0
   -3.5982   -1.2281   -0.3479 B   0  0  2  0  0  0  0  0  0  0  0  0
   -4.5605   -0.5228   -0.5429 H   0  0  0  0  0  0  0  0  0  0  0  0
   -3.2292   -1.7835    1.2974 B   0  0  2  0  0  0  0  0  0  0  0  0
   -3.9327   -1.4492    2.2217 H   0  0  0  0  0  0  0  0  0  0  0  0
   -2.2168   -3.2378    1.1856 B   0  0  1  0  0  0  0  0  0  0  0  0
   -2.2361   -4.0814    2.0524 H   0  0  0  0  0  0  0  0  0  0  0  0
   -1.9618   -3.5833   -0.5445 B   0  0  2  0  0  0  0  0  0  0  0  0
   -1.7930   -4.7075   -0.9587 H   0  0  0  0  0  0  0  0  0  0  0  0
   -2.8204   -2.3410   -1.4951 B   0  0  2  0  0  0  0  0  0  0  0  0
   -3.2870   -2.5377   -2.5929 H   0  0  0  0  0  0  0  0  0  0  0  0
   -3.5431   -2.9709    0.0143 B   0  0  0  0  0  0  0  0  0  0  0  0
   -4.5544   -3.6350    0.0241 H   0  0  0  0  0  0  0  0  0  0  0  0
  1  7  1  0  0  0  0
  2 18  1  0  0  0  0
  2  3  1  0  0  0  0
  3  4  1  0  0  0  0
  3 16  1  0  0  0  0
  4  5  1  0  0  0  0
  4  6  1  0  0  0  0
  7  4  1  0  0  0  0
  8  7  1  0  0  0  0
  8  9  1  0  0  0  0
 10  8  2  0  0  0  0
 11 10  1  0  0  0  0
 12 14  2  0  0  0  0
 12 10  1  0  0  0  0
 13 12  1  0  0  0  0
 14  1  1  0  0  0  0
 15 14  1  0  0  0  0
 16 17  1  0  0  0  0
 18 19  1  0  0  0  0
 18 16  1  0  0  0  0
 20 22  1  0  0  0  0
 20  2  1  0  0  0  0
 20 18  1  0  0  0  0
 21 20  1  0  0  0  0
 22  2  1  0  0  0  0
 23 22  1  0  0  0  0
 24  3  1  0  0  0  0
 24 26  1  0  0  0  0
 25 24  1  0  0  0  0
 26 27  1  0  0  0  0
 28 26  1  0  0  0  0
 28 16  1  0  0  0  0
 28 29  1  0  0  0  0
 30 34  1  0  0  0  0
 30 28  1  0  0  0  0
 31 30  1  0  0  0  0
 32 22  1  0  0  0  0
 32 30  1  0  0  0  0
 32 24  1  0  0  0  0
 33 32  1  0  0  0  0
 34 35  1  0  0  0  0
 34 26  1  0  0  0  0
M  END
