1
q = 0.0, confidence = 0.99

 22 23  0  0  0  0  0  0  0  0999 V2000
    2.3044   -0.3428    0.0038 N   0  0  0  0  0  2  0  0  0  0  0  0
    7.4404    0.9102   -0.5406 N   0  0  0  0  0  0  0  0  0  0  0  0
    3.1952    0.6217   -0.2978 C   0  0  0  0  0  3  0  0  0  0  0  0
    2.7765    1.6138   -0.5413 H   0  0  0  0  0  0  0  0  0  0  0  0
    4.5782    0.3948   -0.3003 C   0  0  0  0  0  0  0  0  0  0  0  0
    5.2853    1.1961   -0.5461 H   0  0  0  0  0  0  0  0  0  0  0  0
    5.0596   -0.8902    0.0234 C   0  0  0  0  0  0  0  0  0  0  0  0
    4.1112   -1.8873    0.3380 C   0  0  0  0  0  0  0  0  0  0  0  0
    4.4608   -2.8965    0.5964 H   0  0  0  0  0  0  0  0  0  0  0  0
    2.7501   -1.5779    0.3185 C   0  0  0  0  0  0  0  0  0  0  0  0
    1.9810   -2.3273    0.5702 H   0  0  0  0  0  0  0  0  0  0  0  0
    6.5123   -1.3181    0.0718 C   0  0  0  0  0  0  0  0  0  0  0  0
    7.6653   -0.3766   -0.2100 C   0  0  0  0  0  0  0  0  0  0  0  0
    8.9665   -0.9159   -0.1072 C   0  0  0  0  0  0  0  0  0  0  0  0
    9.0765   -1.9743    0.1662 H   0  0  0  0  0  0  0  0  0  0  0  0
   10.0620   -0.0832   -0.3564 C   0  0  0  0  0  0  0  0  0  0  0  0
   11.0889   -0.4726   -0.2838 H   0  0  0  0  0  0  0  0  0  0  0  0
    9.8255    1.2561   -0.6995 C   0  0  0  0  0  0  0  0  0  0  0  0
   10.6545    1.9498   -0.9040 H   0  0  0  0  0  0  0  0  0  0  0  0
    8.4945    1.7008   -0.7779 C   0  0  0  0  0  0  0  0  0  0  0  0
    8.2711    2.7485   -1.0455 H   0  0  0  0  0  0  0  0  0  0  0  0
    6.7719   -2.4856    0.3568 O   0  0  0  0  0  0  0  0  0  0  0  0
  1 10  1  0  0  0  0
  2 13  1  0  0  0  0
  3  1  1  0  0  0  0
  4  3  1  0  0  0  0
  5  3  1  0  0  0  0
  5  7  2  0  0  0  0
  6  5  1  0  0  0  0
  7 12  1  0  0  0  0
  7  8  1  0  0  0  0
  8  9  1  0  0  0  0
 10  8  2  0  0  0  0
 10 11  1  0  0  0  0
 12 22  2  0  0  0  0
 13 14  2  0  0  0  0
 13 12  1  0  0  0  0
 14 15  1  0  0  0  0
 16 17  1  0  0  0  0
 16 14  1  0  0  0  0
 18 16  2  0  0  0  0
 19 18  1  0  0  0  0
 20 18  1  0  0  0  0
 20  2  2  0  0  0  0
 21 20  1  0  0  0  0
M  END
