1
q = -1.0

 18 18  0  0  0  0  0  0  0  0999 V2000
    1.2428   -0.5920   -0.6856 N   0  0  0  0  0  2  0  0  0  0  0  0
    1.3130   -1.9411   -0.6919 N   0  0  0  0  0  0  0  0  0  0  0  0
    2.5400   -2.5377   -0.3193 C   0  0  0  0  0  0  0  0  0  0  0  0
    2.9021   -3.8132   -0.8097 C   0  0  0  0  0  0  0  0  0  0  0  0
    4.1376   -4.3693   -0.4598 C   0  0  0  0  0  0  0  0  0  0  0  0
    5.0318   -3.6673    0.3671 C   0  0  0  0  0  0  0  0  0  0  0  0
    4.6682   -2.4034    0.8580 C   0  0  0  0  0  0  0  0  0  0  0  0
    3.4278   -1.8387    0.5327 C   0  0  0  0  0  0  0  0  0  0  0  0
    0.0632   -2.6741   -0.6288 C   0  0  0  0  0  0  0  0  0  0  0  0
    2.1613   -0.2016   -0.9622 H   0  0  0  0  0  0  0  0  0  0  0  0
    2.2270   -4.3569   -1.4862 H   0  0  0  0  0  0  0  0  0  0  0  0
    4.4121   -5.3600   -0.8529 H   0  0  0  0  0  0  0  0  0  0  0  0
    6.0031   -4.1093    0.6337 H   0  0  0  0  0  0  0  0  0  0  0  0
    5.3474   -1.8546    1.5281 H   0  0  0  0  0  0  0  0  0  0  0  0
    3.1083   -0.8828    0.9785 H   0  0  0  0  0  0  0  0  0  0  0  0
   -0.3421   -2.7059    0.4067 H   0  0  0  0  0  0  0  0  0  0  0  0
    0.2282   -3.7105   -0.9720 H   0  0  0  0  0  0  0  0  0  0  0  0
   -0.6792   -2.1844   -1.2861 H   0  0  0  0  0  0  0  0  0  0  0  0
  2  1  1  0  0  0  0
  2  9  1  0  0  0  0
  2  3  1  0  0  0  0
  3  8  1  0  0  0  0
  4  5  1  0  0  0  0
  4  3  2  0  0  0  0
  5  6  2  0  0  0  0
  6 13  1  0  0  0  0
  6  7  1  0  0  0  0
  7 14  1  0  0  0  0
  8  7  2  0  0  0  0
  8 15  1  0  0  0  0
  9 16  1  0  0  0  0
 10  1  1  0  0  0  0
 11  4  1  0  0  0  0
 12  5  1  0  0  0  0
 17  9  1  0  0  0  0
 18  9  1  0  0  0  0
M  END
