1
q = -1.0, confidence = 0.002

 32 33  0  0  0  0  0  0  0  0999 V2000
   -0.2407   -0.9996    0.6107 N   0  0  0  0  0  2  0  0  0  0  0  0
    2.0589   -1.2726    0.1560 N   0  0  0  0  0  0  0  0  0  0  0  0
    0.8889   -1.7680    0.3633 C   0  0  0  0  0  0  0  0  0  0  0  0
   -1.4704   -1.6000    0.2394 C   0  0  0  0  0  0  0  0  0  0  0  0
   -1.5976   -2.2356   -1.0180 C   0  0  0  0  0  0  0  0  0  0  0  0
   -2.8109   -2.8196   -1.3952 C   0  0  0  0  0  0  0  0  0  0  0  0
   -3.9343   -2.7879   -0.5422 C   0  0  0  0  0  0  0  0  0  0  0  0
   -5.2614   -3.3471   -0.9829 C   0  0  0  0  0  0  0  0  0  0  0  0
   -3.7859   -2.1683    0.7155 C   0  0  0  0  0  0  0  0  0  0  0  0
   -2.5819   -1.5765    1.1068 C   0  0  0  0  0  0  0  0  0  0  0  0
    3.1763   -2.0721   -0.0553 C   0  0  0  0  0  0  0  0  0  0  0  0
    3.1614   -3.2907   -0.7781 C   0  0  0  0  0  0  0  0  0  0  0  0
    4.3458   -4.0090   -0.9784 C   0  0  0  0  0  0  0  0  0  0  0  0
    5.5788   -3.5581   -0.4631 C   0  0  0  0  0  0  0  0  0  0  0  0
    6.8542   -4.3292   -0.6856 C   0  0  0  0  0  0  0  0  0  0  0  0
    5.5854   -2.3417    0.2569 C   0  0  0  0  0  0  0  0  0  0  0  0
    4.4172   -1.6018    0.4454 C   0  0  0  0  0  0  0  0  0  0  0  0
    0.6898   -2.8651    0.3823 H   0  0  0  0  0  0  0  0  0  0  0  0
   -0.7407   -2.2406   -1.7085 H   0  0  0  0  0  0  0  0  0  0  0  0
   -2.8950   -3.2971   -2.3844 H   0  0  0  0  0  0  0  0  0  0  0  0
   -5.8487   -2.5727   -1.5233 H   0  0  0  0  0  0  0  0  0  0  0  0
   -5.1394   -4.2054   -1.6729 H   0  0  0  0  0  0  0  0  0  0  0  0
   -5.8734   -3.6774   -0.1206 H   0  0  0  0  0  0  0  0  0  0  0  0
   -4.6455   -2.1316    1.4027 H   0  0  0  0  0  0  0  0  0  0  0  0
   -2.4823   -1.0690    2.0769 H   0  0  0  0  0  0  0  0  0  0  0  0
    2.2187   -3.6553   -1.2138 H   0  0  0  0  0  0  0  0  0  0  0  0
    4.3166   -4.9461   -1.5574 H   0  0  0  0  0  0  0  0  0  0  0  0
    7.5632   -3.7618   -1.3257 H   0  0  0  0  0  0  0  0  0  0  0  0
    7.3794   -4.5272    0.2719 H   0  0  0  0  0  0  0  0  0  0  0  0
    6.6640   -5.3026   -1.1777 H   0  0  0  0  0  0  0  0  0  0  0  0
    6.5344   -1.9670    0.6733 H   0  0  0  0  0  0  0  0  0  0  0  0
    4.4170   -0.6597    1.0137 H   0  0  0  0  0  0  0  0  0  0  0  0
  2  3  2  0  0  0  0
  3 18  1  0  0  0  0
  3  1  1  0  0  0  0
  4  1  1  0  0  0  0
  4 10  1  0  0  0  0
  5  4  2  0  0  0  0
  6  5  1  0  0  0  0
  6  7  2  0  0  0  0
  7  9  1  0  0  0  0
  8  7  1  0  0  0  0
  8 23  1  0  0  0  0
  9 10  2  0  0  0  0
  9 24  1  0  0  0  0
 10 25  1  0  0  0  0
 11  2  1  0  0  0  0
 11 17  1  0  0  0  0
 12 11  2  0  0  0  0
 13 12  1  0  0  0  0
 13 14  2  0  0  0  0
 14 16  1  0  0  0  0
 15 14  1  0  0  0  0
 15 29  1  0  0  0  0
 16 17  2  0  0  0  0
 16 31  1  0  0  0  0
 17 32  1  0  0  0  0
 19  5  1  0  0  0  0
 20  6  1  0  0  0  0
 21  8  1  0  0  0  0
 22  8  1  0  0  0  0
 26 12  1  0  0  0  0
 27 13  1  0  0  0  0
 28 15  1  0  0  0  0
 30 15  1  0  0  0  0
M  END
