1
q = 0.0, confidence = 0.996

 30 30  0  0  1  0  0  0  0  0999 V2000
   -1.3658    0.8552    0.4892 N   0  0  0  0  0  2  0  0  0  0  0  0
   -2.7003    0.6460    0.4842 N   0  0  0  0  0  0  0  0  0  0  0  0
   -1.1867    2.1960    0.5303 C   0  0  2  0  0  3  0  0  0  0  0  0
   -2.4563    2.8281    0.5500 C   0  0  0  0  0  0  0  0  0  0  0  0
   -3.4095    1.8026    0.5065 C   0  0  0  0  0  0  0  0  0  0  0  0
    0.1750    2.8398    0.5356 C   0  0  0  0  0  0  0  0  0  0  0  0
    0.4350    3.5792    1.8584 C   0  0  0  0  0  0  0  0  0  0  0  0
    0.3564    3.7697   -0.6753 C   0  0  0  0  0  0  0  0  0  0  0  0
   -4.9237    1.8092    0.4602 C   0  0  0  0  0  0  0  0  0  0  0  0
   -5.4769    1.0076    1.6601 C   0  0  0  0  0  0  0  0  0  0  0  0
   -5.3886    1.1563   -0.8626 C   0  0  0  0  0  0  0  0  0  0  0  0
   -5.4306    3.2591    0.5285 C   0  0  0  0  0  0  0  0  0  0  0  0
   -3.0144   -0.3306    0.3239 H   0  0  0  0  0  0  0  0  0  0  0  0
   -2.6533    3.9034    0.5835 H   0  0  0  0  0  0  0  0  0  0  0  0
    0.9131    2.0212    0.4538 H   0  0  0  0  0  0  0  0  0  0  0  0
    1.4614    3.9989    1.8681 H   0  0  0  0  0  0  0  0  0  0  0  0
    0.3416    2.8935    2.7227 H   0  0  0  0  0  0  0  0  0  0  0  0
   -0.2788    4.4176    1.9988 H   0  0  0  0  0  0  0  0  0  0  0  0
    1.3848    4.1843   -0.6886 H   0  0  0  0  0  0  0  0  0  0  0  0
   -0.3526    4.6233   -0.6440 H   0  0  0  0  0  0  0  0  0  0  0  0
    0.1962    3.2275   -1.6279 H   0  0  0  0  0  0  0  0  0  0  0  0
   -5.1423    1.4467    2.6211 H   0  0  0  0  0  0  0  0  0  0  0  0
   -5.1448   -0.0500    1.6339 H   0  0  0  0  0  0  0  0  0  0  0  0
   -6.5857    1.0117    1.6435 H   0  0  0  0  0  0  0  0  0  0  0  0
   -6.4961    1.1528   -0.9187 H   0  0  0  0  0  0  0  0  0  0  0  0
   -5.0427    0.1059   -0.9473 H   0  0  0  0  0  0  0  0  0  0  0  0
   -4.9983    1.7127   -1.7380 H   0  0  0  0  0  0  0  0  0  0  0  0
   -5.1107    3.7550    1.4668 H   0  0  0  0  0  0  0  0  0  0  0  0
   -6.5382    3.2760    0.4949 H   0  0  0  0  0  0  0  0  0  0  0  0
   -5.0561    3.8585   -0.3253 H   0  0  0  0  0  0  0  0  0  0  0  0
  1  3  1  0  0  0  0
  2  1  1  0  0  0  0
  2  5  1  0  0  0  0
  3  6  1  6  0  0  0
  3  4  1  0  0  0  0
  4 14  1  0  0  0  0
  5  4  2  0  0  0  0
  6  7  1  0  0  0  0
  7 16  1  0  0  0  0
  7 18  1  0  0  0  0
  7 17  1  0  0  0  0
  8 20  1  0  0  0  0
  8  6  1  0  0  0  0
  9  5  1  0  0  0  0
  9 12  1  0  0  0  0
  9 10  1  0  0  0  0
 10 22  1  0  0  0  0
 11  9  1  0  0  0  0
 12 28  1  0  0  0  0
 13  2  1  0  0  0  0
 15  6  1  0  0  0  0
 19  8  1  0  0  0  0
 21  8  1  0  0  0  0
 23 10  1  0  0  0  0
 24 10  1  0  0  0  0
 25 11  1  0  0  0  0
 26 11  1  0  0  0  0
 27 11  1  0  0  0  0
 29 12  1  0  0  0  0
 30 12  1  0  0  0  0
M  END
