5
q = -1.0

 33 36  0  0  0  0  0  0  0  0999 V2000
    1.6474   -0.2330    0.0432 B   0  0  0  0  0  0  0  0  0  0  0  0
    1.0952   -0.6410    1.4333 N   0  0  0  0  0  0  0  0  0  0  0  0
   -0.2552   -0.6869    1.5720 N   0  0  0  0  0  0  0  0  0  0  0  0
    1.3241    1.2937   -0.2153 N   0  0  0  0  0  0  0  0  0  0  0  0
    0.0861    1.8444   -0.1601 N   0  0  0  0  0  2  0  0  0  0  0  0
    3.1654   -0.3963   -0.0833 N   0  0  0  0  0  0  0  0  0  0  0  0
    4.0016   -0.1255    0.9542 N   0  0  0  0  0  0  0  0  0  0  0  0
    0.9667   -1.1230   -1.0311 N   0  0  0  0  0  0  0  0  0  0  0  0
   -0.1796   -0.7582   -1.6545 N   0  0  0  0  0  0  0  0  0  0  0  0
    1.7063   -1.0121    2.5956 C   0  0  0  0  0  0  0  0  0  0  0  0
    0.7077   -1.3097    3.5240 C   0  0  0  0  0  0  0  0  0  0  0  0
   -0.5021   -1.0817    2.8308 C   0  0  0  0  0  0  0  0  0  0  0  0
    2.2383    2.2816   -0.4112 C   0  0  0  0  0  3  0  0  0  0  0  0
    1.5668    3.5034   -0.4962 C   0  0  0  0  0  0  0  0  0  0  0  0
    0.2097    3.1744   -0.3332 C   0  0  0  0  0  0  0  0  0  0  0  0
    3.8669   -0.5422   -1.2561 C   0  0  0  0  0  0  0  0  0  0  0  0
    5.2161   -0.3826   -0.9590 C   0  0  0  0  0  0  0  0  0  0  0  0
    5.2362   -0.1287    0.4376 C   0  0  0  0  0  0  0  0  0  0  0  0
    1.2946   -2.4113   -1.3446 C   0  0  0  0  0  0  0  0  0  0  0  0
    0.3297   -2.8953   -2.2272 C   0  0  0  0  0  0  0  0  0  0  0  0
   -0.5734   -1.8181   -2.3807 C   0  0  0  0  0  0  0  0  0  0  0  0
    2.7994   -1.0011    2.6552 H   0  0  0  0  0  0  0  0  0  0  0  0
    0.8433   -1.6414    4.5583 H   0  0  0  0  0  0  0  0  0  0  0  0
   -1.5390   -1.1785    3.1778 H   0  0  0  0  0  0  0  0  0  0  0  0
    3.3073    2.0519   -0.4583 H   0  0  0  0  0  0  0  0  0  0  0  0
    2.0056    4.4938   -0.6493 H   0  0  0  0  0  0  0  0  0  0  0  0
   -0.6799    3.8151   -0.3336 H   0  0  0  0  0  0  0  0  0  0  0  0
    3.3562   -0.7378   -2.2046 H   0  0  0  0  0  0  0  0  0  0  0  0
    6.0610   -0.4501   -1.6520 H   0  0  0  0  0  0  0  0  0  0  0  0
    6.0998    0.0479    1.0922 H   0  0  0  0  0  0  0  0  0  0  0  0
    2.1888   -2.8839   -0.9244 H   0  0  0  0  0  0  0  0  0  0  0  0
    0.2928   -3.8849   -2.6937 H   0  0  0  0  0  0  0  0  0  0  0  0
   -1.4895   -1.7539   -2.9819 H   0  0  0  0  0  0  0  0  0  0  0  0
  1  2  1  0  0  0  0
  2  3  1  0  0  0  0
  2 10  1  0  0  0  0
  3 12  2  0  0  0  0
  4  5  1  0  0  0  0
  4  1  1  0  0  0  0
  6  1  1  0  0  0  0
  6  7  1  0  0  0  0
  8  1  1  0  0  0  0
  9  8  1  0  0  0  0
 10 22  1  0  0  0  0
 10 11  2  0  0  0  0
 11 23  1  0  0  0  0
 12 24  1  0  0  0  0
 12 11  1  0  0  0  0
 13  4  1  0  0  0  0
 14 13  1  0  0  0  0
 14 15  2  0  0  0  0
 15  5  1  0  0  0  0
 16 17  2  0  0  0  0
 16  6  1  0  0  0  0
 17 18  1  0  0  0  0
 18  7  2  0  0  0  0
 18 30  1  0  0  0  0
 19  8  1  0  0  0  0
 19 31  1  0  0  0  0
 20 19  2  0  0  0  0
 21 20  1  0  0  0  0
 21  9  2  0  0  0  0
 25 13  1  0  0  0  0
 26 14  1  0  0  0  0
 27 15  1  0  0  0  0
 28 16  1  0  0  0  0
 29 17  1  0  0  0  0
 32 20  1  0  0  0  0
 33 21  1  0  0  0  0
M  END
