1
q = 0.0, confidence = 0.968

 62 64  0  0  0  0  0  0  0  0999 V2000
    1.6943   -0.3737   -1.0409 N   0  0  0  0  0  2  0  0  0  0  0  0
   -1.4549    1.6295    0.2725 C   0  0  0  0  0  0  0  0  0  0  0  0
   -0.8204    0.3958   -0.4655 B   0  0  0  0  0  0  0  0  0  0  0  0
   -2.0008   -1.8725   -1.3237 N   0  0  0  0  0  2  0  0  0  0  0  0
   -0.6721    2.7878    0.5474 C   0  0  0  0  0  0  0  0  0  0  0  0
   -1.2396    3.8885    1.2168 C   0  0  0  0  0  0  0  0  0  0  0  0
   -0.6112    4.7710    1.4141 H   0  0  0  0  0  0  0  0  0  0  0  0
   -2.5813    3.8709    1.6221 C   0  0  0  0  0  0  0  0  0  0  0  0
   -3.0144    4.7356    2.1475 H   0  0  0  0  0  0  0  0  0  0  0  0
   -3.3681    2.7456    1.3436 C   0  0  0  0  0  0  0  0  0  0  0  0
   -4.4273    2.7189    1.6441 H   0  0  0  0  0  0  0  0  0  0  0  0
   -2.8217    1.6336    0.6743 C   0  0  0  0  0  0  0  0  0  0  0  0
   -3.7069    0.4695    0.3699 C   0  0  0  0  0  0  0  0  0  0  0  0
   -4.4294    0.4439   -0.8500 C   0  0  0  0  0  0  0  0  0  0  0  0
   -4.3049    1.5817   -1.8318 C   0  0  0  0  0  0  0  0  0  0  0  0
   -4.9337    1.4157   -2.7274 H   0  0  0  0  0  0  0  0  0  0  0  0
   -3.2525    1.7103   -2.1618 H   0  0  0  0  0  0  0  0  0  0  0  0
   -4.5971    2.5473   -1.3714 H   0  0  0  0  0  0  0  0  0  0  0  0
   -3.0427   -0.5884    2.5822 C   0  0  0  0  0  0  0  0  0  0  0  0
   -3.3309   -1.4321    3.2382 H   0  0  0  0  0  0  0  0  0  0  0  0
   -3.2033    0.3591    3.1343 H   0  0  0  0  0  0  0  0  0  0  0  0
   -1.9504   -0.6587    2.3993 H   0  0  0  0  0  0  0  0  0  0  0  0
   -3.8158   -0.6082    1.2887 C   0  0  0  0  0  0  0  0  0  0  0  0
    3.4535    3.0731   -0.7328 C   0  0  0  0  0  0  0  0  0  0  0  0
    2.4002    3.3839   -1.6101 C   0  0  0  0  0  0  0  0  0  0  0  0
    2.6318    3.7074   -2.6384 H   0  0  0  0  0  0  0  0  0  0  0  0
    4.8941    3.1456   -1.1743 C   0  0  0  0  0  0  0  0  0  0  0  0
    4.9864    3.4889   -2.2230 H   0  0  0  0  0  0  0  0  0  0  0  0
    5.3877    2.1535   -1.0947 H   0  0  0  0  0  0  0  0  0  0  0  0
    5.4797    3.8394   -0.5360 H   0  0  0  0  0  0  0  0  0  0  0  0
    1.0530    3.2928   -1.2132 C   0  0  0  0  0  0  0  0  0  0  0  0
   -0.0568    3.6209   -2.1797 C   0  0  0  0  0  0  0  0  0  0  0  0
    0.3422    3.9827   -3.1469 H   0  0  0  0  0  0  0  0  0  0  0  0
   -0.7378    4.3942   -1.7695 H   0  0  0  0  0  0  0  0  0  0  0  0
   -0.6863    2.7267   -2.3752 H   0  0  0  0  0  0  0  0  0  0  0  0
    2.3850   -0.0293   -2.2930 C   0  0  0  0  0  0  0  0  0  0  0  0
    1.8411    0.7608   -2.8458 H   0  0  0  0  0  0  0  0  0  0  0  0
    2.4726   -0.9422   -2.9150 H   0  0  0  0  0  0  0  0  0  0  0  0
    3.4049    0.3253   -2.0532 H   0  0  0  0  0  0  0  0  0  0  0  0
    0.5700    0.1025   -0.7705 C   0  0  0  0  0  2  0  0  0  0  0  0
   -1.5705   -0.8429   -0.9351 C   0  0  0  0  0  2  0  0  0  0  0  0
   -2.5000   -3.1589   -1.5943 C   0  0  0  0  0  0  0  0  0  0  0  0
   -3.2675   -3.1161   -2.3936 H   0  0  0  0  0  0  0  0  0  0  0  0
   -2.9671   -3.5793   -0.6795 H   0  0  0  0  0  0  0  0  0  0  0  0
   -1.6631   -3.8142   -1.9095 H   0  0  0  0  0  0  0  0  0  0  0  0
    3.1297    2.6693    0.5759 C   0  0  0  0  0  0  0  0  0  0  0  0
    3.9402    2.4154    1.2760 H   0  0  0  0  0  0  0  0  0  0  0  0
    1.4837    2.0960    2.4130 C   0  0  0  0  0  0  0  0  0  0  0  0
    2.4015    1.7967    2.9539 H   0  0  0  0  0  0  0  0  0  0  0  0
    0.7890    1.2318    2.4027 H   0  0  0  0  0  0  0  0  0  0  0  0
    0.9771    2.8903    2.9992 H   0  0  0  0  0  0  0  0  0  0  0  0
    1.7988    2.5591    1.0126 C   0  0  0  0  0  0  0  0  0  0  0  0
   -4.6380   -1.7001    0.9589 C   0  0  0  0  0  0  0  0  0  0  0  0
   -4.7254   -2.5335    1.6760 H   0  0  0  0  0  0  0  0  0  0  0  0
   -5.3571   -1.7531   -0.2515 C   0  0  0  0  0  0  0  0  0  0  0  0
   -5.2391   -0.6701   -1.1407 C   0  0  0  0  0  0  0  0  0  0  0  0
   -5.7992   -0.6886   -2.0901 H   0  0  0  0  0  0  0  0  0  0  0  0
    0.7527    2.8735    0.1082 C   0  0  0  0  0  0  0  0  0  0  0  0
   -6.2180   -2.9472   -0.5816 C   0  0  0  0  0  0  0  0  0  0  0  0
   -6.8232   -2.7773   -1.4931 H   0  0  0  0  0  0  0  0  0  0  0  0
   -6.9116   -3.1896    0.2495 H   0  0  0  0  0  0  0  0  0  0  0  0
   -5.6033   -3.8579   -0.7533 H   0  0  0  0  0  0  0  0  0  0  0  0
  1 40  1  0  0  0  0
  2  5  2  0  0  0  0
  2 12  1  0  0  0  0
  3  2  1  0  0  0  0
  4 41  1  0  0  0  0
  5  6  1  0  0  0  0
  6  7  1  0  0  0  0
  6  8  2  0  0  0  0
  8  9  1  0  0  0  0
 10  8  1  0  0  0  0
 10 11  1  0  0  0  0
 12 10  2  0  0  0  0
 13 12  1  0  0  0  0
 13 23  1  0  0  0  0
 14 13  2  0  0  0  0
 15 18  1  0  0  0  0
 15 14  1  0  0  0  0
 16 15  1  0  0  0  0
 17 15  1  0  0  0  0
 19 21  1  0  0  0  0
 19 20  1  0  0  0  0
 22 19  1  0  0  0  0
 23 19  1  0  0  0  0
 24 46  1  0  0  0  0
 25 31  1  0  0  0  0
 25 24  2  0  0  0  0
 26 25  1  0  0  0  0
 27 29  1  0  0  0  0
 27 24  1  0  0  0  0
 27 30  1  0  0  0  0
 28 27  1  0  0  0  0
 31 58  2  0  0  0  0
 32 34  1  0  0  0  0
 32 31  1  0  0  0  0
 33 32  1  0  0  0  0
 35 32  1  0  0  0  0
 36 39  1  0  0  0  0
 36  1  1  0  0  0  0
 37 36  1  0  0  0  0
 38 36  1  0  0  0  0
 40  3  1  0  0  0  0
 41  3  1  0  0  0  0
 42  4  1  0  0  0  0
 42 44  1  0  0  0  0
 43 42  1  0  0  0  0
 45 42  1  0  0  0  0
 46 52  2  0  0  0  0
 46 47  1  0  0  0  0
 48 49  1  0  0  0  0
 48 51  1  0  0  0  0
 50 48  1  0  0  0  0
 52 48  1  0  0  0  0
 53 23  2  0  0  0  0
 53 54  1  0  0  0  0
 55 53  1  0  0  0  0
 56 14  1  0  0  0  0
 56 55  2  0  0  0  0
 57 56  1  0  0  0  0
 58  5  1  0  0  0  0
 58 52  1  0  0  0  0
 59 55  1  0  0  0  0
 59 61  1  0  0  0  0
 60 59  1  0  0  0  0
 62 59  1  0  0  0  0
M  END
