2
q = 0.0, confidence = 1.0

 25 25  0  0  1  0  0  0  0  0999 V2000
   -4.0716   -1.3348   -0.2740 O   0  0  0  0  0  0  0  0  0  0  0  0
   -1.9944   -0.3373   -0.1709 N   0  0  0  0  0  2  0  0  0  0  0  0
   -4.5459   -0.0010   -0.4418 N   0  0  0  0  0  0  0  0  0  0  0  0
   -2.7208   -1.4035   -0.1441 C   0  0  1  0  0  3  0  0  0  0  0  0
   -2.2363   -2.7976    0.0252 C   0  0  0  0  0  0  0  0  0  0  0  0
   -5.8331    0.0446   -0.5123 C   0  0  0  0  0  0  0  0  0  0  0  0
   -6.7966   -1.1073   -0.3999 C   0  0  0  0  0  0  0  0  0  0  0  0
   -7.8710   -0.8104    0.6680 C   0  0  0  0  0  0  0  0  0  0  0  0
   -8.5425    0.5493    0.4423 C   0  0  0  0  0  0  0  0  0  0  0  0
   -7.5068    1.6788    0.3932 C   0  0  0  0  0  0  0  0  0  0  0  0
   -6.4379    1.4140   -0.6849 C   0  0  0  0  0  0  0  0  0  0  0  0
   -2.5432    0.5292   -0.2998 H   0  0  0  0  0  0  0  0  0  0  0  0
   -1.4964   -3.0144   -0.7719 H   0  0  0  0  0  0  0  0  0  0  0  0
   -1.6756   -2.8634    0.9799 H   0  0  0  0  0  0  0  0  0  0  0  0
   -3.0821   -3.5061   -0.0002 H   0  0  0  0  0  0  0  0  0  0  0  0
   -6.2605   -2.0498   -0.1906 H   0  0  0  0  0  0  0  0  0  0  0  0
   -7.2923   -1.2187   -1.3908 H   0  0  0  0  0  0  0  0  0  0  0  0
   -7.3907   -0.8225    1.6707 H   0  0  0  0  0  0  0  0  0  0  0  0
   -8.6211   -1.6276    0.6685 H   0  0  0  0  0  0  0  0  0  0  0  0
   -9.2868    0.7444    1.2418 H   0  0  0  0  0  0  0  0  0  0  0  0
   -9.1108    0.5266   -0.5151 H   0  0  0  0  0  0  0  0  0  0  0  0
   -7.0060    1.7665    1.3820 H   0  0  0  0  0  0  0  0  0  0  0  0
   -7.9943    2.6557    0.1981 H   0  0  0  0  0  0  0  0  0  0  0  0
   -6.9186    1.4462   -1.6892 H   0  0  0  0  0  0  0  0  0  0  0  0
   -5.6361    2.1771   -0.6750 H   0  0  0  0  0  0  0  0  0  0  0  0
  2  4  1  0  0  0  0
  3  1  1  0  0  0  0
  4  1  1  1  0  0  0
  4  5  1  0  0  0  0
  5 14  1  0  0  0  0
  6  3  2  0  0  0  0
  6  7  1  0  0  0  0
  7 16  1  0  0  0  0
  7  8  1  0  0  0  0
  8 19  1  0  0  0  0
  8 18  1  0  0  0  0
  9  8  1  0  0  0  0
  9 20  1  0  0  0  0
 10  9  1  0  0  0  0
 10 22  1  0  0  0  0
 11 25  1  0  0  0  0
 11  6  1  0  0  0  0
 11 10  1  0  0  0  0
 12  2  1  0  0  0  0
 13  5  1  0  0  0  0
 15  5  1  0  0  0  0
 17  7  1  0  0  0  0
 21  9  1  0  0  0  0
 23 10  1  0  0  0  0
 24 11  1  0  0  0  0
M  END
