1
q = 0.0, confidence = 0.994

  8  8  0  0  0  0  0  0  0  0999 V2000
   -1.4166   -0.9329   -0.8875 N   0  0  0  0  0  0  0  0  0  0  0  0
   -1.1568   -1.8143   -1.3480 H   0  0  0  0  0  0  0  0  0  0  0  0
   -2.4195   -0.1405   -1.6282 C   0  0  0  0  0  0  0  0  0  0  0  0
   -2.2912    0.9471   -1.4997 H   0  0  0  0  0  0  0  0  0  0  0  0
   -2.7093   -0.4945   -2.6304 H   0  0  0  0  0  0  0  0  0  0  0  0
   -2.8242   -0.9229   -0.4329 C   0  0  0  0  0  0  0  0  0  0  0  0
   -3.3998   -1.8519   -0.5687 H   0  0  0  0  0  0  0  0  0  0  0  0
   -2.9716   -0.3731    0.5117 H   0  0  0  0  0  0  0  0  0  0  0  0
  1  6  1  0  0  0  0
  2  1  1  0  0  0  0
  3  4  1  0  0  0  0
  3  1  1  0  0  0  0
  3  6  1  0  0  0  0
  5  3  1  0  0  0  0
  6  8  1  0  0  0  0
  7  6  1  0  0  0  0
M  END
