2
q = -1.0

 29 30  0  0  0  0  0  0  0  0999 V2000
   -1.5358   -1.5016    0.2196 S   0  0  0  0  0  0  0  0  0  0  0  0
   -0.2842    0.6735   -0.2005 N   0  0  0  0  0  2  0  0  0  0  0  0
   -1.5549    0.2118   -0.0056 C   0  0  0  0  0  0  0  0  0  0  0  0
    1.3849    2.3981   -0.7304 C   0  0  0  0  0  0  0  0  0  0  0  0
    0.0044    2.0230   -0.2934 C   0  0  0  0  0  0  0  0  0  0  0  0
    2.0677    1.6892   -1.7408 C   0  0  0  0  0  0  0  0  0  0  0  0
    1.6017    0.8010   -2.1965 H   0  0  0  0  0  0  0  0  0  0  0  0
   -0.8235    2.9165   -0.0177 O   0  0  0  0  0  0  0  0  0  0  0  0
   -2.6181    1.0340    0.0398 N   0  0  0  0  0  0  0  0  0  0  0  0
   -2.3058    2.0341    0.0817 H   0  0  0  0  0  0  0  0  0  0  0  0
   -3.9854    0.6936    0.0552 C   0  0  0  0  0  0  0  0  0  0  0  0
    1.9773    3.5397   -0.1533 C   0  0  0  0  0  0  0  0  0  0  0  0
    1.4116    4.1015    0.6047 H   0  0  0  0  0  0  0  0  0  0  0  0
   -4.8728    1.5303    0.7634 C   0  0  0  0  0  0  0  0  0  0  0  0
   -4.4768    2.4045    1.3024 H   0  0  0  0  0  0  0  0  0  0  0  0
    3.9476    3.2261   -1.5404 C   0  0  0  0  0  0  0  0  0  0  0  0
    4.9532    3.5457   -1.8541 H   0  0  0  0  0  0  0  0  0  0  0  0
    3.2626    3.9403   -0.5427 C   0  0  0  0  0  0  0  0  0  0  0  0
    3.7296    4.8199   -0.0741 H   0  0  0  0  0  0  0  0  0  0  0  0
    3.3416    2.1125   -2.1469 C   0  0  0  0  0  0  0  0  0  0  0  0
    3.8660    1.5671   -2.9466 H   0  0  0  0  0  0  0  0  0  0  0  0
   -6.2426    1.2398    0.7822 C   0  0  0  0  0  0  0  0  0  0  0  0
   -6.9286    1.8967    1.3380 H   0  0  0  0  0  0  0  0  0  0  0  0
   -4.4802   -0.4233   -0.6500 C   0  0  0  0  0  0  0  0  0  0  0  0
   -3.7934   -1.0387   -1.2477 H   0  0  0  0  0  0  0  0  0  0  0  0
   -6.7371    0.1150    0.1019 C   0  0  0  0  0  0  0  0  0  0  0  0
   -7.8129   -0.1145    0.1216 H   0  0  0  0  0  0  0  0  0  0  0  0
   -5.8517   -0.7070   -0.6141 C   0  0  0  0  0  0  0  0  0  0  0  0
   -6.2337   -1.5764   -1.1701 H   0  0  0  0  0  0  0  0  0  0  0  0
  2  3  1  0  0  0  0
  3  9  1  0  0  0  0
  3  1  2  0  0  0  0
  4  5  1  0  0  0  0
  4 12  1  0  0  0  0
  5  2  1  0  0  0  0
  5  8  2  0  0  0  0
  6  4  2  0  0  0  0
  7  6  1  0  0  0  0
  9 11  1  0  0  0  0
  9 10  1  0  0  0  0
 11 14  1  0  0  0  0
 12 13  1  0  0  0  0
 14 22  2  0  0  0  0
 14 15  1  0  0  0  0
 16 18  1  0  0  0  0
 17 16  1  0  0  0  0
 18 12  2  0  0  0  0
 18 19  1  0  0  0  0
 20  6  1  0  0  0  0
 20 16  2  0  0  0  0
 21 20  1  0  0  0  0
 22 23  1  0  0  0  0
 24 28  1  0  0  0  0
 24 11  2  0  0  0  0
 25 24  1  0  0  0  0
 26 27  1  0  0  0  0
 26 22  1  0  0  0  0
 28 26  2  0  0  0  0
 29 28  1  0  0  0  0
M  END
