1
q = 0.0, confidence = 0.99

 21 22  0  0  0  0  0  0  0  0999 V2000
   -1.7542    1.0055   -0.1900 N   0  0  0  0  0  2  0  0  0  0  0  0
   -2.9228    0.3550    0.0139 C   0  0  0  0  0  3  0  0  0  0  0  0
   -2.8296   -0.6953    0.3182 H   0  0  0  0  0  0  0  0  0  0  0  0
   -4.1779    0.9620   -0.1748 C   0  0  0  0  0  0  0  0  0  0  0  0
   -4.1894    2.3191   -0.5595 C   0  0  0  0  0  0  0  0  0  0  0  0
   -5.1450    2.8333   -0.7408 H   0  0  0  0  0  0  0  0  0  0  0  0
   -2.9764    2.9933   -0.7410 C   0  0  0  0  0  0  0  0  0  0  0  0
   -2.9531    4.0493   -1.0449 H   0  0  0  0  0  0  0  0  0  0  0  0
   -1.7710    2.3120   -0.5567 C   0  0  0  0  0  0  0  0  0  0  0  0
   -0.7875    2.7890   -0.6665 H   0  0  0  0  0  0  0  0  0  0  0  0
   -5.4151    0.1668    0.0082 C   0  0  0  0  0  0  0  0  0  0  0  0
   -5.4340   -1.2086   -0.3205 C   0  0  0  0  0  0  0  0  0  0  0  0
   -4.5290   -1.6814   -0.7326 H   0  0  0  0  0  0  0  0  0  0  0  0
   -6.6027   -1.9635   -0.1563 C   0  0  0  0  0  0  0  0  0  0  0  0
   -6.6021   -3.0307   -0.4250 H   0  0  0  0  0  0  0  0  0  0  0  0
   -7.7712   -1.3618    0.3379 C   0  0  0  0  0  0  0  0  0  0  0  0
   -8.6881   -1.9566    0.4664 H   0  0  0  0  0  0  0  0  0  0  0  0
   -7.7640    0.0031    0.6674 C   0  0  0  0  0  0  0  0  0  0  0  0
   -8.6730    0.4801    1.0640 H   0  0  0  0  0  0  0  0  0  0  0  0
   -6.5969    0.7610    0.5038 C   0  0  0  0  0  0  0  0  0  0  0  0
   -6.5934    1.8237    0.7904 H   0  0  0  0  0  0  0  0  0  0  0  0
  1  2  1  0  0  0  0
  2  3  1  0  0  0  0
  4 11  1  0  0  0  0
  4  2  1  0  0  0  0
  5  4  2  0  0  0  0
  6  5  1  0  0  0  0
  7  5  1  0  0  0  0
  7  9  2  0  0  0  0
  8  7  1  0  0  0  0
  9  1  1  0  0  0  0
 10  9  1  0  0  0  0
 11 20  1  0  0  0  0
 12 14  1  0  0  0  0
 12 11  2  0  0  0  0
 13 12  1  0  0  0  0
 14 16  2  0  0  0  0
 15 14  1  0  0  0  0
 16 17  1  0  0  0  0
 16 18  1  0  0  0  0
 18 19  1  0  0  0  0
 20 18  2  0  0  0  0
 20 21  1  0  0  0  0
M  END
