3
q = -1.0

 36 38  0  0  0  0  0  0  0  0999 V2000
    0.4115    0.2406   -1.2242 N   0  0  0  0  0  0  0  0  0  0  0  0
    1.7150    0.3241   -0.9122 C   0  0  0  0  0  0  0  0  0  0  0  0
    2.0799   -0.6869   -0.0998 N   0  0  0  0  0  2  0  0  0  0  0  0
   -0.3808    1.2195   -1.8379 C   0  0  0  0  0  0  0  0  0  0  0  0
   -1.4251    0.7900   -2.6898 C   0  0  0  0  0  0  0  0  0  0  0  0
   -1.5598   -0.2871   -2.8547 H   0  0  0  0  0  0  0  0  0  0  0  0
   -2.2714    1.7154   -3.3127 C   0  0  0  0  0  0  0  0  0  0  0  0
   -3.0768    1.3525   -3.9692 H   0  0  0  0  0  0  0  0  0  0  0  0
   -2.0979    3.0935   -3.0979 C   0  0  0  0  0  0  0  0  0  0  0  0
   -2.7641    3.8217   -3.5839 H   0  0  0  0  0  0  0  0  0  0  0  0
   -1.0663    3.5292   -2.2502 C   0  0  0  0  0  0  0  0  0  0  0  0
   -0.9235    4.6048   -2.0643 H   0  0  0  0  0  0  0  0  0  0  0  0
   -0.2154    2.6095   -1.6224 C   0  0  0  0  0  0  0  0  0  0  0  0
    0.5769    2.9634   -0.9513 H   0  0  0  0  0  0  0  0  0  0  0  0
    2.6347    1.4091   -1.3390 C   0  0  0  0  0  0  0  0  0  0  0  0
    2.7285    1.7855   -2.6943 C   0  0  0  0  0  0  0  0  0  0  0  0
    2.1259    1.2571   -3.4478 H   0  0  0  0  0  0  0  0  0  0  0  0
    3.5871    2.8257   -3.0728 C   0  0  0  0  0  0  0  0  0  0  0  0
    3.6641    3.1122   -4.1324 H   0  0  0  0  0  0  0  0  0  0  0  0
    4.3439    3.5040   -2.1026 C   0  0  0  0  0  0  0  0  0  0  0  0
    5.0132    4.3247   -2.4024 H   0  0  0  0  0  0  0  0  0  0  0  0
    4.2438    3.1365   -0.7506 C   0  0  0  0  0  0  0  0  0  0  0  0
    4.8285    3.6712    0.0129 H   0  0  0  0  0  0  0  0  0  0  0  0
    3.3969    2.0889   -0.3662 C   0  0  0  0  0  0  0  0  0  0  0  0
    3.3004    1.8041    0.6920 H   0  0  0  0  0  0  0  0  0  0  0  0
    3.4091   -1.0976    0.1092 C   0  0  0  0  0  0  0  0  0  0  0  0
    4.3190   -1.1849   -0.9702 C   0  0  0  0  0  0  0  0  0  0  0  0
    3.9735   -0.9423   -1.9849 H   0  0  0  0  0  0  0  0  0  0  0  0
    5.6413   -1.5914   -0.7527 C   0  0  0  0  0  0  0  0  0  0  0  0
    6.3349   -1.6526   -1.6052 H   0  0  0  0  0  0  0  0  0  0  0  0
    6.0770   -1.9350    0.5370 C   0  0  0  0  0  0  0  0  0  0  0  0
    7.1144   -2.2608    0.7046 H   0  0  0  0  0  0  0  0  0  0  0  0
    5.1716   -1.8716    1.6087 C   0  0  0  0  0  0  0  0  0  0  0  0
    5.4976   -2.1452    2.6237 H   0  0  0  0  0  0  0  0  0  0  0  0
    3.8494   -1.4580    1.4010 C   0  0  0  0  0  0  0  0  0  0  0  0
    3.1501   -1.4026    2.2441 H   0  0  0  0  0  0  0  0  0  0  0  0
  1  2  2  0  0  0  0
  2  3  1  0  0  0  0
  3 26  1  0  0  0  0
  4 13  1  0  0  0  0
  4  1  1  0  0  0  0
  5  4  2  0  0  0  0
  6  5  1  0  0  0  0
  7  9  2  0  0  0  0
  7  5  1  0  0  0  0
  8  7  1  0  0  0  0
  9 11  1  0  0  0  0
 10  9  1  0  0  0  0
 11 12  1  0  0  0  0
 11 13  2  0  0  0  0
 13 14  1  0  0  0  0
 15  2  1  0  0  0  0
 15 24  1  0  0  0  0
 16 15  2  0  0  0  0
 17 16  1  0  0  0  0
 18 16  1  0  0  0  0
 18 20  2  0  0  0  0
 19 18  1  0  0  0  0
 20 22  1  0  0  0  0
 21 20  1  0  0  0  0
 22 24  2  0  0  0  0
 22 23  1  0  0  0  0
 24 25  1  0  0  0  0
 26 35  1  0  0  0  0
 27 29  1  0  0  0  0
 27 26  2  0  0  0  0
 28 27  1  0  0  0  0
 29 31  2  0  0  0  0
 30 29  1  0  0  0  0
 31 32  1  0  0  0  0
 31 33  1  0  0  0  0
 33 34  1  0  0  0  0
 35 33  2  0  0  0  0
 35 36  1  0  0  0  0
M  END
