4
q = -2.0, confidence = 0.768

 56 57  0  0  1  0  0  0  0  0999 V2000
    3.3669    1.7413   -1.0870 Si  0  0  0  0  0  0  0  0  0  0  0  0
    3.2460   -1.7427    0.1490 Si  0  0  0  0  0  0  0  0  0  0  0  0
   -1.7644    0.4396   -0.3826 N   0  0  0  0  0  0  0  0  0  0  0  0
   -0.4655    0.5194   -0.3732 N   0  0  0  0  0  2  0  0  0  0  0  0
   -4.1089    0.9942   -0.6512 C   0  0  0  0  0  0  0  0  0  0  0  0
   -4.5963   -0.2906   -0.2959 C   0  0  0  0  0  0  0  0  0  0  0  0
   -5.9700   -0.5506   -0.2669 C   0  0  0  0  0  0  0  0  0  0  0  0
   -6.8961    0.4575   -0.5908 C   0  0  0  0  0  0  0  0  0  0  0  0
   -6.4282    1.7332   -0.9454 C   0  0  0  0  0  0  0  0  0  0  0  0
   -5.0534    1.9986   -0.9757 C   0  0  0  0  0  0  0  0  0  0  0  0
    0.4456    2.7133    0.2144 C   0  0  0  0  0  0  0  0  0  0  0  0
    0.9018    2.6200    1.5440 C   0  0  0  0  0  0  0  0  0  0  0  0
    0.7683    3.7047    2.4226 C   0  0  0  0  0  0  0  0  0  0  0  0
    0.1801    4.9022    1.9817 C   0  0  0  0  0  0  0  0  0  0  0  0
   -0.2700    5.0082    0.6565 C   0  0  0  0  0  0  0  0  0  0  0  0
   -0.1383    3.9184   -0.2188 C   0  0  0  0  0  0  0  0  0  0  0  0
    4.7289    0.8152   -2.0299 C   0  0  0  0  0  0  0  0  0  0  0  0
    4.1363    2.6493    0.3944 C   0  0  0  0  0  0  0  0  0  0  0  0
    2.7846    3.0760   -2.3137 C   0  0  0  0  0  0  0  0  0  0  0  0
    3.9458   -2.4066   -1.5075 C   0  0  0  0  0  0  0  0  0  0  0  0
    2.8513   -3.3231    1.1397 C   0  0  0  0  0  0  0  0  0  0  0  0
    4.6250   -0.9346    1.1889 C   0  0  0  0  0  0  0  0  0  0  0  0
    1.7423   -0.6166   -0.1130 C   0  0  0  0  0  3  0  0  0  0  0  0
    1.8436    0.6819   -0.5708 C   0  0  0  0  0  0  0  0  0  0  0  0
    0.5319    1.4983   -0.7093 C   0  0  1  0  0  0  0  0  0  0  0  0
   -2.6877    1.3140   -0.6956 C   0  0  0  0  0  0  0  0  0  0  0  0
   -3.8770   -1.0828   -0.0429 H   0  0  0  0  0  0  0  0  0  0  0  0
   -6.3266   -1.5545    0.0116 H   0  0  0  0  0  0  0  0  0  0  0  0
   -7.9760    0.2483   -0.5667 H   0  0  0  0  0  0  0  0  0  0  0  0
   -7.1426    2.5308   -1.2008 H   0  0  0  0  0  0  0  0  0  0  0  0
   -4.6934    3.0021   -1.2529 H   0  0  0  0  0  0  0  0  0  0  0  0
    1.3891    1.6887    1.8691 H   0  0  0  0  0  0  0  0  0  0  0  0
    1.1347    3.6192    3.4572 H   0  0  0  0  0  0  0  0  0  0  0  0
    0.0787    5.7550    2.6698 H   0  0  0  0  0  0  0  0  0  0  0  0
   -0.7254    5.9452    0.3012 H   0  0  0  0  0  0  0  0  0  0  0  0
   -0.4861    4.0054   -1.2615 H   0  0  0  0  0  0  0  0  0  0  0  0
    4.3279    0.3495   -2.9524 H   0  0  0  0  0  0  0  0  0  0  0  0
    5.2509    0.0323   -1.4512 H   0  0  0  0  0  0  0  0  0  0  0  0
    5.4860    1.5674   -2.3368 H   0  0  0  0  0  0  0  0  0  0  0  0
    3.4404    3.4209    0.7789 H   0  0  0  0  0  0  0  0  0  0  0  0
    5.0744    3.1548    0.0827 H   0  0  0  0  0  0  0  0  0  0  0  0
    4.3767    1.9630    1.2294 H   0  0  0  0  0  0  0  0  0  0  0  0
    2.0751    3.7930   -1.8564 H   0  0  0  0  0  0  0  0  0  0  0  0
    2.3044    2.6300   -3.2093 H   0  0  0  0  0  0  0  0  0  0  0  0
    3.6657    3.6544   -2.6623 H   0  0  0  0  0  0  0  0  0  0  0  0
    3.6382   -1.7936   -2.3753 H   0  0  0  0  0  0  0  0  0  0  0  0
    3.6032   -3.4475   -1.6836 H   0  0  0  0  0  0  0  0  0  0  0  0
    5.0547   -2.4328   -1.4858 H   0  0  0  0  0  0  0  0  0  0  0  0
    2.0088   -3.9044    0.7172 H   0  0  0  0  0  0  0  0  0  0  0  0
    2.6372   -3.1230    2.2078 H   0  0  0  0  0  0  0  0  0  0  0  0
    3.7525   -3.9711    1.1022 H   0  0  0  0  0  0  0  0  0  0  0  0
    5.1264   -0.0814    0.6961 H   0  0  0  0  0  0  0  0  0  0  0  0
    5.4005   -1.6923    1.4285 H   0  0  0  0  0  0  0  0  0  0  0  0
    4.2071   -0.5674    2.1496 H   0  0  0  0  0  0  0  0  0  0  0  0
    0.3870    1.8505   -1.7604 H   0  0  0  0  0  0  0  0  0  0  0  0
   -2.3825    2.3337   -0.9924 H   0  0  0  0  0  0  0  0  0  0  0  0
  1 24  1  0  0  0  0
  1 18  1  0  0  0  0
  2 21  1  0  0  0  0
  2 22  1  0  0  0  0
  3  4  1  0  0  0  0
  5  6  1  0  0  0  0
  6  7  2  0  0  0  0
  6 27  1  0  0  0  0
  7 28  1  0  0  0  0
  8 29  1  0  0  0  0
  8  7  1  0  0  0  0
  9  8  2  0  0  0  0
 10  9  1  0  0  0  0
 10  5  2  0  0  0  0
 11 12  1  0  0  0  0
 12 32  1  0  0  0  0
 12 13  2  0  0  0  0
 13 33  1  0  0  0  0
 14 13  1  0  0  0  0
 14 34  1  0  0  0  0
 15 14  2  0  0  0  0
 16 11  2  0  0  0  0
 16 15  1  0  0  0  0
 17 38  1  0  0  0  0
 17  1  1  0  0  0  0
 18 40  1  0  0  0  0
 18 42  1  0  0  0  0
 19 43  1  0  0  0  0
 19  1  1  0  0  0  0
 20 48  1  0  0  0  0
 20  2  1  0  0  0  0
 21 50  1  0  0  0  0
 22 53  1  0  0  0  0
 22 54  1  0  0  0  0
 23  2  1  0  0  0  0
 24 23  2  0  0  0  0
 25 55  1  6  0  0  0
 25 24  1  0  0  0  0
 25  4  1  0  0  0  0
 25 11  1  0  0  0  0
 26  5  1  0  0  0  0
 26  3  2  0  0  0  0
 30  9  1  0  0  0  0
 31 10  1  0  0  0  0
 35 15  1  0  0  0  0
 36 16  1  0  0  0  0
 37 17  1  0  0  0  0
 39 17  1  0  0  0  0
 41 18  1  0  0  0  0
 44 19  1  0  0  0  0
 45 19  1  0  0  0  0
 46 20  1  0  0  0  0
 47 20  1  0  0  0  0
 49 21  1  0  0  0  0
 51 21  1  0  0  0  0
 52 22  1  0  0  0  0
 56 26  1  0  0  0  0
M  END
