1
q = -1.0, confidence = 0.0

 15 15  0  0  0  0  0  0  0  0999 V2000
   -1.7438   -1.6953    1.1697 N   0  0  0  0  0  2  0  0  0  0  0  0
   -2.4336   -2.2195    0.1361 N   0  0  0  0  0  0  0  0  0  0  0  0
   -1.7763   -2.2389   -1.2926 B   0  0  0  0  0  0  0  0  0  0  0  0
   -2.5036   -1.8036    2.2804 C   0  0  0  0  0  3  0  0  0  0  0  0
   -2.1345   -1.4248    3.2409 H   0  0  0  0  0  0  0  0  0  0  0  0
   -3.7267   -2.4196    1.9656 C   0  0  0  0  0  0  0  0  0  0  0  0
   -4.5683   -2.6563    2.6226 H   0  0  0  0  0  0  0  0  0  0  0  0
   -3.6374   -2.6635    0.5854 C   0  0  0  0  0  0  0  0  0  0  0  0
   -4.6926   -3.2409   -0.3046 C   0  0  0  0  0  0  0  0  0  0  0  0
   -5.7292   -3.6966    0.4450 F   0  0  0  0  0  0  0  0  0  0  0  0
   -4.2520   -4.2701   -1.0579 F   0  0  0  0  0  0  0  0  0  0  0  0
   -5.2074   -2.3119   -1.1612 F   0  0  0  0  0  0  0  0  0  0  0  0
   -1.0057   -3.1982   -1.3865 H   0  0  0  0  0  0  0  0  0  0  0  0
   -1.1366   -1.1499   -1.4036 H   0  0  0  0  0  0  0  0  0  0  0  0
   -2.6493   -2.2381   -2.1531 H   0  0  0  0  0  0  0  0  0  0  0  0
  1  4  1  0  0  0  0
  2  8  1  0  0  0  0
  2  1  1  0  0  0  0
  3  2  1  0  0  0  0
  4  5  1  0  0  0  0
  6  4  1  0  0  0  0
  6  7  1  0  0  0  0
  8  6  2  0  0  0  0
  9 10  1  0  0  0  0
  9  8  1  0  0  0  0
 11  9  1  0  0  0  0
 12  9  1  0  0  0  0
 13  3  1  0  0  0  0
 14  3  1  0  0  0  0
 15  3  1  0  0  0  0
M  END
