1
q = 0.0, confidence = 1.0

 29 30  0  0  0  0  0  0  0  0999 V2000
   -2.3672    0.0047   -0.6944 N   0  0  0  0  0  2  0  0  0  0  0  0
   -7.3912   -0.0372    0.0791 N   0  0  0  0  0  0  0  0  0  0  0  0
   -6.9494   -0.6625    0.7675 H   0  0  0  0  0  0  0  0  0  0  0  0
   -8.7247    0.1375    0.1029 N   0  0  0  0  0  0  0  0  0  0  0  0
   -3.1944   -0.9568   -0.2512 C   0  0  0  0  0  3  0  0  0  0  0  0
   -2.7054   -1.8795    0.1060 H   0  0  0  0  0  0  0  0  0  0  0  0
   -4.5859   -0.7935   -0.2457 C   0  0  0  0  0  0  0  0  0  0  0  0
   -5.2178   -1.6268    0.0971 H   0  0  0  0  0  0  0  0  0  0  0  0
   -5.1332    0.4161   -0.7184 C   0  0  0  0  0  0  0  0  0  0  0  0
   -4.2523    1.4026   -1.2011 C   0  0  0  0  0  0  0  0  0  0  0  0
   -4.6655    2.3399   -1.6003 H   0  0  0  0  0  0  0  0  0  0  0  0
   -2.8754    1.1610   -1.1625 C   0  0  0  0  0  0  0  0  0  0  0  0
   -2.1269    1.8947   -1.5117 H   0  0  0  0  0  0  0  0  0  0  0  0
   -6.6077    0.7206   -0.7847 C   0  0  0  0  0  0  0  0  0  0  0  0
   -9.4578   -0.5246    0.9528 C   0  0  0  0  0  0  0  0  0  0  0  0
   -9.0014   -1.2435    1.6713 H   0  0  0  0  0  0  0  0  0  0  0  0
  -10.8914   -0.3424    0.9870 C   0  0  0  0  0  0  0  0  0  0  0  0
  -11.6817   -1.0724    1.9103 C   0  0  0  0  0  0  0  0  0  0  0  0
  -11.1766   -1.7754    2.5922 H   0  0  0  0  0  0  0  0  0  0  0  0
  -13.0651   -0.9133    1.9634 C   0  0  0  0  0  0  0  0  0  0  0  0
  -13.6645   -1.4866    2.6849 H   0  0  0  0  0  0  0  0  0  0  0  0
  -13.6865   -0.0057    1.0784 C   0  0  0  0  0  0  0  0  0  0  0  0
  -14.7787    0.1282    1.1113 H   0  0  0  0  0  0  0  0  0  0  0  0
  -12.9370    0.7289    0.1578 C   0  0  0  0  0  0  0  0  0  0  0  0
  -13.4103    1.4386   -0.5358 H   0  0  0  0  0  0  0  0  0  0  0  0
  -11.5327    0.5803    0.0893 C   0  0  0  0  0  0  0  0  0  0  0  0
   -7.0735    1.5757   -1.5254 O   0  0  0  0  0  0  0  0  0  0  0  0
  -10.8526    1.3015   -0.8042 O   0  0  0  0  0  0  0  0  0  0  0  0
   -9.8735    1.0705   -0.7131 H   0  0  0  0  0  0  0  0  0  0  0  0
  1  5  1  0  0  0  0
  2  4  1  0  0  0  0
  2  3  1  0  0  0  0
  4 15  2  0  0  0  0
  5  7  1  0  0  0  0
  5  6  1  0  0  0  0
  7  8  1  0  0  0  0
  9  7  2  0  0  0  0
 10 12  2  0  0  0  0
 10  9  1  0  0  0  0
 11 10  1  0  0  0  0
 12  1  1  0  0  0  0
 13 12  1  0  0  0  0
 14  9  1  0  0  0  0
 14  2  1  0  0  0  0
 15 17  1  0  0  0  0
 15 16  1  0  0  0  0
 17 18  1  0  0  0  0
 18 20  2  0  0  0  0
 18 19  1  0  0  0  0
 20 21  1  0  0  0  0
 22 23  1  0  0  0  0
 22 20  1  0  0  0  0
 24 22  2  0  0  0  0
 25 24  1  0  0  0  0
 26 24  1  0  0  0  0
 26 17  2  0  0  0  0
 27 14  2  0  0  0  0
 28 29  1  0  0  0  0
 28 26  1  0  0  0  0
M  END
