4
q = -1.0, confidence = 0.01

 13 14  0  0  0  0  0  0  0  0999 V2000
    2.8621    3.1107    0.4224 O   0  0  0  0  0  0  0  0  0  0  0  0
    3.2626   -2.3844   -0.4478 N   0  0  0  0  0  0  0  0  0  0  0  0
    2.4834    1.8032    0.3004 N   0  0  0  0  0  0  0  0  0  0  0  0
    2.6832   -1.1975   -0.1837 N   0  0  0  0  0  2  0  0  0  0  0  0
    4.2223    3.2813    0.2087 N   0  0  0  0  0  0  0  0  0  0  0  0
    4.5576   -2.2134   -0.6262 N   0  0  0  0  0  0  0  0  0  0  0  0
    3.6898   -0.2980   -0.2112 C   0  0  0  0  0  0  0  0  0  0  0  0
    5.9696    1.7278   -0.3267 N   0  0  0  0  0  0  0  0  0  0  0  0
    6.7036    2.4310   -0.3278 H   0  0  0  0  0  0  0  0  0  0  0  0
    6.1571    0.7275   -0.4795 H   0  0  0  0  0  0  0  0  0  0  0  0
    4.8609   -0.9151   -0.4851 N   0  0  0  0  0  0  0  0  0  0  0  0
    3.5867    1.1285    0.0102 C   0  0  0  0  0  0  0  0  0  0  0  0
    4.6918    2.0633   -0.0492 C   0  0  0  0  0  0  0  0  0  0  0  0
  2  4  1  0  0  0  0
  3  1  1  0  0  0  0
  5  1  1  0  0  0  0
  6 11  1  0  0  0  0
  6  2  2  0  0  0  0
  7  4  1  0  0  0  0
  7 12  1  0  0  0  0
  8 13  1  0  0  0  0
  9  8  1  0  0  0  0
 10  8  1  0  0  0  0
 11  7  2  0  0  0  0
 12  3  2  0  0  0  0
 13 12  1  0  0  0  0
 13  5  2  0  0  0  0
M  END
