47
q = 0.0, confidence = 0.996

 55 61  0  0  1  0  0  0  0  0999 V2000
   -3.3226    2.7056   -0.5545 C   0  0  0  0  0  0  0  0  0  0  0  0
   -2.4336    3.3497   -0.4938 H   0  0  0  0  0  0  0  0  0  0  0  0
   -4.3734    3.0648   -1.3774 C   0  0  0  0  0  0  0  0  0  0  0  0
   -4.3149    3.9938   -1.9639 H   0  0  0  0  0  0  0  0  0  0  0  0
   -5.5369    2.2437   -1.4771 C   0  0  0  0  0  0  0  0  0  0  0  0
   -6.3643    2.5498   -2.1340 H   0  0  0  0  0  0  0  0  0  0  0  0
   -5.6191    1.0701   -0.7554 C   0  0  0  0  0  0  0  0  0  0  0  0
   -6.5091    0.4268   -0.8298 H   0  0  0  0  0  0  0  0  0  0  0  0
   -4.5502    0.6575    0.1055 C   0  0  0  0  0  0  0  0  0  0  0  0
   -4.6079   -0.5523    0.8204 C   0  0  0  0  0  0  0  0  0  0  0  0
   -5.4993   -1.1911    0.7192 H   0  0  0  0  0  0  0  0  0  0  0  0
   -3.5556   -0.9754    1.6529 C   0  0  0  0  0  0  0  0  0  0  0  0
   -3.6163   -2.2206    2.3602 C   0  0  0  0  0  0  0  0  0  0  0  0
   -4.5107   -2.8499    2.2347 H   0  0  0  0  0  0  0  0  0  0  0  0
   -2.5891   -2.6197    3.1928 C   0  0  0  0  0  0  0  0  0  0  0  0
   -2.6549   -3.5714    3.7401 H   0  0  0  0  0  0  0  0  0  0  0  0
   -1.4481   -1.7774    3.3681 C   0  0  0  0  0  0  0  0  0  0  0  0
   -0.6579   -2.0766    4.0740 H   0  0  0  0  0  0  0  0  0  0  0  0
   -1.3438   -0.5735    2.6905 C   0  0  0  0  0  0  0  0  0  0  0  0
   -0.4605    0.0626    2.8452 H   0  0  0  0  0  0  0  0  0  0  0  0
   -2.3804   -0.1340    1.7997 C   0  0  0  0  0  0  0  0  0  0  0  0
   -2.3107    1.0907    1.0762 C   0  0  0  0  0  0  0  0  0  0  0  0
   -3.3720    1.5013    0.2236 C   0  0  0  0  0  0  0  0  0  0  0  0
    1.1925    1.7389   -2.3259 C   0  0  0  0  0  0  0  0  0  0  0  0
    0.4082    2.3702   -1.8846 H   0  0  0  0  0  0  0  0  0  0  0  0
    1.1428    1.4382   -3.6759 C   0  0  0  0  0  0  0  0  0  0  0  0
    0.3076    1.8135   -4.2860 H   0  0  0  0  0  0  0  0  0  0  0  0
    2.1734    0.6669   -4.2911 C   0  0  0  0  0  0  0  0  0  0  0  0
    2.1152    0.4366   -5.3649 H   0  0  0  0  0  0  0  0  0  0  0  0
    3.2519    0.2374   -3.5440 C   0  0  0  0  0  0  0  0  0  0  0  0
    4.0669   -0.3343   -4.0135 H   0  0  0  0  0  0  0  0  0  0  0  0
    3.3457    0.5295   -2.1438 C   0  0  0  0  0  0  0  0  0  0  0  0
    4.4462    0.1071   -1.3764 C   0  0  0  0  0  0  0  0  0  0  0  0
    5.2536   -0.4586   -1.8673 H   0  0  0  0  0  0  0  0  0  0  0  0
    4.5416    0.3751    0.0011 C   0  0  0  0  0  0  0  0  0  0  0  0
    5.6593   -0.0846    0.7717 C   0  0  0  0  0  0  0  0  0  0  0  0
    6.4643   -0.6260    0.2517 H   0  0  0  0  0  0  0  0  0  0  0  0
    5.7286    0.1428    2.1316 C   0  0  0  0  0  0  0  0  0  0  0  0
    6.5935   -0.2124    2.7111 H   0  0  0  0  0  0  0  0  0  0  0  0
    4.6724    0.8397    2.7908 C   0  0  0  0  0  0  0  0  0  0  0  0
    4.7300    1.0092    3.8764 H   0  0  0  0  0  0  0  0  0  0  0  0
    3.5778    1.3003    2.0831 C   0  0  0  0  0  0  0  0  0  0  0  0
    2.7715    1.8215    2.6178 H   0  0  0  0  0  0  0  0  0  0  0  0
    3.4714    1.1006    0.6661 C   0  0  0  0  0  0  0  0  0  0  0  0
    2.3523    1.5320   -0.1019 C   0  0  0  0  0  0  0  0  0  0  0  0
    2.2783    1.2767   -1.5024 C   0  0  0  0  0  0  0  0  0  0  0  0
    0.0245    1.4711    0.5564 N   0  0  0  0  0  2  0  0  0  0  0  0
   -1.0877    1.9379    1.1794 C   0  0  1  0  0  3  0  0  0  0  0  0
   -1.0617    3.1626    1.8684 C   0  0  0  0  0  0  0  0  0  0  0  0
   -1.9711    3.5177    2.3725 H   0  0  0  0  0  0  0  0  0  0  0  0
    0.1266    3.9060    1.8897 C   0  0  0  0  0  0  0  0  0  0  0  0
    0.1660    4.8738    2.4119 H   0  0  0  0  0  0  0  0  0  0  0  0
    1.2639    3.4083    1.2398 C   0  0  0  0  0  0  0  0  0  0  0  0
    2.2088    3.9688    1.2304 H   0  0  0  0  0  0  0  0  0  0  0  0
    1.1929    2.1678    0.5804 C   0  0  0  0  0  0  0  0  0  0  0  0
  1  2  1  0  0  0  0
  1 23  1  0  0  0  0
  3  1  2  0  0  0  0
  4  3  1  0  0  0  0
  5  3  1  0  0  0  0
  5  7  2  0  0  0  0
  6  5  1  0  0  0  0
  7  9  1  0  0  0  0
  8  7  1  0  0  0  0
  9 23  2  0  0  0  0
  9 10  1  0  0  0  0
 10 12  2  0  0  0  0
 11 10  1  0  0  0  0
 12 21  1  0  0  0  0
 12 13  1  0  0  0  0
 13 15  2  0  0  0  0
 14 13  1  0  0  0  0
 15 17  1  0  0  0  0
 15 16  1  0  0  0  0
 17 18  1  0  0  0  0
 19 20  1  0  0  0  0
 19 17  2  0  0  0  0
 21 19  1  0  0  0  0
 22 21  2  0  0  0  0
 23 22  1  0  0  0  0
 24 25  1  0  0  0  0
 24 46  1  0  0  0  0
 26 24  2  0  0  0  0
 27 26  1  0  0  0  0
 28 26  1  0  0  0  0
 28 30  2  0  0  0  0
 29 28  1  0  0  0  0
 30 32  1  0  0  0  0
 31 30  1  0  0  0  0
 32 46  2  0  0  0  0
 32 33  1  0  0  0  0
 33 35  2  0  0  0  0
 34 33  1  0  0  0  0
 35 44  1  0  0  0  0
 35 36  1  0  0  0  0
 36 38  2  0  0  0  0
 37 36  1  0  0  0  0
 38 39  1  0  0  0  0
 38 40  1  0  0  0  0
 40 41  1  0  0  0  0
 42 43  1  0  0  0  0
 42 40  2  0  0  0  0
 44 42  1  0  0  0  0
 45 55  1  0  0  0  0
 45 44  2  0  0  0  0
 46 45  1  0  0  0  0
 47 55  1  0  0  0  0
 47 48  1  0  0  0  0
 48 22  1  6  0  0  0
 48 49  1  0  0  0  0
 49 51  2  0  0  0  0
 49 50  1  0  0  0  0
 51 52  1  0  0  0  0
 53 51  1  0  0  0  0
 54 53  1  0  0  0  0
 55 53  2  0  0  0  0
M  END
