36
q = -1.0

 49 51  0  0  1  0  0  0  0  0999 V2000
   -2.3712   -2.5095   -1.4722 S   0  0  0  0  0  0  0  0  0  0  0  0
   -2.9083   -1.0308   -0.8147 C   0  0  1  0  0  3  0  0  0  0  0  0
   -2.9765   -1.0980    0.5345 N   0  0  0  0  0  0  0  0  0  0  0  0
   -2.5549   -2.3187    1.0855 C   0  0  0  0  0  0  0  0  0  0  0  0
   -2.1868   -3.2174    0.1035 C   0  0  0  0  0  0  0  0  0  0  0  0
   -3.1741    0.1071   -1.8080 C   0  0  2  0  0  0  0  0  0  0  0  0
   -4.2712    0.1017   -2.0057 H   0  0  0  0  0  0  0  0  0  0  0  0
   -2.5630   -0.2634   -3.0203 O   0  0  0  0  0  0  0  0  0  0  0  0
   -1.5758   -0.2727   -2.8820 H   0  0  0  0  0  0  0  0  0  0  0  0
   -2.8081    1.5112   -1.3262 C   0  0  0  0  0  0  0  0  0  0  0  0
   -1.4669    1.9375   -1.3011 C   0  0  0  0  0  0  0  0  0  0  0  0
   -0.6620    1.2592   -1.6290 H   0  0  0  0  0  0  0  0  0  0  0  0
   -1.1352    3.2230   -0.8491 C   0  0  0  0  0  0  0  0  0  0  0  0
   -0.0739    3.5198   -0.8371 H   0  0  0  0  0  0  0  0  0  0  0  0
   -2.1453    4.0955   -0.4136 C   0  0  0  0  0  0  0  0  0  0  0  0
   -1.8857    5.1021   -0.0522 H   0  0  0  0  0  0  0  0  0  0  0  0
   -3.4900    3.6897   -0.4608 C   0  0  0  0  0  0  0  0  0  0  0  0
   -4.2887    4.3837   -0.1563 H   0  0  0  0  0  0  0  0  0  0  0  0
   -3.8203    2.4066   -0.9270 C   0  0  0  0  0  0  0  0  0  0  0  0
   -4.8786    2.1014   -0.9920 H   0  0  0  0  0  0  0  0  0  0  0  0
   -2.4891   -2.5085    2.5638 C   0  0  0  0  0  0  0  0  0  0  0  0
   -3.4945   -2.4581    3.0326 H   0  0  0  0  0  0  0  0  0  0  0  0
   -1.8366   -1.7469    3.0345 H   0  0  0  0  0  0  0  0  0  0  0  0
   -2.0354   -3.4874    2.7890 H   0  0  0  0  0  0  0  0  0  0  0  0
   -1.3853   -4.4695    0.2758 C   0  0  0  0  0  0  0  0  0  0  0  0
   -1.7178   -5.0032    1.1898 H   0  0  0  0  0  0  0  0  0  0  0  0
   -1.5333   -5.1611   -0.5778 H   0  0  0  0  0  0  0  0  0  0  0  0
    0.1143   -4.1123    0.3977 C   0  0  0  0  0  0  0  0  0  0  0  0
    0.4561   -3.6600   -0.5636 H   0  0  0  0  0  0  0  0  0  0  0  0
    0.6782   -5.0673    0.5387 H   0  0  0  0  0  0  0  0  0  0  0  0
    0.2736   -3.2268    1.4773 O   0  0  0  0  0  0  0  0  0  0  0  0
    1.1758   -2.8121    1.4086 H   0  0  0  0  0  0  0  0  0  0  0  0
   -3.1627    0.0748    1.3987 C   0  0  0  0  0  0  0  0  0  0  0  0
   -3.6882   -0.2572    2.3172 H   0  0  0  0  0  0  0  0  0  0  0  0
   -3.8288    0.7872    0.8735 H   0  0  0  0  0  0  0  0  0  0  0  0
    0.5484    0.8386    1.4005 N   0  0  0  0  0  2  0  0  0  0  0  0
    0.5647    1.9257    2.2130 C   0  0  2  0  0  3  0  0  0  0  0  0
   -0.5365    2.4684    2.7484 N   0  0  0  0  0  0  0  0  0  0  0  0
   -1.7332    1.9095    2.4859 C   0  0  0  0  0  0  0  0  0  0  0  0
   -1.8343    0.7181    1.7131 C   0  0  0  0  0  0  0  0  0  0  0  0
   -0.6344    0.2418    1.1897 C   0  0  0  0  0  0  0  0  0  0  0  0
   -0.5975   -0.6504    0.5426 H   0  0  0  0  0  0  0  0  0  0  0  0
    1.8903    2.5478    2.5094 C   0  0  0  0  0  0  0  0  0  0  0  0
    1.7760    3.3769    3.2282 H   0  0  0  0  0  0  0  0  0  0  0  0
    2.3422    2.9160    1.5605 H   0  0  0  0  0  0  0  0  0  0  0  0
    2.5866    1.7830    2.9097 H   0  0  0  0  0  0  0  0  0  0  0  0
   -2.8286    2.5236    3.0263 N   0  0  0  0  0  0  0  0  0  0  0  0
   -2.6485    3.4454    3.4294 H   0  0  0  0  0  0  0  0  0  0  0  0
   -3.7447    2.3884    2.6016 H   0  0  0  0  0  0  0  0  0  0  0  0
  1  2  1  0  0  0  0
  1  5  1  0  0  0  0
  2  6  1  1  0  0  0
  2  3  1  0  0  0  0
  3  4  1  0  0  0  0
  3 33  1  0  0  0  0
  4 21  1  0  0  0  0
  5 25  1  0  0  0  0
  5  4  2  0  0  0  0
  6  7  1  6  0  0  0
  6 10  1  0  0  0  0
  8  9  1  0  0  0  0
  8  6  1  0  0  0  0
 10 11  2  0  0  0  0
 10 19  1  0  0  0  0
 11 13  1  0  0  0  0
 12 11  1  0  0  0  0
 13 14  1  0  0  0  0
 13 15  2  0  0  0  0
 15 16  1  0  0  0  0
 17 15  1  0  0  0  0
 17 18  1  0  0  0  0
 19 17  2  0  0  0  0
 20 19  1  0  0  0  0
 21 24  1  0  0  0  0
 21 22  1  0  0  0  0
 21 23  1  0  0  0  0
 25 28  1  0  0  0  0
 25 26  1  0  0  0  0
 27 25  1  0  0  0  0
 28 30  1  0  0  0  0
 28 31  1  0  0  0  0
 29 28  1  0  0  0  0
 32 31  1  0  0  0  0
 33 40  1  0  0  0  0
 33 34  1  0  0  0  0
 35 33  1  0  0  0  0
 36 37  1  0  0  0  0
 37 43  1  6  0  0  0
 37 38  1  0  0  0  0
 39 38  2  0  0  0  0
 39 47  1  0  0  0  0
 40 39  1  0  0  0  0
 41 36  1  0  0  0  0
 41 40  2  0  0  0  0
 42 41  1  0  0  0  0
 43 46  1  0  0  0  0
 43 44  1  0  0  0  0
 45 43  1  0  0  0  0
 47 48  1  0  0  0  0
 49 47  1  0  0  0  0
M  END
