3
q = -1.0, confidence = 0.012

 16 17  0  0  0  0  0  0  0  0999 V2000
   -1.8371    3.3478   -0.0011 S   0  0  0  0  0  0  0  0  0  0  0  0
   -3.9906    1.7176   -0.0002 O   0  0  0  0  0  0  0  0  0  0  0  0
   -2.0833    0.6043   -0.0001 N   0  0  0  0  0  2  0  0  0  0  0  0
   -3.0967   -0.3155    0.0001 N   0  0  0  0  0  0  0  0  0  0  0  0
   -4.2182    0.3705    0.0001 C   0  0  0  0  0  0  0  0  0  0  0  0
   -5.5802   -0.1383    0.0003 C   0  0  0  0  0  0  0  0  0  0  0  0
   -2.6042    1.8487   -0.0004 C   0  0  0  0  0  0  0  0  0  0  0  0
   -6.6915    0.7314    0.0001 C   0  0  0  0  0  0  0  0  0  0  0  0
   -6.5467    1.8211   -0.0002 H   0  0  0  0  0  0  0  0  0  0  0  0
   -5.8281   -1.5291    0.0007 C   0  0  0  0  0  0  0  0  0  0  0  0
   -4.9882   -2.2385    0.0009 H   0  0  0  0  0  0  0  0  0  0  0  0
   -8.2222   -1.1493    0.0007 N   0  0  0  0  0  0  0  0  0  0  0  0
   -7.9771    0.1710    0.0003 C   0  0  0  0  0  0  0  0  0  0  0  0
   -8.8614    0.8335    0.0002 H   0  0  0  0  0  0  0  0  0  0  0  0
   -7.1563   -1.9702    0.0009 C   0  0  0  0  0  0  0  0  0  0  0  0
   -7.3734   -3.0536    0.0012 H   0  0  0  0  0  0  0  0  0  0  0  0
  1  7  2  0  0  0  0
  2  5  1  0  0  0  0
  3  4  1  0  0  0  0
  5  4  2  0  0  0  0
  5  6  1  0  0  0  0
  6 10  1  0  0  0  0
  7  2  1  0  0  0  0
  7  3  1  0  0  0  0
  8  6  2  0  0  0  0
  8 13  1  0  0  0  0
  9  8  1  0  0  0  0
 10 11  1  0  0  0  0
 10 15  2  0  0  0  0
 12 15  1  0  0  0  0
 13 12  2  0  0  0  0
 14 13  1  0  0  0  0
 15 16  1  0  0  0  0
M  END
