3
q = -1.0

 35 38  0  0  0  0  0  0  0  0999 V2000
    2.8477   -1.2741   -1.4857 F   0  0  0  0  0  0  0  0  0  0  0  0
    2.8475    1.2738   -1.4862 F   0  0  0  0  0  0  0  0  0  0  0  0
   -1.3055   -0.0000   -0.5118 N   0  0  0  0  0  0  0  0  0  0  0  0
   -1.6632   -2.3609   -0.6329 N   0  0  0  0  0  2  0  0  0  0  0  0
    0.6798   -1.7529   -1.0197 N   0  0  0  0  0  0  0  0  0  0  0  0
   -1.6633    2.3608   -0.6330 N   0  0  0  0  0  2  0  0  0  0  0  0
    0.6797    1.7528   -1.0199 N   0  0  0  0  0  0  0  0  0  0  0  0
   -2.0876   -1.1333   -0.4805 C   0  0  0  0  0  0  0  0  0  0  0  0
   -3.4942   -0.7090   -0.3218 C   0  0  0  0  0  0  0  0  0  0  0  0
   -3.4942    0.7089   -0.3219 C   0  0  0  0  0  3  0  0  0  0  0  0
   -2.0876    1.1332   -0.4805 C   0  0  0  0  0  0  0  0  0  0  0  0
   -4.6853   -1.4343   -0.2375 C   0  0  0  0  0  0  0  0  0  0  0  0
   -4.6765   -2.5336   -0.2605 H   0  0  0  0  0  0  0  0  0  0  0  0
   -5.8845   -0.7048   -0.1205 C   0  0  0  0  0  0  0  0  0  0  0  0
   -6.8402   -1.2429   -0.0348 H   0  0  0  0  0  0  0  0  0  0  0  0
   -5.8846    0.7046   -0.1206 C   0  0  0  0  0  0  0  0  0  0  0  0
   -6.8403    1.2428   -0.0350 H   0  0  0  0  0  0  0  0  0  0  0  0
   -4.6853    1.4341   -0.2377 C   0  0  0  0  0  0  0  0  0  0  0  0
   -4.6766    2.5334   -0.2607 H   0  0  0  0  0  0  0  0  0  0  0  0
   -0.3843   -2.6488   -1.0429 C   0  0  0  0  0  0  0  0  0  0  0  0
   -0.1811   -3.9557   -1.5508 C   0  0  0  0  0  0  0  0  0  0  0  0
   -1.0479   -4.6283   -1.5356 H   0  0  0  0  0  0  0  0  0  0  0  0
    1.0547   -4.3399   -2.0702 C   0  0  0  0  0  0  0  0  0  0  0  0
    1.2014   -5.3524   -2.4736 H   0  0  0  0  0  0  0  0  0  0  0  0
    2.1082   -3.4160   -2.0778 C   0  0  0  0  0  0  0  0  0  0  0  0
    3.1078   -3.6389   -2.4727 H   0  0  0  0  0  0  0  0  0  0  0  0
    1.8514   -2.1566   -1.5342 C   0  0  0  0  0  0  0  0  0  0  0  0
   -0.3843    2.6488   -1.0429 C   0  0  0  0  0  0  0  0  0  0  0  0
   -0.1811    3.9557   -1.5507 C   0  0  0  0  0  0  0  0  0  0  0  0
   -1.0478    4.6283   -1.5353 H   0  0  0  0  0  0  0  0  0  0  0  0
    1.0547    4.3399   -2.0701 C   0  0  0  0  0  0  0  0  0  0  0  0
    1.2014    5.3525   -2.4734 H   0  0  0  0  0  0  0  0  0  0  0  0
    2.1081    3.4159   -2.0780 C   0  0  0  0  0  0  0  0  0  0  0  0
    3.1077    3.6387   -2.4730 H   0  0  0  0  0  0  0  0  0  0  0  0
    1.8513    2.1564   -1.5345 C   0  0  0  0  0  0  0  0  0  0  0  0
  3 11  2  0  0  0  0
  3  8  1  0  0  0  0
  4  8  1  0  0  0  0
  6 11  1  0  0  0  0
  8  9  2  0  0  0  0
  9 12  1  0  0  0  0
 10  9  1  0  0  0  0
 10 18  1  0  0  0  0
 11 10  1  0  0  0  0
 12 14  2  0  0  0  0
 13 12  1  0  0  0  0
 14 15  1  0  0  0  0
 16 14  1  0  0  0  0
 16 17  1  0  0  0  0
 18 16  2  0  0  0  0
 19 18  1  0  0  0  0
 20  5  1  0  0  0  0
 20  4  1  0  0  0  0
 21 22  1  0  0  0  0
 21 20  2  0  0  0  0
 23 21  1  0  0  0  0
 24 23  1  0  0  0  0
 25 23  2  0  0  0  0
 25 27  1  0  0  0  0
 26 25  1  0  0  0  0
 27  1  1  0  0  0  0
 27  5  2  0  0  0  0
 28  7  1  0  0  0  0
 28  6  1  0  0  0  0
 29 30  1  0  0  0  0
 29 28  2  0  0  0  0
 31 29  1  0  0  0  0
 32 31  1  0  0  0  0
 33 31  2  0  0  0  0
 33 35  1  0  0  0  0
 34 33  1  0  0  0  0
 35  2  1  0  0  0  0
 35  7  2  0  0  0  0
M  END
