2
q = -1.0

 15 16  0  0  0  0  0  0  0  0999 V2000
   -2.0257   -0.5852   -0.0000 N   0  0  0  0  0  0  0  0  0  0  0  0
   -0.8343    0.0119   -0.0005 N   0  0  0  0  0  2  0  0  0  0  0  0
   -0.9449    1.3521   -0.0010 N   0  0  0  0  0  0  0  0  0  0  0  0
   -2.2282    1.6487   -0.0011 N   0  0  0  0  0  0  0  0  0  0  0  0
   -4.9001   -0.8862   -0.0000 N   0  0  0  0  0  0  0  0  0  0  0  0
   -2.8851    0.4533   -0.0005 C   0  0  0  0  0  0  0  0  0  0  0  0
   -4.3531    0.3469   -0.0004 C   0  0  0  0  0  0  0  0  0  0  0  0
   -5.1306    1.5288   -0.0007 C   0  0  0  0  0  0  0  0  0  0  0  0
   -4.6196    2.5019   -0.0009 H   0  0  0  0  0  0  0  0  0  0  0  0
   -6.5240    1.4145   -0.0005 C   0  0  0  0  0  0  0  0  0  0  0  0
   -7.1573    2.3153   -0.0007 H   0  0  0  0  0  0  0  0  0  0  0  0
   -7.0983    0.1336   -0.0001 C   0  0  0  0  0  0  0  0  0  0  0  0
   -8.1897   -0.0067   -0.0000 H   0  0  0  0  0  0  0  0  0  0  0  0
   -6.2357   -0.9761    0.0001 C   0  0  0  0  0  0  0  0  0  0  0  0
   -6.6538   -1.9997    0.0004 H   0  0  0  0  0  0  0  0  0  0  0  0
  2  1  1  0  0  0  0
  3  2  1  0  0  0  0
  4  3  2  0  0  0  0
  4  6  1  0  0  0  0
  5 14  1  0  0  0  0
  6  7  1  0  0  0  0
  6  1  2  0  0  0  0
  7  5  2  0  0  0  0
  8 10  2  0  0  0  0
  8  7  1  0  0  0  0
  9  8  1  0  0  0  0
 10 12  1  0  0  0  0
 11 10  1  0  0  0  0
 12 13  1  0  0  0  0
 12 14  2  0  0  0  0
 14 15  1  0  0  0  0
M  END
