1
q = 0.0, confidence = 1.0

 35 36  0  0  1  0  0  0  0  0999 V2000
   -0.5341   -1.9436   -0.5751 N   0  0  0  0  0  2  0  0  0  0  0  0
   -1.8578   -3.7534   -0.7246 N   0  0  0  0  0  0  0  0  0  0  0  0
   -0.5150   -4.0815   -1.0023 O   0  0  0  0  0  0  0  0  0  0  0  0
   -2.9984   -2.3800    2.0347 O   0  0  0  0  0  0  0  0  0  0  0  0
   -5.7312    1.3551    0.8523 O   0  0  0  0  0  0  0  0  0  0  0  0
   -2.8797   -0.8943   -2.3953 O   0  0  0  0  0  0  0  0  0  0  0  0
    0.2250   -2.9714   -0.9131 C   0  0  2  0  0  3  0  0  0  0  0  0
   -1.8266   -2.4630   -0.4745 C   0  0  0  0  0  0  0  0  0  0  0  0
    1.6884   -3.0006   -1.1613 C   0  0  0  0  0  0  0  0  0  0  0  0
    1.9271   -3.9560   -1.6684 H   0  0  0  0  0  0  0  0  0  0  0  0
    1.8985   -2.1660   -1.8641 H   0  0  0  0  0  0  0  0  0  0  0  0
    2.5129   -2.8217    0.1233 C   0  0  0  0  0  0  0  0  0  0  0  0
    2.2681   -1.8546    0.6051 H   0  0  0  0  0  0  0  0  0  0  0  0
    3.5917   -2.8165   -0.1236 H   0  0  0  0  0  0  0  0  0  0  0  0
    2.3155   -3.6369    0.8473 H   0  0  0  0  0  0  0  0  0  0  0  0
   -2.9790   -1.6023   -0.1738 C   0  0  0  0  0  0  0  0  0  0  0  0
   -3.4893   -1.4913    1.1421 C   0  0  0  0  0  0  0  0  0  0  0  0
   -4.4189   -0.4874    1.4560 C   0  0  0  0  0  0  0  0  0  0  0  0
   -4.8209   -0.3547    2.4666 H   0  0  0  0  0  0  0  0  0  0  0  0
   -4.8456    0.3987    0.4483 C   0  0  0  0  0  0  0  0  0  0  0  0
   -4.3686    0.2975   -0.8736 C   0  0  0  0  0  0  0  0  0  0  0  0
   -4.7139    0.9786   -1.6574 H   0  0  0  0  0  0  0  0  0  0  0  0
   -3.4309   -0.7118   -1.1723 C   0  0  0  0  0  0  0  0  0  0  0  0
   -3.1852   -2.1208    3.4153 C   0  0  0  0  0  0  0  0  0  0  0  0
   -2.7732   -1.1255    3.6882 H   0  0  0  0  0  0  0  0  0  0  0  0
   -2.6251   -2.9065    3.9547 H   0  0  0  0  0  0  0  0  0  0  0  0
   -4.2573   -2.1786    3.7071 H   0  0  0  0  0  0  0  0  0  0  0  0
   -6.2304    2.2641   -0.1105 C   0  0  0  0  0  0  0  0  0  0  0  0
   -5.4202    2.8864   -0.5538 H   0  0  0  0  0  0  0  0  0  0  0  0
   -6.9385    2.9258    0.4218 H   0  0  0  0  0  0  0  0  0  0  0  0
   -6.7698    1.7423   -0.9321 H   0  0  0  0  0  0  0  0  0  0  0  0
   -3.0492    0.1025   -3.3871 C   0  0  0  0  0  0  0  0  0  0  0  0
   -4.1060    0.1626   -3.7312 H   0  0  0  0  0  0  0  0  0  0  0  0
   -2.3993   -0.1914   -4.2301 H   0  0  0  0  0  0  0  0  0  0  0  0
   -2.7152    1.0971   -3.0215 H   0  0  0  0  0  0  0  0  0  0  0  0
  1  8  1  0  0  0  0
  2  8  2  0  0  0  0
  3  7  1  0  0  0  0
  3  2  1  0  0  0  0
  4 24  1  0  0  0  0
  6 23  1  0  0  0  0
  7  9  1  1  0  0  0
  7  1  1  0  0  0  0
  8 16  1  0  0  0  0
  9 12  1  0  0  0  0
 10  9  1  0  0  0  0
 11  9  1  0  0  0  0
 12 13  1  0  0  0  0
 12 15  1  0  0  0  0
 14 12  1  0  0  0  0
 16 17  1  0  0  0  0
 17 18  2  0  0  0  0
 17  4  1  0  0  0  0
 18 19  1  0  0  0  0
 20  5  1  0  0  0  0
 20 18  1  0  0  0  0
 21 20  2  0  0  0  0
 22 21  1  0  0  0  0
 23 21  1  0  0  0  0
 23 16  2  0  0  0  0
 24 25  1  0  0  0  0
 24 27  1  0  0  0  0
 24 26  1  0  0  0  0
 28 30  1  0  0  0  0
 28  5  1  0  0  0  0
 29 28  1  0  0  0  0
 31 28  1  0  0  0  0
 32 35  1  0  0  0  0
 32  6  1  0  0  0  0
 33 32  1  0  0  0  0
 34 32  1  0  0  0  0
M  END
