5
q = -1.0

 35 36  0  0  1  0  0  0  0  0999 V2000
   -1.1322    2.0375    0.8247 N   0  0  0  0  0  0  0  0  0  0  0  0
   -0.9834    2.9021    0.3009 H   0  0  0  0  0  0  0  0  0  0  0  0
   -2.5664    0.1957    0.9202 N   0  0  0  0  0  0  0  0  0  0  0  0
   -2.1887    1.2579   -1.1372 N   0  0  0  0  0  0  0  0  0  0  0  0
    1.6848    0.7045    0.0711 N   0  0  0  0  0  2  0  0  0  0  0  0
   -1.9502    1.1375    0.1895 C   0  0  0  0  0  3  0  0  0  0  0  0
   -2.7374    0.2981    2.3639 C   0  0  0  0  0  0  0  0  0  0  0  0
   -2.0672   -0.4263    2.8722 H   0  0  0  0  0  0  0  0  0  0  0  0
   -3.7934    0.0691    2.6148 H   0  0  0  0  0  0  0  0  0  0  0  0
   -2.5058    1.3258    2.6955 H   0  0  0  0  0  0  0  0  0  0  0  0
   -3.1631   -0.9463    0.2165 C   0  0  0  0  0  0  0  0  0  0  0  0
   -3.7224   -1.5455    0.9563 H   0  0  0  0  0  0  0  0  0  0  0  0
   -2.3412   -1.5678   -0.2005 H   0  0  0  0  0  0  0  0  0  0  0  0
   -4.0590   -0.3853   -0.8838 C   0  0  0  0  0  0  0  0  0  0  0  0
   -4.5449   -1.1987   -1.4577 H   0  0  0  0  0  0  0  0  0  0  0  0
   -4.8651    0.2304   -0.4313 H   0  0  0  0  0  0  0  0  0  0  0  0
   -3.1936    0.4362   -1.8326 C   0  0  0  0  0  0  0  0  0  0  0  0
   -2.6169   -0.2501   -2.4895 H   0  0  0  0  0  0  0  0  0  0  0  0
   -3.8072    1.1080   -2.4705 H   0  0  0  0  0  0  0  0  0  0  0  0
   -1.2282    1.8694   -2.0536 C   0  0  0  0  0  0  0  0  0  0  0  0
   -0.4502    2.4326   -1.5106 H   0  0  0  0  0  0  0  0  0  0  0  0
   -1.7551    2.5576   -2.7447 H   0  0  0  0  0  0  0  0  0  0  0  0
   -0.7203    1.0559   -2.6166 H   0  0  0  0  0  0  0  0  0  0  0  0
    0.0268    1.6194    1.6380 C   0  0  0  0  0  0  0  0  0  0  0  0
   -0.0990    0.5544    1.9398 H   0  0  0  0  0  0  0  0  0  0  0  0
    0.0792    2.2501    2.5481 H   0  0  0  0  0  0  0  0  0  0  0  0
    1.3050    1.7518    0.8373 C   0  0  2  0  0  3  0  0  0  0  0  0
    2.0281    2.9595    0.8408 C   0  0  0  0  0  0  0  0  0  0  0  0
    1.7122    3.7814    1.5016 H   0  0  0  0  0  0  0  0  0  0  0  0
    3.1473    3.0938    0.0073 C   0  0  0  0  0  0  0  0  0  0  0  0
    3.7269    4.0296   -0.0039 H   0  0  0  0  0  0  0  0  0  0  0  0
    3.5144    2.0109   -0.8009 C   0  0  0  0  0  0  0  0  0  0  0  0
    4.3838    2.0636   -1.4718 H   0  0  0  0  0  0  0  0  0  0  0  0
    2.7646    0.8286   -0.7271 C   0  0  0  0  0  0  0  0  0  0  0  0
    3.0463   -0.0877   -1.2769 H   0  0  0  0  0  0  0  0  0  0  0  0
  1 24  1  0  0  0  0
  2  1  1  0  0  0  0
  3  7  1  0  0  0  0
  4  6  1  0  0  0  0
  5 27  1  0  0  0  0
  6  1  1  0  0  0  0
  6  3  1  0  0  0  0
  7  9  1  0  0  0  0
  7 10  1  0  0  0  0
  7  8  1  0  0  0  0
 11  3  1  0  0  0  0
 11 12  1  0  0  0  0
 13 11  1  0  0  0  0
 14 16  1  0  0  0  0
 14 11  1  0  0  0  0
 15 14  1  0  0  0  0
 17  4  1  0  0  0  0
 17 14  1  0  0  0  0
 18 17  1  0  0  0  0
 19 17  1  0  0  0  0
 20 21  1  0  0  0  0
 20  4  1  0  0  0  0
 22 20  1  0  0  0  0
 23 20  1  0  0  0  0
 24 25  1  0  0  0  0
 24 26  1  0  0  0  0
 27 28  1  0  0  0  0
 27 24  1  6  0  0  0
 28 29  1  0  0  0  0
 30 28  2  0  0  0  0
 31 30  1  0  0  0  0
 32 34  2  0  0  0  0
 32 30  1  0  0  0  0
 33 32  1  0  0  0  0
 34  5  1  0  0  0  0
 35 34  1  0  0  0  0
M  END
