1
q = 0.0, confidence = 1.0

 29 31  0  0  1  0  0  0  0  0999 V2000
    0.4575   -0.2193   -0.0821 N   0  0  0  0  0  2  0  0  0  0  0  0
    1.3693    0.7901   -0.0249 N   0  0  0  0  0  0  0  0  0  0  0  0
    0.9456    1.7463    0.0368 H   0  0  0  0  0  0  0  0  0  0  0  0
    1.1590   -1.3855   -0.1709 C   0  0  0  0  0  3  0  0  0  0  0  0
    0.6195   -2.3364   -0.2341 H   0  0  0  0  0  0  0  0  0  0  0  0
    2.5313   -1.1004   -0.1458 C   0  0  0  0  0  0  0  0  0  0  0  0
    2.6154    0.2952   -0.0532 C   0  0  0  0  0  0  0  0  0  0  0  0
    4.0556    0.7298   -0.1416 C   0  0  2  0  0  0  0  0  0  0  0  0
    4.4362    0.4142   -1.6342 C   0  0  0  0  0  0  0  0  0  0  0  0
    3.7377    0.9177   -2.3302 H   0  0  0  0  0  0  0  0  0  0  0  0
    5.4498    0.8081   -1.8499 H   0  0  0  0  0  0  0  0  0  0  0  0
    4.3841   -1.1398   -1.7338 C   0  0  0  0  0  0  0  0  0  0  0  0
    3.6608   -1.4943   -2.4922 H   0  0  0  0  0  0  0  0  0  0  0  0
    5.3728   -1.5640   -1.9986 H   0  0  0  0  0  0  0  0  0  0  0  0
    3.9545   -1.5838   -0.2980 C   0  0  1  0  0  0  0  0  0  0  0  0
    4.1588   -2.6444   -0.0594 H   0  0  0  0  0  0  0  0  0  0  0  0
    4.7087   -0.5252    0.5993 C   0  0  0  0  0  0  0  0  0  0  0  0
    4.4110    2.1225    0.3451 C   0  0  0  0  0  0  0  0  0  0  0  0
    3.9012    2.8980   -0.2626 H   0  0  0  0  0  0  0  0  0  0  0  0
    5.5015    2.3040    0.2654 H   0  0  0  0  0  0  0  0  0  0  0  0
    4.1118    2.2725    1.4018 H   0  0  0  0  0  0  0  0  0  0  0  0
    4.3459   -0.6146    2.0875 C   0  0  0  0  0  0  0  0  0  0  0  0
    4.7251   -1.5637    2.5183 H   0  0  0  0  0  0  0  0  0  0  0  0
    3.2543   -0.5750    2.2645 H   0  0  0  0  0  0  0  0  0  0  0  0
    4.8163    0.2138    2.6557 H   0  0  0  0  0  0  0  0  0  0  0  0
    6.2372   -0.5843    0.4817 C   0  0  0  0  0  0  0  0  0  0  0  0
    6.7032    0.2257    1.0787 H   0  0  0  0  0  0  0  0  0  0  0  0
    6.6145   -0.4947   -0.5534 H   0  0  0  0  0  0  0  0  0  0  0  0
    6.6100   -1.5455    0.8910 H   0  0  0  0  0  0  0  0  0  0  0  0
  1  2  1  0  0  0  0
  2  3  1  0  0  0  0
  4  6  1  0  0  0  0
  4  1  1  0  0  0  0
  5  4  1  0  0  0  0
  6  7  2  0  0  0  0
  7  2  1  0  0  0  0
  8  7  1  0  0  0  0
  8 18  1  1  0  0  0
  8 17  1  0  0  0  0
  9  8  1  0  0  0  0
 10  9  1  0  0  0  0
 11  9  1  0  0  0  0
 12  9  1  0  0  0  0
 12 15  1  0  0  0  0
 13 12  1  0  0  0  0
 14 12  1  0  0  0  0
 15  6  1  0  0  0  0
 15 16  1  1  0  0  0
 15 17  1  0  0  0  0
 17 22  1  0  0  0  0
 18 21  1  0  0  0  0
 19 18  1  0  0  0  0
 20 18  1  0  0  0  0
 22 24  1  0  0  0  0
 22 23  1  0  0  0  0
 22 25  1  0  0  0  0
 26 17  1  0  0  0  0
 26 29  1  0  0  0  0
 26 27  1  0  0  0  0
 28 26  1  0  0  0  0
M  END
