1
q = 0.0, confidence = 0.992

 32 33  0  0  0  0  0  0  0  0999 V2000
   -1.8948    0.3920   -0.6615 N   0  0  0  0  0  2  0  0  0  0  0  0
   -2.3509    0.1069   -2.0165 C   0  0  0  0  0  0  0  0  0  0  0  0
   -3.3124    0.6390   -2.2029 H   0  0  0  0  0  0  0  0  0  0  0  0
   -2.5182   -0.9822   -2.1868 H   0  0  0  0  0  0  0  0  0  0  0  0
   -1.2936    0.5526   -3.0398 C   0  0  0  0  0  0  0  0  0  0  0  0
   -0.4322   -0.1499   -2.9604 H   0  0  0  0  0  0  0  0  0  0  0  0
   -1.7119    0.4526   -4.0634 H   0  0  0  0  0  0  0  0  0  0  0  0
   -0.7820    1.9092   -2.8615 C   0  0  0  0  0  0  0  0  0  0  0  0
   -0.3224    2.9797   -2.7322 N   0  0  0  0  0  0  0  0  0  0  0  0
   -2.8832   -0.0225    0.5894 S   0  0  0  0  0  3  0  0  0  0  0  0
   -4.3524    1.0325    0.3925 C   0  0  0  0  0  0  0  0  0  0  0  0
   -4.1163    2.3209   -0.1149 C   0  0  0  0  0  0  0  0  0  0  0  0
   -3.1013    2.5928   -0.4468 H   0  0  0  0  0  0  0  0  0  0  0  0
   -5.1825    3.2305   -0.1691 C   0  0  0  0  0  0  0  0  0  0  0  0
   -5.0113    4.2393   -0.5739 H   0  0  0  0  0  0  0  0  0  0  0  0
   -6.4543    2.8626    0.2997 C   0  0  0  0  0  0  0  0  0  0  0  0
   -7.2858    3.5819    0.2574 H   0  0  0  0  0  0  0  0  0  0  0  0
   -6.6643    1.5807    0.8334 C   0  0  0  0  0  0  0  0  0  0  0  0
   -7.6572    1.2942    1.2116 H   0  0  0  0  0  0  0  0  0  0  0  0
   -5.6107    0.6548    0.8885 C   0  0  0  0  0  0  0  0  0  0  0  0
   -5.7712   -0.3489    1.3084 H   0  0  0  0  0  0  0  0  0  0  0  0
   -3.5228   -1.6942    0.3127 C   0  0  0  0  0  0  0  0  0  0  0  0
   -2.7766   -2.7031    0.9489 C   0  0  0  0  0  0  0  0  0  0  0  0
   -1.9515   -2.4554    1.6344 H   0  0  0  0  0  0  0  0  0  0  0  0
   -3.0744   -4.0446    0.6726 C   0  0  0  0  0  0  0  0  0  0  0  0
   -2.4865   -4.8330    1.1650 H   0  0  0  0  0  0  0  0  0  0  0  0
   -4.0957   -4.3683   -0.2339 C   0  0  0  0  0  0  0  0  0  0  0  0
   -4.3233   -5.4229   -0.4513 H   0  0  0  0  0  0  0  0  0  0  0  0
   -4.8214   -3.3512   -0.8778 C   0  0  0  0  0  0  0  0  0  0  0  0
   -5.6128   -3.6077   -1.5983 H   0  0  0  0  0  0  0  0  0  0  0  0
   -4.5330   -2.0041   -0.6165 C   0  0  0  0  0  0  0  0  0  0  0  0
   -5.0925   -1.2038   -1.1226 H   0  0  0  0  0  0  0  0  0  0  0  0
  1 10  1  0  0  0  0
  2  1  1  0  0  0  0
  3  2  1  0  0  0  0
  4  2  1  0  0  0  0
  5  6  1  0  0  0  0
  5  8  1  0  0  0  0
  5  2  1  0  0  0  0
  7  5  1  0  0  0  0
  8  9  3  0  0  0  0
 11 10  1  0  0  0  0
 11 20  1  0  0  0  0
 12 11  2  0  0  0  0
 13 12  1  0  0  0  0
 14 12  1  0  0  0  0
 14 16  2  0  0  0  0
 15 14  1  0  0  0  0
 16 18  1  0  0  0  0
 17 16  1  0  0  0  0
 18 20  2  0  0  0  0
 18 19  1  0  0  0  0
 20 21  1  0  0  0  0
 22 10  1  0  0  0  0
 22 23  1  0  0  0  0
 23 24  1  0  0  0  0
 25 23  2  0  0  0  0
 25 26  1  0  0  0  0
 27 25  1  0  0  0  0
 28 27  1  0  0  0  0
 29 31  1  0  0  0  0
 29 27  2  0  0  0  0
 30 29  1  0  0  0  0
 31 22  2  0  0  0  0
 32 31  1  0  0  0  0
M  END
