1
q = 0.0, confidence = 0.992

 22 21  0  0  1  0  0  0  0  0999 V2000
   -1.1037    1.5361    0.0674 N   0  0  0  0  0  2  0  0  0  0  0  0
   -1.2769   -1.4084   -0.3717 N   0  0  0  0  0  0  0  0  0  0  0  0
   -2.3795    1.5319   -0.1793 C   0  0  2  0  0  3  0  0  0  0  0  0
   -3.0929    0.2638   -0.5816 C   0  0  0  0  0  0  0  0  0  0  0  0
   -2.6721   -1.0698    0.0783 C   0  0  0  0  0  0  0  0  0  0  0  0
   -3.6290   -2.1750   -0.3963 C   0  0  0  0  0  0  0  0  0  0  0  0
   -3.6474   -2.2518   -1.5031 H   0  0  0  0  0  0  0  0  0  0  0  0
   -4.6634   -1.9758   -0.0551 H   0  0  0  0  0  0  0  0  0  0  0  0
   -3.3277   -3.1588    0.0168 H   0  0  0  0  0  0  0  0  0  0  0  0
   -2.6732   -0.9747    1.6083 C   0  0  0  0  0  0  0  0  0  0  0  0
   -2.4203   -1.9552    2.0600 H   0  0  0  0  0  0  0  0  0  0  0  0
   -3.6782   -0.6905    1.9757 H   0  0  0  0  0  0  0  0  0  0  0  0
   -1.9345   -0.2331    1.9704 H   0  0  0  0  0  0  0  0  0  0  0  0
   -3.1993    2.7819   -0.1137 C   0  0  0  0  0  0  0  0  0  0  0  0
   -2.5870    3.6826    0.0812 H   0  0  0  0  0  0  0  0  0  0  0  0
   -3.9659    2.6874    0.6849 H   0  0  0  0  0  0  0  0  0  0  0  0
   -3.7588    2.9254   -1.0621 H   0  0  0  0  0  0  0  0  0  0  0  0
   -2.9949    0.1745   -1.6892 H   0  0  0  0  0  0  0  0  0  0  0  0
   -4.1772    0.4034   -0.4038 H   0  0  0  0  0  0  0  0  0  0  0  0
   -0.7523    2.4759    0.3147 H   0  0  0  0  0  0  0  0  0  0  0  0
   -1.0051   -2.3052    0.0645 H   0  0  0  0  0  0  0  0  0  0  0  0
   -1.2957   -1.6032   -1.3872 H   0  0  0  0  0  0  0  0  0  0  0  0
  1 20  1  0  0  0  0
  2 21  1  0  0  0  0
  2  5  1  0  0  0  0
  3 14  1  0  0  0  0
  3  1  1  6  0  0  0
  4 19  1  0  0  0  0
  4  3  1  0  0  0  0
  4  5  1  0  0  0  0
  5 10  1  0  0  0  0
  6  8  1  0  0  0  0
  6  9  1  0  0  0  0
  6  5  1  0  0  0  0
  7  6  1  0  0  0  0
 10 13  1  0  0  0  0
 10 12  1  0  0  0  0
 10 11  1  0  0  0  0
 14 15  1  0  0  0  0
 14 16  1  0  0  0  0
 17 14  1  0  0  0  0
 18  4  1  0  0  0  0
 22  2  1  0  0  0  0
M  END
