5
q = -1.0, confidence = 0.0

 44 46  0  0  1  0  0  0  0  0999 V2000
   -0.2020   -2.0737    4.6974 Cl  0  0  0  0  0  0  0  0  0  0  0  0
    6.0765   -1.1786   -0.9201 Cl  0  0  0  0  0  0  0  0  0  0  0  0
    1.0090    5.3433   -1.1969 Cl  0  0  0  0  0  0  0  0  0  0  0  0
    0.9032    0.1211   -0.1097 B   0  0  0  0  0  0  0  0  0  0  0  0
   -1.0321   -0.9102    1.0663 N   0  0  0  0  0  2  0  0  0  0  0  0
    0.2691   -0.5339    1.1479 N   0  0  0  0  0  0  0  0  0  0  0  0
    2.2210   -1.8774   -0.6769 N   0  0  0  0  0  0  0  0  0  0  0  0
    2.2624   -0.5384   -0.4215 N   0  0  0  0  0  0  0  0  0  0  0  0
    1.1983    2.2553    1.2325 N   0  0  0  0  0  0  0  0  0  0  0  0
    0.9943    1.6465    0.0323 N   0  0  0  0  0  0  0  0  0  0  0  0
   -1.3985   -1.4734    2.2341 C   0  0  2  0  0  3  0  0  0  0  0  0
   -0.2685   -1.4554    3.0847 C   0  0  0  0  0  0  0  0  0  0  0  0
    0.7807   -0.8543    2.3700 C   0  0  0  0  0  0  0  0  0  0  0  0
   -2.7753   -1.9900    2.4742 C   0  0  0  0  0  0  0  0  0  0  0  0
    2.1809   -0.5730    2.7867 C   0  0  0  0  0  0  0  0  0  0  0  0
    3.4840   -2.2837   -0.8758 C   0  0  0  0  0  0  0  0  0  0  0  0
    4.3524   -1.1692   -0.7470 C   0  0  0  0  0  0  0  0  0  0  0  0
    3.5491   -0.0581   -0.4566 C   0  0  0  0  0  0  0  0  0  0  0  0
    3.8337   -3.7015   -1.1892 C   0  0  0  0  0  0  0  0  0  0  0  0
    3.9839    1.3500   -0.2240 C   0  0  0  0  0  0  0  0  0  0  0  0
    1.2443    3.5781    0.9952 C   0  0  0  0  0  0  0  0  0  0  0  0
    1.0692    3.8081   -0.3956 C   0  0  0  0  0  0  0  0  0  0  0  0
    0.9097    2.5508   -0.9925 C   0  0  0  0  0  0  0  0  0  0  0  0
    1.4340    4.5814    2.0847 C   0  0  0  0  0  0  0  0  0  0  0  0
    0.6886    2.1868   -2.4208 C   0  0  0  0  0  0  0  0  0  0  0  0
    0.0953   -0.1256   -1.0253 H   0  0  0  0  0  0  0  0  0  0  0  0
   -2.7523   -3.0184    2.8882 H   0  0  0  0  0  0  0  0  0  0  0  0
   -3.3395   -1.9856    1.5188 H   0  0  0  0  0  0  0  0  0  0  0  0
   -3.3261   -1.3623    3.2067 H   0  0  0  0  0  0  0  0  0  0  0  0
    2.3147   -0.8632    3.8452 H   0  0  0  0  0  0  0  0  0  0  0  0
    2.9090   -1.1362    2.1685 H   0  0  0  0  0  0  0  0  0  0  0  0
    2.3937    0.5086    2.6708 H   0  0  0  0  0  0  0  0  0  0  0  0
    4.3431   -3.7846   -2.1719 H   0  0  0  0  0  0  0  0  0  0  0  0
    2.9195   -4.3243   -1.2116 H   0  0  0  0  0  0  0  0  0  0  0  0
    4.5287   -4.1226   -0.4333 H   0  0  0  0  0  0  0  0  0  0  0  0
    5.0892    1.3868   -0.2512 H   0  0  0  0  0  0  0  0  0  0  0  0
    3.5976    2.0436   -0.9987 H   0  0  0  0  0  0  0  0  0  0  0  0
    3.6358    1.7393    0.7529 H   0  0  0  0  0  0  0  0  0  0  0  0
    0.5652    5.2686    2.1587 H   0  0  0  0  0  0  0  0  0  0  0  0
    1.5599    4.0657    3.0550 H   0  0  0  0  0  0  0  0  0  0  0  0
    2.3266    5.2140    1.9001 H   0  0  0  0  0  0  0  0  0  0  0  0
    0.6534    3.1066   -3.0344 H   0  0  0  0  0  0  0  0  0  0  0  0
   -0.2627    1.6283   -2.5506 H   0  0  0  0  0  0  0  0  0  0  0  0
    1.4989    1.5359   -2.8090 H   0  0  0  0  0  0  0  0  0  0  0  0
  2 17  1  0  0  0  0
  3 22  1  0  0  0  0
  4 10  1  0  0  0  0
  4  6  1  0  0  0  0
  5  6  1  0  0  0  0
  5 11  1  0  0  0  0
  6 13  1  0  0  0  0
  7  8  1  0  0  0  0
  8  4  1  0  0  0  0
 10  9  1  0  0  0  0
 11 14  1  6  0  0  0
 11 12  1  0  0  0  0
 12  1  1  0  0  0  0
 13 15  1  0  0  0  0
 13 12  2  0  0  0  0
 14 27  1  0  0  0  0
 14 29  1  0  0  0  0
 15 30  1  0  0  0  0
 16 17  1  0  0  0  0
 16  7  2  0  0  0  0
 17 18  2  0  0  0  0
 18  8  1  0  0  0  0
 18 20  1  0  0  0  0
 19 16  1  0  0  0  0
 19 35  1  0  0  0  0
 20 38  1  0  0  0  0
 21  9  2  0  0  0  0
 21 24  1  0  0  0  0
 22 21  1  0  0  0  0
 23 22  2  0  0  0  0
 23 10  1  0  0  0  0
 24 39  1  0  0  0  0
 24 40  1  0  0  0  0
 25 23  1  0  0  0  0
 26  4  1  0  0  0  0
 28 14  1  0  0  0  0
 31 15  1  0  0  0  0
 32 15  1  0  0  0  0
 33 19  1  0  0  0  0
 34 19  1  0  0  0  0
 36 20  1  0  0  0  0
 37 20  1  0  0  0  0
 41 24  1  0  0  0  0
 42 25  1  0  0  0  0
 43 25  1  0  0  0  0
 44 25  1  0  0  0  0
M  END
