1
q = 0.0, confidence = 0.998

 24 26  0  0  1  0  0  0  0  0999 V2000
   -1.8803   -0.5513   -0.9779 N   0  0  0  0  0  2  0  0  0  0  0  0
   -2.4023    1.5669   -1.4679 N   0  0  0  0  0  0  0  0  0  0  0  0
   -2.1524    2.5456   -1.6765 H   0  0  0  0  0  0  0  0  0  0  0  0
    0.5282    2.0401   -1.6753 N   0  0  0  0  0  0  0  0  0  0  0  0
   -0.1569    3.2115   -1.6148 N   0  0  0  0  0  0  0  0  0  0  0  0
    1.9707    3.4978   -0.8689 N   0  0  0  0  0  0  0  0  0  0  0  0
    0.7525    4.0544   -1.1164 C   0  0  0  0  0  0  0  0  0  0  0  0
    0.5144    5.1095   -0.9291 H   0  0  0  0  0  0  0  0  0  0  0  0
    1.8035    2.2283   -1.2375 C   0  0  0  0  0  0  0  0  0  0  0  0
    2.5635    1.4312   -1.1996 H   0  0  0  0  0  0  0  0  0  0  0  0
   -0.1164    0.8256   -2.1607 C   0  0  0  0  0  0  0  0  0  0  0  0
    0.5364   -0.0548   -1.9889 H   0  0  0  0  0  0  0  0  0  0  0  0
   -0.2607    0.9066   -3.2603 H   0  0  0  0  0  0  0  0  0  0  0  0
   -1.4462    0.5932   -1.5079 C   0  0  2  0  0  3  0  0  0  0  0  0
   -3.1955   -0.3162   -0.5731 C   0  0  0  0  0  0  0  0  0  0  0  0
   -4.1246   -1.1675    0.0536 C   0  0  0  0  0  0  0  0  0  0  0  0
   -3.8395   -2.2018    0.2988 H   0  0  0  0  0  0  0  0  0  0  0  0
   -5.3717   -0.6217    0.3767 C   0  0  0  0  0  0  0  0  0  0  0  0
   -6.1226   -1.2568    0.8699 H   0  0  0  0  0  0  0  0  0  0  0  0
   -5.6942    0.7284    0.0908 C   0  0  0  0  0  0  0  0  0  0  0  0
   -6.6884    1.1126    0.3641 H   0  0  0  0  0  0  0  0  0  0  0  0
   -4.7800    1.5863   -0.5329 C   0  0  0  0  0  0  0  0  0  0  0  0
   -5.0298    2.6334   -0.7559 H   0  0  0  0  0  0  0  0  0  0  0  0
   -3.5301    1.0390   -0.8617 C   0  0  0  0  0  0  0  0  0  0  0  0
  1 15  1  0  0  0  0
  2 24  1  0  0  0  0
  3  2  1  0  0  0  0
  4  5  1  0  0  0  0
  4  9  1  0  0  0  0
  5  7  2  0  0  0  0
  7  8  1  0  0  0  0
  7  6  1  0  0  0  0
  9 10  1  0  0  0  0
  9  6  2  0  0  0  0
 11 12  1  0  0  0  0
 11  4  1  0  0  0  0
 13 11  1  0  0  0  0
 14 11  1  6  0  0  0
 14  2  1  0  0  0  0
 14  1  1  0  0  0  0
 15 16  1  0  0  0  0
 16 17  1  0  0  0  0
 16 18  2  0  0  0  0
 18 19  1  0  0  0  0
 20 21  1  0  0  0  0
 20 18  1  0  0  0  0
 22 20  2  0  0  0  0
 23 22  1  0  0  0  0
 24 15  2  0  0  0  0
 24 22  1  0  0  0  0
M  END
