1
q = 0.0, confidence = 0.986

 13 13  0  0  1  0  0  0  0  0999 V2000
    0.0695    0.5494   -0.3796 N   0  0  0  0  0  2  0  0  0  0  0  0
    1.2147    2.5650   -0.4435 N   0  0  0  0  0  0  0  0  0  0  0  0
    2.0921    2.0132   -0.5921 H   0  0  0  0  0  0  0  0  0  0  0  0
    1.2702    3.5474   -0.1910 H   0  0  0  0  0  0  0  0  0  0  0  0
    0.0449    1.9073   -0.2892 C   0  0  1  0  0  3  0  0  0  0  0  0
   -1.1933    2.5841   -0.0741 C   0  0  0  0  0  0  0  0  0  0  0  0
   -1.2114    3.6810    0.0147 H   0  0  0  0  0  0  0  0  0  0  0  0
   -2.3694    1.8470    0.0108 C   0  0  0  0  0  0  0  0  0  0  0  0
   -3.3350    2.3480    0.1750 H   0  0  0  0  0  0  0  0  0  0  0  0
   -2.3079    0.4460   -0.1198 C   0  0  0  0  0  0  0  0  0  0  0  0
   -1.0638   -0.1646   -0.3026 C   0  0  0  0  0  0  0  0  0  0  0  0
   -0.9253   -1.2606   -0.3717 H   0  0  0  0  0  0  0  0  0  0  0  0
   -3.8995   -0.6044   -0.0227 Br  0  0  0  0  0  0  0  0  0  0  0  0
  1 11  1  0  0  0  0
  1  5  1  0  0  0  0
  2  4  1  0  0  0  0
  3  2  1  0  0  0  0
  5  2  1  6  0  0  0
  5  6  1  0  0  0  0
  6  8  2  0  0  0  0
  6  7  1  0  0  0  0
  8  9  1  0  0  0  0
 10 13  1  0  0  0  0
 10  8  1  0  0  0  0
 11 10  2  0  0  0  0
 12 11  1  0  0  0  0
M  END
