1
q = 0.0, confidence = 0.99

 18 18  0  0  0  0  0  0  0  0999 V2000
    0.1986    1.2393   -1.5700 N   0  0  0  0  0  2  0  0  0  0  0  0
    0.6077    1.2419   -2.5165 H   0  0  0  0  0  0  0  0  0  0  0  0
   -4.6326    1.8017   -1.0162 C   0  0  0  0  0  0  0  0  0  0  0  0
   -5.1740    0.9737   -1.4983 H   0  0  0  0  0  0  0  0  0  0  0  0
   -3.2512    1.6922   -0.8066 C   0  0  0  0  0  0  0  0  0  0  0  0
   -2.7164    0.7835   -1.1236 H   0  0  0  0  0  0  0  0  0  0  0  0
   -0.3370    2.3809   -1.2597 C   0  0  0  0  0  3  0  0  0  0  0  0
   -0.3439    3.2207   -1.9834 H   0  0  0  0  0  0  0  0  0  0  0  0
   -2.5367    2.7317   -0.1760 C   0  0  0  0  0  0  0  0  0  0  0  0
   -4.6155    3.9981    0.0184 C   0  0  0  0  0  0  0  0  0  0  0  0
   -5.1468    4.9050    0.3455 H   0  0  0  0  0  0  0  0  0  0  0  0
   -5.3194    2.9559   -0.6049 C   0  0  0  0  0  0  0  0  0  0  0  0
   -6.4043    3.0427   -0.7690 H   0  0  0  0  0  0  0  0  0  0  0  0
   -3.2320    3.8865    0.2287 C   0  0  0  0  0  0  0  0  0  0  0  0
   -2.6828    4.7040    0.7226 H   0  0  0  0  0  0  0  0  0  0  0  0
   -1.0416    2.5810    0.0455 C   0  0  0  0  0  0  0  0  0  0  0  0
   -0.6357    3.4775    0.5587 H   0  0  0  0  0  0  0  0  0  0  0  0
   -0.8329    1.7045    0.6977 H   0  0  0  0  0  0  0  0  0  0  0  0
  1  7  1  0  0  0  0
  2  1  1  0  0  0  0
  3  5  2  0  0  0  0
  3 12  1  0  0  0  0
  4  3  1  0  0  0  0
  5  9  1  0  0  0  0
  6  5  1  0  0  0  0
  7 16  1  0  0  0  0
  8  7  1  0  0  0  0
  9 16  1  0  0  0  0
  9 14  2  0  0  0  0
 10 14  1  0  0  0  0
 10 11  1  0  0  0  0
 12 10  2  0  0  0  0
 13 12  1  0  0  0  0
 14 15  1  0  0  0  0
 16 17  1  0  0  0  0
 16 18  1  0  0  0  0
M  END
