1
q = 0.0, confidence = 0.994

 26 27  0  0  1  0  0  0  0  0999 V2000
    0.6406   -1.1201    1.1880 N   0  0  0  0  0  0  0  0  0  0  0  0
    1.4005   -1.8106    1.2849 H   0  0  0  0  0  0  0  0  0  0  0  0
    0.5856   -0.6459    2.1029 H   0  0  0  0  0  0  0  0  0  0  0  0
   -0.6231   -1.8430    0.8815 C   0  0  1  0  0  0  0  0  0  0  0  0
   -0.5622   -2.0613   -0.2016 H   0  0  0  0  0  0  0  0  0  0  0  0
   -0.7048   -3.1664    1.6549 C   0  0  0  0  0  0  0  0  0  0  0  0
    0.1563   -3.8252    1.4158 H   0  0  0  0  0  0  0  0  0  0  0  0
   -1.6325   -3.7070    1.3840 H   0  0  0  0  0  0  0  0  0  0  0  0
   -0.7280   -2.9857    2.7491 H   0  0  0  0  0  0  0  0  0  0  0  0
   -1.8391   -0.9722    1.1531 C   0  0  0  0  0  0  0  0  0  0  0  0
   -1.8756   -0.1442    2.2712 C   0  0  0  0  0  0  0  0  0  0  0  0
   -1.0062   -0.0623    2.9428 H   0  0  0  0  0  0  0  0  0  0  0  0
   -3.0134    0.6421    2.5824 C   0  0  0  0  0  0  0  0  0  0  0  0
   -2.9950    1.2920    3.4697 H   0  0  0  0  0  0  0  0  0  0  0  0
   -4.1323    0.5926    1.7696 C   0  0  0  0  0  0  0  0  0  0  0  0
   -5.0220    1.1989    1.9998 H   0  0  0  0  0  0  0  0  0  0  0  0
   -4.1512   -0.2425    0.6149 C   0  0  0  0  0  0  0  0  0  0  0  0
   -5.2900   -0.2878   -0.2425 C   0  0  0  0  0  0  0  0  0  0  0  0
   -6.1637    0.3315    0.0138 H   0  0  0  0  0  0  0  0  0  0  0  0
   -5.3024   -1.0895   -1.3734 C   0  0  0  0  0  0  0  0  0  0  0  0
   -6.1874   -1.1126   -2.0269 H   0  0  0  0  0  0  0  0  0  0  0  0
   -4.1668   -1.8776   -1.6915 C   0  0  0  0  0  0  0  0  0  0  0  0
   -4.1716   -2.5037   -2.5961 H   0  0  0  0  0  0  0  0  0  0  0  0
   -3.0419   -1.8566   -0.8794 C   0  0  0  0  0  0  0  0  0  0  0  0
   -2.1702   -2.4572   -1.1683 H   0  0  0  0  0  0  0  0  0  0  0  0
   -2.9911   -1.0456    0.2944 C   0  0  0  0  0  0  0  0  0  0  0  0
  1  2  1  0  0  0  0
  1  3  1  0  0  0  0
  4  5  1  6  0  0  0
  4 10  1  0  0  0  0
  4  1  1  0  0  0  0
  4  6  1  0  0  0  0
  6  9  1  0  0  0  0
  7  6  1  0  0  0  0
  8  6  1  0  0  0  0
 10 11  1  0  0  0  0
 11 13  2  0  0  0  0
 11 12  1  0  0  0  0
 13 14  1  0  0  0  0
 15 16  1  0  0  0  0
 15 13  1  0  0  0  0
 17 15  2  0  0  0  0
 18 19  1  0  0  0  0
 18 17  1  0  0  0  0
 20 18  2  0  0  0  0
 21 20  1  0  0  0  0
 22 20  1  0  0  0  0
 22 24  2  0  0  0  0
 23 22  1  0  0  0  0
 24 26  1  0  0  0  0
 25 24  1  0  0  0  0
 26 17  1  0  0  0  0
 26 10  2  0  0  0  0
M  END
