3
q = -1

 21 20  0  0  0  0  0  0  0  0999 V2000
   -2.8734   -0.0383   -1.5018 Si  0  0  0  0  0  0  0  0  0  0  0  0
   -2.2108    0.1988    1.5623 Si  0  0  0  0  0  0  0  0  0  0  0  0
   -1.8539   -0.0424   -0.0985 N   0  0  0  0  0  2  0  0  0  0  0  0
   -4.2781    1.2359   -1.4233 C   0  0  0  0  0  0  0  0  0  0  0  0
   -3.6778   -1.7161   -1.8737 C   0  0  0  0  0  0  0  0  0  0  0  0
   -3.1509    1.7729    2.0366 C   0  0  0  0  0  0  0  0  0  0  0  0
   -3.0234   -1.1918    2.5561 C   0  0  0  0  0  0  0  0  0  0  0  0
   -1.9960    0.2972   -2.6984 H   0  0  0  0  0  0  0  0  0  0  0  0
   -0.7488    0.3041    2.1161 H   0  0  0  0  0  0  0  0  0  0  0  0
   -3.9019    2.2613   -1.2402 H   0  0  0  0  0  0  0  0  0  0  0  0
   -4.9843    0.9816   -0.6048 H   0  0  0  0  0  0  0  0  0  0  0  0
   -4.8548    1.2426   -2.3716 H   0  0  0  0  0  0  0  0  0  0  0  0
   -2.9209   -2.5077   -2.0367 H   0  0  0  0  0  0  0  0  0  0  0  0
   -4.3097   -1.6521   -2.7842 H   0  0  0  0  0  0  0  0  0  0  0  0
   -4.3258   -2.0348   -1.0305 H   0  0  0  0  0  0  0  0  0  0  0  0
   -2.8831    2.6368    1.4004 H   0  0  0  0  0  0  0  0  0  0  0  0
   -2.9741    2.0447    3.0974 H   0  0  0  0  0  0  0  0  0  0  0  0
   -4.2386    1.5880    1.9137 H   0  0  0  0  0  0  0  0  0  0  0  0
   -2.4526   -2.1371    2.5231 H   0  0  0  0  0  0  0  0  0  0  0  0
   -4.0373   -1.3940    2.1510 H   0  0  0  0  0  0  0  0  0  0  0  0
   -3.1400   -0.8846    3.6163 H   0  0  0  0  0  0  0  0  0  0  0  0
  1  4  1  0  0  0  0
  1  3  1  0  0  0  0
  2  6  1  0  0  0  0
  2  9  1  0  0  0  0
  2  7  1  0  0  0  0
  3  2  1  0  0  0  0
  4 10  1  0  0  0  0
  4 11  1  0  0  0  0
  5  1  1  0  0  0  0
  5 15  1  0  0  0  0
  6 17  1  0  0  0  0
  7 21  1  0  0  0  0
  8  1  1  0  0  0  0
 12  4  1  0  0  0  0
 13  5  1  0  0  0  0
 14  5  1  0  0  0  0
 16  6  1  0  0  0  0
 18  6  1  0  0  0  0
 19  7  1  0  0  0  0
 20  7  1  0  0  0  0
M  END
