2
q = 0.0, confidence = 0.988

 11 11  0  0  0  0  0  0  0  0999 V2000
    5.1319   -0.9888    0.0001 S   0  0  0  0  0  0  0  0  0  0  0  0
    2.7226   -0.1189   -0.0001 N   0  0  0  0  0  2  0  0  0  0  0  0
    3.4291   -1.2398    0.0002 C   0  0  0  0  0  3  0  0  0  0  0  0
    4.8702    0.7218   -0.0000 C   0  0  0  0  0  0  0  0  0  0  0  0
    3.5227    1.0196   -0.0002 C   0  0  0  0  0  0  0  0  0  0  0  0
    2.9024    2.3790   -0.0004 C   0  0  0  0  0  0  0  0  0  0  0  0
    2.9777   -2.2403    0.0003 H   0  0  0  0  0  0  0  0  0  0  0  0
    5.7123    1.4228   -0.0000 H   0  0  0  0  0  0  0  0  0  0  0  0
    2.2540    2.5126    0.8894 H   0  0  0  0  0  0  0  0  0  0  0  0
    2.2540    2.5122   -0.8902 H   0  0  0  0  0  0  0  0  0  0  0  0
    3.6772    3.1673   -0.0006 H   0  0  0  0  0  0  0  0  0  0  0  0
  1  3  1  0  0  0  0
  2  3  1  0  0  0  0
  3  7  1  0  0  0  0
  4  1  1  0  0  0  0
  5  2  1  0  0  0  0
  5  4  2  0  0  0  0
  6  5  1  0  0  0  0
  6  9  1  0  0  0  0
  8  4  1  0  0  0  0
 10  6  1  0  0  0  0
 11  6  1  0  0  0  0
M  END
