1
q = 0.0, confidence = 1.0

 26 27  0  0  0  0  0  0  0  0999 V2000
    1.0732   -1.5932   -0.3236 N   0  0  0  0  0  2  0  0  0  0  0  0
    5.1560   -1.4174    0.3479 N   0  0  0  0  0  0  0  0  0  0  0  0
    6.4523   -1.1926    0.5000 N   0  0  0  0  0  0  0  0  0  0  0  0
   10.2240    1.6980   -0.3868 N   0  0  0  0  0  0  0  0  0  0  0  0
    3.2608   -2.6440   -0.4188 C   0  0  0  0  0  0  0  0  0  0  0  0
    2.4065   -1.5637   -0.1237 C   0  0  0  0  0  3  0  0  0  0  0  0
    2.8516   -0.6163    0.2124 H   0  0  0  0  0  0  0  0  0  0  0  0
    0.5165   -2.7350   -0.8132 C   0  0  0  0  0  0  0  0  0  0  0  0
   -0.5732   -2.7146   -0.9476 H   0  0  0  0  0  0  0  0  0  0  0  0
    1.2908   -3.8542   -1.1283 C   0  0  0  0  0  0  0  0  0  0  0  0
    0.7970   -4.7512   -1.5286 H   0  0  0  0  0  0  0  0  0  0  0  0
    2.6811   -3.8175   -0.9417 C   0  0  0  0  0  0  0  0  0  0  0  0
    3.3106   -4.6820   -1.2027 H   0  0  0  0  0  0  0  0  0  0  0  0
    4.7072   -2.4719   -0.2535 C   0  0  0  0  0  0  0  0  0  0  0  0
    5.3889   -3.2249   -0.7034 H   0  0  0  0  0  0  0  0  0  0  0  0
    6.9977   -0.1729   -0.0899 C   0  0  0  0  0  0  0  0  0  0  0  0
    6.3957    0.4669   -0.7710 H   0  0  0  0  0  0  0  0  0  0  0  0
    8.3998    0.1727    0.1279 C   0  0  0  0  0  0  0  0  0  0  0  0
    8.9536    1.2985   -0.5266 C   0  0  0  0  0  0  0  0  0  0  0  0
    8.3144    1.9023   -1.1978 H   0  0  0  0  0  0  0  0  0  0  0  0
   11.0129    0.9808    0.4285 C   0  0  0  0  0  0  0  0  0  0  0  0
   12.0579    1.3256    0.5292 H   0  0  0  0  0  0  0  0  0  0  0  0
   10.5732   -0.1569    1.1336 C   0  0  0  0  0  0  0  0  0  0  0  0
   11.2668   -0.7058    1.7883 H   0  0  0  0  0  0  0  0  0  0  0  0
    9.2491   -0.5700    0.9791 C   0  0  0  0  0  0  0  0  0  0  0  0
    8.8482   -1.4540    1.4978 H   0  0  0  0  0  0  0  0  0  0  0  0
  1  6  1  0  0  0  0
  2  3  1  0  0  0  0
  4 21  1  0  0  0  0
  5 14  1  0  0  0  0
  5  6  1  0  0  0  0
  6  7  1  0  0  0  0
  8  1  1  0  0  0  0
  9  8  1  0  0  0  0
 10 12  1  0  0  0  0
 10  8  2  0  0  0  0
 11 10  1  0  0  0  0
 12  5  2  0  0  0  0
 13 12  1  0  0  0  0
 14  2  2  0  0  0  0
 15 14  1  0  0  0  0
 16 18  1  0  0  0  0
 16  3  2  0  0  0  0
 17 16  1  0  0  0  0
 18 25  2  0  0  0  0
 19  4  2  0  0  0  0
 19 18  1  0  0  0  0
 20 19  1  0  0  0  0
 21 22  1  0  0  0  0
 21 23  2  0  0  0  0
 23 24  1  0  0  0  0
 25 23  1  0  0  0  0
 25 26  1  0  0  0  0
M  END
