2
q = -1.0

 25 25  0  0  0  0  0  0  0  0999 V2000
    1.0037   -0.9924   -0.0564 N   0  0  0  0  0  0  0  0  0  0  0  0
    0.6112    0.2757    0.0016 N   0  0  0  0  0  2  0  0  0  0  0  0
    1.6158    1.1441    0.0501 N   0  0  0  0  0  0  0  0  0  0  0  0
    2.3542   -0.9613   -0.0486 C   0  0  0  0  0  0  0  0  0  0  0  0
    2.7470    0.4037    0.0172 C   0  0  0  0  0  0  0  0  0  0  0  0
    3.1576   -2.2022   -0.1776 C   0  0  0  0  0  0  0  0  0  0  0  0
    4.2993   -2.2662   -0.5941 O   0  0  0  0  0  0  0  0  0  0  0  0
    2.4335   -3.2844    0.2149 O   0  0  0  0  0  0  0  0  0  0  0  0
    3.0920   -4.5531    0.0656 C   0  0  0  0  0  0  0  0  0  0  0  0
    3.3976   -4.6826   -0.9953 H   0  0  0  0  0  0  0  0  0  0  0  0
    4.0298   -4.5506    0.6622 H   0  0  0  0  0  0  0  0  0  0  0  0
    2.1244   -5.6283    0.5181 C   0  0  0  0  0  0  0  0  0  0  0  0
    1.8425   -5.4842    1.5803 H   0  0  0  0  0  0  0  0  0  0  0  0
    2.5864   -6.6300    0.4119 H   0  0  0  0  0  0  0  0  0  0  0  0
    1.1949   -5.6000   -0.0846 H   0  0  0  0  0  0  0  0  0  0  0  0
    4.0823    1.0348    0.1250 C   0  0  0  0  0  0  0  0  0  0  0  0
    5.1185    0.4676    0.4154 O   0  0  0  0  0  0  0  0  0  0  0  0
    4.0024    2.3744   -0.1266 O   0  0  0  0  0  0  0  0  0  0  0  0
    5.2398    3.0957   -0.0030 C   0  0  0  0  0  0  0  0  0  0  0  0
    5.6592    2.9306    1.0129 H   0  0  0  0  0  0  0  0  0  0  0  0
    5.9797    2.6752   -0.7179 H   0  0  0  0  0  0  0  0  0  0  0  0
    4.9512    4.5588   -0.2735 C   0  0  0  0  0  0  0  0  0  0  0  0
    4.5389    4.6999   -1.2925 H   0  0  0  0  0  0  0  0  0  0  0  0
    5.8817    5.1548   -0.1900 H   0  0  0  0  0  0  0  0  0  0  0  0
    4.2161    4.9587    0.4534 H   0  0  0  0  0  0  0  0  0  0  0  0
  1  4  2  0  0  0  0
  1  2  1  0  0  0  0
  2  3  1  0  0  0  0
  4  5  1  0  0  0  0
  5  3  2  0  0  0  0
  5 16  1  0  0  0  0
  6  4  1  0  0  0  0
  6  8  1  0  0  0  0
  7  6  2  0  0  0  0
  9  8  1  0  0  0  0
  9 12  1  0  0  0  0
  9 11  1  0  0  0  0
 10  9  1  0  0  0  0
 12 13  1  0  0  0  0
 14 12  1  0  0  0  0
 15 12  1  0  0  0  0
 16 17  2  0  0  0  0
 18 19  1  0  0  0  0
 18 16  1  0  0  0  0
 19 20  1  0  0  0  0
 21 19  1  0  0  0  0
 22 24  1  0  0  0  0
 22 19  1  0  0  0  0
 22 25  1  0  0  0  0
 23 22  1  0  0  0  0
M  END
