1
q = -1.0

 15 16  0  0  0  0  0  0  0  0999 V2000
   -1.8808   -0.1962   -0.0162 N   0  0  0  0  0  0  0  0  0  0  0  0
   -2.5883    1.0038    0.0297 C   0  0  0  0  0  0  0  0  0  0  0  0
   -2.1022    2.1276    0.0666 O   0  0  0  0  0  0  0  0  0  0  0  0
   -4.0511    0.6361    0.0245 C   0  0  0  0  0  0  0  0  0  0  0  0
   -5.1979    1.4248    0.0582 C   0  0  0  0  0  0  0  0  0  0  0  0
   -5.1684    2.7569    0.1048 F   0  0  0  0  0  0  0  0  0  0  0  0
   -6.4541    0.7754    0.0420 C   0  0  0  0  0  0  0  0  0  0  0  0
   -7.5789    1.4937    0.0732 F   0  0  0  0  0  0  0  0  0  0  0  0
   -6.5363   -0.6282   -0.0069 C   0  0  0  0  0  0  0  0  0  0  0  0
   -7.7374   -1.2105   -0.0209 F   0  0  0  0  0  0  0  0  0  0  0  0
   -5.3645   -1.4197   -0.0410 C   0  0  0  0  0  0  0  0  0  0  0  0
   -5.4917   -2.7458   -0.0869 F   0  0  0  0  0  0  0  0  0  0  0  0
   -4.1333   -0.7703   -0.0247 C   0  0  0  0  0  0  0  0  0  0  0  0
   -2.7218   -1.3088   -0.0507 C   0  0  0  0  0  0  0  0  0  0  0  0
   -2.3731   -2.4793   -0.0933 O   0  0  0  0  0  0  0  0  0  0  0  0
  1  2  1  0  0  0  0
  2  3  2  0  0  0  0
  4  2  1  0  0  0  0
  4  5  1  0  0  0  0
  5  6  1  0  0  0  0
  7  5  2  0  0  0  0
  7  8  1  0  0  0  0
  9  7  1  0  0  0  0
 10  9  1  0  0  0  0
 11 13  1  0  0  0  0
 11  9  2  0  0  0  0
 12 11  1  0  0  0  0
 13  4  2  0  0  0  0
 14 13  1  0  0  0  0
 14  1  1  0  0  0  0
 15 14  2  0  0  0  0
M  END
