4
q = 0.0, confidence = 1.0

 29 31  0  0  0  0  0  0  0  0999 V2000
    2.8153    1.1141   -2.4760 O   0  0  0  0  0  0  0  0  0  0  0  0
    0.6726    0.7891   -0.7373 N   0  0  0  0  0  0  0  0  0  0  0  0
   -0.2893   -0.1472   -0.6326 N   0  0  0  0  0  2  0  0  0  0  0  0
   -1.4356    0.3936   -0.9296 N   0  0  0  0  0  2  0  0  0  0  0  0
    4.4465    0.1234   -1.0326 C   0  0  0  0  0  0  0  0  0  0  0  0
    4.7582   -0.4092    0.2401 C   0  0  0  0  0  0  0  0  0  0  0  0
    3.9952   -0.4865    1.0302 H   0  0  0  0  0  0  0  0  0  0  0  0
    6.0634   -0.8402    0.5154 C   0  0  0  0  0  0  0  0  0  0  0  0
    6.3041   -1.2509    1.5073 H   0  0  0  0  0  0  0  0  0  0  0  0
    7.0603   -0.7481   -0.4696 C   0  0  0  0  0  0  0  0  0  0  0  0
    8.0829   -1.0904   -0.2486 H   0  0  0  0  0  0  0  0  0  0  0  0
    6.7552   -0.2189   -1.7364 C   0  0  0  0  0  0  0  0  0  0  0  0
    7.5376   -0.1473   -2.5068 H   0  0  0  0  0  0  0  0  0  0  0  0
    5.4561    0.2165   -2.0153 C   0  0  0  0  0  0  0  0  0  0  0  0
    5.1836    0.6369   -2.9948 H   0  0  0  0  0  0  0  0  0  0  0  0
    3.0779    0.6033   -1.3955 C   0  0  0  0  0  0  0  0  0  0  0  0
    2.0074    0.4416   -0.3146 C   0  0  0  0  0  0  0  0  0  0  0  0
    1.9589   -0.6101    0.0280 H   0  0  0  0  0  0  0  0  0  0  0  0
    2.2836    1.0503    0.5726 H   0  0  0  0  0  0  0  0  0  0  0  0
    0.1358    1.9974   -1.1171 C   0  0  0  0  0  0  0  0  0  0  0  0
    0.6683    3.2810   -1.3403 C   0  0  0  0  0  0  0  0  0  0  0  0
    1.7454    3.4813   -1.2779 H   0  0  0  0  0  0  0  0  0  0  0  0
   -0.2544    4.2772   -1.6609 C   0  0  0  0  0  0  0  0  0  0  0  0
    0.1083    5.2992   -1.8478 H   0  0  0  0  0  0  0  0  0  0  0  0
   -1.6519    4.0170   -1.7565 C   0  0  0  0  0  0  0  0  0  0  0  0
   -2.3300    4.8475   -2.0023 H   0  0  0  0  0  0  0  0  0  0  0  0
   -2.1791    2.7441   -1.5471 C   0  0  0  0  0  0  0  0  0  0  0  0
   -3.2549    2.5225   -1.5741 H   0  0  0  0  0  0  0  0  0  0  0  0
   -1.2545    1.7276   -1.2289 C   0  0  0  0  0  0  0  0  0  0  0  0
  1 16  2  0  0  0  0
  2  3  1  0  0  0  0
  2 17  1  0  0  0  0
  4  3  1  0  0  0  0
  5  6  1  0  0  0  0
  6  8  2  0  0  0  0
  6  7  1  0  0  0  0
  8  9  1  0  0  0  0
 10 11  1  0  0  0  0
 10  8  1  0  0  0  0
 12 10  2  0  0  0  0
 13 12  1  0  0  0  0
 14 12  1  0  0  0  0
 14  5  2  0  0  0  0
 15 14  1  0  0  0  0
 16  5  1  0  0  0  0
 16 17  1  0  0  0  0
 17 18  1  0  0  0  0
 17 19  1  0  0  0  0
 20  2  1  0  0  0  0
 21 22  1  0  0  0  0
 21 20  2  0  0  0  0
 23 21  1  0  0  0  0
 24 23  1  0  0  0  0
 25 23  2  0  0  0  0
 25 27  1  0  0  0  0
 26 25  1  0  0  0  0
 27 29  2  0  0  0  0
 28 27  1  0  0  0  0
 29 20  1  0  0  0  0
 29  4  1  0  0  0  0
M  END
