3
q = 0.0, confidence = 1.0

 50 50  0  0  0  0  0  0  0  0999 V2000
    0.3043   -0.1361    0.5309 O   0  0  0  0  0  0  0  0  0  0  0  0
    2.5550    0.1592   -0.4982 N   0  0  0  0  0  0  0  0  0  0  0  0
   -2.7657   -0.1857    0.7285 N   0  0  0  0  0  0  0  0  0  0  0  0
   -1.1727    1.7312    0.8103 C   0  0  0  0  0  0  0  0  0  0  0  0
    1.9086    1.1861   -1.3570 C   0  0  0  0  0  0  0  0  0  0  0  0
    2.6651    1.8857   -1.7811 H   0  0  0  0  0  0  0  0  0  0  0  0
    1.4281    0.6418   -2.1996 H   0  0  0  0  0  0  0  0  0  0  0  0
   -0.0083    1.1623    0.2543 C   0  0  0  0  0  0  0  0  0  0  0  0
    0.5126    3.2661   -0.8350 C   0  0  0  0  0  0  0  0  0  0  0  0
    1.1618    3.8530   -1.5061 H   0  0  0  0  0  0  0  0  0  0  0  0
    0.8181    1.9167   -0.6119 C   0  0  0  0  0  0  0  0  0  0  0  0
   -1.4555    3.0825    0.5478 C   0  0  0  0  0  0  0  0  0  0  0  0
   -2.3681    3.5241    0.9809 H   0  0  0  0  0  0  0  0  0  0  0  0
    3.2996   -0.8407   -1.3099 C   0  0  0  0  0  0  0  0  0  0  0  0
    3.7537   -0.3158   -2.1816 H   0  0  0  0  0  0  0  0  0  0  0  0
    4.1434   -1.2139   -0.6943 H   0  0  0  0  0  0  0  0  0  0  0  0
   -0.6152    3.8803   -0.2518 C   0  0  0  0  0  0  0  0  0  0  0  0
    3.3735    0.7674    0.5757 C   0  0  0  0  0  0  0  0  0  0  0  0
    4.3602    1.0853    0.1612 H   0  0  0  0  0  0  0  0  0  0  0  0
    2.8540    1.6926    0.9018 H   0  0  0  0  0  0  0  0  0  0  0  0
   -2.0988    0.8373    1.5894 C   0  0  0  0  0  0  0  0  0  0  0  0
   -1.5308    0.2738    2.3588 H   0  0  0  0  0  0  0  0  0  0  0  0
   -2.8771    1.4447    2.1084 H   0  0  0  0  0  0  0  0  0  0  0  0
   -0.9050    5.3434   -0.4780 C   0  0  0  0  0  0  0  0  0  0  0  0
   -0.6653    5.6517   -1.5155 H   0  0  0  0  0  0  0  0  0  0  0  0
   -0.2998    5.9855    0.1981 H   0  0  0  0  0  0  0  0  0  0  0  0
   -1.9698    5.5821   -0.2886 H   0  0  0  0  0  0  0  0  0  0  0  0
   -3.5549    0.4435   -0.3453 C   0  0  0  0  0  0  0  0  0  0  0  0
   -4.0281   -0.3465   -0.9577 H   0  0  0  0  0  0  0  0  0  0  0  0
   -2.8886    1.0251   -1.0078 H   0  0  0  0  0  0  0  0  0  0  0  0
   -4.3469    1.1073    0.0741 H   0  0  0  0  0  0  0  0  0  0  0  0
    3.5542   -0.1576    1.7791 C   0  0  0  0  0  0  0  0  0  0  0  0
    4.0283   -1.1098    1.4575 H   0  0  0  0  0  0  0  0  0  0  0  0
    2.5483   -0.4316    2.1624 H   0  0  0  0  0  0  0  0  0  0  0  0
   -3.6113   -1.0583    1.5627 C   0  0  0  0  0  0  0  0  0  0  0  0
   -4.3966   -0.4682    2.0899 H   0  0  0  0  0  0  0  0  0  0  0  0
   -2.9786   -1.5967    2.2929 H   0  0  0  0  0  0  0  0  0  0  0  0
   -4.0959   -1.8214    0.9253 H   0  0  0  0  0  0  0  0  0  0  0  0
    2.4419   -2.0234   -1.7624 C   0  0  0  0  0  0  0  0  0  0  0  0
    1.4992   -1.6565   -2.2248 H   0  0  0  0  0  0  0  0  0  0  0  0
    2.9957   -2.5458   -2.5715 H   0  0  0  0  0  0  0  0  0  0  0  0
    2.1174   -3.0074   -0.6383 C   0  0  0  0  0  0  0  0  0  0  0  0
    3.0411   -3.4495   -0.2080 H   0  0  0  0  0  0  0  0  0  0  0  0
    1.4788   -3.8357   -1.0008 H   0  0  0  0  0  0  0  0  0  0  0  0
    1.5505   -2.5418    0.1927 H   0  0  0  0  0  0  0  0  0  0  0  0
    4.3880    0.4884    2.8852 C   0  0  0  0  0  0  0  0  0  0  0  0
    5.4076    0.7456    2.5297 H   0  0  0  0  0  0  0  0  0  0  0  0
    4.4987   -0.1906    3.7533 H   0  0  0  0  0  0  0  0  0  0  0  0
    3.9185    1.4250    3.2515 H   0  0  0  0  0  0  0  0  0  0  0  0
    1.3479   -0.2550    0.1105 H   0  0  0  0  0  0  0  0  0  0  0  0
  2 18  1  0  0  0  0
  3 35  1  0  0  0  0
  3 21  1  0  0  0  0
  4 21  1  0  0  0  0
  5 11  1  0  0  0  0
  5  2  1  0  0  0  0
  6  5  1  0  0  0  0
  7  5  1  0  0  0  0
  8  1  1  0  0  0  0
  8  4  2  0  0  0  0
  9 11  2  0  0  0  0
  9 17  1  0  0  0  0
 10  9  1  0  0  0  0
 11  8  1  0  0  0  0
 12  4  1  0  0  0  0
 12 13  1  0  0  0  0
 14 16  1  0  0  0  0
 14  2  1  0  0  0  0
 15 14  1  0  0  0  0
 17 12  2  0  0  0  0
 18 20  1  0  0  0  0
 18 32  1  0  0  0  0
 19 18  1  0  0  0  0
 21 23  1  0  0  0  0
 21 22  1  0  0  0  0
 24 27  1  0  0  0  0
 24 17  1  0  0  0  0
 24 26  1  0  0  0  0
 25 24  1  0  0  0  0
 28 31  1  0  0  0  0
 28  3  1  0  0  0  0
 29 28  1  0  0  0  0
 30 28  1  0  0  0  0
 32 34  1  0  0  0  0
 32 46  1  0  0  0  0
 33 32  1  0  0  0  0
 35 36  1  0  0  0  0
 35 37  1  0  0  0  0
 38 35  1  0  0  0  0
 39 14  1  0  0  0  0
 39 42  1  0  0  0  0
 40 39  1  0  0  0  0
 41 39  1  0  0  0  0
 42 43  1  0  0  0  0
 42 45  1  0  0  0  0
 44 42  1  0  0  0  0
 46 49  1  0  0  0  0
 46 48  1  0  0  0  0
 47 46  1  0  0  0  0
 50  1  1  0  0  0  0
M  END
