1
q = 0.0, confidence = 0.998

 28 28  0  0  1  0  0  0  0  0999 V2000
    1.5680    1.2839   -0.1901 N   0  0  0  0  0  2  0  0  0  0  0  0
    2.2297    1.2797   -1.3613 N   0  0  0  0  0  0  0  0  0  0  0  0
    1.9155    2.0027   -2.0421 H   0  0  0  0  0  0  0  0  0  0  0  0
    1.5095   -0.0205    1.9064 C   0  0  0  0  0  0  0  0  0  0  0  0
    1.0474    0.8932    2.3309 H   0  0  0  0  0  0  0  0  0  0  0  0
    2.3102   -0.3783    2.5822 H   0  0  0  0  0  0  0  0  0  0  0  0
    0.7305   -0.8127    1.8706 H   0  0  0  0  0  0  0  0  0  0  0  0
    2.0504    0.2657    0.5443 C   0  0  1  0  0  3  0  0  0  0  0  0
    3.0598   -0.4151   -0.2002 C   0  0  0  0  0  0  0  0  0  0  0  0
    3.1403    0.2772   -1.4290 C   0  0  0  0  0  0  0  0  0  0  0  0
    4.0142    0.0445   -2.6146 C   0  0  0  0  0  0  0  0  0  0  0  0
    3.4467    0.1208   -3.5637 H   0  0  0  0  0  0  0  0  0  0  0  0
    4.4612   -0.9658   -2.5549 H   0  0  0  0  0  0  0  0  0  0  0  0
    4.8441    0.7811   -2.6657 H   0  0  0  0  0  0  0  0  0  0  0  0
    1.8337   -3.1609    0.0178 C   0  0  0  0  0  0  0  0  0  0  0  0
    1.7690   -4.0877   -0.5859 H   0  0  0  0  0  0  0  0  0  0  0  0
    1.3496   -2.3235   -0.5149 H   0  0  0  0  0  0  0  0  0  0  0  0
    1.2774   -3.3549    0.9589 H   0  0  0  0  0  0  0  0  0  0  0  0
    3.2706   -2.8701    0.3333 C   0  0  0  0  0  0  0  0  0  0  0  0
    3.8495   -1.5891    0.2237 C   0  0  0  0  0  0  0  0  0  0  0  0
    5.2482   -1.4681    0.5861 C   0  0  0  0  0  0  0  0  0  0  0  0
    5.9376   -0.1272    0.5284 C   0  0  0  0  0  0  0  0  0  0  0  0
    5.3063    0.6715    0.9643 H   0  0  0  0  0  0  0  0  0  0  0  0
    6.1306    0.1586   -0.5268 H   0  0  0  0  0  0  0  0  0  0  0  0
    6.9056   -0.1918    1.0569 H   0  0  0  0  0  0  0  0  0  0  0  0
    5.9185   -2.4777    0.9590 O   0  0  0  0  0  0  0  0  0  0  0  0
    3.9734   -3.8983    0.7347 O   0  0  0  0  0  0  0  0  0  0  0  0
    4.9563   -3.4794    0.9077 H   0  0  0  0  0  0  0  0  0  0  0  0
  1  8  1  0  0  0  0
  2  1  1  0  0  0  0
  3  2  1  0  0  0  0
  4  5  1  0  0  0  0
  4  6  1  0  0  0  0
  7  4  1  0  0  0  0
  8  4  1  6  0  0  0
  9 20  1  0  0  0  0
  9  8  1  0  0  0  0
 10  2  1  0  0  0  0
 10  9  2  0  0  0  0
 11 13  1  0  0  0  0
 11 10  1  0  0  0  0
 12 11  1  0  0  0  0
 14 11  1  0  0  0  0
 15 19  1  0  0  0  0
 15 18  1  0  0  0  0
 16 15  1  0  0  0  0
 17 15  1  0  0  0  0
 19 27  1  0  0  0  0
 20 19  2  0  0  0  0
 20 21  1  0  0  0  0
 21 26  2  0  0  0  0
 22 21  1  0  0  0  0
 22 23  1  0  0  0  0
 22 25  1  0  0  0  0
 24 22  1  0  0  0  0
 27 28  1  0  0  0  0
M  END
