23
q = 0.0, confidence = 0.98

 36 38  0  0  0  0  0  0  0  0999 V2000
    3.4115    0.6374   -1.4523 N   0  0  0  0  0  0  0  0  0  0  0  0
    7.3831   -0.8175   -0.8990 C   0  0  0  0  0  0  0  0  0  0  0  0
    9.7785   -1.1061    0.0395 C   0  0  0  0  0  0  0  0  0  0  0  0
    8.7216   -1.3805   -0.8035 C   0  0  0  0  0  0  0  0  0  0  0  0
    8.9199   -2.1584   -1.5572 H   0  0  0  0  0  0  0  0  0  0  0  0
    4.7371    0.1483   -1.2701 C   0  0  0  0  0  0  0  0  0  0  0  0
   11.0711   -1.8238   -0.0034 C   0  0  0  0  0  0  0  0  0  0  0  0
    5.2506   -0.8372   -2.1323 C   0  0  0  0  0  0  0  0  0  0  0  0
    4.6251   -1.2559   -2.9334 H   0  0  0  0  0  0  0  0  0  0  0  0
    9.6645    0.7721    1.8485 N   0  0  0  0  0  0  0  0  0  0  0  0
   11.2442   -3.0312   -0.7249 C   0  0  0  0  0  0  0  0  0  0  0  0
   10.3928   -3.4885   -1.2496 H   0  0  0  0  0  0  0  0  0  0  0  0
    5.5338    0.6511   -0.2219 C   0  0  0  0  0  0  0  0  0  0  0  0
    5.1443    1.4313    0.4522 H   0  0  0  0  0  0  0  0  0  0  0  0
    6.5524   -1.3024   -1.9457 C   0  0  0  0  0  0  0  0  0  0  0  0
    6.9456   -2.0767   -2.6224 H   0  0  0  0  0  0  0  0  0  0  0  0
   13.6023   -3.1701   -0.0839 C   0  0  0  0  0  0  0  0  0  0  0  0
   14.8239   -3.7964   -0.1583 N   0  0  0  0  0  0  0  0  0  0  0  0
   15.5481   -3.5372    0.5094 H   0  0  0  0  0  0  0  0  0  0  0  0
   14.8638   -4.7550   -0.5001 H   0  0  0  0  0  0  0  0  0  0  0  0
    2.7199    0.7634   -2.6544 C   0  0  0  0  0  0  0  0  0  0  0  0
    3.1714    0.4923   -3.6123 H   0  0  0  0  0  0  0  0  0  0  0  0
    1.4403    1.5256   -0.9727 N   0  0  0  0  0  2  0  0  0  0  0  0
    9.6895   -0.0696    1.0283 C   0  0  0  0  0  0  0  0  0  0  0  0
    1.4990    1.3214   -2.3374 C   0  0  0  0  0  0  0  0  0  0  0  0
    0.6723    1.6149   -2.9937 H   0  0  0  0  0  0  0  0  0  0  0  0
    6.8309    0.1700   -0.0379 C   0  0  0  0  0  0  0  0  0  0  0  0
    7.4236    0.5842    0.7871 H   0  0  0  0  0  0  0  0  0  0  0  0
   12.2004   -1.3237    0.6917 C   0  0  0  0  0  0  0  0  0  0  0  0
   12.1048   -0.3961    1.2758 H   0  0  0  0  0  0  0  0  0  0  0  0
    2.5968    1.1075   -0.4611 C   0  0  0  0  0  3  0  0  0  0  0  0
    2.8922    1.1474    0.5956 H   0  0  0  0  0  0  0  0  0  0  0  0
   12.4708   -3.6879   -0.7690 C   0  0  0  0  0  0  0  0  0  0  0  0
   12.5649   -4.6289   -1.3336 H   0  0  0  0  0  0  0  0  0  0  0  0
   13.4335   -1.9710    0.6532 C   0  0  0  0  0  0  0  0  0  0  0  0
   14.2888   -1.5462    1.2014 H   0  0  0  0  0  0  0  0  0  0  0  0
  1  6  1  0  0  0  0
  1 31  1  0  0  0  0
  2  4  1  0  0  0  0
  2 27  1  0  0  0  0
  3 24  1  0  0  0  0
  4  3  2  0  0  0  0
  5  4  1  0  0  0  0
  6 13  1  0  0  0  0
  7  3  1  0  0  0  0
  7 29  1  0  0  0  0
  8 15  1  0  0  0  0
  8  6  2  0  0  0  0
  9  8  1  0  0  0  0
 11  7  2  0  0  0  0
 12 11  1  0  0  0  0
 13 27  2  0  0  0  0
 13 14  1  0  0  0  0
 15  2  2  0  0  0  0
 16 15  1  0  0  0  0
 17 35  1  0  0  0  0
 18 17  1  0  0  0  0
 18 19  1  0  0  0  0
 20 18  1  0  0  0  0
 21 25  2  0  0  0  0
 21  1  1  0  0  0  0
 22 21  1  0  0  0  0
 23 31  1  0  0  0  0
 24 10  3  0  0  0  0
 25 23  1  0  0  0  0
 26 25  1  0  0  0  0
 27 28  1  0  0  0  0
 29 30  1  0  0  0  0
 31 32  1  0  0  0  0
 33 11  1  0  0  0  0
 33 17  2  0  0  0  0
 34 33  1  0  0  0  0
 35 29  2  0  0  0  0
 35 36  1  0  0  0  0
M  END
