1
q = 0.0, confidence = 0.988

 15 15  0  0  1  0  0  0  0  0999 V2000
   -1.5504    0.2560   -0.3906 N   0  0  0  0  0  2  0  0  0  0  0  0
   -2.1692   -0.6703    1.6899 N   0  0  0  0  0  0  0  0  0  0  0  0
   -3.7582   -2.5371    0.4808 N   0  0  0  0  0  0  0  0  0  0  0  0
   -2.2312   -0.6661    0.3205 C   0  0  1  0  0  3  0  0  0  0  0  0
   -3.0937   -1.6154   -0.3298 C   0  0  0  0  0  0  0  0  0  0  0  0
   -3.1785   -1.5761   -1.7236 C   0  0  0  0  0  0  0  0  0  0  0  0
   -2.4648   -0.5965   -2.4436 C   0  0  0  0  0  0  0  0  0  0  0  0
   -1.6803    0.3113   -1.7430 C   0  0  0  0  0  0  0  0  0  0  0  0
   -3.8337   -2.2902   -2.2478 H   0  0  0  0  0  0  0  0  0  0  0  0
   -2.5376   -0.5345   -3.5380 H   0  0  0  0  0  0  0  0  0  0  0  0
   -1.1222    1.1281   -2.2299 H   0  0  0  0  0  0  0  0  0  0  0  0
   -1.5304    0.0179    2.1305 H   0  0  0  0  0  0  0  0  0  0  0  0
   -2.1817   -1.5964    2.1243 H   0  0  0  0  0  0  0  0  0  0  0  0
   -4.1426   -2.1109    1.3328 H   0  0  0  0  0  0  0  0  0  0  0  0
   -4.4716   -3.0853   -0.0053 H   0  0  0  0  0  0  0  0  0  0  0  0
  1  4  1  0  0  0  0
  2 13  1  0  0  0  0
  2 12  1  0  0  0  0
  3 14  1  0  0  0  0
  4  2  1  1  0  0  0
  5  4  1  0  0  0  0
  5  3  1  0  0  0  0
  6  5  2  0  0  0  0
  7  8  2  0  0  0  0
  7  6  1  0  0  0  0
  8  1  1  0  0  0  0
  9  6  1  0  0  0  0
 10  7  1  0  0  0  0
 11  8  1  0  0  0  0
 15  3  1  0  0  0  0
M  END
