1
q = 0.0, confidence = 0.994

 22 22  0  0  1  0  0  0  0  0999 V2000
    1.9950    0.4286   -0.5015 N   0  0  0  0  0  2  0  0  0  0  0  0
    2.8057    1.1271    0.3618 N   0  0  0  0  0  0  0  0  0  0  0  0
    3.8931   -0.6252   -0.4148 N   0  0  0  0  0  0  0  0  0  0  0  0
    4.9307   -1.5326   -0.5985 N   0  0  0  0  0  0  0  0  0  0  0  0
    5.2232   -1.5301   -1.5847 H   0  0  0  0  0  0  0  0  0  0  0  0
    4.6048   -2.4780   -0.3589 H   0  0  0  0  0  0  0  0  0  0  0  0
    3.9561    0.4872    0.4128 C   0  0  0  0  0  0  0  0  0  0  0  0
    5.1580    0.8680    1.2105 C   0  0  0  0  0  0  0  0  0  0  0  0
    5.4732   -0.0150    1.8076 H   0  0  0  0  0  0  0  0  0  0  0  0
    6.0014    1.0496    0.5082 H   0  0  0  0  0  0  0  0  0  0  0  0
    4.9130    2.0865    2.0992 C   0  0  0  0  0  0  0  0  0  0  0  0
    5.8284    2.3407    2.6668 H   0  0  0  0  0  0  0  0  0  0  0  0
    4.0937    1.8960    2.8191 H   0  0  0  0  0  0  0  0  0  0  0  0
    4.6157    2.9658    1.4962 H   0  0  0  0  0  0  0  0  0  0  0  0
    2.6385   -0.6306   -0.9807 C   0  0  1  0  0  3  0  0  0  0  0  0
    2.1159   -1.6877   -1.8900 C   0  0  0  0  0  0  0  0  0  0  0  0
    2.9293   -2.0102   -2.5749 H   0  0  0  0  0  0  0  0  0  0  0  0
    1.3182   -1.2254   -2.5044 H   0  0  0  0  0  0  0  0  0  0  0  0
    1.5330   -2.8881   -1.1231 C   0  0  0  0  0  0  0  0  0  0  0  0
    1.0418   -3.5901   -1.8240 H   0  0  0  0  0  0  0  0  0  0  0  0
    0.7806   -2.5337   -0.3916 H   0  0  0  0  0  0  0  0  0  0  0  0
    2.3142   -3.4472   -0.5657 H   0  0  0  0  0  0  0  0  0  0  0  0
  1  2  1  0  0  0  0
  2  7  2  0  0  0  0
  3  7  1  0  0  0  0
  4  3  1  0  0  0  0
  4  6  1  0  0  0  0
  5  4  1  0  0  0  0
  7  8  1  0  0  0  0
  8  9  1  0  0  0  0
  8 11  1  0  0  0  0
 10  8  1  0  0  0  0
 11 12  1  0  0  0  0
 11 13  1  0  0  0  0
 14 11  1  0  0  0  0
 15 16  1  1  0  0  0
 15  1  1  0  0  0  0
 15  3  1  0  0  0  0
 16 19  1  0  0  0  0
 17 16  1  0  0  0  0
 18 16  1  0  0  0  0
 19 22  1  0  0  0  0
 19 21  1  0  0  0  0
 20 19  1  0  0  0  0
M  END
