2
q = 0.0, confidence = 0.998

 37 38  0  0  0  0  0  0  0  0999 V2000
    0.3505   -0.7215   -0.6209 Se  0  0  0  0  0  0  0  0  0  0  0  0
   -1.8970    1.5012    0.7417 N   0  0  0  0  0  0  0  0  0  0  0  0
    1.0649    1.0826   -0.6513 C   0  0  0  0  0  0  0  0  0  0  0  0
    2.1096    1.3241   -1.5600 C   0  0  0  0  0  0  0  0  0  0  0  0
    2.5196    0.4885   -2.1472 H   0  0  0  0  0  0  0  0  0  0  0  0
    2.6318    2.6174   -1.7099 C   0  0  0  0  0  0  0  0  0  0  0  0
    3.4563    2.7974   -2.4157 H   0  0  0  0  0  0  0  0  0  0  0  0
    2.0941    3.6723   -0.9597 C   0  0  0  0  0  0  0  0  0  0  0  0
    2.4878    4.6931   -1.0754 H   0  0  0  0  0  0  0  0  0  0  0  0
    1.0507    3.4258   -0.0551 C   0  0  0  0  0  0  0  0  0  0  0  0
    0.6366    4.2556    0.5394 H   0  0  0  0  0  0  0  0  0  0  0  0
    0.5201    2.1323    0.1236 C   0  0  0  0  0  0  0  0  0  0  0  0
   -0.5312    1.9159    1.1844 C   0  0  0  0  0  0  0  0  0  0  0  0
   -0.6397    2.8679    1.7523 H   0  0  0  0  0  0  0  0  0  0  0  0
   -0.1947    1.1486    1.9110 H   0  0  0  0  0  0  0  0  0  0  0  0
   -2.4378    2.4158   -0.2889 C   0  0  0  0  0  0  0  0  0  0  0  0
   -2.4875    3.4590    0.1006 H   0  0  0  0  0  0  0  0  0  0  0  0
   -3.4486    2.0568   -0.5583 H   0  0  0  0  0  0  0  0  0  0  0  0
   -1.7900    2.3904   -1.1843 H   0  0  0  0  0  0  0  0  0  0  0  0
   -2.7632    1.5323    1.9498 C   0  0  0  0  0  0  0  0  0  0  0  0
   -2.7998    2.5674    2.3594 H   0  0  0  0  0  0  0  0  0  0  0  0
   -2.3453    0.8495    2.7133 H   0  0  0  0  0  0  0  0  0  0  0  0
   -3.7708    1.1743    1.6714 H   0  0  0  0  0  0  0  0  0  0  0  0
    1.2785   -1.3845    1.0492 C   0  0  0  0  0  0  0  0  0  0  0  0
    0.8758   -0.8074    1.9011 H   0  0  0  0  0  0  0  0  0  0  0  0
    0.9000   -2.4235    1.0976 H   0  0  0  0  0  0  0  0  0  0  0  0
    2.7574   -1.2682    0.8935 C   0  0  0  0  0  0  0  0  0  0  0  0
    3.4880   -2.2522    0.1920 C   0  0  0  0  0  0  0  0  0  0  0  0
    2.9624   -3.1362   -0.2023 H   0  0  0  0  0  0  0  0  0  0  0  0
    4.8680   -2.1099   -0.0047 C   0  0  0  0  0  0  0  0  0  0  0  0
    5.4254   -2.8884   -0.5473 H   0  0  0  0  0  0  0  0  0  0  0  0
    5.5395   -0.9796    0.4912 C   0  0  0  0  0  0  0  0  0  0  0  0
    6.6235   -0.8696    0.3370 H   0  0  0  0  0  0  0  0  0  0  0  0
    4.8225    0.0073    1.1858 C   0  0  0  0  0  0  0  0  0  0  0  0
    5.3417    0.8953    1.5770 H   0  0  0  0  0  0  0  0  0  0  0  0
    3.4417   -0.1347    1.3822 C   0  0  0  0  0  0  0  0  0  0  0  0
    2.8804    0.6448    1.9209 H   0  0  0  0  0  0  0  0  0  0  0  0
  1 24  1  0  0  0  0
  2 13  1  0  0  0  0
  2 20  1  0  0  0  0
  3  1  1  0  0  0  0
  3 12  1  0  0  0  0
  4  3  2  0  0  0  0
  5  4  1  0  0  0  0
  6  4  1  0  0  0  0
  6  8  2  0  0  0  0
  7  6  1  0  0  0  0
  8 10  1  0  0  0  0
  9  8  1  0  0  0  0
 10 12  2  0  0  0  0
 10 11  1  0  0  0  0
 12 13  1  0  0  0  0
 13 14  1  0  0  0  0
 13 15  1  0  0  0  0
 16 17  1  0  0  0  0
 16  2  1  0  0  0  0
 18 16  1  0  0  0  0
 19 16  1  0  0  0  0
 20 21  1  0  0  0  0
 20 22  1  0  0  0  0
 23 20  1  0  0  0  0
 24 26  1  0  0  0  0
 24 25  1  0  0  0  0
 27 24  1  0  0  0  0
 27 36  1  0  0  0  0
 28 27  2  0  0  0  0
 29 28  1  0  0  0  0
 30 28  1  0  0  0  0
 30 32  2  0  0  0  0
 31 30  1  0  0  0  0
 32 34  1  0  0  0  0
 33 32  1  0  0  0  0
 34 36  2  0  0  0  0
 34 35  1  0  0  0  0
 36 37  1  0  0  0  0
M  END
