2
q = 0.0, confidence = 0.994

 31 32  0  0  1  0  0  0  0  0999 V2000
    7.8348   -1.8927   -0.8843 Cl  0  0  0  0  0  0  0  0  0  0  0  0
    0.8144    1.8414   -0.1088 N   0  0  0  0  0  2  0  0  0  0  0  0
    2.0745    2.0983   -0.5450 N   0  0  0  0  0  0  0  0  0  0  0  0
   -1.1179    3.0784    0.8334 C   0  0  0  0  0  0  0  0  0  0  0  0
   -1.8363    2.5868    0.1460 H   0  0  0  0  0  0  0  0  0  0  0  0
   -1.4269    4.1296    0.9800 H   0  0  0  0  0  0  0  0  0  0  0  0
   -1.1693    2.5411    1.8026 H   0  0  0  0  0  0  0  0  0  0  0  0
    0.2704    3.0090    0.2897 C   0  0  1  0  0  3  0  0  0  0  0  0
    1.2244    4.0369    0.1057 C   0  0  0  0  0  0  0  0  0  0  0  0
    1.0941    5.1008    0.3273 H   0  0  0  0  0  0  0  0  0  0  0  0
    2.3663    3.4278   -0.4206 C   0  0  0  0  0  0  0  0  0  0  0  0
    3.6904    3.9880   -0.8176 C   0  0  0  0  0  0  0  0  0  0  0  0
    4.5222    3.4830   -0.2842 H   0  0  0  0  0  0  0  0  0  0  0  0
    3.7294    5.0668   -0.5810 H   0  0  0  0  0  0  0  0  0  0  0  0
    3.8773    3.8723   -1.9063 H   0  0  0  0  0  0  0  0  0  0  0  0
    2.9540    1.0440   -1.0287 C   0  0  0  0  0  0  0  0  0  0  0  0
    3.4565    1.4107   -1.9453 H   0  0  0  0  0  0  0  0  0  0  0  0
    2.2863    0.2151   -1.3474 H   0  0  0  0  0  0  0  0  0  0  0  0
    3.9767    0.5823   -0.0098 C   0  0  0  0  0  0  0  0  0  0  0  0
    5.3081    0.3715   -0.4024 C   0  0  0  0  0  0  0  0  0  0  0  0
    5.6064    0.5658   -1.4461 H   0  0  0  0  0  0  0  0  0  0  0  0
    6.2722   -0.1010    0.5106 C   0  0  0  0  0  0  0  0  0  0  0  0
    5.8815   -0.3621    1.8368 C   0  0  0  0  0  0  0  0  0  0  0  0
    6.6253   -0.7361    2.5579 H   0  0  0  0  0  0  0  0  0  0  0  0
    4.5549   -0.1438    2.2391 C   0  0  0  0  0  0  0  0  0  0  0  0
    4.2525   -0.3468    3.2775 H   0  0  0  0  0  0  0  0  0  0  0  0
    3.6015    0.3258    1.3258 C   0  0  0  0  0  0  0  0  0  0  0  0
    2.5607    0.4808    1.6550 H   0  0  0  0  0  0  0  0  0  0  0  0
    7.6840   -0.3423    0.0623 C   0  0  0  0  0  0  0  0  0  0  0  0
    8.3754   -0.4300    0.9208 H   0  0  0  0  0  0  0  0  0  0  0  0
    8.0461    0.4582   -0.6106 H   0  0  0  0  0  0  0  0  0  0  0  0
  1 29  1  0  0  0  0
  2  8  1  0  0  0  0
  3 11  1  0  0  0  0
  3  2  1  0  0  0  0
  4  6  1  0  0  0  0
  4  7  1  0  0  0  0
  5  4  1  0  0  0  0
  8  4  1  1  0  0  0
  9  8  1  0  0  0  0
  9 10  1  0  0  0  0
 11  9  2  0  0  0  0
 12 14  1  0  0  0  0
 12 11  1  0  0  0  0
 12 13  1  0  0  0  0
 15 12  1  0  0  0  0
 16  3  1  0  0  0  0
 16 19  1  0  0  0  0
 17 16  1  0  0  0  0
 18 16  1  0  0  0  0
 19 27  1  0  0  0  0
 20 19  2  0  0  0  0
 20 22  1  0  0  0  0
 21 20  1  0  0  0  0
 22 23  2  0  0  0  0
 23 25  1  0  0  0  0
 23 24  1  0  0  0  0
 25 26  1  0  0  0  0
 27 28  1  0  0  0  0
 27 25  2  0  0  0  0
 29 22  1  0  0  0  0
 29 30  1  0  0  0  0
 31 29  1  0  0  0  0
M  END
