1
q = -1.0, confidence = 0.0

 13 14  0  0  0  0  0  0  0  0999 V2000
   -1.9252   -0.7326   -0.0512 N   0  0  0  0  0  0  0  0  0  0  0  0
   -2.4700   -1.9912    0.0003 C   0  0  0  0  0  0  0  0  0  0  0  0
   -3.7929   -2.0267    0.0139 N   0  0  0  0  0  2  0  0  0  0  0  0
   -4.1305   -0.7058   -0.0192 N   0  0  0  0  0  0  0  0  0  0  0  0
   -3.0049    0.0840   -0.0527 C   0  0  0  0  0  0  0  0  0  0  0  0
   -3.0017    1.4323   -0.0460 N   0  0  0  0  0  0  0  0  0  0  0  0
   -4.2525    1.9928   -0.0271 C   0  0  0  0  0  0  0  0  0  0  0  0
   -4.2741    3.0949   -0.0246 H   0  0  0  0  0  0  0  0  0  0  0  0
   -5.4351    1.2796   -0.0106 C   0  0  0  0  0  0  0  0  0  0  0  0
   -6.4022    1.7988    0.0047 H   0  0  0  0  0  0  0  0  0  0  0  0
   -5.4859   -0.1756   -0.0035 C   0  0  0  0  0  0  0  0  0  0  0  0
   -6.4548   -0.9119    0.0165 O   0  0  0  0  0  0  0  0  0  0  0  0
   -1.8538   -2.8973    0.0539 H   0  0  0  0  0  0  0  0  0  0  0  0
  1  2  2  0  0  0  0
  2  3  1  0  0  0  0
  2 13  1  0  0  0  0
  4 11  1  0  0  0  0
  4  3  1  0  0  0  0
  5  1  1  0  0  0  0
  5  6  2  0  0  0  0
  5  4  1  0  0  0  0
  6  7  1  0  0  0  0
  7  8  1  0  0  0  0
  7  9  2  0  0  0  0
  9 11  1  0  0  0  0
  9 10  1  0  0  0  0
 11 12  2  0  0  0  0
M  END
