1
q = 0.0, confidence = 0.974

 33 35  0  0  1  0  0  0  0  0999 V2000
    2.1065   -2.4818   -0.1362 N   0  0  0  0  0  2  0  0  0  0  0  0
    4.2197   -1.9934   -0.6778 N   0  0  0  0  0  0  0  0  0  0  0  0
    2.6098   -0.3107   -1.1671 N   0  0  0  0  0  2  0  0  0  0  0  0
    1.3587   -0.0456   -1.2121 N   0  0  0  0  0  2  0  0  0  0  0  0
    2.9051   -3.5299    0.2297 C   0  0  0  0  0  0  0  0  0  0  0  0
    2.5063   -4.4311    0.7078 H   0  0  0  0  0  0  0  0  0  0  0  0
    4.2271   -3.2378   -0.0995 C   0  0  0  0  0  0  0  0  0  0  0  0
    5.1488   -3.8144    0.0295 H   0  0  0  0  0  0  0  0  0  0  0  0
    2.9159   -1.5537   -0.6897 C   0  0  2  0  0  3  0  0  0  0  0  0
    5.3828   -1.2132   -1.1166 C   0  0  0  0  0  0  0  0  0  0  0  0
    6.1442   -1.9356   -1.4702 H   0  0  0  0  0  0  0  0  0  0  0  0
    5.0571   -0.6111   -1.9854 H   0  0  0  0  0  0  0  0  0  0  0  0
    5.9294   -0.3168   -0.0083 C   0  0  0  0  0  0  0  0  0  0  0  0
    5.1645    0.4185    0.3114 H   0  0  0  0  0  0  0  0  0  0  0  0
    6.8118    0.2409   -0.3784 H   0  0  0  0  0  0  0  0  0  0  0  0
    6.2437   -0.9083    0.8745 H   0  0  0  0  0  0  0  0  0  0  0  0
    1.0136    1.2756   -1.4900 C   0  0  0  0  0  0  0  0  0  0  0  0
    1.9357    2.3302   -1.3759 C   0  0  0  0  0  0  0  0  0  0  0  0
    2.9741    2.0841   -1.1165 H   0  0  0  0  0  0  0  0  0  0  0  0
    1.5239    3.6656   -1.5298 C   0  0  0  0  0  0  0  0  0  0  0  0
    2.2581    4.4774   -1.4208 H   0  0  0  0  0  0  0  0  0  0  0  0
    0.1865    3.9623   -1.7813 C   0  0  0  0  0  0  0  0  0  0  0  0
   -0.1417    5.0087   -1.8764 H   0  0  0  0  0  0  0  0  0  0  0  0
   -0.7829    2.9280   -1.9161 C   0  0  0  0  0  0  0  0  0  0  0  0
   -0.3719    1.5508   -1.7955 C   0  0  0  0  0  0  0  0  0  0  0  0
   -1.3419    0.5304   -1.9825 C   0  0  0  0  0  0  0  0  0  0  0  0
   -1.0243   -0.5205   -1.9325 H   0  0  0  0  0  0  0  0  0  0  0  0
   -2.6709    0.8496   -2.2305 C   0  0  0  0  0  0  0  0  0  0  0  0
   -3.4072    0.0438   -2.3726 H   0  0  0  0  0  0  0  0  0  0  0  0
   -3.0862    2.2042   -2.3115 C   0  0  0  0  0  0  0  0  0  0  0  0
   -4.1416    2.4442   -2.5095 H   0  0  0  0  0  0  0  0  0  0  0  0
   -2.1553    3.2227   -2.1663 C   0  0  0  0  0  0  0  0  0  0  0  0
   -2.4618    4.2766   -2.2503 H   0  0  0  0  0  0  0  0  0  0  0  0
  1  5  1  0  0  0  0
  2  7  1  0  0  0  0
  4  3  1  0  0  0  0
  5  6  1  0  0  0  0
  7  8  1  0  0  0  0
  7  5  2  0  0  0  0
  9  3  1  1  0  0  0
  9  2  1  0  0  0  0
  9  1  1  0  0  0  0
 10  2  1  0  0  0  0
 10 13  1  0  0  0  0
 11 10  1  0  0  0  0
 12 10  1  0  0  0  0
 13 14  1  0  0  0  0
 13 16  1  0  0  0  0
 15 13  1  0  0  0  0
 17 18  1  0  0  0  0
 17  4  1  0  0  0  0
 18 19  1  0  0  0  0
 20 21  1  0  0  0  0
 20 18  2  0  0  0  0
 22 20  1  0  0  0  0
 23 22  1  0  0  0  0
 24 25  1  0  0  0  0
 24 22  2  0  0  0  0
 25 17  2  0  0  0  0
 26 27  1  0  0  0  0
 26 25  1  0  0  0  0
 28 26  2  0  0  0  0
 29 28  1  0  0  0  0
 30 28  1  0  0  0  0
 30 32  2  0  0  0  0
 31 30  1  0  0  0  0
 32 24  1  0  0  0  0
 33 32  1  0  0  0  0
M  END
