3
q = 0.0, confidence = 0.978

 43 45  0  0  0  0  0  0  0  0999 V2000
    1.3242   -1.6969   -1.0995 O   0  0  0  0  0  0  0  0  0  0  0  0
   -5.6685   -2.1098    0.0223 O   0  0  0  0  0  0  0  0  0  0  0  0
    3.5849    0.1483    1.1659 N   0  0  0  0  0  2  0  0  0  0  0  0
    0.1561   -0.1347    0.1160 N   0  0  0  0  0  0  0  0  0  0  0  0
   -0.7934    0.0970    0.4226 H   0  0  0  0  0  0  0  0  0  0  0  0
   -2.1418   -1.5086   -0.2282 N   0  0  0  0  0  0  0  0  0  0  0  0
   -4.3424   -0.5420    1.0570 N   0  0  0  0  0  0  0  0  0  0  0  0
   -3.3948   -0.1564    1.0542 H   0  0  0  0  0  0  0  0  0  0  0  0
   -5.3397    2.5818    1.1770 N   0  0  0  0  0  0  0  0  0  0  0  0
    4.4704   -0.3795    2.0409 C   0  0  0  0  0  3  0  0  0  0  0  0
    5.5316   -0.2457    1.7582 H   0  0  0  0  0  0  0  0  0  0  0  0
    4.0667   -1.0555    3.1960 C   0  0  0  0  0  0  0  0  0  0  0  0
    4.8221   -1.4700    3.8784 H   0  0  0  0  0  0  0  0  0  0  0  0
    2.6942   -1.1971    3.4457 C   0  0  0  0  0  0  0  0  0  0  0  0
    2.3364   -1.7304    4.3396 H   0  0  0  0  0  0  0  0  0  0  0  0
    1.7831   -0.6438    2.5396 C   0  0  0  0  0  0  0  0  0  0  0  0
    0.6984   -0.7354    2.6970 H   0  0  0  0  0  0  0  0  0  0  0  0
    2.2593    0.0364    1.4050 C   0  0  0  0  0  0  0  0  0  0  0  0
    1.2969    0.7000    0.4348 C   0  0  0  0  0  0  0  0  0  0  0  0
    0.9201    1.6405    0.8853 H   0  0  0  0  0  0  0  0  0  0  0  0
    1.8418    1.0165   -0.4814 H   0  0  0  0  0  0  0  0  0  0  0  0
    0.2626   -1.2656   -0.6188 C   0  0  0  0  0  0  0  0  0  0  0  0
   -1.0379   -2.0045   -0.8181 C   0  0  0  0  0  0  0  0  0  0  0  0
   -1.0451   -3.1673   -1.6078 C   0  0  0  0  0  0  0  0  0  0  0  0
   -0.0997   -3.5088   -2.0516 H   0  0  0  0  0  0  0  0  0  0  0  0
   -2.2627   -3.8356   -1.7953 C   0  0  0  0  0  0  0  0  0  0  0  0
   -2.3104   -4.7478   -2.4088 H   0  0  0  0  0  0  0  0  0  0  0  0
   -3.4161   -3.3211   -1.1917 C   0  0  0  0  0  0  0  0  0  0  0  0
   -4.4082   -3.7825   -1.2959 H   0  0  0  0  0  0  0  0  0  0  0  0
   -3.3071   -2.1545   -0.4115 C   0  0  0  0  0  0  0  0  0  0  0  0
   -4.5628   -1.6040    0.2353 C   0  0  0  0  0  0  0  0  0  0  0  0
   -5.4300    0.1967    1.6764 C   0  0  0  0  0  0  0  0  0  0  0  0
   -5.1053    0.5667    2.6679 H   0  0  0  0  0  0  0  0  0  0  0  0
   -6.2691   -0.5153    1.7989 H   0  0  0  0  0  0  0  0  0  0  0  0
   -5.8576    1.3876    0.8356 C   0  0  0  0  0  0  0  0  0  0  0  0
   -6.7119    1.2106   -0.2728 C   0  0  0  0  0  0  0  0  0  0  0  0
   -7.0911    0.2056   -0.5122 H   0  0  0  0  0  0  0  0  0  0  0  0
   -7.0425    2.3291   -1.0479 C   0  0  0  0  0  0  0  0  0  0  0  0
   -7.7095    2.2291   -1.9180 H   0  0  0  0  0  0  0  0  0  0  0  0
   -6.5109    3.5781   -0.6921 C   0  0  0  0  0  0  0  0  0  0  0  0
   -6.7453    4.4849   -1.2694 H   0  0  0  0  0  0  0  0  0  0  0  0
   -5.6654    3.6469    0.4263 C   0  0  0  0  0  0  0  0  0  0  0  0
   -5.2281    4.6139    0.7336 H   0  0  0  0  0  0  0  0  0  0  0  0
  1 22  2  0  0  0  0
  2 31  2  0  0  0  0
  3 18  1  0  0  0  0
  3 10  1  0  0  0  0
  4  5  1  0  0  0  0
  4 19  1  0  0  0  0
  7 32  1  0  0  0  0
  8  7  1  0  0  0  0
 10 12  1  0  0  0  0
 11 10  1  0  0  0  0
 12 14  2  0  0  0  0
 12 13  1  0  0  0  0
 14 15  1  0  0  0  0
 16 17  1  0  0  0  0
 16 14  1  0  0  0  0
 18 16  2  0  0  0  0
 19 20  1  0  0  0  0
 19 18  1  0  0  0  0
 21 19  1  0  0  0  0
 22  4  1  0  0  0  0
 23 22  1  0  0  0  0
 23  6  2  0  0  0  0
 24 23  1  0  0  0  0
 25 24  1  0  0  0  0
 26 24  2  0  0  0  0
 26 28  1  0  0  0  0
 27 26  1  0  0  0  0
 28 30  2  0  0  0  0
 29 28  1  0  0  0  0
 30  6  1  0  0  0  0
 30 31  1  0  0  0  0
 31  7  1  0  0  0  0
 32 34  1  0  0  0  0
 32 33  1  0  0  0  0
 35  9  1  0  0  0  0
 35 32  1  0  0  0  0
 36 35  2  0  0  0  0
 37 36  1  0  0  0  0
 38 40  2  0  0  0  0
 38 36  1  0  0  0  0
 39 38  1  0  0  0  0
 40 42  1  0  0  0  0
 41 40  1  0  0  0  0
 42 43  1  0  0  0  0
 42  9  2  0  0  0  0
M  END
