1
q = -1.0

 29 30  0  0  0  0  0  0  0  0999 V2000
    2.0814   -0.1388   -0.1477 N   0  0  0  0  0  2  0  0  0  0  0  0
    2.9311   -1.3621   -0.9178 S   0  0  0  0  0  0  0  0  0  0  0  0
    2.7310    1.4038   -0.0326 S   0  0  0  0  0  0  0  0  0  0  0  0
    1.9163   -2.3990   -1.2289 O   0  0  0  0  0  0  0  0  0  0  0  0
    3.8262   -0.8445   -1.9810 O   0  0  0  0  0  0  0  0  0  0  0  0
    1.8510    2.1295    0.9174 O   0  0  0  0  0  0  0  0  0  0  0  0
    4.1939    1.3606    0.2118 O   0  0  0  0  0  0  0  0  0  0  0  0
    3.9828   -2.0443    0.3769 C   0  0  0  0  0  0  0  0  0  0  0  0
    5.2715   -1.5245    0.5723 C   0  0  0  0  0  0  0  0  0  0  0  0
    5.6207   -0.7005   -0.0636 H   0  0  0  0  0  0  0  0  0  0  0  0
    6.0728   -2.0510    1.5937 C   0  0  0  0  0  0  0  0  0  0  0  0
    7.0864   -1.6700    1.7847 H   0  0  0  0  0  0  0  0  0  0  0  0
    5.5656   -3.0838    2.3930 C   0  0  0  0  0  0  0  0  0  0  0  0
    4.2802   -3.6073    2.2023 C   0  0  0  0  0  0  0  0  0  0  0  0
    3.9242   -4.4184    2.8536 H   0  0  0  0  0  0  0  0  0  0  0  0
    3.4803   -3.0797    1.1798 C   0  0  0  0  0  0  0  0  0  0  0  0
    2.4685   -3.4651    0.9883 H   0  0  0  0  0  0  0  0  0  0  0  0
    6.3402   -3.5918    3.3754 F   0  0  0  0  0  0  0  0  0  0  0  0
    2.4678    2.1425   -1.6538 C   0  0  0  0  0  0  0  0  0  0  0  0
    1.1739    2.5507   -2.0191 C   0  0  0  0  0  0  0  0  0  0  0  0
    0.3190    2.4448   -1.3333 H   0  0  0  0  0  0  0  0  0  0  0  0
    0.9651    3.0905   -3.2948 C   0  0  0  0  0  0  0  0  0  0  0  0
   -0.0370    3.4099   -3.6142 H   0  0  0  0  0  0  0  0  0  0  0  0
    2.0536    3.2143   -4.1679 C   0  0  0  0  0  0  0  0  0  0  0  0
    3.3449    2.8091   -3.8068 C   0  0  0  0  0  0  0  0  0  0  0  0
    4.1668    2.9188   -4.5289 H   0  0  0  0  0  0  0  0  0  0  0  0
    3.5523    2.2607   -2.5342 C   0  0  0  0  0  0  0  0  0  0  0  0
    4.5422    1.9098   -2.2137 H   0  0  0  0  0  0  0  0  0  0  0  0
    1.8543    3.7390   -5.3962 F   0  0  0  0  0  0  0  0  0  0  0  0
  1  3  1  0  0  0  0
  2  1  1  0  0  0  0
  2  8  1  0  0  0  0
  3  7  2  0  0  0  0
  3  6  2  0  0  0  0
  4  2  2  0  0  0  0
  5  2  2  0  0  0  0
  8  9  2  0  0  0  0
  8 16  1  0  0  0  0
  9 11  1  0  0  0  0
 10  9  1  0  0  0  0
 11 12  1  0  0  0  0
 11 13  2  0  0  0  0
 13 18  1  0  0  0  0
 14 13  1  0  0  0  0
 14 15  1  0  0  0  0
 16 14  2  0  0  0  0
 17 16  1  0  0  0  0
 19  3  1  0  0  0  0
 20 19  1  0  0  0  0
 20 21  1  0  0  0  0
 22 20  2  0  0  0  0
 23 22  1  0  0  0  0
 24 25  2  0  0  0  0
 24 22  1  0  0  0  0
 25 27  1  0  0  0  0
 26 25  1  0  0  0  0
 27 28  1  0  0  0  0
 27 19  2  0  0  0  0
 29 24  1  0  0  0  0
M  END
