2
q = 0.0, confidence = 0.998

 45 48  0  0  0  0  0  0  0  0999 V2000
   -0.3062   -0.4643   -2.2280 O   0  0  0  0  0  1  0  0  0  0  0  0
   -0.1295   -0.0237   -0.0530 N   0  0  0  0  0  2  0  0  0  0  0  0
   -0.8181   -0.0521   -1.1689 N   0  0  0  0  0  0  0  0  0  0  0  0
   -0.8502    0.2194    1.1669 C   0  0  0  0  0  0  0  0  0  0  0  0
   -0.4802    1.3513    1.9169 C   0  0  0  0  0  0  0  0  0  0  0  0
   -1.0901    1.6302    3.1435 C   0  0  0  0  0  0  0  0  0  0  0  0
   -2.0795    0.7674    3.6373 C   0  0  0  0  0  0  0  0  0  0  0  0
   -2.4420   -0.3650    2.8997 C   0  0  0  0  0  0  0  0  0  0  0  0
   -1.8434   -0.6787    1.6582 C   0  0  0  0  0  0  0  0  0  0  0  0
   -2.2691   -1.9132    0.9488 C   0  0  0  0  0  0  0  0  0  0  0  0
   -3.6393   -2.2598    0.8982 C   0  0  0  0  0  0  0  0  0  0  0  0
   -4.0654   -3.4122    0.2247 C   0  0  0  0  0  0  0  0  0  0  0  0
   -3.1321   -4.2419   -0.4185 C   0  0  0  0  0  0  0  0  0  0  0  0
   -1.7667   -3.9185   -0.3632 C   0  0  0  0  0  0  0  0  0  0  0  0
   -1.3411   -2.7721    0.3211 C   0  0  0  0  0  0  0  0  0  0  0  0
   -2.1917    0.4474   -1.2684 C   0  0  0  0  0  0  0  0  0  0  0  0
   -3.1566   -0.4717   -1.7038 C   0  0  0  0  0  0  0  0  0  0  0  0
   -4.4836   -0.0549   -1.8466 C   0  0  0  0  0  0  0  0  0  0  0  0
   -4.8250    1.2794   -1.5717 C   0  0  0  0  0  0  0  0  0  0  0  0
   -3.8380    2.1952   -1.1865 C   0  0  0  0  0  0  0  0  0  0  0  0
   -2.4853    1.8143   -1.0391 C   0  0  0  0  0  0  0  0  0  0  0  0
   -1.4499    2.8239   -0.7099 C   0  0  0  0  0  0  0  0  0  0  0  0
   -0.1999    2.8282   -1.3694 C   0  0  0  0  0  0  0  0  0  0  0  0
    0.7873    3.7595   -1.0219 C   0  0  0  0  0  0  0  0  0  0  0  0
    0.5390    4.7133   -0.0219 C   0  0  0  0  0  0  0  0  0  0  0  0
   -0.7122    4.7409    0.6159 C   0  0  0  0  0  0  0  0  0  0  0  0
   -1.6982    3.8054    0.2755 C   0  0  0  0  0  0  0  0  0  0  0  0
    0.2819    2.0260    1.5100 H   0  0  0  0  0  0  0  0  0  0  0  0
   -0.7890    2.5247    3.7081 H   0  0  0  0  0  0  0  0  0  0  0  0
   -2.5587    0.9651    4.6076 H   0  0  0  0  0  0  0  0  0  0  0  0
   -3.1884   -1.0630    3.3064 H   0  0  0  0  0  0  0  0  0  0  0  0
   -4.3815   -1.5919    1.3603 H   0  0  0  0  0  0  0  0  0  0  0  0
   -5.1381   -3.6564    0.1890 H   0  0  0  0  0  0  0  0  0  0  0  0
   -3.4677   -5.1403   -0.9581 H   0  0  0  0  0  0  0  0  0  0  0  0
   -1.0193   -4.5600   -0.8539 H   0  0  0  0  0  0  0  0  0  0  0  0
   -0.2700   -2.5387    0.3755 H   0  0  0  0  0  0  0  0  0  0  0  0
   -2.8556   -1.5096   -1.9005 H   0  0  0  0  0  0  0  0  0  0  0  0
   -5.2491   -0.7761   -2.1676 H   0  0  0  0  0  0  0  0  0  0  0  0
   -5.8659    1.6176   -1.6844 H   0  0  0  0  0  0  0  0  0  0  0  0
   -4.1005    3.2524   -1.0340 H   0  0  0  0  0  0  0  0  0  0  0  0
   -0.0009    2.1052   -2.1729 H   0  0  0  0  0  0  0  0  0  0  0  0
    1.7581    3.7340   -1.5390 H   0  0  0  0  0  0  0  0  0  0  0  0
    1.3202    5.4353    0.2587 H   0  0  0  0  0  0  0  0  0  0  0  0
   -0.9159    5.4867    1.3991 H   0  0  0  0  0  0  0  0  0  0  0  0
   -2.6582    3.8004    0.8130 H   0  0  0  0  0  0  0  0  0  0  0  0
  1  3  1  0  0  0  0
  2  4  1  0  0  0  0
  3  2  1  0  0  0  0
  4  9  2  0  0  0  0
  4  5  1  0  0  0  0
  5  6  2  0  0  0  0
  6  7  1  0  0  0  0
  6 29  1  0  0  0  0
  7 30  1  0  0  0  0
  8 31  1  0  0  0  0
  8  7  2  0  0  0  0
  9  8  1  0  0  0  0
 10  9  1  0  0  0  0
 11 10  1  0  0  0  0
 11 32  1  0  0  0  0
 12 11  2  0  0  0  0
 13 14  2  0  0  0  0
 13 12  1  0  0  0  0
 14 15  1  0  0  0  0
 15 36  1  0  0  0  0
 15 10  2  0  0  0  0
 16  3  1  0  0  0  0
 16 21  1  0  0  0  0
 17 16  2  0  0  0  0
 18 17  1  0  0  0  0
 18 19  2  0  0  0  0
 19 20  1  0  0  0  0
 20 21  2  0  0  0  0
 20 40  1  0  0  0  0
 21 22  1  0  0  0  0
 22 27  1  0  0  0  0
 23 24  1  0  0  0  0
 23 22  2  0  0  0  0
 24 25  2  0  0  0  0
 25 43  1  0  0  0  0
 25 26  1  0  0  0  0
 26 44  1  0  0  0  0
 27 26  2  0  0  0  0
 27 45  1  0  0  0  0
 28  5  1  0  0  0  0
 33 12  1  0  0  0  0
 34 13  1  0  0  0  0
 35 14  1  0  0  0  0
 37 17  1  0  0  0  0
 38 18  1  0  0  0  0
 39 19  1  0  0  0  0
 41 23  1  0  0  0  0
 42 24  1  0  0  0  0
M  END
