1
q = 0.0, confidence = 0.97

 21 22  0  0  1  0  0  0  0  0999 V2000
   -2.2193    0.0001   -0.1035 N   0  0  1  0  0  0  0  0  0  0  0  0
   -2.7765   -1.2110   -0.7894 C   0  0  0  0  0  0  0  0  0  0  0  0
   -4.3250   -1.2442   -0.7063 C   0  0  0  0  0  0  0  0  0  0  0  0
   -4.8115    0.0000    0.0525 C   0  0  2  0  0  0  0  0  0  0  0  0
   -4.3247    1.2464   -0.7027 C   0  0  0  0  0  0  0  0  0  0  0  0
   -2.7765    1.2110   -0.7895 C   0  0  0  0  0  0  0  0  0  0  0  0
   -2.6440    0.0000    1.3284 C   0  0  0  0  0  0  0  0  0  0  0  0
   -4.1902   -0.0020    1.4595 C   0  0  0  0  0  0  0  0  0  0  0  0
   -2.3147   -2.0934   -0.3117 H   0  0  0  0  0  0  0  0  0  0  0  0
   -2.4052   -1.1777   -1.8313 H   0  0  0  0  0  0  0  0  0  0  0  0
   -4.6651   -2.1630   -0.1859 H   0  0  0  0  0  0  0  0  0  0  0  0
   -4.7712   -1.2654   -1.7216 H   0  0  0  0  0  0  0  0  0  0  0  0
   -5.9180    0.0000    0.1235 H   0  0  0  0  0  0  0  0  0  0  0  0
   -4.6624    2.1636   -0.1780 H   0  0  0  0  0  0  0  0  0  0  0  0
   -4.7731    1.2722   -1.7170 H   0  0  0  0  0  0  0  0  0  0  0  0
   -2.4079    1.1757   -1.8323 H   0  0  0  0  0  0  0  0  0  0  0  0
   -2.3124    2.0935   -0.3143 H   0  0  0  0  0  0  0  0  0  0  0  0
   -2.1829    0.8929    1.7934 H   0  0  0  0  0  0  0  0  0  0  0  0
   -2.1805   -0.8911    1.7943 H   0  0  0  0  0  0  0  0  0  0  0  0
   -4.5326   -0.8947    2.0220 H   0  0  0  0  0  0  0  0  0  0  0  0
   -4.5346    0.8875    2.0257 H   0  0  0  0  0  0  0  0  0  0  0  0
  1  6  1  6  0  0  0
  1  7  1  0  0  0  0
  2  3  1  0  0  0  0
  2  9  1  0  0  0  0
  2  1  1  0  0  0  0
  3 11  1  0  0  0  0
  3  4  1  0  0  0  0
  4 13  1  1  0  0  0
  4  8  1  0  0  0  0
  5 14  1  0  0  0  0
  5  4  1  0  0  0  0
  6  5  1  0  0  0  0
  6 17  1  0  0  0  0
  7  8  1  0  0  0  0
  7 18  1  0  0  0  0
  7 19  1  0  0  0  0
  8 20  1  0  0  0  0
  8 21  1  0  0  0  0
 10  2  1  0  0  0  0
 12  3  1  0  0  0  0
 15  5  1  0  0  0  0
 16  6  1  0  0  0  0
M  END
