3
q = 0, confidence = 1.0

 27 26  0  0  0  0  0  0  0  0999 V2000
   -0.9515   -0.1352    1.8439 P   0  0  0  0  0  4  0  0  0  0  0  0
   -2.4984   -0.0049   -0.8786 Si  0  0  0  0  0  0  0  0  0  0  0  0
   -1.1762   -0.1356    0.2538 N   0  0  0  0  0  2  0  0  0  0  0  0
   -1.7982   -0.0428   -2.6236 C   0  0  0  0  0  0  0  0  0  0  0  0
   -2.6052   -0.0267   -3.3870 H   0  0  0  0  0  0  0  0  0  0  0  0
   -1.1845   -0.9583   -2.7474 H   0  0  0  0  0  0  0  0  0  0  0  0
   -1.1359    0.8349   -2.7660 H   0  0  0  0  0  0  0  0  0  0  0  0
   -3.4536    1.6152   -0.6044 C   0  0  0  0  0  0  0  0  0  0  0  0
   -4.2478    1.7686   -1.3660 H   0  0  0  0  0  0  0  0  0  0  0  0
   -2.7196    2.4451   -0.6735 H   0  0  0  0  0  0  0  0  0  0  0  0
   -3.9316    1.6565    0.3975 H   0  0  0  0  0  0  0  0  0  0  0  0
   -3.6767   -1.4848   -0.6551 C   0  0  0  0  0  0  0  0  0  0  0  0
   -4.1894   -1.4746    0.3295 H   0  0  0  0  0  0  0  0  0  0  0  0
   -3.0796   -2.4176   -0.7261 H   0  0  0  0  0  0  0  0  0  0  0  0
   -4.4600   -1.5068   -1.4426 H   0  0  0  0  0  0  0  0  0  0  0  0
   -0.2393    1.3799    2.5902 C   0  0  0  0  0  0  0  0  0  0  0  0
   -0.3377    1.3404    3.6957 H   0  0  0  0  0  0  0  0  0  0  0  0
   -0.7592    2.2604    2.1678 H   0  0  0  0  0  0  0  0  0  0  0  0
    0.8235    1.4430    2.2859 H   0  0  0  0  0  0  0  0  0  0  0  0
    0.0783   -1.5011    2.4905 C   0  0  0  0  0  0  0  0  0  0  0  0
   -0.0614   -1.5955    3.5886 H   0  0  0  0  0  0  0  0  0  0  0  0
    1.1370   -1.2919    2.2389 H   0  0  0  0  0  0  0  0  0  0  0  0
   -0.2095   -2.4277    1.9575 H   0  0  0  0  0  0  0  0  0  0  0  0
   -2.5689   -0.3378    2.7163 C   0  0  0  0  0  0  0  0  0  0  0  0
   -3.2460    0.4879    2.4231 H   0  0  0  0  0  0  0  0  0  0  0  0
   -2.4305   -0.3273    3.8153 H   0  0  0  0  0  0  0  0  0  0  0  0
   -3.0238   -1.2990    2.4096 H   0  0  0  0  0  0  0  0  0  0  0  0
  1 20  1  0  0  0  0
  1 16  1  0  0  0  0
  1 24  1  0  0  0  0
  2 12  1  0  0  0  0
  2  8  1  0  0  0  0
  2  3  1  0  0  0  0
  3  1  1  0  0  0  0
  4  2  1  0  0  0  0
  5  4  1  0  0  0  0
  6  4  1  0  0  0  0
  7  4  1  0  0  0  0
  8 11  1  0  0  0  0
  9  8  1  0  0  0  0
 10  8  1  0  0  0  0
 12 13  1  0  0  0  0
 14 12  1  0  0  0  0
 15 12  1  0  0  0  0
 16 17  1  0  0  0  0
 18 16  1  0  0  0  0
 19 16  1  0  0  0  0
 20 21  1  0  0  0  0
 22 20  1  0  0  0  0
 23 20  1  0  0  0  0
 24 26  1  0  0  0  0
 25 24  1  0  0  0  0
 27 24  1  0  0  0  0
M  END
