2
q = 0.0, confidence = 0.998

 30 31  0  0  0  0  0  0  0  0999 V2000
    6.3702   -1.9485   -1.0737 O   0  0  0  0  0  0  0  0  0  0  0  0
    1.6595    1.2277   -0.3257 N   0  0  0  0  0  2  0  0  0  0  0  0
    2.1941    0.0937    0.1666 C   0  0  0  0  0  3  0  0  0  0  0  0
    1.7007   -0.2960    1.0765 H   0  0  0  0  0  0  0  0  0  0  0  0
    5.1906   -1.5424    0.8565 N   0  0  0  0  0  0  0  0  0  0  0  0
    3.3105   -0.5264   -0.4130 C   0  0  0  0  0  0  0  0  0  0  0  0
    7.4916   -1.2531    0.8360 N   0  0  0  0  0  0  0  0  0  0  0  0
    3.8764    0.0782   -1.5559 C   0  0  0  0  0  0  0  0  0  0  0  0
    4.7567   -0.3880   -2.0260 H   0  0  0  0  0  0  0  0  0  0  0  0
    3.3171    1.2611   -2.0554 C   0  0  0  0  0  0  0  0  0  0  0  0
    3.7400    1.7596   -2.9397 H   0  0  0  0  0  0  0  0  0  0  0  0
    2.2042    1.8141   -1.4079 C   0  0  0  0  0  0  0  0  0  0  0  0
    1.7258    2.7593   -1.7192 H   0  0  0  0  0  0  0  0  0  0  0  0
    3.9126   -1.7753    0.2015 C   0  0  0  0  0  0  0  0  0  0  0  0
    4.1003   -2.5281   -0.5891 H   0  0  0  0  0  0  0  0  0  0  0  0
    3.2068   -2.2128    0.9361 H   0  0  0  0  0  0  0  0  0  0  0  0
    6.3615   -1.5984    0.1081 C   0  0  0  0  0  0  0  0  0  0  0  0
    8.8239   -1.1622    0.3939 C   0  0  0  0  0  0  0  0  0  0  0  0
    9.2267   -1.4512   -0.9292 C   0  0  0  0  0  0  0  0  0  0  0  0
    8.4731   -1.7764   -1.6551 H   0  0  0  0  0  0  0  0  0  0  0  0
   10.5779   -1.3240   -1.2809 C   0  0  0  0  0  0  0  0  0  0  0  0
   10.8788   -1.5524   -2.3150 H   0  0  0  0  0  0  0  0  0  0  0  0
   11.5425   -0.9189   -0.3455 C   0  0  0  0  0  0  0  0  0  0  0  0
   12.5990   -0.8255   -0.6367 H   0  0  0  0  0  0  0  0  0  0  0  0
   11.1398   -0.6364    0.9694 C   0  0  0  0  0  0  0  0  0  0  0  0
   11.8785   -0.3181    1.7206 H   0  0  0  0  0  0  0  0  0  0  0  0
    9.7949   -0.7550    1.3373 C   0  0  0  0  0  0  0  0  0  0  0  0
    9.4867   -0.5271    2.3711 H   0  0  0  0  0  0  0  0  0  0  0  0
    7.3628   -1.0738    1.8329 H   0  0  0  0  0  0  0  0  0  0  0  0
    5.1724   -0.9683    1.7017 H   0  0  0  0  0  0  0  0  0  0  0  0
  1 17  2  0  0  0  0
  2  3  1  0  0  0  0
  3  4  1  0  0  0  0
  5 30  1  0  0  0  0
  6  3  1  0  0  0  0
  6 14  1  0  0  0  0
  7 29  1  0  0  0  0
  8  6  2  0  0  0  0
  9  8  1  0  0  0  0
 10  8  1  0  0  0  0
 10 12  2  0  0  0  0
 11 10  1  0  0  0  0
 12  2  1  0  0  0  0
 13 12  1  0  0  0  0
 14  5  1  0  0  0  0
 14 16  1  0  0  0  0
 15 14  1  0  0  0  0
 17  7  1  0  0  0  0
 17  5  1  0  0  0  0
 18  7  1  0  0  0  0
 18 27  1  0  0  0  0
 19 18  2  0  0  0  0
 20 19  1  0  0  0  0
 21 19  1  0  0  0  0
 21 23  2  0  0  0  0
 22 21  1  0  0  0  0
 23 25  1  0  0  0  0
 24 23  1  0  0  0  0
 25 27  2  0  0  0  0
 25 26  1  0  0  0  0
 27 28  1  0  0  0  0
M  END
