1
q = 0.0, confidence = 0.988

 15 15  0  0  1  0  0  0  0  0999 V2000
    1.8156   -0.5929    0.1743 N   0  0  0  0  0  2  0  0  0  0  0  0
    3.8100   -1.4324   -0.2954 N   0  0  0  0  0  0  0  0  0  0  0  0
    2.6297   -0.9691   -0.8249 C   0  0  2  0  0  3  0  0  0  0  0  0
    3.7272   -1.3452    1.0856 C   0  0  0  0  0  0  0  0  0  0  0  0
    2.4843   -0.8219    1.3613 C   0  0  0  0  0  0  0  0  0  0  0  0
    2.3640   -0.8898   -2.2875 C   0  0  0  0  0  0  0  0  0  0  0  0
    4.9515   -1.9278   -1.0443 C   0  0  0  0  0  0  0  0  0  0  0  0
    4.5479   -1.6610    1.7364 H   0  0  0  0  0  0  0  0  0  0  0  0
    2.0271   -0.5840    2.3265 H   0  0  0  0  0  0  0  0  0  0  0  0
    3.0515   -1.5419   -2.8570 H   0  0  0  0  0  0  0  0  0  0  0  0
    1.3215   -1.1858   -2.5114 H   0  0  0  0  0  0  0  0  0  0  0  0
    2.4772    0.1486   -2.6622 H   0  0  0  0  0  0  0  0  0  0  0  0
    5.7552   -2.1935   -0.3345 H   0  0  0  0  0  0  0  0  0  0  0  0
    4.6873   -2.8326   -1.6279 H   0  0  0  0  0  0  0  0  0  0  0  0
    5.3382   -1.1564   -1.7395 H   0  0  0  0  0  0  0  0  0  0  0  0
  1  5  1  0  0  0  0
  2  4  1  0  0  0  0
  3  6  1  6  0  0  0
  3  2  1  0  0  0  0
  3  1  1  0  0  0  0
  4  5  2  0  0  0  0
  4  8  1  0  0  0  0
  5  9  1  0  0  0  0
  7 13  1  0  0  0  0
  7  2  1  0  0  0  0
 10  6  1  0  0  0  0
 11  6  1  0  0  0  0
 12  6  1  0  0  0  0
 14  7  1  0  0  0  0
 15  7  1  0  0  0  0
M  END
