7
q = 0.0, confidence = 0.994

 18 18  0  0  0  0  0  0  0  0999 V2000
   -2.3793   -3.6221    0.1748 Cl  0  0  0  0  0  0  0  0  0  0  0  0
    0.1531   -0.7590   -2.9397 O   0  0  0  0  0  0  0  0  0  0  0  0
    1.1128   -0.3387   -2.7617 H   0  0  0  0  0  0  0  0  0  0  0  0
   -1.9036   -2.1974   -2.6182 N   0  0  0  0  0  4  0  0  0  0  0  0
   -1.1098   -2.3918   -3.2379 H   0  0  0  0  0  0  0  0  0  0  0  0
   -2.5181   -2.9621   -2.3448 H   0  0  0  0  0  0  0  0  0  0  0  0
   -0.6070   -0.4269   -1.8509 N   0  0  0  0  0  2  0  0  0  0  0  0
   -2.9244   -1.9601    0.3695 C   0  0  0  0  0  0  0  0  0  0  0  0
   -1.6598   -1.2102   -1.7139 C   0  0  0  0  0  0  0  0  0  0  0  0
   -3.7584    0.6743    0.8159 C   0  0  0  0  0  0  0  0  0  0  0  0
   -4.0526    1.7178    0.9928 H   0  0  0  0  0  0  0  0  0  0  0  0
   -3.6885   -1.6549    1.5037 C   0  0  0  0  0  0  0  0  0  0  0  0
   -3.9387   -2.4570    2.2119 H   0  0  0  0  0  0  0  0  0  0  0  0
   -3.0125    0.3543   -0.3244 C   0  0  0  0  0  0  0  0  0  0  0  0
   -2.7514    1.1310   -1.0567 H   0  0  0  0  0  0  0  0  0  0  0  0
   -2.5582   -0.9616   -0.5636 C   0  0  0  0  0  0  0  0  0  0  0  0
   -4.0962   -0.3327    1.7303 C   0  0  0  0  0  0  0  0  0  0  0  0
   -4.6779   -0.0937    2.6329 H   0  0  0  0  0  0  0  0  0  0  0  0
  1  8  1  0  0  0  0
  2  3  1  0  0  0  0
  2  7  1  0  0  0  0
  4  6  1  0  0  0  0
  4  9  2  0  0  0  0
  5  4  1  0  0  0  0
  7  9  1  0  0  0  0
  8 12  1  0  0  0  0
  9 16  1  0  0  0  0
 10 11  1  0  0  0  0
 10 17  1  0  0  0  0
 12 17  2  0  0  0  0
 12 13  1  0  0  0  0
 14 10  2  0  0  0  0
 15 14  1  0  0  0  0
 16 14  1  0  0  0  0
 16  8  2  0  0  0  0
 17 18  1  0  0  0  0
M  END
