3
q = 0.0, confidence = 1.0

 18 18  0  0  0  0  0  0  0  0999 V2000
    0.0934   -1.8352   -2.1659 O   0  0  0  0  0  0  0  0  0  0  0  0
    0.8809   -2.3122   -1.6656 H   0  0  0  0  0  0  0  0  0  0  0  0
   -0.0665   -0.6189   -1.5514 N   0  0  0  0  0  2  0  0  0  0  0  0
   -1.5103    1.3147   -1.3661 C   0  0  0  0  0  0  0  0  0  0  0  0
   -2.0738   -0.6524   -2.7270 N   0  0  0  0  0  4  0  0  0  0  0  0
   -1.7377   -1.5433   -3.1026 H   0  0  0  0  0  0  0  0  0  0  0  0
   -2.7056   -0.0904   -3.2937 H   0  0  0  0  0  0  0  0  0  0  0  0
   -2.8447    1.6287   -1.0243 C   0  0  0  0  0  0  0  0  0  0  0  0
   -3.6355    0.8838   -1.1966 H   0  0  0  0  0  0  0  0  0  0  0  0
   -1.1809   -0.0140   -1.9162 C   0  0  0  0  0  0  0  0  0  0  0  0
   -0.4970    2.2682   -1.1326 C   0  0  0  0  0  0  0  0  0  0  0  0
    0.5332    2.0457   -1.4456 H   0  0  0  0  0  0  0  0  0  0  0  0
   -3.1463    2.8585   -0.4243 C   0  0  0  0  0  0  0  0  0  0  0  0
   -4.1868    3.0903   -0.1501 H   0  0  0  0  0  0  0  0  0  0  0  0
   -0.7984    3.4819   -0.5029 C   0  0  0  0  0  0  0  0  0  0  0  0
    0.0130    4.1923   -0.2880 H   0  0  0  0  0  0  0  0  0  0  0  0
   -2.1238    3.7814   -0.1492 C   0  0  0  0  0  0  0  0  0  0  0  0
   -2.3615    4.7376    0.3410 H   0  0  0  0  0  0  0  0  0  0  0  0
  1  2  1  0  0  0  0
  1  3  1  0  0  0  0
  4 11  2  0  0  0  0
  4  8  1  0  0  0  0
  5 10  2  0  0  0  0
  6  5  1  0  0  0  0
  7  5  1  0  0  0  0
  8 13  2  0  0  0  0
  9  8  1  0  0  0  0
 10  3  1  0  0  0  0
 10  4  1  0  0  0  0
 11 15  1  0  0  0  0
 12 11  1  0  0  0  0
 13 14  1  0  0  0  0
 13 17  1  0  0  0  0
 15 16  1  0  0  0  0
 15 17  2  0  0  0  0
 17 18  1  0  0  0  0
M  END
