2
q = -1.0, confidence = 0.0

 37 38  0  0  0  0  0  0  0  0999 V2000
   -1.0983    0.0467   -0.2146 P   0  0  0  0  0  0  0  0  0  0  0  0
   -0.1987   -0.4970    1.0909 N   0  0  0  0  0  2  0  0  0  0  0  0
   -0.6214   -1.1082    2.3845 C   0  0  0  0  0  0  0  0  0  0  0  0
   -0.8794   -2.6137    2.1624 C   0  0  0  0  0  0  0  0  0  0  0  0
   -1.7454   -2.7694    1.4909 H   0  0  0  0  0  0  0  0  0  0  0  0
   -1.1000   -3.1087    3.1302 H   0  0  0  0  0  0  0  0  0  0  0  0
    0.0104   -3.0919    1.7123 H   0  0  0  0  0  0  0  0  0  0  0  0
    0.5110   -0.9159    3.4067 C   0  0  0  0  0  0  0  0  0  0  0  0
    1.4478   -1.3755    3.0411 H   0  0  0  0  0  0  0  0  0  0  0  0
    0.2357   -1.3894    4.3705 H   0  0  0  0  0  0  0  0  0  0  0  0
    0.6907    0.1618    3.5965 H   0  0  0  0  0  0  0  0  0  0  0  0
   -1.9061   -0.4597    2.9280 C   0  0  0  0  0  0  0  0  0  0  0  0
   -1.7393    0.5888    3.2410 H   0  0  0  0  0  0  0  0  0  0  0  0
   -2.2560   -1.0200    3.8180 H   0  0  0  0  0  0  0  0  0  0  0  0
   -2.7223   -0.4797    2.1791 H   0  0  0  0  0  0  0  0  0  0  0  0
   -1.9415    1.6646   -0.0137 C   0  0  0  0  0  0  0  0  0  0  0  0
   -1.8306    2.4664    1.1368 C   0  0  0  0  0  0  0  0  0  0  0  0
   -1.2884    2.0857    2.0110 H   0  0  0  0  0  0  0  0  0  0  0  0
   -2.3979    3.7501    1.1663 C   0  0  0  0  0  0  0  0  0  0  0  0
   -2.3063    4.3644    2.0752 H   0  0  0  0  0  0  0  0  0  0  0  0
   -3.0798    4.2483    0.0454 C   0  0  0  0  0  0  0  0  0  0  0  0
   -3.5232    5.2551    0.0695 H   0  0  0  0  0  0  0  0  0  0  0  0
   -3.1924    3.4549   -1.1092 C   0  0  0  0  0  0  0  0  0  0  0  0
   -3.7224    3.8390   -1.9941 H   0  0  0  0  0  0  0  0  0  0  0  0
   -2.6226    2.1754   -1.1424 C   0  0  0  0  0  0  0  0  0  0  0  0
   -2.7055    1.5641   -2.0554 H   0  0  0  0  0  0  0  0  0  0  0  0
   -2.4694   -1.1083   -0.6388 C   0  0  0  0  0  0  0  0  0  0  0  0
   -2.1489   -2.3675   -1.1908 C   0  0  0  0  0  0  0  0  0  0  0  0
   -1.0984   -2.6126   -1.4061 H   0  0  0  0  0  0  0  0  0  0  0  0
   -3.1653   -3.2934   -1.4649 C   0  0  0  0  0  0  0  0  0  0  0  0
   -2.9036   -4.2718   -1.8958 H   0  0  0  0  0  0  0  0  0  0  0  0
   -4.5068   -2.9764   -1.1970 C   0  0  0  0  0  0  0  0  0  0  0  0
   -5.3018   -3.7059   -1.4148 H   0  0  0  0  0  0  0  0  0  0  0  0
   -4.8309   -1.7244   -0.6510 C   0  0  0  0  0  0  0  0  0  0  0  0
   -5.8795   -1.4698   -0.4334 H   0  0  0  0  0  0  0  0  0  0  0  0
   -3.8195   -0.7930   -0.3727 C   0  0  0  0  0  0  0  0  0  0  0  0
   -4.0833    0.1834    0.0600 H   0  0  0  0  0  0  0  0  0  0  0  0
  1 16  1  0  0  0  0
  1  2  1  0  0  0  0
  2  3  1  0  0  0  0
  3 12  1  0  0  0  0
  3  8  1  0  0  0  0
  4  3  1  0  0  0  0
  4  6  1  0  0  0  0
  5  4  1  0  0  0  0
  7  4  1  0  0  0  0
  8 11  1  0  0  0  0
  8 10  1  0  0  0  0
  9  8  1  0  0  0  0
 12 13  1  0  0  0  0
 12 14  1  0  0  0  0
 15 12  1  0  0  0  0
 16 17  1  0  0  0  0
 17 19  2  0  0  0  0
 17 18  1  0  0  0  0
 19 20  1  0  0  0  0
 21 22  1  0  0  0  0
 21 19  1  0  0  0  0
 23 21  2  0  0  0  0
 24 23  1  0  0  0  0
 25 23  1  0  0  0  0
 25 16  2  0  0  0  0
 26 25  1  0  0  0  0
 27 36  1  0  0  0  0
 27  1  1  0  0  0  0
 28 27  2  0  0  0  0
 29 28  1  0  0  0  0
 30 32  2  0  0  0  0
 30 28  1  0  0  0  0
 31 30  1  0  0  0  0
 32 34  1  0  0  0  0
 33 32  1  0  0  0  0
 34 35  1  0  0  0  0
 34 36  2  0  0  0  0
 36 37  1  0  0  0  0
M  END
