1
q = -1

 23 22  0  0  0  0  0  0  0  0999 V2000
    0.2159    1.2000    0.3905 N   0  0  0  0  0  2  0  0  0  0  0  0
    0.5736    2.4007    1.1015 C   0  0  0  0  0  0  0  0  0  0  0  0
    1.1430    0.6164   -0.4918 N   0  0  0  0  0  0  0  0  0  0  0  0
    2.5895   -0.2607    0.2380 Si  0  0  0  0  0  0  0  0  0  0  0  0
    4.0302    0.9724    0.2897 C   0  0  0  0  0  0  0  0  0  0  0  0
    2.1700   -0.7772    1.9961 C   0  0  0  0  0  0  0  0  0  0  0  0
    3.0376   -1.6808   -0.9064 C   0  0  0  0  0  0  0  0  0  0  0  0
    1.4519    1.4142   -1.6894 C   0  0  0  0  0  0  0  0  0  0  0  0
   -0.2888    2.7424    1.7037 H   0  0  0  0  0  0  0  0  0  0  0  0
    0.8532    3.2256    0.4073 H   0  0  0  0  0  0  0  0  0  0  0  0
    1.4316    2.2340    1.7931 H   0  0  0  0  0  0  0  0  0  0  0  0
    4.3330    1.3081   -0.7226 H   0  0  0  0  0  0  0  0  0  0  0  0
    3.7922    1.8720    0.8932 H   0  0  0  0  0  0  0  0  0  0  0  0
    4.9133    0.4843    0.7531 H   0  0  0  0  0  0  0  0  0  0  0  0
    1.8988    0.0937    2.6257 H   0  0  0  0  0  0  0  0  0  0  0  0
    1.3344   -1.5017    2.0062 H   0  0  0  0  0  0  0  0  0  0  0  0
    3.0626   -1.2558    2.4500 H   0  0  0  0  0  0  0  0  0  0  0  0
    3.2949   -1.3151   -1.9210 H   0  0  0  0  0  0  0  0  0  0  0  0
    2.1863   -2.3834   -0.9869 H   0  0  0  0  0  0  0  0  0  0  0  0
    3.9207   -2.2240   -0.5109 H   0  0  0  0  0  0  0  0  0  0  0  0
    1.9929    0.7751   -2.4141 H   0  0  0  0  0  0  0  0  0  0  0  0
    2.0891    2.2955   -1.4536 H   0  0  0  0  0  0  0  0  0  0  0  0
    0.5123    1.7439   -2.1723 H   0  0  0  0  0  0  0  0  0  0  0  0
  1  2  1  0  0  0  0
  2  9  1  0  0  0  0
  2 11  1  0  0  0  0
  3  4  1  0  0  0  0
  3  1  1  0  0  0  0
  4  5  1  0  0  0  0
  4  6  1  0  0  0  0
  5 14  1  0  0  0  0
  5 13  1  0  0  0  0
  6 16  1  0  0  0  0
  6 17  1  0  0  0  0
  6 15  1  0  0  0  0
  7 20  1  0  0  0  0
  7  4  1  0  0  0  0
  8 22  1  0  0  0  0
  8  3  1  0  0  0  0
 10  2  1  0  0  0  0
 12  5  1  0  0  0  0
 18  7  1  0  0  0  0
 19  7  1  0  0  0  0
 21  8  1  0  0  0  0
 23  8  1  0  0  0  0
M  END
