3
q = -1.0

 27 27  0  0  0  0  0  0  0  0999 V2000
    3.5047   -0.0583    1.1129 Si  0  0  0  0  0  0  0  0  0  0  0  0
    2.0324   -0.0559    0.1300 N   0  0  0  0  0  0  0  0  0  0  0  0
    0.5480   -0.7218   -1.3864 N   0  0  0  0  0  2  0  0  0  0  0  0
    1.8383   -0.8726   -0.9337 C   0  0  0  0  0  0  0  0  0  0  0  0
    2.7030   -1.7772   -1.6141 C   0  0  0  0  0  0  0  0  0  0  0  0
    3.7431   -1.9015   -1.2833 H   0  0  0  0  0  0  0  0  0  0  0  0
    2.2267   -2.5000   -2.7140 C   0  0  0  0  0  0  0  0  0  0  0  0
    0.8845   -2.3064   -3.1357 C   0  0  0  0  0  0  0  0  0  0  0  0
    0.4772   -2.8575   -3.9951 H   0  0  0  0  0  0  0  0  0  0  0  0
    0.0808   -1.4004   -2.4431 C   0  0  0  0  0  0  0  0  0  0  0  0
   -0.9666   -1.2090   -2.7222 H   0  0  0  0  0  0  0  0  0  0  0  0
    3.1164   -3.4687   -3.4498 C   0  0  0  0  0  0  0  0  0  0  0  0
    3.1953   -3.2008   -4.5241 H   0  0  0  0  0  0  0  0  0  0  0  0
    2.7017   -4.4977   -3.4083 H   0  0  0  0  0  0  0  0  0  0  0  0
    4.1384   -3.4943   -3.0256 H   0  0  0  0  0  0  0  0  0  0  0  0
    4.9819    0.5804    0.1081 C   0  0  0  0  0  0  0  0  0  0  0  0
    5.1292    0.0008   -0.8253 H   0  0  0  0  0  0  0  0  0  0  0  0
    5.9183    0.5162    0.7006 H   0  0  0  0  0  0  0  0  0  0  0  0
    4.8344    1.6412   -0.1806 H   0  0  0  0  0  0  0  0  0  0  0  0
    3.8806   -1.8221    1.7099 C   0  0  0  0  0  0  0  0  0  0  0  0
    3.0527   -2.2118    2.3367 H   0  0  0  0  0  0  0  0  0  0  0  0
    4.8044   -1.8257    2.3255 H   0  0  0  0  0  0  0  0  0  0  0  0
    4.0258   -2.5383    0.8776 H   0  0  0  0  0  0  0  0  0  0  0  0
    3.3305    1.0141    2.6545 C   0  0  0  0  0  0  0  0  0  0  0  0
    2.5021    0.6799    3.3103 H   0  0  0  0  0  0  0  0  0  0  0  0
    3.1761    2.0837    2.4163 H   0  0  0  0  0  0  0  0  0  0  0  0
    4.2723    0.9313    3.2360 H   0  0  0  0  0  0  0  0  0  0  0  0
  1 20  1  0  0  0  0
  1 24  1  0  0  0  0
  2  1  1  0  0  0  0
  3  4  1  0  0  0  0
  4  2  2  0  0  0  0
  5  6  1  0  0  0  0
  5  4  1  0  0  0  0
  7  5  2  0  0  0  0
  8  7  1  0  0  0  0
  8 10  2  0  0  0  0
  9  8  1  0  0  0  0
 10  3  1  0  0  0  0
 11 10  1  0  0  0  0
 12 14  1  0  0  0  0
 12 15  1  0  0  0  0
 12  7  1  0  0  0  0
 13 12  1  0  0  0  0
 16 18  1  0  0  0  0
 16  1  1  0  0  0  0
 17 16  1  0  0  0  0
 19 16  1  0  0  0  0
 20 22  1  0  0  0  0
 20 21  1  0  0  0  0
 23 20  1  0  0  0  0
 24 27  1  0  0  0  0
 24 25  1  0  0  0  0
 26 24  1  0  0  0  0
M  END
