1
q = -1.0, confidence = 0.008

 29 29  0  0  0  0  0  0  0  0999 V2000
   -0.4617    1.1129   -0.1078 N   0  0  0  0  0  2  0  0  0  0  0  0
   -0.8112    0.1818    0.7330 C   0  0  0  0  0  2  0  0  0  0  0  0
   -1.9141   -0.0004    1.7183 C   0  0  0  0  0  0  0  0  0  0  0  0
   -3.2596   -0.2850    1.0594 C   0  0  0  0  0  0  0  0  0  0  0  0
   -4.4410    0.2245    1.6329 C   0  0  0  0  0  0  0  0  0  0  0  0
   -5.6893   -0.0494    1.0545 C   0  0  0  0  0  0  0  0  0  0  0  0
   -5.7694   -0.8300   -0.1096 C   0  0  0  0  0  0  0  0  0  0  0  0
   -4.5951   -1.3371   -0.6867 C   0  0  0  0  0  0  0  0  0  0  0  0
   -3.3448   -1.0712   -0.1070 C   0  0  0  0  0  0  0  0  0  0  0  0
   -1.0302    2.3675   -0.6662 C   0  0  0  0  0  0  0  0  0  0  0  0
   -2.1774    2.8772    0.2153 C   0  0  0  0  0  0  0  0  0  0  0  0
    0.0849    3.4204   -0.7599 C   0  0  0  0  0  0  0  0  0  0  0  0
   -1.5299    1.9914   -2.0743 C   0  0  0  0  0  0  0  0  0  0  0  0
   -1.6497   -0.8416    2.3926 H   0  0  0  0  0  0  0  0  0  0  0  0
   -1.9968    0.9090    2.3490 H   0  0  0  0  0  0  0  0  0  0  0  0
   -4.3824    0.8451    2.5414 H   0  0  0  0  0  0  0  0  0  0  0  0
   -6.6041    0.3547    1.5141 H   0  0  0  0  0  0  0  0  0  0  0  0
   -6.7477   -1.0402   -0.5676 H   0  0  0  0  0  0  0  0  0  0  0  0
   -4.6450   -1.9467   -1.6015 H   0  0  0  0  0  0  0  0  0  0  0  0
   -2.4326   -1.4694   -0.5799 H   0  0  0  0  0  0  0  0  0  0  0  0
   -3.0211    2.1625    0.2549 H   0  0  0  0  0  0  0  0  0  0  0  0
   -1.8309    3.0895    1.2471 H   0  0  0  0  0  0  0  0  0  0  0  0
   -2.5576    3.8268   -0.2096 H   0  0  0  0  0  0  0  0  0  0  0  0
   -0.2944    4.2954   -1.3232 H   0  0  0  0  0  0  0  0  0  0  0  0
    0.3858    3.7751    0.2459 H   0  0  0  0  0  0  0  0  0  0  0  0
    0.9635    3.0010   -1.2869 H   0  0  0  0  0  0  0  0  0  0  0  0
   -1.9746    2.8871   -2.5516 H   0  0  0  0  0  0  0  0  0  0  0  0
   -0.6870    1.6269   -2.6926 H   0  0  0  0  0  0  0  0  0  0  0  0
   -2.3007    1.1979   -2.0200 H   0  0  0  0  0  0  0  0  0  0  0  0
  1  2  1  0  0  0  0
  2  3  1  0  0  0  0
  3 15  1  0  0  0  0
  3 14  1  0  0  0  0
  4  5  1  0  0  0  0
  4  3  1  0  0  0  0
  5 16  1  0  0  0  0
  6 17  1  0  0  0  0
  6  5  2  0  0  0  0
  7  6  1  0  0  0  0
  8  7  2  0  0  0  0
  8  9  1  0  0  0  0
  9  4  2  0  0  0  0
 10  1  1  0  0  0  0
 10 11  1  0  0  0  0
 11 21  1  0  0  0  0
 11 22  1  0  0  0  0
 12 10  1  0  0  0  0
 12 25  1  0  0  0  0
 13 29  1  0  0  0  0
 13 10  1  0  0  0  0
 18  7  1  0  0  0  0
 19  8  1  0  0  0  0
 20  9  1  0  0  0  0
 23 11  1  0  0  0  0
 24 12  1  0  0  0  0
 26 12  1  0  0  0  0
 27 13  1  0  0  0  0
 28 13  1  0  0  0  0
M  END
