1
q = 0.0, confidence = 0.98

 37 38  0  0  1  0  0  0  0  0999 V2000
   -1.0891   -1.6915   -0.4177 N   0  0  0  0  0  2  0  0  0  0  0  0
   -2.3740   -1.6468   -0.8054 C   0  0  0  0  0  0  0  0  0  0  0  0
   -0.4951   -2.8996   -0.1082 C   0  0  2  0  0  3  0  0  0  0  0  0
   -3.1851   -2.8173   -0.7702 C   0  0  0  0  0  0  0  0  0  0  0  0
   -2.9591   -0.3587   -1.3123 C   0  0  0  0  0  0  0  0  0  0  0  0
    0.9000   -2.9581    0.1463 C   0  0  0  0  0  0  0  0  0  0  0  0
   -1.2643   -4.1130   -0.0638 C   0  0  0  0  0  0  0  0  0  0  0  0
   -2.6471   -4.0284   -0.3806 C   0  0  0  0  0  0  0  0  0  0  0  0
   -4.2453   -2.7201   -1.0416 H   0  0  0  0  0  0  0  0  0  0  0  0
   -3.9384    0.6177   -0.1192 P   0  0  0  0  0  0  0  0  0  0  0  0
   -3.6476   -0.5684   -2.1554 H   0  0  0  0  0  0  0  0  0  0  0  0
   -2.1459    0.2969   -1.6950 H   0  0  0  0  0  0  0  0  0  0  0  0
    1.5140   -4.1591    0.4630 C   0  0  0  0  0  0  0  0  0  0  0  0
    1.4824   -2.0327    0.0612 H   0  0  0  0  0  0  0  0  0  0  0  0
   -0.6110   -5.3317    0.2806 C   0  0  0  0  0  0  0  0  0  0  0  0
   -3.2713   -4.9342   -0.3322 H   0  0  0  0  0  0  0  0  0  0  0  0
   -3.0317    0.3926    1.1999 O   0  0  0  0  0  0  0  0  0  0  0  0
   -5.2872   -0.2905    0.1713 O   0  0  0  0  0  0  0  0  0  0  0  0
   -4.2531    2.0354   -0.5199 O   0  0  0  0  0  0  0  0  0  0  0  0
    0.7510   -5.3547    0.5447 C   0  0  0  0  0  0  0  0  0  0  0  0
    2.5995   -4.1541    0.6445 H   0  0  0  0  0  0  0  0  0  0  0  0
   -1.2099   -6.2545    0.3237 H   0  0  0  0  0  0  0  0  0  0  0  0
   -3.2498    1.1301    2.4258 C   0  0  0  0  0  0  0  0  0  0  0  0
   -6.5768    0.2156   -0.2388 C   0  0  0  0  0  0  0  0  0  0  0  0
    1.2449   -6.3024    0.8067 H   0  0  0  0  0  0  0  0  0  0  0  0
   -3.9147    0.2376    3.4559 C   0  0  0  0  0  0  0  0  0  0  0  0
   -2.2370    1.4350    2.7560 H   0  0  0  0  0  0  0  0  0  0  0  0
   -3.8448    2.0415    2.2017 H   0  0  0  0  0  0  0  0  0  0  0  0
   -6.8108    0.0430   -1.7306 C   0  0  0  0  0  0  0  0  0  0  0  0
   -6.6562    1.2864    0.0428 H   0  0  0  0  0  0  0  0  0  0  0  0
   -7.3135   -0.3606    0.3567 H   0  0  0  0  0  0  0  0  0  0  0  0
   -4.0493    0.7874    4.4095 H   0  0  0  0  0  0  0  0  0  0  0  0
   -4.9064   -0.1084    3.1029 H   0  0  0  0  0  0  0  0  0  0  0  0
   -3.2774   -0.6476    3.6485 H   0  0  0  0  0  0  0  0  0  0  0  0
   -7.8384    0.3613   -1.9996 H   0  0  0  0  0  0  0  0  0  0  0  0
   -6.1027    0.6721   -2.3070 H   0  0  0  0  0  0  0  0  0  0  0  0
   -6.6872   -1.0156   -2.0374 H   0  0  0  0  0  0  0  0  0  0  0  0
  2  4  2  0  0  0  0
  2  1  1  0  0  0  0
  3  1  1  6  0  0  0
  3  7  1  0  0  0  0
  3  6  1  0  0  0  0
  4  8  1  0  0  0  0
  5  2  1  0  0  0  0
  5 10  1  0  0  0  0
  6 13  2  0  0  0  0
  7 15  1  0  0  0  0
  8 16  1  0  0  0  0
  8  7  2  0  0  0  0
  9  4  1  0  0  0  0
 10 18  1  0  0  0  0
 10 17  1  0  0  0  0
 11  5  1  0  0  0  0
 12  5  1  0  0  0  0
 13 20  1  0  0  0  0
 13 21  1  0  0  0  0
 14  6  1  0  0  0  0
 15 22  1  0  0  0  0
 15 20  2  0  0  0  0
 17 23  1  0  0  0  0
 19 10  2  0  0  0  0
 20 25  1  0  0  0  0
 23 27  1  0  0  0  0
 23 26  1  0  0  0  0
 24 30  1  0  0  0  0
 24 18  1  0  0  0  0
 24 31  1  0  0  0  0
 26 34  1  0  0  0  0
 26 32  1  0  0  0  0
 28 23  1  0  0  0  0
 29 24  1  0  0  0  0
 33 26  1  0  0  0  0
 35 29  1  0  0  0  0
 36 29  1  0  0  0  0
 37 29  1  0  0  0  0
M  END
