2
q = 0.0, confidence = 0.876

 23 22  0  0  0  0  0  0  0  0999 V2000
    0.7689    1.8255   -0.0017 Si  0  0  0  0  0  3  0  0  0  0  0  0
    1.6887    0.3612   -0.0021 N   0  0  0  0  0  2  0  0  0  0  0  0
    1.0151    2.9774    1.5132 C   0  0  0  0  0  0  0  0  0  0  0  0
    1.0145    2.9771   -1.5168 C   0  0  0  0  0  0  0  0  0  0  0  0
    3.1264    0.0787   -0.0027 C   0  0  0  0  0  0  0  0  0  0  0  0
    3.7933    0.7087    1.2424 C   0  0  0  0  0  0  0  0  0  0  0  0
    3.4090   -1.4383    0.0082 C   0  0  0  0  0  0  0  0  0  0  0  0
    3.7884    0.6904   -1.2596 C   0  0  0  0  0  0  0  0  0  0  0  0
    0.2414    3.7740    1.5531 H   0  0  0  0  0  0  0  0  0  0  0  0
    0.9769    2.4129    2.4664 H   0  0  0  0  0  0  0  0  0  0  0  0
    1.9984    3.4925    1.4632 H   0  0  0  0  0  0  0  0  0  0  0  0
    0.9728    2.4131   -2.4701 H   0  0  0  0  0  0  0  0  0  0  0  0
    1.9993    3.4895   -1.4685 H   0  0  0  0  0  0  0  0  0  0  0  0
    0.2429    3.7759   -1.5547 H   0  0  0  0  0  0  0  0  0  0  0  0
    3.6567    1.8081    1.2413 H   0  0  0  0  0  0  0  0  0  0  0  0
    3.3410    0.3179    2.1759 H   0  0  0  0  0  0  0  0  0  0  0  0
    4.8829    0.4979    1.2726 H   0  0  0  0  0  0  0  0  0  0  0  0
    2.9868   -1.9211    0.9100 H   0  0  0  0  0  0  0  0  0  0  0  0
    4.5008   -1.6332    0.0022 H   0  0  0  0  0  0  0  0  0  0  0  0
    2.9739   -1.9363   -0.8792 H   0  0  0  0  0  0  0  0  0  0  0  0
    4.8787    0.4830   -1.2885 H   0  0  0  0  0  0  0  0  0  0  0  0
    3.6476    1.7891   -1.2762 H   0  0  0  0  0  0  0  0  0  0  0  0
    3.3360    0.2827   -2.1856 H   0  0  0  0  0  0  0  0  0  0  0  0
  1  3  1  0  0  0  0
  2  1  1  0  0  0  0
  3  9  1  0  0  0  0
  3 10  1  0  0  0  0
  4 13  1  0  0  0  0
  4  1  1  0  0  0  0
  5  2  1  0  0  0  0
  5  7  1  0  0  0  0
  5  6  1  0  0  0  0
  6 17  1  0  0  0  0
  6 16  1  0  0  0  0
  7 18  1  0  0  0  0
  8  5  1  0  0  0  0
 11  3  1  0  0  0  0
 12  4  1  0  0  0  0
 14  4  1  0  0  0  0
 15  6  1  0  0  0  0
 19  7  1  0  0  0  0
 20  7  1  0  0  0  0
 21  8  1  0  0  0  0
 22  8  1  0  0  0  0
 23  8  1  0  0  0  0
M  END
