2
q = 0.0, confidence = 1.0

 34 36  0  0  1  0  0  0  0  0999 V2000
   -1.1576   -3.3052    0.6265 O   0  0  0  0  0  0  0  0  0  0  0  0
   -1.3702   -1.1713   -0.0794 N   0  0  0  0  0  2  0  0  0  0  0  0
    1.4203   -0.8826    0.0675 N   0  0  0  0  0  0  0  0  0  0  0  0
    0.8936   -2.0992    0.1828 C   0  0  0  0  0  0  0  0  0  0  0  0
    1.6726   -3.2892    0.2728 C   0  0  0  0  0  0  0  0  0  0  0  0
    1.1723   -4.2613    0.3762 H   0  0  0  0  0  0  0  0  0  0  0  0
    3.0514   -3.1733    0.2148 C   0  0  0  0  0  0  0  0  0  0  0  0
    3.6933   -4.0666    0.2662 H   0  0  0  0  0  0  0  0  0  0  0  0
    3.6525   -1.8890    0.0930 C   0  0  0  0  0  0  0  0  0  0  0  0
    2.7729   -0.7418    0.0359 C   0  0  0  0  0  0  0  0  0  0  0  0
    3.3279    0.5710   -0.0408 C   0  0  0  0  0  0  0  0  0  0  0  0
    2.6354    1.4289   -0.0319 H   0  0  0  0  0  0  0  0  0  0  0  0
    4.7042    0.7301   -0.0882 C   0  0  0  0  0  0  0  0  0  0  0  0
    5.1326    1.7421   -0.1457 H   0  0  0  0  0  0  0  0  0  0  0  0
    5.5729   -0.3970   -0.0569 C   0  0  0  0  0  0  0  0  0  0  0  0
    6.6618   -0.2435   -0.0997 H   0  0  0  0  0  0  0  0  0  0  0  0
    5.0598   -1.6826    0.0374 C   0  0  0  0  0  0  0  0  0  0  0  0
    5.7295   -2.5558    0.0743 H   0  0  0  0  0  0  0  0  0  0  0  0
   -0.5833   -2.1541    0.2215 C   0  0  1  0  0  3  0  0  0  0  0  0
   -2.7549   -1.5893    0.2089 C   0  0  2  0  0  0  0  0  0  0  0  0
   -3.0602   -1.0336    1.1244 H   0  0  0  0  0  0  0  0  0  0  0  0
   -2.5919   -3.1075    0.4829 C   0  0  0  0  0  0  0  0  0  0  0  0
   -3.0806   -3.4610    1.4095 H   0  0  0  0  0  0  0  0  0  0  0  0
   -2.9326   -3.7322   -0.3716 H   0  0  0  0  0  0  0  0  0  0  0  0
   -3.8715    0.2440   -1.1679 C   0  0  0  0  0  0  0  0  0  0  0  0
   -4.6106    0.4498   -1.9680 H   0  0  0  0  0  0  0  0  0  0  0  0
   -2.9006    0.6775   -1.4869 H   0  0  0  0  0  0  0  0  0  0  0  0
   -4.1884    0.7835   -0.2522 H   0  0  0  0  0  0  0  0  0  0  0  0
   -3.7680   -1.2613   -0.9053 C   0  0  0  0  0  0  0  0  0  0  0  0
   -3.4057   -1.7646   -1.8318 H   0  0  0  0  0  0  0  0  0  0  0  0
   -5.1427   -1.8398   -0.5387 C   0  0  0  0  0  0  0  0  0  0  0  0
   -5.8835   -1.6173   -1.3320 H   0  0  0  0  0  0  0  0  0  0  0  0
   -5.5178   -1.3887    0.4042 H   0  0  0  0  0  0  0  0  0  0  0  0
   -5.1252   -2.9411   -0.4051 H   0  0  0  0  0  0  0  0  0  0  0  0
  2 20  1  0  0  0  0
  2 19  1  0  0  0  0
  3  4  1  0  0  0  0
  4  5  2  0  0  0  0
  5  6  1  0  0  0  0
  7  8  1  0  0  0  0
  7  5  1  0  0  0  0
  9  7  2  0  0  0  0
 10  3  2  0  0  0  0
 10  9  1  0  0  0  0
 11 12  1  0  0  0  0
 11 10  1  0  0  0  0
 13 15  1  0  0  0  0
 13 11  2  0  0  0  0
 14 13  1  0  0  0  0
 15 17  2  0  0  0  0
 16 15  1  0  0  0  0
 17 18  1  0  0  0  0
 17  9  1  0  0  0  0
 19  4  1  1  0  0  0
 19  1  1  0  0  0  0
 20 22  1  0  0  0  0
 20 21  1  1  0  0  0
 22  1  1  0  0  0  0
 22 23  1  0  0  0  0
 24 22  1  0  0  0  0
 25 29  1  0  0  0  0
 25 28  1  0  0  0  0
 26 25  1  0  0  0  0
 27 25  1  0  0  0  0
 29 31  1  0  0  0  0
 29 20  1  0  0  0  0
 30 29  1  0  0  0  0
 31 34  1  0  0  0  0
 31 33  1  0  0  0  0
 32 31  1  0  0  0  0
M  END
