2
q = -1.0, confidence = 0.112

 50 53  0  0  0  0  0  0  0  0999 V2000
    1.6094   -0.1503   -0.0848 P   0  0  0  0  0  4  0  0  0  0  0  0
   -3.0254   -1.2283   -0.1385 N   0  0  0  0  0  2  0  0  0  0  0  0
    1.8341    1.6032   -0.4952 C   0  0  0  0  0  0  0  0  0  0  0  0
    2.3091   -0.9163    4.4180 C   0  0  0  0  0  0  0  0  0  0  0  0
    2.4667   -1.1022    5.4911 H   0  0  0  0  0  0  0  0  0  0  0  0
    1.9092    0.6397    2.5904 C   0  0  0  0  0  0  0  0  0  0  0  0
    1.7213    1.6597    2.2283 H   0  0  0  0  0  0  0  0  0  0  0  0
   -4.6359   -2.8226   -0.9498 C   0  0  0  0  0  0  0  0  0  0  0  0
   -5.6730   -3.0321   -1.2482 H   0  0  0  0  0  0  0  0  0  0  0  0
    1.8960   -0.4397    1.6856 C   0  0  0  0  0  0  0  0  0  0  0  0
    2.0840   -1.7591    2.1503 C   0  0  0  0  0  0  0  0  0  0  0  0
    2.0813   -2.6060    1.4478 H   0  0  0  0  0  0  0  0  0  0  0  0
   -4.2802   -1.5392   -0.5165 C   0  0  0  0  0  3  0  0  0  0  0  0
   -5.0049   -0.7070   -0.4391 H   0  0  0  0  0  0  0  0  0  0  0  0
   -3.6471   -3.8138   -0.9903 C   0  0  0  0  0  0  0  0  0  0  0  0
   -3.8852   -4.8343   -1.3272 H   0  0  0  0  0  0  0  0  0  0  0  0
   -2.3454   -3.4861   -0.5872 C   0  0  0  0  0  0  0  0  0  0  0  0
   -1.5450   -4.2410   -0.5921 H   0  0  0  0  0  0  0  0  0  0  0  0
   -2.0614   -2.1765   -0.1599 C   0  0  0  0  0  0  0  0  0  0  0  0
    2.1239    0.3954    3.9534 C   0  0  0  0  0  0  0  0  0  0  0  0
    2.1275    1.2386    4.6595 H   0  0  0  0  0  0  0  0  0  0  0  0
    0.7971    2.3997   -1.0140 C   0  0  0  0  0  0  0  0  0  0  0  0
   -0.2161    2.0011   -1.1925 H   0  0  0  0  0  0  0  0  0  0  0  0
    3.1222    2.1437   -0.2786 C   0  0  0  0  0  0  0  0  0  0  0  0
    3.9365    1.5141    0.1123 H   0  0  0  0  0  0  0  0  0  0  0  0
    2.2870   -1.9933    3.5175 C   0  0  0  0  0  0  0  0  0  0  0  0
    2.4278   -3.0226    3.8795 H   0  0  0  0  0  0  0  0  0  0  0  0
    2.9018   -1.0921   -2.3716 C   0  0  0  0  0  0  0  0  0  0  0  0
    2.0064   -0.7340   -2.9037 H   0  0  0  0  0  0  0  0  0  0  0  0
    4.1684   -1.3950   -0.3109 C   0  0  0  0  0  0  0  0  0  0  0  0
    4.2592   -1.2914    0.7799 H   0  0  0  0  0  0  0  0  0  0  0  0
    1.0642    3.7428   -1.3208 C   0  0  0  0  0  0  0  0  0  0  0  0
    0.2521    4.3589   -1.7348 H   0  0  0  0  0  0  0  0  0  0  0  0
    3.3642    3.4920   -0.5680 C   0  0  0  0  0  0  0  0  0  0  0  0
    4.3636    3.9168   -0.3911 H   0  0  0  0  0  0  0  0  0  0  0  0
    2.3340    4.2920   -1.0922 C   0  0  0  0  0  0  0  0  0  0  0  0
    2.5274    5.3502   -1.3256 H   0  0  0  0  0  0  0  0  0  0  0  0
    2.9942   -0.9765   -0.9672 C   0  0  0  0  0  0  0  0  0  0  0  0
    5.2268   -1.9465   -1.0505 C   0  0  0  0  0  0  0  0  0  0  0  0
    6.1388   -2.2754   -0.5300 H   0  0  0  0  0  0  0  0  0  0  0  0
    3.9617   -1.6436   -3.1030 C   0  0  0  0  0  0  0  0  0  0  0  0
    3.8805   -1.7307   -4.1968 H   0  0  0  0  0  0  0  0  0  0  0  0
    5.1242   -2.0757   -2.4432 C   0  0  0  0  0  0  0  0  0  0  0  0
    5.9554   -2.5091   -3.0196 H   0  0  0  0  0  0  0  0  0  0  0  0
   -0.6836   -1.7805    0.3145 C   0  0  0  0  0  0  0  0  0  0  0  0
   -0.1114   -2.6972    0.5561 H   0  0  0  0  0  0  0  0  0  0  0  0
   -0.8009   -1.1753    1.2384 H   0  0  0  0  0  0  0  0  0  0  0  0
    0.0665   -0.9240   -0.7233 C   0  0  0  0  0  0  0  0  0  0  0  0
   -0.5923   -0.1095   -1.1146 H   0  0  0  0  0  0  0  0  0  0  0  0
    0.3695   -1.5353   -1.5969 H   0  0  0  0  0  0  0  0  0  0  0  0
  1 10  1  0  0  0  0
  3 24  1  0  0  0  0
  3  1  1  0  0  0  0
  4  5  1  0  0  0  0
  6 20  2  0  0  0  0
  7  6  1  0  0  0  0
  8 13  1  0  0  0  0
  9  8  1  0  0  0  0
 10 11  2  0  0  0  0
 10  6  1  0  0  0  0
 11 26  1  0  0  0  0
 12 11  1  0  0  0  0
 13 14  1  0  0  0  0
 13  2  1  0  0  0  0
 15  8  2  0  0  0  0
 15 17  1  0  0  0  0
 16 15  1  0  0  0  0
 17 19  2  0  0  0  0
 18 17  1  0  0  0  0
 19  2  1  0  0  0  0
 19 45  1  0  0  0  0
 20  4  1  0  0  0  0
 20 21  1  0  0  0  0
 22  3  2  0  0  0  0
 23 22  1  0  0  0  0
 24 25  1  0  0  0  0
 26 27  1  0  0  0  0
 26  4  2  0  0  0  0
 28 38  1  0  0  0  0
 29 28  1  0  0  0  0
 30 31  1  0  0  0  0
 32 36  2  0  0  0  0
 32 22  1  0  0  0  0
 33 32  1  0  0  0  0
 34 35  1  0  0  0  0
 34 24  2  0  0  0  0
 36 34  1  0  0  0  0
 37 36  1  0  0  0  0
 38 30  2  0  0  0  0
 38  1  1  0  0  0  0
 39 40  1  0  0  0  0
 39 30  1  0  0  0  0
 41 43  1  0  0  0  0
 41 28  2  0  0  0  0
 42 41  1  0  0  0  0
 43 39  2  0  0  0  0
 44 43  1  0  0  0  0
 45 46  1  0  0  0  0
 45 47  1  0  0  0  0
 48  1  1  0  0  0  0
 48 45  1  0  0  0  0
 49 48  1  0  0  0  0
 50 48  1  0  0  0  0
M  END
