4
q = -1.0, confidence = 0.0

 24 25  0  0  0  0  0  0  0  0999 V2000
    3.0572    3.5025    0.0924 O   0  0  0  0  0  0  0  0  0  0  0  0
    6.3131   -3.2342   -0.2520 O   0  0  0  0  0  0  0  0  0  0  0  0
    7.5962   -1.5896    0.4058 O   0  0  0  0  0  0  0  0  0  0  0  0
    2.0110    1.4358   -0.2090 N   0  0  0  0  0  2  0  0  0  0  0  0
    6.5082   -2.0508    0.0479 N   0  0  0  0  0  0  0  0  0  0  0  0
    2.0458    2.8239   -0.1180 C   0  0  0  0  0  0  0  0  0  0  0  0
    0.7139    3.5166   -0.2917 C   0  0  0  0  0  0  0  0  0  0  0  0
    0.7438    4.9838   -0.6686 C   0  0  0  0  0  0  0  0  0  0  0  0
    0.3588    4.5945    0.7258 C   0  0  0  0  0  0  0  0  0  0  0  0
    3.1597    0.6355   -0.1445 C   0  0  0  0  0  0  0  0  0  0  0  0
    4.4467    1.0953    0.2618 C   0  0  0  0  0  0  0  0  0  0  0  0
    5.5302    0.2173    0.3206 C   0  0  0  0  0  0  0  0  0  0  0  0
    5.3658   -1.1323   -0.0248 C   0  0  0  0  0  0  0  0  0  0  0  0
    4.1160   -1.6171   -0.4422 C   0  0  0  0  0  0  0  0  0  0  0  0
    3.0382   -0.7392   -0.5029 C   0  0  0  0  0  0  0  0  0  0  0  0
    4.5644    2.1513    0.5242 H   0  0  0  0  0  0  0  0  0  0  0  0
    6.5229    0.5607    0.6416 H   0  0  0  0  0  0  0  0  0  0  0  0
    4.0216   -2.6751   -0.7199 H   0  0  0  0  0  0  0  0  0  0  0  0
    2.0581   -1.1071   -0.8506 H   0  0  0  0  0  0  0  0  0  0  0  0
   -0.1203    2.9121   -0.6867 H   0  0  0  0  0  0  0  0  0  0  0  0
   -0.0343    5.3471   -1.3569 H   0  0  0  0  0  0  0  0  0  0  0  0
    1.7522    5.4036   -0.8067 H   0  0  0  0  0  0  0  0  0  0  0  0
   -0.6960    4.6738    1.0343 H   0  0  0  0  0  0  0  0  0  0  0  0
    1.1000    4.7676    1.5216 H   0  0  0  0  0  0  0  0  0  0  0  0
  2  5  2  0  0  0  0
  4 10  1  0  0  0  0
  4  6  1  0  0  0  0
  5  3  2  0  0  0  0
  6  1  2  0  0  0  0
  7  6  1  0  0  0  0
  7  9  1  0  0  0  0
  8  7  1  0  0  0  0
  8  9  1  0  0  0  0
  9 23  1  0  0  0  0
  9 24  1  0  0  0  0
 10 11  1  0  0  0  0
 11 12  2  0  0  0  0
 11 16  1  0  0  0  0
 12 17  1  0  0  0  0
 13  5  1  0  0  0  0
 13 12  1  0  0  0  0
 14 13  2  0  0  0  0
 15 14  1  0  0  0  0
 15 10  2  0  0  0  0
 18 14  1  0  0  0  0
 19 15  1  0  0  0  0
 20  7  1  0  0  0  0
 21  8  1  0  0  0  0
 22  8  1  0  0  0  0
M  END
