16
q = -1.0

 24 24  0  0  0  0  0  0  0  0999 V2000
   -1.1892   -2.2656    0.2526 C   0  0  0  0  0  0  0  0  0  0  0  0
   -1.4243   -2.5308    1.2919 H   0  0  0  0  0  0  0  0  0  0  0  0
   -0.0046   -2.6214   -0.4441 C   0  0  0  0  0  3  0  0  0  0  0  0
    0.8273   -3.2062   -0.0402 H   0  0  0  0  0  0  0  0  0  0  0  0
   -0.0965   -2.0989   -1.7637 C   0  0  0  0  0  0  0  0  0  0  0  0
    0.6633   -2.1883   -2.5510 H   0  0  0  0  0  0  0  0  0  0  0  0
   -1.3606   -1.4543   -1.8935 C   0  0  0  0  0  0  0  0  0  0  0  0
   -1.7219   -0.9253   -2.7825 H   0  0  0  0  0  0  0  0  0  0  0  0
   -2.0411   -1.5493   -0.6487 C   0  0  0  0  0  0  0  0  0  0  0  0
   -3.3361   -0.8683   -0.2978 C   0  0  0  0  0  0  0  0  0  0  0  0
   -3.7860   -1.3378    0.6008 H   0  0  0  0  0  0  0  0  0  0  0  0
   -4.0787   -0.9896   -1.1130 H   0  0  0  0  0  0  0  0  0  0  0  0
   -3.1164    0.6331   -0.0835 C   0  0  0  0  0  0  0  0  0  0  0  0
   -2.8578    1.1085   -1.0512 H   0  0  0  0  0  0  0  0  0  0  0  0
   -4.0419    1.1250    0.3066 H   0  0  0  0  0  0  0  0  0  0  0  0
   -1.9790    0.9244    0.8327 N   0  0  0  0  0  0  0  0  0  0  0  0
   -1.8075    2.3898    0.8998 C   0  0  0  0  0  0  0  0  0  0  0  0
   -1.5379    2.7686   -0.1034 H   0  0  0  0  0  0  0  0  0  0  0  0
   -0.9935    2.6408    1.6026 H   0  0  0  0  0  0  0  0  0  0  0  0
   -2.7452    2.8805    1.2524 H   0  0  0  0  0  0  0  0  0  0  0  0
   -2.2537    0.4099    2.1852 C   0  0  0  0  0  0  0  0  0  0  0  0
   -2.3417   -0.6905    2.1791 H   0  0  0  0  0  0  0  0  0  0  0  0
   -3.2005    0.8394    2.5914 H   0  0  0  0  0  0  0  0  0  0  0  0
   -1.4255    0.6838    2.8638 H   0  0  0  0  0  0  0  0  0  0  0  0
  1  2  1  0  0  0  0
  3  4  1  0  0  0  0
  3  1  1  0  0  0  0
  5  3  1  0  0  0  0
  6  5  1  0  0  0  0
  7  5  2  0  0  0  0
  7  9  1  0  0  0  0
  8  7  1  0  0  0  0
  9 10  1  0  0  0  0
  9  1  2  0  0  0  0
 10 13  1  0  0  0  0
 10 11  1  0  0  0  0
 12 10  1  0  0  0  0
 13 15  1  0  0  0  0
 13 16  1  0  0  0  0
 14 13  1  0  0  0  0
 16 17  1  0  0  0  0
 16 21  1  0  0  0  0
 17 20  1  0  0  0  0
 17 19  1  0  0  0  0
 18 17  1  0  0  0  0
 21 23  1  0  0  0  0
 21 24  1  0  0  0  0
 22 21  1  0  0  0  0
M  END
