2
q = -1.0

 17 17  0  0  0  0  0  0  0  0999 V2000
   -1.2602    1.5686    2.4160 C   0  0  0  0  0  0  0  0  0  0  0  0
   -1.0458    0.8535    1.1805 N   0  0  0  0  0  2  0  0  0  0  0  0
   -1.7687    0.2356    0.2853 C   0  0  0  0  0  2  0  0  0  0  0  0
   -3.1939    0.0914    0.0968 C   0  0  0  0  0  0  0  0  0  0  0  0
   -3.7470   -1.0291   -0.5738 C   0  0  0  0  0  0  0  0  0  0  0  0
   -5.1318   -1.1404   -0.7285 C   0  0  0  0  0  0  0  0  0  0  0  0
   -5.9830   -0.1344   -0.2400 C   0  0  0  0  0  0  0  0  0  0  0  0
   -5.4467    0.9852    0.4192 C   0  0  0  0  0  0  0  0  0  0  0  0
   -4.0654    1.0971    0.5989 C   0  0  0  0  0  0  0  0  0  0  0  0
   -0.3334    1.5366    3.0174 H   0  0  0  0  0  0  0  0  0  0  0  0
   -1.5038    2.6287    2.1947 H   0  0  0  0  0  0  0  0  0  0  0  0
   -2.1034    1.1200    2.9793 H   0  0  0  0  0  0  0  0  0  0  0  0
   -3.0919   -1.8245   -0.9505 H   0  0  0  0  0  0  0  0  0  0  0  0
   -5.5531   -2.0195   -1.2375 H   0  0  0  0  0  0  0  0  0  0  0  0
   -7.0715   -0.2228   -0.3739 H   0  0  0  0  0  0  0  0  0  0  0  0
   -6.1121    1.7758    0.7958 H   0  0  0  0  0  0  0  0  0  0  0  0
   -3.6542    1.9841    1.1009 H   0  0  0  0  0  0  0  0  0  0  0  0
  1 12  1  0  0  0  0
  1 10  1  0  0  0  0
  2  1  1  0  0  0  0
  3  2  1  0  0  0  0
  4  3  1  0  0  0  0
  4  9  1  0  0  0  0
  5  4  2  0  0  0  0
  6  5  1  0  0  0  0
  6  7  2  0  0  0  0
  7  8  1  0  0  0  0
  8  9  2  0  0  0  0
  8 16  1  0  0  0  0
  9 17  1  0  0  0  0
 11  1  1  0  0  0  0
 13  5  1  0  0  0  0
 14  6  1  0  0  0  0
 15  7  1  0  0  0  0
M  END
