3
q = 0.0, confidence = 0.976

 43 45  0  0  1  0  0  0  0  0999 V2000
   -3.6764   -1.3161   -2.8161 O   0  0  0  0  0  0  0  0  0  0  0  0
    5.9922    1.2984   -1.4733 O   0  0  0  0  0  0  0  0  0  0  0  0
    0.5813   -1.3483    0.5681 N   0  0  0  0  0  2  0  0  0  0  0  0
    3.8462    0.2698    0.0872 N   0  0  0  0  0  0  0  0  0  0  0  0
   -1.9324   -1.6539   -0.4935 N   0  0  0  0  0  0  0  0  0  0  0  0
    4.6839    1.3651    0.5768 C   0  0  0  0  0  0  0  0  0  0  0  0
    4.7748    1.2902    1.6816 H   0  0  0  0  0  0  0  0  0  0  0  0
    4.2361    2.3656    0.3372 H   0  0  0  0  0  0  0  0  0  0  0  0
    6.0707    1.2780   -0.0606 C   0  0  0  0  0  0  0  0  0  0  0  0
    6.6905    2.1439    0.2448 H   0  0  0  0  0  0  0  0  0  0  0  0
    6.5729    0.3421    0.2907 H   0  0  0  0  0  0  0  0  0  0  0  0
    5.2094    0.2178   -1.9474 C   0  0  0  0  0  0  0  0  0  0  0  0
    5.6833   -0.7581   -1.6729 H   0  0  0  0  0  0  0  0  0  0  0  0
    5.1839    0.2946   -3.0522 H   0  0  0  0  0  0  0  0  0  0  0  0
    3.7931    0.2687   -1.3795 C   0  0  0  0  0  0  0  0  0  0  0  0
    3.2692    1.1804   -1.7624 H   0  0  0  0  0  0  0  0  0  0  0  0
    3.2098   -0.6097   -1.7274 H   0  0  0  0  0  0  0  0  0  0  0  0
    2.5333    0.2298    0.6971 C   0  0  0  0  0  0  0  0  0  0  0  0
    1.8174    0.9567    0.2483 H   0  0  0  0  0  0  0  0  0  0  0  0
    2.6545    0.4962    1.7713 H   0  0  0  0  0  0  0  0  0  0  0  0
    1.9281   -1.1620    0.6380 C   0  0  1  0  0  3  0  0  0  0  0  0
    2.7972   -2.2686    0.6838 C   0  0  0  0  0  0  0  0  0  0  0  0
    3.8724   -2.0415    0.7241 H   0  0  0  0  0  0  0  0  0  0  0  0
    2.2947   -3.5687    0.6464 C   0  0  0  0  0  0  0  0  0  0  0  0
    2.9708   -4.4356    0.6823 H   0  0  0  0  0  0  0  0  0  0  0  0
    0.9074   -3.7464    0.5454 C   0  0  0  0  0  0  0  0  0  0  0  0
    0.4586   -4.7477    0.4837 H   0  0  0  0  0  0  0  0  0  0  0  0
    0.0854   -2.6185    0.5133 C   0  0  0  0  0  0  0  0  0  0  0  0
   -1.4067   -2.7103    0.4126 C   0  0  0  0  0  0  0  0  0  0  0  0
   -1.7145   -3.7174    0.0540 H   0  0  0  0  0  0  0  0  0  0  0  0
   -1.8654   -2.5576    1.4121 H   0  0  0  0  0  0  0  0  0  0  0  0
   -1.5113   -1.9736   -1.9034 C   0  0  0  0  0  0  0  0  0  0  0  0
   -1.7196   -3.0547   -2.0697 H   0  0  0  0  0  0  0  0  0  0  0  0
   -0.4259   -1.7891   -1.9997 H   0  0  0  0  0  0  0  0  0  0  0  0
   -2.2730   -1.1534   -2.9406 C   0  0  0  0  0  0  0  0  0  0  0  0
   -1.9846   -0.0829   -2.8516 H   0  0  0  0  0  0  0  0  0  0  0  0
   -1.9861   -1.5058   -3.9504 H   0  0  0  0  0  0  0  0  0  0  0  0
   -4.0854   -0.8844   -1.5395 C   0  0  0  0  0  0  0  0  0  0  0  0
   -5.1847   -1.0091   -1.4759 H   0  0  0  0  0  0  0  0  0  0  0  0
   -3.8487    0.1964   -1.3944 H   0  0  0  0  0  0  0  0  0  0  0  0
   -3.4280   -1.7201   -0.4476 C   0  0  0  0  0  0  0  0  0  0  0  0
   -3.7740   -1.4241    0.5590 H   0  0  0  0  0  0  0  0  0  0  0  0
   -3.7220   -2.7825   -0.6060 H   0  0  0  0  0  0  0  0  0  0  0  0
  1 38  1  0  0  0  0
  2  9  1  0  0  0  0
  3 21  1  0  0  0  0
  4  6  1  0  0  0  0
  4 18  1  0  0  0  0
  5 41  1  0  0  0  0
  5 29  1  0  0  0  0
  6  7  1  0  0  0  0
  8  6  1  0  0  0  0
  9 10  1  0  0  0  0
  9 11  1  0  0  0  0
  9  6  1  0  0  0  0
 12 13  1  0  0  0  0
 12  2  1  0  0  0  0
 12 15  1  0  0  0  0
 14 12  1  0  0  0  0
 15  4  1  0  0  0  0
 16 15  1  0  0  0  0
 17 15  1  0  0  0  0
 18 20  1  0  0  0  0
 19 18  1  0  0  0  0
 21 22  1  0  0  0  0
 21 18  1  1  0  0  0
 22 23  1  0  0  0  0
 24 25  1  0  0  0  0
 24 22  2  0  0  0  0
 26 24  1  0  0  0  0
 27 26  1  0  0  0  0
 28 26  2  0  0  0  0
 28  3  1  0  0  0  0
 29 28  1  0  0  0  0
 29 31  1  0  0  0  0
 30 29  1  0  0  0  0
 32  5  1  0  0  0  0
 33 32  1  0  0  0  0
 34 32  1  0  0  0  0
 35 36  1  0  0  0  0
 35  1  1  0  0  0  0
 35 32  1  0  0  0  0
 37 35  1  0  0  0  0
 38 39  1  0  0  0  0
 38 40  1  0  0  0  0
 38 41  1  0  0  0  0
 41 42  1  0  0  0  0
 43 41  1  0  0  0  0
M  END
