1
q = 0.0, confidence = 1.0

 33 35  0  0  1  0  0  0  0  0999 V2000
    0.3922    2.2844    0.2446 N   0  0  0  0  0  2  0  0  0  0  0  0
   -3.0794   -1.5064    1.5202 N   0  0  0  0  0  0  0  0  0  0  0  0
   -1.5971    0.9151    0.9403 B   0  0  0  0  0  0  0  0  0  0  0  0
    1.1258    3.4019    0.0229 C   0  0  1  0  0  3  0  0  0  0  0  0
    0.5525    4.6622    0.2658 C   0  0  0  0  0  0  0  0  0  0  0  0
    1.1512    5.5670    0.0891 H   0  0  0  0  0  0  0  0  0  0  0  0
   -0.7699    4.7465    0.7204 C   0  0  0  0  0  0  0  0  0  0  0  0
   -1.2293    5.7300    0.9047 H   0  0  0  0  0  0  0  0  0  0  0  0
   -1.4979    3.5696    0.9346 C   0  0  0  0  0  0  0  0  0  0  0  0
   -2.5387    3.5997    1.2884 H   0  0  0  0  0  0  0  0  0  0  0  0
   -0.8900    2.3227    0.6983 C   0  0  0  0  0  0  0  0  0  0  0  0
    2.5275    3.2220   -0.4752 C   0  0  0  0  0  0  0  0  0  0  0  0
    2.5163    2.6584   -1.4308 H   0  0  0  0  0  0  0  0  0  0  0  0
    3.1037    2.6105    0.2497 H   0  0  0  0  0  0  0  0  0  0  0  0
    3.0315    4.1946   -0.6261 H   0  0  0  0  0  0  0  0  0  0  0  0
   -1.3094    0.0486    2.1565 C   0  0  0  0  0  0  0  0  0  0  0  0
   -0.5070    0.2425    2.8829 H   0  0  0  0  0  0  0  0  0  0  0  0
   -2.0579   -1.0882    2.3471 C   0  0  0  0  0  0  0  0  0  0  0  0
   -1.8869   -1.7674    3.1990 H   0  0  0  0  0  0  0  0  0  0  0  0
   -3.4573   -0.7797    0.3869 C   0  0  0  0  0  0  0  0  0  0  0  0
   -2.7683    0.4321    0.0546 C   0  0  0  0  0  0  0  0  0  0  0  0
   -3.1716    1.1145   -1.1224 C   0  0  0  0  0  0  0  0  0  0  0  0
   -2.6225    2.0255   -1.4037 H   0  0  0  0  0  0  0  0  0  0  0  0
   -4.2042    0.6509   -1.9345 C   0  0  0  0  0  0  0  0  0  0  0  0
   -4.4877    1.1969   -2.8465 H   0  0  0  0  0  0  0  0  0  0  0  0
   -4.8750   -0.5383   -1.5822 C   0  0  0  0  0  0  0  0  0  0  0  0
   -5.6918   -0.9191   -2.2147 H   0  0  0  0  0  0  0  0  0  0  0  0
   -4.5125   -1.2509   -0.4399 C   0  0  0  0  0  0  0  0  0  0  0  0
   -5.0502   -2.1768   -0.2004 H   0  0  0  0  0  0  0  0  0  0  0  0
   -3.7699   -2.7487    1.8396 C   0  0  0  0  0  0  0  0  0  0  0  0
   -3.3352   -3.1744    2.7611 H   0  0  0  0  0  0  0  0  0  0  0  0
   -3.6581   -3.4912    1.0221 H   0  0  0  0  0  0  0  0  0  0  0  0
   -4.8529   -2.5772    2.0094 H   0  0  0  0  0  0  0  0  0  0  0  0
  1 11  1  0  0  0  0
  2 30  1  0  0  0  0
  2 18  1  0  0  0  0
  3 16  1  0  0  0  0
  4 12  1  1  0  0  0
  4  1  1  0  0  0  0
  4  5  1  0  0  0  0
  5  7  2  0  0  0  0
  6  5  1  0  0  0  0
  7  8  1  0  0  0  0
  7  9  1  0  0  0  0
  9 10  1  0  0  0  0
 11  9  2  0  0  0  0
 11  3  1  0  0  0  0
 12 14  1  0  0  0  0
 13 12  1  0  0  0  0
 15 12  1  0  0  0  0
 16 18  2  0  0  0  0
 16 17  1  0  0  0  0
 18 19  1  0  0  0  0
 20  2  1  0  0  0  0
 21 20  1  0  0  0  0
 21  3  1  0  0  0  0
 22 21  2  0  0  0  0
 23 22  1  0  0  0  0
 24 26  2  0  0  0  0
 24 22  1  0  0  0  0
 25 24  1  0  0  0  0
 26 28  1  0  0  0  0
 27 26  1  0  0  0  0
 28 29  1  0  0  0  0
 28 20  2  0  0  0  0
 30 33  1  0  0  0  0
 30 31  1  0  0  0  0
 32 30  1  0  0  0  0
M  END
