1
q = 0.0, confidence = 1.0

 19 19  0  0  0  0  0  0  0  0999 V2000
   -0.8009   -0.2680    0.1633 N   0  0  0  0  0  2  0  0  0  0  0  0
   -1.4298    0.9020    0.4432 C   0  0  0  0  0  3  0  0  0  0  0  0
   -0.7800    1.7015    0.8290 H   0  0  0  0  0  0  0  0  0  0  0  0
   -3.6153   -0.0212   -0.1170 C   0  0  0  0  0  0  0  0  0  0  0  0
   -2.9398   -1.2356   -0.3764 C   0  0  0  0  0  0  0  0  0  0  0  0
   -3.4767   -2.1390   -0.6953 H   0  0  0  0  0  0  0  0  0  0  0  0
   -2.8043    1.0600    0.3106 C   0  0  0  0  0  0  0  0  0  0  0  0
   -3.2744    2.0235    0.5470 H   0  0  0  0  0  0  0  0  0  0  0  0
   -5.0733    0.1381   -0.2588 C   0  0  0  0  0  0  0  0  0  0  0  0
   -1.5548   -1.3213   -0.2228 C   0  0  0  0  0  0  0  0  0  0  0  0
   -1.0110   -2.2648   -0.3748 H   0  0  0  0  0  0  0  0  0  0  0  0
   -5.5520    1.3315   -0.0075 N   0  0  0  0  0  0  0  0  0  0  0  0
   -6.8557    1.5625   -0.1549 N   0  0  0  0  0  0  0  0  0  0  0  0
   -7.5284    0.7821   -0.1501 H   0  0  0  0  0  0  0  0  0  0  0  0
   -7.1769    2.4252    0.2858 H   0  0  0  0  0  0  0  0  0  0  0  0
   -5.9730   -0.9960   -0.6772 C   0  0  0  0  0  0  0  0  0  0  0  0
   -5.4386   -1.9511   -0.8104 H   0  0  0  0  0  0  0  0  0  0  0  0
   -6.7679   -1.1761    0.0823 H   0  0  0  0  0  0  0  0  0  0  0  0
   -6.4883   -0.7592   -1.6343 H   0  0  0  0  0  0  0  0  0  0  0  0
  1  2  1  0  0  0  0
  2  3  1  0  0  0  0
  4  7  2  0  0  0  0
  5 10  2  0  0  0  0
  5  4  1  0  0  0  0
  6  5  1  0  0  0  0
  7  2  1  0  0  0  0
  7  8  1  0  0  0  0
  9  4  1  0  0  0  0
  9 12  2  0  0  0  0
 10  1  1  0  0  0  0
 11 10  1  0  0  0  0
 13 14  1  0  0  0  0
 13 12  1  0  0  0  0
 13 15  1  0  0  0  0
 16  9  1  0  0  0  0
 16 18  1  0  0  0  0
 17 16  1  0  0  0  0
 19 16  1  0  0  0  0
M  END
