6
q = -1.0

 20 21  0  0  0  0  0  0  0  0999 V2000
    0.5396    0.1516    3.3474 Cl  0  0  0  0  0  0  0  0  0  0  0  0
   -5.5203   -0.0850   -0.7560 O   0  0  0  0  0  0  0  0  0  0  0  0
   -1.0911   -0.3932   -2.1120 O   0  0  0  0  0  0  0  0  0  0  0  0
   -3.3127   -0.2135   -1.4160 N   0  0  0  0  0  0  0  0  0  0  0  0
   -3.9244    0.0550    0.8870 N   0  0  0  0  0  0  0  0  0  0  0  0
   -0.3684   -0.0284    0.8304 N   0  0  0  0  0  0  0  0  0  0  0  0
   -2.0129    0.1452    2.4263 N   0  0  0  0  0  0  0  0  0  0  0  0
   -4.3325   -0.0780   -0.4431 C   0  0  0  0  0  0  0  0  0  0  0  0
   -2.5788    0.0692    1.1977 C   0  0  0  0  0  0  0  0  0  0  0  0
   -1.6012   -0.0303    0.1950 C   0  0  0  0  0  0  0  0  0  0  0  0
   -1.9056   -0.2220   -1.1879 C   0  0  0  0  0  0  0  0  0  0  0  0
   -0.6952    0.0813    2.1323 C   0  0  0  0  0  3  0  0  0  0  0  0
   -3.7860   -0.3791   -2.7855 C   0  0  0  0  0  0  0  0  0  0  0  0
   -4.4222   -1.2820   -2.8701 H   0  0  0  0  0  0  0  0  0  0  0  0
   -2.8929   -0.4729   -3.4276 H   0  0  0  0  0  0  0  0  0  0  0  0
   -4.3998    0.4911   -3.0903 H   0  0  0  0  0  0  0  0  0  0  0  0
   -4.9479    0.1706    1.9158 C   0  0  0  0  0  0  0  0  0  0  0  0
   -5.5535    1.0861    1.7627 H   0  0  0  0  0  0  0  0  0  0  0  0
   -4.4330    0.2123    2.8920 H   0  0  0  0  0  0  0  0  0  0  0  0
   -5.6334   -0.6985    1.8767 H   0  0  0  0  0  0  0  0  0  0  0  0
  2  8  2  0  0  0  0
  3 11  2  0  0  0  0
  4 11  1  0  0  0  0
  4  8  1  0  0  0  0
  5  9  1  0  0  0  0
  5 17  1  0  0  0  0
  6 12  1  0  0  0  0
  8  5  1  0  0  0  0
  9  7  2  0  0  0  0
 10  6  2  0  0  0  0
 10  9  1  0  0  0  0
 11 10  1  0  0  0  0
 12  7  1  0  0  0  0
 12  1  1  0  0  0  0
 13  4  1  0  0  0  0
 14 13  1  0  0  0  0
 15 13  1  0  0  0  0
 16 13  1  0  0  0  0
 17 19  1  0  0  0  0
 18 17  1  0  0  0  0
 20 17  1  0  0  0  0
M  END
