1
q = 0.0, confidence = 0.584

 14 13  0  0  0  0  0  0  0  0999 V2000
   -0.7011   -0.2300   -0.4366 N   0  0  0  0  0  2  0  0  0  0  0  0
   -2.9633   -1.1072    0.0224 C   0  0  0  0  0  0  0  0  0  0  0  0
   -1.7282   -1.1193   -0.8682 C   0  0  0  0  0  0  0  0  0  0  0  0
   -2.0706   -0.8816   -1.9015 H   0  0  0  0  0  0  0  0  0  0  0  0
   -1.3196   -2.1518   -0.8492 H   0  0  0  0  0  0  0  0  0  0  0  0
   -0.3416    1.0617   -0.8040 C   0  0  0  0  0  3  0  0  0  0  0  0
   -0.2101    1.2928   -1.8842 H   0  0  0  0  0  0  0  0  0  0  0  0
   -0.9057    2.2360   -0.0660 C   0  0  0  0  0  0  0  0  0  0  0  0
   -3.8884   -1.9946   -0.4534 F   0  0  0  0  0  0  0  0  0  0  0  0
   -2.6837   -1.4639    1.2928 F   0  0  0  0  0  0  0  0  0  0  0  0
   -3.5635    0.1050    0.0599 F   0  0  0  0  0  0  0  0  0  0  0  0
   -0.9708    2.0470    1.2728 F   0  0  0  0  0  0  0  0  0  0  0  0
   -0.1756    3.3592   -0.2970 F   0  0  0  0  0  0  0  0  0  0  0  0
   -2.1889    2.5470   -0.4668 F   0  0  0  0  0  0  0  0  0  0  0  0
  2 11  1  0  0  0  0
  2 10  1  0  0  0  0
  3  5  1  0  0  0  0
  3  1  1  0  0  0  0
  3  2  1  0  0  0  0
  4  3  1  0  0  0  0
  6  1  1  0  0  0  0
  6  8  1  0  0  0  0
  7  6  1  0  0  0  0
  8 12  1  0  0  0  0
  9  2  1  0  0  0  0
 13  8  1  0  0  0  0
 14  8  1  0  0  0  0
M  END
