1
q = -1.0

 20 21  0  0  0  0  0  0  0  0999 V2000
    2.0358   -0.3943    0.0001 N   0  0  0  0  0  0  0  0  0  0  0  0
    2.2183   -1.7747   -0.0001 C   0  0  0  0  0  0  0  0  0  0  0  0
    1.2212   -2.5251   -0.0002 O   0  0  0  0  0  0  0  0  0  0  0  0
    3.6025   -2.2258   -0.0003 C   0  0  0  0  0  0  0  0  0  0  0  0
    4.6689   -1.3573   -0.0002 C   0  0  0  0  0  0  0  0  0  0  0  0
    5.4536    1.0453   -0.0000 C   0  0  0  0  0  0  0  0  0  0  0  0
    5.1693    2.4101    0.0002 C   0  0  0  0  0  0  0  0  0  0  0  0
    3.8258    2.8438    0.0003 C   0  0  0  0  0  0  0  0  0  0  0  0
    2.7828    1.9198    0.0003 C   0  0  0  0  0  0  0  0  0  0  0  0
    3.0589    0.5296    0.0001 C   0  0  0  0  0  0  0  0  0  0  0  0
    4.4200    0.0748   -0.0000 C   0  0  0  0  0  3  0  0  0  0  0  0
    6.0812   -1.8752   -0.0004 C   0  0  0  0  0  0  0  0  0  0  0  0
    3.7504   -3.3153   -0.0004 H   0  0  0  0  0  0  0  0  0  0  0  0
    6.5006    0.7101   -0.0001 H   0  0  0  0  0  0  0  0  0  0  0  0
    5.9877    3.1448    0.0002 H   0  0  0  0  0  0  0  0  0  0  0  0
    3.5930    3.9192    0.0004 H   0  0  0  0  0  0  0  0  0  0  0  0
    1.7348    2.2642    0.0003 H   0  0  0  0  0  0  0  0  0  0  0  0
    6.6398   -1.5185   -0.8909 H   0  0  0  0  0  0  0  0  0  0  0  0
    6.1017   -2.9807   -0.0004 H   0  0  0  0  0  0  0  0  0  0  0  0
    6.6400   -1.5186    0.8900 H   0  0  0  0  0  0  0  0  0  0  0  0
  1 10  2  0  0  0  0
  2  1  1  0  0  0  0
  3  2  2  0  0  0  0
  4  5  2  0  0  0  0
  4  2  1  0  0  0  0
  5 11  1  0  0  0  0
  6  7  2  0  0  0  0
  7 15  1  0  0  0  0
  7  8  1  0  0  0  0
  8 16  1  0  0  0  0
  9  8  2  0  0  0  0
  9 17  1  0  0  0  0
 10  9  1  0  0  0  0
 11  6  1  0  0  0  0
 11 10  1  0  0  0  0
 12  5  1  0  0  0  0
 12 20  1  0  0  0  0
 13  4  1  0  0  0  0
 14  6  1  0  0  0  0
 18 12  1  0  0  0  0
 19 12  1  0  0  0  0
M  END
