2
q = -1.0

 41 43  0  0  1  0  0  0  0  0999 V2000
    1.0273   -0.1530    0.3717 Si  0  0  0  0  0  3  0  0  0  0  0  0
   -1.4803   -1.3617    1.2398 N   0  0  0  0  0  2  0  0  0  0  0  0
    0.5635   -0.6150    2.0805 N   0  0  0  0  0  0  0  0  0  0  0  0
    1.2567   -0.7101    2.8277 H   0  0  0  0  0  0  0  0  0  0  0  0
   -0.5864   -1.3034    2.2866 C   0  0  2  0  0  3  0  0  0  0  0  0
   -0.8803   -1.9521    3.5208 C   0  0  0  0  0  0  0  0  0  0  0  0
   -0.1539   -1.8755    4.3428 H   0  0  0  0  0  0  0  0  0  0  0  0
   -2.0560   -2.6768    3.6657 C   0  0  0  0  0  0  0  0  0  0  0  0
   -2.2778   -3.1838    4.6170 H   0  0  0  0  0  0  0  0  0  0  0  0
   -2.9474   -2.7635    2.5766 C   0  0  0  0  0  0  0  0  0  0  0  0
   -3.8794   -3.3414    2.6312 H   0  0  0  0  0  0  0  0  0  0  0  0
   -2.6130   -2.0965    1.4027 C   0  0  0  0  0  0  0  0  0  0  0  0
   -3.2709   -2.1395    0.5236 H   0  0  0  0  0  0  0  0  0  0  0  0
    2.2581   -1.5092   -0.1423 C   0  0  0  0  0  0  0  0  0  0  0  0
    1.7773   -2.7354   -0.6549 C   0  0  0  0  0  0  0  0  0  0  0  0
    0.6940   -2.8606   -0.8199 H   0  0  0  0  0  0  0  0  0  0  0  0
    2.6508   -3.7844   -0.9670 C   0  0  0  0  0  0  0  0  0  0  0  0
    2.2472   -4.7293   -1.3664 H   0  0  0  0  0  0  0  0  0  0  0  0
    4.0442   -3.6489   -0.7871 C   0  0  0  0  0  0  0  0  0  0  0  0
    4.5271   -2.4274   -0.2780 C   0  0  0  0  0  0  0  0  0  0  0  0
    5.6118   -2.2971   -0.1301 H   0  0  0  0  0  0  0  0  0  0  0  0
    3.6514   -1.3769    0.0378 C   0  0  0  0  0  0  0  0  0  0  0  0
    4.0643   -0.4325    0.4287 H   0  0  0  0  0  0  0  0  0  0  0  0
    4.9825   -4.7701   -1.1572 C   0  0  0  0  0  0  0  0  0  0  0  0
    5.9934   -4.6160   -0.7317 H   0  0  0  0  0  0  0  0  0  0  0  0
    5.0947   -4.8488   -2.2600 H   0  0  0  0  0  0  0  0  0  0  0  0
    4.6045   -5.7511   -0.8039 H   0  0  0  0  0  0  0  0  0  0  0  0
    2.0488    1.4300    0.5542 C   0  0  0  0  0  0  0  0  0  0  0  0
    2.1965    2.1175    1.7773 C   0  0  0  0  0  0  0  0  0  0  0  0
    1.7073    1.7272    2.6844 H   0  0  0  0  0  0  0  0  0  0  0  0
    2.9404    3.3052    1.8642 C   0  0  0  0  0  0  0  0  0  0  0  0
    3.0365    3.8191    2.8345 H   0  0  0  0  0  0  0  0  0  0  0  0
    3.5640    3.8575    0.7289 C   0  0  0  0  0  0  0  0  0  0  0  0
    3.4221    3.1720   -0.4976 C   0  0  0  0  0  0  0  0  0  0  0  0
    3.9018    3.5798   -1.4024 H   0  0  0  0  0  0  0  0  0  0  0  0
    2.6854    1.9842   -0.5835 C   0  0  0  0  0  0  0  0  0  0  0  0
    2.6001    1.4761   -1.5577 H   0  0  0  0  0  0  0  0  0  0  0  0
    4.3669    5.1311    0.8111 C   0  0  0  0  0  0  0  0  0  0  0  0
    5.4373    4.9472    0.5792 H   0  0  0  0  0  0  0  0  0  0  0  0
    4.3141    5.5843    1.8199 H   0  0  0  0  0  0  0  0  0  0  0  0
    4.0078    5.8838    0.0788 H   0  0  0  0  0  0  0  0  0  0  0  0
  1 28  1  0  0  0  0
  1  3  1  0  0  0  0
  2 12  1  0  0  0  0
  2  5  1  0  0  0  0
  3  4  1  0  0  0  0
  5  3  1  6  0  0  0
  5  6  1  0  0  0  0
  6  8  2  0  0  0  0
  6  7  1  0  0  0  0
  8  9  1  0  0  0  0
 10 11  1  0  0  0  0
 10  8  1  0  0  0  0
 12 10  2  0  0  0  0
 13 12  1  0  0  0  0
 14 22  1  0  0  0  0
 14  1  1  0  0  0  0
 15 14  2  0  0  0  0
 16 15  1  0  0  0  0
 17 19  2  0  0  0  0
 17 15  1  0  0  0  0
 18 17  1  0  0  0  0
 19 20  1  0  0  0  0
 20 21  1  0  0  0  0
 20 22  2  0  0  0  0
 22 23  1  0  0  0  0
 24 27  1  0  0  0  0
 24 19  1  0  0  0  0
 24 25  1  0  0  0  0
 26 24  1  0  0  0  0
 28 29  1  0  0  0  0
 29 31  2  0  0  0  0
 29 30  1  0  0  0  0
 31 32  1  0  0  0  0
 33 38  1  0  0  0  0
 33 31  1  0  0  0  0
 34 33  2  0  0  0  0
 35 34  1  0  0  0  0
 36 34  1  0  0  0  0
 36 28  2  0  0  0  0
 37 36  1  0  0  0  0
 38 40  1  0  0  0  0
 39 38  1  0  0  0  0
 41 38  1  0  0  0  0
M  END
