2
q = 0.0, confidence = 0.958

 20 21  0  0  1  0  0  0  0  0999 V2000
   -3.4964    0.0866   -0.0007 N   0  0  0  0  0  0  0  0  0  0  0  0
   -0.6713   -0.0732   -0.0375 N   0  0  0  0  0  2  0  0  0  0  0  0
   -4.7400    2.3380   -0.8430 N   0  0  0  0  0  0  0  0  0  0  0  0
   -5.2791    3.1545   -1.1259 H   0  0  0  0  0  0  0  0  0  0  0  0
   -5.1916    1.4684   -0.5516 H   0  0  0  0  0  0  0  0  0  0  0  0
   -2.7058    3.3715   -1.1640 O   0  0  0  0  0  0  0  0  0  0  0  0
   -2.7348    1.0974   -0.4022 C   0  0  0  0  0  0  0  0  0  0  0  0
   -1.3207    1.0255   -0.4360 C   0  0  0  0  0  0  0  0  0  0  0  0
   -0.7397    1.8786   -0.8125 H   0  0  0  0  0  0  0  0  0  0  0  0
   -1.4190   -1.1427    0.4283 C   0  0  1  0  0  3  0  0  0  0  0  0
   -0.8008   -2.3215    0.9195 C   0  0  0  0  0  0  0  0  0  0  0  0
    0.2962   -2.3791    0.9155 H   0  0  0  0  0  0  0  0  0  0  0  0
   -1.5876   -3.3723    1.3708 C   0  0  0  0  0  0  0  0  0  0  0  0
   -1.1021   -4.2843    1.7484 H   0  0  0  0  0  0  0  0  0  0  0  0
   -3.0062   -3.2899    1.3478 C   0  0  0  0  0  0  0  0  0  0  0  0
   -3.6062   -4.1397    1.7060 H   0  0  0  0  0  0  0  0  0  0  0  0
   -3.6337   -2.1446    0.8851 C   0  0  0  0  0  0  0  0  0  0  0  0
   -4.7277   -2.0408    0.8640 H   0  0  0  0  0  0  0  0  0  0  0  0
   -2.8611   -1.0407    0.4229 C   0  0  0  0  0  0  0  0  0  0  0  0
   -3.3838    2.3945   -0.8478 C   0  0  0  0  0  0  0  0  0  0  0  0
  1 19  2  0  0  0  0
  3  5  1  0  0  0  0
  4  3  1  0  0  0  0
  6 20  2  0  0  0  0
  7  1  1  0  0  0  0
  8  7  2  0  0  0  0
  8  2  1  0  0  0  0
  9  8  1  0  0  0  0
 10  2  1  1  0  0  0
 10 11  1  0  0  0  0
 11 13  2  0  0  0  0
 12 11  1  0  0  0  0
 13 14  1  0  0  0  0
 15 13  1  0  0  0  0
 15 16  1  0  0  0  0
 17 15  2  0  0  0  0
 18 17  1  0  0  0  0
 19 10  1  0  0  0  0
 19 17  1  0  0  0  0
 20  3  1  0  0  0  0
 20  7  1  0  0  0  0
M  END
