1
q = 0.0, confidence = 0.994

 29 31  0  0  0  0  0  0  0  0999 V2000
   -1.5930    2.2599   -0.3973 N   0  0  0  0  0  2  0  0  0  0  0  0
   -4.9581   -0.8643   -2.4704 N   0  0  0  0  0  4  0  0  0  0  0  0
   -5.5136   -0.9081   -0.1505 N   0  0  0  0  0  0  0  0  0  0  0  0
   -6.7767   -2.2222   -1.6878 N   0  0  0  0  0  2  0  0  0  0  0  0
   -8.9502   -3.2340    2.7840 N   0  0  0  0  0  0  0  0  0  0  0  0
   -6.2117   -2.1493   -3.9298 N   0  0  0  0  0  0  0  0  0  0  0  0
   -5.6338   -1.7922   -4.6878 H   0  0  0  0  0  0  0  0  0  0  0  0
   -6.9766   -2.7964   -4.1089 H   0  0  0  0  0  0  0  0  0  0  0  0
   -1.8232    1.8416   -1.6580 C   0  0  0  0  0  3  0  0  0  0  0  0
   -1.1544    2.2757   -2.4221 H   0  0  0  0  0  0  0  0  0  0  0  0
   -2.8519    0.9459   -1.9606 C   0  0  0  0  0  0  0  0  0  0  0  0
   -3.0352    0.6095   -2.9899 H   0  0  0  0  0  0  0  0  0  0  0  0
   -3.6716    0.4708   -0.9183 C   0  0  0  0  0  0  0  0  0  0  0  0
   -3.4266    0.9279    0.3910 C   0  0  0  0  0  0  0  0  0  0  0  0
   -4.0614    0.5784    1.2161 H   0  0  0  0  0  0  0  0  0  0  0  0
   -2.3779    1.8258    0.6087 C   0  0  0  0  0  0  0  0  0  0  0  0
   -2.1404    2.2486    1.6008 H   0  0  0  0  0  0  0  0  0  0  0  0
   -4.7781   -0.4889   -1.1973 C   0  0  0  0  0  0  0  0  0  0  0  0
   -5.9773   -1.7354   -2.6654 C   0  0  0  0  0  0  0  0  0  0  0  0
   -6.5015   -1.7773   -0.4537 C   0  0  0  0  0  0  0  0  0  0  0  0
   -7.3460   -2.2784    0.6638 C   0  0  0  0  0  0  0  0  0  0  0  0
   -8.3904   -3.1930    0.4278 C   0  0  0  0  0  0  0  0  0  0  0  0
   -8.5856   -3.5409   -0.5962 H   0  0  0  0  0  0  0  0  0  0  0  0
   -9.1544   -3.6340    1.5174 C   0  0  0  0  0  0  0  0  0  0  0  0
   -9.9790   -4.3518    1.3579 H   0  0  0  0  0  0  0  0  0  0  0  0
   -7.9527   -2.3607    3.0008 C   0  0  0  0  0  0  0  0  0  0  0  0
   -7.7998   -2.0420    4.0475 H   0  0  0  0  0  0  0  0  0  0  0  0
   -7.1255   -1.8538    1.9878 C   0  0  0  0  0  0  0  0  0  0  0  0
   -6.3187   -1.1400    2.2040 H   0  0  0  0  0  0  0  0  0  0  0  0
  1 16  1  0  0  0  0
  2 18  2  0  0  0  0
  4 20  1  0  0  0  0
  5 26  1  0  0  0  0
  6 19  1  0  0  0  0
  7  6  1  0  0  0  0
  8  6  1  0  0  0  0
  9  1  1  0  0  0  0
 10  9  1  0  0  0  0
 11  9  1  0  0  0  0
 11 13  2  0  0  0  0
 12 11  1  0  0  0  0
 13 14  1  0  0  0  0
 14 16  2  0  0  0  0
 14 15  1  0  0  0  0
 16 17  1  0  0  0  0
 18 13  1  0  0  0  0
 18  3  1  0  0  0  0
 19  2  2  0  0  0  0
 19  4  1  0  0  0  0
 20  3  2  0  0  0  0
 20 21  1  0  0  0  0
 21 28  1  0  0  0  0
 22 21  2  0  0  0  0
 22 24  1  0  0  0  0
 23 22  1  0  0  0  0
 24  5  2  0  0  0  0
 25 24  1  0  0  0  0
 26 27  1  0  0  0  0
 28 29  1  0  0  0  0
 28 26  2  0  0  0  0
M  END
