8
q = 0.0, confidence = 0.996

 41 44  0  0  1  0  0  0  0  0999 V2000
   -2.0373    2.7030   -0.7299 S   0  0  0  0  0  0  0  0  0  0  0  0
   -3.3695    1.1344    2.1058 O   0  0  0  0  0  0  0  0  0  0  0  0
   -3.6666    1.7470    2.8046 H   0  0  0  0  0  0  0  0  0  0  0  0
   -3.0996   -4.1369   -0.2061 O   0  0  0  0  0  0  0  0  0  0  0  0
   -4.7875   -2.6570   -0.5462 O   0  0  0  0  0  0  0  0  0  0  0  0
   -0.0706    1.7922    0.7656 N   0  0  0  0  0  0  0  0  0  0  0  0
   -1.5304    0.0940    0.0500 N   0  0  0  0  0  0  0  0  0  0  0  0
   -0.5412   -0.8565    0.0068 N   0  0  0  0  0  2  0  0  0  0  0  0
   -1.1647    1.4431    0.1492 C   0  0  0  0  0  0  0  0  0  0  0  0
    0.1782    3.1377    0.5831 C   0  0  0  0  0  0  0  0  0  0  0  0
   -0.7916    3.8247   -0.2114 C   0  0  0  0  0  0  0  0  0  0  0  0
   -0.6827    5.1990   -0.4765 C   0  0  0  0  0  0  0  0  0  0  0  0
   -1.4339    5.7250   -1.0827 H   0  0  0  0  0  0  0  0  0  0  0  0
    0.4238    5.8813    0.0460 C   0  0  0  0  0  0  0  0  0  0  0  0
    0.5353    6.9567   -0.1564 H   0  0  0  0  0  0  0  0  0  0  0  0
    1.3925    5.2151    0.8312 C   0  0  0  0  0  0  0  0  0  0  0  0
    2.2400    5.7855    1.2397 H   0  0  0  0  0  0  0  0  0  0  0  0
    1.2769    3.8498    1.1093 C   0  0  0  0  0  0  0  0  0  0  0  0
    2.0073    3.3209    1.7390 H   0  0  0  0  0  0  0  0  0  0  0  0
   -0.3204   -3.2955   -0.2424 C   0  0  0  0  0  0  0  0  0  0  0  0
    0.7506   -3.0631   -0.3995 H   0  0  0  0  0  0  0  0  0  0  0  0
   -0.6863   -3.9339   -1.0678 H   0  0  0  0  0  0  0  0  0  0  0  0
   -0.4335   -3.8938    0.6845 H   0  0  0  0  0  0  0  0  0  0  0  0
   -1.1301   -2.0489   -0.1539 C   0  0  2  0  0  3  0  0  0  0  0  0
   -2.5483   -1.8600   -0.2201 C   0  0  0  0  0  0  0  0  0  0  0  0
   -2.7744   -0.4778   -0.0842 C   0  0  0  0  0  0  0  0  0  0  0  0
   -4.0066    0.3219   -0.0344 C   0  0  0  0  0  0  0  0  0  0  0  0
   -4.2801    1.1385    1.0960 C   0  0  0  0  0  0  0  0  0  0  0  0
   -5.4532    1.9116    1.1317 C   0  0  0  0  0  0  0  0  0  0  0  0
   -5.6577    2.5432    2.0114 H   0  0  0  0  0  0  0  0  0  0  0  0
   -6.3557    1.8706    0.0614 C   0  0  0  0  0  0  0  0  0  0  0  0
   -7.2703    2.4806    0.1044 H   0  0  0  0  0  0  0  0  0  0  0  0
   -6.1029    1.0549   -1.0539 C   0  0  0  0  0  0  0  0  0  0  0  0
   -6.8162    1.0175   -1.8890 H   0  0  0  0  0  0  0  0  0  0  0  0
   -4.9391    0.2808   -1.0926 C   0  0  0  0  0  0  0  0  0  0  0  0
   -4.7331   -0.3719   -1.9511 H   0  0  0  0  0  0  0  0  0  0  0  0
   -3.6080   -2.8855   -0.3456 C   0  0  0  0  0  0  0  0  0  0  0  0
   -4.0582   -5.2000   -0.3247 C   0  0  0  0  0  0  0  0  0  0  0  0
   -4.5644   -5.1640   -1.3097 H   0  0  0  0  0  0  0  0  0  0  0  0
   -4.8304   -5.1196    0.4659 H   0  0  0  0  0  0  0  0  0  0  0  0
   -3.4869   -6.1381   -0.2146 H   0  0  0  0  0  0  0  0  0  0  0  0
  1 11  1  0  0  0  0
  1  9  1  0  0  0  0
  2  3  1  0  0  0  0
  5 37  2  0  0  0  0
  7  9  1  0  0  0  0
  8  7  1  0  0  0  0
  9  6  2  0  0  0  0
 10  6  1  0  0  0  0
 10 18  1  0  0  0  0
 11 10  2  0  0  0  0
 12 11  1  0  0  0  0
 12 14  2  0  0  0  0
 13 12  1  0  0  0  0
 14 16  1  0  0  0  0
 15 14  1  0  0  0  0
 16 18  2  0  0  0  0
 16 17  1  0  0  0  0
 18 19  1  0  0  0  0
 20 23  1  0  0  0  0
 21 20  1  0  0  0  0
 22 20  1  0  0  0  0
 24 20  1  6  0  0  0
 24  8  1  0  0  0  0
 25 24  1  0  0  0  0
 25 26  2  0  0  0  0
 26 27  1  0  0  0  0
 26  7  1  0  0  0  0
 27 28  1  0  0  0  0
 28 29  2  0  0  0  0
 28  2  1  0  0  0  0
 29 30  1  0  0  0  0
 31 32  1  0  0  0  0
 31 29  1  0  0  0  0
 33 31  2  0  0  0  0
 34 33  1  0  0  0  0
 35 33  1  0  0  0  0
 35 27  2  0  0  0  0
 36 35  1  0  0  0  0
 37 25  1  0  0  0  0
 37  4  1  0  0  0  0
 38 41  1  0  0  0  0
 38  4  1  0  0  0  0
 38 40  1  0  0  0  0
 39 38  1  0  0  0  0
M  END
