3
q = 0.0, confidence = 0.998

 31 33  0  0  0  0  0  0  0  0999 V2000
    2.0648    0.4446   -1.4419 N   0  0  0  0  0  0  0  0  0  0  0  0
    1.1376   -0.4953   -1.2449 N   0  0  0  0  0  2  0  0  0  0  0  0
    0.1154    0.1143   -0.6937 N   0  0  0  0  0  2  0  0  0  0  0  0
    1.6446    1.6670   -1.0083 C   0  0  0  0  0  0  0  0  0  0  0  0
    0.3590    1.4576   -0.5149 C   0  0  0  0  0  0  0  0  0  0  0  0
   -0.5822    2.3990    0.1069 C   0  0  0  0  0  0  0  0  0  0  0  0
   -0.7832    3.6746   -0.4614 C   0  0  0  0  0  0  0  0  0  0  0  0
   -1.6722    4.5795    0.1335 C   0  0  0  0  0  0  0  0  0  0  0  0
   -2.3673    4.2190    1.2991 C   0  0  0  0  0  0  0  0  0  0  0  0
   -2.1623    2.9545    1.8737 C   0  0  0  0  0  0  0  0  0  0  0  0
   -1.2716    2.0450    1.2881 C   0  0  0  0  0  0  0  0  0  0  0  0
    3.4045    0.0337   -1.8490 C   0  0  0  0  0  0  0  0  0  0  0  0
    4.3365   -0.1266   -0.6611 C   0  0  0  0  0  0  0  0  0  0  0  0
    5.6830    0.2657   -0.7736 C   0  0  0  0  0  0  0  0  0  0  0  0
    6.5667    0.0880    0.3019 C   0  0  0  0  0  0  0  0  0  0  0  0
    6.1063   -0.4741    1.5022 C   0  0  0  0  0  0  0  0  0  0  0  0
    4.7609   -0.8587    1.6212 C   0  0  0  0  0  0  0  0  0  0  0  0
    3.8763   -0.6907    0.5462 C   0  0  0  0  0  0  0  0  0  0  0  0
    2.2770    2.5584   -1.0362 H   0  0  0  0  0  0  0  0  0  0  0  0
   -0.2593    3.9434   -1.3914 H   0  0  0  0  0  0  0  0  0  0  0  0
   -1.8328    5.5678   -0.3229 H   0  0  0  0  0  0  0  0  0  0  0  0
   -3.0703    4.9280    1.7621 H   0  0  0  0  0  0  0  0  0  0  0  0
   -2.6958    2.6728    2.7940 H   0  0  0  0  0  0  0  0  0  0  0  0
   -1.0859    1.0641    1.7530 H   0  0  0  0  0  0  0  0  0  0  0  0
    3.2668   -0.9250   -2.3885 H   0  0  0  0  0  0  0  0  0  0  0  0
    3.7975    0.7777   -2.5687 H   0  0  0  0  0  0  0  0  0  0  0  0
    6.0453    0.7146   -1.7125 H   0  0  0  0  0  0  0  0  0  0  0  0
    7.6179    0.3983    0.2026 H   0  0  0  0  0  0  0  0  0  0  0  0
    6.7963   -0.6085    2.3489 H   0  0  0  0  0  0  0  0  0  0  0  0
    4.3905   -1.2957    2.5606 H   0  0  0  0  0  0  0  0  0  0  0  0
    2.8233   -0.9966    0.6596 H   0  0  0  0  0  0  0  0  0  0  0  0
  1  2  1  0  0  0  0
  1  4  1  0  0  0  0
  2  3  1  0  0  0  0
  3  5  1  0  0  0  0
  4  5  2  0  0  0  0
  5  6  1  0  0  0  0
  6 11  1  0  0  0  0
  7  6  2  0  0  0  0
  7  8  1  0  0  0  0
  8  9  2  0  0  0  0
  9 22  1  0  0  0  0
  9 10  1  0  0  0  0
 10 23  1  0  0  0  0
 11 24  1  0  0  0  0
 11 10  2  0  0  0  0
 12  1  1  0  0  0  0
 12 13  1  0  0  0  0
 13 18  1  0  0  0  0
 14 13  2  0  0  0  0
 14 15  1  0  0  0  0
 15 16  2  0  0  0  0
 16 17  1  0  0  0  0
 16 29  1  0  0  0  0
 17 30  1  0  0  0  0
 18 31  1  0  0  0  0
 18 17  2  0  0  0  0
 19  4  1  0  0  0  0
 20  7  1  0  0  0  0
 21  8  1  0  0  0  0
 25 12  1  0  0  0  0
 26 12  1  0  0  0  0
 27 14  1  0  0  0  0
 28 15  1  0  0  0  0
M  END
