2
q = -2.0, confidence = 0.744

 45 44  0  0  0  0  0  0  0  0999 V2000
   -1.0604   -2.6327   -0.3464 Si  0  0  0  0  0  0  0  0  0  0  0  0
    0.2483    1.5119   -0.1488 N   0  0  0  0  0  2  0  0  0  0  0  0
   -2.7650    0.8113    0.1195 N   0  0  0  0  0  0  0  0  0  0  0  0
   -0.4493    0.4463   -0.2726 C   0  0  0  0  0  2  0  0  0  0  0  0
   -1.8719    0.0993   -0.4917 C   0  0  0  0  0  0  0  0  0  0  0  0
   -1.9736   -1.1810   -1.2726 C   0  0  0  0  0  0  0  0  0  0  0  0
    0.7726   -2.3407   -0.5109 C   0  0  0  0  0  3  0  0  0  0  0  0
   -1.6877   -2.7414    1.4427 C   0  0  0  0  0  0  0  0  0  0  0  0
   -1.6520   -4.2123   -1.2320 C   0  0  0  0  0  0  0  0  0  0  0  0
   -0.1002    2.9587   -0.1778 C   0  0  0  0  0  0  0  0  0  0  0  0
   -0.9653    3.2596   -1.4124 C   0  0  0  0  0  0  0  0  0  0  0  0
   -0.8763    3.2753    1.1158 C   0  0  0  0  0  0  0  0  0  0  0  0
    1.2040    3.7675   -0.2205 C   0  0  0  0  0  0  0  0  0  0  0  0
   -4.2175    0.5614    0.1166 C   0  0  0  0  0  0  0  0  0  0  0  0
   -4.8261    1.6511    1.0232 C   0  0  0  0  0  0  0  0  0  0  0  0
   -4.5962   -0.8159    0.6964 C   0  0  0  0  0  0  0  0  0  0  0  0
   -4.7824    0.7375   -1.3097 C   0  0  0  0  0  0  0  0  0  0  0  0
   -3.0042   -1.4591   -1.5535 H   0  0  0  0  0  0  0  0  0  0  0  0
   -1.3745   -1.0813   -2.2063 H   0  0  0  0  0  0  0  0  0  0  0  0
    1.3474   -3.1494   -0.0043 H   0  0  0  0  0  0  0  0  0  0  0  0
    0.9635   -2.4826   -1.5978 H   0  0  0  0  0  0  0  0  0  0  0  0
   -1.6058   -1.7746    1.9769 H   0  0  0  0  0  0  0  0  0  0  0  0
   -1.1009   -3.4957    2.0073 H   0  0  0  0  0  0  0  0  0  0  0  0
   -2.7486   -3.0596    1.4744 H   0  0  0  0  0  0  0  0  0  0  0  0
   -1.3738   -4.1964   -2.3063 H   0  0  0  0  0  0  0  0  0  0  0  0
   -2.7534   -4.3371   -1.1648 H   0  0  0  0  0  0  0  0  0  0  0  0
   -1.1821   -5.1110   -0.7802 H   0  0  0  0  0  0  0  0  0  0  0  0
   -1.9300    2.7220   -1.3528 H   0  0  0  0  0  0  0  0  0  0  0  0
   -1.1729    4.3469   -1.4717 H   0  0  0  0  0  0  0  0  0  0  0  0
   -0.4434    2.9582   -2.3433 H   0  0  0  0  0  0  0  0  0  0  0  0
   -1.7815    2.6382    1.1642 H   0  0  0  0  0  0  0  0  0  0  0  0
   -0.2496    3.0862    2.0101 H   0  0  0  0  0  0  0  0  0  0  0  0
   -1.1696    4.3448    1.1233 H   0  0  0  0  0  0  0  0  0  0  0  0
    1.7485    3.6228   -1.1734 H   0  0  0  0  0  0  0  0  0  0  0  0
    1.8769    3.4692    0.6077 H   0  0  0  0  0  0  0  0  0  0  0  0
    0.9834    4.8481   -0.1166 H   0  0  0  0  0  0  0  0  0  0  0  0
   -4.5621    2.6584    0.6443 H   0  0  0  0  0  0  0  0  0  0  0  0
   -4.4244    1.5613    2.0522 H   0  0  0  0  0  0  0  0  0  0  0  0
   -5.9310    1.5681    1.0677 H   0  0  0  0  0  0  0  0  0  0  0  0
   -5.6976   -0.8915    0.8008 H   0  0  0  0  0  0  0  0  0  0  0  0
   -4.1475   -0.9463    1.7007 H   0  0  0  0  0  0  0  0  0  0  0  0
   -4.2598   -1.6554    0.0606 H   0  0  0  0  0  0  0  0  0  0  0  0
   -4.4061   -0.0343   -2.0078 H   0  0  0  0  0  0  0  0  0  0  0  0
   -5.8895    0.6753   -1.2939 H   0  0  0  0  0  0  0  0  0  0  0  0
   -4.5011    1.7311   -1.7138 H   0  0  0  0  0  0  0  0  0  0  0  0
  1  8  1  0  0  0  0
  4  2  1  0  0  0  0
  5  4  1  0  0  0  0
  5  3  2  0  0  0  0
  6  5  1  0  0  0  0
  6  1  1  0  0  0  0
  7  1  1  0  0  0  0
  7 20  1  0  0  0  0
  8 24  1  0  0  0  0
  8 22  1  0  0  0  0
  8 23  1  0  0  0  0
  9 26  1  0  0  0  0
  9 27  1  0  0  0  0
  9  1  1  0  0  0  0
 10  2  1  0  0  0  0
 10 12  1  0  0  0  0
 11 28  1  0  0  0  0
 11 10  1  0  0  0  0
 12 33  1  0  0  0  0
 12 31  1  0  0  0  0
 12 32  1  0  0  0  0
 13 10  1  0  0  0  0
 13 36  1  0  0  0  0
 13 35  1  0  0  0  0
 14  3  1  0  0  0  0
 14 16  1  0  0  0  0
 14 15  1  0  0  0  0
 15 39  1  0  0  0  0
 15 38  1  0  0  0  0
 16 40  1  0  0  0  0
 16 41  1  0  0  0  0
 17 44  1  0  0  0  0
 17 14  1  0  0  0  0
 18  6  1  0  0  0  0
 19  6  1  0  0  0  0
 21  7  1  0  0  0  0
 25  9  1  0  0  0  0
 29 11  1  0  0  0  0
 30 11  1  0  0  0  0
 34 13  1  0  0  0  0
 37 15  1  0  0  0  0
 42 16  1  0  0  0  0
 43 17  1  0  0  0  0
 45 17  1  0  0  0  0
M  END
