1
q = 0.0, confidence = 0.946

 11 10  0  0  0  0  0  0  0  0999 V2000
    1.1417    1.8296    0.5463 N   0  0  0  0  0  2  0  0  0  0  0  0
    1.3531    2.9710   -0.0288 C   0  0  0  0  0  3  0  0  0  0  0  0
    2.2622    4.0397    0.4811 C   0  0  0  0  0  0  0  0  0  0  0  0
    3.3816    4.3707   -0.5210 C   0  0  0  0  0  0  0  0  0  0  0  0
    1.6750    1.7143    1.4263 H   0  0  0  0  0  0  0  0  0  0  0  0
    0.8225    3.1171   -0.9912 H   0  0  0  0  0  0  0  0  0  0  0  0
    1.6517    4.9545    0.6551 H   0  0  0  0  0  0  0  0  0  0  0  0
    2.6849    3.7435    1.4658 H   0  0  0  0  0  0  0  0  0  0  0  0
    4.0113    5.1970   -0.1386 H   0  0  0  0  0  0  0  0  0  0  0  0
    4.0349    3.4928   -0.6964 H   0  0  0  0  0  0  0  0  0  0  0  0
    2.9663    4.6866   -1.4988 H   0  0  0  0  0  0  0  0  0  0  0  0
  1  5  1  0  0  0  0
  2  3  1  0  0  0  0
  2  1  1  0  0  0  0
  3  7  1  0  0  0  0
  3  8  1  0  0  0  0
  4  9  1  0  0  0  0
  4  3  1  0  0  0  0
  6  2  1  0  0  0  0
 10  4  1  0  0  0  0
 11  4  1  0  0  0  0
M  END
