11
q = -1.0, confidence = 0.0

 15 16  0  0  1  0  0  0  0  0999 V2000
    0.1659   -1.9973   -1.8650 C   0  0  0  0  0  0  0  0  0  0  0  0
   -0.8351   -1.7330   -2.2270 H   0  0  0  0  0  0  0  0  0  0  0  0
    1.0360   -3.0056   -2.2354 C   0  0  0  0  0  0  0  0  0  0  0  0
    0.9560   -3.7933   -2.9899 H   0  0  0  0  0  0  0  0  0  0  0  0
    3.8937   -0.4331    2.0177 C   0  0  0  0  0  0  0  0  0  0  0  0
    4.0672    0.2582    2.8565 H   0  0  0  0  0  0  0  0  0  0  0  0
    4.7561   -1.4217    1.4855 C   0  0  0  0  0  0  0  0  0  0  0  0
    5.7747   -1.6933    1.8052 H   0  0  0  0  0  0  0  0  0  0  0  0
    1.9503   -1.8052   -0.5739 C   0  0  1  0  0  3  0  0  0  0  0  0
    2.9298   -1.4141    0.4027 C   0  0  0  0  0  0  0  0  0  0  0  0
    0.7483   -1.2615   -0.8488 N   0  0  0  0  0  2  0  0  0  0  0  0
    2.1469   -2.8645   -1.4162 N   0  0  0  0  0  0  0  0  0  0  0  0
    3.0098   -3.4084   -1.3570 H   0  0  0  0  0  0  0  0  0  0  0  0
    2.7243   -0.4323    1.3226 N   0  0  0  0  0  0  0  0  0  0  0  0
    4.1365   -2.0517    0.4506 N   0  0  0  0  0  2  0  0  0  0  0  0
  1 11  1  0  0  0  0
  2  1  1  0  0  0  0
  3  1  2  0  0  0  0
  3 12  1  0  0  0  0
  4  3  1  0  0  0  0
  5  6  1  0  0  0  0
  7  8  1  0  0  0  0
  7  5  2  0  0  0  0
  9 10  1  6  0  0  0
 10 15  1  0  0  0  0
 10 14  2  0  0  0  0
 11  9  1  0  0  0  0
 12 13  1  0  0  0  0
 12  9  1  0  0  0  0
 14  5  1  0  0  0  0
 15  7  1  0  0  0  0
M  END
