2
q = 0.0, confidence = 1.0

 26 27  0  0  1  0  0  0  0  0999 V2000
    5.4722    0.0485   -0.4541 O   0  0  0  0  0  0  0  0  0  0  0  0
    2.2196   -1.0209    0.2271 N   0  0  0  0  0  2  0  0  0  0  0  0
    3.1908   -0.0866    0.0021 N   0  0  0  0  0  0  0  0  0  0  0  0
    2.7920   -2.2292    0.1189 C   0  0  2  0  0  3  0  0  0  0  0  0
    4.1747   -2.0874   -0.1738 C   0  0  0  0  0  0  0  0  0  0  0  0
    4.9074   -2.8865   -0.3128 H   0  0  0  0  0  0  0  0  0  0  0  0
    4.3863   -0.7080   -0.2453 C   0  0  0  0  0  0  0  0  0  0  0  0
    1.9758   -3.4731    0.2467 C   0  0  0  0  0  0  0  0  0  0  0  0
    1.2272   -3.3536    1.0555 H   0  0  0  0  0  0  0  0  0  0  0  0
    2.6177   -4.3467    0.4671 H   0  0  0  0  0  0  0  0  0  0  0  0
    1.4249   -3.6752   -0.6959 H   0  0  0  0  0  0  0  0  0  0  0  0
    6.6889   -0.6642   -0.6447 C   0  0  0  0  0  0  0  0  0  0  0  0
    6.9333   -1.2847    0.2448 H   0  0  0  0  0  0  0  0  0  0  0  0
    7.4773    0.0952   -0.7930 H   0  0  0  0  0  0  0  0  0  0  0  0
    6.6329   -1.3201   -1.5406 H   0  0  0  0  0  0  0  0  0  0  0  0
    2.9296    1.3039    0.1563 C   0  0  0  0  0  0  0  0  0  0  0  0
    2.2687    1.7493    1.3160 C   0  0  0  0  0  0  0  0  0  0  0  0
    1.9620    1.0235    2.0839 H   0  0  0  0  0  0  0  0  0  0  0  0
    1.9912    3.1161    1.4591 C   0  0  0  0  0  0  0  0  0  0  0  0
    1.4747    3.4671    2.3650 H   0  0  0  0  0  0  0  0  0  0  0  0
    2.3736    4.0282    0.4616 C   0  0  0  0  0  0  0  0  0  0  0  0
    2.1552    5.1003    0.5807 H   0  0  0  0  0  0  0  0  0  0  0  0
    3.0377    3.5699   -0.6880 C   0  0  0  0  0  0  0  0  0  0  0  0
    3.3302    4.2788   -1.4769 H   0  0  0  0  0  0  0  0  0  0  0  0
    3.3135    2.2053   -0.8499 C   0  0  0  0  0  0  0  0  0  0  0  0
    3.8050    1.8290   -1.7566 H   0  0  0  0  0  0  0  0  0  0  0  0
  1  7  1  0  0  0  0
  3 16  1  0  0  0  0
  3  2  1  0  0  0  0
  4  2  1  0  0  0  0
  4  8  1  6  0  0  0
  5  4  1  0  0  0  0
  6  5  1  0  0  0  0
  7  5  2  0  0  0  0
  7  3  1  0  0  0  0
  8 10  1  0  0  0  0
  8  9  1  0  0  0  0
 11  8  1  0  0  0  0
 12  1  1  0  0  0  0
 12 13  1  0  0  0  0
 14 12  1  0  0  0  0
 15 12  1  0  0  0  0
 16 17  1  0  0  0  0
 17 19  2  0  0  0  0
 17 18  1  0  0  0  0
 19 20  1  0  0  0  0
 21 22  1  0  0  0  0
 21 19  1  0  0  0  0
 23 21  2  0  0  0  0
 24 23  1  0  0  0  0
 25 23  1  0  0  0  0
 25 16  2  0  0  0  0
 26 25  1  0  0  0  0
M  END
