2
q = 0.0, confidence = 1.0

 25 26  0  0  1  0  0  0  0  0999 V2000
   -5.7249   -1.2692   -0.1513 I   0  0  0  0  0  0  0  0  0  0  0  0
   -1.6645    0.0094    0.2354 N   0  0  0  0  0  2  0  0  0  0  0  0
   -2.2796    1.2056    0.0509 N   0  0  0  0  0  0  0  0  0  0  0  0
   -3.6347    1.0567   -0.0997 C   0  0  1  0  0  3  0  0  0  0  0  0
   -3.8653   -0.3226   -0.0097 C   0  0  0  0  0  0  0  0  0  0  0  0
   -2.6065   -0.9477    0.1992 C   0  0  0  0  0  0  0  0  0  0  0  0
   -1.5275    2.4169    0.1264 C   0  0  0  0  0  0  0  0  0  0  0  0
   -0.8159    2.7050    1.3050 C   0  0  0  0  0  0  0  0  0  0  0  0
   -0.8351    1.9911    2.1417 H   0  0  0  0  0  0  0  0  0  0  0  0
   -0.0675    3.8883    1.3752 C   0  0  0  0  0  0  0  0  0  0  0  0
    0.4911    4.1185    2.2946 H   0  0  0  0  0  0  0  0  0  0  0  0
   -0.0315    4.7714    0.2829 C   0  0  0  0  0  0  0  0  0  0  0  0
    0.5564    5.6998    0.3447 H   0  0  0  0  0  0  0  0  0  0  0  0
   -0.7417    4.4683   -0.8902 C   0  0  0  0  0  0  0  0  0  0  0  0
   -0.7001    5.1484   -1.7538 H   0  0  0  0  0  0  0  0  0  0  0  0
   -1.4886    3.2847   -0.9765 C   0  0  0  0  0  0  0  0  0  0  0  0
   -2.0119    3.0091   -1.9024 H   0  0  0  0  0  0  0  0  0  0  0  0
   -4.5726    2.2002   -0.2747 C   0  0  0  0  0  0  0  0  0  0  0  0
   -4.2625    3.0724    0.3337 H   0  0  0  0  0  0  0  0  0  0  0  0
   -5.5918    1.8941    0.0282 H   0  0  0  0  0  0  0  0  0  0  0  0
   -4.6240    2.5323   -1.3328 H   0  0  0  0  0  0  0  0  0  0  0  0
   -2.2513   -2.3889    0.3306 C   0  0  0  0  0  0  0  0  0  0  0  0
   -1.4862   -2.5181    1.1219 H   0  0  0  0  0  0  0  0  0  0  0  0
   -1.8266   -2.7723   -0.6208 H   0  0  0  0  0  0  0  0  0  0  0  0
   -3.1465   -2.9895    0.5784 H   0  0  0  0  0  0  0  0  0  0  0  0
  1  5  1  0  0  0  0
  3  7  1  0  0  0  0
  3  2  1  0  0  0  0
  4 18  1  1  0  0  0
  4  5  1  0  0  0  0
  4  3  1  0  0  0  0
  5  6  2  0  0  0  0
  6  2  1  0  0  0  0
  6 22  1  0  0  0  0
  7  8  1  0  0  0  0
  8 10  2  0  0  0  0
  8  9  1  0  0  0  0
 10 11  1  0  0  0  0
 12 13  1  0  0  0  0
 12 10  1  0  0  0  0
 14 12  2  0  0  0  0
 15 14  1  0  0  0  0
 16 14  1  0  0  0  0
 16  7  2  0  0  0  0
 17 16  1  0  0  0  0
 18 20  1  0  0  0  0
 18 19  1  0  0  0  0
 21 18  1  0  0  0  0
 22 25  1  0  0  0  0
 22 23  1  0  0  0  0
 24 22  1  0  0  0  0
M  END
