1
q = 0.0, confidence = 0.998

 25 27  0  0  1  0  0  0  0  0999 V2000
   -0.0100   -0.8220   -0.1346 N   0  0  0  0  0  2  0  0  0  0  0  0
   -3.6983    1.0058   -0.1900 N   0  0  0  0  0  0  0  0  0  0  0  0
   -0.2643    2.0370    0.7190 C   0  0  0  0  0  0  0  0  0  0  0  0
   -0.4307    3.4128    0.8523 C   0  0  0  0  0  0  0  0  0  0  0  0
   -1.6870    3.9991    0.5709 C   0  0  0  0  0  0  0  0  0  0  0  0
   -2.7682    3.2025    0.2110 C   0  0  0  0  0  0  0  0  0  0  0  0
   -4.8573   -1.1198   -0.2757 C   0  0  0  0  0  0  0  0  0  0  0  0
   -4.8200   -2.5083   -0.1998 C   0  0  0  0  0  0  0  0  0  0  0  0
   -3.5953   -3.1808    0.0142 C   0  0  0  0  0  0  0  0  0  0  0  0
   -2.4159   -2.4508    0.1217 C   0  0  0  0  0  0  0  0  0  0  0  0
   -1.1814   -0.2390    0.0661 C   0  0  0  0  0  0  0  0  0  0  0  0
   -3.6631   -0.3712   -0.1467 C   0  0  1  0  0  3  0  0  0  0  0  0
   -2.4127   -1.0352    0.0272 C   0  0  0  0  0  0  0  0  0  0  0  0
   -1.3296    1.1988    0.2932 C   0  0  0  0  0  0  0  0  0  0  0  0
   -2.6133    1.7981    0.0982 C   0  0  0  0  0  0  0  0  0  0  0  0
    0.6999    1.5644    0.9734 H   0  0  0  0  0  0  0  0  0  0  0  0
    0.4023    4.0379    1.2052 H   0  0  0  0  0  0  0  0  0  0  0  0
   -1.8233    5.0863    0.6685 H   0  0  0  0  0  0  0  0  0  0  0  0
   -3.7578    3.6507    0.0337 H   0  0  0  0  0  0  0  0  0  0  0  0
   -5.8126   -0.5925   -0.4209 H   0  0  0  0  0  0  0  0  0  0  0  0
   -5.7539   -3.0820   -0.2909 H   0  0  0  0  0  0  0  0  0  0  0  0
   -3.5753   -4.2759    0.1055 H   0  0  0  0  0  0  0  0  0  0  0  0
   -1.4760   -2.9895    0.3185 H   0  0  0  0  0  0  0  0  0  0  0  0
   -0.0756   -1.8416   -0.2376 H   0  0  0  0  0  0  0  0  0  0  0  0
   -4.6034    1.4595   -0.3303 H   0  0  0  0  0  0  0  0  0  0  0  0
  1 11  1  0  0  0  0
  2 12  1  0  0  0  0
  2 15  1  0  0  0  0
  3  4  1  0  0  0  0
  3 16  1  0  0  0  0
  4 17  1  0  0  0  0
  5 18  1  0  0  0  0
  5  4  2  0  0  0  0
  6  5  1  0  0  0  0
  7  8  2  0  0  0  0
  8  9  1  0  0  0  0
  9 22  1  0  0  0  0
  9 10  2  0  0  0  0
 10 23  1  0  0  0  0
 11 14  1  0  0  0  0
 12  7  1  6  0  0  0
 12 13  1  0  0  0  0
 13 11  2  0  0  0  0
 13 10  1  0  0  0  0
 14  3  2  0  0  0  0
 15  6  2  0  0  0  0
 15 14  1  0  0  0  0
 19  6  1  0  0  0  0
 20  7  1  0  0  0  0
 21  8  1  0  0  0  0
 24  1  1  0  0  0  0
 25  2  1  0  0  0  0
M  END
