3
q = -1.0

 14 15  0  0  0  0  0  0  0  0999 V2000
   -5.1326   -2.8044   -0.0249 I   0  0  0  0  0  0  0  0  0  0  0  0
   -5.1819    3.6960    0.0527 Br  0  0  0  0  0  0  0  0  0  0  0  0
   -1.2853   -0.8378   -0.0003 N   0  0  0  0  0  0  0  0  0  0  0  0
   -2.1209   -1.9351   -0.0141 C   0  0  0  0  0  0  0  0  0  0  0  0
   -1.7175   -2.9541   -0.0268 H   0  0  0  0  0  0  0  0  0  0  0  0
   -3.4590   -1.5376   -0.0091 C   0  0  0  0  0  0  0  0  0  0  0  0
   -3.4757   -0.1083    0.0085 C   0  0  0  0  0  0  0  0  0  0  0  0
   -4.4415    0.9153    0.0203 C   0  0  0  0  0  0  0  0  0  0  0  0
   -5.5186    0.6930    0.0172 H   0  0  0  0  0  0  0  0  0  0  0  0
   -3.9618    2.2292    0.0360 C   0  0  0  0  0  0  0  0  0  0  0  0
   -2.5692    2.5065    0.0400 C   0  0  0  0  0  0  0  0  0  0  0  0
   -2.2239    3.5537    0.0535 H   0  0  0  0  0  0  0  0  0  0  0  0
   -2.0868    0.2829    0.0134 C   0  0  0  0  0  3  0  0  0  0  0  0
   -1.6383    1.5463    0.0286 N   0  0  0  0  0  0  0  0  0  0  0  0
  1  6  1  0  0  0  0
  3 13  1  0  0  0  0
  4  6  1  0  0  0  0
  4  3  2  0  0  0  0
  5  4  1  0  0  0  0
  6  7  2  0  0  0  0
  7 13  1  0  0  0  0
  7  8  1  0  0  0  0
  8 10  2  0  0  0  0
  9  8  1  0  0  0  0
 10 11  1  0  0  0  0
 10  2  1  0  0  0  0
 11 12  1  0  0  0  0
 13 14  1  0  0  0  0
 14 11  2  0  0  0  0
M  END
