3
q = 0.0, confidence = 0.994

 53 58  0  0  1  0  0  0  0  0999 V2000
   -1.3362    0.5060    0.1657 P   0  0  0  0  0  0  0  0  0  0  0  0
    2.4080    0.8143   -2.3752 O   0  0  0  0  0  0  0  0  0  0  0  0
    1.3057   -0.4322   -0.8705 N   0  0  0  0  0  2  0  0  0  0  0  0
   -1.0137    1.6432   -1.2338 C   0  0  0  0  0  0  0  0  0  0  0  0
    0.2090    1.5812   -1.9539 C   0  0  0  0  0  0  0  0  0  0  0  0
    0.4424    2.5277   -2.9780 C   0  0  0  0  0  0  0  0  0  0  0  0
    1.3829    2.4780   -3.5412 H   0  0  0  0  0  0  0  0  0  0  0  0
   -0.5063    3.5103   -3.2831 C   0  0  0  0  0  0  0  0  0  0  0  0
   -0.3050    4.2299   -4.0899 H   0  0  0  0  0  0  0  0  0  0  0  0
   -1.7062    3.5707   -2.5626 C   0  0  0  0  0  0  0  0  0  0  0  0
   -2.4597    4.3371   -2.7969 H   0  0  0  0  0  0  0  0  0  0  0  0
   -1.9512    2.6423   -1.5384 C   0  0  0  0  0  0  0  0  0  0  0  0
   -2.8980    2.6874   -0.9804 H   0  0  0  0  0  0  0  0  0  0  0  0
   -0.8016    1.5197    1.6011 C   0  0  0  0  0  0  0  0  0  0  0  0
    0.4971    1.3259    2.1106 C   0  0  0  0  0  0  0  0  0  0  0  0
    1.1296    0.5325    1.6909 H   0  0  0  0  0  0  0  0  0  0  0  0
    0.9916    2.1596    3.1238 C   0  0  0  0  0  0  0  0  0  0  0  0
    2.0121    2.0025    3.5048 H   0  0  0  0  0  0  0  0  0  0  0  0
    0.1907    3.1920    3.6354 C   0  0  0  0  0  0  0  0  0  0  0  0
    0.5744    3.8452    4.4333 H   0  0  0  0  0  0  0  0  0  0  0  0
   -1.0998    3.3997    3.1195 C   0  0  0  0  0  0  0  0  0  0  0  0
   -1.7255    4.2156    3.5111 H   0  0  0  0  0  0  0  0  0  0  0  0
   -1.5956    2.5760    2.0990 C   0  0  0  0  0  0  0  0  0  0  0  0
   -2.6008    2.7605    1.6921 H   0  0  0  0  0  0  0  0  0  0  0  0
   -3.1485    0.3032    0.2868 C   0  0  0  0  0  0  0  0  0  0  0  0
   -3.8899    0.0362   -0.8859 C   0  0  0  0  0  0  0  0  0  0  0  0
   -3.3863    0.0344   -1.8636 H   0  0  0  0  0  0  0  0  0  0  0  0
   -5.2568   -0.2600   -0.7934 C   0  0  0  0  0  0  0  0  0  0  0  0
   -5.8301   -0.4622   -1.7104 H   0  0  0  0  0  0  0  0  0  0  0  0
   -5.8914   -0.3049    0.4592 C   0  0  0  0  0  0  0  0  0  0  0  0
   -6.9646   -0.5378    0.5255 H   0  0  0  0  0  0  0  0  0  0  0  0
   -5.1544   -0.0525    1.6269 C   0  0  0  0  0  0  0  0  0  0  0  0
   -5.6467   -0.0853    2.6102 H   0  0  0  0  0  0  0  0  0  0  0  0
   -3.7865    0.2508    1.5457 C   0  0  0  0  0  0  0  0  0  0  0  0
   -3.2219    0.4579    2.4671 H   0  0  0  0  0  0  0  0  0  0  0  0
    1.2763    0.6017   -1.6865 C   0  0  1  0  0  3  0  0  0  0  0  0
    3.3018   -0.3189   -2.1650 C   0  0  2  0  0  0  0  0  0  0  0  0
    3.2445   -0.9441   -3.0782 H   0  0  0  0  0  0  0  0  0  0  0  0
    2.6968   -0.9674   -0.8947 C   0  0  1  0  0  0  0  0  0  0  0  0
    2.6540   -2.0717   -0.9558 H   0  0  0  0  0  0  0  0  0  0  0  0
    3.5996   -0.4582    0.2241 C   0  0  0  0  0  0  0  0  0  0  0  0
    3.4608   -0.5841    1.6148 C   0  0  0  0  0  0  0  0  0  0  0  0
    2.6100   -1.1183    2.0542 H   0  0  0  0  0  0  0  0  0  0  0  0
    4.4244   -0.0089    2.4595 C   0  0  0  0  0  0  0  0  0  0  0  0
    4.3205   -0.1052    3.5506 H   0  0  0  0  0  0  0  0  0  0  0  0
    5.5228    0.6821    1.9188 C   0  0  0  0  0  0  0  0  0  0  0  0
    6.2710    1.1303    2.5893 H   0  0  0  0  0  0  0  0  0  0  0  0
    5.6754    0.7948    0.5280 C   0  0  0  0  0  0  0  0  0  0  0  0
    6.5413    1.3261    0.1049 H   0  0  0  0  0  0  0  0  0  0  0  0
    4.7134    0.2207   -0.3149 C   0  0  0  0  0  0  0  0  0  0  0  0
    4.7069    0.1754   -1.8240 C   0  0  0  0  0  0  0  0  0  0  0  0
    5.4653   -0.5406   -2.2068 H   0  0  0  0  0  0  0  0  0  0  0  0
    4.9160    1.1512   -2.3063 H   0  0  0  0  0  0  0  0  0  0  0  0
  1 25  1  0  0  0  0
  1 14  1  0  0  0  0
  2 37  1  0  0  0  0
  2 36  1  0  0  0  0
  4  1  1  0  0  0  0
  5  4  2  0  0  0  0
  6  5  1  0  0  0  0
  7  6  1  0  0  0  0
  8  6  2  0  0  0  0
  8 10  1  0  0  0  0
  9  8  1  0  0  0  0
 10 12  2  0  0  0  0
 11 10  1  0  0  0  0
 12  4  1  0  0  0  0
 12 13  1  0  0  0  0
 14 23  2  0  0  0  0
 14 15  1  0  0  0  0
 15 17  2  0  0  0  0
 16 15  1  0  0  0  0
 17 18  1  0  0  0  0
 17 19  1  0  0  0  0
 19 20  1  0  0  0  0
 21 22  1  0  0  0  0
 21 19  2  0  0  0  0
 23 21  1  0  0  0  0
 24 23  1  0  0  0  0
 25 34  1  0  0  0  0
 26 28  1  0  0  0  0
 26 25  2  0  0  0  0
 27 26  1  0  0  0  0
 28 30  2  0  0  0  0
 29 28  1  0  0  0  0
 30 31  1  0  0  0  0
 30 32  1  0  0  0  0
 32 33  1  0  0  0  0
 34 32  2  0  0  0  0
 34 35  1  0  0  0  0
 36  5  1  1  0  0  0
 36  3  1  0  0  0  0
 37 38  1  6  0  0  0
 37 51  1  0  0  0  0
 37 39  1  0  0  0  0
 39 40  1  6  0  0  0
 39  3  1  0  0  0  0
 39 41  1  0  0  0  0
 41 42  1  0  0  0  0
 42 43  1  0  0  0  0
 42 44  2  0  0  0  0
 44 45  1  0  0  0  0
 46 44  1  0  0  0  0
 46 47  1  0  0  0  0
 48 46  2  0  0  0  0
 49 48  1  0  0  0  0
 50 41  2  0  0  0  0
 50 48  1  0  0  0  0
 51 50  1  0  0  0  0
 52 51  1  0  0  0  0
 53 51  1  0  0  0  0
M  END
