1
q = 0.0, confidence = 1.0

 25 27  0  0  0  0  0  0  0  0999 V2000
    0.0319    0.3383   -1.9070 N   0  0  0  0  0  2  0  0  0  0  0  0
    2.0327   -0.4216   -2.4967 N   0  0  0  0  0  0  0  0  0  0  0  0
    5.5743   -0.6557   -1.8513 N   0  0  0  0  0  0  0  0  0  0  0  0
    3.9773   -0.1716   -0.3260 N   0  0  0  0  0  0  0  0  0  0  0  0
    3.0433   -0.0330    0.0860 H   0  0  0  0  0  0  0  0  0  0  0  0
    0.8459   -0.7160   -1.8934 C   0  0  0  0  0  3  0  0  0  0  0  0
    0.6254   -1.6979   -1.4636 H   0  0  0  0  0  0  0  0  0  0  0  0
    0.7165    1.3541   -2.5463 C   0  0  0  0  0  0  0  0  0  0  0  0
    0.2703    2.3462   -2.6828 H   0  0  0  0  0  0  0  0  0  0  0  0
    1.9669    0.8974   -2.9193 C   0  0  0  0  0  0  0  0  0  0  0  0
    2.8107    1.3812   -3.4214 H   0  0  0  0  0  0  0  0  0  0  0  0
    3.2319   -1.2615   -2.4760 C   0  0  0  0  0  0  0  0  0  0  0  0
    3.6617   -1.3620   -3.4901 H   0  0  0  0  0  0  0  0  0  0  0  0
    2.9298   -2.2664   -2.1060 H   0  0  0  0  0  0  0  0  0  0  0  0
    4.2839   -0.6862   -1.5732 C   0  0  0  0  0  0  0  0  0  0  0  0
    6.1684   -0.0932   -0.7293 C   0  0  0  0  0  0  0  0  0  0  0  0
    7.5227    0.1869   -0.4612 C   0  0  0  0  0  0  0  0  0  0  0  0
    8.2949   -0.0616   -1.2034 H   0  0  0  0  0  0  0  0  0  0  0  0
    7.8400    0.7843    0.7641 C   0  0  0  0  0  0  0  0  0  0  0  0
    8.8904    1.0136    0.9991 H   0  0  0  0  0  0  0  0  0  0  0  0
    6.8378    1.1054    1.7133 C   0  0  0  0  0  0  0  0  0  0  0  0
    7.1299    1.5780    2.6633 H   0  0  0  0  0  0  0  0  0  0  0  0
    5.4838    0.8377    1.4722 C   0  0  0  0  0  0  0  0  0  0  0  0
    4.7050    1.0912    2.2062 H   0  0  0  0  0  0  0  0  0  0  0  0
    5.1721    0.2322    0.2446 C   0  0  0  0  0  0  0  0  0  0  0  0
  1  6  1  0  0  0  0
  2 12  1  0  0  0  0
  2  6  1  0  0  0  0
  3 15  2  0  0  0  0
  3 16  1  0  0  0  0
  4  5  1  0  0  0  0
  4 25  1  0  0  0  0
  6  7  1  0  0  0  0
  8  1  1  0  0  0  0
  9  8  1  0  0  0  0
 10  8  2  0  0  0  0
 10  2  1  0  0  0  0
 11 10  1  0  0  0  0
 12 14  1  0  0  0  0
 12 15  1  0  0  0  0
 13 12  1  0  0  0  0
 15  4  1  0  0  0  0
 16 17  2  0  0  0  0
 16 25  1  0  0  0  0
 17 19  1  0  0  0  0
 18 17  1  0  0  0  0
 19 20  1  0  0  0  0
 19 21  2  0  0  0  0
 21 22  1  0  0  0  0
 23 21  1  0  0  0  0
 23 24  1  0  0  0  0
 25 23  2  0  0  0  0
M  END
