1
q = 0.0, confidence = 1.0

 21 22  0  0  0  0  0  0  0  0999 V2000
    1.0003    0.9494   -1.2110 N   0  0  0  0  0  2  0  0  0  0  0  0
    2.3790    0.1469    0.6109 C   0  0  0  0  0  0  0  0  0  0  0  0
    0.5748    0.8571   -2.4717 C   0  0  0  0  0  0  0  0  0  0  0  0
    2.2799   -1.1186   -1.5079 C   0  0  0  0  0  0  0  0  0  0  0  0
    1.8660    0.0092   -0.7129 C   0  0  0  0  0  0  0  0  0  0  0  0
    3.2266   -0.8109    1.1286 C   0  0  0  0  0  0  0  0  0  0  0  0
    4.4367   -2.8207    0.9944 O   0  0  0  0  0  0  0  0  0  0  0  0
    1.7957   -1.1935   -2.8439 C   0  0  0  0  0  0  0  0  0  0  0  0
    0.9603   -0.1999   -3.3298 C   0  0  0  0  0  0  0  0  0  0  0  0
    3.6111   -1.9529    0.3589 C   0  0  0  0  0  0  0  0  0  0  0  0
    3.1501   -2.0978   -0.9490 C   0  0  0  0  0  3  0  0  0  0  0  0
    4.8793   -3.9655    0.2874 C   0  0  0  0  0  0  0  0  0  0  0  0
    5.5319   -4.5288    0.9791 H   0  0  0  0  0  0  0  0  0  0  0  0
    4.0281   -4.6136   -0.0198 H   0  0  0  0  0  0  0  0  0  0  0  0
    5.4626   -3.6886   -0.6191 H   0  0  0  0  0  0  0  0  0  0  0  0
   -0.1169    1.6575   -2.7925 H   0  0  0  0  0  0  0  0  0  0  0  0
    3.6408   -0.7155    2.1430 H   0  0  0  0  0  0  0  0  0  0  0  0
    0.5804   -0.2236   -4.3611 H   0  0  0  0  0  0  0  0  0  0  0  0
    2.1233    1.0563    1.1804 H   0  0  0  0  0  0  0  0  0  0  0  0
    3.4460   -2.9505   -1.5747 H   0  0  0  0  0  0  0  0  0  0  0  0
    2.0972   -2.0412   -3.4794 H   0  0  0  0  0  0  0  0  0  0  0  0
  1  5  1  0  0  0  0
  2  6  1  0  0  0  0
  2 19  1  0  0  0  0
  3  1  1  0  0  0  0
  4 11  1  0  0  0  0
  4  5  1  0  0  0  0
  5  2  2  0  0  0  0
  6 17  1  0  0  0  0
  8  4  2  0  0  0  0
  9  8  1  0  0  0  0
  9  3  2  0  0  0  0
 10  7  1  0  0  0  0
 10  6  2  0  0  0  0
 11 10  1  0  0  0  0
 12 13  1  0  0  0  0
 12  7  1  0  0  0  0
 14 12  1  0  0  0  0
 15 12  1  0  0  0  0
 16  3  1  0  0  0  0
 18  9  1  0  0  0  0
 20 11  1  0  0  0  0
 21  8  1  0  0  0  0
M  END
