1
q = 0.0, confidence = 0.998

 34 34  0  0  1  0  0  0  0  0999 V2000
   -1.9160    0.5959   -0.1382 N   0  0  0  0  0  2  0  0  0  0  0  0
   -2.0235    1.5761   -0.4185 H   0  0  0  0  0  0  0  0  0  0  0  0
   -3.2161   -1.3111    0.4079 N   0  0  0  0  0  2  0  0  0  0  0  0
   -2.1862   -3.3577    0.7753 N   0  0  0  0  0  0  0  0  0  0  0  0
   -2.0576   -2.4084   -1.3650 N   0  0  0  0  0  0  0  0  0  0  0  0
   -3.0697   -0.0084    0.1012 C   0  0  1  0  0  3  0  0  0  0  0  0
   -4.3290    0.8045    0.0904 C   0  0  0  0  0  0  0  0  0  0  0  0
   -4.3186    2.2087    0.2306 C   0  0  0  0  0  0  0  0  0  0  0  0
   -3.3701    2.7395    0.4076 H   0  0  0  0  0  0  0  0  0  0  0  0
   -5.5124    2.9408    0.1863 C   0  0  0  0  0  0  0  0  0  0  0  0
   -5.4864    4.0349    0.3028 H   0  0  0  0  0  0  0  0  0  0  0  0
   -6.7391    2.2800    0.0107 C   0  0  0  0  0  0  0  0  0  0  0  0
   -7.6768    2.8555   -0.0225 H   0  0  0  0  0  0  0  0  0  0  0  0
   -6.7633    0.8809   -0.1074 C   0  0  0  0  0  0  0  0  0  0  0  0
   -7.7221    0.3548   -0.2327 H   0  0  0  0  0  0  0  0  0  0  0  0
   -5.5694    0.1498   -0.0600 C   0  0  0  0  0  0  0  0  0  0  0  0
   -5.5679   -0.9477   -0.1280 H   0  0  0  0  0  0  0  0  0  0  0  0
   -2.4605   -2.3008   -0.0542 C   0  0  0  0  0  3  0  0  0  0  0  0
   -2.3230   -3.1805    2.2127 C   0  0  0  0  0  0  0  0  0  0  0  0
   -3.3527   -3.4294    2.5565 H   0  0  0  0  0  0  0  0  0  0  0  0
   -1.6034   -3.8480    2.7293 H   0  0  0  0  0  0  0  0  0  0  0  0
   -2.0813   -2.1364    2.4800 H   0  0  0  0  0  0  0  0  0  0  0  0
   -2.1685   -4.7309    0.3011 C   0  0  0  0  0  0  0  0  0  0  0  0
   -2.4667   -4.7724   -0.7617 H   0  0  0  0  0  0  0  0  0  0  0  0
   -1.1694   -5.2076    0.4085 H   0  0  0  0  0  0  0  0  0  0  0  0
   -2.8968   -5.3339    0.8867 H   0  0  0  0  0  0  0  0  0  0  0  0
   -0.7843   -3.0146   -1.7388 C   0  0  0  0  0  0  0  0  0  0  0  0
   -0.2140   -3.2754   -0.8299 H   0  0  0  0  0  0  0  0  0  0  0  0
   -0.9203   -3.9263   -2.3630 H   0  0  0  0  0  0  0  0  0  0  0  0
   -0.1895   -2.2655   -2.3034 H   0  0  0  0  0  0  0  0  0  0  0  0
   -2.6946   -1.6165   -2.4060 C   0  0  0  0  0  0  0  0  0  0  0  0
   -2.1209   -0.6875   -2.6171 H   0  0  0  0  0  0  0  0  0  0  0  0
   -2.7418   -2.2218   -3.3355 H   0  0  0  0  0  0  0  0  0  0  0  0
   -3.7259   -1.3576   -2.1044 H   0  0  0  0  0  0  0  0  0  0  0  0
  2  1  1  0  0  0  0
  4 19  1  0  0  0  0
  5 18  1  0  0  0  0
  6  1  1  1  0  0  0
  6  3  1  0  0  0  0
  7  6  1  0  0  0  0
  7  8  1  0  0  0  0
  8  9  1  0  0  0  0
 10  8  2  0  0  0  0
 10 11  1  0  0  0  0
 12 10  1  0  0  0  0
 13 12  1  0  0  0  0
 14 16  1  0  0  0  0
 14 12  2  0  0  0  0
 15 14  1  0  0  0  0
 16  7  2  0  0  0  0
 17 16  1  0  0  0  0
 18  3  1  0  0  0  0
 18  4  1  0  0  0  0
 19 22  1  0  0  0  0
 19 20  1  0  0  0  0
 19 21  1  0  0  0  0
 23 25  1  0  0  0  0
 23  4  1  0  0  0  0
 23 26  1  0  0  0  0
 24 23  1  0  0  0  0
 27  5  1  0  0  0  0
 27 28  1  0  0  0  0
 29 27  1  0  0  0  0
 30 27  1  0  0  0  0
 31 34  1  0  0  0  0
 31  5  1  0  0  0  0
 32 31  1  0  0  0  0
 33 31  1  0  0  0  0
M  END
