2
q = -1.0

 43 42  0  0  0  0  0  0  0  0999 V2000
    0.5954   -0.0790   -0.7213 P   0  0  0  0  0  0  0  0  0  0  0  0
   -0.3668    1.1289   -0.1498 N   0  0  0  0  0  2  0  0  0  0  0  0
   -0.4555    2.8484   -0.5943 Si  0  0  0  0  0  0  0  0  0  0  0  0
   -1.8092    3.1101   -1.8890 C   0  0  0  0  0  0  0  0  0  0  0  0
   -0.8565    3.9429    0.8878 C   0  0  0  0  0  0  0  0  0  0  0  0
    1.2059    3.3266   -1.3832 C   0  0  0  0  0  0  0  0  0  0  0  0
    2.2211   -0.2055   -0.1164 N   0  0  0  0  0  0  0  0  0  0  0  0
    3.2512   -1.2206   -1.1939 Si  0  0  0  0  0  0  0  0  0  0  0  0
    2.1663   -2.5197   -2.0510 C   0  0  0  0  0  0  0  0  0  0  0  0
    4.0695   -0.1208   -2.4922 C   0  0  0  0  0  0  0  0  0  0  0  0
    4.5556   -2.1814   -0.2220 C   0  0  0  0  0  0  0  0  0  0  0  0
    2.9217    0.5419    1.3617 Si  0  0  0  0  0  0  0  0  0  0  0  0
    1.8546    1.9126    2.0846 C   0  0  0  0  0  0  0  0  0  0  0  0
    4.5816    1.3298    0.8978 C   0  0  0  0  0  0  0  0  0  0  0  0
    3.1818   -0.7507    2.7199 C   0  0  0  0  0  0  0  0  0  0  0  0
    0.8913    0.1732   -2.1164 H   0  0  0  0  0  0  0  0  0  0  0  0
   -1.8214    4.1682   -2.2237 H   0  0  0  0  0  0  0  0  0  0  0  0
   -2.7945    2.8752   -1.4400 H   0  0  0  0  0  0  0  0  0  0  0  0
   -1.6637    2.4729   -2.7846 H   0  0  0  0  0  0  0  0  0  0  0  0
   -1.7849    3.5668    1.3621 H   0  0  0  0  0  0  0  0  0  0  0  0
   -1.0319    4.9852    0.5488 H   0  0  0  0  0  0  0  0  0  0  0  0
   -0.0546    3.9577    1.6499 H   0  0  0  0  0  0  0  0  0  0  0  0
    1.1939    4.3916   -1.6946 H   0  0  0  0  0  0  0  0  0  0  0  0
    1.4029    2.7175   -2.2902 H   0  0  0  0  0  0  0  0  0  0  0  0
    2.0617    3.1840   -0.6936 H   0  0  0  0  0  0  0  0  0  0  0  0
    1.5440   -3.0724   -1.3175 H   0  0  0  0  0  0  0  0  0  0  0  0
    1.4955   -2.0902   -2.8209 H   0  0  0  0  0  0  0  0  0  0  0  0
    2.8267   -3.2537   -2.5586 H   0  0  0  0  0  0  0  0  0  0  0  0
    4.6215   -0.7258   -3.2409 H   0  0  0  0  0  0  0  0  0  0  0  0
    3.3077    0.4790   -3.0309 H   0  0  0  0  0  0  0  0  0  0  0  0
    4.7839    0.5857   -2.0248 H   0  0  0  0  0  0  0  0  0  0  0  0
    5.2422   -1.5458    0.3686 H   0  0  0  0  0  0  0  0  0  0  0  0
    5.1709   -2.7500   -0.9504 H   0  0  0  0  0  0  0  0  0  0  0  0
    4.0833   -2.9138    0.4629 H   0  0  0  0  0  0  0  0  0  0  0  0
    2.2183    2.1228    3.1119 H   0  0  0  0  0  0  0  0  0  0  0  0
    1.9469    2.8454    1.4973 H   0  0  0  0  0  0  0  0  0  0  0  0
    0.7821    1.6511    2.1276 H   0  0  0  0  0  0  0  0  0  0  0  0
    4.4323    2.0963    0.1099 H   0  0  0  0  0  0  0  0  0  0  0  0
    5.0037    1.8390    1.7892 H   0  0  0  0  0  0  0  0  0  0  0  0
    5.3412    0.6104    0.5351 H   0  0  0  0  0  0  0  0  0  0  0  0
    3.7519   -1.6347    2.3770 H   0  0  0  0  0  0  0  0  0  0  0  0
    3.7460   -0.2889    3.5574 H   0  0  0  0  0  0  0  0  0  0  0  0
    2.2137   -1.1048    3.1279 H   0  0  0  0  0  0  0  0  0  0  0  0
  1  2  1  0  0  0  0
  1  7  1  0  0  0  0
  3  2  1  0  0  0  0
  3  5  1  0  0  0  0
  4 18  1  0  0  0  0
  4  3  1  0  0  0  0
  5 20  1  0  0  0  0
  5 22  1  0  0  0  0
  6 25  1  0  0  0  0
  6  3  1  0  0  0  0
  7 12  1  0  0  0  0
  8 11  1  0  0  0  0
  8  7  1  0  0  0  0
  9 26  1  0  0  0  0
  9  8  1  0  0  0  0
 10 31  1  0  0  0  0
 10  8  1  0  0  0  0
 11 32  1  0  0  0  0
 11 34  1  0  0  0  0
 12 13  1  0  0  0  0
 12 15  1  0  0  0  0
 13 37  1  0  0  0  0
 13 35  1  0  0  0  0
 14 12  1  0  0  0  0
 14 39  1  0  0  0  0
 15 43  1  0  0  0  0
 15 42  1  0  0  0  0
 16  1  1  0  0  0  0
 17  4  1  0  0  0  0
 19  4  1  0  0  0  0
 21  5  1  0  0  0  0
 23  6  1  0  0  0  0
 24  6  1  0  0  0  0
 27  9  1  0  0  0  0
 28  9  1  0  0  0  0
 29 10  1  0  0  0  0
 30 10  1  0  0  0  0
 33 11  1  0  0  0  0
 36 13  1  0  0  0  0
 38 14  1  0  0  0  0
 40 14  1  0  0  0  0
 41 15  1  0  0  0  0
M  END
