1
q = 0.0, confidence = 0.994

 32 33  0  0  1  0  0  0  0  0999 V2000
    0.4033   -1.3521   -0.0054 N   0  0  0  0  0  2  0  0  0  0  0  0
    0.8173    1.3220   -0.8131 N   0  0  0  0  0  0  0  0  0  0  0  0
    1.6527   -0.8486   -0.1996 C   0  0  2  0  0  3  0  0  0  0  0  0
    2.7491   -1.7188   -0.3037 C   0  0  0  0  0  0  0  0  0  0  0  0
    3.7443   -1.2946   -0.4944 H   0  0  0  0  0  0  0  0  0  0  0  0
    2.5802   -3.1083   -0.1974 C   0  0  0  0  0  0  0  0  0  0  0  0
    1.2758   -3.5762    0.0316 C   0  0  0  0  0  0  0  0  0  0  0  0
    1.0813   -4.6527    0.1431 H   0  0  0  0  0  0  0  0  0  0  0  0
    0.1926   -2.6886    0.1273 C   0  0  0  0  0  0  0  0  0  0  0  0
    3.7367   -4.0559   -0.3509 C   0  0  0  0  0  0  0  0  0  0  0  0
    4.7033   -3.5637   -0.1317 H   0  0  0  0  0  0  0  0  0  0  0  0
    3.7852   -4.4347   -1.3942 H   0  0  0  0  0  0  0  0  0  0  0  0
    3.6285   -4.9380    0.3099 H   0  0  0  0  0  0  0  0  0  0  0  0
   -1.1993   -3.1766    0.3845 C   0  0  0  0  0  0  0  0  0  0  0  0
   -1.6183   -2.6867    1.2880 H   0  0  0  0  0  0  0  0  0  0  0  0
   -1.2144   -4.2723    0.5261 H   0  0  0  0  0  0  0  0  0  0  0  0
   -1.8555   -2.8996   -0.4681 H   0  0  0  0  0  0  0  0  0  0  0  0
    1.8391    0.6285   -0.2944 C   0  0  0  0  0  0  0  0  0  0  0  0
    0.8850    2.6626   -0.8968 C   0  0  0  0  0  0  0  0  0  0  0  0
    2.0350    3.3527   -0.4636 C   0  0  0  0  0  0  0  0  0  0  0  0
    2.0711    4.4504   -0.5399 H   0  0  0  0  0  0  0  0  0  0  0  0
    3.1267    2.6479    0.0772 C   0  0  0  0  0  0  0  0  0  0  0  0
    3.0200    1.2476    0.1573 C   0  0  0  0  0  0  0  0  0  0  0  0
    3.8328    0.6593    0.6075 H   0  0  0  0  0  0  0  0  0  0  0  0
   -0.3258    3.3549   -1.4522 C   0  0  0  0  0  0  0  0  0  0  0  0
   -0.5618    2.9574   -2.4597 H   0  0  0  0  0  0  0  0  0  0  0  0
   -0.1919    4.4508   -1.5111 H   0  0  0  0  0  0  0  0  0  0  0  0
   -1.2094    3.1232   -0.8191 H   0  0  0  0  0  0  0  0  0  0  0  0
    4.3415    3.3723    0.5923 C   0  0  0  0  0  0  0  0  0  0  0  0
    5.2113    2.6957    0.6973 H   0  0  0  0  0  0  0  0  0  0  0  0
    4.1357    3.8096    1.5923 H   0  0  0  0  0  0  0  0  0  0  0  0
    4.6255    4.2104   -0.0745 H   0  0  0  0  0  0  0  0  0  0  0  0
  1  9  1  0  0  0  0
  2 18  1  0  0  0  0
  3 18  1  1  0  0  0
  3  1  1  0  0  0  0
  4  3  1  0  0  0  0
  4  6  2  0  0  0  0
  5  4  1  0  0  0  0
  6  7  1  0  0  0  0
  7  9  2  0  0  0  0
  7  8  1  0  0  0  0
  9 14  1  0  0  0  0
 10  6  1  0  0  0  0
 10 11  1  0  0  0  0
 10 13  1  0  0  0  0
 12 10  1  0  0  0  0
 14 16  1  0  0  0  0
 14 15  1  0  0  0  0
 17 14  1  0  0  0  0
 18 23  2  0  0  0  0
 19  2  2  0  0  0  0
 19 20  1  0  0  0  0
 20 22  2  0  0  0  0
 21 20  1  0  0  0  0
 22 23  1  0  0  0  0
 22 29  1  0  0  0  0
 23 24  1  0  0  0  0
 25 19  1  0  0  0  0
 25 28  1  0  0  0  0
 26 25  1  0  0  0  0
 27 25  1  0  0  0  0
 29 30  1  0  0  0  0
 29 31  1  0  0  0  0
 32 29  1  0  0  0  0
M  END
