1
q = -1.0

 31 31  0  0  0  0  0  0  0  0999 V2000
   -1.7336   -0.6529   -0.0490 N   0  0  0  0  0  2  0  0  0  0  0  0
   -2.7824    0.2948   -0.0344 C   0  0  0  0  0  0  0  0  0  0  0  0
   -2.8085    1.3398   -1.0090 C   0  0  0  0  0  0  0  0  0  0  0  0
   -3.8386    2.2968   -0.9764 C   0  0  0  0  0  0  0  0  0  0  0  0
   -3.8494    3.0947   -1.7362 H   0  0  0  0  0  0  0  0  0  0  0  0
   -4.8495    2.2384   -0.0082 C   0  0  0  0  0  0  0  0  0  0  0  0
   -5.6517    2.9914    0.0036 H   0  0  0  0  0  0  0  0  0  0  0  0
   -4.8246    1.2148    0.9472 C   0  0  0  0  0  0  0  0  0  0  0  0
   -5.6074    1.1685    1.7215 H   0  0  0  0  0  0  0  0  0  0  0  0
   -3.8059    0.2438    0.9566 C   0  0  0  0  0  0  0  0  0  0  0  0
   -1.7456    1.4056   -2.0757 C   0  0  0  0  0  0  0  0  0  0  0  0
   -1.6463    0.4414   -2.6161 H   0  0  0  0  0  0  0  0  0  0  0  0
   -0.7314    1.6333   -1.6665 H   0  0  0  0  0  0  0  0  0  0  0  0
   -1.9650    2.2023   -2.8124 H   0  0  0  0  0  0  0  0  0  0  0  0
   -3.7811   -0.8234    2.0171 C   0  0  0  0  0  0  0  0  0  0  0  0
   -4.1524   -1.7976    1.6326 H   0  0  0  0  0  0  0  0  0  0  0  0
   -4.4194   -0.5485    2.8788 H   0  0  0  0  0  0  0  0  0  0  0  0
   -2.7459   -1.0025    2.3715 H   0  0  0  0  0  0  0  0  0  0  0  0
   -1.8190   -2.3513   -0.5259 Si  0  0  0  0  0  0  0  0  0  0  0  0
   -1.8027   -3.5764    0.9210 C   0  0  0  0  0  0  0  0  0  0  0  0
   -0.9519   -3.3669    1.6021 H   0  0  0  0  0  0  0  0  0  0  0  0
   -1.6777   -4.6120    0.5405 H   0  0  0  0  0  0  0  0  0  0  0  0
   -2.7315   -3.5457    1.5228 H   0  0  0  0  0  0  0  0  0  0  0  0
   -0.2131   -2.6650   -1.4956 C   0  0  0  0  0  0  0  0  0  0  0  0
   -0.1568   -2.0348   -2.4073 H   0  0  0  0  0  0  0  0  0  0  0  0
   -0.1358   -3.7259   -1.8131 H   0  0  0  0  0  0  0  0  0  0  0  0
    0.6990   -2.4637   -0.8877 H   0  0  0  0  0  0  0  0  0  0  0  0
   -3.3483   -2.6136   -1.5974 C   0  0  0  0  0  0  0  0  0  0  0  0
   -4.2660   -2.3399   -1.0374 H   0  0  0  0  0  0  0  0  0  0  0  0
   -3.4440   -3.6710   -1.9180 H   0  0  0  0  0  0  0  0  0  0  0  0
   -3.3091   -1.9748   -2.5029 H   0  0  0  0  0  0  0  0  0  0  0  0
  1  2  1  0  0  0  0
  2 10  1  0  0  0  0
  3  4  1  0  0  0  0
  3  2  2  0  0  0  0
  4  6  2  0  0  0  0
  5  4  1  0  0  0  0
  6  7  1  0  0  0  0
  6  8  1  0  0  0  0
  8 10  2  0  0  0  0
  8  9  1  0  0  0  0
 10 15  1  0  0  0  0
 11 13  1  0  0  0  0
 11  3  1  0  0  0  0
 12 11  1  0  0  0  0
 14 11  1  0  0  0  0
 15 18  1  0  0  0  0
 15 17  1  0  0  0  0
 16 15  1  0  0  0  0
 19  1  1  0  0  0  0
 19 20  1  0  0  0  0
 20 23  1  0  0  0  0
 20 21  1  0  0  0  0
 22 20  1  0  0  0  0
 24 27  1  0  0  0  0
 24 19  1  0  0  0  0
 25 24  1  0  0  0  0
 26 24  1  0  0  0  0
 28 29  1  0  0  0  0
 28 19  1  0  0  0  0
 30 28  1  0  0  0  0
 31 28  1  0  0  0  0
M  END
