3
q = -1.0

 23 23  0  0  0  0  0  0  0  0999 V2000
    1.4827   -0.1298    1.2910 S   0  0  0  0  0  0  0  0  0  0  0  0
    4.8973    0.2984    2.0003 Si  0  0  0  0  0  0  0  0  0  0  0  0
    2.2257   -1.1812   -0.8793 N   0  0  0  0  0  2  0  0  0  0  0  0
    2.7738   -0.6304    0.2361 C   0  0  0  0  0  0  0  0  0  0  0  0
    4.1735   -0.5246    0.4385 C   0  0  0  0  0  0  0  0  0  0  0  0
    4.9734   -1.0516   -0.5901 C   0  0  0  0  0  0  0  0  0  0  0  0
    4.4012   -1.6395   -1.7362 C   0  0  0  0  0  0  0  0  0  0  0  0
    3.0115   -1.6859   -1.8501 C   0  0  0  0  0  0  0  0  0  0  0  0
    4.3051    2.0934    2.0584 C   0  0  0  0  0  0  0  0  0  0  0  0
    6.7840    0.2432    1.8655 C   0  0  0  0  0  0  0  0  0  0  0  0
    4.3273   -0.6572    3.5263 C   0  0  0  0  0  0  0  0  0  0  0  0
    6.0709   -1.0083   -0.5018 H   0  0  0  0  0  0  0  0  0  0  0  0
    5.0267   -2.0597   -2.5361 H   0  0  0  0  0  0  0  0  0  0  0  0
    2.4866   -2.1250   -2.7110 H   0  0  0  0  0  0  0  0  0  0  0  0
    4.6914    2.6646    1.1897 H   0  0  0  0  0  0  0  0  0  0  0  0
    4.6565    2.5930    2.9847 H   0  0  0  0  0  0  0  0  0  0  0  0
    3.1978    2.1432    2.0340 H   0  0  0  0  0  0  0  0  0  0  0  0
    7.1507    0.7905    0.9730 H   0  0  0  0  0  0  0  0  0  0  0  0
    7.1629   -0.7981    1.8154 H   0  0  0  0  0  0  0  0  0  0  0  0
    7.2375    0.7201    2.7588 H   0  0  0  0  0  0  0  0  0  0  0  0
    3.2208   -0.6963    3.5790 H   0  0  0  0  0  0  0  0  0  0  0  0
    4.7046   -0.1753    4.4519 H   0  0  0  0  0  0  0  0  0  0  0  0
    4.7029   -1.7003    3.5009 H   0  0  0  0  0  0  0  0  0  0  0  0
  2  9  1  0  0  0  0
  2 11  1  0  0  0  0
  3  4  1  0  0  0  0
  4  5  1  0  0  0  0
  4  1  2  0  0  0  0
  5  2  1  0  0  0  0
  6 12  1  0  0  0  0
  6  5  2  0  0  0  0
  7  6  1  0  0  0  0
  8  7  2  0  0  0  0
  8  3  1  0  0  0  0
  9 16  1  0  0  0  0
 10  2  1  0  0  0  0
 10 20  1  0  0  0  0
 11 21  1  0  0  0  0
 11 22  1  0  0  0  0
 13  7  1  0  0  0  0
 14  8  1  0  0  0  0
 15  9  1  0  0  0  0
 17  9  1  0  0  0  0
 18 10  1  0  0  0  0
 19 10  1  0  0  0  0
 23 11  1  0  0  0  0
M  END
