18
q = 0.0, confidence = 0.954

 28 31  0  0  0  0  0  0  0  0999 V2000
   -1.2205    0.9798   -0.2361 N   0  0  0  0  0  0  0  0  0  0  0  0
   -0.9235    2.1022   -0.8872 C   0  0  0  0  0  0  0  0  0  0  0  0
    0.1251    2.4382   -0.8201 H   0  0  0  0  0  0  0  0  0  0  0  0
   -1.8784    2.8442   -1.6171 C   0  0  0  0  0  0  0  0  0  0  0  0
   -1.5799    3.7668   -2.1354 H   0  0  0  0  0  0  0  0  0  0  0  0
   -3.1925    2.3857   -1.6646 C   0  0  0  0  0  0  0  0  0  0  0  0
   -3.9820    2.9155   -2.2166 H   0  0  0  0  0  0  0  0  0  0  0  0
   -3.5237    1.1974   -0.9729 C   0  0  0  0  0  0  0  0  0  0  0  0
   -4.8716    0.6451   -0.9668 C   0  0  0  0  0  0  0  0  0  0  0  0
   -5.1566   -0.5576   -0.2353 C   0  0  0  0  0  0  0  0  0  0  0  0
   -4.1018   -1.2256    0.5150 C   0  0  0  0  0  0  0  0  0  0  0  0
   -4.3304   -2.3991    1.2720 C   0  0  0  0  0  0  0  0  0  0  0  0
   -5.3436   -2.8258    1.2906 H   0  0  0  0  0  0  0  0  0  0  0  0
   -3.2693   -2.9680    1.9722 C   0  0  0  0  0  0  0  0  0  0  0  0
   -3.4087   -3.8758    2.5762 H   0  0  0  0  0  0  0  0  0  0  0  0
   -1.9985   -2.3550    1.9115 C   0  0  0  0  0  0  0  0  0  0  0  0
   -1.1107   -2.7251    2.4599 H   0  0  0  0  0  0  0  0  0  0  0  0
   -1.7772   -1.2510    1.1912 N   0  0  0  0  0  2  0  0  0  0  0  0
   -2.4922    0.5298   -0.2596 C   0  0  0  0  0  0  0  0  0  0  0  0
   -2.7901   -0.6832    0.5017 C   0  0  0  0  0  0  0  0  0  0  0  0
   -5.8396    1.2778   -1.6562 N   0  0  0  0  0  2  0  0  0  0  0  0
   -6.3966   -1.0820   -0.2266 N   0  0  0  0  0  0  0  0  0  0  0  0
   -7.0680    0.7552   -1.6410 C   0  0  0  0  0  0  0  0  0  0  0  0
   -7.3519   -0.4504   -0.9128 C   0  0  0  0  0  0  0  0  0  0  0  0
   -8.1010    1.4331   -2.3798 C   0  0  0  0  0  0  0  0  0  0  0  0
   -8.6764   -1.0144   -0.9055 C   0  0  0  0  0  0  0  0  0  0  0  0
   -8.9492    1.9766   -2.9805 N   0  0  0  0  0  0  0  0  0  0  0  0
   -9.7586   -1.4666   -0.9085 N   0  0  0  0  0  0  0  0  0  0  0  0
  2  3  1  0  0  0  0
  2  1  2  0  0  0  0
  4  2  1  0  0  0  0
  5  4  1  0  0  0  0
  6  4  2  0  0  0  0
  6  8  1  0  0  0  0
  7  6  1  0  0  0  0
  8  9  2  0  0  0  0
  8 19  1  0  0  0  0
  9 10  1  0  0  0  0
 10 22  2  0  0  0  0
 10 11  1  0  0  0  0
 11 12  2  0  0  0  0
 12 13  1  0  0  0  0
 12 14  1  0  0  0  0
 14 15  1  0  0  0  0
 16 14  2  0  0  0  0
 16 17  1  0  0  0  0
 18 16  1  0  0  0  0
 19  1  1  0  0  0  0
 19 20  2  0  0  0  0
 20 11  1  0  0  0  0
 20 18  1  0  0  0  0
 21 23  1  0  0  0  0
 21  9  1  0  0  0  0
 23 24  2  0  0  0  0
 24 26  1  0  0  0  0
 24 22  1  0  0  0  0
 25 23  1  0  0  0  0
 27 25  3  0  0  0  0
 28 26  3  0  0  0  0
M  END
