1
q = 0.0, confidence = 0.99

 18 17  0  0  1  0  0  0  0  0999 V2000
   -1.4853    0.4188   -0.1094 N   0  0  0  0  0  2  0  0  0  0  0  0
   -2.3999    0.5170    0.8100 C   0  0  1  0  0  3  0  0  0  0  0  0
   -3.4738    1.3208    0.7339 O   0  0  0  0  0  0  0  0  0  0  0  0
   -3.7213    2.1277   -0.4483 C   0  0  0  0  0  0  0  0  0  0  0  0
   -5.2193    2.3913   -0.4658 C   0  0  0  0  0  0  0  0  0  0  0  0
   -2.8811    3.4020   -0.3968 C   0  0  0  0  0  0  0  0  0  0  0  0
   -2.3616   -0.2983    2.0601 C   0  0  0  0  0  0  0  0  0  0  0  0
   -1.6392    0.9880   -0.9494 H   0  0  0  0  0  0  0  0  0  0  0  0
   -3.4525    1.5194   -1.3431 H   0  0  0  0  0  0  0  0  0  0  0  0
   -5.7826    1.4389   -0.4874 H   0  0  0  0  0  0  0  0  0  0  0  0
   -5.5229    2.9589    0.4365 H   0  0  0  0  0  0  0  0  0  0  0  0
   -5.4929    2.9827   -1.3612 H   0  0  0  0  0  0  0  0  0  0  0  0
   -3.1509    3.9994    0.4969 H   0  0  0  0  0  0  0  0  0  0  0  0
   -1.7962    3.1824   -0.3477 H   0  0  0  0  0  0  0  0  0  0  0  0
   -3.0662    4.0197   -1.2977 H   0  0  0  0  0  0  0  0  0  0  0  0
   -2.5185   -1.3596    1.7703 H   0  0  0  0  0  0  0  0  0  0  0  0
   -1.3546   -0.2462    2.5169 H   0  0  0  0  0  0  0  0  0  0  0  0
   -3.1379    0.0405    2.7683 H   0  0  0  0  0  0  0  0  0  0  0  0
  2  1  1  6  0  0  0
  2  7  1  0  0  0  0
  3  2  1  0  0  0  0
  4  6  1  0  0  0  0
  4  3  1  0  0  0  0
  5  4  1  0  0  0  0
  5 11  1  0  0  0  0
  6 14  1  0  0  0  0
  6 13  1  0  0  0  0
  7 17  1  0  0  0  0
  7 18  1  0  0  0  0
  8  1  1  0  0  0  0
  9  4  1  0  0  0  0
 10  5  1  0  0  0  0
 12  5  1  0  0  0  0
 15  6  1  0  0  0  0
 16  7  1  0  0  0  0
M  END
