2
q = 0.0, confidence = 0.994

 32 34  0  0  1  0  0  0  0  0999 V2000
   -2.6704    3.1245   -0.9043 O   0  0  0  0  0  0  0  0  0  0  0  0
   -1.0725    1.6170   -0.5280 N   0  0  0  0  0  2  0  0  0  0  0  0
   -1.4663    3.6927   -1.5249 N   0  0  0  0  0  0  0  0  0  0  0  0
   -2.3484    1.8855   -0.4698 C   0  0  2  0  0  3  0  0  0  0  0  0
   -3.4589    1.0460   -0.0139 C   0  0  0  0  0  0  0  0  0  0  0  0
   -4.6744    1.6623    0.3623 C   0  0  0  0  0  0  0  0  0  0  0  0
   -5.7572    0.8773    0.7738 C   0  0  0  0  0  0  0  0  0  0  0  0
   -5.6450   -0.5229    0.7932 C   0  0  0  0  0  0  0  0  0  0  0  0
   -4.4446   -1.1370    0.4004 C   0  0  0  0  0  0  0  0  0  0  0  0
   -3.3501   -0.3620    0.0028 C   0  0  0  0  0  0  0  0  0  0  0  0
   -0.3695    2.8021   -1.0539 C   0  0  1  0  0  0  0  0  0  0  0  0
    0.5328    3.4531   -0.0245 C   0  0  0  0  0  0  0  0  0  0  0  0
    1.8183    3.8695   -0.4134 C   0  0  0  0  0  0  0  0  0  0  0  0
    2.6701    4.5003    0.5066 C   0  0  0  0  0  0  0  0  0  0  0  0
    2.2408    4.7095    1.8263 C   0  0  0  0  0  0  0  0  0  0  0  0
    0.9596    4.2890    2.2198 C   0  0  0  0  0  0  0  0  0  0  0  0
    0.1073    3.6648    1.2994 C   0  0  0  0  0  0  0  0  0  0  0  0
   -1.6876    3.5965   -2.9654 C   0  0  0  0  0  0  0  0  0  0  0  0
   -4.7556    2.7581    0.3382 H   0  0  0  0  0  0  0  0  0  0  0  0
   -6.6967    1.3614    1.0795 H   0  0  0  0  0  0  0  0  0  0  0  0
   -6.5003   -1.1383    1.1118 H   0  0  0  0  0  0  0  0  0  0  0  0
   -4.3522   -2.2328    0.3969 H   0  0  0  0  0  0  0  0  0  0  0  0
   -2.4038   -0.8388   -0.3013 H   0  0  0  0  0  0  0  0  0  0  0  0
    0.2427    2.4785   -1.9241 H   0  0  0  0  0  0  0  0  0  0  0  0
    2.1556    3.6867   -1.4463 H   0  0  0  0  0  0  0  0  0  0  0  0
    3.6739    4.8266    0.1932 H   0  0  0  0  0  0  0  0  0  0  0  0
    2.9092    5.1957    2.5531 H   0  0  0  0  0  0  0  0  0  0  0  0
    0.6252    4.4357    3.2577 H   0  0  0  0  0  0  0  0  0  0  0  0
   -0.8809    3.3075    1.6238 H   0  0  0  0  0  0  0  0  0  0  0  0
   -2.5952    4.1711   -3.2288 H   0  0  0  0  0  0  0  0  0  0  0  0
   -1.7787    2.5475   -3.3339 H   0  0  0  0  0  0  0  0  0  0  0  0
   -0.8193    4.0772   -3.4573 H   0  0  0  0  0  0  0  0  0  0  0  0
  1  4  1  0  0  0  0
  2  4  1  0  0  0  0
  3 11  1  0  0  0  0
  3  1  1  0  0  0  0
  4  5  1  6  0  0  0
  5 10  2  0  0  0  0
  5  6  1  0  0  0  0
  6  7  2  0  0  0  0
  7  8  1  0  0  0  0
  7 20  1  0  0  0  0
  8 21  1  0  0  0  0
  9  8  2  0  0  0  0
 10  9  1  0  0  0  0
 11 24  1  6  0  0  0
 11  2  1  0  0  0  0
 11 12  1  0  0  0  0
 12 17  1  0  0  0  0
 13 12  2  0  0  0  0
 13 14  1  0  0  0  0
 14 15  2  0  0  0  0
 15 16  1  0  0  0  0
 15 27  1  0  0  0  0
 16 28  1  0  0  0  0
 17 29  1  0  0  0  0
 17 16  2  0  0  0  0
 18  3  1  0  0  0  0
 19  6  1  0  0  0  0
 22  9  1  0  0  0  0
 23 10  1  0  0  0  0
 25 13  1  0  0  0  0
 26 14  1  0  0  0  0
 30 18  1  0  0  0  0
 31 18  1  0  0  0  0
 32 18  1  0  0  0  0
M  END
