2
q = -1.0, confidence = 0.12

 48 51  0  0  0  0  0  0  0  0999 V2000
    2.5920    2.1485    1.2500 S   0  0  0  0  0  0  0  0  0  0  0  0
    1.8215    0.6468    0.9416 N   0  0  0  0  0  2  0  0  0  0  0  0
    0.9341   -1.7890    0.0081 N   0  0  0  0  0  0  0  0  0  0  0  0
   -3.6864   -0.3349    0.1615 N   0  0  0  0  0  0  0  0  0  0  0  0
   -4.5106    0.6085    0.4037 N   0  0  0  0  0  0  0  0  0  0  0  0
  -10.0441   -0.3587   -0.3708 N   0  0  0  0  0  0  0  0  0  0  0  0
    4.0113    1.7569    1.4136 O   0  0  0  0  0  0  0  0  0  0  0  0
    1.8744    2.8995    2.2989 O   0  0  0  0  0  0  0  0  0  0  0  0
  -10.8008    0.5878   -0.1504 O   0  0  0  0  0  0  0  0  0  0  0  0
  -10.3978   -1.4791   -0.7414 O   0  0  0  0  0  0  0  0  0  0  0  0
    2.1346    4.3152   -2.7537 C   0  0  0  0  0  0  0  0  0  0  0  0
    2.0184    4.8267   -3.7210 H   0  0  0  0  0  0  0  0  0  0  0  0
    1.3597    4.7163   -1.6544 C   0  0  0  0  0  0  0  0  0  0  0  0
    0.6420    5.5440   -1.7552 H   0  0  0  0  0  0  0  0  0  0  0  0
    1.5014    4.0672   -0.4181 C   0  0  0  0  0  0  0  0  0  0  0  0
    0.9225    4.3756    0.4636 H   0  0  0  0  0  0  0  0  0  0  0  0
    2.4251    3.0174   -0.3119 C   0  0  0  0  0  0  0  0  0  0  0  0
    3.2230    2.6124   -1.3967 C   0  0  0  0  0  0  0  0  0  0  0  0
    3.9636    1.8070   -1.2806 H   0  0  0  0  0  0  0  0  0  0  0  0
    3.0658    3.2697   -2.6238 C   0  0  0  0  0  0  0  0  0  0  0  0
    3.6818    2.9661   -3.4832 H   0  0  0  0  0  0  0  0  0  0  0  0
    0.4685    0.4596    0.7869 C   0  0  0  0  0  0  0  0  0  0  0  0
   -0.5119    1.4356    1.0862 C   0  0  0  0  0  0  0  0  0  0  0  0
   -0.1888    2.3882    1.5231 H   0  0  0  0  0  0  0  0  0  0  0  0
   -1.8725    1.1922    0.8805 C   0  0  0  0  0  0  0  0  0  0  0  0
   -2.6201    1.9623    1.1189 H   0  0  0  0  0  0  0  0  0  0  0  0
   -2.3459   -0.0346    0.3815 C   0  0  0  0  0  0  0  0  0  0  0  0
   -1.3886   -1.0673    0.0869 C   0  0  0  0  0  0  0  0  0  0  0  0
    0.0089   -0.8288    0.2836 C   0  0  0  0  0  0  0  0  0  0  0  0
   -1.7597   -2.3487   -0.4062 C   0  0  0  0  0  0  0  0  0  0  0  0
   -2.8285   -2.5496   -0.5630 H   0  0  0  0  0  0  0  0  0  0  0  0
   -0.7904   -3.2994   -0.6720 C   0  0  0  0  0  0  0  0  0  0  0  0
   -1.0653   -4.2941   -1.0529 H   0  0  0  0  0  0  0  0  0  0  0  0
    0.5844   -2.9900   -0.4527 C   0  0  0  0  0  0  0  0  0  0  0  0
    1.6561   -4.0028   -0.7459 C   0  0  0  0  0  0  0  0  0  0  0  0
    2.6591   -3.6392   -0.4527 H   0  0  0  0  0  0  0  0  0  0  0  0
    1.6767   -4.2441   -1.8293 H   0  0  0  0  0  0  0  0  0  0  0  0
    1.4554   -4.9536   -0.2113 H   0  0  0  0  0  0  0  0  0  0  0  0
   -5.8620    0.2882    0.1889 C   0  0  0  0  0  0  0  0  0  0  0  0
   -6.7848    1.3345    0.4279 C   0  0  0  0  0  0  0  0  0  0  0  0
   -6.3863    2.3045    0.7582 H   0  0  0  0  0  0  0  0  0  0  0  0
   -8.1540    1.1307    0.2465 C   0  0  0  0  0  0  0  0  0  0  0  0
   -8.8960    1.9206    0.4221 H   0  0  0  0  0  0  0  0  0  0  0  0
   -8.5938   -0.1321   -0.1755 C   0  0  0  0  0  0  0  0  0  0  0  0
   -7.7009   -1.1909   -0.4185 C   0  0  0  0  0  0  0  0  0  0  0  0
   -8.1073   -2.1574   -0.7457 H   0  0  0  0  0  0  0  0  0  0  0  0
   -6.3362   -0.9801   -0.2359 C   0  0  0  0  0  0  0  0  0  0  0  0
   -5.6049   -1.7800   -0.4130 H   0  0  0  0  0  0  0  0  0  0  0  0
  1  7  2  0  0  0  0
  1  8  2  0  0  0  0
  2  1  1  0  0  0  0
  3 29  1  0  0  0  0
  4 27  1  0  0  0  0
  4  5  2  0  0  0  0
  6 44  1  0  0  0  0
  6  9  2  0  0  0  0
 10  6  2  0  0  0  0
 11 20  2  0  0  0  0
 11 13  1  0  0  0  0
 12 11  1  0  0  0  0
 13 15  2  0  0  0  0
 14 13  1  0  0  0  0
 15 17  1  0  0  0  0
 15 16  1  0  0  0  0
 17  1  1  0  0  0  0
 18 19  1  0  0  0  0
 18 17  2  0  0  0  0
 20 18  1  0  0  0  0
 21 20  1  0  0  0  0
 22  2  1  0  0  0  0
 22 23  1  0  0  0  0
 23 24  1  0  0  0  0
 25 23  2  0  0  0  0
 25 26  1  0  0  0  0
 27 25  1  0  0  0  0
 28 29  1  0  0  0  0
 28 27  2  0  0  0  0
 29 22  2  0  0  0  0
 30 28  1  0  0  0  0
 31 30  1  0  0  0  0
 32 34  1  0  0  0  0
 32 30  2  0  0  0  0
 33 32  1  0  0  0  0
 34  3  2  0  0  0  0
 35 36  1  0  0  0  0
 35 34  1  0  0  0  0
 35 38  1  0  0  0  0
 37 35  1  0  0  0  0
 39  5  1  0  0  0  0
 39 40  1  0  0  0  0
 40 41  1  0  0  0  0
 42 43  1  0  0  0  0
 42 40  2  0  0  0  0
 44 42  1  0  0  0  0
 45 47  1  0  0  0  0
 45 44  2  0  0  0  0
 46 45  1  0  0  0  0
 47 39  2  0  0  0  0
 48 47  1  0  0  0  0
M  END
