1
q = 0.0, confidence = 1.0

 26 27  0  0  1  0  0  0  0  0999 V2000
   -1.0613   -1.6975   -0.9987 N   0  0  0  0  0  2  0  0  0  0  0  0
   -6.4889    0.4520   -0.0224 C   0  0  0  0  0  0  0  0  0  0  0  0
   -8.4537    1.8084    0.5203 C   0  0  0  0  0  0  0  0  0  0  0  0
   -8.8909    2.7856    0.7761 H   0  0  0  0  0  0  0  0  0  0  0  0
   -2.4092   -1.8398   -1.0205 C   0  0  2  0  0  3  0  0  0  0  0  0
   -5.0474    0.3715   -0.2367 C   0  0  0  0  0  0  0  0  0  0  0  0
   -4.4602    1.3101   -0.1236 H   0  0  0  0  0  0  0  0  0  0  0  0
   -2.2120   -4.1464   -1.6940 C   0  0  0  0  0  0  0  0  0  0  0  0
   -2.6661   -5.1140   -1.9580 H   0  0  0  0  0  0  0  0  0  0  0  0
   -7.0732    1.6976    0.3074 C   0  0  0  0  0  0  0  0  0  0  0  0
   -6.4282    2.5863    0.3964 H   0  0  0  0  0  0  0  0  0  0  0  0
   -0.2905   -2.7425   -1.3535 C   0  0  0  0  0  0  0  0  0  0  0  0
    0.7942   -2.5534   -1.3163 H   0  0  0  0  0  0  0  0  0  0  0  0
   -3.0283   -3.0730   -1.3481 C   0  0  0  0  0  0  0  0  0  0  0  0
   -4.1233   -3.1380   -1.3309 H   0  0  0  0  0  0  0  0  0  0  0  0
   -4.4549   -0.7458   -0.5436 N   0  0  0  0  0  0  0  0  0  0  0  0
   -7.3302   -0.6829   -0.1323 C   0  0  0  0  0  0  0  0  0  0  0  0
   -6.8743   -1.6505   -0.3872 H   0  0  0  0  0  0  0  0  0  0  0  0
   -8.7065   -0.5681    0.0810 C   0  0  0  0  0  0  0  0  0  0  0  0
   -9.3481   -1.4584   -0.0075 H   0  0  0  0  0  0  0  0  0  0  0  0
   -9.2767    0.6768    0.4082 C   0  0  0  0  0  0  0  0  0  0  0  0
  -10.3612    0.7620    0.5752 H   0  0  0  0  0  0  0  0  0  0  0  0
   -3.1302   -0.7093   -0.7107 N   0  0  0  0  0  0  0  0  0  0  0  0
   -2.5942    0.1845   -0.6187 H   0  0  0  0  0  0  0  0  0  0  0  0
   -0.8113   -3.9871   -1.7144 C   0  0  0  0  0  0  0  0  0  0  0  0
   -0.1408   -4.8113   -1.9938 H   0  0  0  0  0  0  0  0  0  0  0  0
  2 10  1  0  0  0  0
  3  4  1  0  0  0  0
  5  1  1  0  0  0  0
  5 23  1  6  0  0  0
  6  7  1  0  0  0  0
  6  2  1  0  0  0  0
  8 14  2  0  0  0  0
  9  8  1  0  0  0  0
 10 11  1  0  0  0  0
 10  3  2  0  0  0  0
 12 13  1  0  0  0  0
 12  1  1  0  0  0  0
 14 15  1  0  0  0  0
 14  5  1  0  0  0  0
 16  6  2  0  0  0  0
 17  2  2  0  0  0  0
 17 19  1  0  0  0  0
 18 17  1  0  0  0  0
 19 21  2  0  0  0  0
 20 19  1  0  0  0  0
 21  3  1  0  0  0  0
 21 22  1  0  0  0  0
 23 24  1  0  0  0  0
 23 16  1  0  0  0  0
 25  8  1  0  0  0  0
 25 12  2  0  0  0  0
 26 25  1  0  0  0  0
M  END
