2
q = 0.0, confidence = 0.898

 15 15  0  0  0  0  0  0  0  0999 V2000
   -3.1368    6.3988   -0.2351 Cl  0  0  0  0  0  0  0  0  0  0  0  0
   -0.8690    0.8851   -0.2304 N   0  0  0  0  0  2  0  0  0  0  0  0
   -0.0263    0.2823   -1.1784 C   0  0  0  0  0  3  0  0  0  0  0  0
    0.6576    0.9401   -1.7544 H   0  0  0  0  0  0  0  0  0  0  0  0
   -0.4782   -0.5064   -1.8151 H   0  0  0  0  0  0  0  0  0  0  0  0
   -1.3777    2.1612   -0.2579 C   0  0  0  0  0  0  0  0  0  0  0  0
   -2.0036    2.6967    0.9041 C   0  0  0  0  0  0  0  0  0  0  0  0
   -2.0700    2.0638    1.8031 H   0  0  0  0  0  0  0  0  0  0  0  0
   -2.5363    3.9874    0.9151 C   0  0  0  0  0  0  0  0  0  0  0  0
   -3.0170    4.3879    1.8191 H   0  0  0  0  0  0  0  0  0  0  0  0
   -2.4673    4.7810   -0.2447 C   0  0  0  0  0  0  0  0  0  0  0  0
   -1.8728    4.2732   -1.4111 C   0  0  0  0  0  0  0  0  0  0  0  0
   -1.8351    4.8976   -2.3155 H   0  0  0  0  0  0  0  0  0  0  0  0
   -1.3374    2.9800   -1.4195 C   0  0  0  0  0  0  0  0  0  0  0  0
   -0.8865    2.5799   -2.3391 H   0  0  0  0  0  0  0  0  0  0  0  0
  3  2  1  0  0  0  0
  4  3  1  0  0  0  0
  5  3  1  0  0  0  0
  6  2  1  0  0  0  0
  6  7  1  0  0  0  0
  7  9  2  0  0  0  0
  7  8  1  0  0  0  0
  9 10  1  0  0  0  0
 11  1  1  0  0  0  0
 11  9  1  0  0  0  0
 12 11  2  0  0  0  0
 13 12  1  0  0  0  0
 14 12  1  0  0  0  0
 14  6  2  0  0  0  0
 15 14  1  0  0  0  0
M  END
