2
q = 0.0, confidence = 1.0

 18 18  0  0  1  0  0  0  0  0999 V2000
    0.5690   -2.9463   -0.0462 O   0  0  0  0  0  0  0  0  0  0  0  0
    0.9011   -1.6549    0.0889 N   0  0  0  0  0  2  0  0  0  0  0  0
    1.4305    0.9390    0.8788 N   0  0  0  0  0  0  0  0  0  0  0  0
    2.8056   -2.5534    1.2937 C   0  0  0  0  0  0  0  0  0  0  0  0
    3.6222   -2.2155    1.9549 H   0  0  0  0  0  0  0  0  0  0  0  0
    3.2284   -3.1434    0.4531 H   0  0  0  0  0  0  0  0  0  0  0  0
    2.1508   -3.2517    1.8526 H   0  0  0  0  0  0  0  0  0  0  0  0
    1.9921   -1.4084    0.7703 C   0  0  1  0  0  3  0  0  0  0  0  0
    2.4059    0.0033    0.9149 C   0  0  0  0  0  0  0  0  0  0  0  0
    3.7690    0.3508    1.0423 C   0  0  0  0  0  0  0  0  0  0  0  0
    4.5457   -0.4263    1.0698 H   0  0  0  0  0  0  0  0  0  0  0  0
    4.1209    1.7057    1.0876 C   0  0  0  0  0  0  0  0  0  0  0  0
    5.1777    2.0016    1.1681 H   0  0  0  0  0  0  0  0  0  0  0  0
    3.1084    2.6726    1.0127 C   0  0  0  0  0  0  0  0  0  0  0  0
    3.3389    3.7478    1.0390 H   0  0  0  0  0  0  0  0  0  0  0  0
    1.7792    2.2290    0.9143 C   0  0  0  0  0  0  0  0  0  0  0  0
    0.9491    2.9572    0.8666 H   0  0  0  0  0  0  0  0  0  0  0  0
   -0.2656   -2.8898   -0.7239 H   0  0  0  0  0  0  0  0  0  0  0  0
  1  2  1  0  0  0  0
  3 16  2  0  0  0  0
  3  9  1  0  0  0  0
  4  7  1  0  0  0  0
  4  5  1  0  0  0  0
  6  4  1  0  0  0  0
  8  2  1  6  0  0  0
  8  9  1  0  0  0  0
  8  4  1  0  0  0  0
  9 10  2  0  0  0  0
 10 11  1  0  0  0  0
 10 12  1  0  0  0  0
 12 13  1  0  0  0  0
 14 15  1  0  0  0  0
 14 12  2  0  0  0  0
 16 14  1  0  0  0  0
 17 16  1  0  0  0  0
 18  1  1  0  0  0  0
M  END
