1
q = -1.0

 14 14  0  0  0  0  0  0  0  0999 V2000
    1.1928    0.0196    1.0060 N   0  0  0  0  0  2  0  0  0  0  0  0
    1.1001   -0.2629    1.9830 H   0  0  0  0  0  0  0  0  0  0  0  0
    7.7990    0.1512   -0.7809 N   0  0  0  0  0  0  0  0  0  0  0  0
    2.5017    0.0392    0.6160 C   0  0  0  0  0  0  0  0  0  0  0  0
    2.9269    0.4107   -0.6958 C   0  0  0  0  0  0  0  0  0  0  0  0
    2.1652    0.6683   -1.4455 H   0  0  0  0  0  0  0  0  0  0  0  0
    4.2767    0.4407   -1.0451 C   0  0  0  0  0  0  0  0  0  0  0  0
    4.5696    0.7318   -2.0645 H   0  0  0  0  0  0  0  0  0  0  0  0
    5.2832    0.1017   -0.1093 C   0  0  0  0  0  0  0  0  0  0  0  0
    4.8796   -0.2667    1.1995 C   0  0  0  0  0  0  0  0  0  0  0  0
    5.6443   -0.5327    1.9436 H   0  0  0  0  0  0  0  0  0  0  0  0
    3.5336   -0.2993    1.5490 C   0  0  0  0  0  0  0  0  0  0  0  0
    3.2486   -0.5826    2.5758 H   0  0  0  0  0  0  0  0  0  0  0  0
    6.6641    0.1291   -0.4755 C   0  0  0  0  0  0  0  0  0  0  0  0
  1  2  1  0  0  0  0
  3 14  3  0  0  0  0
  4  1  1  0  0  0  0
  4 12  1  0  0  0  0
  5  4  2  0  0  0  0
  6  5  1  0  0  0  0
  7  5  1  0  0  0  0
  7  9  2  0  0  0  0
  8  7  1  0  0  0  0
  9 10  1  0  0  0  0
 10 12  2  0  0  0  0
 10 11  1  0  0  0  0
 12 13  1  0  0  0  0
 14  9  1  0  0  0  0
M  END
