1
q = 0.0, confidence = 0.994

 20 20  0  0  0  0  0  0  0  0999 V2000
    1.7994   -0.5388    0.3368 N   0  0  0  0  0  0  0  0  0  0  0  0
    1.7702    0.4410   -0.0031 H   0  0  0  0  0  0  0  0  0  0  0  0
    1.9600   -0.4370    1.8070 C   0  0  0  0  0  0  0  0  0  0  0  0
    2.9328    0.0277    2.0649 H   0  0  0  0  0  0  0  0  0  0  0  0
    1.9077   -1.4428    2.2621 H   0  0  0  0  0  0  0  0  0  0  0  0
    1.1485    0.1912    2.2139 H   0  0  0  0  0  0  0  0  0  0  0  0
    3.0020   -1.1710   -0.3190 C   0  0  0  0  0  0  0  0  0  0  0  0
    2.7441   -1.3090   -1.3859 H   0  0  0  0  0  0  0  0  0  0  0  0
    3.1279   -2.1769    0.1269 H   0  0  0  0  0  0  0  0  0  0  0  0
    4.2491   -0.3324   -0.1774 C   0  0  0  0  0  0  0  0  0  0  0  0
    5.2347   -0.6312    0.7839 C   0  0  0  0  0  0  0  0  0  0  0  0
    5.1250   -1.5257    1.4177 H   0  0  0  0  0  0  0  0  0  0  0  0
    6.3609    0.1934    0.9297 C   0  0  0  0  0  0  0  0  0  0  0  0
    7.1281   -0.0542    1.6783 H   0  0  0  0  0  0  0  0  0  0  0  0
    6.5105    1.3283    0.1175 C   0  0  0  0  0  0  0  0  0  0  0  0
    7.3950    1.9729    0.2296 H   0  0  0  0  0  0  0  0  0  0  0  0
    5.5373    1.6316   -0.8489 C   0  0  0  0  0  0  0  0  0  0  0  0
    5.6621    2.5098   -1.5001 H   0  0  0  0  0  0  0  0  0  0  0  0
    4.4161    0.8037   -0.9971 C   0  0  0  0  0  0  0  0  0  0  0  0
    3.6664    1.0312   -1.7725 H   0  0  0  0  0  0  0  0  0  0  0  0
  1  3  1  0  0  0  0
  2  1  1  0  0  0  0
  3  4  1  0  0  0  0
  3  6  1  0  0  0  0
  3  5  1  0  0  0  0
  7 10  1  0  0  0  0
  7  9  1  0  0  0  0
  7  1  1  0  0  0  0
  8  7  1  0  0  0  0
 10 11  1  0  0  0  0
 11 13  2  0  0  0  0
 11 12  1  0  0  0  0
 13 14  1  0  0  0  0
 15 16  1  0  0  0  0
 15 13  1  0  0  0  0
 17 15  2  0  0  0  0
 18 17  1  0  0  0  0
 19 17  1  0  0  0  0
 19 10  2  0  0  0  0
 20 19  1  0  0  0  0
M  END
