1
q = -1.0

 49 53  0  0  0  0  0  0  0  0999 V2000
    0.0705   -0.1140   -0.0417 N   0  0  0  0  0  2  0  0  0  0  0  0
   -0.0398    0.0415    2.3256 O   0  0  0  0  0  0  0  0  0  0  0  0
    0.5320    0.0329    1.2245 C   0  0  0  0  0  0  0  0  0  0  0  0
    2.0239    0.1626    0.8430 C   0  0  0  0  0  0  0  0  0  0  0  0
    1.4016    0.1456   -0.6772 C   0  0  0  0  0  0  0  0  0  0  0  0
    1.9707   -1.0022   -1.4887 C   0  0  0  0  0  0  0  0  0  0  0  0
    3.1820   -0.8662   -2.2015 C   0  0  0  0  0  0  0  0  0  0  0  0
    3.6914    0.1083   -2.2333 H   0  0  0  0  0  0  0  0  0  0  0  0
    3.7626   -1.9615   -2.8550 C   0  0  0  0  0  0  0  0  0  0  0  0
    4.7072   -1.8292   -3.4046 H   0  0  0  0  0  0  0  0  0  0  0  0
    3.1495   -3.2233   -2.8011 C   0  0  0  0  0  0  0  0  0  0  0  0
    3.6034   -4.0838   -3.3156 H   0  0  0  0  0  0  0  0  0  0  0  0
    1.9623   -3.3783   -2.0715 C   0  0  0  0  0  0  0  0  0  0  0  0
    1.4789   -4.3648   -2.0048 H   0  0  0  0  0  0  0  0  0  0  0  0
    1.3888   -2.2796   -1.4162 C   0  0  0  0  0  0  0  0  0  0  0  0
    0.4833   -2.4040   -0.8088 H   0  0  0  0  0  0  0  0  0  0  0  0
    1.3261    1.4918   -1.4000 C   0  0  0  0  0  0  0  0  0  0  0  0
    0.8939    2.6333   -0.6834 C   0  0  0  0  0  0  0  0  0  0  0  0
    0.6785    2.5530    0.3908 H   0  0  0  0  0  0  0  0  0  0  0  0
    0.7346    3.8717   -1.3142 C   0  0  0  0  0  0  0  0  0  0  0  0
    0.4122    4.7439   -0.7242 H   0  0  0  0  0  0  0  0  0  0  0  0
    0.9812    4.0026   -2.6911 C   0  0  0  0  0  0  0  0  0  0  0  0
    0.8504    4.9743   -3.1909 H   0  0  0  0  0  0  0  0  0  0  0  0
    1.3731    2.8752   -3.4229 C   0  0  0  0  0  0  0  0  0  0  0  0
    1.5355    2.9500   -4.5088 H   0  0  0  0  0  0  0  0  0  0  0  0
    1.5380    1.6345   -2.7855 C   0  0  0  0  0  0  0  0  0  0  0  0
    1.8078    0.7580   -3.3887 H   0  0  0  0  0  0  0  0  0  0  0  0
    2.7561    1.3925    1.3364 C   0  0  0  0  0  0  0  0  0  0  0  0
    2.5045    1.8635    2.6423 C   0  0  0  0  0  0  0  0  0  0  0  0
    1.7458    1.3471    3.2487 H   0  0  0  0  0  0  0  0  0  0  0  0
    3.1976    2.9752    3.1438 C   0  0  0  0  0  0  0  0  0  0  0  0
    2.9872    3.3328    4.1639 H   0  0  0  0  0  0  0  0  0  0  0  0
    4.1571    3.6293    2.3545 C   0  0  0  0  0  0  0  0  0  0  0  0
    4.7014    4.5006    2.7497 H   0  0  0  0  0  0  0  0  0  0  0  0
    4.4165    3.1640    1.0558 C   0  0  0  0  0  0  0  0  0  0  0  0
    5.1618    3.6721    0.4249 H   0  0  0  0  0  0  0  0  0  0  0  0
    3.7202    2.0566    0.5509 C   0  0  0  0  0  0  0  0  0  0  0  0
    3.9104    1.7202   -0.4788 H   0  0  0  0  0  0  0  0  0  0  0  0
    2.8092   -1.0980    1.2103 C   0  0  0  0  0  0  0  0  0  0  0  0
    4.1626   -1.2357    0.8392 C   0  0  0  0  0  0  0  0  0  0  0  0
    4.6708   -0.4108    0.3209 H   0  0  0  0  0  0  0  0  0  0  0  0
    4.8714   -2.4108    1.1189 C   0  0  0  0  0  0  0  0  0  0  0  0
    5.9229   -2.4987    0.8053 H   0  0  0  0  0  0  0  0  0  0  0  0
    4.2469   -3.4704    1.7964 C   0  0  0  0  0  0  0  0  0  0  0  0
    4.8043   -4.3932    2.0183 H   0  0  0  0  0  0  0  0  0  0  0  0
    2.9101   -3.3351    2.1964 C   0  0  0  0  0  0  0  0  0  0  0  0
    2.4117   -4.1512    2.7426 H   0  0  0  0  0  0  0  0  0  0  0  0
    2.1976   -2.1615    1.9054 C   0  0  0  0  0  0  0  0  0  0  0  0
    1.1556   -2.0590    2.2395 H   0  0  0  0  0  0  0  0  0  0  0  0
  1  3  1  0  0  0  0
  3  2  2  0  0  0  0
  4 39  1  0  0  0  0
  4  3  1  0  0  0  0
  4 28  1  0  0  0  0
  5  1  1  0  0  0  0
  5  4  1  0  0  0  0
  6 15  1  0  0  0  0
  6  5  1  0  0  0  0
  7  6  2  0  0  0  0
  8  7  1  0  0  0  0
  9 11  2  0  0  0  0
  9  7  1  0  0  0  0
 10  9  1  0  0  0  0
 11 13  1  0  0  0  0
 12 11  1  0  0  0  0
 13 14  1  0  0  0  0
 13 15  2  0  0  0  0
 15 16  1  0  0  0  0
 17 18  1  0  0  0  0
 17  5  1  0  0  0  0
 18 19  1  0  0  0  0
 20 21  1  0  0  0  0
 20 18  2  0  0  0  0
 22 20  1  0  0  0  0
 23 22  1  0  0  0  0
 24 26  1  0  0  0  0
 24 22  2  0  0  0  0
 25 24  1  0  0  0  0
 26 17  2  0  0  0  0
 27 26  1  0  0  0  0
 28 29  1  0  0  0  0
 29 31  2  0  0  0  0
 29 30  1  0  0  0  0
 31 32  1  0  0  0  0
 33 34  1  0  0  0  0
 33 31  1  0  0  0  0
 35 33  2  0  0  0  0
 36 35  1  0  0  0  0
 37 35  1  0  0  0  0
 37 28  2  0  0  0  0
 38 37  1  0  0  0  0
 39 48  1  0  0  0  0
 40 42  1  0  0  0  0
 40 39  2  0  0  0  0
 41 40  1  0  0  0  0
 42 44  2  0  0  0  0
 43 42  1  0  0  0  0
 44 45  1  0  0  0  0
 44 46  1  0  0  0  0
 46 47  1  0  0  0  0
 48 46  2  0  0  0  0
 48 49  1  0  0  0  0
M  END
