2
q = 0.0, confidence = 1.0

 63 67  0  0  0  0  0  0  0  0999 V2000
   -0.3369    1.2823    0.0707 P   0  0  0  0  0  4  0  0  0  0  0  0
   -0.1911   -0.3411   -0.0141 N   0  0  0  0  0  2  0  0  0  0  0  0
    1.1660   -0.8385    0.2594 C   0  0  0  0  0  0  0  0  0  0  0  0
    1.0866   -1.7202    1.5192 C   0  0  0  0  0  0  0  0  0  0  0  0
    1.3007   -1.1933    2.8060 C   0  0  0  0  0  0  0  0  0  0  0  0
    1.6719   -0.1663    2.9286 H   0  0  0  0  0  0  0  0  0  0  0  0
    1.0590   -1.9800    3.9427 C   0  0  0  0  0  0  0  0  0  0  0  0
    1.2412   -1.5586    4.9429 H   0  0  0  0  0  0  0  0  0  0  0  0
    0.5930   -3.2964    3.8053 C   0  0  0  0  0  0  0  0  0  0  0  0
    0.4008   -3.9116    4.6974 H   0  0  0  0  0  0  0  0  0  0  0  0
    0.3740   -3.8249    2.5230 C   0  0  0  0  0  0  0  0  0  0  0  0
   -0.0010   -4.8524    2.4031 H   0  0  0  0  0  0  0  0  0  0  0  0
    0.6212   -3.0430    1.3862 C   0  0  0  0  0  0  0  0  0  0  0  0
    0.4347   -3.4553    0.3835 H   0  0  0  0  0  0  0  0  0  0  0  0
    2.0528    0.3979    0.4653 C   0  0  0  0  0  0  0  0  0  0  0  0
    1.4145    1.5995    0.4166 C   0  0  0  0  0  0  0  0  0  0  0  0
    3.5349    0.2636    0.6865 C   0  0  0  0  0  0  0  0  0  0  0  0
    5.6343    0.5540   -0.3210 C   0  0  0  0  0  0  0  0  0  0  0  0
    5.9966    1.2898    0.4242 H   0  0  0  0  0  0  0  0  0  0  0  0
    6.0201    0.7964   -1.3263 H   0  0  0  0  0  0  0  0  0  0  0  0
    5.9570   -0.4601   -0.0129 H   0  0  0  0  0  0  0  0  0  0  0  0
    1.6244    5.2457    0.5993 C   0  0  0  0  0  0  0  0  0  0  0  0
    0.7601    5.9110    0.4284 H   0  0  0  0  0  0  0  0  0  0  0  0
    2.4339    5.4676   -0.1245 H   0  0  0  0  0  0  0  0  0  0  0  0
    2.0245    5.3809    1.6240 H   0  0  0  0  0  0  0  0  0  0  0  0
    2.0525    2.9207    0.6092 C   0  0  0  0  0  0  0  0  0  0  0  0
   -0.8457    2.0791   -1.4766 C   0  0  0  0  0  0  0  0  0  0  0  0
    0.1323    2.4014   -2.4405 C   0  0  0  0  0  0  0  0  0  0  0  0
    1.2005    2.2610   -2.2132 H   0  0  0  0  0  0  0  0  0  0  0  0
   -0.2632    2.8837   -3.6949 C   0  0  0  0  0  0  0  0  0  0  0  0
    0.4983    3.1408   -4.4465 H   0  0  0  0  0  0  0  0  0  0  0  0
   -1.6285    3.0300   -3.9946 C   0  0  0  0  0  0  0  0  0  0  0  0
   -1.9357    3.4024   -4.9835 H   0  0  0  0  0  0  0  0  0  0  0  0
   -2.6019    2.6919   -3.0409 C   0  0  0  0  0  0  0  0  0  0  0  0
   -3.6707    2.7898   -3.2820 H   0  0  0  0  0  0  0  0  0  0  0  0
   -2.2158    2.2165   -1.7794 C   0  0  0  0  0  0  0  0  0  0  0  0
   -2.9771    1.9342   -1.0365 H   0  0  0  0  0  0  0  0  0  0  0  0
   -1.4444    1.8414    1.3938 C   0  0  0  0  0  0  0  0  0  0  0  0
   -1.9067    3.1717    1.4614 C   0  0  0  0  0  0  0  0  0  0  0  0
   -1.6398    3.8886    0.6711 H   0  0  0  0  0  0  0  0  0  0  0  0
   -2.7064    3.5682    2.5421 C   0  0  0  0  0  0  0  0  0  0  0  0
   -3.0734    4.6039    2.6005 H   0  0  0  0  0  0  0  0  0  0  0  0
   -3.0435    2.6434    3.5454 C   0  0  0  0  0  0  0  0  0  0  0  0
   -3.6774    2.9581    4.3883 H   0  0  0  0  0  0  0  0  0  0  0  0
   -2.5806    1.3196    3.4741 C   0  0  0  0  0  0  0  0  0  0  0  0
   -2.8512    0.5942    4.2556 H   0  0  0  0  0  0  0  0  0  0  0  0
   -1.7767    0.9121    2.4002 C   0  0  0  0  0  0  0  0  0  0  0  0
   -1.4143   -0.1249    2.3225 H   0  0  0  0  0  0  0  0  0  0  0  0
    1.7798   -1.5734   -0.9508 C   0  0  0  0  0  0  0  0  0  0  0  0
    1.2721   -1.3632   -2.2442 C   0  0  0  0  0  0  0  0  0  0  0  0
    0.3818   -0.7312   -2.3739 H   0  0  0  0  0  0  0  0  0  0  0  0
    1.8785   -1.9795   -3.3497 C   0  0  0  0  0  0  0  0  0  0  0  0
    1.4621   -1.8190   -4.3557 H   0  0  0  0  0  0  0  0  0  0  0  0
    3.0003   -2.8035   -3.1736 C   0  0  0  0  0  0  0  0  0  0  0  0
    3.4713   -3.2905   -4.0410 H   0  0  0  0  0  0  0  0  0  0  0  0
    3.5131   -3.0129   -1.8827 C   0  0  0  0  0  0  0  0  0  0  0  0
    4.3870   -3.6653   -1.7338 H   0  0  0  0  0  0  0  0  0  0  0  0
    2.9071   -2.4012   -0.7765 C   0  0  0  0  0  0  0  0  0  0  0  0
    3.3028   -2.5753    0.2356 H   0  0  0  0  0  0  0  0  0  0  0  0
    4.0347   -0.1449    1.7162 O   0  0  0  0  0  0  0  0  0  0  0  0
    4.2040    0.6213   -0.4208 O   0  0  0  0  0  0  0  0  0  0  0  0
    3.2163    3.1184    0.9081 O   0  0  0  0  0  0  0  0  0  0  0  0
    1.1382    3.9096    0.4192 O   0  0  0  0  0  0  0  0  0  0  0  0
  1 16  1  0  0  0  0
  1 38  1  0  0  0  0
  2  1  1  0  0  0  0
  2  3  1  0  0  0  0
  3 15  1  0  0  0  0
  3  4  1  0  0  0  0
  4  5  1  0  0  0  0
  5  6  1  0  0  0  0
  5  7  2  0  0  0  0
  7  8  1  0  0  0  0
  9  7  1  0  0  0  0
  9 10  1  0  0  0  0
 11  9  2  0  0  0  0
 12 11  1  0  0  0  0
 13  4  2  0  0  0  0
 13 11  1  0  0  0  0
 14 13  1  0  0  0  0
 15 17  1  0  0  0  0
 16 15  2  0  0  0  0
 16 26  1  0  0  0  0
 17 60  2  0  0  0  0
 18 21  1  0  0  0  0
 18 19  1  0  0  0  0
 20 18  1  0  0  0  0
 22 25  1  0  0  0  0
 23 22  1  0  0  0  0
 24 22  1  0  0  0  0
 26 62  2  0  0  0  0
 27  1  1  0  0  0  0
 28 29  1  0  0  0  0
 28 27  2  0  0  0  0
 30 28  1  0  0  0  0
 31 30  1  0  0  0  0
 32 30  2  0  0  0  0
 32 34  1  0  0  0  0
 33 32  1  0  0  0  0
 34 36  2  0  0  0  0
 35 34  1  0  0  0  0
 36 27  1  0  0  0  0
 36 37  1  0  0  0  0
 38 39  2  0  0  0  0
 38 47  1  0  0  0  0
 39 41  1  0  0  0  0
 40 39  1  0  0  0  0
 41 42  1  0  0  0  0
 41 43  2  0  0  0  0
 43 44  1  0  0  0  0
 45 43  1  0  0  0  0
 45 46  1  0  0  0  0
 47 45  2  0  0  0  0
 48 47  1  0  0  0  0
 49 58  1  0  0  0  0
 49  3  1  0  0  0  0
 50 49  2  0  0  0  0
 51 50  1  0  0  0  0
 52 54  2  0  0  0  0
 52 50  1  0  0  0  0
 53 52  1  0  0  0  0
 54 56  1  0  0  0  0
 55 54  1  0  0  0  0
 56 57  1  0  0  0  0
 56 58  2  0  0  0  0
 58 59  1  0  0  0  0
 61 18  1  0  0  0  0
 61 17  1  0  0  0  0
 63 22  1  0  0  0  0
 63 26  1  0  0  0  0
M  END
