1
q = 0.0, confidence = 0.996

 26 28  0  0  1  0  0  0  0  0999 V2000
   -0.9647    0.3609   -0.4490 N   0  0  0  0  0  2  0  0  0  0  0  0
   -2.2715    0.2430   -0.3082 C   0  0  2  0  0  3  0  0  0  0  0  0
   -3.3035   -1.1555   -0.2261 S   0  0  0  0  0  0  0  0  0  0  0  0
   -4.7479   -0.0428    0.1372 C   0  0  0  0  0  0  0  0  0  0  0  0
   -4.3887    1.3482   -0.4126 C   0  0  0  0  0  0  0  0  0  0  0  0
   -2.9434    1.4205   -0.3007 N   0  0  2  0  0  0  0  0  0  0  0  0
   -2.0048    2.5346   -0.3955 C   0  0  0  0  0  0  0  0  0  0  0  0
   -0.6769    1.7962   -0.7610 C   0  0  1  0  0  0  0  0  0  0  0  0
    0.5722    2.2977   -0.0723 C   0  0  0  0  0  0  0  0  0  0  0  0
    0.7647    2.0864    1.3089 C   0  0  0  0  0  0  0  0  0  0  0  0
    1.9504    2.5067    1.9272 C   0  0  0  0  0  0  0  0  0  0  0  0
    2.9590    3.1359    1.1758 C   0  0  0  0  0  0  0  0  0  0  0  0
    2.7742    3.3538   -0.1979 C   0  0  0  0  0  0  0  0  0  0  0  0
    1.5832    2.9355   -0.8187 C   0  0  0  0  0  0  0  0  0  0  0  0
   -4.8843   -0.0281    1.2362 H   0  0  0  0  0  0  0  0  0  0  0  0
   -5.6505   -0.4717   -0.3353 H   0  0  0  0  0  0  0  0  0  0  0  0
   -4.8726    2.1458    0.1872 H   0  0  0  0  0  0  0  0  0  0  0  0
   -4.7130    1.4672   -1.4726 H   0  0  0  0  0  0  0  0  0  0  0  0
   -2.3015    3.2596   -1.1790 H   0  0  0  0  0  0  0  0  0  0  0  0
   -1.9289    3.0763    0.5734 H   0  0  0  0  0  0  0  0  0  0  0  0
   -0.5178    1.8724   -1.8616 H   0  0  0  0  0  0  0  0  0  0  0  0
   -0.0057    1.5645    1.8972 H   0  0  0  0  0  0  0  0  0  0  0  0
    2.0915    2.3369    3.0051 H   0  0  0  0  0  0  0  0  0  0  0  0
    3.8878    3.4645    1.6657 H   0  0  0  0  0  0  0  0  0  0  0  0
    3.5526    3.8603   -0.7881 H   0  0  0  0  0  0  0  0  0  0  0  0
    1.4298    3.1230   -1.8949 H   0  0  0  0  0  0  0  0  0  0  0  0
  2  1  1  6  0  0  0
  2  6  1  0  0  0  0
  2  3  1  0  0  0  0
  3  4  1  0  0  0  0
  4 15  1  0  0  0  0
  5  4  1  0  0  0  0
  5 17  1  0  0  0  0
  6  5  1  6  0  0  0
  7  6  1  0  0  0  0
  7 20  1  0  0  0  0
  8 21  1  6  0  0  0
  8  1  1  0  0  0  0
  8  7  1  0  0  0  0
  8  9  1  0  0  0  0
  9 10  1  0  0  0  0
 10 22  1  0  0  0  0
 10 11  2  0  0  0  0
 11 23  1  0  0  0  0
 12 24  1  0  0  0  0
 12 11  1  0  0  0  0
 13 12  2  0  0  0  0
 14 13  1  0  0  0  0
 14  9  2  0  0  0  0
 16  4  1  0  0  0  0
 18  5  1  0  0  0  0
 19  7  1  0  0  0  0
 25 13  1  0  0  0  0
 26 14  1  0  0  0  0
M  END
