1
q = 0.0, confidence = 0.97

 30 33  0  0  0  0  0  0  0  0999 V2000
   -0.9044    1.2732   -1.2467 N   0  0  0  0  0  2  0  0  0  0  0  0
   -2.4120   -1.1315   -1.5861 N   0  0  0  0  0  0  0  0  0  0  0  0
    3.1696   -1.2466   -1.7078 N   0  0  0  0  0  0  0  0  0  0  0  0
    3.6475   -0.3970   -1.3957 H   0  0  0  0  0  0  0  0  0  0  0  0
    1.7209   -3.5926   -1.8869 N   0  0  0  0  0  0  0  0  0  0  0  0
    1.1801   -4.4288   -2.1046 H   0  0  0  0  0  0  0  0  0  0  0  0
   -2.2715    1.2825   -1.1789 C   0  0  0  0  0  0  0  0  0  0  0  0
   -2.9533    2.4973   -0.8751 C   0  0  0  0  0  0  0  0  0  0  0  0
   -2.3470    3.4111   -0.7431 H   0  0  0  0  0  0  0  0  0  0  0  0
   -4.3340    2.5015   -0.7382 C   0  0  0  0  0  0  0  0  0  0  0  0
   -4.8554    3.4412   -0.5024 H   0  0  0  0  0  0  0  0  0  0  0  0
   -5.0831    1.3017   -0.9105 C   0  0  0  0  0  0  0  0  0  0  0  0
   -6.1788    1.3263   -0.8058 H   0  0  0  0  0  0  0  0  0  0  0  0
   -4.4445    0.1096   -1.2206 C   0  0  0  0  0  0  0  0  0  0  0  0
   -5.0020   -0.8275   -1.3685 H   0  0  0  0  0  0  0  0  0  0  0  0
   -3.0217    0.0572   -1.3592 C   0  0  0  0  0  0  0  0  0  0  0  0
   -1.0702   -1.1280   -1.6817 C   0  0  0  0  0  0  0  0  0  0  0  0
   -0.2946    0.1025   -1.5579 C   0  0  0  0  0  0  0  0  0  0  0  0
    1.1185    0.0472   -1.6358 C   0  0  0  0  0  0  0  0  0  0  0  0
    1.6830    0.9874   -1.5482 H   0  0  0  0  0  0  0  0  0  0  0  0
    1.7937   -1.1650   -1.7208 C   0  0  0  0  0  0  0  0  0  0  0  0
    1.0271   -2.4051   -1.8311 C   0  0  0  0  0  0  0  0  0  0  0  0
   -0.3629   -2.3531   -1.8415 C   0  0  0  0  0  3  0  0  0  0  0  0
   -0.9581   -3.2752   -1.9148 H   0  0  0  0  0  0  0  0  0  0  0  0
    3.7959   -2.4952   -1.3007 C   0  0  0  0  0  0  0  0  0  0  0  0
    3.6650   -2.6653   -0.2054 H   0  0  0  0  0  0  0  0  0  0  0  0
    4.8798   -2.4455   -1.5232 H   0  0  0  0  0  0  0  0  0  0  0  0
    3.1566   -3.6363   -2.0851 C   0  0  0  0  0  0  0  0  0  0  0  0
    3.4338   -3.5470   -3.1635 H   0  0  0  0  0  0  0  0  0  0  0  0
    3.5450   -4.6076   -1.7175 H   0  0  0  0  0  0  0  0  0  0  0  0
  1  7  1  0  0  0  0
  2 16  1  0  0  0  0
  3  4  1  0  0  0  0
  3 25  1  0  0  0  0
  5 22  1  0  0  0  0
  6  5  1  0  0  0  0
  7  8  1  0  0  0  0
  8  9  1  0  0  0  0
  8 10  2  0  0  0  0
 10 11  1  0  0  0  0
 12 13  1  0  0  0  0
 12 10  1  0  0  0  0
 14 12  2  0  0  0  0
 15 14  1  0  0  0  0
 16 14  1  0  0  0  0
 16  7  2  0  0  0  0
 17  2  2  0  0  0  0
 17 18  1  0  0  0  0
 18  1  1  0  0  0  0
 19 18  2  0  0  0  0
 19 20  1  0  0  0  0
 21  3  1  0  0  0  0
 21 19  1  0  0  0  0
 22 21  2  0  0  0  0
 23 22  1  0  0  0  0
 23 17  1  0  0  0  0
 24 23  1  0  0  0  0
 25 26  1  0  0  0  0
 27 25  1  0  0  0  0
 28  5  1  0  0  0  0
 28 30  1  0  0  0  0
 28 25  1  0  0  0  0
 29 28  1  0  0  0  0
M  END
