1
q = 0.0, confidence = 0.984

 26 27  0  0  0  0  0  0  0  0999 V2000
    0.4805    1.1775   -1.4518 N   0  0  0  0  0  0  0  0  0  0  0  0
    1.0190    0.3040   -1.6292 H   0  0  0  0  0  0  0  0  0  0  0  0
   -0.0023    1.4597   -2.3135 H   0  0  0  0  0  0  0  0  0  0  0  0
    2.9924    0.4373   -0.8473 N   0  0  0  0  0  0  0  0  0  0  0  0
    4.1349    0.0520   -0.4568 N   0  0  0  0  0  0  0  0  0  0  0  0
    5.7020   -1.7522   -0.3944 C   0  0  0  0  0  0  0  0  0  0  0  0
    6.4714   -0.9780   -0.2574 H   0  0  0  0  0  0  0  0  0  0  0  0
    1.3925    2.1952   -1.0352 C   0  0  0  0  0  0  0  0  0  0  0  0
    1.0030    3.5387   -0.9195 C   0  0  0  0  0  0  0  0  0  0  0  0
   -0.0412    3.8110   -1.1257 H   0  0  0  0  0  0  0  0  0  0  0  0
    1.9341    4.4930   -0.4908 C   0  0  0  0  0  0  0  0  0  0  0  0
    1.6231    5.5443   -0.3973 H   0  0  0  0  0  0  0  0  0  0  0  0
    3.2545    4.1184   -0.1661 C   0  0  0  0  0  0  0  0  0  0  0  0
    3.9736    4.8794    0.1727 H   0  0  0  0  0  0  0  0  0  0  0  0
    3.6461    2.7834   -0.2700 C   0  0  0  0  0  0  0  0  0  0  0  0
    4.6621    2.4442   -0.0235 H   0  0  0  0  0  0  0  0  0  0  0  0
    2.7210    1.8090   -0.7079 C   0  0  0  0  0  0  0  0  0  0  0  0
    4.3586   -1.3359   -0.5310 C   0  0  0  0  0  0  0  0  0  0  0  0
    3.3279   -2.2964   -0.6823 C   0  0  0  0  0  0  0  0  0  0  0  0
    2.2787   -1.9667   -0.7442 H   0  0  0  0  0  0  0  0  0  0  0  0
    6.0229   -3.1135   -0.4450 C   0  0  0  0  0  0  0  0  0  0  0  0
    7.0707   -3.4364   -0.3505 H   0  0  0  0  0  0  0  0  0  0  0  0
    5.0021   -4.0663   -0.6046 C   0  0  0  0  0  0  0  0  0  0  0  0
    5.2509   -5.1384   -0.6304 H   0  0  0  0  0  0  0  0  0  0  0  0
    3.6598   -3.6533   -0.7141 C   0  0  0  0  0  0  0  0  0  0  0  0
    2.8592   -4.4018   -0.8169 H   0  0  0  0  0  0  0  0  0  0  0  0
  1  8  1  0  0  0  0
  2  1  1  0  0  0  0
  3  1  1  0  0  0  0
  4 17  1  0  0  0  0
  4  5  2  0  0  0  0
  6  7  1  0  0  0  0
  8  9  2  0  0  0  0
  8 17  1  0  0  0  0
  9 11  1  0  0  0  0
 10  9  1  0  0  0  0
 11 12  1  0  0  0  0
 11 13  2  0  0  0  0
 13 14  1  0  0  0  0
 15 13  1  0  0  0  0
 15 16  1  0  0  0  0
 17 15  2  0  0  0  0
 18  5  1  0  0  0  0
 18  6  2  0  0  0  0
 19 18  1  0  0  0  0
 20 19  1  0  0  0  0
 21  6  1  0  0  0  0
 21 22  1  0  0  0  0
 23 21  2  0  0  0  0
 24 23  1  0  0  0  0
 25 19  2  0  0  0  0
 25 23  1  0  0  0  0
 26 25  1  0  0  0  0
M  END
