2
q = -1.0

 32 33  0  0  0  0  0  0  0  0999 V2000
    3.5746    1.1488    1.1001 Cl  0  0  0  0  0  0  0  0  0  0  0  0
    0.3187   -2.1549   -0.1821 N   0  0  0  0  0  2  0  0  0  0  0  0
   -1.7061   -1.5031   -1.8156 O   0  0  0  0  0  0  0  0  0  0  0  0
    1.4610   -2.4554    0.3668 N   0  0  0  0  0  2  0  0  0  0  0  0
    2.1257   -1.4092    0.7072 N   0  0  0  0  0  2  0  0  0  0  0  0
    5.4344   -0.5392    2.1338 C   0  0  0  0  0  0  0  0  0  0  0  0
    6.0111    0.3790    2.3135 H   0  0  0  0  0  0  0  0  0  0  0  0
    3.9195   -2.8522    1.6478 C   0  0  0  0  0  0  0  0  0  0  0  0
    3.3111   -3.7455    1.4500 H   0  0  0  0  0  0  0  0  0  0  0  0
   -0.4901   -4.4826   -0.0690 C   0  0  0  0  0  0  0  0  0  0  0  0
    0.3587   -4.7401    0.5782 H   0  0  0  0  0  0  0  0  0  0  0  0
    3.3771   -1.5926    1.2860 C   0  0  0  0  0  0  0  0  0  0  0  0
    4.1685   -0.4374    1.5408 C   0  0  0  0  0  0  0  0  0  0  0  0
   -2.6643   -3.7511   -1.6921 C   0  0  0  0  0  0  0  0  0  0  0  0
   -3.5186   -3.4752   -2.3235 H   0  0  0  0  0  0  0  0  0  0  0  0
   -1.6898   -2.7915   -1.3698 C   0  0  0  0  0  0  0  0  0  0  0  0
   -0.5919   -3.1533   -0.5295 C   0  0  0  0  0  0  0  0  0  0  0  0
   -2.6589    0.4603   -2.7822 C   0  0  0  0  0  0  0  0  0  0  0  0
   -3.5136    0.8575   -3.3641 H   0  0  0  0  0  0  0  0  0  0  0  0
   -1.7306    0.6366   -3.3615 H   0  0  0  0  0  0  0  0  0  0  0  0
   -2.5961    1.0222   -1.8306 H   0  0  0  0  0  0  0  0  0  0  0  0
   -1.4539   -5.4361   -0.4192 C   0  0  0  0  0  0  0  0  0  0  0  0
   -1.3583   -6.4677   -0.0494 H   0  0  0  0  0  0  0  0  0  0  0  0
   -2.8593   -1.0178   -2.5126 C   0  0  0  0  0  0  0  0  0  0  0  0
   -3.7620   -1.1908   -1.8856 H   0  0  0  0  0  0  0  0  0  0  0  0
   -2.9787   -1.5895   -3.4612 H   0  0  0  0  0  0  0  0  0  0  0  0
    5.1815   -2.9526    2.2374 C   0  0  0  0  0  0  0  0  0  0  0  0
    5.5764   -3.9429    2.5106 H   0  0  0  0  0  0  0  0  0  0  0  0
    5.9445   -1.7971    2.4849 C   0  0  0  0  0  0  0  0  0  0  0  0
    6.9376   -1.8719    2.9520 H   0  0  0  0  0  0  0  0  0  0  0  0
   -2.5438   -5.0695   -1.2222 C   0  0  0  0  0  0  0  0  0  0  0  0
   -3.3128   -5.8096   -1.4885 H   0  0  0  0  0  0  0  0  0  0  0  0
  1 13  1  0  0  0  0
  2  4  1  0  0  0  0
  3 16  1  0  0  0  0
  4  5  1  0  0  0  0
  5 12  1  0  0  0  0
  6  7  1  0  0  0  0
  6 29  1  0  0  0  0
  8 27  1  0  0  0  0
  9  8  1  0  0  0  0
 10 11  1  0  0  0  0
 12 13  1  0  0  0  0
 12  8  2  0  0  0  0
 13  6  2  0  0  0  0
 14 16  2  0  0  0  0
 14 31  1  0  0  0  0
 15 14  1  0  0  0  0
 16 17  1  0  0  0  0
 17  2  1  0  0  0  0
 17 10  2  0  0  0  0
 18 24  1  0  0  0  0
 18 21  1  0  0  0  0
 19 18  1  0  0  0  0
 20 18  1  0  0  0  0
 22 10  1  0  0  0  0
 22 23  1  0  0  0  0
 24 25  1  0  0  0  0
 24  3  1  0  0  0  0
 26 24  1  0  0  0  0
 27 29  2  0  0  0  0
 27 28  1  0  0  0  0
 29 30  1  0  0  0  0
 31 22  2  0  0  0  0
 32 31  1  0  0  0  0
M  END
