1
q = 0.0, confidence = 0.96

 25 25  0  0  0  0  0  0  0  0999 V2000
   -1.0065   -1.3253    0.0056 N   0  0  0  0  0  0  0  0  0  0  0  0
   -1.1251   -0.5163   -1.1561 C   0  0  0  0  0  0  0  0  0  0  0  0
   -1.3605    0.8173   -0.7250 C   0  0  0  0  0  0  0  0  0  0  0  0
   -1.3587    0.8221    0.7230 C   0  0  0  0  0  0  0  0  0  0  0  0
   -1.1221   -0.5087    1.1623 C   0  0  0  0  0  0  0  0  0  0  0  0
   -0.9441   -2.7771    0.0101 C   0  0  0  0  0  0  0  0  0  0  0  0
   -0.3950   -3.1198    0.9043 H   0  0  0  0  0  0  0  0  0  0  0  0
   -0.3947   -3.1255   -0.8816 H   0  0  0  0  0  0  0  0  0  0  0  0
   -1.9637   -3.2204    0.0114 H   0  0  0  0  0  0  0  0  0  0  0  0
   -1.1910   -1.1039   -2.5261 C   0  0  0  0  0  0  0  0  0  0  0  0
   -1.1092   -0.2952   -3.2748 H   0  0  0  0  0  0  0  0  0  0  0  0
   -2.1538   -1.6315   -2.6992 H   0  0  0  0  0  0  0  0  0  0  0  0
   -0.3616   -1.8107   -2.7216 H   0  0  0  0  0  0  0  0  0  0  0  0
   -1.6109    2.0020   -1.6051 C   0  0  0  0  0  0  0  0  0  0  0  0
   -1.2057    1.8417   -2.6220 H   0  0  0  0  0  0  0  0  0  0  0  0
   -1.1220    2.9079   -1.1983 H   0  0  0  0  0  0  0  0  0  0  0  0
   -2.6976    2.2153   -1.6978 H   0  0  0  0  0  0  0  0  0  0  0  0
   -1.6068    2.0124    1.5960 C   0  0  0  0  0  0  0  0  0  0  0  0
   -1.1979    1.8594    2.6125 H   0  0  0  0  0  0  0  0  0  0  0  0
   -2.6934    2.2256    1.6912 H   0  0  0  0  0  0  0  0  0  0  0  0
   -1.1202    2.9160    1.1813 H   0  0  0  0  0  0  0  0  0  0  0  0
   -1.1845   -1.0872    2.5363 C   0  0  0  0  0  0  0  0  0  0  0  0
   -1.1006   -0.2736    3.2794 H   0  0  0  0  0  0  0  0  0  0  0  0
   -0.3547   -1.7928    2.7343 H   0  0  0  0  0  0  0  0  0  0  0  0
   -2.1470   -1.6135    2.7154 H   0  0  0  0  0  0  0  0  0  0  0  0
  1  6  1  0  0  0  0
  1  5  1  0  0  0  0
  2  3  2  0  0  0  0
  2  1  1  0  0  0  0
  3  4  1  0  0  0  0
  4  5  2  0  0  0  0
  4 18  1  0  0  0  0
  5 22  1  0  0  0  0
  6  9  1  0  0  0  0
  6  7  1  0  0  0  0
  8  6  1  0  0  0  0
 10  2  1  0  0  0  0
 11 10  1  0  0  0  0
 12 10  1  0  0  0  0
 13 10  1  0  0  0  0
 14 16  1  0  0  0  0
 14  3  1  0  0  0  0
 15 14  1  0  0  0  0
 17 14  1  0  0  0  0
 18 20  1  0  0  0  0
 18 19  1  0  0  0  0
 21 18  1  0  0  0  0
 22 25  1  0  0  0  0
 22 24  1  0  0  0  0
 22 23  1  0  0  0  0
M  END
