3
q = 0.0, confidence = 0.998

 21 23  0  0  1  0  0  0  0  0999 V2000
    5.2156   -1.8115    0.2062 S   0  0  0  0  0  0  0  0  0  0  0  0
    2.9396   -1.7495   -1.0005 N   0  0  0  0  0  0  0  0  0  0  0  0
    0.9442    0.5497   -1.0069 N   0  0  0  0  0  2  0  0  0  0  0  0
    2.6964    1.9225   -1.1824 N   0  0  0  0  0  0  0  0  0  0  0  0
    3.6691    2.2140   -1.2842 H   0  0  0  0  0  0  0  0  0  0  0  0
    3.2188   -0.4447   -0.6377 C   0  0  0  0  0  0  0  0  0  0  0  0
    2.2847    0.6332   -0.9540 C   0  0  1  0  0  3  0  0  0  0  0  0
    0.4697    1.8273   -1.2988 C   0  0  0  0  0  0  0  0  0  0  0  0
    3.8925   -2.5703   -0.6222 C   0  0  0  0  0  0  0  0  0  0  0  0
    3.8822   -3.6536   -0.8095 H   0  0  0  0  0  0  0  0  0  0  0  0
    1.5797    2.7111   -1.4095 C   0  0  0  0  0  0  0  0  0  0  0  0
   -0.8421    2.2936   -1.4996 C   0  0  0  0  0  0  0  0  0  0  0  0
   -1.6874    1.5927   -1.4515 H   0  0  0  0  0  0  0  0  0  0  0  0
    4.4264   -0.2884    0.0342 C   0  0  0  0  0  0  0  0  0  0  0  0
    4.8604    0.6229    0.4629 H   0  0  0  0  0  0  0  0  0  0  0  0
    1.4252    4.0735   -1.7096 C   0  0  0  0  0  0  0  0  0  0  0  0
    2.2860    4.7510   -1.7996 H   0  0  0  0  0  0  0  0  0  0  0  0
   -0.9974    3.6509   -1.7931 C   0  0  0  0  0  0  0  0  0  0  0  0
   -2.0070    4.0527   -1.9628 H   0  0  0  0  0  0  0  0  0  0  0  0
    0.1144    4.5260   -1.8929 C   0  0  0  0  0  0  0  0  0  0  0  0
   -0.0569    5.5864   -2.1290 H   0  0  0  0  0  0  0  0  0  0  0  0
  2  6  1  0  0  0  0
  2  9  2  0  0  0  0
  3  7  1  0  0  0  0
  4  7  1  0  0  0  0
  5  4  1  0  0  0  0
  6 14  2  0  0  0  0
  7  6  1  1  0  0  0
  8  3  1  0  0  0  0
  9  1  1  0  0  0  0
 10  9  1  0  0  0  0
 11  8  1  0  0  0  0
 11  4  1  0  0  0  0
 12 13  1  0  0  0  0
 12  8  2  0  0  0  0
 14  1  1  0  0  0  0
 14 15  1  0  0  0  0
 16 11  2  0  0  0  0
 17 16  1  0  0  0  0
 18 12  1  0  0  0  0
 19 18  1  0  0  0  0
 20 18  2  0  0  0  0
 20 16  1  0  0  0  0
 21 20  1  0  0  0  0
M  END
