2
q = -1.0, confidence = 0.0

 15 16  0  0  0  0  0  0  0  0999 V2000
   -6.3995   -0.2815   -0.2903 F   0  0  0  0  0  0  0  0  0  0  0  0
   -0.9109   -0.8398   -0.6624 N   0  0  0  0  0  0  0  0  0  0  0  0
   -0.8886   -2.1300   -1.1423 C   0  0  0  0  0  0  0  0  0  0  0  0
   -2.1606   -2.6944   -1.2862 C   0  0  0  0  0  0  0  0  0  0  0  0
   -3.0739   -1.6763   -0.8797 C   0  0  0  0  0  0  0  0  0  0  0  0
   -4.4855   -1.5878   -0.8044 C   0  0  0  0  0  3  0  0  0  0  0  0
   -5.0477   -0.3908   -0.3726 C   0  0  0  0  0  0  0  0  0  0  0  0
   -4.2677    0.7345   -0.0228 C   0  0  0  0  0  0  0  0  0  0  0  0
   -2.8721    0.6572   -0.0921 C   0  0  0  0  0  0  0  0  0  0  0  0
   -2.2521   -0.5400   -0.5040 C   0  0  0  0  0  0  0  0  0  0  0  0
    0.0674   -2.6199   -1.3567 H   0  0  0  0  0  0  0  0  0  0  0  0
   -2.3971   -3.6979   -1.6590 H   0  0  0  0  0  0  0  0  0  0  0  0
   -5.1394   -2.4281   -1.0810 H   0  0  0  0  0  0  0  0  0  0  0  0
   -4.7785    1.6560    0.2918 H   0  0  0  0  0  0  0  0  0  0  0  0
   -2.2598    1.5306    0.1553 H   0  0  0  0  0  0  0  0  0  0  0  0
  2 10  1  0  0  0  0
  3  2  2  0  0  0  0
  4  3  1  0  0  0  0
  4  5  2  0  0  0  0
  5  6  1  0  0  0  0
  5 10  1  0  0  0  0
  6  7  1  0  0  0  0
  7  1  1  0  0  0  0
  7  8  2  0  0  0  0
  8 14  1  0  0  0  0
  9  8  1  0  0  0  0
  9 15  1  0  0  0  0
 10  9  2  0  0  0  0
 11  3  1  0  0  0  0
 12  4  1  0  0  0  0
 13  6  1  0  0  0  0
M  END
