2
q = -1.0, confidence = 0.0

 19 20  0  0  0  0  0  0  0  0999 V2000
   -6.2449   -0.8413   -0.1535 O   0  0  0  0  0  0  0  0  0  0  0  0
   -0.6753   -1.0140   -0.4158 N   0  0  0  0  0  0  0  0  0  0  0  0
   -0.5830   -2.3398   -0.7774 C   0  0  0  0  0  0  0  0  0  0  0  0
   -1.8211   -2.9810   -0.8833 C   0  0  0  0  0  0  0  0  0  0  0  0
   -2.7922   -1.9810   -0.5743 C   0  0  0  0  0  0  0  0  0  0  0  0
   -4.2022   -1.9640   -0.5156 C   0  0  0  0  0  3  0  0  0  0  0  0
   -4.8684   -0.7736   -0.1948 C   0  0  0  0  0  0  0  0  0  0  0  0
   -4.1337    0.4166    0.0568 C   0  0  0  0  0  0  0  0  0  0  0  0
   -2.7317    0.4099    0.0030 C   0  0  0  0  0  0  0  0  0  0  0  0
   -2.0340   -0.7746   -0.2944 C   0  0  0  0  0  0  0  0  0  0  0  0
   -6.9576    0.3292    0.1562 C   0  0  0  0  0  0  0  0  0  0  0  0
   -8.0321    0.0620    0.1426 H   0  0  0  0  0  0  0  0  0  0  0  0
    0.3975   -2.8038   -0.9290 H   0  0  0  0  0  0  0  0  0  0  0  0
   -1.9986   -4.0271   -1.1590 H   0  0  0  0  0  0  0  0  0  0  0  0
   -4.8008   -2.8641   -0.7212 H   0  0  0  0  0  0  0  0  0  0  0  0
   -4.6523    1.3564    0.2899 H   0  0  0  0  0  0  0  0  0  0  0  0
   -2.1804    1.3394    0.1762 H   0  0  0  0  0  0  0  0  0  0  0  0
   -6.7043    0.7289    1.1670 H   0  0  0  0  0  0  0  0  0  0  0  0
   -6.7857    1.1439   -0.5871 H   0  0  0  0  0  0  0  0  0  0  0  0
  1 11  1  0  0  0  0
  2 10  1  0  0  0  0
  3  2  2  0  0  0  0
  4  3  1  0  0  0  0
  4  5  2  0  0  0  0
  5  6  1  0  0  0  0
  5 10  1  0  0  0  0
  6  7  1  0  0  0  0
  7  1  1  0  0  0  0
  7  8  2  0  0  0  0
  8 16  1  0  0  0  0
  9  8  1  0  0  0  0
  9 17  1  0  0  0  0
 10  9  2  0  0  0  0
 11 18  1  0  0  0  0
 12 11  1  0  0  0  0
 13  3  1  0  0  0  0
 14  4  1  0  0  0  0
 15  6  1  0  0  0  0
 19 11  1  0  0  0  0
M  END
