1
q = -1.0

 23 24  0  0  0  0  0  0  0  0999 V2000
   -1.7396   -0.0001   -0.0001 N   0  0  0  0  0  2  0  0  0  0  0  0
   -1.6783    1.7723    1.5319 N   0  3  0  0  0  0  0  0  0  0  0  0
   -0.5429    1.3364    1.9297 O   0  5  0  0  0  0  0  0  0  0  0  0
   -3.6389    1.5886    0.1133 C   0  0  0  0  0  0  0  0  0  0  0  0
   -4.1646    1.0549   -0.6907 H   0  0  0  0  0  0  0  0  0  0  0  0
   -4.1891    2.7352    0.6900 C   0  0  0  0  0  0  0  0  0  0  0  0
   -5.1678    3.1076    0.3550 H   0  0  0  0  0  0  0  0  0  0  0  0
   -3.4591    3.4111    1.6852 C   0  0  0  0  0  0  0  0  0  0  0  0
   -3.8428    4.3196    2.1698 H   0  0  0  0  0  0  0  0  0  0  0  0
   -3.6385   -1.5892   -0.1138 C   0  0  0  0  0  0  0  0  0  0  0  0
   -4.1644   -1.0556    0.6901 H   0  0  0  0  0  0  0  0  0  0  0  0
   -2.2151   -2.9193   -2.0676 C   0  0  0  0  0  0  0  0  0  0  0  0
   -1.5695   -3.3699   -2.8324 H   0  0  0  0  0  0  0  0  0  0  0  0
   -2.2162    2.9190    2.0674 C   0  0  0  0  0  0  0  0  0  0  0  0
   -1.5709    3.3697    2.8324 H   0  0  0  0  0  0  0  0  0  0  0  0
   -3.4579   -3.4117   -1.6855 C   0  0  0  0  0  0  0  0  0  0  0  0
   -3.8413   -4.3204   -2.1702 H   0  0  0  0  0  0  0  0  0  0  0  0
   -4.1883   -2.7359   -0.6906 C   0  0  0  0  0  0  0  0  0  0  0  0
   -5.1669   -3.1086   -0.3556 H   0  0  0  0  0  0  0  0  0  0  0  0
   -2.3858   -1.0786   -0.5215 C   0  0  0  0  0  0  0  0  0  0  0  0
   -2.3862    1.0783    0.5213 C   0  0  0  0  0  0  0  0  0  0  0  0
   -0.5422   -1.3363   -1.9296 O   0  5  0  0  0  0  0  0  0  0  0  0
   -1.6776   -1.7725   -1.5319 N   0  3  0  0  0  0  0  0  0  0  0  0
  1 21  1  0  0  0  0
  2  3  1  0  0  0  0
  2 14  1  0  0  0  0
  4 21  1  0  0  0  0
  4  6  2  0  0  0  0
  5  4  1  0  0  0  0
  6  8  1  0  0  0  0
  7  6  1  0  0  0  0
  8 14  2  0  0  0  0
  8  9  1  0  0  0  0
 10 11  1  0  0  0  0
 12 16  2  0  0  0  0
 12 23  1  0  0  0  0
 13 12  1  0  0  0  0
 14 15  1  0  0  0  0
 16 18  1  0  0  0  0
 17 16  1  0  0  0  0
 18 19  1  0  0  0  0
 18 10  2  0  0  0  0
 20 10  1  0  0  0  0
 20  1  1  0  0  0  0
 21  2  2  0  0  0  0
 22 23  1  0  0  0  0
 23 20  2  0  0  0  0
M  CHG  4   2   1   3  -1  22  -1  23   1
M  END
