1
q = 0.0, confidence = 0.99

 33 36  0  0  1  0  0  0  0  0999 V2000
    1.9458   -1.4738   -0.6097 N   0  0  0  0  0  2  0  0  0  0  0  0
    0.0848   -2.2246   -1.6004 N   0  0  0  0  0  0  0  0  0  0  0  0
   -2.2479   -1.9612   -2.1929 N   0  0  0  0  0  0  0  0  0  0  0  0
   -3.2422   -2.8836   -1.9415 N   0  0  0  0  0  0  0  0  0  0  0  0
   -4.3446   -2.2627   -1.6872 N   0  0  0  0  0  0  0  0  0  0  0  0
    1.6548   -2.7538    1.5700 C   0  0  0  0  0  0  0  0  0  0  0  0
    2.5841   -2.3866    2.0351 H   0  0  0  0  0  0  0  0  0  0  0  0
    0.7967   -3.6611    2.2063 C   0  0  0  0  0  0  0  0  0  0  0  0
    1.0481   -4.0178    3.2163 H   0  0  0  0  0  0  0  0  0  0  0  0
   -0.3743   -4.1485    1.5764 C   0  0  0  0  0  0  0  0  0  0  0  0
   -1.0107   -4.8707    2.1100 H   0  0  0  0  0  0  0  0  0  0  0  0
   -0.7426   -3.7398    0.2858 C   0  0  0  0  0  0  0  0  0  0  0  0
   -1.6599   -4.1017   -0.2006 H   0  0  0  0  0  0  0  0  0  0  0  0
    0.1157   -2.8251   -0.3417 C   0  0  0  0  0  0  0  0  0  0  0  0
    1.2982   -2.3343    0.2748 C   0  0  0  0  0  0  0  0  0  0  0  0
    1.2121   -1.4232   -1.7179 C   0  0  2  0  0  3  0  0  0  0  0  0
    1.5451   -0.6463   -2.9433 C   0  0  0  0  0  0  0  0  0  0  0  0
    0.8418    0.1982   -3.0997 H   0  0  0  0  0  0  0  0  0  0  0  0
    1.5207   -1.2851   -3.8494 H   0  0  0  0  0  0  0  0  0  0  0  0
    2.5657   -0.2210   -2.8436 H   0  0  0  0  0  0  0  0  0  0  0  0
   -0.9442   -2.4337   -2.5966 C   0  0  0  0  0  0  0  0  0  0  0  0
   -0.6305   -1.9291   -3.5302 H   0  0  0  0  0  0  0  0  0  0  0  0
   -1.0728   -3.5168   -2.7954 H   0  0  0  0  0  0  0  0  0  0  0  0
   -2.7464   -0.6839   -2.0765 C   0  0  0  0  0  0  0  0  0  0  0  0
   -4.1183   -0.8998   -1.7645 C   0  0  0  0  0  0  0  0  0  0  0  0
   -4.9979    0.1870   -1.5904 C   0  0  0  0  0  0  0  0  0  0  0  0
   -6.0574    0.0120   -1.3595 H   0  0  0  0  0  0  0  0  0  0  0  0
   -4.4648    1.4697   -1.7132 C   0  0  0  0  0  0  0  0  0  0  0  0
   -5.1109    2.3457   -1.5593 H   0  0  0  0  0  0  0  0  0  0  0  0
   -3.0903    1.6726   -2.0059 C   0  0  0  0  0  0  0  0  0  0  0  0
   -2.7026    2.6978   -2.0802 H   0  0  0  0  0  0  0  0  0  0  0  0
   -2.2018    0.6093   -2.1941 C   0  0  0  0  0  0  0  0  0  0  0  0
   -1.1400    0.7944   -2.4071 H   0  0  0  0  0  0  0  0  0  0  0  0
  1 15  1  0  0  0  0
  2 14  1  0  0  0  0
  3 24  1  0  0  0  0
  3  4  1  0  0  0  0
  4  5  2  0  0  0  0
  6  7  1  0  0  0  0
  6  8  1  0  0  0  0
  8  9  1  0  0  0  0
 10 11  1  0  0  0  0
 10  8  2  0  0  0  0
 12 10  1  0  0  0  0
 13 12  1  0  0  0  0
 14 15  1  0  0  0  0
 14 12  2  0  0  0  0
 15  6  2  0  0  0  0
 16 17  1  6  0  0  0
 16  2  1  0  0  0  0
 16  1  1  0  0  0  0
 17 20  1  0  0  0  0
 18 17  1  0  0  0  0
 19 17  1  0  0  0  0
 21  3  1  0  0  0  0
 21  2  1  0  0  0  0
 22 21  1  0  0  0  0
 23 21  1  0  0  0  0
 24 25  1  0  0  0  0
 25  5  1  0  0  0  0
 25 26  2  0  0  0  0
 26 27  1  0  0  0  0
 28 26  1  0  0  0  0
 28 29  1  0  0  0  0
 30 28  2  0  0  0  0
 31 30  1  0  0  0  0
 32 24  2  0  0  0  0
 32 30  1  0  0  0  0
 33 32  1  0  0  0  0
M  END
