3
q = 0.0, confidence = 0.994

 67 73  0  0  1  0  0  0  0  0999 V2000
   -0.9826   -0.4964    0.6998 P   0  0  0  0  0  0  0  0  0  0  0  0
    0.9539    3.0707   -1.5760 O   0  0  0  0  0  0  0  0  0  0  0  0
   -0.9690    1.9141   -1.4756 N   0  0  0  0  0  2  0  0  0  0  0  0
    1.5377    0.7844    0.6633 C   0  0  0  0  0  0  0  0  0  0  0  0
    0.3462    0.5940    1.3877 C   0  0  0  0  0  0  0  0  0  0  0  0
    0.1703    1.2297    2.6525 C   0  0  0  0  0  0  0  0  0  0  0  0
   -0.7520    1.0578    3.2243 H   0  0  0  0  0  0  0  0  0  0  0  0
    1.1585    2.0466    3.1754 C   0  0  0  0  0  0  0  0  0  0  0  0
    1.0157    2.5221    4.1580 H   0  0  0  0  0  0  0  0  0  0  0  0
    3.3886    3.1373    2.9784 C   0  0  0  0  0  0  0  0  0  0  0  0
    3.2331    3.6176    3.9566 H   0  0  0  0  0  0  0  0  0  0  0  0
    4.5537    3.3587    2.2609 C   0  0  0  0  0  0  0  0  0  0  0  0
    5.3352    4.0180    2.6671 H   0  0  0  0  0  0  0  0  0  0  0  0
    4.7426    2.7377    0.9967 C   0  0  0  0  0  0  0  0  0  0  0  0
    5.6680    2.9247    0.4318 H   0  0  0  0  0  0  0  0  0  0  0  0
    3.7716    1.9003    0.4699 C   0  0  0  0  0  0  0  0  0  0  0  0
    3.9229    1.4279   -0.5109 H   0  0  0  0  0  0  0  0  0  0  0  0
    2.5632    1.6446    1.1857 C   0  0  0  0  0  0  0  0  0  0  0  0
    2.3681    2.2848    2.4644 C   0  0  0  0  0  0  0  0  0  0  0  0
    1.7487    0.1245   -0.6637 C   0  0  0  0  0  0  0  0  0  0  0  0
    1.1242    0.6622   -1.7935 C   0  0  0  0  0  0  0  0  0  0  0  0
    1.2327    0.0446   -3.0715 C   0  0  0  0  0  0  0  0  0  0  0  0
    0.7156    0.4901   -3.9337 H   0  0  0  0  0  0  0  0  0  0  0  0
    2.0055   -1.0942   -3.2170 C   0  0  0  0  0  0  0  0  0  0  0  0
    2.1071   -1.5716   -4.2034 H   0  0  0  0  0  0  0  0  0  0  0  0
    3.5106   -2.8202   -2.2434 C   0  0  0  0  0  0  0  0  0  0  0  0
    3.6120   -3.2792   -3.2388 H   0  0  0  0  0  0  0  0  0  0  0  0
    4.1679   -3.3594   -1.1484 C   0  0  0  0  0  0  0  0  0  0  0  0
    4.7989   -4.2525   -1.2690 H   0  0  0  0  0  0  0  0  0  0  0  0
    4.0319   -2.7610    0.1325 C   0  0  0  0  0  0  0  0  0  0  0  0
    4.5550   -3.1985    0.9958 H   0  0  0  0  0  0  0  0  0  0  0  0
    3.2443   -1.6330    0.3034 C   0  0  0  0  0  0  0  0  0  0  0  0
    3.1391   -1.1736    1.2964 H   0  0  0  0  0  0  0  0  0  0  0  0
    2.5623   -1.0490   -0.8031 C   0  0  0  0  0  0  0  0  0  0  0  0
    2.6952   -1.6597   -2.1047 C   0  0  0  0  0  0  0  0  0  0  0  0
   -0.2177   -2.1571    0.6955 C   0  0  0  0  0  0  0  0  0  0  0  0
    0.3829   -2.6638    1.8681 C   0  0  0  0  0  0  0  0  0  0  0  0
    0.3896   -2.0626    2.7905 H   0  0  0  0  0  0  0  0  0  0  0  0
    0.9807   -3.9310    1.8537 C   0  0  0  0  0  0  0  0  0  0  0  0
    1.4407   -4.3283    2.7709 H   0  0  0  0  0  0  0  0  0  0  0  0
    1.0082   -4.6840    0.6680 C   0  0  0  0  0  0  0  0  0  0  0  0
    1.4900   -5.6730    0.6568 H   0  0  0  0  0  0  0  0  0  0  0  0
    0.4376   -4.1696   -0.5061 C   0  0  0  0  0  0  0  0  0  0  0  0
    0.4802   -4.7484   -1.4404 H   0  0  0  0  0  0  0  0  0  0  0  0
   -0.1804   -2.9104   -0.4931 C   0  0  0  0  0  0  0  0  0  0  0  0
   -0.6095   -2.4890   -1.4154 H   0  0  0  0  0  0  0  0  0  0  0  0
   -2.3091   -0.5215    1.9710 C   0  0  0  0  0  0  0  0  0  0  0  0
   -3.0680    0.6598    2.1411 C   0  0  0  0  0  0  0  0  0  0  0  0
   -2.8109    1.5654    1.5677 H   0  0  0  0  0  0  0  0  0  0  0  0
   -4.1471    0.6859    3.0337 C   0  0  0  0  0  0  0  0  0  0  0  0
   -4.7253    1.6126    3.1663 H   0  0  0  0  0  0  0  0  0  0  0  0
   -4.4953   -0.4724    3.7500 C   0  0  0  0  0  0  0  0  0  0  0  0
   -5.3473   -0.4544    4.4458 H   0  0  0  0  0  0  0  0  0  0  0  0
   -3.7593   -1.6521    3.5689 C   0  0  0  0  0  0  0  0  0  0  0  0
   -4.0338   -2.5639    4.1202 H   0  0  0  0  0  0  0  0  0  0  0  0
   -2.6681   -1.6811    2.6843 C   0  0  0  0  0  0  0  0  0  0  0  0
   -2.1036   -2.6143    2.5462 H   0  0  0  0  0  0  0  0  0  0  0  0
    0.3217    1.8932   -1.6195 C   0  0  2  0  0  3  0  0  0  0  0  0
   -1.4072    3.3245   -1.3438 C   0  0  1  0  0  0  0  0  0  0  0  0
   -1.9832    3.4208   -0.3996 H   0  0  0  0  0  0  0  0  0  0  0  0
   -0.0490    4.0719   -1.2329 C   0  0  0  0  0  0  0  0  0  0  0  0
    0.0537    4.9131   -1.9447 H   0  0  0  0  0  0  0  0  0  0  0  0
    0.1779    4.4251   -0.2074 H   0  0  0  0  0  0  0  0  0  0  0  0
   -2.2748    3.7637   -2.5203 C   0  0  0  0  0  0  0  0  0  0  0  0
   -3.1960    3.1540   -2.5816 H   0  0  0  0  0  0  0  0  0  0  0  0
   -1.7230    3.6609   -3.4764 H   0  0  0  0  0  0  0  0  0  0  0  0
   -2.5736    4.8241   -2.4021 H   0  0  0  0  0  0  0  0  0  0  0  0
  1  5  1  0  0  0  0
  1 47  1  0  0  0  0
  2 61  1  0  0  0  0
  3 59  1  0  0  0  0
  4 18  2  0  0  0  0
  4  5  1  0  0  0  0
  5  6  2  0  0  0  0
  6  8  1  0  0  0  0
  6  7  1  0  0  0  0
  8  9  1  0  0  0  0
 10 11  1  0  0  0  0
 12 13  1  0  0  0  0
 12 10  2  0  0  0  0
 14 12  1  0  0  0  0
 15 14  1  0  0  0  0
 16 14  2  0  0  0  0
 16 18  1  0  0  0  0
 17 16  1  0  0  0  0
 18 19  1  0  0  0  0
 19 10  1  0  0  0  0
 19  8  2  0  0  0  0
 20  4  1  0  0  0  0
 21 20  2  0  0  0  0
 22 21  1  0  0  0  0
 23 22  1  0  0  0  0
 24 22  2  0  0  0  0
 24 35  1  0  0  0  0
 25 24  1  0  0  0  0
 26 35  2  0  0  0  0
 26 28  1  0  0  0  0
 27 26  1  0  0  0  0
 28 30  2  0  0  0  0
 29 28  1  0  0  0  0
 30 32  1  0  0  0  0
 30 31  1  0  0  0  0
 32 33  1  0  0  0  0
 34 20  1  0  0  0  0
 34 32  2  0  0  0  0
 35 34  1  0  0  0  0
 36  1  1  0  0  0  0
 36 37  1  0  0  0  0
 37 38  1  0  0  0  0
 39 37  2  0  0  0  0
 39 40  1  0  0  0  0
 41 39  1  0  0  0  0
 42 41  1  0  0  0  0
 43 45  1  0  0  0  0
 43 41  2  0  0  0  0
 44 43  1  0  0  0  0
 45 36  2  0  0  0  0
 46 45  1  0  0  0  0
 47 48  2  0  0  0  0
 47 56  1  0  0  0  0
 48 50  1  0  0  0  0
 49 48  1  0  0  0  0
 50 51  1  0  0  0  0
 50 52  2  0  0  0  0
 52 53  1  0  0  0  0
 54 52  1  0  0  0  0
 54 55  1  0  0  0  0
 56 54  2  0  0  0  0
 57 56  1  0  0  0  0
 58 21  1  1  0  0  0
 58  2  1  0  0  0  0
 58  3  1  0  0  0  0
 59 61  1  0  0  0  0
 59 60  1  1  0  0  0
 61 63  1  0  0  0  0
 62 61  1  0  0  0  0
 64 67  1  0  0  0  0
 64 59  1  0  0  0  0
 65 64  1  0  0  0  0
 66 64  1  0  0  0  0
M  END
