5
q = -1.0, confidence = 0.0

 23 24  0  0  1  0  0  0  0  0999 V2000
    3.5516   -1.9541   -0.6756 N   0  0  0  0  0  0  0  0  0  0  0  0
    4.0426   -2.8403   -0.7880 H   0  0  0  0  0  0  0  0  0  0  0  0
    2.2216   -1.9142   -0.3462 C   0  0  0  0  0  0  0  0  0  0  0  0
    1.5321   -2.8946   -0.0255 O   0  0  0  0  0  0  0  0  0  0  0  0
    1.7636   -0.5930   -0.4610 N   0  0  0  0  0  2  0  0  0  0  0  0
    2.7707    0.1986   -0.9181 C   0  0  0  0  0  0  0  0  0  0  0  0
    2.7231    1.4151   -1.1612 O   0  0  0  0  0  0  0  0  0  0  0  0
    4.0600   -0.6598   -1.0924 C   0  0  2  0  0  0  0  0  0  0  0  0
    4.4836   -0.6584   -2.5720 C   0  0  0  0  0  0  0  0  0  0  0  0
    5.3934   -1.2752   -2.7142 H   0  0  0  0  0  0  0  0  0  0  0  0
    4.7029    0.3723   -2.9072 H   0  0  0  0  0  0  0  0  0  0  0  0
    3.6674   -1.0616   -3.2034 H   0  0  0  0  0  0  0  0  0  0  0  0
    5.1576   -0.1164   -0.1727 C   0  0  0  0  0  0  0  0  0  0  0  0
    5.7130    1.1567   -0.4196 C   0  0  0  0  0  0  0  0  0  0  0  0
    5.3320    1.7623   -1.2537 H   0  0  0  0  0  0  0  0  0  0  0  0
    6.7131    1.6700    0.4175 C   0  0  0  0  0  0  0  0  0  0  0  0
    7.1328    2.6670    0.2139 H   0  0  0  0  0  0  0  0  0  0  0  0
    7.1759    0.9216    1.5122 C   0  0  0  0  0  0  0  0  0  0  0  0
    7.9643    1.3245    2.1658 H   0  0  0  0  0  0  0  0  0  0  0  0
    6.6194   -0.3394    1.7706 C   0  0  0  0  0  0  0  0  0  0  0  0
    6.9659   -0.9315    2.6314 H   0  0  0  0  0  0  0  0  0  0  0  0
    5.6135   -0.8526    0.9365 C   0  0  0  0  0  0  0  0  0  0  0  0
    5.1671   -1.8332    1.1557 H   0  0  0  0  0  0  0  0  0  0  0  0
  1  3  1  0  0  0  0
  2  1  1  0  0  0  0
  3  4  2  0  0  0  0
  5  3  1  0  0  0  0
  6  5  1  0  0  0  0
  7  6  2  0  0  0  0
  8  9  1  6  0  0  0
  8  6  1  0  0  0  0
  8  1  1  0  0  0  0
  8 13  1  0  0  0  0
 10  9  1  0  0  0  0
 11  9  1  0  0  0  0
 12  9  1  0  0  0  0
 13 22  1  0  0  0  0
 14 13  2  0  0  0  0
 14 16  1  0  0  0  0
 15 14  1  0  0  0  0
 16 18  2  0  0  0  0
 17 16  1  0  0  0  0
 18 20  1  0  0  0  0
 18 19  1  0  0  0  0
 20 21  1  0  0  0  0
 22 23  1  0  0  0  0
 22 20  2  0  0  0  0
M  END
