2
q = 0.0, confidence = 0.994

 23 25  0  0  1  0  0  0  0  0999 V2000
    5.0563    0.2961   -0.0344 S   0  0  0  0  0  0  0  0  0  0  0  0
    2.5439   -0.3366    0.0098 N   0  0  0  0  0  2  0  0  0  0  0  0
    3.3579    0.7127   -0.0145 C   0  0  1  0  0  3  0  0  0  0  0  0
    3.2237   -1.5471    0.0191 C   0  0  0  0  0  0  0  0  0  0  0  0
    2.6491   -2.8343    0.0531 C   0  0  0  0  0  0  0  0  0  0  0  0
    1.5543   -2.9382    0.0797 H   0  0  0  0  0  0  0  0  0  0  0  0
    1.5590    2.2876   -0.0046 N   0  0  0  0  0  0  0  0  0  0  0  0
    3.7977    3.1966   -0.0306 C   0  0  0  0  0  0  0  0  0  0  0  0
    4.8855    3.0292   -0.0426 H   0  0  0  0  0  0  0  0  0  0  0  0
    5.4944   -2.5163   -0.0010 C   0  0  0  0  0  0  0  0  0  0  0  0
    6.5869   -2.3983   -0.0204 H   0  0  0  0  0  0  0  0  0  0  0  0
    4.6400   -1.4022   -0.0050 C   0  0  0  0  0  0  0  0  0  0  0  0
    2.8961    2.1116   -0.0182 C   0  0  0  0  0  0  0  0  0  0  0  0
    3.2781    4.4971   -0.0256 C   0  0  0  0  0  0  0  0  0  0  0  0
    3.9554    5.3636   -0.0344 H   0  0  0  0  0  0  0  0  0  0  0  0
    1.8872    4.6736   -0.0083 C   0  0  0  0  0  0  0  0  0  0  0  0
    1.4393    5.6777   -0.0022 H   0  0  0  0  0  0  0  0  0  0  0  0
    1.0666    3.5313    0.0011 C   0  0  0  0  0  0  0  0  0  0  0  0
   -0.0333    3.6199    0.0079 H   0  0  0  0  0  0  0  0  0  0  0  0
    3.4988   -3.9413    0.0581 C   0  0  0  0  0  0  0  0  0  0  0  0
    3.0697   -4.9533    0.0860 H   0  0  0  0  0  0  0  0  0  0  0  0
    4.9049   -3.7847    0.0301 C   0  0  0  0  0  0  0  0  0  0  0  0
    5.5493   -4.6759    0.0346 H   0  0  0  0  0  0  0  0  0  0  0  0
  1  3  1  0  0  0  0
  1 12  1  0  0  0  0
  2  4  1  0  0  0  0
  3 13  1  1  0  0  0
  3  2  1  0  0  0  0
  4  5  1  0  0  0  0
  5 20  2  0  0  0  0
  5  6  1  0  0  0  0
  7 18  1  0  0  0  0
  8 14  2  0  0  0  0
  8 13  1  0  0  0  0
  9  8  1  0  0  0  0
 10 22  2  0  0  0  0
 11 10  1  0  0  0  0
 12 10  1  0  0  0  0
 12  4  2  0  0  0  0
 13  7  2  0  0  0  0
 14 16  1  0  0  0  0
 15 14  1  0  0  0  0
 16 17  1  0  0  0  0
 16 18  2  0  0  0  0
 18 19  1  0  0  0  0
 20 21  1  0  0  0  0
 22 23  1  0  0  0  0
 22 20  1  0  0  0  0
M  END
