34
q = 0.0, confidence = 0.994

 38 39  0  0  1  0  0  0  0  0999 V2000
    2.9520    0.4375    0.5968 C   0  0  0  0  0  3  0  0  0  0  0  0
    3.0530    1.1095    1.4539 H   0  0  0  0  0  0  0  0  0  0  0  0
    3.4611   -0.8856   -1.0607 C   0  0  0  0  0  0  0  0  0  0  0  0
    4.0636   -1.4551   -1.7778 H   0  0  0  0  0  0  0  0  0  0  0  0
    5.4150    0.0015    0.2594 C   0  0  0  0  0  0  0  0  0  0  0  0
    5.9299    1.4095    0.4723 C   0  0  1  0  0  0  0  0  0  0  0  0
    6.9714    1.2971    0.8449 H   0  0  0  0  0  0  0  0  0  0  0  0
    6.0465    2.2763   -0.8326 C   0  0  0  0  0  0  0  0  0  0  0  0
    4.6787    2.5462   -1.4833 C   0  0  0  0  0  0  0  0  0  0  0  0
    4.7830    3.3032   -2.2859 H   0  0  0  0  0  0  0  0  0  0  0  0
    3.9537    2.9396   -0.7426 H   0  0  0  0  0  0  0  0  0  0  0  0
    4.2463    1.6398   -1.9506 H   0  0  0  0  0  0  0  0  0  0  0  0
    6.6806    3.6212   -0.4187 C   0  0  0  0  0  0  0  0  0  0  0  0
    7.6526    3.4746    0.0959 H   0  0  0  0  0  0  0  0  0  0  0  0
    6.0169    4.2190    0.2433 H   0  0  0  0  0  0  0  0  0  0  0  0
    6.8659    4.2485   -1.3130 H   0  0  0  0  0  0  0  0  0  0  0  0
    6.9866    1.5675   -1.8216 C   0  0  0  0  0  0  0  0  0  0  0  0
    7.9851    1.3848   -1.3738 H   0  0  0  0  0  0  0  0  0  0  0  0
    7.1334    2.1927   -2.7246 H   0  0  0  0  0  0  0  0  0  0  0  0
    6.5857    0.5887   -2.1522 H   0  0  0  0  0  0  0  0  0  0  0  0
    6.1714   -1.1214    0.2151 C   0  0  0  0  0  0  0  0  0  0  0  0
    5.6694   -2.0686   -0.0473 H   0  0  0  0  0  0  0  0  0  0  0  0
    7.6266   -1.2085    0.4192 C   0  0  0  0  0  0  0  0  0  0  0  0
    8.4374   -1.8231   -0.5644 C   0  0  0  0  0  0  0  0  0  0  0  0
    9.8222   -1.9592   -0.4073 C   0  0  0  0  0  0  0  0  0  0  0  0
   10.4291   -2.4288   -1.1922 H   0  0  0  0  0  0  0  0  0  0  0  0
   10.4186   -1.4764    0.7695 C   0  0  0  0  0  0  0  0  0  0  0  0
    9.6435   -0.8720    1.7760 C   0  0  0  0  0  0  0  0  0  0  0  0
   10.1258   -0.5175    2.6969 H   0  0  0  0  0  0  0  0  0  0  0  0
    8.2631   -0.7460    1.5928 C   0  0  0  0  0  0  0  0  0  0  0  0
    7.6483   -0.3015    2.3900 H   0  0  0  0  0  0  0  0  0  0  0  0
   12.1324   -1.6364    0.9805 Cl  0  0  0  0  0  0  0  0  0  0  0  0
    7.6941   -2.3953   -2.0392 Cl  0  0  0  0  0  0  0  0  0  0  0  0
    1.8368    0.0493   -0.0171 N   0  0  0  0  0  2  0  0  0  0  0  0
    2.1500   -0.7812   -1.0634 N   0  0  0  0  0  0  0  0  0  0  0  0
    4.0151   -0.1390   -0.0364 N   0  0  0  0  0  0  0  0  0  0  0  0
    5.1105    2.0129    1.4706 O   0  0  0  0  0  0  0  0  0  0  0  0
    5.4111    2.9353    1.5733 H   0  0  0  0  0  0  0  0  0  0  0  0
  1  2  1  0  0  0  0
  3 36  1  0  0  0  0
  4  3  1  0  0  0  0
  5  6  1  0  0  0  0
  6  7  1  1  0  0  0
  6 37  1  0  0  0  0
  8 13  1  0  0  0  0
  8  6  1  0  0  0  0
  9  8  1  0  0  0  0
  9 11  1  0  0  0  0
 10  9  1  0  0  0  0
 12  9  1  0  0  0  0
 13 14  1  0  0  0  0
 13 15  1  0  0  0  0
 16 13  1  0  0  0  0
 17 18  1  0  0  0  0
 17  8  1  0  0  0  0
 19 17  1  0  0  0  0
 20 17  1  0  0  0  0
 21  5  2  0  0  0  0
 21 23  1  0  0  0  0
 22 21  1  0  0  0  0
 23 30  1  0  0  0  0
 24 25  1  0  0  0  0
 24 23  2  0  0  0  0
 25 27  2  0  0  0  0
 26 25  1  0  0  0  0
 27 32  1  0  0  0  0
 27 28  1  0  0  0  0
 28 29  1  0  0  0  0
 30 28  2  0  0  0  0
 30 31  1  0  0  0  0
 33 24  1  0  0  0  0
 34  1  1  0  0  0  0
 35  3  2  0  0  0  0
 35 34  1  0  0  0  0
 36  5  1  0  0  0  0
 36  1  1  0  0  0  0
 37 38  1  0  0  0  0
M  END
