1
q = 0.0, confidence = 0.996

 48 51  0  0  0  0  0  0  0  0999 V2000
   -0.9553   -0.2090   -0.6554 N   0  0  0  0  0  2  0  0  0  0  0  0
   -1.6787    0.9491   -0.7400 N   0  0  0  0  0  0  0  0  0  0  0  0
   -1.5236   -1.3910   -0.7832 C   0  0  0  0  0  3  0  0  0  0  0  0
   -2.3769    1.3421    0.2878 C   0  0  0  0  0  0  0  0  0  0  0  0
   -0.6684   -2.5943   -0.6422 C   0  0  0  0  0  0  0  0  0  0  0  0
    0.2661   -2.6980    0.4127 C   0  0  0  0  0  0  0  0  0  0  0  0
    1.1034   -3.8171    0.5075 C   0  0  0  0  0  0  0  0  0  0  0  0
    1.0100   -4.8479   -0.4409 C   0  0  0  0  0  0  0  0  0  0  0  0
    0.0646   -4.7660   -1.4771 C   0  0  0  0  0  0  0  0  0  0  0  0
   -0.7766   -3.6500   -1.5744 C   0  0  0  0  0  0  0  0  0  0  0  0
   -2.9732   -1.5773   -1.0422 C   0  0  0  0  0  0  0  0  0  0  0  0
   -3.6469   -2.6423   -0.3998 C   0  0  0  0  0  0  0  0  0  0  0  0
   -5.0196   -2.8383   -0.5964 C   0  0  0  0  0  0  0  0  0  0  0  0
   -5.7370   -1.9892   -1.4540 C   0  0  0  0  0  0  0  0  0  0  0  0
   -5.0720   -0.9432   -2.1162 C   0  0  0  0  0  0  0  0  0  0  0  0
   -3.7036   -0.7315   -1.9086 C   0  0  0  0  0  0  0  0  0  0  0  0
   -2.4272    0.5599    1.5626 C   0  0  0  0  0  0  0  0  0  0  0  0
   -1.2699    0.4159    2.3554 C   0  0  0  0  0  0  0  0  0  0  0  0
   -1.3087   -0.3614    3.5215 C   0  0  0  0  0  0  0  0  0  0  0  0
   -2.4978   -1.0055    3.9017 C   0  0  0  0  0  0  0  0  0  0  0  0
   -3.6521   -0.8642    3.1156 C   0  0  0  0  0  0  0  0  0  0  0  0
   -3.6205   -0.0817    1.9517 C   0  0  0  0  0  0  0  0  0  0  0  0
   -3.1556    2.5933    0.1514 C   0  0  0  0  0  0  0  0  0  0  0  0
   -3.8414    3.1434    1.2574 C   0  0  0  0  0  0  0  0  0  0  0  0
   -4.5810    4.3262    1.1177 C   0  0  0  0  0  0  0  0  0  0  0  0
   -4.6443    4.9759   -0.1241 C   0  0  0  0  0  0  0  0  0  0  0  0
   -3.9580    4.4398   -1.2293 C   0  0  0  0  0  0  0  0  0  0  0  0
   -3.2192    3.2615   -1.0948 C   0  0  0  0  0  0  0  0  0  0  0  0
    0.3195   -1.9044    1.1718 H   0  0  0  0  0  0  0  0  0  0  0  0
    1.8386   -3.8736    1.3233 H   0  0  0  0  0  0  0  0  0  0  0  0
    1.6737   -5.7229   -0.3699 H   0  0  0  0  0  0  0  0  0  0  0  0
   -0.0120   -5.5739   -2.2201 H   0  0  0  0  0  0  0  0  0  0  0  0
   -1.5104   -3.5781   -2.3911 H   0  0  0  0  0  0  0  0  0  0  0  0
   -3.0847   -3.3037    0.2752 H   0  0  0  0  0  0  0  0  0  0  0  0
   -5.5325   -3.6617   -0.0768 H   0  0  0  0  0  0  0  0  0  0  0  0
   -6.8151   -2.1446   -1.6114 H   0  0  0  0  0  0  0  0  0  0  0  0
   -5.6256   -0.2826   -2.8002 H   0  0  0  0  0  0  0  0  0  0  0  0
   -3.1917    0.0942   -2.4217 H   0  0  0  0  0  0  0  0  0  0  0  0
   -0.3337    0.9079    2.0472 H   0  0  0  0  0  0  0  0  0  0  0  0
   -0.4014   -0.4659    4.1354 H   0  0  0  0  0  0  0  0  0  0  0  0
   -2.5240   -1.6198    4.8144 H   0  0  0  0  0  0  0  0  0  0  0  0
   -4.5851   -1.3704    3.4063 H   0  0  0  0  0  0  0  0  0  0  0  0
   -4.5195    0.0184    1.3249 H   0  0  0  0  0  0  0  0  0  0  0  0
   -3.7868    2.6420    2.2343 H   0  0  0  0  0  0  0  0  0  0  0  0
   -5.1081    4.7452    1.9880 H   0  0  0  0  0  0  0  0  0  0  0  0
   -5.2251    5.9044   -0.2326 H   0  0  0  0  0  0  0  0  0  0  0  0
   -3.9993    4.9504   -2.2034 H   0  0  0  0  0  0  0  0  0  0  0  0
   -2.6674    2.8382   -1.9464 H   0  0  0  0  0  0  0  0  0  0  0  0
  2  1  1  0  0  0  0
  2  4  2  0  0  0  0
  3  1  1  0  0  0  0
  3  5  1  0  0  0  0
  4 17  1  0  0  0  0
  5  6  1  0  0  0  0
  6  7  2  0  0  0  0
  6 29  1  0  0  0  0
  7 30  1  0  0  0  0
  8 31  1  0  0  0  0
  8  7  1  0  0  0  0
  9  8  2  0  0  0  0
 10  9  1  0  0  0  0
 10  5  2  0  0  0  0
 11  3  1  0  0  0  0
 11 12  1  0  0  0  0
 12 34  1  0  0  0  0
 13 12  2  0  0  0  0
 13 35  1  0  0  0  0
 14 13  1  0  0  0  0
 15 16  1  0  0  0  0
 15 14  2  0  0  0  0
 16 11  2  0  0  0  0
 17 22  2  0  0  0  0
 17 18  1  0  0  0  0
 18 19  2  0  0  0  0
 19 20  1  0  0  0  0
 19 40  1  0  0  0  0
 20 41  1  0  0  0  0
 21 42  1  0  0  0  0
 21 20  2  0  0  0  0
 22 21  1  0  0  0  0
 23  4  1  0  0  0  0
 23 24  1  0  0  0  0
 24 44  1  0  0  0  0
 25 24  2  0  0  0  0
 25 45  1  0  0  0  0
 26 25  1  0  0  0  0
 27 28  1  0  0  0  0
 27 26  2  0  0  0  0
 28 23  2  0  0  0  0
 32  9  1  0  0  0  0
 33 10  1  0  0  0  0
 36 14  1  0  0  0  0
 37 15  1  0  0  0  0
 38 16  1  0  0  0  0
 39 18  1  0  0  0  0
 43 22  1  0  0  0  0
 46 26  1  0  0  0  0
 47 27  1  0  0  0  0
 48 28  1  0  0  0  0
M  END
