10
q = 0.0, confidence = 0.986

 18 17  0  0  1  0  0  0  0  0999 V2000
   -3.8500    1.4996    0.0278 S   0  0  0  0  0  0  0  0  0  0  0  0
   -2.4591    0.4788    0.4029 C   0  0  2  0  0  3  0  0  0  0  0  0
   -2.5247   -0.1524    1.7691 C   0  0  0  0  0  0  0  0  0  0  0  0
   -2.5719    0.6709    2.5164 H   0  0  0  0  0  0  0  0  0  0  0  0
   -1.5668   -0.6922    1.9093 H   0  0  0  0  0  0  0  0  0  0  0  0
   -3.7018   -1.1185    1.9610 C   0  0  0  0  0  0  0  0  0  0  0  0
   -4.6802   -0.6233    1.7998 H   0  0  0  0  0  0  0  0  0  0  0  0
   -3.6871   -1.5234    2.9918 H   0  0  0  0  0  0  0  0  0  0  0  0
   -3.5976   -1.9620    1.2520 H   0  0  0  0  0  0  0  0  0  0  0  0
   -1.4512    0.2978   -0.4011 N   0  0  0  0  0  2  0  0  0  0  0  0
   -1.5198    0.7819   -1.3055 H   0  0  0  0  0  0  0  0  0  0  0  0
   -3.5093    2.0940   -1.6705 C   0  0  0  0  0  0  0  0  0  0  0  0
   -3.1980    1.2218   -2.2856 H   0  0  0  0  0  0  0  0  0  0  0  0
   -4.5123    2.3849   -2.0426 H   0  0  0  0  0  0  0  0  0  0  0  0
   -2.5316    3.2639   -1.7559 C   0  0  0  0  0  0  0  0  0  0  0  0
   -2.8898    4.1232   -1.1562 H   0  0  0  0  0  0  0  0  0  0  0  0
   -2.4248    3.5968   -2.8087 H   0  0  0  0  0  0  0  0  0  0  0  0
   -1.5214    2.9976   -1.3851 H   0  0  0  0  0  0  0  0  0  0  0  0
  1  2  1  0  0  0  0
  2 10  1  1  0  0  0
  2  3  1  0  0  0  0
  3  5  1  0  0  0  0
  3  6  1  0  0  0  0
  3  4  1  0  0  0  0
  6  8  1  0  0  0  0
  7  6  1  0  0  0  0
  9  6  1  0  0  0  0
 11 10  1  0  0  0  0
 12  1  1  0  0  0  0
 13 12  1  0  0  0  0
 14 12  1  0  0  0  0
 15 12  1  0  0  0  0
 15 18  1  0  0  0  0
 15 16  1  0  0  0  0
 17 15  1  0  0  0  0
M  END
