1
q = 0.0, confidence = 1.0

 23 23  0  0  0  0  0  0  0  0999 V2000
    2.0900   -1.2982   -1.5527 N   0  0  0  0  0  0  0  0  0  0  0  0
    3.0970   -0.2203   -1.6131 C   0  0  0  0  0  0  0  0  0  0  0  0
    1.7712   -1.7408   -2.9245 C   0  0  0  0  0  0  0  0  0  0  0  0
    2.6153   -2.4601   -0.7668 C   0  0  0  0  0  0  0  0  0  0  0  0
    3.0725   -2.1011    0.6269 C   0  0  0  0  0  0  0  0  0  0  0  0
    2.1363   -1.8127    1.6399 C   0  0  0  0  0  0  0  0  0  0  0  0
    2.5649   -1.4301    2.9185 C   0  0  0  0  0  0  0  0  0  0  0  0
    3.9360   -1.3463    3.2074 C   0  0  0  0  0  0  0  0  0  0  0  0
    4.8780   -1.6487    2.2114 C   0  0  0  0  0  0  0  0  0  0  0  0
    4.4463   -2.0209    0.9294 C   0  0  0  0  0  0  0  0  0  0  0  0
    2.7279    0.5810   -2.2754 H   0  0  0  0  0  0  0  0  0  0  0  0
    4.0601   -0.6105   -2.0169 H   0  0  0  0  0  0  0  0  0  0  0  0
    3.2675    0.1954   -0.6048 H   0  0  0  0  0  0  0  0  0  0  0  0
    2.6875   -2.0938   -3.4544 H   0  0  0  0  0  0  0  0  0  0  0  0
    1.0429   -2.5720   -2.8889 H   0  0  0  0  0  0  0  0  0  0  0  0
    1.3295   -0.8962   -3.4851 H   0  0  0  0  0  0  0  0  0  0  0  0
    3.4671   -2.9052   -1.3342 H   0  0  0  0  0  0  0  0  0  0  0  0
    1.8027   -3.2121   -0.7304 H   0  0  0  0  0  0  0  0  0  0  0  0
    1.0577   -1.8629    1.4231 H   0  0  0  0  0  0  0  0  0  0  0  0
    1.8169   -1.1904    3.6884 H   0  0  0  0  0  0  0  0  0  0  0  0
    4.2720   -1.0453    4.2114 H   0  0  0  0  0  0  0  0  0  0  0  0
    5.9547   -1.5895    2.4317 H   0  0  0  0  0  0  0  0  0  0  0  0
    5.1871   -2.2496    0.1462 H   0  0  0  0  0  0  0  0  0  0  0  0
  1  4  1  0  0  0  0
  2  1  1  0  0  0  0
  2 13  1  0  0  0  0
  3 15  1  0  0  0  0
  3  1  1  0  0  0  0
  4 18  1  0  0  0  0
  4  5  1  0  0  0  0
  5 10  2  0  0  0  0
  5  6  1  0  0  0  0
  6  7  2  0  0  0  0
  7  8  1  0  0  0  0
  7 20  1  0  0  0  0
  8 21  1  0  0  0  0
  9 22  1  0  0  0  0
  9  8  2  0  0  0  0
 10  9  1  0  0  0  0
 11  2  1  0  0  0  0
 12  2  1  0  0  0  0
 14  3  1  0  0  0  0
 16  3  1  0  0  0  0
 17  4  1  0  0  0  0
 19  6  1  0  0  0  0
 23 10  1  0  0  0  0
M  END
