4
q = 0.0, confidence = 0.996

 19 20  0  0  1  0  0  0  0  0999 V2000
    6.9214   -0.5639   -0.0634 Br  0  0  0  0  0  0  0  0  0  0  0  0
   -0.0276    0.3505   -0.1378 N   0  0  0  0  0  0  0  0  0  0  0  0
   -0.0837   -0.6839   -0.3000 H   0  0  0  0  0  0  0  0  0  0  0  0
   -1.2180    0.9577   -0.0771 N   0  0  0  0  0  2  0  0  0  0  0  0
    1.0043    1.2244    0.0005 C   0  0  2  0  0  3  0  0  0  0  0  0
    2.4033    0.7943   -0.0150 C   0  0  0  0  0  0  0  0  0  0  0  0
    5.1015   -0.0173   -0.0431 C   0  0  0  0  0  0  0  0  0  0  0  0
    3.4401    1.7348   -0.2076 C   0  0  0  0  0  0  0  0  0  0  0  0
    3.1932    2.7949   -0.3653 H   0  0  0  0  0  0  0  0  0  0  0  0
   -0.9744    2.2708    0.1134 C   0  0  0  0  0  0  0  0  0  0  0  0
   -1.8027    2.9758    0.2365 H   0  0  0  0  0  0  0  0  0  0  0  0
    0.4133    2.4943    0.1612 C   0  0  0  0  0  0  0  0  0  0  0  0
    0.9267    3.4460    0.3255 H   0  0  0  0  0  0  0  0  0  0  0  0
    4.7818    1.3392   -0.2201 C   0  0  0  0  0  0  0  0  0  0  0  0
    5.5804    2.0783   -0.3736 H   0  0  0  0  0  0  0  0  0  0  0  0
    2.7524   -0.5642    0.1675 C   0  0  0  0  0  0  0  0  0  0  0  0
    1.9720   -1.3193    0.3478 H   0  0  0  0  0  0  0  0  0  0  0  0
    4.0904   -0.9728    0.1505 C   0  0  0  0  0  0  0  0  0  0  0  0
    4.3504   -2.0303    0.2971 H   0  0  0  0  0  0  0  0  0  0  0  0
  1  7  1  0  0  0  0
  2  4  1  0  0  0  0
  2  5  1  0  0  0  0
  3  2  1  0  0  0  0
  4 10  1  0  0  0  0
  5  6  1  1  0  0  0
  5 12  1  0  0  0  0
  6 16  1  0  0  0  0
  7 18  1  0  0  0  0
  8  6  2  0  0  0  0
  9  8  1  0  0  0  0
 10 12  2  0  0  0  0
 10 11  1  0  0  0  0
 12 13  1  0  0  0  0
 14  8  1  0  0  0  0
 14  7  2  0  0  0  0
 15 14  1  0  0  0  0
 16 17  1  0  0  0  0
 18 16  2  0  0  0  0
 18 19  1  0  0  0  0
M  END
