1
q = 0.0, confidence = 0.966

 17 17  0  0  0  0  0  0  0  0999 V2000
   -0.7550   -0.5790   -1.1182 N   0  0  0  0  0  0  0  0  0  0  0  0
   -0.6988   -0.2432   -2.0906 H   0  0  0  0  0  0  0  0  0  0  0  0
   -0.5209   -1.5915   -1.1386 H   0  0  0  0  0  0  0  0  0  0  0  0
   -2.0602   -0.3028   -0.5588 C   0  0  0  0  0  0  0  0  0  0  0  0
   -2.8647    0.6791   -1.1564 C   0  0  0  0  0  0  0  0  0  0  0  0
   -2.5023    1.2095   -2.0515 H   0  0  0  0  0  0  0  0  0  0  0  0
   -4.1189    0.9866   -0.6126 C   0  0  0  0  0  0  0  0  0  0  0  0
   -4.7455    1.7575   -1.0846 H   0  0  0  0  0  0  0  0  0  0  0  0
   -4.5632    0.3050    0.5293 C   0  0  0  0  0  0  0  0  0  0  0  0
   -5.5469    0.5352    0.9644 H   0  0  0  0  0  0  0  0  0  0  0  0
   -3.7476   -0.6706    1.1209 C   0  0  0  0  0  0  0  0  0  0  0  0
   -4.0948   -1.2005    2.0215 H   0  0  0  0  0  0  0  0  0  0  0  0
   -2.4791   -0.9940    0.6019 C   0  0  0  0  0  0  0  0  0  0  0  0
   -1.5863   -2.0026    1.2704 C   0  0  0  0  0  0  0  0  0  0  0  0
   -2.0929   -2.4741    2.1328 H   0  0  0  0  0  0  0  0  0  0  0  0
   -0.6496   -1.5212    1.6303 H   0  0  0  0  0  0  0  0  0  0  0  0
   -1.2603   -2.8119    0.5826 H   0  0  0  0  0  0  0  0  0  0  0  0
  1  4  1  0  0  0  0
  2  1  1  0  0  0  0
  3  1  1  0  0  0  0
  4 13  1  0  0  0  0
  5  7  1  0  0  0  0
  5  4  2  0  0  0  0
  6  5  1  0  0  0  0
  7  9  2  0  0  0  0
  8  7  1  0  0  0  0
  9 10  1  0  0  0  0
  9 11  1  0  0  0  0
 11 12  1  0  0  0  0
 13 11  2  0  0  0  0
 13 14  1  0  0  0  0
 14 16  1  0  0  0  0
 14 15  1  0  0  0  0
 17 14  1  0  0  0  0
M  END
