2
q = 0.0, confidence = 1.0

 34 35  0  0  1  0  0  0  0  0999 V2000
   -0.6354    2.0485    0.5425 S   0  0  0  0  0  0  0  0  0  0  0  0
    1.2969   -0.1142    0.2627 N   0  0  0  0  0  2  0  0  0  0  0  0
    3.1838    0.8563    0.9627 N   0  0  0  0  0  0  0  0  0  0  0  0
    3.5595   -0.2957    0.2688 C   0  0  0  0  0  0  0  0  0  0  0  0
    4.8202   -0.8470   -0.0085 C   0  0  0  0  0  0  0  0  0  0  0  0
    5.7514   -0.3822    0.3443 H   0  0  0  0  0  0  0  0  0  0  0  0
    4.8341   -2.0231   -0.7680 C   0  0  0  0  0  0  0  0  0  0  0  0
    5.7987   -2.4908   -1.0129 H   0  0  0  0  0  0  0  0  0  0  0  0
    3.6377   -2.6182   -1.2401 C   0  0  0  0  0  0  0  0  0  0  0  0
    3.7017   -3.5300   -1.8516 H   0  0  0  0  0  0  0  0  0  0  0  0
    2.3826   -2.0679   -0.9615 C   0  0  0  0  0  0  0  0  0  0  0  0
    1.4537   -2.4973   -1.3562 H   0  0  0  0  0  0  0  0  0  0  0  0
    2.3544   -0.8986   -0.1830 C   0  0  0  0  0  0  0  0  0  0  0  0
    4.1100    1.7845    1.5885 C   0  0  0  0  0  0  0  0  0  0  0  0
    4.7164    1.2636    2.3561 H   0  0  0  0  0  0  0  0  0  0  0  0
    3.5533    2.6027    2.0776 H   0  0  0  0  0  0  0  0  0  0  0  0
    4.7908    2.2180    0.8289 H   0  0  0  0  0  0  0  0  0  0  0  0
    1.8181    0.9259    0.9276 C   0  0  1  0  0  3  0  0  0  0  0  0
    0.9416    1.9833    1.5031 C   0  0  0  0  0  0  0  0  0  0  0  0
    1.4091    2.9867    1.5150 H   0  0  0  0  0  0  0  0  0  0  0  0
    0.6361    1.7408    2.5431 H   0  0  0  0  0  0  0  0  0  0  0  0
   -0.2334    3.3020   -0.8357 C   0  0  0  0  0  0  0  0  0  0  0  0
   -1.4238    3.1606   -1.7911 C   0  0  0  0  0  0  0  0  0  0  0  0
   -2.3874    3.3259   -1.2671 H   0  0  0  0  0  0  0  0  0  0  0  0
   -1.4278    2.1648   -2.2757 H   0  0  0  0  0  0  0  0  0  0  0  0
   -1.3370    3.9344   -2.5809 H   0  0  0  0  0  0  0  0  0  0  0  0
   -0.2249    4.6764   -0.1580 C   0  0  0  0  0  0  0  0  0  0  0  0
    0.6016    4.7885    0.5734 H   0  0  0  0  0  0  0  0  0  0  0  0
   -1.1826    4.8916    0.3549 H   0  0  0  0  0  0  0  0  0  0  0  0
   -0.0718    5.4529   -0.9359 H   0  0  0  0  0  0  0  0  0  0  0  0
    1.0962    2.9860   -1.5173 C   0  0  0  0  0  0  0  0  0  0  0  0
    1.9592    3.1099   -0.8324 H   0  0  0  0  0  0  0  0  0  0  0  0
    1.2419    3.7086   -2.3473 H   0  0  0  0  0  0  0  0  0  0  0  0
    1.1003    1.9651   -1.9446 H   0  0  0  0  0  0  0  0  0  0  0  0
  1 19  1  0  0  0  0
  2 18  1  0  0  0  0
  3 14  1  0  0  0  0
  4  3  1  0  0  0  0
  5  4  1  0  0  0  0
  5  6  1  0  0  0  0
  7  5  2  0  0  0  0
  8  7  1  0  0  0  0
  9 11  2  0  0  0  0
  9  7  1  0  0  0  0
 10  9  1  0  0  0  0
 11 13  1  0  0  0  0
 12 11  1  0  0  0  0
 13  2  1  0  0  0  0
 13  4  2  0  0  0  0
 14 16  1  0  0  0  0
 14 15  1  0  0  0  0
 17 14  1  0  0  0  0
 18  3  1  0  0  0  0
 18 19  1  6  0  0  0
 19 20  1  0  0  0  0
 19 21  1  0  0  0  0
 22 27  1  0  0  0  0
 22  1  1  0  0  0  0
 23 24  1  0  0  0  0
 23 22  1  0  0  0  0
 25 23  1  0  0  0  0
 26 23  1  0  0  0  0
 27 29  1  0  0  0  0
 27 28  1  0  0  0  0
 30 27  1  0  0  0  0
 31 22  1  0  0  0  0
 31 32  1  0  0  0  0
 33 31  1  0  0  0  0
 34 31  1  0  0  0  0
M  END
