1
q = -1.0

 22 22  0  0  0  0  0  0  0  0999 V2000
   -1.9625   -0.0748   -1.5586 N   0  0  0  0  0  2  0  0  0  0  0  0
   -1.7803    0.8027   -2.0551 H   0  0  0  0  0  0  0  0  0  0  0  0
   -3.0703    0.0234   -0.7635 C   0  0  0  0  0  0  0  0  0  0  0  0
   -3.8159    1.2478   -0.6450 C   0  0  0  0  0  0  0  0  0  0  0  0
   -4.9291    1.3119    0.2054 C   0  0  0  0  0  0  0  0  0  0  0  0
   -5.4774    2.2674    0.2794 H   0  0  0  0  0  0  0  0  0  0  0  0
   -5.3738    0.2076    0.9611 C   0  0  0  0  0  0  0  0  0  0  0  0
   -4.6378   -0.9876    0.8379 C   0  0  0  0  0  0  0  0  0  0  0  0
   -4.9499   -1.8719    1.4203 H   0  0  0  0  0  0  0  0  0  0  0  0
   -3.5074   -1.1011    0.0167 C   0  0  0  0  0  0  0  0  0  0  0  0
   -3.3771    2.4510   -1.4377 C   0  0  0  0  0  0  0  0  0  0  0  0
   -3.4265    2.2646   -2.5347 H   0  0  0  0  0  0  0  0  0  0  0  0
   -2.3199    2.7329   -1.2259 H   0  0  0  0  0  0  0  0  0  0  0  0
   -4.0111    3.3326   -1.2212 H   0  0  0  0  0  0  0  0  0  0  0  0
   -6.6067    0.2909    1.8270 C   0  0  0  0  0  0  0  0  0  0  0  0
   -6.7479    1.3092    2.2445 H   0  0  0  0  0  0  0  0  0  0  0  0
   -6.5589   -0.4192    2.6779 H   0  0  0  0  0  0  0  0  0  0  0  0
   -7.5328    0.0474    1.2588 H   0  0  0  0  0  0  0  0  0  0  0  0
   -2.7199   -2.3771   -0.0429 C   0  0  0  0  0  0  0  0  0  0  0  0
   -2.6010   -2.7369   -1.0901 H   0  0  0  0  0  0  0  0  0  0  0  0
   -3.1913   -3.1824    0.5543 H   0  0  0  0  0  0  0  0  0  0  0  0
   -1.6834   -2.2359    0.3483 H   0  0  0  0  0  0  0  0  0  0  0  0
  1  3  1  0  0  0  0
  2  1  1  0  0  0  0
  3  4  2  0  0  0  0
  3 10  1  0  0  0  0
  4  5  1  0  0  0  0
  5  6  1  0  0  0  0
  5  7  2  0  0  0  0
  7 15  1  0  0  0  0
  8  7  1  0  0  0  0
  8  9  1  0  0  0  0
 10  8  2  0  0  0  0
 11 13  1  0  0  0  0
 11 14  1  0  0  0  0
 11  4  1  0  0  0  0
 12 11  1  0  0  0  0
 15 16  1  0  0  0  0
 15 17  1  0  0  0  0
 18 15  1  0  0  0  0
 19 10  1  0  0  0  0
 19 22  1  0  0  0  0
 19 21  1  0  0  0  0
 20 19  1  0  0  0  0
M  END
