2
q = -1.0

 24 25  0  0  0  0  0  0  0  0999 V2000
    0.2519    2.2299   -2.7655 O   0  0  0  0  0  0  0  0  0  0  0  0
   -0.7297    1.5070   -0.8200 N   0  0  0  0  0  2  0  0  0  0  0  0
   -1.6858    3.4322   -2.0517 C   0  0  0  0  0  0  0  0  0  0  0  0
   -1.3156    4.1444   -2.8103 H   0  0  0  0  0  0  0  0  0  0  0  0
   -1.8985    3.9533   -1.0984 H   0  0  0  0  0  0  0  0  0  0  0  0
   -2.6469    3.0050   -2.4043 H   0  0  0  0  0  0  0  0  0  0  0  0
   -0.6587    2.3257   -1.8795 C   0  0  0  0  0  0  0  0  0  0  0  0
   -1.8273    1.5704    0.0729 C   0  0  0  0  0  0  0  0  0  0  0  0
   -1.6943    2.1896    1.3164 C   0  0  0  0  0  0  0  0  0  0  0  0
   -0.7468    2.6920    1.5556 H   0  0  0  0  0  0  0  0  0  0  0  0
   -2.7282    2.1359    2.2812 C   0  0  0  0  0  0  0  0  0  0  0  0
   -2.5771    2.6188    3.2583 H   0  0  0  0  0  0  0  0  0  0  0  0
   -3.9082    1.4587    2.0126 C   0  0  0  0  0  0  0  0  0  0  0  0
   -4.7076    1.3986    2.7669 H   0  0  0  0  0  0  0  0  0  0  0  0
   -4.1022    0.8264    0.7512 C   0  0  0  0  0  0  0  0  0  0  0  0
   -3.0562    0.8888   -0.2431 C   0  0  0  0  0  0  0  0  0  0  0  0
   -3.2721    0.2612   -1.5041 C   0  0  0  0  0  0  0  0  0  0  0  0
   -2.4730    0.3044   -2.2572 H   0  0  0  0  0  0  0  0  0  0  0  0
   -4.4549   -0.4099   -1.7767 C   0  0  0  0  0  0  0  0  0  0  0  0
   -4.5971   -0.8936   -2.7550 H   0  0  0  0  0  0  0  0  0  0  0  0
   -5.4792   -0.4852   -0.7953 C   0  0  0  0  0  0  0  0  0  0  0  0
   -6.4135   -1.0229   -1.0184 H   0  0  0  0  0  0  0  0  0  0  0  0
   -5.3035    0.1222    0.4388 C   0  0  0  0  0  0  0  0  0  0  0  0
   -6.0959    0.0734    1.2024 H   0  0  0  0  0  0  0  0  0  0  0  0
  1  7  2  0  0  0  0
  2  8  1  0  0  0  0
  3  7  1  0  0  0  0
  3  5  1  0  0  0  0
  4  3  1  0  0  0  0
  6  3  1  0  0  0  0
  7  2  1  0  0  0  0
  8  9  1  0  0  0  0
  9 10  1  0  0  0  0
  9 11  2  0  0  0  0
 11 12  1  0  0  0  0
 13 11  1  0  0  0  0
 13 14  1  0  0  0  0
 15 13  2  0  0  0  0
 16  8  2  0  0  0  0
 16 15  1  0  0  0  0
 17 16  1  0  0  0  0
 18 17  1  0  0  0  0
 19 17  2  0  0  0  0
 19 21  1  0  0  0  0
 20 19  1  0  0  0  0
 21 23  2  0  0  0  0
 22 21  1  0  0  0  0
 23 15  1  0  0  0  0
 23 24  1  0  0  0  0
M  END
