4
q = -1.0

  5  4  0  0  0  0  0  0  0  0999 V2000
    1.0161    1.4920   -0.0001 S   0  0  0  0  0  1  0  0  0  0  0  0
    2.5608   -0.8307    0.0001 S   0  0  0  0  0  0  0  0  0  0  0  0
    2.4959    0.7617    0.0002 N   0  0  0  0  0  2  0  0  0  0  0  0
    0.9449   -1.2736   -0.0003 N   0  0  0  0  0  2  0  0  0  0  0  0
    0.8457   -2.3048   -0.0002 H   0  0  0  0  0  0  0  0  0  0  0  0
  1  3  1  0  0  0  0
  2  3  1  0  0  0  0
  4  5  1  0  0  0  0
  4  2  1  0  0  0  0
M  END
