1
q = 0.0, confidence = 0.986

 36 39  0  0  1  0  0  0  0  0999 V2000
   -0.5692    0.0597   -0.7198 N   0  0  0  0  0  2  0  0  0  0  0  0
   -2.7630    0.9747   -0.6906 N   0  0  0  0  0  0  0  0  0  0  0  0
   -2.4512   -1.3748   -0.5028 N   0  0  0  0  0  0  0  0  0  0  0  0
    0.4879    2.5591   -0.9739 N   0  0  0  0  0  0  0  0  0  0  0  0
   -5.1096   -1.6957    0.0583 N   0  0  0  0  0  0  0  0  0  0  0  0
    0.9319   -2.1857   -1.4082 N   0  0  0  0  0  0  0  0  0  0  0  0
   -1.4340    1.0961   -0.7948 C   0  0  2  0  0  3  0  0  0  0  0  0
   -3.2232   -0.2752   -0.4643 C   0  0  0  0  0  0  0  0  0  0  0  0
   -1.1399   -1.1704   -0.6644 C   0  0  0  0  0  0  0  0  0  0  0  0
   -0.8597    2.4459   -1.0377 C   0  0  0  0  0  0  0  0  0  0  0  0
    1.0443    3.7522   -1.2383 C   0  0  0  0  0  0  0  0  0  0  0  0
    2.1411    3.8027   -1.1572 H   0  0  0  0  0  0  0  0  0  0  0  0
    0.2868    4.8860   -1.5739 C   0  0  0  0  0  0  0  0  0  0  0  0
    0.7949    5.8384   -1.7804 H   0  0  0  0  0  0  0  0  0  0  0  0
   -1.1084    4.7748   -1.6181 C   0  0  0  0  0  0  0  0  0  0  0  0
   -1.7350    5.6457   -1.8620 H   0  0  0  0  0  0  0  0  0  0  0  0
   -1.6952    3.5331   -1.3437 C   0  0  0  0  0  0  0  0  0  0  0  0
   -2.7816    3.3761   -1.3631 H   0  0  0  0  0  0  0  0  0  0  0  0
   -4.6735   -0.4403   -0.1649 C   0  0  0  0  0  0  0  0  0  0  0  0
   -6.4035   -1.8641    0.3439 C   0  0  0  0  0  0  0  0  0  0  0  0
   -6.7342   -2.9025    0.5252 H   0  0  0  0  0  0  0  0  0  0  0  0
   -7.3292   -0.8049    0.4200 C   0  0  0  0  0  0  0  0  0  0  0  0
   -8.3843   -1.0055    0.6588 H   0  0  0  0  0  0  0  0  0  0  0  0
   -6.8708    0.4988    0.1869 C   0  0  0  0  0  0  0  0  0  0  0  0
   -7.5585    1.3562    0.2387 H   0  0  0  0  0  0  0  0  0  0  0  0
   -5.5161    0.6905   -0.1111 C   0  0  0  0  0  0  0  0  0  0  0  0
   -5.0949    1.6874   -0.2976 H   0  0  0  0  0  0  0  0  0  0  0  0
   -0.2657   -2.3597   -0.7975 C   0  0  0  0  0  0  0  0  0  0  0  0
    1.7603   -3.2356   -1.5064 C   0  0  0  0  0  0  0  0  0  0  0  0
    2.7385   -3.0638   -1.9846 H   0  0  0  0  0  0  0  0  0  0  0  0
    1.4362   -4.5054   -0.9969 C   0  0  0  0  0  0  0  0  0  0  0  0
    2.1699   -5.3200   -1.0747 H   0  0  0  0  0  0  0  0  0  0  0  0
    0.1901   -4.6907   -0.3888 C   0  0  0  0  0  0  0  0  0  0  0  0
   -0.0937   -5.6676    0.0288 H   0  0  0  0  0  0  0  0  0  0  0  0
   -0.6879   -3.6015   -0.2928 C   0  0  0  0  0  0  0  0  0  0  0  0
   -1.6741   -3.6745    0.1830 H   0  0  0  0  0  0  0  0  0  0  0  0
  1  9  1  0  0  0  0
  2  8  2  0  0  0  0
  3  8  1  0  0  0  0
  5 20  1  0  0  0  0
  6 28  1  0  0  0  0
  7 10  1  6  0  0  0
  7  1  1  0  0  0  0
  7  2  1  0  0  0  0
  8 19  1  0  0  0  0
  9  3  2  0  0  0  0
 10  4  1  0  0  0  0
 11 12  1  0  0  0  0
 11  4  2  0  0  0  0
 13 11  1  0  0  0  0
 14 13  1  0  0  0  0
 15 13  2  0  0  0  0
 15 17  1  0  0  0  0
 16 15  1  0  0  0  0
 17 10  2  0  0  0  0
 18 17  1  0  0  0  0
 19 26  1  0  0  0  0
 19  5  2  0  0  0  0
 20 22  2  0  0  0  0
 20 21  1  0  0  0  0
 22 23  1  0  0  0  0
 24 25  1  0  0  0  0
 24 22  1  0  0  0  0
 26 24  2  0  0  0  0
 27 26  1  0  0  0  0
 28  9  1  0  0  0  0
 28 35  2  0  0  0  0
 29  6  2  0  0  0  0
 29 31  1  0  0  0  0
 30 29  1  0  0  0  0
 31 33  2  0  0  0  0
 32 31  1  0  0  0  0
 33 35  1  0  0  0  0
 33 34  1  0  0  0  0
 35 36  1  0  0  0  0
M  END
