1
q = 0.0, confidence = 0.976

 25 25  0  0  1  0  0  0  0  0999 V2000
   -1.8327   -0.8565    0.5623 N   0  0  0  0  0  2  0  0  0  0  0  0
   -2.5750   -0.1617    0.3725 H   0  0  0  0  0  0  0  0  0  0  0  0
   -2.2565   -2.0728    0.5344 C   0  0  2  0  0  3  0  0  0  0  0  0
   -1.4537   -3.3058    0.7184 C   0  0  0  0  0  0  0  0  0  0  0  0
   -2.1146   -4.1854    0.8061 H   0  0  0  0  0  0  0  0  0  0  0  0
   -0.7993   -3.1826    1.6040 H   0  0  0  0  0  0  0  0  0  0  0  0
   -0.7726   -3.4067   -0.1522 H   0  0  0  0  0  0  0  0  0  0  0  0
   -3.5770   -2.3370    0.2959 O   0  0  0  0  0  0  0  0  0  0  0  0
   -4.2982   -1.1878   -0.0122 N   0  0  0  0  0  0  0  0  0  0  0  0
   -5.5521   -1.3856   -0.2466 C   0  0  0  0  0  0  0  0  0  0  0  0
   -6.2875   -2.9646   -0.1023 Cl  0  0  0  0  0  0  0  0  0  0  0  0
   -6.3912   -0.2478   -0.6619 C   0  0  0  0  0  0  0  0  0  0  0  0
   -7.7982   -0.3315   -0.6756 C   0  0  0  0  0  0  0  0  0  0  0  0
   -8.2877   -1.2704   -0.3815 H   0  0  0  0  0  0  0  0  0  0  0  0
   -8.5684    0.7738   -1.0560 C   0  0  0  0  0  0  0  0  0  0  0  0
   -9.6663    0.6906   -1.0572 H   0  0  0  0  0  0  0  0  0  0  0  0
   -7.9667    1.9892   -1.4361 C   0  0  0  0  0  0  0  0  0  0  0  0
   -6.5543    2.0602   -1.4257 C   0  0  0  0  0  0  0  0  0  0  0  0
   -6.0569    2.9952   -1.7276 H   0  0  0  0  0  0  0  0  0  0  0  0
   -5.7734    0.9683   -1.0491 C   0  0  0  0  0  0  0  0  0  0  0  0
   -4.6762    1.0407   -1.0612 H   0  0  0  0  0  0  0  0  0  0  0  0
   -8.7894    3.1804   -1.8487 C   0  0  0  0  0  0  0  0  0  0  0  0
   -9.8743    2.9669   -1.8049 H   0  0  0  0  0  0  0  0  0  0  0  0
   -8.5432    3.4963   -2.8839 H   0  0  0  0  0  0  0  0  0  0  0  0
   -8.5842    4.0526   -1.1933 H   0  0  0  0  0  0  0  0  0  0  0  0
  2  1  1  0  0  0  0
  3  8  1  6  0  0  0
  3  1  1  0  0  0  0
  3  4  1  0  0  0  0
  4  5  1  0  0  0  0
  4  6  1  0  0  0  0
  7  4  1  0  0  0  0
  9  8  1  0  0  0  0
 10 11  1  0  0  0  0
 10  9  2  0  0  0  0
 12 10  1  0  0  0  0
 13 12  1  0  0  0  0
 13 14  1  0  0  0  0
 15 13  2  0  0  0  0
 16 15  1  0  0  0  0
 17 18  2  0  0  0  0
 17 15  1  0  0  0  0
 18 20  1  0  0  0  0
 19 18  1  0  0  0  0
 20 12  2  0  0  0  0
 21 20  1  0  0  0  0
 22 23  1  0  0  0  0
 22 17  1  0  0  0  0
 22 25  1  0  0  0  0
 24 22  1  0  0  0  0
M  END
