1
q = 0.0, confidence = 1.0

 32 33  0  0  1  0  0  0  0  0999 V2000
   -1.9403    1.8093   -0.7324 N   0  0  0  0  0  2  0  0  0  0  0  0
   -8.9721   -1.2654    0.4523 O   0  0  0  0  0  0  0  0  0  0  0  0
   -2.9715    1.0742   -0.2449 N   0  0  0  0  0  0  0  0  0  0  0  0
   -2.8091    0.3855    0.4897 H   0  0  0  0  0  0  0  0  0  0  0  0
   -4.1440    1.3147   -0.9032 C   0  0  2  0  0  3  0  0  0  0  0  0
   -3.8309    2.2782   -1.8837 C   0  0  0  0  0  0  0  0  0  0  0  0
   -4.5247    2.7413   -2.5907 H   0  0  0  0  0  0  0  0  0  0  0  0
   -2.4637    2.5504   -1.7349 C   0  0  0  0  0  0  0  0  0  0  0  0
   -1.8295    3.2506   -2.2904 H   0  0  0  0  0  0  0  0  0  0  0  0
   -5.3980    0.6522   -0.5619 C   0  0  0  0  0  0  0  0  0  0  0  0
   -5.6005    0.0432    0.7033 C   0  0  0  0  0  0  0  0  0  0  0  0
   -4.8208    0.0920    1.4799 H   0  0  0  0  0  0  0  0  0  0  0  0
   -6.7994   -0.5900    1.0113 C   0  0  0  0  0  0  0  0  0  0  0  0
   -6.9662   -1.0539    1.9937 H   0  0  0  0  0  0  0  0  0  0  0  0
   -7.8513   -0.6341    0.0626 C   0  0  0  0  0  0  0  0  0  0  0  0
   -7.6664   -0.0227   -1.2001 C   0  0  0  0  0  0  0  0  0  0  0  0
   -8.4612   -0.0414   -1.9564 H   0  0  0  0  0  0  0  0  0  0  0  0
   -6.4550    0.6073   -1.4974 C   0  0  0  0  0  0  0  0  0  0  0  0
   -6.3223    1.0587   -2.4917 H   0  0  0  0  0  0  0  0  0  0  0  0
  -10.0937   -1.3460   -0.4433 C   0  0  0  0  0  0  0  0  0  0  0  0
   -9.7753   -1.8512   -1.3843 H   0  0  0  0  0  0  0  0  0  0  0  0
  -10.4311   -0.3171   -0.7011 H   0  0  0  0  0  0  0  0  0  0  0  0
  -11.1968   -2.1305    0.2454 C   0  0  0  0  0  0  0  0  0  0  0  0
  -11.4760   -1.6024    1.1830 H   0  0  0  0  0  0  0  0  0  0  0  0
  -12.0934   -2.0895   -0.4106 H   0  0  0  0  0  0  0  0  0  0  0  0
  -10.8318   -3.5871    0.5496 C   0  0  0  0  0  0  0  0  0  0  0  0
   -9.9101   -3.6018    1.1695 H   0  0  0  0  0  0  0  0  0  0  0  0
  -10.5675   -4.1006   -0.4019 H   0  0  0  0  0  0  0  0  0  0  0  0
  -11.9514   -4.3488    1.2580 C   0  0  0  0  0  0  0  0  0  0  0  0
  -12.2098   -3.8756    2.2281 H   0  0  0  0  0  0  0  0  0  0  0  0
  -11.6617   -5.3980    1.4654 H   0  0  0  0  0  0  0  0  0  0  0  0
  -12.8768   -4.3725    0.6457 H   0  0  0  0  0  0  0  0  0  0  0  0
  1  3  1  0  0  0  0
  3  4  1  0  0  0  0
  5 10  1  1  0  0  0
  5  3  1  0  0  0  0
  6  8  2  0  0  0  0
  6  5  1  0  0  0  0
  7  6  1  0  0  0  0
  8  1  1  0  0  0  0
  9  8  1  0  0  0  0
 10 11  1  0  0  0  0
 11 13  2  0  0  0  0
 11 12  1  0  0  0  0
 13 14  1  0  0  0  0
 15  2  1  0  0  0  0
 15 13  1  0  0  0  0
 16 15  2  0  0  0  0
 17 16  1  0  0  0  0
 18 16  1  0  0  0  0
 18 10  2  0  0  0  0
 19 18  1  0  0  0  0
 20 23  1  0  0  0  0
 20  2  1  0  0  0  0
 21 20  1  0  0  0  0
 22 20  1  0  0  0  0
 23 26  1  0  0  0  0
 23 24  1  0  0  0  0
 25 23  1  0  0  0  0
 26 27  1  0  0  0  0
 26 29  1  0  0  0  0
 28 26  1  0  0  0  0
 29 31  1  0  0  0  0
 29 30  1  0  0  0  0
 32 29  1  0  0  0  0
M  END
