1
q = 0.0, confidence = 0.916

  9  8  0  0  0  0  0  0  0  0999 V2000
    1.1064   -0.6196   -1.6412 N   0  0  0  0  0  0  0  0  0  0  0  0
    1.5207   -1.8218   -2.3812 C   0  0  0  0  0  0  0  0  0  0  0  0
    0.6135   -2.3172   -2.7830 H   0  0  0  0  0  0  0  0  0  0  0  0
    1.9886   -2.5406   -1.6778 H   0  0  0  0  0  0  0  0  0  0  0  0
    2.4544   -1.5201   -3.4656 C   0  0  0  0  0  0  0  0  0  0  0  0
    3.2448   -1.2416   -4.3557 C   0  0  0  0  0  0  0  0  0  0  0  0
    3.9344   -0.9991   -5.1519 H   0  0  0  0  0  0  0  0  0  0  0  0
    1.9333   -0.1030   -1.3007 H   0  0  0  0  0  0  0  0  0  0  0  0
    0.5381    0.0411   -2.2460 H   0  0  0  0  0  0  0  0  0  0  0  0
  1  8  1  0  0  0  0
  2  4  1  0  0  0  0
  2  1  1  0  0  0  0
  3  2  1  0  0  0  0
  5  2  1  0  0  0  0
  6  5  3  0  0  0  0
  7  6  1  0  0  0  0
  9  1  1  0  0  0  0
M  END
