1
q = 0.0, confidence = 1.0

 28 29  0  0  0  0  0  0  0  0999 V2000
    1.2774   -0.7651    0.9965 N   0  0  0  0  0  2  0  0  0  0  0  0
    3.4719   -0.5969    0.7718 N   0  0  0  0  0  0  0  0  0  0  0  0
    2.2584   -0.2583    0.2503 C   0  0  0  0  0  3  0  0  0  0  0  0
    2.1248    0.3170   -0.6718 H   0  0  0  0  0  0  0  0  0  0  0  0
    1.8686   -1.4502    2.0405 C   0  0  0  0  0  0  0  0  0  0  0  0
    1.2567   -1.9357    2.8083 H   0  0  0  0  0  0  0  0  0  0  0  0
    3.2403   -1.3589    1.9116 C   0  0  0  0  0  0  0  0  0  0  0  0
    4.0644   -1.7659    2.5047 H   0  0  0  0  0  0  0  0  0  0  0  0
    4.7441   -0.2818    0.1870 C   0  0  0  0  0  0  0  0  0  0  0  0
    5.1402   -0.9806   -0.9779 C   0  0  0  0  0  0  0  0  0  0  0  0
    6.3862   -0.6543   -1.5384 C   0  0  0  0  0  0  0  0  0  0  0  0
    6.7140   -1.1905   -2.4436 H   0  0  0  0  0  0  0  0  0  0  0  0
    7.2242    0.3289   -0.9764 C   0  0  0  0  0  0  0  0  0  0  0  0
    6.7877    0.9970    0.1813 C   0  0  0  0  0  0  0  0  0  0  0  0
    7.4283    1.7726    0.6307 H   0  0  0  0  0  0  0  0  0  0  0  0
    5.5481    0.7126    0.7836 C   0  0  0  0  0  0  0  0  0  0  0  0
    4.2555   -2.0383   -1.5875 C   0  0  0  0  0  0  0  0  0  0  0  0
    3.9075   -2.7639   -0.8241 H   0  0  0  0  0  0  0  0  0  0  0  0
    4.7922   -2.5949   -2.3783 H   0  0  0  0  0  0  0  0  0  0  0  0
    3.3386   -1.6050   -2.0397 H   0  0  0  0  0  0  0  0  0  0  0  0
    8.5494    0.6584   -1.6160 C   0  0  0  0  0  0  0  0  0  0  0  0
    8.4061    1.1150   -2.6180 H   0  0  0  0  0  0  0  0  0  0  0  0
    9.1630   -0.2537   -1.7653 H   0  0  0  0  0  0  0  0  0  0  0  0
    9.1357    1.3692   -1.0027 H   0  0  0  0  0  0  0  0  0  0  0  0
    5.0900    1.4464    2.0177 C   0  0  0  0  0  0  0  0  0  0  0  0
    5.7300    2.3265    2.2162 H   0  0  0  0  0  0  0  0  0  0  0  0
    5.1231    0.7968    2.9173 H   0  0  0  0  0  0  0  0  0  0  0  0
    4.0404    1.7906    1.9205 H   0  0  0  0  0  0  0  0  0  0  0  0
  1  5  1  0  0  0  0
  2  7  1  0  0  0  0
  3  2  1  0  0  0  0
  3  1  1  0  0  0  0
  4  3  1  0  0  0  0
  5  6  1  0  0  0  0
  7  5  2  0  0  0  0
  7  8  1  0  0  0  0
  9  2  1  0  0  0  0
  9 16  1  0  0  0  0
 10  9  2  0  0  0  0
 11 10  1  0  0  0  0
 11 13  2  0  0  0  0
 12 11  1  0  0  0  0
 13 14  1  0  0  0  0
 14 15  1  0  0  0  0
 14 16  2  0  0  0  0
 16 25  1  0  0  0  0
 17 10  1  0  0  0  0
 17 18  1  0  0  0  0
 19 17  1  0  0  0  0
 20 17  1  0  0  0  0
 21 24  1  0  0  0  0
 21 13  1  0  0  0  0
 22 21  1  0  0  0  0
 23 21  1  0  0  0  0
 25 26  1  0  0  0  0
 25 27  1  0  0  0  0
 28 25  1  0  0  0  0
M  END
