3
q = -1.0

 13 13  0  0  0  0  0  0  0  0999 V2000
    1.5705    2.3082   -0.0800 O   0  0  0  0  0  0  0  0  0  0  0  0
    1.5970   -2.2966   -0.2134 O   0  0  0  0  0  0  0  0  0  0  0  0
    1.4940    0.0112   -0.0867 N   0  0  0  0  0  2  0  0  0  0  0  0
    3.5709   -1.1818   -0.0767 N   0  0  0  0  0  0  0  0  0  0  0  0
    3.9467   -2.1093    0.1250 H   0  0  0  0  0  0  0  0  0  0  0  0
    2.1522    1.2174   -0.1230 C   0  0  0  0  0  0  0  0  0  0  0  0
    3.6809    1.1947   -0.2707 C   0  0  0  0  0  0  0  0  0  0  0  0
    4.0691    2.1486    0.1326 H   0  0  0  0  0  0  0  0  0  0  0  0
    3.9150    1.1608   -1.3577 H   0  0  0  0  0  0  0  0  0  0  0  0
    4.2821   -0.0215    0.4154 C   0  0  0  0  0  0  0  0  0  0  0  0
    5.3637   -0.1251    0.1825 H   0  0  0  0  0  0  0  0  0  0  0  0
    4.1961    0.0949    1.5270 H   0  0  0  0  0  0  0  0  0  0  0  0
    2.1714   -1.2052   -0.1282 C   0  0  0  0  0  0  0  0  0  0  0  0
  2 13  2  0  0  0  0
  4  5  1  0  0  0  0
  4 10  1  0  0  0  0
  6  3  1  0  0  0  0
  6  1  2  0  0  0  0
  7  6  1  0  0  0  0
  7  8  1  0  0  0  0
  7 10  1  0  0  0  0
  9  7  1  0  0  0  0
 10 12  1  0  0  0  0
 11 10  1  0  0  0  0
 13  3  1  0  0  0  0
 13  4  1  0  0  0  0
M  END
