3
q = -1.0

 17 18  0  0  0  0  0  0  0  0999 V2000
   -3.3474    1.6674    0.7583 S   0  0  0  0  0  0  0  0  0  0  0  0
   -3.8115   -0.8978   -0.2376 N   0  0  0  0  0  0  0  0  0  0  0  0
   -1.7230   -0.3542   -0.1722 N   0  0  0  0  0  2  0  0  0  0  0  0
   -3.0685   -1.9550   -0.7089 N   0  0  0  0  0  0  0  0  0  0  0  0
   -5.2245   -1.0343   -0.1400 C   0  0  0  0  0  0  0  0  0  0  0  0
   -2.9677    0.1456    0.1129 C   0  0  0  0  0  0  0  0  0  0  0  0
   -7.4548   -0.0907   -0.0962 C   0  0  0  0  0  0  0  0  0  0  0  0
   -8.1134    0.7902   -0.1312 H   0  0  0  0  0  0  0  0  0  0  0  0
   -6.0674    0.0912   -0.1883 C   0  0  0  0  0  0  0  0  0  0  0  0
   -5.6297    1.0934   -0.2829 H   0  0  0  0  0  0  0  0  0  0  0  0
   -1.8359   -1.6119   -0.6612 N   0  0  0  0  0  0  0  0  0  0  0  0
   -5.7641   -2.3302   -0.0132 C   0  0  0  0  0  0  0  0  0  0  0  0
   -5.0859   -3.1929    0.0124 H   0  0  0  0  0  0  0  0  0  0  0  0
   -8.0033   -1.3754    0.0329 C   0  0  0  0  0  0  0  0  0  0  0  0
   -9.0932   -1.5080    0.1049 H   0  0  0  0  0  0  0  0  0  0  0  0
   -7.1520   -2.4922    0.0691 C   0  0  0  0  0  0  0  0  0  0  0  0
   -7.5711   -3.5047    0.1688 H   0  0  0  0  0  0  0  0  0  0  0  0
  2  5  1  0  0  0  0
  2  6  1  0  0  0  0
  3  6  1  0  0  0  0
  4 11  2  0  0  0  0
  4  2  1  0  0  0  0
  5 12  1  0  0  0  0
  6  1  2  0  0  0  0
  7 14  2  0  0  0  0
  8  7  1  0  0  0  0
  9  5  2  0  0  0  0
  9  7  1  0  0  0  0
 10  9  1  0  0  0  0
 11  3  1  0  0  0  0
 12 13  1  0  0  0  0
 12 16  2  0  0  0  0
 14 16  1  0  0  0  0
 14 15  1  0  0  0  0
 16 17  1  0  0  0  0
M  END
