1
q = 0.0, confidence = 1.0

 20 21  0  0  1  0  0  0  0  0999 V2000
    0.1797   -0.7640    1.4596 N   0  0  0  0  0  2  0  0  0  0  0  0
   -0.5316   -0.6933    2.6215 N   0  0  0  0  0  0  0  0  0  0  0  0
    0.2492   -0.3993    3.6024 N   0  0  0  0  0  0  0  0  0  0  0  0
    1.4973   -0.2706    3.0970 N   0  0  0  0  0  0  0  0  0  0  0  0
    2.6265    0.0326    3.9642 C   0  0  0  0  0  0  0  0  0  0  0  0
    2.4618   -0.4738    4.9318 H   0  0  0  0  0  0  0  0  0  0  0  0
    2.7048    1.1244    4.1302 H   0  0  0  0  0  0  0  0  0  0  0  0
    3.5526   -0.3391    3.4908 H   0  0  0  0  0  0  0  0  0  0  0  0
    1.4640   -0.4934    1.7556 C   0  0  2  0  0  3  0  0  0  0  0  0
    2.6231   -0.4321    0.8556 C   0  0  0  0  0  0  0  0  0  0  0  0
    3.3636    0.7661    0.7462 C   0  0  0  0  0  0  0  0  0  0  0  0
    3.0617    1.6548    1.3211 H   0  0  0  0  0  0  0  0  0  0  0  0
    4.4664    0.8284   -0.1158 C   0  0  0  0  0  0  0  0  0  0  0  0
    5.0390    1.7637   -0.2024 H   0  0  0  0  0  0  0  0  0  0  0  0
    4.8396   -0.2999   -0.8649 C   0  0  0  0  0  0  0  0  0  0  0  0
    5.7106   -0.2504   -1.5355 H   0  0  0  0  0  0  0  0  0  0  0  0
    4.1102   -1.4949   -0.7502 C   0  0  0  0  0  0  0  0  0  0  0  0
    4.4074   -2.3839   -1.3259 H   0  0  0  0  0  0  0  0  0  0  0  0
    3.0046   -1.5671    0.1083 C   0  0  0  0  0  0  0  0  0  0  0  0
    2.4453   -2.5068    0.2092 H   0  0  0  0  0  0  0  0  0  0  0  0
  1  9  1  0  0  0  0
  1  2  1  0  0  0  0
  2  3  2  0  0  0  0
  4  3  1  0  0  0  0
  4  5  1  0  0  0  0
  5  7  1  0  0  0  0
  5  6  1  0  0  0  0
  8  5  1  0  0  0  0
  9 10  1  6  0  0  0
  9  4  1  0  0  0  0
 11 10  1  0  0  0  0
 11 12  1  0  0  0  0
 13 11  2  0  0  0  0
 14 13  1  0  0  0  0
 15 17  2  0  0  0  0
 15 13  1  0  0  0  0
 16 15  1  0  0  0  0
 17 19  1  0  0  0  0
 18 17  1  0  0  0  0
 19 20  1  0  0  0  0
 19 10  2  0  0  0  0
M  END
