5
q = 0.0, confidence = 1.0

 60 63  0  0  1  0  0  0  0  0999 V2000
    0.7061   -0.2722    2.4753 P   0  0  1  0  0  0  0  0  0  0  0  0
    1.5471    0.2379   -0.4063 P   0  0  0  0  0  0  0  0  0  0  0  0
    1.8770    0.2315    1.3039 N   0  0  0  0  0  0  0  0  0  0  0  0
   -0.7010    0.7538    2.0611 N   0  0  0  0  0  0  0  0  0  0  0  0
   -1.2034    0.8271    0.7855 N   0  0  0  0  0  2  0  0  0  0  0  0
   -2.6995    2.3133   -0.5230 C   0  0  0  0  0  0  0  0  0  0  0  0
   -2.3003    1.7483   -1.3859 H   0  0  0  0  0  0  0  0  0  0  0  0
   -2.5407    3.3944   -0.7054 H   0  0  0  0  0  0  0  0  0  0  0  0
   -3.7922    2.1342   -0.4670 H   0  0  0  0  0  0  0  0  0  0  0  0
   -2.0152    1.8977    0.7338 C   0  0  2  0  0  3  0  0  0  0  0  0
   -2.0507    2.5176    2.0122 C   0  0  0  0  0  0  0  0  0  0  0  0
   -2.6322    3.4000    2.2985 H   0  0  0  0  0  0  0  0  0  0  0  0
   -1.2015    1.7835    2.8343 C   0  0  0  0  0  0  0  0  0  0  0  0
   -0.8311    1.9725    4.2677 C   0  0  0  0  0  0  0  0  0  0  0  0
   -1.0570    1.0715    4.8728 H   0  0  0  0  0  0  0  0  0  0  0  0
   -1.3954    2.8232    4.6910 H   0  0  0  0  0  0  0  0  0  0  0  0
    0.2515    2.1829    4.3882 H   0  0  0  0  0  0  0  0  0  0  0  0
    0.0643   -1.8622    1.8120 C   0  0  0  0  0  0  0  0  0  0  0  0
    0.9798   -2.8266    1.3338 C   0  0  0  0  0  0  0  0  0  0  0  0
    2.0414   -2.5601    1.2212 H   0  0  0  0  0  0  0  0  0  0  0  0
    0.5389   -4.1127    0.9928 C   0  0  0  0  0  0  0  0  0  0  0  0
    1.2583   -4.8523    0.6097 H   0  0  0  0  0  0  0  0  0  0  0  0
   -0.8129   -4.4626    1.1541 C   0  0  0  0  0  0  0  0  0  0  0  0
   -1.1563   -5.4745    0.8925 H   0  0  0  0  0  0  0  0  0  0  0  0
   -1.7194   -3.5240    1.6747 C   0  0  0  0  0  0  0  0  0  0  0  0
   -2.7742   -3.8009    1.8238 H   0  0  0  0  0  0  0  0  0  0  0  0
   -1.2860   -2.2318    2.0076 C   0  0  0  0  0  0  0  0  0  0  0  0
   -2.0020   -1.4995    2.4109 H   0  0  0  0  0  0  0  0  0  0  0  0
    3.2144    0.6997    1.8020 C   0  0  0  0  0  0  0  0  0  0  0  0
    3.6653    1.2467    0.9474 H   0  0  0  0  0  0  0  0  0  0  0  0
    3.0980    1.6904    2.9635 C   0  0  0  0  0  0  0  0  0  0  0  0
    2.4582    2.5550    2.6999 H   0  0  0  0  0  0  0  0  0  0  0  0
    4.1024    2.0795    3.2227 H   0  0  0  0  0  0  0  0  0  0  0  0
    2.6845    1.2056    3.8708 H   0  0  0  0  0  0  0  0  0  0  0  0
    4.1074   -0.4938    2.1457 C   0  0  0  0  0  0  0  0  0  0  0  0
    4.2302   -1.1650    1.2734 H   0  0  0  0  0  0  0  0  0  0  0  0
    3.6691   -1.0784    2.9820 H   0  0  0  0  0  0  0  0  0  0  0  0
    5.1139   -0.1554    2.4627 H   0  0  0  0  0  0  0  0  0  0  0  0
    1.5626    1.9987   -0.9058 C   0  0  0  0  0  0  0  0  0  0  0  0
    1.1866    2.9975    0.0146 C   0  0  0  0  0  0  0  0  0  0  0  0
    0.9992    2.7314    1.0645 H   0  0  0  0  0  0  0  0  0  0  0  0
    1.0405    4.3265   -0.4085 C   0  0  0  0  0  0  0  0  0  0  0  0
    0.7531    5.1005    0.3190 H   0  0  0  0  0  0  0  0  0  0  0  0
    1.2588    4.6671   -1.7528 C   0  0  0  0  0  0  0  0  0  0  0  0
    1.1456    5.7104   -2.0832 H   0  0  0  0  0  0  0  0  0  0  0  0
    1.6211    3.6727   -2.6767 C   0  0  0  0  0  0  0  0  0  0  0  0
    1.7905    3.9348   -3.7318 H   0  0  0  0  0  0  0  0  0  0  0  0
    1.7683    2.3420   -2.2603 C   0  0  0  0  0  0  0  0  0  0  0  0
    2.0437    1.5679   -2.9931 H   0  0  0  0  0  0  0  0  0  0  0  0
    3.0165   -0.5148   -1.2018 C   0  0  0  0  0  0  0  0  0  0  0  0
    4.1688    0.2413   -1.5091 C   0  0  0  0  0  0  0  0  0  0  0  0
    4.1802    1.3287   -1.3415 H   0  0  0  0  0  0  0  0  0  0  0  0
    5.3032   -0.3906   -2.0395 C   0  0  0  0  0  0  0  0  0  0  0  0
    6.1974    0.2051   -2.2760 H   0  0  0  0  0  0  0  0  0  0  0  0
    5.2979   -1.7756   -2.2697 C   0  0  0  0  0  0  0  0  0  0  0  0
    6.1893   -2.2674   -2.6868 H   0  0  0  0  0  0  0  0  0  0  0  0
    4.1512   -2.5313   -1.9754 C   0  0  0  0  0  0  0  0  0  0  0  0
    4.1407   -3.6152   -2.1643 H   0  0  0  0  0  0  0  0  0  0  0  0
    3.0141   -1.9047   -1.4466 C   0  0  0  0  0  0  0  0  0  0  0  0
    2.1165   -2.4955   -1.2164 H   0  0  0  0  0  0  0  0  0  0  0  0
  1  3  1  6  0  0  0
  2  3  1  0  0  0  0
  3 29  1  0  0  0  0
  4  1  1  0  0  0  0
  4 13  1  0  0  0  0
  5  4  1  0  0  0  0
  6  9  1  0  0  0  0
  7  6  1  0  0  0  0
  8  6  1  0  0  0  0
 10  6  1  6  0  0  0
 10  5  1  0  0  0  0
 10 11  1  0  0  0  0
 11 12  1  0  0  0  0
 11 13  2  0  0  0  0
 13 14  1  0  0  0  0
 14 17  1  0  0  0  0
 14 16  1  0  0  0  0
 14 15  1  0  0  0  0
 18 27  1  0  0  0  0
 18  1  1  0  0  0  0
 19 18  2  0  0  0  0
 20 19  1  0  0  0  0
 21 23  2  0  0  0  0
 21 19  1  0  0  0  0
 22 21  1  0  0  0  0
 23 25  1  0  0  0  0
 24 23  1  0  0  0  0
 25 26  1  0  0  0  0
 25 27  2  0  0  0  0
 27 28  1  0  0  0  0
 29 35  1  0  0  0  0
 29 31  1  0  0  0  0
 30 29  1  0  0  0  0
 31 33  1  0  0  0  0
 31 34  1  0  0  0  0
 32 31  1  0  0  0  0
 35 38  1  0  0  0  0
 35 37  1  0  0  0  0
 36 35  1  0  0  0  0
 39  2  1  0  0  0  0
 39 40  1  0  0  0  0
 40 41  1  0  0  0  0
 42 40  2  0  0  0  0
 42 43  1  0  0  0  0
 44 42  1  0  0  0  0
 45 44  1  0  0  0  0
 46 48  1  0  0  0  0
 46 44  2  0  0  0  0
 47 46  1  0  0  0  0
 48 39  2  0  0  0  0
 49 48  1  0  0  0  0
 50  2  1  0  0  0  0
 51 52  1  0  0  0  0
 51 50  2  0  0  0  0
 53 51  1  0  0  0  0
 54 53  1  0  0  0  0
 55 53  2  0  0  0  0
 55 57  1  0  0  0  0
 56 55  1  0  0  0  0
 57 59  2  0  0  0  0
 58 57  1  0  0  0  0
 59 60  1  0  0  0  0
 59 50  1  0  0  0  0
M  END
