1
q = 0.0, confidence = 0.988

 22 22  0  0  0  0  0  0  0  0999 V2000
   -0.2438   -0.2246    0.0006 N   0  0  0  0  0  2  0  0  0  0  0  0
    0.5888    0.8527    0.0008 C   0  0  0  0  0  3  0  0  0  0  0  0
    0.1002    1.8377    0.0011 H   0  0  0  0  0  0  0  0  0  0  0  0
    1.9767    0.7561    0.0008 C   0  0  0  0  0  0  0  0  0  0  0  0
    2.5679    1.6806    0.0010 H   0  0  0  0  0  0  0  0  0  0  0  0
    2.5944   -0.5216    0.0005 C   0  0  0  0  0  0  0  0  0  0  0  0
    1.7184   -1.6371    0.0003 C   0  0  0  0  0  0  0  0  0  0  0  0
    2.1230   -2.6598    0.0001 H   0  0  0  0  0  0  0  0  0  0  0  0
    0.3396   -1.4528    0.0003 C   0  0  0  0  0  0  0  0  0  0  0  0
   -0.3445   -2.3136    0.0002 H   0  0  0  0  0  0  0  0  0  0  0  0
    4.0235   -0.7721    0.0003 C   0  0  0  0  0  0  0  0  0  0  0  0
    4.3321   -1.8319    0.0003 H   0  0  0  0  0  0  0  0  0  0  0  0
    5.0869    0.0968    0.0001 C   0  0  0  0  0  0  0  0  0  0  0  0
    4.9783    1.5190    0.0001 C   0  0  0  0  0  0  0  0  0  0  0  0
    4.8720    2.6901    0.0000 N   0  0  0  0  0  0  0  0  0  0  0  0
    6.4632   -0.5160   -0.0001 C   0  0  0  0  0  0  0  0  0  0  0  0
    6.6781   -1.7144    0.0000 O   0  0  0  0  0  0  0  0  0  0  0  0
    7.4144    0.4362   -0.0003 O   0  0  0  0  0  0  0  0  0  0  0  0
    8.7684   -0.0381   -0.0004 C   0  0  0  0  0  0  0  0  0  0  0  0
    8.9649   -0.6558    0.8986 H   0  0  0  0  0  0  0  0  0  0  0  0
    9.4052    0.8633    0.0000 H   0  0  0  0  0  0  0  0  0  0  0  0
    8.9650   -0.6550   -0.8999 H   0  0  0  0  0  0  0  0  0  0  0  0
  1  2  1  0  0  0  0
  2  3  1  0  0  0  0
  4  2  1  0  0  0  0
  4  5  1  0  0  0  0
  6  4  2  0  0  0  0
  7  9  2  0  0  0  0
  7  6  1  0  0  0  0
  8  7  1  0  0  0  0
  9  1  1  0  0  0  0
 10  9  1  0  0  0  0
 11  6  1  0  0  0  0
 12 11  1  0  0  0  0
 13 11  2  0  0  0  0
 14 13  1  0  0  0  0
 15 14  3  0  0  0  0
 16 17  2  0  0  0  0
 16 13  1  0  0  0  0
 18 16  1  0  0  0  0
 19 18  1  0  0  0  0
 19 21  1  0  0  0  0
 19 20  1  0  0  0  0
 22 19  1  0  0  0  0
M  END
