1
q = -1.0

 29 30  0  0  0  0  0  0  0  0999 V2000
    0.4486   -0.0537    0.2752 N   0  0  0  0  0  2  0  0  0  0  0  0
    1.2268   -0.5221   -0.8779 C   0  0  0  0  0  0  0  0  0  0  0  0
    1.7318    0.3239   -1.4041 H   0  0  0  0  0  0  0  0  0  0  0  0
    0.5323   -0.9851   -1.6105 H   0  0  0  0  0  0  0  0  0  0  0  0
    2.2687   -1.5687   -0.5130 C   0  0  0  0  0  0  0  0  0  0  0  0
    1.8941   -2.7251    0.2018 C   0  0  0  0  0  0  0  0  0  0  0  0
    0.8367   -2.8631    0.4752 H   0  0  0  0  0  0  0  0  0  0  0  0
    2.8525   -3.6894    0.5427 C   0  0  0  0  0  0  0  0  0  0  0  0
    2.5467   -4.5914    1.0951 H   0  0  0  0  0  0  0  0  0  0  0  0
    4.1983   -3.5133    0.1769 C   0  0  0  0  0  0  0  0  0  0  0  0
    4.9493   -4.2713    0.4474 H   0  0  0  0  0  0  0  0  0  0  0  0
    4.5788   -2.3668   -0.5360 C   0  0  0  0  0  0  0  0  0  0  0  0
    5.6306   -2.2196   -0.8261 H   0  0  0  0  0  0  0  0  0  0  0  0
    3.6175   -1.4001   -0.8756 C   0  0  0  0  0  0  0  0  0  0  0  0
    3.9164   -0.4954   -1.4294 H   0  0  0  0  0  0  0  0  0  0  0  0
    1.3077    0.5774    1.2709 C   0  0  0  0  0  0  0  0  0  0  0  0
    2.1320   -0.1149    1.5590 H   0  0  0  0  0  0  0  0  0  0  0  0
    0.7263    0.7718    2.1911 H   0  0  0  0  0  0  0  0  0  0  0  0
    1.9171    1.8853    0.7866 C   0  0  0  0  0  0  0  0  0  0  0  0
    3.3005    2.0071    0.5595 C   0  0  0  0  0  0  0  0  0  0  0  0
    3.9540    1.1439    0.7634 H   0  0  0  0  0  0  0  0  0  0  0  0
    3.8476    3.2074    0.0754 C   0  0  0  0  0  0  0  0  0  0  0  0
    4.9320    3.2843   -0.0980 H   0  0  0  0  0  0  0  0  0  0  0  0
    3.0142    4.3040   -0.1904 C   0  0  0  0  0  0  0  0  0  0  0  0
    3.4403    5.2444   -0.5718 H   0  0  0  0  0  0  0  0  0  0  0  0
    1.6308    4.1956    0.0344 C   0  0  0  0  0  0  0  0  0  0  0  0
    0.9712    5.0542   -0.1657 H   0  0  0  0  0  0  0  0  0  0  0  0
    1.0908    2.9951    0.5163 C   0  0  0  0  0  0  0  0  0  0  0  0
    0.0056    2.9079    0.6842 H   0  0  0  0  0  0  0  0  0  0  0  0
  1 16  1  0  0  0  0
  2  5  1  0  0  0  0
  2  1  1  0  0  0  0
  3  2  1  0  0  0  0
  4  2  1  0  0  0  0
  5  6  1  0  0  0  0
  6  7  1  0  0  0  0
  6  8  2  0  0  0  0
  8  9  1  0  0  0  0
 10 11  1  0  0  0  0
 10  8  1  0  0  0  0
 12 10  2  0  0  0  0
 13 12  1  0  0  0  0
 14 12  1  0  0  0  0
 14  5  2  0  0  0  0
 15 14  1  0  0  0  0
 16 17  1  0  0  0  0
 16 18  1  0  0  0  0
 19 16  1  0  0  0  0
 20 21  1  0  0  0  0
 20 19  1  0  0  0  0
 22 20  2  0  0  0  0
 23 22  1  0  0  0  0
 24 26  2  0  0  0  0
 24 22  1  0  0  0  0
 25 24  1  0  0  0  0
 26 28  1  0  0  0  0
 27 26  1  0  0  0  0
 28 29  1  0  0  0  0
 28 19  2  0  0  0  0
M  END
