1
q = 0.0, confidence = 0.952

 17 17  0  0  0  0  0  0  0  0999 V2000
   -0.3739   -0.2583   -0.0003 N   0  0  0  0  0  2  0  0  0  0  0  0
   -1.2270    0.8038   -0.0002 C   0  0  0  0  0  3  0  0  0  0  0  0
   -0.7573    1.7979   -0.0002 H   0  0  0  0  0  0  0  0  0  0  0  0
   -2.6123    0.6830   -0.0002 C   0  0  0  0  0  0  0  0  0  0  0  0
   -3.2156    1.5992   -0.0001 H   0  0  0  0  0  0  0  0  0  0  0  0
   -3.2084   -0.6060   -0.0002 C   0  0  0  0  0  0  0  0  0  0  0  0
   -2.3110   -1.7060   -0.0003 C   0  0  0  0  0  0  0  0  0  0  0  0
   -2.6941   -2.7370   -0.0004 H   0  0  0  0  0  0  0  0  0  0  0  0
   -0.9365   -1.4971   -0.0004 C   0  0  0  0  0  0  0  0  0  0  0  0
   -0.2382   -2.3464   -0.0005 H   0  0  0  0  0  0  0  0  0  0  0  0
   -4.6298   -0.8863   -0.0002 C   0  0  0  0  0  0  0  0  0  0  0  0
   -4.8958   -1.9551   -0.0003 H   0  0  0  0  0  0  0  0  0  0  0  0
   -5.7092   -0.0226    0.0000 C   0  0  0  0  0  0  0  0  0  0  0  0
   -5.6121    1.4065    0.0001 C   0  0  0  0  0  0  0  0  0  0  0  0
   -5.5422    2.5794    0.0003 N   0  0  0  0  0  0  0  0  0  0  0  0
   -7.0413   -0.5556    0.0000 C   0  0  0  0  0  0  0  0  0  0  0  0
   -8.1300   -0.9962    0.0001 N   0  0  0  0  0  0  0  0  0  0  0  0
  1  2  1  0  0  0  0
  2  4  1  0  0  0  0
  2  3  1  0  0  0  0
  4  5  1  0  0  0  0
  6  4  2  0  0  0  0
  6 11  1  0  0  0  0
  7  6  1  0  0  0  0
  8  7  1  0  0  0  0
  9  7  2  0  0  0  0
  9  1  1  0  0  0  0
 10  9  1  0  0  0  0
 11 13  2  0  0  0  0
 12 11  1  0  0  0  0
 13 16  1  0  0  0  0
 13 14  1  0  0  0  0
 14 15  3  0  0  0  0
 16 17  3  0  0  0  0
M  END
