3
q = 0.0, confidence = 0.992

 49 51  0  0  1  0  0  0  0  0999 V2000
    1.3157    0.2319    0.0046 P   0  0  0  0  0  0  0  0  0  0  0  0
    0.1936    1.6987   -0.3449 C   0  0  2  0  0  3  0  0  0  0  0  0
   -0.9601    1.1109   -0.1832 N   0  0  0  0  0  2  0  0  0  0  0  0
    0.5664    3.0805   -0.8324 C   0  0  0  0  0  0  0  0  0  0  0  0
   -0.6056    4.0763   -0.8838 C   0  0  0  0  0  0  0  0  0  0  0  0
   -1.4223    3.7308   -1.5439 H   0  0  0  0  0  0  0  0  0  0  0  0
   -0.2279    5.0363   -1.2879 H   0  0  0  0  0  0  0  0  0  0  0  0
   -1.0306    4.2751    0.1179 H   0  0  0  0  0  0  0  0  0  0  0  0
    1.0959    2.8517   -2.2800 C   0  0  0  0  0  0  0  0  0  0  0  0
    0.3283    2.3691   -2.9150 H   0  0  0  0  0  0  0  0  0  0  0  0
    2.0024    2.2183   -2.2959 H   0  0  0  0  0  0  0  0  0  0  0  0
    1.3567    3.8377   -2.7140 H   0  0  0  0  0  0  0  0  0  0  0  0
    1.6967    3.6543    0.0483 C   0  0  0  0  0  0  0  0  0  0  0  0
    2.0520    4.6071   -0.3910 H   0  0  0  0  0  0  0  0  0  0  0  0
    2.5645    2.9703    0.1067 H   0  0  0  0  0  0  0  0  0  0  0  0
    1.3481    3.8627    1.0787 H   0  0  0  0  0  0  0  0  0  0  0  0
   -2.2709    1.6632   -0.1684 C   0  0  0  0  0  0  0  0  0  0  0  0
   -3.1359    1.4062   -1.2504 C   0  0  0  0  0  0  0  0  0  0  0  0
   -2.7503    0.8410   -2.1122 H   0  0  0  0  0  0  0  0  0  0  0  0
   -4.4507    1.8885   -1.2001 C   0  0  0  0  0  0  0  0  0  0  0  0
   -5.1234    1.7102   -2.0523 H   0  0  0  0  0  0  0  0  0  0  0  0
   -4.9119    2.5933   -0.0742 C   0  0  0  0  0  0  0  0  0  0  0  0
   -5.9467    2.9643   -0.0411 H   0  0  0  0  0  0  0  0  0  0  0  0
   -4.0499    2.8185    1.0103 C   0  0  0  0  0  0  0  0  0  0  0  0
   -4.4073    3.3619    1.8976 H   0  0  0  0  0  0  0  0  0  0  0  0
   -2.7275    2.3526    0.9706 C   0  0  0  0  0  0  0  0  0  0  0  0
   -2.0474    2.5151    1.8199 H   0  0  0  0  0  0  0  0  0  0  0  0
    2.8448    0.1029   -0.9755 C   0  0  0  0  0  0  0  0  0  0  0  0
    2.8226   -0.6862   -2.1459 C   0  0  0  0  0  0  0  0  0  0  0  0
    1.8863   -1.1781   -2.4515 H   0  0  0  0  0  0  0  0  0  0  0  0
    3.9818   -0.7966   -2.9277 C   0  0  0  0  0  0  0  0  0  0  0  0
    3.9624   -1.4069   -3.8428 H   0  0  0  0  0  0  0  0  0  0  0  0
    5.1581   -0.1311   -2.5487 C   0  0  0  0  0  0  0  0  0  0  0  0
    6.0644   -0.2202   -3.1664 H   0  0  0  0  0  0  0  0  0  0  0  0
    5.1830    0.6465   -1.3782 C   0  0  0  0  0  0  0  0  0  0  0  0
    6.1060    1.1639   -1.0770 H   0  0  0  0  0  0  0  0  0  0  0  0
    4.0330    0.7639   -0.5871 C   0  0  0  0  0  0  0  0  0  0  0  0
    4.0652    1.3619    0.3357 H   0  0  0  0  0  0  0  0  0  0  0  0
    1.8255    0.4396    1.7494 C   0  0  0  0  0  0  0  0  0  0  0  0
    2.8840   -0.3525    2.2477 C   0  0  0  0  0  0  0  0  0  0  0  0
    3.4562   -1.0032    1.5695 H   0  0  0  0  0  0  0  0  0  0  0  0
    3.2205   -0.3013    3.6092 C   0  0  0  0  0  0  0  0  0  0  0  0
    4.0496   -0.9183    3.9866 H   0  0  0  0  0  0  0  0  0  0  0  0
    2.5098    0.5362    4.4833 C   0  0  0  0  0  0  0  0  0  0  0  0
    2.7804    0.5791    5.5486 H   0  0  0  0  0  0  0  0  0  0  0  0
    1.4559    1.3238    3.9917 C   0  0  0  0  0  0  0  0  0  0  0  0
    0.8993    1.9865    4.6711 H   0  0  0  0  0  0  0  0  0  0  0  0
    1.1088    1.2723    2.6347 C   0  0  0  0  0  0  0  0  0  0  0  0
    0.2732    1.8835    2.2657 H   0  0  0  0  0  0  0  0  0  0  0  0
  1 39  1  0  0  0  0
  2  3  1  6  0  0  0
  2  1  1  0  0  0  0
  3 17  1  0  0  0  0
  4  2  1  0  0  0  0
  4 13  1  0  0  0  0
  5  4  1  0  0  0  0
  5  8  1  0  0  0  0
  6  5  1  0  0  0  0
  7  5  1  0  0  0  0
  9  4  1  0  0  0  0
 10  9  1  0  0  0  0
 11  9  1  0  0  0  0
 12  9  1  0  0  0  0
 13 15  1  0  0  0  0
 13 16  1  0  0  0  0
 14 13  1  0  0  0  0
 17 26  1  0  0  0  0
 18 20  1  0  0  0  0
 18 17  2  0  0  0  0
 19 18  1  0  0  0  0
 20 22  2  0  0  0  0
 21 20  1  0  0  0  0
 22 23  1  0  0  0  0
 22 24  1  0  0  0  0
 24 25  1  0  0  0  0
 26 24  2  0  0  0  0
 26 27  1  0  0  0  0
 28 37  1  0  0  0  0
 28  1  1  0  0  0  0
 29 28  2  0  0  0  0
 30 29  1  0  0  0  0
 31 33  2  0  0  0  0
 31 29  1  0  0  0  0
 32 31  1  0  0  0  0
 33 35  1  0  0  0  0
 34 33  1  0  0  0  0
 35 36  1  0  0  0  0
 35 37  2  0  0  0  0
 37 38  1  0  0  0  0
 39 40  2  0  0  0  0
 39 48  1  0  0  0  0
 40 42  1  0  0  0  0
 41 40  1  0  0  0  0
 42 43  1  0  0  0  0
 42 44  2  0  0  0  0
 44 45  1  0  0  0  0
 46 44  1  0  0  0  0
 46 47  1  0  0  0  0
 48 46  2  0  0  0  0
 49 48  1  0  0  0  0
M  END
