2
q = 0.0, confidence = 0.996

 53 56  0  0  1  0  0  0  0  0999 V2000
   -1.5544    0.0972   -0.0329 P   0  0  0  0  0  0  0  0  0  0  0  0
    1.1826    0.8502    0.2795 N   0  0  0  0  0  2  0  0  0  0  0  0
    2.1677    1.5647   -0.6028 C   0  0  1  0  0  0  0  0  0  0  0  0
    2.1141    3.0932   -0.5185 C   0  0  0  0  0  0  0  0  0  0  0  0
    3.5685    1.0160   -0.3777 C   0  0  0  0  0  0  0  0  0  0  0  0
    4.2553    0.3802   -1.4282 C   0  0  0  0  0  0  0  0  0  0  0  0
    5.5439   -0.1405   -1.2274 C   0  0  0  0  0  0  0  0  0  0  0  0
    6.1582   -0.0306    0.0300 C   0  0  0  0  0  0  0  0  0  0  0  0
    5.4846    0.6145    1.0813 C   0  0  0  0  0  0  0  0  0  0  0  0
    4.1992    1.1373    0.8764 C   0  0  0  0  0  0  0  0  0  0  0  0
    0.7894    1.4614    1.3653 C   0  0  0  0  0  3  0  0  0  0  0  0
   -0.2656    0.9898    2.2709 C   0  0  0  0  0  0  0  0  0  0  0  0
   -0.1324    1.2204    3.6568 C   0  0  0  0  0  0  0  0  0  0  0  0
   -1.1011    0.7552    4.5570 C   0  0  0  0  0  0  0  0  0  0  0  0
   -2.2385    0.0887    4.0748 C   0  0  0  0  0  0  0  0  0  0  0  0
   -2.4222   -0.0892    2.6919 C   0  0  0  0  0  0  0  0  0  0  0  0
   -1.4504    0.3593    1.7832 C   0  0  0  0  0  0  0  0  0  0  0  0
   -3.2064   -0.5952   -0.4038 C   0  0  0  0  0  0  0  0  0  0  0  0
   -3.3165   -1.7807   -1.1558 C   0  0  0  0  0  0  0  0  0  0  0  0
   -4.5822   -2.2878   -1.4892 C   0  0  0  0  0  0  0  0  0  0  0  0
   -5.7398   -1.6124   -1.0742 C   0  0  0  0  0  0  0  0  0  0  0  0
   -5.6342   -0.4180   -0.3406 C   0  0  0  0  0  0  0  0  0  0  0  0
   -4.3735    0.0983   -0.0131 C   0  0  0  0  0  0  0  0  0  0  0  0
   -1.6617    1.8100   -0.7117 C   0  0  0  0  0  0  0  0  0  0  0  0
   -1.8562    2.9333    0.1178 C   0  0  0  0  0  0  0  0  0  0  0  0
   -1.9226    4.2192   -0.4423 C   0  0  0  0  0  0  0  0  0  0  0  0
   -1.8022    4.3928   -1.8297 C   0  0  0  0  0  0  0  0  0  0  0  0
   -1.6294    3.2737   -2.6607 C   0  0  0  0  0  0  0  0  0  0  0  0
   -1.5604    1.9871   -2.1071 C   0  0  0  0  0  0  0  0  0  0  0  0
    1.8608    1.2844   -1.6276 H   0  0  0  0  0  0  0  0  0  0  0  0
    1.0787    3.4660   -0.6528 H   0  0  0  0  0  0  0  0  0  0  0  0
    2.5282    3.4919    0.4287 H   0  0  0  0  0  0  0  0  0  0  0  0
    2.7404    3.5052   -1.3329 H   0  0  0  0  0  0  0  0  0  0  0  0
    3.7715    0.2894   -2.4138 H   0  0  0  0  0  0  0  0  0  0  0  0
    6.0718   -0.6326   -2.0582 H   0  0  0  0  0  0  0  0  0  0  0  0
    7.1667   -0.4399    0.1900 H   0  0  0  0  0  0  0  0  0  0  0  0
    5.9662    0.7129    2.0657 H   0  0  0  0  0  0  0  0  0  0  0  0
    3.6800    1.6348    1.7108 H   0  0  0  0  0  0  0  0  0  0  0  0
    1.2516    2.4287    1.6309 H   0  0  0  0  0  0  0  0  0  0  0  0
    0.7598    1.7461    4.0313 H   0  0  0  0  0  0  0  0  0  0  0  0
   -0.9697    0.9167    5.6368 H   0  0  0  0  0  0  0  0  0  0  0  0
   -3.0038   -0.2755    4.7762 H   0  0  0  0  0  0  0  0  0  0  0  0
   -3.3347   -0.5776    2.3197 H   0  0  0  0  0  0  0  0  0  0  0  0
   -2.4040   -2.2898   -1.4987 H   0  0  0  0  0  0  0  0  0  0  0  0
   -4.6636   -3.2109   -2.0822 H   0  0  0  0  0  0  0  0  0  0  0  0
   -6.7319   -2.0105   -1.3345 H   0  0  0  0  0  0  0  0  0  0  0  0
   -6.5418    0.1216   -0.0314 H   0  0  0  0  0  0  0  0  0  0  0  0
   -4.2963    1.0500    0.5347 H   0  0  0  0  0  0  0  0  0  0  0  0
   -1.9585    2.8104    1.2060 H   0  0  0  0  0  0  0  0  0  0  0  0
   -2.0735    5.0904    0.2127 H   0  0  0  0  0  0  0  0  0  0  0  0
   -1.8525    5.4015   -2.2660 H   0  0  0  0  0  0  0  0  0  0  0  0
   -1.5496    3.4011   -3.7506 H   0  0  0  0  0  0  0  0  0  0  0  0
   -1.4350    1.1221   -2.7729 H   0  0  0  0  0  0  0  0  0  0  0  0
  1 17  1  0  0  0  0
  2 11  1  0  0  0  0
  3 30  1  6  0  0  0
  3  4  1  0  0  0  0
  3  5  1  0  0  0  0
  3  2  1  0  0  0  0
  4 32  1  0  0  0  0
  5 10  1  0  0  0  0
  6  7  1  0  0  0  0
  6  5  2  0  0  0  0
  7  8  2  0  0  0  0
  8 36  1  0  0  0  0
  8  9  1  0  0  0  0
  9 37  1  0  0  0  0
 10  9  2  0  0  0  0
 10 38  1  0  0  0  0
 11 39  1  0  0  0  0
 11 12  1  0  0  0  0
 12 13  1  0  0  0  0
 13 40  1  0  0  0  0
 13 14  2  0  0  0  0
 14 41  1  0  0  0  0
 15 14  1  0  0  0  0
 15 42  1  0  0  0  0
 16 15  2  0  0  0  0
 17 12  2  0  0  0  0
 17 16  1  0  0  0  0
 18  1  1  0  0  0  0
 18 23  1  0  0  0  0
 19 18  2  0  0  0  0
 20 19  1  0  0  0  0
 20 21  2  0  0  0  0
 21 22  1  0  0  0  0
 22 47  1  0  0  0  0
 22 23  2  0  0  0  0
 23 48  1  0  0  0  0
 24  1  1  0  0  0  0
 24 25  1  0  0  0  0
 25 49  1  0  0  0  0
 26 25  2  0  0  0  0
 26 50  1  0  0  0  0
 27 26  1  0  0  0  0
 28 29  1  0  0  0  0
 28 27  2  0  0  0  0
 29 24  2  0  0  0  0
 31  4  1  0  0  0  0
 33  4  1  0  0  0  0
 34  6  1  0  0  0  0
 35  7  1  0  0  0  0
 43 16  1  0  0  0  0
 44 19  1  0  0  0  0
 45 20  1  0  0  0  0
 46 21  1  0  0  0  0
 51 27  1  0  0  0  0
 52 28  1  0  0  0  0
 53 29  1  0  0  0  0
M  END
