10
q = 0.0, confidence = 0.996

 21 21  0  0  1  0  0  0  0  0999 V2000
   -2.9362    0.9282   -0.7952 N   0  0  0  0  0  0  0  0  0  0  0  0
   -4.1085    1.3403    2.5628 O   0  0  0  0  0  0  0  0  0  0  0  0
   -1.9127    0.0746   -1.1006 C   0  0  1  0  0  3  0  0  0  0  0  0
   -4.1417    1.5093    1.3475 N   0  0  0  0  0  0  0  0  0  0  0  0
   -4.9463    2.2604    0.7598 O   0  0  0  0  0  0  0  0  0  0  0  0
   -1.3360   -0.1157   -2.4567 C   0  0  0  0  0  0  0  0  0  0  0  0
   -0.7116   -1.0353   -2.4408 H   0  0  0  0  0  0  0  0  0  0  0  0
   -0.7013    0.7458   -2.7553 H   0  0  0  0  0  0  0  0  0  0  0  0
   -2.1253   -0.2393   -3.2235 H   0  0  0  0  0  0  0  0  0  0  0  0
   -1.4945   -0.5630    0.0108 N   0  0  0  0  0  2  0  0  0  0  0  0
   -2.2599   -0.1391    1.0546 C   0  0  0  0  0  0  0  0  0  0  0  0
   -2.1231   -0.5418    2.0663 H   0  0  0  0  0  0  0  0  0  0  0  0
   -3.1733    0.7889    0.5731 C   0  0  0  0  0  0  0  0  0  0  0  0
   -3.6856    1.7245   -1.7703 C   0  0  0  0  0  0  0  0  0  0  0  0
   -3.0063    1.9554   -2.6132 H   0  0  0  0  0  0  0  0  0  0  0  0
   -3.9644    2.6738   -1.2793 H   0  0  0  0  0  0  0  0  0  0  0  0
   -4.9395    0.9851   -2.2740 C   0  0  0  0  0  0  0  0  0  0  0  0
   -5.4754    1.6913   -2.9578 H   0  0  0  0  0  0  0  0  0  0  0  0
   -4.6316    0.1155   -2.8940 H   0  0  0  0  0  0  0  0  0  0  0  0
   -5.7432    0.4818   -1.2433 O   0  0  0  0  0  0  0  0  0  0  0  0
   -5.9060    1.2149   -0.6123 H   0  0  0  0  0  0  0  0  0  0  0  0
  1 13  1  0  0  0  0
  3  6  1  1  0  0  0
  3  1  1  0  0  0  0
  3 10  1  0  0  0  0
  4  2  2  0  0  0  0
  5  4  2  0  0  0  0
  6  7  1  0  0  0  0
  8  6  1  0  0  0  0
  9  6  1  0  0  0  0
 10 11  1  0  0  0  0
 11 12  1  0  0  0  0
 13 11  2  0  0  0  0
 13  4  1  0  0  0  0
 14 16  1  0  0  0  0
 14  1  1  0  0  0  0
 15 14  1  0  0  0  0
 17 14  1  0  0  0  0
 17 20  1  0  0  0  0
 18 17  1  0  0  0  0
 19 17  1  0  0  0  0
 20 21  1  0  0  0  0
M  END
