2
q = 0.0, confidence = 1.0

 16 17  0  0  0  0  0  0  0  0999 V2000
    3.1186   -0.0751   -2.0889 S   0  0  0  0  0  0  0  0  0  0  0  0
    1.5793    0.7781   -0.1935 N   0  0  0  0  0  2  0  0  0  0  0  0
    4.6136   -2.7934   -1.1766 N   0  0  0  0  0  0  0  0  0  0  0  0
    4.8816   -3.7570   -0.9754 H   0  0  0  0  0  0  0  0  0  0  0  0
    4.4578   -2.6192   -2.1704 H   0  0  0  0  0  0  0  0  0  0  0  0
    2.1653   -0.3748    0.3189 C   0  0  0  0  0  0  0  0  0  0  0  0
    1.9666   -0.9003    1.6107 C   0  0  0  0  0  0  0  0  0  0  0  0
    1.3243   -0.3584    2.3207 H   0  0  0  0  0  0  0  0  0  0  0  0
    2.6504   -2.0770    1.9280 C   0  0  0  0  0  0  0  0  0  0  0  0
    2.5258   -2.5194    2.9276 H   0  0  0  0  0  0  0  0  0  0  0  0
    3.4997   -2.7224    1.0068 C   0  0  0  0  0  0  0  0  0  0  0  0
    4.0123   -3.6521    1.2993 H   0  0  0  0  0  0  0  0  0  0  0  0
    3.7305   -2.2059   -0.2873 C   0  0  0  0  0  0  0  0  0  0  0  0
    3.0435   -1.0082   -0.6032 C   0  0  0  0  0  0  0  0  0  0  0  0
    1.9809    1.0517   -1.4115 C   0  0  0  0  0  3  0  0  0  0  0  0
    1.6188    1.9470   -1.9468 H   0  0  0  0  0  0  0  0  0  0  0  0
  1 15  1  0  0  0  0
  1 14  1  0  0  0  0
  2  6  1  0  0  0  0
  3  4  1  0  0  0  0
  3 13  1  0  0  0  0
  5  3  1  0  0  0  0
  6  7  1  0  0  0  0
  7  9  2  0  0  0  0
  7  8  1  0  0  0  0
  9 10  1  0  0  0  0
 11 12  1  0  0  0  0
 11  9  1  0  0  0  0
 13 11  2  0  0  0  0
 14 13  1  0  0  0  0
 14  6  2  0  0  0  0
 15  2  1  0  0  0  0
 16 15  1  0  0  0  0
M  END
