1
q = -1.0, confidence = 0.0

 29 31  0  0  0  0  0  0  0  0999 V2000
   -0.2078   -0.5999   -1.8774 N   0  0  0  0  0  0  0  0  0  0  0  0
    0.5246    0.1528   -2.7829 C   0  0  0  0  0  0  0  0  0  0  0  0
   -0.1742    0.1990   -4.0048 C   0  0  0  0  0  0  0  0  0  0  0  0
    0.1804    0.6684   -4.9301 H   0  0  0  0  0  0  0  0  0  0  0  0
   -1.3694   -0.5406   -3.8275 C   0  0  0  0  0  0  0  0  0  0  0  0
   -2.1300   -0.7588   -4.5864 H   0  0  0  0  0  0  0  0  0  0  0  0
   -1.3694   -1.0185   -2.5025 C   0  0  0  0  0  3  0  0  0  0  0  0
   -2.3668   -1.8131   -1.7864 C   0  0  0  0  0  0  0  0  0  0  0  0
   -3.7475   -1.7047   -2.0832 C   0  0  0  0  0  0  0  0  0  0  0  0
   -4.0691   -1.0139   -2.8773 H   0  0  0  0  0  0  0  0  0  0  0  0
   -4.6977   -2.4343   -1.3577 C   0  0  0  0  0  0  0  0  0  0  0  0
   -5.7663   -2.3273   -1.6006 H   0  0  0  0  0  0  0  0  0  0  0  0
   -4.2989   -3.2844   -0.3108 C   0  0  0  0  0  0  0  0  0  0  0  0
   -5.0494   -3.8451    0.2661 H   0  0  0  0  0  0  0  0  0  0  0  0
   -2.9329   -3.4164   -0.0145 C   0  0  0  0  0  0  0  0  0  0  0  0
   -2.6040   -4.0922    0.7897 H   0  0  0  0  0  0  0  0  0  0  0  0
   -1.9793   -2.7005   -0.7506 C   0  0  0  0  0  0  0  0  0  0  0  0
   -0.9074   -2.8493   -0.5490 H   0  0  0  0  0  0  0  0  0  0  0  0
    1.7750    0.7875   -2.3693 C   0  0  0  0  0  0  0  0  0  0  0  0
    2.2150    2.0056   -2.9426 C   0  0  0  0  0  0  0  0  0  0  0  0
    1.6206    2.4631   -3.7483 H   0  0  0  0  0  0  0  0  0  0  0  0
    3.3696    2.6450   -2.4725 C   0  0  0  0  0  0  0  0  0  0  0  0
    3.6885    3.5941   -2.9310 H   0  0  0  0  0  0  0  0  0  0  0  0
    4.1130    2.0945   -1.4122 C   0  0  0  0  0  0  0  0  0  0  0  0
    5.0139    2.6058   -1.0412 H   0  0  0  0  0  0  0  0  0  0  0  0
    3.7009    0.8777   -0.8442 C   0  0  0  0  0  0  0  0  0  0  0  0
    4.2794    0.4102   -0.0327 H   0  0  0  0  0  0  0  0  0  0  0  0
    2.5565    0.2265   -1.3262 C   0  0  0  0  0  0  0  0  0  0  0  0
    2.3033   -0.7695   -0.9265 H   0  0  0  0  0  0  0  0  0  0  0  0
  2 19  1  0  0  0  0
  2  1  2  0  0  0  0
  3  5  2  0  0  0  0
  3  2  1  0  0  0  0
  4  3  1  0  0  0  0
  5  7  1  0  0  0  0
  6  5  1  0  0  0  0
  7  1  1  0  0  0  0
  7  8  1  0  0  0  0
  8 17  1  0  0  0  0
  9  8  2  0  0  0  0
  9 11  1  0  0  0  0
 10  9  1  0  0  0  0
 11 13  2  0  0  0  0
 12 11  1  0  0  0  0
 13 15  1  0  0  0  0
 13 14  1  0  0  0  0
 15 16  1  0  0  0  0
 17 18  1  0  0  0  0
 17 15  2  0  0  0  0
 19 28  1  0  0  0  0
 20 22  1  0  0  0  0
 20 19  2  0  0  0  0
 21 20  1  0  0  0  0
 22 24  2  0  0  0  0
 23 22  1  0  0  0  0
 24 25  1  0  0  0  0
 24 26  1  0  0  0  0
 26 27  1  0  0  0  0
 28 29  1  0  0  0  0
 28 26  2  0  0  0  0
M  END
