1
q = -1.0, confidence = 0.0

 19 18  0  0  0  0  0  0  0  0999 V2000
    2.9670    1.4501    0.1269 N   0  0  0  0  0  2  0  0  0  0  0  0
    3.3756   -0.0701    1.9017 C   0  0  0  0  0  3  0  0  0  0  0  0
    3.4928   -0.9155    1.2066 H   0  0  0  0  0  0  0  0  0  0  0  0
    3.4820   -0.2725    2.9760 H   0  0  0  0  0  0  0  0  0  0  0  0
    3.3780    1.2209    1.4086 C   0  0  0  0  0  3  0  0  0  0  0  0
    3.5496    2.0803    2.0937 H   0  0  0  0  0  0  0  0  0  0  0  0
    3.3112    2.7299   -0.5370 C   0  0  0  0  0  0  0  0  0  0  0  0
    4.8470    2.8601   -0.5789 C   0  0  0  0  0  0  0  0  0  0  0  0
    5.2924    1.9888   -1.0993 H   0  0  0  0  0  0  0  0  0  0  0  0
    5.2743    2.9014    0.4435 H   0  0  0  0  0  0  0  0  0  0  0  0
    5.1500    3.7827   -1.1139 H   0  0  0  0  0  0  0  0  0  0  0  0
    2.6950    3.9321    0.2083 C   0  0  0  0  0  0  0  0  0  0  0  0
    1.5905    3.8449    0.2405 H   0  0  0  0  0  0  0  0  0  0  0  0
    2.9559    4.8809   -0.3023 H   0  0  0  0  0  0  0  0  0  0  0  0
    3.0633    4.0071    1.2513 H   0  0  0  0  0  0  0  0  0  0  0  0
    2.7710    2.6929   -1.9735 C   0  0  0  0  0  0  0  0  0  0  0  0
    3.1424    1.7934   -2.5030 H   0  0  0  0  0  0  0  0  0  0  0  0
    3.1007    3.5932   -2.5293 H   0  0  0  0  0  0  0  0  0  0  0  0
    1.6649    2.6632   -1.9857 H   0  0  0  0  0  0  0  0  0  0  0  0
  1  5  1  0  0  0  0
  2  4  1  0  0  0  0
  3  2  1  0  0  0  0
  5  2  1  0  0  0  0
  5  6  1  0  0  0  0
  7  1  1  0  0  0  0
  7 12  1  0  0  0  0
  8  7  1  0  0  0  0
  8 10  1  0  0  0  0
  9  8  1  0  0  0  0
 11  8  1  0  0  0  0
 12 13  1  0  0  0  0
 12 15  1  0  0  0  0
 14 12  1  0  0  0  0
 16  7  1  0  0  0  0
 17 16  1  0  0  0  0
 18 16  1  0  0  0  0
 19 16  1  0  0  0  0
M  END
