1
q = -1.0, confidence = 0.0

 27 28  0  0  0  0  0  0  0  0999 V2000
    0.4918    0.3953   -1.6027 N   0  0  0  0  0  2  0  0  0  0  0  0
   -1.6943    0.2930   -1.6817 N   0  0  0  0  0  0  0  0  0  0  0  0
   -0.6226    0.3617   -0.8383 C   0  0  0  0  0  2  0  0  0  0  0  0
    0.1434    0.3432   -2.9345 C   0  0  0  0  0  0  0  0  0  0  0  0
    0.8784    0.3448   -3.7474 H   0  0  0  0  0  0  0  0  0  0  0  0
   -1.2364    0.2814   -3.0003 C   0  0  0  0  0  0  0  0  0  0  0  0
   -1.9260    0.2249   -3.8497 H   0  0  0  0  0  0  0  0  0  0  0  0
   -3.7755    1.4658   -1.1387 C   0  0  0  0  0  0  0  0  0  0  0  0
   -5.0980    1.4099   -0.6644 C   0  0  0  0  0  0  0  0  0  0  0  0
   -5.6652    2.3493   -0.5649 H   0  0  0  0  0  0  0  0  0  0  0  0
   -5.7069    0.1938   -0.3020 C   0  0  0  0  0  0  0  0  0  0  0  0
   -4.9543   -0.9905   -0.4158 C   0  0  0  0  0  0  0  0  0  0  0  0
   -5.4101   -1.9504   -0.1237 H   0  0  0  0  0  0  0  0  0  0  0  0
   -3.6285   -0.9895   -0.8849 C   0  0  0  0  0  0  0  0  0  0  0  0
   -3.0632    0.2519   -1.2501 C   0  0  0  0  0  0  0  0  0  0  0  0
   -3.1126    2.7763   -1.4754 C   0  0  0  0  0  0  0  0  0  0  0  0
   -2.2185    2.9418   -0.8376 H   0  0  0  0  0  0  0  0  0  0  0  0
   -3.8061    3.6251   -1.3275 H   0  0  0  0  0  0  0  0  0  0  0  0
   -2.7546    2.8004   -2.5252 H   0  0  0  0  0  0  0  0  0  0  0  0
   -7.1366    0.1559    0.1759 C   0  0  0  0  0  0  0  0  0  0  0  0
   -7.4388    1.1159    0.6382 H   0  0  0  0  0  0  0  0  0  0  0  0
   -7.2979   -0.6518    0.9168 H   0  0  0  0  0  0  0  0  0  0  0  0
   -7.8324   -0.0346   -0.6696 H   0  0  0  0  0  0  0  0  0  0  0  0
   -2.8168   -2.2555   -0.9473 C   0  0  0  0  0  0  0  0  0  0  0  0
   -3.4503   -3.1463   -0.7787 H   0  0  0  0  0  0  0  0  0  0  0  0
   -2.0229   -2.2483   -0.1705 H   0  0  0  0  0  0  0  0  0  0  0  0
   -2.3031   -2.3708   -1.9229 H   0  0  0  0  0  0  0  0  0  0  0  0
  1  3  1  0  0  0  0
  2 15  1  0  0  0  0
  2  3  1  0  0  0  0
  4  1  1  0  0  0  0
  5  4  1  0  0  0  0
  6  4  2  0  0  0  0
  6  2  1  0  0  0  0
  7  6  1  0  0  0  0
  8  9  1  0  0  0  0
  9 10  1  0  0  0  0
  9 11  2  0  0  0  0
 11 20  1  0  0  0  0
 12 11  1  0  0  0  0
 12 13  1  0  0  0  0
 14 12  2  0  0  0  0
 15  8  2  0  0  0  0
 15 14  1  0  0  0  0
 16 18  1  0  0  0  0
 16  8  1  0  0  0  0
 16 17  1  0  0  0  0
 19 16  1  0  0  0  0
 20 21  1  0  0  0  0
 20 22  1  0  0  0  0
 23 20  1  0  0  0  0
 24 14  1  0  0  0  0
 24 25  1  0  0  0  0
 24 26  1  0  0  0  0
 27 24  1  0  0  0  0
M  END
