2
q = 0.0, confidence = 0.998

 39 41  0  0  1  0  0  0  0  0999 V2000
   -1.0424    1.4202    0.6943 N   0  0  0  0  0  0  0  0  0  0  0  0
    1.6094    1.0834    0.5727 N   0  0  0  0  0  2  0  0  0  0  0  0
   -2.4845    1.5188    0.9520 C   0  0  0  0  0  0  0  0  0  0  0  0
   -2.9194    2.5296    0.9229 H   0  0  0  0  0  0  0  0  0  0  0  0
   -3.0939    0.7303    0.4811 H   0  0  0  0  0  0  0  0  0  0  0  0
   -1.5642    1.1910    2.0771 C   0  0  1  0  0  0  0  0  0  0  0  0
   -1.3342    2.0165    2.7757 H   0  0  0  0  0  0  0  0  0  0  0  0
   -1.4055   -0.1937    2.6232 C   0  0  0  0  0  0  0  0  0  0  0  0
   -2.4688   -1.1148    2.6075 C   0  0  0  0  0  0  0  0  0  0  0  0
   -3.4569   -0.8005    2.2407 H   0  0  0  0  0  0  0  0  0  0  0  0
   -2.2737   -2.4314    3.0550 C   0  0  0  0  0  0  0  0  0  0  0  0
   -3.1123   -3.1439    3.0422 H   0  0  0  0  0  0  0  0  0  0  0  0
   -1.0151   -2.8360    3.5268 C   0  0  0  0  0  0  0  0  0  0  0  0
   -0.8635   -3.8677    3.8775 H   0  0  0  0  0  0  0  0  0  0  0  0
    0.0443   -1.9134    3.5731 C   0  0  0  0  0  0  0  0  0  0  0  0
    1.0257   -2.2196    3.9654 H   0  0  0  0  0  0  0  0  0  0  0  0
   -0.1509   -0.5980    3.1297 C   0  0  0  0  0  0  0  0  0  0  0  0
    0.6774    0.1260    3.1760 H   0  0  0  0  0  0  0  0  0  0  0  0
   -0.2502    2.6434    0.4389 C   0  0  2  0  0  0  0  0  0  0  0  0
   -0.6496    3.4927    1.0408 H   0  0  0  0  0  0  0  0  0  0  0  0
   -0.2892    3.0381   -1.0666 C   0  0  0  0  0  0  0  0  0  0  0  0
    0.1630    2.1772   -1.6122 H   0  0  0  0  0  0  0  0  0  0  0  0
    0.5623    4.2865   -1.3277 C   0  0  0  0  0  0  0  0  0  0  0  0
    0.1790    5.1605   -0.7595 H   0  0  0  0  0  0  0  0  0  0  0  0
    0.5254    4.5528   -2.4018 H   0  0  0  0  0  0  0  0  0  0  0  0
    1.6270    4.1431   -1.0588 H   0  0  0  0  0  0  0  0  0  0  0  0
   -1.7181    3.2353   -1.5858 C   0  0  0  0  0  0  0  0  0  0  0  0
   -2.3178    2.3066   -1.5498 H   0  0  0  0  0  0  0  0  0  0  0  0
   -1.6867    3.5624   -2.6441 H   0  0  0  0  0  0  0  0  0  0  0  0
   -2.2515    4.0263   -1.0176 H   0  0  0  0  0  0  0  0  0  0  0  0
    1.1667    2.3308    0.8809 C   0  0  2  0  0  3  0  0  0  0  0  0
    2.0002    3.2582    1.5203 C   0  0  0  0  0  0  0  0  0  0  0  0
    1.6135    4.2562    1.7713 H   0  0  0  0  0  0  0  0  0  0  0  0
    3.3219    2.8977    1.8217 C   0  0  0  0  0  0  0  0  0  0  0  0
    3.9918    3.6116    2.3235 H   0  0  0  0  0  0  0  0  0  0  0  0
    3.7737    1.6179    1.4713 C   0  0  0  0  0  0  0  0  0  0  0  0
    4.8035    1.2952    1.6787 H   0  0  0  0  0  0  0  0  0  0  0  0
    2.8825    0.7348    0.8511 C   0  0  0  0  0  0  0  0  0  0  0  0
    3.1870   -0.2824    0.5573 H   0  0  0  0  0  0  0  0  0  0  0  0
  1  3  1  0  0  0  0
  1  6  1  0  0  0  0
  2 38  1  0  0  0  0
  2 31  1  0  0  0  0
  3  6  1  0  0  0  0
  4  3  1  0  0  0  0
  5  3  1  0  0  0  0
  6  8  1  0  0  0  0
  6  7  1  1  0  0  0
  8 17  1  0  0  0  0
  9  8  2  0  0  0  0
  9 11  1  0  0  0  0
 10  9  1  0  0  0  0
 11 13  2  0  0  0  0
 12 11  1  0  0  0  0
 13 15  1  0  0  0  0
 13 14  1  0  0  0  0
 15 16  1  0  0  0  0
 17 18  1  0  0  0  0
 17 15  2  0  0  0  0
 19  1  1  0  0  0  0
 19 20  1  1  0  0  0
 21 19  1  0  0  0  0
 22 21  1  0  0  0  0
 23 21  1  0  0  0  0
 23 26  1  0  0  0  0
 23 24  1  0  0  0  0
 25 23  1  0  0  0  0
 27 28  1  0  0  0  0
 27 21  1  0  0  0  0
 27 30  1  0  0  0  0
 29 27  1  0  0  0  0
 31 19  1  6  0  0  0
 31 32  1  0  0  0  0
 32 33  1  0  0  0  0
 32 34  2  0  0  0  0
 34 35  1  0  0  0  0
 36 37  1  0  0  0  0
 36 34  1  0  0  0  0
 38 36  2  0  0  0  0
 39 38  1  0  0  0  0
M  END
