1
q = 0.0, confidence = 1.0

 29 30  0  0  1  0  0  0  0  0999 V2000
   -1.6018    1.2286    0.3536 N   0  0  0  0  0  2  0  0  0  0  0  0
   -1.7807    2.1315    1.2859 C   0  0  1  0  0  3  0  0  0  0  0  0
   -2.6913    3.0638    0.9595 O   0  0  0  0  0  0  0  0  0  0  0  0
   -2.9880    2.8774   -0.4818 N   0  0  0  0  0  0  0  0  0  0  0  0
   -2.6907    1.4438   -0.6314 C   0  0  2  0  0  0  0  0  0  0  0  0
   -3.9208    0.6096   -0.3049 C   0  0  0  0  0  0  0  0  0  0  0  0
   -3.9653   -0.3173    0.7547 C   0  0  0  0  0  0  0  0  0  0  0  0
   -5.1338   -1.0340    1.0202 C   0  0  0  0  0  0  0  0  0  0  0  0
   -6.2854   -0.8457    0.2276 C   0  0  0  0  0  0  0  0  0  0  0  0
   -7.3736   -1.5928    0.5625 O   0  0  0  0  0  0  0  0  0  0  0  0
   -8.5519   -1.4446   -0.2044 C   0  0  0  0  0  0  0  0  0  0  0  0
   -9.2989   -2.1343    0.2307 H   0  0  0  0  0  0  0  0  0  0  0  0
   -8.9512   -0.4059   -0.1590 H   0  0  0  0  0  0  0  0  0  0  0  0
   -8.3908   -1.7151   -1.2725 H   0  0  0  0  0  0  0  0  0  0  0  0
   -6.2486    0.0785   -0.8380 C   0  0  0  0  0  0  0  0  0  0  0  0
   -5.0698    0.7944   -1.0898 C   0  0  0  0  0  0  0  0  0  0  0  0
   -5.0528    1.5277   -1.9110 H   0  0  0  0  0  0  0  0  0  0  0  0
   -7.1286    0.2497   -1.4719 H   0  0  0  0  0  0  0  0  0  0  0  0
   -5.1785   -1.7637    1.8413 H   0  0  0  0  0  0  0  0  0  0  0  0
   -3.0715   -0.4994    1.3687 H   0  0  0  0  0  0  0  0  0  0  0  0
   -2.3117    1.2506   -1.6546 H   0  0  0  0  0  0  0  0  0  0  0  0
   -2.0694    3.7689   -1.1912 C   0  0  0  0  0  0  0  0  0  0  0  0
   -0.9934    3.5356   -1.0242 H   0  0  0  0  0  0  0  0  0  0  0  0
   -2.2924    4.8097   -0.8905 H   0  0  0  0  0  0  0  0  0  0  0  0
   -2.2913    3.6620   -2.2707 H   0  0  0  0  0  0  0  0  0  0  0  0
   -1.2010    2.2441    2.6447 C   0  0  0  0  0  0  0  0  0  0  0  0
   -0.7244    1.2920    2.9349 H   0  0  0  0  0  0  0  0  0  0  0  0
   -2.0224    2.5057    3.3412 H   0  0  0  0  0  0  0  0  0  0  0  0
   -0.4480    3.0546    2.6663 H   0  0  0  0  0  0  0  0  0  0  0  0
  1  2  1  0  0  0  0
  2 26  1  1  0  0  0
  3  2  1  0  0  0  0
  4  3  1  0  0  0  0
  5 21  1  6  0  0  0
  5  4  1  0  0  0  0
  5  6  1  0  0  0  0
  5  1  1  0  0  0  0
  6  7  1  0  0  0  0
  7  8  2  0  0  0  0
  7 20  1  0  0  0  0
  8 19  1  0  0  0  0
  9 10  1  0  0  0  0
  9  8  1  0  0  0  0
 11 13  1  0  0  0  0
 11 12  1  0  0  0  0
 11 10  1  0  0  0  0
 14 11  1  0  0  0  0
 15  9  2  0  0  0  0
 16 15  1  0  0  0  0
 16  6  2  0  0  0  0
 17 16  1  0  0  0  0
 18 15  1  0  0  0  0
 22 23  1  0  0  0  0
 22 24  1  0  0  0  0
 22  4  1  0  0  0  0
 25 22  1  0  0  0  0
 26 29  1  0  0  0  0
 26 27  1  0  0  0  0
 26 28  1  0  0  0  0
M  END
