3
q = 0.0, confidence = 0.968

 49 52  0  0  0  0  0  0  0  0999 V2000
   -1.4058   -0.6088   -0.0195 P   0  0  0  0  0  4  0  0  0  0  0  0
    3.0136   -2.5243   -2.1104 O   0  0  0  0  0  0  0  0  0  0  0  0
   -0.5854    0.8123   -0.0171 N   0  0  0  0  0  2  0  0  0  0  0  0
    1.1132    0.6221   -2.1982 C   0  0  0  0  0  3  0  0  0  0  0  0
    0.0677    0.9510   -2.2588 H   0  0  0  0  0  0  0  0  0  0  0  0
    1.8313    1.2922   -2.7008 H   0  0  0  0  0  0  0  0  0  0  0  0
    1.4688   -0.7520   -2.1673 C   0  0  0  0  0  0  0  0  0  0  0  0
    0.9382   -1.7798   -1.3094 C   0  0  0  0  0  0  0  0  0  0  0  0
    1.8147   -3.0033   -1.5279 C   0  0  0  0  0  0  0  0  0  0  0  0
    2.0505   -3.5621   -0.6020 H   0  0  0  0  0  0  0  0  0  0  0  0
    1.2690   -3.6948   -2.2202 H   0  0  0  0  0  0  0  0  0  0  0  0
    2.6607   -1.3764   -2.8688 C   0  0  0  0  0  0  0  0  0  0  0  0
    2.3392   -1.6584   -3.9036 H   0  0  0  0  0  0  0  0  0  0  0  0
    3.5349   -0.7045   -2.9564 H   0  0  0  0  0  0  0  0  0  0  0  0
    0.0115   -1.6907   -0.2288 C   0  0  0  0  0  3  0  0  0  0  0  0
    0.0286   -2.5384    0.4785 H   0  0  0  0  0  0  0  0  0  0  0  0
   -2.1390   -1.0348    1.5898 C   0  0  0  0  0  0  0  0  0  0  0  0
   -2.6552   -2.3280    1.8164 C   0  0  0  0  0  0  0  0  0  0  0  0
   -2.6583   -3.0787    1.0099 H   0  0  0  0  0  0  0  0  0  0  0  0
   -3.1766   -2.6541    3.0763 C   0  0  0  0  0  0  0  0  0  0  0  0
   -3.5770   -3.6624    3.2586 H   0  0  0  0  0  0  0  0  0  0  0  0
   -3.1933   -1.6928    4.1017 C   0  0  0  0  0  0  0  0  0  0  0  0
   -3.6086   -1.9516    5.0872 H   0  0  0  0  0  0  0  0  0  0  0  0
   -2.6877   -0.4032    3.8718 C   0  0  0  0  0  0  0  0  0  0  0  0
   -2.7094    0.3496    4.6736 H   0  0  0  0  0  0  0  0  0  0  0  0
   -2.1537   -0.0715    2.6171 C   0  0  0  0  0  0  0  0  0  0  0  0
   -1.7511    0.9342    2.4246 H   0  0  0  0  0  0  0  0  0  0  0  0
   -2.7090   -0.8109   -1.2690 C   0  0  0  0  0  0  0  0  0  0  0  0
   -2.3325   -0.9489   -2.6235 C   0  0  0  0  0  0  0  0  0  0  0  0
   -1.2688   -0.9869   -2.9032 H   0  0  0  0  0  0  0  0  0  0  0  0
   -3.3179   -1.0454   -3.6139 C   0  0  0  0  0  0  0  0  0  0  0  0
   -3.0247   -1.1576   -4.6681 H   0  0  0  0  0  0  0  0  0  0  0  0
   -4.6775   -0.9996   -3.2610 C   0  0  0  0  0  0  0  0  0  0  0  0
   -5.4490   -1.0731   -4.0420 H   0  0  0  0  0  0  0  0  0  0  0  0
   -5.0547   -0.8627   -1.9156 C   0  0  0  0  0  0  0  0  0  0  0  0
   -6.1193   -0.8286   -1.6410 H   0  0  0  0  0  0  0  0  0  0  0  0
   -4.0754   -0.7694   -0.9169 C   0  0  0  0  0  0  0  0  0  0  0  0
   -4.3734   -0.6683    0.1375 H   0  0  0  0  0  0  0  0  0  0  0  0
   -1.1051    2.0998   -0.2124 C   0  0  0  0  0  0  0  0  0  0  0  0
   -0.2685    3.1440   -0.6714 C   0  0  0  0  0  0  0  0  0  0  0  0
    0.7824    2.9155   -0.8870 H   0  0  0  0  0  0  0  0  0  0  0  0
   -0.7707    4.4401   -0.8514 C   0  0  0  0  0  0  0  0  0  0  0  0
   -0.0964    5.2334   -1.2087 H   0  0  0  0  0  0  0  0  0  0  0  0
   -2.1190    4.7292   -0.5899 C   0  0  0  0  0  0  0  0  0  0  0  0
   -2.5108    5.7463   -0.7333 H   0  0  0  0  0  0  0  0  0  0  0  0
   -2.9606    3.6984   -0.1424 C   0  0  0  0  0  0  0  0  0  0  0  0
   -4.0211    3.9038    0.0678 H   0  0  0  0  0  0  0  0  0  0  0  0
   -2.4656    2.4022    0.0506 C   0  0  0  0  0  0  0  0  0  0  0  0
   -3.1444    1.6170    0.4151 H   0  0  0  0  0  0  0  0  0  0  0  0
  1  3  1  0  0  0  0
  1 17  1  0  0  0  0
  2  9  1  0  0  0  0
  4  7  1  0  0  0  0
  5  4  1  0  0  0  0
  6  4  1  0  0  0  0
  7  8  2  0  0  0  0
  8 15  1  0  0  0  0
  9  8  1  0  0  0  0
  9 10  1  0  0  0  0
 11  9  1  0  0  0  0
 12  7  1  0  0  0  0
 12  2  1  0  0  0  0
 13 12  1  0  0  0  0
 14 12  1  0  0  0  0
 15  1  1  0  0  0  0
 15 16  1  0  0  0  0
 17 18  2  0  0  0  0
 17 26  1  0  0  0  0
 18 20  1  0  0  0  0
 19 18  1  0  0  0  0
 20 21  1  0  0  0  0
 20 22  2  0  0  0  0
 22 23  1  0  0  0  0
 24 22  1  0  0  0  0
 24 25  1  0  0  0  0
 26 24  2  0  0  0  0
 27 26  1  0  0  0  0
 28 37  1  0  0  0  0
 28  1  1  0  0  0  0
 29 28  2  0  0  0  0
 30 29  1  0  0  0  0
 31 33  2  0  0  0  0
 31 29  1  0  0  0  0
 32 31  1  0  0  0  0
 33 35  1  0  0  0  0
 34 33  1  0  0  0  0
 35 36  1  0  0  0  0
 35 37  2  0  0  0  0
 37 38  1  0  0  0  0
 39  3  1  0  0  0  0
 39 48  1  0  0  0  0
 40 39  2  0  0  0  0
 41 40  1  0  0  0  0
 42 40  1  0  0  0  0
 42 44  2  0  0  0  0
 43 42  1  0  0  0  0
 44 46  1  0  0  0  0
 45 44  1  0  0  0  0
 46 48  2  0  0  0  0
 46 47  1  0  0  0  0
 48 49  1  0  0  0  0
M  END
