1
q = -1.0

 17 17  0  0  0  0  0  0  0  0999 V2000
   -1.5479    0.5605   -0.3403 N   0  0  0  0  0  2  0  0  0  0  0  0
   -2.1969    0.2838   -1.0853 H   0  0  0  0  0  0  0  0  0  0  0  0
   -4.0514    1.3252   -0.9074 O   0  0  0  0  0  0  0  0  0  0  0  0
   -2.0383    1.7059    0.2598 C   0  0  0  0  0  0  0  0  0  0  0  0
   -1.2732    2.5004    1.1420 C   0  0  0  0  0  0  0  0  0  0  0  0
   -0.2343    2.1971    1.3264 H   0  0  0  0  0  0  0  0  0  0  0  0
   -1.8079    3.6516    1.7389 C   0  0  0  0  0  0  0  0  0  0  0  0
   -1.1808    4.2496    2.4177 H   0  0  0  0  0  0  0  0  0  0  0  0
   -3.1232    4.0485    1.4603 C   0  0  0  0  0  0  0  0  0  0  0  0
   -3.5485    4.9513    1.9229 H   0  0  0  0  0  0  0  0  0  0  0  0
   -3.9048    3.2917    0.5644 C   0  0  0  0  0  0  0  0  0  0  0  0
   -4.9333    3.6076    0.3414 H   0  0  0  0  0  0  0  0  0  0  0  0
   -3.3723    2.1395   -0.0283 C   0  0  0  0  0  0  0  0  0  0  0  0
   -5.3482    1.7103   -1.3109 C   0  0  0  0  0  0  0  0  0  0  0  0
   -5.6956    0.9480   -2.0336 H   0  0  0  0  0  0  0  0  0  0  0  0
   -5.3492    2.7081   -1.8056 H   0  0  0  0  0  0  0  0  0  0  0  0
   -6.0573    1.7428   -0.4528 H   0  0  0  0  0  0  0  0  0  0  0  0
  1  4  1  0  0  0  0
  2  1  1  0  0  0  0
  3 13  1  0  0  0  0
  4  5  1  0  0  0  0
  5  6  1  0  0  0  0
  5  7  2  0  0  0  0
  7  8  1  0  0  0  0
  9  7  1  0  0  0  0
  9 10  1  0  0  0  0
 11  9  2  0  0  0  0
 12 11  1  0  0  0  0
 13  4  2  0  0  0  0
 13 11  1  0  0  0  0
 14  3  1  0  0  0  0
 14 17  1  0  0  0  0
 15 14  1  0  0  0  0
 16 14  1  0  0  0  0
M  END
