2
q = -1.0

 34 36  0  0  0  0  0  0  0  0999 V2000
    2.2699    0.6329   -0.0457 N   0  0  0  0  0  0  0  0  0  0  0  0
   -0.3884    0.9638   -0.0267 N   0  0  0  0  0  2  0  0  0  0  0  0
    3.5829    0.3935   -0.0124 C   0  0  0  0  0  0  0  0  0  0  0  0
    4.5384    1.4327   -0.0903 C   0  0  0  0  0  0  0  0  0  0  0  0
    4.1017    2.7443   -0.2175 C   0  0  0  0  0  0  0  0  0  0  0  0
    2.7085    3.0356   -0.2568 C   0  0  0  0  0  0  0  0  0  0  0  0
    2.1715    4.3435   -0.3998 C   0  0  0  0  0  0  0  0  0  0  0  0
    0.7873    4.5020   -0.4421 C   0  0  0  0  0  0  0  0  0  0  0  0
   -0.1034    3.4138   -0.3260 C   0  0  0  0  0  0  0  0  0  0  0  0
    0.3754    2.0958   -0.1530 C   0  0  0  0  0  0  0  0  0  0  0  0
    1.8107    1.9179   -0.1482 C   0  0  0  0  0  0  0  0  0  0  0  0
   -1.8034    1.0540   -0.0662 C   0  0  0  0  0  0  0  0  0  0  0  0
   -2.5193    1.6782    0.9784 C   0  0  0  0  0  0  0  0  0  0  0  0
   -3.9235    1.7180    0.9672 C   0  0  0  0  0  0  0  0  0  0  0  0
   -4.6080    1.1074   -0.1056 C   0  0  0  0  0  0  0  0  0  0  0  0
   -3.9191    0.4740   -1.1551 C   0  0  0  0  0  0  0  0  0  0  0  0
   -2.5107    0.4626   -1.1274 C   0  0  0  0  0  0  0  0  0  0  0  0
   -4.6907    2.3976    2.0753 C   0  0  0  0  0  0  0  0  0  0  0  0
   -5.5262    1.7650    2.4388 H   0  0  0  0  0  0  0  0  0  0  0  0
   -5.1402    3.3513    1.7246 H   0  0  0  0  0  0  0  0  0  0  0  0
   -4.0387    2.6347    2.9383 H   0  0  0  0  0  0  0  0  0  0  0  0
   -4.6565   -0.1904   -2.2918 C   0  0  0  0  0  0  0  0  0  0  0  0
   -5.7533   -0.1597   -2.1440 H   0  0  0  0  0  0  0  0  0  0  0  0
   -4.3530   -1.2529   -2.3974 H   0  0  0  0  0  0  0  0  0  0  0  0
   -4.4305    0.3024   -3.2607 H   0  0  0  0  0  0  0  0  0  0  0  0
    3.8947   -0.6594    0.0770 H   0  0  0  0  0  0  0  0  0  0  0  0
    5.6094    1.1868   -0.0555 H   0  0  0  0  0  0  0  0  0  0  0  0
    4.8234    3.5729   -0.2904 H   0  0  0  0  0  0  0  0  0  0  0  0
    2.8509    5.2039   -0.4821 H   0  0  0  0  0  0  0  0  0  0  0  0
    0.3638    5.5107   -0.5691 H   0  0  0  0  0  0  0  0  0  0  0  0
   -1.1868    3.5877   -0.3681 H   0  0  0  0  0  0  0  0  0  0  0  0
   -1.9583    2.1196    1.8166 H   0  0  0  0  0  0  0  0  0  0  0  0
   -5.7104    1.1182   -0.1161 H   0  0  0  0  0  0  0  0  0  0  0  0
   -1.9374   -0.0399   -1.9214 H   0  0  0  0  0  0  0  0  0  0  0  0
  1  3  1  0  0  0  0
  3 26  1  0  0  0  0
  4 27  1  0  0  0  0
  4  3  2  0  0  0  0
  5  4  1  0  0  0  0
  6  5  2  0  0  0  0
  6 11  1  0  0  0  0
  7  6  1  0  0  0  0
  8  7  2  0  0  0  0
  8  9  1  0  0  0  0
  9 10  2  0  0  0  0
 10 11  1  0  0  0  0
 10  2  1  0  0  0  0
 11  1  2  0  0  0  0
 12  2  1  0  0  0  0
 12 13  1  0  0  0  0
 13 32  1  0  0  0  0
 14 13  2  0  0  0  0
 14 18  1  0  0  0  0
 15 14  1  0  0  0  0
 16 17  1  0  0  0  0
 16 15  2  0  0  0  0
 17 12  2  0  0  0  0
 18 19  1  0  0  0  0
 18 21  1  0  0  0  0
 20 18  1  0  0  0  0
 22 23  1  0  0  0  0
 22 16  1  0  0  0  0
 24 22  1  0  0  0  0
 25 22  1  0  0  0  0
 28  5  1  0  0  0  0
 29  7  1  0  0  0  0
 30  8  1  0  0  0  0
 31  9  1  0  0  0  0
 33 15  1  0  0  0  0
 34 17  1  0  0  0  0
M  END
