2
q = 0.0, confidence = 0.998

 21 20  0  0  1  0  0  0  0  0999 V2000
   -3.4032    1.6785    0.0479 O   0  0  0  0  0  0  0  0  0  0  0  0
   -1.9918   -0.1141   -0.4829 N   0  0  0  0  0  2  0  0  0  0  0  0
   -2.0949   -1.1047   -0.7375 H   0  0  0  0  0  0  0  0  0  0  0  0
   -3.1501    0.4134   -0.2024 C   0  0  1  0  0  3  0  0  0  0  0  0
   -4.4054   -0.4639   -0.0872 C   0  0  0  0  0  0  0  0  0  0  0  0
   -5.5695    0.1794   -0.8633 C   0  0  0  0  0  0  0  0  0  0  0  0
   -6.4892   -0.4228   -0.7240 H   0  0  0  0  0  0  0  0  0  0  0  0
   -5.3508    0.2240   -1.9495 H   0  0  0  0  0  0  0  0  0  0  0  0
   -5.7689    1.2073   -0.5069 H   0  0  0  0  0  0  0  0  0  0  0  0
   -4.1475   -1.8903   -0.6008 C   0  0  0  0  0  0  0  0  0  0  0  0
   -5.0708   -2.4912   -0.4893 H   0  0  0  0  0  0  0  0  0  0  0  0
   -3.3514   -2.3997   -0.0193 H   0  0  0  0  0  0  0  0  0  0  0  0
   -3.8715   -1.9007   -1.6755 H   0  0  0  0  0  0  0  0  0  0  0  0
   -4.7202   -0.5176    1.4294 C   0  0  0  0  0  0  0  0  0  0  0  0
   -5.6099   -1.1566    1.6000 H   0  0  0  0  0  0  0  0  0  0  0  0
   -4.9298    0.4935    1.8280 H   0  0  0  0  0  0  0  0  0  0  0  0
   -3.8647   -0.9454    1.9898 H   0  0  0  0  0  0  0  0  0  0  0  0
   -2.4427    2.7275   -0.1932 C   0  0  0  0  0  0  0  0  0  0  0  0
   -3.0393    3.6546   -0.2603 H   0  0  0  0  0  0  0  0  0  0  0  0
   -1.8887    2.5338   -1.1315 H   0  0  0  0  0  0  0  0  0  0  0  0
   -1.7200    2.7729    0.6435 H   0  0  0  0  0  0  0  0  0  0  0  0
  3  2  1  0  0  0  0
  4  2  1  1  0  0  0
  4  5  1  0  0  0  0
  4  1  1  0  0  0  0
  5 14  1  0  0  0  0
  6  7  1  0  0  0  0
  6  9  1  0  0  0  0
  6  5  1  0  0  0  0
  8  6  1  0  0  0  0
 10 11  1  0  0  0  0
 10  5  1  0  0  0  0
 10 12  1  0  0  0  0
 13 10  1  0  0  0  0
 14 15  1  0  0  0  0
 14 16  1  0  0  0  0
 14 17  1  0  0  0  0
 18  1  1  0  0  0  0
 18 21  1  0  0  0  0
 19 18  1  0  0  0  0
 20 18  1  0  0  0  0
M  END
