5
q = 0.0, confidence = 0.996

 31 32  0  0  1  0  0  0  0  0999 V2000
    4.1214    1.7115   -0.2371 N   0  0  0  0  0  0  0  0  0  0  0  0
    3.0661    1.4447    0.6016 C   0  0  2  0  0  3  0  0  0  0  0  0
    2.3520    1.2577   -1.4801 C   0  0  0  0  0  0  0  0  0  0  0  0
    1.6234    1.1050   -2.2801 H   0  0  0  0  0  0  0  0  0  0  0  0
    1.9893    1.1679   -0.1499 N   0  0  0  0  0  2  0  0  0  0  0  0
    5.4788    2.0447    0.1725 C   0  0  0  0  0  0  0  0  0  0  0  0
    5.7287    3.0675   -0.1828 H   0  0  0  0  0  0  0  0  0  0  0  0
    5.5052    2.0582    1.2774 H   0  0  0  0  0  0  0  0  0  0  0  0
    3.6843    1.5921   -1.5487 C   0  0  0  0  0  0  0  0  0  0  0  0
    4.3459    1.7562   -2.4036 H   0  0  0  0  0  0  0  0  0  0  0  0
    6.5297    1.0673   -0.3348 C   0  0  0  0  0  0  0  0  0  0  0  0
    6.5534    0.9634   -1.4372 H   0  0  0  0  0  0  0  0  0  0  0  0
    7.5407    1.3668    0.0072 H   0  0  0  0  0  0  0  0  0  0  0  0
    5.8909   -0.4760    1.7583 O   0  0  0  0  0  0  0  0  0  0  0  0
    6.3737   -0.6326    0.3606 S   0  0  0  0  0  0  0  0  0  0  0  0
    7.6583   -1.3021    0.0486 O   0  0  0  0  0  0  0  0  0  0  0  0
    5.0796   -1.4104   -0.6228 C   0  0  0  0  0  0  0  0  0  0  0  0
    3.8119   -1.6111   -0.0649 C   0  0  0  0  0  0  0  0  0  0  0  0
    3.5877   -1.3199    0.9708 H   0  0  0  0  0  0  0  0  0  0  0  0
    2.8107   -2.1876   -0.8622 C   0  0  0  0  0  0  0  0  0  0  0  0
    1.8116   -2.3146   -0.4190 H   0  0  0  0  0  0  0  0  0  0  0  0
    3.0915   -2.5619   -2.1846 C   0  0  0  0  0  0  0  0  0  0  0  0
    2.3008   -3.0073   -2.8075 H   0  0  0  0  0  0  0  0  0  0  0  0
    5.3897   -1.8052   -1.9359 C   0  0  0  0  0  0  0  0  0  0  0  0
    6.4120   -1.6782   -2.3223 H   0  0  0  0  0  0  0  0  0  0  0  0
    3.1327    1.4971    2.0856 C   0  0  0  0  0  0  0  0  0  0  0  0
    2.2294    1.0068    2.4924 H   0  0  0  0  0  0  0  0  0  0  0  0
    4.0190    0.9447    2.4571 H   0  0  0  0  0  0  0  0  0  0  0  0
    3.1774    2.5447    2.4511 H   0  0  0  0  0  0  0  0  0  0  0  0
    4.3799   -2.3790   -2.7194 C   0  0  0  0  0  0  0  0  0  0  0  0
    4.6011   -2.6925   -3.7509 H   0  0  0  0  0  0  0  0  0  0  0  0
  1  6  1  0  0  0  0
  1  2  1  0  0  0  0
  2 26  1  6  0  0  0
  3  5  1  0  0  0  0
  4  3  1  0  0  0  0
  5  2  1  0  0  0  0
  6  8  1  0  0  0  0
  7  6  1  0  0  0  0
  9  3  2  0  0  0  0
  9  1  1  0  0  0  0
 10  9  1  0  0  0  0
 11 13  1  0  0  0  0
 11  6  1  0  0  0  0
 11 15  1  0  0  0  0
 12 11  1  0  0  0  0
 15 14  2  0  0  0  0
 16 15  2  0  0  0  0
 17 18  1  0  0  0  0
 17 15  1  0  0  0  0
 18 19  1  0  0  0  0
 20 21  1  0  0  0  0
 20 18  2  0  0  0  0
 22 20  1  0  0  0  0
 23 22  1  0  0  0  0
 24 17  2  0  0  0  0
 25 24  1  0  0  0  0
 26 29  1  0  0  0  0
 26 28  1  0  0  0  0
 26 27  1  0  0  0  0
 30 22  2  0  0  0  0
 30 24  1  0  0  0  0
 31 30  1  0  0  0  0
M  END
