1
q = 0.0, confidence = 0.998

 23 25  0  0  1  0  0  0  0  0999 V2000
   -1.0408   -1.1059   -0.3717 N   0  0  0  0  0  2  0  0  0  0  0  0
   -0.8309   -3.2158    0.7047 N   0  0  0  0  0  0  0  0  0  0  0  0
    0.1885   -3.2136    0.4684 H   0  0  0  0  0  0  0  0  0  0  0  0
   -1.2844   -4.1310    0.7223 H   0  0  0  0  0  0  0  0  0  0  0  0
   -2.7767   -2.5606   -0.3478 O   0  0  0  0  0  0  0  0  0  0  0  0
   -1.4986   -2.2758   -0.0025 C   0  0  1  0  0  3  0  0  0  0  0  0
   -3.3213   -1.3427   -0.9151 C   0  0  2  0  0  0  0  0  0  0  0  0
   -3.8865   -1.6340   -1.8197 H   0  0  0  0  0  0  0  0  0  0  0  0
   -2.0737   -0.4609   -1.2160 C   0  0  1  0  0  0  0  0  0  0  0  0
   -1.7189   -0.4732   -2.2669 H   0  0  0  0  0  0  0  0  0  0  0  0
   -4.1873   -0.5579    0.1019 C   0  0  0  0  0  0  0  0  0  0  0  0
   -5.2713   -0.6301   -0.1198 H   0  0  0  0  0  0  0  0  0  0  0  0
   -4.0421   -0.9892    1.1164 H   0  0  0  0  0  0  0  0  0  0  0  0
   -3.6661    0.8589    0.0088 C   0  0  0  0  0  0  0  0  0  0  0  0
   -4.2081    2.0308    0.5577 C   0  0  0  0  0  0  0  0  0  0  0  0
   -5.1268    1.9957    1.1638 H   0  0  0  0  0  0  0  0  0  0  0  0
   -3.5692    3.2582    0.3082 C   0  0  0  0  0  0  0  0  0  0  0  0
   -3.9881    4.1849    0.7297 H   0  0  0  0  0  0  0  0  0  0  0  0
   -2.4129    3.3156   -0.4926 C   0  0  0  0  0  0  0  0  0  0  0  0
   -1.9384    4.2880   -0.6954 H   0  0  0  0  0  0  0  0  0  0  0  0
   -1.8633    2.1430   -1.0386 C   0  0  0  0  0  0  0  0  0  0  0  0
   -0.9523    2.1512   -1.6583 H   0  0  0  0  0  0  0  0  0  0  0  0
   -2.4905    0.9193   -0.7666 C   0  0  0  0  0  0  0  0  0  0  0  0
  1  6  1  0  0  0  0
  2  4  1  0  0  0  0
  3  2  1  0  0  0  0
  5  6  1  0  0  0  0
  6  2  1  1  0  0  0
  7  8  1  6  0  0  0
  7  5  1  0  0  0  0
  7 11  1  0  0  0  0
  9 10  1  6  0  0  0
  9  7  1  0  0  0  0
  9 23  1  0  0  0  0
  9  1  1  0  0  0  0
 11 13  1  0  0  0  0
 12 11  1  0  0  0  0
 14 11  1  0  0  0  0
 14 15  1  0  0  0  0
 15 16  1  0  0  0  0
 17 15  2  0  0  0  0
 17 18  1  0  0  0  0
 19 17  1  0  0  0  0
 20 19  1  0  0  0  0
 21 23  1  0  0  0  0
 21 19  2  0  0  0  0
 22 21  1  0  0  0  0
 23 14  2  0  0  0  0
M  END
