2
q = 0.0, confidence = 0.974

 11 11  0  0  0  0  0  0  0  0999 V2000
   -4.4935    0.6599    0.0116 Br  0  0  0  0  0  0  0  0  0  0  0  0
   -0.7192   -1.0023   -0.1062 N   0  0  0  0  0  2  0  0  0  0  0  0
   -1.7680   -0.1726    0.0829 C   0  0  0  0  0  3  0  0  0  0  0  0
   -1.5394    0.7948    0.5553 H   0  0  0  0  0  0  0  0  0  0  0  0
   -3.0719   -0.5658   -0.2489 C   0  0  0  0  0  0  0  0  0  0  0  0
   -3.3099   -1.8478   -0.7656 C   0  0  0  0  0  0  0  0  0  0  0  0
   -4.3280   -2.1667   -1.0304 H   0  0  0  0  0  0  0  0  0  0  0  0
   -2.2098   -2.7029   -0.9183 C   0  0  0  0  0  0  0  0  0  0  0  0
   -2.3413   -3.7262   -1.2977 H   0  0  0  0  0  0  0  0  0  0  0  0
   -0.9297   -2.2536   -0.5786 C   0  0  0  0  0  0  0  0  0  0  0  0
   -0.0383   -2.8941   -0.6375 H   0  0  0  0  0  0  0  0  0  0  0  0
  2  3  1  0  0  0  0
  3  4  1  0  0  0  0
  5  1  1  0  0  0  0
  5  3  1  0  0  0  0
  6  5  2  0  0  0  0
  7  6  1  0  0  0  0
  8  6  1  0  0  0  0
  8 10  2  0  0  0  0
  9  8  1  0  0  0  0
 10  2  1  0  0  0  0
 11 10  1  0  0  0  0
M  END
