4
q = 0.0, confidence = 1.0

 26 27  0  0  0  0  0  0  0  0999 V2000
    2.6769    2.8098   -2.3230 O   0  0  0  0  0  0  0  0  0  0  0  0
   -6.0459   -0.5725    0.3036 O   0  0  0  0  0  0  0  0  0  0  0  0
   -5.7709   -1.4868    0.5521 H   0  0  0  0  0  0  0  0  0  0  0  0
   -0.6735    1.4790   -2.2733 N   0  0  0  0  0  2  0  0  0  0  0  0
   -1.8759    1.9009   -2.5321 C   0  0  0  0  0  3  0  0  0  0  0  0
   -2.0141    2.7861   -3.1907 H   0  0  0  0  0  0  0  0  0  0  0  0
    0.4447    2.0864   -2.9873 C   0  0  0  0  0  0  0  0  0  0  0  0
    1.0317    1.2596   -3.4411 H   0  0  0  0  0  0  0  0  0  0  0  0
    0.0719    2.7268   -3.8223 H   0  0  0  0  0  0  0  0  0  0  0  0
    1.3327    2.8673   -2.0711 C   0  0  0  0  0  0  0  0  0  0  0  0
    1.0952    3.7033   -1.0005 C   0  0  0  0  0  0  0  0  0  0  0  0
    0.1222    3.9351   -0.5543 H   0  0  0  0  0  0  0  0  0  0  0  0
    2.3787    4.1748   -0.5637 C   0  0  0  0  0  0  0  0  0  0  0  0
    2.5894    4.8467    0.2752 H   0  0  0  0  0  0  0  0  0  0  0  0
    3.3022    3.6016   -1.4053 C   0  0  0  0  0  0  0  0  0  0  0  0
    4.3934    3.6422   -1.4728 H   0  0  0  0  0  0  0  0  0  0  0  0
   -3.0492    1.2508   -1.9631 C   0  0  0  0  0  0  0  0  0  0  0  0
   -4.1737    1.9863   -1.5175 C   0  0  0  0  0  0  0  0  0  0  0  0
   -4.2224    3.0712   -1.7025 H   0  0  0  0  0  0  0  0  0  0  0  0
   -5.1819    1.3725   -0.7674 C   0  0  0  0  0  0  0  0  0  0  0  0
   -6.0229    1.9508   -0.3588 H   0  0  0  0  0  0  0  0  0  0  0  0
   -5.1084   -0.0143   -0.4935 C   0  0  0  0  0  0  0  0  0  0  0  0
   -4.0663   -0.7711   -1.0707 C   0  0  0  0  0  0  0  0  0  0  0  0
   -4.0578   -1.8600   -0.9514 H   0  0  0  0  0  0  0  0  0  0  0  0
   -3.0265   -0.1502   -1.7565 C   0  0  0  0  0  0  0  0  0  0  0  0
   -2.2028   -0.7486   -2.1771 H   0  0  0  0  0  0  0  0  0  0  0  0
  1 10  1  0  0  0  0
  1 15  1  0  0  0  0
  2  3  1  0  0  0  0
  5  4  1  0  0  0  0
  5 17  1  0  0  0  0
  6  5  1  0  0  0  0
  7  4  1  0  0  0  0
  7 10  1  0  0  0  0
  8  7  1  0  0  0  0
  9  7  1  0  0  0  0
 10 11  2  0  0  0  0
 11 13  1  0  0  0  0
 11 12  1  0  0  0  0
 13 14  1  0  0  0  0
 15 13  2  0  0  0  0
 16 15  1  0  0  0  0
 17 25  2  0  0  0  0
 17 18  1  0  0  0  0
 18 20  2  0  0  0  0
 19 18  1  0  0  0  0
 20 22  1  0  0  0  0
 20 21  1  0  0  0  0
 22  2  1  0  0  0  0
 23 24  1  0  0  0  0
 23 22  2  0  0  0  0
 25 23  1  0  0  0  0
 26 25  1  0  0  0  0
M  END
