2
q = -1.0

 41 42  0  0  0  0  0  0  0  0999 V2000
    0.0414   -1.4518   -1.4102 F   0  0  0  0  0  0  0  0  0  0  0  0
   -1.9914   -0.1954   -0.3417 N   0  0  0  0  0  2  0  0  0  0  0  0
   -3.1048    0.4992    0.2535 C   0  0  0  0  0  0  0  0  0  0  0  0
   -3.6650    1.6245   -0.4125 C   0  0  0  0  0  0  0  0  0  0  0  0
   -3.1997    2.0564   -1.7965 C   0  0  0  0  0  0  0  0  0  0  0  0
   -2.2829    1.4823   -2.0318 H   0  0  0  0  0  0  0  0  0  0  0  0
   -2.8327    3.5472   -1.8529 C   0  0  0  0  0  0  0  0  0  0  0  0
   -2.4031    3.8017   -2.8427 H   0  0  0  0  0  0  0  0  0  0  0  0
   -2.0809    3.8049   -1.0809 H   0  0  0  0  0  0  0  0  0  0  0  0
   -3.7193    4.1965   -1.6973 H   0  0  0  0  0  0  0  0  0  0  0  0
   -4.2513    1.6917   -2.8603 C   0  0  0  0  0  0  0  0  0  0  0  0
   -3.8913    1.9632   -3.8741 H   0  0  0  0  0  0  0  0  0  0  0  0
   -5.2060    2.2303   -2.6839 H   0  0  0  0  0  0  0  0  0  0  0  0
   -4.4692    0.6049   -2.8549 H   0  0  0  0  0  0  0  0  0  0  0  0
   -4.7146    2.3210    0.2169 C   0  0  0  0  0  0  0  0  0  0  0  0
   -5.1496    3.1996   -0.2836 H   0  0  0  0  0  0  0  0  0  0  0  0
   -5.2141    1.9152    1.4585 C   0  0  0  0  0  0  0  0  0  0  0  0
   -6.0297    2.4783    1.9375 H   0  0  0  0  0  0  0  0  0  0  0  0
   -4.6811    0.7814    2.0836 C   0  0  0  0  0  0  0  0  0  0  0  0
   -5.0889    0.4532    3.0523 H   0  0  0  0  0  0  0  0  0  0  0  0
   -3.6327    0.0498    1.4981 C   0  0  0  0  0  0  0  0  0  0  0  0
   -3.1052   -1.1953    2.2010 C   0  0  0  0  0  0  0  0  0  0  0  0
   -2.3401   -1.6472    1.5431 H   0  0  0  0  0  0  0  0  0  0  0  0
   -2.4213   -0.8470    3.5346 C   0  0  0  0  0  0  0  0  0  0  0  0
   -1.9723   -1.7527    3.9928 H   0  0  0  0  0  0  0  0  0  0  0  0
   -3.1487   -0.4301    4.2619 H   0  0  0  0  0  0  0  0  0  0  0  0
   -1.6212   -0.0945    3.3941 H   0  0  0  0  0  0  0  0  0  0  0  0
   -4.2097   -2.2477    2.3981 C   0  0  0  0  0  0  0  0  0  0  0  0
   -3.7917   -3.1677    2.8564 H   0  0  0  0  0  0  0  0  0  0  0  0
   -4.6751   -2.5304    1.4330 H   0  0  0  0  0  0  0  0  0  0  0  0
   -5.0134   -1.8788    3.0685 H   0  0  0  0  0  0  0  0  0  0  0  0
   -2.2815   -1.3323   -1.0840 C   0  0  0  0  0  0  0  0  0  0  0  0
   -3.5660   -1.8763   -1.3378 C   0  0  0  0  0  0  0  0  0  0  0  0
   -4.4449   -1.3712   -0.9134 H   0  0  0  0  0  0  0  0  0  0  0  0
   -3.7059   -3.0319   -2.1221 C   0  0  0  0  0  0  0  0  0  0  0  0
   -4.7148   -3.4320   -2.3035 H   0  0  0  0  0  0  0  0  0  0  0  0
   -2.5922   -3.6838   -2.6779 C   0  0  0  0  0  0  0  0  0  0  0  0
   -2.7176   -4.5883   -3.2895 H   0  0  0  0  0  0  0  0  0  0  0  0
   -1.3017   -3.1657   -2.4497 C   0  0  0  0  0  0  0  0  0  0  0  0
   -0.3951   -3.6284   -2.8644 H   0  0  0  0  0  0  0  0  0  0  0  0
   -1.2072   -2.0266   -1.6716 C   0  0  0  0  0  0  0  0  0  0  0  0
  2  3  1  0  0  0  0
  3 21  1  0  0  0  0
  4 15  1  0  0  0  0
  4  3  2  0  0  0  0
  5  4  1  0  0  0  0
  6  5  1  0  0  0  0
  7  5  1  0  0  0  0
  7 10  1  0  0  0  0
  7  9  1  0  0  0  0
  8  7  1  0  0  0  0
 11 14  1  0  0  0  0
 11 13  1  0  0  0  0
 11  5  1  0  0  0  0
 12 11  1  0  0  0  0
 15 17  2  0  0  0  0
 16 15  1  0  0  0  0
 17 18  1  0  0  0  0
 17 19  1  0  0  0  0
 19 20  1  0  0  0  0
 21 19  2  0  0  0  0
 21 22  1  0  0  0  0
 22 28  1  0  0  0  0
 22 24  1  0  0  0  0
 23 22  1  0  0  0  0
 24 25  1  0  0  0  0
 24 26  1  0  0  0  0
 27 24  1  0  0  0  0
 28 29  1  0  0  0  0
 28 31  1  0  0  0  0
 30 28  1  0  0  0  0
 32  2  1  0  0  0  0
 33 32  1  0  0  0  0
 33 34  1  0  0  0  0
 35 33  2  0  0  0  0
 36 35  1  0  0  0  0
 37 39  2  0  0  0  0
 37 35  1  0  0  0  0
 38 37  1  0  0  0  0
 39 41  1  0  0  0  0
 40 39  1  0  0  0  0
 41  1  1  0  0  0  0
 41 32  2  0  0  0  0
M  END
