2
q = 0.0, confidence = 0.998

 25 26  0  0  0  0  0  0  0  0999 V2000
   -6.8214    1.7983    0.4224 O   0  0  0  0  0  0  0  0  0  0  0  0
   -1.9176   -0.0618   -0.0490 N   0  0  0  0  0  2  0  0  0  0  0  0
   -6.1160   -0.3196   -0.1595 N   0  0  0  0  0  0  0  0  0  0  0  0
   -2.6718    1.0104    0.2865 C   0  0  0  0  0  3  0  0  0  0  0  0
   -4.0656    0.9998    0.2706 C   0  0  0  0  0  0  0  0  0  0  0  0
   -4.7324   -0.1855   -0.1150 C   0  0  0  0  0  0  0  0  0  0  0  0
   -3.9336   -1.2964   -0.4727 C   0  0  0  0  0  0  0  0  0  0  0  0
   -2.5476   -1.1984   -0.4279 C   0  0  0  0  0  0  0  0  0  0  0  0
   -7.0894    0.6380    0.1259 C   0  0  0  0  0  0  0  0  0  0  0  0
   -8.5056    0.1436    0.0235 C   0  0  0  0  0  0  0  0  0  0  0  0
   -9.5113    1.1230   -0.1105 C   0  0  0  0  0  0  0  0  0  0  0  0
  -10.8563    0.7484   -0.2061 C   0  0  0  0  0  0  0  0  0  0  0  0
  -11.2151   -0.6091   -0.1522 C   0  0  0  0  0  0  0  0  0  0  0  0
  -10.2232   -1.5902    0.0039 C   0  0  0  0  0  0  0  0  0  0  0  0
   -8.8747   -1.2167    0.0917 C   0  0  0  0  0  0  0  0  0  0  0  0
   -6.4571   -1.2224   -0.4937 H   0  0  0  0  0  0  0  0  0  0  0  0
   -2.1236    1.9191    0.5771 H   0  0  0  0  0  0  0  0  0  0  0  0
   -4.6385    1.8916    0.5458 H   0  0  0  0  0  0  0  0  0  0  0  0
   -4.3922   -2.2450   -0.7904 H   0  0  0  0  0  0  0  0  0  0  0  0
   -1.9117   -2.0449   -0.7195 H   0  0  0  0  0  0  0  0  0  0  0  0
   -9.2033    2.1784   -0.1361 H   0  0  0  0  0  0  0  0  0  0  0  0
  -11.6329    1.5195   -0.3208 H   0  0  0  0  0  0  0  0  0  0  0  0
  -12.2729   -0.9039   -0.2238 H   0  0  0  0  0  0  0  0  0  0  0  0
  -10.5014   -2.6527    0.0681 H   0  0  0  0  0  0  0  0  0  0  0  0
   -8.1193   -2.0023    0.2541 H   0  0  0  0  0  0  0  0  0  0  0  0
  2  4  1  0  0  0  0
  3  6  1  0  0  0  0
  3  9  1  0  0  0  0
  4 17  1  0  0  0  0
  5  4  1  0  0  0  0
  5 18  1  0  0  0  0
  6  5  2  0  0  0  0
  7  8  2  0  0  0  0
  7  6  1  0  0  0  0
  8  2  1  0  0  0  0
  9  1  2  0  0  0  0
 10 15  1  0  0  0  0
 10  9  1  0  0  0  0
 11 10  2  0  0  0  0
 12 13  2  0  0  0  0
 12 11  1  0  0  0  0
 13 14  1  0  0  0  0
 14 24  1  0  0  0  0
 14 15  2  0  0  0  0
 15 25  1  0  0  0  0
 16  3  1  0  0  0  0
 19  7  1  0  0  0  0
 20  8  1  0  0  0  0
 21 11  1  0  0  0  0
 22 12  1  0  0  0  0
 23 13  1  0  0  0  0
M  END
