1
q = -1.0, confidence = 0.0

 18 19  0  0  0  0  0  0  0  0999 V2000
    1.1035   -2.3701   -0.2151 N   0  0  0  0  0  2  0  0  0  0  0  0
    3.1477   -3.4727   -0.2728 N   0  0  0  0  0  0  0  0  0  0  0  0
    2.4641   -2.2762   -0.1931 C   0  0  0  0  0  0  0  0  0  0  0  0
    4.4654   -3.4583   -0.2531 C   0  0  0  0  0  0  0  0  0  0  0  0
    5.2689   -2.2829   -0.1536 C   0  0  0  0  0  0  0  0  0  0  0  0
    6.6894   -2.3079   -0.1331 C   0  0  0  0  0  0  0  0  0  0  0  0
    7.4170   -1.1293   -0.0349 C   0  0  0  0  0  0  0  0  0  0  0  0
    6.7295    0.1163    0.0455 C   0  0  0  0  0  0  0  0  0  0  0  0
    5.3448    0.1728    0.0275 C   0  0  0  0  0  0  0  0  0  0  0  0
    4.5646   -1.0245   -0.0723 C   0  0  0  0  0  0  0  0  0  0  0  0
    3.1546   -1.0449   -0.0954 C   0  0  0  0  0  0  0  0  0  0  0  0
    0.8106   -3.3489   -0.2887 H   0  0  0  0  0  0  0  0  0  0  0  0
    4.9747   -4.4408   -0.3193 H   0  0  0  0  0  0  0  0  0  0  0  0
    7.2025   -3.2816   -0.1965 H   0  0  0  0  0  0  0  0  0  0  0  0
    8.5170   -1.1510   -0.0190 H   0  0  0  0  0  0  0  0  0  0  0  0
    7.3118    1.0485    0.1231 H   0  0  0  0  0  0  0  0  0  0  0  0
    4.8188    1.1376    0.0897 H   0  0  0  0  0  0  0  0  0  0  0  0
    2.5898   -0.1009   -0.0366 H   0  0  0  0  0  0  0  0  0  0  0  0
  1  3  1  0  0  0  0
  2  4  2  0  0  0  0
  2  3  1  0  0  0  0
  3 11  2  0  0  0  0
  4  5  1  0  0  0  0
  5  6  2  0  0  0  0
  5 10  1  0  0  0  0
  6  7  1  0  0  0  0
  7 15  1  0  0  0  0
  7  8  2  0  0  0  0
  8 16  1  0  0  0  0
  9  8  1  0  0  0  0
  9 17  1  0  0  0  0
 10  9  2  0  0  0  0
 11 10  1  0  0  0  0
 11 18  1  0  0  0  0
 12  1  1  0  0  0  0
 13  4  1  0  0  0  0
 14  6  1  0  0  0  0
M  END
