1
q = -2.0, confidence = 0.504

 29 30  0  0  0  0  0  0  0  0999 V2000
    0.5958    1.0365   -0.7894 N   0  0  0  0  0  2  0  0  0  0  0  0
   -0.4505    0.3685   -1.5070 C   0  0  0  0  0  3  0  0  0  0  0  0
   -1.8247    0.5978   -1.0650 C   0  0  0  0  0  0  0  0  0  0  0  0
   -2.9616    0.4834   -1.8097 C   0  0  0  0  0  0  0  0  0  0  0  0
    0.7983    2.4117   -0.7764 C   0  0  0  0  0  0  0  0  0  0  0  0
    0.0552    3.2657   -1.6307 C   0  0  0  0  0  0  0  0  0  0  0  0
    0.2516    4.6523   -1.5956 C   0  0  0  0  0  0  0  0  0  0  0  0
    1.1820    5.2226   -0.7118 C   0  0  0  0  0  0  0  0  0  0  0  0
    1.9178    4.3822    0.1418 C   0  0  0  0  0  0  0  0  0  0  0  0
    1.7348    2.9962    0.1141 C   0  0  0  0  0  0  0  0  0  0  0  0
   -4.3294    0.5955   -1.3007 C   0  0  0  0  0  0  0  0  0  0  0  0
   -5.4198    0.5394   -2.2039 C   0  0  0  0  0  0  0  0  0  0  0  0
   -6.7437    0.6358   -1.7555 C   0  0  0  0  0  0  0  0  0  0  0  0
   -7.0164    0.7891   -0.3869 C   0  0  0  0  0  0  0  0  0  0  0  0
   -5.9470    0.8427    0.5254 C   0  0  0  0  0  0  0  0  0  0  0  0
   -4.6252    0.7446    0.0801 C   0  0  0  0  0  0  0  0  0  0  0  0
   -0.3104    0.2406   -2.6046 H   0  0  0  0  0  0  0  0  0  0  0  0
   -1.9164    0.8625    0.0035 H   0  0  0  0  0  0  0  0  0  0  0  0
   -2.8674    0.2830   -2.8921 H   0  0  0  0  0  0  0  0  0  0  0  0
   -0.6883    2.8271   -2.3106 H   0  0  0  0  0  0  0  0  0  0  0  0
   -0.3377    5.2964   -2.2666 H   0  0  0  0  0  0  0  0  0  0  0  0
    1.3300    6.3124   -0.6848 H   0  0  0  0  0  0  0  0  0  0  0  0
    2.6540    4.8094    0.8399 H   0  0  0  0  0  0  0  0  0  0  0  0
    2.3244    2.3515    0.7800 H   0  0  0  0  0  0  0  0  0  0  0  0
   -5.2131    0.4203   -3.2796 H   0  0  0  0  0  0  0  0  0  0  0  0
   -7.5706    0.5906   -2.4811 H   0  0  0  0  0  0  0  0  0  0  0  0
   -8.0553    0.8636   -0.0315 H   0  0  0  0  0  0  0  0  0  0  0  0
   -6.1448    0.9589    1.6025 H   0  0  0  0  0  0  0  0  0  0  0  0
   -3.8104    0.7844    0.8183 H   0  0  0  0  0  0  0  0  0  0  0  0
  1  5  1  0  0  0  0
  2  3  1  0  0  0  0
  2  1  1  0  0  0  0
  3 18  1  0  0  0  0
  4 11  1  0  0  0  0
  4  3  2  0  0  0  0
  5 10  1  0  0  0  0
  6  7  1  0  0  0  0
  6  5  2  0  0  0  0
  7  8  2  0  0  0  0
  8 22  1  0  0  0  0
  8  9  1  0  0  0  0
  9 23  1  0  0  0  0
 10  9  2  0  0  0  0
 10 24  1  0  0  0  0
 11 16  1  0  0  0  0
 12 13  1  0  0  0  0
 12 11  2  0  0  0  0
 13 14  2  0  0  0  0
 14 27  1  0  0  0  0
 14 15  1  0  0  0  0
 15 28  1  0  0  0  0
 16 15  2  0  0  0  0
 16 29  1  0  0  0  0
 17  2  1  0  0  0  0
 19  4  1  0  0  0  0
 20  6  1  0  0  0  0
 21  7  1  0  0  0  0
 25 12  1  0  0  0  0
 26 13  1  0  0  0  0
M  END
