4
q = -1.0

 50 50  0  0  1  0  0  0  0  0999 V2000
   -1.0601    1.9713    1.2384 S   0  0  0  0  0  0  0  0  0  0  0  0
    3.7387    0.9779   -1.2214 O   0  0  0  0  0  0  0  0  0  0  0  0
    4.2570    0.2222    0.8975 O   0  0  0  0  0  0  0  0  0  0  0  0
   -0.2147    0.4078   -0.5426 N   0  0  0  0  0  2  0  0  0  0  0  0
    2.5054    1.5723    0.6239 N   0  0  0  0  0  0  0  0  0  0  0  0
    2.3834    1.4145    1.6256 H   0  0  0  0  0  0  0  0  0  0  0  0
    1.1355   -1.5916   -0.9475 C   0  0  0  0  0  0  0  0  0  0  0  0
    1.3467   -1.7004    0.4418 C   0  0  0  0  0  0  0  0  0  0  0  0
    1.0831   -0.8553    1.0919 H   0  0  0  0  0  0  0  0  0  0  0  0
    1.8660   -2.8762    1.0050 C   0  0  0  0  0  0  0  0  0  0  0  0
    2.0213   -2.9351    2.0935 H   0  0  0  0  0  0  0  0  0  0  0  0
    2.1850   -3.9720    0.1872 C   0  0  0  0  0  0  0  0  0  0  0  0
    2.5876   -4.8970    0.6267 H   0  0  0  0  0  0  0  0  0  0  0  0
    1.9932   -3.8702   -1.1996 C   0  0  0  0  0  0  0  0  0  0  0  0
    2.2457   -4.7179   -1.8548 H   0  0  0  0  0  0  0  0  0  0  0  0
    1.4755   -2.6919   -1.7595 C   0  0  0  0  0  0  0  0  0  0  0  0
    1.3275   -2.6361   -2.8473 H   0  0  0  0  0  0  0  0  0  0  0  0
    0.5729   -0.2993   -1.5468 C   0  0  1  0  0  0  0  0  0  0  0  0
    1.4603    0.3226   -1.8071 H   0  0  0  0  0  0  0  0  0  0  0  0
   -0.2541   -0.4936   -2.8213 C   0  0  0  0  0  0  0  0  0  0  0  0
   -1.0849   -1.2057   -2.6506 H   0  0  0  0  0  0  0  0  0  0  0  0
    0.3747   -0.8664   -3.6522 H   0  0  0  0  0  0  0  0  0  0  0  0
   -0.7081    0.4712   -3.1147 H   0  0  0  0  0  0  0  0  0  0  0  0
    0.1482    1.5010    0.0829 C   0  0  0  0  0  0  0  0  0  0  0  0
    1.4577    2.2522   -0.1232 C   0  0  1  0  0  0  0  0  0  0  0  0
    1.7598    2.1441   -1.1863 H   0  0  0  0  0  0  0  0  0  0  0  0
    1.3420    3.7655    0.1691 C   0  0  0  0  0  0  0  0  0  0  0  0
    0.8842    3.8778    1.1794 H   0  0  0  0  0  0  0  0  0  0  0  0
    0.4082    4.4174   -0.8588 C   0  0  0  0  0  0  0  0  0  0  0  0
    0.8599    4.3736   -1.8729 H   0  0  0  0  0  0  0  0  0  0  0  0
    0.2380    5.4846   -0.6127 H   0  0  0  0  0  0  0  0  0  0  0  0
   -0.5782    3.9137   -0.9031 H   0  0  0  0  0  0  0  0  0  0  0  0
    2.7225    4.4293    0.1759 C   0  0  0  0  0  0  0  0  0  0  0  0
    3.2292    4.2968   -0.8033 H   0  0  0  0  0  0  0  0  0  0  0  0
    3.3844    4.0005    0.9535 H   0  0  0  0  0  0  0  0  0  0  0  0
    2.6285    5.5174    0.3649 H   0  0  0  0  0  0  0  0  0  0  0  0
    3.5340    0.9199   -0.0119 C   0  0  0  0  0  0  0  0  0  0  0  0
    5.4691   -0.5086    0.4880 C   0  0  0  0  0  0  0  0  0  0  0  0
    5.1312   -1.5696   -0.5649 C   0  0  0  0  0  0  0  0  0  0  0  0
    6.0273   -2.1929   -0.7581 H   0  0  0  0  0  0  0  0  0  0  0  0
    4.8090   -1.0995   -1.5106 H   0  0  0  0  0  0  0  0  0  0  0  0
    4.3198   -2.2303   -0.2039 H   0  0  0  0  0  0  0  0  0  0  0  0
    5.9158   -1.1678    1.7947 C   0  0  0  0  0  0  0  0  0  0  0  0
    5.1316   -1.8576    2.1650 H   0  0  0  0  0  0  0  0  0  0  0  0
    6.1071   -0.4034    2.5735 H   0  0  0  0  0  0  0  0  0  0  0  0
    6.8458   -1.7468    1.6322 H   0  0  0  0  0  0  0  0  0  0  0  0
    6.5158    0.4913   -0.0140 C   0  0  0  0  0  0  0  0  0  0  0  0
    7.4648   -0.0363   -0.2359 H   0  0  0  0  0  0  0  0  0  0  0  0
    6.7196    1.2599    0.7583 H   0  0  0  0  0  0  0  0  0  0  0  0
    6.1650    0.9913   -0.9357 H   0  0  0  0  0  0  0  0  0  0  0  0
  2 37  2  0  0  0  0
  4 24  1  0  0  0  0
  5  6  1  0  0  0  0
  7  8  1  0  0  0  0
  8 10  2  0  0  0  0
  8  9  1  0  0  0  0
 10 11  1  0  0  0  0
 12 13  1  0  0  0  0
 12 10  1  0  0  0  0
 14 12  2  0  0  0  0
 15 14  1  0  0  0  0
 16 14  1  0  0  0  0
 16  7  2  0  0  0  0
 17 16  1  0  0  0  0
 18 19  1  6  0  0  0
 18  7  1  0  0  0  0
 18  4  1  0  0  0  0
 20 21  1  0  0  0  0
 20 18  1  0  0  0  0
 22 20  1  0  0  0  0
 23 20  1  0  0  0  0
 24  1  2  0  0  0  0
 25 26  1  6  0  0  0
 25 24  1  0  0  0  0
 25 27  1  0  0  0  0
 25  5  1  0  0  0  0
 27 33  1  0  0  0  0
 27 28  1  0  0  0  0
 29 31  1  0  0  0  0
 29 27  1  0  0  0  0
 30 29  1  0  0  0  0
 32 29  1  0  0  0  0
 33 36  1  0  0  0  0
 33 35  1  0  0  0  0
 34 33  1  0  0  0  0
 37  5  1  0  0  0  0
 37  3  1  0  0  0  0
 38  3  1  0  0  0  0
 38 43  1  0  0  0  0
 39 42  1  0  0  0  0
 39 38  1  0  0  0  0
 40 39  1  0  0  0  0
 41 39  1  0  0  0  0
 43 44  1  0  0  0  0
 43 45  1  0  0  0  0
 46 43  1  0  0  0  0
 47 38  1  0  0  0  0
 47 49  1  0  0  0  0
 48 47  1  0  0  0  0
 50 47  1  0  0  0  0
M  END
