1
q = 0.0, confidence = 0.998

 52 56  0  0  1  0  0  0  0  0999 V2000
    1.3719    1.0878   -0.9646 N   0  0  0  0  0  2  0  0  0  0  0  0
    1.7630    3.2477   -1.4742 O   0  0  0  0  0  0  0  0  0  0  0  0
   -1.4353    0.2921   -0.2517 P   0  0  0  0  0  0  0  0  0  0  0  0
    2.8004    1.2907   -0.6273 C   0  0  2  0  0  0  0  0  0  0  0  0
    3.0024    1.1443    0.8706 C   0  0  0  0  0  0  0  0  0  0  0  0
    3.7650    0.0779    1.3796 C   0  0  0  0  0  0  0  0  0  0  0  0
    3.9243   -0.0774    2.7656 C   0  0  0  0  0  0  0  0  0  0  0  0
    3.3239    0.8311    3.6502 C   0  0  0  0  0  0  0  0  0  0  0  0
    2.5585    1.8958    3.1462 C   0  0  0  0  0  0  0  0  0  0  0  0
    2.3957    2.0499    1.7634 C   0  0  0  0  0  0  0  0  0  0  0  0
    3.0788    2.7033   -1.2013 C   0  0  0  0  0  0  0  0  0  0  0  0
    0.8789    2.2201   -1.3691 C   0  0  1  0  0  3  0  0  0  0  0  0
   -0.5097    2.5295   -1.7633 C   0  0  0  0  0  0  0  0  0  0  0  0
   -0.7045    3.6616   -2.5860 C   0  0  0  0  0  0  0  0  0  0  0  0
   -1.9792    4.0094   -3.0489 C   0  0  0  0  0  0  0  0  0  0  0  0
   -3.0849    3.2285   -2.6853 C   0  0  0  0  0  0  0  0  0  0  0  0
   -2.9113    2.1169   -1.8461 C   0  0  0  0  0  0  0  0  0  0  0  0
   -1.6396    1.7500   -1.3679 C   0  0  0  0  0  0  0  0  0  0  0  0
   -3.0931   -0.4986   -0.2066 C   0  0  0  0  0  0  0  0  0  0  0  0
   -4.0980   -0.1249    0.7100 C   0  0  0  0  0  0  0  0  0  0  0  0
   -5.3225   -0.8100    0.7260 C   0  0  0  0  0  0  0  0  0  0  0  0
   -5.5515   -1.8661   -0.1718 C   0  0  0  0  0  0  0  0  0  0  0  0
   -4.5518   -2.2421   -1.0841 C   0  0  0  0  0  0  0  0  0  0  0  0
   -3.3220   -1.5687   -1.0958 C   0  0  0  0  0  0  0  0  0  0  0  0
   -1.2748    1.0721    1.4130 C   0  0  0  0  0  0  0  0  0  0  0  0
   -1.5554    2.4319    1.6553 C   0  0  0  0  0  0  0  0  0  0  0  0
   -1.3990    2.9643    2.9458 C   0  0  0  0  0  0  0  0  0  0  0  0
   -0.9719    2.1421    4.0002 C   0  0  0  0  0  0  0  0  0  0  0  0
   -0.6878    0.7874    3.7594 C   0  0  0  0  0  0  0  0  0  0  0  0
   -0.8273    0.2507    2.4721 C   0  0  0  0  0  0  0  0  0  0  0  0
    3.3899    0.5065   -1.1412 H   0  0  0  0  0  0  0  0  0  0  0  0
    4.2123   -0.6440    0.6786 H   0  0  0  0  0  0  0  0  0  0  0  0
    4.5148   -0.9201    3.1559 H   0  0  0  0  0  0  0  0  0  0  0  0
    3.4451    0.7052    4.7369 H   0  0  0  0  0  0  0  0  0  0  0  0
    2.0705    2.6023    3.8335 H   0  0  0  0  0  0  0  0  0  0  0  0
    1.7702    2.8720    1.3799 H   0  0  0  0  0  0  0  0  0  0  0  0
    3.5911    3.3788   -0.4906 H   0  0  0  0  0  0  0  0  0  0  0  0
    3.6426    2.6733   -2.1566 H   0  0  0  0  0  0  0  0  0  0  0  0
    0.1717    4.2609   -2.8682 H   0  0  0  0  0  0  0  0  0  0  0  0
   -2.1052    4.8887   -3.6978 H   0  0  0  0  0  0  0  0  0  0  0  0
   -4.0919    3.4870   -3.0462 H   0  0  0  0  0  0  0  0  0  0  0  0
   -3.7849    1.5194   -1.5465 H   0  0  0  0  0  0  0  0  0  0  0  0
   -3.9143    0.6977    1.4181 H   0  0  0  0  0  0  0  0  0  0  0  0
   -6.1021   -0.5193    1.4468 H   0  0  0  0  0  0  0  0  0  0  0  0
   -6.5113   -2.4048   -0.1537 H   0  0  0  0  0  0  0  0  0  0  0  0
   -4.7223   -3.0788   -1.7783 H   0  0  0  0  0  0  0  0  0  0  0  0
   -2.5159   -1.8840   -1.7768 H   0  0  0  0  0  0  0  0  0  0  0  0
   -1.8984    3.0790    0.8338 H   0  0  0  0  0  0  0  0  0  0  0  0
   -1.6185    4.0278    3.1272 H   0  0  0  0  0  0  0  0  0  0  0  0
   -0.8524    2.5606    5.0114 H   0  0  0  0  0  0  0  0  0  0  0  0
   -0.3339    0.1408    4.5764 H   0  0  0  0  0  0  0  0  0  0  0  0
   -0.5684   -0.8064    2.2929 H   0  0  0  0  0  0  0  0  0  0  0  0
  1  4  1  0  0  0  0
  2 12  1  0  0  0  0
  2 11  1  0  0  0  0
  3 19  1  0  0  0  0
  3 25  1  0  0  0  0
  4 31  1  6  0  0  0
  4  5  1  0  0  0  0
  5  6  2  0  0  0  0
  5 10  1  0  0  0  0
  6  7  1  0  0  0  0
  7 33  1  0  0  0  0
  7  8  2  0  0  0  0
  8 34  1  0  0  0  0
  9  8  1  0  0  0  0
  9 35  1  0  0  0  0
 10  9  2  0  0  0  0
 11  4  1  0  0  0  0
 11 37  1  0  0  0  0
 12 13  1  6  0  0  0
 12  1  1  0  0  0  0
 13 18  1  0  0  0  0
 14 13  2  0  0  0  0
 15 16  2  0  0  0  0
 15 14  1  0  0  0  0
 16 17  1  0  0  0  0
 17 42  1  0  0  0  0
 17 18  2  0  0  0  0
 18  3  1  0  0  0  0
 19 20  1  0  0  0  0
 20 21  2  0  0  0  0
 20 43  1  0  0  0  0
 21 44  1  0  0  0  0
 22 45  1  0  0  0  0
 22 21  1  0  0  0  0
 23 22  2  0  0  0  0
 24 23  1  0  0  0  0
 24 19  2  0  0  0  0
 25 26  2  0  0  0  0
 25 30  1  0  0  0  0
 26 27  1  0  0  0  0
 27 49  1  0  0  0  0
 27 28  2  0  0  0  0
 28 50  1  0  0  0  0
 29 28  1  0  0  0  0
 29 51  1  0  0  0  0
 30 29  2  0  0  0  0
 32  6  1  0  0  0  0
 36 10  1  0  0  0  0
 38 11  1  0  0  0  0
 39 14  1  0  0  0  0
 40 15  1  0  0  0  0
 41 16  1  0  0  0  0
 46 23  1  0  0  0  0
 47 24  1  0  0  0  0
 48 26  1  0  0  0  0
 52 30  1  0  0  0  0
M  END
