3
q = -1.0, confidence = 0.0

 32 34  0  0  1  0  0  0  0  0999 V2000
    6.3055    0.2430   -1.2393 Cl  0  0  0  0  0  0  0  0  0  0  0  0
    1.3746   -2.2246    1.1264 N   0  0  0  0  0  0  0  0  0  0  0  0
    0.0891   -0.2553   -0.5284 N   0  0  0  0  0  2  0  0  0  0  0  0
   -0.6010   -3.3654    0.9400 O   0  0  0  0  0  0  0  0  0  0  0  0
    0.1387   -2.4938    0.4954 C   0  0  0  0  0  0  0  0  0  0  0  0
   -0.2130   -1.6184   -0.6657 C   0  0  0  0  0  3  0  0  0  0  0  0
   -0.0969   -2.0477   -1.6803 H   0  0  0  0  0  0  0  0  0  0  0  0
    1.1939    0.3996   -0.3124 C   0  0  2  0  0  3  0  0  0  0  0  0
    3.6384    0.2063   -0.6869 C   0  0  0  0  0  0  0  0  0  0  0  0
    3.5970    1.1842   -1.1856 H   0  0  0  0  0  0  0  0  0  0  0  0
    4.8564   -0.4694   -0.5832 C   0  0  0  0  0  0  0  0  0  0  0  0
    4.9139   -1.7241    0.0463 C   0  0  0  0  0  0  0  0  0  0  0  0
    5.8715   -2.2576    0.1221 H   0  0  0  0  0  0  0  0  0  0  0  0
    3.7444   -2.2830    0.5668 C   0  0  0  0  0  0  0  0  0  0  0  0
    3.8030   -3.2660    1.0526 H   0  0  0  0  0  0  0  0  0  0  0  0
    2.4942   -1.6263    0.4828 C   0  0  0  0  0  0  0  0  0  0  0  0
    2.4495   -0.3524   -0.1657 C   0  0  0  0  0  0  0  0  0  0  0  0
    1.1287    1.8737   -0.2169 C   0  0  0  0  0  0  0  0  0  0  0  0
    0.1980    2.5785   -1.0162 C   0  0  0  0  0  0  0  0  0  0  0  0
   -0.4095    2.0195   -1.7461 H   0  0  0  0  0  0  0  0  0  0  0  0
    0.0662    3.9655   -0.8762 C   0  0  0  0  0  0  0  0  0  0  0  0
   -0.6522    4.5095   -1.5082 H   0  0  0  0  0  0  0  0  0  0  0  0
    0.8511    4.6635    0.0588 C   0  0  0  0  0  0  0  0  0  0  0  0
    0.7410    5.7531    0.1680 H   0  0  0  0  0  0  0  0  0  0  0  0
    1.7856    3.9699    0.8452 C   0  0  0  0  0  0  0  0  0  0  0  0
    2.4039    4.5129    1.5759 H   0  0  0  0  0  0  0  0  0  0  0  0
    1.9301    2.5826    0.7052 C   0  0  0  0  0  0  0  0  0  0  0  0
    2.6509    2.0356    1.3315 H   0  0  0  0  0  0  0  0  0  0  0  0
    1.6197   -2.9903    2.3484 C   0  0  0  0  0  0  0  0  0  0  0  0
    0.6680   -3.0606    2.9057 H   0  0  0  0  0  0  0  0  0  0  0  0
    2.3828   -2.4716    2.9578 H   0  0  0  0  0  0  0  0  0  0  0  0
    1.9524   -4.0307    2.1450 H   0  0  0  0  0  0  0  0  0  0  0  0
  1 11  1  0  0  0  0
  2 29  1  0  0  0  0
  3  8  1  0  0  0  0
  5  4  2  0  0  0  0
  5  2  1  0  0  0  0
  6  3  1  0  0  0  0
  6  5  1  0  0  0  0
  7  6  1  0  0  0  0
  8 18  1  1  0  0  0
  8 17  1  0  0  0  0
  9 11  2  0  0  0  0
  9 17  1  0  0  0  0
 10  9  1  0  0  0  0
 11 12  1  0  0  0  0
 12 13  1  0  0  0  0
 12 14  2  0  0  0  0
 14 15  1  0  0  0  0
 16 14  1  0  0  0  0
 16  2  1  0  0  0  0
 17 16  2  0  0  0  0
 18 27  1  0  0  0  0
 19 21  1  0  0  0  0
 19 18  2  0  0  0  0
 20 19  1  0  0  0  0
 21 23  2  0  0  0  0
 22 21  1  0  0  0  0
 23 24  1  0  0  0  0
 23 25  1  0  0  0  0
 25 26  1  0  0  0  0
 27 25  2  0  0  0  0
 27 28  1  0  0  0  0
 29 30  1  0  0  0  0
 29 31  1  0  0  0  0
 32 29  1  0  0  0  0
M  END
