15
q = -1.0

 21 21  0  0  0  0  0  0  0  0999 V2000
   -1.8778    1.3523    0.3655 N   0  0  0  0  0  0  0  0  0  0  0  0
   -2.0668    0.1768    1.0095 C   0  0  0  0  0  3  0  0  0  0  0  0
   -1.6914   -0.0703    2.0101 H   0  0  0  0  0  0  0  0  0  0  0  0
   -2.7118   -0.6612    0.1817 N   0  0  0  0  0  0  0  0  0  0  0  0
   -2.9328   -0.0171   -1.0243 C   0  0  0  0  0  0  0  0  0  0  0  0
   -3.4333   -0.5090   -1.8641 H   0  0  0  0  0  0  0  0  0  0  0  0
   -2.4121    1.2500   -0.9106 C   0  0  0  0  0  0  0  0  0  0  0  0
   -2.3786    2.0705   -1.6333 H   0  0  0  0  0  0  0  0  0  0  0  0
   -1.1481    2.5055    0.9100 C   0  0  0  0  0  0  0  0  0  0  0  0
   -0.9975    2.3212    1.9919 H   0  0  0  0  0  0  0  0  0  0  0  0
   -1.8001    3.3967    0.8187 H   0  0  0  0  0  0  0  0  0  0  0  0
    0.1783    2.8114    0.2065 C   0  0  0  0  0  0  0  0  0  0  0  0
    0.0509    2.8317   -0.8947 H   0  0  0  0  0  0  0  0  0  0  0  0
    0.5032    3.8218    0.5324 H   0  0  0  0  0  0  0  0  0  0  0  0
    1.2621    1.8401    0.4949 N   0  0  0  0  0  0  0  0  0  0  0  0
    2.1226    2.1193   -0.0043 H   0  0  0  0  0  0  0  0  0  0  0  0
    1.4850    1.7841    1.5067 H   0  0  0  0  0  0  0  0  0  0  0  0
   -3.0058   -2.0682    0.4661 C   0  0  0  0  0  0  0  0  0  0  0  0
   -3.0447   -2.2181    1.5592 H   0  0  0  0  0  0  0  0  0  0  0  0
   -2.1965   -2.6904    0.0349 H   0  0  0  0  0  0  0  0  0  0  0  0
   -3.9821   -2.3330    0.0225 H   0  0  0  0  0  0  0  0  0  0  0  0
  1  9  1  0  0  0  0
  1  2  1  0  0  0  0
  2  3  1  0  0  0  0
  4 18  1  0  0  0  0
  4  2  1  0  0  0  0
  5  7  2  0  0  0  0
  5  4  1  0  0  0  0
  6  5  1  0  0  0  0
  7  1  1  0  0  0  0
  8  7  1  0  0  0  0
  9 10  1  0  0  0  0
 11  9  1  0  0  0  0
 12 15  1  0  0  0  0
 12 14  1  0  0  0  0
 12  9  1  0  0  0  0
 13 12  1  0  0  0  0
 15 17  1  0  0  0  0
 16 15  1  0  0  0  0
 18 19  1  0  0  0  0
 20 18  1  0  0  0  0
 21 18  1  0  0  0  0
M  END
