4
q = 0.0, confidence = 1.0

 37 38  0  0  0  0  0  0  0  0999 V2000
   12.7587   -3.0119   -0.4873 O   0  0  0  0  0  0  0  0  0  0  0  0
   13.3002   -3.8223   -0.4633 H   0  0  0  0  0  0  0  0  0  0  0  0
   10.0432   -3.9386    0.2887 N   0  0  0  0  0  0  0  0  0  0  0  0
    1.6383    3.0014   -0.1368 N   0  0  0  0  0  2  0  0  0  0  0  0
   11.7213   -3.2196   -1.4271 C   0  0  0  0  0  0  0  0  0  0  0  0
   12.1057   -3.5081   -2.4372 H   0  0  0  0  0  0  0  0  0  0  0  0
   11.2107   -2.2409   -1.5433 H   0  0  0  0  0  0  0  0  0  0  0  0
   10.6974   -4.2681   -0.9674 C   0  0  0  0  0  0  0  0  0  0  0  0
    9.9412   -4.4283   -1.7641 H   0  0  0  0  0  0  0  0  0  0  0  0
   11.2052   -5.2488   -0.8374 H   0  0  0  0  0  0  0  0  0  0  0  0
   10.7232   -4.3097    1.5166 C   0  0  0  0  0  0  0  0  0  0  0  0
   11.2822   -3.4610    1.9697 H   0  0  0  0  0  0  0  0  0  0  0  0
   11.4499   -5.1129    1.2970 H   0  0  0  0  0  0  0  0  0  0  0  0
   10.0051   -4.7025    2.2671 H   0  0  0  0  0  0  0  0  0  0  0  0
    9.0000   -3.0312    0.3324 C   0  0  0  0  0  0  0  0  0  0  0  0
    8.3535   -2.5617   -0.8520 C   0  0  0  0  0  0  0  0  0  0  0  0
    8.6949   -2.8935   -1.8408 H   0  0  0  0  0  0  0  0  0  0  0  0
    7.2808   -1.6798   -0.7901 C   0  0  0  0  0  0  0  0  0  0  0  0
    6.8192   -1.3546   -1.7344 H   0  0  0  0  0  0  0  0  0  0  0  0
    6.7785   -1.1907    0.4440 C   0  0  0  0  0  0  0  0  0  0  0  0
    7.4339   -1.6462    1.6148 C   0  0  0  0  0  0  0  0  0  0  0  0
    7.0846   -1.2822    2.5943 H   0  0  0  0  0  0  0  0  0  0  0  0
    8.5105   -2.5293    1.5727 C   0  0  0  0  0  0  0  0  0  0  0  0
    8.9820   -2.8297    2.5163 H   0  0  0  0  0  0  0  0  0  0  0  0
    5.6647   -0.2655    0.5552 C   0  0  0  0  0  0  0  0  0  0  0  0
    5.4080    0.0152    1.5914 H   0  0  0  0  0  0  0  0  0  0  0  0
    4.9268    0.2750   -0.4596 C   0  0  0  0  0  0  0  0  0  0  0  0
    5.1708    0.0061   -1.5009 H   0  0  0  0  0  0  0  0  0  0  0  0
    3.8144    1.2026   -0.3116 C   0  0  0  0  0  0  0  0  0  0  0  0
    3.1430    1.6861   -1.4645 C   0  0  0  0  0  0  0  0  0  0  0  0
    3.4676    1.3650   -2.4659 H   0  0  0  0  0  0  0  0  0  0  0  0
    2.0754    2.5743   -1.3387 C   0  0  0  0  0  3  0  0  0  0  0  0
    1.5387    2.9967   -2.2064 H   0  0  0  0  0  0  0  0  0  0  0  0
    2.2651    2.5698    0.9795 C   0  0  0  0  0  0  0  0  0  0  0  0
    1.8743    2.9912    1.9223 H   0  0  0  0  0  0  0  0  0  0  0  0
    3.3379    1.6833    0.9370 C   0  0  0  0  0  0  0  0  0  0  0  0
    3.8068    1.3720    1.8812 H   0  0  0  0  0  0  0  0  0  0  0  0
  1  2  1  0  0  0  0
  3 15  1  0  0  0  0
  3 11  1  0  0  0  0
  4 34  1  0  0  0  0
  5  8  1  0  0  0  0
  5  1  1  0  0  0  0
  6  5  1  0  0  0  0
  7  5  1  0  0  0  0
  8 10  1  0  0  0  0
  8  3  1  0  0  0  0
  9  8  1  0  0  0  0
 11 12  1  0  0  0  0
 11 14  1  0  0  0  0
 13 11  1  0  0  0  0
 15 23  1  0  0  0  0
 16 18  1  0  0  0  0
 16 15  2  0  0  0  0
 17 16  1  0  0  0  0
 18 20  2  0  0  0  0
 19 18  1  0  0  0  0
 20 25  1  0  0  0  0
 20 21  1  0  0  0  0
 21 22  1  0  0  0  0
 23 21  2  0  0  0  0
 23 24  1  0  0  0  0
 25 26  1  0  0  0  0
 27 29  1  0  0  0  0
 27 25  2  0  0  0  0
 28 27  1  0  0  0  0
 29 36  1  0  0  0  0
 30 32  1  0  0  0  0
 30 29  2  0  0  0  0
 31 30  1  0  0  0  0
 32  4  1  0  0  0  0
 33 32  1  0  0  0  0
 34 35  1  0  0  0  0
 36 34  2  0  0  0  0
 36 37  1  0  0  0  0
M  END
