3
q = 0.0, confidence = 0.998

 34 36  0  0  1  0  0  0  0  0999 V2000
    1.6274   -0.0444   -0.3980 P   0  0  0  0  0  4  0  0  0  0  0  0
    0.0734   -0.6037   -1.5706 S   0  0  0  0  0  1  0  0  0  0  0  0
   -0.0309   -0.9896    1.5083 N   0  0  0  0  0  2  0  0  0  0  0  0
    3.2140   -0.6938   -0.9847 C   0  0  0  0  0  0  0  0  0  0  0  0
    4.3818    0.0971   -0.9624 C   0  0  0  0  0  0  0  0  0  0  0  0
    4.3441    1.1388   -0.6106 H   0  0  0  0  0  0  0  0  0  0  0  0
    1.8115    1.7484   -0.1364 C   0  0  0  0  0  0  0  0  0  0  0  0
    1.5224    2.6099   -1.2138 C   0  0  0  0  0  0  0  0  0  0  0  0
    1.1520    2.1906   -2.1627 H   0  0  0  0  0  0  0  0  0  0  0  0
    2.2704    2.2661    1.0914 C   0  0  0  0  0  0  0  0  0  0  0  0
    2.4957    1.5938    1.9333 H   0  0  0  0  0  0  0  0  0  0  0  0
    1.2904   -0.8237    1.2276 C   0  0  1  0  0  3  0  0  0  0  0  0
    3.2537   -2.0254   -1.4550 C   0  0  0  0  0  0  0  0  0  0  0  0
    2.3317   -2.6267   -1.4868 H   0  0  0  0  0  0  0  0  0  0  0  0
    2.1422    4.5139    0.1681 C   0  0  0  0  0  0  0  0  0  0  0  0
    2.2698    5.6000    0.2884 H   0  0  0  0  0  0  0  0  0  0  0  0
    5.5937   -0.4545   -1.4037 C   0  0  0  0  0  0  0  0  0  0  0  0
    6.5071    0.1583   -1.3928 H   0  0  0  0  0  0  0  0  0  0  0  0
    1.6902    3.9930   -1.0569 C   0  0  0  0  0  0  0  0  0  0  0  0
    1.4661    4.6691   -1.8954 H   0  0  0  0  0  0  0  0  0  0  0  0
    2.4325    3.6528    1.2389 C   0  0  0  0  0  0  0  0  0  0  0  0
    2.7871    4.0623    2.1965 H   0  0  0  0  0  0  0  0  0  0  0  0
    4.4707   -2.5623   -1.8927 C   0  0  0  0  0  0  0  0  0  0  0  0
    4.5075   -3.5973   -2.2634 H   0  0  0  0  0  0  0  0  0  0  0  0
    5.6382   -1.7796   -1.8658 C   0  0  0  0  0  0  0  0  0  0  0  0
    6.5907   -2.2055   -2.2150 H   0  0  0  0  0  0  0  0  0  0  0  0
    2.3047   -1.3121    2.0618 C   0  0  0  0  0  0  0  0  0  0  0  0
    3.3578   -1.1750    1.7754 H   0  0  0  0  0  0  0  0  0  0  0  0
    1.9476   -1.9879    3.2384 C   0  0  0  0  0  0  0  0  0  0  0  0
    2.7210   -2.3738    3.9185 H   0  0  0  0  0  0  0  0  0  0  0  0
    0.5873   -2.1830    3.5106 C   0  0  0  0  0  0  0  0  0  0  0  0
    0.2555   -2.7364    4.4004 H   0  0  0  0  0  0  0  0  0  0  0  0
   -0.3707   -1.6859    2.6191 C   0  0  0  0  0  0  0  0  0  0  0  0
   -1.4452   -1.8622    2.7635 H   0  0  0  0  0  0  0  0  0  0  0  0
  1  7  1  0  0  0  0
  2  1  1  0  0  0  0
  3 33  1  0  0  0  0
  4  5  1  0  0  0  0
  4  1  1  0  0  0  0
  5  6  1  0  0  0  0
  7 10  1  0  0  0  0
  8 19  1  0  0  0  0
  8  7  2  0  0  0  0
  9  8  1  0  0  0  0
 10 21  2  0  0  0  0
 10 11  1  0  0  0  0
 12  1  1  6  0  0  0
 12  3  1  0  0  0  0
 12 27  1  0  0  0  0
 13  4  2  0  0  0  0
 14 13  1  0  0  0  0
 15 16  1  0  0  0  0
 15 21  1  0  0  0  0
 17 18  1  0  0  0  0
 17  5  2  0  0  0  0
 19 15  2  0  0  0  0
 20 19  1  0  0  0  0
 21 22  1  0  0  0  0
 23 25  2  0  0  0  0
 23 13  1  0  0  0  0
 24 23  1  0  0  0  0
 25 17  1  0  0  0  0
 26 25  1  0  0  0  0
 27 29  2  0  0  0  0
 28 27  1  0  0  0  0
 29 31  1  0  0  0  0
 29 30  1  0  0  0  0
 31 32  1  0  0  0  0
 33 34  1  0  0  0  0
 33 31  2  0  0  0  0
M  END
