3
q = 0.0, confidence = 1.0

 34 36  0  0  1  0  0  0  0  0999 V2000
    0.0149   -0.7084   -1.5849 Se  0  0  0  0  0  1  0  0  0  0  0  0
    1.6440   -0.0025   -0.3281 P   0  0  0  0  0  4  0  0  0  0  0  0
   -0.0192   -0.9343    1.6017 N   0  0  0  0  0  2  0  0  0  0  0  0
    1.2977   -0.7386    1.3178 C   0  0  1  0  0  3  0  0  0  0  0  0
    1.7728    1.8045   -0.1203 C   0  0  0  0  0  0  0  0  0  0  0  0
    2.3232   -1.1703    2.1713 C   0  0  0  0  0  0  0  0  0  0  0  0
    3.3727   -1.0087    1.8847 H   0  0  0  0  0  0  0  0  0  0  0  0
    3.2715   -0.6163   -0.8470 C   0  0  0  0  0  0  0  0  0  0  0  0
    1.4604    2.6307   -1.2179 C   0  0  0  0  0  0  0  0  0  0  0  0
    1.1012    2.1778   -2.1559 H   0  0  0  0  0  0  0  0  0  0  0  0
    3.3862   -1.9777   -1.2071 C   0  0  0  0  0  0  0  0  0  0  0  0
    2.4988   -2.6299   -1.1900 H   0  0  0  0  0  0  0  0  0  0  0  0
    2.2168    2.3652    1.0943 C   0  0  0  0  0  0  0  0  0  0  0  0
    2.4636    1.7203    1.9514 H   0  0  0  0  0  0  0  0  0  0  0  0
   -0.3393   -1.6094    2.7321 C   0  0  0  0  0  0  0  0  0  0  0  0
   -1.4085   -1.8146    2.8782 H   0  0  0  0  0  0  0  0  0  0  0  0
    4.3954    0.2350   -0.8897 C   0  0  0  0  0  0  0  0  0  0  0  0
    4.3012    1.2978   -0.6223 H   0  0  0  0  0  0  0  0  0  0  0  0
    1.5883    4.0217   -1.0951 C   0  0  0  0  0  0  0  0  0  0  0  0
    1.3456    4.6702   -1.9500 H   0  0  0  0  0  0  0  0  0  0  0  0
    0.6299   -2.0530    3.6395 C   0  0  0  0  0  0  0  0  0  0  0  0
    0.3114   -2.5918    4.5429 H   0  0  0  0  0  0  0  0  0  0  0  0
    4.6323   -2.4828   -1.5981 C   0  0  0  0  0  0  0  0  0  0  0  0
    4.7263   -3.5415   -1.8815 H   0  0  0  0  0  0  0  0  0  0  0  0
    5.7558   -1.6385   -1.6365 C   0  0  0  0  0  0  0  0  0  0  0  0
    6.7314   -2.0394   -1.9495 H   0  0  0  0  0  0  0  0  0  0  0  0
    1.9842   -1.8225    3.3659 C   0  0  0  0  0  0  0  0  0  0  0  0
    2.7674   -2.1632    4.0588 H   0  0  0  0  0  0  0  0  0  0  0  0
    2.0231    4.5855    0.1170 C   0  0  0  0  0  0  0  0  0  0  0  0
    2.1182    5.6775    0.2112 H   0  0  0  0  0  0  0  0  0  0  0  0
    2.3379    3.7592    1.2083 C   0  0  0  0  0  0  0  0  0  0  0  0
    2.6801    4.2018    2.1556 H   0  0  0  0  0  0  0  0  0  0  0  0
    5.6372   -0.2846   -1.2851 C   0  0  0  0  0  0  0  0  0  0  0  0
    6.5159    0.3759   -1.3241 H   0  0  0  0  0  0  0  0  0  0  0  0
  1  2  1  0  0  0  0
  2  5  1  0  0  0  0
  3 15  1  0  0  0  0
  4  2  1  6  0  0  0
  4  3  1  0  0  0  0
  4  6  1  0  0  0  0
  5 13  1  0  0  0  0
  6 27  2  0  0  0  0
  7  6  1  0  0  0  0
  8  2  1  0  0  0  0
  9 19  1  0  0  0  0
  9  5  2  0  0  0  0
 10  9  1  0  0  0  0
 11 12  1  0  0  0  0
 11  8  2  0  0  0  0
 13 31  2  0  0  0  0
 13 14  1  0  0  0  0
 15 16  1  0  0  0  0
 15 21  2  0  0  0  0
 17  8  1  0  0  0  0
 17 18  1  0  0  0  0
 19 29  2  0  0  0  0
 20 19  1  0  0  0  0
 21 22  1  0  0  0  0
 23 11  1  0  0  0  0
 24 23  1  0  0  0  0
 25 23  2  0  0  0  0
 25 33  1  0  0  0  0
 26 25  1  0  0  0  0
 27 21  1  0  0  0  0
 27 28  1  0  0  0  0
 29 30  1  0  0  0  0
 29 31  1  0  0  0  0
 31 32  1  0  0  0  0
 33 17  2  0  0  0  0
 34 33  1  0  0  0  0
M  END
