2
q = 0.0, confidence = 1.0

 20 21  0  0  0  0  0  0  0  0999 V2000
   -6.5638   -1.7543   -0.4556 S   0  0  0  0  0  0  0  0  0  0  0  0
   -2.2034   -0.6672    0.3839 N   0  0  0  0  0  2  0  0  0  0  0  0
   -6.8062    0.9152   -0.9903 N   0  0  0  0  0  0  0  0  0  0  0  0
   -9.5858    0.7092   -1.3308 N   0  0  0  0  0  0  0  0  0  0  0  0
   -2.5393   -1.7745   -0.3087 C   0  0  0  0  0  3  0  0  0  0  0  0
   -1.7016   -2.4069   -0.6478 H   0  0  0  0  0  0  0  0  0  0  0  0
   -3.8677   -2.0999   -0.5980 C   0  0  0  0  0  0  0  0  0  0  0  0
   -4.0988   -2.9998   -1.1857 H   0  0  0  0  0  0  0  0  0  0  0  0
   -4.8936   -1.2488   -0.1412 C   0  0  0  0  0  0  0  0  0  0  0  0
   -4.5380   -0.1035    0.5980 C   0  0  0  0  0  0  0  0  0  0  0  0
   -5.2932    0.5908    0.9827 H   0  0  0  0  0  0  0  0  0  0  0  0
   -3.1831    0.1474    0.8299 C   0  0  0  0  0  0  0  0  0  0  0  0
   -2.8683    1.0410    1.3943 H   0  0  0  0  0  0  0  0  0  0  0  0
   -7.4433   -0.2441   -0.8327 C   0  0  0  0  0  0  0  0  0  0  0  0
   -8.8494   -0.3504   -0.9963 C   0  0  0  0  0  0  0  0  0  0  0  0
   -9.3675   -1.3157   -0.8506 H   0  0  0  0  0  0  0  0  0  0  0  0
   -8.9410    1.8789   -1.4980 C   0  0  0  0  0  0  0  0  0  0  0  0
   -9.5469    2.7590   -1.7731 H   0  0  0  0  0  0  0  0  0  0  0  0
   -7.5527    1.9809   -1.3211 C   0  0  0  0  0  0  0  0  0  0  0  0
   -7.0249    2.9424   -1.4469 H   0  0  0  0  0  0  0  0  0  0  0  0
  1  9  1  0  0  0  0
  2 12  1  0  0  0  0
  3 14  1  0  0  0  0
  4 15  1  0  0  0  0
  5  2  1  0  0  0  0
  6  5  1  0  0  0  0
  7  5  1  0  0  0  0
  7  9  2  0  0  0  0
  8  7  1  0  0  0  0
  9 10  1  0  0  0  0
 10 12  2  0  0  0  0
 10 11  1  0  0  0  0
 12 13  1  0  0  0  0
 14  1  1  0  0  0  0
 15 16  1  0  0  0  0
 15 14  2  0  0  0  0
 17  4  2  0  0  0  0
 17 19  1  0  0  0  0
 18 17  1  0  0  0  0
 19  3  2  0  0  0  0
 20 19  1  0  0  0  0
M  END
