1
q = -1.0

 14 15  0  0  0  0  0  0  0  0999 V2000
   -1.5003    0.0618   -0.0805 N   0  0  0  0  0  2  0  0  0  0  0  0
   -2.7387    0.2792    0.4742 C   0  0  0  0  0  0  0  0  0  0  0  0
   -3.0689    1.3252    1.0991 O   0  0  0  0  0  0  0  0  0  0  0  0
   -3.6259   -0.8659    0.2090 C   0  0  0  0  0  0  0  0  0  0  0  0
   -4.9554   -1.0180    0.6417 C   0  0  0  0  0  0  0  0  0  0  0  0
   -5.4045   -0.2220    1.2549 H   0  0  0  0  0  0  0  0  0  0  0  0
   -5.6599   -2.1702    0.2809 C   0  0  0  0  0  0  0  0  0  0  0  0
   -6.6999   -2.3085    0.6122 H   0  0  0  0  0  0  0  0  0  0  0  0
   -5.0411   -3.1654   -0.5123 C   0  0  0  0  0  0  0  0  0  0  0  0
   -5.6079   -4.0677   -0.7889 H   0  0  0  0  0  0  0  0  0  0  0  0
   -3.7203   -3.0289   -0.9546 C   0  0  0  0  0  0  0  0  0  0  0  0
   -3.2481   -3.8084   -1.5707 H   0  0  0  0  0  0  0  0  0  0  0  0
   -3.0166   -1.8658   -0.5850 C   0  0  0  0  0  0  0  0  0  0  0  0
   -1.3730   -1.4161   -0.9754 S   0  0  0  0  0  0  0  0  0  0  0  0
  1  2  1  0  0  0  0
  2  3  2  0  0  0  0
  4  2  1  0  0  0  0
  4  5  1  0  0  0  0
  5  6  1  0  0  0  0
  7  8  1  0  0  0  0
  7  5  2  0  0  0  0
  9  7  1  0  0  0  0
 10  9  1  0  0  0  0
 11 13  1  0  0  0  0
 11  9  2  0  0  0  0
 12 11  1  0  0  0  0
 13  4  2  0  0  0  0
 14 13  1  0  0  0  0
 14  1  1  0  0  0  0
M  END
