28
q = 0.0, confidence = 1.0

 43 46  0  0  0  0  0  0  0  0999 V2000
    1.3484    1.0236   -0.9440 O   0  0  0  0  0  0  0  0  0  0  0  0
    1.6701    2.3918   -1.1909 C   0  0  0  0  0  0  0  0  0  0  0  0
    1.9206    2.5160   -2.2712 H   0  0  0  0  0  0  0  0  0  0  0  0
    2.5511    2.6876   -0.5793 H   0  0  0  0  0  0  0  0  0  0  0  0
   -1.4004    1.7407   -0.5630 O   0  0  0  0  0  0  0  0  0  0  0  0
    0.4625    3.2417   -0.8103 C   0  0  0  0  0  0  0  0  0  0  0  0
    0.3839    3.2764    0.2956 H   0  0  0  0  0  0  0  0  0  0  0  0
    0.6592    4.2777   -1.1549 H   0  0  0  0  0  0  0  0  0  0  0  0
   -0.8657    2.7771   -1.3979 C   0  0  0  0  0  0  0  0  0  0  0  0
   -1.5977    3.6149   -1.4345 H   0  0  0  0  0  0  0  0  0  0  0  0
   -0.7373    2.3885   -2.4340 H   0  0  0  0  0  0  0  0  0  0  0  0
    0.6423   -1.4680   -0.2539 N   0  0  0  0  0  0  0  0  0  0  0  0
    0.2676   -2.7038    0.0517 C   0  0  0  0  0  0  0  0  0  0  0  0
   -0.7238   -2.8139    0.5274 H   0  0  0  0  0  0  0  0  0  0  0  0
    1.0687   -3.8491   -0.1909 C   0  0  0  0  0  0  0  0  0  0  0  0
    0.6984   -4.8477    0.0832 H   0  0  0  0  0  0  0  0  0  0  0  0
    2.3204   -3.6725   -0.7590 C   0  0  0  0  0  0  0  0  0  0  0  0
    2.9851   -4.5302   -0.9477 H   0  0  0  0  0  0  0  0  0  0  0  0
    4.0452   -2.1037   -1.6700 C   0  0  0  0  0  0  0  0  0  0  0  0
    4.7302   -2.9434   -1.8601 H   0  0  0  0  0  0  0  0  0  0  0  0
    4.4127   -0.8004   -1.9603 C   0  0  0  0  0  0  0  0  0  0  0  0
    5.4068   -0.5903   -2.3829 H   0  0  0  0  0  0  0  0  0  0  0  0
    3.5322    0.2864   -1.7221 C   0  0  0  0  0  0  0  0  0  0  0  0
    3.8645    1.3069   -1.9502 H   0  0  0  0  0  0  0  0  0  0  0  0
    2.2667    0.0616   -1.1849 C   0  0  0  0  0  0  0  0  0  0  0  0
    1.8594   -1.2778   -0.8356 C   0  0  0  0  0  0  0  0  0  0  0  0
    2.7660   -2.3649   -1.1000 C   0  0  0  0  0  0  0  0  0  0  0  0
   -2.2074   -0.2970    1.0718 N   0  0  0  0  0  2  0  0  0  0  0  0
   -2.6356   -1.2707    1.8814 C   0  0  0  0  0  0  0  0  0  0  0  0
   -2.0431   -1.4425    2.7940 H   0  0  0  0  0  0  0  0  0  0  0  0
   -3.7795   -2.0580    1.6127 C   0  0  0  0  0  0  0  0  0  0  0  0
   -4.0755   -2.8452    2.3205 H   0  0  0  0  0  0  0  0  0  0  0  0
   -4.5006   -1.8111    0.4562 C   0  0  0  0  0  0  0  0  0  0  0  0
   -5.3957   -2.4015    0.2065 H   0  0  0  0  0  0  0  0  0  0  0  0
   -4.8058   -0.4683   -1.6202 C   0  0  0  0  0  3  0  0  0  0  0  0
   -5.6991   -1.0581   -1.8729 H   0  0  0  0  0  0  0  0  0  0  0  0
   -4.3713    0.5619   -2.4363 C   0  0  0  0  0  0  0  0  0  0  0  0
   -4.9201    0.8050   -3.3585 H   0  0  0  0  0  0  0  0  0  0  0  0
   -3.2242    1.3245   -2.1045 C   0  0  0  0  0  0  0  0  0  0  0  0
   -2.9148    2.1403   -2.7698 H   0  0  0  0  0  0  0  0  0  0  0  0
   -2.4918    1.0531   -0.9461 C   0  0  0  0  0  0  0  0  0  0  0  0
   -2.9135   -0.0204   -0.0711 C   0  0  0  0  0  0  0  0  0  0  0  0
   -4.0907   -0.7731   -0.4268 C   0  0  0  0  0  0  0  0  0  0  0  0
  2  1  1  0  0  0  0
  2  6  1  0  0  0  0
  2  4  1  0  0  0  0
  3  2  1  0  0  0  0
  6  7  1  0  0  0  0
  8  6  1  0  0  0  0
  9  6  1  0  0  0  0
  9  5  1  0  0  0  0
 10  9  1  0  0  0  0
 11  9  1  0  0  0  0
 12 13  1  0  0  0  0
 13 14  1  0  0  0  0
 15 13  2  0  0  0  0
 15 16  1  0  0  0  0
 17 15  1  0  0  0  0
 18 17  1  0  0  0  0
 19 27  1  0  0  0  0
 20 19  1  0  0  0  0
 21 23  1  0  0  0  0
 21 19  2  0  0  0  0
 22 21  1  0  0  0  0
 23 25  2  0  0  0  0
 24 23  1  0  0  0  0
 25  1  1  0  0  0  0
 25 26  1  0  0  0  0
 26 12  2  0  0  0  0
 27 26  1  0  0  0  0
 27 17  2  0  0  0  0
 28 29  1  0  0  0  0
 29 30  1  0  0  0  0
 31 29  2  0  0  0  0
 31 32  1  0  0  0  0
 33 31  1  0  0  0  0
 34 33  1  0  0  0  0
 35 43  1  0  0  0  0
 36 35  1  0  0  0  0
 37 39  2  0  0  0  0
 37 35  1  0  0  0  0
 38 37  1  0  0  0  0
 39 41  1  0  0  0  0
 40 39  1  0  0  0  0
 41  5  1  0  0  0  0
 41 42  2  0  0  0  0
 42 28  1  0  0  0  0
 43 42  1  0  0  0  0
 43 33  2  0  0  0  0
M  END
