3
q = 0.0, confidence = 1.0

 21 22  0  0  1  0  0  0  0  0999 V2000
   -2.6536    1.9182    1.6409 S   0  0  0  0  0  0  0  0  0  0  0  0
   -5.6086   -1.2166   -1.4286 O   0  0  0  0  0  0  0  0  0  0  0  0
   -0.7248    0.5713    0.5498 N   0  0  0  0  0  2  0  0  0  0  0  0
   -0.9446    1.5356    1.4250 C   0  0  1  0  0  3  0  0  0  0  0  0
   -1.8997    0.0551    0.0043 C   0  0  0  0  0  0  0  0  0  0  0  0
   -1.9960   -0.9917   -0.9356 C   0  0  0  0  0  0  0  0  0  0  0  0
   -1.0684   -1.4759   -1.2732 H   0  0  0  0  0  0  0  0  0  0  0  0
   -3.2556   -1.3778   -1.3831 C   0  0  0  0  0  0  0  0  0  0  0  0
   -3.3725   -2.1907   -2.1139 H   0  0  0  0  0  0  0  0  0  0  0  0
   -4.4334   -0.7425   -0.9081 C   0  0  0  0  0  0  0  0  0  0  0  0
   -4.3588    0.2975    0.0347 C   0  0  0  0  0  0  0  0  0  0  0  0
   -5.2538    0.8020    0.4197 H   0  0  0  0  0  0  0  0  0  0  0  0
   -3.0791    0.6793    0.4790 C   0  0  0  0  0  0  0  0  0  0  0  0
    0.1176    2.2671    2.1634 C   0  0  0  0  0  0  0  0  0  0  0  0
    0.7374    2.8237    1.4243 H   0  0  0  0  0  0  0  0  0  0  0  0
    0.7942    1.5324    2.6467 H   0  0  0  0  0  0  0  0  0  0  0  0
   -0.3101    2.9564    2.9168 H   0  0  0  0  0  0  0  0  0  0  0  0
   -6.8100   -0.6262   -0.9916 C   0  0  0  0  0  0  0  0  0  0  0  0
   -6.9622   -0.7459    0.1065 H   0  0  0  0  0  0  0  0  0  0  0  0
   -7.6311   -1.1437   -1.5237 H   0  0  0  0  0  0  0  0  0  0  0  0
   -6.8558    0.4616   -1.2319 H   0  0  0  0  0  0  0  0  0  0  0  0
  2 18  1  0  0  0  0
  2 10  1  0  0  0  0
  3  4  1  0  0  0  0
  4  1  1  0  0  0  0
  4 14  1  6  0  0  0
  5 13  1  0  0  0  0
  5  3  1  0  0  0  0
  6  5  2  0  0  0  0
  7  6  1  0  0  0  0
  8  6  1  0  0  0  0
  8 10  2  0  0  0  0
  9  8  1  0  0  0  0
 10 11  1  0  0  0  0
 11 12  1  0  0  0  0
 11 13  2  0  0  0  0
 13  1  1  0  0  0  0
 14 16  1  0  0  0  0
 14 17  1  0  0  0  0
 15 14  1  0  0  0  0
 18 19  1  0  0  0  0
 20 18  1  0  0  0  0
 21 18  1  0  0  0  0
M  END
