1
q = -1.0, confidence = 0.0

 28 28  0  0  0  0  0  0  0  0999 V2000
   -1.5603   -0.7460   -0.3818 N   0  0  0  0  0  2  0  0  0  0  0  0
   -2.8706   -0.5556    0.2492 C   0  0  0  0  0  0  0  0  0  0  0  0
   -3.4786   -1.4623    0.0291 H   0  0  0  0  0  0  0  0  0  0  0  0
   -3.6711    0.6262   -0.3329 C   0  0  0  0  0  0  0  0  0  0  0  0
   -3.7573    0.5074   -1.4327 H   0  0  0  0  0  0  0  0  0  0  0  0
   -3.1155    1.5727   -0.1618 H   0  0  0  0  0  0  0  0  0  0  0  0
   -5.0540    0.7356    0.3230 C   0  0  0  0  0  0  0  0  0  0  0  0
   -5.6049    1.6062   -0.0902 H   0  0  0  0  0  0  0  0  0  0  0  0
   -5.6547   -0.1645    0.0609 H   0  0  0  0  0  0  0  0  0  0  0  0
   -4.9417    0.8383    1.8498 C   0  0  0  0  0  0  0  0  0  0  0  0
   -5.9507    0.8958    2.3087 H   0  0  0  0  0  0  0  0  0  0  0  0
   -4.4239    1.7884    2.1139 H   0  0  0  0  0  0  0  0  0  0  0  0
   -4.1538   -0.3434    2.4302 C   0  0  0  0  0  0  0  0  0  0  0  0
   -4.0509   -0.2425    3.5304 H   0  0  0  0  0  0  0  0  0  0  0  0
   -4.7286   -1.2815    2.2579 H   0  0  0  0  0  0  0  0  0  0  0  0
   -2.7695   -0.4730    1.7830 C   0  0  0  0  0  0  0  0  0  0  0  0
   -2.2338   -1.3697    2.1552 H   0  0  0  0  0  0  0  0  0  0  0  0
   -2.1361    0.3961    2.0590 H   0  0  0  0  0  0  0  0  0  0  0  0
   -1.4242   -1.9605   -1.2314 C   0  0  0  0  0  0  0  0  0  0  0  0
   -0.3432   -2.0143   -1.5315 H   0  0  0  0  0  0  0  0  0  0  0  0
   -2.2446   -1.8571   -2.5243 C   0  0  0  0  0  0  0  0  0  0  0  0
   -2.0021   -0.9359   -3.0863 H   0  0  0  0  0  0  0  0  0  0  0  0
   -3.3299   -1.8516   -2.2943 H   0  0  0  0  0  0  0  0  0  0  0  0
   -2.0491   -2.7286   -3.1805 H   0  0  0  0  0  0  0  0  0  0  0  0
   -1.7142   -3.2692   -0.4826 C   0  0  0  0  0  0  0  0  0  0  0  0
   -1.1356   -3.3303    0.4570 H   0  0  0  0  0  0  0  0  0  0  0  0
   -1.4366   -4.1350   -1.1155 H   0  0  0  0  0  0  0  0  0  0  0  0
   -2.7928   -3.3658   -0.2449 H   0  0  0  0  0  0  0  0  0  0  0  0
  1  2  1  0  0  0  0
  2 16  1  0  0  0  0
  3  2  1  0  0  0  0
  4  6  1  0  0  0  0
  4  2  1  0  0  0  0
  4  7  1  0  0  0  0
  5  4  1  0  0  0  0
  7 10  1  0  0  0  0
  8  7  1  0  0  0  0
  9  7  1  0  0  0  0
 10 12  1  0  0  0  0
 10 11  1  0  0  0  0
 10 13  1  0  0  0  0
 13 14  1  0  0  0  0
 15 13  1  0  0  0  0
 16 18  1  0  0  0  0
 16 17  1  0  0  0  0
 16 13  1  0  0  0  0
 19 25  1  0  0  0  0
 19  1  1  0  0  0  0
 20 19  1  0  0  0  0
 21 23  1  0  0  0  0
 21 19  1  0  0  0  0
 22 21  1  0  0  0  0
 24 21  1  0  0  0  0
 25 28  1  0  0  0  0
 25 26  1  0  0  0  0
 27 25  1  0  0  0  0
M  END
