1
q = 0.0, confidence = 0.89

  7  6  0  0  0  0  0  0  0  0999 V2000
    0.7373    2.1404   -0.3342 N   0  0  0  0  0  2  0  0  0  0  0  0
    0.3761    2.8263   -1.0304 H   0  0  0  0  0  0  0  0  0  0  0  0
    2.2461    5.2189    0.2882 N   0  0  0  0  0  0  0  0  0  0  0  0
    2.9167    1.3791    2.3514 N   0  0  0  0  0  0  0  0  0  0  0  0
    1.6698    2.6828    0.4744 C   0  0  0  0  0  3  0  0  0  0  0  0
    2.3443    1.9405    1.4877 C   0  0  0  0  0  0  0  0  0  0  0  0
    1.9933    4.0698    0.3694 C   0  0  0  0  0  0  0  0  0  0  0  0
  1  5  1  0  0  0  0
  2  1  1  0  0  0  0
  3  7  3  0  0  0  0
  5  6  1  0  0  0  0
  6  4  3  0  0  0  0
  7  5  1  0  0  0  0
M  END
