3
q = 0.0, confidence = 1.0

 37 37  0  0  0  0  0  0  0  0999 V2000
   -1.6722   -1.0155   -1.4347 O   0  0  0  0  0  0  0  0  0  0  0  0
   -3.6820   -0.1533   -0.8694 O   0  0  0  0  0  0  0  0  0  0  0  0
    0.5113    0.1752    0.1294 N   0  0  0  0  0  2  0  0  0  0  0  0
    0.8026   -2.1385   -0.0300 N   0  0  0  0  0  0  0  0  0  0  0  0
   -0.7465   -1.3021    1.5151 N   0  0  0  0  0  0  0  0  0  0  0  0
    0.1792   -1.0608    0.5243 C   0  0  0  0  0  3  0  0  0  0  0  0
    1.3924   -2.0357   -1.3590 C   0  0  0  0  0  0  0  0  0  0  0  0
    0.7794   -1.3492   -1.9688 H   0  0  0  0  0  0  0  0  0  0  0  0
    1.3836   -3.0414   -1.8268 H   0  0  0  0  0  0  0  0  0  0  0  0
    2.4418   -1.6577   -1.3179 H   0  0  0  0  0  0  0  0  0  0  0  0
    1.1903   -3.2958    0.7607 C   0  0  0  0  0  0  0  0  0  0  0  0
    0.9003   -3.1484    1.8161 H   0  0  0  0  0  0  0  0  0  0  0  0
    2.2942   -3.4205    0.7198 H   0  0  0  0  0  0  0  0  0  0  0  0
    0.7210   -4.2307    0.3852 H   0  0  0  0  0  0  0  0  0  0  0  0
   -0.9766   -0.3473    2.5861 C   0  0  0  0  0  0  0  0  0  0  0  0
   -0.1170    0.3414    2.6653 H   0  0  0  0  0  0  0  0  0  0  0  0
   -1.0827   -0.8938    3.5473 H   0  0  0  0  0  0  0  0  0  0  0  0
   -1.8948    0.2592    2.4213 H   0  0  0  0  0  0  0  0  0  0  0  0
   -1.6797   -2.4137    1.4309 C   0  0  0  0  0  0  0  0  0  0  0  0
   -1.5549   -2.9252    0.4605 H   0  0  0  0  0  0  0  0  0  0  0  0
   -2.7220   -2.0271    1.4821 H   0  0  0  0  0  0  0  0  0  0  0  0
   -1.5428   -3.1450    2.2579 H   0  0  0  0  0  0  0  0  0  0  0  0
   -0.4111    1.2297    0.1326 C   0  0  0  0  0  0  0  0  0  0  0  0
    0.0585    2.4996    0.5500 C   0  0  0  0  0  0  0  0  0  0  0  0
    1.1221    2.5754    0.8300 H   0  0  0  0  0  0  0  0  0  0  0  0
   -0.7858    3.6075    0.6173 C   0  0  0  0  0  0  0  0  0  0  0  0
   -0.3838    4.5756    0.9528 H   0  0  0  0  0  0  0  0  0  0  0  0
   -2.1431    3.4849    0.2639 C   0  0  0  0  0  0  0  0  0  0  0  0
   -2.8164    4.3528    0.3156 H   0  0  0  0  0  0  0  0  0  0  0  0
   -2.6213    2.2504   -0.1773 C   0  0  0  0  0  0  0  0  0  0  0  0
   -3.6682    2.1417   -0.4908 H   0  0  0  0  0  0  0  0  0  0  0  0
   -1.7793    1.1145   -0.2733 C   0  0  0  0  0  0  0  0  0  0  0  0
   -2.3187   -0.1200   -0.9043 C   0  0  0  0  0  0  0  0  0  0  0  0
   -4.2836   -1.2594   -1.5468 C   0  0  0  0  0  0  0  0  0  0  0  0
   -3.9555   -1.3064   -2.6045 H   0  0  0  0  0  0  0  0  0  0  0  0
   -5.3748   -1.0991   -1.4856 H   0  0  0  0  0  0  0  0  0  0  0  0
   -4.0104   -2.2184   -1.0600 H   0  0  0  0  0  0  0  0  0  0  0  0
  1 33  2  0  0  0  0
  3 23  1  0  0  0  0
  3  6  1  0  0  0  0
  4  6  1  0  0  0  0
  4 11  1  0  0  0  0
  5 15  1  0  0  0  0
  6  5  1  0  0  0  0
  7 10  1  0  0  0  0
  7  4  1  0  0  0  0
  8  7  1  0  0  0  0
  9  7  1  0  0  0  0
 11 12  1  0  0  0  0
 13 11  1  0  0  0  0
 14 11  1  0  0  0  0
 15 16  1  0  0  0  0
 15 17  1  0  0  0  0
 18 15  1  0  0  0  0
 19 21  1  0  0  0  0
 19  5  1  0  0  0  0
 19 22  1  0  0  0  0
 20 19  1  0  0  0  0
 23 24  1  0  0  0  0
 24 26  2  0  0  0  0
 24 25  1  0  0  0  0
 26 27  1  0  0  0  0
 28 29  1  0  0  0  0
 28 26  1  0  0  0  0
 30 28  2  0  0  0  0
 31 30  1  0  0  0  0
 32 30  1  0  0  0  0
 32 23  2  0  0  0  0
 33  2  1  0  0  0  0
 33 32  1  0  0  0  0
 34 36  1  0  0  0  0
 34 37  1  0  0  0  0
 34  2  1  0  0  0  0
 35 34  1  0  0  0  0
M  END
