1
q = 1.0

 33 34  0  0  0  0  0  0  0  0999 V2000
   -0.3828   -0.4676    0.0491 N   0  0  0  0  0  0  0  0  0  0  0  0
    3.9919   -0.2005    0.0548 N   0  3  0  0  0  0  0  0  0  0  0  0
    0.2988    0.1217    1.2244 C   0  0  0  0  0  0  0  0  0  0  0  0
    1.7901   -0.2380    1.2840 C   0  0  0  0  0  0  0  0  0  0  0  0
    2.5000    0.1673   -0.0131 C   0  0  0  0  0  0  0  0  0  0  0  0
    1.7959   -0.4829   -1.2076 C   0  0  0  0  0  0  0  0  0  0  0  0
    0.3040   -0.1162   -1.2150 C   0  0  0  0  0  0  0  0  0  0  0  0
    4.7323    0.5843    1.1247 C   0  0  0  0  0  0  0  0  0  0  0  0
    6.1767    0.1200    1.2678 C   0  0  0  0  0  0  0  0  0  0  0  0
    6.9354    0.2124   -0.0580 C   0  0  0  0  0  0  0  0  0  0  0  0
    6.1750   -0.5509   -1.1446 C   0  0  0  0  0  0  0  0  0  0  0  0
    4.7261   -0.0901   -1.2690 C   0  0  0  0  0  0  0  0  0  0  0  0
    2.4861    1.2723   -0.1269 H   0  0  0  0  0  0  0  0  0  0  0  0
    0.1480    1.2195    1.1588 H   0  0  0  0  0  0  0  0  0  0  0  0
   -0.2223   -0.2275    2.1350 H   0  0  0  0  0  0  0  0  0  0  0  0
    2.2153    0.2676    2.1725 H   0  0  0  0  0  0  0  0  0  0  0  0
    1.9071   -1.3354    1.4387 H   0  0  0  0  0  0  0  0  0  0  0  0
    2.2180   -0.1444   -2.1732 H   0  0  0  0  0  0  0  0  0  0  0  0
    1.9150   -1.5893   -1.1582 H   0  0  0  0  0  0  0  0  0  0  0  0
   -0.2170   -0.6310   -2.0434 H   0  0  0  0  0  0  0  0  0  0  0  0
    0.1560    0.9744   -1.3605 H   0  0  0  0  0  0  0  0  0  0  0  0
    4.6703    1.6458    0.8101 H   0  0  0  0  0  0  0  0  0  0  0  0
    4.1717    0.4702    2.0688 H   0  0  0  0  0  0  0  0  0  0  0  0
    6.6511    0.7419    2.0533 H   0  0  0  0  0  0  0  0  0  0  0  0
    6.1944   -0.9236    1.6542 H   0  0  0  0  0  0  0  0  0  0  0  0
    7.0445    1.2784   -0.3537 H   0  0  0  0  0  0  0  0  0  0  0  0
    7.9612   -0.1898    0.0519 H   0  0  0  0  0  0  0  0  0  0  0  0
    6.6497   -0.4257   -2.1385 H   0  0  0  0  0  0  0  0  0  0  0  0
    6.1952   -1.6438   -0.9345 H   0  0  0  0  0  0  0  0  0  0  0  0
    4.1763   -0.6994   -2.0067 H   0  0  0  0  0  0  0  0  0  0  0  0
    4.6514    0.9750   -1.5689 H   0  0  0  0  0  0  0  0  0  0  0  0
   -0.4490   -1.5035    0.1500 H   0  0  0  0  0  0  0  0  0  0  0  0
    4.0318   -1.2001    0.3334 H   0  0  0  0  0  0  0  0  0  0  0  0
  1 32  1  0  0  0  0
  1  3  1  0  0  0  0
  2 33  1  0  0  0  0
  2  8  1  0  0  0  0
  3  4  1  0  0  0  0
  3 15  1  0  0  0  0
  4 17  1  0  0  0  0
  4 16  1  0  0  0  0
  5  2  1  0  0  0  0
  5  4  1  0  0  0  0
  6 19  1  0  0  0  0
  6  5  1  0  0  0  0
  7  6  1  0  0  0  0
  7  1  1  0  0  0  0
  8  9  1  0  0  0  0
  8 23  1  0  0  0  0
  9 25  1  0  0  0  0
  9 24  1  0  0  0  0
 10 27  1  0  0  0  0
 10  9  1  0  0  0  0
 11 29  1  0  0  0  0
 11 10  1  0  0  0  0
 12 11  1  0  0  0  0
 12  2  1  0  0  0  0
 13  5  1  0  0  0  0
 14  3  1  0  0  0  0
 18  6  1  0  0  0  0
 20  7  1  0  0  0  0
 21  7  1  0  0  0  0
 22  8  1  0  0  0  0
 26 10  1  0  0  0  0
 28 11  1  0  0  0  0
 30 12  1  0  0  0  0
 31 12  1  0  0  0  0
M  END
