1
q = -1.0

 15 16  0  0  0  0  0  0  0  0999 V2000
   -2.6715    0.2680    0.0219 N   0  0  0  0  0  2  0  0  0  0  0  0
   -2.4201    2.5871    0.1428 O   0  0  0  0  0  0  0  0  0  0  0  0
   -5.4224    2.5047    0.1527 O   0  0  0  0  0  0  0  0  0  0  0  0
   -3.1134    1.5772    0.0932 C   0  0  0  0  0  0  0  0  0  0  0  0
   -4.6926    1.5305    0.0977 C   0  0  0  0  0  0  0  0  0  0  0  0
   -5.0089    0.0934    0.0216 C   0  0  0  0  0  0  0  0  0  0  0  0
   -6.2296   -0.5897   -0.0109 C   0  0  0  0  0  0  0  0  0  0  0  0
   -6.2179   -1.9923   -0.0869 C   0  0  0  0  0  0  0  0  0  0  0  0
   -4.9861   -2.6782   -0.1287 C   0  0  0  0  0  0  0  0  0  0  0  0
   -3.7529   -2.0018   -0.0966 C   0  0  0  0  0  0  0  0  0  0  0  0
   -3.7650   -0.6008   -0.0207 C   0  0  0  0  0  0  0  0  0  0  0  0
   -7.1704   -0.0186    0.0235 H   0  0  0  0  0  0  0  0  0  0  0  0
   -7.1611   -2.5574   -0.1140 H   0  0  0  0  0  0  0  0  0  0  0  0
   -4.9866   -3.7780   -0.1884 H   0  0  0  0  0  0  0  0  0  0  0  0
   -2.7989   -2.5501   -0.1301 H   0  0  0  0  0  0  0  0  0  0  0  0
  1  4  1  0  0  0  0
  4  5  1  0  0  0  0
  4  2  2  0  0  0  0
  5  3  2  0  0  0  0
  6  5  1  0  0  0  0
  7  6  1  0  0  0  0
  7 12  1  0  0  0  0
  8  7  2  0  0  0  0
  9 10  2  0  0  0  0
  9  8  1  0  0  0  0
 10 11  1  0  0  0  0
 11  6  2  0  0  0  0
 11  1  1  0  0  0  0
 13  8  1  0  0  0  0
 14  9  1  0  0  0  0
 15 10  1  0  0  0  0
M  END
