2
q = -1.0

 27 28  0  0  1  0  0  0  0  0999 V2000
    0.5420    0.1327   -1.6502 O   0  0  0  0  0  1  0  0  0  0  0  0
   -0.0677   -0.0049   -0.5204 N   0  0  0  0  0  2  0  0  0  0  0  0
   -2.4505    0.0180   -1.3822 C   0  0  2  0  0  0  0  0  0  0  0  0
   -2.1549    0.5089   -2.3279 H   0  0  0  0  0  0  0  0  0  0  0  0
   -2.0062   -0.2682    0.9690 C   0  0  0  0  0  0  0  0  0  0  0  0
   -3.5074   -0.3400    0.6250 C   0  0  1  0  0  0  0  0  0  0  0  0
   -1.4891   -0.4008    2.0734 O   0  0  0  0  0  0  0  0  0  0  0  0
   -1.3559   -0.0418   -0.3461 C   0  0  1  0  0  3  0  0  0  0  0  0
   -3.5887    0.7050   -0.5531 C   0  0  0  0  0  0  0  0  0  0  0  0
   -2.9578   -1.4447   -1.5194 C   0  0  0  0  0  0  0  0  0  0  0  0
   -2.1226   -2.1410   -1.7286 H   0  0  0  0  0  0  0  0  0  0  0  0
   -3.6736   -1.5362   -2.3598 H   0  0  0  0  0  0  0  0  0  0  0  0
   -3.2342    2.1353   -0.1216 C   0  0  0  0  0  0  0  0  0  0  0  0
   -2.2587    2.1989    0.4017 H   0  0  0  0  0  0  0  0  0  0  0  0
   -4.0064    2.5435    0.5613 H   0  0  0  0  0  0  0  0  0  0  0  0
   -3.1830    2.8047   -1.0044 H   0  0  0  0  0  0  0  0  0  0  0  0
   -3.6379   -1.7004   -0.1428 C   0  0  0  0  0  0  0  0  0  0  0  0
   -4.7107   -1.9584   -0.2500 H   0  0  0  0  0  0  0  0  0  0  0  0
   -3.1696   -2.5264    0.4290 H   0  0  0  0  0  0  0  0  0  0  0  0
   -4.4188   -0.1812    1.8240 C   0  0  0  0  0  0  0  0  0  0  0  0
   -5.4831   -0.3149    1.5455 H   0  0  0  0  0  0  0  0  0  0  0  0
   -4.3007    0.8172    2.2905 H   0  0  0  0  0  0  0  0  0  0  0  0
   -4.1634   -0.9312    2.5989 H   0  0  0  0  0  0  0  0  0  0  0  0
   -4.9455    0.7348   -1.2661 C   0  0  0  0  0  0  0  0  0  0  0  0
   -5.3055   -0.2628   -1.5799 H   0  0  0  0  0  0  0  0  0  0  0  0
   -4.8860    1.3704   -2.1734 H   0  0  0  0  0  0  0  0  0  0  0  0
   -5.7187    1.1746   -0.6042 H   0  0  0  0  0  0  0  0  0  0  0  0
  1  2  1  0  0  0  0
  3  4  1  6  0  0  0
  3  9  1  0  0  0  0
  3  8  1  0  0  0  0
  5  7  2  0  0  0  0
  6  5  1  0  0  0  0
  6 20  1  1  0  0  0
  8  2  1  6  0  0  0
  8  5  1  0  0  0  0
  9 13  1  0  0  0  0
  9  6  1  0  0  0  0
 10  3  1  0  0  0  0
 10 17  1  0  0  0  0
 11 10  1  0  0  0  0
 12 10  1  0  0  0  0
 13 14  1  0  0  0  0
 13 15  1  0  0  0  0
 16 13  1  0  0  0  0
 17 19  1  0  0  0  0
 17  6  1  0  0  0  0
 18 17  1  0  0  0  0
 20 22  1  0  0  0  0
 20 23  1  0  0  0  0
 21 20  1  0  0  0  0
 24 27  1  0  0  0  0
 24  9  1  0  0  0  0
 25 24  1  0  0  0  0
 26 24  1  0  0  0  0
M  END
