5
q = -1.0, confidence = 0.014

 25 24  0  0  0  0  0  0  0  0999 V2000
    2.7590   -2.6349   -1.0229 C   0  0  0  0  0  0  0  0  0  0  0  0
    1.7835   -3.1172   -1.2271 H   0  0  0  0  0  0  0  0  0  0  0  0
    3.5333   -3.4182   -0.9003 H   0  0  0  0  0  0  0  0  0  0  0  0
    3.0269   -2.0099   -1.8975 H   0  0  0  0  0  0  0  0  0  0  0  0
    1.6534   -0.7478    0.0591 N   0  0  0  0  0  2  0  0  0  0  0  0
    2.6698   -1.7881    0.2514 C   0  0  0  0  0  0  0  0  0  0  0  0
    3.6517   -1.2994    0.4329 H   0  0  0  0  0  0  0  0  0  0  0  0
    3.7698    1.1014   -1.1778 C   0  0  0  0  0  0  0  0  0  0  0  0
    4.2180    0.0991   -1.0413 H   0  0  0  0  0  0  0  0  0  0  0  0
    4.5965    1.8372   -1.2512 H   0  0  0  0  0  0  0  0  0  0  0  0
    3.2195    1.1046   -2.1397 H   0  0  0  0  0  0  0  0  0  0  0  0
    2.8330    1.4936   -0.0084 C   0  0  0  0  0  0  0  0  0  0  0  0
    1.6528    0.5355   -0.0321 C   0  0  0  0  0  2  0  0  0  0  0  0
    3.5736    1.4054    1.3446 C   0  0  0  0  0  0  0  0  0  0  0  0
    2.8965    1.6548    2.1855 H   0  0  0  0  0  0  0  0  0  0  0  0
    4.4135    2.1299    1.3586 H   0  0  0  0  0  0  0  0  0  0  0  0
    3.9927    0.3978    1.5311 H   0  0  0  0  0  0  0  0  0  0  0  0
    2.2882   -2.6147    1.4841 C   0  0  0  0  0  0  0  0  0  0  0  0
    2.2381   -1.9767    2.3896 H   0  0  0  0  0  0  0  0  0  0  0  0
    3.0423   -3.4075    1.6594 H   0  0  0  0  0  0  0  0  0  0  0  0
    1.2979   -3.0860    1.3291 H   0  0  0  0  0  0  0  0  0  0  0  0
    2.3555    2.9369   -0.2359 C   0  0  0  0  0  0  0  0  0  0  0  0
    1.7630    3.0160   -1.1676 H   0  0  0  0  0  0  0  0  0  0  0  0
    3.2246    3.6213   -0.3122 H   0  0  0  0  0  0  0  0  0  0  0  0
    1.7229    3.2875    0.6015 H   0  0  0  0  0  0  0  0  0  0  0  0
  1  3  1  0  0  0  0
  1  6  1  0  0  0  0
  2  1  1  0  0  0  0
  4  1  1  0  0  0  0
  5  6  1  0  0  0  0
  6  7  1  0  0  0  0
  6 18  1  0  0  0  0
  8  9  1  0  0  0  0
  8 12  1  0  0  0  0
 10  8  1  0  0  0  0
 11  8  1  0  0  0  0
 12 14  1  0  0  0  0
 13 12  1  0  0  0  0
 13  5  1  0  0  0  0
 14 16  1  0  0  0  0
 14 17  1  0  0  0  0
 14 15  1  0  0  0  0
 18 20  1  0  0  0  0
 18 19  1  0  0  0  0
 21 18  1  0  0  0  0
 22 12  1  0  0  0  0
 22 25  1  0  0  0  0
 23 22  1  0  0  0  0
 24 22  1  0  0  0  0
M  END
