1
q = -1.0, confidence = 0.0

 25 27  0  0  0  0  0  0  0  0999 V2000
    1.5197    0.3256    0.0493 N   0  0  0  0  0  2  0  0  0  0  0  0
    3.6231    1.9342    0.0421 O   0  0  0  0  0  0  0  0  0  0  0  0
    6.9998   -2.3439   -0.0302 O   0  0  0  0  0  0  0  0  0  0  0  0
    2.4116   -0.6873    0.0310 C   0  0  0  0  0  0  0  0  0  0  0  0
    1.9745   -2.0554    0.0236 C   0  0  0  0  0  0  0  0  0  0  0  0
    2.8705   -3.1126    0.0050 C   0  0  0  0  0  0  0  0  0  0  0  0
    4.2623   -2.8775   -0.0071 C   0  0  0  0  0  0  0  0  0  0  0  0
    8.1275    0.2423   -0.0211 C   0  0  0  0  0  0  0  0  0  0  0  0
    8.6297    1.5478   -0.0160 C   0  0  0  0  0  0  0  0  0  0  0  0
    7.7414    2.6412    0.0025 C   0  0  0  0  0  0  0  0  0  0  0  0
    6.3589    2.4252    0.0157 C   0  0  0  0  0  0  0  0  0  0  0  0
    4.3605    0.9196    0.0253 C   0  0  0  0  0  0  0  0  0  0  0  0
    6.2253   -1.3827   -0.0140 C   0  0  0  0  0  0  0  0  0  0  0  0
    3.8449   -0.4472    0.0191 C   0  0  0  0  0  0  0  0  0  0  0  0
    4.7403   -1.5646   -0.0000 C   0  0  0  0  0  0  0  0  0  0  0  0
    6.7374    0.0175   -0.0079 C   0  0  0  0  0  0  0  0  0  0  0  0
    5.8440    1.1141    0.0106 C   0  0  0  0  0  0  0  0  0  0  0  0
    2.0061    1.2431    0.0532 H   0  0  0  0  0  0  0  0  0  0  0  0
    0.8872   -2.2381    0.0354 H   0  0  0  0  0  0  0  0  0  0  0  0
    2.4894   -4.1459    0.0010 H   0  0  0  0  0  0  0  0  0  0  0  0
    4.9963   -3.6951   -0.0216 H   0  0  0  0  0  0  0  0  0  0  0  0
    8.7862   -0.6388   -0.0353 H   0  0  0  0  0  0  0  0  0  0  0  0
    9.7167    1.7212   -0.0263 H   0  0  0  0  0  0  0  0  0  0  0  0
    8.1362    3.6691    0.0065 H   0  0  0  0  0  0  0  0  0  0  0  0
    5.6379    3.2556    0.0304 H   0  0  0  0  0  0  0  0  0  0  0  0
  1 18  1  0  0  0  0
  3 13  2  0  0  0  0
  4  1  1  0  0  0  0
  5  4  1  0  0  0  0
  5 19  1  0  0  0  0
  6  5  2  0  0  0  0
  7 15  2  0  0  0  0
  7  6  1  0  0  0  0
  8  9  2  0  0  0  0
  8 16  1  0  0  0  0
  9 10  1  0  0  0  0
 10 24  1  0  0  0  0
 10 11  2  0  0  0  0
 11 25  1  0  0  0  0
 12  2  2  0  0  0  0
 13 16  1  0  0  0  0
 13 15  1  0  0  0  0
 14 12  1  0  0  0  0
 14  4  2  0  0  0  0
 15 14  1  0  0  0  0
 16 17  2  0  0  0  0
 17 11  1  0  0  0  0
 17 12  1  0  0  0  0
 20  6  1  0  0  0  0
 21  7  1  0  0  0  0
 22  8  1  0  0  0  0
 23  9  1  0  0  0  0
M  END
