2
q = 0.0, confidence = 1.0

 19 19  0  0  1  0  0  0  0  0999 V2000
    0.8630   -2.3166    1.3220 O   0  0  0  0  0  0  0  0  0  0  0  0
    1.6444    0.4973   -0.3914 N   0  0  0  0  0  2  0  0  0  0  0  0
    3.0138   -1.2272   -0.5871 N   0  0  0  0  0  0  0  0  0  0  0  0
    2.3076    0.6168   -1.5899 C   0  0  0  0  0  0  0  0  0  0  0  0
    2.0849    1.4592   -2.2564 H   0  0  0  0  0  0  0  0  0  0  0  0
    3.1689   -0.4568   -1.7281 C   0  0  0  0  0  0  0  0  0  0  0  0
    3.8632   -0.7412   -2.5251 H   0  0  0  0  0  0  0  0  0  0  0  0
    2.0863   -0.6103    0.2088 C   0  0  2  0  0  3  0  0  0  0  0  0
    1.6179   -1.1246    1.5267 C   0  0  0  0  0  0  0  0  0  0  0  0
    2.4886   -1.3316    2.1988 H   0  0  0  0  0  0  0  0  0  0  0  0
    1.0244   -0.3119    2.0081 H   0  0  0  0  0  0  0  0  0  0  0  0
    0.2700   -2.7835    2.5176 C   0  0  0  0  0  0  0  0  0  0  0  0
    1.0348   -3.0225    3.2953 H   0  0  0  0  0  0  0  0  0  0  0  0
   -0.2884   -3.7071    2.2713 H   0  0  0  0  0  0  0  0  0  0  0  0
   -0.4385   -2.0356    2.9431 H   0  0  0  0  0  0  0  0  0  0  0  0
    3.7024   -2.4691   -0.2711 C   0  0  0  0  0  0  0  0  0  0  0  0
    3.0078   -3.1296    0.2804 H   0  0  0  0  0  0  0  0  0  0  0  0
    4.6061   -2.2819    0.3443 H   0  0  0  0  0  0  0  0  0  0  0  0
    4.0062   -2.9697   -1.2086 H   0  0  0  0  0  0  0  0  0  0  0  0
  1  9  1  0  0  0  0
  1 12  1  0  0  0  0
  2  8  1  0  0  0  0
  3 16  1  0  0  0  0
  3  8  1  0  0  0  0
  4  2  1  0  0  0  0
  5  4  1  0  0  0  0
  6  4  2  0  0  0  0
  6  3  1  0  0  0  0
  7  6  1  0  0  0  0
  8  9  1  6  0  0  0
  9 11  1  0  0  0  0
  9 10  1  0  0  0  0
 12 15  1  0  0  0  0
 12 13  1  0  0  0  0
 14 12  1  0  0  0  0
 16 17  1  0  0  0  0
 16 18  1  0  0  0  0
 19 16  1  0  0  0  0
M  END
