15
q = 0.0, confidence = 1.0

 18 19  0  0  0  0  0  0  0  0999 V2000
   -2.8336   -1.1702    0.4374 C   0  0  0  0  0  3  0  0  0  0  0  0
   -2.1567   -1.9626    0.7974 H   0  0  0  0  0  0  0  0  0  0  0  0
   -4.2120   -1.2422    0.6280 C   0  0  0  0  0  0  0  0  0  0  0  0
   -4.6740   -2.0947    1.1444 H   0  0  0  0  0  0  0  0  0  0  0  0
   -5.0347   -0.1939    0.1550 C   0  0  0  0  0  0  0  0  0  0  0  0
   -4.4000    0.8792   -0.5087 C   0  0  0  0  0  0  0  0  0  0  0  0
   -4.9620    1.7348   -0.9113 H   0  0  0  0  0  0  0  0  0  0  0  0
   -3.0126    0.8697   -0.6643 C   0  0  0  0  0  0  0  0  0  0  0  0
   -2.4983    1.6995   -1.1762 H   0  0  0  0  0  0  0  0  0  0  0  0
   -6.4746   -0.2654    0.3710 C   0  0  0  0  0  0  0  0  0  0  0  0
   -8.4368   -0.9488    0.9584 C   0  0  0  0  0  0  0  0  0  0  0  0
   -9.2015   -1.6117    1.3821 H   0  0  0  0  0  0  0  0  0  0  0  0
   -8.6268    0.2990    0.3680 C   0  0  0  0  0  0  0  0  0  0  0  0
   -9.5209    0.9045    0.1866 H   0  0  0  0  0  0  0  0  0  0  0  0
   -2.2400   -0.1318   -0.1953 N   0  0  0  0  0  2  0  0  0  0  0  0
   -7.1131   -1.2829    0.9548 N   0  0  0  0  0  0  0  0  0  0  0  0
   -7.3709    0.7167    0.0001 N   0  0  0  0  0  0  0  0  0  0  0  0
   -7.1490    1.6049   -0.4504 H   0  0  0  0  0  0  0  0  0  0  0  0
  1  3  1  0  0  0  0
  1  2  1  0  0  0  0
  3  4  1  0  0  0  0
  5 10  1  0  0  0  0
  5  3  2  0  0  0  0
  6  5  1  0  0  0  0
  7  6  1  0  0  0  0
  8  6  2  0  0  0  0
  8 15  1  0  0  0  0
  9  8  1  0  0  0  0
 10 16  2  0  0  0  0
 11 12  1  0  0  0  0
 13 11  2  0  0  0  0
 14 13  1  0  0  0  0
 15  1  1  0  0  0  0
 16 11  1  0  0  0  0
 17 13  1  0  0  0  0
 17 10  1  0  0  0  0
 18 17  1  0  0  0  0
M  END
