1
q = -1.0

 31 32  0  0  1  0  0  0  0  0999 V2000
   -0.2459   -1.8360   -0.2934 N   0  0  0  0  0  2  0  0  0  0  0  0
    0.3366   -2.8145    0.6713 C   0  0  0  0  0  0  0  0  0  0  0  0
    0.2142   -2.2370    2.0976 C   0  0  0  0  0  0  0  0  0  0  0  0
    0.8009   -1.3028    2.1783 H   0  0  0  0  0  0  0  0  0  0  0  0
    0.6209   -2.9611    2.8294 H   0  0  0  0  0  0  0  0  0  0  0  0
   -0.8360   -2.0031    2.3592 H   0  0  0  0  0  0  0  0  0  0  0  0
    1.8076   -3.0704    0.3381 C   0  0  0  0  0  0  0  0  0  0  0  0
    2.4117   -2.1862    0.6141 H   0  0  0  0  0  0  0  0  0  0  0  0
    1.9665   -3.2605   -0.7385 H   0  0  0  0  0  0  0  0  0  0  0  0
    2.1909   -3.9309    0.9221 H   0  0  0  0  0  0  0  0  0  0  0  0
   -0.5989   -4.0681    0.4809 C   0  0  0  0  0  0  0  0  0  0  0  0
   -0.8913   -4.9232    1.7061 C   0  0  0  0  0  0  0  0  0  0  0  0
   -1.6152   -5.7161    1.4376 H   0  0  0  0  0  0  0  0  0  0  0  0
   -1.3193   -4.3327    2.5363 H   0  0  0  0  0  0  0  0  0  0  0  0
    0.0410   -5.4062    2.0576 H   0  0  0  0  0  0  0  0  0  0  0  0
   -0.1757   -4.9468   -0.7093 C   0  0  0  0  0  0  0  0  0  0  0  0
   -1.0093   -5.6329   -0.9573 H   0  0  0  0  0  0  0  0  0  0  0  0
    0.7128   -5.5495   -0.4441 H   0  0  0  0  0  0  0  0  0  0  0  0
    0.0646   -4.3388   -1.6025 H   0  0  0  0  0  0  0  0  0  0  0  0
   -1.8733   -3.3739    0.0374 N   0  0  0  0  0  0  0  0  0  0  0  0
   -2.9546   -3.9731   -0.1007 O   0  0  0  0  0  1  0  0  0  0  0  0
   -1.5288   -2.1294   -0.4583 C   0  0  2  0  0  3  0  0  0  0  0  0
   -2.4690   -1.2502   -1.1358 C   0  0  0  0  0  0  0  0  0  0  0  0
   -2.0545   -0.0603   -1.6709 N   0  0  0  0  0  0  0  0  0  0  0  0
   -3.1273    0.5412   -2.1123 N   0  0  0  0  0  2  0  0  0  0  0  0
   -4.1489   -0.2895   -1.8455 N   0  0  0  0  0  0  0  0  0  0  0  0
   -3.7959   -1.4165   -1.2434 N   0  0  0  0  0  2  0  0  0  0  0  0
   -5.5292    0.0727   -2.1011 C   0  0  0  0  0  0  0  0  0  0  0  0
   -5.5233    0.9580   -2.7599 H   0  0  0  0  0  0  0  0  0  0  0  0
   -6.0287    0.3147   -1.1430 H   0  0  0  0  0  0  0  0  0  0  0  0
   -6.0461   -0.7739   -2.5881 H   0  0  0  0  0  0  0  0  0  0  0  0
  1  2  1  0  0  0  0
  2  3  1  0  0  0  0
  3  4  1  0  0  0  0
  3  6  1  0  0  0  0
  3  5  1  0  0  0  0
  7  8  1  0  0  0  0
  7  2  1  0  0  0  0
  7 10  1  0  0  0  0
  9  7  1  0  0  0  0
 11  2  1  0  0  0  0
 11 12  1  0  0  0  0
 12 15  1  0  0  0  0
 12 14  1  0  0  0  0
 13 12  1  0  0  0  0
 16 18  1  0  0  0  0
 16 11  1  0  0  0  0
 17 16  1  0  0  0  0
 19 16  1  0  0  0  0
 20 11  1  0  0  0  0
 21 20  1  0  0  0  0
 22 23  1  6  0  0  0
 22  1  1  0  0  0  0
 22 20  1  0  0  0  0
 24 23  2  0  0  0  0
 25 26  1  0  0  0  0
 25 24  1  0  0  0  0
 26 27  1  0  0  0  0
 27 23  1  0  0  0  0
 28 26  1  0  0  0  0
 28 30  1  0  0  0  0
 29 28  1  0  0  0  0
 31 28  1  0  0  0  0
M  END
