1
q = -1.0

 14 15  0  0  0  0  0  0  0  0999 V2000
   -1.0994    2.2137   -0.7070 N   0  0  0  0  0  0  0  0  0  0  0  0
   -0.6860    2.7100   -1.9106 N   0  0  0  0  0  0  0  0  0  0  0  0
   -1.3454    3.8507   -2.1436 C   0  0  0  0  0  0  0  0  0  0  0  0
   -1.1618    4.4185   -3.0656 H   0  0  0  0  0  0  0  0  0  0  0  0
   -2.2368    4.1478   -1.0672 C   0  0  0  0  0  0  0  0  0  0  0  0
   -3.1619    5.1674   -0.7396 C   0  0  0  0  0  3  0  0  0  0  0  0
   -3.3288    6.0157   -1.4220 H   0  0  0  0  0  0  0  0  0  0  0  0
   -3.8583    5.0780    0.4665 C   0  0  0  0  0  0  0  0  0  0  0  0
   -4.5818    5.8617    0.7394 H   0  0  0  0  0  0  0  0  0  0  0  0
   -3.6499    3.9874    1.3572 C   0  0  0  0  0  0  0  0  0  0  0  0
   -4.2166    3.9509    2.3009 H   0  0  0  0  0  0  0  0  0  0  0  0
   -2.7449    2.9684    1.0595 C   0  0  0  0  0  0  0  0  0  0  0  0
   -2.5812    2.1249    1.7484 H   0  0  0  0  0  0  0  0  0  0  0  0
   -2.0366    3.0513   -0.1610 C   0  0  0  0  0  0  0  0  0  0  0  0
  1 14  1  0  0  0  0
  2  1  2  0  0  0  0
  3  2  1  0  0  0  0
  3  5  2  0  0  0  0
  4  3  1  0  0  0  0
  5  6  1  0  0  0  0
  5 14  1  0  0  0  0
  6  8  1  0  0  0  0
  7  6  1  0  0  0  0
  8  9  1  0  0  0  0
  8 10  2  0  0  0  0
 10 11  1  0  0  0  0
 12 10  1  0  0  0  0
 12 13  1  0  0  0  0
 14 12  2  0  0  0  0
M  END
