4
q = -1.0, confidence = 0.002

 16 16  0  0  0  0  0  0  0  0999 V2000
    0.2200   -2.0735    0.1561 O   0  0  0  0  0  0  0  0  0  0  0  0
    4.2434    2.4512   -0.0216 O   0  0  0  0  0  0  0  0  0  0  0  0
    5.7593    0.8816   -0.0692 O   0  0  0  0  0  0  0  0  0  0  0  0
    1.1785   -0.0961    0.0232 N   0  0  0  0  0  2  0  0  0  0  0  0
    4.5847    1.2628   -0.0273 N   0  0  0  0  0  0  0  0  0  0  0  0
    1.3489   -1.4620    0.1170 C   0  0  0  0  0  0  0  0  0  0  0  0
    2.6630   -1.9976    0.1558 C   0  0  0  0  0  0  0  0  0  0  0  0
    3.7793   -1.1574    0.1128 C   0  0  0  0  0  0  0  0  0  0  0  0
    3.5276    0.2520    0.0184 C   0  0  0  0  0  0  0  0  0  0  0  0
    2.2121    0.7373   -0.0391 C   0  0  0  0  0  0  0  0  0  0  0  0
    5.1534   -1.7663    0.1628 C   0  0  0  0  0  0  0  0  0  0  0  0
    2.7844   -3.0878    0.2173 H   0  0  0  0  0  0  0  0  0  0  0  0
    2.0294    1.8170   -0.1295 H   0  0  0  0  0  0  0  0  0  0  0  0
    5.7462   -1.3577    1.0036 H   0  0  0  0  0  0  0  0  0  0  0  0
    5.7320   -1.5179   -0.7478 H   0  0  0  0  0  0  0  0  0  0  0  0
    5.0782   -2.8655    0.2633 H   0  0  0  0  0  0  0  0  0  0  0  0
  3  5  2  0  0  0  0
  4  6  1  0  0  0  0
  5  2  2  0  0  0  0
  5  9  1  0  0  0  0
  6  7  1  0  0  0  0
  6  1  2  0  0  0  0
  7 12  1  0  0  0  0
  8  7  2  0  0  0  0
  8 11  1  0  0  0  0
  9  8  1  0  0  0  0
 10  9  2  0  0  0  0
 10  4  1  0  0  0  0
 11 16  1  0  0  0  0
 11 14  1  0  0  0  0
 13 10  1  0  0  0  0
 15 11  1  0  0  0  0
M  END
