4
q = -1.0, confidence = 0.006

 17 17  0  0  0  0  0  0  0  0999 V2000
    0.2471   -2.2425    0.1027 O   0  0  0  0  0  0  0  0  0  0  0  0
   -5.8590   -0.5067    0.0873 O   0  0  0  0  0  0  0  0  0  0  0  0
   -4.6882    1.4376   -0.0254 O   0  0  0  0  0  0  0  0  0  0  0  0
   -1.0858   -0.4927    0.0288 N   0  0  0  0  0  2  0  0  0  0  0  0
   -0.9846   -1.8657    0.0924 C   0  0  0  0  0  0  0  0  0  0  0  0
   -2.1684   -2.6541    0.1365 C   0  0  0  0  0  0  0  0  0  0  0  0
   -3.3905   -1.9961    0.1267 C   0  0  0  0  0  0  0  0  0  0  0  0
   -3.4615   -0.5775    0.0533 C   0  0  0  0  0  0  0  0  0  0  0  0
   -2.2591    0.1451   -0.0118 C   0  0  0  0  0  0  0  0  0  0  0  0
   -4.7883    0.0784    0.0416 C   0  0  0  0  0  0  0  0  0  0  0  0
   -5.9355    2.1347   -0.0533 C   0  0  0  0  0  0  0  0  0  0  0  0
   -2.0857   -3.7486    0.1740 H   0  0  0  0  0  0  0  0  0  0  0  0
   -4.3395   -2.5518    0.1670 H   0  0  0  0  0  0  0  0  0  0  0  0
   -2.2472    1.2418   -0.0907 H   0  0  0  0  0  0  0  0  0  0  0  0
   -6.5398    1.8335   -0.9332 H   0  0  0  0  0  0  0  0  0  0  0  0
   -5.6866    3.2097   -0.1087 H   0  0  0  0  0  0  0  0  0  0  0  0
   -6.5307    1.9226    0.8584 H   0  0  0  0  0  0  0  0  0  0  0  0
  3 10  1  0  0  0  0
  4  5  1  0  0  0  0
  5  1  2  0  0  0  0
  5  6  1  0  0  0  0
  6 12  1  0  0  0  0
  7  6  2  0  0  0  0
  7 13  1  0  0  0  0
  8  7  1  0  0  0  0
  9  4  1  0  0  0  0
  9  8  2  0  0  0  0
 10  8  1  0  0  0  0
 10  2  2  0  0  0  0
 11  3  1  0  0  0  0
 11 17  1  0  0  0  0
 14  9  1  0  0  0  0
 15 11  1  0  0  0  0
 16 11  1  0  0  0  0
M  END
