1
q = -1.0

 29 29  0  0  0  0  0  0  0  0999 V2000
   -1.8883    0.1145   -0.0006 N   0  0  0  0  0  2  0  0  0  0  0  0
   -1.3234    1.2695   -0.1006 C   0  0  0  0  0  2  0  0  0  0  0  0
   -3.2565   -0.2671    0.0384 C   0  0  0  0  0  0  0  0  0  0  0  0
   -3.9783   -0.1920    1.2561 C   0  0  0  0  0  0  0  0  0  0  0  0
   -5.3275   -0.5928    1.2547 C   0  0  0  0  0  0  0  0  0  0  0  0
   -5.9433   -1.0704    0.0915 C   0  0  0  0  0  0  0  0  0  0  0  0
   -5.2034   -1.1657   -1.0939 C   0  0  0  0  0  0  0  0  0  0  0  0
   -3.8533   -0.7758   -1.1423 C   0  0  0  0  0  0  0  0  0  0  0  0
   -3.3131    0.2408    2.5354 C   0  0  0  0  0  0  0  0  0  0  0  0
   -3.0452   -0.9146   -2.4023 C   0  0  0  0  0  0  0  0  0  0  0  0
   -2.1006    2.5608   -0.2305 C   0  0  0  0  0  0  0  0  0  0  0  0
   -1.7747    3.5464    0.9030 C   0  0  0  0  0  0  0  0  0  0  0  0
   -1.8624    3.1952   -1.6118 C   0  0  0  0  0  0  0  0  0  0  0  0
   -5.8969   -0.5326    2.1955 H   0  0  0  0  0  0  0  0  0  0  0  0
   -6.9990   -1.3793    0.1116 H   0  0  0  0  0  0  0  0  0  0  0  0
   -5.6735   -1.5571   -2.0096 H   0  0  0  0  0  0  0  0  0  0  0  0
   -4.0591    0.4064    3.3353 H   0  0  0  0  0  0  0  0  0  0  0  0
   -2.7207    1.1693    2.4189 H   0  0  0  0  0  0  0  0  0  0  0  0
   -2.6101   -0.5446    2.8835 H   0  0  0  0  0  0  0  0  0  0  0  0
   -2.1748   -1.5792   -2.2191 H   0  0  0  0  0  0  0  0  0  0  0  0
   -2.6435    0.0617   -2.7464 H   0  0  0  0  0  0  0  0  0  0  0  0
   -3.6525   -1.3424   -3.2219 H   0  0  0  0  0  0  0  0  0  0  0  0
   -3.1827    2.2999   -0.1599 H   0  0  0  0  0  0  0  0  0  0  0  0
   -2.4089    4.4513    0.8123 H   0  0  0  0  0  0  0  0  0  0  0  0
   -0.7160    3.8700    0.8705 H   0  0  0  0  0  0  0  0  0  0  0  0
   -1.9656    3.1037    1.9009 H   0  0  0  0  0  0  0  0  0  0  0  0
   -2.0819    2.4829   -2.4320 H   0  0  0  0  0  0  0  0  0  0  0  0
   -0.8145    3.5381   -1.7255 H   0  0  0  0  0  0  0  0  0  0  0  0
   -2.5214    4.0771   -1.7422 H   0  0  0  0  0  0  0  0  0  0  0  0
  1  3  1  0  0  0  0
  2  1  1  0  0  0  0
  3  4  1  0  0  0  0
  4  9  1  0  0  0  0
  5  4  2  0  0  0  0
  5 14  1  0  0  0  0
  6 15  1  0  0  0  0
  6  5  1  0  0  0  0
  7  6  2  0  0  0  0
  8  7  1  0  0  0  0
  8  3  2  0  0  0  0
  9 19  1  0  0  0  0
  9 17  1  0  0  0  0
 10 20  1  0  0  0  0
 10  8  1  0  0  0  0
 11 23  1  0  0  0  0
 11  2  1  0  0  0  0
 11 12  1  0  0  0  0
 12 26  1  0  0  0  0
 13 11  1  0  0  0  0
 16  7  1  0  0  0  0
 18  9  1  0  0  0  0
 21 10  1  0  0  0  0
 22 10  1  0  0  0  0
 24 12  1  0  0  0  0
 25 12  1  0  0  0  0
 27 13  1  0  0  0  0
 28 13  1  0  0  0  0
 29 13  1  0  0  0  0
M  END
