3
q = -1.0

 24 26  0  0  1  0  0  0  0  0999 V2000
   -5.3357    0.9251    0.8795 O   0  0  0  0  0  0  0  0  0  0  0  0
   -3.9771   -1.2431   -0.1381 O   0  0  0  0  0  0  0  0  0  0  0  0
   -1.7703   -0.8993   -0.2752 N   0  0  0  0  0  2  0  0  0  0  0  0
   -4.5173    1.6315    0.2647 C   0  0  0  0  0  0  0  0  0  0  0  0
   -4.6973    3.0825    0.1353 C   0  0  0  0  0  0  0  0  0  0  0  0
   -3.7959    3.8757   -0.5398 C   0  0  0  0  0  0  0  0  0  0  0  0
   -2.6428    3.3004   -1.1516 C   0  0  0  0  0  0  0  0  0  0  0  0
   -2.3930    1.9310   -1.0521 C   0  0  0  0  0  0  0  0  0  0  0  0
   -3.2796    1.0791   -0.3600 C   0  0  1  0  0  3  0  0  0  0  0  0
   -2.9821   -0.3216   -0.2523 C   0  0  1  0  0  3  0  0  0  0  0  0
   -3.3652   -2.4700   -0.1074 C   0  0  0  0  0  0  0  0  0  0  0  0
   -3.9524   -3.7294   -0.0014 C   0  0  0  0  0  0  0  0  0  0  0  0
   -3.0603   -4.8147   -0.0021 C   0  0  0  0  0  0  0  0  0  0  0  0
   -1.6590   -4.6331   -0.1106 C   0  0  0  0  0  0  0  0  0  0  0  0
   -1.0825   -3.3616   -0.2158 C   0  0  0  0  0  0  0  0  0  0  0  0
   -1.9702   -2.2701   -0.2055 C   0  0  0  0  0  0  0  0  0  0  0  0
   -5.6035    3.4919    0.6054 H   0  0  0  0  0  0  0  0  0  0  0  0
   -3.9672    4.9602   -0.6250 H   0  0  0  0  0  0  0  0  0  0  0  0
   -1.9483    3.9359   -1.7208 H   0  0  0  0  0  0  0  0  0  0  0  0
   -1.5023    1.5013   -1.5376 H   0  0  0  0  0  0  0  0  0  0  0  0
   -5.0404   -3.8556    0.0773 H   0  0  0  0  0  0  0  0  0  0  0  0
   -3.4633   -5.8353    0.0763 H   0  0  0  0  0  0  0  0  0  0  0  0
   -1.0076   -5.5194   -0.1240 H   0  0  0  0  0  0  0  0  0  0  0  0
   -0.0031   -3.2005   -0.3398 H   0  0  0  0  0  0  0  0  0  0  0  0
  2 11  1  0  0  0  0
  3 16  1  0  0  0  0
  4  1  2  0  0  0  0
  5  4  1  0  0  0  0
  5 17  1  0  0  0  0
  6  5  2  0  0  0  0
  7  8  2  0  0  0  0
  7  6  1  0  0  0  0
  9  8  1  1  0  0  0
  9 10  1  0  0  0  0
  9  4  1  0  0  0  0
 10  3  1  6  0  0  0
 10  2  1  0  0  0  0
 11 12  1  0  0  0  0
 12 21  1  0  0  0  0
 13 12  2  0  0  0  0
 13 22  1  0  0  0  0
 14 13  1  0  0  0  0
 15 16  1  0  0  0  0
 15 14  2  0  0  0  0
 16 11  2  0  0  0  0
 18  6  1  0  0  0  0
 19  7  1  0  0  0  0
 20  8  1  0  0  0  0
 23 14  1  0  0  0  0
 24 15  1  0  0  0  0
M  END
