1
q = 0.0, confidence = 0.994

 23 24  0  0  0  0  0  0  0  0999 V2000
   -1.6658   -1.1423   -0.4620 N   0  0  0  0  0  2  0  0  0  0  0  0
   -2.1018   -0.3136    0.5133 C   0  0  0  0  0  3  0  0  0  0  0  0
   -1.3227    0.2009    1.1097 H   0  0  0  0  0  0  0  0  0  0  0  0
   -3.4668   -0.1104    0.7262 C   0  0  0  0  0  0  0  0  0  0  0  0
   -3.7845    0.5925    1.5086 H   0  0  0  0  0  0  0  0  0  0  0  0
   -4.4043   -0.7849   -0.0753 C   0  0  0  0  0  0  0  0  0  0  0  0
   -3.9244   -1.7246   -1.0077 C   0  0  0  0  0  0  0  0  0  0  0  0
   -4.6340   -2.3132   -1.6060 H   0  0  0  0  0  0  0  0  0  0  0  0
   -2.5498   -1.8684   -1.1861 C   0  0  0  0  0  0  0  0  0  0  0  0
   -2.1244   -2.5594   -1.9275 H   0  0  0  0  0  0  0  0  0  0  0  0
   -5.8940   -0.5814    0.0579 C   0  0  0  0  0  0  0  0  0  0  0  0
   -6.4059    0.8061    0.2783 C   0  0  0  0  0  0  0  0  0  0  0  0
   -7.7204    0.9502    0.7762 C   0  0  0  0  0  0  0  0  0  0  0  0
   -8.2901    0.0375    1.0058 H   0  0  0  0  0  0  0  0  0  0  0  0
   -8.2673    2.2225    0.9666 C   0  0  0  0  0  0  0  0  0  0  0  0
   -9.2862    2.3293    1.3686 H   0  0  0  0  0  0  0  0  0  0  0  0
   -7.5160    3.3662    0.6390 C   0  0  0  0  0  0  0  0  0  0  0  0
   -7.9484    4.3679    0.7849 H   0  0  0  0  0  0  0  0  0  0  0  0
   -6.2194    3.2322    0.1180 C   0  0  0  0  0  0  0  0  0  0  0  0
   -5.6361    4.1236   -0.1572 H   0  0  0  0  0  0  0  0  0  0  0  0
   -5.6594    1.9590   -0.0597 C   0  0  0  0  0  0  0  0  0  0  0  0
   -4.6494    1.8742   -0.4902 H   0  0  0  0  0  0  0  0  0  0  0  0
   -6.6438   -1.5501   -0.0348 O   0  0  0  0  0  0  0  0  0  0  0  0
  1  2  1  0  0  0  0
  2  4  1  0  0  0  0
  2  3  1  0  0  0  0
  4  5  1  0  0  0  0
  6 11  1  0  0  0  0
  6  4  2  0  0  0  0
  7  6  1  0  0  0  0
  8  7  1  0  0  0  0
  9  7  2  0  0  0  0
  9  1  1  0  0  0  0
 10  9  1  0  0  0  0
 11 12  1  0  0  0  0
 12 13  1  0  0  0  0
 13 15  2  0  0  0  0
 13 14  1  0  0  0  0
 15 16  1  0  0  0  0
 17 18  1  0  0  0  0
 17 15  1  0  0  0  0
 19 17  2  0  0  0  0
 20 19  1  0  0  0  0
 21 19  1  0  0  0  0
 21 12  2  0  0  0  0
 22 21  1  0  0  0  0
 23 11  2  0  0  0  0
M  END
