3
q = -1.0

 23 24  0  0  1  0  0  0  0  0999 V2000
   -2.0541   -0.0691    1.4857 Si  0  0  0  0  0  3  0  0  0  0  0  0
   -2.9510    1.2661    0.5339 N   0  0  0  0  0  0  0  0  0  0  0  0
   -0.9909    1.7294   -0.7810 N   0  0  0  0  0  2  0  0  0  0  0  0
   -4.2403    1.7791    0.5651 C   0  0  0  0  0  0  0  0  0  0  0  0
   -4.9693    1.3784    1.2801 H   0  0  0  0  0  0  0  0  0  0  0  0
   -4.4082    2.7855   -0.3781 C   0  0  0  0  0  0  0  0  0  0  0  0
   -5.3256    3.3562   -0.5611 H   0  0  0  0  0  0  0  0  0  0  0  0
   -3.1479    2.9222   -1.0535 C   0  0  0  0  0  0  0  0  0  0  0  0
   -2.2795    1.9538   -0.4455 C   0  0  1  0  0  3  0  0  0  0  0  0
   -0.4965    2.4971   -1.7758 C   0  0  0  0  0  0  0  0  0  0  0  0
    0.5532    2.3116   -2.0486 H   0  0  0  0  0  0  0  0  0  0  0  0
   -1.2602    3.4811   -2.4384 C   0  0  0  0  0  0  0  0  0  0  0  0
   -0.7840    4.0668   -3.2377 H   0  0  0  0  0  0  0  0  0  0  0  0
   -2.5990    3.7079   -2.0864 C   0  0  0  0  0  0  0  0  0  0  0  0
   -3.1965    4.4741   -2.6034 H   0  0  0  0  0  0  0  0  0  0  0  0
   -2.3030    0.4404    3.3029 C   0  0  0  0  0  0  0  0  0  0  0  0
   -1.8983    1.4554    3.4945 H   0  0  0  0  0  0  0  0  0  0  0  0
   -1.7703   -0.2664    3.9720 H   0  0  0  0  0  0  0  0  0  0  0  0
   -3.3748    0.4349    3.5906 H   0  0  0  0  0  0  0  0  0  0  0  0
   -3.1227   -1.6245    1.2438 C   0  0  0  0  0  0  0  0  0  0  0  0
   -4.1033   -1.5000    1.7484 H   0  0  0  0  0  0  0  0  0  0  0  0
   -2.6222   -2.5087    1.6890 H   0  0  0  0  0  0  0  0  0  0  0  0
   -3.3049   -1.8433    0.1740 H   0  0  0  0  0  0  0  0  0  0  0  0
  1 16  1  0  0  0  0
  2  4  1  0  0  0  0
  2  1  1  0  0  0  0
  3  9  1  0  0  0  0
  4  5  1  0  0  0  0
  6  4  2  0  0  0  0
  7  6  1  0  0  0  0
  8  6  1  0  0  0  0
  9  8  1  6  0  0  0
  9  2  1  0  0  0  0
 10  3  1  0  0  0  0
 11 10  1  0  0  0  0
 12 14  1  0  0  0  0
 12 10  2  0  0  0  0
 13 12  1  0  0  0  0
 14  8  2  0  0  0  0
 15 14  1  0  0  0  0
 16 17  1  0  0  0  0
 16 19  1  0  0  0  0
 16 18  1  0  0  0  0
 20  1  1  0  0  0  0
 20 22  1  0  0  0  0
 20 21  1  0  0  0  0
 23 20  1  0  0  0  0
M  END
