2
q = -1.0

 17 18  0  0  0  0  0  0  0  0999 V2000
   -1.2654   -0.6523   -0.2771 N   0  0  0  0  0  0  0  0  0  0  0  0
   -0.1307   -0.3355   -0.9009 N   0  0  0  0  0  2  0  0  0  0  0  0
   -0.3533    0.4167   -1.9921 N   0  0  0  0  0  0  0  0  0  0  0  0
   -1.6554    0.5966   -2.0953 N   0  0  0  0  0  0  0  0  0  0  0  0
   -2.2093   -0.0625   -1.0400 C   0  0  0  0  0  0  0  0  0  0  0  0
   -3.6446   -0.1074   -0.7607 C   0  0  0  0  0  0  0  0  0  0  0  0
   -4.1403   -0.8108    0.3605 C   0  0  0  0  0  0  0  0  0  0  0  0
   -3.4270   -1.3354    1.0122 H   0  0  0  0  0  0  0  0  0  0  0  0
   -5.5086   -0.8403    0.6323 C   0  0  0  0  0  0  0  0  0  0  0  0
   -5.8931   -1.3891    1.5039 H   0  0  0  0  0  0  0  0  0  0  0  0
   -6.4168   -0.1623   -0.2172 C   0  0  0  0  0  0  0  0  0  0  0  0
   -5.9230    0.5390   -1.3445 C   0  0  0  0  0  0  0  0  0  0  0  0
   -6.6286    1.0619   -2.0059 H   0  0  0  0  0  0  0  0  0  0  0  0
   -4.5534    0.5637   -1.6099 C   0  0  0  0  0  0  0  0  0  0  0  0
   -4.1546    1.1033   -2.4808 H   0  0  0  0  0  0  0  0  0  0  0  0
   -7.8214   -0.1843    0.0641 C   0  0  0  0  0  0  0  0  0  0  0  0
   -8.9726   -0.1996    0.2990 N   0  0  0  0  0  0  0  0  0  0  0  0
  2  1  1  0  0  0  0
  3  2  1  0  0  0  0
  4  3  2  0  0  0  0
  4  5  1  0  0  0  0
  5  6  1  0  0  0  0
  5  1  2  0  0  0  0
  6  7  1  0  0  0  0
  7  9  2  0  0  0  0
  7  8  1  0  0  0  0
  9 10  1  0  0  0  0
 11 16  1  0  0  0  0
 11  9  1  0  0  0  0
 12 11  2  0  0  0  0
 13 12  1  0  0  0  0
 14 12  1  0  0  0  0
 14  6  2  0  0  0  0
 15 14  1  0  0  0  0
 16 17  3  0  0  0  0
M  END
