2
q = 0.0, confidence = 1.0

 28 30  0  0  1  0  0  0  0  0999 V2000
    1.7561    0.0006    0.9380 N   0  0  0  0  0  0  0  0  0  0  0  0
    1.5504   -0.0017   -1.7441 N   0  0  0  0  0  2  0  0  0  0  0  0
    2.9223   -0.0002    0.2261 C   0  0  0  0  0  0  0  0  0  0  0  0
    2.8152   -0.0014   -1.2033 C   0  0  0  0  0  0  0  0  0  0  0  0
    1.4149   -0.0026   -3.0809 C   0  0  0  0  0  0  0  0  0  0  0  0
    0.3874   -0.0029   -3.4695 H   0  0  0  0  0  0  0  0  0  0  0  0
    2.5262   -0.0034   -3.9427 C   0  0  0  0  0  0  0  0  0  0  0  0
    2.3617   -0.0041   -5.0292 H   0  0  0  0  0  0  0  0  0  0  0  0
    3.8119   -0.0031   -3.4105 C   0  0  0  0  0  0  0  0  0  0  0  0
    4.6787   -0.0037   -4.0837 H   0  0  0  0  0  0  0  0  0  0  0  0
    3.9949   -0.0021   -2.0015 C   0  0  0  0  0  0  0  0  0  0  0  0
    5.3078   -0.0018   -1.3713 C   0  0  2  0  0  3  0  0  0  0  0  0
    5.4131   -0.0006    0.0187 C   0  0  0  0  0  0  0  0  0  0  0  0
    4.2090    0.0003    0.8368 C   0  0  0  0  0  0  0  0  0  0  0  0
    4.2314    0.0017    2.2583 C   0  0  0  0  0  0  0  0  0  0  0  0
    5.1869    0.0021    2.7989 H   0  0  0  0  0  0  0  0  0  0  0  0
    3.0368    0.0025    2.9718 C   0  0  0  0  0  0  0  0  0  0  0  0
    3.0322    0.0036    4.0707 H   0  0  0  0  0  0  0  0  0  0  0  0
    1.8145    0.0019    2.2716 C   0  0  0  0  0  0  0  0  0  0  0  0
    0.8604    0.0025    2.8231 H   0  0  0  0  0  0  0  0  0  0  0  0
    6.5007   -0.0027   -2.2916 C   0  0  0  0  0  0  0  0  0  0  0  0
    6.4956    0.8885   -2.9529 H   0  0  0  0  0  0  0  0  0  0  0  0
    6.4949   -0.8945   -2.9520 H   0  0  0  0  0  0  0  0  0  0  0  0
    7.4621   -0.0028   -1.7538 H   0  0  0  0  0  0  0  0  0  0  0  0
    6.7300   -0.0000    0.7499 C   0  0  0  0  0  0  0  0  0  0  0  0
    6.8213   -0.8904    1.4059 H   0  0  0  0  0  0  0  0  0  0  0  0
    6.8218    0.8921    1.4034 H   0  0  0  0  0  0  0  0  0  0  0  0
    7.6012   -0.0013    0.0757 H   0  0  0  0  0  0  0  0  0  0  0  0
  1 19  2  0  0  0  0
  2  4  1  0  0  0  0
  3 14  1  0  0  0  0
  3  1  1  0  0  0  0
  4  3  2  0  0  0  0
  5  2  1  0  0  0  0
  6  5  1  0  0  0  0
  7  9  1  0  0  0  0
  7  5  2  0  0  0  0
  8  7  1  0  0  0  0
  9 11  2  0  0  0  0
 10  9  1  0  0  0  0
 11 12  1  0  0  0  0
 11  4  1  0  0  0  0
 12 21  1  6  0  0  0
 12 13  1  0  0  0  0
 13 25  1  0  0  0  0
 13 14  2  0  0  0  0
 14 15  1  0  0  0  0
 15 16  1  0  0  0  0
 15 17  2  0  0  0  0
 17 18  1  0  0  0  0
 19 20  1  0  0  0  0
 19 17  1  0  0  0  0
 21 24  1  0  0  0  0
 22 21  1  0  0  0  0
 23 21  1  0  0  0  0
 25 27  1  0  0  0  0
 25 26  1  0  0  0  0
 28 25  1  0  0  0  0
M  END
