1
q = 0.0, confidence = 0.98

 39 41  0  0  0  0  0  0  0  0999 V2000
    2.2959    0.4533   -0.5551 N   0  0  0  0  0  2  0  0  0  0  0  0
    3.6524   -1.5065   -0.4571 N   0  0  0  0  0  0  0  0  0  0  0  0
    1.4673   -1.5734   -1.3031 N   0  0  0  0  0  0  0  0  0  0  0  0
    2.4851   -0.8445   -0.7494 C   0  0  0  0  0  3  0  0  0  0  0  0
    3.3506    1.3920   -0.5022 C   0  0  0  0  0  0  0  0  0  0  0  0
    4.4252    1.3311   -1.4167 C   0  0  0  0  0  0  0  0  0  0  0  0
    5.4531    2.2793   -1.3563 C   0  0  0  0  0  0  0  0  0  0  0  0
    5.4187    3.3070   -0.3994 C   0  0  0  0  0  0  0  0  0  0  0  0
    4.3400    3.3803    0.4963 C   0  0  0  0  0  0  0  0  0  0  0  0
    3.3097    2.4328    0.4503 C   0  0  0  0  0  0  0  0  0  0  0  0
    4.5621   -1.2247    0.5851 C   0  0  0  0  0  0  0  0  0  0  0  0
    4.1594   -0.5426    1.7527 C   0  0  0  0  0  0  0  0  0  0  0  0
    5.0991   -0.3022    2.7631 C   0  0  0  0  0  0  0  0  0  0  0  0
    6.4267   -0.7419    2.6369 C   0  0  0  0  0  0  0  0  0  0  0  0
    6.8162   -1.4346    1.4799 C   0  0  0  0  0  0  0  0  0  0  0  0
    5.8929   -1.6694    0.4530 C   0  0  0  0  0  0  0  0  0  0  0  0
    1.1237   -2.9171   -1.0878 C   0  0  0  0  0  0  0  0  0  0  0  0
    1.5855   -3.6637    0.0211 C   0  0  0  0  0  0  0  0  0  0  0  0
    1.2014   -5.0041    0.1659 C   0  0  0  0  0  0  0  0  0  0  0  0
    0.3423   -5.6130   -0.7614 C   0  0  0  0  0  0  0  0  0  0  0  0
   -0.1488   -4.8573   -1.8385 C   0  0  0  0  0  0  0  0  0  0  0  0
    0.2393   -3.5245   -2.0079 C   0  0  0  0  0  0  0  0  0  0  0  0
    4.4425    0.5397   -2.1796 H   0  0  0  0  0  0  0  0  0  0  0  0
    6.2845    2.2221   -2.0755 H   0  0  0  0  0  0  0  0  0  0  0  0
    6.2265    4.0530   -0.3590 H   0  0  0  0  0  0  0  0  0  0  0  0
    4.2985    4.1848    1.2462 H   0  0  0  0  0  0  0  0  0  0  0  0
    2.4670    2.4680    1.1561 H   0  0  0  0  0  0  0  0  0  0  0  0
    3.1166   -0.2098    1.8732 H   0  0  0  0  0  0  0  0  0  0  0  0
    4.7782    0.2352    3.6682 H   0  0  0  0  0  0  0  0  0  0  0  0
    7.1550   -0.5471    3.4380 H   0  0  0  0  0  0  0  0  0  0  0  0
    7.8525   -1.7875    1.3668 H   0  0  0  0  0  0  0  0  0  0  0  0
    6.2022   -2.1937   -0.4648 H   0  0  0  0  0  0  0  0  0  0  0  0
    2.2224   -3.1921    0.7815 H   0  0  0  0  0  0  0  0  0  0  0  0
    1.5710   -5.5736    1.0325 H   0  0  0  0  0  0  0  0  0  0  0  0
    0.0413   -6.6634   -0.6355 H   0  0  0  0  0  0  0  0  0  0  0  0
   -0.8475   -5.3091   -2.5581 H   0  0  0  0  0  0  0  0  0  0  0  0
   -0.1440   -2.9320   -2.8523 H   0  0  0  0  0  0  0  0  0  0  0  0
    3.8196   -2.3615   -0.9923 H   0  0  0  0  0  0  0  0  0  0  0  0
    0.8254   -0.9886   -1.8781 H   0  0  0  0  0  0  0  0  0  0  0  0
  1  5  1  0  0  0  0
  2 11  1  0  0  0  0
  3 17  1  0  0  0  0
  3  4  1  0  0  0  0
  4  1  1  0  0  0  0
  4  2  1  0  0  0  0
  5 10  1  0  0  0  0
  6  7  1  0  0  0  0
  6  5  2  0  0  0  0
  7  8  2  0  0  0  0
  8 25  1  0  0  0  0
  8  9  1  0  0  0  0
  9 26  1  0  0  0  0
 10  9  2  0  0  0  0
 10 27  1  0  0  0  0
 11 12  1  0  0  0  0
 12 28  1  0  0  0  0
 12 13  2  0  0  0  0
 13 29  1  0  0  0  0
 14 13  1  0  0  0  0
 14 30  1  0  0  0  0
 15 14  2  0  0  0  0
 16 11  2  0  0  0  0
 16 15  1  0  0  0  0
 17 18  1  0  0  0  0
 18 19  2  0  0  0  0
 18 33  1  0  0  0  0
 19 34  1  0  0  0  0
 20 35  1  0  0  0  0
 20 19  1  0  0  0  0
 21 20  2  0  0  0  0
 22 21  1  0  0  0  0
 22 17  2  0  0  0  0
 23  6  1  0  0  0  0
 24  7  1  0  0  0  0
 31 15  1  0  0  0  0
 32 16  1  0  0  0  0
 36 21  1  0  0  0  0
 37 22  1  0  0  0  0
 38  2  1  0  0  0  0
 39  3  1  0  0  0  0
M  END
