1
q = -1.0

 44 46  0  0  0  0  0  0  0  0999 V2000
   -1.5159    0.8877   -0.4424 N   0  0  0  0  0  2  0  0  0  0  0  0
    0.6488    1.2490   -0.4101 N   0  0  0  0  0  0  0  0  0  0  0  0
   -0.5793    1.8237   -0.6661 C   0  0  0  0  0  0  0  0  0  0  0  0
   -0.6776    3.1610   -1.1301 C   0  0  0  0  0  0  0  0  0  0  0  0
   -1.6639    3.5927   -1.3471 H   0  0  0  0  0  0  0  0  0  0  0  0
    0.5094    3.8619   -1.3252 C   0  0  0  0  0  0  0  0  0  0  0  0
    0.4760    4.8998   -1.6915 H   0  0  0  0  0  0  0  0  0  0  0  0
    1.7578    3.2551   -1.0613 C   0  0  0  0  0  0  0  0  0  0  0  0
    2.7000    3.8051   -1.1876 H   0  0  0  0  0  0  0  0  0  0  0  0
    1.7996    1.9281   -0.6020 C   0  0  0  0  0  0  0  0  0  0  0  0
    3.0967    1.2971   -0.2105 C   0  0  0  0  0  0  0  0  0  0  0  0
    3.8365    0.5206   -1.1374 C   0  0  0  0  0  0  0  0  0  0  0  0
    5.0614   -0.0350   -0.7139 C   0  0  0  0  0  0  0  0  0  0  0  0
    5.6413   -0.6455   -1.4238 H   0  0  0  0  0  0  0  0  0  0  0  0
    5.5542    0.1962    0.5775 C   0  0  0  0  0  0  0  0  0  0  0  0
    6.5172   -0.2393    0.8854 H   0  0  0  0  0  0  0  0  0  0  0  0
    4.8253    0.9895    1.4734 C   0  0  0  0  0  0  0  0  0  0  0  0
    5.2113    1.1755    2.4881 H   0  0  0  0  0  0  0  0  0  0  0  0
    3.5877    1.5446    1.0970 C   0  0  0  0  0  0  0  0  0  0  0  0
    3.3382    0.3161   -2.5417 C   0  0  0  0  0  0  0  0  0  0  0  0
    3.1826    1.2900   -3.0504 H   0  0  0  0  0  0  0  0  0  0  0  0
    2.3514   -0.1959   -2.5583 H   0  0  0  0  0  0  0  0  0  0  0  0
    4.0565   -0.2762   -3.1404 H   0  0  0  0  0  0  0  0  0  0  0  0
    2.7865    2.3721    2.0724 C   0  0  0  0  0  0  0  0  0  0  0  0
    3.2646    2.3952    3.0705 H   0  0  0  0  0  0  0  0  0  0  0  0
    1.7557    1.9756    2.1838 H   0  0  0  0  0  0  0  0  0  0  0  0
    2.6712    3.4176    1.7197 H   0  0  0  0  0  0  0  0  0  0  0  0
   -2.8752    1.0995   -0.1848 C   0  0  0  0  0  0  0  0  0  0  0  0
   -3.2726    1.9246    0.9101 C   0  0  0  0  0  0  0  0  0  0  0  0
   -4.6458    2.0733    1.1812 C   0  0  0  0  0  0  0  0  0  0  0  0
   -4.9546    2.7087    2.0268 H   0  0  0  0  0  0  0  0  0  0  0  0
   -5.6129    1.4149    0.4103 C   0  0  0  0  0  0  0  0  0  0  0  0
   -6.6819    1.5389    0.6405 H   0  0  0  0  0  0  0  0  0  0  0  0
   -5.2105    0.5931   -0.6522 C   0  0  0  0  0  0  0  0  0  0  0  0
   -5.9664    0.0760   -1.2645 H   0  0  0  0  0  0  0  0  0  0  0  0
   -3.8513    0.4201   -0.9681 C   0  0  0  0  0  0  0  0  0  0  0  0
   -2.2445    2.5982    1.7817 C   0  0  0  0  0  0  0  0  0  0  0  0
   -1.8074    3.4969    1.2961 H   0  0  0  0  0  0  0  0  0  0  0  0
   -1.3910    1.9212    1.9880 H   0  0  0  0  0  0  0  0  0  0  0  0
   -2.6881    2.9189    2.7441 H   0  0  0  0  0  0  0  0  0  0  0  0
   -3.4225   -0.4580   -2.1086 C   0  0  0  0  0  0  0  0  0  0  0  0
   -2.8870   -1.3604   -1.7481 H   0  0  0  0  0  0  0  0  0  0  0  0
   -2.6833    0.0489   -2.7599 H   0  0  0  0  0  0  0  0  0  0  0  0
   -4.2899   -0.7840   -2.7139 H   0  0  0  0  0  0  0  0  0  0  0  0
  1 28  1  0  0  0  0
  3  1  1  0  0  0  0
  3  2  2  0  0  0  0
  4  3  1  0  0  0  0
  5  4  1  0  0  0  0
  6  4  2  0  0  0  0
  6  8  1  0  0  0  0
  7  6  1  0  0  0  0
  8 10  2  0  0  0  0
  9  8  1  0  0  0  0
 10  2  1  0  0  0  0
 10 11  1  0  0  0  0
 11 19  1  0  0  0  0
 12 13  1  0  0  0  0
 12 11  2  0  0  0  0
 13 15  2  0  0  0  0
 14 13  1  0  0  0  0
 15 16  1  0  0  0  0
 15 17  1  0  0  0  0
 17 18  1  0  0  0  0
 19 17  2  0  0  0  0
 19 24  1  0  0  0  0
 20 12  1  0  0  0  0
 21 20  1  0  0  0  0
 22 20  1  0  0  0  0
 23 20  1  0  0  0  0
 24 26  1  0  0  0  0
 24 25  1  0  0  0  0
 27 24  1  0  0  0  0
 28 29  1  0  0  0  0
 29 30  2  0  0  0  0
 29 37  1  0  0  0  0
 30 31  1  0  0  0  0
 32 33  1  0  0  0  0
 32 30  1  0  0  0  0
 34 32  2  0  0  0  0
 35 34  1  0  0  0  0
 36 34  1  0  0  0  0
 36 28  2  0  0  0  0
 37 39  1  0  0  0  0
 37 40  1  0  0  0  0
 38 37  1  0  0  0  0
 41 42  1  0  0  0  0
 41 36  1  0  0  0  0
 43 41  1  0  0  0  0
 44 41  1  0  0  0  0
M  END
