5
q = -1.0

 14 14  0  0  0  0  0  0  0  0999 V2000
    5.6400    0.0193   -0.8891 F   0  0  0  0  0  0  0  0  0  0  0  0
    5.3663    0.6527    1.1735 F   0  0  0  0  0  0  0  0  0  0  0  0
    4.5166    1.8460   -0.4463 F   0  0  0  0  0  0  0  0  0  0  0  0
   -0.0810   -2.1649    0.3263 O   0  0  0  0  0  0  0  0  0  0  0  0
    1.1075   -0.3299    0.0668 N   0  0  0  0  0  2  0  0  0  0  0  0
    1.1152   -1.6921    0.2594 C   0  0  0  0  0  0  0  0  0  0  0  0
    2.3596   -2.3771    0.3483 C   0  0  0  0  0  0  0  0  0  0  0  0
    3.5272   -1.6314    0.2477 C   0  0  0  0  0  0  0  0  0  0  0  0
    3.4780   -0.2276    0.0409 C   0  0  0  0  0  0  0  0  0  0  0  0
    2.2283    0.3901   -0.0621 C   0  0  0  0  0  0  0  0  0  0  0  0
    4.7441    0.5740   -0.0345 C   0  0  0  0  0  0  0  0  0  0  0  0
    2.3672   -3.4668    0.4836 H   0  0  0  0  0  0  0  0  0  0  0  0
    4.5059   -2.1307    0.3128 H   0  0  0  0  0  0  0  0  0  0  0  0
    2.1241    1.4692   -0.2478 H   0  0  0  0  0  0  0  0  0  0  0  0
  1 11  1  0  0  0  0
  3 11  1  0  0  0  0
  5  6  1  0  0  0  0
  6  4  2  0  0  0  0
  6  7  1  0  0  0  0
  7 12  1  0  0  0  0
  8 13  1  0  0  0  0
  8  7  2  0  0  0  0
  9  8  1  0  0  0  0
 10  9  2  0  0  0  0
 10  5  1  0  0  0  0
 11  9  1  0  0  0  0
 11  2  1  0  0  0  0
 14 10  1  0  0  0  0
M  END
