3
q = -1.0

 43 42  0  0  0  0  0  0  0  0999 V2000
    2.8405   -1.7231   -1.5228 Si  0  0  0  0  0  0  0  0  0  0  0  0
    2.2696    2.7108   -0.5946 Si  0  0  0  0  0  0  0  0  0  0  0  0
    2.2723   -0.5093   -0.4100 N   0  0  0  0  0  2  0  0  0  0  0  0
    2.6872    0.1593    0.7432 C   0  0  0  0  0  0  0  0  0  0  0  0
    2.6005    1.5344    0.8237 C   0  0  0  0  0  0  0  0  0  0  0  0
    2.8552    2.0087    1.7854 H   0  0  0  0  0  0  0  0  0  0  0  0
    3.1531   -0.6935    1.9571 C   0  0  0  0  0  0  0  0  0  0  0  0
    2.0687   -1.7465    2.2740 C   0  0  0  0  0  0  0  0  0  0  0  0
    1.1108   -1.2548    2.5455 H   0  0  0  0  0  0  0  0  0  0  0  0
    2.3805   -2.3823    3.1288 H   0  0  0  0  0  0  0  0  0  0  0  0
    1.8793   -2.4006    1.4032 H   0  0  0  0  0  0  0  0  0  0  0  0
    3.3839    0.1487    3.2235 C   0  0  0  0  0  0  0  0  0  0  0  0
    4.1747    0.9104    3.0731 H   0  0  0  0  0  0  0  0  0  0  0  0
    3.7044   -0.5079    4.0586 H   0  0  0  0  0  0  0  0  0  0  0  0
    2.4578    0.6693    3.5411 H   0  0  0  0  0  0  0  0  0  0  0  0
    4.4802   -1.3980    1.6066 C   0  0  0  0  0  0  0  0  0  0  0  0
    5.2683   -0.6564    1.3651 H   0  0  0  0  0  0  0  0  0  0  0  0
    4.3716   -2.0759    0.7402 H   0  0  0  0  0  0  0  0  0  0  0  0
    4.8312   -2.0104    2.4631 H   0  0  0  0  0  0  0  0  0  0  0  0
    4.6224   -1.4116   -2.0932 C   0  0  0  0  0  0  0  0  0  0  0  0
    4.7147   -0.3906   -2.5148 H   0  0  0  0  0  0  0  0  0  0  0  0
    4.9138   -2.1390   -2.8794 H   0  0  0  0  0  0  0  0  0  0  0  0
    5.3504   -1.4991   -1.2625 H   0  0  0  0  0  0  0  0  0  0  0  0
    1.6863   -1.5804   -3.0276 C   0  0  0  0  0  0  0  0  0  0  0  0
    0.6341   -1.7737   -2.7218 H   0  0  0  0  0  0  0  0  0  0  0  0
    1.9459   -2.3160   -3.8176 H   0  0  0  0  0  0  0  0  0  0  0  0
    1.7285   -0.5649   -3.4719 H   0  0  0  0  0  0  0  0  0  0  0  0
    2.6741   -3.5375   -0.9553 C   0  0  0  0  0  0  0  0  0  0  0  0
    3.3157   -3.7976   -0.0899 H   0  0  0  0  0  0  0  0  0  0  0  0
    2.9434   -4.2197   -1.7894 H   0  0  0  0  0  0  0  0  0  0  0  0
    1.6223   -3.7554   -0.6730 H   0  0  0  0  0  0  0  0  0  0  0  0
    3.2761    2.3036   -2.1488 C   0  0  0  0  0  0  0  0  0  0  0  0
    3.1878    3.1156   -2.9003 H   0  0  0  0  0  0  0  0  0  0  0  0
    2.9183    1.3607   -2.6052 H   0  0  0  0  0  0  0  0  0  0  0  0
    4.3492    2.1748   -1.9003 H   0  0  0  0  0  0  0  0  0  0  0  0
    2.7739    4.4356    0.0277 C   0  0  0  0  0  0  0  0  0  0  0  0
    2.6143    5.2115   -0.7494 H   0  0  0  0  0  0  0  0  0  0  0  0
    3.8455    4.4561    0.3153 H   0  0  0  0  0  0  0  0  0  0  0  0
    2.1811    4.7242    0.9209 H   0  0  0  0  0  0  0  0  0  0  0  0
    0.4400    2.8411   -1.1245 C   0  0  0  0  0  0  0  0  0  0  0  0
    0.3179    3.6460   -1.8806 H   0  0  0  0  0  0  0  0  0  0  0  0
   -0.2271    3.0758   -0.2695 H   0  0  0  0  0  0  0  0  0  0  0  0
    0.0720    1.8984   -1.5864 H   0  0  0  0  0  0  0  0  0  0  0  0
  1 28  1  0  0  0  0
  1  3  1  0  0  0  0
  2 36  1  0  0  0  0
  2  5  1  0  0  0  0
  3  4  1  0  0  0  0
  4  5  2  0  0  0  0
  4  7  1  0  0  0  0
  5  6  1  0  0  0  0
  7  8  1  0  0  0  0
  7 12  1  0  0  0  0
  8  9  1  0  0  0  0
  8 10  1  0  0  0  0
 11  8  1  0  0  0  0
 12 15  1  0  0  0  0
 12 14  1  0  0  0  0
 13 12  1  0  0  0  0
 16  7  1  0  0  0  0
 16 19  1  0  0  0  0
 17 16  1  0  0  0  0
 18 16  1  0  0  0  0
 20  1  1  0  0  0  0
 20 23  1  0  0  0  0
 21 20  1  0  0  0  0
 22 20  1  0  0  0  0
 24 25  1  0  0  0  0
 24  1  1  0  0  0  0
 26 24  1  0  0  0  0
 27 24  1  0  0  0  0
 28 31  1  0  0  0  0
 28 29  1  0  0  0  0
 30 28  1  0  0  0  0
 32 35  1  0  0  0  0
 32  2  1  0  0  0  0
 33 32  1  0  0  0  0
 34 32  1  0  0  0  0
 36 38  1  0  0  0  0
 36 39  1  0  0  0  0
 37 36  1  0  0  0  0
 40  2  1  0  0  0  0
 40 42  1  0  0  0  0
 41 40  1  0  0  0  0
 43 40  1  0  0  0  0
M  END
