3
q = 0.0, confidence = 1.0

 27 28  0  0  1  0  0  0  0  0999 V2000
    2.1282    0.8579   -0.0392 S   0  0  0  0  0  0  0  0  0  0  0  0
    3.3590   -1.5551    0.0035 O   0  0  0  0  0  0  0  0  0  0  0  0
    0.4942    2.8944   -0.0084 N   0  0  0  0  0  2  0  0  0  0  0  0
    1.8268    2.5918   -0.0156 C   0  0  2  0  0  3  0  0  0  0  0  0
    2.7909    3.6216   -0.0067 C   0  0  0  0  0  0  0  0  0  0  0  0
    3.8614    3.3832   -0.0132 H   0  0  0  0  0  0  0  0  0  0  0  0
    2.3647    4.9528    0.0088 C   0  0  0  0  0  0  0  0  0  0  0  0
    3.1086    5.7636    0.0157 H   0  0  0  0  0  0  0  0  0  0  0  0
    0.9913    5.2483    0.0141 C   0  0  0  0  0  0  0  0  0  0  0  0
    0.6222    6.2825    0.0254 H   0  0  0  0  0  0  0  0  0  0  0  0
    0.0886    4.1851    0.0051 C   0  0  0  0  0  0  0  0  0  0  0  0
   -0.9989    4.3503    0.0091 H   0  0  0  0  0  0  0  0  0  0  0  0
    3.9512    0.7566   -0.0125 C   0  0  0  0  0  0  0  0  0  0  0  0
    4.3877    1.2438   -0.9095 H   0  0  0  0  0  0  0  0  0  0  0  0
    4.3626    1.2516    0.8922 H   0  0  0  0  0  0  0  0  0  0  0  0
    4.2820   -0.7424   -0.0004 C   0  0  0  0  0  0  0  0  0  0  0  0
    5.7111   -1.1456    0.0080 C   0  0  0  0  0  0  0  0  0  0  0  0
    6.7706   -0.2094   -0.0107 C   0  0  0  0  0  0  0  0  0  0  0  0
    6.5668    0.8713   -0.0341 H   0  0  0  0  0  0  0  0  0  0  0  0
    8.0997   -0.6493   -0.0010 C   0  0  0  0  0  0  0  0  0  0  0  0
    8.9206    0.0826   -0.0163 H   0  0  0  0  0  0  0  0  0  0  0  0
    8.3834   -2.0250    0.0282 C   0  0  0  0  0  0  0  0  0  0  0  0
    9.4289   -2.3681    0.0360 H   0  0  0  0  0  0  0  0  0  0  0  0
    7.3361   -2.9634    0.0480 C   0  0  0  0  0  0  0  0  0  0  0  0
    7.5619   -4.0398    0.0720 H   0  0  0  0  0  0  0  0  0  0  0  0
    6.0083   -2.5278    0.0379 C   0  0  0  0  0  0  0  0  0  0  0  0
    5.1712   -3.2406    0.0547 H   0  0  0  0  0  0  0  0  0  0  0  0
  1 13  1  0  0  0  0
  3 11  1  0  0  0  0
  4  1  1  6  0  0  0
  4  3  1  0  0  0  0
  4  5  1  0  0  0  0
  5  7  2  0  0  0  0
  6  5  1  0  0  0  0
  7  9  1  0  0  0  0
  7  8  1  0  0  0  0
  9 10  1  0  0  0  0
 11 12  1  0  0  0  0
 11  9  2  0  0  0  0
 13 16  1  0  0  0  0
 13 15  1  0  0  0  0
 14 13  1  0  0  0  0
 16  2  2  0  0  0  0
 16 17  1  0  0  0  0
 17 26  1  0  0  0  0
 18 20  1  0  0  0  0
 18 17  2  0  0  0  0
 19 18  1  0  0  0  0
 20 22  2  0  0  0  0
 21 20  1  0  0  0  0
 22 23  1  0  0  0  0
 22 24  1  0  0  0  0
 24 25  1  0  0  0  0
 26 24  2  0  0  0  0
 26 27  1  0  0  0  0
M  END
