2
q = 0.0, confidence = 1.0

 35 36  0  0  1  0  0  0  0  0999 V2000
    0.5841    1.9126    0.3712 Si  0  0  0  0  0  0  0  0  0  0  0  0
   -0.2192   -1.2297    0.4009 N   0  0  0  0  0  2  0  0  0  0  0  0
   -0.7752    0.9192   -0.3504 N   0  0  0  0  0  0  0  0  0  0  0  0
   -2.4765   -0.6990   -0.0853 N   0  0  2  0  0  0  0  0  0  0  0  0
   -1.1406   -0.3606    0.0040 C   0  0  1  0  0  3  0  0  0  0  0  0
   -0.6848   -2.4987    0.9559 C   0  0  0  0  0  0  0  0  0  0  0  0
   -1.0715   -2.3573    1.9941 H   0  0  0  0  0  0  0  0  0  0  0  0
    0.1790   -3.1856    1.0295 H   0  0  0  0  0  0  0  0  0  0  0  0
   -1.7807   -3.0762    0.0653 C   0  0  0  0  0  0  0  0  0  0  0  0
   -1.3621   -3.2274   -0.9516 H   0  0  0  0  0  0  0  0  0  0  0  0
   -2.1441   -4.0578    0.4297 H   0  0  0  0  0  0  0  0  0  0  0  0
   -2.9356   -2.0845    0.0273 C   0  0  0  0  0  0  0  0  0  0  0  0
   -3.6166   -2.2976   -0.8281 H   0  0  0  0  0  0  0  0  0  0  0  0
   -3.5552   -2.1788    0.9499 H   0  0  0  0  0  0  0  0  0  0  0  0
   -3.5618    0.2516   -0.3278 C   0  0  0  0  0  0  0  0  0  0  0  0
   -4.2992    0.1837    0.5053 H   0  0  0  0  0  0  0  0  0  0  0  0
   -4.1014   -0.0858   -1.2436 H   0  0  0  0  0  0  0  0  0  0  0  0
   -3.0763    1.6854   -0.5190 C   0  0  0  0  0  0  0  0  0  0  0  0
   -2.9500    2.2005    0.4548 H   0  0  0  0  0  0  0  0  0  0  0  0
   -3.8263    2.2554   -1.1039 H   0  0  0  0  0  0  0  0  0  0  0  0
   -1.7196    1.6300   -1.2148 C   0  0  0  0  0  0  0  0  0  0  0  0
   -1.8052    1.1132   -2.1987 H   0  0  0  0  0  0  0  0  0  0  0  0
   -1.3283    2.6428   -1.4242 H   0  0  0  0  0  0  0  0  0  0  0  0
   -0.2539    3.5166    0.9529 C   0  0  0  0  0  0  0  0  0  0  0  0
   -0.9940    3.3197    1.7560 H   0  0  0  0  0  0  0  0  0  0  0  0
   -0.7585    4.0881    0.1484 H   0  0  0  0  0  0  0  0  0  0  0  0
    0.5277    4.1801    1.3788 H   0  0  0  0  0  0  0  0  0  0  0  0
    1.8198    2.3093   -0.9863 C   0  0  0  0  0  0  0  0  0  0  0  0
    1.3167    2.6576   -1.9113 H   0  0  0  0  0  0  0  0  0  0  0  0
    2.4337    1.4127   -1.2174 H   0  0  0  0  0  0  0  0  0  0  0  0
    2.5034    3.1151   -0.6459 H   0  0  0  0  0  0  0  0  0  0  0  0
    1.3708    1.1337    1.8948 C   0  0  0  0  0  0  0  0  0  0  0  0
    0.6475    0.5342    2.4805 H   0  0  0  0  0  0  0  0  0  0  0  0
    1.7496    1.9558    2.5398 H   0  0  0  0  0  0  0  0  0  0  0  0
    2.2266    0.4839    1.6157 H   0  0  0  0  0  0  0  0  0  0  0  0
  1 24  1  0  0  0  0
  1 32  1  0  0  0  0
  2  6  1  0  0  0  0
  3  5  1  0  0  0  0
  3  1  1  0  0  0  0
  4 15  1  6  0  0  0
  4  5  1  0  0  0  0
  4 12  1  0  0  0  0
  5  2  1  6  0  0  0
  6  8  1  0  0  0  0
  6  7  1  0  0  0  0
  9 11  1  0  0  0  0
  9  6  1  0  0  0  0
 10  9  1  0  0  0  0
 12  9  1  0  0  0  0
 12 14  1  0  0  0  0
 13 12  1  0  0  0  0
 15 16  1  0  0  0  0
 17 15  1  0  0  0  0
 18 15  1  0  0  0  0
 18 19  1  0  0  0  0
 20 18  1  0  0  0  0
 21 18  1  0  0  0  0
 21  3  1  0  0  0  0
 22 21  1  0  0  0  0
 23 21  1  0  0  0  0
 24 27  1  0  0  0  0
 24 25  1  0  0  0  0
 26 24  1  0  0  0  0
 28 31  1  0  0  0  0
 28  1  1  0  0  0  0
 29 28  1  0  0  0  0
 30 28  1  0  0  0  0
 32 33  1  0  0  0  0
 32 34  1  0  0  0  0
 35 32  1  0  0  0  0
M  END
