2
q = 0.0, confidence = 0.992

 34 36  0  0  1  0  0  0  0  0999 V2000
   -1.3407    1.5961   -1.0367 O   0  0  0  0  0  0  0  0  0  0  0  0
    1.2717    1.7262    0.0484 N   0  0  0  0  0  2  0  0  0  0  0  0
   -1.2367    0.2042   -0.6465 N   0  0  0  0  0  0  0  0  0  0  0  0
    2.5790    2.0683   -0.0602 C   0  0  0  0  0  3  0  0  0  0  0  0
    3.2674    1.2553   -0.3208 H   0  0  0  0  0  0  0  0  0  0  0  0
    3.0342    3.3762    0.1190 C   0  0  0  0  0  0  0  0  0  0  0  0
    4.1080    3.5903    0.0266 H   0  0  0  0  0  0  0  0  0  0  0  0
    2.1031    4.3860    0.3922 C   0  0  0  0  0  0  0  0  0  0  0  0
    2.4234    5.4278    0.5389 H   0  0  0  0  0  0  0  0  0  0  0  0
    0.7467    4.0423    0.4315 C   0  0  0  0  0  0  0  0  0  0  0  0
   -0.0275    4.8081    0.5859 H   0  0  0  0  0  0  0  0  0  0  0  0
    0.3564    2.7087    0.2450 C   0  0  0  0  0  0  0  0  0  0  0  0
   -1.1056    2.3339    0.1684 C   0  0  2  0  0  0  0  0  0  0  0  0
   -1.6991    3.2629    0.0652 H   0  0  0  0  0  0  0  0  0  0  0  0
   -1.6240    1.4398    1.3249 C   0  0  0  0  0  0  0  0  0  0  0  0
   -0.8067    1.1977    2.0290 H   0  0  0  0  0  0  0  0  0  0  0  0
   -2.4423    1.9221    1.8885 H   0  0  0  0  0  0  0  0  0  0  0  0
   -2.1120    0.1719    0.6044 C   0  0  1  0  0  0  0  0  0  0  0  0
   -1.8107   -0.7335    1.1554 H   0  0  0  0  0  0  0  0  0  0  0  0
   -1.7578   -0.5602   -1.7963 C   0  0  0  0  0  0  0  0  0  0  0  0
   -2.7577   -0.1826   -2.0796 H   0  0  0  0  0  0  0  0  0  0  0  0
   -1.8293   -1.6176   -1.4870 H   0  0  0  0  0  0  0  0  0  0  0  0
   -1.0326   -0.4552   -2.6228 H   0  0  0  0  0  0  0  0  0  0  0  0
   -3.5971    0.1059    0.3255 C   0  0  0  0  0  0  0  0  0  0  0  0
   -4.3140    1.1876   -0.2306 C   0  0  0  0  0  0  0  0  0  0  0  0
   -3.7965    2.1221   -0.4896 H   0  0  0  0  0  0  0  0  0  0  0  0
   -5.6887    1.0750   -0.4803 C   0  0  0  0  0  0  0  0  0  0  0  0
   -6.2337    1.9240   -0.9189 H   0  0  0  0  0  0  0  0  0  0  0  0
   -6.3706   -0.1131   -0.1698 C   0  0  0  0  0  0  0  0  0  0  0  0
   -7.4505   -0.1958   -0.3624 H   0  0  0  0  0  0  0  0  0  0  0  0
   -5.6706   -1.1912    0.3915 C   0  0  0  0  0  0  0  0  0  0  0  0
   -6.1983   -2.1225    0.6449 H   0  0  0  0  0  0  0  0  0  0  0  0
   -4.2935   -1.0798    0.6332 C   0  0  0  0  0  0  0  0  0  0  0  0
   -3.7518   -1.9296    1.0793 H   0  0  0  0  0  0  0  0  0  0  0  0
  1  3  1  0  0  0  0
  1 13  1  0  0  0  0
  2 12  1  0  0  0  0
  3 18  1  0  0  0  0
  4  2  1  0  0  0  0
  4  6  1  0  0  0  0
  5  4  1  0  0  0  0
  6  8  2  0  0  0  0
  7  6  1  0  0  0  0
  8 10  1  0  0  0  0
  8  9  1  0  0  0  0
 10 11  1  0  0  0  0
 12 10  2  0  0  0  0
 13 14  1  6  0  0  0
 13 12  1  0  0  0  0
 13 15  1  0  0  0  0
 15 17  1  0  0  0  0
 15 16  1  0  0  0  0
 18 19  1  1  0  0  0
 18 15  1  0  0  0  0
 20 22  1  0  0  0  0
 20  3  1  0  0  0  0
 21 20  1  0  0  0  0
 23 20  1  0  0  0  0
 24 18  1  0  0  0  0
 24 33  1  0  0  0  0
 25 24  2  0  0  0  0
 26 25  1  0  0  0  0
 27 25  1  0  0  0  0
 27 29  2  0  0  0  0
 28 27  1  0  0  0  0
 29 31  1  0  0  0  0
 30 29  1  0  0  0  0
 31 33  2  0  0  0  0
 31 32  1  0  0  0  0
 33 34  1  0  0  0  0
M  END
