1
q = -1

 10 10  0  0  0  0  0  0  0  0999 V2000
   -1.2959    1.6697   -0.7275 N   0  0  0  0  0  2  0  0  0  0  0  0
   -2.6697    2.1940   -0.6737 C   0  0  0  0  0  0  0  0  0  0  0  0
   -3.1039    2.2668    0.3496 H   0  0  0  0  0  0  0  0  0  0  0  0
   -3.3935    1.6180   -1.2990 H   0  0  0  0  0  0  0  0  0  0  0  0
   -2.2093    3.5220   -1.3207 C   0  0  0  0  0  0  0  0  0  0  0  0
   -2.7663    3.8642   -2.2148 H   0  0  0  0  0  0  0  0  0  0  0  0
   -2.1369    4.3581   -0.5982 H   0  0  0  0  0  0  0  0  0  0  0  0
   -0.8590    2.8096   -1.5655 C   0  0  0  0  0  0  0  0  0  0  0  0
   -0.6824    2.5443   -2.6373 H   0  0  0  0  0  0  0  0  0  0  0  0
    0.0610    3.3197   -1.1980 H   0  0  0  0  0  0  0  0  0  0  0  0
  1  2  1  0  0  0  0
  2  3  1  0  0  0  0
  4  2  1  0  0  0  0
  5  2  1  0  0  0  0
  5  7  1  0  0  0  0
  6  5  1  0  0  0  0
  8  5  1  0  0  0  0
  8 10  1  0  0  0  0
  8  1  1  0  0  0  0
  9  8  1  0  0  0  0
M  END
