2
q = -1.0

 11 10  0  0  0  0  0  0  0  0999 V2000
   -2.3298   -1.1148   -0.1816 O   0  0  0  0  0  0  0  0  0  0  0  0
   -1.8331    1.1258   -0.1233 N   0  0  0  0  0  2  0  0  0  0  0  0
   -2.2172    2.0770   -0.1267 H   0  0  0  0  0  0  0  0  0  0  0  0
   -2.6983    0.1320   -0.1850 C   0  0  0  0  0  0  0  0  0  0  0  0
   -4.1870    0.3958   -0.2680 C   0  0  0  0  0  0  0  0  0  0  0  0
   -4.5108    0.0978   -1.2894 H   0  0  0  0  0  0  0  0  0  0  0  0
   -4.3738    1.4850   -0.1787 H   0  0  0  0  0  0  0  0  0  0  0  0
   -4.9864   -0.3930    0.7734 C   0  0  0  0  0  0  0  0  0  0  0  0
   -4.7913   -1.4777    0.6678 H   0  0  0  0  0  0  0  0  0  0  0  0
   -6.0731   -0.2204    0.6488 H   0  0  0  0  0  0  0  0  0  0  0  0
   -4.7082   -0.0932    1.8039 H   0  0  0  0  0  0  0  0  0  0  0  0
  3  2  1  0  0  0  0
  4  1  2  0  0  0  0
  4  2  1  0  0  0  0
  5  4  1  0  0  0  0
  5  7  1  0  0  0  0
  5  8  1  0  0  0  0
  6  5  1  0  0  0  0
  8 11  1  0  0  0  0
  9  8  1  0  0  0  0
 10  8  1  0  0  0  0
M  END
