1
q = 0.0, confidence = 0.996

 39 40  0  0  0  0  0  0  0  0999 V2000
   -0.5762    0.7774    1.0839 N   0  0  0  0  0  2  0  0  0  0  0  0
   -0.9560    1.5202    2.0877 C   0  0  0  0  0  3  0  0  0  0  0  0
   -0.0261    2.4437    2.8252 C   0  0  0  0  0  0  0  0  0  0  0  0
   -0.1712    2.3223    3.9184 H   0  0  0  0  0  0  0  0  0  0  0  0
   -0.2858    3.4990    2.5920 H   0  0  0  0  0  0  0  0  0  0  0  0
    1.0348    2.2809    2.5659 H   0  0  0  0  0  0  0  0  0  0  0  0
   -2.3721    1.4726    2.5791 C   0  0  0  0  0  0  0  0  0  0  0  0
   -3.0836    1.3285    1.7459 H   0  0  0  0  0  0  0  0  0  0  0  0
   -2.6300    2.3932    3.1363 H   0  0  0  0  0  0  0  0  0  0  0  0
   -2.5039    0.6146    3.2720 H   0  0  0  0  0  0  0  0  0  0  0  0
    0.7629    0.8967    0.6040 C   0  0  0  0  0  0  0  0  0  0  0  0
    1.2183    1.8478   -0.2752 C   0  0  0  0  0  0  0  0  0  0  0  0
    2.6396    1.4857   -0.6226 C   0  0  0  0  0  0  0  0  0  0  0  0
    2.7456    1.3003   -1.7156 H   0  0  0  0  0  0  0  0  0  0  0  0
    3.3513    2.3080   -0.3851 H   0  0  0  0  0  0  0  0  0  0  0  0
    2.9353    0.2313    0.1722 C   0  0  0  0  0  0  0  0  0  0  0  0
    4.2040   -0.4960    0.1392 C   0  0  0  0  0  0  0  0  0  0  0  0
    5.3787    0.0997   -0.3816 C   0  0  0  0  0  0  0  0  0  0  0  0
    5.3428    1.1319   -0.7612 H   0  0  0  0  0  0  0  0  0  0  0  0
    6.5924   -0.5995   -0.4102 C   0  0  0  0  0  0  0  0  0  0  0  0
    7.4919   -0.1123   -0.8166 H   0  0  0  0  0  0  0  0  0  0  0  0
    6.6641   -1.9136    0.0778 C   0  0  0  0  0  0  0  0  0  0  0  0
    7.6169   -2.4636    0.0540 H   0  0  0  0  0  0  0  0  0  0  0  0
    5.5049   -2.5250    0.5869 C   0  0  0  0  0  0  0  0  0  0  0  0
    5.5453   -3.5614    0.9552 H   0  0  0  0  0  0  0  0  0  0  0  0
    4.2917   -1.8299    0.6137 C   0  0  0  0  0  0  0  0  0  0  0  0
    3.3842   -2.3348    0.9770 H   0  0  0  0  0  0  0  0  0  0  0  0
    1.8061   -0.0836    0.8878 C   0  0  0  0  0  0  0  0  0  0  0  0
    1.6823   -0.9214    1.5846 H   0  0  0  0  0  0  0  0  0  0  0  0
    0.4493    2.9798   -0.8760 C   0  0  0  0  0  0  0  0  0  0  0  0
   -0.6167    2.8949   -0.5726 H   0  0  0  0  0  0  0  0  0  0  0  0
    0.4549    2.8781   -1.9860 H   0  0  0  0  0  0  0  0  0  0  0  0
    0.9765    4.3812   -0.5108 C   0  0  0  0  0  0  0  0  0  0  0  0
    0.9950    4.4846    0.5962 H   0  0  0  0  0  0  0  0  0  0  0  0
    2.0357    4.4704   -0.8374 H   0  0  0  0  0  0  0  0  0  0  0  0
    0.1477    5.5060   -1.1295 C   0  0  0  0  0  0  0  0  0  0  0  0
    0.1397    5.4361   -2.2371 H   0  0  0  0  0  0  0  0  0  0  0  0
    0.5442    6.5050   -0.8588 H   0  0  0  0  0  0  0  0  0  0  0  0
   -0.9088    5.4604   -0.7918 H   0  0  0  0  0  0  0  0  0  0  0  0
  1  2  1  0  0  0  0
  2  7  1  0  0  0  0
  2  3  1  0  0  0  0
  3  4  1  0  0  0  0
  5  3  1  0  0  0  0
  6  3  1  0  0  0  0
  7  9  1  0  0  0  0
  7 10  1  0  0  0  0
  8  7  1  0  0  0  0
 11 28  1  0  0  0  0
 11  1  1  0  0  0  0
 12 11  2  0  0  0  0
 13 15  1  0  0  0  0
 13 12  1  0  0  0  0
 13 16  1  0  0  0  0
 14 13  1  0  0  0  0
 16 28  2  0  0  0  0
 17 16  1  0  0  0  0
 17 26  1  0  0  0  0
 18 17  2  0  0  0  0
 19 18  1  0  0  0  0
 20 18  1  0  0  0  0
 20 22  2  0  0  0  0
 21 20  1  0  0  0  0
 22 24  1  0  0  0  0
 23 22  1  0  0  0  0
 24 26  2  0  0  0  0
 24 25  1  0  0  0  0
 26 27  1  0  0  0  0
 28 29  1  0  0  0  0
 30 31  1  0  0  0  0
 30 33  1  0  0  0  0
 30 12  1  0  0  0  0
 32 30  1  0  0  0  0
 33 34  1  0  0  0  0
 35 33  1  0  0  0  0
 36 38  1  0  0  0  0
 36 39  1  0  0  0  0
 36 33  1  0  0  0  0
 37 36  1  0  0  0  0
M  END
