1
q = 0.0, confidence = 0.78

  7  6  0  0  0  0  0  0  0  0999 V2000
   -2.4304    0.1789   -0.0818 N   0  0  0  0  0  2  0  0  0  0  0  0
   -2.8057   -1.2418   -0.1815 C   0  0  0  0  0  0  0  0  0  0  0  0
   -3.3709   -1.4243   -1.1173 H   0  0  0  0  0  0  0  0  0  0  0  0
   -3.4074   -1.5176    0.7080 H   0  0  0  0  0  0  0  0  0  0  0  0
   -1.8986   -1.9019   -0.1871 H   0  0  0  0  0  0  0  0  0  0  0  0
   -3.3941    1.0062    0.0502 N   0  0  0  0  0  2  0  0  0  0  0  0
   -2.9483    1.9465    0.1073 H   0  0  0  0  0  0  0  0  0  0  0  0
  1  6  1  0  0  0  0
  2  1  1  0  0  0  0
  2  4  1  0  0  0  0
  3  2  1  0  0  0  0
  5  2  1  0  0  0  0
  6  7  1  0  0  0  0
M  END
