5
q = -1.0, confidence = 0.168

 39 38  0  0  0  0  0  0  0  0999 V2000
    3.1255    1.2760   -0.5213 N   0  0  0  0  0  0  0  0  0  0  0  0
    3.5222    1.3516   -1.4598 H   0  0  0  0  0  0  0  0  0  0  0  0
    2.7242   -0.2993    1.1827 N   0  0  0  0  0  0  0  0  0  0  0  0
    2.7974   -0.9742   -1.0768 N   0  0  0  0  0  0  0  0  0  0  0  0
   -1.3087    1.3809   -0.5672 N   0  0  0  0  0  0  0  0  0  0  0  0
    2.8567   -0.0080   -0.1315 C   0  0  0  0  0  3  0  0  0  0  0  0
    3.3875    0.4906    2.2113 C   0  0  0  0  0  0  0  0  0  0  0  0
    4.1794    1.1196    1.7664 H   0  0  0  0  0  0  0  0  0  0  0  0
    3.8478   -0.2006    2.9471 H   0  0  0  0  0  0  0  0  0  0  0  0
    2.6644    1.1305    2.7616 H   0  0  0  0  0  0  0  0  0  0  0  0
    1.7888   -1.3156    1.6799 C   0  0  0  0  0  0  0  0  0  0  0  0
    1.1512   -1.6982    0.8582 H   0  0  0  0  0  0  0  0  0  0  0  0
    1.0799   -0.8380    2.3905 H   0  0  0  0  0  0  0  0  0  0  0  0
    2.3323   -2.1423    2.1828 H   0  0  0  0  0  0  0  0  0  0  0  0
    3.0563   -2.3807   -0.7844 C   0  0  0  0  0  0  0  0  0  0  0  0
    3.6189   -2.4771    0.1597 H   0  0  0  0  0  0  0  0  0  0  0  0
    3.6688   -2.8010   -1.6080 H   0  0  0  0  0  0  0  0  0  0  0  0
    2.1002   -2.9421   -0.7195 H   0  0  0  0  0  0  0  0  0  0  0  0
    2.2963   -0.7243   -2.4277 C   0  0  0  0  0  0  0  0  0  0  0  0
    1.9726    0.3253   -2.5356 H   0  0  0  0  0  0  0  0  0  0  0  0
    1.4009   -1.3626   -2.5865 H   0  0  0  0  0  0  0  0  0  0  0  0
    3.0763   -0.9530   -3.1840 H   0  0  0  0  0  0  0  0  0  0  0  0
    2.3897    2.4681   -0.0646 C   0  0  0  0  0  0  0  0  0  0  0  0
    3.0095    3.3456   -0.3362 H   0  0  0  0  0  0  0  0  0  0  0  0
    2.3367    2.4532    1.0414 H   0  0  0  0  0  0  0  0  0  0  0  0
    0.9718    2.5907   -0.6406 C   0  0  0  0  0  0  0  0  0  0  0  0
    1.0180    2.6504   -1.7507 H   0  0  0  0  0  0  0  0  0  0  0  0
    0.5509    3.5584   -0.2926 H   0  0  0  0  0  0  0  0  0  0  0  0
    0.1035    1.4175   -0.1759 C   0  0  0  0  0  0  0  0  0  0  0  0
    0.5241    0.4593   -0.5469 H   0  0  0  0  0  0  0  0  0  0  0  0
    0.1192    1.3471    0.9335 H   0  0  0  0  0  0  0  0  0  0  0  0
   -1.5377    1.3028   -2.0135 C   0  0  0  0  0  0  0  0  0  0  0  0
   -1.3028    2.2583   -2.5401 H   0  0  0  0  0  0  0  0  0  0  0  0
   -2.6020    1.0385   -2.1763 H   0  0  0  0  0  0  0  0  0  0  0  0
   -0.9246    0.4792   -2.4301 H   0  0  0  0  0  0  0  0  0  0  0  0
   -2.1430    2.4002    0.0806 C   0  0  0  0  0  0  0  0  0  0  0  0
   -1.9303    3.4306   -0.2913 H   0  0  0  0  0  0  0  0  0  0  0  0
   -1.9802    2.3475    1.1751 H   0  0  0  0  0  0  0  0  0  0  0  0
   -3.2038    2.1458   -0.1150 H   0  0  0  0  0  0  0  0  0  0  0  0
  1  6  1  0  0  0  0
  1 23  1  0  0  0  0
  2  1  1  0  0  0  0
  3 11  1  0  0  0  0
  3  7  1  0  0  0  0
  4 15  1  0  0  0  0
  4  6  1  0  0  0  0
  5 29  1  0  0  0  0
  5 36  1  0  0  0  0
  6  3  1  0  0  0  0
  7 10  1  0  0  0  0
  7  9  1  0  0  0  0
  8  7  1  0  0  0  0
 11 14  1  0  0  0  0
 11 13  1  0  0  0  0
 12 11  1  0  0  0  0
 15 18  1  0  0  0  0
 15 16  1  0  0  0  0
 17 15  1  0  0  0  0
 19  4  1  0  0  0  0
 20 19  1  0  0  0  0
 21 19  1  0  0  0  0
 22 19  1  0  0  0  0
 23 25  1  0  0  0  0
 24 23  1  0  0  0  0
 26 28  1  0  0  0  0
 26 29  1  0  0  0  0
 26 23  1  0  0  0  0
 27 26  1  0  0  0  0
 29 31  1  0  0  0  0
 30 29  1  0  0  0  0
 32  5  1  0  0  0  0
 33 32  1  0  0  0  0
 34 32  1  0  0  0  0
 35 32  1  0  0  0  0
 36 38  1  0  0  0  0
 37 36  1  0  0  0  0
 39 36  1  0  0  0  0
M  END
