3
q = 0.0, confidence = 0.998

 17 16  0  0  1  0  0  0  0  0999 V2000
    0.4756    2.6935   -1.1719 O   0  0  0  0  0  0  0  0  0  0  0  0
    0.4418    3.4356   -0.5396 H   0  0  0  0  0  0  0  0  0  0  0  0
   -1.0954    1.1014    0.6708 N   0  0  0  0  0  0  0  0  0  0  0  0
   -1.7938    0.7993    1.3708 H   0  0  0  0  0  0  0  0  0  0  0  0
   -0.3249    1.5893    1.1701 H   0  0  0  0  0  0  0  0  0  0  0  0
   -0.8534    2.2948   -1.5034 C   0  0  0  0  0  0  0  0  0  0  0  0
   -0.7510    1.3530   -2.0823 H   0  0  0  0  0  0  0  0  0  0  0  0
   -1.3479    3.0523   -2.1542 H   0  0  0  0  0  0  0  0  0  0  0  0
   -1.7543    2.0294   -0.2956 C   0  0  1  0  0  0  0  0  0  0  0  0
   -1.9125    3.0009    0.2380 H   0  0  0  0  0  0  0  0  0  0  0  0
   -3.1211    1.5026   -0.7481 C   0  0  0  0  0  0  0  0  0  0  0  0
   -2.9696    0.5000   -1.2024 H   0  0  0  0  0  0  0  0  0  0  0  0
   -3.4886    2.1803   -1.5481 H   0  0  0  0  0  0  0  0  0  0  0  0
   -4.1597    1.3984    0.3688 C   0  0  0  0  0  0  0  0  0  0  0  0
   -3.8923    0.5921    1.0821 H   0  0  0  0  0  0  0  0  0  0  0  0
   -5.1498    1.1264   -0.0468 H   0  0  0  0  0  0  0  0  0  0  0  0
   -4.2774    2.3555    0.9201 H   0  0  0  0  0  0  0  0  0  0  0  0
  1  2  1  0  0  0  0
  3  5  1  0  0  0  0
  3  4  1  0  0  0  0
  6  1  1  0  0  0  0
  6  9  1  0  0  0  0
  7  6  1  0  0  0  0
  8  6  1  0  0  0  0
  9 10  1  1  0  0  0
  9  3  1  0  0  0  0
 11  9  1  0  0  0  0
 11 14  1  0  0  0  0
 12 11  1  0  0  0  0
 13 11  1  0  0  0  0
 14 17  1  0  0  0  0
 14 15  1  0  0  0  0
 16 14  1  0  0  0  0
M  END
