4
q = 0.0, confidence = 0.986

 19 20  0  0  1  0  0  0  0  0999 V2000
   -3.0748    0.8506   -0.0198 S   0  0  0  0  0  0  0  0  0  0  0  0
   -4.4032   -1.3826    0.0106 N   0  0  0  0  0  0  0  0  0  0  0  0
   -5.6842   -2.9655    0.5129 H   0  0  0  0  0  0  0  0  0  0  0  0
   -2.0143   -1.6242   -0.0644 N   0  0  0  0  0  2  0  0  0  0  0  0
   -3.9482   -3.3323    0.6673 H   0  0  0  0  0  0  0  0  0  0  0  0
   -4.7074   -3.2478   -0.9758 H   0  0  0  0  0  0  0  0  0  0  0  0
   -5.2159    3.0656    0.0074 H   0  0  0  0  0  0  0  0  0  0  0  0
   -7.7055    2.7551    0.0133 H   0  0  0  0  0  0  0  0  0  0  0  0
   -8.6932    0.4587   -0.0040 H   0  0  0  0  0  0  0  0  0  0  0  0
   -7.2334   -1.5608   -0.0241 H   0  0  0  0  0  0  0  0  0  0  0  0
   -2.1502   -2.6388   -0.1092 H   0  0  0  0  0  0  0  0  0  0  0  0
   -3.1189   -0.9087   -0.0273 C   0  0  2  0  0  3  0  0  0  0  0  0
   -4.8397    0.9198    0.0017 C   0  0  0  0  0  0  0  0  0  0  0  0
   -5.6541    2.0575    0.0072 C   0  0  0  0  0  0  0  0  0  0  0  0
   -7.0460    1.8755    0.0097 C   0  0  0  0  0  0  0  0  0  0  0  0
   -7.6009    0.5833    0.0017 C   0  0  0  0  0  0  0  0  0  0  0  0
   -6.7843   -0.5582   -0.0048 C   0  0  0  0  0  0  0  0  0  0  0  0
   -5.3930   -0.3816    0.0026 C   0  0  0  0  0  0  0  0  0  0  0  0
   -4.6976   -2.8074    0.0429 C   0  0  0  0  0  0  0  0  0  0  0  0
  1 13  1  0  0  0  0
  2 19  1  0  0  0  0
  6 19  1  0  0  0  0
  9 16  1  0  0  0  0
 10 17  1  0  0  0  0
 11  4  1  0  0  0  0
 12  4  1  1  0  0  0
 12  1  1  0  0  0  0
 12  2  1  0  0  0  0
 13 18  2  0  0  0  0
 13 14  1  0  0  0  0
 14  7  1  0  0  0  0
 14 15  2  0  0  0  0
 15  8  1  0  0  0  0
 16 15  1  0  0  0  0
 17 16  2  0  0  0  0
 17 18  1  0  0  0  0
 18  2  1  0  0  0  0
 19  3  1  0  0  0  0
 19  5  1  0  0  0  0
M  END
