1
q = -1.0, confidence = 0.06

 29 30  0  0  0  0  0  0  0  0999 V2000
    1.1137    1.7333    0.0772 N   0  0  0  0  0  2  0  0  0  0  0  0
    2.3171    1.2015    0.0792 N   0  0  0  0  0  2  0  0  0  0  0  0
    2.2912   -0.0812    0.1204 N   0  0  0  0  0  2  0  0  0  0  0  0
    3.5299   -0.7195    0.0747 C   0  0  0  0  0  0  0  0  0  0  0  0
    4.7677   -0.0768   -0.2014 C   0  0  0  0  0  0  0  0  0  0  0  0
    4.7737    1.0055   -0.3868 H   0  0  0  0  0  0  0  0  0  0  0  0
    5.9484   -0.8149   -0.2440 C   0  0  0  0  0  0  0  0  0  0  0  0
    6.9196   -0.3485   -0.4578 H   0  0  0  0  0  0  0  0  0  0  0  0
    5.9045   -2.2014   -0.0135 C   0  0  0  0  0  0  0  0  0  0  0  0
    4.6967   -2.8619    0.2615 C   0  0  0  0  0  0  0  0  0  0  0  0
    4.7153   -3.9454    0.4385 H   0  0  0  0  0  0  0  0  0  0  0  0
    3.5168   -2.1204    0.3024 C   0  0  0  0  0  0  0  0  0  0  0  0
    2.5520   -2.6010    0.5204 H   0  0  0  0  0  0  0  0  0  0  0  0
    7.1536   -2.9806   -0.0657 N   0  0  0  0  0  0  0  0  0  0  0  0
    8.1986   -2.3700   -0.3042 O   0  0  0  0  0  0  0  0  0  0  0  0
    7.0768   -4.1964    0.1325 O   0  0  0  0  0  0  0  0  0  0  0  0
    1.0216    3.1249    0.0630 C   0  0  0  0  0  0  0  0  0  0  0  0
    2.1602    3.9756    0.0664 C   0  0  0  0  0  0  0  0  0  0  0  0
    3.1595    3.5237    0.0850 H   0  0  0  0  0  0  0  0  0  0  0  0
    2.0008    5.3591    0.0485 C   0  0  0  0  0  0  0  0  0  0  0  0
    2.8626    6.0398    0.0501 H   0  0  0  0  0  0  0  0  0  0  0  0
    0.7081    5.9104    0.0293 C   0  0  0  0  0  0  0  0  0  0  0  0
   -0.4318    5.0914    0.0300 C   0  0  0  0  0  0  0  0  0  0  0  0
   -1.4229    5.5636    0.0177 H   0  0  0  0  0  0  0  0  0  0  0  0
   -0.2713    3.7077    0.0473 C   0  0  0  0  0  0  0  0  0  0  0  0
   -1.1491    3.0414    0.0509 H   0  0  0  0  0  0  0  0  0  0  0  0
    0.5447    7.3719    0.0099 N   0  0  0  0  0  0  0  0  0  0  0  0
    1.5679    8.0618    0.0125 O   0  0  0  0  0  0  0  0  0  0  0  0
   -0.6063    7.8181   -0.0081 O   0  0  0  0  0  0  0  0  0  0  0  0
  1  2  1  0  0  0  0
  2  3  1  0  0  0  0
  4  3  1  0  0  0  0
  4 12  1  0  0  0  0
  5  4  2  0  0  0  0
  6  5  1  0  0  0  0
  7  5  1  0  0  0  0
  7  9  2  0  0  0  0
  8  7  1  0  0  0  0
  9 10  1  0  0  0  0
 10 12  2  0  0  0  0
 10 11  1  0  0  0  0
 12 13  1  0  0  0  0
 14  9  1  0  0  0  0
 14 16  2  0  0  0  0
 15 14  2  0  0  0  0
 17 18  1  0  0  0  0
 17  1  1  0  0  0  0
 18 19  1  0  0  0  0
 20 21  1  0  0  0  0
 20 18  2  0  0  0  0
 22 23  2  0  0  0  0
 22 20  1  0  0  0  0
 23 25  1  0  0  0  0
 24 23  1  0  0  0  0
 25 26  1  0  0  0  0
 25 17  2  0  0  0  0
 27 28  2  0  0  0  0
 27 22  1  0  0  0  0
 29 27  2  0  0  0  0
M  END
