1
q = 0.0, confidence = 1.0

 15 16  0  0  0  0  0  0  0  0999 V2000
    0.9984   -0.4973   -0.0912 N   0  0  0  0  0  2  0  0  0  0  0  0
    1.2653   -1.6196   -0.7461 C   0  0  0  0  0  3  0  0  0  0  0  0
    0.4904   -2.3572   -1.0012 H   0  0  0  0  0  0  0  0  0  0  0  0
    2.6008   -1.7491   -1.0096 N   0  0  0  0  0  0  0  0  0  0  0  0
    2.2054    0.1385    0.1014 C   0  0  0  0  0  0  0  0  0  0  0  0
    3.2404   -0.6340   -0.4781 C   0  0  0  0  0  0  0  0  0  0  0  0
    2.4064    1.2979    0.7565 N   0  0  0  0  0  0  0  0  0  0  0  0
    4.7485    1.0274    0.2713 N   0  0  0  0  0  0  0  0  0  0  0  0
    5.6666   -0.7567   -0.8895 N   0  0  0  0  0  0  0  0  0  0  0  0
    6.5463   -0.2422   -0.8315 H   0  0  0  0  0  0  0  0  0  0  0  0
    5.5963   -1.5176   -1.5596 H   0  0  0  0  0  0  0  0  0  0  0  0
    3.6940    1.6669    0.8019 C   0  0  0  0  0  0  0  0  0  0  0  0
    3.9166    2.6081    1.3336 H   0  0  0  0  0  0  0  0  0  0  0  0
    4.5657   -0.1348   -0.3862 C   0  0  0  0  0  0  0  0  0  0  0  0
    3.0245   -2.5476   -1.4820 H   0  0  0  0  0  0  0  0  0  0  0  0
  1  5  1  0  0  0  0
  2  1  1  0  0  0  0
  3  2  1  0  0  0  0
  4  2  1  0  0  0  0
  4  6  1  0  0  0  0
  5  7  1  0  0  0  0
  6 14  1  0  0  0  0
  6  5  2  0  0  0  0
  7 12  2  0  0  0  0
  8 12  1  0  0  0  0
  9 10  1  0  0  0  0
  9 14  1  0  0  0  0
 11  9  1  0  0  0  0
 12 13  1  0  0  0  0
 14  8  2  0  0  0  0
 15  4  1  0  0  0  0
M  END
