1
q = -1.0

 37 38  0  0  0  0  0  0  0  0999 V2000
   -0.2938   -0.5618    0.4387 N   0  0  0  0  0  2  0  0  0  0  0  0
   -2.4116   -0.9129    1.3437 N   0  0  0  0  0  0  0  0  0  0  0  0
   -2.0242   -1.9927   -0.5686 N   0  0  0  0  0  0  0  0  0  0  0  0
    0.7633   -1.1016   -0.3293 N   0  0  0  0  0  0  0  0  0  0  0  0
    0.6902   -0.7630   -1.3270 H   0  0  0  0  0  0  0  0  0  0  0  0
    2.4055   -0.9539    1.4593 N   0  0  0  0  0  0  0  0  0  0  0  0
    3.0832   -0.8196   -0.6666 N   0  0  0  0  0  0  0  0  0  0  0  0
   -1.4828   -1.1610    0.3699 C   0  0  0  0  0  3  0  0  0  0  0  0
   -3.7367   -1.2615    0.8422 C   0  0  0  0  0  0  0  0  0  0  0  0
   -4.2027   -0.3673    0.3667 H   0  0  0  0  0  0  0  0  0  0  0  0
   -4.3899   -1.6266    1.6589 H   0  0  0  0  0  0  0  0  0  0  0  0
   -3.3930   -2.3493   -0.1858 C   0  0  0  0  0  0  0  0  0  0  0  0
   -3.4330   -3.3722    0.2579 H   0  0  0  0  0  0  0  0  0  0  0  0
   -4.0610   -2.3267   -1.0690 H   0  0  0  0  0  0  0  0  0  0  0  0
   -2.2378    0.0295    2.4292 C   0  0  0  0  0  0  0  0  0  0  0  0
   -2.7464   -0.3558    3.3370 H   0  0  0  0  0  0  0  0  0  0  0  0
   -2.6354    1.0297    2.1510 H   0  0  0  0  0  0  0  0  0  0  0  0
   -1.1579    0.1412    2.6308 H   0  0  0  0  0  0  0  0  0  0  0  0
   -1.4289   -2.4020   -1.8276 C   0  0  0  0  0  0  0  0  0  0  0  0
   -1.0315   -1.5193   -2.3729 H   0  0  0  0  0  0  0  0  0  0  0  0
   -2.2236   -2.8542   -2.4499 H   0  0  0  0  0  0  0  0  0  0  0  0
   -0.6247   -3.1561   -1.6936 H   0  0  0  0  0  0  0  0  0  0  0  0
    2.0113   -0.9275    0.1588 C   0  0  0  0  0  3  0  0  0  0  0  0
    3.7987   -0.4913    1.5091 C   0  0  0  0  0  0  0  0  0  0  0  0
    4.3491   -0.9886    2.3308 H   0  0  0  0  0  0  0  0  0  0  0  0
    3.8052    0.6120    1.6623 H   0  0  0  0  0  0  0  0  0  0  0  0
    4.3142   -0.8624    0.1166 C   0  0  0  0  0  0  0  0  0  0  0  0
    5.0524   -0.1366   -0.2768 H   0  0  0  0  0  0  0  0  0  0  0  0
    4.7695   -1.8813    0.0900 H   0  0  0  0  0  0  0  0  0  0  0  0
    1.5710   -0.7276    2.6297 C   0  0  0  0  0  0  0  0  0  0  0  0
    1.2670    0.3408    2.6807 H   0  0  0  0  0  0  0  0  0  0  0  0
    2.1680   -1.0006    3.5219 H   0  0  0  0  0  0  0  0  0  0  0  0
    0.6724   -1.3639    2.5903 H   0  0  0  0  0  0  0  0  0  0  0  0
    3.0616   -0.9205   -2.1104 C   0  0  0  0  0  0  0  0  0  0  0  0
    3.0359   -1.9772   -2.4620 H   0  0  0  0  0  0  0  0  0  0  0  0
    3.9760   -0.4401   -2.5067 H   0  0  0  0  0  0  0  0  0  0  0  0
    2.1910   -0.3619   -2.5177 H   0  0  0  0  0  0  0  0  0  0  0  0
  2 15  1  0  0  0  0
  3 12  1  0  0  0  0
  3  8  1  0  0  0  0
  4 23  1  0  0  0  0
  4  1  1  0  0  0  0
  5  4  1  0  0  0  0
  6 24  1  0  0  0  0
  6 30  1  0  0  0  0
  7 27  1  0  0  0  0
  7 23  1  0  0  0  0
  8  1  1  0  0  0  0
  8  2  1  0  0  0  0
  9  2  1  0  0  0  0
  9 11  1  0  0  0  0
 10  9  1  0  0  0  0
 12 13  1  0  0  0  0
 12  9  1  0  0  0  0
 14 12  1  0  0  0  0
 15 18  1  0  0  0  0
 15 16  1  0  0  0  0
 17 15  1  0  0  0  0
 19 22  1  0  0  0  0
 19  3  1  0  0  0  0
 20 19  1  0  0  0  0
 21 19  1  0  0  0  0
 23  6  1  0  0  0  0
 24 26  1  0  0  0  0
 24 25  1  0  0  0  0
 27 24  1  0  0  0  0
 28 27  1  0  0  0  0
 29 27  1  0  0  0  0
 30 31  1  0  0  0  0
 30 32  1  0  0  0  0
 33 30  1  0  0  0  0
 34  7  1  0  0  0  0
 35 34  1  0  0  0  0
 36 34  1  0  0  0  0
 37 34  1  0  0  0  0
M  END
