16
q = -1.0

 16 17  0  0  0  0  0  0  0  0999 V2000
    4.0075    1.3279   -1.1487 F   0  0  0  0  0  0  0  0  0  0  0  0
    5.2374   -1.0642   -1.3580 F   0  0  0  0  0  0  0  0  0  0  0  0
    0.5888   -0.6957    1.5037 F   0  0  0  0  0  0  0  0  0  0  0  0
    4.1530   -3.2855   -0.1875 F   0  0  0  0  0  0  0  0  0  0  0  0
    1.8047   -3.0815    1.2224 F   0  0  0  0  0  0  0  0  0  0  0  0
    3.5490   -2.1056   -0.0645 C   0  0  0  0  0  0  0  0  0  0  0  0
    2.3454   -2.0016    0.6533 C   0  0  0  0  0  0  0  0  0  0  0  0
    4.1042   -0.9620   -0.6637 C   0  0  0  0  0  0  0  0  0  0  0  0
    2.2283    2.8935    0.4980 N   0  0  0  0  0  0  0  0  0  0  0  0
    3.4599    0.2810   -0.5401 C   0  0  0  0  0  0  0  0  0  0  0  0
    2.2513    0.4170    0.1828 C   0  0  0  0  0  0  0  0  0  0  0  0
    0.0775    3.2924    0.3798 N   0  0  0  0  0  0  0  0  0  0  0  0
    1.7299   -0.7495    0.7808 C   0  0  0  0  0  0  0  0  0  0  0  0
    1.2567    3.8324    0.5384 N   0  0  0  0  0  0  0  0  0  0  0  0
    1.6024    1.7270    0.3112 C   0  0  0  0  0  0  0  0  0  0  0  0
    0.2583    1.9581    0.2335 N   0  0  0  0  0  0  0  0  0  0  0  0
  1 10  1  0  0  0  0
  2  8  1  0  0  0  0
  4  6  1  0  0  0  0
  6  7  1  0  0  0  0
  7 13  2  0  0  0  0
  7  5  1  0  0  0  0
  8 10  1  0  0  0  0
  8  6  2  0  0  0  0
  9 14  1  0  0  0  0
 10 11  2  0  0  0  0
 11 15  1  0  0  0  0
 11 13  1  0  0  0  0
 12 14  1  0  0  0  0
 13  3  1  0  0  0  0
 15  9  2  0  0  0  0
 16 15  1  0  0  0  0
 16 12  2  0  0  0  0
M  END
