5
q = -1.0

 12 12  0  0  1  0  0  0  0  0999 V2000
   -3.0913    1.5900   -1.2036 N   0  0  0  0  0  0  0  0  0  0  0  0
   -3.6717    2.2482   -1.7248 H   0  0  0  0  0  0  0  0  0  0  0  0
   -3.3971    0.2532   -1.2242 N   0  0  0  0  0  0  0  0  0  0  0  0
   -2.4484   -0.2806   -0.4704 C   0  0  0  0  0  0  0  0  0  0  0  0
   -1.5728    0.6625    0.0264 N   0  0  0  0  0  2  0  0  0  0  0  0
   -1.9700    1.8443   -0.4663 C   0  0  2  0  0  3  0  0  0  0  0  0
   -2.1750   -1.7634   -0.2311 C   0  0  0  0  0  0  0  0  0  0  0  0
   -2.8753   -2.6172   -0.7535 O   0  5  0  0  0  0  0  0  0  0  0  0
   -1.1016   -1.9539    0.5134 O   0  0  0  0  0  0  0  0  0  0  0  0
   -1.3471    3.0188   -0.2242 N   0  0  0  0  0  0  0  0  0  0  0  0
   -0.3763    2.9188    0.1509 H   0  0  0  0  0  0  0  0  0  0  0  0
   -1.5420    3.8231   -0.8178 H   0  0  0  0  0  0  0  0  0  0  0  0
  1  6  1  0  0  0  0
  2  1  1  0  0  0  0
  3  1  1  0  0  0  0
  3  4  2  0  0  0  0
  4  7  1  0  0  0  0
  4  5  1  0  0  0  0
  6 10  1  1  0  0  0
  6  5  1  0  0  0  0
  7  9  2  0  0  0  0
  8  7  1  0  0  0  0
 10 11  1  0  0  0  0
 12 10  1  0  0  0  0
M  CHG  1   8  -1
M  END
