3
q = 0.0, confidence = 0.996

 22 23  0  0  0  0  0  0  0  0999 V2000
    0.4181    3.3141   -0.5016 O   0  0  0  0  0  0  0  0  0  0  0  0
   -3.1627    1.4248   -1.2250 O   0  0  0  0  0  0  0  0  0  0  0  0
    1.7160    1.1306   -1.3247 N   0  0  0  0  0  0  0  0  0  0  0  0
    1.6187    2.1310   -1.0322 H   0  0  0  0  0  0  0  0  0  0  0  0
    2.3526    0.9907   -2.1229 H   0  0  0  0  0  0  0  0  0  0  0  0
    0.4323    0.5792   -1.5709 C   0  0  0  0  0  0  0  0  0  0  0  0
    0.2999   -0.7181   -2.0882 C   0  0  0  0  0  0  0  0  0  0  0  0
    1.2129   -1.3023   -2.2858 H   0  0  0  0  0  0  0  0  0  0  0  0
   -0.9755   -1.2613   -2.3026 C   0  0  0  0  0  0  0  0  0  0  0  0
   -1.0568   -2.2850   -2.6996 H   0  0  0  0  0  0  0  0  0  0  0  0
   -2.1560   -0.5548   -2.0191 C   0  0  0  0  0  0  0  0  0  0  0  0
   -1.9955    0.7435   -1.4914 C   0  0  0  0  0  0  0  0  0  0  0  0
   -0.7316    1.3388   -1.2531 C   0  0  0  0  0  0  0  0  0  0  0  0
   -0.6548    2.7218   -0.7310 C   0  0  0  0  0  0  0  0  0  0  0  0
   -1.9512    3.3566   -0.5107 C   0  0  0  0  0  0  0  0  0  0  0  0
   -1.9714    4.3887   -0.1364 H   0  0  0  0  0  0  0  0  0  0  0  0
   -3.1081    2.6897   -0.7611 C   0  0  0  0  0  0  0  0  0  0  0  0
   -4.1160    3.1037   -0.6108 H   0  0  0  0  0  0  0  0  0  0  0  0
   -3.5278   -1.1185   -2.2692 C   0  0  0  0  0  0  0  0  0  0  0  0
   -4.1849   -0.9939   -1.3855 H   0  0  0  0  0  0  0  0  0  0  0  0
   -3.4703   -2.1945   -2.5185 H   0  0  0  0  0  0  0  0  0  0  0  0
   -4.0313   -0.5972   -3.1108 H   0  0  0  0  0  0  0  0  0  0  0  0
  2 17  1  0  0  0  0
  3  4  1  0  0  0  0
  5  3  1  0  0  0  0
  6  3  1  0  0  0  0
  6 13  1  0  0  0  0
  7  6  2  0  0  0  0
  8  7  1  0  0  0  0
  9  7  1  0  0  0  0
  9 11  2  0  0  0  0
 10  9  1  0  0  0  0
 11 12  1  0  0  0  0
 12 13  2  0  0  0  0
 12  2  1  0  0  0  0
 13 14  1  0  0  0  0
 14 15  1  0  0  0  0
 14  1  2  0  0  0  0
 15 16  1  0  0  0  0
 17 18  1  0  0  0  0
 17 15  2  0  0  0  0
 19 11  1  0  0  0  0
 19 20  1  0  0  0  0
 21 19  1  0  0  0  0
 22 19  1  0  0  0  0
M  END
