1
q = 0.0, confidence = 0.996

 19 18  0  0  1  0  0  0  0  0999 V2000
    2.7743   -0.5563   -1.6356 N   0  0  0  0  0  0  0  0  0  0  0  0
    2.9057   -1.5744   -1.5069 H   0  0  0  0  0  0  0  0  0  0  0  0
    2.7339   -0.3757   -2.6484 H   0  0  0  0  0  0  0  0  0  0  0  0
    3.8735    0.2270   -1.0186 C   0  0  0  0  0  0  0  0  0  0  0  0
    4.8388   -0.0597   -1.4927 H   0  0  0  0  0  0  0  0  0  0  0  0
    3.6668    1.2893   -1.2580 H   0  0  0  0  0  0  0  0  0  0  0  0
    3.9425    0.0443    0.5026 C   0  0  2  0  0  0  0  0  0  0  0  0
    2.9226    0.2923    0.8792 H   0  0  0  0  0  0  0  0  0  0  0  0
    4.9129    1.0650    1.1325 C   0  0  0  0  0  0  0  0  0  0  0  0
    4.5596    2.0879    0.8771 H   0  0  0  0  0  0  0  0  0  0  0  0
    4.8198    0.9816    2.2369 H   0  0  0  0  0  0  0  0  0  0  0  0
    6.3871    0.9216    0.7421 C   0  0  0  0  0  0  0  0  0  0  0  0
    6.7901   -0.0771    1.0078 H   0  0  0  0  0  0  0  0  0  0  0  0
    7.0095    1.6755    1.2647 H   0  0  0  0  0  0  0  0  0  0  0  0
    6.5493    1.0669   -0.3459 H   0  0  0  0  0  0  0  0  0  0  0  0
    4.2437   -1.4048    0.9071 C   0  0  0  0  0  0  0  0  0  0  0  0
    3.4122   -2.0831    0.6242 H   0  0  0  0  0  0  0  0  0  0  0  0
    4.3633   -1.4862    2.0069 H   0  0  0  0  0  0  0  0  0  0  0  0
    5.1792   -1.7813    0.4418 H   0  0  0  0  0  0  0  0  0  0  0  0
  1  2  1  0  0  0  0
  1  4  1  0  0  0  0
  3  1  1  0  0  0  0
  4  7  1  0  0  0  0
  5  4  1  0  0  0  0
  6  4  1  0  0  0  0
  7  8  1  1  0  0  0
  7 16  1  0  0  0  0
  7  9  1  0  0  0  0
  9 11  1  0  0  0  0
 10  9  1  0  0  0  0
 12 13  1  0  0  0  0
 12  9  1  0  0  0  0
 12 14  1  0  0  0  0
 15 12  1  0  0  0  0
 16 18  1  0  0  0  0
 17 16  1  0  0  0  0
 19 16  1  0  0  0  0
M  END
