2
q = -1.0, confidence = 0.012

 18 19  0  0  0  0  0  0  0  0999 V2000
    1.2090   -0.6811   -0.2513 N   0  0  0  0  0  0  0  0  0  0  0  0
    0.0917   -0.3229   -0.8832 N   0  0  0  0  0  2  0  0  0  0  0  0
    0.3461    0.4731   -1.9365 N   0  0  0  0  0  0  0  0  0  0  0  0
    1.6516    0.6400   -2.0053 N   0  0  0  0  0  0  0  0  0  0  0  0
    2.1767   -0.0713   -0.9684 C   0  0  0  0  0  0  0  0  0  0  0  0
    3.6053   -0.1475   -0.6629 C   0  0  0  0  0  0  0  0  0  0  0  0
    4.0672   -0.9167    0.4299 C   0  0  0  0  0  0  0  0  0  0  0  0
    3.3325   -1.4650    1.0371 H   0  0  0  0  0  0  0  0  0  0  0  0
    5.4327   -0.9732    0.7176 C   0  0  0  0  0  0  0  0  0  0  0  0
    5.7983   -1.5741    1.5668 H   0  0  0  0  0  0  0  0  0  0  0  0
    6.3613   -0.2652   -0.0743 C   0  0  0  0  0  0  0  0  0  0  0  0
    5.8994    0.5014   -1.1682 C   0  0  0  0  0  0  0  0  0  0  0  0
    6.6446    1.0419   -1.7717 H   0  0  0  0  0  0  0  0  0  0  0  0
    4.5383    0.5598   -1.4612 C   0  0  0  0  0  0  0  0  0  0  0  0
    4.1576    1.1484   -2.3085 H   0  0  0  0  0  0  0  0  0  0  0  0
    7.8066   -0.3252    0.2389 C   0  0  0  0  0  0  0  0  0  0  0  0
    8.0560   -0.9776    1.1325 H   0  0  0  0  0  0  0  0  0  0  0  0
    8.6842    0.2580   -0.3788 O   0  0  0  0  0  0  0  0  0  0  0  0
  2  1  1  0  0  0  0
  3  2  1  0  0  0  0
  4  3  2  0  0  0  0
  4  5  1  0  0  0  0
  5  6  1  0  0  0  0
  5  1  2  0  0  0  0
  6  7  1  0  0  0  0
  7  9  2  0  0  0  0
  7  8  1  0  0  0  0
  9 10  1  0  0  0  0
 11 16  1  0  0  0  0
 11  9  1  0  0  0  0
 12 11  2  0  0  0  0
 13 12  1  0  0  0  0
 14 12  1  0  0  0  0
 14  6  2  0  0  0  0
 15 14  1  0  0  0  0
 16 17  1  0  0  0  0
 18 16  2  0  0  0  0
M  END
