2
q = -1.0

 21 22  0  0  0  0  0  0  0  0999 V2000
   -1.3485   -0.5359   -0.0006 N   0  0  0  0  0  0  0  0  0  0  0  0
   -0.1442    0.0347   -0.0013 N   0  0  0  0  0  2  0  0  0  0  0  0
   -0.2316    1.3758   -0.0026 N   0  0  0  0  0  0  0  0  0  0  0  0
   -1.5086    1.7001   -0.0028 N   0  0  0  0  0  0  0  0  0  0  0  0
   -2.1902    0.5192   -0.0016 C   0  0  0  0  0  0  0  0  0  0  0  0
   -3.6503    0.4140   -0.0013 C   0  0  0  0  0  0  0  0  0  0  0  0
   -4.2809   -0.8500    0.0000 C   0  0  0  0  0  0  0  0  0  0  0  0
   -3.6542   -1.7534    0.0008 H   0  0  0  0  0  0  0  0  0  0  0  0
   -5.6756   -0.9423    0.0003 C   0  0  0  0  0  0  0  0  0  0  0  0
   -6.1440   -1.9374    0.0013 H   0  0  0  0  0  0  0  0  0  0  0  0
   -6.4760    0.2222   -0.0007 C   0  0  0  0  0  0  0  0  0  0  0  0
   -5.8385    1.4835   -0.0020 C   0  0  0  0  0  0  0  0  0  0  0  0
   -6.4804    2.3772   -0.0028 H   0  0  0  0  0  0  0  0  0  0  0  0
   -4.4479    1.5826   -0.0023 C   0  0  0  0  0  0  0  0  0  0  0  0
   -3.9444    2.5601   -0.0034 H   0  0  0  0  0  0  0  0  0  0  0  0
   -7.9753    0.1890   -0.0005 C   0  0  0  0  0  0  0  0  0  0  0  0
   -8.6299    1.2281   -0.0012 O   0  0  0  0  0  0  0  0  0  0  0  0
   -8.6677   -1.1654    0.0008 C   0  0  0  0  0  0  0  0  0  0  0  0
   -9.7606   -1.0058    0.0005 H   0  0  0  0  0  0  0  0  0  0  0  0
   -8.3810   -1.7594    0.8929 H   0  0  0  0  0  0  0  0  0  0  0  0
   -8.3808   -1.7613   -0.8900 H   0  0  0  0  0  0  0  0  0  0  0  0
  2  1  1  0  0  0  0
  3  2  1  0  0  0  0
  4  3  2  0  0  0  0
  4  5  1  0  0  0  0
  5  6  1  0  0  0  0
  5  1  2  0  0  0  0
  6  7  1  0  0  0  0
  7  9  2  0  0  0  0
  7  8  1  0  0  0  0
  9 10  1  0  0  0  0
 11 16  1  0  0  0  0
 11  9  1  0  0  0  0
 12 11  2  0  0  0  0
 13 12  1  0  0  0  0
 14 12  1  0  0  0  0
 14  6  2  0  0  0  0
 15 14  1  0  0  0  0
 16 18  1  0  0  0  0
 17 16  2  0  0  0  0
 18 20  1  0  0  0  0
 19 18  1  0  0  0  0
 21 18  1  0  0  0  0
M  END
