2
q = 0.0, confidence = 1.0

 30 32  0  0  1  0  0  0  0  0999 V2000
    5.2619    0.0601    0.1670 O   0  0  0  0  0  0  0  0  0  0  0  0
    0.8124   -0.4563   -0.1312 N   0  0  0  0  0  2  0  0  0  0  0  0
    4.1038    0.7535    0.0495 N   0  0  0  0  0  0  0  0  0  0  0  0
    1.4932   -1.6950   -0.0515 C   0  0  0  0  0  0  0  0  0  0  0  0
    0.9402   -2.9750   -0.0783 C   0  0  0  0  0  0  0  0  0  0  0  0
   -0.1457   -3.1056   -0.1854 H   0  0  0  0  0  0  0  0  0  0  0  0
    1.8299   -4.0621    0.0198 C   0  0  0  0  0  0  0  0  0  0  0  0
    1.4292   -5.0865   -0.0021 H   0  0  0  0  0  0  0  0  0  0  0  0
    3.2179   -3.8643    0.1414 C   0  0  0  0  0  0  0  0  0  0  0  0
    3.8848   -4.7358    0.2174 H   0  0  0  0  0  0  0  0  0  0  0  0
    3.7680   -2.5682    0.1644 C   0  0  0  0  0  0  0  0  0  0  0  0
    4.8494   -2.4081    0.2571 H   0  0  0  0  0  0  0  0  0  0  0  0
    2.8910   -1.4791    0.0646 C   0  0  0  0  0  0  0  0  0  0  0  0
    3.0540   -0.0245    0.0298 C   0  0  0  0  0  0  0  0  0  0  0  0
    1.6868    0.5423   -0.0999 C   0  0  1  0  0  3  0  0  0  0  0  0
    1.3253    1.9545   -0.2198 C   0  0  0  0  0  0  0  0  0  0  0  0
    2.0009    2.9421    0.5342 C   0  0  0  0  0  0  0  0  0  0  0  0
    2.8065    2.6433    1.2172 H   0  0  0  0  0  0  0  0  0  0  0  0
    1.6237    4.2860    0.4304 C   0  0  0  0  0  0  0  0  0  0  0  0
    2.1407    5.0451    1.0365 H   0  0  0  0  0  0  0  0  0  0  0  0
    0.5849    4.6643   -0.4360 C   0  0  0  0  0  0  0  0  0  0  0  0
    0.2926    5.7225   -0.5159 H   0  0  0  0  0  0  0  0  0  0  0  0
   -0.0748    3.6915   -1.2058 C   0  0  0  0  0  0  0  0  0  0  0  0
   -0.8744    3.9852   -1.9025 H   0  0  0  0  0  0  0  0  0  0  0  0
    0.2851    2.3432   -1.1008 C   0  0  0  0  0  0  0  0  0  0  0  0
   -0.2171    1.5828   -1.7191 H   0  0  0  0  0  0  0  0  0  0  0  0
    6.3828    0.9504    0.1589 C   0  0  0  0  0  0  0  0  0  0  0  0
    7.2745    0.3039    0.2484 H   0  0  0  0  0  0  0  0  0  0  0  0
    6.3308    1.6507    1.0174 H   0  0  0  0  0  0  0  0  0  0  0  0
    6.4183    1.5243   -0.7891 H   0  0  0  0  0  0  0  0  0  0  0  0
  2 15  1  0  0  0  0
  2  4  1  0  0  0  0
  3  1  1  0  0  0  0
  4 13  1  0  0  0  0
  5  4  2  0  0  0  0
  5  7  1  0  0  0  0
  6  5  1  0  0  0  0
  7  9  2  0  0  0  0
  8  7  1  0  0  0  0
  9 11  1  0  0  0  0
  9 10  1  0  0  0  0
 11 12  1  0  0  0  0
 13 11  2  0  0  0  0
 14  3  2  0  0  0  0
 14 13  1  0  0  0  0
 15 16  1  6  0  0  0
 15 14  1  0  0  0  0
 16 17  1  0  0  0  0
 17 18  1  0  0  0  0
 19 17  2  0  0  0  0
 19 20  1  0  0  0  0
 21 19  1  0  0  0  0
 22 21  1  0  0  0  0
 23 25  1  0  0  0  0
 23 21  2  0  0  0  0
 24 23  1  0  0  0  0
 25 16  2  0  0  0  0
 26 25  1  0  0  0  0
 27  1  1  0  0  0  0
 27 28  1  0  0  0  0
 27 29  1  0  0  0  0
 30 27  1  0  0  0  0
M  END
