4
q = 0.0, confidence = 0.964

 27 28  0  0  0  0  0  0  0  0999 V2000
   -4.2803   -2.0765   -0.3064 S   0  0  0  0  0  0  0  0  0  0  0  0
   -5.0402   -1.8115   -1.5346 O   0  0  0  0  0  0  0  0  0  0  0  0
   -4.4651   -3.2923    0.5062 O   0  0  0  0  0  0  0  0  0  0  0  0
    1.5615   -1.1834   -1.2110 N   0  0  0  0  0  0  0  0  0  0  0  0
    1.8004   -0.8309   -2.1500 H   0  0  0  0  0  0  0  0  0  0  0  0
    2.1652   -1.9917   -1.0036 H   0  0  0  0  0  0  0  0  0  0  0  0
   -4.5846   -0.8251    0.8468 N   0  0  0  0  0  0  0  0  0  0  0  0
   -4.9172   -1.1780    1.7500 H   0  0  0  0  0  0  0  0  0  0  0  0
   -5.3100    1.2193    1.6222 N   0  0  0  0  0  0  0  0  0  0  0  0
   -4.3898    1.0073   -0.5986 N   0  0  0  0  0  0  0  0  0  0  0  0
    0.1736   -1.4881   -1.0782 C   0  0  0  0  0  0  0  0  0  0  0  0
   -0.2468   -2.3274   -0.0295 C   0  0  0  0  0  0  0  0  0  0  0  0
    0.5001   -2.7701    0.6464 H   0  0  0  0  0  0  0  0  0  0  0  0
   -1.6120   -2.5236    0.1887 C   0  0  0  0  0  0  0  0  0  0  0  0
   -1.9717   -3.1678    1.0032 H   0  0  0  0  0  0  0  0  0  0  0  0
   -2.5356   -1.8718   -0.6447 C   0  0  0  0  0  0  0  0  0  0  0  0
   -2.1297   -1.0536   -1.7087 C   0  0  0  0  0  0  0  0  0  0  0  0
   -2.8886   -0.5652   -2.3344 H   0  0  0  0  0  0  0  0  0  0  0  0
   -0.7604   -0.8602   -1.9226 C   0  0  0  0  0  0  0  0  0  0  0  0
   -0.4089   -0.1966   -2.7276 H   0  0  0  0  0  0  0  0  0  0  0  0
   -4.7748    0.5222    0.5977 C   0  0  0  0  0  0  0  0  0  0  0  0
   -5.4896    2.5272    1.4088 C   0  0  0  0  0  0  0  0  0  0  0  0
   -5.9182    3.1067    2.2460 H   0  0  0  0  0  0  0  0  0  0  0  0
   -5.1625    3.1477    0.1912 C   0  0  0  0  0  0  0  0  0  0  0  0
   -5.3300    4.2196    0.0195 H   0  0  0  0  0  0  0  0  0  0  0  0
   -4.6073    2.3159   -0.7913 C   0  0  0  0  0  0  0  0  0  0  0  0
   -4.3135    2.7212   -1.7760 H   0  0  0  0  0  0  0  0  0  0  0  0
  1  3  2  0  0  0  0
  1  7  1  0  0  0  0
  2  1  2  0  0  0  0
  4 11  1  0  0  0  0
  4  6  1  0  0  0  0
  5  4  1  0  0  0  0
  7  8  1  0  0  0  0
 10 21  1  0  0  0  0
 11 12  1  0  0  0  0
 12 14  2  0  0  0  0
 12 13  1  0  0  0  0
 14 15  1  0  0  0  0
 16  1  1  0  0  0  0
 16 14  1  0  0  0  0
 17 16  2  0  0  0  0
 18 17  1  0  0  0  0
 19 17  1  0  0  0  0
 19 11  2  0  0  0  0
 20 19  1  0  0  0  0
 21  7  1  0  0  0  0
 21  9  2  0  0  0  0
 22  9  1  0  0  0  0
 22 23  1  0  0  0  0
 24 22  2  0  0  0  0
 25 24  1  0  0  0  0
 26 10  2  0  0  0  0
 26 24  1  0  0  0  0
 27 26  1  0  0  0  0
M  END
