1
q = -1.0

 30 30  0  0  0  0  0  0  0  0999 V2000
   -0.9207    0.0721   -0.7848 N   0  0  0  0  0  2  0  0  0  0  0  0
   -1.1003    0.1668   -1.8007 H   0  0  0  0  0  0  0  0  0  0  0  0
   -2.0716    0.0073    0.0036 N   0  0  0  0  0  0  0  0  0  0  0  0
   -2.8380    1.3018   -0.0234 C   0  0  0  0  0  0  0  0  0  0  0  0
   -3.2584    1.7536   -1.4427 C   0  0  0  0  0  0  0  0  0  0  0  0
   -3.6644    2.7841   -1.4035 H   0  0  0  0  0  0  0  0  0  0  0  0
   -4.0367    1.1078   -1.8892 H   0  0  0  0  0  0  0  0  0  0  0  0
   -2.3888    1.7730   -2.1299 H   0  0  0  0  0  0  0  0  0  0  0  0
   -1.9293    2.3895    0.5724 C   0  0  0  0  0  0  0  0  0  0  0  0
   -1.6194    2.1037    1.5962 H   0  0  0  0  0  0  0  0  0  0  0  0
   -2.4754    3.3523    0.6276 H   0  0  0  0  0  0  0  0  0  0  0  0
   -1.0192    2.5319   -0.0400 H   0  0  0  0  0  0  0  0  0  0  0  0
   -4.0743    1.1667    0.8899 C   0  0  0  0  0  0  0  0  0  0  0  0
   -4.6707    2.0993    0.8066 H   0  0  0  0  0  0  0  0  0  0  0  0
   -3.7189    1.1071    1.9418 H   0  0  0  0  0  0  0  0  0  0  0  0
   -4.9203   -0.0661    0.5910 C   0  0  0  0  0  0  0  0  0  0  0  0
   -5.7814   -0.1217    1.2890 H   0  0  0  0  0  0  0  0  0  0  0  0
   -5.3561   -0.0057   -0.4292 H   0  0  0  0  0  0  0  0  0  0  0  0
   -4.0433   -1.3057    0.7302 C   0  0  0  0  0  0  0  0  0  0  0  0
   -3.6865   -1.3728    1.7811 H   0  0  0  0  0  0  0  0  0  0  0  0
   -4.6170   -2.2342    0.5275 H   0  0  0  0  0  0  0  0  0  0  0  0
   -2.8074   -1.2911   -0.1927 C   0  0  0  0  0  0  0  0  0  0  0  0
   -1.8720   -2.4264    0.2540 C   0  0  0  0  0  0  0  0  0  0  0  0
   -2.4005   -3.3988    0.1937 H   0  0  0  0  0  0  0  0  0  0  0  0
   -1.5534   -2.2633    1.3013 H   0  0  0  0  0  0  0  0  0  0  0  0
   -0.9683   -2.4735   -0.3821 H   0  0  0  0  0  0  0  0  0  0  0  0
   -3.2199   -1.5618   -1.6593 C   0  0  0  0  0  0  0  0  0  0  0  0
   -2.3515   -1.4626   -2.3408 H   0  0  0  0  0  0  0  0  0  0  0  0
   -4.0187   -0.8859   -2.0163 H   0  0  0  0  0  0  0  0  0  0  0  0
   -3.5953   -2.6000   -1.7584 H   0  0  0  0  0  0  0  0  0  0  0  0
  1  3  1  0  0  0  0
  2  1  1  0  0  0  0
  4  3  1  0  0  0  0
  4  9  1  0  0  0  0
  4 13  1  0  0  0  0
  5  6  1  0  0  0  0
  5  4  1  0  0  0  0
  7  5  1  0  0  0  0
  8  5  1  0  0  0  0
  9 11  1  0  0  0  0
  9 10  1  0  0  0  0
 12  9  1  0  0  0  0
 13 15  1  0  0  0  0
 14 13  1  0  0  0  0
 16 19  1  0  0  0  0
 16 13  1  0  0  0  0
 16 17  1  0  0  0  0
 18 16  1  0  0  0  0
 19 20  1  0  0  0  0
 21 19  1  0  0  0  0
 22  3  1  0  0  0  0
 22 23  1  0  0  0  0
 22 19  1  0  0  0  0
 23 25  1  0  0  0  0
 24 23  1  0  0  0  0
 26 23  1  0  0  0  0
 27 22  1  0  0  0  0
 28 27  1  0  0  0  0
 29 27  1  0  0  0  0
 30 27  1  0  0  0  0
M  END
