3
q = -1.0, confidence = 0.0

 33 33  0  0  0  0  0  0  0  0999 V2000
   -1.5519    1.8382   -0.7193 S   0  0  0  0  0  0  0  0  0  0  0  0
   -1.8966   -0.7988    0.6261 S   0  0  0  0  0  0  0  0  0  0  0  0
   -0.0773    0.9565   -0.8580 N   0  0  0  0  0  2  0  0  0  0  0  0
   -3.7952    1.1196    0.5153 N   0  0  0  0  0  0  0  0  0  0  0  0
   -2.5435    0.7417    0.1804 C   0  0  0  0  0  0  0  0  0  0  0  0
   -4.3172    2.4283    0.0917 C   0  0  0  0  0  0  0  0  0  0  0  0
   -3.4871    3.1647    0.1876 H   0  0  0  0  0  0  0  0  0  0  0  0
   -5.0808    2.7263    0.8374 H   0  0  0  0  0  0  0  0  0  0  0  0
   -4.9006    2.4518   -1.3220 C   0  0  0  0  0  0  0  0  0  0  0  0
   -4.1538    2.1328   -2.0756 H   0  0  0  0  0  0  0  0  0  0  0  0
   -5.2169    3.4828   -1.5752 H   0  0  0  0  0  0  0  0  0  0  0  0
   -5.7864    1.7939   -1.4075 H   0  0  0  0  0  0  0  0  0  0  0  0
   -4.6859    0.1940    1.2357 C   0  0  0  0  0  0  0  0  0  0  0  0
   -5.4091    0.8239    1.7906 H   0  0  0  0  0  0  0  0  0  0  0  0
   -4.0723   -0.3391    1.9921 H   0  0  0  0  0  0  0  0  0  0  0  0
   -5.4101   -0.8066    0.3353 C   0  0  0  0  0  0  0  0  0  0  0  0
   -6.0788   -0.3009   -0.3877 H   0  0  0  0  0  0  0  0  0  0  0  0
   -6.0307   -1.4818    0.9567 H   0  0  0  0  0  0  0  0  0  0  0  0
   -4.6898   -1.4312   -0.2285 H   0  0  0  0  0  0  0  0  0  0  0  0
    0.9334    1.8331   -1.4563 C   0  0  0  0  0  0  0  0  0  0  0  0
    0.4428    2.5748   -2.1298 H   0  0  0  0  0  0  0  0  0  0  0  0
    1.5585    1.2019   -2.1220 H   0  0  0  0  0  0  0  0  0  0  0  0
    1.8194    2.5592   -0.4541 C   0  0  0  0  0  0  0  0  0  0  0  0
    1.5472    2.5548    0.9253 C   0  0  0  0  0  0  0  0  0  0  0  0
    0.6619    2.0237    1.3048 H   0  0  0  0  0  0  0  0  0  0  0  0
    2.4097    3.2082    1.8217 C   0  0  0  0  0  0  0  0  0  0  0  0
    2.1847    3.1991    2.8991 H   0  0  0  0  0  0  0  0  0  0  0  0
    3.5510    3.8726    1.3480 C   0  0  0  0  0  0  0  0  0  0  0  0
    4.2275    4.3820    2.0501 H   0  0  0  0  0  0  0  0  0  0  0  0
    3.8213    3.8898   -0.0307 C   0  0  0  0  0  0  0  0  0  0  0  0
    4.7113    4.4126   -0.4119 H   0  0  0  0  0  0  0  0  0  0  0  0
    2.9598    3.2388   -0.9248 C   0  0  0  0  0  0  0  0  0  0  0  0
    3.1827    3.2519   -2.0043 H   0  0  0  0  0  0  0  0  0  0  0  0
  1  5  1  0  0  0  0
  3  1  1  0  0  0  0
  4 13  1  0  0  0  0
  5  4  1  0  0  0  0
  5  2  2  0  0  0  0
  6  7  1  0  0  0  0
  6  4  1  0  0  0  0
  6  8  1  0  0  0  0
  9  6  1  0  0  0  0
 10  9  1  0  0  0  0
 11  9  1  0  0  0  0
 12  9  1  0  0  0  0
 13 14  1  0  0  0  0
 13 15  1  0  0  0  0
 16 18  1  0  0  0  0
 16 13  1  0  0  0  0
 17 16  1  0  0  0  0
 19 16  1  0  0  0  0
 20  3  1  0  0  0  0
 20 23  1  0  0  0  0
 21 20  1  0  0  0  0
 22 20  1  0  0  0  0
 23 24  1  0  0  0  0
 24 25  1  0  0  0  0
 24 26  2  0  0  0  0
 26 27  1  0  0  0  0
 28 26  1  0  0  0  0
 28 29  1  0  0  0  0
 30 28  2  0  0  0  0
 31 30  1  0  0  0  0
 32 23  2  0  0  0  0
 32 30  1  0  0  0  0
 33 32  1  0  0  0  0
M  END
