1
q = 0.0, confidence = 0.992

 24 26  0  0  1  0  0  0  0  0999 V2000
    2.6066   -0.3945    0.0069 N   0  0  0  0  0  2  0  0  0  0  0  0
    4.7462    0.2085   -0.0146 N   0  0  0  0  0  0  0  0  0  0  0  0
    1.7094    2.2792   -0.0376 N   0  0  0  0  0  0  0  0  0  0  0  0
    3.4498    0.6506   -0.0105 C   0  0  2  0  0  3  0  0  0  0  0  0
    3.3751   -1.5512    0.0156 C   0  0  0  0  0  0  0  0  0  0  0  0
    3.0004   -2.9069    0.0372 C   0  0  0  0  0  0  0  0  0  0  0  0
    4.0272   -3.8541    0.0409 C   0  0  0  0  0  0  0  0  0  0  0  0
    5.3932   -3.4715    0.0240 C   0  0  0  0  0  0  0  0  0  0  0  0
    5.7825   -2.1278    0.0040 C   0  0  0  0  0  0  0  0  0  0  0  0
    4.7491   -1.1782    0.0008 C   0  0  0  0  0  0  0  0  0  0  0  0
    3.0408    2.0626   -0.0185 C   0  0  0  0  0  0  0  0  0  0  0  0
    1.2563    3.5371   -0.0400 C   0  0  0  0  0  0  0  0  0  0  0  0
    2.1090    4.6554   -0.0258 C   0  0  0  0  0  0  0  0  0  0  0  0
    3.4934    4.4366   -0.0080 C   0  0  0  0  0  0  0  0  0  0  0  0
    3.9742    3.1208   -0.0037 C   0  0  0  0  0  0  0  0  0  0  0  0
    5.5744    0.8033   -0.0318 H   0  0  0  0  0  0  0  0  0  0  0  0
    1.9390   -3.1935    0.0530 H   0  0  0  0  0  0  0  0  0  0  0  0
    3.7744   -4.9242    0.0583 H   0  0  0  0  0  0  0  0  0  0  0  0
    6.1675   -4.2524    0.0277 H   0  0  0  0  0  0  0  0  0  0  0  0
    6.8422   -1.8363   -0.0080 H   0  0  0  0  0  0  0  0  0  0  0  0
    0.1596    3.6585   -0.0603 H   0  0  0  0  0  0  0  0  0  0  0  0
    1.6919    5.6727   -0.0284 H   0  0  0  0  0  0  0  0  0  0  0  0
    4.1966    5.2822    0.0038 H   0  0  0  0  0  0  0  0  0  0  0  0
    5.0590    2.9381    0.0138 H   0  0  0  0  0  0  0  0  0  0  0  0
  1  5  1  0  0  0  0
  2  4  1  0  0  0  0
  2 10  1  0  0  0  0
  3 11  1  0  0  0  0
  4 11  1  1  0  0  0
  4  1  1  0  0  0  0
  5  6  1  0  0  0  0
  6  7  2  0  0  0  0
  6 17  1  0  0  0  0
  7 18  1  0  0  0  0
  8 19  1  0  0  0  0
  8  7  1  0  0  0  0
  9  8  2  0  0  0  0
 10  9  1  0  0  0  0
 10  5  2  0  0  0  0
 11 15  2  0  0  0  0
 12  3  2  0  0  0  0
 12 13  1  0  0  0  0
 13 14  2  0  0  0  0
 14 15  1  0  0  0  0
 14 23  1  0  0  0  0
 15 24  1  0  0  0  0
 16  2  1  0  0  0  0
 20  9  1  0  0  0  0
 21 12  1  0  0  0  0
 22 13  1  0  0  0  0
M  END
