1
q = 0.0, confidence = 0.998

 39 40  0  0  1  0  0  0  0  0999 V2000
   -0.1170    0.9093    0.4081 N   0  0  0  0  0  2  0  0  0  0  0  0
    0.2993    3.1457    0.5564 O   0  0  0  0  0  0  0  0  0  0  0  0
    0.7280    1.8908    0.2971 C   0  0  2  0  0  3  0  0  0  0  0  0
    2.1349    1.6984   -0.1480 C   0  0  0  0  0  0  0  0  0  0  0  0
    3.1144    1.2154    0.7420 C   0  0  0  0  0  0  0  0  0  0  0  0
    4.4383    1.0637    0.3068 C   0  0  0  0  0  0  0  0  0  0  0  0
    4.7908    1.3955   -1.0107 C   0  0  0  0  0  0  0  0  0  0  0  0
    3.8181    1.8854   -1.8963 C   0  0  0  0  0  0  0  0  0  0  0  0
    2.4939    2.0436   -1.4671 C   0  0  0  0  0  0  0  0  0  0  0  0
    1.2321    4.2289    0.6217 C   0  0  0  0  0  0  0  0  0  0  0  0
   -1.4670    1.2235    0.8378 C   0  0  0  0  0  0  0  0  0  0  0  0
   -2.4490    1.2606   -0.2776 C   0  0  0  0  0  0  0  0  0  0  0  0
   -3.6455    0.5104   -0.2246 C   0  0  0  0  0  0  0  0  0  0  0  0
   -4.5369    0.5077   -1.3060 C   0  0  0  0  0  0  0  0  0  0  0  0
   -4.2484    1.2470   -2.4633 C   0  0  0  0  0  0  0  0  0  0  0  0
   -3.0598    1.9914   -2.5316 C   0  0  0  0  0  0  0  0  0  0  0  0
   -2.1681    1.9954   -1.4519 C   0  0  0  0  0  0  0  0  0  0  0  0
   -1.7448    1.3845    2.1614 C   0  0  0  0  0  0  0  0  0  0  0  0
   -3.1171    1.7193    2.6788 C   0  0  0  0  0  0  0  0  0  0  0  0
   -0.6774    1.2486    3.2137 C   0  0  0  0  0  0  0  0  0  0  0  0
    2.8357    0.9439    1.7699 H   0  0  0  0  0  0  0  0  0  0  0  0
    5.1965    0.6721    1.0009 H   0  0  0  0  0  0  0  0  0  0  0  0
    5.8281    1.2630   -1.3524 H   0  0  0  0  0  0  0  0  0  0  0  0
    4.0888    2.1311   -2.9338 H   0  0  0  0  0  0  0  0  0  0  0  0
    1.7228    2.4037   -2.1655 H   0  0  0  0  0  0  0  0  0  0  0  0
    0.6479    5.1000    0.9695 H   0  0  0  0  0  0  0  0  0  0  0  0
    1.6751    4.4496   -0.3701 H   0  0  0  0  0  0  0  0  0  0  0  0
    2.0497    4.0158    1.3396 H   0  0  0  0  0  0  0  0  0  0  0  0
   -3.8541   -0.1087    0.6592 H   0  0  0  0  0  0  0  0  0  0  0  0
   -5.4560   -0.0952   -1.2512 H   0  0  0  0  0  0  0  0  0  0  0  0
   -4.9434    1.2344   -3.3163 H   0  0  0  0  0  0  0  0  0  0  0  0
   -2.8240    2.5710   -3.4370 H   0  0  0  0  0  0  0  0  0  0  0  0
   -1.2425    2.5867   -1.5090 H   0  0  0  0  0  0  0  0  0  0  0  0
   -3.8126    2.0487    1.8860 H   0  0  0  0  0  0  0  0  0  0  0  0
   -3.0468    2.5263    3.4394 H   0  0  0  0  0  0  0  0  0  0  0  0
   -3.5693    0.8439    3.1952 H   0  0  0  0  0  0  0  0  0  0  0  0
    0.2133    0.7053    2.8478 H   0  0  0  0  0  0  0  0  0  0  0  0
   -1.0713    0.7035    4.0968 H   0  0  0  0  0  0  0  0  0  0  0  0
   -0.3498    2.2475    3.5785 H   0  0  0  0  0  0  0  0  0  0  0  0
  1 11  1  0  0  0  0
  2 10  1  0  0  0  0
  3  1  1  6  0  0  0
  3  2  1  0  0  0  0
  4  3  1  0  0  0  0
  4  5  1  0  0  0  0
  5 21  1  0  0  0  0
  6  5  2  0  0  0  0
  6 22  1  0  0  0  0
  7  6  1  0  0  0  0
  8  9  1  0  0  0  0
  8  7  2  0  0  0  0
  9  4  2  0  0  0  0
 10 26  1  0  0  0  0
 10 28  1  0  0  0  0
 11 18  2  0  0  0  0
 12 13  1  0  0  0  0
 12 11  1  0  0  0  0
 13 29  1  0  0  0  0
 14 30  1  0  0  0  0
 14 13  2  0  0  0  0
 15 14  1  0  0  0  0
 16 15  2  0  0  0  0
 16 17  1  0  0  0  0
 17 12  2  0  0  0  0
 18 19  1  0  0  0  0
 18 20  1  0  0  0  0
 19 36  1  0  0  0  0
 19 35  1  0  0  0  0
 20 39  1  0  0  0  0
 20 38  1  0  0  0  0
 23  7  1  0  0  0  0
 24  8  1  0  0  0  0
 25  9  1  0  0  0  0
 27 10  1  0  0  0  0
 31 15  1  0  0  0  0
 32 16  1  0  0  0  0
 33 17  1  0  0  0  0
 34 19  1  0  0  0  0
 37 20  1  0  0  0  0
M  END
