2
q = -1.0

 14 14  0  0  0  0  0  0  0  0999 V2000
    1.3497   -1.4654   -0.0696 O   0  0  0  0  0  0  0  0  0  0  0  0
    1.6002    0.7135    0.1326 N   0  0  0  0  0  2  0  0  0  0  0  0
    2.2140   -0.5034    0.0346 C   0  0  0  0  0  0  0  0  0  0  0  0
    3.6376   -0.6065    0.0399 C   0  0  0  0  0  0  0  0  0  0  0  0
    4.3420    0.5945    0.1603 C   0  0  0  0  0  0  0  0  0  0  0  0
    3.6812    1.8438    0.2479 C   0  0  0  0  0  0  0  0  0  0  0  0
    2.2880    1.8669    0.2144 C   0  0  0  0  0  0  0  0  0  0  0  0
    4.2716   -1.9588   -0.0967 C   0  0  0  0  0  0  0  0  0  0  0  0
    5.4437    0.5631    0.1741 H   0  0  0  0  0  0  0  0  0  0  0  0
    4.2476    2.7811    0.3320 H   0  0  0  0  0  0  0  0  0  0  0  0
    1.7019    2.7979    0.2561 H   0  0  0  0  0  0  0  0  0  0  0  0
    3.9495   -2.6358    0.7222 H   0  0  0  0  0  0  0  0  0  0  0  0
    3.9507   -2.4463   -1.0411 H   0  0  0  0  0  0  0  0  0  0  0  0
    5.3765   -1.8937   -0.0880 H   0  0  0  0  0  0  0  0  0  0  0  0
  1  3  2  0  0  0  0
  2  7  1  0  0  0  0
  3  4  1  0  0  0  0
  3  2  1  0  0  0  0
  4  5  2  0  0  0  0
  5  9  1  0  0  0  0
  5  6  1  0  0  0  0
  6 10  1  0  0  0  0
  7  6  2  0  0  0  0
  7 11  1  0  0  0  0
  8 14  1  0  0  0  0
  8  4  1  0  0  0  0
  8 12  1  0  0  0  0
 13  8  1  0  0  0  0
M  END
