4
q = 0.0, confidence = 1.0

 13 13  0  0  0  0  0  0  0  0999 V2000
    3.7433   -1.8045    0.2496 N   0  0  0  0  0  0  0  0  0  0  0  0
    3.9540   -0.7107   -0.4860 N   0  0  0  0  0  0  0  0  0  0  0  0
    2.8866    0.0480   -0.6868 N   0  0  0  0  0  2  0  0  0  0  0  0
    1.9180   -0.5908   -0.0663 N   0  0  0  0  0  2  0  0  0  0  0  0
    2.4419   -1.7197    0.5009 C   0  0  0  0  0  0  0  0  0  0  0  0
    1.8281   -2.4484    1.0410 H   0  0  0  0  0  0  0  0  0  0  0  0
    5.2672   -0.2992   -0.9213 C   0  0  0  0  0  0  0  0  0  0  0  0
    5.1469    0.3937   -1.7756 H   0  0  0  0  0  0  0  0  0  0  0  0
    5.8303   -1.1890   -1.2619 H   0  0  0  0  0  0  0  0  0  0  0  0
    6.0239    0.3988    0.2124 C   0  0  0  0  0  0  0  0  0  0  0  0
    7.2553    0.7461   -0.2167 O   0  0  0  0  0  0  0  0  0  0  0  0
    7.6939    1.1970    0.5380 H   0  0  0  0  0  0  0  0  0  0  0  0
    5.5826    0.6077    1.3175 O   0  0  0  0  0  0  0  0  0  0  0  0
  1  5  2  0  0  0  0
  2  1  1  0  0  0  0
  3  2  1  0  0  0  0
  3  4  1  0  0  0  0
  4  5  1  0  0  0  0
  5  6  1  0  0  0  0
  7  2  1  0  0  0  0
  7 10  1  0  0  0  0
  8  7  1  0  0  0  0
  9  7  1  0  0  0  0
 10 13  2  0  0  0  0
 11 10  1  0  0  0  0
 11 12  1  0  0  0  0
M  END
