1
q = 0.0, confidence = 1.0

 25 26  0  0  1  0  0  0  0  0999 V2000
   -1.5329    0.3440   -1.2600 N   0  0  0  0  0  2  0  0  0  0  0  0
   -2.6414    0.2055   -0.4647 C   0  0  1  0  0  3  0  0  0  0  0  0
   -1.6184    1.0029   -2.4383 C   0  0  0  0  0  0  0  0  0  0  0  0
   -0.6926    1.0381   -3.0308 H   0  0  0  0  0  0  0  0  0  0  0  0
   -2.5732   -0.5522    0.7701 C   0  0  0  0  0  0  0  0  0  0  0  0
   -3.8543    0.8260   -0.8646 C   0  0  0  0  0  0  0  0  0  0  0  0
   -4.7438    0.6900   -0.2376 H   0  0  0  0  0  0  0  0  0  0  0  0
   -2.7858    1.6282   -2.8736 C   0  0  0  0  0  0  0  0  0  0  0  0
   -2.7945    2.1626   -3.8331 H   0  0  0  0  0  0  0  0  0  0  0  0
   -3.9254    1.5474   -2.0532 C   0  0  0  0  0  0  0  0  0  0  0  0
   -4.8712    2.0202   -2.3578 H   0  0  0  0  0  0  0  0  0  0  0  0
   -3.2309   -0.3391    2.0072 C   0  0  0  0  0  0  0  0  0  0  0  0
   -4.1690    0.7728    2.3738 C   0  0  0  0  0  0  0  0  0  0  0  0
   -3.9103    1.7245    1.8668 H   0  0  0  0  0  0  0  0  0  0  0  0
   -4.1446    0.9579    3.4656 H   0  0  0  0  0  0  0  0  0  0  0  0
   -5.2246    0.5396    2.1122 H   0  0  0  0  0  0  0  0  0  0  0  0
   -2.7787   -1.3652    2.8794 C   0  0  0  0  0  0  0  0  0  0  0  0
   -3.0607   -1.4900    3.9316 H   0  0  0  0  0  0  0  0  0  0  0  0
   -1.7680   -1.6711    0.9161 N   0  0  0  0  0  0  0  0  0  0  0  0
   -1.2446   -2.1017    0.1298 H   0  0  0  0  0  0  0  0  0  0  0  0
   -1.8852   -2.1855    2.1741 C   0  0  0  0  0  0  0  0  0  0  0  0
   -1.1327   -3.4028    2.5996 C   0  0  0  0  0  0  0  0  0  0  0  0
   -1.4117   -3.6885    3.6306 H   0  0  0  0  0  0  0  0  0  0  0  0
   -0.0353   -3.2312    2.5763 H   0  0  0  0  0  0  0  0  0  0  0  0
   -1.3406   -4.2678    1.9353 H   0  0  0  0  0  0  0  0  0  0  0  0
  1  2  1  0  0  0  0
  2  5  1  1  0  0  0
  3  1  1  0  0  0  0
  4  3  1  0  0  0  0
  5 19  1  0  0  0  0
  5 12  2  0  0  0  0
  6  2  1  0  0  0  0
  6  7  1  0  0  0  0
  8  3  2  0  0  0  0
  8 10  1  0  0  0  0
  9  8  1  0  0  0  0
 10  6  2  0  0  0  0
 11 10  1  0  0  0  0
 12 13  1  0  0  0  0
 12 17  1  0  0  0  0
 13 15  1  0  0  0  0
 14 13  1  0  0  0  0
 16 13  1  0  0  0  0
 17 18  1  0  0  0  0
 19 21  1  0  0  0  0
 20 19  1  0  0  0  0
 21 22  1  0  0  0  0
 21 17  2  0  0  0  0
 22 23  1  0  0  0  0
 24 22  1  0  0  0  0
 25 22  1  0  0  0  0
M  END
