6
q = 0.0, confidence = 1.0

 21 21  0  0  0  0  0  0  0  0999 V2000
   -5.8296    0.0254    0.0836 F   0  0  0  0  0  0  0  0  0  0  0  0
   -4.5617   -1.7295   -0.1950 F   0  0  0  0  0  0  0  0  0  0  0  0
   -5.1111   -0.5021   -1.9124 F   0  0  0  0  0  0  0  0  0  0  0  0
    2.4405    2.5177    0.3973 O   0  0  0  0  0  0  0  0  0  0  0  0
    3.0397    2.1416   -0.3175 H   0  0  0  0  0  0  0  0  0  0  0  0
    1.3023    1.7484    0.1933 N   0  0  0  0  0  2  0  0  0  0  0  0
    0.1770    3.6485    0.9291 N   0  0  0  0  0  4  0  0  0  0  0  0
    1.0928    4.1005    0.9927 H   0  0  0  0  0  0  0  0  0  0  0  0
   -0.6392    4.2354    0.7638 H   0  0  0  0  0  0  0  0  0  0  0  0
    0.1756    2.3873    0.4196 C   0  0  0  0  0  0  0  0  0  0  0  0
   -1.1117    1.7154    0.1352 C   0  0  0  0  0  0  0  0  0  0  0  0
   -2.1697    1.7836    1.0626 C   0  0  0  0  0  0  0  0  0  0  0  0
   -2.0234    2.3166    2.0123 H   0  0  0  0  0  0  0  0  0  0  0  0
   -3.3726    1.1168    0.8064 C   0  0  0  0  0  0  0  0  0  0  0  0
   -4.1908    1.1454    1.5395 H   0  0  0  0  0  0  0  0  0  0  0  0
   -3.5259    0.3825   -0.3822 C   0  0  0  0  0  0  0  0  0  0  0  0
   -2.4865    0.3404   -1.3292 C   0  0  0  0  0  0  0  0  0  0  0  0
   -2.6205   -0.2160   -2.2677 H   0  0  0  0  0  0  0  0  0  0  0  0
   -1.2818    1.0043   -1.0727 C   0  0  0  0  0  0  0  0  0  0  0  0
   -0.4646    0.9725   -1.8077 H   0  0  0  0  0  0  0  0  0  0  0  0
   -4.7672   -0.4478   -0.6060 C   0  0  0  0  0  0  0  0  0  0  0  0
  3 21  1  0  0  0  0
  5  4  1  0  0  0  0
  6  4  1  0  0  0  0
  6 10  1  0  0  0  0
  7  8  1  0  0  0  0
  9  7  1  0  0  0  0
 10  7  2  0  0  0  0
 11 10  1  0  0  0  0
 11 12  1  0  0  0  0
 12 13  1  0  0  0  0
 14 12  2  0  0  0  0
 14 15  1  0  0  0  0
 16 14  1  0  0  0  0
 17 19  1  0  0  0  0
 17 16  2  0  0  0  0
 18 17  1  0  0  0  0
 19 11  2  0  0  0  0
 20 19  1  0  0  0  0
 21 16  1  0  0  0  0
 21  2  1  0  0  0  0
 21  1  1  0  0  0  0
M  END
