5
q = 0.0, confidence = 0.996

 20 20  0  0  0  0  0  0  0  0999 V2000
    1.9945    2.6352    0.4563 O   0  0  0  0  0  0  0  0  0  0  0  0
    2.6489    2.3215   -0.2411 H   0  0  0  0  0  0  0  0  0  0  0  0
   -5.9456   -0.5928   -0.0123 O   0  0  0  0  0  0  0  0  0  0  0  0
   -5.0218   -1.3017   -1.8638 O   0  0  0  0  0  0  0  0  0  0  0  0
    0.9404    1.7654    0.2160 N   0  0  0  0  0  2  0  0  0  0  0  0
   -0.3636    3.5344    0.9806 N   0  0  0  0  0  4  0  0  0  0  0  0
    0.5078    4.0635    1.0699 H   0  0  0  0  0  0  0  0  0  0  0  0
   -1.2243    4.0530    0.8119 H   0  0  0  0  0  0  0  0  0  0  0  0
   -5.0174   -0.6556   -0.8173 N   0  0  0  0  0  0  0  0  0  0  0  0
   -0.2446    2.2907    0.4416 C   0  0  0  0  0  0  0  0  0  0  0  0
   -1.4675    1.5224    0.1204 C   0  0  0  0  0  0  0  0  0  0  0  0
   -2.5603    1.5318    1.0135 C   0  0  0  0  0  0  0  0  0  0  0  0
   -2.4702    2.0609    1.9723 H   0  0  0  0  0  0  0  0  0  0  0  0
   -3.7264    0.8239    0.7090 C   0  0  0  0  0  0  0  0  0  0  0  0
   -4.5879    0.7932    1.3887 H   0  0  0  0  0  0  0  0  0  0  0  0
   -3.7844    0.1111   -0.4958 C   0  0  0  0  0  0  0  0  0  0  0  0
   -2.7197    0.0945   -1.4071 C   0  0  0  0  0  0  0  0  0  0  0  0
   -2.8231   -0.4703   -2.3429 H   0  0  0  0  0  0  0  0  0  0  0  0
   -1.5564    0.8077   -1.0958 C   0  0  0  0  0  0  0  0  0  0  0  0
   -0.7101    0.8170   -1.7980 H   0  0  0  0  0  0  0  0  0  0  0  0
  2  1  1  0  0  0  0
  4  9  2  0  0  0  0
  5 10  1  0  0  0  0
  5  1  1  0  0  0  0
  6  7  1  0  0  0  0
  8  6  1  0  0  0  0
  9 16  1  0  0  0  0
  9  3  2  0  0  0  0
 10  6  2  0  0  0  0
 11 10  1  0  0  0  0
 11 12  1  0  0  0  0
 12 13  1  0  0  0  0
 14 12  2  0  0  0  0
 14 15  1  0  0  0  0
 16 14  1  0  0  0  0
 17 19  1  0  0  0  0
 17 16  2  0  0  0  0
 18 17  1  0  0  0  0
 19 11  2  0  0  0  0
 20 19  1  0  0  0  0
M  END
