2
q = 0.0, confidence = 0.994

 34 34  0  0  1  0  0  0  0  0999 V2000
    2.6113    0.7496   -1.0998 N   0  0  0  0  0  0  0  0  0  0  0  0
    1.9838   -0.3927   -1.5555 N   0  0  0  0  0  2  0  0  0  0  0  0
    2.8702   -0.8635    0.3849 N   0  0  0  0  0  0  0  0  0  0  0  0
    3.1494   -1.4321    1.6268 N   0  0  0  0  0  0  0  0  0  0  0  0
    3.1456    0.4602    0.0739 C   0  0  0  0  0  0  0  0  0  0  0  0
    3.8956    1.4425    0.9480 C   0  0  0  0  0  0  0  0  0  0  0  0
    4.0415    2.7641    0.1706 C   0  0  0  0  0  0  0  0  0  0  0  0
    3.0525    3.1951   -0.0777 H   0  0  0  0  0  0  0  0  0  0  0  0
    4.5894    2.6172   -0.7802 H   0  0  0  0  0  0  0  0  0  0  0  0
    4.5985    3.4931    0.7924 H   0  0  0  0  0  0  0  0  0  0  0  0
    3.0905    1.7057    2.2434 C   0  0  0  0  0  0  0  0  0  0  0  0
    2.0839    2.1043    2.0082 H   0  0  0  0  0  0  0  0  0  0  0  0
    3.6237    2.4587    2.8587 H   0  0  0  0  0  0  0  0  0  0  0  0
    2.9636    0.7909    2.8507 H   0  0  0  0  0  0  0  0  0  0  0  0
    5.2940    0.8815    1.2892 C   0  0  0  0  0  0  0  0  0  0  0  0
    5.8402    1.6081    1.9241 H   0  0  0  0  0  0  0  0  0  0  0  0
    5.8894    0.7161    0.3684 H   0  0  0  0  0  0  0  0  0  0  0  0
    5.2095   -0.0749    1.8387 H   0  0  0  0  0  0  0  0  0  0  0  0
    2.1215   -1.3709   -0.6513 C   0  0  2  0  0  3  0  0  0  0  0  0
    1.6099   -2.7946   -0.7859 C   0  0  0  0  0  0  0  0  0  0  0  0
    0.9043   -2.9700   -2.1447 C   0  0  0  0  0  0  0  0  0  0  0  0
    1.5606   -2.6919   -2.9917 H   0  0  0  0  0  0  0  0  0  0  0  0
   -0.0246   -2.3625   -2.2049 H   0  0  0  0  0  0  0  0  0  0  0  0
    0.6060   -4.0304   -2.2626 H   0  0  0  0  0  0  0  0  0  0  0  0
    2.8114   -3.7719   -0.7520 C   0  0  0  0  0  0  0  0  0  0  0  0
    3.3461   -3.7707    0.2187 H   0  0  0  0  0  0  0  0  0  0  0  0
    3.5452   -3.5325   -1.5470 H   0  0  0  0  0  0  0  0  0  0  0  0
    2.4504   -4.8071   -0.9144 H   0  0  0  0  0  0  0  0  0  0  0  0
    0.6016   -3.1244    0.3390 C   0  0  0  0  0  0  0  0  0  0  0  0
    1.0323   -3.0000    1.3493 H   0  0  0  0  0  0  0  0  0  0  0  0
    0.2587   -4.1731    0.2289 H   0  0  0  0  0  0  0  0  0  0  0  0
   -0.2723   -2.4487    0.2767 H   0  0  0  0  0  0  0  0  0  0  0  0
    3.3930   -2.4185    1.4941 H   0  0  0  0  0  0  0  0  0  0  0  0
    2.2739   -1.3416    2.2095 H   0  0  0  0  0  0  0  0  0  0  0  0
  1  5  2  0  0  0  0
  2  1  1  0  0  0  0
  2 19  1  0  0  0  0
  3  4  1  0  0  0  0
  4 34  1  0  0  0  0
  5  3  1  0  0  0  0
  5  6  1  0  0  0  0
  6 15  1  0  0  0  0
  6 11  1  0  0  0  0
  7 10  1  0  0  0  0
  7  6  1  0  0  0  0
  8  7  1  0  0  0  0
  9  7  1  0  0  0  0
 11 14  1  0  0  0  0
 11 13  1  0  0  0  0
 12 11  1  0  0  0  0
 15 18  1  0  0  0  0
 15 16  1  0  0  0  0
 17 15  1  0  0  0  0
 19 20  1  6  0  0  0
 19  3  1  0  0  0  0
 20 25  1  0  0  0  0
 20 29  1  0  0  0  0
 21 20  1  0  0  0  0
 22 21  1  0  0  0  0
 23 21  1  0  0  0  0
 24 21  1  0  0  0  0
 25 26  1  0  0  0  0
 27 25  1  0  0  0  0
 28 25  1  0  0  0  0
 29 30  1  0  0  0  0
 31 29  1  0  0  0  0
 32 29  1  0  0  0  0
 33  4  1  0  0  0  0
M  END
