5
q = -1.0, confidence = 0.236

 42 49  0  0  1  0  0  0  0  0999 V2000
   -1.4928   -1.7642   -0.6778 S   0  0  0  0  0  0  0  0  0  0  0  0
   -1.9792    0.7696   -2.0928 O   0  0  0  0  0  0  0  0  0  0  0  0
   -1.0513   -2.5946    0.4749 O   0  0  0  0  0  0  0  0  0  0  0  0
   -1.5323   -2.3946   -2.0275 O   0  0  0  0  0  0  0  0  0  0  0  0
   -0.5493   -0.3668   -0.6451 N   0  0  0  0  0  2  0  0  0  0  0  0
   -0.2954    1.9991   -0.8411 C   0  0  2  0  0  0  0  0  0  0  0  0
   -1.0365    0.7547   -1.3042 C   0  0  0  0  0  0  0  0  0  0  0  0
   -3.1547   -1.1997   -0.2708 C   0  0  0  0  0  0  0  0  0  0  0  0
   -3.4508   -0.9001    1.0663 C   0  0  0  0  0  0  0  0  0  0  0  0
   -2.6725   -1.0276    1.8323 H   0  0  0  0  0  0  0  0  0  0  0  0
   -4.7345   -0.4453    1.3923 C   0  0  0  0  0  0  0  0  0  0  0  0
   -4.9746   -0.2010    2.4397 H   0  0  0  0  0  0  0  0  0  0  0  0
   -5.7259   -0.2891    0.4005 C   0  0  0  0  0  0  0  0  0  0  0  0
   -5.3969   -0.6094   -0.9329 C   0  0  0  0  0  0  0  0  0  0  0  0
   -6.1586   -0.4897   -1.7202 H   0  0  0  0  0  0  0  0  0  0  0  0
   -4.1146   -1.0541   -1.2786 C   0  0  0  0  0  0  0  0  0  0  0  0
   -3.8331   -1.2788   -2.3158 H   0  0  0  0  0  0  0  0  0  0  0  0
   -7.0895    0.2512    0.7522 C   0  0  0  0  0  0  0  0  0  0  0  0
   -7.3912   -0.0325    1.7806 H   0  0  0  0  0  0  0  0  0  0  0  0
   -7.8672   -0.1100    0.0499 H   0  0  0  0  0  0  0  0  0  0  0  0
   -7.0975    1.3620    0.7051 H   0  0  0  0  0  0  0  0  0  0  0  0
    1.0688    1.6029    0.1225 B   0  0  0  0  0  0  0  0  0  0  0  0
    1.2395    2.3301   -1.4938 B   0  0  2  0  0  0  0  0  0  0  0  0
    1.6185    1.6555   -2.4231 H   0  0  0  0  0  0  0  0  0  0  0  0
    2.1857    2.9669   -0.1246 B   0  0  2  0  0  0  0  0  0  0  0  0
    3.3889    2.8371   -0.0426 H   0  0  0  0  0  0  0  0  0  0  0  0
    1.1411    2.9277    1.3232 B   0  0  1  0  0  0  0  0  0  0  0  0
    1.5855    2.7393    2.4419 H   0  0  0  0  0  0  0  0  0  0  0  0
   -0.4349    2.2880    0.8339 B   0  0  1  0  0  0  0  0  0  0  0  0
   -1.1899    1.5883    1.4693 H   0  0  0  0  0  0  0  0  0  0  0  0
   -1.1795    3.3884   -0.3515 B   0  0  1  0  0  0  0  0  0  0  0  0
   -2.3824    3.3858   -0.4747 H   0  0  0  0  0  0  0  0  0  0  0  0
   -0.1427    3.4146   -1.7931 B   0  0  1  0  0  0  0  0  0  0  0  0
   -0.6400    3.4393   -2.8946 H   0  0  0  0  0  0  0  0  0  0  0  0
    1.4444    4.0826   -1.3213 B   0  0  2  0  0  0  0  0  0  0  0  0
    2.1193    4.7048   -2.1179 H   0  0  0  0  0  0  0  0  0  0  0  0
    1.3792    4.4613    0.4260 B   0  0  1  0  0  0  0  0  0  0  0  0
    2.0164    5.3826    0.9007 H   0  0  0  0  0  0  0  0  0  0  0  0
   -0.2457    4.0331    1.0242 B   0  0  2  0  0  0  0  0  0  0  0  0
   -0.8066    4.6170    1.9323 H   0  0  0  0  0  0  0  0  0  0  0  0
   -0.0558    4.7406   -0.6081 B   0  0  2  0  0  0  0  0  0  0  0  0
   -0.4666    5.8504   -0.8830 H   0  0  0  0  0  0  0  0  0  0  0  0
  1  5  1  0  0  0  0
  1  8  1  0  0  0  0
  1  3  2  0  0  0  0
  2  7  2  0  0  0  0
  4  1  2  0  0  0  0
  6  7  1  6  0  0  0
  6 29  1  0  0  0  0
  7  5  1  0  0  0  0
  8  9  1  0  0  0  0
  9 11  2  0  0  0  0
  9 10  1  0  0  0  0
 11 12  1  0  0  0  0
 13 18  1  0  0  0  0
 13 11  1  0  0  0  0
 14 13  2  0  0  0  0
 15 14  1  0  0  0  0
 16 14  1  0  0  0  0
 16  8  2  0  0  0  0
 17 16  1  0  0  0  0
 18 19  1  0  0  0  0
 20 18  1  0  0  0  0
 21 18  1  0  0  0  0
 22 27  1  0  0  0  0
 23 24  1  6  0  0  0
 23 35  1  0  0  0  0
 23  6  1  0  0  0  0
 23 22  1  0  0  0  0
 25 26  1  1  0  0  0
 25 22  1  0  0  0  0
 25 37  1  0  0  0  0
 25 27  1  0  0  0  0
 27 28  1  1  0  0  0
 29 39  1  0  0  0  0
 29 27  1  0  0  0  0
 29 30  1  1  0  0  0
 31 32  1  6  0  0  0
 31 39  1  0  0  0  0
 33 34  1  6  0  0  0
 33  6  1  0  0  0  0
 33 41  1  0  0  0  0
 33 31  1  0  0  0  0
 35 36  1  6  0  0  0
 35 41  1  0  0  0  0
 35 37  1  0  0  0  0
 37 38  1  1  0  0  0
 37 39  1  0  0  0  0
 39 40  1  1  0  0  0
 41 42  1  6  0  0  0
 41 31  1  0  0  0  0
M  END
