1
q = 0.0, confidence = 0.998

 49 53  0  0  1  0  0  0  0  0999 V2000
   -2.4051   -1.8616   -0.7730 N   0  0  0  0  0  2  0  0  0  0  0  0
    1.2615   -0.8233    2.1534 N   0  0  0  0  0  0  0  0  0  0  0  0
   -0.9896    2.6701    0.1189 N   0  0  0  0  0  0  0  0  0  0  0  0
   -2.7931    0.7711   -0.8944 O   0  0  0  0  0  0  0  0  0  0  0  0
    1.3176    1.7818    1.4316 O   0  0  0  0  0  0  0  0  0  0  0  0
   -2.2505   -3.1821   -0.8625 C   0  0  0  0  0  0  0  0  0  0  0  0
   -1.3018   -3.5222   -1.3140 H   0  0  0  0  0  0  0  0  0  0  0  0
   -3.2186   -4.0942   -0.3792 C   0  0  0  0  0  0  0  0  0  0  0  0
   -3.0486   -5.1744   -0.4891 H   0  0  0  0  0  0  0  0  0  0  0  0
   -4.3464   -3.5992    0.2589 C   0  0  0  0  0  0  0  0  0  0  0  0
   -5.1002   -4.2802    0.6837 H   0  0  0  0  0  0  0  0  0  0  0  0
   -4.5430   -2.1937    0.3728 C   0  0  0  0  0  0  0  0  0  0  0  0
   -5.6712   -1.6063    1.0152 C   0  0  0  0  0  0  0  0  0  0  0  0
   -6.4339   -2.2589    1.4642 H   0  0  0  0  0  0  0  0  0  0  0  0
   -5.7882   -0.2269    1.0689 C   0  0  0  0  0  0  0  0  0  0  0  0
   -6.6472    0.2324    1.5802 H   0  0  0  0  0  0  0  0  0  0  0  0
   -4.8250    0.6225    0.4622 C   0  0  0  0  0  0  0  0  0  0  0  0
   -4.9555    1.7115    0.5206 H   0  0  0  0  0  0  0  0  0  0  0  0
   -3.7268    0.0782   -0.1965 C   0  0  0  0  0  0  0  0  0  0  0  0
   -3.5376   -1.3477   -0.2062 C   0  0  2  0  0  3  0  0  0  0  0  0
    1.2125   -2.1089    2.4857 C   0  0  0  0  0  0  0  0  0  0  0  0
    0.2175   -2.5042    2.7559 H   0  0  0  0  0  0  0  0  0  0  0  0
    2.3434   -2.9586    2.4709 C   0  0  0  0  0  0  0  0  0  0  0  0
    2.2376   -4.0197    2.7380 H   0  0  0  0  0  0  0  0  0  0  0  0
    3.5630   -2.4301    2.0781 C   0  0  0  0  0  0  0  0  0  0  0  0
    4.4620   -3.0606    2.0072 H   0  0  0  0  0  0  0  0  0  0  0  0
    3.6623   -1.0555    1.7312 C   0  0  0  0  0  0  0  0  0  0  0  0
    4.8814   -0.4543    1.3091 C   0  0  0  0  0  0  0  0  0  0  0  0
    5.7854   -1.0746    1.2366 H   0  0  0  0  0  0  0  0  0  0  0  0
    4.8939    0.8785    0.9420 C   0  0  0  0  0  0  0  0  0  0  0  0
    5.8201    1.3458    0.5781 H   0  0  0  0  0  0  0  0  0  0  0  0
    3.7119    1.6630    0.9787 C   0  0  0  0  0  0  0  0  0  0  0  0
    3.7678    2.7043    0.6395 H   0  0  0  0  0  0  0  0  0  0  0  0
    2.5025    1.1053    1.3830 C   0  0  0  0  0  0  0  0  0  0  0  0
    2.4529   -0.2769    1.7786 C   0  0  0  0  0  0  0  0  0  0  0  0
   -2.9732    2.1479   -1.1970 C   0  0  0  0  0  0  0  0  0  0  0  0
   -4.0490    2.4157   -1.2319 H   0  0  0  0  0  0  0  0  0  0  0  0
   -2.5673    2.2628   -2.2256 H   0  0  0  0  0  0  0  0  0  0  0  0
   -2.1877    3.0983   -0.3110 C   0  0  0  0  0  0  0  0  0  0  0  0
   -2.6231    4.4225   -0.1271 C   0  0  0  0  0  0  0  0  0  0  0  0
   -3.6168    4.7401   -0.4774 H   0  0  0  0  0  0  0  0  0  0  0  0
   -1.7537    5.3274    0.4982 C   0  0  0  0  0  0  0  0  0  0  0  0
   -2.0652    6.3677    0.6758 H   0  0  0  0  0  0  0  0  0  0  0  0
   -0.4754    4.8951    0.8740 C   0  0  0  0  0  0  0  0  0  0  0  0
    0.2470    5.5885    1.3289 H   0  0  0  0  0  0  0  0  0  0  0  0
   -0.1243    3.5496    0.6560 C   0  0  0  0  0  0  0  0  0  0  0  0
    1.2940    3.0728    0.8535 C   0  0  0  0  0  0  0  0  0  0  0  0
    1.7578    3.0307   -0.1627 H   0  0  0  0  0  0  0  0  0  0  0  0
    1.8675    3.8007    1.4710 H   0  0  0  0  0  0  0  0  0  0  0  0
  2 21  1  0  0  0  0
  3 46  1  0  0  0  0
  4 19  1  0  0  0  0
  6  1  1  0  0  0  0
  6  8  2  0  0  0  0
  7  6  1  0  0  0  0
  8 10  1  0  0  0  0
  9  8  1  0  0  0  0
 10 12  2  0  0  0  0
 10 11  1  0  0  0  0
 12 13  1  0  0  0  0
 13 15  2  0  0  0  0
 13 14  1  0  0  0  0
 15 16  1  0  0  0  0
 17 18  1  0  0  0  0
 17 15  1  0  0  0  0
 19 17  2  0  0  0  0
 20  1  1  6  0  0  0
 20 19  1  0  0  0  0
 20 12  1  0  0  0  0
 21 22  1  0  0  0  0
 23 21  2  0  0  0  0
 23 24  1  0  0  0  0
 25 23  1  0  0  0  0
 26 25  1  0  0  0  0
 27 35  1  0  0  0  0
 27 25  2  0  0  0  0
 28 27  1  0  0  0  0
 29 28  1  0  0  0  0
 30 32  1  0  0  0  0
 30 28  2  0  0  0  0
 31 30  1  0  0  0  0
 32 34  2  0  0  0  0
 33 32  1  0  0  0  0
 34  5  1  0  0  0  0
 34 35  1  0  0  0  0
 35  2  2  0  0  0  0
 36  4  1  0  0  0  0
 36 39  1  0  0  0  0
 37 36  1  0  0  0  0
 38 36  1  0  0  0  0
 39 40  1  0  0  0  0
 39  3  2  0  0  0  0
 40 42  2  0  0  0  0
 41 40  1  0  0  0  0
 42 43  1  0  0  0  0
 42 44  1  0  0  0  0
 44 45  1  0  0  0  0
 46 47  1  0  0  0  0
 46 44  2  0  0  0  0
 47  5  1  0  0  0  0
 47 49  1  0  0  0  0
 48 47  1  0  0  0  0
M  END
