5
q = 0.0, confidence = 0.98

 13 13  0  0  0  0  0  0  0  0999 V2000
   -3.2308    1.7475    0.5129 O   0  0  0  0  0  0  0  0  0  0  0  0
   -1.0630    2.2183   -0.1100 N   0  0  0  0  0  0  0  0  0  0  0  0
   -1.2597    3.2109    0.0255 H   0  0  0  0  0  0  0  0  0  0  0  0
   -0.1402    1.9040   -0.5668 H   0  0  0  0  0  0  0  0  0  0  0  0
   -0.6027   -0.6786   -0.2873 N   0  0  0  0  0  2  0  0  0  0  0  0
   -2.1533   -2.2477   -0.2311 N   0  0  0  0  0  0  0  0  0  0  0  0
   -2.5807   -3.1723   -0.2528 H   0  0  0  0  0  0  0  0  0  0  0  0
   -2.0988    1.3899    0.1455 C   0  0  0  0  0  0  0  0  0  0  0  0
   -1.8248   -0.0726   -0.0516 C   0  0  0  0  0  0  0  0  0  0  0  0
   -0.8200   -1.9820   -0.3886 C   0  0  0  0  0  3  0  0  0  0  0  0
   -0.0241   -2.7160   -0.5648 H   0  0  0  0  0  0  0  0  0  0  0  0
   -2.8070   -1.0511   -0.0129 C   0  0  0  0  0  0  0  0  0  0  0  0
   -3.8843   -0.9603    0.1482 H   0  0  0  0  0  0  0  0  0  0  0  0
  2  3  1  0  0  0  0
  2  8  1  0  0  0  0
  4  2  1  0  0  0  0
  5  9  1  0  0  0  0
  6 12  1  0  0  0  0
  7  6  1  0  0  0  0
  8  1  2  0  0  0  0
  9 12  2  0  0  0  0
  9  8  1  0  0  0  0
 10  5  1  0  0  0  0
 10  6  1  0  0  0  0
 11 10  1  0  0  0  0
 12 13  1  0  0  0  0
M  END
