2
q = -1.0, confidence = 0.01

 44 49  0  0  0  0  0  0  0  0999 V2000
    1.0118    0.6229    1.4919 N   0  0  0  0  0  0  0  0  0  0  0  0
   -1.3769    0.3340    1.7672 N   0  0  0  0  0  2  0  0  0  0  0  0
    1.5198    1.0379   -0.9475 N   0  0  0  0  0  0  0  0  0  0  0  0
   -0.0055    2.7755   -0.2234 N   0  0  0  0  0  0  0  0  0  0  0  0
    2.2059   -1.1842    0.0387 N   0  0  0  0  0  0  0  0  0  0  0  0
    4.2771   -0.0408    0.5724 N   0  0  0  0  0  0  0  0  0  0  0  0
    1.9791    1.3517    2.1808 C   0  0  0  0  0  0  0  0  0  0  0  0
    1.4289    2.0032    3.2706 C   0  0  0  0  0  0  0  0  0  0  0  0
   -1.0845    2.0107    4.0605 C   0  0  0  0  0  0  0  0  0  0  0  0
   -2.3262    1.4760    3.6874 C   0  0  0  0  0  0  0  0  0  0  0  0
   -2.4325    0.6502    2.5561 C   0  0  0  0  0  3  0  0  0  0  0  0
   -0.1772    0.8321    2.1309 C   0  0  0  0  0  0  0  0  0  0  0  0
    0.0307    1.6896    3.2708 C   0  0  0  0  0  0  0  0  0  0  0  0
    2.3676    0.8983   -2.0402 C   0  0  0  0  0  0  0  0  0  0  0  0
    2.3575    2.0318   -2.8359 C   0  0  0  0  0  0  0  0  0  0  0  0
    0.9292    4.2303   -2.5098 C   0  0  0  0  0  0  0  0  0  0  0  0
   -0.0358    4.7562   -1.6400 C   0  0  0  0  0  0  0  0  0  0  0  0
   -0.4668    3.9993   -0.5251 C   0  0  0  0  0  0  0  0  0  0  0  0
    0.9270    2.2913   -1.0497 C   0  0  0  0  0  0  0  0  0  0  0  0
    1.4385    2.9493   -2.2245 C   0  0  0  0  0  0  0  0  0  0  0  0
    1.9047   -2.4835   -0.3537 C   0  0  0  0  0  0  0  0  0  0  0  0
    3.0404   -3.2728   -0.4224 C   0  0  0  0  0  0  0  0  0  0  0  0
    5.5374   -2.5624    0.0665 C   0  0  0  0  0  0  0  0  0  0  0  0
    6.2706   -1.4296    0.4390 C   0  0  0  0  0  0  0  0  0  0  0  0
    5.6042   -0.2046    0.6765 C   0  0  0  0  0  0  0  0  0  0  0  0
    3.5833   -1.1294    0.2196 C   0  0  0  0  0  0  0  0  0  0  0  0
    4.1403   -2.4283   -0.0593 C   0  0  0  0  0  0  0  0  0  0  0  0
    1.2198   -0.0128    0.1128 B   0  0  0  0  0  0  0  0  0  0  0  0
    3.0107    1.3130    1.8049 H   0  0  0  0  0  0  0  0  0  0  0  0
    1.9669    2.6293    3.9902 H   0  0  0  0  0  0  0  0  0  0  0  0
   -0.9891    2.6596    4.9441 H   0  0  0  0  0  0  0  0  0  0  0  0
   -3.2324    1.6828    4.2738 H   0  0  0  0  0  0  0  0  0  0  0  0
   -3.3909    0.1974    2.2730 H   0  0  0  0  0  0  0  0  0  0  0  0
    2.9474   -0.0230   -2.1595 H   0  0  0  0  0  0  0  0  0  0  0  0
    2.9486    2.1853   -3.7454 H   0  0  0  0  0  0  0  0  0  0  0  0
    1.2699    4.7968   -3.3905 H   0  0  0  0  0  0  0  0  0  0  0  0
   -0.4666    5.7531   -1.8156 H   0  0  0  0  0  0  0  0  0  0  0  0
   -1.2302    4.4117    0.1581 H   0  0  0  0  0  0  0  0  0  0  0  0
    0.8614   -2.7451   -0.5605 H   0  0  0  0  0  0  0  0  0  0  0  0
    3.0736   -4.3327   -0.6974 H   0  0  0  0  0  0  0  0  0  0  0  0
    6.0361   -3.5252   -0.1256 H   0  0  0  0  0  0  0  0  0  0  0  0
    7.3640   -1.4787    0.5493 H   0  0  0  0  0  0  0  0  0  0  0  0
    6.1837    0.6887    0.9675 H   0  0  0  0  0  0  0  0  0  0  0  0
    0.1062   -0.6001   -0.2766 H   0  0  0  0  0  0  0  0  0  0  0  0
  1 12  1  0  0  0  0
  1  7  1  0  0  0  0
  2 12  1  0  0  0  0
  2 11  1  0  0  0  0
  3 28  1  0  0  0  0
  5 28  1  0  0  0  0
  5 26  1  0  0  0  0
  6 25  1  0  0  0  0
  7  8  2  0  0  0  0
  8 13  1  0  0  0  0
  8 30  1  0  0  0  0
  9 31  1  0  0  0  0
 10  9  2  0  0  0  0
 10 32  1  0  0  0  0
 11 10  1  0  0  0  0
 12 13  2  0  0  0  0
 13  9  1  0  0  0  0
 14  3  1  0  0  0  0
 15 20  1  0  0  0  0
 15 14  2  0  0  0  0
 16 20  2  0  0  0  0
 16 17  1  0  0  0  0
 17 18  2  0  0  0  0
 18  4  1  0  0  0  0
 18 38  1  0  0  0  0
 19  3  1  0  0  0  0
 19  4  2  0  0  0  0
 20 19  1  0  0  0  0
 21  5  1  0  0  0  0
 22 21  2  0  0  0  0
 22 27  1  0  0  0  0
 23 24  1  0  0  0  0
 24 42  1  0  0  0  0
 24 25  2  0  0  0  0
 25 43  1  0  0  0  0
 26  6  2  0  0  0  0
 27 23  2  0  0  0  0
 27 26  1  0  0  0  0
 28  1  1  0  0  0  0
 29  7  1  0  0  0  0
 33 11  1  0  0  0  0
 34 14  1  0  0  0  0
 35 15  1  0  0  0  0
 36 16  1  0  0  0  0
 37 17  1  0  0  0  0
 39 21  1  0  0  0  0
 40 22  1  0  0  0  0
 41 23  1  0  0  0  0
 44 28  1  0  0  0  0
M  END
