4
q = -1.0, confidence = 0.002

 42 45  0  0  1  0  0  0  0  0999 V2000
   -0.2330    0.1335   -0.9958 P   0  0  1  0  0  0  0  0  0  0  0  0
    0.0220    0.2225   -2.6346 O   0  0  0  0  0  0  0  0  0  0  0  0
    1.0137    0.1982   -2.7698 H   0  0  0  0  0  0  0  0  0  0  0  0
    1.2440   -2.1704   -0.6232 N   0  0  0  0  0  2  0  0  0  0  0  0
   -1.4727    1.3603   -0.6203 C   0  0  2  0  0  3  0  0  0  0  0  0
   -2.7660    0.9289   -0.3117 C   0  0  0  0  0  0  0  0  0  0  0  0
   -3.5186    1.7269   -0.1995 H   0  0  0  0  0  0  0  0  0  0  0  0
   -3.2592   -0.4014   -0.1732 C   0  0  0  0  0  0  0  0  0  0  0  0
   -2.3981   -1.5083   -0.3142 C   0  0  0  0  0  0  0  0  0  0  0  0
   -2.8140   -2.5069   -0.0959 H   0  0  0  0  0  0  0  0  0  0  0  0
   -1.0332   -1.4174   -0.6151 C   0  0  0  0  0  0  0  0  0  0  0  0
   -0.0947   -2.5128   -0.6908 C   0  0  1  0  0  3  0  0  0  0  0  0
   -0.4396   -3.8775   -0.8757 C   0  0  0  0  0  0  0  0  0  0  0  0
   -1.5022   -4.1517   -0.9291 H   0  0  0  0  0  0  0  0  0  0  0  0
    0.5546   -4.8386   -1.0362 C   0  0  0  0  0  0  0  0  0  0  0  0
    0.2811   -5.8940   -1.1874 H   0  0  0  0  0  0  0  0  0  0  0  0
    1.9089   -4.4444   -1.0445 C   0  0  0  0  0  0  0  0  0  0  0  0
    2.7224   -5.1638   -1.2088 H   0  0  0  0  0  0  0  0  0  0  0  0
    2.2017   -3.0955   -0.8423 C   0  0  0  0  0  0  0  0  0  0  0  0
    3.2335   -2.7136   -0.8479 H   0  0  0  0  0  0  0  0  0  0  0  0
   -1.0956    2.7877   -0.6710 C   0  0  0  0  0  0  0  0  0  0  0  0
    0.0817    3.2114   -1.3404 C   0  0  0  0  0  0  0  0  0  0  0  0
    0.6949    2.4749   -1.8791 H   0  0  0  0  0  0  0  0  0  0  0  0
    0.4740    4.5567   -1.3413 C   0  0  0  0  0  0  0  0  0  0  0  0
    1.3932    4.8481   -1.8725 H   0  0  0  0  0  0  0  0  0  0  0  0
   -0.2989    5.5267   -0.6832 C   0  0  0  0  0  0  0  0  0  0  0  0
    0.0088    6.5832   -0.6854 H   0  0  0  0  0  0  0  0  0  0  0  0
   -1.4739    5.1281   -0.0229 C   0  0  0  0  0  0  0  0  0  0  0  0
   -2.0895    5.8733    0.5043 H   0  0  0  0  0  0  0  0  0  0  0  0
   -1.8624    3.7834   -0.0131 C   0  0  0  0  0  0  0  0  0  0  0  0
   -2.7644    3.4938    0.5462 H   0  0  0  0  0  0  0  0  0  0  0  0
   -4.6883   -0.6176    0.1580 C   0  0  0  0  0  0  0  0  0  0  0  0
   -5.3935   -1.7401   -0.3415 C   0  0  0  0  0  0  0  0  0  0  0  0
   -4.8805   -2.4367   -1.0221 H   0  0  0  0  0  0  0  0  0  0  0  0
   -6.7398   -1.9573   -0.0200 C   0  0  0  0  0  0  0  0  0  0  0  0
   -7.2617   -2.8352   -0.4317 H   0  0  0  0  0  0  0  0  0  0  0  0
   -7.4290   -1.0523    0.8032 C   0  0  0  0  0  0  0  0  0  0  0  0
   -8.4881   -1.2191    1.0511 H   0  0  0  0  0  0  0  0  0  0  0  0
   -6.7498    0.0705    1.3031 C   0  0  0  0  0  0  0  0  0  0  0  0
   -7.2733    0.7852    1.9570 H   0  0  0  0  0  0  0  0  0  0  0  0
   -5.4008    0.2815    0.9890 C   0  0  0  0  0  0  0  0  0  0  0  0
   -4.8770    1.1484    1.4201 H   0  0  0  0  0  0  0  0  0  0  0  0
  1  2  1  6  0  0  0
  1  5  1  0  0  0  0
  1 11  1  0  0  0  0
  3  2  1  0  0  0  0
  5 21  1  6  0  0  0
  5  6  1  0  0  0  0
  6  7  1  0  0  0  0
  6  8  2  0  0  0  0
  8 32  1  0  0  0  0
  9  8  1  0  0  0  0
  9 10  1  0  0  0  0
 11  9  2  0  0  0  0
 12  4  1  0  0  0  0
 12 11  1  6  0  0  0
 13 12  1  0  0  0  0
 14 13  1  0  0  0  0
 15 13  2  0  0  0  0
 16 15  1  0  0  0  0
 17 15  1  0  0  0  0
 17 19  2  0  0  0  0
 18 17  1  0  0  0  0
 19  4  1  0  0  0  0
 20 19  1  0  0  0  0
 21 30  1  0  0  0  0
 22 21  2  0  0  0  0
 23 22  1  0  0  0  0
 24 22  1  0  0  0  0
 24 26  2  0  0  0  0
 25 24  1  0  0  0  0
 26 28  1  0  0  0  0
 27 26  1  0  0  0  0
 28 30  2  0  0  0  0
 28 29  1  0  0  0  0
 30 31  1  0  0  0  0
 32 41  1  0  0  0  0
 33 35  1  0  0  0  0
 33 32  2  0  0  0  0
 34 33  1  0  0  0  0
 35 37  2  0  0  0  0
 36 35  1  0  0  0  0
 37 38  1  0  0  0  0
 37 39  1  0  0  0  0
 39 40  1  0  0  0  0
 41 39  2  0  0  0  0
 41 42  1  0  0  0  0
M  END
