2
q = -1.0

 27 27  0  0  0  0  0  0  0  0999 V2000
   -1.9582   -0.1310    0.5835 N   0  0  0  0  0  0  0  0  0  0  0  0
   -0.8542   -0.7013   -1.2400 N   0  0  0  0  0  2  0  0  0  0  0  0
   -2.0108   -0.9087   -0.5147 C   0  0  0  0  0  0  0  0  0  0  0  0
   -2.9784   -1.8248   -1.0369 C   0  0  0  0  0  0  0  0  0  0  0  0
   -2.7399   -2.4801   -2.2490 C   0  0  0  0  0  0  0  0  0  0  0  0
   -1.5373   -2.2163   -2.9550 C   0  0  0  0  0  0  0  0  0  0  0  0
   -0.6268   -1.3121   -2.4096 C   0  0  0  0  0  0  0  0  0  0  0  0
   -3.7437   -3.4550   -2.8091 C   0  0  0  0  0  0  0  0  0  0  0  0
   -3.0254   -0.1284    1.6024 C   0  0  0  0  0  0  0  0  0  0  0  0
   -2.6555    0.8041    2.7644 C   0  0  0  0  0  0  0  0  0  0  0  0
   -3.2058   -1.5469    2.2007 C   0  0  0  0  0  0  0  0  0  0  0  0
   -4.3646    0.3720    1.0080 C   0  0  0  0  0  0  0  0  0  0  0  0
   -4.2562    1.4089    0.6336 H   0  0  0  0  0  0  0  0  0  0  0  0
    0.3219   -1.0664   -2.9082 H   0  0  0  0  0  0  0  0  0  0  0  0
   -3.4478    0.7641    3.5375 H   0  0  0  0  0  0  0  0  0  0  0  0
   -3.4859   -2.3001    1.4422 H   0  0  0  0  0  0  0  0  0  0  0  0
   -2.2645   -1.8911    2.6712 H   0  0  0  0  0  0  0  0  0  0  0  0
   -3.9153   -2.0189   -0.5024 H   0  0  0  0  0  0  0  0  0  0  0  0
   -2.5590    1.8511    2.4298 H   0  0  0  0  0  0  0  0  0  0  0  0
   -1.3178   -2.7114   -3.9112 H   0  0  0  0  0  0  0  0  0  0  0  0
   -4.7104   -0.2505    0.1620 H   0  0  0  0  0  0  0  0  0  0  0  0
   -1.7020    0.5025    3.2379 H   0  0  0  0  0  0  0  0  0  0  0  0
   -4.6488   -3.5264   -2.1759 H   0  0  0  0  0  0  0  0  0  0  0  0
   -5.1600    0.3679    1.7808 H   0  0  0  0  0  0  0  0  0  0  0  0
   -3.9976   -1.5367    2.9769 H   0  0  0  0  0  0  0  0  0  0  0  0
   -4.0595   -3.1591   -3.8313 H   0  0  0  0  0  0  0  0  0  0  0  0
   -3.3038   -4.4710   -2.8942 H   0  0  0  0  0  0  0  0  0  0  0  0
  1  9  1  0  0  0  0
  2  3  1  0  0  0  0
  3  1  2  0  0  0  0
  4  3  1  0  0  0  0
  4 18  1  0  0  0  0
  5  4  2  0  0  0  0
  6  7  2  0  0  0  0
  6  5  1  0  0  0  0
  7  2  1  0  0  0  0
  8  5  1  0  0  0  0
  8 23  1  0  0  0  0
  9 11  1  0  0  0  0
  9 10  1  0  0  0  0
 10 22  1  0  0  0  0
 10 15  1  0  0  0  0
 11 17  1  0  0  0  0
 11 25  1  0  0  0  0
 12  9  1  0  0  0  0
 12 24  1  0  0  0  0
 13 12  1  0  0  0  0
 14  7  1  0  0  0  0
 16 11  1  0  0  0  0
 19 10  1  0  0  0  0
 20  6  1  0  0  0  0
 21 12  1  0  0  0  0
 26  8  1  0  0  0  0
 27  8  1  0  0  0  0
M  END
