3
q = 0.0, confidence = 0.992

 33 34  0  0  0  0  0  0  0  0999 V2000
   -0.4406    3.0974   -0.5283 N   0  0  0  0  0  0  0  0  0  0  0  0
   -0.1818    4.0468   -0.8022 H   0  0  0  0  0  0  0  0  0  0  0  0
   -3.6021    1.2216   -0.6726 N   0  0  0  0  0  2  0  0  0  0  0  0
   -1.6624    2.5933   -1.0257 C   0  0  0  0  0  0  0  0  0  0  0  0
    0.3933    1.0463    0.1013 O   0  0  0  0  0  0  0  0  0  0  0  0
    0.5342    2.2728    0.0291 C   0  0  0  0  0  0  0  0  0  0  0  0
   -2.4695    1.7736   -0.2147 C   0  0  0  0  0  3  0  0  0  0  0  0
   -2.2334    1.5728    0.8440 H   0  0  0  0  0  0  0  0  0  0  0  0
    1.6583    2.9250    0.4829 N   0  0  0  0  0  0  0  0  0  0  0  0
    1.7530    3.9263    0.3018 H   0  0  0  0  0  0  0  0  0  0  0  0
    2.8120    2.2282    0.9602 C   0  0  0  0  0  0  0  0  0  0  0  0
   -4.0334    1.4809   -1.9210 C   0  0  0  0  0  0  0  0  0  0  0  0
   -4.9777    0.9827   -2.2032 H   0  0  0  0  0  0  0  0  0  0  0  0
    4.1120    3.2797   -0.9605 C   0  0  0  0  0  0  0  0  0  0  0  0
    4.1300    4.3545   -0.6725 H   0  0  0  0  0  0  0  0  0  0  0  0
    3.2496    3.1394   -1.6429 H   0  0  0  0  0  0  0  0  0  0  0  0
    5.0357    3.0825   -1.5363 H   0  0  0  0  0  0  0  0  0  0  0  0
   -2.1132    2.8908   -2.3249 C   0  0  0  0  0  0  0  0  0  0  0  0
   -1.5132    3.5370   -2.9848 H   0  0  0  0  0  0  0  0  0  0  0  0
   -3.3233    2.3399   -2.7699 C   0  0  0  0  0  0  0  0  0  0  0  0
   -3.7035    2.5581   -3.7781 H   0  0  0  0  0  0  0  0  0  0  0  0
    2.7243    1.4208    2.1228 C   0  0  0  0  0  0  0  0  0  0  0  0
    4.0288    2.3783    0.2451 C   0  0  0  0  0  0  0  0  0  0  0  0
    5.0804    0.8294    1.8088 C   0  0  0  0  0  0  0  0  0  0  0  0
    5.9642    0.2572    2.1258 H   0  0  0  0  0  0  0  0  0  0  0  0
    5.1564    1.6669    0.6889 C   0  0  0  0  0  0  0  0  0  0  0  0
    6.0977    1.7489    0.1256 H   0  0  0  0  0  0  0  0  0  0  0  0
    3.8798    0.7186    2.5189 C   0  0  0  0  0  0  0  0  0  0  0  0
    3.8274    0.0774    3.4124 H   0  0  0  0  0  0  0  0  0  0  0  0
    1.4568    1.3032    2.9261 C   0  0  0  0  0  0  0  0  0  0  0  0
    0.8238    0.4685    2.5613 H   0  0  0  0  0  0  0  0  0  0  0  0
    0.8409    2.2210    2.8627 H   0  0  0  0  0  0  0  0  0  0  0  0
    1.6844    1.1061    3.9910 H   0  0  0  0  0  0  0  0  0  0  0  0
  1  6  1  0  0  0  0
  2  1  1  0  0  0  0
  3  7  1  0  0  0  0
  4  1  1  0  0  0  0
  4  7  1  0  0  0  0
  6  5  2  0  0  0  0
  6  9  1  0  0  0  0
  7  8  1  0  0  0  0
  9 11  1  0  0  0  0
 10  9  1  0  0  0  0
 11 22  1  0  0  0  0
 12  3  1  0  0  0  0
 13 12  1  0  0  0  0
 14 15  1  0  0  0  0
 14 23  1  0  0  0  0
 16 14  1  0  0  0  0
 17 14  1  0  0  0  0
 18  4  2  0  0  0  0
 19 18  1  0  0  0  0
 20 18  1  0  0  0  0
 20 12  2  0  0  0  0
 21 20  1  0  0  0  0
 22 28  2  0  0  0  0
 22 30  1  0  0  0  0
 23 26  1  0  0  0  0
 23 11  2  0  0  0  0
 24 25  1  0  0  0  0
 24 28  1  0  0  0  0
 26 24  2  0  0  0  0
 27 26  1  0  0  0  0
 28 29  1  0  0  0  0
 30 33  1  0  0  0  0
 31 30  1  0  0  0  0
 32 30  1  0  0  0  0
M  END
