3
q = 0.0, confidence = 1.0

 16 16  0  0  1  0  0  0  0  0999 V2000
   -4.4863   -1.8745    0.2369 O   0  0  0  0  0  0  0  0  0  0  0  0
   -4.3905   -1.8325    1.2073 H   0  0  0  0  0  0  0  0  0  0  0  0
   -1.2475    0.6024   -0.0602 N   0  0  0  0  0  2  0  0  0  0  0  0
   -2.2590   -0.2888   -0.1454 N   0  0  0  0  0  0  0  0  0  0  0  0
   -1.8348    1.8215    0.0087 C   0  0  1  0  0  3  0  0  0  0  0  0
   -3.2460    1.6700   -0.0211 C   0  0  0  0  0  0  0  0  0  0  0  0
   -3.9926    2.4692    0.0233 H   0  0  0  0  0  0  0  0  0  0  0  0
   -3.4828    0.2977   -0.1189 C   0  0  0  0  0  0  0  0  0  0  0  0
   -4.7162   -0.5550   -0.2274 C   0  0  0  0  0  0  0  0  0  0  0  0
   -5.5655   -0.0452    0.2836 H   0  0  0  0  0  0  0  0  0  0  0  0
   -5.0080   -0.6558   -1.2955 H   0  0  0  0  0  0  0  0  0  0  0  0
   -1.0452    3.0846    0.1081 C   0  0  0  0  0  0  0  0  0  0  0  0
   -0.3894    3.0824    1.0014 H   0  0  0  0  0  0  0  0  0  0  0  0
   -1.7228    3.9553    0.1764 H   0  0  0  0  0  0  0  0  0  0  0  0
   -0.3910    3.2229   -0.7758 H   0  0  0  0  0  0  0  0  0  0  0  0
   -2.0692   -1.2932   -0.1774 H   0  0  0  0  0  0  0  0  0  0  0  0
  1  2  1  0  0  0  0
  3  5  1  0  0  0  0
  4  8  1  0  0  0  0
  4  3  1  0  0  0  0
  5 12  1  1  0  0  0
  6  5  1  0  0  0  0
  6  7  1  0  0  0  0
  8  6  2  0  0  0  0
  9  8  1  0  0  0  0
  9  1  1  0  0  0  0
  9 10  1  0  0  0  0
 11  9  1  0  0  0  0
 12 14  1  0  0  0  0
 12 13  1  0  0  0  0
 15 12  1  0  0  0  0
 16  4  1  0  0  0  0
M  END
