5
q = 0.0, confidence = 0.966

 13 12  0  0  0  0  0  0  0  0999 V2000
    1.8709    2.1198    0.4696 N   0  0  0  0  0  0  0  0  0  0  0  0
    4.0508   -1.2210   -0.4700 O   0  0  0  0  0  0  0  0  0  0  0  0
    2.1977   -2.3454   -0.2213 O   0  0  0  0  0  0  0  0  0  0  0  0
    3.8630    1.3400   -0.4210 N   0  0  0  0  0  4  0  0  0  0  0  0
    2.0704   -0.1617    0.0580 N   0  0  0  0  0  2  0  0  0  0  0  0
    0.6459    1.9570    1.0776 N   0  0  0  0  0  0  0  0  0  0  0  0
    2.6297    1.0664    0.0389 C   0  0  0  0  0  0  0  0  0  0  0  0
    2.8314   -1.3008   -0.2308 N   0  0  0  0  0  0  0  0  0  0  0  0
   -0.1687    2.2329    0.4912 H   0  0  0  0  0  0  0  0  0  0  0  0
    0.6267    2.3745    2.0139 H   0  0  0  0  0  0  0  0  0  0  0  0
    2.1941    3.0540    0.1860 H   0  0  0  0  0  0  0  0  0  0  0  0
    4.4273    0.5010   -0.6392 H   0  0  0  0  0  0  0  0  0  0  0  0
    4.2932    2.2458   -0.2377 H   0  0  0  0  0  0  0  0  0  0  0  0
  1  6  1  0  0  0  0
  2  8  2  0  0  0  0
  4 13  1  0  0  0  0
  4  7  2  0  0  0  0
  6 10  1  0  0  0  0
  7  5  1  0  0  0  0
  7  1  1  0  0  0  0
  8  3  2  0  0  0  0
  8  5  1  0  0  0  0
  9  6  1  0  0  0  0
 11  1  1  0  0  0  0
 12  4  1  0  0  0  0
M  END
