2
q = 0.0, confidence = 0.998

 32 34  0  0  1  0  0  0  0  0999 V2000
   -1.7383    3.8039   -0.0454 O   0  0  0  0  0  0  0  0  0  0  0  0
   -0.5515    1.9183   -0.3051 N   0  0  0  0  0  2  0  0  0  0  0  0
   -2.9987    1.7618    0.0874 C   0  0  0  0  0  0  0  0  0  0  0  0
   -3.2505    0.5873   -0.6216 C   0  0  0  0  0  0  0  0  0  0  0  0
   -4.4945   -0.0856   -0.4816 C   0  0  0  0  0  0  0  0  0  0  0  0
   -4.7824   -1.2830   -1.2030 C   0  0  0  0  0  0  0  0  0  0  0  0
   -5.9959   -1.9327   -1.0378 C   0  0  0  0  0  0  0  0  0  0  0  0
   -6.9736   -1.4088   -0.1479 C   0  0  0  0  0  0  0  0  0  0  0  0
   -6.7275   -0.2409    0.5599 C   0  0  0  0  0  0  0  0  0  0  0  0
   -5.4915    0.4527    0.4134 C   0  0  0  0  0  0  0  0  0  0  0  0
   -5.2064    1.6653    1.1101 C   0  0  0  0  0  0  0  0  0  0  0  0
   -3.9968    2.3157    0.9452 C   0  0  0  0  0  0  0  0  0  0  0  0
   -1.7175    2.4532   -0.0852 C   0  0  2  0  0  3  0  0  0  0  0  0
   -0.3501    4.2274   -0.0763 C   0  0  0  0  0  0  0  0  0  0  0  0
    0.4123    3.0104   -0.6475 C   0  0  0  0  0  0  0  0  0  0  0  0
    0.5355    3.0685   -2.1776 C   0  0  0  0  0  0  0  0  0  0  0  0
    1.7672    2.8025    0.0223 C   0  0  0  0  0  0  0  0  0  0  0  0
   -2.4867    0.1881   -1.3093 H   0  0  0  0  0  0  0  0  0  0  0  0
   -4.0187   -1.6781   -1.8901 H   0  0  0  0  0  0  0  0  0  0  0  0
   -6.2079   -2.8565   -1.5970 H   0  0  0  0  0  0  0  0  0  0  0  0
   -7.9330   -1.9339   -0.0245 H   0  0  0  0  0  0  0  0  0  0  0  0
   -7.4869    0.1677    1.2446 H   0  0  0  0  0  0  0  0  0  0  0  0
   -5.9702    2.0797    1.7860 H   0  0  0  0  0  0  0  0  0  0  0  0
   -3.7821    3.2516    1.4796 H   0  0  0  0  0  0  0  0  0  0  0  0
   -0.2803    5.1334   -0.7065 H   0  0  0  0  0  0  0  0  0  0  0  0
   -0.0428    4.4638    0.9650 H   0  0  0  0  0  0  0  0  0  0  0  0
   -0.4395    3.3195   -2.6418 H   0  0  0  0  0  0  0  0  0  0  0  0
    0.8471    2.0793   -2.5655 H   0  0  0  0  0  0  0  0  0  0  0  0
    1.2790    3.8363   -2.4735 H   0  0  0  0  0  0  0  0  0  0  0  0
    1.6400    2.6076    1.1048 H   0  0  0  0  0  0  0  0  0  0  0  0
    2.4072    3.6960   -0.1256 H   0  0  0  0  0  0  0  0  0  0  0  0
    2.2853    1.9332   -0.4262 H   0  0  0  0  0  0  0  0  0  0  0  0
  2 13  1  0  0  0  0
  3 12  1  0  0  0  0
  4  5  1  0  0  0  0
  4  3  2  0  0  0  0
  5 10  1  0  0  0  0
  6  7  1  0  0  0  0
  6  5  2  0  0  0  0
  7  8  2  0  0  0  0
  8 21  1  0  0  0  0
  8  9  1  0  0  0  0
  9 22  1  0  0  0  0
 10  9  2  0  0  0  0
 10 11  1  0  0  0  0
 11 23  1  0  0  0  0
 12 11  2  0  0  0  0
 12 24  1  0  0  0  0
 13  1  1  0  0  0  0
 13  3  1  6  0  0  0
 14  1  1  0  0  0  0
 14 26  1  0  0  0  0
 15  2  1  0  0  0  0
 15 14  1  0  0  0  0
 15 17  1  0  0  0  0
 16 15  1  0  0  0  0
 17 30  1  0  0  0  0
 18  4  1  0  0  0  0
 19  6  1  0  0  0  0
 20  7  1  0  0  0  0
 25 14  1  0  0  0  0
 27 16  1  0  0  0  0
 28 16  1  0  0  0  0
 29 16  1  0  0  0  0
 31 17  1  0  0  0  0
 32 17  1  0  0  0  0
M  END
