4
q = 0.0, confidence = 0.976

 43 46  0  0  0  0  0  0  0  0999 V2000
    2.1306    1.0171   -0.3641 S   0  0  0  0  0  0  0  0  0  0  0  0
   -0.5293    1.0676   -0.4180 N   0  0  0  0  0  0  0  0  0  0  0  0
   -1.4480    1.5313   -0.3548 H   0  0  0  0  0  0  0  0  0  0  0  0
   -0.5229   -0.2679   -0.1277 N   0  0  0  0  0  2  0  0  0  0  0  0
    1.4767    4.1029   -0.8975 C   0  0  0  0  0  0  0  0  0  0  0  0
    0.4656    3.0993   -0.8387 N   0  0  0  0  0  0  0  0  0  0  0  0
   -0.4680    3.4010   -1.1333 H   0  0  0  0  0  0  0  0  0  0  0  0
    0.6224    1.7874   -0.5418 C   0  0  0  0  0  0  0  0  0  0  0  0
   -1.6771   -0.8424    0.1286 C   0  0  0  0  0  3  0  0  0  0  0  0
   -1.6004   -1.9282    0.2816 H   0  0  0  0  0  0  0  0  0  0  0  0
    1.4198    5.0399   -1.9459 C   0  0  0  0  0  0  0  0  0  0  0  0
    0.6342    4.9600   -2.7134 H   0  0  0  0  0  0  0  0  0  0  0  0
   -2.9840   -0.1822    0.1738 C   0  0  0  0  0  0  0  0  0  0  0  0
    2.4757    4.1950    0.0900 C   0  0  0  0  0  0  0  0  0  0  0  0
    2.4974    3.4816    0.9252 H   0  0  0  0  0  0  0  0  0  0  0  0
    2.3716    6.0661   -2.0118 C   0  0  0  0  0  0  0  0  0  0  0  0
    2.3244    6.7978   -2.8316 H   0  0  0  0  0  0  0  0  0  0  0  0
    3.3832    6.1531   -1.0426 C   0  0  0  0  0  0  0  0  0  0  0  0
    4.1328    6.9558   -1.0988 H   0  0  0  0  0  0  0  0  0  0  0  0
   -5.5253    1.0834    0.1596 C   0  0  0  0  0  0  0  0  0  0  0  0
   -6.5057    1.5851    0.1401 H   0  0  0  0  0  0  0  0  0  0  0  0
    3.4295    5.2180    0.0039 C   0  0  0  0  0  0  0  0  0  0  0  0
    4.2095    5.2919    0.7760 H   0  0  0  0  0  0  0  0  0  0  0  0
   -3.2120    0.9550    1.0174 C   0  0  0  0  0  0  0  0  0  0  0  0
   -2.2393    1.4444    1.9523 C   0  0  0  0  0  0  0  0  0  0  0  0
   -1.2891    0.9028    2.0970 H   0  0  0  0  0  0  0  0  0  0  0  0
   -6.3986   -0.6170   -1.4130 C   0  0  0  0  0  0  0  0  0  0  0  0
   -7.3765   -0.1123   -1.3958 H   0  0  0  0  0  0  0  0  0  0  0  0
   -3.7484    3.2502    2.6285 C   0  0  0  0  0  0  0  0  0  0  0  0
   -3.9339    4.1378    3.2510 H   0  0  0  0  0  0  0  0  0  0  0  0
   -4.5058    1.6144    0.9711 C   0  0  0  0  0  0  0  0  0  0  0  0
   -3.8712   -1.8727   -1.4605 C   0  0  0  0  0  0  0  0  0  0  0  0
   -2.8891   -2.3625   -1.5170 H   0  0  0  0  0  0  0  0  0  0  0  0
   -5.3389   -0.0770   -0.6149 C   0  0  0  0  0  0  0  0  0  0  0  0
   -4.9226   -2.3738   -2.2085 C   0  0  0  0  0  0  0  0  0  0  0  0
   -4.7699   -3.2659   -2.8343 H   0  0  0  0  0  0  0  0  0  0  0  0
   -6.2008   -1.7436   -2.1868 C   0  0  0  0  0  0  0  0  0  0  0  0
   -7.0221   -2.1535   -2.7926 H   0  0  0  0  0  0  0  0  0  0  0  0
   -4.7311    2.7733    1.7831 C   0  0  0  0  0  0  0  0  0  0  0  0
   -5.7143    3.2652    1.7302 H   0  0  0  0  0  0  0  0  0  0  0  0
   -4.0411   -0.7255   -0.6224 C   0  0  0  0  0  0  0  0  0  0  0  0
   -2.5023    2.5644    2.7237 C   0  0  0  0  0  0  0  0  0  0  0  0
   -1.7429    2.9121    3.4404 H   0  0  0  0  0  0  0  0  0  0  0  0
  2  3  1  0  0  0  0
  2  4  1  0  0  0  0
  4  9  1  0  0  0  0
  5  6  1  0  0  0  0
  5 14  1  0  0  0  0
  6  8  1  0  0  0  0
  7  6  1  0  0  0  0
  8  2  1  0  0  0  0
  8  1  2  0  0  0  0
  9 13  1  0  0  0  0
  9 10  1  0  0  0  0
 11  5  2  0  0  0  0
 12 11  1  0  0  0  0
 13 24  1  0  0  0  0
 14 15  1  0  0  0  0
 16 11  1  0  0  0  0
 16 18  2  0  0  0  0
 17 16  1  0  0  0  0
 18 22  1  0  0  0  0
 19 18  1  0  0  0  0
 20 31  1  0  0  0  0
 21 20  1  0  0  0  0
 22 14  2  0  0  0  0
 22 23  1  0  0  0  0
 24 25  1  0  0  0  0
 25 26  1  0  0  0  0
 25 42  2  0  0  0  0
 27 28  1  0  0  0  0
 27 34  1  0  0  0  0
 29 42  1  0  0  0  0
 29 30  1  0  0  0  0
 31 24  2  0  0  0  0
 31 39  1  0  0  0  0
 32 41  1  0  0  0  0
 33 32  1  0  0  0  0
 34 20  2  0  0  0  0
 35 37  1  0  0  0  0
 35 32  2  0  0  0  0
 36 35  1  0  0  0  0
 37 27  2  0  0  0  0
 38 37  1  0  0  0  0
 39 29  2  0  0  0  0
 40 39  1  0  0  0  0
 41 34  1  0  0  0  0
 41 13  2  0  0  0  0
 42 43  1  0  0  0  0
M  END
