5
q = -1.0

 79 78  0  0  0  0  0  0  0  0999 V2000
    2.3512   -0.3963   -0.0976 P   0  0  0  0  0  0  0  0  0  0  0  0
   -2.3512   -0.3963    0.0976 P   0  0  0  0  0  0  0  0  0  0  0  0
    1.3269    2.3937   -0.7906 Si  0  0  0  0  0  0  0  0  0  0  0  0
   -1.3269    2.3936    0.7906 Si  0  0  0  0  0  0  0  0  0  0  0  0
   -0.0000    1.5240   -0.0000 N   0  0  0  0  0  2  0  0  0  0  0  0
    1.8403    3.9920    0.0972 C   0  0  0  0  0  0  0  0  0  0  0  0
    1.0463    4.7638    0.0707 H   0  0  0  0  0  0  0  0  0  0  0  0
    2.7325    4.4201   -0.4058 H   0  0  0  0  0  0  0  0  0  0  0  0
    2.1031    3.8093    1.1578 H   0  0  0  0  0  0  0  0  0  0  0  0
    0.8495    2.8256   -2.5711 C   0  0  0  0  0  0  0  0  0  0  0  0
    0.6304    1.8991   -3.1408 H   0  0  0  0  0  0  0  0  0  0  0  0
    1.6704    3.3650   -3.0879 H   0  0  0  0  0  0  0  0  0  0  0  0
   -0.0547    3.4661   -2.6039 H   0  0  0  0  0  0  0  0  0  0  0  0
    2.8251    1.2169   -0.8657 C   0  0  0  0  0  0  0  0  0  0  0  0
    3.0382    1.0194   -1.9357 H   0  0  0  0  0  0  0  0  0  0  0  0
    3.7489    1.6432   -0.4239 H   0  0  0  0  0  0  0  0  0  0  0  0
    3.2135   -1.7035   -1.1974 C   0  0  0  0  0  0  0  0  0  0  0  0
    4.6458   -1.3151   -1.6001 C   0  0  0  0  0  0  0  0  0  0  0  0
    5.0361   -2.0841   -2.3010 H   0  0  0  0  0  0  0  0  0  0  0  0
    5.3388   -1.2709   -0.7403 H   0  0  0  0  0  0  0  0  0  0  0  0
    4.6892   -0.3425   -2.1286 H   0  0  0  0  0  0  0  0  0  0  0  0
    3.2084   -3.0712   -0.4940 C   0  0  0  0  0  0  0  0  0  0  0  0
    3.5126   -3.8544   -1.2207 H   0  0  0  0  0  0  0  0  0  0  0  0
    2.2003   -3.3139   -0.1068 H   0  0  0  0  0  0  0  0  0  0  0  0
    3.9301   -3.1055    0.3464 H   0  0  0  0  0  0  0  0  0  0  0  0
    2.3301   -1.7820   -2.4605 C   0  0  0  0  0  0  0  0  0  0  0  0
    2.7906   -2.4906   -3.1818 H   0  0  0  0  0  0  0  0  0  0  0  0
    2.2415   -0.8009   -2.9723 H   0  0  0  0  0  0  0  0  0  0  0  0
    1.3151   -2.1393   -2.1965 H   0  0  0  0  0  0  0  0  0  0  0  0
    3.1004   -0.3282    1.6616 C   0  0  0  0  0  0  0  0  0  0  0  0
    2.4798   -1.4490    2.5152 C   0  0  0  0  0  0  0  0  0  0  0  0
    2.8936   -1.3878    3.5447 H   0  0  0  0  0  0  0  0  0  0  0  0
    2.6911   -2.4575    2.1174 H   0  0  0  0  0  0  0  0  0  0  0  0
    1.3795   -1.3388    2.5728 H   0  0  0  0  0  0  0  0  0  0  0  0
    4.6324   -0.4291    1.6731 C   0  0  0  0  0  0  0  0  0  0  0  0
    5.0010   -0.2492    2.7060 H   0  0  0  0  0  0  0  0  0  0  0  0
    5.1097    0.3277    1.0177 H   0  0  0  0  0  0  0  0  0  0  0  0
    4.9885   -1.4314    1.3673 H   0  0  0  0  0  0  0  0  0  0  0  0
    2.6775    1.0244    2.2657 C   0  0  0  0  0  0  0  0  0  0  0  0
    2.9364    1.0340    3.3456 H   0  0  0  0  0  0  0  0  0  0  0  0
    1.5866    1.1882    2.1672 H   0  0  0  0  0  0  0  0  0  0  0  0
    3.2026    1.8774    1.7935 H   0  0  0  0  0  0  0  0  0  0  0  0
   -0.8494    2.8254    2.5711 C   0  0  0  0  0  0  0  0  0  0  0  0
    0.0548    3.4659    2.6039 H   0  0  0  0  0  0  0  0  0  0  0  0
   -0.6304    1.8989    3.1408 H   0  0  0  0  0  0  0  0  0  0  0  0
   -1.6704    3.3648    3.0880 H   0  0  0  0  0  0  0  0  0  0  0  0
   -1.8403    3.9921   -0.0971 C   0  0  0  0  0  0  0  0  0  0  0  0
   -1.0463    4.7639   -0.0705 H   0  0  0  0  0  0  0  0  0  0  0  0
   -2.7325    4.4201    0.4058 H   0  0  0  0  0  0  0  0  0  0  0  0
   -2.1029    3.8094   -1.1578 H   0  0  0  0  0  0  0  0  0  0  0  0
   -2.8251    1.2169    0.8656 C   0  0  0  0  0  0  0  0  0  0  0  0
   -3.0383    1.0195    1.9356 H   0  0  0  0  0  0  0  0  0  0  0  0
   -3.7489    1.6432    0.4237 H   0  0  0  0  0  0  0  0  0  0  0  0
   -3.2136   -1.7034    1.1975 C   0  0  0  0  0  0  0  0  0  0  0  0
   -4.6459   -1.3148    1.6003 C   0  0  0  0  0  0  0  0  0  0  0  0
   -5.0361   -2.0837    2.3014 H   0  0  0  0  0  0  0  0  0  0  0  0
   -5.3389   -1.2707    0.7405 H   0  0  0  0  0  0  0  0  0  0  0  0
   -4.6891   -0.3420    2.1287 H   0  0  0  0  0  0  0  0  0  0  0  0
   -2.3302   -1.7818    2.4606 C   0  0  0  0  0  0  0  0  0  0  0  0
   -2.7907   -2.4903    3.1820 H   0  0  0  0  0  0  0  0  0  0  0  0
   -2.2414   -0.8007    2.9723 H   0  0  0  0  0  0  0  0  0  0  0  0
   -1.3152   -2.1393    2.1966 H   0  0  0  0  0  0  0  0  0  0  0  0
   -3.2087   -3.0711    0.4943 C   0  0  0  0  0  0  0  0  0  0  0  0
   -3.5129   -3.8543    1.2211 H   0  0  0  0  0  0  0  0  0  0  0  0
   -2.2006   -3.3140    0.1071 H   0  0  0  0  0  0  0  0  0  0  0  0
   -3.9304   -3.1055   -0.3460 H   0  0  0  0  0  0  0  0  0  0  0  0
   -3.1003   -0.3283   -1.6616 C   0  0  0  0  0  0  0  0  0  0  0  0
   -4.6323   -0.4297   -1.6733 C   0  0  0  0  0  0  0  0  0  0  0  0
   -5.0009   -0.2497   -2.7062 H   0  0  0  0  0  0  0  0  0  0  0  0
   -5.1099    0.3269   -1.0178 H   0  0  0  0  0  0  0  0  0  0  0  0
   -4.9881   -1.4321   -1.3676 H   0  0  0  0  0  0  0  0  0  0  0  0
   -2.6779    1.0245   -2.2656 C   0  0  0  0  0  0  0  0  0  0  0  0
   -2.9367    1.0342   -3.3455 H   0  0  0  0  0  0  0  0  0  0  0  0
   -1.5870    1.1886   -2.1670 H   0  0  0  0  0  0  0  0  0  0  0  0
   -3.2032    1.8773   -1.7933 H   0  0  0  0  0  0  0  0  0  0  0  0
   -2.4793   -1.4487   -2.5154 C   0  0  0  0  0  0  0  0  0  0  0  0
   -2.8930   -1.3876   -3.5449 H   0  0  0  0  0  0  0  0  0  0  0  0
   -2.6905   -2.4574   -2.1177 H   0  0  0  0  0  0  0  0  0  0  0  0
   -1.3791   -1.3383   -2.5728 H   0  0  0  0  0  0  0  0  0  0  0  0
  1 30  1  0  0  0  0
  2 51  1  0  0  0  0
  2 54  1  0  0  0  0
  3  5  1  0  0  0  0
  3  6  1  0  0  0  0
  4 51  1  0  0  0  0
  4 43  1  0  0  0  0
  5  4  1  0  0  0  0
  6  9  1  0  0  0  0
  7  6  1  0  0  0  0
  8  6  1  0  0  0  0
 10  3  1  0  0  0  0
 11 10  1  0  0  0  0
 12 10  1  0  0  0  0
 13 10  1  0  0  0  0
 14  3  1  0  0  0  0
 14 16  1  0  0  0  0
 14  1  1  0  0  0  0
 15 14  1  0  0  0  0
 17 22  1  0  0  0  0
 17  1  1  0  0  0  0
 18 17  1  0  0  0  0
 18 20  1  0  0  0  0
 19 18  1  0  0  0  0
 21 18  1  0  0  0  0
 22 24  1  0  0  0  0
 22 25  1  0  0  0  0
 23 22  1  0  0  0  0
 26 29  1  0  0  0  0
 26 17  1  0  0  0  0
 27 26  1  0  0  0  0
 28 26  1  0  0  0  0
 30 35  1  0  0  0  0
 30 39  1  0  0  0  0
 30 31  1  0  0  0  0
 31 34  1  0  0  0  0
 31 32  1  0  0  0  0
 33 31  1  0  0  0  0
 35 36  1  0  0  0  0
 37 35  1  0  0  0  0
 38 35  1  0  0  0  0
 39 40  1  0  0  0  0
 41 39  1  0  0  0  0
 42 39  1  0  0  0  0
 43 44  1  0  0  0  0
 43 46  1  0  0  0  0
 43 45  1  0  0  0  0
 47 48  1  0  0  0  0
 47 49  1  0  0  0  0
 47  4  1  0  0  0  0
 50 47  1  0  0  0  0
 51 52  1  0  0  0  0
 53 51  1  0  0  0  0
 54 55  1  0  0  0  0
 54 59  1  0  0  0  0
 55 58  1  0  0  0  0
 55 56  1  0  0  0  0
 57 55  1  0  0  0  0
 59 61  1  0  0  0  0
 59 60  1  0  0  0  0
 62 59  1  0  0  0  0
 63 54  1  0  0  0  0
 63 64  1  0  0  0  0
 65 63  1  0  0  0  0
 66 63  1  0  0  0  0
 67  2  1  0  0  0  0
 68 67  1  0  0  0  0
 68 71  1  0  0  0  0
 68 70  1  0  0  0  0
 69 68  1  0  0  0  0
 72 74  1  0  0  0  0
 72 75  1  0  0  0  0
 72 67  1  0  0  0  0
 73 72  1  0  0  0  0
 76 78  1  0  0  0  0
 76 67  1  0  0  0  0
 77 76  1  0  0  0  0
 79 76  1  0  0  0  0
M  END
