1
q = -1.0

 13 13  0  0  0  0  0  0  0  0999 V2000
    1.9280   -0.0003   -0.0003 N   0  0  0  0  0  0  0  0  0  0  0  0
    2.0516    3.5935   -0.2388 N   0  0  0  0  0  0  0  0  0  0  0  0
    6.1581    2.3005   -0.0992 N   0  0  0  0  0  0  0  0  0  0  0  0
    6.1578   -2.3014    0.1005 N   0  0  0  0  0  0  0  0  0  0  0  0
    2.0508   -3.5939    0.2386 N   0  0  0  0  0  0  0  0  0  0  0  0
    2.7437    1.1037   -0.0423 C   0  0  0  0  0  0  0  0  0  0  0  0
    4.1118    0.7104   -0.0267 C   0  0  0  0  0  0  0  0  0  0  0  0
    4.1118   -0.7111    0.0271 C   0  0  0  0  0  0  0  0  0  0  0  0
    2.7436   -1.1042    0.0421 C   0  0  0  0  0  0  0  0  0  0  0  0
    2.3144    2.4527   -0.1298 C   0  0  0  0  0  0  0  0  0  0  0  0
    5.2337    1.5769   -0.0656 C   0  0  0  0  0  0  0  0  0  0  0  0
    5.2335   -1.5777    0.0665 C   0  0  0  0  0  0  0  0  0  0  0  0
    2.3141   -2.4532    0.1294 C   0  0  0  0  0  0  0  0  0  0  0  0
  1  9  1  0  0  0  0
  2 10  3  0  0  0  0
  3 11  3  0  0  0  0
  6  7  1  0  0  0  0
  6  1  2  0  0  0  0
  7  8  2  0  0  0  0
  8  9  1  0  0  0  0
  8 12  1  0  0  0  0
  9 13  1  0  0  0  0
 10  6  1  0  0  0  0
 11  7  1  0  0  0  0
 12  4  3  0  0  0  0
 13  5  3  0  0  0  0
M  END
