10
q = -1.0, confidence = 0.0

 27 30  0  0  0  0  0  0  0  0999 V2000
   -5.2424   -0.0488   -0.4446 N   0  0  0  0  0  0  0  0  0  0  0  0
   -6.3487   -0.8555   -0.6353 C   0  0  0  0  0  0  0  0  0  0  0  0
   -6.1180   -2.2088   -0.3821 C   0  0  0  0  0  0  0  0  0  0  0  0
   -3.8655   -3.2913    0.3935 C   0  0  0  0  0  0  0  0  0  0  0  0
   -2.5386   -2.9265    0.7097 C   0  0  0  0  0  0  0  0  0  0  0  0
   -2.1229   -1.6039    0.6287 C   0  0  0  0  0  0  0  0  0  0  0  0
   -2.9610   -0.5844    0.2430 N   0  0  0  0  0  0  0  0  0  0  0  0
   -4.2820   -0.8892   -0.0635 C   0  0  0  0  0  0  0  0  0  0  0  0
   -4.7471   -2.2843    0.0065 C   0  0  0  0  0  0  0  0  0  0  0  0
    0.8126    2.2796    0.0302 N   0  0  0  0  0  0  0  0  0  0  0  0
    0.9739    3.6550   -0.0224 C   0  0  0  0  0  0  0  0  0  0  0  0
   -0.2560    4.3064   -0.0051 C   0  0  0  0  0  0  0  0  0  0  0  0
   -2.6623    3.1750    0.0902 C   0  0  0  0  0  0  0  0  0  0  0  0
   -3.2463    1.9036    0.1396 C   0  0  0  0  0  0  0  0  0  0  0  0
   -2.4109    0.7563    0.1602 C   0  0  0  0  0  0  0  0  0  0  0  0
   -1.0752    0.8145    0.1294 N   0  0  0  0  0  0  0  0  0  0  0  0
   -0.5415    2.0368    0.0809 C   0  0  0  0  0  3  0  0  0  0  0  0
   -1.2573    3.2814    0.0593 C   0  0  0  0  0  0  0  0  0  0  0  0
   -7.2947   -0.3964   -0.9585 H   0  0  0  0  0  0  0  0  0  0  0  0
   -6.8290   -3.0388   -0.4614 H   0  0  0  0  0  0  0  0  0  0  0  0
   -4.1881   -4.3419    0.4585 H   0  0  0  0  0  0  0  0  0  0  0  0
   -1.8062   -3.6782    1.0354 H   0  0  0  0  0  0  0  0  0  0  0  0
   -1.1030   -1.2800    0.8612 H   0  0  0  0  0  0  0  0  0  0  0  0
    1.9776    4.0956   -0.0695 H   0  0  0  0  0  0  0  0  0  0  0  0
   -0.4110    5.3907   -0.0368 H   0  0  0  0  0  0  0  0  0  0  0  0
   -3.3054    4.0681    0.0720 H   0  0  0  0  0  0  0  0  0  0  0  0
   -4.3334    1.7546    0.1220 H   0  0  0  0  0  0  0  0  0  0  0  0
  1  8  2  0  0  0  0
  2  1  1  0  0  0  0
  2  3  2  0  0  0  0
  3  9  1  0  0  0  0
  4 21  1  0  0  0  0
  4  5  1  0  0  0  0
  5 22  1  0  0  0  0
  6  5  2  0  0  0  0
  6 23  1  0  0  0  0
  7  6  1  0  0  0  0
  8  9  1  0  0  0  0
  8  7  1  0  0  0  0
  9  4  2  0  0  0  0
 10 17  1  0  0  0  0
 11 12  1  0  0  0  0
 11 10  2  0  0  0  0
 12 18  2  0  0  0  0
 13 14  2  0  0  0  0
 14 15  1  0  0  0  0
 15  7  1  0  0  0  0
 16 15  2  0  0  0  0
 17 16  1  0  0  0  0
 18 17  1  0  0  0  0
 18 13  1  0  0  0  0
 19  2  1  0  0  0  0
 20  3  1  0  0  0  0
 24 11  1  0  0  0  0
 25 12  1  0  0  0  0
 26 13  1  0  0  0  0
 27 14  1  0  0  0  0
M  END
