3
q = 0.0, confidence = 0.51

 16 16  0  0  0  0  0  0  0  0999 V2000
   -0.7107    0.6529    1.0152 S   0  0  0  0  0  1  0  0  0  0  0  0
   -1.0012    2.2015    0.2022 C   0  0  0  0  0  0  0  0  0  0  0  0
    0.7139    1.5169   -1.3393 N   0  0  0  0  0  2  0  0  0  0  0  0
    1.0414    1.5522   -2.3070 H   0  0  0  0  0  0  0  0  0  0  0  0
   -0.6395    3.5093   -1.8198 C   0  0  0  0  0  0  0  0  0  0  0  0
   -0.1593    3.6495   -2.8005 H   0  0  0  0  0  0  0  0  0  0  0  0
   -2.1655    4.2925   -0.0694 C   0  0  0  0  0  0  0  0  0  0  0  0
   -2.8642    5.0581    0.2989 H   0  0  0  0  0  0  0  0  0  0  0  0
   -1.9006    3.1643    0.7229 C   0  0  0  0  0  0  0  0  0  0  0  0
   -1.5580    4.4361   -1.3358 C   0  0  0  0  0  0  0  0  0  0  0  0
   -1.8091    5.3114   -1.9553 H   0  0  0  0  0  0  0  0  0  0  0  0
   -0.2816    2.3774   -1.0268 C   0  0  0  0  0  0  0  0  0  0  0  0
   -2.5261    3.0329    2.0895 C   0  0  0  0  0  0  0  0  0  0  0  0
   -2.0265    3.7214    2.8041 H   0  0  0  0  0  0  0  0  0  0  0  0
   -2.4453    2.0101    2.5024 H   0  0  0  0  0  0  0  0  0  0  0  0
   -3.5985    3.3080    2.0664 H   0  0  0  0  0  0  0  0  0  0  0  0
  2  9  1  0  0  0  0
  2  1  1  0  0  0  0
  3 12  1  0  0  0  0
  4  3  1  0  0  0  0
  5 10  2  0  0  0  0
  5 12  1  0  0  0  0
  6  5  1  0  0  0  0
  7  8  1  0  0  0  0
  7  9  2  0  0  0  0
  9 13  1  0  0  0  0
 10  7  1  0  0  0  0
 11 10  1  0  0  0  0
 12  2  2  0  0  0  0
 13 15  1  0  0  0  0
 13 14  1  0  0  0  0
 16 13  1  0  0  0  0
M  END
