1
q = -1.0

 26 26  0  0  0  0  0  0  0  0999 V2000
   -0.8927    1.2044   -0.9861 N   0  0  0  0  0  0  0  0  0  0  0  0
    1.4076    1.1495    0.2499 N   0  0  0  0  0  0  0  0  0  0  0  0
    1.7170    1.2889   -0.7337 H   0  0  0  0  0  0  0  0  0  0  0  0
   -1.9191    1.4448   -1.8635 C   0  0  0  0  0  0  0  0  0  0  0  0
   -2.3148    0.6497   -2.5061 H   0  0  0  0  0  0  0  0  0  0  0  0
   -2.2367    2.8104   -1.8258 C   0  0  0  0  0  0  0  0  0  0  0  0
   -2.9980    3.3116   -2.4356 H   0  0  0  0  0  0  0  0  0  0  0  0
   -1.3546    3.4200   -0.8869 C   0  0  0  0  0  0  0  0  0  0  0  0
   -1.3102    4.4797   -0.6074 H   0  0  0  0  0  0  0  0  0  0  0  0
   -0.5411    2.3930   -0.3920 C   0  0  0  0  0  3  0  0  0  0  0  0
    0.5543    2.3173    0.6146 C   0  0  0  0  0  0  0  0  0  0  0  0
    0.1777    2.1405    1.6476 H   0  0  0  0  0  0  0  0  0  0  0  0
    1.1418    3.2587    0.6370 H   0  0  0  0  0  0  0  0  0  0  0  0
    2.6672    0.9796    1.0661 C   0  0  0  0  0  0  0  0  0  0  0  0
    2.3291    0.7386    2.5427 C   0  0  0  0  0  0  0  0  0  0  0  0
    1.6678   -0.1384    2.6644 H   0  0  0  0  0  0  0  0  0  0  0  0
    1.8330    1.6135    3.0065 H   0  0  0  0  0  0  0  0  0  0  0  0
    3.2610    0.5465    3.1098 H   0  0  0  0  0  0  0  0  0  0  0  0
    3.4523   -0.2070    0.4897 C   0  0  0  0  0  0  0  0  0  0  0  0
    3.6550   -0.0636   -0.5894 H   0  0  0  0  0  0  0  0  0  0  0  0
    2.8833   -1.1475    0.5871 H   0  0  0  0  0  0  0  0  0  0  0  0
    4.4153   -0.3150    1.0260 H   0  0  0  0  0  0  0  0  0  0  0  0
    3.5394    2.2462    0.9315 C   0  0  0  0  0  0  0  0  0  0  0  0
    3.0744    3.1352    1.3996 H   0  0  0  0  0  0  0  0  0  0  0  0
    3.7423    2.4764   -0.1345 H   0  0  0  0  0  0  0  0  0  0  0  0
    4.5139    2.0821    1.4316 H   0  0  0  0  0  0  0  0  0  0  0  0
  1 10  1  0  0  0  0
  2 11  1  0  0  0  0
  2 14  1  0  0  0  0
  3  2  1  0  0  0  0
  4  6  1  0  0  0  0
  4  1  2  0  0  0  0
  5  4  1  0  0  0  0
  6  8  2  0  0  0  0
  7  6  1  0  0  0  0
  8  9  1  0  0  0  0
  8 10  1  0  0  0  0
 10 11  1  0  0  0  0
 11 13  1  0  0  0  0
 11 12  1  0  0  0  0
 14 15  1  0  0  0  0
 15 16  1  0  0  0  0
 15 17  1  0  0  0  0
 15 18  1  0  0  0  0
 19 21  1  0  0  0  0
 19 22  1  0  0  0  0
 19 14  1  0  0  0  0
 20 19  1  0  0  0  0
 23 14  1  0  0  0  0
 23 24  1  0  0  0  0
 23 26  1  0  0  0  0
 25 23  1  0  0  0  0
M  END
