1
q = 0.0, confidence = 0.998

 17 18  0  0  0  0  0  0  0  0999 V2000
   -0.2820    0.0004    1.4604 N   0  0  0  0  0  2  0  0  0  0  0  0
   -1.5730   -0.0000    1.7483 C   0  0  0  0  0  3  0  0  0  0  0  0
   -2.4117   -0.0008    1.0434 H   0  0  0  0  0  0  0  0  0  0  0  0
   -1.7497    0.0007    3.1127 N   0  0  0  0  0  0  0  0  0  0  0  0
   -0.4889    0.0016    3.7059 C   0  0  0  0  0  0  0  0  0  0  0  0
   -0.3839    0.0023    4.7933 H   0  0  0  0  0  0  0  0  0  0  0  0
    0.4085    0.0014    2.6618 C   0  0  0  0  0  0  0  0  0  0  0  0
    1.5041    0.0019    2.6902 H   0  0  0  0  0  0  0  0  0  0  0  0
   -2.9948    0.0005    3.7849 C   0  0  0  0  0  0  0  0  0  0  0  0
   -4.0814   -0.0004    3.0030 N   0  0  0  0  0  0  0  0  0  0  0  0
   -5.2577   -0.0005    3.6442 C   0  0  0  0  0  0  0  0  0  0  0  0
   -6.1626   -0.0013    3.0120 H   0  0  0  0  0  0  0  0  0  0  0  0
   -5.3459    0.0003    5.0454 C   0  0  0  0  0  0  0  0  0  0  0  0
   -6.3140    0.0002    5.5648 H   0  0  0  0  0  0  0  0  0  0  0  0
   -4.1307    0.0012    5.7461 C   0  0  0  0  0  0  0  0  0  0  0  0
   -4.1061    0.0019    6.8497 H   0  0  0  0  0  0  0  0  0  0  0  0
   -2.9432    0.0014    5.1219 N   0  0  0  0  0  0  0  0  0  0  0  0
  1  2  1  0  0  0  0
  1  7  1  0  0  0  0
  2  4  1  0  0  0  0
  3  2  1  0  0  0  0
  4  5  1  0  0  0  0
  4  9  1  0  0  0  0
  5  6  1  0  0  0  0
  7  8  1  0  0  0  0
  7  5  2  0  0  0  0
  9 17  1  0  0  0  0
 10 11  1  0  0  0  0
 10  9  2  0  0  0  0
 11 13  2  0  0  0  0
 12 11  1  0  0  0  0
 13 14  1  0  0  0  0
 13 15  1  0  0  0  0
 15 16  1  0  0  0  0
 17 15  2  0  0  0  0
M  END
