5
q = 0.0, confidence = 0.994

 28 30  0  0  0  0  0  0  0  0999 V2000
   -7.6057   -0.0686    0.0495 S   0  0  0  0  0  0  0  0  0  0  0  0
   -6.8836    2.0954   -1.1692 N   0  0  0  0  0  0  0  0  0  0  0  0
   -8.2196    2.1330   -1.1811 N   0  0  0  0  0  0  0  0  0  0  0  0
   -6.3612    1.0409   -0.5810 C   0  0  0  0  0  0  0  0  0  0  0  0
   -2.1690    0.3446   -0.2098 N   0  0  0  0  0  2  0  0  0  0  0  0
  -10.1349    0.9803   -0.5297 N   0  0  0  0  0  0  0  0  0  0  0  0
  -10.5739    1.7823   -0.9929 H   0  0  0  0  0  0  0  0  0  0  0  0
   -3.9976    1.7116   -0.9669 C   0  0  0  0  0  0  0  0  0  0  0  0
   -4.3581    2.6173   -1.4735 H   0  0  0  0  0  0  0  0  0  0  0  0
   -4.9308    0.7851   -0.4451 C   0  0  0  0  0  0  0  0  0  0  0  0
   -8.7752    1.0764   -0.5851 C   0  0  0  0  0  0  0  0  0  0  0  0
  -12.3928    0.2566   -0.1517 C   0  0  0  0  0  0  0  0  0  0  0  0
  -12.7318    1.1535   -0.6944 H   0  0  0  0  0  0  0  0  0  0  0  0
   -4.4262   -0.3675    0.1968 C   0  0  0  0  0  0  0  0  0  0  0  0
   -5.1040   -1.1227    0.6237 H   0  0  0  0  0  0  0  0  0  0  0  0
  -12.9041   -1.7923    1.0562 C   0  0  0  0  0  0  0  0  0  0  0  0
  -13.6395   -2.5023    1.4613 H   0  0  0  0  0  0  0  0  0  0  0  0
   -3.0431   -0.5485    0.2891 C   0  0  0  0  0  3  0  0  0  0  0  0
   -2.5749   -1.4250    0.7722 H   0  0  0  0  0  0  0  0  0  0  0  0
  -11.5305   -2.0179    1.2237 C   0  0  0  0  0  0  0  0  0  0  0  0
  -11.1799   -2.9097    1.7646 H   0  0  0  0  0  0  0  0  0  0  0  0
  -13.3274   -0.6452    0.3637 C   0  0  0  0  0  0  0  0  0  0  0  0
  -14.4005   -0.4480    0.2211 H   0  0  0  0  0  0  0  0  0  0  0  0
   -2.6335    1.4520   -0.8233 C   0  0  0  0  0  0  0  0  0  0  0  0
   -1.8455    2.1295   -1.1977 H   0  0  0  0  0  0  0  0  0  0  0  0
  -10.5809   -1.1214    0.7126 C   0  0  0  0  0  0  0  0  0  0  0  0
   -9.5144   -1.3291    0.8673 H   0  0  0  0  0  0  0  0  0  0  0  0
  -11.0047    0.0309    0.0148 C   0  0  0  0  0  0  0  0  0  0  0  0
  2  4  2  0  0  0  0
  3  2  1  0  0  0  0
  3 11  2  0  0  0  0
  4 10  1  0  0  0  0
  4  1  1  0  0  0  0
  5 18  1  0  0  0  0
  6 28  1  0  0  0  0
  7  6  1  0  0  0  0
  8 24  2  0  0  0  0
  8 10  1  0  0  0  0
  9  8  1  0  0  0  0
 10 14  2  0  0  0  0
 11  6  1  0  0  0  0
 11  1  1  0  0  0  0
 12 28  2  0  0  0  0
 12 22  1  0  0  0  0
 13 12  1  0  0  0  0
 14 18  1  0  0  0  0
 14 15  1  0  0  0  0
 16 20  1  0  0  0  0
 16 17  1  0  0  0  0
 18 19  1  0  0  0  0
 20 21  1  0  0  0  0
 22 16  2  0  0  0  0
 23 22  1  0  0  0  0
 24  5  1  0  0  0  0
 25 24  1  0  0  0  0
 26 27  1  0  0  0  0
 26 20  2  0  0  0  0
 28 26  1  0  0  0  0
M  END
