2
q = 0.0, confidence = 0.998

 23 22  0  0  1  0  0  0  0  0999 V2000
    4.1440   -0.0002   -1.0650 O   0  0  0  0  0  0  0  0  0  0  0  0
    2.0038   -0.0002   -0.2440 N   0  0  0  0  0  2  0  0  0  0  0  0
    4.5048   -0.0002    0.3537 N   0  0  0  0  0  0  0  0  0  0  0  0
    2.8004   -0.0002   -1.2570 C   0  0  1  0  0  3  0  0  0  0  0  0
    2.4138   -0.0001   -2.6916 C   0  0  0  0  0  0  0  0  0  0  0  0
    5.2537    1.2361    0.5922 C   0  0  0  0  0  0  0  0  0  0  0  0
    4.3952    2.4822    0.4080 C   0  0  0  0  0  0  0  0  0  0  0  0
    5.2536   -1.2364    0.5923 C   0  0  0  0  0  0  0  0  0  0  0  0
    4.3951   -2.4825    0.4079 C   0  0  0  0  0  0  0  0  0  0  0  0
    2.5393   -0.0001    0.6469 H   0  0  0  0  0  0  0  0  0  0  0  0
    1.7738    0.8840   -2.8856 H   0  0  0  0  0  0  0  0  0  0  0  0
    1.7754   -0.8853   -2.8862 H   0  0  0  0  0  0  0  0  0  0  0  0
    3.3123    0.0009   -3.3327 H   0  0  0  0  0  0  0  0  0  0  0  0
    5.5954    1.1578    1.6455 H   0  0  0  0  0  0  0  0  0  0  0  0
    6.1699    1.2757   -0.0472 H   0  0  0  0  0  0  0  0  0  0  0  0
    4.9644    3.3824    0.7115 H   0  0  0  0  0  0  0  0  0  0  0  0
    3.4684    2.4280    1.0135 H   0  0  0  0  0  0  0  0  0  0  0  0
    4.1017    2.6158   -0.6519 H   0  0  0  0  0  0  0  0  0  0  0  0
    5.5952   -1.1582    1.6456 H   0  0  0  0  0  0  0  0  0  0  0  0
    6.1700   -1.2760   -0.0470 H   0  0  0  0  0  0  0  0  0  0  0  0
    4.9642   -3.3828    0.7115 H   0  0  0  0  0  0  0  0  0  0  0  0
    4.1019   -2.6161   -0.6520 H   0  0  0  0  0  0  0  0  0  0  0  0
    3.4682   -2.4283    1.0132 H   0  0  0  0  0  0  0  0  0  0  0  0
  1  3  1  0  0  0  0
  2 10  1  0  0  0  0
  3  6  1  0  0  0  0
  3  8  1  0  0  0  0
  4  1  1  1  0  0  0
  4  2  1  0  0  0  0
  5  4  1  0  0  0  0
  6 14  1  0  0  0  0
  7  6  1  0  0  0  0
  7 16  1  0  0  0  0
  7 17  1  0  0  0  0
  8 19  1  0  0  0  0
  9  8  1  0  0  0  0
  9 21  1  0  0  0  0
  9 23  1  0  0  0  0
 11  5  1  0  0  0  0
 12  5  1  0  0  0  0
 13  5  1  0  0  0  0
 15  6  1  0  0  0  0
 18  7  1  0  0  0  0
 20  8  1  0  0  0  0
 22  9  1  0  0  0  0
M  END
