2
q = -1.0

 26 27  0  0  0  0  0  0  0  0999 V2000
   -3.4385   -0.2353    0.9122 N   0  0  0  0  0  0  0  0  0  0  0  0
    0.9986    1.9865   -0.0353 N   0  0  0  0  0  0  0  0  0  0  0  0
   -1.0318    0.2326   -0.2794 N   0  0  0  0  0  0  0  0  0  0  0  0
   -1.3340    0.2982    0.7132 H   0  0  0  0  0  0  0  0  0  0  0  0
   -0.2426    2.5255   -0.3354 C   0  0  0  0  0  0  0  0  0  0  0  0
   -0.2232    3.9051   -0.1234 C   0  0  0  0  0  0  0  0  0  0  0  0
   -1.0544    4.6031   -0.2828 H   0  0  0  0  0  0  0  0  0  0  0  0
    1.0971    4.2214    0.3227 C   0  0  0  0  0  0  0  0  0  0  0  0
    1.4798    5.2136    0.5922 H   0  0  0  0  0  0  0  0  0  0  0  0
    1.8109    3.0212    0.3676 C   0  0  0  0  0  3  0  0  0  0  0  0
    2.8470    2.8436    0.6824 H   0  0  0  0  0  0  0  0  0  0  0  0
   -1.2679    1.5891   -0.8732 C   0  0  0  0  0  0  0  0  0  0  0  0
   -2.3027    1.9394   -0.6623 H   0  0  0  0  0  0  0  0  0  0  0  0
   -1.1819    1.4593   -1.9768 H   0  0  0  0  0  0  0  0  0  0  0  0
   -1.8997   -0.7988   -0.8657 C   0  0  0  0  0  0  0  0  0  0  0  0
   -1.8671   -0.7282   -1.9707 H   0  0  0  0  0  0  0  0  0  0  0  0
   -1.5006   -1.8000   -0.5948 H   0  0  0  0  0  0  0  0  0  0  0  0
   -3.3244   -0.7002   -0.3451 C   0  0  0  0  0  0  0  0  0  0  0  0
   -4.4383   -1.0986   -1.1060 C   0  0  0  0  0  0  0  0  0  0  0  0
   -4.3058   -1.4631   -2.1362 H   0  0  0  0  0  0  0  0  0  0  0  0
   -5.7115   -1.0162   -0.5261 C   0  0  0  0  0  0  0  0  0  0  0  0
   -6.6040   -1.3177   -1.0954 H   0  0  0  0  0  0  0  0  0  0  0  0
   -5.8297   -0.5341    0.7860 C   0  0  0  0  0  0  0  0  0  0  0  0
   -6.8096   -0.4477    1.2777 H   0  0  0  0  0  0  0  0  0  0  0  0
   -4.6595   -0.1530    1.4610 C   0  0  0  0  0  0  0  0  0  0  0  0
   -4.7081    0.2392    2.4919 H   0  0  0  0  0  0  0  0  0  0  0  0
  1 25  1  0  0  0  0
  2 10  1  0  0  0  0
  3  4  1  0  0  0  0
  5  6  1  0  0  0  0
  5  2  2  0  0  0  0
  6  8  2  0  0  0  0
  7  6  1  0  0  0  0
  8 10  1  0  0  0  0
  8  9  1  0  0  0  0
 10 11  1  0  0  0  0
 12 13  1  0  0  0  0
 12  5  1  0  0  0  0
 12  3  1  0  0  0  0
 14 12  1  0  0  0  0
 15 17  1  0  0  0  0
 15 18  1  0  0  0  0
 15  3  1  0  0  0  0
 16 15  1  0  0  0  0
 18  1  2  0  0  0  0
 19 21  2  0  0  0  0
 19 18  1  0  0  0  0
 20 19  1  0  0  0  0
 21 23  1  0  0  0  0
 22 21  1  0  0  0  0
 23 24  1  0  0  0  0
 23 25  2  0  0  0  0
 25 26  1  0  0  0  0
M  END
