1
q = -1.0

 34 36  0  0  0  0  0  0  0  0999 V2000
   -0.7386   -0.1293   -0.1165 N   0  0  0  0  0  2  0  0  0  0  0  0
   -0.8820    0.8806   -0.3041 H   0  0  0  0  0  0  0  0  0  0  0  0
   -2.8599    1.5355    0.1699 N   0  0  0  0  0  0  0  0  0  0  0  0
   -1.9728   -0.7147   -0.0011 C   0  0  0  0  0  0  0  0  0  0  0  0
   -3.1082    0.1552    0.0783 C   0  0  0  0  0  0  0  0  0  0  0  0
   -4.4257   -0.4092    0.0525 C   0  0  0  0  0  0  0  0  0  0  0  0
   -5.6086    0.3777    0.2046 C   0  0  0  0  0  0  0  0  0  0  0  0
   -5.5178    1.4594    0.3642 H   0  0  0  0  0  0  0  0  0  0  0  0
   -6.8674   -0.2047    0.1782 C   0  0  0  0  0  0  0  0  0  0  0  0
   -7.7631    0.4223    0.3026 H   0  0  0  0  0  0  0  0  0  0  0  0
   -7.0050   -1.6063    0.0036 C   0  0  0  0  0  0  0  0  0  0  0  0
   -8.0073   -2.0598   -0.0246 H   0  0  0  0  0  0  0  0  0  0  0  0
   -5.8749   -2.4047   -0.1091 C   0  0  0  0  0  0  0  0  0  0  0  0
   -5.9722   -3.4961   -0.2179 H   0  0  0  0  0  0  0  0  0  0  0  0
   -4.5677   -1.8441   -0.0735 C   0  0  0  0  0  0  0  0  0  0  0  0
   -3.4031   -2.6722   -0.1150 C   0  0  0  0  0  0  0  0  0  0  0  0
   -3.5367   -3.7622   -0.1913 H   0  0  0  0  0  0  0  0  0  0  0  0
   -2.1355   -2.1368   -0.0575 C   0  0  0  0  0  0  0  0  0  0  0  0
   -1.2313   -2.7579   -0.0979 H   0  0  0  0  0  0  0  0  0  0  0  0
   -3.4943    2.5150   -0.7061 C   0  0  0  0  0  0  0  0  0  0  0  0
   -4.3178    3.0618   -0.1796 H   0  0  0  0  0  0  0  0  0  0  0  0
   -3.9486    1.9826   -1.5638 H   0  0  0  0  0  0  0  0  0  0  0  0
   -2.4552    3.5436   -1.1760 C   0  0  0  0  0  0  0  0  0  0  0  0
   -2.9515    4.2970   -1.8232 H   0  0  0  0  0  0  0  0  0  0  0  0
   -1.6915    3.0288   -1.7999 H   0  0  0  0  0  0  0  0  0  0  0  0
   -1.7785    4.2186    0.0242 C   0  0  0  0  0  0  0  0  0  0  0  0
   -0.9988    4.9305   -0.3165 H   0  0  0  0  0  0  0  0  0  0  0  0
   -2.5363    4.8208    0.5752 H   0  0  0  0  0  0  0  0  0  0  0  0
   -1.1757    3.1756    0.9736 C   0  0  0  0  0  0  0  0  0  0  0  0
   -0.7822    3.6515    1.8955 H   0  0  0  0  0  0  0  0  0  0  0  0
   -0.3040    2.6831    0.4883 H   0  0  0  0  0  0  0  0  0  0  0  0
   -2.2129    2.1136    1.3540 C   0  0  0  0  0  0  0  0  0  0  0  0
   -1.7508    1.2975    1.9407 H   0  0  0  0  0  0  0  0  0  0  0  0
   -2.9965    2.5790    2.0049 H   0  0  0  0  0  0  0  0  0  0  0  0
  1  4  1  0  0  0  0
  2  1  1  0  0  0  0
  3 32  1  0  0  0  0
  4  5  1  0  0  0  0
  5  3  1  0  0  0  0
  6  5  2  0  0  0  0
  6  7  1  0  0  0  0
  7  8  1  0  0  0  0
  9  7  2  0  0  0  0
  9 10  1  0  0  0  0
 11  9  1  0  0  0  0
 12 11  1  0  0  0  0
 13 15  1  0  0  0  0
 13 11  2  0  0  0  0
 14 13  1  0  0  0  0
 15  6  1  0  0  0  0
 16 15  2  0  0  0  0
 16 18  1  0  0  0  0
 17 16  1  0  0  0  0
 18  4  2  0  0  0  0
 19 18  1  0  0  0  0
 20 21  1  0  0  0  0
 20  3  1  0  0  0  0
 22 20  1  0  0  0  0
 23 20  1  0  0  0  0
 23 26  1  0  0  0  0
 24 23  1  0  0  0  0
 25 23  1  0  0  0  0
 26 28  1  0  0  0  0
 26 29  1  0  0  0  0
 27 26  1  0  0  0  0
 29 32  1  0  0  0  0
 29 30  1  0  0  0  0
 31 29  1  0  0  0  0
 32 33  1  0  0  0  0
 32 34  1  0  0  0  0
M  END
