1
q = 0.0, confidence = 0.996

 16 17  0  0  1  0  0  0  0  0999 V2000
    0.0794    0.7403   -1.4878 N   0  0  0  0  0  2  0  0  0  0  0  0
    1.1975    0.2002   -1.9715 C   0  0  1  0  0  3  0  0  0  0  0  0
    1.0958   -1.1302   -2.2641 O   0  0  0  0  0  0  0  0  0  0  0  0
   -0.1940   -1.4808   -1.8933 C   0  0  0  0  0  0  0  0  0  0  0  0
   -0.7975   -2.7325   -1.8898 C   0  0  0  0  0  0  0  0  0  0  0  0
   -2.1100   -2.7907   -1.3797 C   0  0  0  0  0  0  0  0  0  0  0  0
   -2.7559   -1.6220   -0.9227 C   0  0  0  0  0  0  0  0  0  0  0  0
   -2.1510   -0.3543   -0.9604 C   0  0  0  0  0  0  0  0  0  0  0  0
   -0.8351   -0.3130   -1.4349 C   0  0  0  0  0  0  0  0  0  0  0  0
    2.3594    0.8190   -2.2018 N   0  0  0  0  0  0  0  0  0  0  0  0
   -4.3645   -1.7512   -0.2452 Cl  0  0  0  0  0  0  0  0  0  0  0  0
    2.4576    1.7407   -1.7178 H   0  0  0  0  0  0  0  0  0  0  0  0
    3.1903    0.2308   -2.2879 H   0  0  0  0  0  0  0  0  0  0  0  0
   -0.2771   -3.6331   -2.2421 H   0  0  0  0  0  0  0  0  0  0  0  0
   -2.6411   -3.7506   -1.3288 H   0  0  0  0  0  0  0  0  0  0  0  0
   -2.6543    0.5609   -0.6192 H   0  0  0  0  0  0  0  0  0  0  0  0
  1  9  1  0  0  0  0
  2 10  1  6  0  0  0
  2  1  1  0  0  0  0
  3  2  1  0  0  0  0
  3  4  1  0  0  0  0
  4  5  2  0  0  0  0
  4  9  1  0  0  0  0
  5  6  1  0  0  0  0
  6 15  1  0  0  0  0
  6  7  2  0  0  0  0
  7 11  1  0  0  0  0
  8  7  1  0  0  0  0
  8 16  1  0  0  0  0
  9  8  2  0  0  0  0
 10 12  1  0  0  0  0
 13 10  1  0  0  0  0
 14  5  1  0  0  0  0
M  END
