5
q = -1.0

 29 30  0  0  0  0  0  0  0  0999 V2000
   -7.0714   -2.0342    0.2158 I   0  0  0  0  0  0  0  0  0  0  0  0
    6.9527   -2.0807   -0.3606 I   0  0  0  0  0  0  0  0  0  0  0  0
    0.4791   -1.2191    1.1261 S   0  0  0  0  0  0  0  0  0  0  0  0
   -0.8099   -0.3287   -1.4145 S   0  0  0  0  0  0  0  0  0  0  0  0
   -0.0513    0.0058    0.0716 N   0  0  0  0  0  2  0  0  0  0  0  0
    0.4323   -0.6351    2.4837 O   0  0  0  0  0  0  0  0  0  0  0  0
   -0.2317   -2.4742    0.8059 O   0  0  0  0  0  0  0  0  0  0  0  0
   -0.8839    0.9887   -2.0949 O   0  0  0  0  0  0  0  0  0  0  0  0
   -0.1778   -1.4859   -2.0840 O   0  0  0  0  0  0  0  0  0  0  0  0
    2.2183   -1.4352    0.7039 C   0  0  0  0  0  0  0  0  0  0  0  0
    2.5716   -1.9358   -0.5592 C   0  0  0  0  0  0  0  0  0  0  0  0
    1.7904   -2.1494   -1.3049 H   0  0  0  0  0  0  0  0  0  0  0  0
    3.9274   -2.1175   -0.8623 C   0  0  0  0  0  0  0  0  0  0  0  0
    4.2225   -2.5014   -1.8490 H   0  0  0  0  0  0  0  0  0  0  0  0
    4.9011   -1.8041    0.1038 C   0  0  0  0  0  0  0  0  0  0  0  0
    4.5421   -1.3091    1.3681 C   0  0  0  0  0  0  0  0  0  0  0  0
    5.3115   -1.0705    2.1159 H   0  0  0  0  0  0  0  0  0  0  0  0
    3.1843   -1.1231    1.6696 C   0  0  0  0  0  0  0  0  0  0  0  0
    2.8631   -0.7396    2.6488 H   0  0  0  0  0  0  0  0  0  0  0  0
   -2.4888   -0.8000   -0.9821 C   0  0  0  0  0  0  0  0  0  0  0  0
   -2.7969   -2.1507   -0.7657 C   0  0  0  0  0  0  0  0  0  0  0  0
   -2.0078   -2.9097   -0.8485 H   0  0  0  0  0  0  0  0  0  0  0  0
   -4.1094   -2.5028   -0.4220 C   0  0  0  0  0  0  0  0  0  0  0  0
   -4.3657   -3.5567   -0.2449 H   0  0  0  0  0  0  0  0  0  0  0  0
   -5.0869   -1.4997   -0.3058 C   0  0  0  0  0  0  0  0  0  0  0  0
   -4.7759   -0.1476   -0.5325 C   0  0  0  0  0  0  0  0  0  0  0  0
   -5.5518    0.6263   -0.4485 H   0  0  0  0  0  0  0  0  0  0  0  0
   -3.4633    0.2031   -0.8762 C   0  0  0  0  0  0  0  0  0  0  0  0
   -3.1910    1.2486   -1.0792 H   0  0  0  0  0  0  0  0  0  0  0  0
  2 15  1  0  0  0  0
  3  6  2  0  0  0  0
  4 20  1  0  0  0  0
  4  5  1  0  0  0  0
  5  3  1  0  0  0  0
  7  3  2  0  0  0  0
  8  4  2  0  0  0  0
  9  4  2  0  0  0  0
 10  3  1  0  0  0  0
 10 18  1  0  0  0  0
 11 10  2  0  0  0  0
 12 11  1  0  0  0  0
 13 11  1  0  0  0  0
 13 15  2  0  0  0  0
 14 13  1  0  0  0  0
 15 16  1  0  0  0  0
 16 18  2  0  0  0  0
 16 17  1  0  0  0  0
 18 19  1  0  0  0  0
 20 28  2  0  0  0  0
 20 21  1  0  0  0  0
 21 23  2  0  0  0  0
 22 21  1  0  0  0  0
 23 25  1  0  0  0  0
 23 24  1  0  0  0  0
 25  1  1  0  0  0  0
 26 27  1  0  0  0  0
 26 25  2  0  0  0  0
 28 26  1  0  0  0  0
 29 28  1  0  0  0  0
M  END
