2
q = -1.0

 18 18  0  0  0  0  0  0  0  0999 V2000
    0.0291    1.0187    1.8027 O   0  0  0  0  0  1  0  0  0  0  0  0
   -0.1463    1.4025    0.5637 N   0  0  0  0  0  2  0  0  0  0  0  0
   -0.4065    2.6251    0.1801 C   0  0  0  0  0  3  0  0  0  0  0  0
   -0.5738    3.7326    1.1836 C   0  0  0  0  0  0  0  0  0  0  0  0
   -1.8629    4.5283    0.9032 C   0  0  0  0  0  0  0  0  0  0  0  0
   -1.9382    4.9816   -0.5606 C   0  0  0  0  0  0  0  0  0  0  0  0
   -1.8359    3.7898   -1.5217 C   0  0  0  0  0  0  0  0  0  0  0  0
   -0.5554    2.9704   -1.2711 C   0  0  0  0  0  0  0  0  0  0  0  0
   -0.5599    3.3113    2.2068 H   0  0  0  0  0  0  0  0  0  0  0  0
    0.3001    4.4214    1.1035 H   0  0  0  0  0  0  0  0  0  0  0  0
   -2.7388    3.8827    1.1333 H   0  0  0  0  0  0  0  0  0  0  0  0
   -1.9228    5.4007    1.5866 H   0  0  0  0  0  0  0  0  0  0  0  0
   -1.1055    5.6919   -0.7681 H   0  0  0  0  0  0  0  0  0  0  0  0
   -2.8783    5.5430   -0.7432 H   0  0  0  0  0  0  0  0  0  0  0  0
   -1.8644    4.1315   -2.5771 H   0  0  0  0  0  0  0  0  0  0  0  0
   -2.7199    3.1295   -1.3791 H   0  0  0  0  0  0  0  0  0  0  0  0
   -0.5316    2.0474   -1.8831 H   0  0  0  0  0  0  0  0  0  0  0  0
    0.3234    3.5855   -1.5816 H   0  0  0  0  0  0  0  0  0  0  0  0
  2  1  1  0  0  0  0
  3  2  1  0  0  0  0
  3  4  1  0  0  0  0
  4  9  1  0  0  0  0
  5 11  1  0  0  0  0
  5  4  1  0  0  0  0
  5 12  1  0  0  0  0
  6  5  1  0  0  0  0
  7 16  1  0  0  0  0
  7  8  1  0  0  0  0
  7  6  1  0  0  0  0
  8  3  1  0  0  0  0
 10  4  1  0  0  0  0
 13  6  1  0  0  0  0
 14  6  1  0  0  0  0
 15  7  1  0  0  0  0
 17  8  1  0  0  0  0
 18  8  1  0  0  0  0
M  END
