1
q = -1.0, confidence = 0.032

 26 28  0  0  0  0  0  0  0  0999 V2000
    2.0262   -0.2349   -0.8198 N   0  0  0  0  0  0  0  0  0  0  0  0
    3.1440   -0.8380   -0.4023 N   0  0  0  0  0  2  0  0  0  0  0  0
    3.6681    1.2531   -1.1216 N   0  0  0  0  0  0  0  0  0  0  0  0
    0.0753    1.4627   -1.8440 N   0  0  0  0  0  0  0  0  0  0  0  0
    9.1959    1.7820   -0.3734 Br  0  0  0  0  0  0  0  0  0  0  0  0
    7.6008   -3.3454    1.5640 Br  0  0  0  0  0  0  0  0  0  0  0  0
    4.1200    0.0833   -0.5951 C   0  0  0  0  0  0  0  0  0  0  0  0
    2.3482    1.0239   -1.2496 C   0  0  0  0  0  0  0  0  0  0  0  0
    1.3389    1.9430   -1.7741 C   0  0  0  0  0  0  0  0  0  0  0  0
    1.6751    3.2545   -2.1723 C   0  0  0  0  0  0  0  0  0  0  0  0
    2.7195    3.5858   -2.0862 H   0  0  0  0  0  0  0  0  0  0  0  0
    0.6585    4.0837   -2.6574 C   0  0  0  0  0  0  0  0  0  0  0  0
    0.8826    5.1160   -2.9656 H   0  0  0  0  0  0  0  0  0  0  0  0
   -0.6509    3.5819   -2.7410 C   0  0  0  0  0  0  0  0  0  0  0  0
   -1.4797    4.2001   -3.1156 H   0  0  0  0  0  0  0  0  0  0  0  0
   -0.8859    2.2626   -2.3210 C   0  0  0  0  0  0  0  0  0  0  0  0
   -1.9028    1.8333   -2.3588 H   0  0  0  0  0  0  0  0  0  0  0  0
    5.5130   -0.1938   -0.2289 C   0  0  0  0  0  0  0  0  0  0  0  0
    6.5173    0.7704   -0.4526 C   0  0  0  0  0  0  0  0  0  0  0  0
    6.2472    1.7281   -0.9171 H   0  0  0  0  0  0  0  0  0  0  0  0
    7.8340    0.4831   -0.0724 C   0  0  0  0  0  0  0  0  0  0  0  0
    8.1866   -0.7372    0.5290 C   0  0  0  0  0  0  0  0  0  0  0  0
    9.2228   -0.9456    0.8242 H   0  0  0  0  0  0  0  0  0  0  0  0
    7.1651   -1.6787    0.7396 C   0  0  0  0  0  0  0  0  0  0  0  0
    5.8407   -1.4307    0.3698 C   0  0  0  0  0  0  0  0  0  0  0  0
    5.0482   -2.1708    0.5397 H   0  0  0  0  0  0  0  0  0  0  0  0
  1  2  1  0  0  0  0
  3  7  2  0  0  0  0
  4  9  1  0  0  0  0
  5 21  1  0  0  0  0
  7  2  1  0  0  0  0
  7 18  1  0  0  0  0
  8  3  1  0  0  0  0
  8  1  2  0  0  0  0
  9  8  1  0  0  0  0
 10 11  1  0  0  0  0
 10  9  2  0  0  0  0
 12 10  1  0  0  0  0
 13 12  1  0  0  0  0
 14 12  2  0  0  0  0
 14 16  1  0  0  0  0
 15 14  1  0  0  0  0
 16  4  2  0  0  0  0
 17 16  1  0  0  0  0
 18 25  1  0  0  0  0
 19 18  2  0  0  0  0
 19 21  1  0  0  0  0
 20 19  1  0  0  0  0
 21 22  2  0  0  0  0
 22 24  1  0  0  0  0
 22 23  1  0  0  0  0
 24  6  1  0  0  0  0
 25 26  1  0  0  0  0
 25 24  2  0  0  0  0
M  END
