1
q = -1.0, confidence = 0.0

 26 27  0  0  0  0  0  0  0  0999 V2000
    0.6815   -1.6957   -0.4474 N   0  0  0  0  0  2  0  0  0  0  0  0
    0.0479   -2.5212   -1.3076 N   0  0  0  0  0  0  0  0  0  0  0  0
    0.7307   -3.6054   -1.5736 C   0  0  0  0  0  0  0  0  0  0  0  0
    2.2853   -3.6885   -0.7372 S   0  0  0  0  0  0  0  0  0  0  0  0
    1.8908   -2.1040    0.0081 C   0  0  0  0  0  0  0  0  0  0  0  0
    2.5743   -1.3805    0.8748 N   0  0  0  0  0  0  0  0  0  0  0  0
    4.1356   -1.8120    1.3216 S   0  0  0  0  0  0  0  0  0  0  0  0
    4.5596   -3.0278    0.5654 O   0  0  0  0  0  0  0  0  0  0  0  0
    4.2038   -1.7812    2.7934 O   0  0  0  0  0  0  0  0  0  0  0  0
    5.0655   -0.4206    0.6910 C   0  0  0  0  0  0  0  0  0  0  0  0
    5.7906   -0.5555   -0.5024 C   0  0  0  0  0  0  0  0  0  0  0  0
    6.4869    0.5418   -1.0161 C   0  0  0  0  0  0  0  0  0  0  0  0
    6.4623    1.7913   -0.3467 C   0  0  0  0  0  0  0  0  0  0  0  0
    7.0776    2.9032   -0.8978 N   0  0  0  0  0  0  0  0  0  0  0  0
    7.8107    2.7312   -1.5863 H   0  0  0  0  0  0  0  0  0  0  0  0
    7.2870    3.6752   -0.2642 H   0  0  0  0  0  0  0  0  0  0  0  0
    5.7261    1.8992    0.8622 C   0  0  0  0  0  0  0  0  0  0  0  0
    5.0364    0.8031    1.3837 C   0  0  0  0  0  0  0  0  0  0  0  0
    4.4391    0.8991    2.3031 H   0  0  0  0  0  0  0  0  0  0  0  0
    5.6975    2.8637    1.3937 H   0  0  0  0  0  0  0  0  0  0  0  0
    7.0585    0.4395   -1.9520 H   0  0  0  0  0  0  0  0  0  0  0  0
    5.8041   -1.5300   -1.0118 H   0  0  0  0  0  0  0  0  0  0  0  0
    0.2585   -4.6654   -2.5113 C   0  0  0  0  0  0  0  0  0  0  0  0
    0.9688   -4.8086   -3.3517 H   0  0  0  0  0  0  0  0  0  0  0  0
    0.1504   -5.6441   -1.9997 H   0  0  0  0  0  0  0  0  0  0  0  0
   -0.7238   -4.3680   -2.9245 H   0  0  0  0  0  0  0  0  0  0  0  0
  1  5  1  0  0  0  0
  2  1  1  0  0  0  0
  3  2  2  0  0  0  0
  3  4  1  0  0  0  0
  4  5  1  0  0  0  0
  5  6  2  0  0  0  0
  6  7  1  0  0  0  0
  7  9  2  0  0  0  0
  8  7  2  0  0  0  0
 10  7  1  0  0  0  0
 10 18  1  0  0  0  0
 11 10  2  0  0  0  0
 12 11  1  0  0  0  0
 12 13  2  0  0  0  0
 13 17  1  0  0  0  0
 14 13  1  0  0  0  0
 14 16  1  0  0  0  0
 15 14  1  0  0  0  0
 17 18  2  0  0  0  0
 17 20  1  0  0  0  0
 18 19  1  0  0  0  0
 21 12  1  0  0  0  0
 22 11  1  0  0  0  0
 23 25  1  0  0  0  0
 23  3  1  0  0  0  0
 24 23  1  0  0  0  0
 26 23  1  0  0  0  0
M  END
