3
q = 0.0, confidence = 0.976

 12 11  0  0  0  0  0  0  0  0999 V2000
   -2.2285   -1.1869   -1.8118 O   0  0  0  0  0  0  0  0  0  0  0  0
   -3.1732   -1.4604   -1.8773 H   0  0  0  0  0  0  0  0  0  0  0  0
   -2.0318   -0.7249   -0.5377 N   0  0  0  0  0  2  0  0  0  0  0  0
   -3.0162   -0.7047    0.3037 C   0  0  0  0  0  3  0  0  0  0  0  0
   -4.0066   -1.0483   -0.0603 H   0  0  0  0  0  0  0  0  0  0  0  0
   -2.8764   -0.1889    1.6976 C   0  0  0  0  0  0  0  0  0  0  0  0
   -1.8041   -0.2441    1.9783 H   0  0  0  0  0  0  0  0  0  0  0  0
   -3.4380   -0.8715    2.3708 H   0  0  0  0  0  0  0  0  0  0  0  0
   -3.3928    1.2536    1.8433 C   0  0  0  0  0  0  0  0  0  0  0  0
   -3.3131    1.5798    2.8990 H   0  0  0  0  0  0  0  0  0  0  0  0
   -4.4555    1.3443    1.5392 H   0  0  0  0  0  0  0  0  0  0  0  0
   -2.7880    1.9366    1.2140 H   0  0  0  0  0  0  0  0  0  0  0  0
  1  3  1  0  0  0  0
  2  1  1  0  0  0  0
  3  4  1  0  0  0  0
  4  6  1  0  0  0  0
  5  4  1  0  0  0  0
  6  9  1  0  0  0  0
  6  7  1  0  0  0  0
  6  8  1  0  0  0  0
  9 10  1  0  0  0  0
 11  9  1  0  0  0  0
 12  9  1  0  0  0  0
M  END
