21
q = 0.0, confidence = 0.996

 23 23  0  0  1  0  0  0  0  0999 V2000
   -2.0932   -0.9832   -0.5379 C   0  0  1  0  0  3  0  0  0  0  0  0
   -1.8013   -2.4315   -0.2526 C   0  0  0  0  0  0  0  0  0  0  0  0
   -0.7417   -2.5411    0.0240 H   0  0  0  0  0  0  0  0  0  0  0  0
   -2.0056   -3.0719   -1.1309 H   0  0  0  0  0  0  0  0  0  0  0  0
   -2.4109   -2.8020    0.5965 H   0  0  0  0  0  0  0  0  0  0  0  0
   -4.3738   -1.6133   -1.3141 C   0  0  0  0  0  0  0  0  0  0  0  0
   -4.0291   -2.6522   -1.1795 H   0  0  0  0  0  0  0  0  0  0  0  0
   -4.7812   -1.5367   -2.3457 H   0  0  0  0  0  0  0  0  0  0  0  0
   -5.4555   -1.2449   -0.2875 C   0  0  0  0  0  0  0  0  0  0  0  0
   -6.3204   -1.9292   -0.4058 H   0  0  0  0  0  0  0  0  0  0  0  0
   -5.0493   -1.4159    0.7336 H   0  0  0  0  0  0  0  0  0  0  0  0
   -5.8930    0.2184   -0.4414 C   0  0  0  0  0  0  0  0  0  0  0  0
   -6.6023    0.4969    0.3635 H   0  0  0  0  0  0  0  0  0  0  0  0
   -6.4473    0.3342   -1.3992 H   0  0  0  0  0  0  0  0  0  0  0  0
   -4.6863    1.1686   -0.4461 C   0  0  0  0  0  0  0  0  0  0  0  0
   -5.0015    2.2069   -0.6759 H   0  0  0  0  0  0  0  0  0  0  0  0
   -4.2081    1.1903    0.5577 H   0  0  0  0  0  0  0  0  0  0  0  0
   -3.6545    0.7003   -1.4807 C   0  0  0  0  0  0  0  0  0  0  0  0
   -4.1049    0.7124   -2.4970 H   0  0  0  0  0  0  0  0  0  0  0  0
   -2.7723    1.3675   -1.5378 H   0  0  0  0  0  0  0  0  0  0  0  0
   -1.2286   -0.0669   -0.1447 N   0  0  0  0  0  2  0  0  0  0  0  0
   -1.5569    0.8841   -0.3485 H   0  0  0  0  0  0  0  0  0  0  0  0
   -3.2395   -0.6815   -1.2125 N   0  0  0  0  0  0  0  0  0  0  0  0
  1  2  1  0  0  0  0
  1 21  1  6  0  0  0
  2  3  1  0  0  0  0
  2  5  1  0  0  0  0
  4  2  1  0  0  0  0
  6 23  1  0  0  0  0
  6  7  1  0  0  0  0
  6  9  1  0  0  0  0
  8  6  1  0  0  0  0
  9 11  1  0  0  0  0
 10  9  1  0  0  0  0
 12  9  1  0  0  0  0
 12 13  1  0  0  0  0
 14 12  1  0  0  0  0
 15 12  1  0  0  0  0
 15 17  1  0  0  0  0
 16 15  1  0  0  0  0
 18 23  1  0  0  0  0
 18 15  1  0  0  0  0
 19 18  1  0  0  0  0
 20 18  1  0  0  0  0
 22 21  1  0  0  0  0
 23  1  1  0  0  0  0
M  END
