2
q = 0.0, confidence = 0.994

 21 21  0  0  1  0  0  0  0  0999 V2000
   -6.1695    0.3252   -0.7204 O   0  0  0  0  0  0  0  0  0  0  0  0
   -1.2084    0.0537    0.1885 N   0  0  0  0  0  2  0  0  0  0  0  0
   -1.4969    1.0140   -0.0340 H   0  0  0  0  0  0  0  0  0  0  0  0
   -3.4489   -0.4297   -0.3523 N   0  0  0  0  0  0  0  0  0  0  0  0
   -2.1846   -0.8116   -0.0045 C   0  0  2  0  0  3  0  0  0  0  0  0
   -1.9126   -2.2812    0.1642 C   0  0  0  0  0  0  0  0  0  0  0  0
   -1.9471   -2.8055   -0.8123 H   0  0  0  0  0  0  0  0  0  0  0  0
   -2.6491   -2.7596    0.8382 H   0  0  0  0  0  0  0  0  0  0  0  0
   -0.9087   -2.4208    0.5924 H   0  0  0  0  0  0  0  0  0  0  0  0
   -4.4332   -1.3590   -0.9268 C   0  0  0  0  0  0  0  0  0  0  0  0
   -4.1835   -2.3978   -0.6510 H   0  0  0  0  0  0  0  0  0  0  0  0
   -4.3993   -1.2810   -2.0381 H   0  0  0  0  0  0  0  0  0  0  0  0
   -5.8445   -1.0228   -0.4441 C   0  0  0  0  0  0  0  0  0  0  0  0
   -6.5816   -1.6573   -0.9738 H   0  0  0  0  0  0  0  0  0  0  0  0
   -5.9235   -1.2306    0.6517 H   0  0  0  0  0  0  0  0  0  0  0  0
   -5.2843    1.1870   -0.0402 C   0  0  0  0  0  0  0  0  0  0  0  0
   -5.3514    1.0297    1.0647 H   0  0  0  0  0  0  0  0  0  0  0  0
   -5.5940    2.2268   -0.2627 H   0  0  0  0  0  0  0  0  0  0  0  0
   -3.8300    0.9800   -0.4839 C   0  0  0  0  0  0  0  0  0  0  0  0
   -3.7009    1.3138   -1.5393 H   0  0  0  0  0  0  0  0  0  0  0  0
   -3.1857    1.6073    0.1633 H   0  0  0  0  0  0  0  0  0  0  0  0
  1 13  1  0  0  0  0
  1 16  1  0  0  0  0
  3  2  1  0  0  0  0
  4  5  1  0  0  0  0
  5  6  1  0  0  0  0
  5  2  1  1  0  0  0
  6  9  1  0  0  0  0
  6  8  1  0  0  0  0
  7  6  1  0  0  0  0
 10 11  1  0  0  0  0
 10 13  1  0  0  0  0
 10  4  1  0  0  0  0
 12 10  1  0  0  0  0
 13 15  1  0  0  0  0
 14 13  1  0  0  0  0
 16 17  1  0  0  0  0
 18 16  1  0  0  0  0
 19  4  1  0  0  0  0
 19 16  1  0  0  0  0
 19 21  1  0  0  0  0
 20 19  1  0  0  0  0
M  END
