1
q = 0.0, confidence = 0.99

 22 22  0  0  1  0  0  0  0  0999 V2000
   -1.2287   -0.0538   -0.1309 N   0  0  0  0  0  2  0  0  0  0  0  0
   -1.5473    0.9005   -0.3343 H   0  0  0  0  0  0  0  0  0  0  0  0
   -3.2751   -0.6544   -1.1432 N   0  0  0  0  0  0  0  0  0  0  0  0
   -5.9260    0.2436   -0.4380 N   0  0  0  0  0  0  0  0  0  0  0  0
   -6.5122    0.3668   -1.2716 H   0  0  0  0  0  0  0  0  0  0  0  0
   -2.1138   -0.9627   -0.4966 C   0  0  1  0  0  3  0  0  0  0  0  0
   -1.8249   -2.4127   -0.2160 C   0  0  0  0  0  0  0  0  0  0  0  0
   -2.0835   -3.0573   -1.0768 H   0  0  0  0  0  0  0  0  0  0  0  0
   -2.3877   -2.7716    0.6694 H   0  0  0  0  0  0  0  0  0  0  0  0
   -0.7521   -2.5310    0.0012 H   0  0  0  0  0  0  0  0  0  0  0  0
   -4.4089   -1.5835   -1.2527 C   0  0  0  0  0  0  0  0  0  0  0  0
   -4.0875   -2.6181   -1.0436 H   0  0  0  0  0  0  0  0  0  0  0  0
   -4.7815   -1.5532   -2.3004 H   0  0  0  0  0  0  0  0  0  0  0  0
   -5.5267   -1.1443   -0.2794 C   0  0  0  0  0  0  0  0  0  0  0  0
   -6.4105   -1.8021   -0.4035 H   0  0  0  0  0  0  0  0  0  0  0  0
   -5.1558   -1.2918    0.7606 H   0  0  0  0  0  0  0  0  0  0  0  0
   -4.7980    1.1580   -0.4531 C   0  0  0  0  0  0  0  0  0  0  0  0
   -4.3604    1.2061    0.5701 H   0  0  0  0  0  0  0  0  0  0  0  0
   -5.1486    2.1793   -0.7050 H   0  0  0  0  0  0  0  0  0  0  0  0
   -3.6892    0.7217   -1.4358 C   0  0  0  0  0  0  0  0  0  0  0  0
   -4.0827    0.7367   -2.4760 H   0  0  0  0  0  0  0  0  0  0  0  0
   -2.8221    1.4111   -1.4252 H   0  0  0  0  0  0  0  0  0  0  0  0
  2  1  1  0  0  0  0
  3  6  1  0  0  0  0
  4 14  1  0  0  0  0
  5  4  1  0  0  0  0
  6  7  1  0  0  0  0
  6  1  1  6  0  0  0
  7 10  1  0  0  0  0
  7  9  1  0  0  0  0
  8  7  1  0  0  0  0
 11  3  1  0  0  0  0
 11 12  1  0  0  0  0
 11 14  1  0  0  0  0
 13 11  1  0  0  0  0
 14 16  1  0  0  0  0
 15 14  1  0  0  0  0
 17  4  1  0  0  0  0
 17 18  1  0  0  0  0
 19 17  1  0  0  0  0
 20 22  1  0  0  0  0
 20  3  1  0  0  0  0
 20 17  1  0  0  0  0
 21 20  1  0  0  0  0
M  END
