1
q = 0.0, confidence = 0.994

 15 15  0  0  0  0  0  0  0  0999 V2000
   -1.6854   -0.4459   -0.4624 N   0  0  0  0  0  2  0  0  0  0  0  0
   -2.2939   -1.0424    0.5874 C   0  0  0  0  0  3  0  0  0  0  0  0
   -1.8682   -2.0093    0.9019 H   0  0  0  0  0  0  0  0  0  0  0  0
   -3.3973   -0.4786    1.2282 C   0  0  0  0  0  0  0  0  0  0  0  0
   -3.8664   -0.9657    2.0951 H   0  0  0  0  0  0  0  0  0  0  0  0
   -3.9158    0.7458    0.7604 C   0  0  0  0  0  0  0  0  0  0  0  0
   -3.2708    1.3541   -0.3374 C   0  0  0  0  0  0  0  0  0  0  0  0
   -3.6006    2.3268   -0.7303 H   0  0  0  0  0  0  0  0  0  0  0  0
   -2.1596    0.7318   -0.9155 C   0  0  0  0  0  0  0  0  0  0  0  0
   -1.6362    1.1886   -1.7727 H   0  0  0  0  0  0  0  0  0  0  0  0
   -5.0904    1.3812    1.4354 C   0  0  0  0  0  0  0  0  0  0  0  0
   -5.8876    2.1269    0.6325 N   0  0  0  0  0  0  0  0  0  0  0  0
   -6.7016    2.5799    1.0520 H   0  0  0  0  0  0  0  0  0  0  0  0
   -5.8189    2.0844   -0.3856 H   0  0  0  0  0  0  0  0  0  0  0  0
   -5.3371    1.2229    3.0720 S   0  0  0  0  0  0  0  0  0  0  0  0
  1  2  1  0  0  0  0
  2  3  1  0  0  0  0
  2  4  1  0  0  0  0
  4  5  1  0  0  0  0
  6  4  2  0  0  0  0
  6 11  1  0  0  0  0
  7  6  1  0  0  0  0
  8  7  1  0  0  0  0
  9  1  1  0  0  0  0
  9  7  2  0  0  0  0
 10  9  1  0  0  0  0
 11 15  2  0  0  0  0
 12 13  1  0  0  0  0
 12 11  1  0  0  0  0
 14 12  1  0  0  0  0
M  END
