5
q = 0.0, confidence = 0.982

 62 66  0  0  0  0  0  0  0  0999 V2000
   -1.6827   -0.2577   -2.9487 Se  0  0  0  0  0  1  0  0  0  0  0  0
   -1.9767    1.2328    3.1221 Se  0  0  0  0  0  1  0  0  0  0  0  0
   -1.4741   -1.0753   -1.0023 P   0  0  0  0  0  4  0  0  0  0  0  0
   -1.9762    1.2826    0.9989 P   0  0  0  0  0  4  0  0  0  0  0  0
    2.3964   -1.1582    1.0893 N   0  0  0  0  0  2  0  0  0  0  0  0
   -0.9951    0.0015    0.3046 N   0  0  0  0  0  0  0  0  0  0  0  0
    3.0617   -2.0810    1.8188 C   0  0  0  0  0  3  0  0  0  0  0  0
    4.1130   -2.2462    1.5316 H   0  0  0  0  0  0  0  0  0  0  0  0
    2.4711   -2.7436    2.8968 C   0  0  0  0  0  0  0  0  0  0  0  0
    3.0478   -3.4905    3.4602 H   0  0  0  0  0  0  0  0  0  0  0  0
    1.1557   -2.4065    3.2514 C   0  0  0  0  0  0  0  0  0  0  0  0
    0.6711   -2.8759    4.1211 H   0  0  0  0  0  0  0  0  0  0  0  0
    0.4673   -1.4591    2.4885 C   0  0  0  0  0  0  0  0  0  0  0  0
   -0.5503   -1.1255    2.7442 H   0  0  0  0  0  0  0  0  0  0  0  0
    1.1101   -0.8633    1.3904 C   0  0  0  0  0  0  0  0  0  0  0  0
    0.4449    0.1911    0.5393 C   0  0  0  0  0  0  0  0  0  0  0  0
    0.5917    1.1615    1.0625 H   0  0  0  0  0  0  0  0  0  0  0  0
    0.9927    0.2954   -0.4235 H   0  0  0  0  0  0  0  0  0  0  0  0
   -0.1396   -2.3427   -0.9671 C   0  0  0  0  0  0  0  0  0  0  0  0
    0.9290   -2.1958   -1.8721 C   0  0  0  0  0  0  0  0  0  0  0  0
    0.9210   -1.3623   -2.5907 H   0  0  0  0  0  0  0  0  0  0  0  0
    2.0039   -3.0952   -1.8418 C   0  0  0  0  0  0  0  0  0  0  0  0
    2.8447   -2.9505   -2.5366 H   0  0  0  0  0  0  0  0  0  0  0  0
    2.0040   -4.1621   -0.9300 C   0  0  0  0  0  0  0  0  0  0  0  0
    2.8455   -4.8713   -0.9097 H   0  0  0  0  0  0  0  0  0  0  0  0
    0.9254   -4.3271   -0.0451 C   0  0  0  0  0  0  0  0  0  0  0  0
    0.9151   -5.1686    0.6640 H   0  0  0  0  0  0  0  0  0  0  0  0
   -0.1444   -3.4201   -0.0572 C   0  0  0  0  0  0  0  0  0  0  0  0
   -0.9826   -3.5571    0.6399 H   0  0  0  0  0  0  0  0  0  0  0  0
   -2.9816   -1.8721   -0.3313 C   0  0  0  0  0  0  0  0  0  0  0  0
   -3.0926   -2.1852    1.0396 C   0  0  0  0  0  0  0  0  0  0  0  0
   -2.3063   -1.8741    1.7414 H   0  0  0  0  0  0  0  0  0  0  0  0
   -4.2346   -2.8450    1.5135 C   0  0  0  0  0  0  0  0  0  0  0  0
   -4.3217   -3.0791    2.5853 H   0  0  0  0  0  0  0  0  0  0  0  0
   -5.2710   -3.1839    0.6283 C   0  0  0  0  0  0  0  0  0  0  0  0
   -6.1702   -3.6952    1.0046 H   0  0  0  0  0  0  0  0  0  0  0  0
   -5.1659   -2.8579   -0.7330 C   0  0  0  0  0  0  0  0  0  0  0  0
   -5.9832   -3.1082   -1.4260 H   0  0  0  0  0  0  0  0  0  0  0  0
   -4.0225   -2.2051   -1.2161 C   0  0  0  0  0  0  0  0  0  0  0  0
   -3.9260   -1.9268   -2.2777 H   0  0  0  0  0  0  0  0  0  0  0  0
   -1.1999    2.8022    0.3119 C   0  0  0  0  0  0  0  0  0  0  0  0
   -0.6285    2.7955   -0.9779 C   0  0  0  0  0  0  0  0  0  0  0  0
   -0.6409    1.8818   -1.5968 H   0  0  0  0  0  0  0  0  0  0  0  0
   -0.0224    3.9587   -1.4753 C   0  0  0  0  0  0  0  0  0  0  0  0
    0.4412    3.9371   -2.4729 H   0  0  0  0  0  0  0  0  0  0  0  0
    0.0103    5.1267   -0.6962 C   0  0  0  0  0  0  0  0  0  0  0  0
    0.4905    6.0363   -1.0882 H   0  0  0  0  0  0  0  0  0  0  0  0
   -0.5578    5.1305    0.5891 C   0  0  0  0  0  0  0  0  0  0  0  0
   -0.5262    6.0423    1.2047 H   0  0  0  0  0  0  0  0  0  0  0  0
   -1.1573    3.9694    1.0986 C   0  0  0  0  0  0  0  0  0  0  0  0
   -1.5802    3.9455    2.1155 H   0  0  0  0  0  0  0  0  0  0  0  0
   -3.6438    1.1524    0.2588 C   0  0  0  0  0  0  0  0  0  0  0  0
   -4.6863    0.6070    1.0347 C   0  0  0  0  0  0  0  0  0  0  0  0
   -4.4707    0.2879    2.0658 H   0  0  0  0  0  0  0  0  0  0  0  0
   -5.9698    0.4822    0.4914 C   0  0  0  0  0  0  0  0  0  0  0  0
   -6.7768    0.0424    1.0960 H   0  0  0  0  0  0  0  0  0  0  0  0
   -6.2238    0.9200   -0.8199 C   0  0  0  0  0  0  0  0  0  0  0  0
   -7.2340    0.8226   -1.2464 H   0  0  0  0  0  0  0  0  0  0  0  0
   -5.1953    1.4944   -1.5806 C   0  0  0  0  0  0  0  0  0  0  0  0
   -5.3918    1.8491   -2.6032 H   0  0  0  0  0  0  0  0  0  0  0  0
   -3.9038    1.6165   -1.0465 C   0  0  0  0  0  0  0  0  0  0  0  0
   -3.1053    2.0647   -1.6508 H   0  0  0  0  0  0  0  0  0  0  0  0
  1  3  1  0  0  0  0
  3 19  1  0  0  0  0
  3 30  1  0  0  0  0
  3  6  1  0  0  0  0
  4  2  1  0  0  0  0
  5 15  1  0  0  0  0
  5  7  1  0  0  0  0
  6 16  1  0  0  0  0
  6  4  1  0  0  0  0
  7  9  1  0  0  0  0
  8  7  1  0  0  0  0
  9 11  2  0  0  0  0
  9 10  1  0  0  0  0
 11 12  1  0  0  0  0
 13 14  1  0  0  0  0
 13 11  1  0  0  0  0
 15 13  2  0  0  0  0
 16 17  1  0  0  0  0
 16 15  1  0  0  0  0
 18 16  1  0  0  0  0
 19 28  1  0  0  0  0
 20 22  1  0  0  0  0
 20 19  2  0  0  0  0
 21 20  1  0  0  0  0
 22 24  2  0  0  0  0
 23 22  1  0  0  0  0
 24 25  1  0  0  0  0
 24 26  1  0  0  0  0
 26 27  1  0  0  0  0
 28 26  2  0  0  0  0
 28 29  1  0  0  0  0
 30 31  1  0  0  0  0
 31 33  2  0  0  0  0
 31 32  1  0  0  0  0
 33 34  1  0  0  0  0
 35 36  1  0  0  0  0
 35 33  1  0  0  0  0
 37 35  2  0  0  0  0
 38 37  1  0  0  0  0
 39 37  1  0  0  0  0
 39 30  2  0  0  0  0
 40 39  1  0  0  0  0
 41  4  1  0  0  0  0
 41 50  1  0  0  0  0
 42 41  2  0  0  0  0
 43 42  1  0  0  0  0
 44 42  1  0  0  0  0
 44 46  2  0  0  0  0
 45 44  1  0  0  0  0
 46 48  1  0  0  0  0
 47 46  1  0  0  0  0
 48 50  2  0  0  0  0
 48 49  1  0  0  0  0
 50 51  1  0  0  0  0
 52  4  1  0  0  0  0
 52 53  1  0  0  0  0
 53 54  1  0  0  0  0
 55 53  2  0  0  0  0
 55 56  1  0  0  0  0
 57 55  1  0  0  0  0
 58 57  1  0  0  0  0
 59 61  1  0  0  0  0
 59 57  2  0  0  0  0
 60 59  1  0  0  0  0
 61 52  2  0  0  0  0
 62 61  1  0  0  0  0
M  END
