1
q = 0.0, confidence = 0.968

 14 14  0  0  0  0  0  0  0  0999 V2000
   -1.4638    0.2064   -1.4408 N   0  0  0  0  0  0  0  0  0  0  0  0
   -1.3496   -0.6253   -2.0393 H   0  0  0  0  0  0  0  0  0  0  0  0
   -1.2157    1.0563   -1.9671 H   0  0  0  0  0  0  0  0  0  0  0  0
   -2.7914    0.2924   -0.8889 C   0  0  0  0  0  0  0  0  0  0  0  0
   -3.4852   -0.8931   -0.5868 C   0  0  0  0  0  0  0  0  0  0  0  0
   -3.0204   -1.8782   -0.7390 H   0  0  0  0  0  0  0  0  0  0  0  0
   -4.7617   -0.8056   -0.0311 C   0  0  0  0  0  0  0  0  0  0  0  0
   -5.3438    0.4500    0.2347 C   0  0  0  0  0  0  0  0  0  0  0  0
   -4.6372    1.6211   -0.0514 C   0  0  0  0  0  0  0  0  0  0  0  0
   -5.1069    2.5883    0.1769 H   0  0  0  0  0  0  0  0  0  0  0  0
   -3.3542    1.5489   -0.6119 C   0  0  0  0  0  0  0  0  0  0  0  0
   -2.7742    2.4631   -0.8017 H   0  0  0  0  0  0  0  0  0  0  0  0
   -5.4482   -1.9162    0.2638 F   0  0  0  0  0  0  0  0  0  0  0  0
   -6.5721    0.5014    0.7671 F   0  0  0  0  0  0  0  0  0  0  0  0
  1  4  1  0  0  0  0
  2  1  1  0  0  0  0
  3  1  1  0  0  0  0
  4 11  2  0  0  0  0
  4  5  1  0  0  0  0
  5  7  2  0  0  0  0
  6  5  1  0  0  0  0
  7  8  1  0  0  0  0
  7 13  1  0  0  0  0
  8 14  1  0  0  0  0
  9 10  1  0  0  0  0
  9  8  2  0  0  0  0
 11  9  1  0  0  0  0
 12 11  1  0  0  0  0
M  END
