3
q = 0.0, confidence = 0.994

 14 14  0  0  0  0  0  0  0  0999 V2000
   -5.3136   -2.3582    0.3780 F   0  0  0  0  0  0  0  0  0  0  0  0
   -5.3141    2.3580    0.3776 F   0  0  0  0  0  0  0  0  0  0  0  0
   -1.5167    0.0001   -1.4011 N   0  0  0  0  0  0  0  0  0  0  0  0
   -1.3521    0.8456   -1.9666 H   0  0  0  0  0  0  0  0  0  0  0  0
   -1.3520   -0.8453   -1.9668 H   0  0  0  0  0  0  0  0  0  0  0  0
   -2.8288    0.0000   -0.8094 C   0  0  0  0  0  0  0  0  0  0  0  0
   -3.4437   -1.2269   -0.5094 C   0  0  0  0  0  0  0  0  0  0  0  0
   -2.9324   -2.1824   -0.6889 H   0  0  0  0  0  0  0  0  0  0  0  0
   -4.7091   -1.1969    0.0861 C   0  0  0  0  0  0  0  0  0  0  0  0
   -5.3697   -0.0001    0.3900 C   0  0  0  0  0  0  0  0  0  0  0  0
   -6.3634   -0.0002    0.8558 H   0  0  0  0  0  0  0  0  0  0  0  0
   -4.7094    1.1967    0.0859 C   0  0  0  0  0  0  0  0  0  0  0  0
   -3.4439    1.2269   -0.5096 C   0  0  0  0  0  0  0  0  0  0  0  0
   -2.9328    2.1825   -0.6893 H   0  0  0  0  0  0  0  0  0  0  0  0
  3  6  1  0  0  0  0
  4  3  1  0  0  0  0
  5  3  1  0  0  0  0
  6 13  2  0  0  0  0
  6  7  1  0  0  0  0
  7  9  2  0  0  0  0
  8  7  1  0  0  0  0
  9  1  1  0  0  0  0
  9 10  1  0  0  0  0
 10 11  1  0  0  0  0
 12  2  1  0  0  0  0
 12 10  2  0  0  0  0
 13 12  1  0  0  0  0
 14 13  1  0  0  0  0
M  END
