6
q = -1.0, confidence = 0.0

 20 19  0  0  1  0  0  0  0  0999 V2000
    1.1879    2.6261   -0.9449 O   0  0  0  0  0  0  0  0  0  0  0  0
    2.9045   -1.1732   -1.0960 O   0  0  0  0  0  0  0  0  0  0  0  0
    4.0333    1.4862   -1.7393 O   0  0  0  0  0  0  0  0  0  0  0  0
    3.6981    1.5696    0.5000 O   0  0  0  0  0  0  0  0  0  0  0  0
    0.9985   -1.9283   -2.1132 O   0  0  0  0  0  0  0  0  0  0  0  0
   -0.2797    0.5027   -1.7503 N   0  0  0  0  0  0  0  0  0  0  0  0
    1.1098    0.3188   -1.3815 C   0  0  2  0  0  3  0  0  0  0  0  0
    1.7724    1.5110   -1.0038 C   0  0  0  0  0  0  0  0  0  0  0  0
    3.2570    1.4869   -0.6348 C   0  0  0  0  0  0  0  0  0  0  0  0
    1.6277   -1.0025   -1.5834 C   0  0  0  0  0  0  0  0  0  0  0  0
    3.5126   -2.4221   -1.4018 C   0  0  0  0  0  0  0  0  0  0  0  0
    4.4564   -2.4551   -0.8264 H   0  0  0  0  0  0  0  0  0  0  0  0
    3.7321   -2.5108   -2.4872 H   0  0  0  0  0  0  0  0  0  0  0  0
    2.8563   -3.2699   -1.1176 H   0  0  0  0  0  0  0  0  0  0  0  0
    5.4432    1.5067   -1.4940 C   0  0  0  0  0  0  0  0  0  0  0  0
    5.9286    1.5523   -2.4852 H   0  0  0  0  0  0  0  0  0  0  0  0
    5.7563    0.5890   -0.9543 H   0  0  0  0  0  0  0  0  0  0  0  0
    5.7297    2.3844   -0.8802 H   0  0  0  0  0  0  0  0  0  0  0  0
   -0.3513    1.4885   -2.0577 H   0  0  0  0  0  0  0  0  0  0  0  0
   -0.4819   -0.1276   -2.5408 H   0  0  0  0  0  0  0  0  0  0  0  0
  3 15  1  0  0  0  0
  3  9  1  0  0  0  0
  5 10  2  0  0  0  0
  6  7  1  0  0  0  0
  7 10  1  6  0  0  0
  7  8  1  0  0  0  0
  8  1  2  0  0  0  0
  8  9  1  0  0  0  0
  9  4  2  0  0  0  0
 10  2  1  0  0  0  0
 11 14  1  0  0  0  0
 11  2  1  0  0  0  0
 11 12  1  0  0  0  0
 13 11  1  0  0  0  0
 15 17  1  0  0  0  0
 15 18  1  0  0  0  0
 16 15  1  0  0  0  0
 19  6  1  0  0  0  0
 20  6  1  0  0  0  0
M  END
