3
q = -1.0

 53 56  0  0  0  0  0  0  0  0999 V2000
   -0.2573    1.0851   -0.0142 P   0  0  0  0  0  4  0  0  0  0  0  0
    1.1553    0.2281   -0.0163 N   0  0  0  0  0  2  0  0  0  0  0  0
   -1.2663   -0.2051    0.2080 N   0  0  0  0  0  2  0  0  0  0  0  0
    2.4358    0.7900   -0.0290 C   0  0  0  0  0  0  0  0  0  0  0  0
    3.5098    0.1056    0.5904 C   0  0  0  0  0  0  0  0  0  0  0  0
    3.2876   -0.8399    1.1009 H   0  0  0  0  0  0  0  0  0  0  0  0
    4.8058    0.6276    0.5787 C   0  0  0  0  0  0  0  0  0  0  0  0
    5.6129    0.0639    1.0750 H   0  0  0  0  0  0  0  0  0  0  0  0
    5.1030    1.8635   -0.0357 C   0  0  0  0  0  0  0  0  0  0  0  0
    4.0322    2.5541   -0.6336 C   0  0  0  0  0  0  0  0  0  0  0  0
    4.2207    3.5263   -1.1175 H   0  0  0  0  0  0  0  0  0  0  0  0
    2.7298    2.0358   -0.6391 C   0  0  0  0  0  0  0  0  0  0  0  0
    1.9318    2.6025   -1.1403 H   0  0  0  0  0  0  0  0  0  0  0  0
    6.5098    2.4069   -0.0554 C   0  0  0  0  0  0  0  0  0  0  0  0
    6.9776    2.3683    0.9504 H   0  0  0  0  0  0  0  0  0  0  0  0
    6.5354    3.4592   -0.4006 H   0  0  0  0  0  0  0  0  0  0  0  0
    7.1650    1.8195   -0.7347 H   0  0  0  0  0  0  0  0  0  0  0  0
   -2.6624   -0.1836    0.0579 C   0  0  0  0  0  0  0  0  0  0  0  0
   -3.4796    0.7485    0.7390 C   0  0  0  0  0  0  0  0  0  0  0  0
   -3.0145    1.4773    1.4192 H   0  0  0  0  0  0  0  0  0  0  0  0
   -4.8716    0.7393    0.5706 C   0  0  0  0  0  0  0  0  0  0  0  0
   -5.4823    1.4782    1.1143 H   0  0  0  0  0  0  0  0  0  0  0  0
   -5.5077   -0.1979   -0.2662 C   0  0  0  0  0  0  0  0  0  0  0  0
   -4.6863   -1.1218   -0.9478 C   0  0  0  0  0  0  0  0  0  0  0  0
   -5.1493   -1.8563   -1.6270 H   0  0  0  0  0  0  0  0  0  0  0  0
   -3.2957   -1.1150   -0.7983 C   0  0  0  0  0  0  0  0  0  0  0  0
   -2.6614   -1.8136   -1.3613 H   0  0  0  0  0  0  0  0  0  0  0  0
   -7.0075   -0.2289   -0.4229 C   0  0  0  0  0  0  0  0  0  0  0  0
   -7.4805    0.6823   -0.0074 H   0  0  0  0  0  0  0  0  0  0  0  0
   -7.4522   -1.1018    0.1021 H   0  0  0  0  0  0  0  0  0  0  0  0
   -7.3050   -0.3123   -1.4886 H   0  0  0  0  0  0  0  0  0  0  0  0
   -0.2771    2.3104    1.3306 C   0  0  0  0  0  0  0  0  0  0  0  0
    0.0455    3.6679    1.1292 C   0  0  0  0  0  0  0  0  0  0  0  0
    0.2338    4.0472    0.1140 H   0  0  0  0  0  0  0  0  0  0  0  0
    0.1229    4.5375    2.2284 C   0  0  0  0  0  0  0  0  0  0  0  0
    0.3742    5.5970    2.0693 H   0  0  0  0  0  0  0  0  0  0  0  0
   -0.1166    4.0575    3.5250 C   0  0  0  0  0  0  0  0  0  0  0  0
   -0.0566    4.7428    4.3842 H   0  0  0  0  0  0  0  0  0  0  0  0
   -0.4307    2.7019    3.7287 C   0  0  0  0  0  0  0  0  0  0  0  0
   -0.6157    2.3250    4.7459 H   0  0  0  0  0  0  0  0  0  0  0  0
   -0.5085    1.8279    2.6376 C   0  0  0  0  0  0  0  0  0  0  0  0
   -0.7467    0.7614    2.7800 H   0  0  0  0  0  0  0  0  0  0  0  0
   -0.6832    1.9396   -1.5628 C   0  0  0  0  0  0  0  0  0  0  0  0
   -0.0506    1.5200   -2.7519 C   0  0  0  0  0  0  0  0  0  0  0  0
    0.7567    0.7734   -2.7001 H   0  0  0  0  0  0  0  0  0  0  0  0
   -0.4542    2.0539   -3.9828 C   0  0  0  0  0  0  0  0  0  0  0  0
    0.0456    1.7310   -4.9084 H   0  0  0  0  0  0  0  0  0  0  0  0
   -1.4948    2.9968   -4.0342 C   0  0  0  0  0  0  0  0  0  0  0  0
   -1.8109    3.4138   -5.0026 H   0  0  0  0  0  0  0  0  0  0  0  0
   -2.1350    3.4057   -2.8535 C   0  0  0  0  0  0  0  0  0  0  0  0
   -2.9559    4.1375   -2.8950 H   0  0  0  0  0  0  0  0  0  0  0  0
   -1.7329    2.8810   -1.6162 C   0  0  0  0  0  0  0  0  0  0  0  0
   -2.2402    3.1978   -0.6929 H   0  0  0  0  0  0  0  0  0  0  0  0
  1  3  1  0  0  0  0
  1 32  1  0  0  0  0
  2  1  1  0  0  0  0
  4  2  1  0  0  0  0
  4  5  1  0  0  0  0
  5  6  1  0  0  0  0
  7  5  2  0  0  0  0
  7  8  1  0  0  0  0
  9  7  1  0  0  0  0
 10  9  2  0  0  0  0
 11 10  1  0  0  0  0
 12 10  1  0  0  0  0
 12  4  2  0  0  0  0
 13 12  1  0  0  0  0
 14  9  1  0  0  0  0
 14 15  1  0  0  0  0
 16 14  1  0  0  0  0
 17 14  1  0  0  0  0
 18  3  1  0  0  0  0
 18 19  1  0  0  0  0
 19 20  1  0  0  0  0
 21 19  2  0  0  0  0
 21 22  1  0  0  0  0
 23 21  1  0  0  0  0
 24 26  1  0  0  0  0
 24 23  2  0  0  0  0
 25 24  1  0  0  0  0
 26 18  2  0  0  0  0
 27 26  1  0  0  0  0
 28 23  1  0  0  0  0
 28 29  1  0  0  0  0
 28 30  1  0  0  0  0
 31 28  1  0  0  0  0
 32 41  1  0  0  0  0
 33 32  2  0  0  0  0
 33 35  1  0  0  0  0
 34 33  1  0  0  0  0
 35 37  2  0  0  0  0
 36 35  1  0  0  0  0
 37 39  1  0  0  0  0
 37 38  1  0  0  0  0
 39 40  1  0  0  0  0
 41 42  1  0  0  0  0
 41 39  2  0  0  0  0
 43  1  1  0  0  0  0
 44 45  1  0  0  0  0
 44 43  2  0  0  0  0
 46 44  1  0  0  0  0
 47 46  1  0  0  0  0
 48 46  2  0  0  0  0
 48 50  1  0  0  0  0
 49 48  1  0  0  0  0
 50 52  2  0  0  0  0
 51 50  1  0  0  0  0
 52 43  1  0  0  0  0
 52 53  1  0  0  0  0
M  END
