1
q = 0.0, confidence = 1.0

 22 23  0  0  1  0  0  0  0  0999 V2000
   -1.6408   -1.0037   -0.2434 N   0  0  0  0  0  2  0  0  0  0  0  0
   -5.2720   -0.2325    1.7256 N   0  0  0  0  0  0  0  0  0  0  0  0
   -2.0828   -1.8270    0.7246 C   0  0  0  0  0  0  0  0  0  0  0  0
   -3.3142   -1.5973    1.3710 C   0  0  0  0  0  0  0  0  0  0  0  0
   -3.6380   -2.3025    2.1500 H   0  0  0  0  0  0  0  0  0  0  0  0
   -4.1118   -0.4914    1.0514 C   0  0  0  0  0  0  0  0  0  0  0  0
   -3.6515    0.3835    0.0001 C   0  0  0  0  0  0  0  0  0  0  0  0
   -2.4118    0.0619   -0.6468 C   0  0  1  0  0  3  0  0  0  0  0  0
   -1.9712    0.8755   -1.7272 C   0  0  0  0  0  0  0  0  0  0  0  0
   -1.0344    0.5872   -2.2288 H   0  0  0  0  0  0  0  0  0  0  0  0
   -2.7019    1.9835   -2.1287 C   0  0  0  0  0  0  0  0  0  0  0  0
   -2.3420    2.5963   -2.9686 H   0  0  0  0  0  0  0  0  0  0  0  0
   -3.9017    2.3312   -1.4614 C   0  0  0  0  0  0  0  0  0  0  0  0
   -4.4689    3.2213   -1.7711 H   0  0  0  0  0  0  0  0  0  0  0  0
   -4.3641    1.5394   -0.4185 C   0  0  0  0  0  0  0  0  0  0  0  0
   -5.2949    1.8278    0.0935 H   0  0  0  0  0  0  0  0  0  0  0  0
   -1.2345   -3.0098    1.0809 C   0  0  0  0  0  0  0  0  0  0  0  0
   -1.1140   -3.6427    0.1746 H   0  0  0  0  0  0  0  0  0  0  0  0
   -1.6786   -3.5977    1.9053 H   0  0  0  0  0  0  0  0  0  0  0  0
   -0.2112   -2.6866    1.3660 H   0  0  0  0  0  0  0  0  0  0  0  0
   -5.6478   -0.9547    2.3378 H   0  0  0  0  0  0  0  0  0  0  0  0
   -5.9577    0.3998    1.3183 H   0  0  0  0  0  0  0  0  0  0  0  0
  1  3  1  0  0  0  0
  2 21  1  0  0  0  0
  3 17  1  0  0  0  0
  3  4  2  0  0  0  0
  4  5  1  0  0  0  0
  6  4  1  0  0  0  0
  6  2  1  0  0  0  0
  7  6  2  0  0  0  0
  8  9  1  1  0  0  0
  8  1  1  0  0  0  0
  8  7  1  0  0  0  0
 10  9  1  0  0  0  0
 11  9  2  0  0  0  0
 11 13  1  0  0  0  0
 12 11  1  0  0  0  0
 13 15  2  0  0  0  0
 14 13  1  0  0  0  0
 15  7  1  0  0  0  0
 15 16  1  0  0  0  0
 17 20  1  0  0  0  0
 17 19  1  0  0  0  0
 18 17  1  0  0  0  0
 22  2  1  0  0  0  0
M  END
