1
q = 0.0, confidence = 0.998

 34 35  0  0  0  0  0  0  0  0999 V2000
    3.3669    0.9629    0.7339 N   0  0  0  0  0  2  0  0  0  0  0  0
    2.9038    1.9534   -0.0492 C   0  0  0  0  0  3  0  0  0  0  0  0
    3.6585    2.4076   -0.7157 H   0  0  0  0  0  0  0  0  0  0  0  0
    1.5476    2.2986   -0.0850 C   0  0  0  0  0  0  0  0  0  0  0  0
    1.1760    3.0896   -0.7519 H   0  0  0  0  0  0  0  0  0  0  0  0
    0.6435    1.5378    0.6753 C   0  0  0  0  0  0  0  0  0  0  0  0
    1.1493    0.5494    1.5413 C   0  0  0  0  0  0  0  0  0  0  0  0
    0.4755   -0.0498    2.1707 H   0  0  0  0  0  0  0  0  0  0  0  0
    2.5253    0.3049    1.5501 C   0  0  0  0  0  0  0  0  0  0  0  0
    2.9926   -0.4967    2.1505 H   0  0  0  0  0  0  0  0  0  0  0  0
   -0.8374    1.7454    0.4989 C   0  0  0  0  0  0  0  0  0  0  0  0
   -1.3470    2.8643    0.4571 O   0  0  0  0  0  0  0  0  0  0  0  0
   -1.5130    0.5394    0.3882 N   0  0  0  0  0  0  0  0  0  0  0  0
   -0.8968   -0.2658    0.1689 H   0  0  0  0  0  0  0  0  0  0  0  0
   -2.8897    0.3187    0.2661 C   0  0  0  0  0  0  0  0  0  0  0  0
   -3.3582   -1.0285    0.3646 C   0  0  0  0  0  0  0  0  0  0  0  0
   -4.7319   -1.2581    0.2296 C   0  0  0  0  0  0  0  0  0  0  0  0
   -5.1259   -2.2834    0.2999 H   0  0  0  0  0  0  0  0  0  0  0  0
   -5.6520   -0.2101    0.0190 C   0  0  0  0  0  0  0  0  0  0  0  0
   -5.1726    1.1135   -0.0504 C   0  0  0  0  0  0  0  0  0  0  0  0
   -5.8813    1.9381   -0.2085 H   0  0  0  0  0  0  0  0  0  0  0  0
   -3.8078    1.3786    0.0726 C   0  0  0  0  0  0  0  0  0  0  0  0
   -3.4153    2.4007    0.0218 H   0  0  0  0  0  0  0  0  0  0  0  0
   -7.0880   -0.5572   -0.1084 C   0  0  0  0  0  0  0  0  0  0  0  0
   -7.5560   -1.6852   -0.0469 O   0  0  0  0  0  0  0  0  0  0  0  0
   -7.8727    0.5454   -0.3082 O   0  0  0  0  0  0  0  0  0  0  0  0
   -9.2652    0.2741   -0.4410 C   0  0  0  0  0  0  0  0  0  0  0  0
   -9.6672   -0.2185    0.4688 H   0  0  0  0  0  0  0  0  0  0  0  0
   -9.4631   -0.3976   -1.3022 H   0  0  0  0  0  0  0  0  0  0  0  0
   -9.7578    1.2514   -0.5967 H   0  0  0  0  0  0  0  0  0  0  0  0
   -2.4101   -2.1626    0.6551 C   0  0  0  0  0  0  0  0  0  0  0  0
   -1.5983   -2.2602   -0.0996 H   0  0  0  0  0  0  0  0  0  0  0  0
   -2.9529   -3.1255    0.6973 H   0  0  0  0  0  0  0  0  0  0  0  0
   -1.9016   -2.0163    1.6330 H   0  0  0  0  0  0  0  0  0  0  0  0
  1  9  1  0  0  0  0
  2  1  1  0  0  0  0
  3  2  1  0  0  0  0
  4  2  1  0  0  0  0
  4  6  2  0  0  0  0
  5  4  1  0  0  0  0
  6  7  1  0  0  0  0
  7  9  2  0  0  0  0
  7  8  1  0  0  0  0
  9 10  1  0  0  0  0
 11  6  1  0  0  0  0
 12 11  2  0  0  0  0
 13 11  1  0  0  0  0
 14 13  1  0  0  0  0
 15 16  1  0  0  0  0
 15 13  1  0  0  0  0
 16 31  1  0  0  0  0
 17 18  1  0  0  0  0
 17 16  2  0  0  0  0
 19 17  1  0  0  0  0
 20 19  2  0  0  0  0
 20 22  1  0  0  0  0
 21 20  1  0  0  0  0
 22 15  2  0  0  0  0
 23 22  1  0  0  0  0
 24 25  2  0  0  0  0
 24 19  1  0  0  0  0
 26 24  1  0  0  0  0
 27 26  1  0  0  0  0
 27 28  1  0  0  0  0
 29 27  1  0  0  0  0
 30 27  1  0  0  0  0
 31 33  1  0  0  0  0
 31 34  1  0  0  0  0
 32 31  1  0  0  0  0
M  END
