1
q = -1.0

 21 20  0  0  0  0  0  0  0  0999 V2000
    0.5855    0.6921   -1.5922 N   0  0  0  0  0  2  0  0  0  0  0  0
    0.1369    1.0666   -2.4310 H   0  0  0  0  0  0  0  0  0  0  0  0
    2.5840    0.3004   -0.5536 N   0  0  0  0  0  0  0  0  0  0  0  0
    1.9684    0.7929   -1.5809 C   0  0  0  0  0  0  0  0  0  0  0  0
    2.5356    1.5380   -2.7808 C   0  0  0  0  0  0  0  0  0  0  0  0
    1.9947    1.2513   -3.7051 H   0  0  0  0  0  0  0  0  0  0  0  0
    3.6081    1.3392   -2.9367 H   0  0  0  0  0  0  0  0  0  0  0  0
    2.4040    2.6315   -2.6435 H   0  0  0  0  0  0  0  0  0  0  0  0
    4.0267    0.3519   -0.2902 C   0  0  0  0  0  0  0  0  0  0  0  0
    4.2175   -0.2527    1.1178 C   0  0  0  0  0  0  0  0  0  0  0  0
    3.8722   -1.3058    1.1376 H   0  0  0  0  0  0  0  0  0  0  0  0
    3.6289    0.3190    1.8634 H   0  0  0  0  0  0  0  0  0  0  0  0
    5.2827   -0.2346    1.4241 H   0  0  0  0  0  0  0  0  0  0  0  0
    4.5653    1.7991   -0.2642 C   0  0  0  0  0  0  0  0  0  0  0  0
    3.9588    2.4173    0.4290 H   0  0  0  0  0  0  0  0  0  0  0  0
    4.5451    2.2820   -1.2591 H   0  0  0  0  0  0  0  0  0  0  0  0
    5.6149    1.8158    0.0929 H   0  0  0  0  0  0  0  0  0  0  0  0
    4.8135   -0.5216   -1.2919 C   0  0  0  0  0  0  0  0  0  0  0  0
    4.4022   -1.5512   -1.3034 H   0  0  0  0  0  0  0  0  0  0  0  0
    5.8811   -0.5827   -0.9989 H   0  0  0  0  0  0  0  0  0  0  0  0
    4.7737   -0.1277   -2.3260 H   0  0  0  0  0  0  0  0  0  0  0  0
  1  4  1  0  0  0  0
  2  1  1  0  0  0  0
  3  9  1  0  0  0  0
  4  3  2  0  0  0  0
  5  8  1  0  0  0  0
  5  4  1  0  0  0  0
  6  5  1  0  0  0  0
  7  5  1  0  0  0  0
  9 14  1  0  0  0  0
  9 10  1  0  0  0  0
 10 11  1  0  0  0  0
 10 13  1  0  0  0  0
 10 12  1  0  0  0  0
 14 17  1  0  0  0  0
 14 15  1  0  0  0  0
 16 14  1  0  0  0  0
 18 20  1  0  0  0  0
 18  9  1  0  0  0  0
 19 18  1  0  0  0  0
 21 18  1  0  0  0  0
M  END
