35
q = 0.0, confidence = 0.998

 43 46  0  0  0  0  0  0  0  0999 V2000
   -1.3587    0.2375   -1.0910 C   0  0  0  0  0  3  0  0  0  0  0  0
   -1.3089   -0.8011   -1.4346 H   0  0  0  0  0  0  0  0  0  0  0  0
   -0.8170    2.1876   -0.2681 C   0  0  0  0  0  0  0  0  0  0  0  0
   -2.1794    2.2115   -0.5512 C   0  0  0  0  0  0  0  0  0  0  0  0
   -0.9044    4.4571    0.5299 C   0  0  0  0  0  0  0  0  0  0  0  0
   -3.0198    3.3724   -0.3417 C   0  0  0  0  0  0  0  0  0  0  0  0
    1.2574    3.2672    0.5698 C   0  0  0  0  0  0  0  0  0  0  0  0
    1.4850    2.5189    1.3565 H   0  0  0  0  0  0  0  0  0  0  0  0
    1.5023    4.2772    0.9439 H   0  0  0  0  0  0  0  0  0  0  0  0
    1.8629    3.0486   -0.3331 H   0  0  0  0  0  0  0  0  0  0  0  0
   -2.9935    5.6881    0.5092 C   0  0  0  0  0  0  0  0  0  0  0  0
   -2.5487    6.5220   -0.0662 H   0  0  0  0  0  0  0  0  0  0  0  0
   -2.9108    5.9287    1.5859 H   0  0  0  0  0  0  0  0  0  0  0  0
   -4.0480    5.5382    0.2231 H   0  0  0  0  0  0  0  0  0  0  0  0
   -3.8403    0.4906   -1.3847 C   0  0  0  0  0  0  0  0  0  0  0  0
   -3.7936   -0.1171   -2.3113 H   0  0  0  0  0  0  0  0  0  0  0  0
   -4.4541    1.3911   -1.5897 H   0  0  0  0  0  0  0  0  0  0  0  0
   -4.4582   -0.3092   -0.2553 C   0  0  0  0  0  0  0  0  0  0  0  0
   -3.7859   -0.5570    0.9138 C   0  0  0  0  0  0  0  0  0  0  0  0
   -2.7739   -0.1802    1.1127 H   0  0  0  0  0  0  0  0  0  0  0  0
   -4.3553   -1.3441    1.9993 C   0  0  0  0  0  0  0  0  0  0  0  0
   -6.3543   -1.5793    0.6340 C   0  0  0  0  0  0  0  0  0  0  0  0
   -5.7973   -0.8196   -0.4323 C   0  0  0  0  0  0  0  0  0  0  0  0
   -6.6041   -0.6169   -1.5851 C   0  0  0  0  0  0  0  0  0  0  0  0
   -6.2192   -0.0252   -2.4284 H   0  0  0  0  0  0  0  0  0  0  0  0
   -7.8842   -1.1412   -1.6723 C   0  0  0  0  0  0  0  0  0  0  0  0
   -8.5135   -0.9838   -2.5588 H   0  0  0  0  0  0  0  0  0  0  0  0
   -8.4190   -1.8995   -0.5941 C   0  0  0  0  0  0  0  0  0  0  0  0
   -7.6481   -2.1173    0.5622 C   0  0  0  0  0  0  0  0  0  0  0  0
   -8.0128   -2.6914    1.4222 H   0  0  0  0  0  0  0  0  0  0  0  0
  -10.2765   -3.1233    0.2688 C   0  0  0  0  0  0  0  0  0  0  0  0
   -9.7046   -4.0526    0.4801 H   0  0  0  0  0  0  0  0  0  0  0  0
  -11.2853   -3.3905   -0.0928 H   0  0  0  0  0  0  0  0  0  0  0  0
  -10.3674   -2.5291    1.2036 H   0  0  0  0  0  0  0  0  0  0  0  0
   -0.3112    0.9483   -0.6077 N   0  0  0  0  0  2  0  0  0  0  0  0
   -2.4925    0.9681   -1.0791 N   0  0  0  0  0  0  0  0  0  0  0  0
   -0.1661    3.2706    0.2560 N   0  0  0  0  0  0  0  0  0  0  0  0
   -2.2788    4.4411    0.2199 N   0  0  0  0  0  0  0  0  0  0  0  0
   -0.3673    5.4421    1.0069 O   0  0  0  0  0  0  0  0  0  0  0  0
   -4.2160    3.4486   -0.6109 O   0  0  0  0  0  0  0  0  0  0  0  0
   -3.8163   -1.6222    3.0475 O   0  0  0  0  0  0  0  0  0  0  0  0
   -5.6599   -1.8243    1.7761 O   0  0  0  0  0  0  0  0  0  0  0  0
   -9.6695   -2.3649   -0.7712 O   0  0  0  0  0  0  0  0  0  0  0  0
  1 36  1  0  0  0  0
  1 35  1  0  0  0  0
  2  1  1  0  0  0  0
  3 37  1  0  0  0  0
  4  6  1  0  0  0  0
  4  3  2  0  0  0  0
  5 39  2  0  0  0  0
  6 38  1  0  0  0  0
  7  9  1  0  0  0  0
  7  8  1  0  0  0  0
 10  7  1  0  0  0  0
 11 13  1  0  0  0  0
 12 11  1  0  0  0  0
 14 11  1  0  0  0  0
 15 36  1  0  0  0  0
 15 18  1  0  0  0  0
 16 15  1  0  0  0  0
 17 15  1  0  0  0  0
 18 19  2  0  0  0  0
 19 20  1  0  0  0  0
 19 21  1  0  0  0  0
 21 41  2  0  0  0  0
 22 42  1  0  0  0  0
 23 18  1  0  0  0  0
 23 22  2  0  0  0  0
 24 23  1  0  0  0  0
 25 24  1  0  0  0  0
 26 24  2  0  0  0  0
 26 28  1  0  0  0  0
 27 26  1  0  0  0  0
 28 29  2  0  0  0  0
 29 22  1  0  0  0  0
 29 30  1  0  0  0  0
 31 32  1  0  0  0  0
 31 34  1  0  0  0  0
 33 31  1  0  0  0  0
 35  3  1  0  0  0  0
 36  4  1  0  0  0  0
 37  5  1  0  0  0  0
 37  7  1  0  0  0  0
 38 11  1  0  0  0  0
 38  5  1  0  0  0  0
 40  6  2  0  0  0  0
 42 21  1  0  0  0  0
 43 28  1  0  0  0  0
 43 31  1  0  0  0  0
M  END
