3
q = 0.0, confidence = 0.988

 24 26  0  0  1  0  0  0  0  0999 V2000
    5.0914   -2.1781   -2.1065 Br  0  0  0  0  0  0  0  0  0  0  0  0
    1.1583    3.8270   -1.1861 S   0  0  0  0  0  0  0  0  0  0  0  0
   -0.4062    1.8532   -0.5249 N   0  0  0  0  0  2  0  0  0  0  0  0
   -2.3152    5.5229    0.1450 C   0  0  0  0  0  0  0  0  0  0  0  0
   -2.7940    6.4989    0.3135 H   0  0  0  0  0  0  0  0  0  0  0  0
    1.8320    1.1159   -1.3157 C   0  0  0  0  0  0  0  0  0  0  0  0
   -1.0184    5.4772   -0.3794 C   0  0  0  0  0  0  0  0  0  0  0  0
   -0.4708    6.3995   -0.6201 H   0  0  0  0  0  0  0  0  0  0  0  0
   -3.0091    4.3367    0.4755 C   0  0  0  0  0  0  0  0  0  0  0  0
   -4.0191    4.4025    0.9060 H   0  0  0  0  0  0  0  0  0  0  0  0
    4.1574    0.3751   -1.2123 C   0  0  0  0  0  0  0  0  0  0  0  0
    5.2002    0.5423   -0.9096 H   0  0  0  0  0  0  0  0  0  0  0  0
   -0.4351    4.2154   -0.5800 C   0  0  0  0  0  0  0  0  0  0  0  0
    2.4496   -1.0772   -2.1905 C   0  0  0  0  0  0  0  0  0  0  0  0
    2.1696   -2.0312   -2.6568 H   0  0  0  0  0  0  0  0  0  0  0  0
    1.4799   -0.1040   -1.9364 C   0  0  0  0  0  0  0  0  0  0  0  0
    0.4289   -0.2981   -2.1950 H   0  0  0  0  0  0  0  0  0  0  0  0
   -2.4291    3.0814    0.2793 C   0  0  0  0  0  0  0  0  0  0  0  0
   -2.9402    2.1498    0.5609 H   0  0  0  0  0  0  0  0  0  0  0  0
    3.7822   -0.8381   -1.8139 C   0  0  0  0  0  0  0  0  0  0  0  0
    3.1835    1.3504   -0.9756 C   0  0  0  0  0  0  0  0  0  0  0  0
    3.4656    2.2865   -0.4704 H   0  0  0  0  0  0  0  0  0  0  0  0
    0.8086    2.1118   -0.9908 C   0  0  2  0  0  3  0  0  0  0  0  0
   -1.1326    3.0146   -0.2707 C   0  0  0  0  0  0  0  0  0  0  0  0
  1 20  1  0  0  0  0
  2 23  1  0  0  0  0
  2 13  1  0  0  0  0
  3 24  1  0  0  0  0
  4  5  1  0  0  0  0
  4  9  1  0  0  0  0
  6 21  1  0  0  0  0
  7  4  2  0  0  0  0
  8  7  1  0  0  0  0
  9 10  1  0  0  0  0
 11 21  2  0  0  0  0
 11 12  1  0  0  0  0
 13  7  1  0  0  0  0
 13 24  2  0  0  0  0
 14 16  1  0  0  0  0
 14 20  2  0  0  0  0
 15 14  1  0  0  0  0
 16  6  2  0  0  0  0
 17 16  1  0  0  0  0
 18  9  2  0  0  0  0
 18 19  1  0  0  0  0
 20 11  1  0  0  0  0
 21 22  1  0  0  0  0
 23  6  1  1  0  0  0
 23  3  1  0  0  0  0
 24 18  1  0  0  0  0
M  END
