8
q = -1.0, confidence = 0.0

 14 14  0  0  0  0  0  0  0  0999 V2000
   -4.4129    1.0238    0.2830 N   0  0  0  0  0  0  0  0  0  0  0  0
   -5.0134    2.3334    0.5487 C   0  0  0  0  0  0  0  0  0  0  0  0
   -4.1955    3.0574    0.6998 H   0  0  0  0  0  0  0  0  0  0  0  0
   -5.6430    2.2894    1.4590 H   0  0  0  0  0  0  0  0  0  0  0  0
   -5.6348    2.6512   -0.3114 H   0  0  0  0  0  0  0  0  0  0  0  0
   -3.0175    0.9056    0.2667 C   0  0  0  0  0  0  0  0  0  0  0  0
   -2.2992    1.9038    0.4942 O   0  0  0  0  0  0  0  0  0  0  0  0
   -2.4898   -0.3464    0.0111 N   0  0  0  0  0  2  0  0  0  0  0  0
   -3.2695   -1.4762   -0.3039 C   0  0  0  0  0  0  0  0  0  0  0  0
   -2.7344   -2.5449   -0.6618 O   0  0  0  0  0  0  0  0  0  0  0  0
   -4.7060   -1.3025   -0.2054 C   0  0  0  0  0  0  0  0  0  0  0  0
   -5.3495   -2.1687   -0.3994 H   0  0  0  0  0  0  0  0  0  0  0  0
   -5.2185   -0.0690    0.0646 C   0  0  0  0  0  0  0  0  0  0  0  0
   -6.3003    0.1247    0.1142 H   0  0  0  0  0  0  0  0  0  0  0  0
  1  2  1  0  0  0  0
  2  3  1  0  0  0  0
  2  4  1  0  0  0  0
  5  2  1  0  0  0  0
  6  1  1  0  0  0  0
  6  7  2  0  0  0  0
  8  6  1  0  0  0  0
  9 11  1  0  0  0  0
  9  8  1  0  0  0  0
 10  9  2  0  0  0  0
 11 13  2  0  0  0  0
 12 11  1  0  0  0  0
 13 14  1  0  0  0  0
 13  1  1  0  0  0  0
M  END
