1
q = 0.0, confidence = 0.99

 13 13  0  0  1  0  0  0  0  0999 V2000
   -1.5057   -0.1767    0.0580 N   0  0  0  0  0  2  0  0  0  0  0  0
   -2.0924   -1.5194    0.2276 C   0  0  0  0  0  0  0  0  0  0  0  0
   -1.5045   -2.2626   -0.3437 H   0  0  0  0  0  0  0  0  0  0  0  0
   -2.0040   -1.7866    1.3041 H   0  0  0  0  0  0  0  0  0  0  0  0
   -3.5575   -1.4975   -0.2258 C   0  0  0  0  0  0  0  0  0  0  0  0
   -4.1938   -2.1958    0.3488 H   0  0  0  0  0  0  0  0  0  0  0  0
   -3.6692   -1.7130   -1.3077 H   0  0  0  0  0  0  0  0  0  0  0  0
   -4.0993    0.2310    0.0743 S   0  0  0  0  0  0  0  0  0  0  0  0
   -2.4129    0.7583    0.0384 C   0  0  1  0  0  3  0  0  0  0  0  0
   -2.1383    2.2248   -0.0101 C   0  0  0  0  0  0  0  0  0  0  0  0
   -3.0502    2.8108    0.2076 H   0  0  0  0  0  0  0  0  0  0  0  0
   -1.7785    2.5070   -1.0207 H   0  0  0  0  0  0  0  0  0  0  0  0
   -1.3423    2.4939    0.7099 H   0  0  0  0  0  0  0  0  0  0  0  0
  1  2  1  0  0  0  0
  2  4  1  0  0  0  0
  3  2  1  0  0  0  0
  5  8  1  0  0  0  0
  5  2  1  0  0  0  0
  5  6  1  0  0  0  0
  7  5  1  0  0  0  0
  9 10  1  1  0  0  0
  9  1  1  0  0  0  0
  9  8  1  0  0  0  0
 10 11  1  0  0  0  0
 10 13  1  0  0  0  0
 12 10  1  0  0  0  0
M  END
