1
q = 0.0, confidence = 0.996

 21 22  0  0  0  0  0  0  0  0999 V2000
    1.7359    0.4818    0.3310 N   0  0  0  0  0  2  0  0  0  0  0  0
    1.9951   -0.4968   -0.5823 C   0  0  0  0  0  0  0  0  0  0  0  0
    0.2036   -3.5832   -1.4287 C   0  0  0  0  0  0  0  0  0  0  0  0
   -0.1141   -3.7421   -0.3796 H   0  0  0  0  0  0  0  0  0  0  0  0
    0.5497   -4.5351   -1.8736 H   0  0  0  0  0  0  0  0  0  0  0  0
   -0.6934   -3.2430   -1.9894 H   0  0  0  0  0  0  0  0  0  0  0  0
    2.5568    1.5443    0.4378 C   0  0  0  0  0  0  0  0  0  0  0  0
    1.0799   -1.4875   -0.6310 N   0  0  0  0  0  0  0  0  0  0  0  0
    2.2513    2.5055    1.3273 N   0  0  0  0  0  0  0  0  0  0  0  0
    1.3667    2.4237    1.8920 H   0  0  0  0  0  0  0  0  0  0  0  0
    2.8729    3.3010    1.4477 H   0  0  0  0  0  0  0  0  0  0  0  0
    3.1563   -0.4743   -1.4228 C   0  0  0  0  0  0  0  0  0  0  0  0
    1.2655   -2.5170   -1.4562 C   0  0  0  0  0  0  0  0  0  0  0  0
    3.3350   -1.5685   -2.3035 C   0  0  0  0  0  3  0  0  0  0  0  0
    4.2168   -1.5959   -2.9633 H   0  0  0  0  0  0  0  0  0  0  0  0
    4.0304    0.6492   -1.2934 C   0  0  0  0  0  0  0  0  0  0  0  0
    4.9337    0.7104   -1.9211 H   0  0  0  0  0  0  0  0  0  0  0  0
    2.4000   -2.5979   -2.3162 C   0  0  0  0  0  0  0  0  0  0  0  0
    2.5234   -3.4650   -2.9813 H   0  0  0  0  0  0  0  0  0  0  0  0
    3.7386    1.6447   -0.3911 C   0  0  0  0  0  0  0  0  0  0  0  0
    4.3941    2.5209   -0.2789 H   0  0  0  0  0  0  0  0  0  0  0  0
  1  7  1  0  0  0  0
  2  1  1  0  0  0  0
  3  4  1  0  0  0  0
  5  3  1  0  0  0  0
  6  3  1  0  0  0  0
  7  9  1  0  0  0  0
  8  2  2  0  0  0  0
  9 11  1  0  0  0  0
  9 10  1  0  0  0  0
 12 16  2  0  0  0  0
 12  2  1  0  0  0  0
 13  3  1  0  0  0  0
 13  8  1  0  0  0  0
 14 12  1  0  0  0  0
 15 14  1  0  0  0  0
 16 20  1  0  0  0  0
 17 16  1  0  0  0  0
 18 14  1  0  0  0  0
 18 13  2  0  0  0  0
 19 18  1  0  0  0  0
 20 21  1  0  0  0  0
 20  7  2  0  0  0  0
M  END
