2
q = -1.0, confidence = 0.0

 18 17  0  0  0  0  0  0  0  0999 V2000
    3.8915   -0.0211   -0.0025 Si  0  0  0  0  0  0  0  0  0  0  0  0
    0.7312   -0.0332    1.0447 N   0  0  0  0  0  2  0  0  0  0  0  0
    1.0476   -0.0371   -0.2282 N   0  0  0  0  0  0  0  0  0  0  0  0
    2.2005   -0.0351   -0.8501 C   0  0  0  0  0  0  0  0  0  0  0  0
    4.0464    1.5340    1.0726 C   0  0  0  0  0  0  0  0  0  0  0  0
    5.0232    1.5547    1.5990 H   0  0  0  0  0  0  0  0  0  0  0  0
    3.2497    1.5895    1.8425 H   0  0  0  0  0  0  0  0  0  0  0  0
    3.9723    2.4493    0.4505 H   0  0  0  0  0  0  0  0  0  0  0  0
    4.0695   -1.5651    1.0839 C   0  0  0  0  0  0  0  0  0  0  0  0
    5.0382   -1.5588    1.6255 H   0  0  0  0  0  0  0  0  0  0  0  0
    4.0272   -2.4858    0.4670 H   0  0  0  0  0  0  0  0  0  0  0  0
    3.2612   -1.6345    1.8403 H   0  0  0  0  0  0  0  0  0  0  0  0
    5.2052   -0.0142   -1.3598 C   0  0  0  0  0  0  0  0  0  0  0  0
    6.2249   -0.0063   -0.9231 H   0  0  0  0  0  0  0  0  0  0  0  0
    5.1063    0.8812   -2.0070 H   0  0  0  0  0  0  0  0  0  0  0  0
    5.1189   -0.9134   -2.0036 H   0  0  0  0  0  0  0  0  0  0  0  0
    1.4710   -0.0026    1.7618 H   0  0  0  0  0  0  0  0  0  0  0  0
    2.1089   -0.0417   -1.9527 H   0  0  0  0  0  0  0  0  0  0  0  0
  1  5  1  0  0  0  0
  1  9  1  0  0  0  0
  2 17  1  0  0  0  0
  3  2  1  0  0  0  0
  4  3  2  0  0  0  0
  4  1  1  0  0  0  0
  5  6  1  0  0  0  0
  5  7  1  0  0  0  0
  8  5  1  0  0  0  0
  9 10  1  0  0  0  0
  9 12  1  0  0  0  0
 11  9  1  0  0  0  0
 13 14  1  0  0  0  0
 13  1  1  0  0  0  0
 15 13  1  0  0  0  0
 16 13  1  0  0  0  0
 18  4  1  0  0  0  0
M  END
