27
q = 0.0, confidence = 0.996

 30 32  0  0  0  0  0  0  0  0999 V2000
    1.6500    2.8386   -0.0808 C   0  0  0  0  0  0  0  0  0  0  0  0
    2.7302    3.0138   -0.0593 H   0  0  0  0  0  0  0  0  0  0  0  0
    0.6191    3.7655   -0.1269 C   0  0  0  0  0  3  0  0  0  0  0  0
    0.6340    4.8602   -0.1557 H   0  0  0  0  0  0  0  0  0  0  0  0
   -1.8870    3.6525   -0.1825 C   0  0  0  0  0  0  0  0  0  0  0  0
   -1.7703    4.7480   -0.2799 H   0  0  0  0  0  0  0  0  0  0  0  0
   -2.4522    3.4158    0.7383 H   0  0  0  0  0  0  0  0  0  0  0  0
   -2.4601    3.2559   -1.0403 H   0  0  0  0  0  0  0  0  0  0  0  0
   -0.2266    1.7091   -0.0986 C   0  0  0  0  0  0  0  0  0  0  0  0
   -3.0923   -0.3337   -0.1044 C   0  0  0  0  0  0  0  0  0  0  0  0
   -4.5190   -0.1358    0.0118 C   0  0  0  0  0  0  0  0  0  0  0  0
   -5.1076    1.1511    0.1548 C   0  0  0  0  0  0  0  0  0  0  0  0
   -4.4461    2.0266    0.1766 H   0  0  0  0  0  0  0  0  0  0  0  0
   -6.4844    1.2940    0.2653 C   0  0  0  0  0  0  0  0  0  0  0  0
   -6.9234    2.2974    0.3748 H   0  0  0  0  0  0  0  0  0  0  0  0
   -7.3338    0.1563    0.2392 C   0  0  0  0  0  0  0  0  0  0  0  0
   -8.4231    0.2840    0.3285 H   0  0  0  0  0  0  0  0  0  0  0  0
   -6.7898   -1.1111    0.1019 C   0  0  0  0  0  0  0  0  0  0  0  0
   -7.4390   -2.0001    0.0811 H   0  0  0  0  0  0  0  0  0  0  0  0
   -5.3796   -1.2934   -0.0151 C   0  0  0  0  0  0  0  0  0  0  0  0
   -4.8021   -2.5871   -0.1576 C   0  0  0  0  0  0  0  0  0  0  0  0
   -5.4685   -3.4634   -0.1785 H   0  0  0  0  0  0  0  0  0  0  0  0
   -3.4238   -2.7483   -0.2727 C   0  0  0  0  0  0  0  0  0  0  0  0
   -2.9939   -3.7546   -0.3870 H   0  0  0  0  0  0  0  0  0  0  0  0
   -2.5695   -1.6297   -0.2470 C   0  0  0  0  0  0  0  0  0  0  0  0
   -1.4830   -1.7475   -0.3461 H   0  0  0  0  0  0  0  0  0  0  0  0
    1.1254    1.5746   -0.0645 N   0  0  0  0  0  0  0  0  0  0  0  0
   -0.5583    3.0587   -0.1371 N   0  0  0  0  0  0  0  0  0  0  0  0
   -1.0374    0.6164   -0.1009 N   0  0  0  0  0  0  0  0  0  0  0  0
   -2.3026    0.8195   -0.0760 N   0  0  0  0  0  2  0  0  0  0  0  0
  1 27  2  0  0  0  0
  1  2  1  0  0  0  0
  3  1  1  0  0  0  0
  4  3  1  0  0  0  0
  5 28  1  0  0  0  0
  5  7  1  0  0  0  0
  6  5  1  0  0  0  0
  8  5  1  0  0  0  0
  9 27  1  0  0  0  0
 10 30  1  0  0  0  0
 10 11  1  0  0  0  0
 11 12  1  0  0  0  0
 12 13  1  0  0  0  0
 12 14  2  0  0  0  0
 14 15  1  0  0  0  0
 16 14  1  0  0  0  0
 16 17  1  0  0  0  0
 18 16  2  0  0  0  0
 19 18  1  0  0  0  0
 20 11  2  0  0  0  0
 20 18  1  0  0  0  0
 21 20  1  0  0  0  0
 22 21  1  0  0  0  0
 23 25  1  0  0  0  0
 23 21  2  0  0  0  0
 24 23  1  0  0  0  0
 25 10  2  0  0  0  0
 26 25  1  0  0  0  0
 28  3  1  0  0  0  0
 28  9  1  0  0  0  0
 29  9  2  0  0  0  0
 29 30  1  0  0  0  0
M  END
