1
q = -1.0

 15 15  0  0  0  0  0  0  0  0999 V2000
   -1.5137    0.2729   -0.5616 N   0  0  0  0  0  0  0  0  0  0  0  0
   -2.3086    1.3770   -0.2282 C   0  0  0  0  0  3  0  0  0  0  0  0
   -3.5879    0.9239    0.0659 C   0  0  0  0  0  0  0  0  0  0  0  0
   -3.6024   -0.5115   -0.0708 C   0  0  0  0  0  0  0  0  0  0  0  0
   -2.3159   -0.8699   -0.4504 C   0  0  0  0  0  0  0  0  0  0  0  0
   -1.8006    2.7826   -0.2463 C   0  0  0  0  0  0  0  0  0  0  0  0
   -4.7800   -1.4215    0.0969 C   0  0  0  0  0  0  0  0  0  0  0  0
   -4.4423    1.5624    0.3254 H   0  0  0  0  0  0  0  0  0  0  0  0
   -1.9265   -1.8562   -0.7272 H   0  0  0  0  0  0  0  0  0  0  0  0
   -1.3090    3.0261   -1.2100 H   0  0  0  0  0  0  0  0  0  0  0  0
   -2.6415    3.4850   -0.0930 H   0  0  0  0  0  0  0  0  0  0  0  0
   -1.0511    2.9827    0.5478 H   0  0  0  0  0  0  0  0  0  0  0  0
   -5.2265   -1.3295    1.1101 H   0  0  0  0  0  0  0  0  0  0  0  0
   -5.5882   -1.1838   -0.6276 H   0  0  0  0  0  0  0  0  0  0  0  0
   -4.4977   -2.4822   -0.0522 H   0  0  0  0  0  0  0  0  0  0  0  0
  1  5  2  0  0  0  0
  1  2  1  0  0  0  0
  2  3  1  0  0  0  0
  3  8  1  0  0  0  0
  4  3  2  0  0  0  0
  4  7  1  0  0  0  0
  5  4  1  0  0  0  0
  6  2  1  0  0  0  0
  6 11  1  0  0  0  0
  6 12  1  0  0  0  0
  7 13  1  0  0  0  0
  9  5  1  0  0  0  0
 10  6  1  0  0  0  0
 14  7  1  0  0  0  0
 15  7  1  0  0  0  0
M  END
