1
q = -1.0

 21 21  0  0  0  0  0  0  0  0999 V2000
   -1.0250    0.1789   -0.8456 N   0  0  0  0  0  0  0  0  0  0  0  0
   -2.0461   -0.7683   -0.7255 C   0  0  0  0  0  0  0  0  0  0  0  0
   -3.2468   -0.1092   -0.4570 C   0  0  0  0  0  0  0  0  0  0  0  0
   -2.9542    1.3069   -0.3842 C   0  0  0  0  0  0  0  0  0  0  0  0
   -1.5942    1.4398   -0.6253 C   0  0  0  0  0  3  0  0  0  0  0  0
   -1.8137   -2.2367   -0.8822 C   0  0  0  0  0  0  0  0  0  0  0  0
   -4.5895   -0.7426   -0.2323 C   0  0  0  0  0  0  0  0  0  0  0  0
   -4.8598   -1.0699    1.2465 C   0  0  0  0  0  0  0  0  0  0  0  0
   -3.9454    2.4086   -0.1706 C   0  0  0  0  0  0  0  0  0  0  0  0
   -0.9971    2.3514   -0.7412 H   0  0  0  0  0  0  0  0  0  0  0  0
   -1.5838   -2.7447    0.0801 H   0  0  0  0  0  0  0  0  0  0  0  0
   -2.7199   -2.7275   -1.2895 H   0  0  0  0  0  0  0  0  0  0  0  0
   -0.9696   -2.4392   -1.5687 H   0  0  0  0  0  0  0  0  0  0  0  0
   -5.3881   -0.0676   -0.6090 H   0  0  0  0  0  0  0  0  0  0  0  0
   -4.6716   -1.6742   -0.8325 H   0  0  0  0  0  0  0  0  0  0  0  0
   -4.1045   -1.7814    1.6389 H   0  0  0  0  0  0  0  0  0  0  0  0
   -4.8065   -0.1567    1.8741 H   0  0  0  0  0  0  0  0  0  0  0  0
   -5.8626   -1.5229    1.3890 H   0  0  0  0  0  0  0  0  0  0  0  0
   -4.4787    2.3029    0.7987 H   0  0  0  0  0  0  0  0  0  0  0  0
   -3.4545    3.4014   -0.1770 H   0  0  0  0  0  0  0  0  0  0  0  0
   -4.7280    2.4170   -0.9598 H   0  0  0  0  0  0  0  0  0  0  0  0
  1  2  2  0  0  0  0
  1  5  1  0  0  0  0
  2  3  1  0  0  0  0
  3  4  2  0  0  0  0
  3  7  1  0  0  0  0
  4  9  1  0  0  0  0
  5  4  1  0  0  0  0
  6  2  1  0  0  0  0
  6 11  1  0  0  0  0
  7  8  1  0  0  0  0
  8 18  1  0  0  0  0
  8 16  1  0  0  0  0
  8 17  1  0  0  0  0
  9 19  1  0  0  0  0
 10  5  1  0  0  0  0
 12  6  1  0  0  0  0
 13  6  1  0  0  0  0
 14  7  1  0  0  0  0
 15  7  1  0  0  0  0
 20  9  1  0  0  0  0
 21  9  1  0  0  0  0
M  END
