2
q = 0.0, confidence = 1.0

 29 30  0  0  0  0  0  0  0  0999 V2000
    5.9001    0.2895   -1.6229 O   0  0  0  0  0  0  0  0  0  0  0  0
    1.7027   -1.9546   -0.0142 N   0  0  0  0  0  2  0  0  0  0  0  0
    5.4509    1.4537    0.3062 N   0  0  0  0  0  0  0  0  0  0  0  0
    6.5341    2.2830    0.1963 N   0  0  0  0  0  0  0  0  0  0  0  0
    2.2428   -1.8085   -1.2413 C   0  0  0  0  0  3  0  0  0  0  0  0
    3.3759   -1.0195   -1.4560 C   0  0  0  0  0  0  0  0  0  0  0  0
    3.9636   -0.3546   -0.3643 C   0  0  0  0  0  0  0  0  0  0  0  0
    3.4053   -0.5435    0.9149 C   0  0  0  0  0  0  0  0  0  0  0  0
    2.2722   -1.3545    1.0472 C   0  0  0  0  0  0  0  0  0  0  0  0
    5.1977    0.4736   -0.6403 C   0  0  0  0  0  0  0  0  0  0  0  0
    6.5739    3.4365   -0.5894 C   0  0  0  0  0  0  0  0  0  0  0  0
    5.4134    3.8535   -1.4266 C   0  0  0  0  0  0  0  0  0  0  0  0
    7.8418    3.9718   -0.4169 C   0  0  0  0  0  0  0  0  0  0  0  0
    8.5734    3.1211    0.4737 C   0  0  0  0  0  0  0  0  0  0  0  0
    7.7518    2.0668    0.8439 C   0  0  0  0  0  0  0  0  0  0  0  0
    7.9753    0.8762    1.7124 C   0  0  0  0  0  0  0  0  0  0  0  0
    4.7534    1.6839    1.0199 H   0  0  0  0  0  0  0  0  0  0  0  0
    1.7379   -2.3745   -2.0439 H   0  0  0  0  0  0  0  0  0  0  0  0
    3.8256   -0.9152   -2.4537 H   0  0  0  0  0  0  0  0  0  0  0  0
    3.8566   -0.1039    1.8167 H   0  0  0  0  0  0  0  0  0  0  0  0
    1.7953   -1.5734    2.0194 H   0  0  0  0  0  0  0  0  0  0  0  0
    5.6367    4.8185   -1.9180 H   0  0  0  0  0  0  0  0  0  0  0  0
    4.4826    3.9866   -0.8336 H   0  0  0  0  0  0  0  0  0  0  0  0
    5.1954    3.1096   -2.2233 H   0  0  0  0  0  0  0  0  0  0  0  0
    8.2070    4.8854   -0.8994 H   0  0  0  0  0  0  0  0  0  0  0  0
    9.6075    3.2577    0.8099 H   0  0  0  0  0  0  0  0  0  0  0  0
    7.8831   -0.0749    1.1446 H   0  0  0  0  0  0  0  0  0  0  0  0
    7.2573    0.8230    2.5596 H   0  0  0  0  0  0  0  0  0  0  0  0
    8.9942    0.9145    2.1402 H   0  0  0  0  0  0  0  0  0  0  0  0
  1 10  2  0  0  0  0
  2  9  1  0  0  0  0
  3 17  1  0  0  0  0
  4  3  1  0  0  0  0
  4 15  1  0  0  0  0
  5  2  1  0  0  0  0
  6  5  1  0  0  0  0
  6  7  2  0  0  0  0
  7  8  1  0  0  0  0
  8  9  2  0  0  0  0
  8 20  1  0  0  0  0
  9 21  1  0  0  0  0
 10  7  1  0  0  0  0
 10  3  1  0  0  0  0
 11 13  2  0  0  0  0
 11  4  1  0  0  0  0
 12 23  1  0  0  0  0
 12 11  1  0  0  0  0
 13 14  1  0  0  0  0
 14 26  1  0  0  0  0
 14 15  2  0  0  0  0
 15 16  1  0  0  0  0
 16 29  1  0  0  0  0
 16 28  1  0  0  0  0
 18  5  1  0  0  0  0
 19  6  1  0  0  0  0
 22 12  1  0  0  0  0
 24 12  1  0  0  0  0
 25 13  1  0  0  0  0
 27 16  1  0  0  0  0
M  END
