1
q = 0.0, confidence = 0.994

 41 42  0  0  0  0  0  0  0  0999 V2000
    0.7417   -0.6175   -2.0578 N   0  0  0  0  0  0  0  0  0  0  0  0
   -0.4879   -0.8893   -2.8482 C   0  0  0  0  0  0  0  0  0  0  0  0
   -1.1532   -0.0085   -2.8048 H   0  0  0  0  0  0  0  0  0  0  0  0
   -1.0061   -1.7633   -2.4123 H   0  0  0  0  0  0  0  0  0  0  0  0
   -0.2178   -1.1183   -3.9034 H   0  0  0  0  0  0  0  0  0  0  0  0
    1.6160   -1.8197   -2.1275 C   0  0  0  0  0  0  0  0  0  0  0  0
    1.0870   -2.6881   -1.7028 H   0  0  0  0  0  0  0  0  0  0  0  0
    1.8674   -2.0088   -3.1945 H   0  0  0  0  0  0  0  0  0  0  0  0
    2.5454   -1.6515   -1.5616 H   0  0  0  0  0  0  0  0  0  0  0  0
    1.4614    0.5520   -2.6547 C   0  0  0  0  0  0  0  0  0  0  0  0
    2.4940    1.2169   -1.7662 C   0  0  0  0  0  0  0  0  0  0  0  0
    3.6387    0.3894   -1.5779 O   0  0  0  0  0  0  0  0  0  0  0  0
    4.7042    0.9922   -0.9901 C   0  0  0  0  0  0  0  0  0  0  0  0
    5.7107    0.3059   -0.3759 C   0  0  0  0  0  0  0  0  0  0  0  0
    6.9037    1.0576    0.0868 C   0  0  0  0  0  0  0  0  0  0  0  0
    7.4189    2.1594   -0.6371 C   0  0  0  0  0  0  0  0  0  0  0  0
    8.5157    2.8904   -0.1595 C   0  0  0  0  0  0  0  0  0  0  0  0
    9.1392    2.5267    1.0444 C   0  0  0  0  0  0  0  0  0  0  0  0
    8.6539    1.4221    1.7644 C   0  0  0  0  0  0  0  0  0  0  0  0
    7.5527    0.6966    1.2927 C   0  0  0  0  0  0  0  0  0  0  0  0
    7.1730   -0.1617    1.8669 H   0  0  0  0  0  0  0  0  0  0  0  0
    9.1365    1.1248    2.7082 H   0  0  0  0  0  0  0  0  0  0  0  0
   10.0072    3.0934    1.4140 H   0  0  0  0  0  0  0  0  0  0  0  0
    8.8994    3.7404   -0.7446 H   0  0  0  0  0  0  0  0  0  0  0  0
    6.9675    2.4246   -1.6052 H   0  0  0  0  0  0  0  0  0  0  0  0
    5.6471   -1.1629   -0.1557 C   0  0  0  0  0  0  0  0  0  0  0  0
    6.7819   -1.9715   -0.3979 C   0  0  0  0  0  0  0  0  0  0  0  0
    6.7321   -3.3583   -0.2001 C   0  0  0  0  0  0  0  0  0  0  0  0
    5.5488   -3.9674    0.2491 C   0  0  0  0  0  0  0  0  0  0  0  0
    4.4180   -3.1751    0.5047 C   0  0  0  0  0  0  0  0  0  0  0  0
    4.4676   -1.7885    0.3081 C   0  0  0  0  0  0  0  0  0  0  0  0
    3.5726   -1.1892    0.5279 H   0  0  0  0  0  0  0  0  0  0  0  0
    3.4793   -3.6252    0.8620 H   0  0  0  0  0  0  0  0  0  0  0  0
    5.5106   -5.0566    0.4044 H   0  0  0  0  0  0  0  0  0  0  0  0
    7.6255   -3.9695   -0.4018 H   0  0  0  0  0  0  0  0  0  0  0  0
    7.7109   -1.4993   -0.7521 H   0  0  0  0  0  0  0  0  0  0  0  0
    4.7301    2.0954   -1.0683 H   0  0  0  0  0  0  0  0  0  0  0  0
    2.0295    1.4651   -0.7844 H   0  0  0  0  0  0  0  0  0  0  0  0
    2.7944    2.1749   -2.2527 H   0  0  0  0  0  0  0  0  0  0  0  0
    0.6988    1.3206   -2.8753 H   0  0  0  0  0  0  0  0  0  0  0  0
    1.9322    0.2212   -3.6076 H   0  0  0  0  0  0  0  0  0  0  0  0
  2  3  1  0  0  0  0
  2  4  1  0  0  0  0
  2  1  1  0  0  0  0
  5  2  1  0  0  0  0
  6  1  1  0  0  0  0
  6  7  1  0  0  0  0
  6  9  1  0  0  0  0
  8  6  1  0  0  0  0
 10  1  1  0  0  0  0
 10 11  1  0  0  0  0
 11 12  1  0  0  0  0
 11 38  1  0  0  0  0
 12 13  1  0  0  0  0
 13 14  2  0  0  0  0
 14 26  1  0  0  0  0
 14 15  1  0  0  0  0
 15 20  1  0  0  0  0
 16 17  1  0  0  0  0
 16 15  2  0  0  0  0
 17 18  2  0  0  0  0
 18 23  1  0  0  0  0
 18 19  1  0  0  0  0
 19 22  1  0  0  0  0
 20 19  2  0  0  0  0
 20 21  1  0  0  0  0
 24 17  1  0  0  0  0
 25 16  1  0  0  0  0
 26 31  1  0  0  0  0
 27 28  1  0  0  0  0
 27 26  2  0  0  0  0
 28 29  2  0  0  0  0
 29 34  1  0  0  0  0
 29 30  1  0  0  0  0
 30 33  1  0  0  0  0
 31 30  2  0  0  0  0
 31 32  1  0  0  0  0
 35 28  1  0  0  0  0
 36 27  1  0  0  0  0
 37 13  1  0  0  0  0
 39 11  1  0  0  0  0
 40 10  1  0  0  0  0
 41 10  1  0  0  0  0
M  END
