1
q = 0.0, confidence = 1.0

 27 27  0  0  1  0  0  0  0  0999 V2000
    1.8652    0.8054   -0.3866 N   0  0  0  0  0  2  0  0  0  0  0  0
    2.9984   -1.1316   -1.2199 N   0  0  0  0  0  0  0  0  0  0  0  0
    4.0276   -0.0584    0.4126 N   0  0  0  0  0  0  0  0  0  0  0  0
    1.2494    4.3984   -0.0274 O   0  0  0  0  0  0  0  0  0  0  0  0
    2.0165    2.1575    0.1259 C   0  0  0  0  0  0  0  0  0  0  0  0
    1.0502    3.1102   -0.5733 C   0  0  0  0  0  0  0  0  0  0  0  0
    2.8845   -0.0446   -0.3725 C   0  0  1  0  0  3  0  0  0  0  0  0
    4.1804    0.6706    1.6662 C   0  0  0  0  0  0  0  0  0  0  0  0
    4.8286   -1.1377    0.0407 C   0  0  0  0  0  0  0  0  0  0  0  0
    4.1809   -1.8096   -0.9573 C   0  0  0  0  0  0  0  0  0  0  0  0
    2.0139   -1.4919   -2.2219 C   0  0  0  0  0  0  0  0  0  0  0  0
    0.3786    5.3548   -0.5726 C   0  0  0  0  0  0  0  0  0  0  0  0
    1.8229    2.2200    1.2213 H   0  0  0  0  0  0  0  0  0  0  0  0
    3.0485    2.5322   -0.0543 H   0  0  0  0  0  0  0  0  0  0  0  0
    1.2241    3.0950   -1.6774 H   0  0  0  0  0  0  0  0  0  0  0  0
   -0.0001    2.7565   -0.4224 H   0  0  0  0  0  0  0  0  0  0  0  0
    4.9672    0.1721    2.2607 H   0  0  0  0  0  0  0  0  0  0  0  0
    4.4706    1.7263    1.5040 H   0  0  0  0  0  0  0  0  0  0  0  0
    3.2236    0.6176    2.2233 H   0  0  0  0  0  0  0  0  0  0  0  0
    5.7880   -1.3345    0.5268 H   0  0  0  0  0  0  0  0  0  0  0  0
    4.4688   -2.7015   -1.5201 H   0  0  0  0  0  0  0  0  0  0  0  0
    1.2321   -2.1525   -1.7920 H   0  0  0  0  0  0  0  0  0  0  0  0
    1.5005   -0.5783   -2.5799 H   0  0  0  0  0  0  0  0  0  0  0  0
    2.5222   -2.0083   -3.0578 H   0  0  0  0  0  0  0  0  0  0  0  0
    0.5090    5.4669   -1.6778 H   0  0  0  0  0  0  0  0  0  0  0  0
    0.5965    6.3292   -0.0918 H   0  0  0  0  0  0  0  0  0  0  0  0
   -0.6958    5.1002   -0.3908 H   0  0  0  0  0  0  0  0  0  0  0  0
  1  5  1  0  0  0  0
  2 10  1  0  0  0  0
  2  7  1  0  0  0  0
  3  8  1  0  0  0  0
  5 13  1  0  0  0  0
  6 16  1  0  0  0  0
  6  4  1  0  0  0  0
  6  5  1  0  0  0  0
  7  1  1  6  0  0  0
  7  3  1  0  0  0  0
  8 19  1  0  0  0  0
  8 17  1  0  0  0  0
  9  3  1  0  0  0  0
  9 20  1  0  0  0  0
 10  9  2  0  0  0  0
 11 22  1  0  0  0  0
 11  2  1  0  0  0  0
 12 27  1  0  0  0  0
 12 26  1  0  0  0  0
 12  4  1  0  0  0  0
 14  5  1  0  0  0  0
 15  6  1  0  0  0  0
 18  8  1  0  0  0  0
 21 10  1  0  0  0  0
 23 11  1  0  0  0  0
 24 11  1  0  0  0  0
 25 12  1  0  0  0  0
M  END
