5
q = 0.0, confidence = 1.0

 26 27  0  0  0  0  0  0  0  0999 V2000
    1.7631    4.6432    0.4194 F   0  0  0  0  0  0  0  0  0  0  0  0
    5.0965   -2.6090    1.6852 F   0  0  0  0  0  0  0  0  0  0  0  0
    0.8263   -2.3572   -0.2319 O   0  0  0  0  0  0  0  0  0  0  0  0
    0.0354   -2.7944   -0.6808 H   0  0  0  0  0  0  0  0  0  0  0  0
    0.4688   -1.0393   -0.3123 N   0  0  0  0  0  2  0  0  0  0  0  0
    1.4301   -0.1464   -0.3940 C   0  0  0  0  0  3  0  0  0  0  0  0
    1.0353    1.2525   -0.6991 C   0  0  0  0  0  0  0  0  0  0  0  0
    1.5973    2.3178    0.0341 C   0  0  0  0  0  0  0  0  0  0  0  0
    2.2816    2.1308    0.8716 H   0  0  0  0  0  0  0  0  0  0  0  0
    1.2381    3.6285   -0.2901 C   0  0  0  0  0  0  0  0  0  0  0  0
    0.3410    3.9165   -1.3287 C   0  0  0  0  0  0  0  0  0  0  0  0
    0.0919    4.9640   -1.5507 H   0  0  0  0  0  0  0  0  0  0  0  0
   -0.2036    2.8509   -2.0629 C   0  0  0  0  0  0  0  0  0  0  0  0
   -0.8993    3.0573   -2.8894 H   0  0  0  0  0  0  0  0  0  0  0  0
    0.1354    1.5248   -1.7559 C   0  0  0  0  0  0  0  0  0  0  0  0
   -0.2809    0.6957   -2.3454 H   0  0  0  0  0  0  0  0  0  0  0  0
    2.8637   -0.4756   -0.2491 C   0  0  0  0  0  0  0  0  0  0  0  0
    3.3081   -1.4530    0.6696 C   0  0  0  0  0  0  0  0  0  0  0  0
    2.6037   -2.0208    1.2889 H   0  0  0  0  0  0  0  0  0  0  0  0
    4.6779   -1.6897    0.7985 C   0  0  0  0  0  0  0  0  0  0  0  0
    5.6290   -1.0007    0.0338 C   0  0  0  0  0  0  0  0  0  0  0  0
    6.6962   -1.2285    0.1667 H   0  0  0  0  0  0  0  0  0  0  0  0
    5.1824   -0.0353   -0.8804 C   0  0  0  0  0  0  0  0  0  0  0  0
    5.9137    0.5137   -1.4919 H   0  0  0  0  0  0  0  0  0  0  0  0
    3.8156    0.2366   -1.0180 C   0  0  0  0  0  0  0  0  0  0  0  0
    3.4745    0.9971   -1.7340 H   0  0  0  0  0  0  0  0  0  0  0  0
  4  3  1  0  0  0  0
  5  3  1  0  0  0  0
  6  5  1  0  0  0  0
  6 17  1  0  0  0  0
  7  6  1  0  0  0  0
  7  8  1  0  0  0  0
  8  9  1  0  0  0  0
 10  8  2  0  0  0  0
 10  1  1  0  0  0  0
 11 10  1  0  0  0  0
 12 11  1  0  0  0  0
 13 15  1  0  0  0  0
 13 11  2  0  0  0  0
 14 13  1  0  0  0  0
 15  7  2  0  0  0  0
 16 15  1  0  0  0  0
 17 18  1  0  0  0  0
 18 20  2  0  0  0  0
 18 19  1  0  0  0  0
 20  2  1  0  0  0  0
 21 22  1  0  0  0  0
 21 20  1  0  0  0  0
 23 21  2  0  0  0  0
 24 23  1  0  0  0  0
 25 23  1  0  0  0  0
 25 17  2  0  0  0  0
 26 25  1  0  0  0  0
M  END
