2
q = 0.0, confidence = 0.974

 15 15  0  0  0  0  0  0  0  0999 V2000
    5.0730   -0.0000   -0.0005 B   0  0  0  0  0  0  0  0  0  0  0  0
    0.6643    0.0000    0.0007 N   0  0  0  0  0  2  0  0  0  0  0  0
    5.7321   -1.0949   -0.5313 O   0  0  0  0  0  0  0  0  0  0  0  0
    6.7012   -1.0258   -0.4958 H   0  0  0  0  0  0  0  0  0  0  0  0
    5.7324    1.0948    0.5301 O   0  0  0  0  0  0  0  0  0  0  0  0
    6.7015    1.0256    0.4942 H   0  0  0  0  0  0  0  0  0  0  0  0
    1.3685    1.0630    0.4894 C   0  0  0  0  0  3  0  0  0  0  0  0
    0.7487    1.9076    0.8252 H   0  0  0  0  0  0  0  0  0  0  0  0
    2.7615    1.0870    0.5031 C   0  0  0  0  0  0  0  0  0  0  0  0
    3.2712    1.9718    0.9138 H   0  0  0  0  0  0  0  0  0  0  0  0
    3.5143   -0.0000   -0.0001 C   0  0  0  0  0  0  0  0  0  0  0  0
    2.7612   -1.0868   -0.5031 C   0  0  0  0  0  0  0  0  0  0  0  0
    3.2706   -1.9715   -0.9143 H   0  0  0  0  0  0  0  0  0  0  0  0
    1.3682   -1.0628   -0.4889 C   0  0  0  0  0  0  0  0  0  0  0  0
    0.7482   -1.9072   -0.8246 H   0  0  0  0  0  0  0  0  0  0  0  0
  1 11  1  0  0  0  0
  1  5  1  0  0  0  0
  2  7  1  0  0  0  0
  3  4  1  0  0  0  0
  3  1  1  0  0  0  0
  6  5  1  0  0  0  0
  7  9  1  0  0  0  0
  7  8  1  0  0  0  0
  9 10  1  0  0  0  0
 11  9  2  0  0  0  0
 12 14  2  0  0  0  0
 12 11  1  0  0  0  0
 13 12  1  0  0  0  0
 14  2  1  0  0  0  0
 15 14  1  0  0  0  0
M  END
