5
q = 0.0, confidence = 0.992

 20 21  0  0  0  0  0  0  0  0999 V2000
   -8.7524   -0.1630    0.5337 N   0  0  0  0  0  0  0  0  0  0  0  0
   -8.1905   -1.4304    0.4250 N   0  0  0  0  0  0  0  0  0  0  0  0
   -6.5688    0.0703    0.2657 N   0  0  0  0  0  0  0  0  0  0  0  0
   -5.2927    0.4929    0.1260 N   0  0  0  0  0  0  0  0  0  0  0  0
   -1.3008    1.4355   -0.2423 N   0  0  0  0  0  2  0  0  0  0  0  0
   -6.8956   -1.2784    0.2779 C   0  0  0  0  0  0  0  0  0  0  0  0
   -6.1235   -2.0497    0.1458 H   0  0  0  0  0  0  0  0  0  0  0  0
   -7.7869    0.7221    0.4278 C   0  0  0  0  0  0  0  0  0  0  0  0
   -7.9014    1.8100    0.4909 H   0  0  0  0  0  0  0  0  0  0  0  0
   -5.0243    1.7393   -0.0841 C   0  0  0  0  0  0  0  0  0  0  0  0
   -5.7979    2.5300   -0.1851 H   0  0  0  0  0  0  0  0  0  0  0  0
   -3.6210    2.1334   -0.2517 C   0  0  0  0  0  0  0  0  0  0  0  0
   -2.6069    1.1835   -0.0214 C   0  0  0  0  0  3  0  0  0  0  0  0
   -2.8708    0.1791    0.3299 H   0  0  0  0  0  0  0  0  0  0  0  0
   -0.9444    2.6812   -0.6669 C   0  0  0  0  0  0  0  0  0  0  0  0
    0.1350    2.8648   -0.7761 H   0  0  0  0  0  0  0  0  0  0  0  0
   -1.8867    3.6889   -0.8915 C   0  0  0  0  0  0  0  0  0  0  0  0
   -1.5453    4.6793   -1.2244 H   0  0  0  0  0  0  0  0  0  0  0  0
   -3.2476    3.4212   -0.6886 C   0  0  0  0  0  0  0  0  0  0  0  0
   -4.0104    4.1929   -0.8750 H   0  0  0  0  0  0  0  0  0  0  0  0
  2  1  1  0  0  0  0
  3  6  1  0  0  0  0
  3  8  1  0  0  0  0
  4  3  1  0  0  0  0
  5 13  1  0  0  0  0
  6  2  2  0  0  0  0
  7  6  1  0  0  0  0
  8  9  1  0  0  0  0
  8  1  2  0  0  0  0
 10  4  2  0  0  0  0
 11 10  1  0  0  0  0
 12 10  1  0  0  0  0
 12 13  1  0  0  0  0
 13 14  1  0  0  0  0
 15  5  1  0  0  0  0
 16 15  1  0  0  0  0
 17 19  1  0  0  0  0
 17 15  2  0  0  0  0
 18 17  1  0  0  0  0
 19 12  2  0  0  0  0
 20 19  1  0  0  0  0
M  END
