2
q = -2.0, confidence = 0.616

 38 43  0  0  1  0  0  0  0  0999 V2000
   -0.3096   -2.2897    0.1989 N   0  0  0  0  0  2  0  0  0  0  0  0
    0.3827   -1.2174    0.0227 N   0  0  0  0  0  2  0  0  0  0  0  0
    5.8989   -2.0780    0.2176 O   0  0  0  0  0  0  0  0  0  0  0  0
   -1.7030   -2.0387    0.1408 C   0  0  1  0  0  0  0  0  0  0  0  0
   -2.3201   -1.5524   -1.2957 C   0  0  2  0  0  0  0  0  0  0  0  0
   -1.5901   -1.4645   -2.1125 H   0  0  0  0  0  0  0  0  0  0  0  0
   -2.6656   -3.1481   -0.7524 B   0  0  2  0  0  0  0  0  0  0  0  0
   -2.0979   -4.0621   -1.2901 H   0  0  0  0  0  0  0  0  0  0  0  0
   -2.8320   -2.9690    1.0088 B   0  0  2  0  0  0  0  0  0  0  0  0
   -2.4077   -3.8482    1.7159 H   0  0  0  0  0  0  0  0  0  0  0  0
   -2.4956   -1.2572    1.4247 B   0  0  2  0  0  0  0  0  0  0  0  0
   -1.8549   -1.0285    2.4218 H   0  0  0  0  0  0  0  0  0  0  0  0
   -3.5399   -0.4092   -1.1110 B   0  0  0  0  0  0  0  0  0  0  0  0
   -3.6692    0.4442   -1.9519 H   0  0  0  0  0  0  0  0  0  0  0  0
   -3.8901   -2.1156   -1.5310 B   0  0  1  0  0  0  0  0  0  0  0  0
   -4.2311   -2.4034   -2.6512 H   0  0  0  0  0  0  0  0  0  0  0  0
   -4.2781   -3.0027   -0.0340 B   0  0  0  0  0  2  0  0  0  0  0  0
   -5.0301   -3.9480   -0.0416 H   0  0  0  0  0  0  0  0  0  0  0  0
   -4.1701   -1.8372    1.3192 B   0  0  1  0  0  0  0  0  0  0  0  0
   -4.8422   -1.9424    2.3192 H   0  0  0  0  0  0  0  0  0  0  0  0
   -3.7243   -0.2317    0.6487 B   0  0  1  0  0  0  0  0  0  0  0  0
   -4.1236    0.7922    1.1448 H   0  0  0  0  0  0  0  0  0  0  0  0
   -4.8277   -1.3075   -0.2536 B   0  0  1  0  0  0  0  0  0  0  0  0
   -5.9926   -1.0300   -0.4180 H   0  0  0  0  0  0  0  0  0  0  0  0
    1.7956   -1.4309    0.0710 C   0  0  0  0  0  0  0  0  0  0  0  0
    2.3688   -2.2577    1.0602 C   0  0  0  0  0  0  0  0  0  0  0  0
    1.7139   -2.7380    1.8004 H   0  0  0  0  0  0  0  0  0  0  0  0
    3.7494   -2.4372    1.0902 C   0  0  0  0  0  0  0  0  0  0  0  0
    4.2306   -3.0511    1.8648 H   0  0  0  0  0  0  0  0  0  0  0  0
    4.5716   -1.8326    0.1077 C   0  0  0  0  0  0  0  0  0  0  0  0
    3.9858   -1.0349   -0.9008 C   0  0  0  0  0  0  0  0  0  0  0  0
    4.5990   -0.5749   -1.6866 H   0  0  0  0  0  0  0  0  0  0  0  0
    2.6018   -0.8235   -0.9065 C   0  0  0  0  0  0  0  0  0  0  0  0
    2.1201   -0.2134   -1.6865 H   0  0  0  0  0  0  0  0  0  0  0  0
    6.7789   -1.5040   -0.7348 C   0  0  0  0  0  0  0  0  0  0  0  0
    6.5561   -1.8563   -1.7661 H   0  0  0  0  0  0  0  0  0  0  0  0
    7.7969   -1.8304   -0.4542 H   0  0  0  0  0  0  0  0  0  0  0  0
    6.7360   -0.3923   -0.7175 H   0  0  0  0  0  0  0  0  0  0  0  0
  2 25  1  0  0  0  0
  2  1  1  0  0  0  0
  4  1  1  1  0  0  0
  4  9  1  0  0  0  0
  4 11  1  0  0  0  0
  5  6  1  6  0  0  0
  5 13  1  0  0  0  0
  5  4  1  0  0  0  0
  7  8  1  6  0  0  0
  7 17  1  0  0  0  0
  7  9  1  0  0  0  0
  9 19  1  0  0  0  0
  9 10  1  1  0  0  0
 11 12  1  1  0  0  0
 13 21  1  0  0  0  0
 14 13  1  0  0  0  0
 15 16  1  6  0  0  0
 15  5  1  0  0  0  0
 15  7  1  0  0  0  0
 15 23  1  0  0  0  0
 18 17  1  0  0  0  0
 19 11  1  0  0  0  0
 19 20  1  1  0  0  0
 21 22  1  1  0  0  0
 21 11  1  0  0  0  0
 23 24  1  6  0  0  0
 23 21  1  0  0  0  0
 23 19  1  0  0  0  0
 25 26  1  0  0  0  0
 26 28  2  0  0  0  0
 26 27  1  0  0  0  0
 28 29  1  0  0  0  0
 30  3  1  0  0  0  0
 30 28  1  0  0  0  0
 31 30  2  0  0  0  0
 32 31  1  0  0  0  0
 33 31  1  0  0  0  0
 33 25  2  0  0  0  0
 34 33  1  0  0  0  0
 35 38  1  0  0  0  0
 35 37  1  0  0  0  0
 35  3  1  0  0  0  0
 36 35  1  0  0  0  0
M  END
