1
q = -1.0, confidence = 0.0

 25 25  0  0  0  0  0  0  0  0999 V2000
    2.0160   -0.0000   -0.0004 N   0  0  0  0  0  2  0  0  0  0  0  0
    2.9815   -1.4788   -0.0002 Si  0  0  0  0  0  0  0  0  0  0  0  0
    4.7034   -0.7120    0.3070 C   0  0  0  0  0  0  0  0  0  0  0  0
    4.7035    0.7122   -0.3063 C   0  0  0  0  0  0  0  0  0  0  0  0
    2.9814    1.4788    0.0002 Si  0  0  0  0  0  0  0  0  0  0  0  0
    2.4431    2.6715   -1.3679 C   0  0  0  0  0  0  0  0  0  0  0  0
    1.4033    3.0272   -1.2042 H   0  0  0  0  0  0  0  0  0  0  0  0
    3.0953    3.5687   -1.4047 H   0  0  0  0  0  0  0  0  0  0  0  0
    2.4791    2.1749   -2.3588 H   0  0  0  0  0  0  0  0  0  0  0  0
    2.8804    2.3813    1.6628 C   0  0  0  0  0  0  0  0  0  0  0  0
    3.5091    3.2962    1.6740 H   0  0  0  0  0  0  0  0  0  0  0  0
    1.8361    2.6892    1.8825 H   0  0  0  0  0  0  0  0  0  0  0  0
    3.2151    1.7206    2.4883 H   0  0  0  0  0  0  0  0  0  0  0  0
    5.5319    1.3424    0.0827 H   0  0  0  0  0  0  0  0  0  0  0  0
    4.8471    0.6554   -1.4080 H   0  0  0  0  0  0  0  0  0  0  0  0
    5.5320   -1.3421   -0.0816 H   0  0  0  0  0  0  0  0  0  0  0  0
    4.8466   -0.6552    1.4088 H   0  0  0  0  0  0  0  0  0  0  0  0
    2.4427   -2.6712    1.3680 C   0  0  0  0  0  0  0  0  0  0  0  0
    3.0950   -3.5684    1.4052 H   0  0  0  0  0  0  0  0  0  0  0  0
    2.4783   -2.1744    2.3587 H   0  0  0  0  0  0  0  0  0  0  0  0
    1.4030   -3.0269    1.2039 H   0  0  0  0  0  0  0  0  0  0  0  0
    2.8813   -2.3817   -1.6626 C   0  0  0  0  0  0  0  0  0  0  0  0
    3.5100   -3.2965   -1.6733 H   0  0  0  0  0  0  0  0  0  0  0  0
    1.8371   -2.6896   -1.8827 H   0  0  0  0  0  0  0  0  0  0  0  0
    3.2163   -1.7211   -2.4881 H   0  0  0  0  0  0  0  0  0  0  0  0
  1  2  1  0  0  0  0
  1  5  1  0  0  0  0
  2  3  1  0  0  0  0
  2 18  1  0  0  0  0
  3 17  1  0  0  0  0
  4  5  1  0  0  0  0
  4 14  1  0  0  0  0
  4  3  1  0  0  0  0
  5 10  1  0  0  0  0
  6  7  1  0  0  0  0
  6  5  1  0  0  0  0
  8  6  1  0  0  0  0
  9  6  1  0  0  0  0
 10 11  1  0  0  0  0
 10 12  1  0  0  0  0
 10 13  1  0  0  0  0
 15  4  1  0  0  0  0
 16  3  1  0  0  0  0
 18 19  1  0  0  0  0
 18 20  1  0  0  0  0
 21 18  1  0  0  0  0
 22  2  1  0  0  0  0
 23 22  1  0  0  0  0
 24 22  1  0  0  0  0
 25 22  1  0  0  0  0
M  END
