1
q = -1.0

 14 14  0  0  0  0  0  0  0  0999 V2000
   -0.9424   -1.4251    0.3271 N   0  0  0  0  0  2  0  0  0  0  0  0
    0.0956   -2.1436    0.7555 O   0  0  0  0  0  1  0  0  0  0  0  0
   -2.2949   -2.2714    2.0303 N   0  0  0  0  0  4  0  0  0  0  0  0
   -3.3748   -0.3961   -1.3290 S   0  0  0  0  0  0  0  0  0  0  0  0
   -2.1179   -1.4901    0.9092 C   0  0  0  0  0  0  0  0  0  0  0  0
   -3.2421   -0.7342    0.3767 C   0  0  0  0  0  0  0  0  0  0  0  0
   -4.3479   -0.2521    1.0736 C   0  0  0  0  0  0  0  0  0  0  0  0
   -5.2825    0.4109    0.2285 C   0  0  0  0  0  0  0  0  0  0  0  0
   -4.8880    0.4107   -1.0993 C   0  0  0  0  0  0  0  0  0  0  0  0
   -4.4496   -0.3549    2.1624 H   0  0  0  0  0  0  0  0  0  0  0  0
   -6.2114    0.8783    0.5827 H   0  0  0  0  0  0  0  0  0  0  0  0
   -5.4068    0.8468   -1.9619 H   0  0  0  0  0  0  0  0  0  0  0  0
   -3.1782   -2.7803    2.0966 H   0  0  0  0  0  0  0  0  0  0  0  0
   -1.4629   -2.8116    2.2859 H   0  0  0  0  0  0  0  0  0  0  0  0
  1  2  1  0  0  0  0
  1  5  1  0  0  0  0
  3 13  1  0  0  0  0
  3 14  1  0  0  0  0
  4  9  1  0  0  0  0
  4  6  1  0  0  0  0
  5  3  2  0  0  0  0
  6  5  1  0  0  0  0
  6  7  2  0  0  0  0
  7 10  1  0  0  0  0
  8 11  1  0  0  0  0
  8  7  1  0  0  0  0
  9  8  2  0  0  0  0
 12  9  1  0  0  0  0
M  END
