1
q = -1.0

 17 18  0  0  0  0  0  0  0  0999 V2000
   -2.1535    0.0438   -0.9157 N   0  0  0  0  0  2  0  0  0  0  0  0
   -2.8600    1.4331   -0.2101 S   0  0  0  0  0  0  0  0  0  0  0  0
   -2.8830   -1.4183   -0.4117 S   0  0  0  0  0  0  0  0  0  0  0  0
   -2.2663    1.7559    1.1124 O   0  0  0  0  0  0  0  0  0  0  0  0
   -2.9422    2.4991   -1.2255 O   0  0  0  0  0  0  0  0  0  0  0  0
   -2.2951   -1.9343    0.8512 O   0  0  0  0  0  0  0  0  0  0  0  0
   -2.9841   -2.3302   -1.5659 O   0  0  0  0  0  0  0  0  0  0  0  0
   -4.4836    0.6950    0.0537 C   0  0  0  0  0  0  0  0  0  0  0  0
   -4.4944   -0.6985   -0.0432 C   0  0  0  0  0  0  0  0  0  0  0  0
   -5.6707   -1.4295    0.1462 C   0  0  0  0  0  0  0  0  0  0  0  0
   -5.6680   -2.5246    0.0455 H   0  0  0  0  0  0  0  0  0  0  0  0
   -6.8449   -0.7200    0.4479 C   0  0  0  0  0  0  0  0  0  0  0  0
   -7.7860   -1.2695    0.5993 H   0  0  0  0  0  0  0  0  0  0  0  0
   -6.8341    0.6843    0.5457 C   0  0  0  0  0  0  0  0  0  0  0  0
   -7.7667    1.2219    0.7728 H   0  0  0  0  0  0  0  0  0  0  0  0
   -5.6488    1.4107    0.3440 C   0  0  0  0  0  0  0  0  0  0  0  0
   -5.6291    2.5090    0.3963 H   0  0  0  0  0  0  0  0  0  0  0  0
  1  3  1  0  0  0  0
  1  2  1  0  0  0  0
  2  8  1  0  0  0  0
  2  4  2  0  0  0  0
  3  9  1  0  0  0  0
  3  6  2  0  0  0  0
  5  2  2  0  0  0  0
  7  3  2  0  0  0  0
  8 16  1  0  0  0  0
  9  8  2  0  0  0  0
  9 10  1  0  0  0  0
 10 12  2  0  0  0  0
 11 10  1  0  0  0  0
 12 14  1  0  0  0  0
 12 13  1  0  0  0  0
 14 15  1  0  0  0  0
 16 17  1  0  0  0  0
 16 14  2  0  0  0  0
M  END
