4
q = -1.0

 26 26  0  0  0  0  0  0  0  0999 V2000
   -1.4604   -0.3236   -2.5786 S   0  0  0  0  0  0  0  0  0  0  0  0
   -1.5647   -3.1867   -3.1201 S   0  0  0  0  0  0  0  0  0  0  0  0
   -0.2683   -2.2683   -1.0146 N   0  0  0  0  0  2  0  0  0  0  0  0
    0.0093   -1.4139   -0.0144 N   0  0  0  0  0  2  0  0  0  0  0  0
    5.3321   -5.3045    0.4842 O   0  0  0  0  0  0  0  0  0  0  0  0
   -1.0846   -4.7110   -2.2377 C   0  0  0  0  0  0  0  0  0  0  0  0
   -0.9881   -1.8730   -2.0652 C   0  0  0  0  0  0  0  0  0  0  0  0
    1.0466   -1.6343    0.7714 C   0  0  0  0  0  3  0  0  0  0  0  0
    2.3399   -3.4605   -0.4665 C   0  0  0  0  0  0  0  0  0  0  0  0
    3.4161   -4.3427   -0.4859 C   0  0  0  0  0  0  0  0  0  0  0  0
    4.3198   -4.4056    0.5998 C   0  0  0  0  0  0  0  0  0  0  0  0
    4.1290   -3.5526    1.7092 C   0  0  0  0  0  0  0  0  0  0  0  0
    3.0484   -2.6662    1.7174 C   0  0  0  0  0  0  0  0  0  0  0  0
    2.1231   -2.5973    0.6444 C   0  0  0  0  0  0  0  0  0  0  0  0
    6.2699   -5.4057    1.5394 C   0  0  0  0  0  0  0  0  0  0  0  0
   -1.5188   -5.5475   -2.8198 H   0  0  0  0  0  0  0  0  0  0  0  0
    0.0140   -4.8287   -2.1865 H   0  0  0  0  0  0  0  0  0  0  0  0
   -1.4959   -4.7179   -1.2100 H   0  0  0  0  0  0  0  0  0  0  0  0
    1.0683   -0.9858    1.6616 H   0  0  0  0  0  0  0  0  0  0  0  0
    1.6390   -3.4122   -1.3087 H   0  0  0  0  0  0  0  0  0  0  0  0
    3.5909   -5.0080   -1.3441 H   0  0  0  0  0  0  0  0  0  0  0  0
    4.8162   -3.5727    2.5653 H   0  0  0  0  0  0  0  0  0  0  0  0
    2.9063   -2.0019    2.5845 H   0  0  0  0  0  0  0  0  0  0  0  0
    6.9946   -6.1856    1.2407 H   0  0  0  0  0  0  0  0  0  0  0  0
    6.8151   -4.4491    1.7030 H   0  0  0  0  0  0  0  0  0  0  0  0
    5.7872   -5.7078    2.4959 H   0  0  0  0  0  0  0  0  0  0  0  0
  1  7  2  0  0  0  0
  2  6  1  0  0  0  0
  2  7  1  0  0  0  0
  3  4  1  0  0  0  0
  4  8  1  0  0  0  0
  5 11  1  0  0  0  0
  5 15  1  0  0  0  0
  6 17  1  0  0  0  0
  6 18  1  0  0  0  0
  7  3  1  0  0  0  0
  8 19  1  0  0  0  0
  9 14  1  0  0  0  0
 10  9  2  0  0  0  0
 10 11  1  0  0  0  0
 11 12  2  0  0  0  0
 12 13  1  0  0  0  0
 12 22  1  0  0  0  0
 13 23  1  0  0  0  0
 14  8  1  0  0  0  0
 14 13  2  0  0  0  0
 15 25  1  0  0  0  0
 15 26  1  0  0  0  0
 16  6  1  0  0  0  0
 20  9  1  0  0  0  0
 21 10  1  0  0  0  0
 24 15  1  0  0  0  0
M  END
