2
q = -1.0

 42 45  0  0  0  0  0  0  0  0999 V2000
   -1.0151    0.2278   -0.1253 P   0  0  0  0  0  0  0  0  0  0  0  0
    1.6489    1.4412   -0.2903 N   0  0  0  0  0  2  0  0  0  0  0  0
    0.7046    3.6254   -0.7190 N   0  0  0  0  0  0  0  0  0  0  0  0
    0.6005    2.2520   -0.5715 C   0  0  0  0  0  0  0  0  0  0  0  0
   -0.7468    1.8579   -0.7042 C   0  0  0  0  0  0  0  0  0  0  0  0
   -1.6034    3.1041   -0.7811 C   0  0  0  0  0  0  0  0  0  0  0  0
   -2.0459    3.3782    0.2074 H   0  0  0  0  0  0  0  0  0  0  0  0
   -2.4426    3.0426   -1.5043 H   0  0  0  0  0  0  0  0  0  0  0  0
   -0.5586    4.1614   -1.2190 C   0  0  0  0  0  0  0  0  0  0  0  0
   -0.5284    4.2487   -2.3344 H   0  0  0  0  0  0  0  0  0  0  0  0
   -0.7482    5.1751   -0.8064 H   0  0  0  0  0  0  0  0  0  0  0  0
    1.9777    4.2761   -0.9065 C   0  0  0  0  0  0  0  0  0  0  0  0
    1.8997    5.3352   -0.5776 H   0  0  0  0  0  0  0  0  0  0  0  0
    2.2761    4.2966   -1.9874 H   0  0  0  0  0  0  0  0  0  0  0  0
    3.0201    3.5189   -0.0829 C   0  0  0  0  0  0  0  0  0  0  0  0
    2.8010    3.6623    0.9963 H   0  0  0  0  0  0  0  0  0  0  0  0
    4.0332    3.9252   -0.2791 H   0  0  0  0  0  0  0  0  0  0  0  0
    2.9792    2.0229   -0.4188 C   0  0  0  0  0  0  0  0  0  0  0  0
    3.3755    1.8818   -1.4569 H   0  0  0  0  0  0  0  0  0  0  0  0
    3.6828    1.4853    0.2496 H   0  0  0  0  0  0  0  0  0  0  0  0
   -1.9720    0.3113    1.4507 C   0  0  0  0  0  0  0  0  0  0  0  0
   -1.2641    0.3040    2.6722 C   0  0  0  0  0  0  0  0  0  0  0  0
   -0.1735    0.1419    2.6512 H   0  0  0  0  0  0  0  0  0  0  0  0
   -1.9387    0.5042    3.8850 C   0  0  0  0  0  0  0  0  0  0  0  0
   -1.3774    0.4896    4.8321 H   0  0  0  0  0  0  0  0  0  0  0  0
   -3.3276    0.7171    3.8927 C   0  0  0  0  0  0  0  0  0  0  0  0
   -3.8578    0.8709    4.8450 H   0  0  0  0  0  0  0  0  0  0  0  0
   -4.0376    0.7331    2.6811 C   0  0  0  0  0  0  0  0  0  0  0  0
   -5.1255    0.9033    2.6821 H   0  0  0  0  0  0  0  0  0  0  0  0
   -3.3659    0.5318    1.4653 C   0  0  0  0  0  0  0  0  0  0  0  0
   -3.9286    0.5392    0.5187 H   0  0  0  0  0  0  0  0  0  0  0  0
   -2.1329   -0.6801   -1.2658 C   0  0  0  0  0  0  0  0  0  0  0  0
   -2.8378   -1.8300   -0.8504 C   0  0  0  0  0  0  0  0  0  0  0  0
   -2.7971   -2.1484    0.2031 H   0  0  0  0  0  0  0  0  0  0  0  0
   -3.6015   -2.5611   -1.7731 C   0  0  0  0  0  0  0  0  0  0  0  0
   -4.1507   -3.4554   -1.4407 H   0  0  0  0  0  0  0  0  0  0  0  0
   -3.6680   -2.1527   -3.1155 C   0  0  0  0  0  0  0  0  0  0  0  0
   -4.2700   -2.7262   -3.8368 H   0  0  0  0  0  0  0  0  0  0  0  0
   -2.9655   -1.0101   -3.5336 C   0  0  0  0  0  0  0  0  0  0  0  0
   -3.0165   -0.6862   -4.5847 H   0  0  0  0  0  0  0  0  0  0  0  0
   -2.1986   -0.2787   -2.6149 C   0  0  0  0  0  0  0  0  0  0  0  0
   -1.6327    0.6162   -2.9220 H   0  0  0  0  0  0  0  0  0  0  0  0
  1 21  1  0  0  0  0
  3  4  1  0  0  0  0
  4  2  1  0  0  0  0
  5  4  2  0  0  0  0
  5  1  1  0  0  0  0
  6  5  1  0  0  0  0
  6  7  1  0  0  0  0
  8  6  1  0  0  0  0
  9 11  1  0  0  0  0
  9  6  1  0  0  0  0
  9  3  1  0  0  0  0
 10  9  1  0  0  0  0
 12  3  1  0  0  0  0
 12 13  1  0  0  0  0
 12 15  1  0  0  0  0
 14 12  1  0  0  0  0
 15 16  1  0  0  0  0
 17 15  1  0  0  0  0
 18  2  1  0  0  0  0
 18 15  1  0  0  0  0
 18 20  1  0  0  0  0
 19 18  1  0  0  0  0
 21 30  2  0  0  0  0
 21 22  1  0  0  0  0
 22 24  2  0  0  0  0
 23 22  1  0  0  0  0
 24 26  1  0  0  0  0
 24 25  1  0  0  0  0
 26 27  1  0  0  0  0
 28 29  1  0  0  0  0
 28 26  2  0  0  0  0
 30 28  1  0  0  0  0
 31 30  1  0  0  0  0
 32 33  1  0  0  0  0
 32  1  1  0  0  0  0
 33 34  1  0  0  0  0
 35 36  1  0  0  0  0
 35 33  2  0  0  0  0
 37 35  1  0  0  0  0
 38 37  1  0  0  0  0
 39 37  2  0  0  0  0
 39 41  1  0  0  0  0
 40 39  1  0  0  0  0
 41 32  2  0  0  0  0
 42 41  1  0  0  0  0
M  END
