20
q = 0.0, confidence = 0.994

 23 25  0  0  0  0  0  0  0  0999 V2000
   -2.7204    1.6209    0.0006 C   0  0  0  0  0  0  0  0  0  0  0  0
   -2.2577    2.9513   -0.0013 C   0  0  0  0  0  0  0  0  0  0  0  0
   -1.1821    3.1787   -0.0038 H   0  0  0  0  0  0  0  0  0  0  0  0
   -3.2327    3.9467   -0.0013 C   0  0  0  0  0  0  0  0  0  0  0  0
   -2.9274    5.0032   -0.0032 H   0  0  0  0  0  0  0  0  0  0  0  0
   -4.6198    3.6302    0.0005 C   0  0  0  0  0  0  0  0  0  0  0  0
   -5.3500    4.4529    0.0006 H   0  0  0  0  0  0  0  0  0  0  0  0
   -5.0891    2.3155    0.0020 C   0  0  0  0  0  0  0  0  0  0  0  0
   -6.1530    2.0562    0.0035 H   0  0  0  0  0  0  0  0  0  0  0  0
   -4.1044    1.3071    0.0018 C   0  0  0  0  0  0  0  0  0  0  0  0
   -5.2504   -0.9719   -0.0004 C   0  0  0  0  0  0  0  0  0  0  0  0
   -5.0514   -2.3638   -0.0127 C   0  0  0  0  0  0  0  0  0  0  0  0
   -4.0400   -2.7891   -0.0212 H   0  0  0  0  0  0  0  0  0  0  0  0
   -6.2006   -3.1630   -0.0142 C   0  0  0  0  0  0  0  0  0  0  0  0
   -6.1059   -4.2589   -0.0238 H   0  0  0  0  0  0  0  0  0  0  0  0
   -7.4656   -2.5536   -0.0038 C   0  0  0  0  0  0  0  0  0  0  0  0
   -8.3874   -3.1525   -0.0049 H   0  0  0  0  0  0  0  0  0  0  0  0
   -7.5302   -1.1523    0.0075 C   0  0  0  0  0  0  0  0  0  0  0  0
   -8.5023   -0.6315    0.0154 H   0  0  0  0  0  0  0  0  0  0  0  0
   -2.0420    0.4166    0.0006 N   0  0  0  0  0  2  0  0  0  0  0  0
   -2.8823   -0.5876    0.0012 N   0  0  0  0  0  2  0  0  0  0  0  0
   -4.1246   -0.0833    0.0017 N   0  0  0  0  0  0  0  0  0  0  0  0
   -6.4383   -0.3709    0.0093 N   0  0  0  0  0  0  0  0  0  0  0  0
  1 10  1  0  0  0  0
  2  4  1  0  0  0  0
  2  1  2  0  0  0  0
  3  2  1  0  0  0  0
  4  6  2  0  0  0  0
  5  4  1  0  0  0  0
  6  7  1  0  0  0  0
  6  8  1  0  0  0  0
  8  9  1  0  0  0  0
 10  8  2  0  0  0  0
 11 22  1  0  0  0  0
 11 23  1  0  0  0  0
 12 11  2  0  0  0  0
 13 12  1  0  0  0  0
 14 12  1  0  0  0  0
 14 16  2  0  0  0  0
 15 14  1  0  0  0  0
 16 18  1  0  0  0  0
 17 16  1  0  0  0  0
 18 23  2  0  0  0  0
 18 19  1  0  0  0  0
 20  1  1  0  0  0  0
 20 21  1  0  0  0  0
 21 22  1  0  0  0  0
 22 10  1  0  0  0  0
M  END
