12
q = -1.0

 36 37  0  0  1  0  0  0  0  0999 V2000
    3.8649   -2.3501   -0.5219 C   0  0  0  0  0  0  0  0  0  0  0  0
   -2.8524   -3.0099    2.1793 O   0  0  0  0  0  0  0  0  0  0  0  0
    1.8367   -1.5046   -1.5205 O   0  0  0  0  0  0  0  0  0  0  0  0
   -3.7763   -1.0421    2.7102 O   0  0  0  0  0  0  0  0  0  0  0  0
    2.4543   -1.9008   -0.5118 C   0  0  0  0  0  0  0  0  0  0  0  0
    1.8052   -1.9750    0.7057 N   0  0  0  0  0  0  0  0  0  0  0  0
   -0.2562    1.0249    2.1783 O   0  0  0  0  0  0  0  0  0  0  0  0
    4.4793   -2.6957   -1.7774 C   0  0  0  0  0  0  0  0  0  0  0  0
    5.8121   -3.1968   -1.7537 C   0  0  0  0  0  0  0  0  0  0  0  0
    6.2815   -3.4819   -2.7084 H   0  0  0  0  0  0  0  0  0  0  0  0
    3.8074   -2.5617   -2.9504 N   0  0  0  0  0  0  0  0  0  0  0  0
    0.5632   -1.4278    0.8750 N   0  0  0  0  0  2  0  0  0  0  0  0
   -0.2236   -1.8821    1.8335 C   0  0  1  0  0  3  0  0  0  0  0  0
    0.1298   -3.1465    2.5693 C   0  0  0  0  0  0  0  0  0  0  0  0
    0.5839   -3.8997    1.8939 H   0  0  0  0  0  0  0  0  0  0  0  0
   -0.7878   -3.5723    3.0112 H   0  0  0  0  0  0  0  0  0  0  0  0
    0.8494   -2.9340    3.3923 H   0  0  0  0  0  0  0  0  0  0  0  0
   -1.3931   -1.1013    2.1972 C   0  0  2  0  0  3  0  0  0  0  0  0
   -2.6345   -1.8167    2.3538 C   0  0  0  0  0  0  0  0  0  0  0  0
   -3.7188    0.3015    2.8649 C   0  0  0  0  0  0  0  0  0  0  0  0
   -5.0520    0.8832    3.2137 C   0  0  0  0  0  0  0  0  0  0  0  0
   -5.4409    0.4253    4.1470 H   0  0  0  0  0  0  0  0  0  0  0  0
   -4.9882    1.9784    3.3466 H   0  0  0  0  0  0  0  0  0  0  0  0
   -5.7900    0.6570    2.4158 H   0  0  0  0  0  0  0  0  0  0  0  0
   -2.5600    1.0013    2.7064 C   0  0  0  0  0  0  0  0  0  0  0  0
   -1.3075    0.3451    2.3378 C   0  0  0  0  0  0  0  0  0  0  0  0
    5.9429   -2.9284    0.6637 C   0  0  0  0  0  0  0  0  0  0  0  0
    6.5153   -2.9869    1.6000 H   0  0  0  0  0  0  0  0  0  0  0  0
    6.5230   -3.3130   -0.5631 C   0  0  0  0  0  0  0  0  0  0  0  0
    7.5551   -3.6954   -0.5875 H   0  0  0  0  0  0  0  0  0  0  0  0
    4.6313   -2.4545    0.6639 C   0  0  0  0  0  0  0  0  0  0  0  0
    4.1987   -2.1143    1.6183 H   0  0  0  0  0  0  0  0  0  0  0  0
    2.8916   -2.0950   -2.9130 H   0  0  0  0  0  0  0  0  0  0  0  0
    4.2629   -2.7956   -3.8282 H   0  0  0  0  0  0  0  0  0  0  0  0
    2.2840   -2.3460    1.5284 H   0  0  0  0  0  0  0  0  0  0  0  0
   -2.5421    2.0910    2.8404 H   0  0  0  0  0  0  0  0  0  0  0  0
  1  5  1  0  0  0  0
  1 31  1  0  0  0  0
  2 19  2  0  0  0  0
  3  5  2  0  0  0  0
  4 20  1  0  0  0  0
  5  6  1  0  0  0  0
  6 12  1  0  0  0  0
  6 35  1  0  0  0  0
  7 26  2  0  0  0  0
  8  9  1  0  0  0  0
  8  1  2  0  0  0  0
  9 29  2  0  0  0  0
 10  9  1  0  0  0  0
 11 33  1  0  0  0  0
 11  8  1  0  0  0  0
 13 12  1  1  0  0  0
 13 14  1  0  0  0  0
 14 16  1  0  0  0  0
 14 17  1  0  0  0  0
 15 14  1  0  0  0  0
 18 13  1  6  0  0  0
 18 26  1  0  0  0  0
 18 19  1  0  0  0  0
 19  4  1  0  0  0  0
 20 21  1  0  0  0  0
 21 23  1  0  0  0  0
 21 22  1  0  0  0  0
 24 21  1  0  0  0  0
 25 36  1  0  0  0  0
 25 20  2  0  0  0  0
 26 25  1  0  0  0  0
 27 31  2  0  0  0  0
 27 28  1  0  0  0  0
 29 27  1  0  0  0  0
 30 29  1  0  0  0  0
 31 32  1  0  0  0  0
 34 11  1  0  0  0  0
M  END
