14
q = -1.0

 21 22  0  0  1  0  0  0  0  0999 V2000
   -2.2432   -0.7065    0.0000 C   0  0  2  0  0  3  0  0  0  0  0  0
   -2.1180    0.6738   -0.0000 C   0  0  0  0  0  0  0  0  0  0  0  0
   -3.0409    1.2740   -0.0000 H   0  0  0  0  0  0  0  0  0  0  0  0
   -0.8294    1.2486    0.0000 C   0  0  0  0  0  0  0  0  0  0  0  0
    0.3418    0.4856    0.0001 C   0  0  0  0  0  0  0  0  0  0  0  0
    0.2275   -0.9425    0.0001 C   0  0  0  0  0  0  0  0  0  0  0  0
   -1.0830   -1.5382    0.0000 C   0  0  0  0  0  0  0  0  0  0  0  0
   -1.1771   -2.9581    0.0000 C   0  0  0  0  0  0  0  0  0  0  0  0
   -2.1807   -3.4081    0.0000 H   0  0  0  0  0  0  0  0  0  0  0  0
   -0.0119   -3.7168    0.0001 C   0  0  0  0  0  0  0  0  0  0  0  0
   -0.0456   -4.8151    0.0001 H   0  0  0  0  0  0  0  0  0  0  0  0
    1.2350   -3.0664    0.0001 C   0  0  0  0  0  0  0  0  0  0  0  0
    2.1692   -3.6480    0.0001 H   0  0  0  0  0  0  0  0  0  0  0  0
    1.3616   -1.7282    0.0001 N   0  0  0  0  0  2  0  0  0  0  0  0
   -4.8484   -0.2997   -0.0001 O   0  0  0  0  0  1  0  0  0  0  0  0
   -3.8844   -2.2846    1.2568 O   0  0  0  0  0  1  0  0  0  0  0  0
   -3.8843   -2.2846   -1.2569 O   0  0  0  0  0  1  0  0  0  0  0  0
    1.5914    1.0366    0.0002 O   0  0  0  0  0  0  0  0  0  0  0  0
   -3.9247   -1.4671   -0.0001 S   0  0  0  0  0  0  0  0  0  0  0  0
   -0.5972    3.3725    0.0000 I   0  0  0  0  0  0  0  0  0  0  0  0
    1.4807    2.0211    0.0000 H   0  0  0  0  0  0  0  0  0  0  0  0
  1 19  1  6  0  0  0
  1  7  1  0  0  0  0
  2  1  1  0  0  0  0
  2  4  2  0  0  0  0
  3  2  1  0  0  0  0
  4  5  1  0  0  0  0
  5 18  1  0  0  0  0
  6  5  2  0  0  0  0
  6 14  1  0  0  0  0
  7  8  2  0  0  0  0
  7  6  1  0  0  0  0
  8 10  1  0  0  0  0
  9  8  1  0  0  0  0
 10 11  1  0  0  0  0
 10 12  2  0  0  0  0
 12 13  1  0  0  0  0
 14 12  1  0  0  0  0
 15 19  1  0  0  0  0
 17 19  1  0  0  0  0
 19 16  1  0  0  0  0
 20  4  1  0  0  0  0
 21 18  1  0  0  0  0
M  END
