1
q = -1.0

  8  7  0  0  0  0  0  0  0  0999 V2000
    1.3772    0.0225   -0.0681 N   0  0  0  0  0  2  0  0  0  0  0  0
    1.0422   -0.9311   -0.2495 H   0  0  0  0  0  0  0  0  0  0  0  0
    4.6350   -1.1188   -1.3985 Cl  0  0  0  0  0  0  0  0  0  0  0  0
    2.4801   -2.7220   -0.2397 Cl  0  0  0  0  0  0  0  0  0  0  0  0
    3.3879    1.1231    0.2582 O   0  0  0  0  0  0  0  0  0  0  0  0
    3.5105   -1.2446   -0.0097 C   0  0  0  0  0  0  0  0  0  0  0  0
    2.6971    0.0982    0.0724 C   0  0  0  0  0  0  0  0  0  0  0  0
    4.4288   -1.4277    1.5136 Cl  0  0  0  0  0  0  0  0  0  0  0  0
  1  7  1  0  0  0  0
  2  1  1  0  0  0  0
  3  6  1  0  0  0  0
  4  6  1  0  0  0  0
  6  7  1  0  0  0  0
  6  8  1  0  0  0  0
  7  5  2  0  0  0  0
M  END
