1
q = -1.0, confidence = 0.0

 17 16  0  0  0  0  0  0  0  0999 V2000
    1.3167    1.2194    0.1683 N   0  0  0  0  0  2  0  0  0  0  0  0
    3.3982    0.4399   -0.4076 O   0  0  0  0  0  0  0  0  0  0  0  0
    2.6374    1.3627   -0.0046 C   0  0  0  0  0  0  0  0  0  0  0  0
    3.2448    2.7597    0.3254 C   0  0  0  0  0  0  0  0  0  0  0  0
    2.5751    3.8362   -0.5539 C   0  0  0  0  0  0  0  0  0  0  0  0
    2.7008    3.6063   -1.6312 H   0  0  0  0  0  0  0  0  0  0  0  0
    3.0302    4.8299   -0.3602 H   0  0  0  0  0  0  0  0  0  0  0  0
    1.4870    3.9270   -0.3549 H   0  0  0  0  0  0  0  0  0  0  0  0
    3.0096    3.0774    1.8166 C   0  0  0  0  0  0  0  0  0  0  0  0
    1.9299    3.1372    2.0631 H   0  0  0  0  0  0  0  0  0  0  0  0
    3.4695    4.0521    2.0825 H   0  0  0  0  0  0  0  0  0  0  0  0
    3.4594    2.2983    2.4647 H   0  0  0  0  0  0  0  0  0  0  0  0
    4.7523    2.7256    0.0372 C   0  0  0  0  0  0  0  0  0  0  0  0
    5.2541    1.9477    0.6436 H   0  0  0  0  0  0  0  0  0  0  0  0
    5.2079    3.7098    0.2702 H   0  0  0  0  0  0  0  0  0  0  0  0
    4.9479    2.4855   -1.0255 H   0  0  0  0  0  0  0  0  0  0  0  0
    0.8465    2.0920    0.4286 H   0  0  0  0  0  0  0  0  0  0  0  0
  1 17  1  0  0  0  0
  2  3  2  0  0  0  0
  3  1  1  0  0  0  0
  3  4  1  0  0  0  0
  4  9  1  0  0  0  0
  5  7  1  0  0  0  0
  5  8  1  0  0  0  0
  5  4  1  0  0  0  0
  6  5  1  0  0  0  0
  9 10  1  0  0  0  0
  9 11  1  0  0  0  0
  9 12  1  0  0  0  0
 13 15  1  0  0  0  0
 13  4  1  0  0  0  0
 13 14  1  0  0  0  0
 16 13  1  0  0  0  0
M  END
