12
q = -1.0, confidence = 0.022

 39 40  0  0  0  0  0  0  0  0999 V2000
   -1.1726    1.2338   -0.2002 C   0  0  0  0  0  0  0  0  0  0  0  0
   -1.3450    1.2590   -1.6091 C   0  0  0  0  0  0  0  0  0  0  0  0
   -0.5788    0.7910   -2.2412 H   0  0  0  0  0  0  0  0  0  0  0  0
   -2.4547    1.8684   -2.2116 C   0  0  0  0  0  0  0  0  0  0  0  0
   -2.5777    1.8572   -3.3040 H   0  0  0  0  0  0  0  0  0  0  0  0
   -3.4120    2.5014   -1.4083 C   0  0  0  0  0  0  0  0  0  0  0  0
   -3.2577    2.5318   -0.0129 C   0  0  0  0  0  0  0  0  0  0  0  0
   -4.0217    3.0183    0.6090 H   0  0  0  0  0  0  0  0  0  0  0  0
   -2.1609    1.8981    0.5762 C   0  0  0  0  0  0  0  0  0  0  0  0
   -2.0836    1.8770    1.6712 H   0  0  0  0  0  0  0  0  0  0  0  0
   -4.8339    3.2152   -2.1371 Cl  0  0  0  0  0  0  0  0  0  0  0  0
   -0.0960    0.5250    0.3796 N   0  0  0  0  0  2  0  0  0  0  0  0
    1.0522    1.3882    1.4104 Si  0  0  0  0  0  0  0  0  0  0  0  0
    2.4117    0.1955    1.9151 C   0  0  0  0  0  0  0  0  0  0  0  0
    1.9979   -0.7290    2.3661 H   0  0  0  0  0  0  0  0  0  0  0  0
    3.0836    0.6679    2.6591 H   0  0  0  0  0  0  0  0  0  0  0  0
    3.0308   -0.0947    1.0438 H   0  0  0  0  0  0  0  0  0  0  0  0
    0.2904    2.1815    2.9640 C   0  0  0  0  0  0  0  0  0  0  0  0
   -0.3943    3.0160    2.7112 H   0  0  0  0  0  0  0  0  0  0  0  0
    1.1111    2.6021    3.5834 H   0  0  0  0  0  0  0  0  0  0  0  0
   -0.2660    1.4606    3.5962 H   0  0  0  0  0  0  0  0  0  0  0  0
    1.8463    2.8683    0.4433 C   0  0  0  0  0  0  0  0  0  0  0  0
    1.2247    3.1042   -0.4448 H   0  0  0  0  0  0  0  0  0  0  0  0
    1.8216    3.7761    1.0799 H   0  0  0  0  0  0  0  0  0  0  0  0
    3.2209    2.6281    0.0262 N   0  0  0  0  0  0  0  0  0  0  0  0
    3.5933    1.9791   -1.1421 C   0  0  0  0  0  0  0  0  0  0  0  0
    4.9765    1.8072   -1.1039 C   0  0  0  0  0  0  0  0  0  0  0  0
    5.5751    1.3396   -1.8941 H   0  0  0  0  0  0  0  0  0  0  0  0
    5.4460    2.3596    0.1235 C   0  0  0  0  0  0  0  0  0  0  0  0
    6.4829    2.4069    0.4761 H   0  0  0  0  0  0  0  0  0  0  0  0
    4.3418    2.8584    0.8141 C   0  0  0  0  0  0  0  0  0  0  0  0
    2.5907    1.5963   -2.1777 C   0  0  0  0  0  0  0  0  0  0  0  0
    1.7926    0.9526   -1.7491 H   0  0  0  0  0  0  0  0  0  0  0  0
    3.0876    1.0347   -2.9903 H   0  0  0  0  0  0  0  0  0  0  0  0
    2.0845    2.4756   -2.6349 H   0  0  0  0  0  0  0  0  0  0  0  0
    4.2631    3.5421    2.1393 C   0  0  0  0  0  0  0  0  0  0  0  0
    5.2789    3.6360    2.5674 H   0  0  0  0  0  0  0  0  0  0  0  0
    3.6434    2.9879    2.8795 H   0  0  0  0  0  0  0  0  0  0  0  0
    3.8376    4.5678    2.0697 H   0  0  0  0  0  0  0  0  0  0  0  0
  1 12  1  0  0  0  0
  1  9  1  0  0  0  0
  2  1  2  0  0  0  0
  3  2  1  0  0  0  0
  4  2  1  0  0  0  0
  4  6  2  0  0  0  0
  5  4  1  0  0  0  0
  6  7  1  0  0  0  0
  7  9  2  0  0  0  0
  7  8  1  0  0  0  0
  9 10  1  0  0  0  0
 11  6  1  0  0  0  0
 12 13  1  0  0  0  0
 13 14  1  0  0  0  0
 13 18  1  0  0  0  0
 14 15  1  0  0  0  0
 14 16  1  0  0  0  0
 17 14  1  0  0  0  0
 18 20  1  0  0  0  0
 18 21  1  0  0  0  0
 19 18  1  0  0  0  0
 22 24  1  0  0  0  0
 22 13  1  0  0  0  0
 23 22  1  0  0  0  0
 25 22  1  0  0  0  0
 25 31  1  0  0  0  0
 26 27  2  0  0  0  0
 26 25  1  0  0  0  0
 27 29  1  0  0  0  0
 28 27  1  0  0  0  0
 29 30  1  0  0  0  0
 29 31  2  0  0  0  0
 31 36  1  0  0  0  0
 32 33  1  0  0  0  0
 32 26  1  0  0  0  0
 34 32  1  0  0  0  0
 35 32  1  0  0  0  0
 36 37  1  0  0  0  0
 36 38  1  0  0  0  0
 39 36  1  0  0  0  0
M  END
