1
q = -1.0

 11 10  0  0  0  0  0  0  0  0999 V2000
    2.0398    1.8455    0.7359 N   0  0  0  0  0  2  0  0  0  0  0  0
    2.3832    1.0044    1.2185 H   0  0  0  0  0  0  0  0  0  0  0  0
    4.8229   -0.4649    0.8108 N   0  0  0  0  0  0  0  0  0  0  0  0
    2.9518    2.3334   -0.1160 C   0  0  0  0  0  0  0  0  0  0  0  0
    2.5449    3.5629   -0.8947 C   0  0  0  0  0  0  0  0  0  0  0  0
    2.1422    4.3376   -0.2107 H   0  0  0  0  0  0  0  0  0  0  0  0
    3.3876    3.9908   -1.4687 H   0  0  0  0  0  0  0  0  0  0  0  0
    1.7312    3.3103   -1.6081 H   0  0  0  0  0  0  0  0  0  0  0  0
    4.2211    1.7710   -0.3472 C   0  0  0  0  0  0  0  0  0  0  0  0
    4.9374    2.2644   -1.0178 H   0  0  0  0  0  0  0  0  0  0  0  0
    4.5866    0.5666    0.2760 C   0  0  0  0  0  0  0  0  0  0  0  0
  1  2  1  0  0  0  0
  4  1  1  0  0  0  0
  5  6  1  0  0  0  0
  5  4  1  0  0  0  0
  7  5  1  0  0  0  0
  8  5  1  0  0  0  0
  9  4  2  0  0  0  0
  9 11  1  0  0  0  0
 10  9  1  0  0  0  0
 11  3  3  0  0  0  0
M  END
