7
q = 0.0, confidence = 1.0

 24 24  0  0  1  0  0  0  0  0999 V2000
    2.5531   -0.7757   -0.9897 S   0  0  0  0  0  0  0  0  0  0  0  0
    3.0306   -3.3258   -0.3743 N   0  0  0  0  0  0  0  0  0  0  0  0
    3.9204   -3.2053   -0.8587 H   0  0  0  0  0  0  0  0  0  0  0  0
    2.8289   -4.2405    0.0298 H   0  0  0  0  0  0  0  0  0  0  0  0
    0.9606   -2.4965    0.2552 N   0  0  0  0  0  0  0  0  0  0  0  0
    0.6812   -3.4408    0.5389 H   0  0  0  0  0  0  0  0  0  0  0  0
   -0.0231   -1.5265    0.2901 N   0  0  0  0  0  2  0  0  0  0  0  0
    2.1664   -2.2921   -0.3377 C   0  0  0  0  0  0  0  0  0  0  0  0
   -1.1362   -1.8838    0.8982 C   0  0  2  0  0  3  0  0  0  0  0  0
   -1.2508   -3.1935    1.6342 C   0  0  0  0  0  0  0  0  0  0  0  0
   -1.3672   -4.0422    0.9215 H   0  0  0  0  0  0  0  0  0  0  0  0
   -2.1595   -3.1977    2.2613 H   0  0  0  0  0  0  0  0  0  0  0  0
   -0.3754   -3.3968    2.2872 H   0  0  0  0  0  0  0  0  0  0  0  0
   -2.3493   -1.0439    0.8053 C   0  0  0  0  0  0  0  0  0  0  0  0
   -3.0033   -0.6067    1.9795 C   0  0  0  0  0  0  0  0  0  0  0  0
   -2.5753   -0.8353    2.9682 H   0  0  0  0  0  0  0  0  0  0  0  0
   -4.1823    0.1457    1.8885 C   0  0  0  0  0  0  0  0  0  0  0  0
   -4.6730    0.5065    2.8045 H   0  0  0  0  0  0  0  0  0  0  0  0
   -4.7440    0.4232    0.6299 C   0  0  0  0  0  0  0  0  0  0  0  0
   -5.6813    0.9953    0.5618 H   0  0  0  0  0  0  0  0  0  0  0  0
   -4.1161   -0.0435   -0.5372 C   0  0  0  0  0  0  0  0  0  0  0  0
   -4.5637    0.1556   -1.5225 H   0  0  0  0  0  0  0  0  0  0  0  0
   -2.9162   -0.7636   -0.4588 C   0  0  0  0  0  0  0  0  0  0  0  0
   -2.3978   -1.0970   -1.3712 H   0  0  0  0  0  0  0  0  0  0  0  0
  1  8  2  0  0  0  0
  2  8  1  0  0  0  0
  2  4  1  0  0  0  0
  3  2  1  0  0  0  0
  5  7  1  0  0  0  0
  5  6  1  0  0  0  0
  8  5  1  0  0  0  0
  9  7  1  6  0  0  0
  9 10  1  0  0  0  0
 10 12  1  0  0  0  0
 10 13  1  0  0  0  0
 11 10  1  0  0  0  0
 14  9  1  0  0  0  0
 14 15  1  0  0  0  0
 15 16  1  0  0  0  0
 17 15  2  0  0  0  0
 17 18  1  0  0  0  0
 19 17  1  0  0  0  0
 20 19  1  0  0  0  0
 21 23  1  0  0  0  0
 21 19  2  0  0  0  0
 22 21  1  0  0  0  0
 23 14  2  0  0  0  0
 24 23  1  0  0  0  0
M  END
