5
q = -1.0

 40 42  0  0  0  0  0  0  0  0999 V2000
    0.1862   -2.5846   -0.8081 S   0  0  0  0  0  0  0  0  0  0  0  0
    2.7734   -2.0224   -0.7961 N   0  0  0  0  0  0  0  0  0  0  0  0
    2.7521   -3.0196   -1.0161 H   0  0  0  0  0  0  0  0  0  0  0  0
    1.3907   -0.1883   -0.3837 N   0  0  0  0  0  2  0  0  0  0  0  0
    0.1223    0.2946   -0.2851 N   0  0  0  0  0  2  0  0  0  0  0  0
    5.1533   -2.3430   -0.8917 C   0  0  0  0  0  0  0  0  0  0  0  0
    4.9648   -3.4096   -1.0970 H   0  0  0  0  0  0  0  0  0  0  0  0
    6.4667   -1.8687   -0.8126 C   0  0  0  0  0  0  0  0  0  0  0  0
    7.3025   -2.5702   -0.9574 H   0  0  0  0  0  0  0  0  0  0  0  0
    6.7179   -0.5115   -0.5508 C   0  0  0  0  0  0  0  0  0  0  0  0
    7.7509   -0.1388   -0.4869 H   0  0  0  0  0  0  0  0  0  0  0  0
    5.6313    0.3594   -0.3744 C   0  0  0  0  0  0  0  0  0  0  0  0
    5.8048    1.4274   -0.1700 H   0  0  0  0  0  0  0  0  0  0  0  0
    4.3092   -0.0983   -0.4525 C   0  0  0  0  0  0  0  0  0  0  0  0
    3.4629    0.5835   -0.3182 H   0  0  0  0  0  0  0  0  0  0  0  0
    4.0576   -1.4647   -0.7100 C   0  0  0  0  0  0  0  0  0  0  0  0
    1.5229   -1.4714   -0.6419 C   0  0  0  0  0  0  0  0  0  0  0  0
    0.0582    1.5960   -0.0171 C   0  0  0  0  0  3  0  0  0  0  0  0
    1.2657    2.3755    0.3731 C   0  0  0  0  0  0  0  0  0  0  0  0
    2.0959    1.9672    1.4421 C   0  0  0  0  0  0  0  0  0  0  0  0
    1.8759    1.0275    1.9673 H   0  0  0  0  0  0  0  0  0  0  0  0
    3.1930    2.7460    1.8279 C   0  0  0  0  0  0  0  0  0  0  0  0
    3.8275    2.4149    2.6639 H   0  0  0  0  0  0  0  0  0  0  0  0
    3.4902    3.9390    1.1456 C   0  0  0  0  0  0  0  0  0  0  0  0
    4.3599    4.5440    1.4436 H   0  0  0  0  0  0  0  0  0  0  0  0
    2.6684    4.3574    0.0877 C   0  0  0  0  0  0  0  0  0  0  0  0
    2.8923    5.2910   -0.4502 H   0  0  0  0  0  0  0  0  0  0  0  0
    1.5561    3.5895   -0.2865 C   0  0  0  0  0  0  0  0  0  0  0  0
    0.9060    3.9211   -1.1099 H   0  0  0  0  0  0  0  0  0  0  0  0
   -1.1972    2.3690   -0.1287 C   0  0  0  0  0  0  0  0  0  0  0  0
   -1.5742    3.2358    0.9246 C   0  0  0  0  0  0  0  0  0  0  0  0
   -0.9457    3.2907    1.8266 H   0  0  0  0  0  0  0  0  0  0  0  0
   -2.7433    4.0027    0.8327 C   0  0  0  0  0  0  0  0  0  0  0  0
   -3.0382    4.6535    1.6698 H   0  0  0  0  0  0  0  0  0  0  0  0
   -3.5304    3.9491   -0.3311 C   0  0  0  0  0  0  0  0  0  0  0  0
   -4.4415    4.5619   -0.4093 H   0  0  0  0  0  0  0  0  0  0  0  0
   -3.1376    3.1246   -1.3990 C   0  0  0  0  0  0  0  0  0  0  0  0
   -3.7378    3.0919   -2.3212 H   0  0  0  0  0  0  0  0  0  0  0  0
   -1.9838    2.3344   -1.3032 C   0  0  0  0  0  0  0  0  0  0  0  0
   -1.6961    1.6586   -2.1239 H   0  0  0  0  0  0  0  0  0  0  0  0
  1 17  2  0  0  0  0
  2 16  1  0  0  0  0
  2 17  1  0  0  0  0
  3  2  1  0  0  0  0
  4  5  1  0  0  0  0
  5 18  1  0  0  0  0
  6  8  2  0  0  0  0
  6 16  1  0  0  0  0
  7  6  1  0  0  0  0
  8 10  1  0  0  0  0
  9  8  1  0  0  0  0
 10 11  1  0  0  0  0
 10 12  2  0  0  0  0
 12 13  1  0  0  0  0
 14 12  1  0  0  0  0
 14 15  1  0  0  0  0
 16 14  2  0  0  0  0
 17  4  1  0  0  0  0
 18 19  1  0  0  0  0
 19 20  1  0  0  0  0
 20 22  2  0  0  0  0
 20 21  1  0  0  0  0
 22 23  1  0  0  0  0
 24 25  1  0  0  0  0
 24 22  1  0  0  0  0
 26 24  2  0  0  0  0
 27 26  1  0  0  0  0
 28 26  1  0  0  0  0
 28 19  2  0  0  0  0
 29 28  1  0  0  0  0
 30 18  1  0  0  0  0
 30 31  1  0  0  0  0
 31 32  1  0  0  0  0
 33 31  2  0  0  0  0
 33 34  1  0  0  0  0
 35 33  1  0  0  0  0
 36 35  1  0  0  0  0
 37 39  1  0  0  0  0
 37 35  2  0  0  0  0
 38 37  1  0  0  0  0
 39 30  2  0  0  0  0
 40 39  1  0  0  0  0
M  END
