2
q = -1.0, confidence = 0.004

 23 23  0  0  0  0  0  0  0  0999 V2000
    4.6863   -0.0001    0.2437 Si  0  0  0  0  0  0  0  0  0  0  0  0
    0.2714    0.0007   -1.1263 N   0  0  0  0  0  2  0  0  0  0  0  0
    3.1033    0.0010   -0.6135 N   0  0  0  0  0  0  0  0  0  0  0  0
    1.0453   -1.1762   -1.1239 C   0  0  0  0  0  0  0  0  0  0  0  0
    0.5125   -2.1057   -1.3745 H   0  0  0  0  0  0  0  0  0  0  0  0
    2.3798   -1.1797   -0.8622 C   0  0  0  0  0  0  0  0  0  0  0  0
    2.9541   -2.1163   -0.8922 H   0  0  0  0  0  0  0  0  0  0  0  0
    2.3795    1.1815   -0.8614 C   0  0  0  0  0  0  0  0  0  0  0  0
    2.9535    2.1183   -0.8909 H   0  0  0  0  0  0  0  0  0  0  0  0
    1.0450    1.1779   -1.1232 C   0  0  0  0  0  0  0  0  0  0  0  0
    0.5120    2.1073   -1.3732 H   0  0  0  0  0  0  0  0  0  0  0  0
    4.3698   -0.0106    2.1038 C   0  0  0  0  0  0  0  0  0  0  0  0
    5.3176   -0.0123    2.6811 H   0  0  0  0  0  0  0  0  0  0  0  0
    3.7881   -0.9086    2.3962 H   0  0  0  0  0  0  0  0  0  0  0  0
    3.7851    0.8822    2.4059 H   0  0  0  0  0  0  0  0  0  0  0  0
    5.6070    1.5598   -0.2711 C   0  0  0  0  0  0  0  0  0  0  0  0
    5.1147    2.4812    0.1002 H   0  0  0  0  0  0  0  0  0  0  0  0
    5.6977    1.6317   -1.3737 H   0  0  0  0  0  0  0  0  0  0  0  0
    6.6311    1.5414    0.1554 H   0  0  0  0  0  0  0  0  0  0  0  0
    5.6138   -1.5508   -0.2869 C   0  0  0  0  0  0  0  0  0  0  0  0
    5.7050   -1.6107   -1.3902 H   0  0  0  0  0  0  0  0  0  0  0  0
    5.1252   -2.4781    0.0744 H   0  0  0  0  0  0  0  0  0  0  0  0
    6.6376   -1.5328    0.1401 H   0  0  0  0  0  0  0  0  0  0  0  0
  1 12  1  0  0  0  0
  2  4  1  0  0  0  0
  2 10  1  0  0  0  0
  3  1  1  0  0  0  0
  4  6  2  0  0  0  0
  5  4  1  0  0  0  0
  6  3  1  0  0  0  0
  7  6  1  0  0  0  0
  8  3  1  0  0  0  0
  9  8  1  0  0  0  0
 10  8  2  0  0  0  0
 11 10  1  0  0  0  0
 12 14  1  0  0  0  0
 12 15  1  0  0  0  0
 12 13  1  0  0  0  0
 16 17  1  0  0  0  0
 16 19  1  0  0  0  0
 16  1  1  0  0  0  0
 18 16  1  0  0  0  0
 20 22  1  0  0  0  0
 20 23  1  0  0  0  0
 20  1  1  0  0  0  0
 21 20  1  0  0  0  0
M  END
