1
q = -1

 35 37  0  0  1  0  0  0  0  0999 V2000
   -0.9307   -0.0700   -1.1406 N   0  0  0  0  0  2  0  0  0  0  0  0
   -2.2675   -0.0241   -1.2189 C   0  0  0  0  0  3  0  0  0  0  0  0
   -2.7780   -1.2213   -1.6264 N   0  0  0  0  0  0  0  0  0  0  0  0
   -4.2228   -1.5574   -1.6920 C   0  0  2  0  0  0  0  0  0  0  0  0
   -4.9552   -0.3769   -1.5424 O   0  0  0  0  0  0  0  0  0  0  0  0
   -5.6781   -0.3754   -0.2873 C   0  0  1  0  0  0  0  0  0  0  0  0
   -5.0363   -1.5055    0.5420 C   0  0  1  0  0  0  0  0  0  0  0  0
   -5.9367   -2.1595    1.4238 O   0  0  0  0  0  0  0  0  0  0  0  0
   -6.1135   -1.5625    2.1720 H   0  0  0  0  0  0  0  0  0  0  0  0
   -4.1375   -1.1230    1.0676 H   0  0  0  0  0  0  0  0  0  0  0  0
   -4.6296   -2.5064   -0.5481 C   0  0  1  0  0  0  0  0  0  0  0  0
   -5.7477   -3.2534   -0.9693 O   0  0  0  0  0  0  0  0  0  0  0  0
   -6.3151   -3.3212   -0.1714 H   0  0  0  0  0  0  0  0  0  0  0  0
   -3.7792   -3.1557   -0.2366 H   0  0  0  0  0  0  0  0  0  0  0  0
   -4.4120   -2.0341   -2.6765 H   0  0  0  0  0  0  0  0  0  0  0  0
   -6.7382   -0.6458   -0.4977 H   0  0  0  0  0  0  0  0  0  0  0  0
   -5.6371    1.0057    0.3558 C   0  0  0  0  0  0  0  0  0  0  0  0
   -4.4346    1.1975    1.0845 O   0  0  0  0  0  0  0  0  0  0  0  0
   -3.5871    2.6333    0.8752 P   0  0  2  0  0  0  0  0  0  0  0  0
   -4.7347    3.7701    1.2467 O   0  0  0  0  0  0  0  0  0  0  0  0
   -4.6589    3.9344    2.2065 H   0  0  0  0  0  0  0  0  0  0  0  0
   -3.3388    2.7660   -0.6400 O   0  0  0  0  0  0  0  0  0  0  0  0
   -2.4639    2.6387    1.8910 O   0  0  0  0  0  1  0  0  0  0  0  0
   -5.7635    1.7698   -0.4416 H   0  0  0  0  0  0  0  0  0  0  0  0
   -6.5086    1.0949    1.0464 H   0  0  0  0  0  0  0  0  0  0  0  0
   -1.7175   -2.0804   -1.8292 C   0  0  0  0  0  0  0  0  0  0  0  0
   -1.8025   -3.3730   -2.2358 N   0  0  0  0  0  0  0  0  0  0  0  0
   -0.6336   -3.9546   -2.3405 C   0  0  0  0  0  0  0  0  0  0  0  0
    0.5575   -3.3370   -2.0636 N   0  0  0  0  0  0  0  0  0  0  0  0
    1.4343   -3.8578   -2.1710 H   0  0  0  0  0  0  0  0  0  0  0  0
    0.7397   -1.9854   -1.6226 C   0  0  0  0  0  0  0  0  0  0  0  0
    1.8661   -1.5612   -1.3847 O   0  0  0  0  0  0  0  0  0  0  0  0
   -0.5546   -1.3423   -1.5235 C   0  0  0  0  0  0  0  0  0  0  0  0
   -0.5696   -5.0060   -2.6688 H   0  0  0  0  0  0  0  0  0  0  0  0
   -2.8837    0.8708   -1.0045 H   0  0  0  0  0  0  0  0  0  0  0  0
  2  1  1  0  0  0  0
  2 35  1  0  0  0  0
  3  2  1  0  0  0  0
  4 15  1  6  0  0  0
  4  3  1  0  0  0  0
  4  5  1  0  0  0  0
  4 11  1  0  0  0  0
  5  6  1  0  0  0  0
  6 16  1  6  0  0  0
  6 17  1  0  0  0  0
  6  7  1  0  0  0  0
  7 10  1  1  0  0  0
  7  8  1  0  0  0  0
  8  9  1  0  0  0  0
 11 14  1  1  0  0  0
 11  7  1  0  0  0  0
 12 11  1  0  0  0  0
 12 13  1  0  0  0  0
 17 25  1  0  0  0  0
 17 18  1  0  0  0  0
 19 22  2  6  0  0  0
 19 18  1  0  0  0  0
 19 20  1  0  0  0  0
 19 23  1  0  0  0  0
 20 21  1  0  0  0  0
 24 17  1  0  0  0  0
 26  3  1  0  0  0  0
 26 33  2  0  0  0  0
 27 26  1  0  0  0  0
 28 27  2  0  0  0  0
 28 29  1  0  0  0  0
 29 31  1  0  0  0  0
 30 29  1  0  0  0  0
 31 33  1  0  0  0  0
 31 32  2  0  0  0  0
 33  1  1  0  0  0  0
 34 28  1  0  0  0  0
M  END
