3
q = 0.0, confidence = 0.998

 23 23  0  0  0  0  0  0  0  0999 V2000
    5.6171    1.7888   -0.2762 O   0  0  0  0  0  0  0  0  0  0  0  0
    6.0227   -0.2896    0.5327 O   0  0  0  0  0  0  0  0  0  0  0  0
   -0.1710   -1.3790   -0.2890 N   0  0  0  0  0  2  0  0  0  0  0  0
   -0.4337   -2.6327   -0.7178 C   0  0  0  0  0  3  0  0  0  0  0  0
   -1.4834   -2.9521   -0.6504 H   0  0  0  0  0  0  0  0  0  0  0  0
    0.5881   -3.4748   -1.1713 C   0  0  0  0  0  0  0  0  0  0  0  0
    0.3382   -4.4882   -1.5164 H   0  0  0  0  0  0  0  0  0  0  0  0
    1.9099   -3.0165   -1.1614 C   0  0  0  0  0  0  0  0  0  0  0  0
    2.7285   -3.6669   -1.5085 H   0  0  0  0  0  0  0  0  0  0  0  0
    2.1939   -1.7205   -0.6857 C   0  0  0  0  0  0  0  0  0  0  0  0
    1.1078   -0.9391   -0.2644 C   0  0  0  0  0  0  0  0  0  0  0  0
    1.2343    0.0632    0.1673 H   0  0  0  0  0  0  0  0  0  0  0  0
    3.6166   -1.2118   -0.6152 C   0  0  0  0  0  0  0  0  0  0  0  0
    4.2120   -1.9041    0.0161 H   0  0  0  0  0  0  0  0  0  0  0  0
    4.0701   -1.2779   -1.6288 H   0  0  0  0  0  0  0  0  0  0  0  0
    3.7793    0.2110   -0.0718 C   0  0  0  0  0  0  0  0  0  0  0  0
    3.3408    0.2778    0.9487 H   0  0  0  0  0  0  0  0  0  0  0  0
    3.2484    0.9590   -0.6917 H   0  0  0  0  0  0  0  0  0  0  0  0
    5.2171    0.6821    0.0275 C   0  0  0  0  0  0  0  0  0  0  0  0
    7.3967    0.0802    0.7009 C   0  0  0  0  0  0  0  0  0  0  0  0
    7.8446    0.3874   -0.2655 H   0  0  0  0  0  0  0  0  0  0  0  0
    7.9091   -0.8137    1.0987 H   0  0  0  0  0  0  0  0  0  0  0  0
    7.4924    0.9276    1.4095 H   0  0  0  0  0  0  0  0  0  0  0  0
  1 19  2  0  0  0  0
  2 20  1  0  0  0  0
  3 11  1  0  0  0  0
  4  5  1  0  0  0  0
  4  3  1  0  0  0  0
  6  8  2  0  0  0  0
  6  4  1  0  0  0  0
  7  6  1  0  0  0  0
  8 10  1  0  0  0  0
  9  8  1  0  0  0  0
 10 13  1  0  0  0  0
 10 11  2  0  0  0  0
 11 12  1  0  0  0  0
 13 16  1  0  0  0  0
 13 14  1  0  0  0  0
 15 13  1  0  0  0  0
 16 19  1  0  0  0  0
 16 17  1  0  0  0  0
 18 16  1  0  0  0  0
 19  2  1  0  0  0  0
 20 22  1  0  0  0  0
 20 23  1  0  0  0  0
 21 20  1  0  0  0  0
M  END
