1
q = 0.0, confidence = 0.938

 24 24  0  0  1  0  0  0  0  0999 V2000
    0.3345    0.7405    1.2870 N   0  0  0  0  0  0  0  0  0  0  0  0
    1.7723    0.4148    1.1563 C   0  0  1  0  0  0  0  0  0  0  0  0
    2.4448    1.3169    0.1113 C   0  0  0  0  0  0  0  0  0  0  0  0
    3.8095    0.8164   -0.3044 C   0  0  0  0  0  0  0  0  0  0  0  0
    4.9887    1.3133    0.2850 C   0  0  0  0  0  0  0  0  0  0  0  0
    6.2447    0.8010   -0.0770 C   0  0  0  0  0  0  0  0  0  0  0  0
    6.3374   -0.2184   -1.0370 C   0  0  0  0  0  0  0  0  0  0  0  0
    5.1684   -0.7147   -1.6372 C   0  0  0  0  0  0  0  0  0  0  0  0
    3.9139   -0.2014   -1.2764 C   0  0  0  0  0  0  0  0  0  0  0  0
    2.4422    0.4740    2.5285 C   0  0  0  0  0  0  0  0  0  0  0  0
    1.6839   -0.3644    3.3877 O   0  0  0  0  0  0  0  0  0  0  0  0
    0.2143    1.7638    1.3466 H   0  0  0  0  0  0  0  0  0  0  0  0
    0.0278    0.3625    2.2004 H   0  0  0  0  0  0  0  0  0  0  0  0
    1.8264   -0.6390    0.8127 H   0  0  0  0  0  0  0  0  0  0  0  0
    1.7771    1.3612   -0.7703 H   0  0  0  0  0  0  0  0  0  0  0  0
    2.5200    2.3498    0.5183 H   0  0  0  0  0  0  0  0  0  0  0  0
    4.9224    2.1200    1.0333 H   0  0  0  0  0  0  0  0  0  0  0  0
    7.1562    1.2042    0.3904 H   0  0  0  0  0  0  0  0  0  0  0  0
    7.3213   -0.6198   -1.3238 H   0  0  0  0  0  0  0  0  0  0  0  0
    5.2343   -1.5039   -2.4021 H   0  0  0  0  0  0  0  0  0  0  0  0
    2.9939   -0.5729   -1.7579 H   0  0  0  0  0  0  0  0  0  0  0  0
    3.5008    0.1390    2.4305 H   0  0  0  0  0  0  0  0  0  0  0  0
    2.4577    1.5351    2.8861 H   0  0  0  0  0  0  0  0  0  0  0  0
    2.0134   -0.2606    4.2970 H   0  0  0  0  0  0  0  0  0  0  0  0
  1 12  1  0  0  0  0
  1 13  1  0  0  0  0
  2 14  1  6  0  0  0
  2  1  1  0  0  0  0
  2 10  1  0  0  0  0
  3 16  1  0  0  0  0
  3  2  1  0  0  0  0
  4  3  1  0  0  0  0
  4  5  1  0  0  0  0
  5 17  1  0  0  0  0
  6  5  2  0  0  0  0
  6 18  1  0  0  0  0
  7  6  1  0  0  0  0
  8  9  1  0  0  0  0
  8  7  2  0  0  0  0
  9  4  2  0  0  0  0
 10 23  1  0  0  0  0
 10 11  1  0  0  0  0
 11 24  1  0  0  0  0
 15  3  1  0  0  0  0
 19  7  1  0  0  0  0
 20  8  1  0  0  0  0
 21  9  1  0  0  0  0
 22 10  1  0  0  0  0
M  END
