3
q = 0.0, confidence = 0.992

 29 31  0  0  1  0  0  0  0  0999 V2000
    1.2723    2.8310    0.0457 S   0  0  0  0  0  0  0  0  0  0  0  0
    2.8998    0.4362   -0.2418 N   0  0  0  0  0  0  0  0  0  0  0  0
   -0.5995    1.0704   -0.5496 N   0  0  0  0  0  2  0  0  0  0  0  0
    1.6040    0.2055   -0.5113 N   0  0  0  0  0  0  0  0  0  0  0  0
    1.2330   -0.6869   -0.9659 H   0  0  0  0  0  0  0  0  0  0  0  0
    3.7347   -0.5390   -0.4492 C   0  0  0  0  0  0  0  0  0  0  0  0
    3.3785   -1.5171   -0.8405 H   0  0  0  0  0  0  0  0  0  0  0  0
   -1.2588    2.2941   -0.4029 C   0  0  0  0  0  0  0  0  0  0  0  0
   -0.4033    3.3725   -0.0408 C   0  0  0  0  0  0  0  0  0  0  0  0
    0.7125    1.2131   -0.3842 C   0  0  2  0  0  3  0  0  0  0  0  0
    5.1629   -0.3958   -0.1859 C   0  0  0  0  0  0  0  0  0  0  0  0
   -2.2821    4.8719    0.0610 C   0  0  0  0  0  0  0  0  0  0  0  0
   -2.6958    5.8754    0.2401 H   0  0  0  0  0  0  0  0  0  0  0  0
   -0.9023    4.6604    0.1978 C   0  0  0  0  0  0  0  0  0  0  0  0
   -0.2287    5.4825    0.4804 H   0  0  0  0  0  0  0  0  0  0  0  0
    5.7125    0.8111    0.3124 C   0  0  0  0  0  0  0  0  0  0  0  0
    5.0361    1.6573    0.5019 H   0  0  0  0  0  0  0  0  0  0  0  0
   -2.6382    2.5272   -0.5578 C   0  0  0  0  0  0  0  0  0  0  0  0
   -3.2733    1.6996   -0.9076 H   0  0  0  0  0  0  0  0  0  0  0  0
   -3.1343    3.8153   -0.3211 C   0  0  0  0  0  0  0  0  0  0  0  0
   -4.2105    4.0058   -0.4495 H   0  0  0  0  0  0  0  0  0  0  0  0
    6.0266   -1.4877   -0.4347 C   0  0  0  0  0  0  0  0  0  0  0  0
    5.6070   -2.4286   -0.8250 H   0  0  0  0  0  0  0  0  0  0  0  0
    7.0850    0.9146    0.5522 C   0  0  0  0  0  0  0  0  0  0  0  0
    7.5021    1.8574    0.9381 H   0  0  0  0  0  0  0  0  0  0  0  0
    7.9364   -0.1783    0.3014 C   0  0  0  0  0  0  0  0  0  0  0  0
    9.0170   -0.0912    0.4910 H   0  0  0  0  0  0  0  0  0  0  0  0
    7.4023   -1.3788   -0.1927 C   0  0  0  0  0  0  0  0  0  0  0  0
    8.0628   -2.2361   -0.3924 H   0  0  0  0  0  0  0  0  0  0  0  0
  3  8  1  0  0  0  0
  3 10  1  0  0  0  0
  4  2  1  0  0  0  0
  5  4  1  0  0  0  0
  6  2  2  0  0  0  0
  6 11  1  0  0  0  0
  7  6  1  0  0  0  0
  8  9  1  0  0  0  0
  9  1  1  0  0  0  0
  9 14  2  0  0  0  0
 10  4  1  1  0  0  0
 10  1  1  0  0  0  0
 11 16  1  0  0  0  0
 12 14  1  0  0  0  0
 12 13  1  0  0  0  0
 14 15  1  0  0  0  0
 16 17  1  0  0  0  0
 16 24  2  0  0  0  0
 18  8  2  0  0  0  0
 18 20  1  0  0  0  0
 19 18  1  0  0  0  0
 20 12  2  0  0  0  0
 21 20  1  0  0  0  0
 22 28  1  0  0  0  0
 22 11  2  0  0  0  0
 23 22  1  0  0  0  0
 24 25  1  0  0  0  0
 26 27  1  0  0  0  0
 26 24  1  0  0  0  0
 28 26  2  0  0  0  0
 29 28  1  0  0  0  0
M  END
