1
q = -1.0

  8  8  0  0  0  0  0  0  0  0999 V2000
    1.2500    0.2535   -0.3444 N   0  0  0  0  0  0  0  0  0  0  0  0
    1.3713   -0.2304   -1.5850 N   0  0  0  0  0  0  0  0  0  0  0  0
    2.3875   -1.0711   -1.5859 N   0  0  0  0  0  0  0  0  0  0  0  0
    4.0062   -1.8490    0.1410 N   0  0  0  0  0  0  0  0  0  0  0  0
    2.1718   -0.2295    0.4819 N   0  0  0  0  0  0  0  0  0  0  0  0
    2.8536   -1.0569   -0.3246 C   0  0  0  0  0  0  0  0  0  0  0  0
    4.4984   -2.6130   -0.6742 O   0  0  0  0  0  0  0  0  0  0  0  0
    4.3494   -1.6494    1.3019 O   0  0  0  0  0  0  0  0  0  0  0  0
  1  5  1  0  0  0  0
  2  1  1  0  0  0  0
  3  2  1  0  0  0  0
  3  6  2  0  0  0  0
  4  8  2  0  0  0  0
  6  4  1  0  0  0  0
  6  5  1  0  0  0  0
  7  4  2  0  0  0  0
M  END
