1
q = 0.0, confidence = 0.988

 18 18  0  0  0  0  0  0  0  0999 V2000
   -2.0054   -0.0831   -0.3665 N   0  0  0  0  0  2  0  0  0  0  0  0
   -2.7490   -0.3719   -1.3770 C   0  0  0  0  0  3  0  0  0  0  0  0
   -2.3001   -0.5468   -2.3680 H   0  0  0  0  0  0  0  0  0  0  0  0
   -4.2156   -0.4213   -1.0636 C   0  0  0  0  0  0  0  0  0  0  0  0
   -4.7140   -1.2931   -1.5340 H   0  0  0  0  0  0  0  0  0  0  0  0
   -4.7122    0.4856   -1.4777 H   0  0  0  0  0  0  0  0  0  0  0  0
   -4.1974   -0.4545    0.4761 C   0  0  0  0  0  0  0  0  0  0  0  0
   -5.0471    0.0805    0.9409 H   0  0  0  0  0  0  0  0  0  0  0  0
   -4.2241   -1.5069    0.8242 H   0  0  0  0  0  0  0  0  0  0  0  0
   -2.8323    0.1793    0.8625 C   0  0  0  0  0  0  0  0  0  0  0  0
   -2.9332    1.7024    1.0433 C   0  0  0  0  0  0  0  0  0  0  0  0
   -1.9232    2.1546    1.0800 H   0  0  0  0  0  0  0  0  0  0  0  0
   -3.4787    1.9288    1.9810 H   0  0  0  0  0  0  0  0  0  0  0  0
   -3.4722    2.1746    0.1975 H   0  0  0  0  0  0  0  0  0  0  0  0
   -2.1915   -0.4797    2.0844 C   0  0  0  0  0  0  0  0  0  0  0  0
   -1.9448   -1.5395    1.8802 H   0  0  0  0  0  0  0  0  0  0  0  0
   -2.8875   -0.4163    2.9451 H   0  0  0  0  0  0  0  0  0  0  0  0
   -1.2514    0.0391    2.3579 H   0  0  0  0  0  0  0  0  0  0  0  0
  1 10  1  0  0  0  0
  2  4  1  0  0  0  0
  2  1  1  0  0  0  0
  3  2  1  0  0  0  0
  4  7  1  0  0  0  0
  5  4  1  0  0  0  0
  6  4  1  0  0  0  0
  7  9  1  0  0  0  0
  7 10  1  0  0  0  0
  7  8  1  0  0  0  0
 10 11  1  0  0  0  0
 10 15  1  0  0  0  0
 11 12  1  0  0  0  0
 11 13  1  0  0  0  0
 14 11  1  0  0  0  0
 15 18  1  0  0  0  0
 15 17  1  0  0  0  0
 16 15  1  0  0  0  0
M  END
