1
q = -1.0

 21 22  0  0  0  0  0  0  0  0999 V2000
   -1.1690   -0.9162   -0.0710 N   0  0  0  0  0  2  0  0  0  0  0  0
   -1.7119   -0.8697    1.1992 C   0  0  0  0  0  0  0  0  0  0  0  0
   -0.8648   -0.6371    2.2475 N   0  0  0  0  0  0  0  0  0  0  0  0
   -1.3613   -0.5104    3.1309 H   0  0  0  0  0  0  0  0  0  0  0  0
   -0.0203   -0.0292    2.1315 H   0  0  0  0  0  0  0  0  0  0  0  0
   -3.0059   -1.0966    1.4602 N   0  0  0  0  0  0  0  0  0  0  0  0
   -3.7348   -1.3261    0.3505 C   0  0  0  0  0  0  0  0  0  0  0  0
   -3.3193   -1.3114   -0.9990 C   0  0  0  0  0  0  0  0  0  0  0  0
   -1.9259   -1.0446   -1.2722 C   0  0  0  0  0  0  0  0  0  0  0  0
   -1.3573   -0.9388   -2.3712 O   0  0  0  0  0  0  0  0  0  0  0  0
   -4.3878   -1.5531   -1.8447 N   0  0  0  0  0  0  0  0  0  0  0  0
   -5.4173   -1.7129   -1.0386 C   0  0  0  0  0  0  0  0  0  0  0  0
   -6.4501   -1.9299   -1.3469 H   0  0  0  0  0  0  0  0  0  0  0  0
   -5.0900   -1.5954    0.3110 N   0  0  0  0  0  0  0  0  0  0  0  0
   -5.9749   -1.6382    1.4640 C   0  0  0  0  0  0  0  0  0  0  0  0
   -6.8946   -2.1785    1.1591 H   0  0  0  0  0  0  0  0  0  0  0  0
   -5.4763   -2.2454    2.2478 H   0  0  0  0  0  0  0  0  0  0  0  0
   -6.3007   -0.2483    2.0109 C   0  0  0  0  0  0  0  0  0  0  0  0
   -6.9729   -0.3236    2.8892 H   0  0  0  0  0  0  0  0  0  0  0  0
   -6.7988    0.3762    1.2423 H   0  0  0  0  0  0  0  0  0  0  0  0
   -5.3683    0.2592    2.3269 H   0  0  0  0  0  0  0  0  0  0  0  0
  1  2  1  0  0  0  0
  2  6  2  0  0  0  0
  2  3  1  0  0  0  0
  3  4  1  0  0  0  0
  5  3  1  0  0  0  0
  7  6  1  0  0  0  0
  8  7  2  0  0  0  0
  9  8  1  0  0  0  0
  9  1  1  0  0  0  0
 10  9  2  0  0  0  0
 11 12  2  0  0  0  0
 11  8  1  0  0  0  0
 12 14  1  0  0  0  0
 13 12  1  0  0  0  0
 14  7  1  0  0  0  0
 14 15  1  0  0  0  0
 15 18  1  0  0  0  0
 15 17  1  0  0  0  0
 16 15  1  0  0  0  0
 18 21  1  0  0  0  0
 18 19  1  0  0  0  0
 20 18  1  0  0  0  0
M  END
