2
q = 0.0, confidence = 1.0

 37 39  0  0  1  0  0  0  0  0999 V2000
   -1.1895    0.0829   -0.2409 P   0  0  0  0  0  0  0  0  0  0  0  0
    1.0702    1.8022   -0.7833 N   0  0  0  0  0  2  0  0  0  0  0  0
    0.1638    3.5525   -1.7987 N   0  0  0  0  0  0  0  0  0  0  0  0
    2.0356    2.7864   -0.8932 C   0  0  0  0  0  0  0  0  0  0  0  0
    3.0556    2.6528   -0.5206 H   0  0  0  0  0  0  0  0  0  0  0  0
    1.4821    3.8804   -1.5210 C   0  0  0  0  0  0  0  0  0  0  0  0
    1.9051    4.8528   -1.7917 H   0  0  0  0  0  0  0  0  0  0  0  0
   -0.0617    2.2897   -1.3427 C   0  0  1  0  0  3  0  0  0  0  0  0
   -1.3280    1.5142   -1.4588 C   0  0  0  0  0  0  0  0  0  0  0  0
   -1.4465    1.0851   -2.4774 H   0  0  0  0  0  0  0  0  0  0  0  0
   -2.2265    2.1292   -1.2503 H   0  0  0  0  0  0  0  0  0  0  0  0
   -0.8167    4.4075   -2.4560 C   0  0  0  0  0  0  0  0  0  0  0  0
   -1.6131    4.7084   -1.7468 H   0  0  0  0  0  0  0  0  0  0  0  0
   -1.2741    3.8806   -3.3152 H   0  0  0  0  0  0  0  0  0  0  0  0
   -0.3104    5.3158   -2.8271 H   0  0  0  0  0  0  0  0  0  0  0  0
   -2.1626   -1.2781   -0.9732 C   0  0  0  0  0  0  0  0  0  0  0  0
   -1.8526   -1.6987   -2.2861 C   0  0  0  0  0  0  0  0  0  0  0  0
   -1.0823   -1.1724   -2.8729 H   0  0  0  0  0  0  0  0  0  0  0  0
   -2.5074   -2.8053   -2.8423 C   0  0  0  0  0  0  0  0  0  0  0  0
   -2.2677   -3.1233   -3.8678 H   0  0  0  0  0  0  0  0  0  0  0  0
   -3.4598   -3.5120   -2.0883 C   0  0  0  0  0  0  0  0  0  0  0  0
   -3.9707   -4.3827   -2.5255 H   0  0  0  0  0  0  0  0  0  0  0  0
   -3.7520   -3.1121   -0.7758 C   0  0  0  0  0  0  0  0  0  0  0  0
   -4.4906   -3.6689   -0.1803 H   0  0  0  0  0  0  0  0  0  0  0  0
   -3.1063   -1.9993   -0.2138 C   0  0  0  0  0  0  0  0  0  0  0  0
   -3.3401   -1.6931    0.8163 H   0  0  0  0  0  0  0  0  0  0  0  0
   -2.0964    0.6692    1.2330 C   0  0  0  0  0  0  0  0  0  0  0  0
   -3.4610    1.0257    1.1532 C   0  0  0  0  0  0  0  0  0  0  0  0
   -4.0113    0.9211    0.2047 H   0  0  0  0  0  0  0  0  0  0  0  0
   -4.1251    1.4999    2.2925 C   0  0  0  0  0  0  0  0  0  0  0  0
   -5.1890    1.7734    2.2309 H   0  0  0  0  0  0  0  0  0  0  0  0
   -3.4350    1.6225    3.5113 C   0  0  0  0  0  0  0  0  0  0  0  0
   -3.9611    1.9943    4.4033 H   0  0  0  0  0  0  0  0  0  0  0  0
   -2.0790    1.2712    3.5926 C   0  0  0  0  0  0  0  0  0  0  0  0
   -1.5392    1.3687    4.5462 H   0  0  0  0  0  0  0  0  0  0  0  0
   -1.4072    0.7944    2.4564 C   0  0  0  0  0  0  0  0  0  0  0  0
   -0.3402    0.5209    2.4968 H   0  0  0  0  0  0  0  0  0  0  0  0
  1 27  1  0  0  0  0
  3  6  1  0  0  0  0
  3  8  1  0  0  0  0
  4  2  1  0  0  0  0
  4  5  1  0  0  0  0
  6  4  2  0  0  0  0
  7  6  1  0  0  0  0
  8  9  1  6  0  0  0
  8  2  1  0  0  0  0
  9 11  1  0  0  0  0
  9  1  1  0  0  0  0
 10  9  1  0  0  0  0
 12  3  1  0  0  0  0
 12 13  1  0  0  0  0
 14 12  1  0  0  0  0
 15 12  1  0  0  0  0
 16  1  1  0  0  0  0
 16 25  1  0  0  0  0
 17 16  2  0  0  0  0
 18 17  1  0  0  0  0
 19 17  1  0  0  0  0
 19 21  2  0  0  0  0
 20 19  1  0  0  0  0
 21 23  1  0  0  0  0
 22 21  1  0  0  0  0
 23 25  2  0  0  0  0
 23 24  1  0  0  0  0
 25 26  1  0  0  0  0
 27 36  1  0  0  0  0
 28 27  2  0  0  0  0
 28 30  1  0  0  0  0
 29 28  1  0  0  0  0
 30 32  2  0  0  0  0
 31 30  1  0  0  0  0
 32 34  1  0  0  0  0
 32 33  1  0  0  0  0
 34 35  1  0  0  0  0
 36 37  1  0  0  0  0
 36 34  2  0  0  0  0
M  END
