1
q = 0.0, confidence = 0.998

 38 39  0  0  1  0  0  0  0  0999 V2000
   -0.5807    0.2396   -0.1397 N   0  0  0  0  0  2  0  0  0  0  0  0
    0.0912    1.3700   -0.0020 C   0  0  0  0  0  0  0  0  0  0  0  0
   -0.4805    2.5501    0.1581 O   0  0  0  0  0  0  0  0  0  0  0  0
    0.3462    3.7316    0.2397 C   0  0  0  0  0  0  0  0  0  0  0  0
   -0.5792    4.9227    0.3661 C   0  0  0  0  0  0  0  0  0  0  0  0
    1.4404    0.8309   -0.1060 C   0  0  0  0  0  0  0  0  0  0  0  0
    2.7163    1.3006   -0.0312 C   0  0  0  0  0  3  0  0  0  0  0  0
    3.9638    0.5510   -0.1283 C   0  0  0  0  0  0  0  0  0  0  0  0
    5.1832    1.2744   -0.1756 C   0  0  0  0  0  0  0  0  0  0  0  0
    6.4124    0.6138   -0.2754 C   0  0  0  0  0  0  0  0  0  0  0  0
    6.4529   -0.7895   -0.3219 C   0  0  0  0  0  0  0  0  0  0  0  0
    5.2544   -1.5219   -0.2632 C   0  0  0  0  0  0  0  0  0  0  0  0
    4.0220   -0.8671   -0.1673 C   0  0  0  0  0  0  0  0  0  0  0  0
    0.7223   -0.5347   -0.3262 C   0  0  1  0  0  0  0  0  0  0  0  0
    0.9218   -1.5502    0.5951 O   0  0  0  0  0  0  0  0  0  0  0  0
    0.9241   -1.1885    1.9829 C   0  0  0  0  0  0  0  0  0  0  0  0
    1.0408   -2.4654    2.7910 C   0  0  0  0  0  0  0  0  0  0  0  0
    0.8203   -1.0834   -1.7210 C   0  0  0  0  0  0  0  0  0  0  0  0
    1.0031   -2.3806   -2.0133 C   0  0  0  0  0  0  0  0  0  0  0  0
    1.0203    3.6411    1.1191 H   0  0  0  0  0  0  0  0  0  0  0  0
    0.9730    3.7964   -0.6761 H   0  0  0  0  0  0  0  0  0  0  0  0
    0.0100    5.8594    0.4094 H   0  0  0  0  0  0  0  0  0  0  0  0
   -1.1902    4.8481    1.2867 H   0  0  0  0  0  0  0  0  0  0  0  0
   -1.2661    4.9743   -0.5011 H   0  0  0  0  0  0  0  0  0  0  0  0
    2.8399    2.3855    0.1241 H   0  0  0  0  0  0  0  0  0  0  0  0
    5.1537    2.3749   -0.1380 H   0  0  0  0  0  0  0  0  0  0  0  0
    7.3457    1.1956   -0.3151 H   0  0  0  0  0  0  0  0  0  0  0  0
    7.4181   -1.3126   -0.3985 H   0  0  0  0  0  0  0  0  0  0  0  0
    5.2807   -2.6219   -0.2899 H   0  0  0  0  0  0  0  0  0  0  0  0
    3.0972   -1.4560   -0.1028 H   0  0  0  0  0  0  0  0  0  0  0  0
    1.7767   -0.5003    2.1858 H   0  0  0  0  0  0  0  0  0  0  0  0
   -0.0157   -0.6471    2.2294 H   0  0  0  0  0  0  0  0  0  0  0  0
    0.1883   -3.1389    2.5768 H   0  0  0  0  0  0  0  0  0  0  0  0
    1.0427   -2.2324    3.8741 H   0  0  0  0  0  0  0  0  0  0  0  0
    1.9803   -3.0013    2.5493 H   0  0  0  0  0  0  0  0  0  0  0  0
    0.7000   -0.3285   -2.5143 H   0  0  0  0  0  0  0  0  0  0  0  0
    1.1033   -3.1275   -1.2116 H   0  0  0  0  0  0  0  0  0  0  0  0
    1.0413   -2.7256   -3.0572 H   0  0  0  0  0  0  0  0  0  0  0  0
  1  2  1  0  0  0  0
  2  3  1  0  0  0  0
  3  4  1  0  0  0  0
  4  5  1  0  0  0  0
  4 20  1  0  0  0  0
  5 22  1  0  0  0  0
  5 23  1  0  0  0  0
  6  7  1  0  0  0  0
  6  2  2  0  0  0  0
  7 25  1  0  0  0  0
  8  7  1  0  0  0  0
  9 26  1  0  0  0  0
  9  8  2  0  0  0  0
 10  9  1  0  0  0  0
 11 10  2  0  0  0  0
 11 12  1  0  0  0  0
 12 13  2  0  0  0  0
 13  8  1  0  0  0  0
 13 30  1  0  0  0  0
 14 18  1  6  0  0  0
 14  1  1  0  0  0  0
 14  6  1  0  0  0  0
 14 15  1  0  0  0  0
 15 16  1  0  0  0  0
 16 31  1  0  0  0  0
 16 32  1  0  0  0  0
 16 17  1  0  0  0  0
 17 34  1  0  0  0  0
 19 18  2  0  0  0  0
 19 37  1  0  0  0  0
 21  4  1  0  0  0  0
 24  5  1  0  0  0  0
 27 10  1  0  0  0  0
 28 11  1  0  0  0  0
 29 12  1  0  0  0  0
 33 17  1  0  0  0  0
 35 17  1  0  0  0  0
 36 18  1  0  0  0  0
 38 19  1  0  0  0  0
M  END
