1
q = 0.0, confidence = 0.996

 41 42  0  0  1  0  0  0  0  0999 V2000
   -0.1472    0.5302   -0.1172 N   0  0  0  0  0  2  0  0  0  0  0  0
   -1.4233   -0.2534   -0.1167 C   0  0  1  0  0  0  0  0  0  0  0  0
   -1.4597   -1.0979   -1.3726 C   0  0  0  0  0  0  0  0  0  0  0  0
   -1.4744   -2.4426   -1.3789 C   0  0  0  0  0  0  0  0  0  0  0  0
   -1.4526   -3.2890   -2.6109 C   0  0  0  0  0  0  0  0  0  0  0  0
   -1.5159   -1.0867    1.0052 O   0  0  0  0  0  0  0  0  0  0  0  0
   -1.4855   -0.4323    2.2808 C   0  0  0  0  0  0  0  0  0  0  0  0
   -1.7324   -1.4814    3.3465 C   0  0  0  0  0  0  0  0  0  0  0  0
   -2.5369    0.8218   -0.1797 C   0  0  2  0  0  3  0  0  0  0  0  0
   -3.9650    0.5251   -0.1551 C   0  0  0  0  0  0  0  0  0  0  0  0
   -4.4366   -0.7823    0.1294 C   0  0  0  0  0  0  0  0  0  0  0  0
   -5.8102   -1.0512    0.1696 C   0  0  0  0  0  0  0  0  0  0  0  0
   -6.7425   -0.0313   -0.0763 C   0  0  0  0  0  0  0  0  0  0  0  0
   -6.2905    1.2694   -0.3632 C   0  0  0  0  0  0  0  0  0  0  0  0
   -4.9212    1.5442   -0.4017 C   0  0  0  0  0  0  0  0  0  0  0  0
   -1.9155    2.0359   -0.2771 C   0  0  0  0  0  0  0  0  0  0  0  0
   -0.4770    1.8006   -0.2145 C   0  0  0  0  0  0  0  0  0  0  0  0
    0.4775    2.7255   -0.2265 O   0  0  0  0  0  0  0  0  0  0  0  0
    0.1343    4.1163   -0.3861 C   0  0  0  0  0  0  0  0  0  0  0  0
    1.4296    4.9010   -0.3769 C   0  0  0  0  0  0  0  0  0  0  0  0
   -1.4390   -0.5191   -2.3106 H   0  0  0  0  0  0  0  0  0  0  0  0
   -1.4708   -2.9584   -0.4030 H   0  0  0  0  0  0  0  0  0  0  0  0
   -2.2950   -4.0130   -2.6168 H   0  0  0  0  0  0  0  0  0  0  0  0
   -0.5183   -3.8892   -2.6505 H   0  0  0  0  0  0  0  0  0  0  0  0
   -1.5026   -2.6813   -3.5355 H   0  0  0  0  0  0  0  0  0  0  0  0
   -2.2654    0.3636    2.3151 H   0  0  0  0  0  0  0  0  0  0  0  0
   -0.4957    0.0580    2.4188 H   0  0  0  0  0  0  0  0  0  0  0  0
   -1.6883   -1.0190    4.3524 H   0  0  0  0  0  0  0  0  0  0  0  0
   -0.9655   -2.2780    3.2932 H   0  0  0  0  0  0  0  0  0  0  0  0
   -2.7308   -1.9458    3.2204 H   0  0  0  0  0  0  0  0  0  0  0  0
   -3.7099   -1.5796    0.3304 H   0  0  0  0  0  0  0  0  0  0  0  0
   -6.1563   -2.0712    0.3951 H   0  0  0  0  0  0  0  0  0  0  0  0
   -7.8212   -0.2472   -0.0475 H   0  0  0  0  0  0  0  0  0  0  0  0
   -7.0148    2.0737   -0.5620 H   0  0  0  0  0  0  0  0  0  0  0  0
   -4.5833    2.5641   -0.6378 H   0  0  0  0  0  0  0  0  0  0  0  0
   -2.3882    3.0214   -0.3587 H   0  0  0  0  0  0  0  0  0  0  0  0
   -0.5363    4.4265    0.4453 H   0  0  0  0  0  0  0  0  0  0  0  0
   -0.4160    4.2481   -1.3437 H   0  0  0  0  0  0  0  0  0  0  0  0
    1.2211    5.9801   -0.5130 H   0  0  0  0  0  0  0  0  0  0  0  0
    2.0967    4.5593   -1.1917 H   0  0  0  0  0  0  0  0  0  0  0  0
    1.9611    4.7627    0.5850 H   0  0  0  0  0  0  0  0  0  0  0  0
  1  2  1  0  0  0  0
  2  3  1  6  0  0  0
  2  6  1  0  0  0  0
  4  3  2  0  0  0  0
  4 22  1  0  0  0  0
  5  4  1  0  0  0  0
  6  7  1  0  0  0  0
  7 26  1  0  0  0  0
  7 27  1  0  0  0  0
  7  8  1  0  0  0  0
  8 28  1  0  0  0  0
  9 10  1  6  0  0  0
  9  2  1  0  0  0  0
 10 11  1  0  0  0  0
 11 12  2  0  0  0  0
 11 31  1  0  0  0  0
 12 32  1  0  0  0  0
 13 33  1  0  0  0  0
 13 12  1  0  0  0  0
 14 13  2  0  0  0  0
 15 14  1  0  0  0  0
 15 10  2  0  0  0  0
 16 17  2  0  0  0  0
 16  9  1  0  0  0  0
 17  1  1  0  0  0  0
 18 17  1  0  0  0  0
 19 20  1  0  0  0  0
 19 18  1  0  0  0  0
 19 37  1  0  0  0  0
 20 41  1  0  0  0  0
 21  3  1  0  0  0  0
 23  5  1  0  0  0  0
 24  5  1  0  0  0  0
 25  5  1  0  0  0  0
 29  8  1  0  0  0  0
 30  8  1  0  0  0  0
 34 14  1  0  0  0  0
 35 15  1  0  0  0  0
 36 16  1  0  0  0  0
 38 19  1  0  0  0  0
 39 20  1  0  0  0  0
 40 20  1  0  0  0  0
M  END
