1
q = -1.0, confidence = 0.0

 35 35  0  0  0  0  0  0  0  0999 V2000
    3.5006    0.3947    0.4686 N   0  0  0  0  0  2  0  0  0  0  0  0
    3.2736    2.5808   -0.3737 N   0  0  0  0  0  0  0  0  0  0  0  0
    0.7611    2.5205    0.4384 C   0  0  0  0  0  0  0  0  0  0  0  0
    0.9867    2.9853    1.4134 H   0  0  0  0  0  0  0  0  0  0  0  0
   -0.5606    2.0796    0.2190 C   0  0  0  0  0  0  0  0  0  0  0  0
   -1.3388    2.2076    0.9889 H   0  0  0  0  0  0  0  0  0  0  0  0
   -0.9313    1.4049   -0.9691 C   0  0  0  0  0  0  0  0  0  0  0  0
   -1.9643    1.0430   -1.0777 H   0  0  0  0  0  0  0  0  0  0  0  0
   -0.0022    1.2123   -2.0264 C   0  0  0  0  0  0  0  0  0  0  0  0
   -0.3553    0.6902   -2.9317 H   0  0  0  0  0  0  0  0  0  0  0  0
    1.3420    1.6120   -1.9088 C   0  0  0  0  0  0  0  0  0  0  0  0
    2.0195    1.3804   -2.7478 H   0  0  0  0  0  0  0  0  0  0  0  0
    3.9894    1.5808    0.1529 C   0  0  0  0  0  3  0  0  0  0  0  0
    5.0658    1.8065    0.3106 H   0  0  0  0  0  0  0  0  0  0  0  0
    4.4866   -0.5848    0.9943 C   0  0  0  0  0  0  0  0  0  0  0  0
    3.9647   -1.5677    0.9825 H   0  0  0  0  0  0  0  0  0  0  0  0
    4.8917   -0.2683    2.4407 C   0  0  0  0  0  0  0  0  0  0  0  0
    5.4608    0.6838    2.4891 H   0  0  0  0  0  0  0  0  0  0  0  0
    5.5405   -1.0675    2.8525 H   0  0  0  0  0  0  0  0  0  0  0  0
    4.0092   -0.1640    3.0987 H   0  0  0  0  0  0  0  0  0  0  0  0
    5.7287   -0.7368    0.1035 C   0  0  0  0  0  0  0  0  0  0  0  0
    5.4394   -0.8573   -0.9565 H   0  0  0  0  0  0  0  0  0  0  0  0
    6.3083   -1.6313    0.4062 H   0  0  0  0  0  0  0  0  0  0  0  0
    6.4083    0.1364    0.1895 H   0  0  0  0  0  0  0  0  0  0  0  0
    3.9045    3.8753   -0.6792 C   0  0  0  0  0  0  0  0  0  0  0  0
    4.9778    3.7713   -0.4052 H   0  0  0  0  0  0  0  0  0  0  0  0
    3.8166    4.1820   -2.1787 C   0  0  0  0  0  0  0  0  0  0  0  0
    4.2815    3.3740   -2.7772 H   0  0  0  0  0  0  0  0  0  0  0  0
    4.3333    5.1340   -2.4123 H   0  0  0  0  0  0  0  0  0  0  0  0
    2.7588    4.2791   -2.4980 H   0  0  0  0  0  0  0  0  0  0  0  0
    3.2960    4.9957    0.1724 C   0  0  0  0  0  0  0  0  0  0  0  0
    2.2197    5.1258   -0.0613 H   0  0  0  0  0  0  0  0  0  0  0  0
    3.8085    5.9579   -0.0267 H   0  0  0  0  0  0  0  0  0  0  0  0
    3.3868    4.7674    1.2527 H   0  0  0  0  0  0  0  0  0  0  0  0
    1.8045    2.3067   -0.6370 B   0  0  0  0  0  0  0  0  0  0  0  0
  1 15  1  0  0  0  0
  2 13  1  0  0  0  0
  3  4  1  0  0  0  0
  5  3  1  0  0  0  0
  5  6  1  0  0  0  0
  7  5  2  0  0  0  0
  8  7  1  0  0  0  0
  9 11  2  0  0  0  0
  9  7  1  0  0  0  0
 10  9  1  0  0  0  0
 11 35  1  0  0  0  0
 12 11  1  0  0  0  0
 13 14  1  0  0  0  0
 13  1  1  0  0  0  0
 15 17  1  0  0  0  0
 16 15  1  0  0  0  0
 17 18  1  0  0  0  0
 17 19  1  0  0  0  0
 17 20  1  0  0  0  0
 21 24  1  0  0  0  0
 21 23  1  0  0  0  0
 21 15  1  0  0  0  0
 22 21  1  0  0  0  0
 25 26  1  0  0  0  0
 25  2  1  0  0  0  0
 25 31  1  0  0  0  0
 27 25  1  0  0  0  0
 28 27  1  0  0  0  0
 29 27  1  0  0  0  0
 30 27  1  0  0  0  0
 31 34  1  0  0  0  0
 32 31  1  0  0  0  0
 33 31  1  0  0  0  0
 35  2  1  0  0  0  0
 35  3  2  0  0  0  0
M  END
