11
q = -1.0, confidence = 0.0

 13 13  0  0  0  0  0  0  0  0999 V2000
   -4.8416    2.0948   -0.0819 F   0  0  0  0  0  0  0  0  0  0  0  0
   -2.7726    1.0020   -0.0538 C   0  0  0  0  0  3  0  0  0  0  0  0
   -2.2541    1.9740   -0.0978 H   0  0  0  0  0  0  0  0  0  0  0  0
   -4.1601    0.9434   -0.0483 C   0  0  0  0  0  0  0  0  0  0  0  0
   -4.8554   -0.2884   -0.0106 C   0  0  0  0  0  0  0  0  0  0  0  0
   -4.0311   -1.4423    0.0141 C   0  0  0  0  0  0  0  0  0  0  0  0
   -4.4994   -2.4382    0.0302 H   0  0  0  0  0  0  0  0  0  0  0  0
   -2.6463   -1.3313    0.0170 C   0  0  0  0  0  0  0  0  0  0  0  0
   -1.9976   -2.2229    0.0528 H   0  0  0  0  0  0  0  0  0  0  0  0
   -6.3813   -0.3631    0.0198 C   0  0  0  0  0  0  0  0  0  0  0  0
   -2.0050   -0.1280   -0.0167 N   0  0  0  0  0  2  0  0  0  0  0  0
   -6.8404   -0.2438    1.1754 O   0  5  0  0  0  0  0  0  0  0  0  0
   -6.9087   -0.5476   -1.0939 O   0  0  0  0  0  0  0  0  0  0  0  0
  1  4  1  0  0  0  0
  2  4  1  0  0  0  0
  2 11  1  0  0  0  0
  3  2  1  0  0  0  0
  4  5  2  0  0  0  0
  5  6  1  0  0  0  0
  5 10  1  0  0  0  0
  6  8  2  0  0  0  0
  6  7  1  0  0  0  0
  8  9  1  0  0  0  0
 10 12  1  0  0  0  0
 11  8  1  0  0  0  0
 13 10  2  0  0  0  0
M  CHG  1  12  -1
M  END
