2
q = 0.0, confidence = 0.996

 31 31  0  0  1  0  0  0  0  0999 V2000
   -1.0782    2.3316   -0.1011 O   0  0  0  0  0  0  0  0  0  0  0  0
    1.1277    0.8655    0.0265 N   0  0  0  0  0  2  0  0  0  0  0  0
   -2.2638    3.1472   -0.1178 C   0  0  0  0  0  0  0  0  0  0  0  0
   -2.1781    3.9146   -0.9144 H   0  0  0  0  0  0  0  0  0  0  0  0
   -3.1151    2.4810   -0.3384 H   0  0  0  0  0  0  0  0  0  0  0  0
   -2.4094    3.6345    0.8686 H   0  0  0  0  0  0  0  0  0  0  0  0
    0.1309    3.0635    0.0838 C   0  0  0  0  0  0  0  0  0  0  0  0
    0.1031    3.6121    1.0560 H   0  0  0  0  0  0  0  0  0  0  0  0
    0.2398    3.8294   -0.7196 H   0  0  0  0  0  0  0  0  0  0  0  0
    1.3240    2.1526    0.0745 C   0  0  2  0  0  3  0  0  0  0  0  0
    2.6679    2.8074    0.1152 C   0  0  0  0  0  0  0  0  0  0  0  0
    3.4382    2.1230    0.5150 H   0  0  0  0  0  0  0  0  0  0  0  0
    2.9734    3.0886   -0.9163 H   0  0  0  0  0  0  0  0  0  0  0  0
    2.6439    3.7407    0.7111 H   0  0  0  0  0  0  0  0  0  0  0  0
    2.2533   -0.0329    0.0257 C   0  0  0  0  0  0  0  0  0  0  0  0
    2.8028   -0.4304   -1.2158 C   0  0  0  0  0  0  0  0  0  0  0  0
    3.8517   -1.3689   -1.1867 C   0  0  0  0  0  0  0  0  0  0  0  0
    4.3305   -1.8808    0.0269 C   0  0  0  0  0  0  0  0  0  0  0  0
    3.7701   -1.4603    1.2404 C   0  0  0  0  0  0  0  0  0  0  0  0
    2.7173   -0.5258    1.2688 C   0  0  0  0  0  0  0  0  0  0  0  0
    4.2951   -1.7000   -2.1381 H   0  0  0  0  0  0  0  0  0  0  0  0
    5.1489   -2.6155    0.0267 H   0  0  0  0  0  0  0  0  0  0  0  0
    4.1512   -1.8607    2.1922 H   0  0  0  0  0  0  0  0  0  0  0  0
    2.2847    0.1379   -2.5121 C   0  0  0  0  0  0  0  0  0  0  0  0
    1.1756    0.1016   -2.5636 H   0  0  0  0  0  0  0  0  0  0  0  0
    2.5743    1.2030   -2.6396 H   0  0  0  0  0  0  0  0  0  0  0  0
    2.6910   -0.4149   -3.3792 H   0  0  0  0  0  0  0  0  0  0  0  0
    2.1223   -0.0390    2.5648 C   0  0  0  0  0  0  0  0  0  0  0  0
    1.0120   -0.0690    2.5439 H   0  0  0  0  0  0  0  0  0  0  0  0
    2.4742   -0.6473    3.4184 H   0  0  0  0  0  0  0  0  0  0  0  0
    2.4058    1.0153    2.7740 H   0  0  0  0  0  0  0  0  0  0  0  0
  1  7  1  0  0  0  0
  3  1  1  0  0  0  0
  3  6  1  0  0  0  0
  4  3  1  0  0  0  0
  5  3  1  0  0  0  0
  7  8  1  0  0  0  0
  9  7  1  0  0  0  0
 10  2  1  6  0  0  0
 10  7  1  0  0  0  0
 10 11  1  0  0  0  0
 11 12  1  0  0  0  0
 11 14  1  0  0  0  0
 13 11  1  0  0  0  0
 15  2  1  0  0  0  0
 15 20  1  0  0  0  0
 16 17  1  0  0  0  0
 16 15  2  0  0  0  0
 17 18  2  0  0  0  0
 18 19  1  0  0  0  0
 19 20  2  0  0  0  0
 19 23  1  0  0  0  0
 20 28  1  0  0  0  0
 21 17  1  0  0  0  0
 22 18  1  0  0  0  0
 24 16  1  0  0  0  0
 25 24  1  0  0  0  0
 26 24  1  0  0  0  0
 27 24  1  0  0  0  0
 28 31  1  0  0  0  0
 28 30  1  0  0  0  0
 29 28  1  0  0  0  0
M  END
