1
q = 0.0, confidence = 0.998

 16 16  0  0  1  0  0  0  0  0999 V2000
    1.7782    0.3570    0.0006 N   0  0  0  0  0  2  0  0  0  0  0  0
    2.0501    1.7014    0.0018 N   0  0  0  0  0  0  0  0  0  0  0  0
    3.9423    0.5592   -0.0007 N   0  0  0  0  0  0  0  0  0  0  0  0
    5.2895    0.2192   -0.0020 N   0  0  0  0  0  0  0  0  0  0  0  0
    5.7457    0.6102    0.8324 H   0  0  0  0  0  0  0  0  0  0  0  0
    5.7441    0.6103   -0.8372 H   0  0  0  0  0  0  0  0  0  0  0  0
    3.3612    1.8237    0.0010 C   0  0  0  0  0  0  0  0  0  0  0  0
    2.9068   -0.3464   -0.0008 C   0  0  2  0  0  3  0  0  0  0  0  0
    4.1389    3.0908    0.0019 C   0  0  0  0  0  0  0  0  0  0  0  0
    4.7885    3.1812   -0.8942 H   0  0  0  0  0  0  0  0  0  0  0  0
    4.7873    3.1806    0.8989 H   0  0  0  0  0  0  0  0  0  0  0  0
    3.4261    3.9347    0.0018 H   0  0  0  0  0  0  0  0  0  0  0  0
    3.0294   -1.8215   -0.0023 C   0  0  0  0  0  0  0  0  0  0  0  0
    4.0919   -2.1226   -0.0023 H   0  0  0  0  0  0  0  0  0  0  0  0
    2.4935   -2.2247   -0.8890 H   0  0  0  0  0  0  0  0  0  0  0  0
    2.4931   -2.2263    0.8834 H   0  0  0  0  0  0  0  0  0  0  0  0
  1  2  1  0  0  0  0
  3  7  1  0  0  0  0
  4  3  1  0  0  0  0
  4  5  1  0  0  0  0
  6  4  1  0  0  0  0
  7  2  2  0  0  0  0
  7  9  1  0  0  0  0
  8 13  1  6  0  0  0
  8  3  1  0  0  0  0
  8  1  1  0  0  0  0
  9 11  1  0  0  0  0
 10  9  1  0  0  0  0
 12  9  1  0  0  0  0
 13 16  1  0  0  0  0
 14 13  1  0  0  0  0
 15 13  1  0  0  0  0
M  END
