1
q = -1.0

 23 25  0  0  0  0  0  0  0  0999 V2000
   -2.1661   -0.3774   -0.0000 N   0  0  0  0  0  0  0  0  0  0  0  0
   -3.0102   -1.4688    0.0000 C   0  0  0  0  0  0  0  0  0  0  0  0
   -2.7577   -2.8539   -0.0001 C   0  0  0  0  0  0  0  0  0  0  0  0
   -1.7274   -3.2418   -0.0002 H   0  0  0  0  0  0  0  0  0  0  0  0
   -3.8649   -3.7088    0.0000 C   0  0  0  0  0  0  0  0  0  0  0  0
   -3.7058   -4.7982   -0.0001 H   0  0  0  0  0  0  0  0  0  0  0  0
   -5.1939   -3.2055    0.0002 C   0  0  0  0  0  0  0  0  0  0  0  0
   -6.0336   -3.9173    0.0003 H   0  0  0  0  0  0  0  0  0  0  0  0
   -5.4531   -1.8325    0.0003 C   0  0  0  0  0  0  0  0  0  0  0  0
   -6.4790   -1.4357    0.0004 H   0  0  0  0  0  0  0  0  0  0  0  0
   -4.3515   -0.9477    0.0002 C   0  0  0  0  0  0  0  0  0  0  0  0
   -4.3133    0.4262    0.0003 N   0  0  0  0  0  0  0  0  0  0  0  0
   -3.0066    0.7191    0.0002 C   0  0  0  0  0  3  0  0  0  0  0  0
   -2.5013    2.0955    0.0001 C   0  0  0  0  0  0  0  0  0  0  0  0
   -1.1619    2.2885   -0.0001 N   0  0  0  0  0  0  0  0  0  0  0  0
   -0.6920    3.5439   -0.0002 C   0  0  0  0  0  0  0  0  0  0  0  0
    0.4079    3.6531   -0.0003 H   0  0  0  0  0  0  0  0  0  0  0  0
   -1.5163    4.6782   -0.0001 C   0  0  0  0  0  0  0  0  0  0  0  0
   -1.0776    5.6867   -0.0002 H   0  0  0  0  0  0  0  0  0  0  0  0
   -2.9096    4.4811    0.0001 C   0  0  0  0  0  0  0  0  0  0  0  0
   -3.5958    5.3420    0.0002 H   0  0  0  0  0  0  0  0  0  0  0  0
   -3.4121    3.1793    0.0002 C   0  0  0  0  0  0  0  0  0  0  0  0
   -4.4868    2.9499    0.0004 H   0  0  0  0  0  0  0  0  0  0  0  0
  1  2  2  0  0  0  0
  1 13  1  0  0  0  0
  2 11  1  0  0  0  0
  3  5  2  0  0  0  0
  3  2  1  0  0  0  0
  4  3  1  0  0  0  0
  5  7  1  0  0  0  0
  6  5  1  0  0  0  0
  7  8  1  0  0  0  0
  7  9  2  0  0  0  0
  9 10  1  0  0  0  0
 11  9  1  0  0  0  0
 11 12  2  0  0  0  0
 13 12  1  0  0  0  0
 14 13  1  0  0  0  0
 14 22  1  0  0  0  0
 15 14  2  0  0  0  0
 16 15  1  0  0  0  0
 16 18  2  0  0  0  0
 17 16  1  0  0  0  0
 18 20  1  0  0  0  0
 19 18  1  0  0  0  0
 20 21  1  0  0  0  0
 20 22  2  0  0  0  0
 22 23  1  0  0  0  0
M  END
