5
q = 0.0, confidence = 0.966

 15 15  0  0  0  0  0  0  0  0999 V2000
    3.3154   -1.1509    1.1946 N   0  0  0  0  0  0  0  0  0  0  0  0
    4.0812   -1.0089    2.4352 C   0  0  0  0  0  0  0  0  0  0  0  0
    2.3183   -0.1887    0.9596 C   0  0  0  0  0  0  0  0  0  0  0  0
    2.1914    0.7647    1.7360 O   0  0  0  0  0  0  0  0  0  0  0  0
    1.5312   -0.3508   -0.1833 N   0  0  0  0  0  2  0  0  0  0  0  0
    1.8485   -1.2660   -1.1603 C   0  0  0  0  0  0  0  0  0  0  0  0
    1.1988   -1.3278   -2.2577 O   0  0  0  0  0  0  0  0  0  0  0  0
    2.9482   -2.1627   -0.9315 C   0  0  0  0  0  0  0  0  0  0  0  0
    3.6257   -2.0934    0.2544 C   0  0  0  0  0  3  0  0  0  0  0  0
    4.7356   -1.8904    2.5526 H   0  0  0  0  0  0  0  0  0  0  0  0
    4.6932   -0.0862    2.4102 H   0  0  0  0  0  0  0  0  0  0  0  0
    3.3890   -0.9343    3.2939 H   0  0  0  0  0  0  0  0  0  0  0  0
    3.1883   -2.9070   -1.6991 H   0  0  0  0  0  0  0  0  0  0  0  0
    4.4489   -2.7771    0.5076 H   0  0  0  0  0  0  0  0  0  0  0  0
    0.0412   -1.1263   -2.2383 H   0  0  0  0  0  0  0  0  0  0  0  0
  1  2  1  0  0  0  0
  2 10  1  0  0  0  0
  2 12  1  0  0  0  0
  3  1  1  0  0  0  0
  3  4  2  0  0  0  0
  5  3  1  0  0  0  0
  6  8  2  0  0  0  0
  6  5  1  0  0  0  0
  7 15  1  0  0  0  0
  7  6  1  0  0  0  0
  8  9  1  0  0  0  0
  9 14  1  0  0  0  0
  9  1  1  0  0  0  0
 11  2  1  0  0  0  0
 13  8  1  0  0  0  0
M  END
