1
q = 0.0, confidence = 1.0

 41 44  0  0  1  0  0  0  0  0999 V2000
   -2.1782    0.2129   -0.5603 N   0  0  0  0  0  2  0  0  0  0  0  0
   -1.9979    2.4393   -0.7004 N   0  0  0  0  0  0  0  0  0  0  0  0
    0.7639    1.5326   -1.6447 N   0  0  0  0  0  0  0  0  0  0  0  0
    2.1824    3.3101   -0.6200 O   0  0  0  0  0  0  0  0  0  0  0  0
    1.4459    2.7971   -1.1756 H   0  0  0  0  0  0  0  0  0  0  0  0
   -3.0329    0.7745    0.3885 C   0  0  0  0  0  0  0  0  0  0  0  0
   -3.9072    0.1709    1.3099 C   0  0  0  0  0  0  0  0  0  0  0  0
   -4.0007   -0.9257    1.3417 H   0  0  0  0  0  0  0  0  0  0  0  0
   -4.6344    1.0215    2.1497 C   0  0  0  0  0  0  0  0  0  0  0  0
   -5.3271    0.5851    2.8844 H   0  0  0  0  0  0  0  0  0  0  0  0
   -4.5045    2.4301    2.0789 C   0  0  0  0  0  0  0  0  0  0  0  0
   -5.0936    3.0598    2.7622 H   0  0  0  0  0  0  0  0  0  0  0  0
   -3.6435    3.0428    1.1595 C   0  0  0  0  0  0  0  0  0  0  0  0
   -3.5427    4.1363    1.1106 H   0  0  0  0  0  0  0  0  0  0  0  0
   -2.9171    2.1885    0.3156 C   0  0  0  0  0  0  0  0  0  0  0  0
   -1.5818    1.2287   -1.1947 C   0  0  1  0  0  3  0  0  0  0  0  0
   -0.5012    1.0940   -2.2259 C   0  0  0  0  0  0  0  0  0  0  0  0
   -0.4720    0.0299   -2.5473 H   0  0  0  0  0  0  0  0  0  0  0  0
   -0.7400    1.7226   -3.1104 H   0  0  0  0  0  0  0  0  0  0  0  0
    1.5639    0.6180   -1.1569 C   0  0  0  0  0  0  0  0  0  0  0  0
    1.3016   -0.4531   -1.2814 H   0  0  0  0  0  0  0  0  0  0  0  0
    2.7533    0.9803   -0.4285 C   0  0  0  0  0  0  0  0  0  0  0  0
    2.9885    2.3617   -0.1556 C   0  0  0  0  0  0  0  0  0  0  0  0
    4.1081    2.7468    0.6432 C   0  0  0  0  0  0  0  0  0  0  0  0
    4.2522    3.8191    0.8387 H   0  0  0  0  0  0  0  0  0  0  0  0
    4.9686    1.7913    1.1414 C   0  0  0  0  0  0  0  0  0  0  0  0
    5.8298    2.0974    1.7563 H   0  0  0  0  0  0  0  0  0  0  0  0
    4.7844    0.3956    0.8816 C   0  0  0  0  0  0  0  0  0  0  0  0
    5.6853   -0.5759    1.3999 C   0  0  0  0  0  0  0  0  0  0  0  0
    6.5332   -0.2317    2.0128 H   0  0  0  0  0  0  0  0  0  0  0  0
    5.5051   -1.9278    1.1405 C   0  0  0  0  0  0  0  0  0  0  0  0
    6.2076   -2.6713    1.5456 H   0  0  0  0  0  0  0  0  0  0  0  0
    4.4116   -2.3439    0.3419 C   0  0  0  0  0  0  0  0  0  0  0  0
    4.2691   -3.4134    0.1239 H   0  0  0  0  0  0  0  0  0  0  0  0
    3.5145   -1.4180   -0.1814 C   0  0  0  0  0  0  0  0  0  0  0  0
    2.6840   -1.7823   -0.8041 H   0  0  0  0  0  0  0  0  0  0  0  0
    3.6656   -0.0244    0.0772 C   0  0  0  0  0  0  0  0  0  0  0  0
   -1.4743    3.7450   -1.0600 C   0  0  0  0  0  0  0  0  0  0  0  0
   -0.6178    4.0205   -0.4110 H   0  0  0  0  0  0  0  0  0  0  0  0
   -2.2747    4.5018   -0.9600 H   0  0  0  0  0  0  0  0  0  0  0  0
   -1.1282    3.7373   -2.1090 H   0  0  0  0  0  0  0  0  0  0  0  0
  1  6  1  0  0  0  0
  2 15  1  0  0  0  0
  3 20  2  0  0  0  0
  4 23  1  0  0  0  0
  5  4  1  0  0  0  0
  6  7  1  0  0  0  0
  7  8  1  0  0  0  0
  7  9  2  0  0  0  0
  9 10  1  0  0  0  0
 11  9  1  0  0  0  0
 11 12  1  0  0  0  0
 13 11  2  0  0  0  0
 14 13  1  0  0  0  0
 15  6  2  0  0  0  0
 15 13  1  0  0  0  0
 16 17  1  1  0  0  0
 16  2  1  0  0  0  0
 16  1  1  0  0  0  0
 17  3  1  0  0  0  0
 18 17  1  0  0  0  0
 19 17  1  0  0  0  0
 20 22  1  0  0  0  0
 21 20  1  0  0  0  0
 22 23  2  0  0  0  0
 22 37  1  0  0  0  0
 23 24  1  0  0  0  0
 24 25  1  0  0  0  0
 24 26  2  0  0  0  0
 26 27  1  0  0  0  0
 28 26  1  0  0  0  0
 28 29  1  0  0  0  0
 29 30  1  0  0  0  0
 31 29  2  0  0  0  0
 31 32  1  0  0  0  0
 33 31  1  0  0  0  0
 34 33  1  0  0  0  0
 35 37  1  0  0  0  0
 35 33  2  0  0  0  0
 36 35  1  0  0  0  0
 37 28  2  0  0  0  0
 38 40  1  0  0  0  0
 38  2  1  0  0  0  0
 38 39  1  0  0  0  0
 41 38  1  0  0  0  0
M  END
