1
q = 0.0, confidence = 0.984

 48 50  0  0  0  0  0  0  0  0999 V2000
    0.1188    0.9737   -0.0028 N   0  0  0  0  0  2  0  0  0  0  0  0
   -1.0328   -1.0212    0.2695 N   0  0  0  0  0  0  0  0  0  0  0  0
   -0.2200   -1.2911    0.8495 H   0  0  0  0  0  0  0  0  0  0  0  0
   -2.1886    0.9637   -0.3593 N   0  0  0  0  0  0  0  0  0  0  0  0
   -2.0217    1.8638   -0.8194 H   0  0  0  0  0  0  0  0  0  0  0  0
   -1.0307    0.3078   -0.0323 C   0  0  0  0  0  3  0  0  0  0  0  0
    0.1067    2.3969    0.1288 C   0  0  0  0  0  0  0  0  0  0  0  0
    0.5581    3.1993   -0.9383 C   0  0  0  0  0  0  0  0  0  0  0  0
    0.9313    2.6932   -1.8414 H   0  0  0  0  0  0  0  0  0  0  0  0
    0.5519    4.5957   -0.8202 C   0  0  0  0  0  0  0  0  0  0  0  0
    0.9090    5.2146   -1.6571 H   0  0  0  0  0  0  0  0  0  0  0  0
    0.0995    5.1941    0.3653 C   0  0  0  0  0  0  0  0  0  0  0  0
    0.0952    6.2898    0.4687 H   0  0  0  0  0  0  0  0  0  0  0  0
   -0.3358    4.3905    1.4298 C   0  0  0  0  0  0  0  0  0  0  0  0
   -0.6737    4.8613    2.3666 H   0  0  0  0  0  0  0  0  0  0  0  0
   -0.3414    2.9851    1.3449 C   0  0  0  0  0  0  0  0  0  0  0  0
   -0.7990    2.1369    2.5018 C   0  0  0  0  0  0  0  0  0  0  0  0
   -1.8253    1.7436    2.3373 H   0  0  0  0  0  0  0  0  0  0  0  0
   -0.8223    2.7268    3.4379 H   0  0  0  0  0  0  0  0  0  0  0  0
   -0.1322    1.2622    2.6446 H   0  0  0  0  0  0  0  0  0  0  0  0
   -1.8747   -2.0394   -0.2187 C   0  0  0  0  0  0  0  0  0  0  0  0
   -2.5172   -1.9313   -1.4671 C   0  0  0  0  0  0  0  0  0  0  0  0
   -2.3427   -1.0437   -2.0903 H   0  0  0  0  0  0  0  0  0  0  0  0
   -3.3595   -2.9559   -1.9132 C   0  0  0  0  0  0  0  0  0  0  0  0
   -3.8599   -2.8599   -2.8883 H   0  0  0  0  0  0  0  0  0  0  0  0
   -3.5497   -4.1024   -1.1273 C   0  0  0  0  0  0  0  0  0  0  0  0
   -4.2080   -4.9122   -1.4748 H   0  0  0  0  0  0  0  0  0  0  0  0
   -2.8886   -4.2140    0.1047 C   0  0  0  0  0  0  0  0  0  0  0  0
   -3.0312   -5.1143    0.7231 H   0  0  0  0  0  0  0  0  0  0  0  0
   -2.0493   -3.1945    0.5881 C   0  0  0  0  0  0  0  0  0  0  0  0
   -1.3638   -3.3020    1.9250 C   0  0  0  0  0  0  0  0  0  0  0  0
   -1.6165   -4.2547    2.4270 H   0  0  0  0  0  0  0  0  0  0  0  0
   -1.6546   -2.4694    2.6015 H   0  0  0  0  0  0  0  0  0  0  0  0
   -0.2566   -3.2464    1.8428 H   0  0  0  0  0  0  0  0  0  0  0  0
   -3.5215    0.6837    0.0090 C   0  0  0  0  0  0  0  0  0  0  0  0
   -3.8383   -0.0905    1.1428 C   0  0  0  0  0  0  0  0  0  0  0  0
   -3.0322   -0.4876    1.7730 H   0  0  0  0  0  0  0  0  0  0  0  0
   -5.1755   -0.3491    1.4649 C   0  0  0  0  0  0  0  0  0  0  0  0
   -5.4087   -0.9623    2.3480 H   0  0  0  0  0  0  0  0  0  0  0  0
   -6.2063    0.1749    0.6713 C   0  0  0  0  0  0  0  0  0  0  0  0
   -7.2586   -0.0260    0.9204 H   0  0  0  0  0  0  0  0  0  0  0  0
   -5.8857    0.9617   -0.4443 C   0  0  0  0  0  0  0  0  0  0  0  0
   -6.6903    1.3791   -1.0699 H   0  0  0  0  0  0  0  0  0  0  0  0
   -4.5522    1.2281   -0.8022 C   0  0  0  0  0  0  0  0  0  0  0  0
   -4.2134    2.0602   -2.0116 C   0  0  0  0  0  0  0  0  0  0  0  0
   -5.1274    2.3590   -2.5580 H   0  0  0  0  0  0  0  0  0  0  0  0
   -3.5579    1.5088   -2.7192 H   0  0  0  0  0  0  0  0  0  0  0  0
   -3.6771    2.9972   -1.7407 H   0  0  0  0  0  0  0  0  0  0  0  0
  1  7  1  0  0  0  0
  2  3  1  0  0  0  0
  4  6  1  0  0  0  0
  4 35  1  0  0  0  0
  5  4  1  0  0  0  0
  6  1  1  0  0  0  0
  6  2  1  0  0  0  0
  7 16  1  0  0  0  0
  8 10  1  0  0  0  0
  8  7  2  0  0  0  0
  9  8  1  0  0  0  0
 10 12  2  0  0  0  0
 11 10  1  0  0  0  0
 12 13  1  0  0  0  0
 12 14  1  0  0  0  0
 14 15  1  0  0  0  0
 16 14  2  0  0  0  0
 16 17  1  0  0  0  0
 17 20  1  0  0  0  0
 17 19  1  0  0  0  0
 18 17  1  0  0  0  0
 21  2  1  0  0  0  0
 21 30  1  0  0  0  0
 22 21  2  0  0  0  0
 23 22  1  0  0  0  0
 24 22  1  0  0  0  0
 24 26  2  0  0  0  0
 25 24  1  0  0  0  0
 26 28  1  0  0  0  0
 27 26  1  0  0  0  0
 28 30  2  0  0  0  0
 28 29  1  0  0  0  0
 30 31  1  0  0  0  0
 31 32  1  0  0  0  0
 31 33  1  0  0  0  0
 34 31  1  0  0  0  0
 35 36  1  0  0  0  0
 36 38  2  0  0  0  0
 36 37  1  0  0  0  0
 38 39  1  0  0  0  0
 40 41  1  0  0  0  0
 40 38  1  0  0  0  0
 42 40  2  0  0  0  0
 43 42  1  0  0  0  0
 44 42  1  0  0  0  0
 44 35  2  0  0  0  0
 45 48  1  0  0  0  0
 45 44  1  0  0  0  0
 46 45  1  0  0  0  0
 47 45  1  0  0  0  0
M  END
