1
q = 0.0, confidence = 0.998

 51 53  0  0  0  0  0  0  0  0999 V2000
   -0.3345    0.7770   -0.0713 N   0  0  0  0  0  2  0  0  0  0  0  0
   -0.1886   -1.4731   -0.6394 N   0  0  0  0  0  0  0  0  0  0  0  0
    0.4009   -1.1289   -1.4222 H   0  0  0  0  0  0  0  0  0  0  0  0
   -2.0432   -0.6589    0.6162 N   0  0  0  0  0  0  0  0  0  0  0  0
   -2.3624    0.1545    1.1584 H   0  0  0  0  0  0  0  0  0  0  0  0
   -2.5143    1.1101   -1.6575 O   0  0  0  0  0  0  0  0  0  0  0  0
    1.9193   -2.4609   -1.7629 O   0  0  0  0  0  0  0  0  0  0  0  0
   -4.4060    0.2000    1.2161 O   0  0  0  0  0  0  0  0  0  0  0  0
   -0.8634   -0.4383   -0.0329 C   0  0  0  0  0  3  0  0  0  0  0  0
   -1.1583    1.9204    0.0969 C   0  0  0  0  0  0  0  0  0  0  0  0
   -2.2814    2.1045   -0.7657 C   0  0  0  0  0  0  0  0  0  0  0  0
   -3.0721    3.2606   -0.6317 C   0  0  0  0  0  0  0  0  0  0  0  0
   -3.9299    3.4206   -1.2984 H   0  0  0  0  0  0  0  0  0  0  0  0
   -2.7585    4.2228    0.3431 C   0  0  0  0  0  0  0  0  0  0  0  0
   -3.3828    5.1252    0.4274 H   0  0  0  0  0  0  0  0  0  0  0  0
   -1.6647    4.0376    1.1997 C   0  0  0  0  0  0  0  0  0  0  0  0
   -1.4273    4.7840    1.9714 H   0  0  0  0  0  0  0  0  0  0  0  0
   -0.8726    2.8869    1.0739 C   0  0  0  0  0  0  0  0  0  0  0  0
   -0.0371    2.6870    1.7573 H   0  0  0  0  0  0  0  0  0  0  0  0
   -3.6343    1.2026   -2.5163 C   0  0  0  0  0  0  0  0  0  0  0  0
   -4.5869    1.2441   -1.9415 H   0  0  0  0  0  0  0  0  0  0  0  0
   -3.6261    0.2853   -3.1324 H   0  0  0  0  0  0  0  0  0  0  0  0
   -3.5710    2.0913   -3.1820 H   0  0  0  0  0  0  0  0  0  0  0  0
    0.4631   -2.5073    0.0666 C   0  0  0  0  0  0  0  0  0  0  0  0
    1.6517   -3.0021   -0.5483 C   0  0  0  0  0  0  0  0  0  0  0  0
    2.4439   -3.9459    0.1219 C   0  0  0  0  0  0  0  0  0  0  0  0
    3.3749   -4.3021   -0.3403 H   0  0  0  0  0  0  0  0  0  0  0  0
    2.0438   -4.4284    1.3823 C   0  0  0  0  0  0  0  0  0  0  0  0
    2.6663   -5.1741    1.8986 H   0  0  0  0  0  0  0  0  0  0  0  0
    0.8644   -3.9590    1.9762 C   0  0  0  0  0  0  0  0  0  0  0  0
    0.5540   -4.3307    2.9635 H   0  0  0  0  0  0  0  0  0  0  0  0
    0.0739   -2.9961    1.3227 C   0  0  0  0  0  0  0  0  0  0  0  0
   -0.8252   -2.5919    1.8070 H   0  0  0  0  0  0  0  0  0  0  0  0
    3.2625   -2.3902   -2.2278 C   0  0  0  0  0  0  0  0  0  0  0  0
    3.9116   -1.8881   -1.4795 H   0  0  0  0  0  0  0  0  0  0  0  0
    3.2287   -1.7586   -3.1336 H   0  0  0  0  0  0  0  0  0  0  0  0
    3.6609   -3.3967   -2.4820 H   0  0  0  0  0  0  0  0  0  0  0  0
   -3.1106   -1.5001    0.2471 C   0  0  0  0  0  0  0  0  0  0  0  0
   -4.4070   -1.0157    0.5921 C   0  0  0  0  0  0  0  0  0  0  0  0
   -5.5491   -1.7614    0.2707 C   0  0  0  0  0  0  0  0  0  0  0  0
   -6.5476   -1.3879    0.5348 H   0  0  0  0  0  0  0  0  0  0  0  0
   -5.4115   -2.9899   -0.4021 C   0  0  0  0  0  0  0  0  0  0  0  0
   -6.3109   -3.5719   -0.6518 H   0  0  0  0  0  0  0  0  0  0  0  0
   -4.1415   -3.4656   -0.7479 C   0  0  0  0  0  0  0  0  0  0  0  0
   -4.0325   -4.4253   -1.2734 H   0  0  0  0  0  0  0  0  0  0  0  0
   -2.9903   -2.7282   -0.4204 C   0  0  0  0  0  0  0  0  0  0  0  0
   -1.9963   -3.1020   -0.6911 H   0  0  0  0  0  0  0  0  0  0  0  0
   -5.6397    0.8300    1.5067 C   0  0  0  0  0  0  0  0  0  0  0  0
   -6.2456    0.9802    0.5855 H   0  0  0  0  0  0  0  0  0  0  0  0
   -5.3893    1.8156    1.9395 H   0  0  0  0  0  0  0  0  0  0  0  0
   -6.2375    0.2448    2.2400 H   0  0  0  0  0  0  0  0  0  0  0  0
  1  9  1  0  0  0  0
  1 10  1  0  0  0  0
  2  9  1  0  0  0  0
  2 24  1  0  0  0  0
  3  2  1  0  0  0  0
  4  5  1  0  0  0  0
  6 11  1  0  0  0  0
  7 25  1  0  0  0  0
  8 48  1  0  0  0  0
  9  4  1  0  0  0  0
 10 18  1  0  0  0  0
 11 12  1  0  0  0  0
 11 10  2  0  0  0  0
 12 14  2  0  0  0  0
 13 12  1  0  0  0  0
 14 15  1  0  0  0  0
 14 16  1  0  0  0  0
 16 17  1  0  0  0  0
 18 16  2  0  0  0  0
 18 19  1  0  0  0  0
 20 21  1  0  0  0  0
 20  6  1  0  0  0  0
 22 20  1  0  0  0  0
 23 20  1  0  0  0  0
 24 32  1  0  0  0  0
 25 24  2  0  0  0  0
 25 26  1  0  0  0  0
 26 28  2  0  0  0  0
 27 26  1  0  0  0  0
 28 29  1  0  0  0  0
 28 30  1  0  0  0  0
 30 31  1  0  0  0  0
 32 33  1  0  0  0  0
 32 30  2  0  0  0  0
 34  7  1  0  0  0  0
 34 35  1  0  0  0  0
 36 34  1  0  0  0  0
 37 34  1  0  0  0  0
 38 39  1  0  0  0  0
 38  4  1  0  0  0  0
 39  8  1  0  0  0  0
 40 41  1  0  0  0  0
 40 39  2  0  0  0  0
 42 40  1  0  0  0  0
 43 42  1  0  0  0  0
 44 46  1  0  0  0  0
 44 42  2  0  0  0  0
 45 44  1  0  0  0  0
 46 38  2  0  0  0  0
 47 46  1  0  0  0  0
 48 50  1  0  0  0  0
 48 51  1  0  0  0  0
 49 48  1  0  0  0  0
M  END
