2
q = 0, confidence = 1.0

  6  5  0  0  0  0  0  0  0  0999 V2000
   -2.9194   -0.6180   -0.0041 Se  0  0  0  0  0  0  0  0  0  0  0  0
   -1.1251   -0.5856   -0.0089 N   0  0  0  0  0  1  0  0  0  0  0  0
   -3.2116    1.3316    0.0025 C   0  0  0  0  0  0  0  0  0  0  0  0
   -4.3079    1.4899    0.0030 H   0  0  0  0  0  0  0  0  0  0  0  0
   -2.7396    1.7563   -0.9016 H   0  0  0  0  0  0  0  0  0  0  0  0
   -2.7391    1.7502    0.9091 H   0  0  0  0  0  0  0  0  0  0  0  0
  1  3  1  0  0  0  0
  2  1  1  0  0  0  0
  3  4  1  0  0  0  0
  3  6  1  0  0  0  0
  5  3  1  0  0  0  0
M  END
