6
q = 0.0, confidence = 0.998

 54 57  0  0  1  0  0  0  0  0999 V2000
   -0.3176    0.9193    0.0839 P   0  0  0  0  0  0  0  0  0  0  0  0
    1.7376   -0.9988    3.4586 O   0  0  0  0  0  0  0  0  0  0  0  0
    4.6213    0.4863    0.7682 N   0  0  0  0  0  0  0  0  0  0  0  0
    5.0688   -0.6922    0.2785 N   0  0  0  0  0  0  0  0  0  0  0  0
    1.8183   -1.4862   -0.7375 N   0  0  0  0  0  0  0  0  0  0  0  0
    0.5766   -1.6198   -1.2907 N   0  0  0  0  0  2  0  0  0  0  0  0
   -1.5900    2.0981    0.6760 C   0  0  0  0  0  0  0  0  0  0  0  0
   -1.8055    2.3787    2.0411 C   0  0  0  0  0  0  0  0  0  0  0  0
   -1.1638    1.9384    2.8181 H   0  0  0  0  0  0  0  0  0  0  0  0
   -2.8496    3.2371    2.4244 C   0  0  0  0  0  0  0  0  0  0  0  0
   -3.0114    3.4551    3.4907 H   0  0  0  0  0  0  0  0  0  0  0  0
   -3.6780    3.8186    1.4524 C   0  0  0  0  0  0  0  0  0  0  0  0
   -4.4933    4.4920    1.7561 H   0  0  0  0  0  0  0  0  0  0  0  0
   -3.4609    3.5436    0.0914 C   0  0  0  0  0  0  0  0  0  0  0  0
   -4.1072    3.9985   -0.6740 H   0  0  0  0  0  0  0  0  0  0  0  0
   -2.4240    2.6867   -0.3000 C   0  0  0  0  0  0  0  0  0  0  0  0
   -2.2656    2.4529   -1.3638 H   0  0  0  0  0  0  0  0  0  0  0  0
    0.6200    1.9322   -1.1369 C   0  0  0  0  0  0  0  0  0  0  0  0
    1.0597    1.4414   -2.3797 C   0  0  0  0  0  0  0  0  0  0  0  0
    0.7318    0.4557   -2.7267 H   0  0  0  0  0  0  0  0  0  0  0  0
    1.8876    2.2318   -3.1924 C   0  0  0  0  0  0  0  0  0  0  0  0
    2.2253    1.8387   -4.1629 H   0  0  0  0  0  0  0  0  0  0  0  0
    2.2722    3.5161   -2.7793 C   0  0  0  0  0  0  0  0  0  0  0  0
    2.9190    4.1328   -3.4210 H   0  0  0  0  0  0  0  0  0  0  0  0
    1.8122    4.0212   -1.5516 C   0  0  0  0  0  0  0  0  0  0  0  0
    2.0897    5.0368   -1.2317 H   0  0  0  0  0  0  0  0  0  0  0  0
    0.9888    3.2358   -0.7336 C   0  0  0  0  0  0  0  0  0  0  0  0
    0.6216    3.6476    0.2197 H   0  0  0  0  0  0  0  0  0  0  0  0
    0.8669    0.8018    1.5017 C   0  0  0  0  0  0  0  0  0  0  0  0
    1.0884    1.8354    1.8418 H   0  0  0  0  0  0  0  0  0  0  0  0
    0.3060    0.3056    2.3191 H   0  0  0  0  0  0  0  0  0  0  0  0
    2.2031    0.0319    1.3344 C   0  0  2  0  0  0  0  0  0  0  0  0
    3.2412    0.8960    0.5682 C   0  0  0  0  0  0  0  0  0  0  0  0
    3.0158    0.8927   -0.5162 H   0  0  0  0  0  0  0  0  0  0  0  0
    3.1663    1.9475    0.9034 H   0  0  0  0  0  0  0  0  0  0  0  0
    5.5808    1.1419    1.4914 C   0  0  0  0  0  0  0  0  0  0  0  0
    5.3848    2.1175    1.9503 H   0  0  0  0  0  0  0  0  0  0  0  0
    6.7205    0.3431    1.4642 C   0  0  0  0  0  0  0  0  0  0  0  0
    7.6911    0.5555    1.9235 H   0  0  0  0  0  0  0  0  0  0  0  0
    6.3420   -0.7847    0.6952 C   0  0  0  0  0  0  0  0  0  0  0  0
    6.9439   -1.6593    0.4180 H   0  0  0  0  0  0  0  0  0  0  0  0
    2.0548   -1.3768    0.6993 C   0  0  0  0  0  0  0  0  0  0  0  0
    3.0033   -1.9151    0.8779 H   0  0  0  0  0  0  0  0  0  0  0  0
    1.2495   -1.9183    1.2175 H   0  0  0  0  0  0  0  0  0  0  0  0
    2.7819   -1.7593   -1.6670 C   0  0  0  0  0  3  0  0  0  0  0  0
    3.8364   -1.6865   -1.3647 H   0  0  0  0  0  0  0  0  0  0  0  0
    2.1402   -2.0782   -2.8600 C   0  0  0  0  0  0  0  0  0  0  0  0
    2.6060   -2.3474   -3.8125 H   0  0  0  0  0  0  0  0  0  0  0  0
    0.7630   -1.9815   -2.5772 C   0  0  0  0  0  0  0  0  0  0  0  0
   -0.1084   -2.0922   -3.2319 H   0  0  0  0  0  0  0  0  0  0  0  0
    2.7135   -0.2257    2.7744 C   0  0  0  0  0  0  0  0  0  0  0  0
    3.6926   -0.7536    2.7263 H   0  0  0  0  0  0  0  0  0  0  0  0
    2.8887    0.7588    3.2723 H   0  0  0  0  0  0  0  0  0  0  0  0
    2.0753   -1.2015    4.3490 H   0  0  0  0  0  0  0  0  0  0  0  0
  1  7  1  0  0  0  0
  1 29  1  0  0  0  0
  2 54  1  0  0  0  0
  3 36  1  0  0  0  0
  4 40  2  0  0  0  0
  4  3  1  0  0  0  0
  5 42  1  0  0  0  0
  6  5  1  0  0  0  0
  7  8  1  0  0  0  0
  8 10  2  0  0  0  0
  8  9  1  0  0  0  0
 10 11  1  0  0  0  0
 12 13  1  0  0  0  0
 12 10  1  0  0  0  0
 14 12  2  0  0  0  0
 15 14  1  0  0  0  0
 16 14  1  0  0  0  0
 16  7  2  0  0  0  0
 17 16  1  0  0  0  0
 18 27  1  0  0  0  0
 18  1  1  0  0  0  0
 19 18  2  0  0  0  0
 20 19  1  0  0  0  0
 21 23  2  0  0  0  0
 21 19  1  0  0  0  0
 22 21  1  0  0  0  0
 23 25  1  0  0  0  0
 24 23  1  0  0  0  0
 25 26  1  0  0  0  0
 25 27  2  0  0  0  0
 27 28  1  0  0  0  0
 29 30  1  0  0  0  0
 29 31  1  0  0  0  0
 32 33  1  6  0  0  0
 32 29  1  0  0  0  0
 32 51  1  0  0  0  0
 33  3  1  0  0  0  0
 33 35  1  0  0  0  0
 34 33  1  0  0  0  0
 36 37  1  0  0  0  0
 38 36  2  0  0  0  0
 38 39  1  0  0  0  0
 40 38  1  0  0  0  0
 41 40  1  0  0  0  0
 42 43  1  0  0  0  0
 42 44  1  0  0  0  0
 42 32  1  0  0  0  0
 45 46  1  0  0  0  0
 45  5  1  0  0  0  0
 47 49  2  0  0  0  0
 47 45  1  0  0  0  0
 48 47  1  0  0  0  0
 49  6  1  0  0  0  0
 50 49  1  0  0  0  0
 51 53  1  0  0  0  0
 51  2  1  0  0  0  0
 52 51  1  0  0  0  0
M  END
