2
q = -1.0

 28 29  0  0  1  0  0  0  0  0999 V2000
   -1.4383    0.7335    2.3037 O   0  0  0  0  0  0  0  0  0  0  0  0
    1.0430    1.4788    0.9398 N   0  0  0  0  0  0  0  0  0  0  0  0
   -0.2227    1.2091    0.2764 C   0  0  2  0  0  3  0  0  0  0  0  0
   -0.4439    2.3107   -0.7690 C   0  0  0  0  0  0  0  0  0  0  0  0
    0.9598    2.8783   -1.0191 C   0  0  0  0  0  0  0  0  0  0  0  0
    1.6480    2.7006    0.3306 C   0  0  0  0  0  0  0  0  0  0  0  0
   -1.4018    0.7489    1.0657 C   0  0  0  0  0  0  0  0  0  0  0  0
   -2.6208    0.3067    0.2939 C   0  0  0  0  0  0  0  0  0  0  0  0
   -3.8478    0.2949    0.9917 C   0  0  0  0  0  0  0  0  0  0  0  0
   -5.0241   -0.1240    0.3590 C   0  0  0  0  0  0  0  0  0  0  0  0
   -4.9877   -0.5541   -0.9783 C   0  0  0  0  0  0  0  0  0  0  0  0
   -3.7690   -0.5622   -1.6763 C   0  0  0  0  0  0  0  0  0  0  0  0
   -2.5921   -0.1322   -1.0472 C   0  0  0  0  0  0  0  0  0  0  0  0
    1.2468    1.4650    2.4020 C   0  0  0  0  0  0  0  0  0  0  0  0
   -1.1091    3.0934   -0.3379 H   0  0  0  0  0  0  0  0  0  0  0  0
   -0.9278    1.9480   -1.6933 H   0  0  0  0  0  0  0  0  0  0  0  0
    0.9419    3.9410   -1.3283 H   0  0  0  0  0  0  0  0  0  0  0  0
    1.4821    2.3036   -1.8057 H   0  0  0  0  0  0  0  0  0  0  0  0
    1.4116    3.5539    1.0062 H   0  0  0  0  0  0  0  0  0  0  0  0
    2.7482    2.5925    0.2787 H   0  0  0  0  0  0  0  0  0  0  0  0
   -3.8445    0.6191    2.0428 H   0  0  0  0  0  0  0  0  0  0  0  0
   -5.9765   -0.1194    0.9110 H   0  0  0  0  0  0  0  0  0  0  0  0
   -5.9105   -0.8894   -1.4761 H   0  0  0  0  0  0  0  0  0  0  0  0
   -3.7313   -0.9118   -2.7192 H   0  0  0  0  0  0  0  0  0  0  0  0
   -1.6396   -0.1677   -1.5917 H   0  0  0  0  0  0  0  0  0  0  0  0
    0.7274    0.6131    2.8589 H   0  0  0  0  0  0  0  0  0  0  0  0
    0.8471    2.3969    2.8565 H   0  0  0  0  0  0  0  0  0  0  0  0
    2.3374    1.4041    2.5849 H   0  0  0  0  0  0  0  0  0  0  0  0
  2 14  1  0  0  0  0
  3  2  1  0  0  0  0
  3  7  1  1  0  0  0
  4 15  1  0  0  0  0
  4  3  1  0  0  0  0
  5  4  1  0  0  0  0
  5  6  1  0  0  0  0
  6  2  1  0  0  0  0
  6 19  1  0  0  0  0
  7  1  2  0  0  0  0
  8  9  1  0  0  0  0
  8  7  1  0  0  0  0
  9 21  1  0  0  0  0
 10 22  1  0  0  0  0
 10  9  2  0  0  0  0
 11 10  1  0  0  0  0
 12 13  1  0  0  0  0
 12 11  2  0  0  0  0
 13  8  2  0  0  0  0
 14 28  1  0  0  0  0
 14 27  1  0  0  0  0
 14 26  1  0  0  0  0
 16  4  1  0  0  0  0
 17  5  1  0  0  0  0
 18  5  1  0  0  0  0
 20  6  1  0  0  0  0
 23 11  1  0  0  0  0
 24 12  1  0  0  0  0
 25 13  1  0  0  0  0
M  END
