2
q = 0.0, confidence = 0.99

 36 38  0  0  0  0  0  0  0  0999 V2000
   -1.0878    0.2304   -0.0031 P   0  0  0  0  0  0  0  0  0  0  0  0
    0.5748   -0.5503    2.2688 N   0  0  0  0  0  0  0  0  0  0  0  0
   -0.6897    2.4952   -1.5675 C   0  0  0  0  0  0  0  0  0  0  0  0
    0.1067    1.8967   -2.0348 H   0  0  0  0  0  0  0  0  0  0  0  0
   -1.4249    1.9648   -0.4862 C   0  0  0  0  0  0  0  0  0  0  0  0
   -2.3922    2.7598    0.1563 C   0  0  0  0  0  0  0  0  0  0  0  0
   -2.9476    2.3773    1.0235 H   0  0  0  0  0  0  0  0  0  0  0  0
   -2.6355    4.0656   -0.2968 C   0  0  0  0  0  0  0  0  0  0  0  0
   -3.3868    4.6854    0.2146 H   0  0  0  0  0  0  0  0  0  0  0  0
   -1.9223    4.5811   -1.3893 C   0  0  0  0  0  0  0  0  0  0  0  0
   -2.1171    5.6053   -1.7404 H   0  0  0  0  0  0  0  0  0  0  0  0
   -0.9469    3.7945   -2.0232 C   0  0  0  0  0  0  0  0  0  0  0  0
   -0.3702    4.2022   -2.8667 H   0  0  0  0  0  0  0  0  0  0  0  0
   -1.7646   -0.0810    1.6702 C   0  0  0  0  0  0  0  0  0  0  0  0
   -3.1312   -0.0123    2.0099 C   0  0  0  0  0  0  0  0  0  0  0  0
   -3.8715    0.2754    1.2489 H   0  0  0  0  0  0  0  0  0  0  0  0
   -3.5521   -0.3536    3.3024 C   0  0  0  0  0  0  0  0  0  0  0  0
   -4.6196   -0.3033    3.5619 H   0  0  0  0  0  0  0  0  0  0  0  0
   -2.6140   -0.7771    4.2586 C   0  0  0  0  0  0  0  0  0  0  0  0
   -2.9437   -1.0540    5.2706 H   0  0  0  0  0  0  0  0  0  0  0  0
   -1.2533   -0.8559    3.9280 C   0  0  0  0  0  0  0  0  0  0  0  0
   -0.5177   -1.1858    4.6780 H   0  0  0  0  0  0  0  0  0  0  0  0
   -0.8346   -0.5080    2.6347 C   0  0  0  0  0  0  0  0  0  0  0  0
   -2.1658   -0.7761   -1.1002 C   0  0  0  0  0  0  0  0  0  0  0  0
   -2.7620   -1.9609   -0.6178 C   0  0  0  0  0  0  0  0  0  0  0  0
   -2.6273   -2.2609    0.4319 H   0  0  0  0  0  0  0  0  0  0  0  0
   -3.6987   -2.3978   -2.8206 C   0  0  0  0  0  0  0  0  0  0  0  0
   -4.3016   -3.0278   -3.4913 H   0  0  0  0  0  0  0  0  0  0  0  0
   -2.3454   -0.4082   -2.4506 C   0  0  0  0  0  0  0  0  0  0  0  0
   -1.9133    0.5290   -2.8323 H   0  0  0  0  0  0  0  0  0  0  0  0
   -3.5312   -2.7614   -1.4747 C   0  0  0  0  0  0  0  0  0  0  0  0
   -4.0023   -3.6773   -1.0876 H   0  0  0  0  0  0  0  0  0  0  0  0
   -3.1041   -1.2217   -3.3059 C   0  0  0  0  0  0  0  0  0  0  0  0
   -3.2440   -0.9248   -4.3561 H   0  0  0  0  0  0  0  0  0  0  0  0
    1.0247    0.3453    2.5687 H   0  0  0  0  0  0  0  0  0  0  0  0
    1.0512   -1.3196    2.7601 H   0  0  0  0  0  0  0  0  0  0  0  0
  1 14  1  0  0  0  0
  2 35  1  0  0  0  0
  2 23  1  0  0  0  0
  2 36  1  0  0  0  0
  3  5  1  0  0  0  0
  4  3  1  0  0  0  0
  5  1  1  0  0  0  0
  5  6  2  0  0  0  0
  6  7  1  0  0  0  0
  8  6  1  0  0  0  0
  8  9  1  0  0  0  0
 10  8  2  0  0  0  0
 11 10  1  0  0  0  0
 12  3  2  0  0  0  0
 12 10  1  0  0  0  0
 13 12  1  0  0  0  0
 14 15  2  0  0  0  0
 14 23  1  0  0  0  0
 15 17  1  0  0  0  0
 16 15  1  0  0  0  0
 17 18  1  0  0  0  0
 17 19  2  0  0  0  0
 19 20  1  0  0  0  0
 21 19  1  0  0  0  0
 21 22  1  0  0  0  0
 23 21  2  0  0  0  0
 24 25  1  0  0  0  0
 24  1  1  0  0  0  0
 25 26  1  0  0  0  0
 27 31  1  0  0  0  0
 28 27  1  0  0  0  0
 29 24  2  0  0  0  0
 30 29  1  0  0  0  0
 31 32  1  0  0  0  0
 31 25  2  0  0  0  0
 33 27  2  0  0  0  0
 33 29  1  0  0  0  0
 34 33  1  0  0  0  0
M  END
