7
q = -1.0

 35 37  0  0  0  0  0  0  0  0999 V2000
   -0.9066    0.7866    0.1661 P   0  0  0  0  0  0  0  0  0  0  0  0
    1.6423   -2.6625   -0.6813 F   0  0  0  0  0  0  0  0  0  0  0  0
    4.3376   -2.6712   -0.8082 F   0  0  0  0  0  0  0  0  0  0  0  0
    5.7468   -0.3136   -0.9150 F   0  0  0  0  0  0  0  0  0  0  0  0
    4.3811    2.0749   -0.8710 F   0  0  0  0  0  0  0  0  0  0  0  0
    1.6729    2.1061   -0.7547 F   0  0  0  0  0  0  0  0  0  0  0  0
    0.1731   -0.2730   -0.5455 N   0  0  0  0  0  2  0  0  0  0  0  0
   -1.6596    1.8878   -1.0736 C   0  0  0  0  0  0  0  0  0  0  0  0
   -1.1358    1.9504   -2.3793 C   0  0  0  0  0  0  0  0  0  0  0  0
   -1.7702    2.7451   -3.3456 C   0  0  0  0  0  0  0  0  0  0  0  0
   -2.9228    3.4760   -3.0147 C   0  0  0  0  0  0  0  0  0  0  0  0
   -3.4479    3.4101   -1.7130 C   0  0  0  0  0  0  0  0  0  0  0  0
   -2.8232    2.6135   -0.7428 C   0  0  0  0  0  0  0  0  0  0  0  0
   -0.2172    1.8263    1.4963 C   0  0  0  0  0  0  0  0  0  0  0  0
    0.3181    1.1881    2.6345 C   0  0  0  0  0  0  0  0  0  0  0  0
    0.9019    1.9530    3.6533 C   0  0  0  0  0  0  0  0  0  0  0  0
    0.9370    3.3533    3.5531 C   0  0  0  0  0  0  0  0  0  0  0  0
    0.3976    3.9898    2.4236 C   0  0  0  0  0  0  0  0  0  0  0  0
   -0.1723    3.2319    1.3914 C   0  0  0  0  0  0  0  0  0  0  0  0
    1.5512   -0.2727   -0.6018 C   0  0  0  0  0  0  0  0  0  0  0  0
    2.2880   -1.4835   -0.6850 C   0  0  0  0  0  0  0  0  0  0  0  0
    3.6885   -1.5024   -0.7601 C   0  0  0  0  0  0  0  0  0  0  0  0
    4.4113   -0.2999   -0.8315 C   0  0  0  0  0  0  0  0  0  0  0  0
    3.7124    0.9183   -0.7905 C   0  0  0  0  0  0  0  0  0  0  0  0
    2.3136    0.9199   -0.7157 C   0  0  0  0  0  0  0  0  0  0  0  0
   -0.2340    1.3721   -2.6269 H   0  0  0  0  0  0  0  0  0  0  0  0
   -1.3580    2.7967   -4.3648 H   0  0  0  0  0  0  0  0  0  0  0  0
   -3.4168    4.0990   -3.7755 H   0  0  0  0  0  0  0  0  0  0  0  0
   -4.3536    3.9786   -1.4530 H   0  0  0  0  0  0  0  0  0  0  0  0
   -3.2415    2.5540    0.2747 H   0  0  0  0  0  0  0  0  0  0  0  0
    0.2755    0.0922    2.7153 H   0  0  0  0  0  0  0  0  0  0  0  0
    1.3238    1.4495    4.5359 H   0  0  0  0  0  0  0  0  0  0  0  0
    1.3865    3.9520    4.3598 H   0  0  0  0  0  0  0  0  0  0  0  0
    0.4285    5.0866    2.3398 H   0  0  0  0  0  0  0  0  0  0  0  0
   -0.5719    3.7319    0.4972 H   0  0  0  0  0  0  0  0  0  0  0  0
  1 14  1  0  0  0  0
  3 22  1  0  0  0  0
  4 23  1  0  0  0  0
  5 24  1  0  0  0  0
  6 25  1  0  0  0  0
  7  1  1  0  0  0  0
  8 13  1  0  0  0  0
  8  1  1  0  0  0  0
  9  8  2  0  0  0  0
 10 11  2  0  0  0  0
 10  9  1  0  0  0  0
 11 12  1  0  0  0  0
 12 29  1  0  0  0  0
 12 13  2  0  0  0  0
 13 30  1  0  0  0  0
 14 15  1  0  0  0  0
 15 31  1  0  0  0  0
 15 16  2  0  0  0  0
 16 32  1  0  0  0  0
 17 16  1  0  0  0  0
 17 33  1  0  0  0  0
 18 17  2  0  0  0  0
 19 14  2  0  0  0  0
 19 18  1  0  0  0  0
 20  7  1  0  0  0  0
 21  2  1  0  0  0  0
 21 20  1  0  0  0  0
 22 21  2  0  0  0  0
 23 24  2  0  0  0  0
 23 22  1  0  0  0  0
 24 25  1  0  0  0  0
 25 20  2  0  0  0  0
 26  9  1  0  0  0  0
 27 10  1  0  0  0  0
 28 11  1  0  0  0  0
 34 18  1  0  0  0  0
 35 19  1  0  0  0  0
M  END
