2
q = -1.0, confidence = 0.0

 20 21  0  0  0  0  0  0  0  0999 V2000
    8.1440    0.9506   -0.5071 O   0  0  0  0  0  0  0  0  0  0  0  0
    0.7418   -0.8244    0.6269 N   0  0  0  0  0  2  0  0  0  0  0  0
    1.2072   -1.7096    1.5151 N   0  0  0  0  0  2  0  0  0  0  0  0
    2.5277   -1.6115    1.5200 N   0  0  0  0  0  0  0  0  0  0  0  0
    1.7192   -0.1330    0.0440 N   0  0  0  0  0  2  0  0  0  0  0  0
    2.8331   -0.6389    0.6175 C   0  0  0  0  0  0  0  0  0  0  0  0
    4.1968   -0.2034    0.3062 C   0  0  0  0  0  0  0  0  0  0  0  0
    5.3033   -0.7986    0.9563 C   0  0  0  0  0  0  0  0  0  0  0  0
    6.6044   -0.3929    0.6642 C   0  0  0  0  0  0  0  0  0  0  0  0
    6.8379    0.6232   -0.2893 C   0  0  0  0  0  0  0  0  0  0  0  0
    5.7427    1.2252   -0.9435 C   0  0  0  0  0  0  0  0  0  0  0  0
    4.4380    0.8094   -0.6419 C   0  0  0  0  0  0  0  0  0  0  0  0
    8.4321    1.9626   -1.4497 C   0  0  0  0  0  0  0  0  0  0  0  0
    5.1140   -1.5882    1.6980 H   0  0  0  0  0  0  0  0  0  0  0  0
    7.4728   -0.8472    1.1630 H   0  0  0  0  0  0  0  0  0  0  0  0
    5.8949    2.0182   -1.6879 H   0  0  0  0  0  0  0  0  0  0  0  0
    3.5798    1.2758   -1.1477 H   0  0  0  0  0  0  0  0  0  0  0  0
    9.5329    2.0691   -1.4710 H   0  0  0  0  0  0  0  0  0  0  0  0
    8.0762    1.6960   -2.4710 H   0  0  0  0  0  0  0  0  0  0  0  0
    7.9811    2.9402   -1.1642 H   0  0  0  0  0  0  0  0  0  0  0  0
  1 10  1  0  0  0  0
  2  3  1  0  0  0  0
  3  4  1  0  0  0  0
  5  6  1  0  0  0  0
  5  2  1  0  0  0  0
  6  4  2  0  0  0  0
  7  6  1  0  0  0  0
  7  8  1  0  0  0  0
  8 14  1  0  0  0  0
  9  8  2  0  0  0  0
  9 15  1  0  0  0  0
 10  9  1  0  0  0  0
 11 12  1  0  0  0  0
 11 10  2  0  0  0  0
 12  7  2  0  0  0  0
 13 20  1  0  0  0  0
 13  1  1  0  0  0  0
 16 11  1  0  0  0  0
 17 12  1  0  0  0  0
 18 13  1  0  0  0  0
 19 13  1  0  0  0  0
M  END
