4
q = 0.0, confidence = 1.0

 33 36  0  0  0  0  0  0  0  0999 V2000
   -0.2551   -1.4126   -1.6514 N   0  0  0  0  0  0  0  0  0  0  0  0
    1.6253   -0.3057   -1.3229 N   0  0  0  0  0  0  0  0  0  0  0  0
    2.5274    0.6710   -1.1648 N   0  0  0  0  0  2  0  0  0  0  0  0
    0.6884   -2.3172   -1.2973 N   0  0  0  0  0  2  0  0  0  0  0  0
    3.1220   -2.0775   -0.6529 C   0  0  0  0  0  0  0  0  0  0  0  0
    3.2765   -3.1450   -0.4245 H   0  0  0  0  0  0  0  0  0  0  0  0
    3.7281    0.2954   -0.7322 C   0  0  0  0  0  0  0  0  0  0  0  0
    1.8402   -1.6653   -1.0848 C   0  0  0  0  0  0  0  0  0  0  0  0
    4.0608   -1.0832   -0.4761 C   0  0  0  0  0  0  0  0  0  0  0  0
    5.0744   -1.3423   -0.1453 H   0  0  0  0  0  0  0  0  0  0  0  0
    4.6952    1.3956   -0.4933 C   0  0  0  0  0  0  0  0  0  0  0  0
    4.4706    2.6706   -1.0601 C   0  0  0  0  0  0  0  0  0  0  0  0
    3.5986    2.8121   -1.7134 H   0  0  0  0  0  0  0  0  0  0  0  0
    5.3437    3.7310   -0.7962 C   0  0  0  0  0  0  0  0  0  0  0  0
    5.1574    4.7161   -1.2500 H   0  0  0  0  0  0  0  0  0  0  0  0
   -0.4833    1.0319   -1.9205 C   0  0  0  0  0  0  0  0  0  0  0  0
    5.8193    1.2135    0.3417 C   0  0  0  0  0  0  0  0  0  0  0  0
    6.0070    0.2403    0.8174 H   0  0  0  0  0  0  0  0  0  0  0  0
    0.2818   -0.1892   -1.6671 C   0  0  0  0  0  0  0  0  0  0  0  0
   -1.8181    0.8839   -2.3730 C   0  0  0  0  0  0  0  0  0  0  0  0
   -2.2045   -0.1302   -2.5491 H   0  0  0  0  0  0  0  0  0  0  0  0
    6.4564    3.5411    0.0413 C   0  0  0  0  0  0  0  0  0  0  0  0
    7.1421    4.3762    0.2493 H   0  0  0  0  0  0  0  0  0  0  0  0
    6.6903    2.2793    0.6087 C   0  0  0  0  0  0  0  0  0  0  0  0
    7.5560    2.1216    1.2692 H   0  0  0  0  0  0  0  0  0  0  0  0
    0.0246    2.3274   -1.6746 C   0  0  0  0  0  0  0  0  0  0  0  0
    1.0501    2.4448   -1.3039 H   0  0  0  0  0  0  0  0  0  0  0  0
   -0.7917    3.4486   -1.8843 C   0  0  0  0  0  0  0  0  0  0  0  0
   -0.3879    4.4525   -1.6834 H   0  0  0  0  0  0  0  0  0  0  0  0
   -2.1104    3.2971   -2.3373 C   0  0  0  0  0  0  0  0  0  0  0  0
   -2.7471    4.1804   -2.4980 H   0  0  0  0  0  0  0  0  0  0  0  0
   -2.6211    2.0087   -2.5779 C   0  0  0  0  0  0  0  0  0  0  0  0
   -3.6582    1.8827   -2.9229 H   0  0  0  0  0  0  0  0  0  0  0  0
  1  4  1  0  0  0  0
  2  3  1  0  0  0  0
  2  8  1  0  0  0  0
  3  7  1  0  0  0  0
  4  8  1  0  0  0  0
  5  9  1  0  0  0  0
  5  6  1  0  0  0  0
  7 11  1  0  0  0  0
  7  9  2  0  0  0  0
  8  5  2  0  0  0  0
  9 10  1  0  0  0  0
 11 17  1  0  0  0  0
 12 14  1  0  0  0  0
 12 11  2  0  0  0  0
 13 12  1  0  0  0  0
 14 22  2  0  0  0  0
 15 14  1  0  0  0  0
 16 26  1  0  0  0  0
 16 19  1  0  0  0  0
 17 24  2  0  0  0  0
 17 18  1  0  0  0  0
 19  1  2  0  0  0  0
 19  2  1  0  0  0  0
 20 16  2  0  0  0  0
 21 20  1  0  0  0  0
 22 23  1  0  0  0  0
 22 24  1  0  0  0  0
 24 25  1  0  0  0  0
 26 27  1  0  0  0  0
 28 29  1  0  0  0  0
 28 26  2  0  0  0  0
 30 28  1  0  0  0  0
 31 30  1  0  0  0  0
 32 20  1  0  0  0  0
 32 30  2  0  0  0  0
 33 32  1  0  0  0  0
M  END
