11
q = -1.0, confidence = 0.008

 36 37  0  0  1  0  0  0  0  0999 V2000
   -2.2479    3.8716   -1.1667 F   0  0  0  0  0  0  0  0  0  0  0  0
   -0.6412    3.9424   -2.6382 F   0  0  0  0  0  0  0  0  0  0  0  0
   -0.1675    3.7711   -0.5108 F   0  0  0  0  0  0  0  0  0  0  0  0
    3.3573   -2.2649   -0.9938 O   0  0  0  0  0  0  0  0  0  0  0  0
    1.8726    2.2113   -2.3995 O   0  0  0  0  0  0  0  0  0  0  0  0
    5.4151   -1.5020   -1.5555 O   0  0  0  0  0  0  0  0  0  0  0  0
    2.1696    0.0309   -1.7296 N   0  0  0  0  0  0  0  0  0  0  0  0
    1.6966   -0.8224   -1.4087 H   0  0  0  0  0  0  0  0  0  0  0  0
   -0.5614   -0.3015   -1.5181 N   0  0  0  0  0  0  0  0  0  0  0  0
   -1.0777    1.8642   -1.5603 C   0  0  0  0  0  0  0  0  0  0  0  0
   -1.8459   -0.1035   -1.2310 N   0  0  0  0  0  2  0  0  0  0  0  0
   -2.1983    1.1846   -1.2500 N   0  0  0  0  0  0  0  0  0  0  0  0
   -0.0357    0.9258   -1.7360 C   0  0  0  0  0  0  0  0  0  0  0  0
    3.9394    1.2120    0.4073 C   0  0  0  0  0  0  0  0  0  0  0  0
   -1.0393    3.3611   -1.4932 C   0  0  0  0  0  0  0  0  0  0  0  0
    1.4076    1.1338   -2.0108 C   0  0  0  0  0  0  0  0  0  0  0  0
    4.0798   -1.3771   -1.4159 C   0  0  0  0  0  0  0  0  0  0  0  0
    3.6043    0.0056   -1.8467 C   0  0  2  0  0  0  0  0  0  0  0  0
    3.9172    0.1372   -2.9098 H   0  0  0  0  0  0  0  0  0  0  0  0
    2.9090    2.0795    0.8289 C   0  0  0  0  0  0  0  0  0  0  0  0
    2.3824    2.6941    0.0826 H   0  0  0  0  0  0  0  0  0  0  0  0
    3.2338    1.3954    3.1466 C   0  0  0  0  0  0  0  0  0  0  0  0
    2.9749    1.4829    4.2132 H   0  0  0  0  0  0  0  0  0  0  0  0
    5.9686   -2.7674   -1.1687 C   0  0  0  0  0  0  0  0  0  0  0  0
    5.4405   -3.5996   -1.6743 H   0  0  0  0  0  0  0  0  0  0  0  0
    7.0311   -2.7400   -1.4672 H   0  0  0  0  0  0  0  0  0  0  0  0
    5.8851   -2.9100   -0.0717 H   0  0  0  0  0  0  0  0  0  0  0  0
    4.2496    0.5161    2.7358 C   0  0  0  0  0  0  0  0  0  0  0  0
    4.7897   -0.0888    3.4806 H   0  0  0  0  0  0  0  0  0  0  0  0
    4.3251    1.1373   -1.0497 C   0  0  0  0  0  0  0  0  0  0  0  0
    4.0546    2.0812   -1.5572 H   0  0  0  0  0  0  0  0  0  0  0  0
    5.4147    0.9736   -1.1607 H   0  0  0  0  0  0  0  0  0  0  0  0
    4.5991    0.4305    1.3791 C   0  0  0  0  0  0  0  0  0  0  0  0
    5.4162   -0.2396    1.0668 H   0  0  0  0  0  0  0  0  0  0  0  0
    2.5701    2.1783    2.1872 C   0  0  0  0  0  0  0  0  0  0  0  0
    1.7926    2.8929    2.4976 H   0  0  0  0  0  0  0  0  0  0  0  0
  2 15  1  0  0  0  0
  5 16  2  0  0  0  0
  6 17  1  0  0  0  0
  6 24  1  0  0  0  0
  7  8  1  0  0  0  0
  9 11  1  0  0  0  0
 10 15  1  0  0  0  0
 10 12  2  0  0  0  0
 12 11  1  0  0  0  0
 13 10  1  0  0  0  0
 13  9  2  0  0  0  0
 14 20  2  0  0  0  0
 14 33  1  0  0  0  0
 15  1  1  0  0  0  0
 15  3  1  0  0  0  0
 16 13  1  0  0  0  0
 16  7  1  0  0  0  0
 17  4  2  0  0  0  0
 18 19  1  6  0  0  0
 18  7  1  0  0  0  0
 18 17  1  0  0  0  0
 18 30  1  0  0  0  0
 20 35  1  0  0  0  0
 21 20  1  0  0  0  0
 22 23  1  0  0  0  0
 24 27  1  0  0  0  0
 25 24  1  0  0  0  0
 26 24  1  0  0  0  0
 28 22  1  0  0  0  0
 28 29  1  0  0  0  0
 30 14  1  0  0  0  0
 31 30  1  0  0  0  0
 32 30  1  0  0  0  0
 33 28  2  0  0  0  0
 34 33  1  0  0  0  0
 35 36  1  0  0  0  0
 35 22  2  0  0  0  0
M  END
