6
q = 0.0, confidence = 0.992

 25 26  0  0  0  0  0  0  0  0999 V2000
    5.5581    1.8768    1.4379 S   0  0  0  0  0  0  0  0  0  0  0  0
    4.0426    1.9481   -1.2941 S   0  0  0  0  0  0  0  0  0  0  0  0
    4.4785    2.7694    0.2774 C   0  0  0  0  0  0  0  0  0  0  0  0
    4.9360    3.7313   -0.0285 H   0  0  0  0  0  0  0  0  0  0  0  0
    3.5644    3.0086    0.8564 H   0  0  0  0  0  0  0  0  0  0  0  0
    1.3424   -1.5845   -0.2752 N   0  0  0  0  0  2  0  0  0  0  0  0
    3.0193    0.5990   -0.8105 C   0  0  0  0  0  0  0  0  0  0  0  0
    7.1130    1.7899    0.5971 C   0  0  0  0  0  0  0  0  0  0  0  0
    1.7530   -1.3346   -1.5361 C   0  0  0  0  0  3  0  0  0  0  0  0
    1.4006   -2.0558   -2.2947 H   0  0  0  0  0  0  0  0  0  0  0  0
    2.5967    0.3148    0.5059 C   0  0  0  0  0  0  0  0  0  0  0  0
    2.9172    0.9131    1.3675 H   0  0  0  0  0  0  0  0  0  0  0  0
    1.7628   -0.7856    0.7229 C   0  0  0  0  0  0  0  0  0  0  0  0
    1.4184   -1.0770    1.7313 H   0  0  0  0  0  0  0  0  0  0  0  0
    9.6963    1.5555   -0.5460 N   0  0  0  0  0  0  0  0  0  0  0  0
    7.4284    2.4234   -0.6202 C   0  0  0  0  0  0  0  0  0  0  0  0
    6.6972    3.0208   -1.1804 H   0  0  0  0  0  0  0  0  0  0  0  0
    2.5860   -0.2616   -1.8472 C   0  0  0  0  0  0  0  0  0  0  0  0
    2.9038   -0.0965   -2.8873 H   0  0  0  0  0  0  0  0  0  0  0  0
    8.7260    2.2679   -1.1355 C   0  0  0  0  0  0  0  0  0  0  0  0
    8.9856    2.7575   -2.0917 H   0  0  0  0  0  0  0  0  0  0  0  0
    9.3828    0.9546    0.6146 C   0  0  0  0  0  0  0  0  0  0  0  0
   10.1834    0.3655    1.0967 H   0  0  0  0  0  0  0  0  0  0  0  0
    8.1243    1.0307    1.2246 C   0  0  0  0  0  0  0  0  0  0  0  0
    7.9312    0.5058    2.1727 H   0  0  0  0  0  0  0  0  0  0  0  0
  2  7  1  0  0  0  0
  2  3  1  0  0  0  0
  3  5  1  0  0  0  0
  3  1  1  0  0  0  0
  4  3  1  0  0  0  0
  6 13  1  0  0  0  0
  7 11  1  0  0  0  0
  8 24  1  0  0  0  0
  8  1  1  0  0  0  0
  9  6  1  0  0  0  0
 10  9  1  0  0  0  0
 11 13  2  0  0  0  0
 11 12  1  0  0  0  0
 13 14  1  0  0  0  0
 15 22  1  0  0  0  0
 16  8  2  0  0  0  0
 17 16  1  0  0  0  0
 18  9  1  0  0  0  0
 18  7  2  0  0  0  0
 19 18  1  0  0  0  0
 20 16  1  0  0  0  0
 20 15  2  0  0  0  0
 21 20  1  0  0  0  0
 22 23  1  0  0  0  0
 22 24  2  0  0  0  0
 24 25  1  0  0  0  0
M  END
