1
q = 0.0, confidence = 0.99

 39 42  0  0  1  0  0  0  0  0999 V2000
    0.1056    0.4977   -0.0035 N   0  0  0  0  0  2  0  0  0  0  0  0
    2.3437    2.2501   -0.0863 N   0  0  0  0  0  0  0  0  0  0  0  0
    3.5472   -0.4517   -1.7893 C   0  0  0  0  0  0  0  0  0  0  0  0
    3.4172    0.3862   -2.5015 H   0  0  0  0  0  0  0  0  0  0  0  0
    4.4757   -0.9820   -2.0795 H   0  0  0  0  0  0  0  0  0  0  0  0
    1.3388    0.0433   -0.0942 C   0  0  0  0  0  0  0  0  0  0  0  0
    2.4585    0.9458   -0.1427 C   0  0  0  0  0  0  0  0  0  0  0  0
   -1.5785    3.7950    0.2739 C   0  0  0  0  0  0  0  0  0  0  0  0
   -0.4341    4.6470    0.2385 C   0  0  0  0  0  0  0  0  0  0  0  0
   -0.5804    5.7365    0.3027 H   0  0  0  0  0  0  0  0  0  0  0  0
   -1.3899    2.4157    0.1929 C   0  0  0  0  0  0  0  0  0  0  0  0
   -2.2533    1.7338    0.2105 H   0  0  0  0  0  0  0  0  0  0  0  0
    1.8762   -1.3446   -0.2437 C   0  0  1  0  0  0  0  0  0  0  0  0
    1.2010   -2.1519    0.0937 H   0  0  0  0  0  0  0  0  0  0  0  0
    3.6908    0.0808   -0.3186 C   0  0  2  0  0  0  0  0  0  0  0  0
    1.0639    2.7326    0.0356 C   0  0  0  0  0  0  0  0  0  0  0  0
    2.3209   -1.4079   -1.7409 C   0  0  0  0  0  0  0  0  0  0  0  0
    2.5909   -2.4491   -2.0015 H   0  0  0  0  0  0  0  0  0  0  0  0
    1.4937   -1.1072   -2.4128 H   0  0  0  0  0  0  0  0  0  0  0  0
   -0.0928    1.8669    0.0755 C   0  0  1  0  0  3  0  0  0  0  0  0
    5.0108    0.7480    0.0108 C   0  0  0  0  0  0  0  0  0  0  0  0
    5.1546    1.6505   -0.6159 H   0  0  0  0  0  0  0  0  0  0  0  0
    5.8611    0.0613   -0.1705 H   0  0  0  0  0  0  0  0  0  0  0  0
    5.0421    1.0754    1.0689 H   0  0  0  0  0  0  0  0  0  0  0  0
    0.8478    4.1342    0.1232 C   0  0  0  0  0  0  0  0  0  0  0  0
    1.7353    4.7821    0.0931 H   0  0  0  0  0  0  0  0  0  0  0  0
    3.2409   -1.1912    0.5194 C   0  0  0  0  0  0  0  0  0  0  0  0
   -2.9555    4.3890    0.3932 C   0  0  0  0  0  0  0  0  0  0  0  0
   -3.7395    3.6094    0.4171 H   0  0  0  0  0  0  0  0  0  0  0  0
   -3.1684    5.0663   -0.4600 H   0  0  0  0  0  0  0  0  0  0  0  0
   -3.0451    4.9994    1.3159 H   0  0  0  0  0  0  0  0  0  0  0  0
    4.1663   -2.4018    0.3666 C   0  0  0  0  0  0  0  0  0  0  0  0
    5.1400   -2.2025    0.8577 H   0  0  0  0  0  0  0  0  0  0  0  0
    4.3719   -2.6801   -0.6836 H   0  0  0  0  0  0  0  0  0  0  0  0
    3.7195   -3.2844    0.8671 H   0  0  0  0  0  0  0  0  0  0  0  0
    3.0479   -0.9059    2.0153 C   0  0  0  0  0  0  0  0  0  0  0  0
    2.5756   -1.7755    2.5137 H   0  0  0  0  0  0  0  0  0  0  0  0
    2.3924   -0.0341    2.2110 H   0  0  0  0  0  0  0  0  0  0  0  0
    4.0228   -0.7161    2.5077 H   0  0  0  0  0  0  0  0  0  0  0  0
  2 16  2  0  0  0  0
  3 17  1  0  0  0  0
  3 15  1  0  0  0  0
  4  3  1  0  0  0  0
  5  3  1  0  0  0  0
  6  1  1  0  0  0  0
  7  6  2  0  0  0  0
  7  2  1  0  0  0  0
  8 28  1  0  0  0  0
  9  8  1  0  0  0  0
  9 10  1  0  0  0  0
 11 12  1  0  0  0  0
 11  8  2  0  0  0  0
 13  6  1  0  0  0  0
 13 14  1  1  0  0  0
 13 27  1  0  0  0  0
 15  7  1  0  0  0  0
 15 21  1  1  0  0  0
 15 27  1  0  0  0  0
 16 20  1  0  0  0  0
 16 25  1  0  0  0  0
 17 13  1  0  0  0  0
 18 17  1  0  0  0  0
 19 17  1  0  0  0  0
 20  1  1  1  0  0  0
 20 11  1  0  0  0  0
 21 24  1  0  0  0  0
 22 21  1  0  0  0  0
 23 21  1  0  0  0  0
 25  9  2  0  0  0  0
 26 25  1  0  0  0  0
 27 36  1  0  0  0  0
 28 29  1  0  0  0  0
 28 31  1  0  0  0  0
 30 28  1  0  0  0  0
 32 27  1  0  0  0  0
 32 33  1  0  0  0  0
 32 35  1  0  0  0  0
 34 32  1  0  0  0  0
 36 38  1  0  0  0  0
 36 39  1  0  0  0  0
 36 37  1  0  0  0  0
M  END
