4
q = 0.0, confidence = 1.0

 60 63  0  0  1  0  0  0  0  0999 V2000
    1.0790    0.4698    0.2073 P   0  0  0  0  0  0  0  0  0  0  0  0
   -2.5468    2.0993    0.3333 O   0  0  0  0  0  0  0  0  0  0  0  0
   -0.9262   -2.5147   -0.1254 N   0  0  0  0  0  0  0  0  0  0  0  0
    0.4163   -2.7144   -0.0938 N   0  0  0  0  0  2  0  0  0  0  0  0
   -4.1603   -0.8332    0.8071 N   0  0  0  0  0  0  0  0  0  0  0  0
   -4.4101   -2.0165    0.1983 N   0  0  0  0  0  0  0  0  0  0  0  0
   -0.5205    0.2165    1.1159 C   0  0  0  0  0  0  0  0  0  0  0  0
   -0.3042   -0.5801    1.8581 H   0  0  0  0  0  0  0  0  0  0  0  0
   -0.7363    1.1444    1.6831 H   0  0  0  0  0  0  0  0  0  0  0  0
   -1.5128   -1.3184   -0.7079 C   0  0  0  0  0  0  0  0  0  0  0  0
   -2.4721   -1.6194   -1.1695 H   0  0  0  0  0  0  0  0  0  0  0  0
   -0.8265   -0.9793   -1.5105 H   0  0  0  0  0  0  0  0  0  0  0  0
   -2.8491   -0.5568    1.3544 C   0  0  0  0  0  0  0  0  0  0  0  0
   -2.5148   -1.4419    1.9318 H   0  0  0  0  0  0  0  0  0  0  0  0
   -2.9543    0.2893    2.0579 H   0  0  0  0  0  0  0  0  0  0  0  0
   -1.7732   -0.1690    0.2955 C   0  0  1  0  0  0  0  0  0  0  0  0
   -2.2983    1.0192   -0.5327 C   0  0  0  0  0  0  0  0  0  0  0  0
   -1.5591    1.2991   -1.3203 H   0  0  0  0  0  0  0  0  0  0  0  0
   -3.2325    0.7084   -1.0617 H   0  0  0  0  0  0  0  0  0  0  0  0
   -3.1358    3.2235   -0.3190 C   0  0  0  0  0  0  0  0  0  0  0  0
   -4.1164    2.9246   -0.7625 H   0  0  0  0  0  0  0  0  0  0  0  0
   -2.4813    3.5506   -1.1624 H   0  0  0  0  0  0  0  0  0  0  0  0
   -3.3110    4.3387    0.6917 C   0  0  0  0  0  0  0  0  0  0  0  0
   -3.9562    4.0157    1.5329 H   0  0  0  0  0  0  0  0  0  0  0  0
   -3.7820    5.2205    0.2152 H   0  0  0  0  0  0  0  0  0  0  0  0
   -2.3328    4.6508    1.1092 H   0  0  0  0  0  0  0  0  0  0  0  0
   -5.2377    0.0102    0.7625 C   0  0  0  0  0  0  0  0  0  0  0  0
   -5.1938    1.0082    1.2123 H   0  0  0  0  0  0  0  0  0  0  0  0
   -6.2490   -0.6698    0.0900 C   0  0  0  0  0  0  0  0  0  0  0  0
   -7.2622   -0.3133   -0.1208 H   0  0  0  0  0  0  0  0  0  0  0  0
   -5.6765   -1.9249   -0.2364 C   0  0  0  0  0  0  0  0  0  0  0  0
   -6.1348   -2.7720   -0.7622 H   0  0  0  0  0  0  0  0  0  0  0  0
   -1.5883   -3.5511    0.4624 C   0  0  0  0  0  3  0  0  0  0  0  0
   -2.6879   -3.5268    0.4963 H   0  0  0  0  0  0  0  0  0  0  0  0
   -0.6263   -4.4604    0.9028 C   0  0  0  0  0  0  0  0  0  0  0  0
   -0.7995   -5.4143    1.4099 H   0  0  0  0  0  0  0  0  0  0  0  0
    0.6090   -3.8963    0.5287 C   0  0  0  0  0  0  0  0  0  0  0  0
    1.6250   -4.2852    0.6603 H   0  0  0  0  0  0  0  0  0  0  0  0
    0.9911    1.9274   -2.1931 C   0  0  0  0  0  0  0  0  0  0  0  0
    1.2700    0.9746   -2.6701 H   0  0  0  0  0  0  0  0  0  0  0  0
    0.7650    3.0721   -2.9728 C   0  0  0  0  0  0  0  0  0  0  0  0
    0.8785    3.0225   -4.0659 H   0  0  0  0  0  0  0  0  0  0  0  0
    0.3947    4.2771   -2.3557 C   0  0  0  0  0  0  0  0  0  0  0  0
    0.2201    5.1761   -2.9655 H   0  0  0  0  0  0  0  0  0  0  0  0
    0.2501    4.3384   -0.9587 C   0  0  0  0  0  0  0  0  0  0  0  0
   -0.0372    5.2842   -0.4752 H   0  0  0  0  0  0  0  0  0  0  0  0
    0.4708    3.1972   -0.1753 C   0  0  0  0  0  0  0  0  0  0  0  0
    0.3545    3.2542    0.9173 H   0  0  0  0  0  0  0  0  0  0  0  0
    0.8451    1.9838   -0.7922 C   0  0  0  0  0  0  0  0  0  0  0  0
    3.1437    1.9988    1.3995 C   0  0  0  0  0  0  0  0  0  0  0  0
    3.0864    2.6492    0.5143 H   0  0  0  0  0  0  0  0  0  0  0  0
    4.1009    2.2576    2.3927 C   0  0  0  0  0  0  0  0  0  0  0  0
    4.7859    3.1107    2.2768 H   0  0  0  0  0  0  0  0  0  0  0  0
    4.1830    1.4376    3.5285 C   0  0  0  0  0  0  0  0  0  0  0  0
    4.9322    1.6462    4.3065 H   0  0  0  0  0  0  0  0  0  0  0  0
    3.3091    0.3469    3.6679 C   0  0  0  0  0  0  0  0  0  0  0  0
    3.3729   -0.3027    4.5535 H   0  0  0  0  0  0  0  0  0  0  0  0
    2.3545    0.0780    2.6774 C   0  0  0  0  0  0  0  0  0  0  0  0
    1.6915   -0.7937    2.7924 H   0  0  0  0  0  0  0  0  0  0  0  0
    2.2560    0.9123    1.5419 C   0  0  0  0  0  0  0  0  0  0  0  0
  1  7  1  0  0  0  0
  1 60  1  0  0  0  0
  3  4  1  0  0  0  0
  3 33  1  0  0  0  0
  4 37  1  0  0  0  0
  5 13  1  0  0  0  0
  6  5  1  0  0  0  0
  7  9  1  0  0  0  0
  7  8  1  0  0  0  0
 10  3  1  0  0  0  0
 11 10  1  0  0  0  0
 12 10  1  0  0  0  0
 13 14  1  0  0  0  0
 13 15  1  0  0  0  0
 16 10  1  6  0  0  0
 16  7  1  0  0  0  0
 16 13  1  0  0  0  0
 17 16  1  0  0  0  0
 17  2  1  0  0  0  0
 18 17  1  0  0  0  0
 19 17  1  0  0  0  0
 20  2  1  0  0  0  0
 20 23  1  0  0  0  0
 21 20  1  0  0  0  0
 22 20  1  0  0  0  0
 23 26  1  0  0  0  0
 23 24  1  0  0  0  0
 25 23  1  0  0  0  0
 27  5  1  0  0  0  0
 27 28  1  0  0  0  0
 29 27  2  0  0  0  0
 30 29  1  0  0  0  0
 31 29  1  0  0  0  0
 31  6  2  0  0  0  0
 32 31  1  0  0  0  0
 33 34  1  0  0  0  0
 33 35  1  0  0  0  0
 35 36  1  0  0  0  0
 37 38  1  0  0  0  0
 37 35  2  0  0  0  0
 39 49  1  0  0  0  0
 40 39  1  0  0  0  0
 41 43  1  0  0  0  0
 41 39  2  0  0  0  0
 42 41  1  0  0  0  0
 43 45  2  0  0  0  0
 44 43  1  0  0  0  0
 45 46  1  0  0  0  0
 45 47  1  0  0  0  0
 47 48  1  0  0  0  0
 49 47  2  0  0  0  0
 49  1  1  0  0  0  0
 50 60  2  0  0  0  0
 50 52  1  0  0  0  0
 51 50  1  0  0  0  0
 52 54  2  0  0  0  0
 53 52  1  0  0  0  0
 54 56  1  0  0  0  0
 54 55  1  0  0  0  0
 56 57  1  0  0  0  0
 58 59  1  0  0  0  0
 58 56  2  0  0  0  0
 60 58  1  0  0  0  0
M  END
