1
q = 0.0, confidence = 1.0

 35 37  0  0  0  0  0  0  0  0999 V2000
   -2.7689   -0.1388    0.1145 N   0  0  0  0  0  2  0  0  0  0  0  0
   -1.9902    0.9468   -0.0630 C   0  0  0  0  0  3  0  0  0  0  0  0
   -0.5975    0.8833   -0.0628 C   0  0  0  0  0  0  0  0  0  0  0  0
    0.0510   -0.3625    0.1323 C   0  0  0  0  0  0  0  0  0  0  0  0
   -0.7911   -1.4849    0.3275 C   0  0  0  0  0  0  0  0  0  0  0  0
   -2.1790   -1.3310    0.3126 C   0  0  0  0  0  0  0  0  0  0  0  0
    1.5001   -0.5367    0.1461 C   0  0  0  0  0  0  0  0  0  0  0  0
    2.4292    0.4444   -0.0303 C   0  0  0  0  0  0  0  0  0  0  0  0
    3.8803    0.2952   -0.0214 C   0  0  0  0  0  0  0  0  0  0  0  0
    4.6919    1.4393   -0.2205 C   0  0  0  0  0  0  0  0  0  0  0  0
    6.0857    1.3541   -0.2212 C   0  0  0  0  0  0  0  0  0  0  0  0
    6.7413    0.1171   -0.0239 C   0  0  0  0  0  0  0  0  0  0  0  0
    5.9309   -1.0287    0.1750 C   0  0  0  0  0  0  0  0  0  0  0  0
    4.5396   -0.9444    0.1776 C   0  0  0  0  0  0  0  0  0  0  0  0
    8.2200    0.0204   -0.0248 C   0  0  0  0  0  0  0  0  0  0  0  0
    9.0188    1.0786    0.4681 C   0  0  0  0  0  0  0  0  0  0  0  0
   10.4167    0.9872    0.4673 C   0  0  0  0  0  0  0  0  0  0  0  0
   11.0502   -0.1636   -0.0284 C   0  0  0  0  0  0  0  0  0  0  0  0
   10.2718   -1.2227   -0.5222 C   0  0  0  0  0  0  0  0  0  0  0  0
    8.8738   -1.1324   -0.5192 C   0  0  0  0  0  0  0  0  0  0  0  0
   -2.5256    1.9012   -0.1961 H   0  0  0  0  0  0  0  0  0  0  0  0
   -0.0219    1.8076   -0.2115 H   0  0  0  0  0  0  0  0  0  0  0  0
   -0.3548   -2.4813    0.4940 H   0  0  0  0  0  0  0  0  0  0  0  0
   -2.8609   -2.1817    0.4763 H   0  0  0  0  0  0  0  0  0  0  0  0
    1.8401   -1.5717    0.3166 H   0  0  0  0  0  0  0  0  0  0  0  0
    2.0772    1.4762   -0.2010 H   0  0  0  0  0  0  0  0  0  0  0  0
    4.2073    2.4142   -0.3878 H   0  0  0  0  0  0  0  0  0  0  0  0
    6.6820    2.2597   -0.4067 H   0  0  0  0  0  0  0  0  0  0  0  0
    6.4103   -2.0016    0.3592 H   0  0  0  0  0  0  0  0  0  0  0  0
    3.9513   -1.8582    0.3472 H   0  0  0  0  0  0  0  0  0  0  0  0
    8.5338    1.9739    0.8851 H   0  0  0  0  0  0  0  0  0  0  0  0
   11.0171    1.8191    0.8659 H   0  0  0  0  0  0  0  0  0  0  0  0
   12.1483   -0.2351   -0.0298 H   0  0  0  0  0  0  0  0  0  0  0  0
   10.7584   -2.1253   -0.9221 H   0  0  0  0  0  0  0  0  0  0  0  0
    8.2761   -1.9576   -0.9347 H   0  0  0  0  0  0  0  0  0  0  0  0
  1  6  1  0  0  0  0
  2  3  1  0  0  0  0
  2  1  1  0  0  0  0
  3  4  2  0  0  0  0
  4  7  1  0  0  0  0
  4  5  1  0  0  0  0
  5 23  1  0  0  0  0
  6  5  2  0  0  0  0
  6 24  1  0  0  0  0
  7 25  1  0  0  0  0
  8  9  1  0  0  0  0
  8  7  2  0  0  0  0
  9 14  1  0  0  0  0
 10  9  2  0  0  0  0
 11 10  1  0  0  0  0
 11 12  2  0  0  0  0
 12 13  1  0  0  0  0
 13 14  2  0  0  0  0
 13 29  1  0  0  0  0
 14 30  1  0  0  0  0
 15 12  1  0  0  0  0
 15 16  1  0  0  0  0
 16 31  1  0  0  0  0
 17 16  2  0  0  0  0
 17 32  1  0  0  0  0
 18 17  1  0  0  0  0
 19 20  1  0  0  0  0
 19 18  2  0  0  0  0
 20 15  2  0  0  0  0
 21  2  1  0  0  0  0
 22  3  1  0  0  0  0
 26  8  1  0  0  0  0
 27 10  1  0  0  0  0
 28 11  1  0  0  0  0
 33 18  1  0  0  0  0
 34 19  1  0  0  0  0
 35 20  1  0  0  0  0
M  END
