1
q = 0.0, confidence = 0.994

 25 26  0  0  0  0  0  0  0  0999 V2000
    0.8561    0.1628   -0.0780 N   0  0  0  0  0  2  0  0  0  0  0  0
    0.2780    1.3766   -0.0613 C   0  0  0  0  0  3  0  0  0  0  0  0
   -1.1086    1.5438   -0.0432 C   0  0  0  0  0  0  0  0  0  0  0  0
   -1.9607    0.4125   -0.0446 C   0  0  0  0  0  0  0  0  0  0  0  0
   -1.3247   -0.8541   -0.0732 C   0  0  0  0  0  0  0  0  0  0  0  0
    0.0674   -0.9299   -0.0900 C   0  0  0  0  0  0  0  0  0  0  0  0
   -3.4090    0.6005   -0.0232 C   0  0  0  0  0  0  0  0  0  0  0  0
   -4.3468   -0.3865   -0.0173 C   0  0  0  0  0  0  0  0  0  0  0  0
   -5.7995   -0.2243    0.0041 C   0  0  0  0  0  0  0  0  0  0  0  0
   -6.4408    1.0401    0.0206 C   0  0  0  0  0  0  0  0  0  0  0  0
   -7.8351    1.1355    0.0407 C   0  0  0  0  0  0  0  0  0  0  0  0
   -8.6281   -0.0266    0.0449 C   0  0  0  0  0  0  0  0  0  0  0  0
   -8.0116   -1.2873    0.0288 C   0  0  0  0  0  0  0  0  0  0  0  0
   -6.6147   -1.3830    0.0087 C   0  0  0  0  0  0  0  0  0  0  0  0
    0.9682    2.2363   -0.0764 H   0  0  0  0  0  0  0  0  0  0  0  0
   -1.5354    2.5579   -0.0307 H   0  0  0  0  0  0  0  0  0  0  0  0
   -1.9093   -1.7846   -0.0865 H   0  0  0  0  0  0  0  0  0  0  0  0
    0.5938   -1.8977   -0.1286 H   0  0  0  0  0  0  0  0  0  0  0  0
   -3.7382    1.6527   -0.0100 H   0  0  0  0  0  0  0  0  0  0  0  0
   -4.0051   -1.4357   -0.0293 H   0  0  0  0  0  0  0  0  0  0  0  0
   -5.8389    1.9608    0.0176 H   0  0  0  0  0  0  0  0  0  0  0  0
   -8.3131    2.1267    0.0533 H   0  0  0  0  0  0  0  0  0  0  0  0
   -9.7255    0.0535    0.0608 H   0  0  0  0  0  0  0  0  0  0  0  0
   -8.6234   -2.2019    0.0319 H   0  0  0  0  0  0  0  0  0  0  0  0
   -6.1329   -2.3735   -0.0040 H   0  0  0  0  0  0  0  0  0  0  0  0
  1  2  1  0  0  0  0
  2  3  1  0  0  0  0
  3 16  1  0  0  0  0
  4  3  2  0  0  0  0
  4  7  1  0  0  0  0
  5  4  1  0  0  0  0
  6  1  1  0  0  0  0
  6  5  2  0  0  0  0
  7  8  2  0  0  0  0
  7 19  1  0  0  0  0
  8  9  1  0  0  0  0
  9 14  2  0  0  0  0
  9 10  1  0  0  0  0
 10 11  2  0  0  0  0
 11 12  1  0  0  0  0
 11 22  1  0  0  0  0
 12 23  1  0  0  0  0
 13 24  1  0  0  0  0
 13 12  2  0  0  0  0
 14 13  1  0  0  0  0
 15  2  1  0  0  0  0
 17  5  1  0  0  0  0
 18  6  1  0  0  0  0
 20  8  1  0  0  0  0
 21 10  1  0  0  0  0
 25 14  1  0  0  0  0
M  END
