1
q = 0.0, confidence = 0.992

 28 29  0  0  0  0  0  0  0  0999 V2000
   -1.2497    0.1607   -0.0797 N   0  0  0  0  0  2  0  0  0  0  0  0
   -0.4623   -0.9332   -0.0919 C   0  0  0  0  0  3  0  0  0  0  0  0
   -0.9903   -1.9003   -0.1295 H   0  0  0  0  0  0  0  0  0  0  0  0
    0.9297   -0.8599   -0.0764 C   0  0  0  0  0  0  0  0  0  0  0  0
    1.5123   -1.7917   -0.0897 H   0  0  0  0  0  0  0  0  0  0  0  0
    1.5689    0.4056   -0.0490 C   0  0  0  0  0  0  0  0  0  0  0  0
    0.7179    1.5381   -0.0473 C   0  0  0  0  0  0  0  0  0  0  0  0
    1.1463    2.5516   -0.0357 H   0  0  0  0  0  0  0  0  0  0  0  0
   -0.6687    1.3735   -0.0641 C   0  0  0  0  0  0  0  0  0  0  0  0
   -1.3572    2.2345   -0.0789 H   0  0  0  0  0  0  0  0  0  0  0  0
    3.0168    0.5906   -0.0292 C   0  0  0  0  0  0  0  0  0  0  0  0
    3.3486    1.6420   -0.0161 H   0  0  0  0  0  0  0  0  0  0  0  0
    3.9531   -0.3989   -0.0247 C   0  0  0  0  0  0  0  0  0  0  0  0
    3.6084   -1.4473   -0.0364 H   0  0  0  0  0  0  0  0  0  0  0  0
    5.4042   -0.2413   -0.0051 C   0  0  0  0  0  0  0  0  0  0  0  0
    6.2217   -1.3964   -0.0010 C   0  0  0  0  0  0  0  0  0  0  0  0
    5.7439   -2.3888   -0.0126 H   0  0  0  0  0  0  0  0  0  0  0  0
    7.6178   -1.3005    0.0174 C   0  0  0  0  0  0  0  0  0  0  0  0
    8.2257   -2.2188    0.0201 H   0  0  0  0  0  0  0  0  0  0  0  0
    8.2604   -0.0473    0.0325 C   0  0  0  0  0  0  0  0  0  0  0  0
    7.4457    1.1095    0.0285 C   0  0  0  0  0  0  0  0  0  0  0  0
    7.9224    2.1026    0.0399 H   0  0  0  0  0  0  0  0  0  0  0  0
    6.0543    1.0195    0.0102 C   0  0  0  0  0  0  0  0  0  0  0  0
    5.4584    1.9443    0.0074 H   0  0  0  0  0  0  0  0  0  0  0  0
    9.7614    0.0713    0.0526 C   0  0  0  0  0  0  0  0  0  0  0  0
   10.2518   -0.9209    0.0509 H   0  0  0  0  0  0  0  0  0  0  0  0
   10.1087    0.6221    0.9518 H   0  0  0  0  0  0  0  0  0  0  0  0
   10.1314    0.6365   -0.8285 H   0  0  0  0  0  0  0  0  0  0  0  0
  1  9  1  0  0  0  0
  2  1  1  0  0  0  0
  2  4  1  0  0  0  0
  3  2  1  0  0  0  0
  4  6  2  0  0  0  0
  5  4  1  0  0  0  0
  6  7  1  0  0  0  0
  6 11  1  0  0  0  0
  7  8  1  0  0  0  0
  9  7  2  0  0  0  0
 10  9  1  0  0  0  0
 11 13  2  0  0  0  0
 11 12  1  0  0  0  0
 13 15  1  0  0  0  0
 14 13  1  0  0  0  0
 15 16  2  0  0  0  0
 15 23  1  0  0  0  0
 16 18  1  0  0  0  0
 17 16  1  0  0  0  0
 18 19  1  0  0  0  0
 18 20  2  0  0  0  0
 20 25  1  0  0  0  0
 21 20  1  0  0  0  0
 21 22  1  0  0  0  0
 23 21  2  0  0  0  0
 24 23  1  0  0  0  0
 25 27  1  0  0  0  0
 26 25  1  0  0  0  0
 28 25  1  0  0  0  0
M  END
