1
q = 0.0, confidence = 0.998

 47 51  0  0  0  0  0  0  0  0999 V2000
    4.4695   -0.0140    0.1771 N   0  0  0  0  0  2  0  0  0  0  0  0
    3.8761    0.5105    1.2638 C   0  0  0  0  0  3  0  0  0  0  0  0
    2.4876    0.5866    1.3937 C   0  0  0  0  0  0  0  0  0  0  0  0
    1.6495    0.0993    0.3610 C   0  0  0  0  0  0  0  0  0  0  0  0
    2.3015   -0.4578   -0.7680 C   0  0  0  0  0  0  0  0  0  0  0  0
    3.6944   -0.4939   -0.8155 C   0  0  0  0  0  0  0  0  0  0  0  0
    0.1994    0.1866    0.5075 C   0  0  0  0  0  0  0  0  0  0  0  0
   -0.7266   -0.2362   -0.3975 C   0  0  0  0  0  0  0  0  0  0  0  0
   -2.1795   -0.1598   -0.2729 C   0  0  0  0  0  0  0  0  0  0  0  0
   -2.8393    0.3919    0.8542 C   0  0  0  0  0  0  0  0  0  0  0  0
   -4.2324    0.4407    0.9195 C   0  0  0  0  0  0  0  0  0  0  0  0
   -5.0328   -0.0622   -0.1336 C   0  0  0  0  0  0  0  0  0  0  0  0
   -4.3817   -0.6144   -1.2575 C   0  0  0  0  0  0  0  0  0  0  0  0
   -2.9859   -0.6595   -1.3249 C   0  0  0  0  0  0  0  0  0  0  0  0
   -6.5194   -0.0100   -0.0555 C   0  0  0  0  0  0  0  0  0  0  0  0
   -7.1864    1.2467   -0.1044 C   0  0  0  0  0  0  0  0  0  0  0  0
   -6.4845    2.4882   -0.2657 C   0  0  0  0  0  0  0  0  0  0  0  0
   -7.1600    3.6932   -0.3080 C   0  0  0  0  0  0  0  0  0  0  0  0
   -8.5825    3.7348   -0.1982 C   0  0  0  0  0  0  0  0  0  0  0  0
   -9.2984    2.5625   -0.0621 C   0  0  0  0  0  0  0  0  0  0  0  0
   -8.6368    1.2917   -0.0173 C   0  0  0  0  0  0  0  0  0  0  0  0
   -9.3596    0.0909    0.0969 C   0  0  0  0  0  0  0  0  0  0  0  0
   -8.7155   -1.1584    0.1378 C   0  0  0  0  0  0  0  0  0  0  0  0
   -9.4570   -2.3793    0.2578 C   0  0  0  0  0  0  0  0  0  0  0  0
   -8.8156   -3.5999    0.3213 C   0  0  0  0  0  0  0  0  0  0  0  0
   -7.3901   -3.6596    0.2785 C   0  0  0  0  0  0  0  0  0  0  0  0
   -6.6393   -2.5055    0.1595 C   0  0  0  0  0  0  0  0  0  0  0  0
   -7.2645   -1.2167    0.0692 C   0  0  0  0  0  0  0  0  0  0  0  0
    4.5554    0.8665    2.0559 H   0  0  0  0  0  0  0  0  0  0  0  0
    2.0481    1.0238    2.3028 H   0  0  0  0  0  0  0  0  0  0  0  0
    1.7287   -0.8683   -1.6113 H   0  0  0  0  0  0  0  0  0  0  0  0
    4.2331   -0.9344   -1.6705 H   0  0  0  0  0  0  0  0  0  0  0  0
   -0.1433    0.6431    1.4509 H   0  0  0  0  0  0  0  0  0  0  0  0
   -0.3724   -0.6911   -1.3384 H   0  0  0  0  0  0  0  0  0  0  0  0
   -2.2518    0.7864    1.6965 H   0  0  0  0  0  0  0  0  0  0  0  0
   -4.7254    0.8685    1.8053 H   0  0  0  0  0  0  0  0  0  0  0  0
   -4.9867   -1.0046   -2.0895 H   0  0  0  0  0  0  0  0  0  0  0  0
   -2.4975   -1.0885   -2.2141 H   0  0  0  0  0  0  0  0  0  0  0  0
   -5.3901    2.4699   -0.3652 H   0  0  0  0  0  0  0  0  0  0  0  0
   -6.5975    4.6307   -0.4345 H   0  0  0  0  0  0  0  0  0  0  0  0
   -9.1046    4.7029   -0.2318 H   0  0  0  0  0  0  0  0  0  0  0  0
  -10.3970    2.5810    0.0108 H   0  0  0  0  0  0  0  0  0  0  0  0
  -10.4591    0.1300    0.1559 H   0  0  0  0  0  0  0  0  0  0  0  0
  -10.5557   -2.3196    0.3025 H   0  0  0  0  0  0  0  0  0  0  0  0
   -9.3984   -4.5287    0.4141 H   0  0  0  0  0  0  0  0  0  0  0  0
   -6.8853   -4.6351    0.3479 H   0  0  0  0  0  0  0  0  0  0  0  0
   -5.5421   -2.5652    0.1409 H   0  0  0  0  0  0  0  0  0  0  0  0
  1  2  1  0  0  0  0
  2  3  1  0  0  0  0
  2 29  1  0  0  0  0
  3 30  1  0  0  0  0
  4  7  1  0  0  0  0
  4  3  2  0  0  0  0
  5  4  1  0  0  0  0
  6  5  2  0  0  0  0
  6  1  1  0  0  0  0
  7 33  1  0  0  0  0
  8  9  1  0  0  0  0
  8  7  2  0  0  0  0
  9 10  1  0  0  0  0
 10 11  2  0  0  0  0
 10 35  1  0  0  0  0
 11 36  1  0  0  0  0
 12 15  1  0  0  0  0
 12 11  1  0  0  0  0
 13 12  2  0  0  0  0
 14 13  1  0  0  0  0
 14  9  2  0  0  0  0
 15 28  1  0  0  0  0
 16 15  2  0  0  0  0
 16 21  1  0  0  0  0
 17 16  1  0  0  0  0
 18 17  2  0  0  0  0
 18 19  1  0  0  0  0
 19 20  2  0  0  0  0
 20 21  1  0  0  0  0
 20 42  1  0  0  0  0
 21 22  2  0  0  0  0
 22 23  1  0  0  0  0
 22 43  1  0  0  0  0
 23 24  1  0  0  0  0
 24 44  1  0  0  0  0
 24 25  2  0  0  0  0
 25 45  1  0  0  0  0
 26 25  1  0  0  0  0
 26 46  1  0  0  0  0
 27 26  2  0  0  0  0
 28 23  2  0  0  0  0
 28 27  1  0  0  0  0
 31  5  1  0  0  0  0
 32  6  1  0  0  0  0
 34  8  1  0  0  0  0
 37 13  1  0  0  0  0
 38 14  1  0  0  0  0
 39 17  1  0  0  0  0
 40 18  1  0  0  0  0
 41 19  1  0  0  0  0
 47 27  1  0  0  0  0
M  END
