2
q = -1.0

 38 41  0  0  1  0  0  0  0  0999 V2000
    1.4498   -0.5357   -1.6437 Se  0  0  0  0  0  1  0  0  0  0  0  0
   -1.1490    0.7080   -0.0122 N   0  0  0  0  0  2  0  0  0  0  0  0
   -2.7408    2.2295    0.8700 C   0  0  0  0  0  0  0  0  0  0  0  0
   -2.4788    1.1314    0.0018 C   0  0  0  0  0  0  0  0  0  0  0  0
   -3.5482    0.5687   -0.7210 C   0  0  0  0  0  0  0  0  0  0  0  0
   -3.3354   -0.2345   -1.4418 H   0  0  0  0  0  0  0  0  0  0  0  0
   -4.8421    1.0748   -0.5496 C   0  0  0  0  0  0  0  0  0  0  0  0
   -5.6826    0.6492   -1.1152 H   0  0  0  0  0  0  0  0  0  0  0  0
   -5.0787    2.1438    0.3376 C   0  0  0  0  0  0  0  0  0  0  0  0
   -6.7061    2.7512    0.5403 Cl  0  0  0  0  0  0  0  0  0  0  0  0
   -4.0314    2.7429    1.0540 C   0  0  0  0  0  0  0  0  0  0  0  0
   -4.2285    3.5846    1.7313 H   0  0  0  0  0  0  0  0  0  0  0  0
   -1.2482    2.7694    1.6127 S   0  0  0  0  0  0  0  0  0  0  0  0
   -0.3435    1.4820    0.7408 C   0  0  1  0  0  3  0  0  0  0  0  0
    0.9592    1.4293    0.9660 N   0  0  0  0  0  2  0  0  0  0  0  0
    2.1068    0.7935   -0.0190 P   0  0  0  0  0  4  0  0  0  0  0  0
    3.3407    0.0435    1.1120 C   0  0  0  0  0  0  0  0  0  0  0  0
    4.2085   -0.9617    0.6478 C   0  0  0  0  0  0  0  0  0  0  0  0
    4.1033   -1.3303   -0.3854 H   0  0  0  0  0  0  0  0  0  0  0  0
    5.1703   -1.5078    1.5120 C   0  0  0  0  0  0  0  0  0  0  0  0
    5.8459   -2.2976    1.1500 H   0  0  0  0  0  0  0  0  0  0  0  0
    5.2621   -1.0542    2.8378 C   0  0  0  0  0  0  0  0  0  0  0  0
    6.0123   -1.4877    3.5167 H   0  0  0  0  0  0  0  0  0  0  0  0
    4.3950   -0.0492    3.2995 C   0  0  0  0  0  0  0  0  0  0  0  0
    4.4655    0.3043    4.3395 H   0  0  0  0  0  0  0  0  0  0  0  0
    3.4358    0.5054    2.4399 C   0  0  0  0  0  0  0  0  0  0  0  0
    2.7405    1.2844    2.7864 H   0  0  0  0  0  0  0  0  0  0  0  0
    2.9958    2.1963   -0.7948 C   0  0  0  0  0  0  0  0  0  0  0  0
    4.0560    1.9576   -1.6919 C   0  0  0  0  0  0  0  0  0  0  0  0
    4.3559    0.9261   -1.9341 H   0  0  0  0  0  0  0  0  0  0  0  0
    4.7213    3.0381   -2.2859 C   0  0  0  0  0  0  0  0  0  0  0  0
    5.5478    2.8516   -2.9881 H   0  0  0  0  0  0  0  0  0  0  0  0
    4.3301    4.3555   -1.9907 C   0  0  0  0  0  0  0  0  0  0  0  0
    4.8522    5.2020   -2.4619 H   0  0  0  0  0  0  0  0  0  0  0  0
    3.2727    4.5910   -1.0987 C   0  0  0  0  0  0  0  0  0  0  0  0
    2.9628    5.6218   -0.8692 H   0  0  0  0  0  0  0  0  0  0  0  0
    2.6045    3.5142   -0.4955 C   0  0  0  0  0  0  0  0  0  0  0  0
    1.7757    3.6812    0.2087 H   0  0  0  0  0  0  0  0  0  0  0  0
  1 16  1  0  0  0  0
  2  4  1  0  0  0  0
  2 14  1  0  0  0  0
  3 11  1  0  0  0  0
  3 13  1  0  0  0  0
  4  3  2  0  0  0  0
  5  7  2  0  0  0  0
  5  4  1  0  0  0  0
  6  5  1  0  0  0  0
  7  9  1  0  0  0  0
  8  7  1  0  0  0  0
  9 10  1  0  0  0  0
  9 11  2  0  0  0  0
 11 12  1  0  0  0  0
 14 15  1  1  0  0  0
 14 13  1  0  0  0  0
 16 15  1  0  0  0  0
 16 17  1  0  0  0  0
 17 26  1  0  0  0  0
 18 17  2  0  0  0  0
 18 20  1  0  0  0  0
 19 18  1  0  0  0  0
 20 22  2  0  0  0  0
 21 20  1  0  0  0  0
 22 24  1  0  0  0  0
 22 23  1  0  0  0  0
 24 25  1  0  0  0  0
 26 27  1  0  0  0  0
 26 24  2  0  0  0  0
 28 37  1  0  0  0  0
 28 16  1  0  0  0  0
 29 28  2  0  0  0  0
 30 29  1  0  0  0  0
 31 33  2  0  0  0  0
 31 29  1  0  0  0  0
 32 31  1  0  0  0  0
 33 35  1  0  0  0  0
 34 33  1  0  0  0  0
 35 36  1  0  0  0  0
 35 37  2  0  0  0  0
 37 38  1  0  0  0  0
M  END
