1
q = 0.0, confidence = 0.994

 26 27  0  0  1  0  0  0  0  0999 V2000
    1.1816   -1.6478   -0.2879 N   0  0  0  0  0  2  0  0  0  0  0  0
    3.1013   -0.3360   -0.2128 N   0  0  0  0  0  0  0  0  0  0  0  0
    2.4770    0.3971   -0.6062 H   0  0  0  0  0  0  0  0  0  0  0  0
    2.5501   -1.5856   -0.2809 C   0  0  2  0  0  3  0  0  0  0  0  0
    3.3076   -2.7830   -0.3843 C   0  0  0  0  0  0  0  0  0  0  0  0
    4.4026   -2.7197   -0.4051 H   0  0  0  0  0  0  0  0  0  0  0  0
    2.6538   -4.0041   -0.5050 C   0  0  0  0  0  0  0  0  0  0  0  0
    3.2422   -4.9291   -0.6020 H   0  0  0  0  0  0  0  0  0  0  0  0
    1.2468   -4.0464   -0.5221 C   0  0  0  0  0  0  0  0  0  0  0  0
    0.6919   -4.9893   -0.6127 H   0  0  0  0  0  0  0  0  0  0  0  0
    0.5572   -2.8424   -0.4110 C   0  0  0  0  0  0  0  0  0  0  0  0
   -0.5402   -2.8040   -0.3870 H   0  0  0  0  0  0  0  0  0  0  0  0
    4.4504    0.0154   -0.0559 C   0  0  0  0  0  0  0  0  0  0  0  0
    4.9423    1.1247   -0.7797 C   0  0  0  0  0  0  0  0  0  0  0  0
    4.2672    1.6496   -1.4732 H   0  0  0  0  0  0  0  0  0  0  0  0
    6.2653    1.5457   -0.6160 C   0  0  0  0  0  0  0  0  0  0  0  0
    6.6245    2.4149   -1.1898 H   0  0  0  0  0  0  0  0  0  0  0  0
    7.1503    0.8780    0.2571 C   0  0  0  0  0  0  0  0  0  0  0  0
    6.6424   -0.2181    0.9823 C   0  0  0  0  0  0  0  0  0  0  0  0
    7.2990   -0.7440    1.6936 H   0  0  0  0  0  0  0  0  0  0  0  0
    5.3149   -0.6441    0.8435 C   0  0  0  0  0  0  0  0  0  0  0  0
    4.9376   -1.4698    1.4635 H   0  0  0  0  0  0  0  0  0  0  0  0
    8.5867    1.3153    0.3939 C   0  0  0  0  0  0  0  0  0  0  0  0
    9.0472    0.9210    1.3208 H   0  0  0  0  0  0  0  0  0  0  0  0
    8.6777    2.4202    0.4086 H   0  0  0  0  0  0  0  0  0  0  0  0
    9.2011    0.9533   -0.4590 H   0  0  0  0  0  0  0  0  0  0  0  0
  1  4  1  0  0  0  0
  2 13  1  0  0  0  0
  3  2  1  0  0  0  0
  4  2  1  6  0  0  0
  5  4  1  0  0  0  0
  6  5  1  0  0  0  0
  7  5  2  0  0  0  0
  8  7  1  0  0  0  0
  9  7  1  0  0  0  0
  9 11  2  0  0  0  0
 10  9  1  0  0  0  0
 11 12  1  0  0  0  0
 11  1  1  0  0  0  0
 13 21  1  0  0  0  0
 14 16  1  0  0  0  0
 14 13  2  0  0  0  0
 15 14  1  0  0  0  0
 16 18  2  0  0  0  0
 17 16  1  0  0  0  0
 18 23  1  0  0  0  0
 18 19  1  0  0  0  0
 19 20  1  0  0  0  0
 21 19  2  0  0  0  0
 21 22  1  0  0  0  0
 23 25  1  0  0  0  0
 23 24  1  0  0  0  0
 26 23  1  0  0  0  0
M  END
