1
q = 0.0, confidence = 0.998

 20 21  0  0  0  0  0  0  0  0999 V2000
    2.0127    0.8232   -0.5602 N   0  0  0  0  0  2  0  0  0  0  0  0
    4.1817    0.3654   -0.5725 N   0  0  0  0  0  0  0  0  0  0  0  0
    9.0842   -1.8634    0.9285 O   0  0  0  0  0  0  0  0  0  0  0  0
    9.6059   -2.1546    0.1565 H   0  0  0  0  0  0  0  0  0  0  0  0
    2.9865    0.1172    0.0306 C   0  0  0  0  0  3  0  0  0  0  0  0
    2.8685   -0.5881    0.8597 H   0  0  0  0  0  0  0  0  0  0  0  0
    2.6035    1.5466   -1.5824 C   0  0  0  0  0  0  0  0  0  0  0  0
    2.0318    2.2204   -2.2283 H   0  0  0  0  0  0  0  0  0  0  0  0
    3.9546    1.2692   -1.5995 C   0  0  0  0  0  0  0  0  0  0  0  0
    4.7701    1.6526   -2.2193 H   0  0  0  0  0  0  0  0  0  0  0  0
    5.4425   -0.2061   -0.2060 C   0  0  0  0  0  0  0  0  0  0  0  0
    5.8125   -0.2793    1.1502 C   0  0  0  0  0  0  0  0  0  0  0  0
    5.1501    0.1317    1.9262 H   0  0  0  0  0  0  0  0  0  0  0  0
    7.0353   -0.8464    1.5102 C   0  0  0  0  0  0  0  0  0  0  0  0
    7.3448   -0.9072    2.5628 H   0  0  0  0  0  0  0  0  0  0  0  0
    7.9135   -1.3340    0.5164 C   0  0  0  0  0  0  0  0  0  0  0  0
    7.5387   -1.2469   -0.8425 C   0  0  0  0  0  0  0  0  0  0  0  0
    8.2129   -1.6301   -1.6247 H   0  0  0  0  0  0  0  0  0  0  0  0
    6.3062   -0.6921   -1.2016 C   0  0  0  0  0  0  0  0  0  0  0  0
    6.0091   -0.6551   -2.2598 H   0  0  0  0  0  0  0  0  0  0  0  0
  1  5  1  0  0  0  0
  2 11  1  0  0  0  0
  2  5  1  0  0  0  0
  4  3  1  0  0  0  0
  5  6  1  0  0  0  0
  7  1  1  0  0  0  0
  8  7  1  0  0  0  0
  9  7  2  0  0  0  0
  9  2  1  0  0  0  0
 10  9  1  0  0  0  0
 11 12  1  0  0  0  0
 12 14  2  0  0  0  0
 12 13  1  0  0  0  0
 14 15  1  0  0  0  0
 16  3  1  0  0  0  0
 16 14  1  0  0  0  0
 17 16  2  0  0  0  0
 18 17  1  0  0  0  0
 19 17  1  0  0  0  0
 19 11  2  0  0  0  0
 20 19  1  0  0  0  0
M  END
