2
q = 0.0, confidence = 0.996

 11 11  0  0  1  0  0  0  0  0999 V2000
    1.6825    1.3296    0.4991 O   0  0  0  0  0  0  0  0  0  0  0  0
    0.4435    1.4750   -0.1189 N   0  0  0  0  0  2  0  0  0  0  0  0
    2.3899    2.4726    0.3078 C   0  0  2  0  0  3  0  0  0  0  0  0
    1.6299    3.3643   -0.4193 C   0  0  0  0  0  0  0  0  0  0  0  0
    0.4081    2.6861   -0.6636 C   0  0  0  0  0  0  0  0  0  0  0  0
    3.7553    2.5127    0.8910 C   0  0  0  0  0  0  0  0  0  0  0  0
    1.9096    4.3727   -0.7378 H   0  0  0  0  0  0  0  0  0  0  0  0
   -0.5179    2.9951   -1.1646 H   0  0  0  0  0  0  0  0  0  0  0  0
    3.7218    2.3862    1.9926 H   0  0  0  0  0  0  0  0  0  0  0  0
    4.3875    1.6978    0.4817 H   0  0  0  0  0  0  0  0  0  0  0  0
    4.2358    3.4809    0.6617 H   0  0  0  0  0  0  0  0  0  0  0  0
  2  1  1  0  0  0  0
  3  1  1  0  0  0  0
  3  6  1  6  0  0  0
  4  3  1  0  0  0  0
  5  4  2  0  0  0  0
  5  2  1  0  0  0  0
  6  9  1  0  0  0  0
  7  4  1  0  0  0  0
  8  5  1  0  0  0  0
 10  6  1  0  0  0  0
 11  6  1  0  0  0  0
M  END
