2
q = 0.0, confidence = 0.97

 19 19  0  0  0  0  0  0  0  0999 V2000
    0.1609   -2.5898   -1.2079 O   0  0  0  0  0  1  0  0  0  0  0  0
    0.9079   -1.6081   -0.8155 N   0  0  0  0  0  2  0  0  0  0  0  0
    4.4208   -1.3287   -1.4323 N   0  0  0  0  0  0  0  0  0  0  0  0
    2.2038   -1.7325   -1.2074 C   0  0  0  0  0  0  0  0  0  0  0  0
    3.2746   -0.8789   -0.9110 C   0  0  0  0  0  0  0  0  0  0  0  0
    2.7138   -2.8968   -2.0278 C   0  0  0  0  0  0  0  0  0  0  0  0
    4.2214   -2.5843   -2.1827 C   0  0  0  0  0  0  0  0  0  0  0  0
    5.7393   -0.7180   -1.3218 C   0  0  0  0  0  0  0  0  0  0  0  0
    5.7637    0.5592   -0.4965 C   0  0  0  0  0  0  0  0  0  0  0  0
    3.2530    0.0408   -0.3220 H   0  0  0  0  0  0  0  0  0  0  0  0
    2.5203   -3.8586   -1.5103 H   0  0  0  0  0  0  0  0  0  0  0  0
    2.1841   -2.9640   -2.9997 H   0  0  0  0  0  0  0  0  0  0  0  0
    4.5314   -2.4302   -3.2383 H   0  0  0  0  0  0  0  0  0  0  0  0
    4.8810   -3.3708   -1.7589 H   0  0  0  0  0  0  0  0  0  0  0  0
    6.4266   -1.4789   -0.8876 H   0  0  0  0  0  0  0  0  0  0  0  0
    6.1105   -0.5257   -2.3540 H   0  0  0  0  0  0  0  0  0  0  0  0
    5.1195    1.3457   -0.9389 H   0  0  0  0  0  0  0  0  0  0  0  0
    6.7985    0.9496   -0.4623 H   0  0  0  0  0  0  0  0  0  0  0  0
    5.4346    0.3800    0.5471 H   0  0  0  0  0  0  0  0  0  0  0  0
  1  2  1  0  0  0  0
  3  8  1  0  0  0  0
  3  5  1  0  0  0  0
  4  5  2  0  0  0  0
  4  2  1  0  0  0  0
  5 10  1  0  0  0  0
  6 11  1  0  0  0  0
  6  4  1  0  0  0  0
  7  6  1  0  0  0  0
  7 14  1  0  0  0  0
  7  3  1  0  0  0  0
  8 15  1  0  0  0  0
  8  9  1  0  0  0  0
  9 18  1  0  0  0  0
  9 19  1  0  0  0  0
 12  6  1  0  0  0  0
 13  7  1  0  0  0  0
 16  8  1  0  0  0  0
 17  9  1  0  0  0  0
M  END
