2
q = -1.0

 35 36  0  0  1  0  0  0  0  0999 V2000
    5.0662   -1.4421   -0.2762 O   0  0  0  0  0  1  0  0  0  0  0  0
    1.6454   -1.0381   -0.3208 N   0  0  0  0  0  2  0  0  0  0  0  0
    3.8246   -1.5447   -0.2178 N   0  0  0  0  0  0  0  0  0  0  0  0
    4.2251    1.3123    0.3497 N   0  0  0  0  0  0  0  0  0  0  0  0
    4.5894    2.6048    0.2853 C   0  0  0  0  0  0  0  0  0  0  0  0
    3.9812    3.5020   -0.6218 C   0  0  0  0  0  0  0  0  0  0  0  0
    2.9702    3.0375   -1.4729 C   0  0  0  0  0  0  0  0  0  0  0  0
    2.5819    1.6941   -1.4016 C   0  0  0  0  0  0  0  0  0  0  0  0
    3.2494    0.8778   -0.4654 C   0  0  0  0  0  0  0  0  0  0  0  0
    5.6737    3.0430    1.2341 C   0  0  0  0  0  0  0  0  0  0  0  0
    2.8823   -0.5478   -0.3422 C   0  0  2  0  0  3  0  0  0  0  0  0
    1.6921   -2.5255   -0.4413 C   0  0  0  0  0  0  0  0  0  0  0  0
    3.1179   -2.8413    0.1369 C   0  0  0  0  0  0  0  0  0  0  0  0
    1.5733   -2.8586   -1.9410 C   0  0  0  0  0  0  0  0  0  0  0  0
    0.5497   -3.1807    0.3314 C   0  0  0  0  0  0  0  0  0  0  0  0
    3.1424   -2.9160    1.6726 C   0  0  0  0  0  0  0  0  0  0  0  0
    3.8629   -4.0120   -0.4867 C   0  0  0  0  0  0  0  0  0  0  0  0
    4.3051    4.5533   -0.6543 H   0  0  0  0  0  0  0  0  0  0  0  0
    2.4841    3.7174   -2.1892 H   0  0  0  0  0  0  0  0  0  0  0  0
    1.7846    1.2793   -2.0381 H   0  0  0  0  0  0  0  0  0  0  0  0
    5.3353    2.9150    2.2828 H   0  0  0  0  0  0  0  0  0  0  0  0
    6.5674    2.3991    1.1105 H   0  0  0  0  0  0  0  0  0  0  0  0
    5.9631    4.0994    1.0799 H   0  0  0  0  0  0  0  0  0  0  0  0
    0.6411   -2.4094   -2.3338 H   0  0  0  0  0  0  0  0  0  0  0  0
    1.5477   -3.9549   -2.0956 H   0  0  0  0  0  0  0  0  0  0  0  0
    2.4196   -2.4357   -2.5178 H   0  0  0  0  0  0  0  0  0  0  0  0
    0.6725   -4.2825    0.3235 H   0  0  0  0  0  0  0  0  0  0  0  0
   -0.4154   -2.9398   -0.1555 H   0  0  0  0  0  0  0  0  0  0  0  0
    0.5008   -2.8217    1.3751 H   0  0  0  0  0  0  0  0  0  0  0  0
    2.7189   -3.8786    2.0179 H   0  0  0  0  0  0  0  0  0  0  0  0
    2.5646   -2.0856    2.1259 H   0  0  0  0  0  0  0  0  0  0  0  0
    4.1940   -2.8512    2.0143 H   0  0  0  0  0  0  0  0  0  0  0  0
    3.9566   -3.9159   -1.5837 H   0  0  0  0  0  0  0  0  0  0  0  0
    3.3360   -4.9582   -0.2556 H   0  0  0  0  0  0  0  0  0  0  0  0
    4.8834   -4.0646   -0.0623 H   0  0  0  0  0  0  0  0  0  0  0  0
  1  3  1  0  0  0  0
  3 13  1  0  0  0  0
  5  4  1  0  0  0  0
  5 10  1  0  0  0  0
  6  5  2  0  0  0  0
  7  8  2  0  0  0  0
  7  6  1  0  0  0  0
  8  9  1  0  0  0  0
  9  4  2  0  0  0  0
 10 21  1  0  0  0  0
 11  9  1  1  0  0  0
 11  2  1  0  0  0  0
 11  3  1  0  0  0  0
 12  2  1  0  0  0  0
 12 13  1  0  0  0  0
 12 15  1  0  0  0  0
 13 16  1  0  0  0  0
 14 12  1  0  0  0  0
 15 29  1  0  0  0  0
 16 32  1  0  0  0  0
 16 30  1  0  0  0  0
 16 31  1  0  0  0  0
 17 34  1  0  0  0  0
 17 35  1  0  0  0  0
 17 13  1  0  0  0  0
 18  6  1  0  0  0  0
 19  7  1  0  0  0  0
 20  8  1  0  0  0  0
 22 10  1  0  0  0  0
 23 10  1  0  0  0  0
 24 14  1  0  0  0  0
 25 14  1  0  0  0  0
 26 14  1  0  0  0  0
 27 15  1  0  0  0  0
 28 15  1  0  0  0  0
 33 17  1  0  0  0  0
M  END
