15
q = -1.0

 21 22  0  0  1  0  0  0  0  0999 V2000
   -0.3008   -1.4939    0.0001 C   0  0  0  0  0  0  0  0  0  0  0  0
    0.7664   -2.3857    0.0001 C   0  0  0  0  0  0  0  0  0  0  0  0
    0.5570   -3.4695    0.0000 H   0  0  0  0  0  0  0  0  0  0  0  0
    2.1039   -1.9254    0.0000 C   0  0  0  0  0  0  0  0  0  0  0  0
    2.9565   -2.6216   -0.0000 H   0  0  0  0  0  0  0  0  0  0  0  0
    2.3821   -0.5670   -0.0000 C   0  0  2  0  0  3  0  0  0  0  0  0
    1.3094    0.3754    0.0000 C   0  0  0  0  0  0  0  0  0  0  0  0
   -0.0566   -0.0847    0.0001 C   0  0  0  0  0  0  0  0  0  0  0  0
    1.5454    1.7796   -0.0000 C   0  0  0  0  0  0  0  0  0  0  0  0
    2.5896    2.1257   -0.0002 H   0  0  0  0  0  0  0  0  0  0  0  0
    0.4633    2.6525    0.0001 C   0  0  0  0  0  0  0  0  0  0  0  0
    0.6081    3.7419    0.0001 H   0  0  0  0  0  0  0  0  0  0  0  0
   -0.8432    2.1326    0.0002 C   0  0  0  0  0  0  0  0  0  0  0  0
   -1.7136    2.8061    0.0004 H   0  0  0  0  0  0  0  0  0  0  0  0
   -1.1040    0.8137    0.0002 N   0  0  0  0  0  2  0  0  0  0  0  0
    4.1663    0.8469   -1.2564 O   0  0  0  0  0  1  0  0  0  0  0  0
    4.1664    0.8469    1.2563 O   0  0  0  0  0  1  0  0  0  0  0  0
    4.9342   -1.2211   -0.0001 O   0  0  0  0  0  1  0  0  0  0  0  0
   -1.6135   -1.9173    0.0002 O   0  0  0  0  0  0  0  0  0  0  0  0
   -1.6271   -2.8925    0.0003 H   0  0  0  0  0  0  0  0  0  0  0  0
    4.1215    0.0267   -0.0001 S   0  0  0  0  0  0  0  0  0  0  0  0
  1  8  2  0  0  0  0
  1 19  1  0  0  0  0
  2  1  1  0  0  0  0
  3  2  1  0  0  0  0
  4  2  2  0  0  0  0
  5  4  1  0  0  0  0
  6 21  1  6  0  0  0
  6  4  1  0  0  0  0
  6  7  1  0  0  0  0
  7  8  1  0  0  0  0
  8 15  1  0  0  0  0
  9  7  2  0  0  0  0
  9 11  1  0  0  0  0
 10  9  1  0  0  0  0
 11 13  2  0  0  0  0
 12 11  1  0  0  0  0
 13 14  1  0  0  0  0
 15 13  1  0  0  0  0
 16 21  1  0  0  0  0
 18 21  1  0  0  0  0
 19 20  1  0  0  0  0
 21 17  1  0  0  0  0
M  END
