3
q = -1.0, confidence = 0.002

 17 17  0  0  0  0  0  0  0  0999 V2000
   -7.9107    1.7224   -0.8377 O   0  5  0  0  0  0  0  0  0  0  0  0
   -8.4417    0.5749    1.0590 O   0  0  0  0  0  0  0  0  0  0  0  0
   -1.7952   -0.9475   -0.0362 N   0  0  0  0  0  2  0  0  0  0  0  0
   -2.9199   -0.2100   -0.0191 C   0  0  0  0  0  3  0  0  0  0  0  0
   -2.7897    0.8856    0.0217 H   0  0  0  0  0  0  0  0  0  0  0  0
   -4.2375   -0.7485   -0.0586 C   0  0  0  0  0  0  0  0  0  0  0  0
   -4.2986   -2.1833   -0.1113 C   0  0  0  0  0  0  0  0  0  0  0  0
   -5.2796   -2.6798   -0.1282 H   0  0  0  0  0  0  0  0  0  0  0  0
   -3.1338   -2.9400   -0.1326 C   0  0  0  0  0  0  0  0  0  0  0  0
   -3.1814   -4.0384   -0.1711 H   0  0  0  0  0  0  0  0  0  0  0  0
   -1.8753   -2.3054   -0.0937 C   0  0  0  0  0  0  0  0  0  0  0  0
   -0.9270   -2.8639   -0.0824 H   0  0  0  0  0  0  0  0  0  0  0  0
   -5.3608    0.1373   -0.0539 C   0  0  0  0  0  0  0  0  0  0  0  0
   -5.1293    1.2161    0.0106 H   0  0  0  0  0  0  0  0  0  0  0  0
   -6.6901   -0.2034   -0.1470 C   0  0  0  0  0  0  0  0  0  0  0  0
   -6.9978   -1.2577   -0.2699 H   0  0  0  0  0  0  0  0  0  0  0  0
   -7.7917    0.8098    0.0039 C   0  0  0  0  0  0  0  0  0  0  0  0
  1 17  1  0  0  0  0
  3  4  1  0  0  0  0
  4  5  1  0  0  0  0
  6 13  1  0  0  0  0
  6  4  1  0  0  0  0
  7  6  2  0  0  0  0
  8  7  1  0  0  0  0
  9  7  1  0  0  0  0
  9 11  2  0  0  0  0
 10  9  1  0  0  0  0
 11 12  1  0  0  0  0
 11  3  1  0  0  0  0
 13 14  1  0  0  0  0
 15 13  2  0  0  0  0
 15 17  1  0  0  0  0
 16 15  1  0  0  0  0
 17  2  2  0  0  0  0
M  CHG  1   1  -1
M  END
