2
q = -1.0, confidence = 0.0

 11 11  0  0  1  0  0  0  0  0999 V2000
    2.2613   -0.3006    1.2307 Se  0  0  0  0  0  1  0  0  0  0  0  0
    1.0476    0.8838   -0.8948 N   0  0  0  0  0  2  0  0  0  0  0  0
    2.1380    1.0467   -0.0961 C   0  0  1  0  0  3  0  0  0  0  0  0
    3.0282    2.1223   -0.2920 C   0  0  0  0  0  0  0  0  0  0  0  0
    3.8960    2.2368    0.3728 H   0  0  0  0  0  0  0  0  0  0  0  0
    2.7839    3.0085   -1.3441 C   0  0  0  0  0  0  0  0  0  0  0  0
    3.4725    3.8479   -1.5267 H   0  0  0  0  0  0  0  0  0  0  0  0
    1.6592    2.8188   -2.1713 C   0  0  0  0  0  0  0  0  0  0  0  0
    1.4412    3.4968   -3.0078 H   0  0  0  0  0  0  0  0  0  0  0  0
    0.8099    1.7413   -1.9079 C   0  0  0  0  0  0  0  0  0  0  0  0
   -0.1009    1.5413   -2.4952 H   0  0  0  0  0  0  0  0  0  0  0  0
  2  3  1  0  0  0  0
  3  1  1  1  0  0  0
  4  3  1  0  0  0  0
  4  5  1  0  0  0  0
  6  4  2  0  0  0  0
  7  6  1  0  0  0  0
  8 10  2  0  0  0  0
  8  6  1  0  0  0  0
  9  8  1  0  0  0  0
 10  2  1  0  0  0  0
 11 10  1  0  0  0  0
M  END
