23
q = 0.0, confidence = 0.998

 24 25  0  0  0  0  0  0  0  0999 V2000
   -4.4102    0.3948   -0.4238 C   0  0  0  0  0  0  0  0  0  0  0  0
   -6.6996    1.1895   -0.5638 C   0  0  0  0  0  0  0  0  0  0  0  0
   -7.7548    0.9860   -0.7953 H   0  0  0  0  0  0  0  0  0  0  0  0
   -4.9395    2.6782    0.1964 C   0  0  0  0  0  0  0  0  0  0  0  0
   -4.6479    3.6788    0.5485 H   0  0  0  0  0  0  0  0  0  0  0  0
   -5.7659    0.1587   -0.7189 C   0  0  0  0  0  0  0  0  0  0  0  0
   -6.0920   -0.8391   -1.0444 H   0  0  0  0  0  0  0  0  0  0  0  0
   -2.3330   -0.8358    0.1828 C   0  0  0  0  0  3  0  0  0  0  0  0
   -2.0425   -0.2366    1.0558 H   0  0  0  0  0  0  0  0  0  0  0  0
   -3.9967    1.6631    0.0334 C   0  0  0  0  0  0  0  0  0  0  0  0
   -2.9338    1.8523    0.2403 H   0  0  0  0  0  0  0  0  0  0  0  0
   -7.2558    3.6105    0.0890 C   0  0  0  0  0  0  0  0  0  0  0  0
   -6.3014    2.4610   -0.1025 C   0  0  0  0  0  0  0  0  0  0  0  0
   -2.3813   -2.4552   -1.2814 C   0  0  0  0  0  0  0  0  0  0  0  0
   -2.0283   -3.3743   -1.7640 H   0  0  0  0  0  0  0  0  0  0  0  0
   -3.4965   -1.6796   -1.5193 C   0  0  0  0  0  0  0  0  0  0  0  0
   -4.2841   -1.7416   -2.2751 H   0  0  0  0  0  0  0  0  0  0  0  0
   -8.7244    3.3875   -0.2207 C   0  0  0  0  0  0  0  0  0  0  0  0
   -9.2767    4.3234   -0.0249 H   0  0  0  0  0  0  0  0  0  0  0  0
   -9.1443    2.5736    0.4059 H   0  0  0  0  0  0  0  0  0  0  0  0
   -8.8680    3.0893   -1.2797 H   0  0  0  0  0  0  0  0  0  0  0  0
   -3.4565   -0.6458   -0.5824 N   0  0  0  0  0  0  0  0  0  0  0  0
   -1.6798   -1.9132   -0.2261 N   0  0  0  0  0  2  0  0  0  0  0  0
   -6.8448    4.6945    0.4861 O   0  0  0  0  0  0  0  0  0  0  0  0
  1 10  1  0  0  0  0
  2 13  2  0  0  0  0
  3  2  1  0  0  0  0
  4  5  1  0  0  0  0
  6  2  1  0  0  0  0
  6  1  2  0  0  0  0
  7  6  1  0  0  0  0
  8  9  1  0  0  0  0
 10  4  2  0  0  0  0
 10 11  1  0  0  0  0
 12 24  2  0  0  0  0
 13 12  1  0  0  0  0
 13  4  1  0  0  0  0
 14 23  1  0  0  0  0
 15 14  1  0  0  0  0
 16 14  2  0  0  0  0
 16 22  1  0  0  0  0
 17 16  1  0  0  0  0
 18 19  1  0  0  0  0
 18 12  1  0  0  0  0
 18 20  1  0  0  0  0
 21 18  1  0  0  0  0
 22  1  1  0  0  0  0
 22  8  1  0  0  0  0
 23  8  1  0  0  0  0
M  END
