1
q = 0.0, confidence = 1.0

 23 23  0  0  1  0  0  0  0  0999 V2000
   -1.0944   -0.2059   -1.7318 N   0  0  0  0  0  2  0  0  0  0  0  0
   -2.0691    0.7245   -1.6805 C   0  0  1  0  0  3  0  0  0  0  0  0
   -2.8813    1.0235   -2.7849 C   0  0  0  0  0  0  0  0  0  0  0  0
   -2.6615    0.3270   -3.9817 C   0  0  0  0  0  0  0  0  0  0  0  0
   -1.6452   -0.6367   -4.0273 C   0  0  0  0  0  0  0  0  0  0  0  0
   -0.8816   -0.8758   -2.8742 C   0  0  0  0  0  0  0  0  0  0  0  0
   -2.2133    1.4058   -0.3526 C   0  0  0  0  0  0  0  0  0  0  0  0
   -1.4600    1.1880    0.5865 O   0  0  0  0  0  0  0  0  0  0  0  0
   -3.2503    2.2529   -0.3172 O   0  0  0  0  0  0  0  0  0  0  0  0
   -3.5042    2.9336    0.9556 C   0  0  0  0  0  0  0  0  0  0  0  0
   -4.9875    3.2610    0.9672 C   0  0  0  0  0  0  0  0  0  0  0  0
   -2.5931    4.1499    1.0648 C   0  0  0  0  0  0  0  0  0  0  0  0
   -3.6637    1.7876   -2.6885 H   0  0  0  0  0  0  0  0  0  0  0  0
   -3.2797    0.5346   -4.8680 H   0  0  0  0  0  0  0  0  0  0  0  0
   -1.4389   -1.2075   -4.9441 H   0  0  0  0  0  0  0  0  0  0  0  0
   -0.0617   -1.6167   -2.8419 H   0  0  0  0  0  0  0  0  0  0  0  0
   -3.2530    2.2079    1.7569 H   0  0  0  0  0  0  0  0  0  0  0  0
   -5.2593    3.7448    1.9258 H   0  0  0  0  0  0  0  0  0  0  0  0
   -5.5943    2.3414    0.8582 H   0  0  0  0  0  0  0  0  0  0  0  0
   -5.2467    3.9556    0.1425 H   0  0  0  0  0  0  0  0  0  0  0  0
   -2.7846    4.6799    2.0190 H   0  0  0  0  0  0  0  0  0  0  0  0
   -2.7797    4.8566    0.2309 H   0  0  0  0  0  0  0  0  0  0  0  0
   -1.5294    3.8444    1.0496 H   0  0  0  0  0  0  0  0  0  0  0  0
  1  2  1  0  0  0  0
  2  7  1  1  0  0  0
  3 13  1  0  0  0  0
  3  2  1  0  0  0  0
  4  3  2  0  0  0  0
  5  4  1  0  0  0  0
  5  6  2  0  0  0  0
  6 16  1  0  0  0  0
  6  1  1  0  0  0  0
  7  9  1  0  0  0  0
  7  8  2  0  0  0  0
  9 10  1  0  0  0  0
 10 11  1  0  0  0  0
 10 12  1  0  0  0  0
 10 17  1  0  0  0  0
 11 18  1  0  0  0  0
 12 21  1  0  0  0  0
 14  4  1  0  0  0  0
 15  5  1  0  0  0  0
 19 11  1  0  0  0  0
 20 11  1  0  0  0  0
 22 12  1  0  0  0  0
 23 12  1  0  0  0  0
M  END
