1
q = 0.0, confidence = 0.998

 20 21  0  0  1  0  0  0  0  0999 V2000
   -1.5514   -0.6385   -0.3066 N   0  0  0  0  0  2  0  0  0  0  0  0
   -3.0861    1.1532   -0.0675 N   0  0  0  0  0  0  0  0  0  0  0  0
   -2.3680    1.6249    0.5284 H   0  0  0  0  0  0  0  0  0  0  0  0
   -3.6614   -0.9213   -1.0855 N   0  0  1  0  0  0  0  0  0  0  0  0
   -2.7462   -0.0973   -0.4497 C   0  0  1  0  0  3  0  0  0  0  0  0
   -1.5893   -1.9679   -0.9230 C   0  0  0  0  0  0  0  0  0  0  0  0
   -1.0539   -2.6954   -0.2809 H   0  0  0  0  0  0  0  0  0  0  0  0
   -1.0795   -1.9479   -1.9145 H   0  0  0  0  0  0  0  0  0  0  0  0
   -3.0954   -2.2707   -1.0835 C   0  0  0  0  0  0  0  0  0  0  0  0
   -3.3406   -2.8159   -2.0176 H   0  0  0  0  0  0  0  0  0  0  0  0
   -3.4959   -2.8594   -0.2215 H   0  0  0  0  0  0  0  0  0  0  0  0
   -5.0863   -0.6766   -0.9684 C   0  0  0  0  0  0  0  0  0  0  0  0
   -5.4944   -1.1324   -0.0300 H   0  0  0  0  0  0  0  0  0  0  0  0
   -5.6099   -1.1663   -1.8164 H   0  0  0  0  0  0  0  0  0  0  0  0
   -5.3370    0.8336   -0.9788 C   0  0  0  0  0  0  0  0  0  0  0  0
   -6.4107    1.0400   -0.8008 H   0  0  0  0  0  0  0  0  0  0  0  0
   -5.0768    1.2377   -1.9794 H   0  0  0  0  0  0  0  0  0  0  0  0
   -4.4851    1.5262    0.0862 C   0  0  0  0  0  0  0  0  0  0  0  0
   -4.5692    2.6278   -0.0071 H   0  0  0  0  0  0  0  0  0  0  0  0
   -4.8610    1.2608    1.1038 H   0  0  0  0  0  0  0  0  0  0  0  0
  2 18  1  0  0  0  0
  2  3  1  0  0  0  0
  4  9  1  1  0  0  0
  4 12  1  0  0  0  0
  4  5  1  0  0  0  0
  5  1  1  6  0  0  0
  5  2  1  0  0  0  0
  6  1  1  0  0  0  0
  6  7  1  0  0  0  0
  8  6  1  0  0  0  0
  9  6  1  0  0  0  0
  9 11  1  0  0  0  0
 10  9  1  0  0  0  0
 12 13  1  0  0  0  0
 14 12  1  0  0  0  0
 15 12  1  0  0  0  0
 15 16  1  0  0  0  0
 15 18  1  0  0  0  0
 17 15  1  0  0  0  0
 18 20  1  0  0  0  0
 19 18  1  0  0  0  0
M  END
