1
q = 0.0, confidence = 0.998

 17 18  0  0  1  0  0  0  0  0999 V2000
    1.6358   -0.5218   -0.5626 N   0  0  0  0  0  2  0  0  0  0  0  0
    3.1246    1.3439   -0.0964 N   0  0  0  0  0  0  0  0  0  0  0  0
    3.8835   -0.5870   -0.9869 N   0  0  2  0  0  0  0  0  0  0  0  0
    2.7756    0.1236   -0.5423 C   0  0  1  0  0  3  0  0  0  0  0  0
    1.9441   -1.8764   -1.0557 C   0  0  0  0  0  0  0  0  0  0  0  0
    1.6223   -1.9825   -2.1167 H   0  0  0  0  0  0  0  0  0  0  0  0
    1.3944   -2.6265   -0.4526 H   0  0  0  0  0  0  0  0  0  0  0  0
    3.4892   -1.9964   -0.9303 C   0  0  0  0  0  0  0  0  0  0  0  0
    3.7849   -2.4432    0.0513 H   0  0  0  0  0  0  0  0  0  0  0  0
    3.9472   -2.5968   -1.7409 H   0  0  0  0  0  0  0  0  0  0  0  0
    5.0574    0.0069   -0.3516 C   0  0  0  0  0  0  0  0  0  0  0  0
    5.9593   -0.0406   -0.9936 H   0  0  0  0  0  0  0  0  0  0  0  0
    5.2883   -0.5113    0.6125 H   0  0  0  0  0  0  0  0  0  0  0  0
    4.5812    1.4681   -0.1045 C   0  0  0  0  0  0  0  0  0  0  0  0
    4.9622    1.8747    0.8535 H   0  0  0  0  0  0  0  0  0  0  0  0
    4.9228    2.1446   -0.9202 H   0  0  0  0  0  0  0  0  0  0  0  0
    2.4394    1.8865    0.4712 H   0  0  0  0  0  0  0  0  0  0  0  0
  2 17  1  0  0  0  0
  3  8  1  1  0  0  0
  3  4  1  0  0  0  0
  3 11  1  0  0  0  0
  4  1  1  1  0  0  0
  4  2  1  0  0  0  0
  5  8  1  0  0  0  0
  5  1  1  0  0  0  0
  5  7  1  0  0  0  0
  6  5  1  0  0  0  0
  8  9  1  0  0  0  0
 10  8  1  0  0  0  0
 11 14  1  0  0  0  0
 11 13  1  0  0  0  0
 12 11  1  0  0  0  0
 14  2  1  0  0  0  0
 14 15  1  0  0  0  0
 16 14  1  0  0  0  0
M  END
