3
q = 0.0, confidence = 1.0

 32 35  0  0  1  0  0  0  0  0999 V2000
   -3.8616    1.4195   -0.4236 O   0  0  0  0  0  0  0  0  0  0  0  0
   -1.9657   -0.4966   -2.0095 O   0  0  0  0  0  0  0  0  0  0  0  0
    0.9047    1.4288   -0.8577 N   0  0  0  0  0  2  0  0  0  0  0  0
   -1.0792    2.2778   -1.5028 N   0  0  0  0  0  0  0  0  0  0  0  0
    0.8786    2.7743   -0.5277 C   0  0  0  0  0  0  0  0  0  0  0  0
    1.8359    3.5726    0.1275 C   0  0  0  0  0  0  0  0  0  0  0  0
    2.7801    3.1359    0.4818 H   0  0  0  0  0  0  0  0  0  0  0  0
    1.5061    4.9140    0.3529 C   0  0  0  0  0  0  0  0  0  0  0  0
    2.2303    5.5645    0.8657 H   0  0  0  0  0  0  0  0  0  0  0  0
    0.2633    5.4563   -0.0558 C   0  0  0  0  0  0  0  0  0  0  0  0
    0.0472    6.5172    0.1403 H   0  0  0  0  0  0  0  0  0  0  0  0
   -0.7043    4.6700   -0.6966 C   0  0  0  0  0  0  0  0  0  0  0  0
   -1.6754    5.0893   -0.9919 H   0  0  0  0  0  0  0  0  0  0  0  0
   -0.3733    3.3248   -0.9197 C   0  0  0  0  0  0  0  0  0  0  0  0
   -2.4047    2.4270   -2.1058 C   0  0  0  0  0  0  0  0  0  0  0  0
   -2.3947    3.3420   -2.7311 H   0  0  0  0  0  0  0  0  0  0  0  0
   -2.5752    1.5601   -2.7690 H   0  0  0  0  0  0  0  0  0  0  0  0
   -3.5122    2.5488   -1.1099 C   0  0  0  0  0  0  0  0  0  0  0  0
   -4.2898    3.6069   -0.6881 C   0  0  0  0  0  0  0  0  0  0  0  0
   -4.2392    4.6368   -1.0584 H   0  0  0  0  0  0  0  0  0  0  0  0
   -5.1695    3.0881    0.3211 C   0  0  0  0  0  0  0  0  0  0  0  0
   -5.9346    3.6355    0.8824 H   0  0  0  0  0  0  0  0  0  0  0  0
   -4.8594    1.7532    0.4424 C   0  0  0  0  0  0  0  0  0  0  0  0
   -5.2331    0.9366    1.0677 H   0  0  0  0  0  0  0  0  0  0  0  0
   -0.2700    1.1491   -1.4364 C   0  0  1  0  0  3  0  0  0  0  0  0
   -0.6290   -0.1646   -1.9300 C   0  0  0  0  0  0  0  0  0  0  0  0
    0.1482   -1.2544   -2.2884 C   0  0  0  0  0  0  0  0  0  0  0  0
    1.2483   -1.3014   -2.3147 H   0  0  0  0  0  0  0  0  0  0  0  0
   -0.7671   -2.3117   -2.5850 C   0  0  0  0  0  0  0  0  0  0  0  0
   -0.5100   -3.3344   -2.8804 H   0  0  0  0  0  0  0  0  0  0  0  0
   -2.0319   -1.8000   -2.4028 C   0  0  0  0  0  0  0  0  0  0  0  0
   -3.0403   -2.2176   -2.4853 H   0  0  0  0  0  0  0  0  0  0  0  0
  1 23  1  0  0  0  0
  2 26  1  0  0  0  0
  3  5  1  0  0  0  0
  4 25  1  0  0  0  0
  4 14  1  0  0  0  0
  5  6  1  0  0  0  0
  6  8  2  0  0  0  0
  6  7  1  0  0  0  0
  8  9  1  0  0  0  0
 10 11  1  0  0  0  0
 10  8  1  0  0  0  0
 12 10  2  0  0  0  0
 13 12  1  0  0  0  0
 14 12  1  0  0  0  0
 14  5  2  0  0  0  0
 15  4  1  0  0  0  0
 15 18  1  0  0  0  0
 16 15  1  0  0  0  0
 17 15  1  0  0  0  0
 18 19  2  0  0  0  0
 18  1  1  0  0  0  0
 19 21  1  0  0  0  0
 20 19  1  0  0  0  0
 21 23  2  0  0  0  0
 21 22  1  0  0  0  0
 23 24  1  0  0  0  0
 25 26  1  6  0  0  0
 25  3  1  0  0  0  0
 27 26  2  0  0  0  0
 28 27  1  0  0  0  0
 29 31  2  0  0  0  0
 29 27  1  0  0  0  0
 30 29  1  0  0  0  0
 31  2  1  0  0  0  0
 32 31  1  0  0  0  0
M  END
