6
q = 0.0, confidence = 0.998

 20 21  0  0  0  0  0  0  0  0999 V2000
   -3.4861    3.0493   -0.9107 O   0  0  0  0  0  0  0  0  0  0  0  0
   -3.9563    3.3081   -0.0885 H   0  0  0  0  0  0  0  0  0  0  0  0
   -1.8799    2.6005    0.6282 O   0  0  0  0  0  0  0  0  0  0  0  0
    0.1503    0.4162   -1.3114 N   0  0  0  0  0  2  0  0  0  0  0  0
   -0.1392    1.7325   -1.3701 N   0  0  0  0  0  0  0  0  0  0  0  0
    1.3633    0.2835   -0.8585 N   0  0  0  0  0  2  0  0  0  0  0  0
    2.3864    4.2383   -0.2618 C   0  0  0  0  0  0  0  0  0  0  0  0
    2.6096    5.3059   -0.1153 H   0  0  0  0  0  0  0  0  0  0  0  0
    3.3792    3.2761    0.0759 C   0  0  0  0  0  0  0  0  0  0  0  0
    4.3414    3.6270    0.4773 H   0  0  0  0  0  0  0  0  0  0  0  0
    3.1631    1.9069   -0.0777 C   0  0  0  0  0  0  0  0  0  0  0  0
    3.8905    1.1341    0.2128 H   0  0  0  0  0  0  0  0  0  0  0  0
    1.9058    1.5253   -0.5907 C   0  0  0  0  0  0  0  0  0  0  0  0
   -1.4670    2.1525   -1.7337 C   0  0  0  0  0  0  0  0  0  0  0  0
   -1.9891    1.2826   -2.1759 H   0  0  0  0  0  0  0  0  0  0  0  0
   -1.4313    2.9629   -2.4904 H   0  0  0  0  0  0  0  0  0  0  0  0
   -2.2696    2.6128   -0.5186 C   0  0  0  0  0  0  0  0  0  0  0  0
    0.9182    2.4898   -0.9207 C   0  0  0  0  0  0  0  0  0  0  0  0
    1.1356    3.8709   -0.7628 C   0  0  0  0  0  0  0  0  0  0  0  0
    0.3672    4.6174   -1.0062 H   0  0  0  0  0  0  0  0  0  0  0  0
  1 17  1  0  0  0  0
  1  2  1  0  0  0  0
  4  6  1  0  0  0  0
  5  4  1  0  0  0  0
  5 18  1  0  0  0  0
  6 13  1  0  0  0  0
  7  8  1  0  0  0  0
  7  9  1  0  0  0  0
  9 10  1  0  0  0  0
 11  9  2  0  0  0  0
 11 12  1  0  0  0  0
 13 11  1  0  0  0  0
 14  5  1  0  0  0  0
 14 17  1  0  0  0  0
 15 14  1  0  0  0  0
 16 14  1  0  0  0  0
 17  3  2  0  0  0  0
 18 19  1  0  0  0  0
 18 13  2  0  0  0  0
 19  7  2  0  0  0  0
 20 19  1  0  0  0  0
M  END
