5
q = -1.0, confidence = 0.0

 31 31  0  0  0  0  0  0  0  0999 V2000
   -0.9701    2.5228    0.7536 S   0  0  0  0  0  0  0  0  0  0  0  0
    4.0535    1.1918    0.8182 O   0  0  0  0  0  0  0  0  0  0  0  0
    3.0417    1.4453    0.8187 H   0  0  0  0  0  0  0  0  0  0  0  0
    6.3397    0.3626   -0.0762 O   0  0  0  0  0  0  0  0  0  0  0  0
    0.9440    0.3485    1.1328 N   0  0  0  0  0  2  0  0  0  0  0  0
    1.5286    1.4891    0.6674 N   0  0  0  0  0  2  0  0  0  0  0  0
    1.3574    3.6750    0.0063 N   0  0  0  0  0  0  0  0  0  0  0  0
    2.3322    3.5541   -0.2780 H   0  0  0  0  0  0  0  0  0  0  0  0
    1.6821   -0.7492    1.1512 C   0  0  0  0  0  3  0  0  0  0  0  0
    1.1182   -1.6271    1.4924 H   0  0  0  0  0  0  0  0  0  0  0  0
    3.0347   -1.0325    0.6774 C   0  0  0  0  0  0  0  0  0  0  0  0
    3.2677   -2.4125    0.3832 C   0  0  0  0  0  0  0  0  0  0  0  0
    2.4305   -3.1167    0.5069 H   0  0  0  0  0  0  0  0  0  0  0  0
    4.4974   -2.8643   -0.0746 C   0  0  0  0  0  0  0  0  0  0  0  0
    4.6481   -3.9290   -0.3056 H   0  0  0  0  0  0  0  0  0  0  0  0
    5.5631   -1.9531   -0.2428 C   0  0  0  0  0  0  0  0  0  0  0  0
    6.5367   -2.3158   -0.5986 H   0  0  0  0  0  0  0  0  0  0  0  0
    5.3776   -0.5963    0.0457 C   0  0  0  0  0  0  0  0  0  0  0  0
    4.1145   -0.1038    0.5195 C   0  0  0  0  0  0  0  0  0  0  0  0
    7.6185   -0.0391   -0.5112 C   0  0  0  0  0  0  0  0  0  0  0  0
    8.0851   -0.7769    0.1819 H   0  0  0  0  0  0  0  0  0  0  0  0
    8.2445    0.8729   -0.5362 H   0  0  0  0  0  0  0  0  0  0  0  0
    7.5945   -0.4871   -1.5319 H   0  0  0  0  0  0  0  0  0  0  0  0
    0.7435    2.5469    0.4647 C   0  0  0  0  0  0  0  0  0  0  0  0
    0.6607    4.8816   -0.4016 C   0  0  0  0  0  0  0  0  0  0  0  0
    1.3623    5.7327   -0.2741 H   0  0  0  0  0  0  0  0  0  0  0  0
   -0.1707    5.0421    0.3169 H   0  0  0  0  0  0  0  0  0  0  0  0
    0.1169    4.8340   -1.8314 C   0  0  0  0  0  0  0  0  0  0  0  0
   -0.4105    5.7778   -2.0791 H   0  0  0  0  0  0  0  0  0  0  0  0
   -0.5949    3.9930   -1.9445 H   0  0  0  0  0  0  0  0  0  0  0  0
    0.9329    4.6902   -2.5686 H   0  0  0  0  0  0  0  0  0  0  0  0
  2  3  1  0  0  0  0
  4 18  1  0  0  0  0
  5  9  1  0  0  0  0
  6  5  1  0  0  0  0
  7 24  1  0  0  0  0
  8  7  1  0  0  0  0
  9 10  1  0  0  0  0
 11  9  1  0  0  0  0
 12 13  1  0  0  0  0
 12 11  2  0  0  0  0
 14 12  1  0  0  0  0
 15 14  1  0  0  0  0
 16 14  2  0  0  0  0
 16 18  1  0  0  0  0
 17 16  1  0  0  0  0
 18 19  2  0  0  0  0
 19 11  1  0  0  0  0
 19  2  1  0  0  0  0
 20  4  1  0  0  0  0
 20 21  1  0  0  0  0
 22 20  1  0  0  0  0
 23 20  1  0  0  0  0
 24  6  1  0  0  0  0
 24  1  2  0  0  0  0
 25 26  1  0  0  0  0
 25  7  1  0  0  0  0
 25 27  1  0  0  0  0
 28 25  1  0  0  0  0
 29 28  1  0  0  0  0
 30 28  1  0  0  0  0
 31 28  1  0  0  0  0
M  END
