24
q = 0.0, confidence = 0.998

 27 28  0  0  0  0  0  0  0  0999 V2000
    2.7037    1.5493   -0.1587 C   0  0  0  0  0  3  0  0  0  0  0  0
    1.9870    2.3762   -0.2770 H   0  0  0  0  0  0  0  0  0  0  0  0
    4.0704    1.7576   -0.2978 C   0  0  0  0  0  0  0  0  0  0  0  0
    4.4365    2.7682   -0.5342 H   0  0  0  0  0  0  0  0  0  0  0  0
    4.9738    0.6752   -0.1366 C   0  0  0  0  0  0  0  0  0  0  0  0
    4.4120   -0.5918    0.1677 C   0  0  0  0  0  0  0  0  0  0  0  0
    5.0636   -1.4617    0.3041 H   0  0  0  0  0  0  0  0  0  0  0  0
    3.0309   -0.7041    0.2857 C   0  0  0  0  0  0  0  0  0  0  0  0
    2.5824   -1.6812    0.5180 H   0  0  0  0  0  0  0  0  0  0  0  0
    7.3775   -0.0378   -0.1567 C   0  0  0  0  0  0  0  0  0  0  0  0
    9.8781   -0.0944   -0.3348 C   0  0  0  0  0  0  0  0  0  0  0  0
   11.0042    0.7150   -0.5997 C   0  0  0  0  0  0  0  0  0  0  0  0
   10.8723    1.7856   -0.8260 H   0  0  0  0  0  0  0  0  0  0  0  0
   12.2942    0.1759   -0.5797 C   0  0  0  0  0  0  0  0  0  0  0  0
   13.1771    0.7972   -0.7846 H   0  0  0  0  0  0  0  0  0  0  0  0
   12.4564   -1.1852   -0.2917 C   0  0  0  0  0  0  0  0  0  0  0  0
   11.3520   -2.0031   -0.0265 C   0  0  0  0  0  0  0  0  0  0  0  0
   11.5135   -3.0675    0.1958 H   0  0  0  0  0  0  0  0  0  0  0  0
   10.0593   -1.4642   -0.0464 C   0  0  0  0  0  0  0  0  0  0  0  0
    9.1876   -2.0948    0.1592 H   0  0  0  0  0  0  0  0  0  0  0  0
   13.6909   -1.7108   -0.2704 F   0  0  0  0  0  0  0  0  0  0  0  0
    6.5733    1.8752   -0.5063 H   0  0  0  0  0  0  0  0  0  0  0  0
    8.6478    1.5283   -0.6014 H   0  0  0  0  0  0  0  0  0  0  0  0
    2.1720    0.3356    0.1293 N   0  0  0  0  0  2  0  0  0  0  0  0
    6.3253    0.9092   -0.2830 N   0  0  0  0  0  0  0  0  0  0  0  0
    8.6101    0.5330   -0.3761 N   0  0  0  0  0  0  0  0  0  0  0  0
    7.1750   -1.2138    0.1163 O   0  0  0  0  0  0  0  0  0  0  0  0
  1 24  1  0  0  0  0
  2  1  1  0  0  0  0
  3  1  1  0  0  0  0
  3  5  2  0  0  0  0
  4  3  1  0  0  0  0
  5  6  1  0  0  0  0
  6  8  2  0  0  0  0
  6  7  1  0  0  0  0
  8  9  1  0  0  0  0
 10 27  2  0  0  0  0
 11 19  1  0  0  0  0
 12 14  1  0  0  0  0
 12 11  2  0  0  0  0
 13 12  1  0  0  0  0
 14 16  2  0  0  0  0
 15 14  1  0  0  0  0
 16 21  1  0  0  0  0
 16 17  1  0  0  0  0
 17 18  1  0  0  0  0
 19 17  2  0  0  0  0
 19 20  1  0  0  0  0
 22 25  1  0  0  0  0
 23 26  1  0  0  0  0
 24  8  1  0  0  0  0
 25 10  1  0  0  0  0
 25  5  1  0  0  0  0
 26 11  1  0  0  0  0
 26 10  1  0  0  0  0
M  END
