3
q = 0.0, confidence = 1.0

 39 42  0  0  1  0  0  0  0  0999 V2000
   -1.2752   -0.2076    1.1181 C   0  0  0  0  0  0  0  0  0  0  0  0
   -1.7074    0.5883    1.7435 H   0  0  0  0  0  0  0  0  0  0  0  0
    2.3034    0.2359    1.5983 N   0  0  0  0  0  2  0  0  0  0  0  0
   -2.1534   -0.8729    0.1149 C   0  0  0  0  0  0  0  0  0  0  0  0
   -2.7059    1.9874   -0.3466 C   0  0  0  0  0  0  0  0  0  0  0  0
   -1.6582    1.6544   -0.4038 H   0  0  0  0  0  0  0  0  0  0  0  0
    0.0435   -0.5192    1.1805 C   0  0  0  0  0  0  0  0  0  0  0  0
    0.4334   -1.2876    0.4877 H   0  0  0  0  0  0  0  0  0  0  0  0
   -1.7345   -1.8123   -0.5725 O   0  0  0  0  0  0  0  0  0  0  0  0
    2.9703    1.2989    3.6522 C   0  0  0  0  0  0  0  0  0  0  0  0
    3.7801    1.7347    4.2533 H   0  0  0  0  0  0  0  0  0  0  0  0
   -5.3566    2.9616   -0.3285 C   0  0  0  0  0  0  0  0  0  0  0  0
   -6.3952    3.3273   -0.3381 H   0  0  0  0  0  0  0  0  0  0  0  0
   -5.1338    1.5544   -0.1765 C   0  0  0  0  0  0  0  0  0  0  0  0
   -4.4902   -2.6888    0.1354 C   0  0  0  0  0  0  0  0  0  0  0  0
   -3.4771   -3.1095    0.1129 H   0  0  0  0  0  0  0  0  0  0  0  0
   -6.2066    0.6516   -0.0648 C   0  0  0  0  0  0  0  0  0  0  0  0
   -7.2368    1.0427   -0.0695 H   0  0  0  0  0  0  0  0  0  0  0  0
   -4.6521   -1.2667    0.0437 C   0  0  0  0  0  0  0  0  0  0  0  0
   -7.1149   -1.6407    0.1224 C   0  0  0  0  0  0  0  0  0  0  0  0
   -8.1324   -1.2200    0.1174 H   0  0  0  0  0  0  0  0  0  0  0  0
   -6.9144   -3.0032    0.2107 C   0  0  0  0  0  0  0  0  0  0  0  0
   -7.7729   -3.6883    0.2757 H   0  0  0  0  0  0  0  0  0  0  0  0
   -3.7731    1.0460   -0.1551 C   0  0  0  0  0  0  0  0  0  0  0  0
   -6.0060   -0.7373    0.0327 C   0  0  0  0  0  0  0  0  0  0  0  0
    1.6499    1.2402    4.1237 C   0  0  0  0  0  0  0  0  0  0  0  0
    1.3883    1.6358    5.1162 H   0  0  0  0  0  0  0  0  0  0  0  0
   -5.5873   -3.5266    0.2150 C   0  0  0  0  0  0  0  0  0  0  0  0
   -5.4344   -4.6147    0.2775 H   0  0  0  0  0  0  0  0  0  0  0  0
    0.6744    0.6496    3.3187 C   0  0  0  0  0  0  0  0  0  0  0  0
   -0.3617    0.5445    3.6679 H   0  0  0  0  0  0  0  0  0  0  0  0
    1.0157    0.1383    2.0490 C   0  0  1  0  0  3  0  0  0  0  0  0
   -4.2988    3.8379   -0.4744 C   0  0  0  0  0  0  0  0  0  0  0  0
   -4.4835    4.9161   -0.5940 H   0  0  0  0  0  0  0  0  0  0  0  0
   -3.5548   -0.3552   -0.0031 C   0  0  0  0  0  0  0  0  0  0  0  0
   -2.9632    3.3393   -0.4918 C   0  0  0  0  0  0  0  0  0  0  0  0
   -2.1181    4.0294   -0.6358 H   0  0  0  0  0  0  0  0  0  0  0  0
    3.2585    0.7825    2.3877 C   0  0  0  0  0  0  0  0  0  0  0  0
    4.2750    0.7782    1.9714 H   0  0  0  0  0  0  0  0  0  0  0  0
  1  7  2  0  0  0  0
  1  2  1  0  0  0  0
  3 32  1  0  0  0  0
  3 38  1  0  0  0  0
  4  1  1  0  0  0  0
  5 24  1  0  0  0  0
  6  5  1  0  0  0  0
  8  7  1  0  0  0  0
  9  4  2  0  0  0  0
 10 26  1  0  0  0  0
 10 11  1  0  0  0  0
 12 14  1  0  0  0  0
 13 12  1  0  0  0  0
 14 24  2  0  0  0  0
 14 17  1  0  0  0  0
 15 28  2  0  0  0  0
 16 15  1  0  0  0  0
 17 25  2  0  0  0  0
 18 17  1  0  0  0  0
 19 15  1  0  0  0  0
 20 22  2  0  0  0  0
 21 20  1  0  0  0  0
 22 28  1  0  0  0  0
 22 23  1  0  0  0  0
 24 35  1  0  0  0  0
 25 19  1  0  0  0  0
 25 20  1  0  0  0  0
 26 27  1  0  0  0  0
 28 29  1  0  0  0  0
 30 31  1  0  0  0  0
 30 26  2  0  0  0  0
 32  7  1  1  0  0  0
 32 30  1  0  0  0  0
 33 12  2  0  0  0  0
 34 33  1  0  0  0  0
 35 19  2  0  0  0  0
 35  4  1  0  0  0  0
 36 33  1  0  0  0  0
 36  5  2  0  0  0  0
 37 36  1  0  0  0  0
 38 10  2  0  0  0  0
 39 38  1  0  0  0  0
M  END
