1
q = -1.0, confidence = 0.0

 20 21  0  0  0  0  0  0  0  0999 V2000
   -1.2777    0.5008   -0.4767 N   0  0  0  0  0  2  0  0  0  0  0  0
   -0.6141    1.5403   -1.2788 C   0  0  0  0  0  0  0  0  0  0  0  0
   -1.0784    2.9335   -0.8627 C   0  0  0  0  0  0  0  0  0  0  0  0
   -2.5866    3.0484   -1.0818 C   0  0  0  0  0  0  0  0  0  0  0  0
   -3.3345    1.8555   -0.5256 C   0  0  0  0  0  0  0  0  0  0  0  0
   -4.7144    1.9342   -0.2646 C   0  0  0  0  0  0  0  0  0  0  0  0
   -5.4360    0.8429    0.2352 C   0  0  0  0  0  0  0  0  0  0  0  0
   -4.7683   -0.3686    0.4816 C   0  0  0  0  0  0  0  0  0  0  0  0
   -3.3985   -0.4750    0.2330 C   0  0  0  0  0  0  0  0  0  0  0  0
   -2.6635    0.6281   -0.2647 C   0  0  0  0  0  0  0  0  0  0  0  0
   -0.8225    1.3473   -2.3571 H   0  0  0  0  0  0  0  0  0  0  0  0
    0.4880    1.4501   -1.1617 H   0  0  0  0  0  0  0  0  0  0  0  0
   -0.5271    3.6977   -1.4462 H   0  0  0  0  0  0  0  0  0  0  0  0
   -0.8254    3.0926    0.2060 H   0  0  0  0  0  0  0  0  0  0  0  0
   -2.7944    3.1280   -2.1730 H   0  0  0  0  0  0  0  0  0  0  0  0
   -2.9820    3.9815   -0.6303 H   0  0  0  0  0  0  0  0  0  0  0  0
   -5.2296    2.8887   -0.4589 H   0  0  0  0  0  0  0  0  0  0  0  0
   -6.5146    0.9350    0.4306 H   0  0  0  0  0  0  0  0  0  0  0  0
   -5.3174   -1.2405    0.8669 H   0  0  0  0  0  0  0  0  0  0  0  0
   -2.8892   -1.4348    0.4119 H   0  0  0  0  0  0  0  0  0  0  0  0
  1 10  1  0  0  0  0
  2 12  1  0  0  0  0
  2  3  1  0  0  0  0
  2  1  1  0  0  0  0
  3 14  1  0  0  0  0
  4  3  1  0  0  0  0
  4 16  1  0  0  0  0
  4  5  1  0  0  0  0
  5 10  2  0  0  0  0
  5  6  1  0  0  0  0
  6  7  2  0  0  0  0
  7 18  1  0  0  0  0
  7  8  1  0  0  0  0
  8 19  1  0  0  0  0
  9 20  1  0  0  0  0
  9  8  2  0  0  0  0
 10  9  1  0  0  0  0
 11  2  1  0  0  0  0
 13  3  1  0  0  0  0
 15  4  1  0  0  0  0
 17  6  1  0  0  0  0
M  END
