2
q = 0.0, confidence = 0.998

 36 36  0  0  0  0  0  0  0  0999 V2000
   -0.6162   -0.6419   -1.1041 Se  0  0  0  0  0  0  0  0  0  0  0  0
    2.0394   -1.9703    0.0243 N   0  0  0  0  0  0  0  0  0  0  0  0
   -0.3243   -2.5721   -0.6070 C   0  0  0  0  0  0  0  0  0  0  0  0
   -0.6493   -2.7482    0.4349 H   0  0  0  0  0  0  0  0  0  0  0  0
   -0.9361   -3.2069   -1.2772 H   0  0  0  0  0  0  0  0  0  0  0  0
    1.1549   -2.8309   -0.8211 C   0  0  0  0  0  0  0  0  0  0  0  0
    1.4111   -3.8992   -0.6289 H   0  0  0  0  0  0  0  0  0  0  0  0
    1.4192   -2.6195   -1.8781 H   0  0  0  0  0  0  0  0  0  0  0  0
    2.0790   -2.4508    1.4254 C   0  0  0  0  0  0  0  0  0  0  0  0
    1.0575   -2.4918    1.8426 H   0  0  0  0  0  0  0  0  0  0  0  0
    2.6793   -1.7353    2.0171 H   0  0  0  0  0  0  0  0  0  0  0  0
    2.5358   -3.4657    1.4730 H   0  0  0  0  0  0  0  0  0  0  0  0
    3.4140   -1.9842   -0.5346 C   0  0  0  0  0  0  0  0  0  0  0  0
    4.0740   -1.4231    0.1475 H   0  0  0  0  0  0  0  0  0  0  0  0
    3.4211   -1.4812   -1.5179 H   0  0  0  0  0  0  0  0  0  0  0  0
    3.7754   -3.0329   -0.6317 H   0  0  0  0  0  0  0  0  0  0  0  0
   -2.2782   -0.3381   -0.1220 C   0  0  0  0  0  0  0  0  0  0  0  0
   -2.3812   -0.4209    1.2870 C   0  0  0  0  0  0  0  0  0  0  0  0
   -3.6455   -0.1768    1.8657 C   0  0  0  0  0  0  0  0  0  0  0  0
   -3.7354   -0.2346    2.9626 H   0  0  0  0  0  0  0  0  0  0  0  0
   -4.7772    0.1454    1.1035 C   0  0  0  0  0  0  0  0  0  0  0  0
   -4.6247    0.2402   -0.2921 C   0  0  0  0  0  0  0  0  0  0  0  0
   -5.4935    0.5124   -0.9134 H   0  0  0  0  0  0  0  0  0  0  0  0
   -3.3937    0.0148   -0.9292 C   0  0  0  0  0  0  0  0  0  0  0  0
   -1.2341   -0.7438    2.2078 C   0  0  0  0  0  0  0  0  0  0  0  0
   -0.2681   -0.3505    1.8169 H   0  0  0  0  0  0  0  0  0  0  0  0
   -1.1189   -1.8410    2.3487 H   0  0  0  0  0  0  0  0  0  0  0  0
   -1.4059   -0.3107    3.2114 H   0  0  0  0  0  0  0  0  0  0  0  0
   -6.1160    0.3969    1.7491 C   0  0  0  0  0  0  0  0  0  0  0  0
   -6.8724   -0.3385    1.4030 H   0  0  0  0  0  0  0  0  0  0  0  0
   -6.5056    1.4024    1.4871 H   0  0  0  0  0  0  0  0  0  0  0  0
   -6.0583    0.3303    2.8526 H   0  0  0  0  0  0  0  0  0  0  0  0
   -3.2870    0.1980   -2.4221 C   0  0  0  0  0  0  0  0  0  0  0  0
   -2.9152   -0.7143   -2.9317 H   0  0  0  0  0  0  0  0  0  0  0  0
   -2.5709    1.0149   -2.6466 H   0  0  0  0  0  0  0  0  0  0  0  0
   -4.2713    0.4571   -2.8562 H   0  0  0  0  0  0  0  0  0  0  0  0
  1  3  1  0  0  0  0
  1 17  1  0  0  0  0
  2  9  1  0  0  0  0
  3  4  1  0  0  0  0
  5  3  1  0  0  0  0
  6  7  1  0  0  0  0
  6  3  1  0  0  0  0
  6  2  1  0  0  0  0
  8  6  1  0  0  0  0
  9 12  1  0  0  0  0
  9 10  1  0  0  0  0
  9 11  1  0  0  0  0
 13  2  1  0  0  0  0
 13 14  1  0  0  0  0
 15 13  1  0  0  0  0
 16 13  1  0  0  0  0
 17 18  1  0  0  0  0
 18 19  2  0  0  0  0
 18 25  1  0  0  0  0
 19 20  1  0  0  0  0
 21 29  1  0  0  0  0
 21 19  1  0  0  0  0
 22 21  2  0  0  0  0
 23 22  1  0  0  0  0
 24 22  1  0  0  0  0
 24 17  2  0  0  0  0
 25 27  1  0  0  0  0
 25 28  1  0  0  0  0
 26 25  1  0  0  0  0
 29 32  1  0  0  0  0
 30 29  1  0  0  0  0
 31 29  1  0  0  0  0
 33 24  1  0  0  0  0
 34 33  1  0  0  0  0
 35 33  1  0  0  0  0
 36 33  1  0  0  0  0
M  END
