10
q = 0.0, confidence = 1.0

 34 35  0  0  1  0  0  0  0  0999 V2000
   -1.5585    3.2172   -4.4339 O   0  0  0  0  0  0  0  0  0  0  0  0
   -6.6187   -2.3207    2.9803 O   0  0  0  0  0  0  0  0  0  0  0  0
   -1.6638    1.8405   -2.6094 N   0  0  0  0  0  0  0  0  0  0  0  0
   -0.2673    1.8648   -2.5054 N   0  0  0  0  0  0  0  0  0  0  0  0
    0.0205    2.7857   -2.8789 H   0  0  0  0  0  0  0  0  0  0  0  0
    0.1142    1.1760   -3.1750 H   0  0  0  0  0  0  0  0  0  0  0  0
   -4.4243    1.8100   -2.8231 N   0  0  0  0  0  0  0  0  0  0  0  0
   -3.7550    1.1928   -1.8415 N   0  0  0  0  0  0  0  0  0  0  0  0
   -4.2876    0.6720   -1.1303 H   0  0  0  0  0  0  0  0  0  0  0  0
   -1.8394    0.5684   -0.6111 N   0  0  0  0  0  2  0  0  0  0  0  0
   -2.7635   -0.0599    0.1915 N   0  0  0  0  0  0  0  0  0  0  0  0
   -2.4005    1.1803   -1.6414 C   0  0  1  0  0  3  0  0  0  0  0  0
   -2.2658    2.5822   -3.6648 C   0  0  0  0  0  0  0  0  0  0  0  0
   -3.7439    2.4922   -3.7086 C   0  0  0  0  0  0  0  0  0  0  0  0
   -4.4529    3.2023   -4.8129 C   0  0  0  0  0  0  0  0  0  0  0  0
   -5.5422    3.0447   -4.7250 H   0  0  0  0  0  0  0  0  0  0  0  0
   -4.1013    2.8387   -5.8003 H   0  0  0  0  0  0  0  0  0  0  0  0
   -4.2279    4.2882   -4.7841 H   0  0  0  0  0  0  0  0  0  0  0  0
   -2.2926   -0.6643    1.2379 C   0  0  0  0  0  0  0  0  0  0  0  0
   -1.1906   -0.6417    1.4222 H   0  0  0  0  0  0  0  0  0  0  0  0
   -3.1134   -1.3837    2.2004 C   0  0  0  0  0  0  0  0  0  0  0  0
   -4.5214   -1.4692    2.0620 C   0  0  0  0  0  0  0  0  0  0  0  0
   -4.9960   -0.9775    1.2041 H   0  0  0  0  0  0  0  0  0  0  0  0
   -5.2736   -2.1754    3.0145 C   0  0  0  0  0  0  0  0  0  0  0  0
   -4.6169   -2.7965    4.1078 C   0  0  0  0  0  0  0  0  0  0  0  0
   -5.2323   -3.3421    4.8376 H   0  0  0  0  0  0  0  0  0  0  0  0
   -3.2300   -2.7097    4.2393 C   0  0  0  0  0  0  0  0  0  0  0  0
   -2.7344   -3.1977    5.0914 H   0  0  0  0  0  0  0  0  0  0  0  0
   -2.4695   -2.0063    3.2920 C   0  0  0  0  0  0  0  0  0  0  0  0
   -1.3756   -1.9395    3.3925 H   0  0  0  0  0  0  0  0  0  0  0  0
   -7.3400   -1.7273    1.9137 C   0  0  0  0  0  0  0  0  0  0  0  0
   -8.4044   -1.9701    2.0839 H   0  0  0  0  0  0  0  0  0  0  0  0
   -7.0273   -2.1378    0.9278 H   0  0  0  0  0  0  0  0  0  0  0  0
   -7.2179   -0.6213    1.9005 H   0  0  0  0  0  0  0  0  0  0  0  0
  1 13  2  0  0  0  0
  2 24  1  0  0  0  0
  3  4  1  0  0  0  0
  3 12  1  0  0  0  0
  5  4  1  0  0  0  0
  6  4  1  0  0  0  0
  7  8  1  0  0  0  0
  8 12  1  0  0  0  0
  8  9  1  0  0  0  0
 10 11  1  0  0  0  0
 11 19  2  0  0  0  0
 12 10  1  6  0  0  0
 13  3  1  0  0  0  0
 14 13  1  0  0  0  0
 14  7  2  0  0  0  0
 15 18  1  0  0  0  0
 15 16  1  0  0  0  0
 15 14  1  0  0  0  0
 17 15  1  0  0  0  0
 19 20  1  0  0  0  0
 19 21  1  0  0  0  0
 21 29  1  0  0  0  0
 22 21  2  0  0  0  0
 22 24  1  0  0  0  0
 23 22  1  0  0  0  0
 24 25  2  0  0  0  0
 25 27  1  0  0  0  0
 25 26  1  0  0  0  0
 27 28  1  0  0  0  0
 29 30  1  0  0  0  0
 29 27  2  0  0  0  0
 31 32  1  0  0  0  0
 31  2  1  0  0  0  0
 33 31  1  0  0  0  0
 34 31  1  0  0  0  0
M  END
