8
q = 0.0, confidence = 1.0

 24 25  0  0  0  0  0  0  0  0999 V2000
    2.1521   -1.1425   -0.1792 C   0  0  0  0  0  3  0  0  0  0  0  0
    1.8594   -2.0887    0.3013 H   0  0  0  0  0  0  0  0  0  0  0  0
    3.9821   -2.1028   -1.6208 C   0  0  0  0  0  0  0  0  0  0  0  0
    4.0865   -1.9886   -2.7209 H   0  0  0  0  0  0  0  0  0  0  0  0
    3.4507   -3.0611   -1.4485 H   0  0  0  0  0  0  0  0  0  0  0  0
    3.8318    2.4006   -2.4608 C   0  0  0  0  0  0  0  0  0  0  0  0
    4.4457    2.9879   -3.1600 H   0  0  0  0  0  0  0  0  0  0  0  0
    1.5998    0.0262    0.1189 N   0  0  0  0  0  2  0  0  0  0  0  0
    4.0239    1.0149   -2.3841 C   0  0  0  0  0  0  0  0  0  0  0  0
    4.7751    0.5059   -3.0051 H   0  0  0  0  0  0  0  0  0  0  0  0
    3.2133    0.3186   -1.4729 C   0  0  0  0  0  0  0  0  0  0  0  0
    5.3599   -2.1247   -0.9487 C   0  0  0  0  0  0  0  0  0  0  0  0
    5.8493   -1.1388   -1.0979 H   0  0  0  0  0  0  0  0  0  0  0  0
    5.2163   -2.2348    0.1473 H   0  0  0  0  0  0  0  0  0  0  0  0
    3.1231   -1.0316   -1.1360 N   0  0  0  0  0  0  0  0  0  0  0  0
    2.2409    0.9773   -0.6675 C   0  0  0  0  0  0  0  0  0  0  0  0
    2.0680    2.3712   -0.7460 C   0  0  0  0  0  0  0  0  0  0  0  0
    1.3433    2.8705   -0.0855 H   0  0  0  0  0  0  0  0  0  0  0  0
    2.8755    3.0653   -1.6536 C   0  0  0  0  0  0  0  0  0  0  0  0
    2.7726    4.1573   -1.7386 H   0  0  0  0  0  0  0  0  0  0  0  0
    6.2470   -3.2457   -1.4878 C   0  0  0  0  0  0  0  0  0  0  0  0
    5.7883   -4.2428   -1.3231 H   0  0  0  0  0  0  0  0  0  0  0  0
    7.2355   -3.2482   -0.9887 H   0  0  0  0  0  0  0  0  0  0  0  0
    6.4240   -3.1368   -2.5781 H   0  0  0  0  0  0  0  0  0  0  0  0
  1  8  1  0  0  0  0
  1  2  1  0  0  0  0
  3  5  1  0  0  0  0
  3 15  1  0  0  0  0
  3 12  1  0  0  0  0
  4  3  1  0  0  0  0
  6  9  2  0  0  0  0
  6 19  1  0  0  0  0
  7  6  1  0  0  0  0
  9 11  1  0  0  0  0
 10  9  1  0  0  0  0
 11 15  1  0  0  0  0
 11 16  2  0  0  0  0
 12 14  1  0  0  0  0
 13 12  1  0  0  0  0
 15  1  1  0  0  0  0
 16  8  1  0  0  0  0
 17 16  1  0  0  0  0
 17 18  1  0  0  0  0
 19 17  2  0  0  0  0
 20 19  1  0  0  0  0
 21 22  1  0  0  0  0
 21 23  1  0  0  0  0
 21 12  1  0  0  0  0
 24 21  1  0  0  0  0
M  END
