4
q = 0.0, confidence = 1.0

 28 29  0  0  1  0  0  0  0  0999 V2000
    2.2845   -1.4242    0.9699 N   0  0  0  0  0  0  0  0  0  0  0  0
    0.9521   -1.4512    0.9200 C   0  0  0  0  0  0  0  0  0  0  0  0
    0.3360   -2.2518    1.3490 H   0  0  0  0  0  0  0  0  0  0  0  0
    0.3768   -0.3596    0.3369 N   0  0  0  0  0  2  0  0  0  0  0  0
    1.4139    0.4357   -0.0083 C   0  0  2  0  0  3  0  0  0  0  0  0
    1.4308    1.6184   -0.6215 N   0  0  0  0  0  0  0  0  0  0  0  0
    2.6240    2.1904   -0.8109 C   0  0  0  0  0  0  0  0  0  0  0  0
    3.8378    1.5618   -0.3994 C   0  0  0  0  0  0  0  0  0  0  0  0
    4.8041    2.0566   -0.5672 H   0  0  0  0  0  0  0  0  0  0  0  0
    3.8248    0.3130    0.2098 C   0  0  0  0  0  0  0  0  0  0  0  0
    2.5806   -0.2323    0.3955 N   0  0  0  0  0  0  0  0  0  0  0  0
    2.6350    3.5443   -1.4640 C   0  0  0  0  0  0  0  0  0  0  0  0
    1.9747    3.5458   -2.3533 H   0  0  0  0  0  0  0  0  0  0  0  0
    3.6520    3.8591   -1.7621 H   0  0  0  0  0  0  0  0  0  0  0  0
    2.2258    4.3001   -0.7612 H   0  0  0  0  0  0  0  0  0  0  0  0
    5.0275   -0.4714    0.6281 C   0  0  0  0  0  0  0  0  0  0  0  0
    4.7260   -1.1806    1.4251 H   0  0  0  0  0  0  0  0  0  0  0  0
    5.7686    0.2333    1.0564 H   0  0  0  0  0  0  0  0  0  0  0  0
    5.6960   -1.2564   -0.5337 C   0  0  0  0  0  0  0  0  0  0  0  0
    6.0333   -0.5039   -1.2829 H   0  0  0  0  0  0  0  0  0  0  0  0
    6.9316   -1.9936   -0.0065 C   0  0  0  0  0  0  0  0  0  0  0  0
    7.4618   -2.5156   -0.8281 H   0  0  0  0  0  0  0  0  0  0  0  0
    6.6430   -2.7573    0.7458 H   0  0  0  0  0  0  0  0  0  0  0  0
    7.6503   -1.3000    0.4756 H   0  0  0  0  0  0  0  0  0  0  0  0
    4.7222   -2.2153   -1.2272 C   0  0  0  0  0  0  0  0  0  0  0  0
    5.2346   -2.7716   -2.0377 H   0  0  0  0  0  0  0  0  0  0  0  0
    3.8652   -1.6793   -1.6835 H   0  0  0  0  0  0  0  0  0  0  0  0
    4.3081   -2.9518   -0.5090 H   0  0  0  0  0  0  0  0  0  0  0  0
  2  1  2  0  0  0  0
  2  3  1  0  0  0  0
  4  2  1  0  0  0  0
  5  6  1  6  0  0  0
  5  4  1  0  0  0  0
  5 11  1  0  0  0  0
  7  6  2  0  0  0  0
  7  8  1  0  0  0  0
  8 10  2  0  0  0  0
  9  8  1  0  0  0  0
 10 11  1  0  0  0  0
 10 16  1  0  0  0  0
 11  1  1  0  0  0  0
 12  7  1  0  0  0  0
 12 15  1  0  0  0  0
 13 12  1  0  0  0  0
 14 12  1  0  0  0  0
 16 18  1  0  0  0  0
 16 17  1  0  0  0  0
 19 21  1  0  0  0  0
 19 16  1  0  0  0  0
 20 19  1  0  0  0  0
 21 24  1  0  0  0  0
 21 23  1  0  0  0  0
 22 21  1  0  0  0  0
 25 19  1  0  0  0  0
 25 28  1  0  0  0  0
 26 25  1  0  0  0  0
 27 25  1  0  0  0  0
M  END
