5
q = -1.0

 48 50  0  0  1  0  0  0  0  0999 V2000
   -0.7571   -0.6137    1.7993 N   0  0  0  0  0  0  0  0  0  0  0  0
   -0.7146   -1.5910    2.0946 H   0  0  0  0  0  0  0  0  0  0  0  0
   -2.5244   -1.2796    0.4350 N   0  0  0  0  0  0  0  0  0  0  0  0
   -2.1866    1.0109    0.8888 N   0  0  0  0  0  0  0  0  0  0  0  0
    2.3203   -0.7470    0.6051 N   0  0  0  0  0  2  0  0  0  0  0  0
   -1.8127   -0.2817    1.0155 C   0  0  0  0  0  3  0  0  0  0  0  0
   -3.9849   -1.2198    0.3025 C   0  0  0  0  0  0  0  0  0  0  0  0
   -4.3283   -0.2108    0.5925 H   0  0  0  0  0  0  0  0  0  0  0  0
   -4.4183   -1.9370    1.0405 H   0  0  0  0  0  0  0  0  0  0  0  0
   -4.4512   -1.6067   -1.1012 C   0  0  0  0  0  0  0  0  0  0  0  0
   -4.1061   -0.8404   -1.8269 H   0  0  0  0  0  0  0  0  0  0  0  0
   -5.5604   -1.6040   -1.1240 H   0  0  0  0  0  0  0  0  0  0  0  0
   -3.8903   -2.9799   -1.4877 C   0  0  0  0  0  0  0  0  0  0  0  0
   -4.3349   -3.7571   -0.8247 H   0  0  0  0  0  0  0  0  0  0  0  0
   -4.1871   -3.2432   -2.5232 H   0  0  0  0  0  0  0  0  0  0  0  0
   -2.3655   -2.9843   -1.3544 C   0  0  0  0  0  0  0  0  0  0  0  0
   -1.9070   -2.2836   -2.0833 H   0  0  0  0  0  0  0  0  0  0  0  0
   -1.9483   -3.9909   -1.5624 H   0  0  0  0  0  0  0  0  0  0  0  0
   -1.8985   -2.5502    0.0397 C   0  0  0  0  0  0  0  0  0  0  0  0
   -2.1465   -3.3341    0.7958 H   0  0  0  0  0  0  0  0  0  0  0  0
   -0.8048   -2.3847    0.0111 H   0  0  0  0  0  0  0  0  0  0  0  0
   -2.0981    1.9777    1.9960 C   0  0  0  0  0  0  0  0  0  0  0  0
   -1.6517    1.4715    2.8720 H   0  0  0  0  0  0  0  0  0  0  0  0
   -3.1476    2.2383    2.2749 H   0  0  0  0  0  0  0  0  0  0  0  0
   -1.3413    3.2488    1.6120 C   0  0  0  0  0  0  0  0  0  0  0  0
   -0.2675    3.0186    1.4473 H   0  0  0  0  0  0  0  0  0  0  0  0
   -1.4088    3.9675    2.4550 H   0  0  0  0  0  0  0  0  0  0  0  0
   -1.9072    3.8510    0.3205 C   0  0  0  0  0  0  0  0  0  0  0  0
   -2.9378    4.2370    0.4989 H   0  0  0  0  0  0  0  0  0  0  0  0
   -1.2872    4.7155    0.0095 H   0  0  0  0  0  0  0  0  0  0  0  0
   -1.9222    2.7946   -0.7874 C   0  0  0  0  0  0  0  0  0  0  0  0
   -0.8816    2.4846   -1.0205 H   0  0  0  0  0  0  0  0  0  0  0  0
   -2.3692    3.1955   -1.7203 H   0  0  0  0  0  0  0  0  0  0  0  0
   -2.7104    1.5476   -0.3789 C   0  0  0  0  0  0  0  0  0  0  0  0
   -3.7936    1.7868   -0.2583 H   0  0  0  0  0  0  0  0  0  0  0  0
   -2.5838    0.7633   -1.1475 H   0  0  0  0  0  0  0  0  0  0  0  0
    0.4760    0.1639    1.9534 C   0  0  0  0  0  0  0  0  0  0  0  0
    0.5058    0.6487    2.9532 H   0  0  0  0  0  0  0  0  0  0  0  0
    0.5143    0.9664    1.1859 H   0  0  0  0  0  0  0  0  0  0  0  0
    1.6910   -0.7260    1.8001 C   0  0  1  0  0  3  0  0  0  0  0  0
    2.1295   -1.5275    2.8700 C   0  0  0  0  0  0  0  0  0  0  0  0
    1.6173   -1.4686    3.8430 H   0  0  0  0  0  0  0  0  0  0  0  0
    3.2280   -2.3797    2.6866 C   0  0  0  0  0  0  0  0  0  0  0  0
    3.5873   -3.0127    3.5124 H   0  0  0  0  0  0  0  0  0  0  0  0
    3.8638   -2.3963    1.4391 C   0  0  0  0  0  0  0  0  0  0  0  0
    4.7330   -3.0417    1.2468 H   0  0  0  0  0  0  0  0  0  0  0  0
    3.3831   -1.5547    0.4260 C   0  0  0  0  0  0  0  0  0  0  0  0
    3.8474   -1.4806   -0.5776 H   0  0  0  0  0  0  0  0  0  0  0  0
  1 37  1  0  0  0  0
  1  2  1  0  0  0  0
  3  6  1  0  0  0  0
  4  6  1  0  0  0  0
  4 22  1  0  0  0  0
  5 40  1  0  0  0  0
  6  1  1  0  0  0  0
  7  3  1  0  0  0  0
  7  8  1  0  0  0  0
  7  9  1  0  0  0  0
 10  7  1  0  0  0  0
 11 10  1  0  0  0  0
 12 10  1  0  0  0  0
 13 16  1  0  0  0  0
 13 10  1  0  0  0  0
 13 14  1  0  0  0  0
 15 13  1  0  0  0  0
 16 19  1  0  0  0  0
 17 16  1  0  0  0  0
 18 16  1  0  0  0  0
 19  3  1  0  0  0  0
 19 20  1  0  0  0  0
 21 19  1  0  0  0  0
 22 24  1  0  0  0  0
 22 23  1  0  0  0  0
 25 22  1  0  0  0  0
 25 27  1  0  0  0  0
 26 25  1  0  0  0  0
 28 29  1  0  0  0  0
 28 25  1  0  0  0  0
 30 28  1  0  0  0  0
 31 34  1  0  0  0  0
 31 28  1  0  0  0  0
 32 31  1  0  0  0  0
 33 31  1  0  0  0  0
 34 35  1  0  0  0  0
 34  4  1  0  0  0  0
 36 34  1  0  0  0  0
 37 38  1  0  0  0  0
 39 37  1  0  0  0  0
 40 37  1  6  0  0  0
 40 41  1  0  0  0  0
 41 42  1  0  0  0  0
 43 41  2  0  0  0  0
 43 44  1  0  0  0  0
 45 43  1  0  0  0  0
 46 45  1  0  0  0  0
 47  5  1  0  0  0  0
 47 45  2  0  0  0  0
 48 47  1  0  0  0  0
M  END
