2
q = 0, confidence = 1.0

 33 32  0  0  0  0  0  0  0  0999 V2000
    2.5459   -1.1573    0.1037 P   0  0  0  0  0  4  0  0  0  0  0  0
    1.1027   -1.4390   -0.6263 N   0  0  0  0  0  2  0  0  0  0  0  0
    3.4918   -2.7642    0.1388 C   0  0  0  0  0  0  0  0  0  0  0  0
    3.4730   -3.4844   -1.2169 C   0  0  0  0  0  0  0  0  0  0  0  0
    4.9061   -2.6426    0.7176 C   0  0  0  0  0  0  0  0  0  0  0  0
    2.4481   -0.5897    1.8852 C   0  0  0  0  0  0  0  0  0  0  0  0
    1.8530   -1.6884    2.7760 C   0  0  0  0  0  0  0  0  0  0  0  0
    1.6296    0.7052    1.9717 C   0  0  0  0  0  0  0  0  0  0  0  0
    3.4048    0.1923   -0.8182 C   0  0  0  0  0  0  0  0  0  0  0  0
    4.6057    0.8288   -0.1124 C   0  0  0  0  0  0  0  0  0  0  0  0
    3.6997   -0.2112   -2.2670 C   0  0  0  0  0  0  0  0  0  0  0  0
    0.7782   -2.3928   -0.3954 H   0  0  0  0  0  0  0  0  0  0  0  0
    2.8733   -3.3624    0.8452 H   0  0  0  0  0  0  0  0  0  0  0  0
    4.1572   -3.0036   -1.9422 H   0  0  0  0  0  0  0  0  0  0  0  0
    2.4612   -3.4912   -1.6650 H   0  0  0  0  0  0  0  0  0  0  0  0
    3.8052   -4.5348   -1.0866 H   0  0  0  0  0  0  0  0  0  0  0  0
    5.5751   -2.0839    0.0329 H   0  0  0  0  0  0  0  0  0  0  0  0
    4.9252   -2.1371    1.7033 H   0  0  0  0  0  0  0  0  0  0  0  0
    5.3458   -3.6522    0.8530 H   0  0  0  0  0  0  0  0  0  0  0  0
    3.4966   -0.3897    2.1980 H   0  0  0  0  0  0  0  0  0  0  0  0
    0.8492   -1.9960    2.4161 H   0  0  0  0  0  0  0  0  0  0  0  0
    1.7271   -1.3033    3.8084 H   0  0  0  0  0  0  0  0  0  0  0  0
    2.4965   -2.5885    2.8367 H   0  0  0  0  0  0  0  0  0  0  0  0
    2.0757    1.5469    1.4071 H   0  0  0  0  0  0  0  0  0  0  0  0
    1.5249    1.0185    3.0302 H   0  0  0  0  0  0  0  0  0  0  0  0
    0.6090    0.5340    1.5576 H   0  0  0  0  0  0  0  0  0  0  0  0
    2.5669    0.9284   -0.8732 H   0  0  0  0  0  0  0  0  0  0  0  0
    5.4602    0.1304   -0.0081 H   0  0  0  0  0  0  0  0  0  0  0  0
    4.9609    1.6907   -0.7140 H   0  0  0  0  0  0  0  0  0  0  0  0
    4.3543    1.2190    0.8927 H   0  0  0  0  0  0  0  0  0  0  0  0
    2.8248   -0.7141   -2.7213 H   0  0  0  0  0  0  0  0  0  0  0  0
    4.5838   -0.8769   -2.3443 H   0  0  0  0  0  0  0  0  0  0  0  0
    3.9103    0.6988   -2.8650 H   0  0  0  0  0  0  0  0  0  0  0  0
  1  3  1  0  0  0  0
  1  6  1  0  0  0  0
  2 12  1  0  0  0  0
  2  1  1  0  0  0  0
  3  5  1  0  0  0  0
  3 13  1  0  0  0  0
  4 16  1  0  0  0  0
  4  3  1  0  0  0  0
  5 19  1  0  0  0  0
  5 18  1  0  0  0  0
  6  8  1  0  0  0  0
  6 20  1  0  0  0  0
  6  7  1  0  0  0  0
  7 23  1  0  0  0  0
  7 22  1  0  0  0  0
  8 25  1  0  0  0  0
  9 10  1  0  0  0  0
  9  1  1  0  0  0  0
 10 28  1  0  0  0  0
 10 30  1  0  0  0  0
 11  9  1  0  0  0  0
 14  4  1  0  0  0  0
 15  4  1  0  0  0  0
 17  5  1  0  0  0  0
 21  7  1  0  0  0  0
 24  8  1  0  0  0  0
 26  8  1  0  0  0  0
 27  9  1  0  0  0  0
 29 10  1  0  0  0  0
 31 11  1  0  0  0  0
 32 11  1  0  0  0  0
 33 11  1  0  0  0  0
M  END
