3
q = 0.0, confidence = 0.988

 11 11  0  0  0  0  0  0  0  0999 V2000
   -3.7221   -2.7237   -1.9408 Cl  0  0  0  0  0  0  0  0  0  0  0  0
   -3.7219    2.7252   -1.9385 Cl  0  0  0  0  0  0  0  0  0  0  0  0
   -1.6041   -0.0001    0.0270 N   0  0  0  0  0  2  0  0  0  0  0  0
   -2.0893   -1.1709   -0.4202 C   0  0  0  0  0  3  0  0  0  0  0  0
   -1.6559   -2.0859    0.0198 H   0  0  0  0  0  0  0  0  0  0  0  0
   -3.1148   -1.2019   -1.3796 C   0  0  0  0  0  0  0  0  0  0  0  0
   -3.6418    0.0007   -1.8755 C   0  0  0  0  0  0  0  0  0  0  0  0
   -4.4455    0.0011   -2.6244 H   0  0  0  0  0  0  0  0  0  0  0  0
   -3.1147    1.2030   -1.3785 C   0  0  0  0  0  0  0  0  0  0  0  0
   -2.0892    1.1710   -0.4192 C   0  0  0  0  0  0  0  0  0  0  0  0
   -1.6556    2.0857    0.0214 H   0  0  0  0  0  0  0  0  0  0  0  0
  1  6  1  0  0  0  0
  2  9  1  0  0  0  0
  4  5  1  0  0  0  0
  4  3  1  0  0  0  0
  6  4  1  0  0  0  0
  7  6  2  0  0  0  0
  7  9  1  0  0  0  0
  8  7  1  0  0  0  0
  9 10  2  0  0  0  0
 10 11  1  0  0  0  0
 10  3  1  0  0  0  0
M  END
