1
q = -1.0

 25 26  0  0  0  0  0  0  0  0999 V2000
    0.4609    1.3144    0.9374 N   0  0  0  0  0  2  0  0  0  0  0  0
    0.8315    0.6718    1.6588 H   0  0  0  0  0  0  0  0  0  0  0  0
    2.8197   -0.0477    0.4228 N   0  0  0  0  0  0  0  0  0  0  0  0
    2.0145   -0.4240    0.9379 H   0  0  0  0  0  0  0  0  0  0  0  0
    1.4777    1.9599    0.2597 C   0  0  0  0  0  0  0  0  0  0  0  0
    1.2942    3.2663   -0.2519 C   0  0  0  0  0  0  0  0  0  0  0  0
    0.3150    3.7424   -0.1002 H   0  0  0  0  0  0  0  0  0  0  0  0
    2.3410    3.9436   -0.8738 C   0  0  0  0  0  0  0  0  0  0  0  0
    2.1954    4.9676   -1.2462 H   0  0  0  0  0  0  0  0  0  0  0  0
    3.6011    3.3170   -0.9795 C   0  0  0  0  0  0  0  0  0  0  0  0
    4.4477    3.8621   -1.4237 H   0  0  0  0  0  0  0  0  0  0  0  0
    3.8026    2.0113   -0.5269 C   0  0  0  0  0  0  0  0  0  0  0  0
    4.7953    1.5526   -0.6118 H   0  0  0  0  0  0  0  0  0  0  0  0
    2.7374    1.2787    0.0531 C   0  0  0  0  0  0  0  0  0  0  0  0
    3.7980   -1.0220    0.1636 C   0  0  0  0  0  0  0  0  0  0  0  0
    3.8638   -2.1216    1.0520 C   0  0  0  0  0  0  0  0  0  0  0  0
    3.1779   -2.1558    1.9130 H   0  0  0  0  0  0  0  0  0  0  0  0
    4.7814   -3.1543    0.8360 C   0  0  0  0  0  0  0  0  0  0  0  0
    4.8166   -4.0000    1.5392 H   0  0  0  0  0  0  0  0  0  0  0  0
    5.6542   -3.1123   -0.2641 C   0  0  0  0  0  0  0  0  0  0  0  0
    6.3812   -3.9208   -0.4291 H   0  0  0  0  0  0  0  0  0  0  0  0
    5.5762   -2.0343   -1.1588 C   0  0  0  0  0  0  0  0  0  0  0  0
    6.2330   -2.0025   -2.0414 H   0  0  0  0  0  0  0  0  0  0  0  0
    4.6543   -0.9970   -0.9602 C   0  0  0  0  0  0  0  0  0  0  0  0
    4.5725   -0.1931   -1.7023 H   0  0  0  0  0  0  0  0  0  0  0  0
  1  2  1  0  0  0  0
  3  4  1  0  0  0  0
  5  1  1  0  0  0  0
  6  7  1  0  0  0  0
  6  5  2  0  0  0  0
  8  6  1  0  0  0  0
  9  8  1  0  0  0  0
 10  8  2  0  0  0  0
 10 12  1  0  0  0  0
 11 10  1  0  0  0  0
 12 14  2  0  0  0  0
 13 12  1  0  0  0  0
 14  5  1  0  0  0  0
 14  3  1  0  0  0  0
 15  3  1  0  0  0  0
 15 16  1  0  0  0  0
 16 17  1  0  0  0  0
 18 16  2  0  0  0  0
 18 19  1  0  0  0  0
 20 18  1  0  0  0  0
 21 20  1  0  0  0  0
 22 24  1  0  0  0  0
 22 20  2  0  0  0  0
 23 22  1  0  0  0  0
 24 15  2  0  0  0  0
 25 24  1  0  0  0  0
M  END
