1
q = 0.0, confidence = 1.0

 17 18  0  0  0  0  0  0  0  0999 V2000
   -1.5270    1.4165   -0.7282 N   0  0  0  0  0  2  0  0  0  0  0  0
   -1.3078    2.5495   -1.4448 N   0  0  0  0  0  0  0  0  0  0  0  0
   -2.3671    3.2889   -1.4516 N   0  0  0  0  0  0  0  0  0  0  0  0
   -3.3137    2.6264   -0.7218 N   0  0  0  0  0  0  0  0  0  0  0  0
   -2.7768    1.4647   -0.2857 C   0  0  0  0  0  3  0  0  0  0  0  0
   -3.2910    0.7151    0.3306 H   0  0  0  0  0  0  0  0  0  0  0  0
   -4.6092    3.1651   -0.4738 C   0  0  0  0  0  0  0  0  0  0  0  0
   -5.1301    4.1325   -1.3498 C   0  0  0  0  0  0  0  0  0  0  0  0
   -6.4052    4.6561   -1.0996 C   0  0  0  0  0  0  0  0  0  0  0  0
   -7.1516    4.2139    0.0050 C   0  0  0  0  0  0  0  0  0  0  0  0
   -6.6139    3.2483    0.8710 C   0  0  0  0  0  0  0  0  0  0  0  0
   -5.3357    2.7195    0.6453 C   0  0  0  0  0  0  0  0  0  0  0  0
   -4.9042    1.9811    1.3426 H   0  0  0  0  0  0  0  0  0  0  0  0
   -7.1880    2.9057    1.7448 H   0  0  0  0  0  0  0  0  0  0  0  0
   -8.1539    4.6268    0.1935 H   0  0  0  0  0  0  0  0  0  0  0  0
   -6.8205    5.4146   -1.7799 H   0  0  0  0  0  0  0  0  0  0  0  0
   -4.5286    4.4604   -2.2082 H   0  0  0  0  0  0  0  0  0  0  0  0
  1  5  1  0  0  0  0
  2  1  1  0  0  0  0
  3  2  2  0  0  0  0
  3  4  1  0  0  0  0
  4  7  1  0  0  0  0
  4  5  1  0  0  0  0
  5  6  1  0  0  0  0
  7 12  1  0  0  0  0
  8  9  1  0  0  0  0
  8  7  2  0  0  0  0
  9 10  2  0  0  0  0
 10 15  1  0  0  0  0
 10 11  1  0  0  0  0
 11 14  1  0  0  0  0
 12 11  2  0  0  0  0
 12 13  1  0  0  0  0
 16  9  1  0  0  0  0
 17  8  1  0  0  0  0
M  END
