4
q = 0.0, confidence = 0.968

 14 14  0  0  0  0  0  0  0  0999 V2000
    5.8558    0.9799   -0.2350 F   0  0  0  0  0  0  0  0  0  0  0  0
    5.9784   -0.1694    1.6145 F   0  0  0  0  0  0  0  0  0  0  0  0
    6.2217   -1.1693   -0.3150 F   0  0  0  0  0  0  0  0  0  0  0  0
    1.2690   -0.7526    0.0970 N   0  0  0  0  0  2  0  0  0  0  0  0
    2.0780   -1.2848   -0.8438 C   0  0  0  0  0  3  0  0  0  0  0  0
    1.5696   -1.8636   -1.6304 H   0  0  0  0  0  0  0  0  0  0  0  0
    3.4695   -1.1433   -0.7955 C   0  0  0  0  0  0  0  0  0  0  0  0
    4.0972   -1.5846   -1.5818 H   0  0  0  0  0  0  0  0  0  0  0  0
    4.0422   -0.4421    0.2754 C   0  0  0  0  0  0  0  0  0  0  0  0
    3.2017    0.0772    1.2733 C   0  0  0  0  0  0  0  0  0  0  0  0
    3.6144    0.6047    2.1441 H   0  0  0  0  0  0  0  0  0  0  0  0
    1.8216   -0.0993    1.1399 C   0  0  0  0  0  0  0  0  0  0  0  0
    1.1190    0.2863    1.8946 H   0  0  0  0  0  0  0  0  0  0  0  0
    5.5366   -0.2063    0.3373 C   0  0  0  0  0  0  0  0  0  0  0  0
  1 14  1  0  0  0  0
  3 14  1  0  0  0  0
  4 12  1  0  0  0  0
  5  7  1  0  0  0  0
  5  4  1  0  0  0  0
  6  5  1  0  0  0  0
  7  9  2  0  0  0  0
  8  7  1  0  0  0  0
  9 14  1  0  0  0  0
  9 10  1  0  0  0  0
 10 11  1  0  0  0  0
 12 10  2  0  0  0  0
 12 13  1  0  0  0  0
 14  2  1  0  0  0  0
M  END
