27
q = 0.0, confidence = 0.996

 31 32  0  0  1  0  0  0  0  0999 V2000
   -7.4907   -3.0503   -0.1140 Br  0  0  0  0  0  0  0  0  0  0  0  0
   -0.2612    2.3726   -0.0835 C   0  0  1  0  0  3  0  0  0  0  0  0
   -1.5915    2.6900   -0.1374 O   0  0  0  0  0  0  0  0  0  0  0  0
   -6.3055   -1.5665   -0.0670 C   0  0  0  0  0  0  0  0  0  0  0  0
   -3.6242    1.7765    0.0599 C   0  0  0  0  0  0  0  0  0  0  0  0
   -4.9344   -1.7802    0.1588 C   0  0  0  0  0  0  0  0  0  0  0  0
   -4.5514   -2.7986    0.3121 H   0  0  0  0  0  0  0  0  0  0  0  0
   -6.8137   -0.2711   -0.2570 C   0  0  0  0  0  0  0  0  0  0  0  0
   -7.8859   -0.1203   -0.4442 H   0  0  0  0  0  0  0  0  0  0  0  0
   -2.4016    1.5384   -0.3424 N   0  0  0  0  0  2  0  0  0  0  0  0
   -4.0645   -0.6855    0.1985 C   0  0  0  0  0  0  0  0  0  0  0  0
   -2.9928   -0.8426    0.3945 H   0  0  0  0  0  0  0  0  0  0  0  0
    0.9550    5.9507   -0.0642 C   0  0  0  0  0  0  0  0  0  0  0  0
    0.6451    6.9299   -0.4592 H   0  0  0  0  0  0  0  0  0  0  0  0
    0.5798    3.5544    0.1630 C   0  0  0  0  0  0  0  0  0  0  0  0
    2.1332    5.8350    0.6916 C   0  0  0  0  0  0  0  0  0  0  0  0
    2.7454    6.7268    0.8952 H   0  0  0  0  0  0  0  0  0  0  0  0
    1.7633    3.4424    0.9230 C   0  0  0  0  0  0  0  0  0  0  0  0
    2.0705    2.4573    1.3021 H   0  0  0  0  0  0  0  0  0  0  0  0
    0.1746    4.8173   -0.3225 C   0  0  0  0  0  0  0  0  0  0  0  0
   -0.7438    4.8975   -0.9214 H   0  0  0  0  0  0  0  0  0  0  0  0
   -5.9350    0.8188   -0.2198 C   0  0  0  0  0  0  0  0  0  0  0  0
   -6.3262    1.8312   -0.4030 H   0  0  0  0  0  0  0  0  0  0  0  0
   -4.5570    0.6250    0.0093 C   0  0  0  0  0  0  0  0  0  0  0  0
    2.5304    4.5823    1.1868 C   0  0  0  0  0  0  0  0  0  0  0  0
    3.4522    4.4889    1.7797 H   0  0  0  0  0  0  0  0  0  0  0  0
    0.1018    1.1357   -0.1944 N   0  0  0  0  0  2  0  0  0  0  0  0
   -0.7415    0.5328   -0.2691 H   0  0  0  0  0  0  0  0  0  0  0  0
   -4.0854    2.9895    0.4813 N   0  0  0  0  0  4  0  0  0  0  0  0
   -3.3861    3.7186    0.6323 H   0  0  0  0  0  0  0  0  0  0  0  0
   -4.9150    3.0112    1.0725 H   0  0  0  0  0  0  0  0  0  0  0  0
  1  4  1  0  0  0  0
  2 27  1  1  0  0  0
  2 15  1  0  0  0  0
  3  2  1  0  0  0  0
  4  6  1  0  0  0  0
  5 29  2  0  0  0  0
  6 11  2  0  0  0  0
  6  7  1  0  0  0  0
  8 22  1  0  0  0  0
  8  4  2  0  0  0  0
  9  8  1  0  0  0  0
 10  3  1  0  0  0  0
 10  5  1  0  0  0  0
 11 12  1  0  0  0  0
 13 16  1  0  0  0  0
 14 13  1  0  0  0  0
 15 18  2  0  0  0  0
 16 17  1  0  0  0  0
 16 25  2  0  0  0  0
 18 25  1  0  0  0  0
 18 19  1  0  0  0  0
 20 13  2  0  0  0  0
 20 15  1  0  0  0  0
 21 20  1  0  0  0  0
 22 24  2  0  0  0  0
 23 22  1  0  0  0  0
 24  5  1  0  0  0  0
 24 11  1  0  0  0  0
 25 26  1  0  0  0  0
 28 27  1  0  0  0  0
 29 30  1  0  0  0  0
 29 31  1  0  0  0  0
M  END
