1
q = 1.0

 24 24  0  0  0  0  0  0  0  0999 V2000
   -0.7695   -1.5427   -0.4983 N   0  0  0  0  0  0  0  0  0  0  0  0
   -0.0095   -1.6152   -1.7398 C   0  0  0  0  0  0  0  0  0  0  0  0
    1.4024   -1.0408   -1.4873 C   0  0  0  0  0  0  0  0  0  0  0  0
    1.6707   -0.9019   -0.0157 N   0  3  0  0  0  0  0  0  0  0  0  0
    1.2853   -2.1516    0.7137 C   0  0  0  0  0  0  0  0  0  0  0  0
   -0.2307   -2.4190    0.5419 C   0  0  0  0  0  0  0  0  0  0  0  0
   -0.7580   -2.1800    1.4849 H   0  0  0  0  0  0  0  0  0  0  0  0
   -0.3828   -3.4968    0.3016 H   0  0  0  0  0  0  0  0  0  0  0  0
    1.9131   -2.9701    0.3090 H   0  0  0  0  0  0  0  0  0  0  0  0
    1.5350   -1.9925    1.7782 H   0  0  0  0  0  0  0  0  0  0  0  0
    3.0683   -0.4430    0.2790 C   0  0  0  0  0  0  0  0  0  0  0  0
    3.3409    0.9818   -0.2307 C   0  0  0  0  0  0  0  0  0  0  0  0
    2.5748    1.9424    0.4237 O   0  0  0  0  0  0  0  0  0  0  0  0
    1.7017    2.0362   -0.0393 H   0  0  0  0  0  0  0  0  0  0  0  0
    4.4162    1.1719   -0.0131 H   0  0  0  0  0  0  0  0  0  0  0  0
    3.2452    1.0182   -1.3430 H   0  0  0  0  0  0  0  0  0  0  0  0
    3.7711   -1.1848   -0.1546 H   0  0  0  0  0  0  0  0  0  0  0  0
    3.1629   -0.4466    1.3825 H   0  0  0  0  0  0  0  0  0  0  0  0
    1.0416   -0.1510    0.4240 H   0  0  0  0  0  0  0  0  0  0  0  0
    1.4720   -0.0259   -1.9162 H   0  0  0  0  0  0  0  0  0  0  0  0
    2.1996   -1.6906   -1.8995 H   0  0  0  0  0  0  0  0  0  0  0  0
    0.0563   -2.6578   -2.1328 H   0  0  0  0  0  0  0  0  0  0  0  0
   -0.5208   -0.9897   -2.4966 H   0  0  0  0  0  0  0  0  0  0  0  0
   -1.7863   -1.6845   -0.6359 H   0  0  0  0  0  0  0  0  0  0  0  0
  1  6  1  0  0  0  0
  2  3  1  0  0  0  0
  2  1  1  0  0  0  0
  3  4  1  0  0  0  0
  4 11  1  0  0  0  0
  4 19  1  0  0  0  0
  4  5  1  0  0  0  0
  5 10  1  0  0  0  0
  6  5  1  0  0  0  0
  6  7  1  0  0  0  0
  8  6  1  0  0  0  0
  9  5  1  0  0  0  0
 11 18  1  0  0  0  0
 12 15  1  0  0  0  0
 12 11  1  0  0  0  0
 12 13  1  0  0  0  0
 14 13  1  0  0  0  0
 16 12  1  0  0  0  0
 17 11  1  0  0  0  0
 20  3  1  0  0  0  0
 21  3  1  0  0  0  0
 22  2  1  0  0  0  0
 23  2  1  0  0  0  0
 24  1  1  0  0  0  0
M  END
