6
q = 0.0, confidence = 0.998

 41 43  0  0  1  0  0  0  0  0999 V2000
    2.5170    2.7124   -0.7803 O   0  0  0  0  0  0  0  0  0  0  0  0
   -2.8658    2.3530   -1.1180 N   0  0  0  0  0  0  0  0  0  0  0  0
   -4.5103    0.5923   -0.9704 N   0  0  0  0  0  2  0  0  0  0  0  0
   -0.5586    1.9634   -1.2969 N   0  0  0  0  0  0  0  0  0  0  0  0
    0.1910    1.2642   -1.4730 H   0  0  0  0  0  0  0  0  0  0  0  0
   -1.3492   -1.0117   -0.6023 N   0  0  0  0  0  2  0  0  0  0  0  0
   -3.5046   -1.6029   -0.6112 N   0  0  0  0  0  0  0  0  0  0  0  0
   -4.1016    1.8642   -1.0538 C   0  0  0  0  0  0  0  0  0  0  0  0
   -3.4635   -0.2392   -0.8793 C   0  0  0  0  0  0  0  0  0  0  0  0
   -2.1034    0.1150   -0.9174 C   0  0  0  0  0  0  0  0  0  0  0  0
   -1.8080    1.5017   -1.1208 C   0  0  1  0  0  3  0  0  0  0  0  0
   -2.2166   -2.0157   -0.4336 C   0  0  0  0  0  3  0  0  0  0  0  0
   -1.9419   -3.0229   -0.1109 H   0  0  0  0  0  0  0  0  0  0  0  0
   -0.1528    3.3338   -0.9948 C   0  0  0  0  0  0  0  0  0  0  0  0
   -1.0647    3.9580   -0.9783 H   0  0  0  0  0  0  0  0  0  0  0  0
    0.5216    3.6892   -1.7971 H   0  0  0  0  0  0  0  0  0  0  0  0
   -5.3825    3.0570   -1.0762 Cl  0  0  0  0  0  0  0  0  0  0  0  0
    0.5580    3.3639    0.3440 C   0  0  0  0  0  0  0  0  0  0  0  0
    1.9313    3.0011    0.4099 C   0  0  0  0  0  0  0  0  0  0  0  0
    2.5914    2.9428    1.6537 C   0  0  0  0  0  0  0  0  0  0  0  0
    3.6421    2.6282    1.7072 H   0  0  0  0  0  0  0  0  0  0  0  0
    1.8847    3.2470    2.8284 C   0  0  0  0  0  0  0  0  0  0  0  0
    2.4093    3.2004    3.7954 H   0  0  0  0  0  0  0  0  0  0  0  0
    0.5299    3.6104    2.7789 C   0  0  0  0  0  0  0  0  0  0  0  0
   -0.0146    3.8622    3.7012 H   0  0  0  0  0  0  0  0  0  0  0  0
   -0.1237    3.6576    1.5352 C   0  0  0  0  0  0  0  0  0  0  0  0
   -1.1875    3.9391    1.4772 H   0  0  0  0  0  0  0  0  0  0  0  0
    3.9405    2.6695   -0.8715 C   0  0  0  0  0  0  0  0  0  0  0  0
    4.1605    2.4743   -1.9361 H   0  0  0  0  0  0  0  0  0  0  0  0
    4.3748    1.8501   -0.2627 H   0  0  0  0  0  0  0  0  0  0  0  0
    4.3814    3.6409   -0.5575 H   0  0  0  0  0  0  0  0  0  0  0  0
   -4.7376   -2.3561   -0.3115 C   0  0  0  0  0  0  0  0  0  0  0  0
   -5.5198   -1.8409   -0.9062 H   0  0  0  0  0  0  0  0  0  0  0  0
   -5.0708   -2.2109    1.1776 C   0  0  0  0  0  0  0  0  0  0  0  0
   -5.2205   -1.1448    1.4365 H   0  0  0  0  0  0  0  0  0  0  0  0
   -4.2488   -2.6108    1.8055 H   0  0  0  0  0  0  0  0  0  0  0  0
   -6.0041   -2.7586    1.4150 H   0  0  0  0  0  0  0  0  0  0  0  0
   -4.6188   -3.8081   -0.7701 C   0  0  0  0  0  0  0  0  0  0  0  0
   -4.3224   -3.8750   -1.8352 H   0  0  0  0  0  0  0  0  0  0  0  0
   -5.5971   -4.3125   -0.6521 H   0  0  0  0  0  0  0  0  0  0  0  0
   -3.8845   -4.3733   -0.1603 H   0  0  0  0  0  0  0  0  0  0  0  0
  1 19  1  0  0  0  0
  2  8  2  0  0  0  0
  3  9  1  0  0  0  0
  4 14  1  0  0  0  0
  5  4  1  0  0  0  0
  6 12  1  0  0  0  0
  7 12  1  0  0  0  0
  7 32  1  0  0  0  0
  8  3  1  0  0  0  0
  9  7  1  0  0  0  0
 10  9  2  0  0  0  0
 10  6  1  0  0  0  0
 11  4  1  1  0  0  0
 11  2  1  0  0  0  0
 11 10  1  0  0  0  0
 12 13  1  0  0  0  0
 14 15  1  0  0  0  0
 14 18  1  0  0  0  0
 16 14  1  0  0  0  0
 17  8  1  0  0  0  0
 18 19  2  0  0  0  0
 18 26  1  0  0  0  0
 19 20  1  0  0  0  0
 20 21  1  0  0  0  0
 20 22  2  0  0  0  0
 22 23  1  0  0  0  0
 24 22  1  0  0  0  0
 24 25  1  0  0  0  0
 26 24  2  0  0  0  0
 27 26  1  0  0  0  0
 28  1  1  0  0  0  0
 28 31  1  0  0  0  0
 28 30  1  0  0  0  0
 29 28  1  0  0  0  0
 32 34  1  0  0  0  0
 33 32  1  0  0  0  0
 34 37  1  0  0  0  0
 34 35  1  0  0  0  0
 34 36  1  0  0  0  0
 38 40  1  0  0  0  0
 38 32  1  0  0  0  0
 38 41  1  0  0  0  0
 39 38  1  0  0  0  0
M  END
