3
q = -1.0

 14 14  0  0  0  0  0  0  0  0999 V2000
    1.5267   -2.1345   -2.1254 O   0  0  0  0  0  0  0  0  0  0  0  0
    5.6979   -1.8980   -0.2741 O   0  0  0  0  0  0  0  0  0  0  0  0
    1.7857   -0.6417   -0.3625 N   0  0  0  0  0  2  0  0  0  0  0  0
    3.5684   -1.9620   -1.1412 N   0  0  0  0  0  0  0  0  0  0  0  0
    3.8873   -2.6644   -1.8152 H   0  0  0  0  0  0  0  0  0  0  0  0
    4.9431    0.1698    1.6493 C   0  0  0  0  0  0  0  0  0  0  0  0
    4.4238    0.9207    2.2762 H   0  0  0  0  0  0  0  0  0  0  0  0
    5.8015    0.6606    1.1440 H   0  0  0  0  0  0  0  0  0  0  0  0
    5.3843   -0.6032    2.3131 H   0  0  0  0  0  0  0  0  0  0  0  0
    2.2431   -1.5803   -1.2402 C   0  0  0  0  0  0  0  0  0  0  0  0
    4.5444   -1.4687   -0.2436 C   0  0  0  0  0  0  0  0  0  0  0  0
    4.0116   -0.4474    0.6504 C   0  0  0  0  0  0  0  0  0  0  0  0
    2.6825   -0.1061    0.5309 C   0  0  0  0  0  0  0  0  0  0  0  0
    2.2609    0.6553    1.2055 H   0  0  0  0  0  0  0  0  0  0  0  0
  1 10  2  0  0  0  0
  2 11  2  0  0  0  0
  3 13  1  0  0  0  0
  4 11  1  0  0  0  0
  5  4  1  0  0  0  0
  6  7  1  0  0  0  0
  6  9  1  0  0  0  0
  8  6  1  0  0  0  0
 10  4  1  0  0  0  0
 10  3  1  0  0  0  0
 11 12  1  0  0  0  0
 12  6  1  0  0  0  0
 13 12  2  0  0  0  0
 13 14  1  0  0  0  0
M  END
