1
q = -1.0

 25 24  0  0  0  0  0  0  0  0999 V2000
   -1.8377   -0.1535   -0.5051 N   0  0  0  0  0  2  0  0  0  0  0  0
   -1.7122   -1.1686    0.2805 C   0  0  0  0  0  2  0  0  0  0  0  0
   -2.7609   -2.1854    0.6700 C   0  0  0  0  0  0  0  0  0  0  0  0
   -3.7503   -1.9026    0.2489 H   0  0  0  0  0  0  0  0  0  0  0  0
   -2.9148   -2.2796    2.1953 C   0  0  0  0  0  0  0  0  0  0  0  0
   -3.6479   -3.0688    2.4600 H   0  0  0  0  0  0  0  0  0  0  0  0
   -3.2717   -1.3243    2.6288 H   0  0  0  0  0  0  0  0  0  0  0  0
   -1.9501   -2.5294    2.6773 H   0  0  0  0  0  0  0  0  0  0  0  0
   -2.3694   -3.5388    0.0494 C   0  0  0  0  0  0  0  0  0  0  0  0
   -1.4094   -3.9019    0.4663 H   0  0  0  0  0  0  0  0  0  0  0  0
   -2.2446   -3.4600   -1.0489 H   0  0  0  0  0  0  0  0  0  0  0  0
   -3.1482   -4.2995    0.2616 H   0  0  0  0  0  0  0  0  0  0  0  0
   -2.9883    0.3841   -1.2822 C   0  0  0  0  0  0  0  0  0  0  0  0
   -2.4828    1.6318   -2.0197 C   0  0  0  0  0  0  0  0  0  0  0  0
   -2.1240    2.3949   -1.3020 H   0  0  0  0  0  0  0  0  0  0  0  0
   -3.2913    2.0759   -2.6337 H   0  0  0  0  0  0  0  0  0  0  0  0
   -1.6356    1.3636   -2.6761 H   0  0  0  0  0  0  0  0  0  0  0  0
   -4.1468    0.7680   -0.3432 C   0  0  0  0  0  0  0  0  0  0  0  0
   -3.8137    1.4991    0.4191 H   0  0  0  0  0  0  0  0  0  0  0  0
   -4.5723   -0.1069    0.1837 H   0  0  0  0  0  0  0  0  0  0  0  0
   -4.9611    1.2379   -0.9308 H   0  0  0  0  0  0  0  0  0  0  0  0
   -3.4296   -0.6707   -2.3157 C   0  0  0  0  0  0  0  0  0  0  0  0
   -4.1967   -0.2362   -2.9884 H   0  0  0  0  0  0  0  0  0  0  0  0
   -3.8672   -1.5661   -1.8338 H   0  0  0  0  0  0  0  0  0  0  0  0
   -2.5592   -0.9873   -2.9227 H   0  0  0  0  0  0  0  0  0  0  0  0
  1  2  1  0  0  0  0
  2  3  1  0  0  0  0
  3  5  1  0  0  0  0
  4  3  1  0  0  0  0
  5  6  1  0  0  0  0
  5  7  1  0  0  0  0
  5  8  1  0  0  0  0
  9 12  1  0  0  0  0
  9 10  1  0  0  0  0
  9  3  1  0  0  0  0
 11  9  1  0  0  0  0
 13  1  1  0  0  0  0
 13 18  1  0  0  0  0
 14 15  1  0  0  0  0
 14 13  1  0  0  0  0
 16 14  1  0  0  0  0
 17 14  1  0  0  0  0
 18 20  1  0  0  0  0
 18 19  1  0  0  0  0
 21 18  1  0  0  0  0
 22 24  1  0  0  0  0
 22 13  1  0  0  0  0
 23 22  1  0  0  0  0
 25 22  1  0  0  0  0
M  END
