1
q = -1.0

 27 26  0  0  0  0  0  0  0  0999 V2000
    0.9781    1.6409   -1.0884 N   0  0  0  0  0  2  0  0  0  0  0  0
    0.0766    1.7207    0.9434 N   0  0  0  0  0  0  0  0  0  0  0  0
    0.6177    2.4248   -0.0648 C   0  0  0  0  0  0  0  0  0  0  0  0
    0.8300    3.9225   -0.1177 C   0  0  0  0  0  0  0  0  0  0  0  0
    1.8034    4.1466   -0.5961 H   0  0  0  0  0  0  0  0  0  0  0  0
    0.8163    4.3972    0.8762 H   0  0  0  0  0  0  0  0  0  0  0  0
    0.0477    4.3980   -0.7439 H   0  0  0  0  0  0  0  0  0  0  0  0
    1.7284    2.0740   -2.2466 C   0  0  0  0  0  0  0  0  0  0  0  0
    2.3193    1.2066   -2.6056 H   0  0  0  0  0  0  0  0  0  0  0  0
    2.4719    2.8609   -1.9745 H   0  0  0  0  0  0  0  0  0  0  0  0
    0.8608    2.5708   -3.4078 C   0  0  0  0  0  0  0  0  0  0  0  0
    0.2045    1.7532   -3.7641 H   0  0  0  0  0  0  0  0  0  0  0  0
    1.4959    2.8984   -4.2564 H   0  0  0  0  0  0  0  0  0  0  0  0
    0.2211    3.4256   -3.1073 H   0  0  0  0  0  0  0  0  0  0  0  0
   -0.6635    2.2921    2.0855 C   0  0  0  0  0  0  0  0  0  0  0  0
   -1.4134    1.1335    2.7709 C   0  0  0  0  0  0  0  0  0  0  0  0
   -2.2209    0.7507    2.1206 H   0  0  0  0  0  0  0  0  0  0  0  0
   -1.8662    1.4701    3.7248 H   0  0  0  0  0  0  0  0  0  0  0  0
   -0.7303    0.2898    2.9871 H   0  0  0  0  0  0  0  0  0  0  0  0
    0.2744    2.9428    3.1300 C   0  0  0  0  0  0  0  0  0  0  0  0
    0.9602    2.1937    3.5642 H   0  0  0  0  0  0  0  0  0  0  0  0
   -0.3188    3.3828    3.9578 H   0  0  0  0  0  0  0  0  0  0  0  0
    0.8911    3.7526    2.6950 H   0  0  0  0  0  0  0  0  0  0  0  0
   -1.7276    3.3259    1.6456 C   0  0  0  0  0  0  0  0  0  0  0  0
   -1.2872    4.2795    1.3011 H   0  0  0  0  0  0  0  0  0  0  0  0
   -2.4025    3.5642    2.4927 H   0  0  0  0  0  0  0  0  0  0  0  0
   -2.3435    2.9161    0.8222 H   0  0  0  0  0  0  0  0  0  0  0  0
  1  3  1  0  0  0  0
  2 15  1  0  0  0  0
  3  2  2  0  0  0  0
  4  3  1  0  0  0  0
  4  6  1  0  0  0  0
  5  4  1  0  0  0  0
  7  4  1  0  0  0  0
  8 10  1  0  0  0  0
  8  1  1  0  0  0  0
  9  8  1  0  0  0  0
 11 14  1  0  0  0  0
 11  8  1  0  0  0  0
 12 11  1  0  0  0  0
 13 11  1  0  0  0  0
 15 16  1  0  0  0  0
 15 20  1  0  0  0  0
 16 19  1  0  0  0  0
 16 18  1  0  0  0  0
 17 16  1  0  0  0  0
 20 21  1  0  0  0  0
 20 22  1  0  0  0  0
 23 20  1  0  0  0  0
 24 15  1  0  0  0  0
 24 26  1  0  0  0  0
 25 24  1  0  0  0  0
 27 24  1  0  0  0  0
M  END
