1
q = -1.0

 40 40  0  0  0  0  0  0  0  0999 V2000
   -1.6294   -0.1322   -0.1857 N   0  0  0  0  0  2  0  0  0  0  0  0
   -1.4452    1.1458   -0.7718 C   0  0  0  0  0  0  0  0  0  0  0  0
   -1.8479    2.3633   -0.1697 C   0  0  0  0  0  0  0  0  0  0  0  0
   -2.3658    2.3491    0.7953 H   0  0  0  0  0  0  0  0  0  0  0  0
   -1.5805    3.5878   -0.7909 C   0  0  0  0  0  0  0  0  0  0  0  0
   -1.9042    4.5191   -0.3018 H   0  0  0  0  0  0  0  0  0  0  0  0
   -0.8900    3.6400   -2.0142 C   0  0  0  0  0  0  0  0  0  0  0  0
   -0.6816    4.6082   -2.4933 H   0  0  0  0  0  0  0  0  0  0  0  0
   -0.4702    2.4454   -2.6149 C   0  0  0  0  0  0  0  0  0  0  0  0
    0.0687    2.4630   -3.5743 H   0  0  0  0  0  0  0  0  0  0  0  0
   -0.7531    1.2140   -2.0070 C   0  0  0  0  0  0  0  0  0  0  0  0
   -0.4642    0.2743   -2.5004 H   0  0  0  0  0  0  0  0  0  0  0  0
   -2.9416   -0.7571    0.1331 C   0  0  0  0  0  0  0  0  0  0  0  0
   -2.6557   -1.8141    0.3310 H   0  0  0  0  0  0  0  0  0  0  0  0
   -3.8668   -0.8674   -1.1536 C   0  0  0  0  0  0  0  0  0  0  0  0
   -3.0764   -1.6160   -2.2467 C   0  0  0  0  0  0  0  0  0  0  0  0
   -3.7254   -1.7802   -3.1309 H   0  0  0  0  0  0  0  0  0  0  0  0
   -2.7248   -2.6055   -1.8929 H   0  0  0  0  0  0  0  0  0  0  0  0
   -2.1882   -1.0521   -2.5820 H   0  0  0  0  0  0  0  0  0  0  0  0
   -4.3325    0.4757   -1.7580 C   0  0  0  0  0  0  0  0  0  0  0  0
   -4.9790    0.2632   -2.6347 H   0  0  0  0  0  0  0  0  0  0  0  0
   -3.4888    1.0896   -2.1201 H   0  0  0  0  0  0  0  0  0  0  0  0
   -4.9237    1.0882   -1.0556 H   0  0  0  0  0  0  0  0  0  0  0  0
   -5.1144   -1.7283   -0.8633 C   0  0  0  0  0  0  0  0  0  0  0  0
   -5.6545   -1.9082   -1.8153 H   0  0  0  0  0  0  0  0  0  0  0  0
   -5.8291   -1.2432   -0.1726 H   0  0  0  0  0  0  0  0  0  0  0  0
   -4.8412   -2.7184   -0.4463 H   0  0  0  0  0  0  0  0  0  0  0  0
   -3.5911   -0.3116    1.5305 C   0  0  0  0  0  0  0  0  0  0  0  0
   -2.4996    0.1646    2.5091 C   0  0  0  0  0  0  0  0  0  0  0  0
   -2.9676    0.3996    3.4870 H   0  0  0  0  0  0  0  0  0  0  0  0
   -1.9718    1.0698    2.1627 H   0  0  0  0  0  0  0  0  0  0  0  0
   -1.7413   -0.6218    2.6793 H   0  0  0  0  0  0  0  0  0  0  0  0
   -4.2243   -1.5566    2.2004 C   0  0  0  0  0  0  0  0  0  0  0  0
   -4.5878   -1.2887    3.2136 H   0  0  0  0  0  0  0  0  0  0  0  0
   -3.4710   -2.3622    2.3175 H   0  0  0  0  0  0  0  0  0  0  0  0
   -5.0831   -1.9658    1.6413 H   0  0  0  0  0  0  0  0  0  0  0  0
   -4.6639    0.7929    1.4464 C   0  0  0  0  0  0  0  0  0  0  0  0
   -4.9949    1.0537    2.4730 H   0  0  0  0  0  0  0  0  0  0  0  0
   -5.5638    0.4725    0.8887 H   0  0  0  0  0  0  0  0  0  0  0  0
   -4.2891    1.7212    0.9753 H   0  0  0  0  0  0  0  0  0  0  0  0
  1 13  1  0  0  0  0
  2  1  1  0  0  0  0
  2  3  1  0  0  0  0
  3  4  1  0  0  0  0
  5  6  1  0  0  0  0
  5  3  2  0  0  0  0
  7  5  1  0  0  0  0
  8  7  1  0  0  0  0
  9  7  2  0  0  0  0
  9 11  1  0  0  0  0
 10  9  1  0  0  0  0
 11  2  2  0  0  0  0
 12 11  1  0  0  0  0
 13 14  1  0  0  0  0
 13 28  1  0  0  0  0
 15 24  1  0  0  0  0
 15 13  1  0  0  0  0
 16 18  1  0  0  0  0
 16 15  1  0  0  0  0
 17 16  1  0  0  0  0
 19 16  1  0  0  0  0
 20 15  1  0  0  0  0
 20 23  1  0  0  0  0
 21 20  1  0  0  0  0
 22 20  1  0  0  0  0
 24 27  1  0  0  0  0
 24 26  1  0  0  0  0
 25 24  1  0  0  0  0
 28 33  1  0  0  0  0
 28 29  1  0  0  0  0
 29 32  1  0  0  0  0
 29 30  1  0  0  0  0
 31 29  1  0  0  0  0
 33 35  1  0  0  0  0
 33 34  1  0  0  0  0
 36 33  1  0  0  0  0
 37 28  1  0  0  0  0
 37 38  1  0  0  0  0
 39 37  1  0  0  0  0
 40 37  1  0  0  0  0
M  END
