13
q = 0.0, confidence = 0.998

 18 19  0  0  0  0  0  0  0  0999 V2000
    2.7179   -2.6121   -0.9408 C   0  0  0  0  0  3  0  0  0  0  0  0
    2.1690   -3.5466   -1.1066 H   0  0  0  0  0  0  0  0  0  0  0  0
    3.2526   -0.5691   -0.3644 C   0  0  0  0  0  0  0  0  0  0  0  0
    4.4079   -1.1567   -0.9510 C   0  0  0  0  0  0  0  0  0  0  0  0
    5.6178   -0.4560   -1.0831 C   0  0  0  0  0  0  0  0  0  0  0  0
    6.5086   -0.9125   -1.5367 H   0  0  0  0  0  0  0  0  0  0  0  0
    5.6368    0.8575   -0.6079 C   0  0  0  0  0  0  0  0  0  0  0  0
    6.5560    1.4539   -0.6846 H   0  0  0  0  0  0  0  0  0  0  0  0
    4.4878    1.4544   -0.0197 C   0  0  0  0  0  0  0  0  0  0  0  0
    3.2832    0.7484    0.1085 C   0  0  0  0  0  0  0  0  0  0  0  0
    2.4144    1.2427    0.5684 H   0  0  0  0  0  0  0  0  0  0  0  0
    4.4975    2.8634    0.4949 C   0  0  0  0  0  0  0  0  0  0  0  0
    2.2197   -1.5116   -0.3776 N   0  0  0  0  0  2  0  0  0  0  0  0
    4.0203   -2.4441   -1.2980 N   0  0  0  0  0  0  0  0  0  0  0  0
    4.6047   -3.1529   -1.7455 H   0  0  0  0  0  0  0  0  0  0  0  0
    5.6945    3.4668    0.3272 O   0  0  0  0  0  0  0  0  0  0  0  0
    5.6003    4.3741    0.6913 H   0  0  0  0  0  0  0  0  0  0  0  0
    3.5331    3.4028    1.0070 O   0  0  0  0  0  0  0  0  0  0  0  0
  1 13  1  0  0  0  0
  2  1  1  0  0  0  0
  3 10  1  0  0  0  0
  4  3  2  0  0  0  0
  5  4  1  0  0  0  0
  5  7  2  0  0  0  0
  6  5  1  0  0  0  0
  7  9  1  0  0  0  0
  8  7  1  0  0  0  0
  9 10  2  0  0  0  0
  9 12  1  0  0  0  0
 10 11  1  0  0  0  0
 12 18  2  0  0  0  0
 13  3  1  0  0  0  0
 14  4  1  0  0  0  0
 14  1  1  0  0  0  0
 15 14  1  0  0  0  0
 16 12  1  0  0  0  0
 16 17  1  0  0  0  0
M  END
