1
q = 0.0, confidence = 1.0

 34 35  0  0  0  0  0  0  0  0999 V2000
   -1.5102    2.0527   -0.6071 N   0  0  0  0  0  2  0  0  0  0  0  0
   -5.3766   -0.5471    0.6252 N   0  0  0  0  0  0  0  0  0  0  0  0
   -3.9023    0.2301    2.2357 O   0  0  0  0  0  0  0  0  0  0  0  0
   -6.6727   -1.2725   -1.5553 O   0  0  0  0  0  0  0  0  0  0  0  0
   -8.5440   -2.5020   -1.3057 O   0  0  0  0  0  0  0  0  0  0  0  0
   -1.6094    1.7026   -1.9056 C   0  0  0  0  0  3  0  0  0  0  0  0
   -0.8821    2.1938   -2.5770 H   0  0  0  0  0  0  0  0  0  0  0  0
   -2.5800    0.7957   -2.3460 C   0  0  0  0  0  0  0  0  0  0  0  0
   -2.6358    0.5236   -3.4096 H   0  0  0  0  0  0  0  0  0  0  0  0
   -3.4681    0.2444   -1.4124 C   0  0  0  0  0  0  0  0  0  0  0  0
   -4.2280   -0.4785   -1.7492 H   0  0  0  0  0  0  0  0  0  0  0  0
   -3.3656    0.6208   -0.0579 C   0  0  0  0  0  0  0  0  0  0  0  0
   -2.3578    1.5363    0.2972 C   0  0  0  0  0  0  0  0  0  0  0  0
   -2.2407    1.8806    1.3391 H   0  0  0  0  0  0  0  0  0  0  0  0
   -4.2304    0.0884    1.0589 C   0  0  0  0  0  0  0  0  0  0  0  0
   -6.3533   -1.2007    1.3717 C   0  0  0  0  0  0  0  0  0  0  0  0
   -6.3245   -1.2522    2.7858 C   0  0  0  0  0  0  0  0  0  0  0  0
   -5.4979   -0.7528    3.3040 H   0  0  0  0  0  0  0  0  0  0  0  0
   -7.3325   -1.9221    3.4840 C   0  0  0  0  0  0  0  0  0  0  0  0
   -7.2905   -1.9474    4.5838 H   0  0  0  0  0  0  0  0  0  0  0  0
   -8.3908   -2.5551    2.8070 C   0  0  0  0  0  0  0  0  0  0  0  0
   -9.1801   -3.0775    3.3668 H   0  0  0  0  0  0  0  0  0  0  0  0
   -8.4290   -2.5134    1.4127 C   0  0  0  0  0  0  0  0  0  0  0  0
   -9.2424   -3.0017    0.8597 H   0  0  0  0  0  0  0  0  0  0  0  0
   -7.4265   -1.8472    0.6723 C   0  0  0  0  0  0  0  0  0  0  0  0
   -7.4874   -1.8326   -0.8097 C   0  0  0  0  0  0  0  0  0  0  0  0
   -8.6738   -2.5246   -2.7452 C   0  0  0  0  0  0  0  0  0  0  0  0
   -8.7105   -1.4784   -3.1151 H   0  0  0  0  0  0  0  0  0  0  0  0
   -7.7599   -2.9846   -3.1770 H   0  0  0  0  0  0  0  0  0  0  0  0
   -9.9271   -3.3027   -3.0852 C   0  0  0  0  0  0  0  0  0  0  0  0
   -9.8663   -4.3425   -2.7075 H   0  0  0  0  0  0  0  0  0  0  0  0
  -10.0588   -3.3413   -4.1845 H   0  0  0  0  0  0  0  0  0  0  0  0
  -10.8248   -2.8243   -2.6462 H   0  0  0  0  0  0  0  0  0  0  0  0
   -5.5926   -0.5673   -0.3890 H   0  0  0  0  0  0  0  0  0  0  0  0
  1 13  1  0  0  0  0
  2 15  1  0  0  0  0
  2 16  1  0  0  0  0
  4 26  2  0  0  0  0
  5 26  1  0  0  0  0
  6  1  1  0  0  0  0
  7  6  1  0  0  0  0
  8  6  1  0  0  0  0
  8 10  2  0  0  0  0
  9  8  1  0  0  0  0
 10 12  1  0  0  0  0
 11 10  1  0  0  0  0
 12 13  2  0  0  0  0
 12 15  1  0  0  0  0
 13 14  1  0  0  0  0
 15  3  2  0  0  0  0
 16 17  1  0  0  0  0
 17 18  1  0  0  0  0
 17 19  2  0  0  0  0
 19 20  1  0  0  0  0
 21 22  1  0  0  0  0
 21 19  1  0  0  0  0
 23 21  2  0  0  0  0
 24 23  1  0  0  0  0
 25 16  2  0  0  0  0
 25 23  1  0  0  0  0
 26 25  1  0  0  0  0
 27  5  1  0  0  0  0
 28 27  1  0  0  0  0
 29 27  1  0  0  0  0
 30 27  1  0  0  0  0
 30 31  1  0  0  0  0
 30 33  1  0  0  0  0
 32 30  1  0  0  0  0
 34  2  1  0  0  0  0
M  END
