1
q = -1.0

 14 14  0  0  0  0  0  0  0  0999 V2000
   -0.5570    0.2826    0.3695 N   0  0  0  0  0  0  0  0  0  0  0  0
   -1.4893   -0.6776    0.3508 N   0  0  0  0  0  2  0  0  0  0  0  0
   -1.1336    1.4998    0.1328 C   0  0  0  0  0  0  0  0  0  0  0  0
   -2.5137    1.3190   -0.0413 C   0  0  0  0  0  0  0  0  0  0  0  0
   -2.6717   -0.0723    0.1054 C   0  0  0  0  0  0  0  0  0  0  0  0
   -0.3730    2.7799    0.0605 C   0  0  0  0  0  0  0  0  0  0  0  0
    0.2545    3.0931    1.2231 F   0  0  0  0  0  0  0  0  0  0  0  0
    0.6106    2.7512   -0.9003 F   0  0  0  0  0  0  0  0  0  0  0  0
   -1.1899    3.8087   -0.2483 F   0  0  0  0  0  0  0  0  0  0  0  0
   -3.9199   -0.8904    0.0004 C   0  0  0  0  0  0  0  0  0  0  0  0
   -3.7737   -1.9101   -0.8886 F   0  0  0  0  0  0  0  0  0  0  0  0
   -4.2798   -1.4528    1.1792 F   0  0  0  0  0  0  0  0  0  0  0  0
   -4.9600   -0.1288   -0.4196 F   0  0  0  0  0  0  0  0  0  0  0  0
   -3.2721    2.0811   -0.2404 H   0  0  0  0  0  0  0  0  0  0  0  0
  2  1  1  0  0  0  0
  3  1  2  0  0  0  0
  4  5  2  0  0  0  0
  4  3  1  0  0  0  0
  5  2  1  0  0  0  0
  6  3  1  0  0  0  0
  6  7  1  0  0  0  0
  8  6  1  0  0  0  0
  9  6  1  0  0  0  0
 10  5  1  0  0  0  0
 10 12  1  0  0  0  0
 11 10  1  0  0  0  0
 13 10  1  0  0  0  0
 14  4  1  0  0  0  0
M  END
