2
q = -1.0

 37 38  0  0  0  0  0  0  0  0999 V2000
   -2.2980   -1.1328   -0.7141 Se  0  0  0  0  0  0  0  0  0  0  0  0
   -0.0000    0.7741    0.0000 N   0  0  0  0  0  2  0  0  0  0  0  0
   -1.2232    1.4229    0.0944 C   0  0  0  0  0  0  0  0  0  0  0  0
   -2.4297    0.7380   -0.2329 C   0  0  0  0  0  0  0  0  0  0  0  0
   -1.3991    2.7525    0.5815 C   0  0  0  0  0  0  0  0  0  0  0  0
   -0.5249    3.3059    0.9486 H   0  0  0  0  0  0  0  0  0  0  0  0
   -3.6885    1.3534   -0.1920 C   0  0  0  0  0  0  0  0  0  0  0  0
   -4.5803    0.7759   -0.4862 H   0  0  0  0  0  0  0  0  0  0  0  0
   -2.6582    3.3501    0.6461 C   0  0  0  0  0  0  0  0  0  0  0  0
   -2.7328    4.3758    1.0423 H   0  0  0  0  0  0  0  0  0  0  0  0
   -3.8360    2.6829    0.2392 C   0  0  0  0  0  0  0  0  0  0  0  0
   -3.1209   -1.9312    0.8922 C   0  0  0  0  0  0  0  0  0  0  0  0
   -2.7601   -1.3860    1.7816 H   0  0  0  0  0  0  0  0  0  0  0  0
   -2.7674   -2.9794    0.9082 H   0  0  0  0  0  0  0  0  0  0  0  0
   -4.2208   -1.8717    0.7993 H   0  0  0  0  0  0  0  0  0  0  0  0
   -5.1799    3.3637    0.2791 C   0  0  0  0  0  0  0  0  0  0  0  0
   -6.0048    2.6496    0.0888 H   0  0  0  0  0  0  0  0  0  0  0  0
   -5.2525    4.1662   -0.4863 H   0  0  0  0  0  0  0  0  0  0  0  0
   -5.3663    3.8429    1.2628 H   0  0  0  0  0  0  0  0  0  0  0  0
    2.2981   -1.1328    0.7141 Se  0  0  0  0  0  0  0  0  0  0  0  0
    1.2232    1.4229   -0.0944 C   0  0  0  0  0  0  0  0  0  0  0  0
    2.4297    0.7380    0.2330 C   0  0  0  0  0  0  0  0  0  0  0  0
    1.3990    2.7525   -0.5815 C   0  0  0  0  0  0  0  0  0  0  0  0
    0.5248    3.3059   -0.9487 H   0  0  0  0  0  0  0  0  0  0  0  0
    3.6885    1.3534    0.1920 C   0  0  0  0  0  0  0  0  0  0  0  0
    4.5803    0.7759    0.4862 H   0  0  0  0  0  0  0  0  0  0  0  0
    2.6581    3.3501   -0.6461 C   0  0  0  0  0  0  0  0  0  0  0  0
    2.7327    4.3759   -1.0424 H   0  0  0  0  0  0  0  0  0  0  0  0
    3.8360    2.6830   -0.2392 C   0  0  0  0  0  0  0  0  0  0  0  0
    3.1209   -1.9311   -0.8922 C   0  0  0  0  0  0  0  0  0  0  0  0
    2.7601   -1.3859   -1.7816 H   0  0  0  0  0  0  0  0  0  0  0  0
    2.7674   -2.9794   -0.9082 H   0  0  0  0  0  0  0  0  0  0  0  0
    4.2209   -1.8717   -0.7993 H   0  0  0  0  0  0  0  0  0  0  0  0
    5.1799    3.3638   -0.2791 C   0  0  0  0  0  0  0  0  0  0  0  0
    6.0048    2.6497   -0.0890 H   0  0  0  0  0  0  0  0  0  0  0  0
    5.2525    4.1661    0.4864 H   0  0  0  0  0  0  0  0  0  0  0  0
    5.3661    3.8431   -1.2627 H   0  0  0  0  0  0  0  0  0  0  0  0
  1  4  1  0  0  0  0
  1 12  1  0  0  0  0
  2  3  1  0  0  0  0
  3  5  1  0  0  0  0
  4  7  1  0  0  0  0
  4  3  2  0  0  0  0
  5  9  2  0  0  0  0
  5  6  1  0  0  0  0
  7 11  2  0  0  0  0
  8  7  1  0  0  0  0
  9 10  1  0  0  0  0
 11 16  1  0  0  0  0
 11  9  1  0  0  0  0
 12 14  1  0  0  0  0
 12 13  1  0  0  0  0
 15 12  1  0  0  0  0
 16 19  1  0  0  0  0
 17 16  1  0  0  0  0
 18 16  1  0  0  0  0
 21  2  1  0  0  0  0
 21 22  1  0  0  0  0
 22 20  1  0  0  0  0
 23 21  2  0  0  0  0
 24 23  1  0  0  0  0
 25 22  2  0  0  0  0
 25 26  1  0  0  0  0
 27 23  1  0  0  0  0
 27 29  2  0  0  0  0
 28 27  1  0  0  0  0
 29 25  1  0  0  0  0
 30 33  1  0  0  0  0
 30 20  1  0  0  0  0
 31 30  1  0  0  0  0
 32 30  1  0  0  0  0
 34 29  1  0  0  0  0
 34 35  1  0  0  0  0
 34 36  1  0  0  0  0
 37 34  1  0  0  0  0
M  END
