5
q = 0.0, confidence = 0.994

 43 46  0  0  1  0  0  0  0  0999 V2000
   -4.8958    0.4843    0.0194 N   0  0  0  0  0  0  0  0  0  0  0  0
   -5.7381    1.0534    0.0966 H   0  0  0  0  0  0  0  0  0  0  0  0
   -0.9589    1.4998   -0.2834 N   0  0  0  0  0  0  0  0  0  0  0  0
    0.0153    1.6787   -0.6069 H   0  0  0  0  0  0  0  0  0  0  0  0
   -0.3153   -0.7167   -0.4710 N   0  0  0  0  0  2  0  0  0  0  0  0
    1.9454   -1.9477   -1.5426 N   0  0  0  0  0  0  0  0  0  0  0  0
   -4.2634   -3.5716    0.5639 C   0  0  0  0  0  0  0  0  0  0  0  0
   -4.0417   -4.6337    0.7443 H   0  0  0  0  0  0  0  0  0  0  0  0
   -5.6052   -3.1308    0.5978 C   0  0  0  0  0  0  0  0  0  0  0  0
   -6.4111   -3.8534    0.7918 H   0  0  0  0  0  0  0  0  0  0  0  0
   -5.9211   -1.7815    0.4075 C   0  0  0  0  0  0  0  0  0  0  0  0
   -6.9604   -1.4254    0.4579 H   0  0  0  0  0  0  0  0  0  0  0  0
   -4.8603   -0.8961    0.1681 C   0  0  0  0  0  0  0  0  0  0  0  0
   -3.6298    0.9741   -0.1453 C   0  0  0  0  0  0  0  0  0  0  0  0
   -3.2324    2.3529   -0.1884 C   0  0  0  0  0  0  0  0  0  0  0  0
   -4.1054    3.4670   -0.1606 C   0  0  0  0  0  0  0  0  0  0  0  0
   -5.1942    3.3115   -0.1221 H   0  0  0  0  0  0  0  0  0  0  0  0
   -3.5976    4.7648   -0.1913 C   0  0  0  0  0  0  0  0  0  0  0  0
   -4.2829    5.6240   -0.1740 H   0  0  0  0  0  0  0  0  0  0  0  0
   -2.2020    4.9752   -0.2513 C   0  0  0  0  0  0  0  0  0  0  0  0
   -1.8047    6.0002   -0.2863 H   0  0  0  0  0  0  0  0  0  0  0  0
   -1.3189    3.8959   -0.2695 C   0  0  0  0  0  0  0  0  0  0  0  0
   -0.2317    4.0555   -0.3280 H   0  0  0  0  0  0  0  0  0  0  0  0
   -1.8243    2.5770   -0.2342 C   0  0  2  0  0  3  0  0  0  0  0  0
   -1.3093    0.1698   -0.3144 C   0  0  0  0  0  0  0  0  0  0  0  0
   -0.5054   -1.9217   -1.2633 C   0  0  0  0  0  0  0  0  0  0  0  0
   -1.4755   -1.9133   -1.8010 H   0  0  0  0  0  0  0  0  0  0  0  0
   -0.4918   -2.8423   -0.6374 H   0  0  0  0  0  0  0  0  0  0  0  0
    0.6360   -1.9616   -2.2682 C   0  0  0  0  0  0  0  0  0  0  0  0
    0.5823   -2.8584   -2.9253 H   0  0  0  0  0  0  0  0  0  0  0  0
    0.6010   -1.0508   -2.8956 H   0  0  0  0  0  0  0  0  0  0  0  0
    3.0386   -1.6232   -2.4945 C   0  0  0  0  0  0  0  0  0  0  0  0
    4.0055   -1.6493   -1.9602 H   0  0  0  0  0  0  0  0  0  0  0  0
    2.8795   -0.6114   -2.9058 H   0  0  0  0  0  0  0  0  0  0  0  0
    3.0591   -2.3720   -3.3158 H   0  0  0  0  0  0  0  0  0  0  0  0
    2.2175   -3.2947   -0.9847 C   0  0  0  0  0  0  0  0  0  0  0  0
    1.4415   -3.5779   -0.2523 H   0  0  0  0  0  0  0  0  0  0  0  0
    3.2033   -3.2993   -0.4878 H   0  0  0  0  0  0  0  0  0  0  0  0
    2.2356   -4.0479   -1.8024 H   0  0  0  0  0  0  0  0  0  0  0  0
   -2.7143   -0.1141   -0.1643 C   0  0  0  0  0  0  0  0  0  0  0  0
   -3.4925   -1.3191    0.0827 C   0  0  0  0  0  0  0  0  0  0  0  0
   -3.2108   -2.6852    0.3123 C   0  0  0  0  0  0  0  0  0  0  0  0
   -2.1806   -3.0590    0.3177 H   0  0  0  0  0  0  0  0  0  0  0  0
  1  2  1  0  0  0  0
  1 13  1  0  0  0  0
  3 24  1  0  0  0  0
  4  3  1  0  0  0  0
  5 25  1  0  0  0  0
  6 36  1  0  0  0  0
  7  9  1  0  0  0  0
  7  8  1  0  0  0  0
  9 10  1  0  0  0  0
 11 12  1  0  0  0  0
 11  9  2  0  0  0  0
 13 11  1  0  0  0  0
 14  1  1  0  0  0  0
 15 16  1  0  0  0  0
 15 14  2  0  0  0  0
 16 17  1  0  0  0  0
 18 19  1  0  0  0  0
 18 16  2  0  0  0  0
 20 18  1  0  0  0  0
 21 20  1  0  0  0  0
 22 20  2  0  0  0  0
 23 22  1  0  0  0  0
 24 22  1  6  0  0  0
 24 15  1  0  0  0  0
 25  3  1  0  0  0  0
 25 40  2  0  0  0  0
 26 28  1  0  0  0  0
 26  5  1  0  0  0  0
 27 26  1  0  0  0  0
 29  6  1  0  0  0  0
 29 26  1  0  0  0  0
 30 29  1  0  0  0  0
 31 29  1  0  0  0  0
 32 33  1  0  0  0  0
 32  6  1  0  0  0  0
 34 32  1  0  0  0  0
 35 32  1  0  0  0  0
 36 38  1  0  0  0  0
 36 37  1  0  0  0  0
 39 36  1  0  0  0  0
 40 14  1  0  0  0  0
 40 41  1  0  0  0  0
 41 13  2  0  0  0  0
 41 42  1  0  0  0  0
 42 43  1  0  0  0  0
 42  7  2  0  0  0  0
M  END
