2
q = 0.0, confidence = 1.0

 47 48  0  0  1  0  0  0  0  0999 V2000
    1.5662   -1.1463    2.1873 O   0  0  0  0  0  0  0  0  0  0  0  0
   -1.0301   -0.2896    0.4471 N   0  0  0  0  0  2  0  0  0  0  0  0
    3.3596    1.8889   -0.3604 N   0  0  0  0  0  0  0  0  0  0  0  0
   -0.7130   -1.5812    1.0993 C   0  0  0  0  0  0  0  0  0  0  0  0
    0.8065   -1.2162    1.0023 C   0  0  1  0  0  0  0  0  0  0  0  0
    0.2419    0.1030    0.4253 C   0  0  0  0  0  0  0  0  0  0  0  0
    0.9419    1.2711   -0.0185 C   0  0  0  0  0  0  0  0  0  0  0  0
    0.2012    2.4977   -0.4931 C   0  0  0  0  0  0  0  0  0  0  0  0
    2.3257    1.1168    0.0526 C   0  0  0  0  0  3  0  0  0  0  0  0
    3.2457    3.1009   -1.1723 C   0  0  0  0  0  0  0  0  0  0  0  0
    3.3966    4.3917   -0.3666 C   0  0  0  0  0  0  0  0  0  0  0  0
    4.7177    1.3699   -0.1475 C   0  0  0  0  0  0  0  0  0  0  0  0
    5.1503    0.3696   -1.2208 C   0  0  0  0  0  0  0  0  0  0  0  0
    1.0733   -0.2892    3.2142 C   0  0  0  0  0  0  0  0  0  0  0  0
    2.0740   -0.3026    4.3544 C   0  0  0  0  0  0  0  0  0  0  0  0
    1.5844   -2.0378   -0.0154 C   0  0  0  0  0  0  0  0  0  0  0  0
    1.1141   -2.1469   -1.3403 C   0  0  0  0  0  0  0  0  0  0  0  0
    1.8351   -2.8796   -2.2920 C   0  0  0  0  0  0  0  0  0  0  0  0
    3.0374   -3.5138   -1.9351 C   0  0  0  0  0  0  0  0  0  0  0  0
    3.5054   -3.4150   -0.6166 C   0  0  0  0  0  0  0  0  0  0  0  0
    2.7828   -2.6833    0.3406 C   0  0  0  0  0  0  0  0  0  0  0  0
   -1.0339   -2.4693    0.5170 H   0  0  0  0  0  0  0  0  0  0  0  0
   -1.1165   -1.6587    2.1300 H   0  0  0  0  0  0  0  0  0  0  0  0
    0.0753    2.5364   -1.5946 H   0  0  0  0  0  0  0  0  0  0  0  0
   -0.8141    2.5159   -0.0626 H   0  0  0  0  0  0  0  0  0  0  0  0
    0.7027    3.4297   -0.1693 H   0  0  0  0  0  0  0  0  0  0  0  0
    2.6792    0.1921    0.5338 H   0  0  0  0  0  0  0  0  0  0  0  0
    2.2794    3.0819   -1.7062 H   0  0  0  0  0  0  0  0  0  0  0  0
    4.0301    3.0511   -1.9581 H   0  0  0  0  0  0  0  0  0  0  0  0
    2.5931    4.4852    0.3910 H   0  0  0  0  0  0  0  0  0  0  0  0
    4.3687    4.4279    0.1658 H   0  0  0  0  0  0  0  0  0  0  0  0
    3.3447    5.2737   -1.0359 H   0  0  0  0  0  0  0  0  0  0  0  0
    4.7597    0.8992    0.8563 H   0  0  0  0  0  0  0  0  0  0  0  0
    5.4107    2.2358   -0.1120 H   0  0  0  0  0  0  0  0  0  0  0  0
    4.4899   -0.5215   -1.2191 H   0  0  0  0  0  0  0  0  0  0  0  0
    5.1161    0.8220   -2.2327 H   0  0  0  0  0  0  0  0  0  0  0  0
    6.1887    0.0277   -1.0371 H   0  0  0  0  0  0  0  0  0  0  0  0
    0.0753   -0.6374    3.5686 H   0  0  0  0  0  0  0  0  0  0  0  0
    0.9368    0.7435    2.8170 H   0  0  0  0  0  0  0  0  0  0  0  0
    2.2091   -1.3304    4.7460 H   0  0  0  0  0  0  0  0  0  0  0  0
    3.0617    0.0696    4.0156 H   0  0  0  0  0  0  0  0  0  0  0  0
    1.7238    0.3435    5.1833 H   0  0  0  0  0  0  0  0  0  0  0  0
    0.1793   -1.6434   -1.6328 H   0  0  0  0  0  0  0  0  0  0  0  0
    1.4556   -2.9534   -3.3224 H   0  0  0  0  0  0  0  0  0  0  0  0
    3.6044   -4.0869   -2.6842 H   0  0  0  0  0  0  0  0  0  0  0  0
    4.4416   -3.9156   -0.3247 H   0  0  0  0  0  0  0  0  0  0  0  0
    3.1413   -2.6014    1.3755 H   0  0  0  0  0  0  0  0  0  0  0  0
  1 14  1  0  0  0  0
  2  4  1  0  0  0  0
  3 12  1  0  0  0  0
  3  9  1  0  0  0  0
  4 23  1  0  0  0  0
  5  4  1  0  0  0  0
  5  1  1  1  0  0  0
  6  2  1  0  0  0  0
  6  5  1  0  0  0  0
  7  9  1  0  0  0  0
  7  6  2  0  0  0  0
  8 26  1  0  0  0  0
  8 25  1  0  0  0  0
  8  7  1  0  0  0  0
  9 27  1  0  0  0  0
 10 11  1  0  0  0  0
 10  3  1  0  0  0  0
 11 31  1  0  0  0  0
 11 30  1  0  0  0  0
 12 34  1  0  0  0  0
 12 33  1  0  0  0  0
 13 35  1  0  0  0  0
 13 37  1  0  0  0  0
 13 12  1  0  0  0  0
 14 38  1  0  0  0  0
 14 15  1  0  0  0  0
 15 40  1  0  0  0  0
 15 42  1  0  0  0  0
 16 21  1  0  0  0  0
 16  5  1  0  0  0  0
 17 16  2  0  0  0  0
 18 19  2  0  0  0  0
 18 17  1  0  0  0  0
 19 20  1  0  0  0  0
 20 46  1  0  0  0  0
 20 21  2  0  0  0  0
 21 47  1  0  0  0  0
 22  4  1  0  0  0  0
 24  8  1  0  0  0  0
 28 10  1  0  0  0  0
 29 10  1  0  0  0  0
 32 11  1  0  0  0  0
 36 13  1  0  0  0  0
 39 14  1  0  0  0  0
 41 15  1  0  0  0  0
 43 17  1  0  0  0  0
 44 18  1  0  0  0  0
 45 19  1  0  0  0  0
M  END
