2
q = 0.0, confidence = 1.0

 26 28  0  0  1  0  0  0  0  0999 V2000
    3.9483   -1.5548   -0.0001 N   0  0  0  0  0  0  0  0  0  0  0  0
    0.2438   -1.6426    0.0020 N   0  0  0  0  0  2  0  0  0  0  0  0
    2.5050    0.2072   -0.0012 N   0  0  0  0  0  2  0  0  0  0  0  0
    3.7695    0.6328   -0.0023 N   0  0  0  0  0  0  0  0  0  0  0  0
    6.4907    1.0766   -0.0040 N   0  0  0  0  0  0  0  0  0  0  0  0
    6.0918   -0.2145   -0.0024 C   0  0  0  0  0  0  0  0  0  0  0  0
    1.7997   -3.4612    0.0015 C   0  0  0  0  0  0  0  0  0  0  0  0
    6.9832   -1.3054   -0.0017 C   0  0  0  0  0  0  0  0  0  0  0  0
    2.6472   -1.1311    0.0001 C   0  0  0  0  0  0  0  0  0  0  0  0
    1.5280   -2.0800    0.0013 C   0  0  1  0  0  3  0  0  0  0  0  0
   -0.7899   -2.5048    0.0025 C   0  0  0  0  0  0  0  0  0  0  0  0
   -0.5730   -3.8877    0.0027 C   0  0  0  0  0  0  0  0  0  0  0  0
    4.6417   -0.4180   -0.0016 C   0  0  1  0  0  3  0  0  0  0  0  0
    8.3556   -1.0312   -0.0026 C   0  0  0  0  0  0  0  0  0  0  0  0
    8.7811    0.3063   -0.0042 C   0  0  0  0  0  0  0  0  0  0  0  0
    7.8073    1.3204   -0.0049 C   0  0  0  0  0  0  0  0  0  0  0  0
    0.7414   -4.3731    0.0022 C   0  0  0  0  0  0  0  0  0  0  0  0
    6.5847   -2.3295   -0.0004 H   0  0  0  0  0  0  0  0  0  0  0  0
   -1.4429   -4.5590    0.0031 H   0  0  0  0  0  0  0  0  0  0  0  0
    9.8500    0.5651   -0.0050 H   0  0  0  0  0  0  0  0  0  0  0  0
    0.9421   -5.4548    0.0024 H   0  0  0  0  0  0  0  0  0  0  0  0
    8.1090    2.3825   -0.0061 H   0  0  0  0  0  0  0  0  0  0  0  0
    9.0877   -1.8527   -0.0021 H   0  0  0  0  0  0  0  0  0  0  0  0
   -1.8166   -2.0854    0.0028 H   0  0  0  0  0  0  0  0  0  0  0  0
    2.8527   -3.7723    0.0010 H   0  0  0  0  0  0  0  0  0  0  0  0
    4.0321    1.6225   -0.0035 H   0  0  0  0  0  0  0  0  0  0  0  0
  1  9  2  0  0  0  0
  2 11  1  0  0  0  0
  3  9  1  0  0  0  0
  4 13  1  0  0  0  0
  4  3  1  0  0  0  0
  5  6  1  0  0  0  0
  6  8  2  0  0  0  0
  7 17  2  0  0  0  0
  8 18  1  0  0  0  0
 10  9  1  6  0  0  0
 10  7  1  0  0  0  0
 10  2  1  0  0  0  0
 11 12  2  0  0  0  0
 11 24  1  0  0  0  0
 12 19  1  0  0  0  0
 13  6  1  1  0  0  0
 13  1  1  0  0  0  0
 14 23  1  0  0  0  0
 14  8  1  0  0  0  0
 15 14  2  0  0  0  0
 16 15  1  0  0  0  0
 16  5  2  0  0  0  0
 17 21  1  0  0  0  0
 17 12  1  0  0  0  0
 20 15  1  0  0  0  0
 22 16  1  0  0  0  0
 25  7  1  0  0  0  0
 26  4  1  0  0  0  0
M  END
