1
q = -1.0, confidence = 0.47

 20 20  0  0  0  0  0  0  0  0999 V2000
   -0.7892    1.3159   -0.6271 N   0  0  0  0  0  0  0  0  0  0  0  0
   -2.6399   -0.2824    0.4668 N   0  3  0  0  0  0  0  0  0  0  0  0
   -1.3947    1.8774    0.5987 C   0  0  0  0  0  0  0  0  0  0  0  0
   -2.0376    0.7418    1.3931 C   0  0  0  0  0  0  0  0  0  0  0  0
   -3.0550    0.3149   -0.8373 C   0  0  0  0  0  0  0  0  0  0  0  0
   -1.8309    0.8717   -1.5871 C   0  0  0  0  0  0  0  0  0  0  0  0
   -3.6972   -1.0885    1.1134 C   0  0  0  0  0  0  0  0  0  0  0  0
   -0.1697    2.0380   -1.0395 H   0  0  0  0  0  0  0  0  0  0  0  0
   -1.8276   -1.0078    0.1829 H   0  0  0  0  0  0  0  0  0  0  0  0
   -2.1372    2.6687    0.3435 H   0  0  0  0  0  0  0  0  0  0  0  0
   -0.5723    2.3348    1.1836 H   0  0  0  0  0  0  0  0  0  0  0  0
   -1.2642    0.2077    1.9817 H   0  0  0  0  0  0  0  0  0  0  0  0
   -2.8335    1.1258    2.0638 H   0  0  0  0  0  0  0  0  0  0  0  0
   -3.8167    1.0933   -0.6268 H   0  0  0  0  0  0  0  0  0  0  0  0
   -3.5355   -0.4837   -1.4334 H   0  0  0  0  0  0  0  0  0  0  0  0
   -1.3850    0.0870   -2.2256 H   0  0  0  0  0  0  0  0  0  0  0  0
   -2.1653    1.7168   -2.2264 H   0  0  0  0  0  0  0  0  0  0  0  0
   -3.9598   -1.9331    0.4495 H   0  0  0  0  0  0  0  0  0  0  0  0
   -4.5917   -0.4659    1.3106 H   0  0  0  0  0  0  0  0  0  0  0  0
   -3.3022   -1.4899    2.0648 H   0  0  0  0  0  0  0  0  0  0  0  0
  1  3  1  0  0  0  0
  2  7  1  0  0  0  0
  2  4  1  0  0  0  0
  3 11  1  0  0  0  0
  3  4  1  0  0  0  0
  4 12  1  0  0  0  0
  4 13  1  0  0  0  0
  5 14  1  0  0  0  0
  5  2  1  0  0  0  0
  6  5  1  0  0  0  0
  6  1  1  0  0  0  0
  7 19  1  0  0  0  0
  7 20  1  0  0  0  0
  8  1  1  0  0  0  0
  9  2  1  0  0  0  0
 10  3  1  0  0  0  0
 15  5  1  0  0  0  0
 16  6  1  0  0  0  0
 17  6  1  0  0  0  0
 18  7  1  0  0  0  0
M  CHG  1   2   1
M  END
