22
q = -1.0

 36 40  0  0  1  0  0  0  0  0999 V2000
    1.4805    0.7650   -0.2715 C   0  0  1  0  0  0  0  0  0  0  0  0
    1.4473   -0.2629    0.9886 B   0  0  0  0  0  0  0  0  0  0  0  0
    0.3896   -0.2059    1.6608 H   0  0  0  0  0  0  0  0  0  0  0  0
    2.7006    1.0148    0.8557 B   0  0  1  0  0  0  0  0  0  0  0  0
    2.7743    2.0360    1.4888 H   0  0  0  0  0  0  0  0  0  0  0  0
    2.8673    0.9383   -0.9586 B   0  0  1  0  0  0  0  0  0  0  0  0
    3.0795    1.7989   -1.7791 H   0  0  0  0  0  0  0  0  0  0  0  0
    1.5263   -0.8732   -0.7484 B   0  0  0  0  0  2  0  0  0  0  0  0
    0.4961   -1.1019   -1.4467 H   0  0  0  0  0  0  0  0  0  0  0  0
    2.1467   -1.9146    0.7368 B   0  0  1  0  0  0  0  0  0  0  0  0
    1.5856   -2.7437    1.4179 H   0  0  0  0  0  0  0  0  0  0  0  0
    3.1127   -0.6065    1.4803 B   0  0  2  0  0  0  0  0  0  0  0  0
    3.4783   -0.6578    2.6310 H   0  0  0  0  0  0  0  0  0  0  0  0
    4.0271    0.1238    0.0615 B   0  0  2  0  0  0  0  0  0  0  0  0
    5.1511    0.5746    0.0621 H   0  0  0  0  0  0  0  0  0  0  0  0
    3.4224   -0.8196   -1.3449 B   0  0  2  0  0  0  0  0  0  0  0  0
    3.8877   -0.7586   -2.4618 H   0  0  0  0  0  0  0  0  0  0  0  0
    2.6082   -2.2089   -0.8797 B   0  0  2  0  0  0  0  0  0  0  0  0
    2.3823   -3.1895   -1.5450 H   0  0  0  0  0  0  0  0  0  0  0  0
    3.8474   -1.6561    0.2266 B   0  0  2  0  0  0  0  0  0  0  0  0
    4.8155   -2.3351    0.4804 H   0  0  0  0  0  0  0  0  0  0  0  0
    0.1898    1.4128   -0.5588 N   0  0  0  0  0  0  0  0  0  0  0  0
    0.1487    1.5367   -1.5818 H   0  0  0  0  0  0  0  0  0  0  0  0
   -0.1321    2.7912    0.0068 C   0  0  0  0  0  0  0  0  0  0  0  0
   -0.2053    2.7629    1.5360 C   0  0  0  0  0  0  0  0  0  0  0  0
    0.7574    2.4735    1.9933 H   0  0  0  0  0  0  0  0  0  0  0  0
   -0.9914    2.0734    1.8948 H   0  0  0  0  0  0  0  0  0  0  0  0
   -0.4599    3.7773    1.8989 H   0  0  0  0  0  0  0  0  0  0  0  0
   -1.5006    3.1579   -0.5843 C   0  0  0  0  0  0  0  0  0  0  0  0
   -1.4751    3.1642   -1.6941 H   0  0  0  0  0  0  0  0  0  0  0  0
   -1.7940    4.1717   -0.2513 H   0  0  0  0  0  0  0  0  0  0  0  0
   -2.2843    2.4472   -0.2574 H   0  0  0  0  0  0  0  0  0  0  0  0
    0.9319    3.7936   -0.4708 C   0  0  0  0  0  0  0  0  0  0  0  0
    1.9304    3.5650   -0.0552 H   0  0  0  0  0  0  0  0  0  0  0  0
    0.6526    4.8142   -0.1446 H   0  0  0  0  0  0  0  0  0  0  0  0
    1.0100    3.8016   -1.5771 H   0  0  0  0  0  0  0  0  0  0  0  0
  1 22  1  6  0  0  0
  1  4  1  0  0  0  0
  1  2  1  0  0  0  0
  2 12  1  0  0  0  0
  2  3  1  0  0  0  0
  4 12  1  0  0  0  0
  4  5  1  1  0  0  0
  6  7  1  6  0  0  0
  6  1  1  0  0  0  0
  6 14  1  0  0  0  0
  9  8  1  0  0  0  0
 10 11  1  1  0  0  0
 10 12  1  0  0  0  0
 12 13  1  1  0  0  0
 14 15  1  1  0  0  0
 14 20  1  0  0  0  0
 14  4  1  0  0  0  0
 16 17  1  6  0  0  0
 16  6  1  0  0  0  0
 16 18  1  0  0  0  0
 16 20  1  0  0  0  0
 18 19  1  6  0  0  0
 18  8  1  0  0  0  0
 18 10  1  0  0  0  0
 20 21  1  1  0  0  0
 20 10  1  0  0  0  0
 22 24  1  0  0  0  0
 23 22  1  0  0  0  0
 24 25  1  0  0  0  0
 25 27  1  0  0  0  0
 25 28  1  0  0  0  0
 25 26  1  0  0  0  0
 29 32  1  0  0  0  0
 29 31  1  0  0  0  0
 29 24  1  0  0  0  0
 30 29  1  0  0  0  0
 33 35  1  0  0  0  0
 33 34  1  0  0  0  0
 33 24  1  0  0  0  0
 36 33  1  0  0  0  0
M  END
