2
q = 0.0, confidence = 0.998

 44 47  0  0  0  0  0  0  0  0999 V2000
   -1.9447    0.4043   -1.6424 Se  0  0  0  0  0  0  0  0  0  0  0  0
    0.8139   -0.0920   -0.3761 N   0  0  0  0  0  2  0  0  0  0  0  0
    3.2015    1.9501    1.9157 C   0  0  0  0  0  0  0  0  0  0  0  0
    2.1285    1.7711    2.0860 H   0  0  0  0  0  0  0  0  0  0  0  0
   -3.2337    1.8111   -1.2806 C   0  0  0  0  0  0  0  0  0  0  0  0
    3.8850    1.2512    0.8699 C   0  0  0  0  0  0  0  0  0  0  0  0
    4.1131   -2.0626   -2.7892 C   0  0  0  0  0  0  0  0  0  0  0  0
    3.6596   -2.8795   -3.3707 H   0  0  0  0  0  0  0  0  0  0  0  0
    5.2718    1.5867    0.6107 C   0  0  0  0  0  0  0  0  0  0  0  0
    5.3256   -0.0166   -1.2607 C   0  0  0  0  0  0  0  0  0  0  0  0
    1.8633   -0.0807    0.3985 C   0  0  0  0  0  3  0  0  0  0  0  0
    1.6572   -0.3250    1.4562 H   0  0  0  0  0  0  0  0  0  0  0  0
   -3.8150    2.4232   -2.4062 C   0  0  0  0  0  0  0  0  0  0  0  0
   -3.5076    2.1381   -3.4244 H   0  0  0  0  0  0  0  0  0  0  0  0
    5.9194    2.5671    1.4294 C   0  0  0  0  0  0  0  0  0  0  0  0
    6.9717    2.8131    1.2205 H   0  0  0  0  0  0  0  0  0  0  0  0
    3.9465   -0.3904   -1.0007 C   0  0  0  0  0  0  0  0  0  0  0  0
    0.8723    0.4792   -1.7298 C   0  0  0  0  0  0  0  0  0  0  0  0
    0.8373   -0.3405   -2.4800 H   0  0  0  0  0  0  0  0  0  0  0  0
    1.8362    1.0100   -1.8736 H   0  0  0  0  0  0  0  0  0  0  0  0
    3.2407    0.2731    0.0498 C   0  0  0  0  0  0  0  0  0  0  0  0
    5.4493   -1.6569   -3.0760 C   0  0  0  0  0  0  0  0  0  0  0  0
    6.0089   -2.1492   -3.8845 H   0  0  0  0  0  0  0  0  0  0  0  0
   -0.2841    1.4486   -1.9316 C   0  0  0  0  0  0  0  0  0  0  0  0
   -0.2949    1.8679   -2.9548 H   0  0  0  0  0  0  0  0  0  0  0  0
   -0.2863    2.2525   -1.1711 H   0  0  0  0  0  0  0  0  0  0  0  0
    5.9447    0.9547   -0.4517 C   0  0  0  0  0  0  0  0  0  0  0  0
    6.9938    1.2234   -0.6529 H   0  0  0  0  0  0  0  0  0  0  0  0
    3.3870   -1.4532   -1.7810 C   0  0  0  0  0  0  0  0  0  0  0  0
    2.3719   -1.8086   -1.5563 H   0  0  0  0  0  0  0  0  0  0  0  0
    3.8670    2.8839    2.6923 C   0  0  0  0  0  0  0  0  0  0  0  0
    3.3256    3.4060    3.4955 H   0  0  0  0  0  0  0  0  0  0  0  0
    6.0411   -0.6653   -2.3193 C   0  0  0  0  0  0  0  0  0  0  0  0
    7.0822   -0.3620   -2.5078 H   0  0  0  0  0  0  0  0  0  0  0  0
    5.2377    3.1944    2.4540 C   0  0  0  0  0  0  0  0  0  0  0  0
    5.7436    3.9448    3.0790 H   0  0  0  0  0  0  0  0  0  0  0  0
   -3.6381    2.1372    0.0231 C   0  0  0  0  0  0  0  0  0  0  0  0
   -3.1488    1.6686    0.8889 H   0  0  0  0  0  0  0  0  0  0  0  0
   -5.2132    3.7434   -0.9173 C   0  0  0  0  0  0  0  0  0  0  0  0
   -5.9922    4.5065   -0.7721 H   0  0  0  0  0  0  0  0  0  0  0  0
   -4.6350    3.1110    0.1948 C   0  0  0  0  0  0  0  0  0  0  0  0
   -4.9546    3.3821    1.2122 H   0  0  0  0  0  0  0  0  0  0  0  0
   -4.8017    3.4025   -2.2159 C   0  0  0  0  0  0  0  0  0  0  0  0
   -5.2566    3.8928   -3.0894 H   0  0  0  0  0  0  0  0  0  0  0  0
  1  5  1  0  0  0  0
  2 11  1  0  0  0  0
  3  4  1  0  0  0  0
  3 31  1  0  0  0  0
  5 37  1  0  0  0  0
  6  3  2  0  0  0  0
  7 29  2  0  0  0  0
  8  7  1  0  0  0  0
  9  6  1  0  0  0  0
  9 15  2  0  0  0  0
 10 17  1  0  0  0  0
 10 27  2  0  0  0  0
 11 12  1  0  0  0  0
 13 43  1  0  0  0  0
 13  5  2  0  0  0  0
 14 13  1  0  0  0  0
 15 35  1  0  0  0  0
 16 15  1  0  0  0  0
 17 21  2  0  0  0  0
 18  2  1  0  0  0  0
 19 18  1  0  0  0  0
 20 18  1  0  0  0  0
 21 11  1  0  0  0  0
 21  6  1  0  0  0  0
 22  7  1  0  0  0  0
 22 33  2  0  0  0  0
 23 22  1  0  0  0  0
 24 18  1  0  0  0  0
 24  1  1  0  0  0  0
 24 26  1  0  0  0  0
 25 24  1  0  0  0  0
 27  9  1  0  0  0  0
 28 27  1  0  0  0  0
 29 30  1  0  0  0  0
 29 17  1  0  0  0  0
 31 32  1  0  0  0  0
 33 10  1  0  0  0  0
 34 33  1  0  0  0  0
 35 31  2  0  0  0  0
 35 36  1  0  0  0  0
 37 41  2  0  0  0  0
 37 38  1  0  0  0  0
 39 40  1  0  0  0  0
 39 41  1  0  0  0  0
 41 42  1  0  0  0  0
 43 39  2  0  0  0  0
 44 43  1  0  0  0  0
M  END
