1
q = 0.0, confidence = 0.998

 33 33  0  0  1  0  0  0  0  0999 V2000
   -0.0000    2.0489   -0.0000 N   0  0  0  0  0  2  0  0  0  0  0  0
   -3.5600    2.7756   -0.1819 O   0  0  0  0  0  0  0  0  0  0  0  0
   -2.4468    1.9229   -0.0611 C   0  0  0  0  0  0  0  0  0  0  0  0
   -2.3854    1.1956   -0.9102 H   0  0  0  0  0  0  0  0  0  0  0  0
   -2.4848    1.3122    0.8761 H   0  0  0  0  0  0  0  0  0  0  0  0
   -4.7854    2.0634   -0.1785 C   0  0  0  0  0  0  0  0  0  0  0  0
   -4.9240    1.5050    0.7809 H   0  0  0  0  0  0  0  0  0  0  0  0
   -4.7725    1.2928   -0.9948 H   0  0  0  0  0  0  0  0  0  0  0  0
   -5.9174    3.0172   -0.4088 C   0  0  0  0  0  0  0  0  0  0  0  0
   -5.7968    3.6854   -1.2801 H   0  0  0  0  0  0  0  0  0  0  0  0
   -7.0292    3.0729    0.3417 C   0  0  0  0  0  0  0  0  0  0  0  0
   -7.1626    2.4199    1.2207 H   0  0  0  0  0  0  0  0  0  0  0  0
   -7.8509    3.7661    0.1045 H   0  0  0  0  0  0  0  0  0  0  0  0
   -1.1768    2.7303   -0.0347 C   0  0  1  0  0  3  0  0  0  0  0  0
   -1.2055    4.1305   -0.0353 C   0  0  0  0  0  0  0  0  0  0  0  0
   -2.1856    4.6226   -0.0635 H   0  0  0  0  0  0  0  0  0  0  0  0
    0.0000    4.8388   -0.0000 C   0  0  0  0  0  0  0  0  0  0  0  0
    0.0000    5.9393   -0.0000 H   0  0  0  0  0  0  0  0  0  0  0  0
    3.5600    2.7755    0.1818 O   0  0  0  0  0  0  0  0  0  0  0  0
    2.4468    1.9229    0.0611 C   0  0  0  0  0  0  0  0  0  0  0  0
    2.3853    1.1955    0.9102 H   0  0  0  0  0  0  0  0  0  0  0  0
    2.4848    1.3121   -0.8761 H   0  0  0  0  0  0  0  0  0  0  0  0
    4.7853    2.0632    0.1787 C   0  0  0  0  0  0  0  0  0  0  0  0
    4.9240    1.5047   -0.7807 H   0  0  0  0  0  0  0  0  0  0  0  0
    4.7723    1.2928    0.9950 H   0  0  0  0  0  0  0  0  0  0  0  0
    5.9174    3.0170    0.4089 C   0  0  0  0  0  0  0  0  0  0  0  0
    5.7968    3.6853    1.2801 H   0  0  0  0  0  0  0  0  0  0  0  0
    7.0292    3.0726   -0.3415 C   0  0  0  0  0  0  0  0  0  0  0  0
    7.1627    2.4194   -1.2204 H   0  0  0  0  0  0  0  0  0  0  0  0
    7.8510    3.7657   -0.1043 H   0  0  0  0  0  0  0  0  0  0  0  0
    1.1767    2.7303    0.0347 C   0  0  0  0  0  0  0  0  0  0  0  0
    1.2055    4.1305    0.0353 C   0  0  0  0  0  0  0  0  0  0  0  0
    2.1856    4.6226    0.0635 H   0  0  0  0  0  0  0  0  0  0  0  0
  1 31  1  0  0  0  0
  2  6  1  0  0  0  0
  2  3  1  0  0  0  0
  3  5  1  0  0  0  0
  4  3  1  0  0  0  0
  6  7  1  0  0  0  0
  8  6  1  0  0  0  0
  9  6  1  0  0  0  0
  9 11  2  0  0  0  0
 10  9  1  0  0  0  0
 11 12  1  0  0  0  0
 13 11  1  0  0  0  0
 14  3  1  1  0  0  0
 14  1  1  0  0  0  0
 15 14  1  0  0  0  0
 15 17  2  0  0  0  0
 16 15  1  0  0  0  0
 17 18  1  0  0  0  0
 17 32  1  0  0  0  0
 20 19  1  0  0  0  0
 20 21  1  0  0  0  0
 22 20  1  0  0  0  0
 23 19  1  0  0  0  0
 23 26  1  0  0  0  0
 23 25  1  0  0  0  0
 24 23  1  0  0  0  0
 26 27  1  0  0  0  0
 28 30  1  0  0  0  0
 28 26  2  0  0  0  0
 29 28  1  0  0  0  0
 31 32  2  0  0  0  0
 31 20  1  0  0  0  0
 32 33  1  0  0  0  0
M  END
