5
q = 0.0, confidence = 0.998

 36 37  0  0  0  0  0  0  0  0999 V2000
    2.3321    0.3478   -0.5370 S   0  0  0  0  0  0  0  0  0  0  0  0
   -3.4185   -2.4436    1.8608 O   0  0  0  0  0  0  0  0  0  0  0  0
   -4.2793   -2.6960    2.2662 H   0  0  0  0  0  0  0  0  0  0  0  0
   -5.9432   -2.0647    1.3034 O   0  0  0  0  0  0  0  0  0  0  0  0
   -0.2288   -1.0511   -0.0100 N   0  0  0  0  0  2  0  0  0  0  0  0
    0.9275   -1.7528    0.2636 N   0  0  0  0  0  0  0  0  0  0  0  0
    0.8064   -2.7236    0.5775 H   0  0  0  0  0  0  0  0  0  0  0  0
    3.2020   -2.1203    0.1659 N   0  0  0  0  0  0  0  0  0  0  0  0
    2.9757   -3.1172    0.2254 H   0  0  0  0  0  0  0  0  0  0  0  0
    2.1678   -1.2594   -0.0041 C   0  0  0  0  0  0  0  0  0  0  0  0
   -1.3314   -1.7307    0.2100 C   0  0  0  0  0  3  0  0  0  0  0  0
   -1.2251   -2.7059    0.7300 H   0  0  0  0  0  0  0  0  0  0  0  0
   -2.6840   -1.3669   -0.1552 C   0  0  0  0  0  0  0  0  0  0  0  0
   -3.0284   -0.7182   -1.3750 C   0  0  0  0  0  0  0  0  0  0  0  0
   -2.2214   -0.4295   -2.0665 H   0  0  0  0  0  0  0  0  0  0  0  0
   -4.3670   -0.5097   -1.6950 C   0  0  0  0  0  0  0  0  0  0  0  0
   -4.6309   -0.0342   -2.6509 H   0  0  0  0  0  0  0  0  0  0  0  0
   -5.4022   -0.9278   -0.8259 C   0  0  0  0  0  0  0  0  0  0  0  0
   -6.4517   -0.7531   -1.0992 H   0  0  0  0  0  0  0  0  0  0  0  0
   -5.0796   -1.5834    0.3663 C   0  0  0  0  0  0  0  0  0  0  0  0
   -3.7174   -1.8130    0.7041 C   0  0  0  0  0  0  0  0  0  0  0  0
   -7.3431   -1.9411    1.0717 C   0  0  0  0  0  0  0  0  0  0  0  0
   -7.6442   -2.4727    0.1435 H   0  0  0  0  0  0  0  0  0  0  0  0
   -7.6443   -0.8739    0.9993 H   0  0  0  0  0  0  0  0  0  0  0  0
   -7.8459   -2.4044    1.9390 H   0  0  0  0  0  0  0  0  0  0  0  0
    4.5929   -1.8252    0.0561 C   0  0  0  0  0  0  0  0  0  0  0  0
    5.4115   -2.7328   -0.6412 C   0  0  0  0  0  0  0  0  0  0  0  0
    4.9681   -3.6213   -1.1171 H   0  0  0  0  0  0  0  0  0  0  0  0
    6.7882   -2.4922   -0.7379 C   0  0  0  0  0  0  0  0  0  0  0  0
    7.4255   -3.2029   -1.2842 H   0  0  0  0  0  0  0  0  0  0  0  0
    7.3475   -1.3458   -0.1519 C   0  0  0  0  0  0  0  0  0  0  0  0
    8.4274   -1.1552   -0.2349 H   0  0  0  0  0  0  0  0  0  0  0  0
    6.5255   -0.4475    0.5467 C   0  0  0  0  0  0  0  0  0  0  0  0
    6.9611    0.4445    1.0206 H   0  0  0  0  0  0  0  0  0  0  0  0
    5.1493   -0.6844    0.6637 C   0  0  0  0  0  0  0  0  0  0  0  0
    4.5120    0.0053    1.2334 H   0  0  0  0  0  0  0  0  0  0  0  0
  1 10  2  0  0  0  0
  2  3  1  0  0  0  0
  5 11  1  0  0  0  0
  5  6  1  0  0  0  0
  6  7  1  0  0  0  0
  8  9  1  0  0  0  0
 10  8  1  0  0  0  0
 10  6  1  0  0  0  0
 11 12  1  0  0  0  0
 13 11  1  0  0  0  0
 13 21  1  0  0  0  0
 14 13  2  0  0  0  0
 15 14  1  0  0  0  0
 16 14  1  0  0  0  0
 16 18  2  0  0  0  0
 17 16  1  0  0  0  0
 18 20  1  0  0  0  0
 19 18  1  0  0  0  0
 20 21  2  0  0  0  0
 20  4  1  0  0  0  0
 21  2  1  0  0  0  0
 22  4  1  0  0  0  0
 22 25  1  0  0  0  0
 23 22  1  0  0  0  0
 24 22  1  0  0  0  0
 26  8  1  0  0  0  0
 26 35  1  0  0  0  0
 27 26  2  0  0  0  0
 28 27  1  0  0  0  0
 29 27  1  0  0  0  0
 29 31  2  0  0  0  0
 30 29  1  0  0  0  0
 31 33  1  0  0  0  0
 32 31  1  0  0  0  0
 33 35  2  0  0  0  0
 33 34  1  0  0  0  0
 35 36  1  0  0  0  0
M  END
