2
q = 0.0, confidence = 0.982

 14 14  0  0  0  0  0  0  0  0999 V2000
    3.9972   -1.2124    0.0001 O   0  0  0  0  0  0  0  0  0  0  0  0
    0.8988    0.5532    0.0000 N   0  0  0  0  0  2  0  0  0  0  0  0
    3.6425    1.0808   -0.0001 N   0  0  0  0  0  0  0  0  0  0  0  0
    1.7747   -0.4559    0.0001 C   0  0  0  0  0  3  0  0  0  0  0  0
    1.3840   -1.4832    0.0002 H   0  0  0  0  0  0  0  0  0  0  0  0
    3.1678   -0.1655    0.0000 C   0  0  0  0  0  0  0  0  0  0  0  0
    2.7347    2.0729   -0.0002 C   0  0  0  0  0  0  0  0  0  0  0  0
    3.1153    3.1081   -0.0003 H   0  0  0  0  0  0  0  0  0  0  0  0
    1.3617    1.8320   -0.0001 C   0  0  0  0  0  0  0  0  0  0  0  0
    0.6232    2.6448   -0.0001 H   0  0  0  0  0  0  0  0  0  0  0  0
    5.4023   -0.9349    0.0000 C   0  0  0  0  0  0  0  0  0  0  0  0
    5.6908   -0.3529   -0.8985 H   0  0  0  0  0  0  0  0  0  0  0  0
    5.8998   -1.9206    0.0001 H   0  0  0  0  0  0  0  0  0  0  0  0
    5.6909   -0.3527    0.8983 H   0  0  0  0  0  0  0  0  0  0  0  0
  2  4  1  0  0  0  0
  3  6  2  0  0  0  0
  4  5  1  0  0  0  0
  6  4  1  0  0  0  0
  6  1  1  0  0  0  0
  7  3  1  0  0  0  0
  7  9  2  0  0  0  0
  8  7  1  0  0  0  0
  9  2  1  0  0  0  0
 10  9  1  0  0  0  0
 11 13  1  0  0  0  0
 11  1  1  0  0  0  0
 11 14  1  0  0  0  0
 12 11  1  0  0  0  0
M  END
