2
q = -1.0, confidence = 0.0

 43 44  0  0  0  0  0  0  0  0999 V2000
    1.7788   -2.1030   -0.1215 S   0  0  0  0  0  1  0  0  0  0  0  0
    0.4982    0.8229    0.0521 N   0  0  0  0  0  2  0  0  0  0  0  0
    3.1022   -0.9951    0.0257 C   0  0  0  0  0  0  0  0  0  0  0  0
    4.4083   -1.5639    0.0344 C   0  0  0  0  0  0  0  0  0  0  0  0
    5.5482   -0.7762    0.1436 C   0  0  0  0  0  0  0  0  0  0  0  0
    5.4398    0.6316    0.2517 C   0  0  0  0  0  0  0  0  0  0  0  0
    4.1800    1.2105    0.2448 C   0  0  0  0  0  0  0  0  0  0  0  0
    2.9852    0.4314    0.1321 C   0  0  0  0  0  0  0  0  0  0  0  0
    1.7665    1.1868    0.1345 C   0  0  0  0  0  3  0  0  0  0  0  0
   -0.4020    1.9541    0.0886 C   0  0  0  0  0  0  0  0  0  0  0  0
   -0.9319    2.3630    1.3400 C   0  0  0  0  0  0  0  0  0  0  0  0
   -1.7867    3.4808    1.3561 C   0  0  0  0  0  0  0  0  0  0  0  0
   -2.1109    4.1613    0.1753 C   0  0  0  0  0  0  0  0  0  0  0  0
   -1.5879    3.7291   -1.0493 C   0  0  0  0  0  0  0  0  0  0  0  0
   -0.7245    2.6185   -1.1219 C   0  0  0  0  0  0  0  0  0  0  0  0
   -0.5634    1.6230    2.6216 C   0  0  0  0  0  0  0  0  0  0  0  0
    0.6548    2.2729    3.3032 C   0  0  0  0  0  0  0  0  0  0  0  0
   -1.7349    1.4969    3.6052 C   0  0  0  0  0  0  0  0  0  0  0  0
   -0.1285    2.1690   -2.4535 C   0  0  0  0  0  0  0  0  0  0  0  0
    1.1309    2.9859   -2.7986 C   0  0  0  0  0  0  0  0  0  0  0  0
   -1.1357    2.2205   -3.6122 C   0  0  0  0  0  0  0  0  0  0  0  0
    4.4922   -2.6581   -0.0477 H   0  0  0  0  0  0  0  0  0  0  0  0
    6.5401   -1.2538    0.1469 H   0  0  0  0  0  0  0  0  0  0  0  0
    6.3405    1.2561    0.3397 H   0  0  0  0  0  0  0  0  0  0  0  0
    4.0773    2.3045    0.3263 H   0  0  0  0  0  0  0  0  0  0  0  0
    1.9300    2.2781    0.2272 H   0  0  0  0  0  0  0  0  0  0  0  0
   -2.2088    3.8221    2.3128 H   0  0  0  0  0  0  0  0  0  0  0  0
   -2.7813    5.0335    0.2097 H   0  0  0  0  0  0  0  0  0  0  0  0
   -1.8535    4.2658   -1.9722 H   0  0  0  0  0  0  0  0  0  0  0  0
   -0.2737    0.5929    2.3179 H   0  0  0  0  0  0  0  0  0  0  0  0
    1.5383    2.2960    2.6354 H   0  0  0  0  0  0  0  0  0  0  0  0
    0.9392    1.7112    4.2166 H   0  0  0  0  0  0  0  0  0  0  0  0
    0.4297    3.3188    3.5995 H   0  0  0  0  0  0  0  0  0  0  0  0
   -2.6309    1.0608    3.1193 H   0  0  0  0  0  0  0  0  0  0  0  0
   -2.0263    2.4762    4.0387 H   0  0  0  0  0  0  0  0  0  0  0  0
   -1.4525    0.8390    4.4518 H   0  0  0  0  0  0  0  0  0  0  0  0
    0.1818    1.1093   -2.3280 H   0  0  0  0  0  0  0  0  0  0  0  0
    1.9130    2.8908   -2.0202 H   0  0  0  0  0  0  0  0  0  0  0  0
    0.8851    4.0637   -2.8977 H   0  0  0  0  0  0  0  0  0  0  0  0
    1.5689    2.6441   -3.7588 H   0  0  0  0  0  0  0  0  0  0  0  0
   -0.6949    1.7655   -4.5220 H   0  0  0  0  0  0  0  0  0  0  0  0
   -2.0668    1.6690   -3.3719 H   0  0  0  0  0  0  0  0  0  0  0  0
   -1.4170    3.2616   -3.8731 H   0  0  0  0  0  0  0  0  0  0  0  0
  1  3  1  0  0  0  0
  2 10  1  0  0  0  0
  2  9  1  0  0  0  0
  3  4  2  0  0  0  0
  3  8  1  0  0  0  0
  4  5  1  0  0  0  0
  5 23  1  0  0  0  0
  5  6  2  0  0  0  0
  6 24  1  0  0  0  0
  7  6  1  0  0  0  0
  7 25  1  0  0  0  0
  8  9  1  0  0  0  0
  8  7  2  0  0  0  0
  9 26  1  0  0  0  0
 10 11  1  0  0  0  0
 11 12  2  0  0  0  0
 11 16  1  0  0  0  0
 12 27  1  0  0  0  0
 13 28  1  0  0  0  0
 13 12  1  0  0  0  0
 14 13  2  0  0  0  0
 15 14  1  0  0  0  0
 15 10  2  0  0  0  0
 16 17  1  0  0  0  0
 16 18  1  0  0  0  0
 17 33  1  0  0  0  0
 17 32  1  0  0  0  0
 18 35  1  0  0  0  0
 18 36  1  0  0  0  0
 19 37  1  0  0  0  0
 19 15  1  0  0  0  0
 20 19  1  0  0  0  0
 20 38  1  0  0  0  0
 21 42  1  0  0  0  0
 21 19  1  0  0  0  0
 22  4  1  0  0  0  0
 29 14  1  0  0  0  0
 30 16  1  0  0  0  0
 31 17  1  0  0  0  0
 34 18  1  0  0  0  0
 39 20  1  0  0  0  0
 40 20  1  0  0  0  0
 41 21  1  0  0  0  0
 43 21  1  0  0  0  0
M  END
