3
q = -1.0, confidence = 0.0

 29 30  0  0  0  0  0  0  0  0999 V2000
    2.8201   -0.1122   -0.1235 S   0  0  0  0  0  1  0  0  0  0  0  0
   -5.7165    1.7769    0.3540 O   0  0  0  0  0  0  0  0  0  0  0  0
   -0.1431    1.0797    0.0587 N   0  0  0  0  0  2  0  0  0  0  0  0
    2.9826    1.6118   -0.0916 C   0  0  0  0  0  0  0  0  0  0  0  0
    1.9018    2.5492    0.0320 C   0  0  0  0  0  0  0  0  0  0  0  0
    2.2103    3.9459    0.0763 C   0  0  0  0  0  0  0  0  0  0  0  0
    3.5118    4.4173    0.0009 C   0  0  0  0  0  0  0  0  0  0  0  0
    4.5722    3.4874   -0.1279 C   0  0  0  0  0  0  0  0  0  0  0  0
    4.3098    2.1236   -0.1748 C   0  0  0  0  0  0  0  0  0  0  0  0
    0.5047    2.2341    0.0972 C   0  0  0  0  0  3  0  0  0  0  0  0
   -1.5735    1.2544    0.1136 C   0  0  0  0  0  0  0  0  0  0  0  0
   -2.3277    1.2655   -1.0695 C   0  0  0  0  0  0  0  0  0  0  0  0
   -3.7198    1.4420   -1.0330 C   0  0  0  0  0  0  0  0  0  0  0  0
   -4.3743    1.6075    0.2059 C   0  0  0  0  0  0  0  0  0  0  0  0
   -3.6138    1.6061    1.3952 C   0  0  0  0  0  0  0  0  0  0  0  0
   -2.2280    1.4344    1.3482 C   0  0  0  0  0  0  0  0  0  0  0  0
   -6.5253    1.7776   -0.8064 C   0  0  0  0  0  0  0  0  0  0  0  0
    1.3737    4.6564    0.1716 H   0  0  0  0  0  0  0  0  0  0  0  0
    3.7170    5.4970    0.0376 H   0  0  0  0  0  0  0  0  0  0  0  0
    5.6121    3.8433   -0.1916 H   0  0  0  0  0  0  0  0  0  0  0  0
    5.1331    1.4001   -0.2735 H   0  0  0  0  0  0  0  0  0  0  0  0
   -0.1440    3.1290    0.1692 H   0  0  0  0  0  0  0  0  0  0  0  0
   -1.8103    1.1264   -2.0301 H   0  0  0  0  0  0  0  0  0  0  0  0
   -4.2820    1.4482   -1.9760 H   0  0  0  0  0  0  0  0  0  0  0  0
   -4.1392    1.7446    2.3509 H   0  0  0  0  0  0  0  0  0  0  0  0
   -1.6350    1.4395    2.2748 H   0  0  0  0  0  0  0  0  0  0  0  0
   -6.2582    2.6070   -1.4997 H   0  0  0  0  0  0  0  0  0  0  0  0
   -6.4563    0.8148   -1.3615 H   0  0  0  0  0  0  0  0  0  0  0  0
   -7.5668    1.9195   -0.4629 H   0  0  0  0  0  0  0  0  0  0  0  0
  1  4  1  0  0  0  0
  3 10  1  0  0  0  0
  3 11  1  0  0  0  0
  4  5  1  0  0  0  0
  5  6  2  0  0  0  0
  5 10  1  0  0  0  0
  6 18  1  0  0  0  0
  7 19  1  0  0  0  0
  7  6  1  0  0  0  0
  8  7  2  0  0  0  0
  9  8  1  0  0  0  0
  9  4  2  0  0  0  0
 10 22  1  0  0  0  0
 11 16  1  0  0  0  0
 12 13  1  0  0  0  0
 12 11  2  0  0  0  0
 13 14  2  0  0  0  0
 14  2  1  0  0  0  0
 14 15  1  0  0  0  0
 15 25  1  0  0  0  0
 16 15  2  0  0  0  0
 16 26  1  0  0  0  0
 17 29  1  0  0  0  0
 17  2  1  0  0  0  0
 20  8  1  0  0  0  0
 21  9  1  0  0  0  0
 23 12  1  0  0  0  0
 24 13  1  0  0  0  0
 27 17  1  0  0  0  0
 28 17  1  0  0  0  0
M  END
