14
q = -1.0

 31 31  0  0  1  0  0  0  0  0999 V2000
    2.5057    0.4213   -0.8687 S   0  0  0  0  0  0  0  0  0  0  0  0
    2.4342    2.0300   -0.2882 C   0  0  0  0  0  0  0  0  0  0  0  0
    3.7078    2.8151   -0.4961 C   0  0  0  0  0  0  0  0  0  0  0  0
    3.5263    3.9066   -0.4520 H   0  0  0  0  0  0  0  0  0  0  0  0
    4.1799    2.5661   -1.4674 H   0  0  0  0  0  0  0  0  0  0  0  0
    4.4408    2.5506    0.2954 H   0  0  0  0  0  0  0  0  0  0  0  0
    1.3520    2.6361    0.3314 C   0  0  0  0  0  3  0  0  0  0  0  0
    1.5042    3.6766    0.6552 H   0  0  0  0  0  0  0  0  0  0  0  0
    0.0084    2.1666    0.4350 C   0  0  1  0  0  3  0  0  0  0  0  0
   -1.0330    3.2192    0.7625 C   0  0  0  0  0  0  0  0  0  0  0  0
   -1.6402    3.4717   -0.1311 H   0  0  0  0  0  0  0  0  0  0  0  0
   -0.5500    4.1461    1.1205 H   0  0  0  0  0  0  0  0  0  0  0  0
   -1.7416    2.8608    1.5334 H   0  0  0  0  0  0  0  0  0  0  0  0
   -0.4008    0.9216    0.2079 N   0  0  0  0  0  2  0  0  0  0  0  0
   -1.8057    0.7073    0.0350 C   0  0  0  0  0  0  0  0  0  0  0  0
   -2.3552    0.9111   -1.2584 C   0  0  0  0  0  0  0  0  0  0  0  0
   -1.4947    1.4428   -2.3759 C   0  0  0  0  0  0  0  0  0  0  0  0
   -1.3260    2.5367   -2.2734 H   0  0  0  0  0  0  0  0  0  0  0  0
   -1.9684    1.2741   -3.3620 H   0  0  0  0  0  0  0  0  0  0  0  0
   -0.4874    0.9794   -2.3668 H   0  0  0  0  0  0  0  0  0  0  0  0
   -3.7097    0.5901   -1.4667 C   0  0  0  0  0  0  0  0  0  0  0  0
   -4.1441    0.7291   -2.4693 H   0  0  0  0  0  0  0  0  0  0  0  0
   -4.5002    0.0921   -0.4207 C   0  0  0  0  0  0  0  0  0  0  0  0
   -5.5552   -0.1641   -0.6008 H   0  0  0  0  0  0  0  0  0  0  0  0
   -3.9449   -0.0743    0.8557 C   0  0  0  0  0  0  0  0  0  0  0  0
   -4.5687   -0.4523    1.6812 H   0  0  0  0  0  0  0  0  0  0  0  0
   -2.5946    0.2350    1.1140 C   0  0  0  0  0  0  0  0  0  0  0  0
   -2.0144    0.0922    2.4959 C   0  0  0  0  0  0  0  0  0  0  0  0
   -2.6085   -0.6153    3.1067 H   0  0  0  0  0  0  0  0  0  0  0  0
   -2.0280    1.0683    3.0293 H   0  0  0  0  0  0  0  0  0  0  0  0
   -0.9509   -0.2261    2.4788 H   0  0  0  0  0  0  0  0  0  0  0  0
  1  2  2  0  0  0  0
  2  7  1  0  0  0  0
  3  4  1  0  0  0  0
  3  2  1  0  0  0  0
  3  6  1  0  0  0  0
  5  3  1  0  0  0  0
  7  9  1  0  0  0  0
  7  8  1  0  0  0  0
  9 14  1  6  0  0  0
  9 10  1  0  0  0  0
 10 12  1  0  0  0  0
 10 13  1  0  0  0  0
 11 10  1  0  0  0  0
 15 14  1  0  0  0  0
 15 27  1  0  0  0  0
 16 15  2  0  0  0  0
 17 20  1  0  0  0  0
 17 18  1  0  0  0  0
 17 16  1  0  0  0  0
 19 17  1  0  0  0  0
 21 16  1  0  0  0  0
 21 23  2  0  0  0  0
 22 21  1  0  0  0  0
 23 25  1  0  0  0  0
 24 23  1  0  0  0  0
 25 27  2  0  0  0  0
 25 26  1  0  0  0  0
 27 28  1  0  0  0  0
 28 30  1  0  0  0  0
 28 29  1  0  0  0  0
 31 28  1  0  0  0  0
M  END
