2
q = -1.0

 43 43  0  0  0  0  0  0  0  0999 V2000
   -2.8561    0.7914   -0.2721 S   0  0  0  0  0  0  0  0  0  0  0  0
    0.2667    0.3640   -0.7018 N   0  0  0  0  0  2  0  0  0  0  0  0
    1.6166    0.3244   -0.2122 C   0  0  0  0  0  0  0  0  0  0  0  0
    2.0811    1.4287    0.5596 C   0  0  0  0  0  0  0  0  0  0  0  0
    3.3784    1.3670    1.1008 C   0  0  0  0  0  0  0  0  0  0  0  0
    3.7550    2.2097    1.6995 H   0  0  0  0  0  0  0  0  0  0  0  0
    4.1956    0.2471    0.8946 C   0  0  0  0  0  0  0  0  0  0  0  0
    5.2046    0.2119    1.3327 H   0  0  0  0  0  0  0  0  0  0  0  0
    3.7289   -0.8186    0.1167 C   0  0  0  0  0  0  0  0  0  0  0  0
    4.3838   -1.6854   -0.0634 H   0  0  0  0  0  0  0  0  0  0  0  0
    2.4442   -0.8027   -0.4629 C   0  0  0  0  0  0  0  0  0  0  0  0
    1.1966    2.6541    0.7777 C   0  0  0  0  0  0  0  0  0  0  0  0
    0.1455    2.3119    0.6714 H   0  0  0  0  0  0  0  0  0  0  0  0
    1.3519    3.2815    2.1715 C   0  0  0  0  0  0  0  0  0  0  0  0
    1.2448    2.5356    2.9849 H   0  0  0  0  0  0  0  0  0  0  0  0
    0.5826    4.0651    2.3253 H   0  0  0  0  0  0  0  0  0  0  0  0
    2.3395    3.7711    2.2996 H   0  0  0  0  0  0  0  0  0  0  0  0
    1.4434    3.7194   -0.3073 C   0  0  0  0  0  0  0  0  0  0  0  0
    0.7850    4.5980   -0.1483 H   0  0  0  0  0  0  0  0  0  0  0  0
    1.2418    3.3296   -1.3221 H   0  0  0  0  0  0  0  0  0  0  0  0
    2.4962    4.0706   -0.2816 H   0  0  0  0  0  0  0  0  0  0  0  0
    2.0174   -1.9415   -1.3841 C   0  0  0  0  0  0  0  0  0  0  0  0
    0.9979   -1.7153   -1.7566 H   0  0  0  0  0  0  0  0  0  0  0  0
    2.9711   -2.0574   -2.5882 C   0  0  0  0  0  0  0  0  0  0  0  0
    3.0916   -1.0916   -3.1173 H   0  0  0  0  0  0  0  0  0  0  0  0
    2.5843   -2.8004   -3.3152 H   0  0  0  0  0  0  0  0  0  0  0  0
    3.9832   -2.3924   -2.2780 H   0  0  0  0  0  0  0  0  0  0  0  0
    1.9140   -3.2920   -0.6578 C   0  0  0  0  0  0  0  0  0  0  0  0
    2.8674   -3.5723   -0.1620 H   0  0  0  0  0  0  0  0  0  0  0  0
    1.6586   -4.0935   -1.3798 H   0  0  0  0  0  0  0  0  0  0  0  0
    1.1085   -3.2737    0.0984 H   0  0  0  0  0  0  0  0  0  0  0  0
    0.0452    0.8724   -1.9110 C   0  0  0  0  0  0  0  0  0  0  0  0
    1.2114    1.1501   -2.8410 C   0  0  0  0  0  0  0  0  0  0  0  0
    2.1753    1.2532   -2.3139 H   0  0  0  0  0  0  0  0  0  0  0  0
    1.0275    2.0559   -3.4484 H   0  0  0  0  0  0  0  0  0  0  0  0
    1.3018    0.2959   -3.5453 H   0  0  0  0  0  0  0  0  0  0  0  0
   -1.2279    1.2009   -2.4711 C   0  0  0  0  0  0  0  0  0  0  0  0
   -1.1855    1.5523   -3.5135 H   0  0  0  0  0  0  0  0  0  0  0  0
   -2.4666    1.2933   -1.8601 C   0  0  0  0  0  0  0  0  0  0  0  0
   -3.6341    1.8691   -2.6270 C   0  0  0  0  0  0  0  0  0  0  0  0
   -4.2749    1.0446   -3.0054 H   0  0  0  0  0  0  0  0  0  0  0  0
   -3.2961    2.4730   -3.4914 H   0  0  0  0  0  0  0  0  0  0  0  0
   -4.2721    2.4984   -1.9749 H   0  0  0  0  0  0  0  0  0  0  0  0
  2  3  1  0  0  0  0
  3  4  1  0  0  0  0
  4 12  1  0  0  0  0
  4  5  2  0  0  0  0
  5  6  1  0  0  0  0
  7  5  1  0  0  0  0
  7  8  1  0  0  0  0
  9  7  2  0  0  0  0
 10  9  1  0  0  0  0
 11  3  2  0  0  0  0
 11  9  1  0  0  0  0
 12 14  1  0  0  0  0
 13 12  1  0  0  0  0
 14 17  1  0  0  0  0
 14 16  1  0  0  0  0
 14 15  1  0  0  0  0
 18 21  1  0  0  0  0
 18 19  1  0  0  0  0
 18 12  1  0  0  0  0
 20 18  1  0  0  0  0
 22 28  1  0  0  0  0
 22 11  1  0  0  0  0
 23 22  1  0  0  0  0
 24 27  1  0  0  0  0
 24 22  1  0  0  0  0
 25 24  1  0  0  0  0
 26 24  1  0  0  0  0
 28 29  1  0  0  0  0
 28 31  1  0  0  0  0
 30 28  1  0  0  0  0
 32  2  1  0  0  0  0
 33 34  1  0  0  0  0
 33 32  1  0  0  0  0
 35 33  1  0  0  0  0
 36 33  1  0  0  0  0
 37 32  2  0  0  0  0
 37 39  1  0  0  0  0
 38 37  1  0  0  0  0
 39  1  2  0  0  0  0
 40 43  1  0  0  0  0
 40 39  1  0  0  0  0
 41 40  1  0  0  0  0
 42 40  1  0  0  0  0
M  END
