1
q = -1.0, confidence = 0.006

 22 22  0  0  0  0  0  0  0  0999 V2000
   -0.0851    1.5808    0.0614 N   0  0  0  0  0  0  0  0  0  0  0  0
   -0.7941    0.6724   -0.7940 C   0  0  0  0  0  3  0  0  0  0  0  0
   -2.2135    0.3639   -0.5014 C   0  0  0  0  0  0  0  0  0  0  0  0
   -3.0850    0.0303   -1.5612 C   0  0  0  0  0  0  0  0  0  0  0  0
   -4.4315   -0.2763   -1.3208 C   0  0  0  0  0  0  0  0  0  0  0  0
   -4.9420   -0.2437   -0.0139 C   0  0  0  0  0  0  0  0  0  0  0  0
   -4.0861    0.0846    1.0508 C   0  0  0  0  0  0  0  0  0  0  0  0
   -2.7374    0.3746    0.8120 C   0  0  0  0  0  0  0  0  0  0  0  0
    0.4839    2.8291   -0.4856 C   0  0  0  0  0  0  0  0  0  0  0  0
    1.5117    3.4343    0.4584 C   0  0  0  0  0  0  0  0  0  0  0  0
   -0.5899    1.7691    0.9366 H   0  0  0  0  0  0  0  0  0  0  0  0
   -0.6125    0.8996   -1.8599 H   0  0  0  0  0  0  0  0  0  0  0  0
   -2.6942    0.0136   -2.5912 H   0  0  0  0  0  0  0  0  0  0  0  0
   -5.0897   -0.5366   -2.1639 H   0  0  0  0  0  0  0  0  0  0  0  0
   -5.9993   -0.4809    0.1767 H   0  0  0  0  0  0  0  0  0  0  0  0
   -4.4691    0.0977    2.0825 H   0  0  0  0  0  0  0  0  0  0  0  0
   -2.0730    0.5680    1.6708 H   0  0  0  0  0  0  0  0  0  0  0  0
    0.9421    2.5755   -1.4624 H   0  0  0  0  0  0  0  0  0  0  0  0
   -0.3452    3.5444   -0.6882 H   0  0  0  0  0  0  0  0  0  0  0  0
    1.9383    4.3609    0.0271 H   0  0  0  0  0  0  0  0  0  0  0  0
    2.3342    2.7167    0.6515 H   0  0  0  0  0  0  0  0  0  0  0  0
    1.0570    3.6964    1.4359 H   0  0  0  0  0  0  0  0  0  0  0  0
  1 11  1  0  0  0  0
  2  3  1  0  0  0  0
  2  1  1  0  0  0  0
  3  8  1  0  0  0  0
  4  5  1  0  0  0  0
  4  3  2  0  0  0  0
  5  6  2  0  0  0  0
  6 15  1  0  0  0  0
  6  7  1  0  0  0  0
  7 16  1  0  0  0  0
  8  7  2  0  0  0  0
  8 17  1  0  0  0  0
  9  1  1  0  0  0  0
  9 10  1  0  0  0  0
 10 21  1  0  0  0  0
 10 22  1  0  0  0  0
 12  2  1  0  0  0  0
 13  4  1  0  0  0  0
 14  5  1  0  0  0  0
 18  9  1  0  0  0  0
 19  9  1  0  0  0  0
 20 10  1  0  0  0  0
M  END
