5
q = -1.0

  9  9  0  0  0  0  0  0  0  0999 V2000
   -4.7610    1.2797    1.5086 Br  0  0  0  0  0  0  0  0  0  0  0  0
   -4.6294   -0.5286   -1.7789 Br  0  0  0  0  0  0  0  0  0  0  0  0
   -1.5625    1.9937    1.7263 O   0  0  0  0  0  0  0  0  0  0  0  0
   -1.3985   -0.2671   -2.2756 O   0  0  0  0  0  0  0  0  0  0  0  0
   -1.0738    0.9278   -0.2948 N   0  0  0  0  0  0  0  0  0  0  0  0
   -3.2727    0.2834   -0.8004 C   0  0  0  0  0  0  0  0  0  0  0  0
   -3.3200    0.9368    0.3828 C   0  0  0  0  0  0  0  0  0  0  0  0
   -1.8961    1.3712    0.7239 C   0  0  0  0  0  0  0  0  0  0  0  0
   -1.8159    0.2659   -1.2528 C   0  0  0  0  0  0  0  0  0  0  0  0
  2  6  1  0  0  0  0
  4  9  2  0  0  0  0
  5  8  1  0  0  0  0
  6  7  2  0  0  0  0
  7  8  1  0  0  0  0
  7  1  1  0  0  0  0
  8  3  2  0  0  0  0
  9  6  1  0  0  0  0
  9  5  1  0  0  0  0
M  END
