1
q = 0.0, confidence = 0.996

 11 11  0  0  0  0  0  0  0  0999 V2000
   -1.8122   -0.4942   -0.2080 N   0  0  0  0  0  2  0  0  0  0  0  0
   -3.9849   -0.8686   -0.1211 N   0  0  0  0  0  0  0  0  0  0  0  0
   -4.9731   -0.7259    0.0948 H   0  0  0  0  0  0  0  0  0  0  0  0
   -2.9677   -0.0197    0.2257 C   0  0  0  0  0  3  0  0  0  0  0  0
   -3.0842    0.9362    0.7552 H   0  0  0  0  0  0  0  0  0  0  0  0
   -3.4507   -1.9259   -0.8135 C   0  0  0  0  0  0  0  0  0  0  0  0
   -4.0576   -2.7458   -1.2106 H   0  0  0  0  0  0  0  0  0  0  0  0
   -2.0808   -1.6816   -0.8655 C   0  0  0  0  0  0  0  0  0  0  0  0
   -1.0546   -2.4976   -1.5223 C   0  0  0  0  0  0  0  0  0  0  0  0
   -1.4616   -3.4277   -2.0194 H   0  0  0  0  0  0  0  0  0  0  0  0
    0.1339   -2.2238   -1.5520 O   0  0  0  0  0  0  0  0  0  0  0  0
  1  4  1  0  0  0  0
  2  3  1  0  0  0  0
  2  4  1  0  0  0  0
  4  5  1  0  0  0  0
  6  2  1  0  0  0  0
  7  6  1  0  0  0  0
  8  6  2  0  0  0  0
  8  1  1  0  0  0  0
  9  8  1  0  0  0  0
 10  9  1  0  0  0  0
 11  9  2  0  0  0  0
M  END
