3
q = -1.0, confidence = 0.004

  9  8  0  0  0  0  0  0  0  0999 V2000
    0.5601    3.9145    0.4479 O   0  5  0  0  0  0  0  0  0  0  0  0
   -0.4911    2.5872   -1.0793 O   0  0  0  0  0  0  0  0  0  0  0  0
    1.2478    0.8998   -1.2484 N   0  0  0  0  0  0  0  0  0  0  0  0
    1.8052    2.1811   -0.7273 C   0  0  0  0  0  0  0  0  0  0  0  0
    0.5153    3.0317   -0.4173 C   0  0  0  0  0  0  0  0  0  0  0  0
    1.6921    0.6042   -2.1301 H   0  0  0  0  0  0  0  0  0  0  0  0
    0.2343    1.3715   -1.4750 H   0  0  0  0  0  0  0  0  0  0  0  0
    2.4245    2.0629    0.1827 H   0  0  0  0  0  0  0  0  0  0  0  0
    2.4135    2.6912   -1.5025 H   0  0  0  0  0  0  0  0  0  0  0  0
  2  5  2  0  0  0  0
  3  4  1  0  0  0  0
  4  5  1  0  0  0  0
  4  8  1  0  0  0  0
  5  1  1  0  0  0  0
  6  3  1  0  0  0  0
  7  3  1  0  0  0  0
  9  4  1  0  0  0  0
M  CHG  1   1  -1
M  END
