1
q = 0.0, confidence = 1.0

 31 32  0  0  1  0  0  0  0  0999 V2000
   -0.1918    0.0398   -1.0304 N   0  0  0  0  0  2  0  0  0  0  0  0
    0.2470    0.9673   -1.0085 H   0  0  0  0  0  0  0  0  0  0  0  0
    2.0116   -0.6880   -1.4570 N   0  0  0  0  0  0  0  0  0  0  0  0
    4.2549   -0.1878    0.2477 N   0  0  0  0  0  0  0  0  0  0  0  0
    8.3844    0.5605   -0.5223 N   0  0  0  0  0  0  0  0  0  0  0  0
    0.6817   -0.9241   -1.2481 C   0  0  2  0  0  3  0  0  0  0  0  0
    0.2047   -2.3503   -1.2943 C   0  0  0  0  0  0  0  0  0  0  0  0
   -0.8901   -2.3618   -1.4127 H   0  0  0  0  0  0  0  0  0  0  0  0
    0.4568   -2.8913   -0.3595 H   0  0  0  0  0  0  0  0  0  0  0  0
    0.6527   -2.8994   -2.1438 H   0  0  0  0  0  0  0  0  0  0  0  0
    3.0348   -1.7226   -1.2577 C   0  0  0  0  0  0  0  0  0  0  0  0
    3.7995   -1.6202   -2.0560 H   0  0  0  0  0  0  0  0  0  0  0  0
    2.5935   -2.7299   -1.3430 H   0  0  0  0  0  0  0  0  0  0  0  0
    3.7008   -1.5279    0.1217 C   0  0  0  0  0  0  0  0  0  0  0  0
    2.9348   -1.6862    0.9156 H   0  0  0  0  0  0  0  0  0  0  0  0
    4.4865   -2.2895    0.2658 H   0  0  0  0  0  0  0  0  0  0  0  0
    3.2468    0.8325    0.0182 C   0  0  0  0  0  0  0  0  0  0  0  0
    3.6835    1.8410    0.1277 H   0  0  0  0  0  0  0  0  0  0  0  0
    2.4559    0.7353    0.7968 H   0  0  0  0  0  0  0  0  0  0  0  0
    2.5971    0.6532   -1.3676 C   0  0  0  0  0  0  0  0  0  0  0  0
    1.8445    1.4350   -1.5868 H   0  0  0  0  0  0  0  0  0  0  0  0
    3.3735    0.7382   -2.1560 H   0  0  0  0  0  0  0  0  0  0  0  0
    5.6082    0.0586   -0.0315 C   0  0  0  0  0  0  0  0  0  0  0  0
    6.6035   -0.9239    0.2007 C   0  0  0  0  0  0  0  0  0  0  0  0
    6.3570   -1.9142    0.6080 H   0  0  0  0  0  0  0  0  0  0  0  0
    7.9454   -0.6204   -0.0576 C   0  0  0  0  0  0  0  0  0  0  0  0
    8.7145   -1.3903    0.1329 H   0  0  0  0  0  0  0  0  0  0  0  0
    7.4451    1.4910   -0.7400 C   0  0  0  0  0  0  0  0  0  0  0  0
    7.7967    2.4647   -1.1263 H   0  0  0  0  0  0  0  0  0  0  0  0
    6.0719    1.3036   -0.5238 C   0  0  0  0  0  0  0  0  0  0  0  0
    5.3903    2.1324   -0.7577 H   0  0  0  0  0  0  0  0  0  0  0  0
  1  2  1  0  0  0  0
  3 20  1  0  0  0  0
  3 11  1  0  0  0  0
  3  6  1  0  0  0  0
  5 26  1  0  0  0  0
  6  1  1  6  0  0  0
  7  6  1  0  0  0  0
  7  9  1  0  0  0  0
  8  7  1  0  0  0  0
 10  7  1  0  0  0  0
 11 14  1  0  0  0  0
 12 11  1  0  0  0  0
 13 11  1  0  0  0  0
 14  4  1  0  0  0  0
 14 16  1  0  0  0  0
 14 15  1  0  0  0  0
 17 18  1  0  0  0  0
 17  4  1  0  0  0  0
 17 19  1  0  0  0  0
 20 17  1  0  0  0  0
 21 20  1  0  0  0  0
 22 20  1  0  0  0  0
 23 24  1  0  0  0  0
 23  4  1  0  0  0  0
 24 25  1  0  0  0  0
 26 27  1  0  0  0  0
 26 24  2  0  0  0  0
 28 30  1  0  0  0  0
 28  5  2  0  0  0  0
 29 28  1  0  0  0  0
 30 23  2  0  0  0  0
 31 30  1  0  0  0  0
M  END
