2
q = 0.0, confidence = 0.986

 57 59  0  0  1  0  0  0  0  0999 V2000
    2.7397   -0.7212   -1.0491 O   0  0  0  0  0  0  0  0  0  0  0  0
    1.0532    0.0201    0.8197 N   0  0  0  0  0  2  0  0  0  0  0  0
    1.7213   -1.0692    1.0760 C   0  0  1  0  0  3  0  0  0  0  0  0
   -2.5193    0.5939    1.6666 C   0  0  0  0  0  0  0  0  0  0  0  0
   -3.5070    0.4524    1.2014 H   0  0  0  0  0  0  0  0  0  0  0  0
    3.0032   -1.3092    0.2661 C   0  0  0  0  0  0  0  0  0  0  0  0
   -2.7126   -0.0363   -1.1918 C   0  0  0  0  0  0  0  0  0  0  0  0
   -0.1147    0.3933    1.5522 C   0  0  0  0  0  0  0  0  0  0  0  0
   -1.4440   -0.4201   -0.4385 C   0  0  0  0  0  0  0  0  0  0  0  0
   -0.6051    0.0471   -1.0066 H   0  0  0  0  0  0  0  0  0  0  0  0
   -1.3799    0.1969    0.9538 C   0  0  0  0  0  0  0  0  0  0  0  0
   -3.7679   -0.9345   -1.4300 C   0  0  0  0  0  0  0  0  0  0  0  0
   -3.6840   -1.9782   -1.0919 H   0  0  0  0  0  0  0  0  0  0  0  0
    0.0291    1.0403    2.7986 C   0  0  0  0  0  0  0  0  0  0  0  0
   -2.8278    1.2949   -1.6485 C   0  0  0  0  0  0  0  0  0  0  0  0
   -1.9983    1.9978   -1.4618 H   0  0  0  0  0  0  0  0  0  0  0  0
   -1.1552   -1.9141   -0.4084 C   0  0  0  0  0  0  0  0  0  0  0  0
   -2.4241    1.1958    2.9372 C   0  0  0  0  0  0  0  0  0  0  0  0
   -1.1442    1.4193    3.4752 C   0  0  0  0  0  0  0  0  0  0  0  0
   -1.0489    1.9266    4.4487 H   0  0  0  0  0  0  0  0  0  0  0  0
   -3.6690    1.6272    3.6704 C   0  0  0  0  0  0  0  0  0  0  0  0
   -4.3924    0.7915    3.7667 H   0  0  0  0  0  0  0  0  0  0  0  0
   -4.1909    2.4391    3.1215 H   0  0  0  0  0  0  0  0  0  0  0  0
   -3.4388    2.0009    4.6866 H   0  0  0  0  0  0  0  0  0  0  0  0
   -4.9250   -0.5104   -2.1061 C   0  0  0  0  0  0  0  0  0  0  0  0
   -5.7425   -1.2249   -2.2880 H   0  0  0  0  0  0  0  0  0  0  0  0
   -0.3273   -2.4880   -1.3944 C   0  0  0  0  0  0  0  0  0  0  0  0
    0.1113   -1.8390   -2.1685 H   0  0  0  0  0  0  0  0  0  0  0  0
   -5.0358    0.8142   -2.5528 C   0  0  0  0  0  0  0  0  0  0  0  0
   -5.9405    1.1447   -3.0857 H   0  0  0  0  0  0  0  0  0  0  0  0
    1.3439   -2.0539    2.1341 C   0  0  0  0  0  0  0  0  0  0  0  0
    2.2079   -2.2767    2.7937 H   0  0  0  0  0  0  0  0  0  0  0  0
    1.0358   -3.0088    1.6584 H   0  0  0  0  0  0  0  0  0  0  0  0
    0.5009   -1.6827    2.7424 H   0  0  0  0  0  0  0  0  0  0  0  0
   -0.0487   -3.8635   -1.3863 C   0  0  0  0  0  0  0  0  0  0  0  0
    0.5970   -4.2944   -2.1673 H   0  0  0  0  0  0  0  0  0  0  0  0
    3.3207   -2.7881    0.0477 C   0  0  0  0  0  0  0  0  0  0  0  0
    4.2013   -2.8778   -0.6188 H   0  0  0  0  0  0  0  0  0  0  0  0
    2.4635   -3.3041   -0.4249 H   0  0  0  0  0  0  0  0  0  0  0  0
    3.5678   -3.2948    0.9998 H   0  0  0  0  0  0  0  0  0  0  0  0
   -1.6972   -2.7513    0.5874 C   0  0  0  0  0  0  0  0  0  0  0  0
   -2.3327   -2.3105    1.3712 H   0  0  0  0  0  0  0  0  0  0  0  0
   -0.5949   -4.6898   -0.3891 C   0  0  0  0  0  0  0  0  0  0  0  0
   -0.3788   -5.7690   -0.3832 H   0  0  0  0  0  0  0  0  0  0  0  0
   -3.9813    1.7151   -2.3229 C   0  0  0  0  0  0  0  0  0  0  0  0
   -4.0557    2.7547   -2.6772 H   0  0  0  0  0  0  0  0  0  0  0  0
    1.3967    1.3609    3.3405 C   0  0  0  0  0  0  0  0  0  0  0  0
    1.9665    1.9639    2.6018 H   0  0  0  0  0  0  0  0  0  0  0  0
    1.9960    0.4496    3.5508 H   0  0  0  0  0  0  0  0  0  0  0  0
    1.3268    1.9393    4.2805 H   0  0  0  0  0  0  0  0  0  0  0  0
    4.1543   -0.5562    0.9509 C   0  0  0  0  0  0  0  0  0  0  0  0
    5.0919   -0.6826    0.3710 H   0  0  0  0  0  0  0  0  0  0  0  0
    4.3317   -0.9526    1.9698 H   0  0  0  0  0  0  0  0  0  0  0  0
    3.9164    0.5242    1.0217 H   0  0  0  0  0  0  0  0  0  0  0  0
   -1.4233   -4.1284    0.5965 C   0  0  0  0  0  0  0  0  0  0  0  0
   -1.8589   -4.7677    1.3800 H   0  0  0  0  0  0  0  0  0  0  0  0
    3.5738   -0.4641   -1.5048 H   0  0  0  0  0  0  0  0  0  0  0  0
  1  6  1  0  0  0  0
  2  8  1  0  0  0  0
  3  2  1  1  0  0  0
  3 31  1  0  0  0  0
  4 18  1  0  0  0  0
  5  4  1  0  0  0  0
  6 51  1  0  0  0  0
  6  3  1  0  0  0  0
  7  9  1  0  0  0  0
  8 14  2  0  0  0  0
  9 17  1  0  0  0  0
  9 11  1  0  0  0  0
 10  9  1  0  0  0  0
 11  8  1  0  0  0  0
 11  4  2  0  0  0  0
 12  7  1  0  0  0  0
 12 13  1  0  0  0  0
 14 47  1  0  0  0  0
 14 19  1  0  0  0  0
 15 16  1  0  0  0  0
 15  7  2  0  0  0  0
 17 41  1  0  0  0  0
 18 19  2  0  0  0  0
 18 21  1  0  0  0  0
 19 20  1  0  0  0  0
 21 22  1  0  0  0  0
 21 24  1  0  0  0  0
 23 21  1  0  0  0  0
 25 12  2  0  0  0  0
 26 25  1  0  0  0  0
 27 35  1  0  0  0  0
 27 17  2  0  0  0  0
 28 27  1  0  0  0  0
 29 45  2  0  0  0  0
 29 25  1  0  0  0  0
 30 29  1  0  0  0  0
 31 34  1  0  0  0  0
 31 32  1  0  0  0  0
 33 31  1  0  0  0  0
 35 43  2  0  0  0  0
 36 35  1  0  0  0  0
 37  6  1  0  0  0  0
 37 40  1  0  0  0  0
 38 37  1  0  0  0  0
 39 37  1  0  0  0  0
 41 55  2  0  0  0  0
 41 42  1  0  0  0  0
 43 44  1  0  0  0  0
 43 55  1  0  0  0  0
 45 15  1  0  0  0  0
 46 45  1  0  0  0  0
 47 49  1  0  0  0  0
 47 50  1  0  0  0  0
 48 47  1  0  0  0  0
 51 54  1  0  0  0  0
 51 53  1  0  0  0  0
 52 51  1  0  0  0  0
 55 56  1  0  0  0  0
 57  1  1  0  0  0  0
M  END
