1
q = 0.0, confidence = 0.998

 25 25  0  0  0  0  0  0  0  0999 V2000
   -2.4340    0.4144    0.0087 N   0  0  0  0  0  2  0  0  0  0  0  0
   -9.9801   -0.6445   -0.7504 N   0  0  0  0  0  0  0  0  0  0  0  0
   -7.0955    2.2332   -0.0033 O   0  0  0  0  0  0  0  0  0  0  0  0
   -2.9941    1.5949    0.3473 C   0  0  0  0  0  3  0  0  0  0  0  0
   -2.2906    2.3843    0.6642 H   0  0  0  0  0  0  0  0  0  0  0  0
   -4.3732    1.8140    0.2873 C   0  0  0  0  0  0  0  0  0  0  0  0
   -4.8190    2.7808    0.5620 H   0  0  0  0  0  0  0  0  0  0  0  0
   -3.2380   -0.5857   -0.4025 C   0  0  0  0  0  0  0  0  0  0  0  0
   -2.7367   -1.5404   -0.6390 H   0  0  0  0  0  0  0  0  0  0  0  0
   -4.6284   -0.4466   -0.4953 C   0  0  0  0  0  0  0  0  0  0  0  0
   -5.2224   -1.2997   -0.8511 H   0  0  0  0  0  0  0  0  0  0  0  0
   -5.2254    0.7780   -0.1399 C   0  0  0  0  0  0  0  0  0  0  0  0
   -6.7151    1.0684   -0.1969 C   0  0  0  0  0  0  0  0  0  0  0  0
   -7.6235   -0.0408   -0.4639 C   0  0  0  0  0  0  0  0  0  0  0  0
   -7.2345   -1.0582   -0.5939 H   0  0  0  0  0  0  0  0  0  0  0  0
   -8.9746    0.2264   -0.5082 C   0  0  0  0  0  0  0  0  0  0  0  0
   -9.2729    1.2744   -0.3305 H   0  0  0  0  0  0  0  0  0  0  0  0
  -11.3707   -0.2400   -0.6478 C   0  0  0  0  0  0  0  0  0  0  0  0
  -11.4273    0.8549   -0.5054 H   0  0  0  0  0  0  0  0  0  0  0  0
  -11.8772   -0.7291    0.2141 H   0  0  0  0  0  0  0  0  0  0  0  0
  -11.9313   -0.5035   -1.5703 H   0  0  0  0  0  0  0  0  0  0  0  0
   -9.6922   -2.0476   -0.9885 C   0  0  0  0  0  0  0  0  0  0  0  0
   -8.9189   -2.1568   -1.7771 H   0  0  0  0  0  0  0  0  0  0  0  0
  -10.6095   -2.5650   -1.3247 H   0  0  0  0  0  0  0  0  0  0  0  0
   -9.3178   -2.5519   -0.0697 H   0  0  0  0  0  0  0  0  0  0  0  0
  1  4  1  0  0  0  0
  2 18  1  0  0  0  0
  2 16  1  0  0  0  0
  4  5  1  0  0  0  0
  6  4  1  0  0  0  0
  6  7  1  0  0  0  0
  8  1  1  0  0  0  0
  9  8  1  0  0  0  0
 10  8  2  0  0  0  0
 10 12  1  0  0  0  0
 11 10  1  0  0  0  0
 12  6  2  0  0  0  0
 13 12  1  0  0  0  0
 13  3  2  0  0  0  0
 14 13  1  0  0  0  0
 15 14  1  0  0  0  0
 16 14  2  0  0  0  0
 16 17  1  0  0  0  0
 18 19  1  0  0  0  0
 18 20  1  0  0  0  0
 21 18  1  0  0  0  0
 22  2  1  0  0  0  0
 22 25  1  0  0  0  0
 23 22  1  0  0  0  0
 24 22  1  0  0  0  0
M  END
