1
q = 0.0, confidence = 0.9

 23 24  0  0  0  0  0  0  0  0999 V2000
    1.3666   -1.0113   -1.2799 N   0  0  0  0  0  2  0  0  0  0  0  0
   -0.4030    0.4053   -1.4126 N   0  0  0  0  0  2  0  0  0  0  0  0
   -0.8770    1.5444   -1.6905 N   0  0  0  0  0  2  0  0  0  0  0  0
    2.6238   -1.4120   -1.5117 C   0  0  0  0  0  3  0  0  0  0  0  0
    2.8998   -2.3704   -1.0393 H   0  0  0  0  0  0  0  0  0  0  0  0
    3.5178   -0.6274   -2.2563 C   0  0  0  0  0  0  0  0  0  0  0  0
    4.5397   -0.9879   -2.4414 H   0  0  0  0  0  0  0  0  0  0  0  0
    3.0879    0.6208   -2.7396 C   0  0  0  0  0  0  0  0  0  0  0  0
    3.7757    1.2634   -3.3102 H   0  0  0  0  0  0  0  0  0  0  0  0
    1.7792    1.0423   -2.4831 C   0  0  0  0  0  0  0  0  0  0  0  0
    1.3772    2.0069   -2.8217 H   0  0  0  0  0  0  0  0  0  0  0  0
    0.9425    0.1798   -1.7505 C   0  0  0  0  0  0  0  0  0  0  0  0
   -2.2485    1.6674   -1.3895 C   0  0  0  0  0  0  0  0  0  0  0  0
   -2.7602    2.9806   -1.3008 C   0  0  0  0  0  0  0  0  0  0  0  0
   -2.0703    3.8205   -1.4694 H   0  0  0  0  0  0  0  0  0  0  0  0
   -4.1088    3.1807   -0.9849 C   0  0  0  0  0  0  0  0  0  0  0  0
   -4.5095    4.2018   -0.8993 H   0  0  0  0  0  0  0  0  0  0  0  0
   -4.9523    2.0727   -0.7904 C   0  0  0  0  0  0  0  0  0  0  0  0
   -6.0169    2.2296   -0.5585 H   0  0  0  0  0  0  0  0  0  0  0  0
   -4.4464    0.7634   -0.9121 C   0  0  0  0  0  0  0  0  0  0  0  0
   -5.1172   -0.0994   -0.7809 H   0  0  0  0  0  0  0  0  0  0  0  0
   -3.0981    0.5470   -1.2067 C   0  0  0  0  0  0  0  0  0  0  0  0
   -2.6823   -0.4700   -1.3165 H   0  0  0  0  0  0  0  0  0  0  0  0
  3  2  1  0  0  0  0
  3 13  1  0  0  0  0
  4  1  1  0  0  0  0
  4  5  1  0  0  0  0
  6  4  1  0  0  0  0
  7  6  1  0  0  0  0
  8 10  1  0  0  0  0
  8  6  2  0  0  0  0
  9  8  1  0  0  0  0
 10 12  2  0  0  0  0
 11 10  1  0  0  0  0
 12  2  1  0  0  0  0
 12  1  1  0  0  0  0
 13 14  2  0  0  0  0
 13 22  1  0  0  0  0
 14 16  1  0  0  0  0
 15 14  1  0  0  0  0
 16 17  1  0  0  0  0
 16 18  2  0  0  0  0
 18 19  1  0  0  0  0
 20 18  1  0  0  0  0
 20 21  1  0  0  0  0
 22 20  2  0  0  0  0
 23 22  1  0  0  0  0
M  END
