1
q = -1.0, confidence = 0.002

 46 45  0  0  0  0  0  0  0  0999 V2000
    0.0628   -0.1936    0.3741 N   0  0  0  0  0  2  0  0  0  0  0  0
    0.0249   -1.3634   -0.4010 N   0  0  0  0  0  0  0  0  0  0  0  0
    2.6802    1.1964    0.1991 N   0  0  0  0  0  0  0  0  0  0  0  0
    3.6752   -0.8668    0.0191 N   0  0  0  0  0  0  0  0  0  0  0  0
    1.4166    0.5155    1.2859 Si  0  0  0  0  0  0  0  0  0  0  0  0
    0.1613   -2.6271    0.3383 C   0  0  0  0  0  0  0  0  0  0  0  0
    0.8961   -1.3760   -1.5940 C   0  0  0  0  0  0  0  0  0  0  0  0
    0.6553    1.9737    2.2055 C   0  0  0  0  0  0  0  0  0  0  0  0
    2.1361   -0.6405    2.5908 C   0  0  0  0  0  0  0  0  0  0  0  0
    3.7891    0.4184   -0.1314 C   0  0  0  0  0  0  0  0  0  0  0  0
    5.0552    1.1326   -0.5641 C   0  0  0  0  0  0  0  0  0  0  0  0
    2.3457    2.4810   -0.4725 C   0  0  0  0  0  0  0  0  0  0  0  0
    2.2155    2.3469   -1.9948 C   0  0  0  0  0  0  0  0  0  0  0  0
    3.2099    3.6752   -0.0374 C   0  0  0  0  0  0  0  0  0  0  0  0
    4.7921   -1.7852   -0.1303 C   0  0  0  0  0  0  0  0  0  0  0  0
    4.8285   -2.3424   -1.5628 C   0  0  0  0  0  0  0  0  0  0  0  0
    4.6576   -2.9167    0.8972 C   0  0  0  0  0  0  0  0  0  0  0  0
   -0.2467   -3.4574   -0.2688 H   0  0  0  0  0  0  0  0  0  0  0  0
    1.2351   -2.8276    0.5455 H   0  0  0  0  0  0  0  0  0  0  0  0
   -0.3845   -2.5593    1.2916 H   0  0  0  0  0  0  0  0  0  0  0  0
    0.6152   -2.2392   -2.2265 H   0  0  0  0  0  0  0  0  0  0  0  0
    1.9562   -1.4433   -1.2668 H   0  0  0  0  0  0  0  0  0  0  0  0
    0.7279   -0.4567   -2.1790 H   0  0  0  0  0  0  0  0  0  0  0  0
    1.4546    2.6345    2.5985 H   0  0  0  0  0  0  0  0  0  0  0  0
   -0.0318    2.5672    1.5733 H   0  0  0  0  0  0  0  0  0  0  0  0
    0.0777    1.5958    3.0729 H   0  0  0  0  0  0  0  0  0  0  0  0
    3.0969   -0.2260    2.9599 H   0  0  0  0  0  0  0  0  0  0  0  0
    2.3322   -1.6579    2.2141 H   0  0  0  0  0  0  0  0  0  0  0  0
    1.4354   -0.6951    3.4500 H   0  0  0  0  0  0  0  0  0  0  0  0
    5.8552    0.4183   -0.8261 H   0  0  0  0  0  0  0  0  0  0  0  0
    4.8750    1.7740   -1.4464 H   0  0  0  0  0  0  0  0  0  0  0  0
    5.4222    1.7922    0.2471 H   0  0  0  0  0  0  0  0  0  0  0  0
    1.3179    2.7079   -0.1261 H   0  0  0  0  0  0  0  0  0  0  0  0
    1.8722    3.3068   -2.4293 H   0  0  0  0  0  0  0  0  0  0  0  0
    3.1687    2.0753   -2.4915 H   0  0  0  0  0  0  0  0  0  0  0  0
    1.4571    1.5819   -2.2464 H   0  0  0  0  0  0  0  0  0  0  0  0
    2.7166    4.6206   -0.3413 H   0  0  0  0  0  0  0  0  0  0  0  0
    4.2198    3.6724   -0.4909 H   0  0  0  0  0  0  0  0  0  0  0  0
    3.3276    3.6920    1.0644 H   0  0  0  0  0  0  0  0  0  0  0  0
    5.7735   -1.2854    0.0623 H   0  0  0  0  0  0  0  0  0  0  0  0
    5.6643   -3.0601   -1.6921 H   0  0  0  0  0  0  0  0  0  0  0  0
    4.9511   -1.5278   -2.3049 H   0  0  0  0  0  0  0  0  0  0  0  0
    3.8810   -2.8705   -1.7963 H   0  0  0  0  0  0  0  0  0  0  0  0
    5.4940   -3.6392    0.8065 H   0  0  0  0  0  0  0  0  0  0  0  0
    3.7062   -3.4676    0.7430 H   0  0  0  0  0  0  0  0  0  0  0  0
    4.6546   -2.5163    1.9300 H   0  0  0  0  0  0  0  0  0  0  0  0
  1  5  1  0  0  0  0
  2  6  1  0  0  0  0
  2  1  1  0  0  0  0
  3  5  1  0  0  0  0
  5  8  1  0  0  0  0
  5  9  1  0  0  0  0
  6 19  1  0  0  0  0
  6 20  1  0  0  0  0
  7 22  1  0  0  0  0
  7  2  1  0  0  0  0
  8 24  1  0  0  0  0
  8 26  1  0  0  0  0
  9 27  1  0  0  0  0
  9 29  1  0  0  0  0
 10  4  2  0  0  0  0
 10  3  1  0  0  0  0
 11 10  1  0  0  0  0
 11 32  1  0  0  0  0
 12 33  1  0  0  0  0
 12 14  1  0  0  0  0
 12  3  1  0  0  0  0
 13 12  1  0  0  0  0
 14 39  1  0  0  0  0
 15  4  1  0  0  0  0
 15 40  1  0  0  0  0
 15 17  1  0  0  0  0
 16 15  1  0  0  0  0
 17 46  1  0  0  0  0
 18  6  1  0  0  0  0
 21  7  1  0  0  0  0
 23  7  1  0  0  0  0
 25  8  1  0  0  0  0
 28  9  1  0  0  0  0
 30 11  1  0  0  0  0
 31 11  1  0  0  0  0
 34 13  1  0  0  0  0
 35 13  1  0  0  0  0
 36 13  1  0  0  0  0
 37 14  1  0  0  0  0
 38 14  1  0  0  0  0
 41 16  1  0  0  0  0
 42 16  1  0  0  0  0
 43 16  1  0  0  0  0
 44 17  1  0  0  0  0
 45 17  1  0  0  0  0
M  END
