9
q = 0.0, confidence = 0.99

 16 17  0  0  1  0  0  0  0  0999 V2000
   -5.5930    0.8953    0.2745 S   0  0  0  0  0  0  0  0  0  0  0  0
   -4.4211   -1.3560   -0.2481 C   0  0  0  0  0  0  0  0  0  0  0  0
   -3.6506   -2.1076   -0.4709 H   0  0  0  0  0  0  0  0  0  0  0  0
   -1.6726   -0.0705   -0.0034 N   0  0  0  0  0  0  0  0  0  0  0  0
   -1.4506   -1.0932   -0.0761 H   0  0  0  0  0  0  0  0  0  0  0  0
   -4.1301   -0.0138   -0.0186 C   0  0  0  0  0  0  0  0  0  0  0  0
   -5.8162   -1.6376   -0.1893 C   0  0  0  0  0  0  0  0  0  0  0  0
   -6.2488   -2.6345   -0.3485 H   0  0  0  0  0  0  0  0  0  0  0  0
   -0.5980    0.7288   -0.0158 N   0  0  0  0  0  2  0  0  0  0  0  0
   -2.8355    0.6383   -0.0033 C   0  0  2  0  0  3  0  0  0  0  0  0
   -1.0519    1.9961   -0.0167 C   0  0  0  0  0  0  0  0  0  0  0  0
   -0.3479    2.8329   -0.0653 H   0  0  0  0  0  0  0  0  0  0  0  0
   -2.4601    1.9972    0.0009 C   0  0  0  0  0  0  0  0  0  0  0  0
   -3.1302    2.8624   -0.0087 H   0  0  0  0  0  0  0  0  0  0  0  0
   -6.5768   -0.5149    0.0820 C   0  0  0  0  0  0  0  0  0  0  0  0
   -7.6661   -0.4345    0.1789 H   0  0  0  0  0  0  0  0  0  0  0  0
  2  7  1  0  0  0  0
  2  6  2  0  0  0  0
  3  2  1  0  0  0  0
  4 10  1  0  0  0  0
  5  4  1  0  0  0  0
  6  1  1  0  0  0  0
  7 15  2  0  0  0  0
  8  7  1  0  0  0  0
  9  4  1  0  0  0  0
 10  6  1  6  0  0  0
 10 13  1  0  0  0  0
 11  9  1  0  0  0  0
 11 13  2  0  0  0  0
 12 11  1  0  0  0  0
 14 13  1  0  0  0  0
 15 16  1  0  0  0  0
 15  1  1  0  0  0  0
M  END
