1
q = 0.0, confidence = 0.996

 24 26  0  0  0  0  0  0  0  0999 V2000
   -0.7081    2.1993    0.2131 N   0  0  0  0  0  2  0  0  0  0  0  0
    4.1038    1.4483   -0.0054 N   0  0  0  0  0  0  0  0  0  0  0  0
    2.7133   -0.3442    0.1164 N   0  0  0  0  0  0  0  0  0  0  0  0
    1.8531   -0.9347    0.0550 H   0  0  0  0  0  0  0  0  0  0  0  0
    0.4159    1.4706    0.3797 C   0  0  0  0  0  3  0  0  0  0  0  0
    0.2773    0.4778    0.8344 H   0  0  0  0  0  0  0  0  0  0  0  0
    1.6881    1.9323    0.0032 C   0  0  0  0  0  0  0  0  0  0  0  0
    1.7896    3.2664   -0.4491 C   0  0  0  0  0  0  0  0  0  0  0  0
    2.7816    3.6565   -0.7209 H   0  0  0  0  0  0  0  0  0  0  0  0
    0.6269    4.0381   -0.5590 C   0  0  0  0  0  0  0  0  0  0  0  0
    0.6699    5.0776   -0.9140 H   0  0  0  0  0  0  0  0  0  0  0  0
   -0.6166    3.4645   -0.2554 C   0  0  0  0  0  0  0  0  0  0  0  0
   -1.5572    4.0202   -0.3867 H   0  0  0  0  0  0  0  0  0  0  0  0
    2.8384    1.0353    0.0468 C   0  0  0  0  0  0  0  0  0  0  0  0
    4.8555    0.2940    0.0345 C   0  0  0  0  0  0  0  0  0  0  0  0
    6.2562    0.1139    0.0119 C   0  0  0  0  0  0  0  0  0  0  0  0
    6.9248    0.9853   -0.0364 H   0  0  0  0  0  0  0  0  0  0  0  0
    6.7467   -1.1932    0.0494 C   0  0  0  0  0  0  0  0  0  0  0  0
    7.8336   -1.3649    0.0314 H   0  0  0  0  0  0  0  0  0  0  0  0
    5.8757   -2.3147    0.1083 C   0  0  0  0  0  0  0  0  0  0  0  0
    6.3089   -3.3261    0.1339 H   0  0  0  0  0  0  0  0  0  0  0  0
    4.4853   -2.1676    0.1351 C   0  0  0  0  0  0  0  0  0  0  0  0
    3.8056   -3.0306    0.1790 H   0  0  0  0  0  0  0  0  0  0  0  0
    3.9932   -0.8510    0.1030 C   0  0  0  0  0  0  0  0  0  0  0  0
  1  5  1  0  0  0  0
  2 15  1  0  0  0  0
  2 14  2  0  0  0  0
  4  3  1  0  0  0  0
  5  6  1  0  0  0  0
  7 14  1  0  0  0  0
  7  5  1  0  0  0  0
  8  7  2  0  0  0  0
  9  8  1  0  0  0  0
 10  8  1  0  0  0  0
 10 12  2  0  0  0  0
 11 10  1  0  0  0  0
 12  1  1  0  0  0  0
 13 12  1  0  0  0  0
 14  3  1  0  0  0  0
 15 24  1  0  0  0  0
 16 15  2  0  0  0  0
 16 18  1  0  0  0  0
 17 16  1  0  0  0  0
 18 20  2  0  0  0  0
 19 18  1  0  0  0  0
 20 21  1  0  0  0  0
 20 22  1  0  0  0  0
 22 23  1  0  0  0  0
 24  3  1  0  0  0  0
 24 22  2  0  0  0  0
M  END
