4
q = 0.0, confidence = 1.0

 30 32  0  0  1  0  0  0  0  0999 V2000
   -0.5474   -2.5461   -2.1534 N   0  0  0  0  0  0  0  0  0  0  0  0
    0.7646   -2.8067   -1.9699 N   0  0  0  0  0  0  0  0  0  0  0  0
    1.1505   -3.7112   -2.2469 H   0  0  0  0  0  0  0  0  0  0  0  0
   -1.7361    0.7708   -1.2334 N   0  0  0  0  0  2  0  0  0  0  0  0
    0.5479   -0.7250   -1.3452 N   0  0  0  0  0  0  0  0  0  0  0  0
   -0.6338   -1.2672   -1.7620 C   0  0  0  0  0  0  0  0  0  0  0  0
   -1.8559   -0.4555   -1.7871 C   0  0  2  0  0  3  0  0  0  0  0  0
   -3.0518   -0.9006   -2.3774 C   0  0  0  0  0  0  0  0  0  0  0  0
   -3.1005   -1.9143   -2.7976 H   0  0  0  0  0  0  0  0  0  0  0  0
   -4.1374   -0.0192   -2.4202 C   0  0  0  0  0  0  0  0  0  0  0  0
   -5.0883   -0.3334   -2.8764 H   0  0  0  0  0  0  0  0  0  0  0  0
   -3.9928    1.2692   -1.8836 C   0  0  0  0  0  0  0  0  0  0  0  0
   -4.8167    1.9963   -1.9107 H   0  0  0  0  0  0  0  0  0  0  0  0
   -2.7741    1.6215   -1.2875 C   0  0  0  0  0  0  0  0  0  0  0  0
   -2.6042    2.5995   -0.8149 H   0  0  0  0  0  0  0  0  0  0  0  0
    1.4354   -1.7100   -1.4913 C   0  0  0  0  0  0  0  0  0  0  0  0
    2.8683   -1.6319   -1.2179 C   0  0  0  0  0  0  0  0  0  0  0  0
    3.6200   -2.7691   -0.8560 C   0  0  0  0  0  0  0  0  0  0  0  0
    3.1279   -3.7477   -0.7414 H   0  0  0  0  0  0  0  0  0  0  0  0
    4.9889   -2.6504   -0.5877 C   0  0  0  0  0  0  0  0  0  0  0  0
    5.5637   -3.5420   -0.2926 H   0  0  0  0  0  0  0  0  0  0  0  0
    5.6409   -1.4034   -0.6729 C   0  0  0  0  0  0  0  0  0  0  0  0
    4.8750   -0.2756   -1.0413 C   0  0  0  0  0  0  0  0  0  0  0  0
    5.3626    0.7093   -1.1130 H   0  0  0  0  0  0  0  0  0  0  0  0
    3.5078   -0.3736   -1.3092 C   0  0  0  0  0  0  0  0  0  0  0  0
    2.9181    0.5198   -1.5776 H   0  0  0  0  0  0  0  0  0  0  0  0
    7.1073   -1.2614   -0.3588 C   0  0  0  0  0  0  0  0  0  0  0  0
    7.2602   -0.6273    0.5405 H   0  0  0  0  0  0  0  0  0  0  0  0
    7.6516   -0.7676   -1.1899 H   0  0  0  0  0  0  0  0  0  0  0  0
    7.5864   -2.2408   -0.1678 H   0  0  0  0  0  0  0  0  0  0  0  0
  1  2  1  0  0  0  0
  1  6  2  0  0  0  0
  2 16  1  0  0  0  0
  3  2  1  0  0  0  0
  6  5  1  0  0  0  0
  7  6  1  6  0  0  0
  7  4  1  0  0  0  0
  8  7  1  0  0  0  0
  9  8  1  0  0  0  0
 10  8  2  0  0  0  0
 10 12  1  0  0  0  0
 11 10  1  0  0  0  0
 12 14  2  0  0  0  0
 13 12  1  0  0  0  0
 14  4  1  0  0  0  0
 14 15  1  0  0  0  0
 16  5  2  0  0  0  0
 16 17  1  0  0  0  0
 17 18  1  0  0  0  0
 18 19  1  0  0  0  0
 18 20  2  0  0  0  0
 20 21  1  0  0  0  0
 22 20  1  0  0  0  0
 22 27  1  0  0  0  0
 23 22  2  0  0  0  0
 24 23  1  0  0  0  0
 25 17  2  0  0  0  0
 25 23  1  0  0  0  0
 26 25  1  0  0  0  0
 27 30  1  0  0  0  0
 27 28  1  0  0  0  0
 29 27  1  0  0  0  0
M  END
