2
q = -1.0

  9  9  0  0  0  0  0  0  0  0999 V2000
    4.1115   -0.3133   -0.0597 Br  0  0  0  0  0  0  0  0  0  0  0  0
    0.0821    0.4260    0.0800 N   0  0  0  0  0  2  0  0  0  0  0  0
    1.1403   -1.6547    0.2278 O   0  0  0  0  0  0  0  0  0  0  0  0
   -0.2077    2.7240   -0.2111 O   0  0  0  0  0  0  0  0  0  0  0  0
    1.1624   -0.4377    0.1072 C   0  0  0  0  0  0  0  0  0  0  0  0
    2.4054    0.4391   -0.0589 C   0  0  0  0  0  0  0  0  0  0  0  0
    2.0204    1.7259   -0.1909 C   0  0  0  0  0  0  0  0  0  0  0  0
    2.6207    2.6326   -0.3280 H   0  0  0  0  0  0  0  0  0  0  0  0
    0.5130    1.7367   -0.1145 C   0  0  0  0  0  0  0  0  0  0  0  0
  1  6  1  0  0  0  0
  2  5  1  0  0  0  0
  4  9  2  0  0  0  0
  5  3  2  0  0  0  0
  6  5  1  0  0  0  0
  7  9  1  0  0  0  0
  7  6  2  0  0  0  0
  8  7  1  0  0  0  0
  9  2  1  0  0  0  0
M  END
