3
q = -1.0

 73 78  0  0  0  0  0  0  0  0999 V2000
   -2.2510    0.9116    0.6526 P   0  0  0  0  0  0  0  0  0  0  0  0
    2.2489    0.6766   -0.2135 P   0  0  0  0  0  0  0  0  0  0  0  0
    0.2227   -0.2615    1.7709 N   0  0  0  0  0  2  0  0  0  0  0  0
   -2.5603    0.2868    2.3966 C   0  0  0  0  0  0  0  0  0  0  0  0
   -2.0899    0.9984    3.1048 H   0  0  0  0  0  0  0  0  0  0  0  0
   -3.6481    0.2866    2.5946 H   0  0  0  0  0  0  0  0  0  0  0  0
   -1.9783   -1.0879    2.5781 C   0  0  0  0  0  0  0  0  0  0  0  0
   -0.6001   -1.3202    2.2842 C   0  0  0  0  0  0  0  0  0  0  0  0
   -0.0624   -2.6199    2.4275 C   0  0  0  0  0  0  0  0  0  0  0  0
    1.0011   -2.7801    2.2028 H   0  0  0  0  0  0  0  0  0  0  0  0
   -0.8777   -3.6898    2.8178 C   0  0  0  0  0  0  0  0  0  0  0  0
   -0.4525   -4.7008    2.8967 H   0  0  0  0  0  0  0  0  0  0  0  0
   -2.2345   -3.4649    3.0862 C   0  0  0  0  0  0  0  0  0  0  0  0
   -2.8860   -4.3025    3.3769 H   0  0  0  0  0  0  0  0  0  0  0  0
   -2.7725   -2.1723    2.9760 C   0  0  0  0  0  0  0  0  0  0  0  0
   -3.8423   -2.0056    3.1748 H   0  0  0  0  0  0  0  0  0  0  0  0
   -3.9332    1.0850   -0.0830 C   0  0  0  0  0  0  0  0  0  0  0  0
   -4.2115    0.5697   -1.3630 C   0  0  0  0  0  0  0  0  0  0  0  0
   -3.4300    0.0310   -1.9175 H   0  0  0  0  0  0  0  0  0  0  0  0
   -5.4866    0.7430   -1.9259 C   0  0  0  0  0  0  0  0  0  0  0  0
   -5.6958    0.3356   -2.9265 H   0  0  0  0  0  0  0  0  0  0  0  0
   -6.4866    1.4253   -1.2178 C   0  0  0  0  0  0  0  0  0  0  0  0
   -7.4857    1.5557   -1.6609 H   0  0  0  0  0  0  0  0  0  0  0  0
   -6.2101    1.9485    0.0571 C   0  0  0  0  0  0  0  0  0  0  0  0
   -6.9883    2.4939    0.6125 H   0  0  0  0  0  0  0  0  0  0  0  0
   -4.9375    1.7849    0.6201 C   0  0  0  0  0  0  0  0  0  0  0  0
   -4.7192    2.2216    1.6078 H   0  0  0  0  0  0  0  0  0  0  0  0
   -1.8003    2.6930    0.8647 C   0  0  0  0  0  0  0  0  0  0  0  0
   -1.8729    3.5098   -0.2883 C   0  0  0  0  0  0  0  0  0  0  0  0
   -2.2508    3.0888   -1.2318 H   0  0  0  0  0  0  0  0  0  0  0  0
   -1.4608    4.8475   -0.2398 C   0  0  0  0  0  0  0  0  0  0  0  0
   -1.5218    5.4668   -1.1476 H   0  0  0  0  0  0  0  0  0  0  0  0
   -0.9743    5.3949    0.9599 C   0  0  0  0  0  0  0  0  0  0  0  0
   -0.6487    6.4456    0.9972 H   0  0  0  0  0  0  0  0  0  0  0  0
   -0.9122    4.5960    2.1102 C   0  0  0  0  0  0  0  0  0  0  0  0
   -0.5314    5.0090    3.0562 H   0  0  0  0  0  0  0  0  0  0  0  0
   -1.3207    3.2531    2.0653 C   0  0  0  0  0  0  0  0  0  0  0  0
   -1.2303    2.6507    2.9797 H   0  0  0  0  0  0  0  0  0  0  0  0
    1.7017    2.1466    0.7872 C   0  0  0  0  0  0  0  0  0  0  0  0
    2.4498    2.9587    0.6968 H   0  0  0  0  0  0  0  0  0  0  0  0
    0.7583    2.5062    0.3159 H   0  0  0  0  0  0  0  0  0  0  0  0
    1.4915    1.8109    2.2405 C   0  0  0  0  0  0  0  0  0  0  0  0
    0.7523    0.6660    2.6783 C   0  0  0  0  0  0  0  0  0  0  0  0
    0.5758    0.4766    4.0747 C   0  0  0  0  0  0  0  0  0  0  0  0
    0.0200   -0.4063    4.4206 H   0  0  0  0  0  0  0  0  0  0  0  0
    1.0989    1.3752    5.0105 C   0  0  0  0  0  0  0  0  0  0  0  0
    0.9375    1.1916    6.0838 H   0  0  0  0  0  0  0  0  0  0  0  0
    1.8343    2.4895    4.5823 C   0  0  0  0  0  0  0  0  0  0  0  0
    2.2625    3.1969    5.3072 H   0  0  0  0  0  0  0  0  0  0  0  0
    2.0245    2.6820    3.2069 C   0  0  0  0  0  0  0  0  0  0  0  0
    2.5998    3.5525    2.8544 H   0  0  0  0  0  0  0  0  0  0  0  0
    2.9589    1.3665   -1.7517 C   0  0  0  0  0  0  0  0  0  0  0  0
    2.8151    2.7172   -2.1245 C   0  0  0  0  0  0  0  0  0  0  0  0
    2.2819    3.4245   -1.4732 H   0  0  0  0  0  0  0  0  0  0  0  0
    3.3339    3.1680   -3.3483 C   0  0  0  0  0  0  0  0  0  0  0  0
    3.2142    4.2243   -3.6332 H   0  0  0  0  0  0  0  0  0  0  0  0
    3.9944    2.2770   -4.2074 C   0  0  0  0  0  0  0  0  0  0  0  0
    4.3972    2.6331   -5.1677 H   0  0  0  0  0  0  0  0  0  0  0  0
    4.1330    0.9276   -3.8420 C   0  0  0  0  0  0  0  0  0  0  0  0
    4.6416    0.2214   -4.5154 H   0  0  0  0  0  0  0  0  0  0  0  0
    3.6162    0.4706   -2.6228 C   0  0  0  0  0  0  0  0  0  0  0  0
    3.7090   -0.5911   -2.3448 H   0  0  0  0  0  0  0  0  0  0  0  0
    3.7292    0.1090    0.7250 C   0  0  0  0  0  0  0  0  0  0  0  0
    4.9998    0.6691    0.4779 C   0  0  0  0  0  0  0  0  0  0  0  0
    5.1272    1.4078   -0.3273 H   0  0  0  0  0  0  0  0  0  0  0  0
    6.1041    0.2819    1.2517 C   0  0  0  0  0  0  0  0  0  0  0  0
    7.0922    0.7218    1.0476 H   0  0  0  0  0  0  0  0  0  0  0  0
    5.9504   -0.6611    2.2801 C   0  0  0  0  0  0  0  0  0  0  0  0
    6.8184   -0.9640    2.8854 H   0  0  0  0  0  0  0  0  0  0  0  0
    4.6873   -1.2185    2.5317 C   0  0  0  0  0  0  0  0  0  0  0  0
    4.5585   -1.9589    3.3355 H   0  0  0  0  0  0  0  0  0  0  0  0
    3.5825   -0.8399    1.7564 C   0  0  0  0  0  0  0  0  0  0  0  0
    2.5961   -1.2809    1.9486 H   0  0  0  0  0  0  0  0  0  0  0  0
  1 28  1  0  0  0  0
  1  4  1  0  0  0  0
  2 63  1  0  0  0  0
  2 39  1  0  0  0  0
  3  8  1  0  0  0  0
  3 43  1  0  0  0  0
  4  7  1  0  0  0  0
  4  6  1  0  0  0  0
  4  5  1  0  0  0  0
  7 15  1  0  0  0  0
  8  9  1  0  0  0  0
  8  7  2  0  0  0  0
  9 11  2  0  0  0  0
 10  9  1  0  0  0  0
 11 12  1  0  0  0  0
 11 13  1  0  0  0  0
 13 14  1  0  0  0  0
 15 13  2  0  0  0  0
 15 16  1  0  0  0  0
 17 26  1  0  0  0  0
 17  1  1  0  0  0  0
 18 17  2  0  0  0  0
 19 18  1  0  0  0  0
 20 18  1  0  0  0  0
 20 22  2  0  0  0  0
 21 20  1  0  0  0  0
 22 24  1  0  0  0  0
 23 22  1  0  0  0  0
 24 25  1  0  0  0  0
 24 26  2  0  0  0  0
 26 27  1  0  0  0  0
 28 37  1  0  0  0  0
 29 31  1  0  0  0  0
 29 28  2  0  0  0  0
 30 29  1  0  0  0  0
 31 33  2  0  0  0  0
 32 31  1  0  0  0  0
 33 34  1  0  0  0  0
 33 35  1  0  0  0  0
 35 36  1  0  0  0  0
 37 35  2  0  0  0  0
 37 38  1  0  0  0  0
 39 42  1  0  0  0  0
 40 39  1  0  0  0  0
 41 39  1  0  0  0  0
 42 43  2  0  0  0  0
 42 50  1  0  0  0  0
 43 44  1  0  0  0  0
 44 45  1  0  0  0  0
 44 46  2  0  0  0  0
 46 47  1  0  0  0  0
 48 46  1  0  0  0  0
 48 49  1  0  0  0  0
 50 48  2  0  0  0  0
 51 50  1  0  0  0  0
 52  2  1  0  0  0  0
 53 52  1  0  0  0  0
 53 54  1  0  0  0  0
 55 53  2  0  0  0  0
 56 55  1  0  0  0  0
 57 59  2  0  0  0  0
 57 55  1  0  0  0  0
 58 57  1  0  0  0  0
 59 61  1  0  0  0  0
 60 59  1  0  0  0  0
 61 62  1  0  0  0  0
 61 52  2  0  0  0  0
 63 72  1  0  0  0  0
 64 63  2  0  0  0  0
 64 66  1  0  0  0  0
 65 64  1  0  0  0  0
 66 68  2  0  0  0  0
 67 66  1  0  0  0  0
 68 70  1  0  0  0  0
 68 69  1  0  0  0  0
 70 71  1  0  0  0  0
 72 73  1  0  0  0  0
 72 70  2  0  0  0  0
M  END
