1
q = -1.0

 10 10  0  0  0  0  0  0  0  0999 V2000
   -2.1201    0.0246   -0.1469 N   0  0  0  0  0  2  0  0  0  0  0  0
   -2.8601   -0.9205    0.6210 C   0  0  0  0  0  0  0  0  0  0  0  0
   -2.2832   -1.9389    1.0631 O   0  0  0  0  0  0  0  0  0  0  0  0
   -4.1867   -0.6796    0.8493 N   0  0  0  0  0  0  0  0  0  0  0  0
   -4.8070    0.2808    0.1882 C   0  0  0  0  0  0  0  0  0  0  0  0
   -4.1662    1.1185   -0.7600 C   0  0  0  0  0  0  0  0  0  0  0  0
   -2.7925    0.9673   -0.8621 C   0  0  0  0  0  0  0  0  0  0  0  0
   -5.8809    0.4219    0.4145 H   0  0  0  0  0  0  0  0  0  0  0  0
   -4.7044    1.8769   -1.3425 H   0  0  0  0  0  0  0  0  0  0  0  0
   -2.1873    1.6105   -1.5217 H   0  0  0  0  0  0  0  0  0  0  0  0
  1  2  1  0  0  0  0
  2  4  1  0  0  0  0
  2  3  2  0  0  0  0
  5  8  1  0  0  0  0
  5  4  2  0  0  0  0
  6  5  1  0  0  0  0
  7  6  2  0  0  0  0
  7  1  1  0  0  0  0
  9  6  1  0  0  0  0
 10  7  1  0  0  0  0
M  END
