2
q = -1.0, confidence = 0.0

 37 39  0  0  1  0  0  0  0  0999 V2000
   -1.1247    0.7358   -0.0112 P   0  0  0  0  0  0  0  0  0  0  0  0
    1.6288    1.3436   -0.0788 N   0  0  0  0  0  2  0  0  0  0  0  0
   -0.5811    2.3212   -0.1249 N   0  0  0  0  0  2  0  0  0  0  0  0
    0.7481    2.4460   -0.1136 C   0  0  2  0  0  3  0  0  0  0  0  0
    1.3374    3.7585   -0.1481 C   0  0  0  0  0  0  0  0  0  0  0  0
    0.6397    4.6060   -0.1693 H   0  0  0  0  0  0  0  0  0  0  0  0
    2.7049    3.9352   -0.1492 C   0  0  0  0  0  0  0  0  0  0  0  0
    3.1252    4.9540   -0.1744 H   0  0  0  0  0  0  0  0  0  0  0  0
    3.5816    2.8125   -0.1143 C   0  0  0  0  0  0  0  0  0  0  0  0
    2.9747    1.5641   -0.0787 C   0  0  0  0  0  0  0  0  0  0  0  0
    3.6081    0.6645   -0.0504 H   0  0  0  0  0  0  0  0  0  0  0  0
    5.0787    2.9691   -0.1154 C   0  0  0  0  0  0  0  0  0  0  0  0
    5.4301    3.5600    0.7575 H   0  0  0  0  0  0  0  0  0  0  0  0
    5.4353    3.4994   -1.0243 H   0  0  0  0  0  0  0  0  0  0  0  0
    5.5895    1.9866   -0.0806 H   0  0  0  0  0  0  0  0  0  0  0  0
   -2.0818    0.6010    1.5543 C   0  0  0  0  0  0  0  0  0  0  0  0
   -3.3693    1.1656    1.6612 C   0  0  0  0  0  0  0  0  0  0  0  0
   -3.8351    1.6351    0.7813 H   0  0  0  0  0  0  0  0  0  0  0  0
   -4.0529    1.1285    2.8852 C   0  0  0  0  0  0  0  0  0  0  0  0
   -5.0584    1.5699    2.9630 H   0  0  0  0  0  0  0  0  0  0  0  0
   -3.4574    0.5320    4.0093 C   0  0  0  0  0  0  0  0  0  0  0  0
   -3.9982    0.5018    4.9676 H   0  0  0  0  0  0  0  0  0  0  0  0
   -2.1724   -0.0252    3.9089 C   0  0  0  0  0  0  0  0  0  0  0  0
   -1.7024   -0.4918    4.7882 H   0  0  0  0  0  0  0  0  0  0  0  0
   -1.4855    0.0092    2.6863 C   0  0  0  0  0  0  0  0  0  0  0  0
   -0.4755   -0.4221    2.5873 H   0  0  0  0  0  0  0  0  0  0  0  0
   -2.4025    0.5553   -1.3099 C   0  0  0  0  0  0  0  0  0  0  0  0
   -3.2703   -0.5572   -1.3151 C   0  0  0  0  0  0  0  0  0  0  0  0
   -3.2329   -1.2897   -0.4930 H   0  0  0  0  0  0  0  0  0  0  0  0
   -4.1954   -0.7196   -2.3562 C   0  0  0  0  0  0  0  0  0  0  0  0
   -4.8730   -1.5871   -2.3561 H   0  0  0  0  0  0  0  0  0  0  0  0
   -4.2610    0.2260   -3.3941 C   0  0  0  0  0  0  0  0  0  0  0  0
   -4.9885    0.0970   -4.2101 H   0  0  0  0  0  0  0  0  0  0  0  0
   -3.4033    1.3376   -3.3849 C   0  0  0  0  0  0  0  0  0  0  0  0
   -3.4606    2.0841   -4.1921 H   0  0  0  0  0  0  0  0  0  0  0  0
   -2.4738    1.5045   -2.3465 C   0  0  0  0  0  0  0  0  0  0  0  0
   -1.8000    2.3743   -2.3075 H   0  0  0  0  0  0  0  0  0  0  0  0
  1 16  1  0  0  0  0
  2 10  1  0  0  0  0
  3  1  1  0  0  0  0
  4  3  1  6  0  0  0
  4  2  1  0  0  0  0
  5  4  1  0  0  0  0
  6  5  1  0  0  0  0
  7  5  2  0  0  0  0
  7  9  1  0  0  0  0
  8  7  1  0  0  0  0
  9 10  2  0  0  0  0
 10 11  1  0  0  0  0
 12  9  1  0  0  0  0
 12 15  1  0  0  0  0
 12 13  1  0  0  0  0
 14 12  1  0  0  0  0
 16 17  2  0  0  0  0
 16 25  1  0  0  0  0
 17 19  1  0  0  0  0
 18 17  1  0  0  0  0
 19 20  1  0  0  0  0
 19 21  2  0  0  0  0
 21 22  1  0  0  0  0
 23 21  1  0  0  0  0
 23 24  1  0  0  0  0
 25 23  2  0  0  0  0
 26 25  1  0  0  0  0
 27  1  1  0  0  0  0
 28 27  1  0  0  0  0
 28 29  1  0  0  0  0
 30 31  1  0  0  0  0
 30 28  2  0  0  0  0
 32 34  2  0  0  0  0
 32 30  1  0  0  0  0
 33 32  1  0  0  0  0
 34 36  1  0  0  0  0
 35 34  1  0  0  0  0
 36 37  1  0  0  0  0
 36 27  2  0  0  0  0
M  END
