2
q = 0.0, confidence = 0.938

 14 14  0  0  0  0  0  0  0  0999 V2000
   -6.4505    0.1642   -1.7287 Cl  0  0  0  0  0  0  0  0  0  0  0  0
   -1.6815   -0.5732    1.7988 N   0  0  0  0  0  0  0  0  0  0  0  0
   -2.8570   -0.4194    0.9904 C   0  0  0  0  0  0  0  0  0  0  0  0
   -3.6350    0.7458    1.0928 C   0  0  0  0  0  0  0  0  0  0  0  0
   -4.7447    0.9269    0.2591 C   0  0  0  0  0  0  0  0  0  0  0  0
   -5.0651   -0.0558   -0.6913 C   0  0  0  0  0  0  0  0  0  0  0  0
   -4.2743   -1.2092   -0.8191 C   0  0  0  0  0  0  0  0  0  0  0  0
   -3.1675   -1.3884    0.0194 C   0  0  0  0  0  0  0  0  0  0  0  0
   -1.4460   -1.5642    1.9496 H   0  0  0  0  0  0  0  0  0  0  0  0
   -3.3595    1.5308    1.8129 H   0  0  0  0  0  0  0  0  0  0  0  0
   -1.7738   -0.0936    2.7021 H   0  0  0  0  0  0  0  0  0  0  0  0
   -5.3593    1.8343    0.3354 H   0  0  0  0  0  0  0  0  0  0  0  0
   -4.5246   -1.9620   -1.5793 H   0  0  0  0  0  0  0  0  0  0  0  0
   -2.5127   -2.2648   -0.1021 H   0  0  0  0  0  0  0  0  0  0  0  0
  1  6  1  0  0  0  0
  2  9  1  0  0  0  0
  2 11  1  0  0  0  0
  3  4  1  0  0  0  0
  3  2  1  0  0  0  0
  4 10  1  0  0  0  0
  5 12  1  0  0  0  0
  5  4  2  0  0  0  0
  6  5  1  0  0  0  0
  7  6  2  0  0  0  0
  7  8  1  0  0  0  0
  8  3  2  0  0  0  0
 13  7  1  0  0  0  0
 14  8  1  0  0  0  0
M  END
