1
q = -1.0, confidence = 0.0

 25 26  0  0  0  0  0  0  0  0999 V2000
    0.5612   -1.5565    0.3012 N   0  0  0  0  0  2  0  0  0  0  0  0
    1.7868   -1.5749   -0.1967 N   0  0  0  0  0  2  0  0  0  0  0  0
    2.0793   -0.5181   -0.8617 N   0  0  0  0  0  2  0  0  0  0  0  0
    0.0667   -2.7662    0.8290 C   0  0  0  0  0  0  0  0  0  0  0  0
    0.6022   -4.0191    0.4436 C   0  0  0  0  0  0  0  0  0  0  0  0
    0.0540   -5.1973    0.9637 C   0  0  0  0  0  0  0  0  0  0  0  0
   -1.0334   -5.1541    1.8543 C   0  0  0  0  0  0  0  0  0  0  0  0
   -1.5655   -3.9113    2.2358 C   0  0  0  0  0  0  0  0  0  0  0  0
   -1.0175   -2.7233    1.7368 C   0  0  0  0  0  0  0  0  0  0  0  0
    3.4271   -0.3741   -1.2137 C   0  0  0  0  0  0  0  0  0  0  0  0
    3.7287    0.6647   -2.1270 C   0  0  0  0  0  0  0  0  0  0  0  0
    5.0499    0.8917   -2.5269 C   0  0  0  0  0  0  0  0  0  0  0  0
    6.0885    0.0933   -2.0172 C   0  0  0  0  0  0  0  0  0  0  0  0
    5.7961   -0.9343   -1.1002 C   0  0  0  0  0  0  0  0  0  0  0  0
    4.4804   -1.1689   -0.6914 C   0  0  0  0  0  0  0  0  0  0  0  0
    1.4428   -4.0446   -0.2625 H   0  0  0  0  0  0  0  0  0  0  0  0
    0.4774   -6.1668    0.6606 H   0  0  0  0  0  0  0  0  0  0  0  0
   -1.4603   -6.0859    2.2530 H   0  0  0  0  0  0  0  0  0  0  0  0
   -2.4069   -3.8646    2.9434 H   0  0  0  0  0  0  0  0  0  0  0  0
   -1.4130   -1.7446    2.0521 H   0  0  0  0  0  0  0  0  0  0  0  0
    2.8986    1.2737   -2.5146 H   0  0  0  0  0  0  0  0  0  0  0  0
    5.2749    1.6964   -3.2430 H   0  0  0  0  0  0  0  0  0  0  0  0
    7.1278    0.2735   -2.3296 H   0  0  0  0  0  0  0  0  0  0  0  0
    6.6101   -1.5563   -0.6975 H   0  0  0  0  0  0  0  0  0  0  0  0
    4.2411   -1.9651    0.0274 H   0  0  0  0  0  0  0  0  0  0  0  0
  1  4  1  0  0  0  0
  2  1  1  0  0  0  0
  3  2  1  0  0  0  0
  4  9  1  0  0  0  0
  5  4  2  0  0  0  0
  5  6  1  0  0  0  0
  6  7  2  0  0  0  0
  7  8  1  0  0  0  0
  7 18  1  0  0  0  0
  8 19  1  0  0  0  0
  9 20  1  0  0  0  0
  9  8  2  0  0  0  0
 10  3  1  0  0  0  0
 10 15  1  0  0  0  0
 11 10  2  0  0  0  0
 12 11  1  0  0  0  0
 12 13  2  0  0  0  0
 13 14  1  0  0  0  0
 14 24  1  0  0  0  0
 14 15  2  0  0  0  0
 15 25  1  0  0  0  0
 16  5  1  0  0  0  0
 17  6  1  0  0  0  0
 21 11  1  0  0  0  0
 22 12  1  0  0  0  0
 23 13  1  0  0  0  0
M  END
