3
q = -1.0

 16 16  0  0  1  0  0  0  0  0999 V2000
    0.6828    1.0261    2.4922 O   0  5  0  0  0  0  0  0  0  0  0  0
   -1.5137    0.4442    2.3865 O   0  0  0  0  0  0  0  0  0  0  0  0
   -1.1167    1.4743   -0.2918 N   0  0  0  0  0  0  0  0  0  0  0  0
   -1.4453    2.5405   -1.2575 C   0  0  0  0  0  0  0  0  0  0  0  0
   -2.3016    3.5166   -0.4059 C   0  0  0  0  0  0  0  0  0  0  0  0
   -1.9401    3.1809    1.0733 C   0  0  0  0  0  0  0  0  0  0  0  0
   -0.7612    2.2089    0.9617 C   0  0  1  0  0  0  0  0  0  0  0  0
   -0.5005    1.1508    2.0897 C   0  0  0  0  0  0  0  0  0  0  0  0
   -2.1484    0.9265   -0.1964 H   0  0  0  0  0  0  0  0  0  0  0  0
   -0.5197    3.0355   -1.6333 H   0  0  0  0  0  0  0  0  0  0  0  0
   -1.9911    2.1071   -2.1173 H   0  0  0  0  0  0  0  0  0  0  0  0
   -2.0869    4.5704   -0.6718 H   0  0  0  0  0  0  0  0  0  0  0  0
   -3.3747    3.3270   -0.5957 H   0  0  0  0  0  0  0  0  0  0  0  0
   -1.6893    4.0742    1.6764 H   0  0  0  0  0  0  0  0  0  0  0  0
   -2.7686    2.6382    1.5697 H   0  0  0  0  0  0  0  0  0  0  0  0
    0.1923    2.7633    0.7869 H   0  0  0  0  0  0  0  0  0  0  0  0
  3  9  1  0  0  0  0
  3  7  1  0  0  0  0
  4  5  1  0  0  0  0
  4  3  1  0  0  0  0
  5  6  1  0  0  0  0
  6 15  1  0  0  0  0
  6 14  1  0  0  0  0
  7 16  1  6  0  0  0
  7  6  1  0  0  0  0
  7  8  1  0  0  0  0
  8  2  2  0  0  0  0
  8  1  1  0  0  0  0
 10  4  1  0  0  0  0
 11  4  1  0  0  0  0
 12  5  1  0  0  0  0
 13  5  1  0  0  0  0
M  CHG  1   1  -1
M  END
