1
q = -1.0

 11 11  0  0  0  0  0  0  0  0999 V2000
    0.0109   -2.0086   -0.1428 N   0  0  0  0  0  0  0  0  0  0  0  0
    0.0723   -4.1236   -0.9608 N   0  0  0  0  0  0  0  0  0  0  0  0
   -0.1078   -4.1773    0.3950 C   0  0  0  0  0  0  0  0  0  0  0  0
   -0.1541   -2.8826    0.9151 C   0  0  0  0  0  3  0  0  0  0  0  0
    0.1399   -2.8141   -1.2531 C   0  0  0  0  0  0  0  0  0  0  0  0
    0.2969   -2.2973   -2.6547 C   0  0  0  0  0  0  0  0  0  0  0  0
   -0.2046   -5.1312    0.9320 H   0  0  0  0  0  0  0  0  0  0  0  0
   -0.3058   -2.5312    1.9425 H   0  0  0  0  0  0  0  0  0  0  0  0
    0.0008   -1.2318   -2.7251 H   0  0  0  0  0  0  0  0  0  0  0  0
   -0.3395   -2.8838   -3.3466 H   0  0  0  0  0  0  0  0  0  0  0  0
    1.3378   -2.3844   -3.0300 H   0  0  0  0  0  0  0  0  0  0  0  0
  1  4  1  0  0  0  0
  2  3  2  0  0  0  0
  3  4  1  0  0  0  0
  3  7  1  0  0  0  0
  4  8  1  0  0  0  0
  5  2  1  0  0  0  0
  5  1  2  0  0  0  0
  6  5  1  0  0  0  0
  9  6  1  0  0  0  0
 10  6  1  0  0  0  0
 11  6  1  0  0  0  0
M  END
