1
q = -1.0

 12 12  0  0  0  0  0  0  0  0999 V2000
   -1.2915    1.3843    0.0854 N   0  0  0  0  0  0  0  0  0  0  0  0
   -1.3213    1.9041    1.3795 C   0  0  0  0  0  3  0  0  0  0  0  0
   -0.5293    1.6790    2.1033 H   0  0  0  0  0  0  0  0  0  0  0  0
   -2.4324    2.7199    1.5223 C   0  0  0  0  0  0  0  0  0  0  0  0
   -2.7163    3.2766    2.4236 H   0  0  0  0  0  0  0  0  0  0  0  0
   -3.1180    2.7025    0.2620 C   0  0  0  0  0  0  0  0  0  0  0  0
   -4.0447    3.2322    0.0088 H   0  0  0  0  0  0  0  0  0  0  0  0
   -2.3994    1.8813   -0.6025 C   0  0  0  0  0  0  0  0  0  0  0  0
   -2.7044    1.5232   -2.0205 C   0  0  0  0  0  0  0  0  0  0  0  0
   -1.8549    1.7497   -2.6974 H   0  0  0  0  0  0  0  0  0  0  0  0
   -3.5887    2.0908   -2.3680 H   0  0  0  0  0  0  0  0  0  0  0  0
   -2.9212    0.4409   -2.1424 H   0  0  0  0  0  0  0  0  0  0  0  0
  1  2  1  0  0  0  0
  2  4  1  0  0  0  0
  2  3  1  0  0  0  0
  4  5  1  0  0  0  0
  6  4  2  0  0  0  0
  7  6  1  0  0  0  0
  8  1  2  0  0  0  0
  8  6  1  0  0  0  0
  9  8  1  0  0  0  0
 10  9  1  0  0  0  0
 11  9  1  0  0  0  0
 12  9  1  0  0  0  0
M  END
