1
q = -1.0, confidence = 0.0

 19 20  0  0  0  0  0  0  0  0999 V2000
   -0.4673   -0.4394    1.5261 N   0  0  0  0  0  0  0  0  0  0  0  0
   -1.8468   -0.2995    1.7065 C   0  0  0  0  0  0  0  0  0  0  0  0
   -2.8540   -0.6576    0.6986 C   0  0  0  0  0  0  0  0  0  0  0  0
   -2.7531   -1.8388   -0.0724 C   0  0  0  0  0  0  0  0  0  0  0  0
   -1.9005   -2.5113    0.0913 H   0  0  0  0  0  0  0  0  0  0  0  0
   -3.7288   -2.1573   -1.0257 C   0  0  0  0  0  0  0  0  0  0  0  0
   -3.6268   -3.0790   -1.6191 H   0  0  0  0  0  0  0  0  0  0  0  0
   -4.8367   -1.3157   -1.2199 C   0  0  0  0  0  0  0  0  0  0  0  0
   -5.6015   -1.5686   -1.9700 H   0  0  0  0  0  0  0  0  0  0  0  0
   -4.9636   -0.1523   -0.4433 C   0  0  0  0  0  0  0  0  0  0  0  0
   -5.8288    0.5139   -0.5843 H   0  0  0  0  0  0  0  0  0  0  0  0
   -3.9817    0.1742    0.5019 C   0  0  0  0  0  0  0  0  0  0  0  0
   -4.0670    1.1014    1.0892 H   0  0  0  0  0  0  0  0  0  0  0  0
   -2.0753    0.2258    2.9847 C   0  0  0  0  0  0  0  0  0  0  0  0
   -3.0635    0.4049    3.4250 H   0  0  0  0  0  0  0  0  0  0  0  0
   -0.8069    0.4049    3.6120 C   0  0  0  0  0  0  0  0  0  0  0  0
   -0.6167    0.7554    4.6336 H   0  0  0  0  0  0  0  0  0  0  0  0
    0.1518   -0.0049    2.6897 C   0  0  0  0  0  3  0  0  0  0  0  0
    1.2413   -0.0500    2.7976 H   0  0  0  0  0  0  0  0  0  0  0  0
  1  2  2  0  0  0  0
  1 18  1  0  0  0  0
  2 14  1  0  0  0  0
  3  2  1  0  0  0  0
  4  5  1  0  0  0  0
  4  3  2  0  0  0  0
  6  4  1  0  0  0  0
  7  6  1  0  0  0  0
  8  6  2  0  0  0  0
  8 10  1  0  0  0  0
  9  8  1  0  0  0  0
 10 12  2  0  0  0  0
 11 10  1  0  0  0  0
 12  3  1  0  0  0  0
 12 13  1  0  0  0  0
 14 15  1  0  0  0  0
 14 16  2  0  0  0  0
 16 17  1  0  0  0  0
 18 19  1  0  0  0  0
 18 16  1  0  0  0  0
M  END
