7
q = -1.0

 25 26  0  0  0  0  0  0  0  0999 V2000
   -4.8135   -2.8518    0.6359 F   0  0  0  0  0  0  0  0  0  0  0  0
   -6.0043   -1.6654   -0.7508 F   0  0  0  0  0  0  0  0  0  0  0  0
   -5.8609   -1.0665    1.3405 F   0  0  0  0  0  0  0  0  0  0  0  0
   -4.0572    3.4056    0.3009 F   0  0  0  0  0  0  0  0  0  0  0  0
   -2.1954    3.1108    1.3950 F   0  0  0  0  0  0  0  0  0  0  0  0
   -2.1391    3.5949   -0.7305 F   0  0  0  0  0  0  0  0  0  0  0  0
    0.7510   -0.8147   -1.5160 N   0  0  0  0  0  0  0  0  0  0  0  0
   -0.5815   -1.1999   -1.7004 C   0  0  0  0  0  3  0  0  0  0  0  0
   -0.6322   -2.1945   -2.6834 C   0  0  0  0  0  0  0  0  0  0  0  0
   -1.5475   -2.6523   -3.0768 H   0  0  0  0  0  0  0  0  0  0  0  0
    0.7026   -2.4214   -3.1313 C   0  0  0  0  0  0  0  0  0  0  0  0
    1.0292   -3.1125   -3.9174 H   0  0  0  0  0  0  0  0  0  0  0  0
    1.5167   -1.5676   -2.3953 C   0  0  0  0  0  0  0  0  0  0  0  0
    2.6075   -1.4587   -2.4371 H   0  0  0  0  0  0  0  0  0  0  0  0
   -1.7125   -0.5711   -1.0169 C   0  0  0  0  0  0  0  0  0  0  0  0
   -2.8355   -1.3413   -0.6417 C   0  0  0  0  0  0  0  0  0  0  0  0
   -2.8272   -2.4268   -0.8141 H   0  0  0  0  0  0  0  0  0  0  0  0
   -3.9443   -0.7431   -0.0264 C   0  0  0  0  0  0  0  0  0  0  0  0
   -3.9550    0.6338    0.2460 C   0  0  0  0  0  0  0  0  0  0  0  0
   -4.8196    1.0984    0.7378 H   0  0  0  0  0  0  0  0  0  0  0  0
   -2.8431    1.4064   -0.1238 C   0  0  0  0  0  0  0  0  0  0  0  0
   -1.7395    0.8174   -0.7553 C   0  0  0  0  0  0  0  0  0  0  0  0
   -0.8919    1.4403   -1.0674 H   0  0  0  0  0  0  0  0  0  0  0  0
   -5.1552   -1.5825    0.3057 C   0  0  0  0  0  0  0  0  0  0  0  0
   -2.8138    2.8795    0.2045 C   0  0  0  0  0  0  0  0  0  0  0  0
  2 24  1  0  0  0  0
  6 25  1  0  0  0  0
  8  7  1  0  0  0  0
  8 15  1  0  0  0  0
  9  8  1  0  0  0  0
 10  9  1  0  0  0  0
 11  9  2  0  0  0  0
 11 13  1  0  0  0  0
 12 11  1  0  0  0  0
 13  7  2  0  0  0  0
 14 13  1  0  0  0  0
 15 22  2  0  0  0  0
 15 16  1  0  0  0  0
 16 18  2  0  0  0  0
 17 16  1  0  0  0  0
 18 19  1  0  0  0  0
 18 24  1  0  0  0  0
 19 20  1  0  0  0  0
 21 25  1  0  0  0  0
 21 19  2  0  0  0  0
 22 21  1  0  0  0  0
 23 22  1  0  0  0  0
 24  1  1  0  0  0  0
 24  3  1  0  0  0  0
 25  4  1  0  0  0  0
 25  5  1  0  0  0  0
M  END
