15
q = 0.0, confidence = 0.982

 17 18  0  0  0  0  0  0  0  0999 V2000
    4.7054    4.9006   -1.2500 O   0  0  0  0  0  0  0  0  0  0  0  0
    5.1127    4.0355    0.7194 O   0  0  0  0  0  0  0  0  0  0  0  0
    1.5054    2.0242    0.7286 C   0  0  0  0  0  0  0  0  0  0  0  0
    1.1291    1.3992    1.5543 H   0  0  0  0  0  0  0  0  0  0  0  0
    2.7231    2.6795    0.7825 C   0  0  0  0  0  0  0  0  0  0  0  0
    3.3964    2.5985    1.6455 H   0  0  0  0  0  0  0  0  0  0  0  0
    3.1159    3.4959   -0.3129 C   0  0  0  0  0  0  0  0  0  0  0  0
    2.3245    3.6697   -1.4299 C   0  0  0  0  0  3  0  0  0  0  0  0
    2.6213    4.3054   -2.2736 H   0  0  0  0  0  0  0  0  0  0  0  0
    0.1348    3.0003   -2.4457 C   0  0  0  0  0  0  0  0  0  0  0  0
    0.2230    3.5755   -3.3717 H   0  0  0  0  0  0  0  0  0  0  0  0
   -0.8563    2.1639   -1.9583 C   0  0  0  0  0  0  0  0  0  0  0  0
   -1.8136    1.8865   -2.4218 H   0  0  0  0  0  0  0  0  0  0  0  0
    0.6855    2.1806   -0.4156 C   0  0  0  0  0  0  0  0  0  0  0  0
   -0.5138    1.6680   -0.7260 N   0  0  0  0  0  2  0  0  0  0  0  0
    1.1233    3.0176   -1.4735 N   0  0  0  0  0  0  0  0  0  0  0  0
    4.4167    4.2022   -0.2786 N   0  0  0  0  0  0  0  0  0  0  0  0
  1 17  2  0  0  0  0
  3  5  1  0  0  0  0
  3  4  1  0  0  0  0
  5  6  1  0  0  0  0
  7 17  1  0  0  0  0
  7  5  2  0  0  0  0
  8  7  1  0  0  0  0
  9  8  1  0  0  0  0
 10 12  2  0  0  0  0
 10 16  1  0  0  0  0
 11 10  1  0  0  0  0
 12 15  1  0  0  0  0
 13 12  1  0  0  0  0
 14  3  2  0  0  0  0
 15 14  1  0  0  0  0
 16  8  1  0  0  0  0
 16 14  1  0  0  0  0
 17  2  2  0  0  0  0
M  END
