3
q = -1.0

 45 47  0  0  1  0  0  0  0  0999 V2000
    0.7065   -1.3205   -0.5627 N   0  0  0  0  0  0  0  0  0  0  0  0
    2.7701   -1.6658    0.0727 N   0  0  0  0  0  0  0  0  0  0  0  0
   -1.6656    1.3122    0.0211 N   0  0  0  0  0  2  0  0  0  0  0  0
   -0.6478    1.2674   -0.8812 N   0  0  0  0  0  0  0  0  0  0  0  0
   -0.6461    0.2698   -1.9360 C   0  0  0  0  0  0  0  0  0  0  0  0
    0.1556    0.5404   -2.6489 H   0  0  0  0  0  0  0  0  0  0  0  0
   -1.6459    0.3091   -2.4390 H   0  0  0  0  0  0  0  0  0  0  0  0
   -0.4785   -1.1602   -1.4102 C   0  0  0  0  0  0  0  0  0  0  0  0
   -1.3801   -1.4122   -0.7934 H   0  0  0  0  0  0  0  0  0  0  0  0
   -0.4147   -1.8726   -2.2544 H   0  0  0  0  0  0  0  0  0  0  0  0
    0.7597   -1.0079    0.7876 C   0  0  0  0  0  0  0  0  0  0  0  0
   -0.1622   -0.7361    1.3636 H   0  0  0  0  0  0  0  0  0  0  0  0
    2.0615   -1.2245    1.1804 C   0  0  0  0  0  0  0  0  0  0  0  0
    2.5394   -1.1041    2.1568 H   0  0  0  0  0  0  0  0  0  0  0  0
    4.2273   -1.9432    0.0690 C   0  0  1  0  0  0  0  0  0  0  0  0
    4.4074   -2.5433    0.9840 H   0  0  0  0  0  0  0  0  0  0  0  0
    4.6415   -2.7708   -1.1471 C   0  0  0  0  0  0  0  0  0  0  0  0
    4.0620   -3.7125   -1.2189 H   0  0  0  0  0  0  0  0  0  0  0  0
    5.7124   -3.0297   -1.0504 H   0  0  0  0  0  0  0  0  0  0  0  0
    4.5317   -2.1997   -2.0905 H   0  0  0  0  0  0  0  0  0  0  0  0
    4.9994   -0.6366    0.1943 C   0  0  0  0  0  0  0  0  0  0  0  0
    4.8351    0.3862   -0.7602 C   0  0  0  0  0  0  0  0  0  0  0  0
    4.1340    0.2508   -1.5996 H   0  0  0  0  0  0  0  0  0  0  0  0
    5.5514    1.5850   -0.6467 C   0  0  0  0  0  0  0  0  0  0  0  0
    5.4097    2.3798   -1.3944 H   0  0  0  0  0  0  0  0  0  0  0  0
    6.4462    1.7711    0.4203 C   0  0  0  0  0  0  0  0  0  0  0  0
    7.0079    2.7128    0.5105 H   0  0  0  0  0  0  0  0  0  0  0  0
    6.6188    0.7552    1.3717 C   0  0  0  0  0  0  0  0  0  0  0  0
    7.3161    0.8961    2.2109 H   0  0  0  0  0  0  0  0  0  0  0  0
    5.8952   -0.4429    1.2604 C   0  0  0  0  0  0  0  0  0  0  0  0
    6.0277   -1.2365    2.0132 H   0  0  0  0  0  0  0  0  0  0  0  0
    1.9278   -1.7088   -0.9811 C   0  0  0  0  0  3  0  0  0  0  0  0
    2.1795   -2.0214   -1.9976 H   0  0  0  0  0  0  0  0  0  0  0  0
    0.2487    2.2841   -0.6622 C   0  0  2  0  0  3  0  0  0  0  0  0
   -0.2382    3.0026    0.4300 C   0  0  0  0  0  0  0  0  0  0  0  0
    0.2167    3.8907    0.8805 H   0  0  0  0  0  0  0  0  0  0  0  0
   -1.4390    2.3634    0.8311 C   0  0  0  0  0  0  0  0  0  0  0  0
   -2.3679    2.6882    1.9513 C   0  0  0  0  0  0  0  0  0  0  0  0
   -3.4052    2.7977    1.5759 H   0  0  0  0  0  0  0  0  0  0  0  0
   -2.0624    3.6216    2.4592 H   0  0  0  0  0  0  0  0  0  0  0  0
   -2.3790    1.8448    2.6732 H   0  0  0  0  0  0  0  0  0  0  0  0
    1.4655    2.4987   -1.5007 C   0  0  0  0  0  0  0  0  0  0  0  0
    2.1517    1.6254   -1.4779 H   0  0  0  0  0  0  0  0  0  0  0  0
    2.0295    3.3680   -1.1152 H   0  0  0  0  0  0  0  0  0  0  0  0
    1.2165    2.7051   -2.5633 H   0  0  0  0  0  0  0  0  0  0  0  0
  1 11  1  0  0  0  0
  2 13  1  0  0  0  0
  3 37  1  0  0  0  0
  4 34  1  0  0  0  0
  4  3  1  0  0  0  0
  5  8  1  0  0  0  0
  5  4  1  0  0  0  0
  6  5  1  0  0  0  0
  7  5  1  0  0  0  0
  8  9  1  0  0  0  0
  8  1  1  0  0  0  0
 10  8  1  0  0  0  0
 11 13  2  0  0  0  0
 11 12  1  0  0  0  0
 13 14  1  0  0  0  0
 15  2  1  0  0  0  0
 15 21  1  0  0  0  0
 15 16  1  1  0  0  0
 17 19  1  0  0  0  0
 17 15  1  0  0  0  0
 18 17  1  0  0  0  0
 20 17  1  0  0  0  0
 21 30  1  0  0  0  0
 22 24  1  0  0  0  0
 22 21  2  0  0  0  0
 23 22  1  0  0  0  0
 24 26  2  0  0  0  0
 25 24  1  0  0  0  0
 26 27  1  0  0  0  0
 26 28  1  0  0  0  0
 28 29  1  0  0  0  0
 30 28  2  0  0  0  0
 30 31  1  0  0  0  0
 32  1  1  0  0  0  0
 32  2  1  0  0  0  0
 33 32  1  0  0  0  0
 34 42  1  6  0  0  0
 34 35  1  0  0  0  0
 35 37  2  0  0  0  0
 35 36  1  0  0  0  0
 37 38  1  0  0  0  0
 38 40  1  0  0  0  0
 38 41  1  0  0  0  0
 39 38  1  0  0  0  0
 42 43  1  0  0  0  0
 42 44  1  0  0  0  0
 45 42  1  0  0  0  0
M  END
