2
q = 0.0, confidence = 0.908

 12 13  0  0  1  0  0  0  0  0999 V2000
   -0.9301    3.3098   -0.0016 Se  0  0  0  0  0  0  0  0  0  0  0  0
   -1.2655    1.4962   -0.0013 N   0  0  0  0  0  2  0  0  0  0  0  0
   -2.6776    3.7269    0.0025 N   0  0  0  0  0  0  0  0  0  0  0  0
   -3.1912    0.1201    0.0025 N   0  0  0  0  0  0  0  0  0  0  0  0
   -4.5164    0.0842    0.0056 C   0  0  0  0  0  0  0  0  0  0  0  0
   -4.9778   -0.9212    0.0061 H   0  0  0  0  0  0  0  0  0  0  0  0
   -5.3659    1.2344    0.0083 C   0  0  0  0  0  0  0  0  0  0  0  0
   -6.4561    1.0930    0.0109 H   0  0  0  0  0  0  0  0  0  0  0  0
   -4.8071    2.4978    0.0074 C   0  0  0  0  0  0  0  0  0  0  0  0
   -5.4104    3.4168    0.0092 H   0  0  0  0  0  0  0  0  0  0  0  0
   -3.3800    2.5907    0.0040 C   0  0  0  0  0  0  0  0  0  0  0  0
   -2.6044    1.3488    0.0017 C   0  0  2  0  0  3  0  0  0  0  0  0
  1  2  1  0  0  0  0
  1  3  1  0  0  0  0
  3 11  2  0  0  0  0
  4  5  2  0  0  0  0
  5  6  1  0  0  0  0
  5  7  1  0  0  0  0
  7  8  1  0  0  0  0
  9  7  2  0  0  0  0
  9 10  1  0  0  0  0
 11  9  1  0  0  0  0
 12  2  1  6  0  0  0
 12  4  1  0  0  0  0
 12 11  1  0  0  0  0
M  END
