3
q = 0.0, confidence = 0.996

 24 25  0  0  1  0  0  0  0  0999 V2000
   -4.0797   -0.8278   -1.8765 Br  0  0  0  0  0  0  0  0  0  0  0  0
   -1.3661   -0.2305   -0.1764 N   0  0  0  0  0  0  0  0  0  0  0  0
    1.0432   -0.8101   -1.5322 N   0  0  0  0  0  2  0  0  0  0  0  0
   -1.1707   -1.4089   -0.6471 C   0  0  0  0  0  0  0  0  0  0  0  0
   -1.9076   -2.2344   -0.5544 H   0  0  0  0  0  0  0  0  0  0  0  0
    0.0509   -1.7351   -1.3952 C   0  0  1  0  0  3  0  0  0  0  0  0
    0.1433   -2.9847   -2.0371 C   0  0  0  0  0  0  0  0  0  0  0  0
   -0.6657   -3.7143   -1.8874 H   0  0  0  0  0  0  0  0  0  0  0  0
    1.2347   -3.2653   -2.8647 C   0  0  0  0  0  0  0  0  0  0  0  0
    1.3174   -4.2378   -3.3722 H   0  0  0  0  0  0  0  0  0  0  0  0
    2.2064   -2.2724   -3.0439 C   0  0  0  0  0  0  0  0  0  0  0  0
    3.0741   -2.4260   -3.7007 H   0  0  0  0  0  0  0  0  0  0  0  0
    2.0786   -1.0590   -2.3567 C   0  0  0  0  0  0  0  0  0  0  0  0
    2.8344   -0.2542   -2.4103 H   0  0  0  0  0  0  0  0  0  0  0  0
   -2.5548    0.1992    0.3919 C   0  0  0  0  0  0  0  0  0  0  0  0
   -3.8444    0.0400   -0.1925 C   0  0  0  0  0  0  0  0  0  0  0  0
   -4.9835    0.5882    0.4166 C   0  0  0  0  0  0  0  0  0  0  0  0
   -5.9607    0.4648   -0.0711 H   0  0  0  0  0  0  0  0  0  0  0  0
   -4.8739    1.2822    1.6298 C   0  0  0  0  0  0  0  0  0  0  0  0
   -5.7766    1.6989    2.1004 H   0  0  0  0  0  0  0  0  0  0  0  0
   -3.6111    1.4569    2.2200 C   0  0  0  0  0  0  0  0  0  0  0  0
   -3.5096    2.0144    3.1630 H   0  0  0  0  0  0  0  0  0  0  0  0
   -2.4724    0.9448    1.5963 C   0  0  0  0  0  0  0  0  0  0  0  0
   -1.4744    1.0920    2.0293 H   0  0  0  0  0  0  0  0  0  0  0  0
  1 16  1  0  0  0  0
  2 15  1  0  0  0  0
  3  6  1  0  0  0  0
  4  5  1  0  0  0  0
  4  2  2  0  0  0  0
  6  4  1  6  0  0  0
  7  8  1  0  0  0  0
  7  6  1  0  0  0  0
  9  7  2  0  0  0  0
 10  9  1  0  0  0  0
 11  9  1  0  0  0  0
 11 13  2  0  0  0  0
 12 11  1  0  0  0  0
 13  3  1  0  0  0  0
 14 13  1  0  0  0  0
 15 23  1  0  0  0  0
 16 15  2  0  0  0  0
 16 17  1  0  0  0  0
 17 19  2  0  0  0  0
 18 17  1  0  0  0  0
 19 20  1  0  0  0  0
 19 21  1  0  0  0  0
 21 22  1  0  0  0  0
 23 24  1  0  0  0  0
 23 21  2  0  0  0  0
M  END
