1
q = 0.0, confidence = 0.994

 17 17  0  0  0  0  0  0  0  0999 V2000
    0.1447    1.2885   -1.5615 N   0  0  0  0  0  2  0  0  0  0  0  0
   -0.6282    1.1222   -2.6558 C   0  0  0  0  0  3  0  0  0  0  0  0
   -1.2987    0.2508   -2.6698 H   0  0  0  0  0  0  0  0  0  0  0  0
   -0.5591    2.0024   -3.7490 C   0  0  0  0  0  0  0  0  0  0  0  0
    0.3527    3.0670   -3.7107 C   0  0  0  0  0  0  0  0  0  0  0  0
    0.4489    3.7763   -4.5448 H   0  0  0  0  0  0  0  0  0  0  0  0
    1.1573    3.2229   -2.5709 C   0  0  0  0  0  0  0  0  0  0  0  0
    1.0197    2.3194   -1.5055 C   0  0  0  0  0  0  0  0  0  0  0  0
    1.5887    2.4256   -0.5717 H   0  0  0  0  0  0  0  0  0  0  0  0
    2.1311    4.3586   -2.5272 C   0  0  0  0  0  0  0  0  0  0  0  0
    2.2603    5.1757   -3.4203 O   0  0  0  0  0  0  0  0  0  0  0  0
    2.8515    4.3743   -1.3834 O   0  0  0  0  0  0  0  0  0  0  0  0
    3.4479    5.1512   -1.4479 H   0  0  0  0  0  0  0  0  0  0  0  0
   -1.4746    1.7458   -4.9046 C   0  0  0  0  0  0  0  0  0  0  0  0
   -2.2944    0.8481   -4.9447 O   0  0  0  0  0  0  0  0  0  0  0  0
   -1.2856    2.6351   -5.9086 O   0  0  0  0  0  0  0  0  0  0  0  0
   -1.9253    2.3858   -6.6101 H   0  0  0  0  0  0  0  0  0  0  0  0
  1  8  1  0  0  0  0
  2  1  1  0  0  0  0
  3  2  1  0  0  0  0
  4  5  2  0  0  0  0
  4  2  1  0  0  0  0
  5  7  1  0  0  0  0
  6  5  1  0  0  0  0
  7 10  1  0  0  0  0
  7  8  2  0  0  0  0
  8  9  1  0  0  0  0
 10 12  1  0  0  0  0
 11 10  2  0  0  0  0
 13 12  1  0  0  0  0
 14  4  1  0  0  0  0
 15 14  2  0  0  0  0
 16 14  1  0  0  0  0
 17 16  1  0  0  0  0
M  END
