1
q = -1.0

 12 11  0  0  0  0  0  0  0  0999 V2000
   -0.1641   -0.5939    1.7350 N   0  0  0  0  0  2  0  0  0  0  0  0
   -0.8686   -0.4909    2.4718 H   0  0  0  0  0  0  0  0  0  0  0  0
    1.1129   -0.8499    2.4006 C   0  0  0  0  0  0  0  0  0  0  0  0
    1.9344   -0.5389    1.7237 H   0  0  0  0  0  0  0  0  0  0  0  0
    1.2864   -2.3498    2.6928 C   0  0  0  0  0  0  0  0  0  0  0  0
    0.5032   -2.6998    3.3987 H   0  0  0  0  0  0  0  0  0  0  0  0
    2.2783   -2.5609    3.1434 H   0  0  0  0  0  0  0  0  0  0  0  0
    1.1888   -2.9418    1.7633 H   0  0  0  0  0  0  0  0  0  0  0  0
    1.2259   -0.0347    3.6977 C   0  0  0  0  0  0  0  0  0  0  0  0
    1.1043    1.0509    3.5097 H   0  0  0  0  0  0  0  0  0  0  0  0
    2.2091   -0.1922    4.1859 H   0  0  0  0  0  0  0  0  0  0  0  0
    0.4398   -0.3412    4.4222 H   0  0  0  0  0  0  0  0  0  0  0  0
  1  3  1  0  0  0  0
  1  2  1  0  0  0  0
  3  5  1  0  0  0  0
  3  9  1  0  0  0  0
  4  3  1  0  0  0  0
  5  7  1  0  0  0  0
  5  6  1  0  0  0  0
  8  5  1  0  0  0  0
  9 11  1  0  0  0  0
  9 12  1  0  0  0  0
 10  9  1  0  0  0  0
M  END
