3
q = 0.0, confidence = 0.998

 30 32  0  0  0  0  0  0  0  0999 V2000
    1.5756   -1.2867   -2.3012 S   0  0  0  0  0  0  0  0  0  0  0  0
    1.9051   -1.7987    0.8027 N   0  0  0  0  0  0  0  0  0  0  0  0
    1.2270    1.5090   -1.1332 N   0  0  0  0  0  2  0  0  0  0  0  0
    2.2675   -1.6243    2.0857 C   0  0  0  0  0  0  0  0  0  0  0  0
    1.5952   -1.0132    2.7044 H   0  0  0  0  0  0  0  0  0  0  0  0
    3.4506   -2.1569    2.6170 C   0  0  0  0  0  0  0  0  0  0  0  0
    3.7038   -1.9743    3.6708 H   0  0  0  0  0  0  0  0  0  0  0  0
    4.2937   -2.8871    1.7724 C   0  0  0  0  0  0  0  0  0  0  0  0
    5.2406   -3.3066    2.1438 H   0  0  0  0  0  0  0  0  0  0  0  0
    3.9141   -3.0678    0.4346 C   0  0  0  0  0  0  0  0  0  0  0  0
    4.5486   -3.6367   -0.2612 H   0  0  0  0  0  0  0  0  0  0  0  0
    2.7014   -2.5161   -0.0135 C   0  0  0  0  0  0  0  0  0  0  0  0
    2.2542   -2.7556   -1.4372 C   0  0  0  0  0  0  0  0  0  0  0  0
    1.4106   -3.4789   -1.4701 H   0  0  0  0  0  0  0  0  0  0  0  0
    3.0758   -3.1936   -2.0358 H   0  0  0  0  0  0  0  0  0  0  0  0
    2.8578   -0.0684   -2.0365 C   0  0  0  0  0  0  0  0  0  0  0  0
    4.1770   -0.3423   -2.3922 C   0  0  0  0  0  0  0  0  0  0  0  0
    4.4371   -1.3290   -2.8028 H   0  0  0  0  0  0  0  0  0  0  0  0
    5.1880    0.6396   -2.2592 C   0  0  0  0  0  0  0  0  0  0  0  0
    6.2217    0.3903   -2.5392 H   0  0  0  0  0  0  0  0  0  0  0  0
    4.8680    1.9148   -1.8188 C   0  0  0  0  0  3  0  0  0  0  0  0
    5.6390    2.6966   -1.7501 H   0  0  0  0  0  0  0  0  0  0  0  0
    3.5301    2.2382   -1.4622 C   0  0  0  0  0  0  0  0  0  0  0  0
    3.1482    3.5427   -1.0382 C   0  0  0  0  0  0  0  0  0  0  0  0
    3.9163    4.3283   -0.9714 H   0  0  0  0  0  0  0  0  0  0  0  0
    1.8298    3.8068   -0.7166 C   0  0  0  0  0  0  0  0  0  0  0  0
    1.5008    4.8009   -0.3863 H   0  0  0  0  0  0  0  0  0  0  0  0
    0.9005    2.7409   -0.7520 C   0  0  0  0  0  0  0  0  0  0  0  0
   -0.1399    2.8945   -0.4306 H   0  0  0  0  0  0  0  0  0  0  0  0
    2.5049    1.2281   -1.5337 C   0  0  0  0  0  0  0  0  0  0  0  0
  1 16  1  0  0  0  0
  1 13  1  0  0  0  0
  2  4  1  0  0  0  0
  3 28  1  0  0  0  0
  4  6  2  0  0  0  0
  4  5  1  0  0  0  0
  6  7  1  0  0  0  0
  8  9  1  0  0  0  0
  8  6  1  0  0  0  0
 10  8  2  0  0  0  0
 11 10  1  0  0  0  0
 12 10  1  0  0  0  0
 12  2  2  0  0  0  0
 13 12  1  0  0  0  0
 14 13  1  0  0  0  0
 15 13  1  0  0  0  0
 16 30  2  0  0  0  0
 17 19  2  0  0  0  0
 17 16  1  0  0  0  0
 18 17  1  0  0  0  0
 19 21  1  0  0  0  0
 20 19  1  0  0  0  0
 21 22  1  0  0  0  0
 21 23  1  0  0  0  0
 23 24  2  0  0  0  0
 24 25  1  0  0  0  0
 24 26  1  0  0  0  0
 26 27  1  0  0  0  0
 28 26  2  0  0  0  0
 28 29  1  0  0  0  0
 30 23  1  0  0  0  0
 30  3  1  0  0  0  0
M  END
