13
q = 0.0, confidence = 0.986

 20 20  0  0  0  0  0  0  0  0999 V2000
   -4.4304    0.7809   -0.0103 C   0  0  0  0  0  0  0  0  0  0  0  0
   -4.5247    2.1750   -0.2281 C   0  0  0  0  0  0  0  0  0  0  0  0
   -5.5163    2.6410   -0.3236 H   0  0  0  0  0  0  0  0  0  0  0  0
   -3.3527    2.9283   -0.3253 C   0  0  0  0  0  0  0  0  0  0  0  0
   -3.3897    4.0137   -0.4978 H   0  0  0  0  0  0  0  0  0  0  0  0
   -2.1090    2.2874   -0.2091 C   0  0  0  0  0  3  0  0  0  0  0  0
   -1.1535    2.8312   -0.2720 H   0  0  0  0  0  0  0  0  0  0  0  0
   -3.1356    0.2304    0.0991 C   0  0  0  0  0  0  0  0  0  0  0  0
   -3.0162   -0.8517    0.2619 H   0  0  0  0  0  0  0  0  0  0  0  0
   -5.5786   -0.1133    0.0908 C   0  0  0  0  0  0  0  0  0  0  0  0
   -5.3600   -1.1988    0.2019 H   0  0  0  0  0  0  0  0  0  0  0  0
   -9.1683   -0.1067    0.0708 C   0  0  0  0  0  0  0  0  0  0  0  0
   -2.0098    0.9586   -0.0002 N   0  0  0  0  0  2  0  0  0  0  0  0
   -6.7969    0.3358    0.0360 N   0  0  0  0  0  0  0  0  0  0  0  0
   -7.8134   -0.5180    0.1199 N   0  0  0  0  0  0  0  0  0  0  0  0
   -7.6757   -1.5357    0.2205 H   0  0  0  0  0  0  0  0  0  0  0  0
   -9.3264    1.2393   -0.0621 N   0  0  0  0  0  0  0  0  0  0  0  0
  -10.2729    1.6062   -0.1156 H   0  0  0  0  0  0  0  0  0  0  0  0
   -8.5101    1.8466   -0.1279 H   0  0  0  0  0  0  0  0  0  0  0  0
  -10.0588   -0.9428    0.1494 O   0  0  0  0  0  0  0  0  0  0  0  0
  1 10  1  0  0  0  0
  1  8  2  0  0  0  0
  2  1  1  0  0  0  0
  3  2  1  0  0  0  0
  4  2  2  0  0  0  0
  4  6  1  0  0  0  0
  5  4  1  0  0  0  0
  6 13  1  0  0  0  0
  7  6  1  0  0  0  0
  8  9  1  0  0  0  0
 10 11  1  0  0  0  0
 12 15  1  0  0  0  0
 12 20  2  0  0  0  0
 13  8  1  0  0  0  0
 14 10  2  0  0  0  0
 14 15  1  0  0  0  0
 15 16  1  0  0  0  0
 17 12  1  0  0  0  0
 18 17  1  0  0  0  0
 19 17  1  0  0  0  0
M  END
