28
q = 0.0, confidence = 0.996

 30 32  0  0  0  0  0  0  0  0999 V2000
   -4.4446   -0.6586   -1.0248 C   0  0  0  0  0  0  0  0  0  0  0  0
   -4.6185   -1.7325   -0.8574 H   0  0  0  0  0  0  0  0  0  0  0  0
   -5.4909    0.2168   -1.4058 C   0  0  0  0  0  0  0  0  0  0  0  0
   -6.4978   -0.1942   -1.5633 H   0  0  0  0  0  0  0  0  0  0  0  0
   -5.2286    1.5710   -1.5324 C   0  0  0  0  0  0  0  0  0  0  0  0
   -6.0242    2.2903   -1.7833 H   0  0  0  0  0  0  0  0  0  0  0  0
   -3.5140    3.4033   -1.4109 C   0  0  0  0  0  3  0  0  0  0  0  0
   -4.2762    4.1651   -1.6375 H   0  0  0  0  0  0  0  0  0  0  0  0
   -2.1927    3.7547   -1.2153 C   0  0  0  0  0  0  0  0  0  0  0  0
   -1.8750    4.8039   -1.2877 H   0  0  0  0  0  0  0  0  0  0  0  0
    0.6780    4.2794   -0.3530 C   0  0  0  0  0  0  0  0  0  0  0  0
   -0.0434    5.0355   -0.0076 H   0  0  0  0  0  0  0  0  0  0  0  0
    2.0415    4.5456   -0.2339 C   0  0  0  0  0  0  0  0  0  0  0  0
    2.4067    5.4948    0.1838 H   0  0  0  0  0  0  0  0  0  0  0  0
    2.9929    3.5860   -0.6508 C   0  0  0  0  0  0  0  0  0  0  0  0
    2.5494    2.3570   -1.1838 C   0  0  0  0  0  0  0  0  0  0  0  0
    3.2609    1.5886   -1.5137 H   0  0  0  0  0  0  0  0  0  0  0  0
    1.1794    2.0928   -1.2724 C   0  0  0  0  0  0  0  0  0  0  0  0
    0.8409    1.1284   -1.6716 H   0  0  0  0  0  0  0  0  0  0  0  0
    0.2180    3.0428   -0.8680 C   0  0  0  0  0  0  0  0  0  0  0  0
   -1.2218    2.7240   -0.9871 C   0  0  0  0  0  0  0  0  0  0  0  0
   -2.8688    1.0805   -1.0247 C   0  0  0  0  0  0  0  0  0  0  0  0
   -3.9021    2.0356   -1.3323 C   0  0  0  0  0  0  0  0  0  0  0  0
    5.2912    3.0350   -0.9715 C   0  0  0  0  0  0  0  0  0  0  0  0
    5.2450    2.0464   -0.4643 H   0  0  0  0  0  0  0  0  0  0  0  0
    6.2656    3.5099   -0.7551 H   0  0  0  0  0  0  0  0  0  0  0  0
    5.2003    2.8731   -2.0682 H   0  0  0  0  0  0  0  0  0  0  0  0
   -3.1885   -0.2456   -0.8204 N   0  0  0  0  0  2  0  0  0  0  0  0
   -1.5734    1.4376   -0.9026 N   0  0  0  0  0  0  0  0  0  0  0  0
    4.2968    3.9275   -0.4915 O   0  0  0  0  0  0  0  0  0  0  0  0
  1  2  1  0  0  0  0
  1 28  1  0  0  0  0
  3  1  2  0  0  0  0
  4  3  1  0  0  0  0
  5  3  1  0  0  0  0
  5 23  2  0  0  0  0
  6  5  1  0  0  0  0
  7 23  1  0  0  0  0
  7  9  1  0  0  0  0
  8  7  1  0  0  0  0
  9 21  2  0  0  0  0
 10  9  1  0  0  0  0
 11 13  1  0  0  0  0
 11 12  1  0  0  0  0
 13 14  1  0  0  0  0
 15 30  1  0  0  0  0
 15 13  2  0  0  0  0
 16 15  1  0  0  0  0
 17 16  1  0  0  0  0
 18 16  2  0  0  0  0
 18 20  1  0  0  0  0
 19 18  1  0  0  0  0
 20 11  2  0  0  0  0
 21 29  1  0  0  0  0
 21 20  1  0  0  0  0
 22 29  2  0  0  0  0
 22 28  1  0  0  0  0
 23 22  1  0  0  0  0
 24 26  1  0  0  0  0
 24 30  1  0  0  0  0
 24 25  1  0  0  0  0
 27 24  1  0  0  0  0
M  END
