13
q = -1.0

 26 27  0  0  1  0  0  0  0  0999 V2000
   -5.8630   -0.3794   -0.0658 S   0  0  0  0  0  0  0  0  0  0  0  0
   -6.0061   -1.1650    1.1786 O   0  0  0  0  0  0  0  0  0  0  0  0
   -6.4093   -1.4079   -1.3030 N   0  0  0  0  0  0  0  0  0  0  0  0
   -7.0738   -2.0774   -0.8934 H   0  0  0  0  0  0  0  0  0  0  0  0
   -6.8430   -0.8632   -2.0598 H   0  0  0  0  0  0  0  0  0  0  0  0
   -4.1279   -0.2919   -0.4952 C   0  0  0  0  0  0  0  0  0  0  0  0
   -3.2276   -1.6588   -1.1441 S   0  0  0  0  0  0  0  0  0  0  0  0
   -6.4253    0.9752   -0.1962 O   0  0  0  0  0  0  0  0  0  0  0  0
   -3.4317    0.7717   -0.1973 N   0  0  0  0  0  0  0  0  0  0  0  0
   -1.7631   -0.6477   -0.8782 C   0  0  2  0  0  3  0  0  0  0  0  0
   -0.0002   -2.1296   -2.0771 S   0  0  0  0  0  0  0  0  0  0  0  0
   -1.1182   -3.0556   -2.4125 O   0  0  0  0  0  0  0  0  0  0  0  0
   -2.1218    0.5953   -0.4400 N   0  0  0  0  0  2  0  0  0  0  0  0
    1.1993   -3.0177   -1.0858 C   0  0  0  0  0  0  0  0  0  0  0  0
    0.7351   -1.4377   -3.1733 O   0  0  0  0  0  0  0  0  0  0  0  0
   -0.4891   -0.9287   -1.0425 N   0  0  0  0  0  2  0  0  0  0  0  0
    2.4170   -2.3992   -0.7627 C   0  0  0  0  0  0  0  0  0  0  0  0
    2.6588   -1.4051   -1.1649 H   0  0  0  0  0  0  0  0  0  0  0  0
    3.3171   -3.0783    0.0712 C   0  0  0  0  0  0  0  0  0  0  0  0
    4.2637   -2.5957    0.3562 H   0  0  0  0  0  0  0  0  0  0  0  0
    3.0042   -4.3654    0.5425 C   0  0  0  0  0  0  0  0  0  0  0  0
    3.7154   -4.8932    1.1957 H   0  0  0  0  0  0  0  0  0  0  0  0
    1.7962   -4.9839    0.1780 C   0  0  0  0  0  0  0  0  0  0  0  0
    1.5644   -5.9986    0.5359 H   0  0  0  0  0  0  0  0  0  0  0  0
    0.8767   -4.3060   -0.6370 C   0  0  0  0  0  0  0  0  0  0  0  0
   -0.0858   -4.7497   -0.9297 H   0  0  0  0  0  0  0  0  0  0  0  0
  1  2  2  0  0  0  0
  3  4  1  0  0  0  0
  3  1  1  0  0  0  0
  5  3  1  0  0  0  0
  6  9  2  0  0  0  0
  6  1  1  0  0  0  0
  7 10  1  0  0  0  0
  7  6  1  0  0  0  0
  8  1  2  0  0  0  0
 10 16  1  6  0  0  0
 10 13  1  0  0  0  0
 11 14  1  0  0  0  0
 11 16  1  0  0  0  0
 12 11  2  0  0  0  0
 13  9  1  0  0  0  0
 14 17  2  0  0  0  0
 14 25  1  0  0  0  0
 15 11  2  0  0  0  0
 17 19  1  0  0  0  0
 18 17  1  0  0  0  0
 19 20  1  0  0  0  0
 19 21  2  0  0  0  0
 21 22  1  0  0  0  0
 23 24  1  0  0  0  0
 23 21  1  0  0  0  0
 25 23  2  0  0  0  0
 26 25  1  0  0  0  0
M  END
