2
q = -1.0

 17 18  0  0  1  0  0  0  0  0999 V2000
    0.7646   -1.9836   -0.8344 S   0  0  0  0  0  1  0  0  0  0  0  0
    1.2766    0.7164    0.2828 N   0  0  0  0  0  2  0  0  0  0  0  0
    1.3438    1.9884    0.7042 C   0  0  0  0  0  0  0  0  0  0  0  0
    0.3877    2.5155    0.8211 H   0  0  0  0  0  0  0  0  0  0  0  0
    2.5714    2.6343    0.9661 C   0  0  0  0  0  0  0  0  0  0  0  0
    2.5620    3.6798    1.3043 H   0  0  0  0  0  0  0  0  0  0  0  0
    3.7552    1.9370    0.7883 C   0  0  0  0  0  0  0  0  0  0  0  0
    4.7279    2.4106    0.9926 H   0  0  0  0  0  0  0  0  0  0  0  0
    4.8961   -0.1764    0.0911 C   0  0  0  0  0  0  0  0  0  0  0  0
    5.8790    0.2744    0.2909 H   0  0  0  0  0  0  0  0  0  0  0  0
    4.7826   -1.4776   -0.3945 C   0  0  0  0  0  0  0  0  0  0  0  0
    5.6903   -2.0737   -0.5753 H   0  0  0  0  0  0  0  0  0  0  0  0
    3.5250   -2.0488   -0.6744 C   0  0  0  0  0  0  0  0  0  0  0  0
    3.4605   -3.0714   -1.0746 H   0  0  0  0  0  0  0  0  0  0  0  0
    2.3341   -1.3299   -0.4645 C   0  0  0  0  0  0  0  0  0  0  0  0
    2.4341    0.0054    0.0541 C   0  0  1  0  0  3  0  0  0  0  0  0
    3.7243    0.5929    0.3195 C   0  0  0  0  0  0  0  0  0  0  0  0
  1 15  1  0  0  0  0
  2  3  1  0  0  0  0
  3  4  1  0  0  0  0
  3  5  2  0  0  0  0
  5  6  1  0  0  0  0
  7  5  1  0  0  0  0
  7  8  1  0  0  0  0
  9 10  1  0  0  0  0
  9 17  1  0  0  0  0
 11  9  2  0  0  0  0
 12 11  1  0  0  0  0
 13 15  2  0  0  0  0
 13 11  1  0  0  0  0
 14 13  1  0  0  0  0
 16 15  1  6  0  0  0
 16  2  1  0  0  0  0
 16 17  1  0  0  0  0
 17  7  2  0  0  0  0
M  END
