3
q = -1.0, confidence = 0.0

 26 27  0  0  0  0  0  0  0  0999 V2000
    1.1319    0.7396    2.1726 S   0  0  0  0  0  0  0  0  0  0  0  0
   -0.8127   -1.6732   -1.4710 O   0  0  0  0  0  0  0  0  0  0  0  0
   -0.1861   -0.3704    0.3187 N   0  0  0  0  0  2  0  0  0  0  0  0
   -1.5837    0.4854    2.1272 N   0  0  0  0  0  0  0  0  0  0  0  0
   -2.7898    0.5453    1.4695 N   0  0  0  0  0  0  0  0  0  0  0  0
   -0.3801    0.2109    1.5215 C   0  0  0  0  0  0  0  0  0  0  0  0
   -3.1060   -0.4116    0.6413 C   0  0  0  0  0  0  0  0  0  0  0  0
   -2.2540   -1.6399    0.4809 C   0  0  0  0  0  0  0  0  0  0  0  0
   -1.9103   -1.9683    1.4858 H   0  0  0  0  0  0  0  0  0  0  0  0
   -2.7883   -2.4657   -0.0146 H   0  0  0  0  0  0  0  0  0  0  0  0
   -1.0272   -1.2561   -0.3415 C   0  0  0  0  0  0  0  0  0  0  0  0
   -4.3407   -0.2432   -0.1569 C   0  0  0  0  0  0  0  0  0  0  0  0
   -4.5349   -0.9820   -1.3462 C   0  0  0  0  0  0  0  0  0  0  0  0
   -3.7530   -1.6695   -1.7017 H   0  0  0  0  0  0  0  0  0  0  0  0
   -5.6987   -0.8054   -2.1083 C   0  0  0  0  0  0  0  0  0  0  0  0
   -5.8306   -1.3785   -3.0384 H   0  0  0  0  0  0  0  0  0  0  0  0
   -6.6874    0.0976   -1.6903 C   0  0  0  0  0  0  0  0  0  0  0  0
   -7.6046    0.2272   -2.2846 H   0  0  0  0  0  0  0  0  0  0  0  0
   -6.4989    0.8411   -0.5111 C   0  0  0  0  0  0  0  0  0  0  0  0
   -7.2704    1.5531   -0.1803 H   0  0  0  0  0  0  0  0  0  0  0  0
   -5.3336    0.6815    0.2442 C   0  0  0  0  0  0  0  0  0  0  0  0
   -5.1680    1.2643    1.1612 H   0  0  0  0  0  0  0  0  0  0  0  0
   -1.5613    1.2513    3.3734 C   0  0  0  0  0  0  0  0  0  0  0  0
   -2.5934    1.2848    3.7609 H   0  0  0  0  0  0  0  0  0  0  0  0
   -1.1846    2.2817    3.2010 H   0  0  0  0  0  0  0  0  0  0  0  0
   -0.8961    0.7486    4.1005 H   0  0  0  0  0  0  0  0  0  0  0  0
  2 11  2  0  0  0  0
  3  6  1  0  0  0  0
  4 23  1  0  0  0  0
  5  4  1  0  0  0  0
  6  4  1  0  0  0  0
  6  1  2  0  0  0  0
  7  5  2  0  0  0  0
  8  7  1  0  0  0  0
  8  9  1  0  0  0  0
 10  8  1  0  0  0  0
 11  3  1  0  0  0  0
 11  8  1  0  0  0  0
 12 21  1  0  0  0  0
 12  7  1  0  0  0  0
 13 12  2  0  0  0  0
 14 13  1  0  0  0  0
 15 17  2  0  0  0  0
 15 13  1  0  0  0  0
 16 15  1  0  0  0  0
 17 19  1  0  0  0  0
 18 17  1  0  0  0  0
 19 20  1  0  0  0  0
 19 21  2  0  0  0  0
 21 22  1  0  0  0  0
 23 24  1  0  0  0  0
 23 26  1  0  0  0  0
 25 23  1  0  0  0  0
M  END
