1
q = -1.0

 41 41  0  0  0  0  0  0  0  0999 V2000
   -0.2174   -0.8896    1.8394 N   0  0  0  0  0  2  0  0  0  0  0  0
    2.2589   -1.8237    1.0309 N   0  0  0  0  0  0  0  0  0  0  0  0
   -0.4457   -2.5612   -0.3668 N   0  0  0  0  0  0  0  0  0  0  0  0
    0.7987   -0.9908    2.8624 C   0  0  0  0  0  0  0  0  0  0  0  0
    1.8699   -2.0175    2.4530 C   0  0  0  0  0  0  0  0  0  0  0  0
    2.0074   -3.0140    0.1954 C   0  0  0  0  0  0  0  0  0  0  0  0
    0.5610   -3.5093    0.1706 C   0  0  0  0  0  0  0  0  0  0  0  0
   -1.6271   -2.4601    0.5312 C   0  0  0  0  0  0  0  0  0  0  0  0
   -1.2534   -1.9038    1.9149 C   0  0  0  0  0  0  0  0  0  0  0  0
    3.6792   -1.3686    0.8891 C   0  0  0  0  0  0  0  0  0  0  0  0
    3.8791    0.0116    1.5117 C   0  0  0  0  0  0  0  0  0  0  0  0
    4.7284   -2.3681    1.4050 C   0  0  0  0  0  0  0  0  0  0  0  0
   -0.8785   -2.8985   -1.7681 C   0  0  0  0  0  0  0  0  0  0  0  0
    0.3035   -2.9781   -2.7353 C   0  0  0  0  0  0  0  0  0  0  0  0
   -1.7436   -4.1642   -1.8753 C   0  0  0  0  0  0  0  0  0  0  0  0
    1.2850   -0.0023    3.0027 H   0  0  0  0  0  0  0  0  0  0  0  0
    0.3760   -1.2674    3.8578 H   0  0  0  0  0  0  0  0  0  0  0  0
    2.7548   -1.9446    3.1184 H   0  0  0  0  0  0  0  0  0  0  0  0
    1.4781   -3.0458    2.5956 H   0  0  0  0  0  0  0  0  0  0  0  0
    2.6278   -3.8828    0.5278 H   0  0  0  0  0  0  0  0  0  0  0  0
    2.3394   -2.7661   -0.8328 H   0  0  0  0  0  0  0  0  0  0  0  0
    0.2585   -3.8045    1.1937 H   0  0  0  0  0  0  0  0  0  0  0  0
    0.5514   -4.4564   -0.4108 H   0  0  0  0  0  0  0  0  0  0  0  0
   -2.1272   -3.4461    0.6666 H   0  0  0  0  0  0  0  0  0  0  0  0
   -2.3594   -1.7987    0.0306 H   0  0  0  0  0  0  0  0  0  0  0  0
   -2.1956   -1.5223    2.3802 H   0  0  0  0  0  0  0  0  0  0  0  0
   -0.9223   -2.7464    2.5706 H   0  0  0  0  0  0  0  0  0  0  0  0
    3.8328   -1.2661   -0.2040 H   0  0  0  0  0  0  0  0  0  0  0  0
    3.1785    0.7529    1.0832 H   0  0  0  0  0  0  0  0  0  0  0  0
    3.7443   -0.0055    2.6125 H   0  0  0  0  0  0  0  0  0  0  0  0
    4.9093    0.3682    1.3157 H   0  0  0  0  0  0  0  0  0  0  0  0
    5.7422   -1.9949    1.1589 H   0  0  0  0  0  0  0  0  0  0  0  0
    4.6850   -2.4914    2.5065 H   0  0  0  0  0  0  0  0  0  0  0  0
    4.6285   -3.3701    0.9432 H   0  0  0  0  0  0  0  0  0  0  0  0
   -1.5113   -2.0411   -2.0681 H   0  0  0  0  0  0  0  0  0  0  0  0
    0.9535   -2.0854   -2.6798 H   0  0  0  0  0  0  0  0  0  0  0  0
    0.9300   -3.8769   -2.5603 H   0  0  0  0  0  0  0  0  0  0  0  0
   -0.0772   -3.0492   -3.7730 H   0  0  0  0  0  0  0  0  0  0  0  0
   -1.2156   -5.0685   -1.5062 H   0  0  0  0  0  0  0  0  0  0  0  0
   -1.9944   -4.3461   -2.9390 H   0  0  0  0  0  0  0  0  0  0  0  0
   -2.7001   -4.0679   -1.3275 H   0  0  0  0  0  0  0  0  0  0  0  0
  1  9  1  0  0  0  0
  1  4  1  0  0  0  0
  2  5  1  0  0  0  0
  3  7  1  0  0  0  0
  3  8  1  0  0  0  0
  4 16  1  0  0  0  0
  4 17  1  0  0  0  0
  5 19  1  0  0  0  0
  5  4  1  0  0  0  0
  5 18  1  0  0  0  0
  6 20  1  0  0  0  0
  6  2  1  0  0  0  0
  7  6  1  0  0  0  0
  7 22  1  0  0  0  0
  8 24  1  0  0  0  0
  8  9  1  0  0  0  0
  9 26  1  0  0  0  0
  9 27  1  0  0  0  0
 10  2  1  0  0  0  0
 10 12  1  0  0  0  0
 10 11  1  0  0  0  0
 11 30  1  0  0  0  0
 12 33  1  0  0  0  0
 13  3  1  0  0  0  0
 14 36  1  0  0  0  0
 14 37  1  0  0  0  0
 14 13  1  0  0  0  0
 15 13  1  0  0  0  0
 15 39  1  0  0  0  0
 15 41  1  0  0  0  0
 21  6  1  0  0  0  0
 23  7  1  0  0  0  0
 25  8  1  0  0  0  0
 28 10  1  0  0  0  0
 29 11  1  0  0  0  0
 31 11  1  0  0  0  0
 32 12  1  0  0  0  0
 34 12  1  0  0  0  0
 35 13  1  0  0  0  0
 38 14  1  0  0  0  0
 40 15  1  0  0  0  0
M  END
