3
q = 0.0, confidence = 0.996

 31 33  0  0  1  0  0  0  0  0999 V2000
   -1.6266   -0.8113    0.4591 C   0  0  2  0  0  0  0  0  0  0  0  0
   -1.1999   -1.2697    1.3771 H   0  0  0  0  0  0  0  0  0  0  0  0
   -0.6860    0.2639    0.0300 N   0  0  0  0  0  2  0  0  0  0  0  0
   -1.3331    1.3790   -0.1491 C   0  0  1  0  0  3  0  0  0  0  0  0
   -2.8101    1.3085    0.1901 C   0  0  1  0  0  0  0  0  0  0  0  0
   -3.0342    2.0778    0.9645 H   0  0  0  0  0  0  0  0  0  0  0  0
   -3.7317    1.4526   -1.0015 C   0  0  0  0  0  0  0  0  0  0  0  0
   -3.8306    2.3893   -1.5706 H   0  0  0  0  0  0  0  0  0  0  0  0
   -4.3814    0.3062   -1.2692 C   0  0  0  0  0  0  0  0  0  0  0  0
   -5.0941    0.1648   -2.0973 H   0  0  0  0  0  0  0  0  0  0  0  0
   -4.0245   -0.8241   -0.3174 C   0  0  1  0  0  0  0  0  0  0  0  0
   -3.1554   -1.8559   -1.0164 C   0  0  0  0  0  0  0  0  0  0  0  0
   -3.5647   -2.5307   -1.7852 H   0  0  0  0  0  0  0  0  0  0  0  0
   -1.8741   -1.8496   -0.6098 C   0  0  0  0  0  0  0  0  0  0  0  0
   -1.0886   -2.5156   -0.9883 H   0  0  0  0  0  0  0  0  0  0  0  0
   -3.0175   -0.1436    0.7051 C   0  0  1  0  0  0  0  0  0  0  0  0
   -0.7207    2.6525   -0.6428 C   0  0  0  0  0  0  0  0  0  0  0  0
    0.3326    2.4652   -0.9204 H   0  0  0  0  0  0  0  0  0  0  0  0
   -1.2531    2.9282   -1.5806 H   0  0  0  0  0  0  0  0  0  0  0  0
   -0.8142    3.8156    0.3572 C   0  0  0  0  0  0  0  0  0  0  0  0
   -0.3427    4.7223   -0.0690 H   0  0  0  0  0  0  0  0  0  0  0  0
   -0.2841    3.5758    1.2995 H   0  0  0  0  0  0  0  0  0  0  0  0
   -1.8642    4.0704    0.6050 H   0  0  0  0  0  0  0  0  0  0  0  0
   -5.2816   -1.4683    0.2905 C   0  0  0  0  0  0  0  0  0  0  0  0
   -5.0201   -2.2795    0.9979 H   0  0  0  0  0  0  0  0  0  0  0  0
   -5.9054   -1.9136   -0.5112 H   0  0  0  0  0  0  0  0  0  0  0  0
   -5.9042   -0.7227    0.8227 H   0  0  0  0  0  0  0  0  0  0  0  0
   -3.4270   -0.1938    2.1736 C   0  0  0  0  0  0  0  0  0  0  0  0
   -4.3914    0.3238    2.3480 H   0  0  0  0  0  0  0  0  0  0  0  0
   -2.6579    0.3034    2.7999 H   0  0  0  0  0  0  0  0  0  0  0  0
   -3.5281   -1.2362    2.5355 H   0  0  0  0  0  0  0  0  0  0  0  0
  1 16  1  0  0  0  0
  1  2  1  1  0  0  0
  3  1  1  0  0  0  0
  4 17  1  1  0  0  0
  4  3  1  0  0  0  0
  4  5  1  0  0  0  0
  5 16  1  0  0  0  0
  5  6  1  1  0  0  0
  7  5  1  0  0  0  0
  8  7  1  0  0  0  0
  9  7  2  0  0  0  0
  9 11  1  0  0  0  0
 10  9  1  0  0  0  0
 11 24  1  1  0  0  0
 11 16  1  0  0  0  0
 12 14  2  0  0  0  0
 12 11  1  0  0  0  0
 13 12  1  0  0  0  0
 14  1  1  0  0  0  0
 15 14  1  0  0  0  0
 16 28  1  1  0  0  0
 17 20  1  0  0  0  0
 18 17  1  0  0  0  0
 19 17  1  0  0  0  0
 20 23  1  0  0  0  0
 20 22  1  0  0  0  0
 21 20  1  0  0  0  0
 24 27  1  0  0  0  0
 24 25  1  0  0  0  0
 26 24  1  0  0  0  0
 28 29  1  0  0  0  0
 28 31  1  0  0  0  0
 28 30  1  0  0  0  0
M  END
