1
q = 0.0, confidence = 0.992

 28 30  0  0  1  0  0  0  0  0999 V2000
   -0.7607   -0.5902   -1.3385 N   0  0  0  0  0  2  0  0  0  0  0  0
   -2.0924    1.1541   -1.7377 N   0  0  0  0  0  0  0  0  0  0  0  0
   -2.9663    1.6819   -1.7760 H   0  0  0  0  0  0  0  0  0  0  0  0
    0.0347    0.5299   -1.5783 C   0  0  0  0  0  0  0  0  0  0  0  0
    1.4329    0.6568   -1.6076 C   0  0  0  0  0  0  0  0  0  0  0  0
    2.0603   -0.2350   -1.4790 H   0  0  0  0  0  0  0  0  0  0  0  0
    1.9613    1.9360   -1.8147 C   0  0  0  0  0  0  0  0  0  0  0  0
    3.0544    2.0650   -1.8364 H   0  0  0  0  0  0  0  0  0  0  0  0
    1.1204    3.0602   -2.0032 C   0  0  0  0  0  0  0  0  0  0  0  0
    1.5733    4.0504   -2.1616 H   0  0  0  0  0  0  0  0  0  0  0  0
   -0.2771    2.9424   -2.0093 C   0  0  0  0  0  0  0  0  0  0  0  0
   -0.9258    3.8159   -2.1666 H   0  0  0  0  0  0  0  0  0  0  0  0
   -0.8015    1.6584   -1.8004 C   0  0  0  0  0  0  0  0  0  0  0  0
   -2.0274   -0.1869   -1.4563 C   0  0  1  0  0  3  0  0  0  0  0  0
   -3.2416   -1.0608   -1.3724 C   0  0  0  0  0  0  0  0  0  0  0  0
   -2.9335   -1.9860   -0.8419 H   0  0  0  0  0  0  0  0  0  0  0  0
   -3.5289   -1.3429   -2.4097 H   0  0  0  0  0  0  0  0  0  0  0  0
   -4.4025   -0.3882   -0.6688 C   0  0  0  0  0  0  0  0  0  0  0  0
   -4.6293   -0.6269    0.7020 C   0  0  0  0  0  0  0  0  0  0  0  0
   -3.9987   -1.3668    1.2217 H   0  0  0  0  0  0  0  0  0  0  0  0
   -5.6508    0.0540    1.3813 C   0  0  0  0  0  0  0  0  0  0  0  0
   -5.8182   -0.1445    2.4510 H   0  0  0  0  0  0  0  0  0  0  0  0
   -6.4616    0.9789    0.7024 C   0  0  0  0  0  0  0  0  0  0  0  0
   -7.2618    1.5119    1.2380 H   0  0  0  0  0  0  0  0  0  0  0  0
   -6.2600    1.2048   -0.6681 C   0  0  0  0  0  0  0  0  0  0  0  0
   -6.9081    1.9079   -1.2136 H   0  0  0  0  0  0  0  0  0  0  0  0
   -5.2398    0.5207   -1.3493 C   0  0  0  0  0  0  0  0  0  0  0  0
   -5.1079    0.6776   -2.4336 H   0  0  0  0  0  0  0  0  0  0  0  0
  2 14  1  0  0  0  0
  3  2  1  0  0  0  0
  4  1  1  0  0  0  0
  5  4  1  0  0  0  0
  5  6  1  0  0  0  0
  7  5  2  0  0  0  0
  8  7  1  0  0  0  0
  9  7  1  0  0  0  0
 10  9  1  0  0  0  0
 11  9  2  0  0  0  0
 11 13  1  0  0  0  0
 12 11  1  0  0  0  0
 13  2  1  0  0  0  0
 13  4  2  0  0  0  0
 14 15  1  6  0  0  0
 14  1  1  0  0  0  0
 15 16  1  0  0  0  0
 15 18  1  0  0  0  0
 17 15  1  0  0  0  0
 18 19  1  0  0  0  0
 19 20  1  0  0  0  0
 19 21  2  0  0  0  0
 21 22  1  0  0  0  0
 23 24  1  0  0  0  0
 23 21  1  0  0  0  0
 25 23  2  0  0  0  0
 26 25  1  0  0  0  0
 27 18  2  0  0  0  0
 27 25  1  0  0  0  0
 28 27  1  0  0  0  0
M  END
