2
q = 0.0, confidence = 1.0

 19 19  0  0  1  0  0  0  0  0999 V2000
    2.8845    2.5342   -0.2644 O   0  0  0  0  0  0  0  0  0  0  0  0
    1.9360   -0.5589   -0.0459 N   0  0  0  0  0  2  0  0  0  0  0  0
    2.9558    0.2361    0.3661 N   0  0  0  0  0  0  0  0  0  0  0  0
    4.1597   -0.3727    0.1431 C   0  0  1  0  0  3  0  0  0  0  0  0
    3.8752   -1.6263   -0.4031 C   0  0  0  0  0  0  0  0  0  0  0  0
    2.4651   -1.7079   -0.5074 C   0  0  0  0  0  0  0  0  0  0  0  0
    2.7161    1.6325    0.7679 C   0  0  0  0  0  0  0  0  0  0  0  0
    5.4543    0.3046    0.4463 C   0  0  0  0  0  0  0  0  0  0  0  0
    6.2980   -0.3201    0.1013 H   0  0  0  0  0  0  0  0  0  0  0  0
    5.5855    0.4817    1.5345 H   0  0  0  0  0  0  0  0  0  0  0  0
    5.5105    1.2882   -0.0631 H   0  0  0  0  0  0  0  0  0  0  0  0
    1.6022   -2.8121   -1.0224 C   0  0  0  0  0  0  0  0  0  0  0  0
    2.2105   -3.7035   -1.2616 H   0  0  0  0  0  0  0  0  0  0  0  0
    1.0669   -2.4964   -1.9420 H   0  0  0  0  0  0  0  0  0  0  0  0
    0.8382   -3.0826   -0.2657 H   0  0  0  0  0  0  0  0  0  0  0  0
    2.1267    2.3806   -0.8919 H   0  0  0  0  0  0  0  0  0  0  0  0
    4.5996   -2.3939   -0.6935 H   0  0  0  0  0  0  0  0  0  0  0  0
    1.6924    1.6270    1.2131 H   0  0  0  0  0  0  0  0  0  0  0  0
    3.4504    1.8661    1.5643 H   0  0  0  0  0  0  0  0  0  0  0  0
  1  7  1  0  0  0  0
  2  3  1  0  0  0  0
  3  7  1  0  0  0  0
  4  3  1  0  0  0  0
  4  8  1  6  0  0  0
  5  4  1  0  0  0  0
  6  5  2  0  0  0  0
  6  2  1  0  0  0  0
  7 18  1  0  0  0  0
  7 19  1  0  0  0  0
  8 10  1  0  0  0  0
  9  8  1  0  0  0  0
 11  8  1  0  0  0  0
 12  6  1  0  0  0  0
 12 15  1  0  0  0  0
 13 12  1  0  0  0  0
 14 12  1  0  0  0  0
 16  1  1  0  0  0  0
 17  5  1  0  0  0  0
M  END
