3
q = 0.0, confidence = 1.0

 22 23  0  0  0  0  0  0  0  0999 V2000
    2.1524   -4.4855   -1.8626 S   0  0  0  0  0  0  0  0  0  0  0  0
    3.1483   -5.0656   -0.1370 S   0  0  0  0  0  0  0  0  0  0  0  0
   -1.0894   -1.5220   -0.5804 N   0  0  0  0  0  2  0  0  0  0  0  0
    5.7520   -1.4655    1.0840 N   0  0  0  0  0  0  0  0  0  0  0  0
   -0.4038   -2.1874    0.3684 C   0  0  0  0  0  3  0  0  0  0  0  0
   -0.6891   -1.9619    1.4099 H   0  0  0  0  0  0  0  0  0  0  0  0
    0.6030   -3.1069    0.0635 C   0  0  0  0  0  0  0  0  0  0  0  0
    1.1505   -3.6283    0.8616 H   0  0  0  0  0  0  0  0  0  0  0  0
    0.8970   -3.3518   -1.2896 C   0  0  0  0  0  0  0  0  0  0  0  0
    0.1712   -2.6594   -2.2813 C   0  0  0  0  0  0  0  0  0  0  0  0
    0.3726   -2.8131   -3.3520 H   0  0  0  0  0  0  0  0  0  0  0  0
   -0.8120   -1.7505   -1.8799 C   0  0  0  0  0  0  0  0  0  0  0  0
   -1.4028   -1.1553   -2.5973 H   0  0  0  0  0  0  0  0  0  0  0  0
    4.1697   -3.6463    0.2658 C   0  0  0  0  0  0  0  0  0  0  0  0
    4.6362   -3.5570    1.5907 C   0  0  0  0  0  0  0  0  0  0  0  0
    4.3776   -4.3167    2.3441 H   0  0  0  0  0  0  0  0  0  0  0  0
    5.4209   -2.4457    1.9379 C   0  0  0  0  0  0  0  0  0  0  0  0
    5.7840   -2.3414    2.9760 H   0  0  0  0  0  0  0  0  0  0  0  0
    5.3186   -1.5778   -0.1853 C   0  0  0  0  0  0  0  0  0  0  0  0
    5.6060   -0.7586   -0.8700 H   0  0  0  0  0  0  0  0  0  0  0  0
    4.5257   -2.6400   -0.6454 C   0  0  0  0  0  0  0  0  0  0  0  0
    4.1771   -2.6732   -1.6881 H   0  0  0  0  0  0  0  0  0  0  0  0
  1  9  1  0  0  0  0
  1  2  1  0  0  0  0
  2 14  1  0  0  0  0
  3  5  1  0  0  0  0
  4 17  1  0  0  0  0
  5  6  1  0  0  0  0
  7  5  1  0  0  0  0
  7  8  1  0  0  0  0
  9  7  2  0  0  0  0
 10 12  2  0  0  0  0
 10  9  1  0  0  0  0
 11 10  1  0  0  0  0
 12  3  1  0  0  0  0
 13 12  1  0  0  0  0
 14 15  1  0  0  0  0
 15 17  2  0  0  0  0
 15 16  1  0  0  0  0
 17 18  1  0  0  0  0
 19  4  2  0  0  0  0
 20 19  1  0  0  0  0
 21 19  1  0  0  0  0
 21 14  2  0  0  0  0
 22 21  1  0  0  0  0
M  END
