1
q = -1.0

 17 18  0  0  0  0  0  0  0  0999 V2000
    2.2620   -0.9049   -0.0186 N   0  0  0  0  0  0  0  0  0  0  0  0
    2.6974   -2.1737   -0.0373 N   0  0  0  0  0  0  0  0  0  0  0  0
    3.2289    0.0122   -0.0044 N   0  0  0  0  0  2  0  0  0  0  0  0
    4.0368   -2.0676   -0.0354 C   0  0  0  0  0  0  0  0  0  0  0  0
    4.6718   -2.9608   -0.0489 H   0  0  0  0  0  0  0  0  0  0  0  0
    4.3865   -0.6930   -0.0147 C   0  0  0  0  0  0  0  0  0  0  0  0
    5.7004   -0.0390   -0.0049 C   0  0  0  0  0  0  0  0  0  0  0  0
    6.8963   -0.7924   -0.0157 C   0  0  0  0  0  0  0  0  0  0  0  0
    6.8471   -1.8916   -0.0318 H   0  0  0  0  0  0  0  0  0  0  0  0
    8.1453   -0.1568   -0.0063 C   0  0  0  0  0  0  0  0  0  0  0  0
    9.0645   -0.7629   -0.0150 H   0  0  0  0  0  0  0  0  0  0  0  0
    8.2276    1.2449    0.0142 C   0  0  0  0  0  0  0  0  0  0  0  0
    9.2091    1.7433    0.0215 H   0  0  0  0  0  0  0  0  0  0  0  0
    7.0451    2.0045    0.0250 C   0  0  0  0  0  0  0  0  0  0  0  0
    7.0985    3.1043    0.0410 H   0  0  0  0  0  0  0  0  0  0  0  0
    5.7961    1.3722    0.0156 C   0  0  0  0  0  0  0  0  0  0  0  0
    4.8642    1.9556    0.0238 H   0  0  0  0  0  0  0  0  0  0  0  0
  1  3  1  0  0  0  0
  2  4  1  0  0  0  0
  2  1  2  0  0  0  0
  4  6  2  0  0  0  0
  5  4  1  0  0  0  0
  6  7  1  0  0  0  0
  6  3  1  0  0  0  0
  7 16  1  0  0  0  0
  8 10  1  0  0  0  0
  8  7  2  0  0  0  0
  9  8  1  0  0  0  0
 10 12  2  0  0  0  0
 11 10  1  0  0  0  0
 12 13  1  0  0  0  0
 12 14  1  0  0  0  0
 14 15  1  0  0  0  0
 16 17  1  0  0  0  0
 16 14  2  0  0  0  0
M  END
