2
q = 0.0, confidence = 0.926

 30 30  0  0  0  0  0  0  0  0999 V2000
   -0.4651    2.6772    0.1927 Si  0  0  0  0  0  0  0  0  0  0  0  0
   -0.4404    0.9568   -0.1365 N   0  0  0  0  0  2  0  0  0  0  0  0
    0.3501    0.1347   -0.9523 C   0  0  0  0  0  3  0  0  0  0  0  0
    0.1553    0.1573   -2.0486 H   0  0  0  0  0  0  0  0  0  0  0  0
    1.7822   -0.1077   -0.6762 C   0  0  0  0  0  0  0  0  0  0  0  0
    2.5476   -0.8945   -1.5722 C   0  0  0  0  0  0  0  0  0  0  0  0
    2.0555   -1.3102   -2.4670 H   0  0  0  0  0  0  0  0  0  0  0  0
    3.8999   -1.1585   -1.3395 C   0  0  0  0  0  0  0  0  0  0  0  0
    4.4612   -1.7801   -2.0565 H   0  0  0  0  0  0  0  0  0  0  0  0
    4.5663   -0.6405   -0.2058 C   0  0  0  0  0  0  0  0  0  0  0  0
    3.8122    0.1554    0.6779 C   0  0  0  0  0  0  0  0  0  0  0  0
    4.3036    0.5845    1.5664 H   0  0  0  0  0  0  0  0  0  0  0  0
    2.4541    0.4190    0.4497 C   0  0  0  0  0  0  0  0  0  0  0  0
    1.8933    1.0503    1.1536 H   0  0  0  0  0  0  0  0  0  0  0  0
    6.0291   -0.9214    0.0298 C   0  0  0  0  0  0  0  0  0  0  0  0
    6.6619   -0.4886   -0.7743 H   0  0  0  0  0  0  0  0  0  0  0  0
    6.2382   -2.0118    0.0463 H   0  0  0  0  0  0  0  0  0  0  0  0
    6.3756   -0.4970    0.9923 H   0  0  0  0  0  0  0  0  0  0  0  0
    0.8607    3.5151   -0.8583 C   0  0  0  0  0  0  0  0  0  0  0  0
    0.6631    3.3481   -1.9370 H   0  0  0  0  0  0  0  0  0  0  0  0
    1.8642    3.1016   -0.6334 H   0  0  0  0  0  0  0  0  0  0  0  0
    0.8833    4.6095   -0.6778 H   0  0  0  0  0  0  0  0  0  0  0  0
   -0.1677    2.9919    2.0399 C   0  0  0  0  0  0  0  0  0  0  0  0
    0.8482    2.6787    2.3559 H   0  0  0  0  0  0  0  0  0  0  0  0
   -0.9017    2.4317    2.6562 H   0  0  0  0  0  0  0  0  0  0  0  0
   -0.2788    4.0693    2.2826 H   0  0  0  0  0  0  0  0  0  0  0  0
   -2.1680    3.4056   -0.2188 C   0  0  0  0  0  0  0  0  0  0  0  0
   -2.9588    2.9686    0.4256 H   0  0  0  0  0  0  0  0  0  0  0  0
   -2.4471    3.2230   -1.2765 H   0  0  0  0  0  0  0  0  0  0  0  0
   -2.1729    4.5028   -0.0504 H   0  0  0  0  0  0  0  0  0  0  0  0
  1 23  1  0  0  0  0
  2  1  1  0  0  0  0
  3  5  1  0  0  0  0
  3  2  1  0  0  0  0
  4  3  1  0  0  0  0
  5 13  1  0  0  0  0
  6  8  1  0  0  0  0
  6  5  2  0  0  0  0
  7  6  1  0  0  0  0
  8 10  2  0  0  0  0
  9  8  1  0  0  0  0
 10 15  1  0  0  0  0
 10 11  1  0  0  0  0
 11 12  1  0  0  0  0
 13 11  2  0  0  0  0
 13 14  1  0  0  0  0
 15 17  1  0  0  0  0
 15 18  1  0  0  0  0
 16 15  1  0  0  0  0
 19 22  1  0  0  0  0
 19 21  1  0  0  0  0
 19  1  1  0  0  0  0
 20 19  1  0  0  0  0
 23 26  1  0  0  0  0
 23 24  1  0  0  0  0
 23 25  1  0  0  0  0
 27 30  1  0  0  0  0
 27  1  1  0  0  0  0
 27 28  1  0  0  0  0
 29 27  1  0  0  0  0
M  END
