2
q = 0.0, confidence = 0.996

 48 52  0  0  1  0  0  0  0  0999 V2000
   -0.7364    0.0566    0.4477 P   0  0  1  0  0  0  0  0  0  0  0  0
    1.3726   -1.8981    0.6089 N   0  0  0  0  0  2  0  0  0  0  0  0
   -1.6787    2.6392   -0.5004 N   0  0  0  0  0  0  0  0  0  0  0  0
   -0.9783   -1.7485    0.3236 C   0  0  0  0  0  0  0  0  0  0  0  0
   -2.0786   -2.0464   -0.4515 C   0  0  0  0  0  0  0  0  0  0  0  0
   -2.4265   -3.4127   -0.9933 C   0  0  0  0  0  0  0  0  0  0  0  0
   -1.7342   -3.6247   -1.8415 H   0  0  0  0  0  0  0  0  0  0  0  0
   -2.2149   -4.1964   -0.2411 H   0  0  0  0  0  0  0  0  0  0  0  0
   -3.8724   -3.5150   -1.4955 C   0  0  0  0  0  0  0  0  0  0  0  0
   -4.0153   -4.4841   -2.0133 H   0  0  0  0  0  0  0  0  0  0  0  0
   -4.5719   -3.5141   -0.6310 H   0  0  0  0  0  0  0  0  0  0  0  0
   -4.2030   -2.3456   -2.4218 C   0  0  0  0  0  0  0  0  0  0  0  0
   -5.2163   -2.4577   -2.8559 H   0  0  0  0  0  0  0  0  0  0  0  0
   -3.4937   -2.3381   -3.2789 H   0  0  0  0  0  0  0  0  0  0  0  0
   -4.1180   -1.0103   -1.6686 C   0  0  0  0  0  0  0  0  0  0  0  0
   -4.9740   -0.9472   -0.9566 H   0  0  0  0  0  0  0  0  0  0  0  0
   -4.2419   -0.1561   -2.3645 H   0  0  0  0  0  0  0  0  0  0  0  0
   -2.8429   -0.8507   -0.8784 C   0  0  0  0  0  0  0  0  0  0  0  0
   -2.2657    0.3531   -0.5173 C   0  0  0  0  0  0  0  0  0  0  0  0
   -2.6872    1.7416   -0.6766 C   0  0  0  0  0  0  0  0  0  0  0  0
   -4.0136    2.1663   -0.9313 C   0  0  0  0  0  0  0  0  0  0  0  0
   -4.8307    1.4399   -1.0178 H   0  0  0  0  0  0  0  0  0  0  0  0
   -4.2790    3.5378   -1.0293 C   0  0  0  0  0  0  0  0  0  0  0  0
   -5.3038    3.8890   -1.2216 H   0  0  0  0  0  0  0  0  0  0  0  0
   -3.2302    4.4530   -0.8624 C   0  0  0  0  0  0  0  0  0  0  0  0
   -3.3991    5.5374   -0.9272 H   0  0  0  0  0  0  0  0  0  0  0  0
   -1.9477    3.9462   -0.5900 C   0  0  0  0  0  0  0  0  0  0  0  0
   -1.0978    4.6328   -0.4310 H   0  0  0  0  0  0  0  0  0  0  0  0
    0.1687   -2.5458    0.7426 C   0  0  2  0  0  3  0  0  0  0  0  0
    0.1157   -3.8343    1.3092 C   0  0  0  0  0  0  0  0  0  0  0  0
   -0.8569   -4.3293    1.4306 H   0  0  0  0  0  0  0  0  0  0  0  0
    1.2932   -4.4489    1.7482 C   0  0  0  0  0  0  0  0  0  0  0  0
    1.2605   -5.4522    2.1978 H   0  0  0  0  0  0  0  0  0  0  0  0
    2.5079   -3.7570    1.6314 C   0  0  0  0  0  0  0  0  0  0  0  0
    3.4539   -4.1896    1.9849 H   0  0  0  0  0  0  0  0  0  0  0  0
    2.5030   -2.4787    1.0654 C   0  0  0  0  0  0  0  0  0  0  0  0
    3.4193   -1.8790    0.9761 H   0  0  0  0  0  0  0  0  0  0  0  0
   -1.1701    0.6108    2.1335 C   0  0  0  0  0  0  0  0  0  0  0  0
   -1.9562   -0.2141    2.9626 C   0  0  0  0  0  0  0  0  0  0  0  0
   -2.2714   -1.2098    2.6155 H   0  0  0  0  0  0  0  0  0  0  0  0
   -2.3345    0.2416    4.2337 C   0  0  0  0  0  0  0  0  0  0  0  0
   -2.9447   -0.4023    4.8847 H   0  0  0  0  0  0  0  0  0  0  0  0
   -1.9342    1.5136    4.6733 C   0  0  0  0  0  0  0  0  0  0  0  0
   -2.2303    1.8671    5.6723 H   0  0  0  0  0  0  0  0  0  0  0  0
   -1.1518    2.3323    3.8431 C   0  0  0  0  0  0  0  0  0  0  0  0
   -0.8312    3.3254    4.1914 H   0  0  0  0  0  0  0  0  0  0  0  0
   -0.7627    1.8852    2.5729 C   0  0  0  0  0  0  0  0  0  0  0  0
   -0.1360    2.5123    1.9254 H   0  0  0  0  0  0  0  0  0  0  0  0
  1 38  1  1  0  0  0
  2 29  1  0  0  0  0
  2 36  1  0  0  0  0
  4  1  1  0  0  0  0
  5  4  2  0  0  0  0
  6  5  1  0  0  0  0
  6  8  1  0  0  0  0
  7  6  1  0  0  0  0
  9  6  1  0  0  0  0
  9 11  1  0  0  0  0
 10  9  1  0  0  0  0
 12 15  1  0  0  0  0
 12  9  1  0  0  0  0
 13 12  1  0  0  0  0
 14 12  1  0  0  0  0
 15 16  1  0  0  0  0
 15 18  1  0  0  0  0
 17 15  1  0  0  0  0
 18 19  2  0  0  0  0
 18  5  1  0  0  0  0
 19  1  1  0  0  0  0
 20 19  1  0  0  0  0
 20  3  2  0  0  0  0
 21 20  1  0  0  0  0
 22 21  1  0  0  0  0
 23 21  2  0  0  0  0
 23 25  1  0  0  0  0
 24 23  1  0  0  0  0
 25 27  2  0  0  0  0
 26 25  1  0  0  0  0
 27  3  1  0  0  0  0
 27 28  1  0  0  0  0
 29  4  1  1  0  0  0
 29 30  1  0  0  0  0
 30 31  1  0  0  0  0
 30 32  2  0  0  0  0
 32 33  1  0  0  0  0
 34 32  1  0  0  0  0
 34 35  1  0  0  0  0
 36 34  2  0  0  0  0
 37 36  1  0  0  0  0
 38 47  2  0  0  0  0
 38 39  1  0  0  0  0
 39 41  2  0  0  0  0
 40 39  1  0  0  0  0
 41 43  1  0  0  0  0
 41 42  1  0  0  0  0
 43 44  1  0  0  0  0
 45 46  1  0  0  0  0
 45 43  2  0  0  0  0
 47 45  1  0  0  0  0
 48 47  1  0  0  0  0
M  END
