1
q = -1.0

 41 43  0  0  0  0  0  0  0  0999 V2000
    0.1403   -0.0030   -0.7456 N   0  0  0  0  0  2  0  0  0  0  0  0
    1.3213   -0.5642   -0.3794 C   0  0  0  0  0  0  0  0  0  0  0  0
    1.4005   -1.7345    0.0462 O   0  0  0  0  0  0  0  0  0  0  0  0
    2.6135    0.2871   -0.4726 C   0  0  0  0  0  0  0  0  0  0  0  0
    2.4256    1.1418   -1.1497 H   0  0  0  0  0  0  0  0  0  0  0  0
    0.0275    1.3546   -1.1355 C   0  0  0  0  0  0  0  0  0  0  0  0
   -0.4139    1.6944   -2.4338 C   0  0  0  0  0  0  0  0  0  0  0  0
   -0.5951    0.8898   -3.1598 H   0  0  0  0  0  0  0  0  0  0  0  0
   -0.6236    3.0317   -2.7951 C   0  0  0  0  0  0  0  0  0  0  0  0
   -0.9698    3.2634   -3.8154 H   0  0  0  0  0  0  0  0  0  0  0  0
   -0.3999    4.0855   -1.8846 C   0  0  0  0  0  0  0  0  0  0  0  0
    0.0475    3.7425   -0.5926 C   0  0  0  0  0  0  0  0  0  0  0  0
    0.2297    4.5395    0.1469 H   0  0  0  0  0  0  0  0  0  0  0  0
    0.2544    2.4082   -0.2206 C   0  0  0  0  0  0  0  0  0  0  0  0
    0.5900    2.1657    0.7973 H   0  0  0  0  0  0  0  0  0  0  0  0
   -0.6004    5.5247   -2.2889 C   0  0  0  0  0  0  0  0  0  0  0  0
   -1.4219    5.6336   -3.0250 H   0  0  0  0  0  0  0  0  0  0  0  0
    0.3147    5.9406   -2.7639 H   0  0  0  0  0  0  0  0  0  0  0  0
   -0.8317    6.1669   -1.4158 H   0  0  0  0  0  0  0  0  0  0  0  0
    3.7538   -0.5164   -1.0801 C   0  0  0  0  0  0  0  0  0  0  0  0
    4.1956   -0.2162   -2.3826 C   0  0  0  0  0  0  0  0  0  0  0  0
    3.7117    0.6030   -2.9388 H   0  0  0  0  0  0  0  0  0  0  0  0
    5.2350   -0.9479   -2.9778 C   0  0  0  0  0  0  0  0  0  0  0  0
    5.5670   -0.6975   -3.9972 H   0  0  0  0  0  0  0  0  0  0  0  0
    5.8467   -1.9955   -2.2734 C   0  0  0  0  0  0  0  0  0  0  0  0
    6.6627   -2.5720   -2.7356 H   0  0  0  0  0  0  0  0  0  0  0  0
    5.4107   -2.3038   -0.9741 C   0  0  0  0  0  0  0  0  0  0  0  0
    5.8843   -3.1263   -0.4161 H   0  0  0  0  0  0  0  0  0  0  0  0
    4.3735   -1.5707   -0.3811 C   0  0  0  0  0  0  0  0  0  0  0  0
    4.0312   -1.8192    0.6324 H   0  0  0  0  0  0  0  0  0  0  0  0
    2.9666    0.8718    0.8927 C   0  0  0  0  0  0  0  0  0  0  0  0
    3.5786    2.1403    0.9621 C   0  0  0  0  0  0  0  0  0  0  0  0
    3.7858    2.6864    0.0284 H   0  0  0  0  0  0  0  0  0  0  0  0
    3.9137    2.7132    2.1969 C   0  0  0  0  0  0  0  0  0  0  0  0
    4.3896    3.7055    2.2277 H   0  0  0  0  0  0  0  0  0  0  0  0
    3.6408    2.0255    3.3913 C   0  0  0  0  0  0  0  0  0  0  0  0
    3.9030    2.4739    4.3619 H   0  0  0  0  0  0  0  0  0  0  0  0
    3.0348    0.7612    3.3336 C   0  0  0  0  0  0  0  0  0  0  0  0
    2.8187    0.2103    4.2627 H   0  0  0  0  0  0  0  0  0  0  0  0
    2.7014    0.1877    2.0963 C   0  0  0  0  0  0  0  0  0  0  0  0
    2.2225   -0.8013    2.0494 H   0  0  0  0  0  0  0  0  0  0  0  0
  1  2  1  0  0  0  0
  2  3  2  0  0  0  0
  4  2  1  0  0  0  0
  4 31  1  0  0  0  0
  5  4  1  0  0  0  0
  6  1  1  0  0  0  0
  6 14  1  0  0  0  0
  7  6  2  0  0  0  0
  8  7  1  0  0  0  0
  9  7  1  0  0  0  0
  9 11  2  0  0  0  0
 10  9  1  0  0  0  0
 11 12  1  0  0  0  0
 12 14  2  0  0  0  0
 12 13  1  0  0  0  0
 14 15  1  0  0  0  0
 16 11  1  0  0  0  0
 16 19  1  0  0  0  0
 17 16  1  0  0  0  0
 18 16  1  0  0  0  0
 20  4  1  0  0  0  0
 20 29  1  0  0  0  0
 21 20  2  0  0  0  0
 22 21  1  0  0  0  0
 23 21  1  0  0  0  0
 23 25  2  0  0  0  0
 24 23  1  0  0  0  0
 25 27  1  0  0  0  0
 26 25  1  0  0  0  0
 27 28  1  0  0  0  0
 27 29  2  0  0  0  0
 29 30  1  0  0  0  0
 31 32  2  0  0  0  0
 31 40  1  0  0  0  0
 32 34  1  0  0  0  0
 33 32  1  0  0  0  0
 34 35  1  0  0  0  0
 34 36  2  0  0  0  0
 36 37  1  0  0  0  0
 38 36  1  0  0  0  0
 38 39  1  0  0  0  0
 40 38  2  0  0  0  0
 41 40  1  0  0  0  0
M  END
