2
q = -1.0

 36 37  0  0  0  0  0  0  0  0999 V2000
   -0.2333   -2.3925   -0.7215 O   0  0  0  0  0  0  0  0  0  0  0  0
   -1.6127   -0.1935   -0.6668 N   0  0  0  0  0  2  0  0  0  0  0  0
    0.5956   -3.5594   -0.7398 C   0  0  0  0  0  0  0  0  0  0  0  0
    0.3256   -4.2407    0.0937 H   0  0  0  0  0  0  0  0  0  0  0  0
    1.6371   -3.2154   -0.6287 H   0  0  0  0  0  0  0  0  0  0  0  0
    0.4857   -4.0882   -1.7085 H   0  0  0  0  0  0  0  0  0  0  0  0
   -1.6055   -2.5805   -0.8916 C   0  0  0  0  0  0  0  0  0  0  0  0
   -2.3360   -1.3632   -0.8695 C   0  0  0  0  0  0  0  0  0  0  0  0
   -3.7322   -1.4394   -1.0734 C   0  0  0  0  0  0  0  0  0  0  0  0
   -4.3146   -0.5070   -1.0784 H   0  0  0  0  0  0  0  0  0  0  0  0
   -4.3607   -2.6800   -1.2625 C   0  0  0  0  0  0  0  0  0  0  0  0
   -5.4502   -2.7135   -1.4133 H   0  0  0  0  0  0  0  0  0  0  0  0
   -3.6180   -3.8684   -1.2591 C   0  0  0  0  0  0  0  0  0  0  0  0
   -4.1119   -4.8401   -1.4030 H   0  0  0  0  0  0  0  0  0  0  0  0
   -2.2216   -3.8193   -1.0756 C   0  0  0  0  0  0  0  0  0  0  0  0
   -1.6361   -4.7479   -1.0830 H   0  0  0  0  0  0  0  0  0  0  0  0
   -2.3288    1.0496   -0.7052 C   0  0  0  0  0  0  0  0  0  0  0  0
   -2.3431    1.8133   -1.8987 C   0  0  0  0  0  0  0  0  0  0  0  0
   -2.9903    3.0635   -1.8932 C   0  0  0  0  0  0  0  0  0  0  0  0
   -2.9982    3.6599   -2.8202 H   0  0  0  0  0  0  0  0  0  0  0  0
   -3.6309    3.5661   -0.7475 C   0  0  0  0  0  0  0  0  0  0  0  0
   -3.6302    2.7684    0.4134 C   0  0  0  0  0  0  0  0  0  0  0  0
   -4.1408    3.1338    1.3196 H   0  0  0  0  0  0  0  0  0  0  0  0
   -2.9951    1.5167    0.4597 C   0  0  0  0  0  0  0  0  0  0  0  0
   -1.6741    1.3022   -3.1494 C   0  0  0  0  0  0  0  0  0  0  0  0
   -1.9964    1.8809   -4.0359 H   0  0  0  0  0  0  0  0  0  0  0  0
   -1.9024    0.2318   -3.3238 H   0  0  0  0  0  0  0  0  0  0  0  0
   -0.5685    1.3827   -3.0861 H   0  0  0  0  0  0  0  0  0  0  0  0
   -4.2928    4.9214   -0.7498 C   0  0  0  0  0  0  0  0  0  0  0  0
   -5.3001    4.8832   -0.2872 H   0  0  0  0  0  0  0  0  0  0  0  0
   -4.4009    5.3227   -1.7762 H   0  0  0  0  0  0  0  0  0  0  0  0
   -3.6998    5.6569   -0.1651 H   0  0  0  0  0  0  0  0  0  0  0  0
   -3.0095    0.6862    1.7138 C   0  0  0  0  0  0  0  0  0  0  0  0
   -3.4600   -0.3121    1.5387 H   0  0  0  0  0  0  0  0  0  0  0  0
   -3.5783    1.1857    2.5202 H   0  0  0  0  0  0  0  0  0  0  0  0
   -1.9863    0.4910    2.0942 H   0  0  0  0  0  0  0  0  0  0  0  0
  3  1  1  0  0  0  0
  3  5  1  0  0  0  0
  3  4  1  0  0  0  0
  6  3  1  0  0  0  0
  7  8  1  0  0  0  0
  7  1  1  0  0  0  0
  8  2  1  0  0  0  0
  9  8  2  0  0  0  0
 10  9  1  0  0  0  0
 11 13  2  0  0  0  0
 11  9  1  0  0  0  0
 12 11  1  0  0  0  0
 13 15  1  0  0  0  0
 14 13  1  0  0  0  0
 15  7  2  0  0  0  0
 16 15  1  0  0  0  0
 17  2  1  0  0  0  0
 17 24  1  0  0  0  0
 18 19  1  0  0  0  0
 18 17  2  0  0  0  0
 19 21  2  0  0  0  0
 20 19  1  0  0  0  0
 21 22  1  0  0  0  0
 22 24  2  0  0  0  0
 22 23  1  0  0  0  0
 24 33  1  0  0  0  0
 25 28  1  0  0  0  0
 25 18  1  0  0  0  0
 26 25  1  0  0  0  0
 27 25  1  0  0  0  0
 29 21  1  0  0  0  0
 29 30  1  0  0  0  0
 29 32  1  0  0  0  0
 31 29  1  0  0  0  0
 33 36  1  0  0  0  0
 33 35  1  0  0  0  0
 34 33  1  0  0  0  0
M  END
