1
q = -1.0, confidence = 0.004

 22 22  0  0  0  0  0  0  0  0999 V2000
   -2.6764    1.6639   -0.4230 N   0  0  0  0  0  0  0  0  0  0  0  0
   -2.2552    1.5699    0.9959 B   0  0  0  0  0  0  0  0  0  0  0  0
   -3.6105    0.6499   -0.7226 C   0  0  0  0  0  0  0  0  0  0  0  0
   -4.0833    0.5900   -1.7091 H   0  0  0  0  0  0  0  0  0  0  0  0
   -3.7884   -0.1775    0.3912 C   0  0  0  0  0  0  0  0  0  0  0  0
   -2.8909    0.2602    1.4455 C   0  0  0  0  0  0  0  0  0  0  0  0
   -4.7424   -1.3298    0.4642 C   0  0  0  0  0  0  0  0  0  0  0  0
   -5.5252   -1.1303    1.2264 H   0  0  0  0  0  0  0  0  0  0  0  0
   -4.2183   -2.2622    0.7554 H   0  0  0  0  0  0  0  0  0  0  0  0
   -5.2436   -1.5068   -0.5069 H   0  0  0  0  0  0  0  0  0  0  0  0
   -2.7847   -0.4516    2.7665 C   0  0  0  0  0  0  0  0  0  0  0  0
   -3.7304   -0.3641    3.3462 H   0  0  0  0  0  0  0  0  0  0  0  0
   -1.9801   -0.0197    3.3944 H   0  0  0  0  0  0  0  0  0  0  0  0
   -2.5729   -1.5344    2.6451 H   0  0  0  0  0  0  0  0  0  0  0  0
   -2.4191    2.7354   -1.3743 C   0  0  0  0  0  0  0  0  0  0  0  0
   -3.2998    3.4081   -1.4451 H   0  0  0  0  0  0  0  0  0  0  0  0
   -2.1910    2.3169   -2.3744 H   0  0  0  0  0  0  0  0  0  0  0  0
   -1.5533    3.3308   -1.0318 H   0  0  0  0  0  0  0  0  0  0  0  0
   -1.3967    2.6652    1.7383 C   0  0  0  0  0  0  0  0  0  0  0  0
   -2.0424    3.5173    2.0445 H   0  0  0  0  0  0  0  0  0  0  0  0
   -0.5816    3.0881    1.1173 H   0  0  0  0  0  0  0  0  0  0  0  0
   -0.9438    2.2623    2.6658 H   0  0  0  0  0  0  0  0  0  0  0  0
  1  2  1  0  0  0  0
  2  6  2  0  0  0  0
  2 19  1  0  0  0  0
  3  1  1  0  0  0  0
  3  5  2  0  0  0  0
  4  3  1  0  0  0  0
  5  7  1  0  0  0  0
  5  6  1  0  0  0  0
  6 11  1  0  0  0  0
  7  9  1  0  0  0  0
  7  8  1  0  0  0  0
 10  7  1  0  0  0  0
 11 12  1  0  0  0  0
 11 13  1  0  0  0  0
 14 11  1  0  0  0  0
 15 18  1  0  0  0  0
 15  1  1  0  0  0  0
 16 15  1  0  0  0  0
 17 15  1  0  0  0  0
 19 20  1  0  0  0  0
 19 22  1  0  0  0  0
 21 19  1  0  0  0  0
M  END
