1
q = -1.0

 26 25  0  0  0  0  0  0  0  0999 V2000
    1.0089    0.8014   -0.4768 N   0  0  0  0  0  2  0  0  0  0  0  0
    2.6795   -0.7292    0.1432 N   0  0  0  0  0  0  0  0  0  0  0  0
    3.2367    1.5229    0.0383 N   0  0  0  0  0  0  0  0  0  0  0  0
    2.3151    0.6024   -0.0998 C   0  0  0  0  0  0  0  0  0  0  0  0
    4.0883   -1.1140    0.0691 C   0  0  0  0  0  0  0  0  0  0  0  0
    4.6054   -1.1439   -1.3761 C   0  0  0  0  0  0  0  0  0  0  0  0
    4.3059   -2.4442    0.7918 C   0  0  0  0  0  0  0  0  0  0  0  0
    2.9042    2.9155   -0.1717 C   0  0  0  0  0  0  0  0  0  0  0  0
    2.9484    3.2739   -1.6690 C   0  0  0  0  0  0  0  0  0  0  0  0
    3.8767    3.7856    0.6333 C   0  0  0  0  0  0  0  0  0  0  0  0
    4.6301   -0.3048    0.6006 H   0  0  0  0  0  0  0  0  0  0  0  0
    4.4395   -0.1563   -1.8494 H   0  0  0  0  0  0  0  0  0  0  0  0
    5.6920   -1.3656   -1.4128 H   0  0  0  0  0  0  0  0  0  0  0  0
    4.0811   -1.9206   -1.9740 H   0  0  0  0  0  0  0  0  0  0  0  0
    5.3756   -2.7335    0.7712 H   0  0  0  0  0  0  0  0  0  0  0  0
    3.9843   -2.3850    1.8509 H   0  0  0  0  0  0  0  0  0  0  0  0
    3.7339   -3.2660    0.3085 H   0  0  0  0  0  0  0  0  0  0  0  0
    1.8683    3.1641    0.1952 H   0  0  0  0  0  0  0  0  0  0  0  0
    3.9653    3.0822   -2.0700 H   0  0  0  0  0  0  0  0  0  0  0  0
    2.2356    2.6484   -2.2443 H   0  0  0  0  0  0  0  0  0  0  0  0
    2.6967    4.3405   -1.8446 H   0  0  0  0  0  0  0  0  0  0  0  0
    3.6667    4.8668    0.4994 H   0  0  0  0  0  0  0  0  0  0  0  0
    3.8110    3.5445    1.7134 H   0  0  0  0  0  0  0  0  0  0  0  0
    4.9182    3.5823    0.3092 H   0  0  0  0  0  0  0  0  0  0  0  0
    0.7944    1.8034   -0.4584 H   0  0  0  0  0  0  0  0  0  0  0  0
    2.0153   -1.3919   -0.2657 H   0  0  0  0  0  0  0  0  0  0  0  0
  1 25  1  0  0  0  0
  1  4  1  0  0  0  0
  4  3  2  0  0  0  0
  4  2  1  0  0  0  0
  5  2  1  0  0  0  0
  5 11  1  0  0  0  0
  5  7  1  0  0  0  0
  6  5  1  0  0  0  0
  7 16  1  0  0  0  0
  8  3  1  0  0  0  0
  8 18  1  0  0  0  0
  8 10  1  0  0  0  0
  9  8  1  0  0  0  0
 10 23  1  0  0  0  0
 12  6  1  0  0  0  0
 13  6  1  0  0  0  0
 14  6  1  0  0  0  0
 15  7  1  0  0  0  0
 17  7  1  0  0  0  0
 19  9  1  0  0  0  0
 20  9  1  0  0  0  0
 21  9  1  0  0  0  0
 22 10  1  0  0  0  0
 24 10  1  0  0  0  0
 26  2  1  0  0  0  0
M  END
