4
q = 0.0, confidence = 0.996

 13 14  0  0  1  0  0  0  0  0999 V2000
   -3.6121   -0.3200   -1.1325 N   0  0  0  0  0  0  0  0  0  0  0  0
   -2.3246    1.5549   -0.3325 N   0  0  0  0  0  0  0  0  0  0  0  0
   -3.4201   -1.6158   -1.4670 N   0  0  0  0  0  0  0  0  0  0  0  0
   -1.4578   -0.6741   -0.7739 N   0  0  0  0  0  2  0  0  0  0  0  0
   -2.4080    0.2747   -0.7145 C   0  0  1  0  0  3  0  0  0  0  0  0
   -4.7823    0.3758   -1.1194 C   0  0  0  0  0  0  0  0  0  0  0  0
   -5.6825   -0.1654   -1.4415 H   0  0  0  0  0  0  0  0  0  0  0  0
   -2.1137   -1.7781   -1.2265 C   0  0  0  0  0  0  0  0  0  0  0  0
   -1.6007   -2.7407   -1.3538 H   0  0  0  0  0  0  0  0  0  0  0  0
   -4.7230    1.6890   -0.6920 C   0  0  0  0  0  0  0  0  0  0  0  0
   -5.6367    2.2955   -0.6471 H   0  0  0  0  0  0  0  0  0  0  0  0
   -3.4653    2.2367   -0.3101 C   0  0  0  0  0  0  0  0  0  0  0  0
   -3.4070    3.2859    0.0245 H   0  0  0  0  0  0  0  0  0  0  0  0
  1  6  1  0  0  0  0
  1  5  1  0  0  0  0
  2 12  2  0  0  0  0
  3  8  2  0  0  0  0
  3  1  1  0  0  0  0
  5  4  1  1  0  0  0
  5  2  1  0  0  0  0
  6 10  2  0  0  0  0
  7  6  1  0  0  0  0
  8  4  1  0  0  0  0
  9  8  1  0  0  0  0
 10 11  1  0  0  0  0
 10 12  1  0  0  0  0
 12 13  1  0  0  0  0
M  END
