10
q = -2.0, confidence = 0.846

 26 25  0  0  1  0  0  0  0  0999 V2000
   -0.1746    0.7725   -0.8654 S   0  0  0  0  0  0  0  0  0  0  0  0
    0.3389   -2.0725    0.4210 S   0  0  0  0  0  0  0  0  0  0  0  0
   -2.0786    1.8276    1.0300 S   0  0  0  0  0  0  0  0  0  0  0  0
    3.7715    0.8212   -0.8073 O   0  0  0  0  0  0  0  0  0  0  0  0
    2.1471    2.3167   -1.3621 O   0  0  0  0  0  0  0  0  0  0  0  0
    3.5743   -2.4026   -0.1059 O   0  0  0  0  0  0  0  0  0  0  0  0
    3.4709   -0.8325    1.5414 O   0  0  0  0  0  0  0  0  0  0  0  0
   -2.7072    2.3570   -0.2095 O   0  0  0  0  0  0  0  0  0  0  0  0
   -2.9295    1.3205    2.1293 O   0  0  0  0  0  0  0  0  0  0  0  0
   -0.9081    0.6028    0.7261 N   0  0  0  0  0  2  0  0  0  0  0  0
    1.4655    0.2311   -0.5345 C   0  0  2  0  0  3  0  0  0  0  0  0
    1.6252   -1.0021    0.0894 C   0  0  0  0  0  0  0  0  0  0  0  0
    2.5872    1.1100   -0.8971 C   0  0  0  0  0  0  0  0  0  0  0  0
    3.1749    3.2144   -1.7913 C   0  0  0  0  0  0  0  0  0  0  0  0
    3.0060   -1.4983    0.4693 C   0  0  0  0  0  0  0  0  0  0  0  0
    4.8326   -1.1194    1.8877 C   0  0  0  0  0  0  0  0  0  0  0  0
   -1.0006    3.1163    1.6848 C   0  0  0  0  0  0  0  0  0  0  0  0
    3.7892    2.7598   -2.5948 H   0  0  0  0  0  0  0  0  0  0  0  0
    3.8478    3.4763   -0.9496 H   0  0  0  0  0  0  0  0  0  0  0  0
    2.6573    4.1159   -2.1648 H   0  0  0  0  0  0  0  0  0  0  0  0
    4.9929   -2.2095    2.0043 H   0  0  0  0  0  0  0  0  0  0  0  0
    5.5040   -0.7394    1.0914 H   0  0  0  0  0  0  0  0  0  0  0  0
    5.0252   -0.5914    2.8382 H   0  0  0  0  0  0  0  0  0  0  0  0
   -0.2652    3.3852    0.9039 H   0  0  0  0  0  0  0  0  0  0  0  0
   -0.5043    2.7224    2.5888 H   0  0  0  0  0  0  0  0  0  0  0  0
   -1.6548    3.9751    1.9239 H   0  0  0  0  0  0  0  0  0  0  0  0
  1 11  1  0  0  0  0
  1 10  1  0  0  0  0
  3 17  1  0  0  0  0
  3  9  2  0  0  0  0
  5 13  1  0  0  0  0
  6 15  2  0  0  0  0
  7 16  1  0  0  0  0
  8  3  2  0  0  0  0
 10  3  1  0  0  0  0
 11 13  1  1  0  0  0
 11 12  1  0  0  0  0
 12  2  2  0  0  0  0
 12 15  1  0  0  0  0
 13  4  2  0  0  0  0
 14  5  1  0  0  0  0
 14 19  1  0  0  0  0
 15  7  1  0  0  0  0
 16 21  1  0  0  0  0
 16 23  1  0  0  0  0
 17 26  1  0  0  0  0
 17 25  1  0  0  0  0
 18 14  1  0  0  0  0
 20 14  1  0  0  0  0
 22 16  1  0  0  0  0
 24 17  1  0  0  0  0
M  END
