1
q = 0.0, confidence = 0.992

 31 33  0  0  1  0  0  0  0  0999 V2000
   -0.0001    1.2768    0.0000 N   0  0  0  0  0  2  0  0  0  0  0  0
   -1.1890    1.9386    0.0594 C   0  0  1  0  0  3  0  0  0  0  0  0
   -2.4547    1.1706    0.1581 C   0  0  0  0  0  0  0  0  0  0  0  0
   -3.8772   -0.4515    1.2861 C   0  0  0  0  0  0  0  0  0  0  0  0
   -4.0385   -1.1595    2.1124 H   0  0  0  0  0  0  0  0  0  0  0  0
   -1.2048    3.3451    0.0419 C   0  0  0  0  0  0  0  0  0  0  0  0
   -2.1740    3.8587    0.0965 H   0  0  0  0  0  0  0  0  0  0  0  0
   -3.4580    1.3648   -0.8136 C   0  0  0  0  0  0  0  0  0  0  0  0
   -3.2774    2.0566   -1.6498 H   0  0  0  0  0  0  0  0  0  0  0  0
   -0.0001    4.0532   -0.0001 C   0  0  0  0  0  0  0  0  0  0  0  0
   -0.0001    5.1535   -0.0002 H   0  0  0  0  0  0  0  0  0  0  0  0
   -2.6731    0.2626    1.2178 C   0  0  0  0  0  0  0  0  0  0  0  0
   -1.9010    0.1187    1.9894 H   0  0  0  0  0  0  0  0  0  0  0  0
   -4.6556    0.6419   -0.7408 C   0  0  0  0  0  0  0  0  0  0  0  0
   -5.4241    0.7805   -1.5158 H   0  0  0  0  0  0  0  0  0  0  0  0
   -4.8658   -0.2687    0.3070 C   0  0  0  0  0  0  0  0  0  0  0  0
   -5.8045   -0.8406    0.3587 H   0  0  0  0  0  0  0  0  0  0  0  0
    1.1888    1.9386   -0.0594 C   0  0  0  0  0  0  0  0  0  0  0  0
    2.4546    1.1707   -0.1579 C   0  0  0  0  0  0  0  0  0  0  0  0
    3.8774   -0.4512   -1.2861 C   0  0  0  0  0  0  0  0  0  0  0  0
    4.0389   -1.1590   -2.1124 H   0  0  0  0  0  0  0  0  0  0  0  0
    1.2046    3.3451   -0.0421 C   0  0  0  0  0  0  0  0  0  0  0  0
    2.1738    3.8588   -0.0967 H   0  0  0  0  0  0  0  0  0  0  0  0
    3.4577    1.3648    0.8139 C   0  0  0  0  0  0  0  0  0  0  0  0
    3.2769    2.0565    1.6502 H   0  0  0  0  0  0  0  0  0  0  0  0
    2.6732    0.2628   -1.2178 C   0  0  0  0  0  0  0  0  0  0  0  0
    1.9012    0.1190   -1.9895 H   0  0  0  0  0  0  0  0  0  0  0  0
    4.6554    0.6419    0.7412 C   0  0  0  0  0  0  0  0  0  0  0  0
    5.4237    0.7804    1.5164 H   0  0  0  0  0  0  0  0  0  0  0  0
    4.8658   -0.2685   -0.3067 C   0  0  0  0  0  0  0  0  0  0  0  0
    5.8046   -0.8403   -0.3584 H   0  0  0  0  0  0  0  0  0  0  0  0
  1  2  1  0  0  0  0
  2  3  1  1  0  0  0
  3 12  1  0  0  0  0
  4  5  1  0  0  0  0
  6  2  1  0  0  0  0
  6  7  1  0  0  0  0
  8 14  1  0  0  0  0
  8  3  2  0  0  0  0
  9  8  1  0  0  0  0
 10  6  2  0  0  0  0
 11 10  1  0  0  0  0
 12  4  2  0  0  0  0
 12 13  1  0  0  0  0
 14 16  2  0  0  0  0
 15 14  1  0  0  0  0
 16 17  1  0  0  0  0
 16  4  1  0  0  0  0
 18 22  2  0  0  0  0
 18  1  1  0  0  0  0
 19 18  1  0  0  0  0
 19 24  1  0  0  0  0
 20 26  1  0  0  0  0
 20 30  2  0  0  0  0
 21 20  1  0  0  0  0
 22 10  1  0  0  0  0
 23 22  1  0  0  0  0
 24 25  1  0  0  0  0
 26 19  2  0  0  0  0
 27 26  1  0  0  0  0
 28 24  2  0  0  0  0
 28 29  1  0  0  0  0
 30 28  1  0  0  0  0
 31 30  1  0  0  0  0
M  END
