4
q = 0.0, confidence = 0.994

 19 19  0  0  1  0  0  0  0  0999 V2000
    6.5311   -0.8092   -1.0614 O   0  0  0  0  0  0  0  0  0  0  0  0
    6.1953    1.0172    0.3932 O   0  0  0  0  0  0  0  0  0  0  0  0
    5.3986    1.4555   -0.0198 H   0  0  0  0  0  0  0  0  0  0  0  0
    1.8630   -0.7136    0.4641 N   0  0  0  0  0  2  0  0  0  0  0  0
    2.4899   -1.1388   -0.6559 C   0  0  0  0  0  3  0  0  0  0  0  0
    1.8437   -1.3793   -1.5126 H   0  0  0  0  0  0  0  0  0  0  0  0
    3.8814   -1.1850   -0.7418 C   0  0  0  0  0  0  0  0  0  0  0  0
    4.3804   -1.4513   -1.6822 H   0  0  0  0  0  0  0  0  0  0  0  0
    4.6446   -0.7670    0.3587 C   0  0  0  0  0  0  0  0  0  0  0  0
    3.9795   -0.4866    1.5650 C   0  0  0  0  0  0  0  0  0  0  0  0
    4.5394   -0.1798    2.4598 H   0  0  0  0  0  0  0  0  0  0  0  0
    2.5877   -0.4616    1.5810 C   0  0  0  0  0  0  0  0  0  0  0  0
    2.0205   -0.1595    2.4728 H   0  0  0  0  0  0  0  0  0  0  0  0
    6.1008   -0.3650    0.2041 C   0  0  1  0  0  0  0  0  0  0  0  0
    6.7366   -0.8286    1.0013 H   0  0  0  0  0  0  0  0  0  0  0  0
    7.8927   -0.5194   -1.3234 C   0  0  0  0  0  0  0  0  0  0  0  0
    8.0968    0.5703   -1.2515 H   0  0  0  0  0  0  0  0  0  0  0  0
    8.1116   -0.8695   -2.3497 H   0  0  0  0  0  0  0  0  0  0  0  0
    8.5677   -1.0503   -0.6097 H   0  0  0  0  0  0  0  0  0  0  0  0
  1 14  1  0  0  0  0
  3  2  1  0  0  0  0
  4 12  1  0  0  0  0
  5  4  1  0  0  0  0
  6  5  1  0  0  0  0
  7  5  1  0  0  0  0
  7  9  2  0  0  0  0
  8  7  1  0  0  0  0
  9 10  1  0  0  0  0
 10 12  2  0  0  0  0
 10 11  1  0  0  0  0
 12 13  1  0  0  0  0
 14  9  1  0  0  0  0
 14  2  1  0  0  0  0
 14 15  1  1  0  0  0
 16 17  1  0  0  0  0
 16  1  1  0  0  0  0
 16 19  1  0  0  0  0
 18 16  1  0  0  0  0
M  END
