3
q = -1.0, confidence = 0.0

 16 16  0  0  0  0  0  0  0  0999 V2000
    1.1524   -1.7510    0.0002 S   0  0  0  0  0  0  0  0  0  0  0  0
    2.5213    0.5430    0.0002 N   0  0  0  0  0  0  0  0  0  0  0  0
    1.2577    1.0866    0.0005 N   0  0  0  0  0  2  0  0  0  0  0  0
    1.2153    2.5373    0.0006 C   0  0  0  0  0  0  0  0  0  0  0  0
    0.1554    2.8346    0.0017 H   0  0  0  0  0  0  0  0  0  0  0  0
    1.6937    2.9734   -0.9046 H   0  0  0  0  0  0  0  0  0  0  0  0
    1.6953    2.9732    0.9050 H   0  0  0  0  0  0  0  0  0  0  0  0
    2.6192   -0.8430    0.0002 C   0  0  0  0  0  0  0  0  0  0  0  0
    3.8938   -1.4466    0.0003 C   0  0  0  0  0  0  0  0  0  0  0  0
    3.9309   -2.5450    0.0005 H   0  0  0  0  0  0  0  0  0  0  0  0
    5.0500   -0.6767    0.0001 C   0  0  0  0  0  0  0  0  0  0  0  0
    6.0404   -1.1525    0.0001 H   0  0  0  0  0  0  0  0  0  0  0  0
    4.9219    0.7291   -0.0003 C   0  0  0  0  0  0  0  0  0  0  0  0
    5.8023    1.3860   -0.0007 H   0  0  0  0  0  0  0  0  0  0  0  0
    3.6696    1.3138   -0.0003 C   0  0  0  0  0  0  0  0  0  0  0  0
    3.5362    2.3983   -0.0007 H   0  0  0  0  0  0  0  0  0  0  0  0
  1  8  2  0  0  0  0
  2  8  1  0  0  0  0
  2  3  1  0  0  0  0
  3  4  1  0  0  0  0
  4  5  1  0  0  0  0
  4  7  1  0  0  0  0
  6  4  1  0  0  0  0
  8  9  1  0  0  0  0
  9 10  1  0  0  0  0
 11 12  1  0  0  0  0
 11  9  2  0  0  0  0
 13 15  2  0  0  0  0
 13 11  1  0  0  0  0
 14 13  1  0  0  0  0
 15  2  1  0  0  0  0
 16 15  1  0  0  0  0
M  END
