1
q = 0.0, confidence = 0.758

 23 22  0  0  0  0  0  0  0  0999 V2000
   -0.7892   -1.7760    1.1324 N   0  0  0  0  0  2  0  0  0  0  0  0
   -0.2379   -0.7629    1.9526 C   0  0  0  0  0  3  0  0  0  0  0  0
   -1.1749    0.1325    2.7440 C   0  0  0  0  0  0  0  0  0  0  0  0
    1.0510   -1.0858    2.7015 C   0  0  0  0  0  0  0  0  0  0  0  0
   -1.8162   -2.7712    1.4776 C   0  0  0  0  0  0  0  0  0  0  0  0
   -1.7368   -3.9329    0.4717 C   0  0  0  0  0  0  0  0  0  0  0  0
   -3.2303   -2.1511    1.4045 C   0  0  0  0  0  0  0  0  0  0  0  0
   -1.5555   -3.3321    2.8897 C   0  0  0  0  0  0  0  0  0  0  0  0
   -1.6192   -0.3917    3.6242 H   0  0  0  0  0  0  0  0  0  0  0  0
   -2.0181    0.5095    2.1309 H   0  0  0  0  0  0  0  0  0  0  0  0
   -0.6307    1.0057    3.1635 H   0  0  0  0  0  0  0  0  0  0  0  0
    0.8547   -1.6139    3.6672 H   0  0  0  0  0  0  0  0  0  0  0  0
    1.6198   -0.1636    2.9460 H   0  0  0  0  0  0  0  0  0  0  0  0
    1.7122   -1.7400    2.0988 H   0  0  0  0  0  0  0  0  0  0  0  0
   -0.7568   -4.4450    0.5418 H   0  0  0  0  0  0  0  0  0  0  0  0
   -1.8702   -3.5659   -0.5638 H   0  0  0  0  0  0  0  0  0  0  0  0
   -2.5306   -4.6811    0.6710 H   0  0  0  0  0  0  0  0  0  0  0  0
   -3.3523   -1.3346    2.1401 H   0  0  0  0  0  0  0  0  0  0  0  0
   -4.0077   -2.9160    1.6122 H   0  0  0  0  0  0  0  0  0  0  0  0
   -3.4145   -1.7311    0.3959 H   0  0  0  0  0  0  0  0  0  0  0  0
   -0.5398   -3.7714    2.9509 H   0  0  0  0  0  0  0  0  0  0  0  0
   -2.2932   -4.1231    3.1367 H   0  0  0  0  0  0  0  0  0  0  0  0
   -1.6336   -2.5421    3.6611 H   0  0  0  0  0  0  0  0  0  0  0  0
  1  5  1  0  0  0  0
  1  2  1  0  0  0  0
  2  4  1  0  0  0  0
  2  3  1  0  0  0  0
  3 11  1  0  0  0  0
  3  9  1  0  0  0  0
  4 13  1  0  0  0  0
  4 12  1  0  0  0  0
  5  8  1  0  0  0  0
  6 15  1  0  0  0  0
  6 17  1  0  0  0  0
  6  5  1  0  0  0  0
  7  5  1  0  0  0  0
  7 19  1  0  0  0  0
  7 18  1  0  0  0  0
  8 21  1  0  0  0  0
  8 22  1  0  0  0  0
  8 23  1  0  0  0  0
 10  3  1  0  0  0  0
 14  4  1  0  0  0  0
 16  6  1  0  0  0  0
 20  7  1  0  0  0  0
M  END
