4
q = 0.0, confidence = 1.0

 30 29  0  0  1  0  0  0  0  0999 V2000
    3.9220   -1.6087   -0.5185 O   0  0  0  0  0  0  0  0  0  0  0  0
    5.4074    1.0986    2.4728 O   0  0  0  0  0  0  0  0  0  0  0  0
    5.8982    0.6697    3.1980 H   0  0  0  0  0  0  0  0  0  0  0  0
    1.8758   -0.5057   -0.5325 N   0  0  0  0  0  2  0  0  0  0  0  0
    2.3398    0.0359   -1.2824 H   0  0  0  0  0  0  0  0  0  0  0  0
    4.3434   -0.6189   -1.4859 N   0  0  0  0  0  0  0  0  0  0  0  0
    4.5660   -1.1946   -2.3143 H   0  0  0  0  0  0  0  0  0  0  0  0
    5.8174    0.3557    1.3667 N   0  0  0  0  0  0  0  0  0  0  0  0
    2.6680   -1.3947   -0.0357 C   0  0  2  0  0  3  0  0  0  0  0  0
    2.3694   -2.2538    1.1519 C   0  0  0  0  0  0  0  0  0  0  0  0
    3.1272   -3.0610    1.1860 H   0  0  0  0  0  0  0  0  0  0  0  0
    1.3676   -2.7040    0.9898 H   0  0  0  0  0  0  0  0  0  0  0  0
    2.3844   -1.4206    2.4453 C   0  0  0  0  0  0  0  0  0  0  0  0
    3.3486   -0.8900    2.5806 H   0  0  0  0  0  0  0  0  0  0  0  0
    2.2153   -2.0758    3.3224 H   0  0  0  0  0  0  0  0  0  0  0  0
    1.5774   -0.6601    2.4129 H   0  0  0  0  0  0  0  0  0  0  0  0
    5.6184   -0.0197   -0.9875 C   0  0  0  0  0  0  0  0  0  0  0  0
    6.0787    0.9243   -2.1130 C   0  0  0  0  0  0  0  0  0  0  0  0
    6.3032    0.3489   -3.0352 H   0  0  0  0  0  0  0  0  0  0  0  0
    7.0063    1.4439   -1.8053 H   0  0  0  0  0  0  0  0  0  0  0  0
    5.3106    1.6821   -2.3558 H   0  0  0  0  0  0  0  0  0  0  0  0
    6.6890   -1.0896   -0.7252 C   0  0  0  0  0  0  0  0  0  0  0  0
    6.3522   -1.8060    0.0441 H   0  0  0  0  0  0  0  0  0  0  0  0
    7.6249   -0.6246   -0.3639 H   0  0  0  0  0  0  0  0  0  0  0  0
    6.9067   -1.6378   -1.6657 H   0  0  0  0  0  0  0  0  0  0  0  0
    5.2591    0.7691    0.2758 C   0  0  0  0  0  0  0  0  0  0  0  0
    4.2884    1.9100    0.2303 C   0  0  0  0  0  0  0  0  0  0  0  0
    3.3894    1.7042    0.8482 H   0  0  0  0  0  0  0  0  0  0  0  0
    3.9322    2.1280   -0.7911 H   0  0  0  0  0  0  0  0  0  0  0  0
    4.7530    2.8214    0.6604 H   0  0  0  0  0  0  0  0  0  0  0  0
  1  9  1  0  0  0  0
  2  3  1  0  0  0  0
  5  4  1  0  0  0  0
  6 17  1  0  0  0  0
  6  1  1  0  0  0  0
  7  6  1  0  0  0  0
  8  2  1  0  0  0  0
  9  4  1  1  0  0  0
  9 10  1  0  0  0  0
 10 11  1  0  0  0  0
 10 13  1  0  0  0  0
 12 10  1  0  0  0  0
 13 14  1  0  0  0  0
 13 15  1  0  0  0  0
 16 13  1  0  0  0  0
 17 22  1  0  0  0  0
 17 26  1  0  0  0  0
 18 20  1  0  0  0  0
 18 17  1  0  0  0  0
 19 18  1  0  0  0  0
 21 18  1  0  0  0  0
 22 24  1  0  0  0  0
 22 23  1  0  0  0  0
 25 22  1  0  0  0  0
 26  8  2  0  0  0  0
 27 26  1  0  0  0  0
 27 30  1  0  0  0  0
 27 28  1  0  0  0  0
 29 27  1  0  0  0  0
M  END
