2
q = -1.0

 39 40  0  0  0  0  0  0  0  0999 V2000
   -2.7768   -0.0107   -2.2637 N   0  0  0  0  0  0  0  0  0  0  0  0
   -1.5216   -0.4800    0.3179 N   0  0  0  0  0  2  0  0  0  0  0  0
    0.7431   -0.6706    2.0172 N   0  0  0  0  0  0  0  0  0  0  0  0
   -3.2822    0.5939   -1.0743 C   0  0  0  0  0  0  0  0  0  0  0  0
   -4.3618    1.5011   -1.1194 C   0  0  0  0  0  0  0  0  0  0  0  0
   -4.7744    1.7959   -2.0948 H   0  0  0  0  0  0  0  0  0  0  0  0
   -4.9543    2.0046    0.0488 C   0  0  0  0  0  0  0  0  0  0  0  0
   -5.7917    2.7147   -0.0205 H   0  0  0  0  0  0  0  0  0  0  0  0
   -4.4924    1.5555    1.2971 C   0  0  0  0  0  0  0  0  0  0  0  0
   -4.9631    1.9114    2.2266 H   0  0  0  0  0  0  0  0  0  0  0  0
   -3.4020    0.6845    1.3612 C   0  0  0  0  0  0  0  0  0  0  0  0
   -3.0058    0.3719    2.3392 H   0  0  0  0  0  0  0  0  0  0  0  0
   -2.7189    0.2286    0.1996 C   0  0  0  0  0  0  0  0  0  0  0  0
   -1.4602   -1.4724    1.2997 C   0  0  0  0  0  0  0  0  0  0  0  0
   -2.5266   -2.3950    1.4831 C   0  0  0  0  0  0  0  0  0  0  0  0
   -3.4574   -2.2345    0.9178 H   0  0  0  0  0  0  0  0  0  0  0  0
   -2.4014   -3.5103    2.3180 C   0  0  0  0  0  0  0  0  0  0  0  0
   -3.2423   -4.2157    2.4070 H   0  0  0  0  0  0  0  0  0  0  0  0
   -1.2033   -3.7469    3.0124 C   0  0  0  0  0  0  0  0  0  0  0  0
   -1.0884   -4.6337    3.6528 H   0  0  0  0  0  0  0  0  0  0  0  0
   -0.1589   -2.8154    2.8987 C   0  0  0  0  0  0  0  0  0  0  0  0
    0.7643   -2.9637    3.4779 H   0  0  0  0  0  0  0  0  0  0  0  0
   -0.2758   -1.6803    2.0769 C   0  0  0  0  0  0  0  0  0  0  0  0
   -3.0289    0.6752   -3.5165 C   0  0  0  0  0  0  0  0  0  0  0  0
   -4.0953    0.6247   -3.8563 H   0  0  0  0  0  0  0  0  0  0  0  0
   -2.4095    0.2138   -4.3142 H   0  0  0  0  0  0  0  0  0  0  0  0
   -2.7467    1.7433   -3.4354 H   0  0  0  0  0  0  0  0  0  0  0  0
   -3.1207   -1.4297   -2.3457 C   0  0  0  0  0  0  0  0  0  0  0  0
   -2.8967   -1.9241   -1.3832 H   0  0  0  0  0  0  0  0  0  0  0  0
   -2.5263   -1.9263   -3.1409 H   0  0  0  0  0  0  0  0  0  0  0  0
   -4.2047   -1.5826   -2.5737 H   0  0  0  0  0  0  0  0  0  0  0  0
    0.4107    0.4794    2.8618 C   0  0  0  0  0  0  0  0  0  0  0  0
   -0.6165    0.8191    2.6347 H   0  0  0  0  0  0  0  0  0  0  0  0
    1.1137    1.3126    2.6629 H   0  0  0  0  0  0  0  0  0  0  0  0
    0.4587    0.2238    3.9500 H   0  0  0  0  0  0  0  0  0  0  0  0
    2.1106   -1.1164    2.2411 C   0  0  0  0  0  0  0  0  0  0  0  0
    2.3134   -1.4088    3.3020 H   0  0  0  0  0  0  0  0  0  0  0  0
    2.8041   -0.2910    1.9858 H   0  0  0  0  0  0  0  0  0  0  0  0
    2.3423   -1.9763    1.5846 H   0  0  0  0  0  0  0  0  0  0  0  0
  1  4  1  0  0  0  0
  2 14  1  0  0  0  0
  3 23  1  0  0  0  0
  3 36  1  0  0  0  0
  3 32  1  0  0  0  0
  4 13  1  0  0  0  0
  5  4  2  0  0  0  0
  5  7  1  0  0  0  0
  6  5  1  0  0  0  0
  7  9  2  0  0  0  0
  8  7  1  0  0  0  0
  9 11  1  0  0  0  0
  9 10  1  0  0  0  0
 11 12  1  0  0  0  0
 13  2  1  0  0  0  0
 13 11  2  0  0  0  0
 14 15  2  0  0  0  0
 14 23  1  0  0  0  0
 15 17  1  0  0  0  0
 16 15  1  0  0  0  0
 17 18  1  0  0  0  0
 17 19  2  0  0  0  0
 19 20  1  0  0  0  0
 21 19  1  0  0  0  0
 21 22  1  0  0  0  0
 23 21  2  0  0  0  0
 24 27  1  0  0  0  0
 24  1  1  0  0  0  0
 25 24  1  0  0  0  0
 26 24  1  0  0  0  0
 28  1  1  0  0  0  0
 28 29  1  0  0  0  0
 30 28  1  0  0  0  0
 31 28  1  0  0  0  0
 32 35  1  0  0  0  0
 33 32  1  0  0  0  0
 34 32  1  0  0  0  0
 36 37  1  0  0  0  0
 38 36  1  0  0  0  0
 39 36  1  0  0  0  0
M  END
