1
q = -1.0, confidence = 0.002

 20 19  0  0  0  0  0  0  0  0999 V2000
   -1.5593    0.8030   -0.0232 N   0  0  0  0  0  2  0  0  0  0  0  0
   -2.1975   -0.3576   -0.5440 N   0  0  0  0  0  0  0  0  0  0  0  0
   -2.2974    1.7541    0.8028 C   0  0  0  0  0  0  0  0  0  0  0  0
   -2.6947    1.1931    1.6851 H   0  0  0  0  0  0  0  0  0  0  0  0
   -1.3210    2.8019    1.3343 C   0  0  0  0  0  0  0  0  0  0  0  0
   -0.4667    2.3165    1.8429 H   0  0  0  0  0  0  0  0  0  0  0  0
   -1.8350    3.4598    2.0620 H   0  0  0  0  0  0  0  0  0  0  0  0
   -0.9343    3.4306    0.5087 H   0  0  0  0  0  0  0  0  0  0  0  0
   -3.4669    2.3982    0.0485 C   0  0  0  0  0  0  0  0  0  0  0  0
   -4.2315    1.6564   -0.2542 H   0  0  0  0  0  0  0  0  0  0  0  0
   -3.1048    2.9142   -0.8638 H   0  0  0  0  0  0  0  0  0  0  0  0
   -3.9694    3.1453    0.6950 H   0  0  0  0  0  0  0  0  0  0  0  0
   -2.7344   -0.2405   -1.9100 C   0  0  0  0  0  0  0  0  0  0  0  0
   -3.7552    0.1968   -1.8940 H   0  0  0  0  0  0  0  0  0  0  0  0
   -2.7736   -1.2500   -2.3626 H   0  0  0  0  0  0  0  0  0  0  0  0
   -2.0564    0.3864   -2.5124 H   0  0  0  0  0  0  0  0  0  0  0  0
   -3.1022   -1.1129    0.3455 C   0  0  0  0  0  0  0  0  0  0  0  0
   -4.1170   -0.6597    0.3654 H   0  0  0  0  0  0  0  0  0  0  0  0
   -2.6797   -1.1475    1.3655 H   0  0  0  0  0  0  0  0  0  0  0  0
   -3.1687   -2.1477   -0.0399 H   0  0  0  0  0  0  0  0  0  0  0  0
  1  3  1  0  0  0  0
  2  1  1  0  0  0  0
  2 17  1  0  0  0  0
  3  5  1  0  0  0  0
  3  4  1  0  0  0  0
  5  6  1  0  0  0  0
  5  7  1  0  0  0  0
  8  5  1  0  0  0  0
  9 12  1  0  0  0  0
  9  3  1  0  0  0  0
 10  9  1  0  0  0  0
 11  9  1  0  0  0  0
 13 14  1  0  0  0  0
 13  2  1  0  0  0  0
 15 13  1  0  0  0  0
 16 13  1  0  0  0  0
 17 18  1  0  0  0  0
 17 19  1  0  0  0  0
 20 17  1  0  0  0  0
M  END
