2
q = 0.0, confidence = 0.998

 25 26  0  0  0  0  0  0  0  0999 V2000
    2.9031    0.5218   -1.3764 S   0  0  0  0  0  0  0  0  0  0  0  0
    0.0575    1.1432   -0.8765 N   0  0  0  0  0  2  0  0  0  0  0  0
    0.8372    2.1863   -1.3471 N   0  0  0  0  0  0  0  0  0  0  0  0
    0.3415    3.0509   -1.5957 H   0  0  0  0  0  0  0  0  0  0  0  0
   -3.6344   -1.2993   -0.6965 N   0  0  0  0  0  0  0  0  0  0  0  0
   -3.9814   -2.2181   -0.9758 H   0  0  0  0  0  0  0  0  0  0  0  0
    2.8099    3.0614   -2.2030 N   0  0  0  0  0  0  0  0  0  0  0  0
    3.7810    2.9232   -2.4835 H   0  0  0  0  0  0  0  0  0  0  0  0
    2.3458    3.9126   -2.5215 H   0  0  0  0  0  0  0  0  0  0  0  0
   -1.2293    1.4236   -0.7933 C   0  0  0  0  0  3  0  0  0  0  0  0
   -1.5178    2.4872   -0.9358 H   0  0  0  0  0  0  0  0  0  0  0  0
   -2.3041    0.5132   -0.5660 C   0  0  0  0  0  0  0  0  0  0  0  0
   -3.5920    0.8527    0.0250 C   0  0  0  0  0  0  0  0  0  0  0  0
   -4.4016   -0.3193   -0.0660 C   0  0  0  0  0  0  0  0  0  0  0  0
   -2.3978   -0.8212   -1.0033 C   0  0  0  0  0  0  0  0  0  0  0  0
   -1.6507   -1.3983   -1.5703 H   0  0  0  0  0  0  0  0  0  0  0  0
   -4.1235    2.0057    0.6367 C   0  0  0  0  0  0  0  0  0  0  0  0
   -3.5224    2.9218    0.7415 H   0  0  0  0  0  0  0  0  0  0  0  0
   -5.4381    1.9658    1.1156 C   0  0  0  0  0  0  0  0  0  0  0  0
   -5.8704    2.8602    1.5876 H   0  0  0  0  0  0  0  0  0  0  0  0
   -6.2237    0.7941    1.0095 C   0  0  0  0  0  0  0  0  0  0  0  0
   -7.2519    0.7960    1.3996 H   0  0  0  0  0  0  0  0  0  0  0  0
   -5.7163   -0.3700    0.4199 C   0  0  0  0  0  0  0  0  0  0  0  0
   -6.3254   -1.2823    0.3412 H   0  0  0  0  0  0  0  0  0  0  0  0
    2.1414    2.0166   -1.6688 C   0  0  0  0  0  0  0  0  0  0  0  0
  2 10  1  0  0  0  0
  3  2  1  0  0  0  0
  4  3  1  0  0  0  0
  5 14  1  0  0  0  0
  6  5  1  0  0  0  0
  7 25  1  0  0  0  0
  8  7  1  0  0  0  0
  9  7  1  0  0  0  0
 10 12  1  0  0  0  0
 11 10  1  0  0  0  0
 12 13  1  0  0  0  0
 13 17  1  0  0  0  0
 14 13  2  0  0  0  0
 14 23  1  0  0  0  0
 15  5  1  0  0  0  0
 15 12  2  0  0  0  0
 16 15  1  0  0  0  0
 17 18  1  0  0  0  0
 17 19  2  0  0  0  0
 19 20  1  0  0  0  0
 21 19  1  0  0  0  0
 21 22  1  0  0  0  0
 23 21  2  0  0  0  0
 24 23  1  0  0  0  0
 25  1  2  0  0  0  0
 25  3  1  0  0  0  0
M  END
