3
q = -1.0

 67 67  0  0  0  0  0  0  0  0999 V2000
    2.2991   -0.0054   -0.0960 P   0  0  0  0  0  0  0  0  0  0  0  0
   -2.2991   -0.0055    0.0959 P   0  0  0  0  0  0  0  0  0  0  0  0
   -0.0000    1.6103   -0.0002 N   0  0  0  0  0  0  0  0  0  0  0  0
    3.3970   -0.9247   -1.3675 C   0  0  0  0  0  0  0  0  0  0  0  0
    4.7458   -0.2468   -1.6636 C   0  0  0  0  0  0  0  0  0  0  0  0
    4.6278    0.8188   -1.9428 H   0  0  0  0  0  0  0  0  0  0  0  0
    5.4509   -0.3056   -0.8156 H   0  0  0  0  0  0  0  0  0  0  0  0
    5.2241   -0.7593   -2.5263 H   0  0  0  0  0  0  0  0  0  0  0  0
    3.6298   -2.3683   -0.8908 C   0  0  0  0  0  0  0  0  0  0  0  0
    4.2825   -2.4076    0.0034 H   0  0  0  0  0  0  0  0  0  0  0  0
    2.6812   -2.8864   -0.6489 H   0  0  0  0  0  0  0  0  0  0  0  0
    4.1345   -2.9482   -1.6930 H   0  0  0  0  0  0  0  0  0  0  0  0
    2.5654   -0.9372   -2.6687 C   0  0  0  0  0  0  0  0  0  0  0  0
    2.4914    0.0730   -3.1181 H   0  0  0  0  0  0  0  0  0  0  0  0
    3.0586   -1.5967   -3.4142 H   0  0  0  0  0  0  0  0  0  0  0  0
    1.5330   -1.2975   -2.4978 H   0  0  0  0  0  0  0  0  0  0  0  0
    3.1342    0.1308    1.6295 C   0  0  0  0  0  0  0  0  0  0  0  0
    4.6262    0.4881    1.5707 C   0  0  0  0  0  0  0  0  0  0  0  0
    4.8269    1.3776    0.9408 H   0  0  0  0  0  0  0  0  0  0  0  0
    4.9830    0.7240    2.5964 H   0  0  0  0  0  0  0  0  0  0  0  0
    5.2430   -0.3519    1.1968 H   0  0  0  0  0  0  0  0  0  0  0  0
    2.9440   -1.1819    2.4087 C   0  0  0  0  0  0  0  0  0  0  0  0
    1.8687   -1.4018    2.5484 H   0  0  0  0  0  0  0  0  0  0  0  0
    3.4187   -2.0514    1.9142 H   0  0  0  0  0  0  0  0  0  0  0  0
    3.4064   -1.0772    3.4135 H   0  0  0  0  0  0  0  0  0  0  0  0
    2.3673    1.2383    2.3818 C   0  0  0  0  0  0  0  0  0  0  0  0
    2.5117    2.2416    1.9377 H   0  0  0  0  0  0  0  0  0  0  0  0
    1.2778    1.0350    2.3928 H   0  0  0  0  0  0  0  0  0  0  0  0
    2.7321    1.2718    3.4308 H   0  0  0  0  0  0  0  0  0  0  0  0
   -3.3965   -0.9251    1.3676 C   0  0  0  0  0  0  0  0  0  0  0  0
   -2.5644   -0.9379    2.6685 C   0  0  0  0  0  0  0  0  0  0  0  0
   -2.4905    0.0722    3.1181 H   0  0  0  0  0  0  0  0  0  0  0  0
   -3.0574   -1.5976    3.4140 H   0  0  0  0  0  0  0  0  0  0  0  0
   -1.5321   -1.2980    2.4971 H   0  0  0  0  0  0  0  0  0  0  0  0
   -3.6294   -2.3686    0.8905 C   0  0  0  0  0  0  0  0  0  0  0  0
   -2.6809   -2.8865    0.6480 H   0  0  0  0  0  0  0  0  0  0  0  0
   -4.1336   -2.9488    1.6928 H   0  0  0  0  0  0  0  0  0  0  0  0
   -4.2825   -2.4078   -0.0034 H   0  0  0  0  0  0  0  0  0  0  0  0
   -4.7453   -0.2474    1.6641 C   0  0  0  0  0  0  0  0  0  0  0  0
   -4.6273    0.8181    1.9436 H   0  0  0  0  0  0  0  0  0  0  0  0
   -5.4506   -0.3061    0.8164 H   0  0  0  0  0  0  0  0  0  0  0  0
   -5.2233   -0.7601    2.5269 H   0  0  0  0  0  0  0  0  0  0  0  0
   -3.1348    0.1311   -1.6293 C   0  0  0  0  0  0  0  0  0  0  0  0
   -2.3683    1.2390   -2.3814 C   0  0  0  0  0  0  0  0  0  0  0  0
   -1.2787    1.0359   -2.3927 H   0  0  0  0  0  0  0  0  0  0  0  0
   -2.7333    1.2730   -3.4302 H   0  0  0  0  0  0  0  0  0  0  0  0
   -2.5126    2.2421   -1.9367 H   0  0  0  0  0  0  0  0  0  0  0  0
   -2.9446   -1.1812   -2.4091 C   0  0  0  0  0  0  0  0  0  0  0  0
   -1.8694   -1.4008   -2.5494 H   0  0  0  0  0  0  0  0  0  0  0  0
   -3.4190   -2.0510   -1.9147 H   0  0  0  0  0  0  0  0  0  0  0  0
   -3.4076   -1.0762   -3.4136 H   0  0  0  0  0  0  0  0  0  0  0  0
   -4.6268    0.4882   -1.5698 C   0  0  0  0  0  0  0  0  0  0  0  0
   -4.8273    1.3774   -0.9394 H   0  0  0  0  0  0  0  0  0  0  0  0
   -4.9840    0.7245   -2.5952 H   0  0  0  0  0  0  0  0  0  0  0  0
   -5.2433   -0.3521   -1.1960 H   0  0  0  0  0  0  0  0  0  0  0  0
    1.0740    2.4229   -0.3257 C   0  0  0  0  0  0  0  0  0  0  0  0
    0.6863    3.7592   -0.2039 C   0  0  0  0  0  0  0  0  0  0  0  0
    1.3142    4.6378   -0.3972 H   0  0  0  0  0  0  0  0  0  0  0  0
   -0.6863    3.7591    0.2047 C   0  0  0  0  0  0  0  0  0  0  0  0
   -1.3140    4.6377    0.3984 H   0  0  0  0  0  0  0  0  0  0  0  0
   -1.0740    2.4228    0.3258 C   0  0  0  0  0  3  0  0  0  0  0  0
    2.3558    1.7637   -0.7203 C   0  0  0  0  0  0  0  0  0  0  0  0
    3.2503    2.2973   -0.3348 H   0  0  0  0  0  0  0  0  0  0  0  0
    2.4743    1.7071   -1.8247 H   0  0  0  0  0  0  0  0  0  0  0  0
   -2.3557    1.7635    0.7205 C   0  0  0  0  0  0  0  0  0  0  0  0
   -3.2503    2.2971    0.3353 H   0  0  0  0  0  0  0  0  0  0  0  0
   -2.4740    1.7068    1.8249 H   0  0  0  0  0  0  0  0  0  0  0  0
  1 17  1  0  0  0  0
  2 65  1  0  0  0  0
  2 30  1  0  0  0  0
  3 61  1  0  0  0  0
  4  9  1  0  0  0  0
  4  1  1  0  0  0  0
  5  4  1  0  0  0  0
  5  7  1  0  0  0  0
  6  5  1  0  0  0  0
  8  5  1  0  0  0  0
  9 11  1  0  0  0  0
  9 10  1  0  0  0  0
 12  9  1  0  0  0  0
 13 16  1  0  0  0  0
 13  4  1  0  0  0  0
 14 13  1  0  0  0  0
 15 13  1  0  0  0  0
 17 26  1  0  0  0  0
 17 22  1  0  0  0  0
 18 17  1  0  0  0  0
 18 20  1  0  0  0  0
 19 18  1  0  0  0  0
 21 18  1  0  0  0  0
 22 23  1  0  0  0  0
 22 25  1  0  0  0  0
 24 22  1  0  0  0  0
 26 28  1  0  0  0  0
 26 29  1  0  0  0  0
 27 26  1  0  0  0  0
 30 39  1  0  0  0  0
 30 31  1  0  0  0  0
 31 32  1  0  0  0  0
 31 33  1  0  0  0  0
 34 31  1  0  0  0  0
 35 30  1  0  0  0  0
 35 37  1  0  0  0  0
 36 35  1  0  0  0  0
 38 35  1  0  0  0  0
 39 40  1  0  0  0  0
 39 42  1  0  0  0  0
 41 39  1  0  0  0  0
 43 52  1  0  0  0  0
 43  2  1  0  0  0  0
 44 47  1  0  0  0  0
 44 43  1  0  0  0  0
 45 44  1  0  0  0  0
 46 44  1  0  0  0  0
 48 50  1  0  0  0  0
 48 43  1  0  0  0  0
 49 48  1  0  0  0  0
 51 48  1  0  0  0  0
 52 55  1  0  0  0  0
 52 53  1  0  0  0  0
 54 52  1  0  0  0  0
 56 57  1  0  0  0  0
 56  3  2  0  0  0  0
 57 59  2  0  0  0  0
 58 57  1  0  0  0  0
 59 61  1  0  0  0  0
 59 60  1  0  0  0  0
 61 65  1  0  0  0  0
 62 63  1  0  0  0  0
 62 56  1  0  0  0  0
 62  1  1  0  0  0  0
 64 62  1  0  0  0  0
 65 67  1  0  0  0  0
 66 65  1  0  0  0  0
M  END
