4
q = 0.0, confidence = 1.0

 23 24  0  0  1  0  0  0  0  0999 V2000
   -1.6004    3.5630   -0.1633 S   0  0  0  0  0  0  0  0  0  0  0  0
   -0.2223    3.0149    2.5410 S   0  0  0  0  0  0  0  0  0  0  0  0
   -1.8483    1.3382    1.1386 N   0  0  0  0  0  0  0  0  0  0  0  0
   -2.5336    1.1665   -0.0121 N   0  0  0  0  0  2  0  0  0  0  0  0
   -3.1887    2.2646   -1.9981 N   0  0  0  0  0  0  0  0  0  0  0  0
   -1.2940    2.5151    1.2466 C   0  0  0  0  0  0  0  0  0  0  0  0
   -2.5309    2.2347   -0.8334 C   0  0  1  0  0  3  0  0  0  0  0  0
    1.7974    2.1510    0.7882 C   0  0  0  0  0  0  0  0  0  0  0  0
    2.7780    3.1504    0.6099 C   0  0  0  0  0  0  0  0  0  0  0  0
    1.3403    1.4367   -0.3395 C   0  0  0  0  0  0  0  0  0  0  0  0
    2.8412    2.6974   -1.7803 C   0  0  0  0  0  0  0  0  0  0  0  0
    1.2080    1.8835    2.1425 C   0  0  0  0  0  0  0  0  0  0  0  0
    3.2974    3.4206   -0.6637 C   0  0  0  0  0  0  0  0  0  0  0  0
    1.8630    1.7060   -1.6136 C   0  0  0  0  0  0  0  0  0  0  0  0
    3.1350    3.7206    1.4822 H   0  0  0  0  0  0  0  0  0  0  0  0
    1.5078    1.1179   -2.4727 H   0  0  0  0  0  0  0  0  0  0  0  0
    0.5759    0.6518   -0.2309 H   0  0  0  0  0  0  0  0  0  0  0  0
    4.0676    4.1974   -0.7865 H   0  0  0  0  0  0  0  0  0  0  0  0
    3.2564    2.9040   -2.7783 H   0  0  0  0  0  0  0  0  0  0  0  0
    0.8264    0.8487    2.2404 H   0  0  0  0  0  0  0  0  0  0  0  0
   -3.5504    1.3418   -2.3597 H   0  0  0  0  0  0  0  0  0  0  0  0
    1.9270    2.0813    2.9625 H   0  0  0  0  0  0  0  0  0  0  0  0
   -3.0327    3.0312   -2.6491 H   0  0  0  0  0  0  0  0  0  0  0  0
  1  6  1  0  0  0  0
  3  6  2  0  0  0  0
  4  3  1  0  0  0  0
  6  2  1  0  0  0  0
  7  5  1  1  0  0  0
  7  1  1  0  0  0  0
  7  4  1  0  0  0  0
  8 12  1  0  0  0  0
  9  8  1  0  0  0  0
  9 15  1  0  0  0  0
 10 17  1  0  0  0  0
 10  8  2  0  0  0  0
 11 14  2  0  0  0  0
 11 13  1  0  0  0  0
 12 20  1  0  0  0  0
 12  2  1  0  0  0  0
 12 22  1  0  0  0  0
 13  9  2  0  0  0  0
 14 10  1  0  0  0  0
 16 14  1  0  0  0  0
 18 13  1  0  0  0  0
 19 11  1  0  0  0  0
 21  5  1  0  0  0  0
 23  5  1  0  0  0  0
M  END
