2
q = 0.0, confidence = 1.0

 18 17  0  0  1  0  0  0  0  0999 V2000
    4.2824   -0.0027   -0.2826 O   0  0  0  0  0  0  0  0  0  0  0  0
    2.0066    0.2765   -0.0971 N   0  0  0  0  0  2  0  0  0  0  0  0
    3.0338   -0.4839   -0.3252 C   0  0  2  0  0  3  0  0  0  0  0  0
    2.9843   -1.9482   -0.6243 C   0  0  0  0  0  0  0  0  0  0  0  0
    3.5472   -2.7871    0.5324 C   0  0  0  0  0  0  0  0  0  0  0  0
    4.5052    1.3814    0.0633 C   0  0  0  0  0  0  0  0  0  0  0  0
    5.9998    1.6207    0.0853 C   0  0  0  0  0  0  0  0  0  0  0  0
    2.1953    1.2678    0.1001 H   0  0  0  0  0  0  0  0  0  0  0  0
    1.9403   -2.2272   -0.8555 H   0  0  0  0  0  0  0  0  0  0  0  0
    3.5913   -2.1002   -1.5417 H   0  0  0  0  0  0  0  0  0  0  0  0
    3.5486   -3.8580    0.2515 H   0  0  0  0  0  0  0  0  0  0  0  0
    4.5857   -2.4925    0.7823 H   0  0  0  0  0  0  0  0  0  0  0  0
    2.9076   -2.6699    1.4284 H   0  0  0  0  0  0  0  0  0  0  0  0
    3.9993    2.0263   -0.6904 H   0  0  0  0  0  0  0  0  0  0  0  0
    4.0421    1.5821    1.0557 H   0  0  0  0  0  0  0  0  0  0  0  0
    6.2060    2.6769    0.3464 H   0  0  0  0  0  0  0  0  0  0  0  0
    6.4472    1.4121   -0.9060 H   0  0  0  0  0  0  0  0  0  0  0  0
    6.4915    0.9726    0.8367 H   0  0  0  0  0  0  0  0  0  0  0  0
  1  6  1  0  0  0  0
  2  8  1  0  0  0  0
  3  1  1  1  0  0  0
  3  2  1  0  0  0  0
  4  3  1  0  0  0  0
  4  5  1  0  0  0  0
  5 12  1  0  0  0  0
  5 13  1  0  0  0  0
  6  7  1  0  0  0  0
  6 15  1  0  0  0  0
  7 16  1  0  0  0  0
  7 18  1  0  0  0  0
  9  4  1  0  0  0  0
 10  4  1  0  0  0  0
 11  5  1  0  0  0  0
 14  6  1  0  0  0  0
 17  7  1  0  0  0  0
M  END
