1
q = -1.0

 17 17  0  0  0  0  0  0  0  0999 V2000
   -0.1494    0.0041    1.3190 N   0  0  0  0  0  0  0  0  0  0  0  0
    0.8435   -0.0807    1.5878 H   0  0  0  0  0  0  0  0  0  0  0  0
   -2.9705    0.2454    1.5704 N   0  3  0  0  0  0  0  0  0  0  0  0
   -3.9088    0.3264    1.1424 H   0  0  0  0  0  0  0  0  0  0  0  0
   -3.1149    0.2558    2.5981 H   0  0  0  0  0  0  0  0  0  0  0  0
   -0.7254    1.2728    1.7593 C   0  0  0  0  0  0  0  0  0  0  0  0
   -0.1137    2.1196    1.3907 H   0  0  0  0  0  0  0  0  0  0  0  0
   -0.7740    1.3528    2.8759 H   0  0  0  0  0  0  0  0  0  0  0  0
   -2.1179    1.4318    1.1686 C   0  0  0  0  0  0  0  0  0  0  0  0
   -2.6163    2.3609    1.4989 H   0  0  0  0  0  0  0  0  0  0  0  0
   -2.0643    1.4231    0.0636 H   0  0  0  0  0  0  0  0  0  0  0  0
   -0.9333   -1.1482    1.7578 C   0  0  0  0  0  0  0  0  0  0  0  0
   -0.4745   -2.0870    1.3899 H   0  0  0  0  0  0  0  0  0  0  0  0
   -0.9969   -1.2191    2.8743 H   0  0  0  0  0  0  0  0  0  0  0  0
   -2.3313   -1.0671    1.1646 C   0  0  0  0  0  0  0  0  0  0  0  0
   -2.9805   -1.8996    1.4905 H   0  0  0  0  0  0  0  0  0  0  0  0
   -2.2745   -1.0636    0.0596 H   0  0  0  0  0  0  0  0  0  0  0  0
  1  2  1  0  0  0  0
  1 12  1  0  0  0  0
  1  6  1  0  0  0  0
  3  5  1  0  0  0  0
  4  3  1  0  0  0  0
  6  8  1  0  0  0  0
  7  6  1  0  0  0  0
  9 10  1  0  0  0  0
  9  3  1  0  0  0  0
  9  6  1  0  0  0  0
 11  9  1  0  0  0  0
 12 14  1  0  0  0  0
 13 12  1  0  0  0  0
 15 16  1  0  0  0  0
 15  3  1  0  0  0  0
 15 12  1  0  0  0  0
 17 15  1  0  0  0  0
M  CHG  1   3   1
M  END
