4
q = 0.0, confidence = 0.996

 30 32  0  0  0  0  0  0  0  0999 V2000
   -7.3046    2.0566   -2.9229 Cl  0  0  0  0  0  0  0  0  0  0  0  0
   -4.3766   -0.5908    1.2652 O   0  0  0  0  0  0  0  0  0  0  0  0
   -8.6189    2.0677    0.7385 N   0  0  0  0  0  0  0  0  0  0  0  0
   -1.3365   -2.2868   -0.9329 N   0  0  0  0  0  2  0  0  0  0  0  0
   -9.2509    2.8807   -1.2902 N   0  0  0  0  0  0  0  0  0  0  0  0
   -7.6295    1.6649   -0.1735 C   0  0  0  0  0  0  0  0  0  0  0  0
   -3.2788   -0.8631   -0.8211 C   0  0  0  0  0  0  0  0  0  0  0  0
   -2.3730   -1.7784   -0.2485 C   0  0  0  0  0  3  0  0  0  0  0  0
   -2.5007   -2.1279    0.7904 H   0  0  0  0  0  0  0  0  0  0  0  0
   -1.1356   -1.9322   -2.2192 C   0  0  0  0  0  0  0  0  0  0  0  0
   -0.2712   -2.4185   -2.7063 H   0  0  0  0  0  0  0  0  0  0  0  0
   -6.4889    0.9031    0.2099 C   0  0  0  0  0  0  0  0  0  0  0  0
   -6.3840    0.6432    1.2793 H   0  0  0  0  0  0  0  0  0  0  0  0
   -9.5818    2.8025    0.0135 C   0  0  0  0  0  0  0  0  0  0  0  0
   -3.0675   -0.4891   -2.1631 C   0  0  0  0  0  0  0  0  0  0  0  0
   -3.7371    0.2286   -2.6594 H   0  0  0  0  0  0  0  0  0  0  0  0
   -8.1003    2.2091   -1.4021 C   0  0  0  0  0  0  0  0  0  0  0  0
   -8.7381    1.8483    2.0881 C   0  0  0  0  0  0  0  0  0  0  0  0
   -7.9444    1.2624    2.5697 H   0  0  0  0  0  0  0  0  0  0  0  0
   -4.3934   -0.3459    0.0533 C   0  0  0  0  0  0  0  0  0  0  0  0
   -5.4745    0.4320   -0.5789 C   0  0  0  0  0  0  0  0  0  0  0  0
   -5.4754    0.6118   -1.6607 H   0  0  0  0  0  0  0  0  0  0  0  0
  -10.6976    3.3279    0.7003 C   0  0  0  0  0  0  0  0  0  0  0  0
  -11.4364    3.8963    0.1203 H   0  0  0  0  0  0  0  0  0  0  0  0
   -1.9842   -1.0295   -2.8695 C   0  0  0  0  0  0  0  0  0  0  0  0
   -1.7957   -0.7567   -3.9177 H   0  0  0  0  0  0  0  0  0  0  0  0
   -9.8286    2.3619    2.7617 C   0  0  0  0  0  0  0  0  0  0  0  0
   -9.9147    2.1803    3.8414 H   0  0  0  0  0  0  0  0  0  0  0  0
  -10.8198    3.1091    2.0663 C   0  0  0  0  0  0  0  0  0  0  0  0
  -11.6835    3.5115    2.6145 H   0  0  0  0  0  0  0  0  0  0  0  0
  1 17  1  0  0  0  0
  3 18  1  0  0  0  0
  4  8  1  0  0  0  0
  5 14  2  0  0  0  0
  6 12  1  0  0  0  0
  6  3  1  0  0  0  0
  7  8  1  0  0  0  0
  7 20  1  0  0  0  0
  8  9  1  0  0  0  0
 10  4  1  0  0  0  0
 11 10  1  0  0  0  0
 12 13  1  0  0  0  0
 14 23  1  0  0  0  0
 14  3  1  0  0  0  0
 15  7  2  0  0  0  0
 16 15  1  0  0  0  0
 17  5  1  0  0  0  0
 17  6  2  0  0  0  0
 18 19  1  0  0  0  0
 18 27  2  0  0  0  0
 20  2  2  0  0  0  0
 21 20  1  0  0  0  0
 21 12  2  0  0  0  0
 22 21  1  0  0  0  0
 23 29  2  0  0  0  0
 24 23  1  0  0  0  0
 25 10  2  0  0  0  0
 25 15  1  0  0  0  0
 26 25  1  0  0  0  0
 27 28  1  0  0  0  0
 29 30  1  0  0  0  0
 29 27  1  0  0  0  0
M  END
