3
q = 0.0, confidence = 1.0

 26 27  0  0  1  0  0  0  0  0999 V2000
    2.8944   -1.0165   -1.5694 O   0  0  0  0  0  0  0  0  0  0  0  0
    1.5809   -1.3749    1.3861 O   0  0  0  0  0  0  0  0  0  0  0  0
    1.4257    0.1911   -0.4131 N   0  0  0  0  0  2  0  0  0  0  0  0
    3.3391   -1.1281   -0.1745 N   0  0  2  0  0  0  0  0  0  0  0  0
    1.8247   -0.2095   -1.5811 C   0  0  1  0  0  3  0  0  0  0  0  0
    3.2322   -2.5630    0.2533 C   0  0  0  0  0  0  0  0  0  0  0  0
    3.5689   -3.5353   -0.8720 C   0  0  0  0  0  0  0  0  0  0  0  0
    4.5915   -3.3504   -1.2551 H   0  0  0  0  0  0  0  0  0  0  0  0
    2.8616   -3.4505   -1.7173 H   0  0  0  0  0  0  0  0  0  0  0  0
    3.5301   -4.5715   -0.4816 H   0  0  0  0  0  0  0  0  0  0  0  0
    4.2016   -2.7308    1.4334 C   0  0  0  0  0  0  0  0  0  0  0  0
    3.9111   -2.0871    2.2853 H   0  0  0  0  0  0  0  0  0  0  0  0
    5.2299   -2.4650    1.1235 H   0  0  0  0  0  0  0  0  0  0  0  0
    4.1913   -3.7832    1.7799 H   0  0  0  0  0  0  0  0  0  0  0  0
    1.7691   -2.6275    0.7375 C   0  0  0  0  0  0  0  0  0  0  0  0
    1.0741   -2.7497   -0.1265 H   0  0  0  0  0  0  0  0  0  0  0  0
    1.5747   -3.4308    1.4745 H   0  0  0  0  0  0  0  0  0  0  0  0
    2.2896   -0.3909    0.6226 C   0  0  2  0  0  0  0  0  0  0  0  0
    2.8610    0.6560    1.5555 C   0  0  0  0  0  0  0  0  0  0  0  0
    3.2617    1.4987    0.9625 H   0  0  0  0  0  0  0  0  0  0  0  0
    3.6544    0.2088    2.1827 H   0  0  0  0  0  0  0  0  0  0  0  0
    2.0498    1.0538    2.1941 H   0  0  0  0  0  0  0  0  0  0  0  0
    1.2402    0.1609   -2.8921 C   0  0  0  0  0  0  0  0  0  0  0  0
    1.8308   -0.2675   -3.7211 H   0  0  0  0  0  0  0  0  0  0  0  0
    1.2184    1.2681   -2.9557 H   0  0  0  0  0  0  0  0  0  0  0  0
    0.1954   -0.2077   -2.9292 H   0  0  0  0  0  0  0  0  0  0  0  0
  3 18  1  0  0  0  0
  4  1  1  6  0  0  0
  4  6  1  0  0  0  0
  4 18  1  0  0  0  0
  5 23  1  6  0  0  0
  5  1  1  0  0  0  0
  5  3  1  0  0  0  0
  6 15  1  0  0  0  0
  6 11  1  0  0  0  0
  7 10  1  0  0  0  0
  7  6  1  0  0  0  0
  8  7  1  0  0  0  0
  9  7  1  0  0  0  0
 11 14  1  0  0  0  0
 11 12  1  0  0  0  0
 13 11  1  0  0  0  0
 15  2  1  0  0  0  0
 15 17  1  0  0  0  0
 16 15  1  0  0  0  0
 18  2  1  0  0  0  0
 18 19  1  1  0  0  0
 19 21  1  0  0  0  0
 19 22  1  0  0  0  0
 20 19  1  0  0  0  0
 24 23  1  0  0  0  0
 25 23  1  0  0  0  0
 26 23  1  0  0  0  0
M  END
