3
q = 0.0, confidence = 1.0

 29 30  0  0  1  0  0  0  0  0999 V2000
   -4.1093    0.8539   -0.4504 O   0  0  0  0  0  0  0  0  0  0  0  0
   -2.4284   -1.9993   -0.0362 O   0  0  0  0  0  0  0  0  0  0  0  0
   -1.9548    0.2981   -0.5086 N   0  0  0  0  0  2  0  0  0  0  0  0
   -4.1192   -0.5654   -0.7950 N   0  0  2  0  0  0  0  0  0  0  0  0
   -2.8337    1.2250   -0.2749 C   0  0  1  0  0  3  0  0  0  0  0  0
   -4.6264   -1.3725    0.3814 C   0  0  0  0  0  0  0  0  0  0  0  0
   -5.5691   -0.5803    1.2802 C   0  0  0  0  0  0  0  0  0  0  0  0
   -5.0596    0.2717    1.7670 H   0  0  0  0  0  0  0  0  0  0  0  0
   -5.9554   -1.2501    2.0738 H   0  0  0  0  0  0  0  0  0  0  0  0
   -6.4335   -0.1919    0.7068 H   0  0  0  0  0  0  0  0  0  0  0  0
   -5.3326   -2.5887   -0.2351 C   0  0  0  0  0  0  0  0  0  0  0  0
   -6.1715   -2.2604   -0.8780 H   0  0  0  0  0  0  0  0  0  0  0  0
   -5.7265   -3.2472    0.5648 H   0  0  0  0  0  0  0  0  0  0  0  0
   -4.6282   -3.1797   -0.8523 H   0  0  0  0  0  0  0  0  0  0  0  0
   -3.3116   -1.7963    1.0703 C   0  0  0  0  0  0  0  0  0  0  0  0
   -2.9103   -1.0098    1.7496 H   0  0  0  0  0  0  0  0  0  0  0  0
   -3.3873   -2.7543    1.6188 H   0  0  0  0  0  0  0  0  0  0  0  0
   -2.6548   -0.9466   -0.9307 C   0  0  2  0  0  0  0  0  0  0  0  0
   -2.2728   -1.3711   -2.3321 C   0  0  0  0  0  0  0  0  0  0  0  0
   -1.1898   -1.5897   -2.3721 H   0  0  0  0  0  0  0  0  0  0  0  0
   -2.4870   -0.5525   -3.0428 H   0  0  0  0  0  0  0  0  0  0  0  0
   -2.8594   -2.2665   -2.6106 H   0  0  0  0  0  0  0  0  0  0  0  0
   -2.5812    2.6341    0.1439 C   0  0  0  0  0  0  0  0  0  0  0  0
   -2.0427    2.5600    1.1140 H   0  0  0  0  0  0  0  0  0  0  0  0
   -3.5619    3.1135    0.3311 H   0  0  0  0  0  0  0  0  0  0  0  0
   -1.7492    3.4240   -0.8758 C   0  0  0  0  0  0  0  0  0  0  0  0
   -0.7891    2.9060   -1.0711 H   0  0  0  0  0  0  0  0  0  0  0  0
   -1.5332    4.4378   -0.4864 H   0  0  0  0  0  0  0  0  0  0  0  0
   -2.2847    3.5281   -1.8401 H   0  0  0  0  0  0  0  0  0  0  0  0
  1  5  1  0  0  0  0
  2 15  1  0  0  0  0
  3  5  1  0  0  0  0
  4  1  1  1  0  0  0
  4  6  1  0  0  0  0
  5 23  1  6  0  0  0
  6 15  1  0  0  0  0
  6  7  1  0  0  0  0
  7  8  1  0  0  0  0
  7  9  1  0  0  0  0
 10  7  1  0  0  0  0
 11  6  1  0  0  0  0
 11 13  1  0  0  0  0
 12 11  1  0  0  0  0
 14 11  1  0  0  0  0
 15 17  1  0  0  0  0
 15 16  1  0  0  0  0
 18 19  1  6  0  0  0
 18  4  1  0  0  0  0
 18  3  1  0  0  0  0
 18  2  1  0  0  0  0
 20 19  1  0  0  0  0
 21 19  1  0  0  0  0
 22 19  1  0  0  0  0
 23 25  1  0  0  0  0
 23 24  1  0  0  0  0
 26 28  1  0  0  0  0
 26 23  1  0  0  0  0
 27 26  1  0  0  0  0
 29 26  1  0  0  0  0
M  END
