3
q = 0.0, confidence = 0.988

 36 38  0  0  1  0  0  0  0  0999 V2000
   -4.1069    0.4826   -0.5453 O   0  0  0  0  0  0  0  0  0  0  0  0
   -2.4053   -2.2611    0.3587 O   0  0  0  0  0  0  0  0  0  0  0  0
   -1.9496   -0.0736   -0.5140 N   0  0  0  0  0  2  0  0  0  0  0  0
   -4.1147   -0.9667   -0.5679 N   0  0  2  0  0  0  0  0  0  0  0  0
   -2.8246    0.8947   -0.4730 C   0  0  1  0  0  3  0  0  0  0  0  0
   -4.5794   -1.5215    0.7634 C   0  0  0  0  0  0  0  0  0  0  0  0
   -5.4302   -0.5307    1.5503 C   0  0  0  0  0  0  0  0  0  0  0  0
   -6.3197   -0.2179    0.9691 H   0  0  0  0  0  0  0  0  0  0  0  0
   -5.7819   -1.0197    2.4803 H   0  0  0  0  0  0  0  0  0  0  0  0
   -4.8569    0.3718    1.8335 H   0  0  0  0  0  0  0  0  0  0  0  0
   -5.3658   -2.7944    0.4207 C   0  0  0  0  0  0  0  0  0  0  0  0
   -4.7230   -3.5155   -0.1212 H   0  0  0  0  0  0  0  0  0  0  0  0
   -5.7293   -3.2824    1.3474 H   0  0  0  0  0  0  0  0  0  0  0  0
   -6.2327   -2.5496   -0.2226 H   0  0  0  0  0  0  0  0  0  0  0  0
   -3.2437   -1.8691    1.4534 C   0  0  0  0  0  0  0  0  0  0  0  0
   -3.3155   -2.7320    2.1425 H   0  0  0  0  0  0  0  0  0  0  0  0
   -2.7995   -0.9989    1.9868 H   0  0  0  0  0  0  0  0  0  0  0  0
   -2.6643   -1.3702   -0.6907 C   0  0  2  0  0  0  0  0  0  0  0  0
   -2.3419   -2.0460   -2.0172 C   0  0  0  0  0  0  0  0  0  0  0  0
   -1.2689   -2.3245   -1.9957 H   0  0  0  0  0  0  0  0  0  0  0  0
   -2.9410   -2.9797   -2.0331 H   0  0  0  0  0  0  0  0  0  0  0  0
   -2.6430   -1.1719   -3.2296 C   0  0  0  0  0  0  0  0  0  0  0  0
   -1.9703   -0.2923   -3.2516 H   0  0  0  0  0  0  0  0  0  0  0  0
   -2.4735   -1.7390   -4.1655 H   0  0  0  0  0  0  0  0  0  0  0  0
   -3.6969   -0.8273   -3.2224 H   0  0  0  0  0  0  0  0  0  0  0  0
   -2.6143    2.3421   -0.3788 C   0  0  0  0  0  0  0  0  0  0  0  0
   -3.7196    3.1809   -0.1046 C   0  0  0  0  0  0  0  0  0  0  0  0
   -4.7162    2.7376    0.0289 H   0  0  0  0  0  0  0  0  0  0  0  0
   -3.5387    4.5644    0.0041 C   0  0  0  0  0  0  0  0  0  0  0  0
   -4.4009    5.2112    0.2250 H   0  0  0  0  0  0  0  0  0  0  0  0
   -2.2606    5.1242   -0.1619 C   0  0  0  0  0  0  0  0  0  0  0  0
   -2.1210    6.2121   -0.0685 H   0  0  0  0  0  0  0  0  0  0  0  0
   -1.1634    4.2951   -0.4483 C   0  0  0  0  0  0  0  0  0  0  0  0
   -0.1576    4.7207   -0.5804 H   0  0  0  0  0  0  0  0  0  0  0  0
   -1.3345    2.9120   -0.5637 C   0  0  0  0  0  0  0  0  0  0  0  0
   -0.4711    2.2593   -0.7764 H   0  0  0  0  0  0  0  0  0  0  0  0
  1  5  1  0  0  0  0
  2 15  1  0  0  0  0
  3  5  1  0  0  0  0
  4  1  1  1  0  0  0
  4  6  1  0  0  0  0
  5 26  1  6  0  0  0
  6 15  1  0  0  0  0
  6  7  1  0  0  0  0
  7 10  1  0  0  0  0
  7  9  1  0  0  0  0
  8  7  1  0  0  0  0
 11  6  1  0  0  0  0
 11 13  1  0  0  0  0
 12 11  1  0  0  0  0
 14 11  1  0  0  0  0
 15 17  1  0  0  0  0
 15 16  1  0  0  0  0
 18 19  1  6  0  0  0
 18  4  1  0  0  0  0
 18  3  1  0  0  0  0
 18  2  1  0  0  0  0
 19 20  1  0  0  0  0
 21 19  1  0  0  0  0
 22 25  1  0  0  0  0
 22 19  1  0  0  0  0
 23 22  1  0  0  0  0
 24 22  1  0  0  0  0
 26 27  1  0  0  0  0
 27 29  2  0  0  0  0
 27 28  1  0  0  0  0
 29 30  1  0  0  0  0
 31 32  1  0  0  0  0
 31 29  1  0  0  0  0
 33 31  2  0  0  0  0
 34 33  1  0  0  0  0
 35 33  1  0  0  0  0
 35 26  2  0  0  0  0
 36 35  1  0  0  0  0
M  END
