3
q = 0.0, confidence = 0.998

 38 40  0  0  1  0  0  0  0  0999 V2000
   -4.0724   -0.0886   -0.9515 O   0  0  0  0  0  0  0  0  0  0  0  0
   -2.1283    2.5405   -0.0052 O   0  0  0  0  0  0  0  0  0  0  0  0
   -1.8638    0.2702   -0.7626 N   0  0  0  0  0  2  0  0  0  0  0  0
   -3.9443    1.3350   -0.7731 N   0  0  1  0  0  0  0  0  0  0  0  0
   -2.7447   -1.9654   -0.9211 N   0  0  0  0  0  0  0  0  0  0  0  0
   -2.8194   -0.6280   -0.8496 C   0  0  2  0  0  3  0  0  0  0  0  0
   -4.2521    1.7705    0.6511 C   0  0  0  0  0  0  0  0  0  0  0  0
   -4.8740    0.6616    1.4961 C   0  0  0  0  0  0  0  0  0  0  0  0
   -5.8118    0.2851    1.0431 H   0  0  0  0  0  0  0  0  0  0  0  0
   -5.1164    1.0694    2.4978 H   0  0  0  0  0  0  0  0  0  0  0  0
   -4.1722   -0.1823    1.6414 H   0  0  0  0  0  0  0  0  0  0  0  0
   -5.1864    2.9794    0.5147 C   0  0  0  0  0  0  0  0  0  0  0  0
   -4.6976    3.7750   -0.0819 H   0  0  0  0  0  0  0  0  0  0  0  0
   -5.4401    3.3938    1.5117 H   0  0  0  0  0  0  0  0  0  0  0  0
   -6.1214    2.6888   -0.0027 H   0  0  0  0  0  0  0  0  0  0  0  0
   -2.8613    2.1947    1.1785 C   0  0  0  0  0  0  0  0  0  0  0  0
   -2.8965    3.0972    1.8184 H   0  0  0  0  0  0  0  0  0  0  0  0
   -2.3567    1.3644    1.7190 H   0  0  0  0  0  0  0  0  0  0  0  0
   -2.4770    1.6101   -0.9821 C   0  0  1  0  0  0  0  0  0  0  0  0
   -2.1642    2.1637   -2.3573 C   0  0  0  0  0  0  0  0  0  0  0  0
   -2.6359    3.1581   -2.4679 H   0  0  0  0  0  0  0  0  0  0  0  0
   -2.5678    1.4797   -3.1273 H   0  0  0  0  0  0  0  0  0  0  0  0
   -1.0676    2.2297   -2.4885 H   0  0  0  0  0  0  0  0  0  0  0  0
   -3.9097   -2.8125   -0.6441 C   0  0  0  0  0  0  0  0  0  0  0  0
   -4.1584   -3.3828   -1.5690 H   0  0  0  0  0  0  0  0  0  0  0  0
   -4.7742   -2.1663   -0.4103 H   0  0  0  0  0  0  0  0  0  0  0  0
   -3.5972   -3.7822    0.5015 C   0  0  0  0  0  0  0  0  0  0  0  0
   -4.4783   -4.4351    0.6736 H   0  0  0  0  0  0  0  0  0  0  0  0
   -3.4325   -3.1906    1.4277 H   0  0  0  0  0  0  0  0  0  0  0  0
   -2.3430   -4.6093    0.1916 C   0  0  0  0  0  0  0  0  0  0  0  0
   -2.5465   -5.2689   -0.6833 H   0  0  0  0  0  0  0  0  0  0  0  0
   -2.1036   -5.2808    1.0418 H   0  0  0  0  0  0  0  0  0  0  0  0
   -1.1579   -3.6864   -0.1135 C   0  0  0  0  0  0  0  0  0  0  0  0
   -0.8854   -3.1071    0.7927 H   0  0  0  0  0  0  0  0  0  0  0  0
   -0.2569   -4.2579   -0.4139 H   0  0  0  0  0  0  0  0  0  0  0  0
   -1.4994   -2.6875   -1.2196 C   0  0  0  0  0  0  0  0  0  0  0  0
   -0.6834   -1.9454   -1.3429 H   0  0  0  0  0  0  0  0  0  0  0  0
   -1.6479   -3.2128   -2.1921 H   0  0  0  0  0  0  0  0  0  0  0  0
  1  6  1  0  0  0  0
  2 16  1  0  0  0  0
  4  1  1  1  0  0  0
  4  7  1  0  0  0  0
  5 24  1  0  0  0  0
  6  5  1  6  0  0  0
  6  3  1  0  0  0  0
  7 16  1  0  0  0  0
  7  8  1  0  0  0  0
  8 11  1  0  0  0  0
  8 10  1  0  0  0  0
  9  8  1  0  0  0  0
 12  7  1  0  0  0  0
 12 14  1  0  0  0  0
 13 12  1  0  0  0  0
 15 12  1  0  0  0  0
 16 18  1  0  0  0  0
 16 17  1  0  0  0  0
 19 20  1  6  0  0  0
 19  4  1  0  0  0  0
 19  3  1  0  0  0  0
 19  2  1  0  0  0  0
 21 20  1  0  0  0  0
 22 20  1  0  0  0  0
 23 20  1  0  0  0  0
 24 26  1  0  0  0  0
 24 27  1  0  0  0  0
 25 24  1  0  0  0  0
 27 28  1  0  0  0  0
 27 29  1  0  0  0  0
 30 27  1  0  0  0  0
 30 32  1  0  0  0  0
 31 30  1  0  0  0  0
 33 30  1  0  0  0  0
 33 34  1  0  0  0  0
 35 33  1  0  0  0  0
 36  5  1  0  0  0  0
 36 33  1  0  0  0  0
 37 36  1  0  0  0  0
 38 36  1  0  0  0  0
M  END
