10
q = 0.0, confidence = 0.998

 32 35  0  0  0  0  0  0  0  0999 V2000
    3.3198    1.2900    0.7859 N   0  0  0  0  0  0  0  0  0  0  0  0
    5.1736    2.5146    0.5366 C   0  0  0  0  0  0  0  0  0  0  0  0
    4.4085    4.4617    2.3824 C   0  0  0  0  0  0  0  0  0  0  0  0
    4.1385    5.2501    3.1028 H   0  0  0  0  0  0  0  0  0  0  0  0
    5.6506    4.5588    1.6955 C   0  0  0  0  0  0  0  0  0  0  0  0
    6.3038    5.4191    1.9064 H   0  0  0  0  0  0  0  0  0  0  0  0
    6.0525    3.5984    0.7701 C   0  0  0  0  0  0  0  0  0  0  0  0
    7.0090    3.6631    0.2328 H   0  0  0  0  0  0  0  0  0  0  0  0
    2.7049   -1.0866   -0.6724 N   0  0  0  0  0  0  0  0  0  0  0  0
    1.1986   -2.7568   -1.1142 N   0  0  0  0  0  2  0  0  0  0  0  0
    3.8975   -0.5072   -0.8426 C   0  0  0  0  0  0  0  0  0  0  0  0
    4.1834    0.7294   -0.1317 C   0  0  0  0  0  0  0  0  0  0  0  0
    4.6539   -2.2435   -2.3654 C   0  0  0  0  0  3  0  0  0  0  0  0
    5.4074   -2.6959   -3.0287 H   0  0  0  0  0  0  0  0  0  0  0  0
    2.4454   -2.2418   -1.3241 C   0  0  0  0  0  0  0  0  0  0  0  0
    5.3059    1.4371   -0.3033 N   0  0  0  0  0  0  0  0  0  0  0  0
    2.9867   -4.0920   -2.8241 C   0  0  0  0  0  0  0  0  0  0  0  0
    3.6857   -4.6114   -3.4984 H   0  0  0  0  0  0  0  0  0  0  0  0
    3.3889   -2.8870   -2.1949 C   0  0  0  0  0  0  0  0  0  0  0  0
    1.7105   -4.5953   -2.5893 C   0  0  0  0  0  0  0  0  0  0  0  0
    1.3645   -5.5227   -3.0669 H   0  0  0  0  0  0  0  0  0  0  0  0
    0.8435   -3.8823   -1.7248 C   0  0  0  0  0  0  0  0  0  0  0  0
   -0.1816   -4.2403   -1.5290 H   0  0  0  0  0  0  0  0  0  0  0  0
    3.9225    2.4393    1.2415 C   0  0  0  0  0  0  0  0  0  0  0  0
    4.9078   -1.0629   -1.7010 C   0  0  0  0  0  0  0  0  0  0  0  0
    5.8554   -0.5142   -1.7908 H   0  0  0  0  0  0  0  0  0  0  0  0
    3.5050    3.4081    2.1852 C   0  0  0  0  0  0  0  0  0  0  0  0
    2.1926    3.2997    2.9093 C   0  0  0  0  0  0  0  0  0  0  0  0
    1.3404    3.2277    2.2022 H   0  0  0  0  0  0  0  0  0  0  0  0
    2.0282    4.1705    3.5721 H   0  0  0  0  0  0  0  0  0  0  0  0
    2.1421    2.3760    3.5227 H   0  0  0  0  0  0  0  0  0  0  0  0
    2.4177    0.8820    1.1260 H   0  0  0  0  0  0  0  0  0  0  0  0
  1 32  1  0  0  0  0
  1 24  1  0  0  0  0
  2  7  2  0  0  0  0
  2 24  1  0  0  0  0
  3  4  1  0  0  0  0
  5  6  1  0  0  0  0
  5  3  2  0  0  0  0
  7  5  1  0  0  0  0
  8  7  1  0  0  0  0
 11  9  1  0  0  0  0
 11 12  1  0  0  0  0
 12  1  1  0  0  0  0
 13 19  1  0  0  0  0
 13 25  1  0  0  0  0
 14 13  1  0  0  0  0
 15 10  1  0  0  0  0
 15  9  2  0  0  0  0
 16 12  2  0  0  0  0
 16  2  1  0  0  0  0
 17 20  1  0  0  0  0
 17 19  2  0  0  0  0
 18 17  1  0  0  0  0
 19 15  1  0  0  0  0
 20 22  2  0  0  0  0
 21 20  1  0  0  0  0
 22 23  1  0  0  0  0
 22 10  1  0  0  0  0
 24 27  2  0  0  0  0
 25 11  2  0  0  0  0
 26 25  1  0  0  0  0
 27  3  1  0  0  0  0
 27 28  1  0  0  0  0
 28 31  1  0  0  0  0
 28 30  1  0  0  0  0
 29 28  1  0  0  0  0
M  END
