1
q = 0.0, confidence = 0.99

 17 17  0  0  1  0  0  0  0  0999 V2000
    1.9104    0.0662   -0.5924 N   0  0  0  0  0  2  0  0  0  0  0  0
    2.9006   -1.3663    1.2248 C   0  0  0  0  0  0  0  0  0  0  0  0
    2.6671   -0.7113    2.0872 H   0  0  0  0  0  0  0  0  0  0  0  0
    2.0761   -2.1018    1.1117 H   0  0  0  0  0  0  0  0  0  0  0  0
    3.8641   -1.8677    1.4223 H   0  0  0  0  0  0  0  0  0  0  0  0
    2.3425    0.6960   -1.7085 N   0  0  0  0  0  0  0  0  0  0  0  0
    3.6077    0.4986   -1.8524 N   0  0  0  0  0  0  0  0  0  0  0  0
    4.0074   -0.2855   -0.8104 N   0  0  0  0  0  0  0  0  0  0  0  0
    2.9477   -0.5496   -0.0083 C   0  0  1  0  0  3  0  0  0  0  0  0
    6.0423    0.2020    0.4946 C   0  0  0  0  0  0  0  0  0  0  0  0
    5.4018   -0.6178   -0.6498 C   0  0  0  0  0  0  0  0  0  0  0  0
    5.5023   -1.6965   -0.4083 H   0  0  0  0  0  0  0  0  0  0  0  0
    5.8822   -0.4376   -1.6303 H   0  0  0  0  0  0  0  0  0  0  0  0
    5.3852    0.5684    1.4581 O   0  0  0  0  0  0  0  0  0  0  0  0
    7.3825    0.4037    0.3540 N   0  0  0  0  0  0  0  0  0  0  0  0
    7.8685    0.9229    1.0869 H   0  0  0  0  0  0  0  0  0  0  0  0
    7.8846    0.1902   -0.5065 H   0  0  0  0  0  0  0  0  0  0  0  0
  1  9  1  0  0  0  0
  2  5  1  0  0  0  0
  2  3  1  0  0  0  0
  4  2  1  0  0  0  0
  6  1  1  0  0  0  0
  7  6  2  0  0  0  0
  7  8  1  0  0  0  0
  8 11  1  0  0  0  0
  8  9  1  0  0  0  0
  9  2  1  6  0  0  0
 10 14  2  0  0  0  0
 11 12  1  0  0  0  0
 11 10  1  0  0  0  0
 13 11  1  0  0  0  0
 15 10  1  0  0  0  0
 15 16  1  0  0  0  0
 17 15  1  0  0  0  0
M  END
