1
q = 0.0, confidence = 0.998

 22 22  0  0  1  0  0  0  0  0999 V2000
    1.9855   -0.4035   -0.1105 N   0  0  0  0  0  2  0  0  0  0  0  0
    2.5761    0.4517    0.0079 H   0  0  0  0  0  0  0  0  0  0  0  0
    4.0734   -1.4257   -0.3273 N   0  0  0  0  0  0  0  0  0  0  0  0
    4.5339   -2.3225   -0.4826 H   0  0  0  0  0  0  0  0  0  0  0  0
    4.3628    0.8712    0.0537 N   0  0  0  0  0  0  0  0  0  0  0  0
    2.6858   -1.4794   -0.3014 C   0  0  1  0  0  3  0  0  0  0  0  0
    2.1221   -2.8642   -0.4775 C   0  0  0  0  0  0  0  0  0  0  0  0
    2.5793   -3.2974   -1.3947 H   0  0  0  0  0  0  0  0  0  0  0  0
    1.0380   -2.7711   -0.6719 H   0  0  0  0  0  0  0  0  0  0  0  0
    2.3803   -3.7641    0.7394 C   0  0  0  0  0  0  0  0  0  0  0  0
    3.4601   -3.8792    0.9730 H   0  0  0  0  0  0  0  0  0  0  0  0
    1.9684   -4.7753    0.5539 H   0  0  0  0  0  0  0  0  0  0  0  0
    1.8667   -3.3430    1.6248 H   0  0  0  0  0  0  0  0  0  0  0  0
    4.9217   -0.3320   -0.1523 C   0  0  0  0  0  0  0  0  0  0  0  0
    6.3252   -0.5198   -0.1988 C   0  0  0  0  0  0  0  0  0  0  0  0
    6.7540   -1.5191   -0.3689 H   0  0  0  0  0  0  0  0  0  0  0  0
    7.1421    0.5970   -0.0219 C   0  0  0  0  0  0  0  0  0  0  0  0
    8.2365    0.4853   -0.0523 H   0  0  0  0  0  0  0  0  0  0  0  0
    6.5574    1.8586    0.1949 C   0  0  0  0  0  0  0  0  0  0  0  0
    7.1719    2.7584    0.3379 H   0  0  0  0  0  0  0  0  0  0  0  0
    5.1604    1.9371    0.2234 C   0  0  0  0  0  0  0  0  0  0  0  0
    4.6437    2.8975    0.3892 H   0  0  0  0  0  0  0  0  0  0  0  0
  1  2  1  0  0  0  0
  3  6  1  0  0  0  0
  3 14  1  0  0  0  0
  4  3  1  0  0  0  0
  5 21  1  0  0  0  0
  6  1  1  1  0  0  0
  7  6  1  0  0  0  0
  7 10  1  0  0  0  0
  8  7  1  0  0  0  0
  9  7  1  0  0  0  0
 10 11  1  0  0  0  0
 10 13  1  0  0  0  0
 12 10  1  0  0  0  0
 14  5  2  0  0  0  0
 15 14  1  0  0  0  0
 15 17  2  0  0  0  0
 16 15  1  0  0  0  0
 17 19  1  0  0  0  0
 18 17  1  0  0  0  0
 19 21  2  0  0  0  0
 19 20  1  0  0  0  0
 21 22  1  0  0  0  0
M  END
