3
q = -1.0, confidence = 0.0

 15 15  0  0  0  0  0  0  0  0999 V2000
   -5.0723    2.0823    0.2267 O   0  0  0  0  0  0  0  0  0  0  0  0
   -5.4719    2.5923   -1.9620 O   0  0  0  0  0  0  0  0  0  0  0  0
   -1.3990    0.9853   -0.9423 N   0  0  0  0  0  0  0  0  0  0  0  0
   -2.5082    1.3356   -0.3048 N   0  0  0  0  0  2  0  0  0  0  0  0
   -2.7258    1.6690   -2.5116 N   0  0  0  0  0  0  0  0  0  0  0  0
   -1.5253    1.1806   -2.2693 N   0  0  0  0  0  0  0  0  0  0  0  0
   -3.3230    1.7551   -1.2940 C   0  0  0  0  0  0  0  0  0  0  0  0
   -4.7206    2.1976   -1.0897 C   0  0  0  0  0  0  0  0  0  0  0  0
   -6.4252    2.4493    0.5455 C   0  0  0  0  0  0  0  0  0  0  0  0
   -6.3899    2.7832    1.6020 H   0  0  0  0  0  0  0  0  0  0  0  0
   -6.7331    3.3004   -0.0958 H   0  0  0  0  0  0  0  0  0  0  0  0
   -7.3753    1.2743    0.3643 C   0  0  0  0  0  0  0  0  0  0  0  0
   -8.3991    1.5509    0.6886 H   0  0  0  0  0  0  0  0  0  0  0  0
   -7.0461    0.4014    0.9645 H   0  0  0  0  0  0  0  0  0  0  0  0
   -7.4206    0.9761   -0.7013 H   0  0  0  0  0  0  0  0  0  0  0  0
  1  9  1  0  0  0  0
  2  8  2  0  0  0  0
  3  4  1  0  0  0  0
  5  6  1  0  0  0  0
  5  7  2  0  0  0  0
  6  3  2  0  0  0  0
  7  8  1  0  0  0  0
  7  4  1  0  0  0  0
  8  1  1  0  0  0  0
  9 10  1  0  0  0  0
 11  9  1  0  0  0  0
 12  9  1  0  0  0  0
 12 13  1  0  0  0  0
 12 14  1  0  0  0  0
 15 12  1  0  0  0  0
M  END
