2
q = 0.0, confidence = 0.998

 33 34  0  0  1  0  0  0  0  0999 V2000
    3.1212   -0.2685    1.7367 O   0  0  0  0  0  0  0  0  0  0  0  0
    1.4509   -0.9234    0.4151 N   0  0  0  0  0  2  0  0  0  0  0  0
    2.2618    0.8060   -1.1248 N   0  0  0  0  0  0  0  0  0  0  0  0
    2.3308    0.7387   -2.1442 H   0  0  0  0  0  0  0  0  0  0  0  0
    3.7039   -0.3694    0.3753 N   0  0  1  0  0  0  0  0  0  0  0  0
    2.5133   -0.4927   -0.5107 C   0  0  1  0  0  0  0  0  0  0  0  0
    2.6316   -1.3015   -1.2620 H   0  0  0  0  0  0  0  0  0  0  0  0
    3.2033    1.8089   -0.5694 C   0  0  0  0  0  0  0  0  0  0  0  0
    2.5194    2.6227    0.5473 C   0  0  0  0  0  0  0  0  0  0  0  0
    1.6277    3.1339    0.1332 H   0  0  0  0  0  0  0  0  0  0  0  0
    3.1950    3.4004    0.9541 H   0  0  0  0  0  0  0  0  0  0  0  0
    2.1898    1.9901    1.3912 H   0  0  0  0  0  0  0  0  0  0  0  0
    3.6349    2.7832   -1.6706 C   0  0  0  0  0  0  0  0  0  0  0  0
    4.0450    2.2629   -2.5575 H   0  0  0  0  0  0  0  0  0  0  0  0
    4.4071    3.4835   -1.2949 H   0  0  0  0  0  0  0  0  0  0  0  0
    2.7685    3.3912   -2.0018 H   0  0  0  0  0  0  0  0  0  0  0  0
    4.3793    0.8986   -0.0104 C   0  0  0  0  0  0  0  0  0  0  0  0
    5.3445    0.4673   -1.1322 C   0  0  0  0  0  0  0  0  0  0  0  0
    6.0110   -0.3288   -0.7513 H   0  0  0  0  0  0  0  0  0  0  0  0
    5.9649    1.3212   -1.4652 H   0  0  0  0  0  0  0  0  0  0  0  0
    4.8085    0.0640   -2.0140 H   0  0  0  0  0  0  0  0  0  0  0  0
    5.1827    1.4876    1.1468 C   0  0  0  0  0  0  0  0  0  0  0  0
    4.5529    1.7113    2.0253 H   0  0  0  0  0  0  0  0  0  0  0  0
    5.6748    2.4240    0.8170 H   0  0  0  0  0  0  0  0  0  0  0  0
    5.9724    0.7790    1.4642 H   0  0  0  0  0  0  0  0  0  0  0  0
    1.8628   -0.7234    1.6316 C   0  0  2  0  0  3  0  0  0  0  0  0
    1.0920   -0.9259    2.8923 C   0  0  0  0  0  0  0  0  0  0  0  0
    1.7146   -1.5428    3.5732 H   0  0  0  0  0  0  0  0  0  0  0  0
    0.1996   -1.5206    2.6143 H   0  0  0  0  0  0  0  0  0  0  0  0
    0.6978    0.3897    3.5829 C   0  0  0  0  0  0  0  0  0  0  0  0
    1.5911    0.9859    3.8564 H   0  0  0  0  0  0  0  0  0  0  0  0
    0.1378    0.1762    4.5141 H   0  0  0  0  0  0  0  0  0  0  0  0
    0.0496    1.0152    2.9370 H   0  0  0  0  0  0  0  0  0  0  0  0
  2 26  1  0  0  0  0
  3  8  1  0  0  0  0
  3  6  1  0  0  0  0
  4  3  1  0  0  0  0
  5  1  1  1  0  0  0
  6  7  1  6  0  0  0
  6  5  1  0  0  0  0
  6  2  1  0  0  0  0
  8 17  1  0  0  0  0
  8  9  1  0  0  0  0
  9 11  1  0  0  0  0
  9 12  1  0  0  0  0
 10  9  1  0  0  0  0
 13 15  1  0  0  0  0
 13  8  1  0  0  0  0
 14 13  1  0  0  0  0
 16 13  1  0  0  0  0
 17  5  1  0  0  0  0
 17 22  1  0  0  0  0
 18 19  1  0  0  0  0
 18 17  1  0  0  0  0
 20 18  1  0  0  0  0
 21 18  1  0  0  0  0
 22 25  1  0  0  0  0
 22 23  1  0  0  0  0
 24 22  1  0  0  0  0
 26  1  1  0  0  0  0
 26 27  1  6  0  0  0
 27 28  1  0  0  0  0
 27 30  1  0  0  0  0
 29 27  1  0  0  0  0
 30 31  1  0  0  0  0
 30 32  1  0  0  0  0
 33 30  1  0  0  0  0
M  END
