1
q = -1.0

 29 30  0  0  0  0  0  0  0  0999 V2000
    1.2838    0.4712    0.0402 N   0  0  0  0  0  2  0  0  0  0  0  0
    2.6297    0.8777    0.0956 C   0  0  0  0  0  0  0  0  0  0  0  0
    3.7222   -0.0233   -0.0416 C   0  0  0  0  0  0  0  0  0  0  0  0
    3.5339   -1.0868   -0.2163 H   0  0  0  0  0  0  0  0  0  0  0  0
    5.0486    0.4083    0.0296 C   0  0  0  0  0  0  0  0  0  0  0  0
    5.8495   -0.3404   -0.0877 H   0  0  0  0  0  0  0  0  0  0  0  0
    5.3901    1.7605    0.2389 C   0  0  0  0  0  0  0  0  0  0  0  0
    4.3178    2.6604    0.3717 C   0  0  0  0  0  0  0  0  0  0  0  0
    4.5288    3.7303    0.5363 H   0  0  0  0  0  0  0  0  0  0  0  0
    2.9827    2.2440    0.3028 C   0  0  0  0  0  0  0  0  0  0  0  0
    2.1932    2.9978    0.4173 H   0  0  0  0  0  0  0  0  0  0  0  0
    6.8285    2.2062    0.3168 C   0  0  0  0  0  0  0  0  0  0  0  0
    6.9069    3.3054    0.4322 H   0  0  0  0  0  0  0  0  0  0  0  0
    7.3972    1.9231   -0.5946 H   0  0  0  0  0  0  0  0  0  0  0  0
    7.3575    1.7421    1.1772 H   0  0  0  0  0  0  0  0  0  0  0  0
    0.3629    1.5554    0.0005 C   0  0  0  0  0  0  0  0  0  0  0  0
    0.0517    2.1867   -1.2253 C   0  0  0  0  0  0  0  0  0  0  0  0
    0.5827    1.8535   -2.1292 H   0  0  0  0  0  0  0  0  0  0  0  0
   -0.9174    3.1940   -1.2946 C   0  0  0  0  0  0  0  0  0  0  0  0
   -1.1589    3.6474   -2.2699 H   0  0  0  0  0  0  0  0  0  0  0  0
   -1.5958    3.6385   -0.1393 C   0  0  0  0  0  0  0  0  0  0  0  0
   -1.2293    3.0624    1.0924 C   0  0  0  0  0  0  0  0  0  0  0  0
   -1.7172    3.4097    2.0177 H   0  0  0  0  0  0  0  0  0  0  0  0
   -0.2630    2.0477    1.1647 C   0  0  0  0  0  0  0  0  0  0  0  0
    0.0178    1.6136    2.1351 H   0  0  0  0  0  0  0  0  0  0  0  0
   -2.6953    4.6663   -0.2248 C   0  0  0  0  0  0  0  0  0  0  0  0
   -3.6893    4.1780   -0.3349 H   0  0  0  0  0  0  0  0  0  0  0  0
   -2.5634    5.3382   -1.0960 H   0  0  0  0  0  0  0  0  0  0  0  0
   -2.7443    5.2925    0.6885 H   0  0  0  0  0  0  0  0  0  0  0  0
  1  2  1  0  0  0  0
  2 10  1  0  0  0  0
  3  5  1  0  0  0  0
  3  2  2  0  0  0  0
  4  3  1  0  0  0  0
  5  7  2  0  0  0  0
  6  5  1  0  0  0  0
  7 12  1  0  0  0  0
  7  8  1  0  0  0  0
  8  9  1  0  0  0  0
 10  8  2  0  0  0  0
 10 11  1  0  0  0  0
 12 13  1  0  0  0  0
 12 15  1  0  0  0  0
 14 12  1  0  0  0  0
 16  1  1  0  0  0  0
 16 24  1  0  0  0  0
 17 16  2  0  0  0  0
 18 17  1  0  0  0  0
 19 17  1  0  0  0  0
 19 21  2  0  0  0  0
 20 19  1  0  0  0  0
 21 22  1  0  0  0  0
 22 24  2  0  0  0  0
 22 23  1  0  0  0  0
 24 25  1  0  0  0  0
 26 21  1  0  0  0  0
 26 29  1  0  0  0  0
 27 26  1  0  0  0  0
 28 26  1  0  0  0  0
M  END
