44
q = 0.0, confidence = 0.986

 49 51  0  0  1  0  0  0  0  0999 V2000
    2.1986   -2.5111    1.6276 C   0  0  0  0  0  0  0  0  0  0  0  0
    1.6598   -3.6195    0.8961 C   0  0  0  0  0  0  0  0  0  0  0  0
    2.1401   -4.5816    0.6861 H   0  0  0  0  0  0  0  0  0  0  0  0
    0.4029   -3.2283    0.4637 C   0  0  0  0  0  0  0  0  0  0  0  0
    3.5161   -2.4163    2.3301 C   0  0  0  0  0  0  0  0  0  0  0  0
    3.7924   -1.3585    2.5004 H   0  0  0  0  0  0  0  0  0  0  0  0
    4.3165   -2.9025    1.7384 H   0  0  0  0  0  0  0  0  0  0  0  0
    3.4797   -2.9263    3.3160 H   0  0  0  0  0  0  0  0  0  0  0  0
   -0.5597   -3.9326   -0.4319 C   0  0  0  0  0  0  0  0  0  0  0  0
   -0.1079   -4.8864   -0.7636 H   0  0  0  0  0  0  0  0  0  0  0  0
   -0.7806   -3.3163   -1.3288 H   0  0  0  0  0  0  0  0  0  0  0  0
   -1.5211   -4.1455    0.0733 H   0  0  0  0  0  0  0  0  0  0  0  0
   -0.8359   -1.0559    0.7722 C   0  0  0  0  0  0  0  0  0  0  0  0
   -3.0254   -0.6898    0.2992 C   0  0  0  0  0  0  0  0  0  0  0  0
   -1.6030    1.0337    0.5496 C   0  0  0  0  0  0  0  0  0  0  0  0
   -4.5039   -2.6083   -0.0625 C   0  0  0  0  0  0  0  0  0  0  0  0
   -3.6215   -3.0542   -0.5602 H   0  0  0  0  0  0  0  0  0  0  0  0
   -5.3683   -2.7399   -0.7455 H   0  0  0  0  0  0  0  0  0  0  0  0
   -4.7582   -3.2980    1.2772 C   0  0  0  0  0  0  0  0  0  0  0  0
   -4.9640   -4.3767    1.1252 H   0  0  0  0  0  0  0  0  0  0  0  0
   -5.6281   -2.8556    1.8039 H   0  0  0  0  0  0  0  0  0  0  0  0
   -3.8684   -3.2043    1.9304 H   0  0  0  0  0  0  0  0  0  0  0  0
   -5.3980   -0.2522   -0.1267 C   0  0  0  0  0  0  0  0  0  0  0  0
   -5.2460    0.6242    0.5322 H   0  0  0  0  0  0  0  0  0  0  0  0
   -6.3110   -0.7748    0.2266 H   0  0  0  0  0  0  0  0  0  0  0  0
   -5.5540    0.2030   -1.5777 C   0  0  0  0  0  0  0  0  0  0  0  0
   -6.4325    0.8711   -1.6830 H   0  0  0  0  0  0  0  0  0  0  0  0
   -5.6973   -0.6587   -2.2607 H   0  0  0  0  0  0  0  0  0  0  0  0
   -4.6516    0.7567   -1.9038 H   0  0  0  0  0  0  0  0  0  0  0  0
    0.0996    4.0501    0.0365 C   0  0  2  0  0  3  0  0  0  0  0  0
   -1.1775    4.6061    0.3261 C   0  0  0  0  0  0  0  0  0  0  0  0
   -1.4361    5.6689    0.3744 H   0  0  0  0  0  0  0  0  0  0  0  0
   -2.0450    3.5394    0.5448 C   0  0  0  0  0  0  0  0  0  0  0  0
    1.3867    4.7207   -0.3095 C   0  0  0  0  0  0  0  0  0  0  0  0
    2.2178    4.2393    0.2426 H   0  0  0  0  0  0  0  0  0  0  0  0
    1.3464    5.7983   -0.0659 H   0  0  0  0  0  0  0  0  0  0  0  0
    1.6037    4.6182   -1.3934 H   0  0  0  0  0  0  0  0  0  0  0  0
   -3.4940    3.5312    0.8950 C   0  0  0  0  0  0  0  0  0  0  0  0
   -3.8278    4.5662    1.0947 H   0  0  0  0  0  0  0  0  0  0  0  0
   -3.6959    2.9121    1.7916 H   0  0  0  0  0  0  0  0  0  0  0  0
   -4.1033    3.1061    0.0732 H   0  0  0  0  0  0  0  0  0  0  0  0
   -0.5633    0.2582    0.8775 N   0  0  0  0  0  4  0  0  0  0  0  0
    1.3441   -1.4896    1.6420 N   0  0  0  0  0  0  0  0  0  0  0  0
    0.0143    2.7139    0.0830 N   0  0  0  0  0  2  0  0  0  0  0  0
    0.2488   -1.9281    0.9512 N   0  0  0  0  0  0  0  0  0  0  0  0
   -1.2769    2.4022    0.3994 N   0  0  0  0  0  0  0  0  0  0  0  0
   -2.0248   -1.5861    0.4968 N   0  0  0  0  0  0  0  0  0  0  0  0
   -2.8491    0.6617    0.2932 N   0  0  0  0  0  2  0  0  0  0  0  0
   -4.2736   -1.1682    0.0675 N   0  0  0  0  0  0  0  0  0  0  0  0
  1 43  2  0  0  0  0
  1  5  1  0  0  0  0
  2  1  1  0  0  0  0
  3  2  1  0  0  0  0
  4  2  2  0  0  0  0
  4 45  1  0  0  0  0
  5  6  1  0  0  0  0
  5  8  1  0  0  0  0
  7  5  1  0  0  0  0
  9 12  1  0  0  0  0
  9  4  1  0  0  0  0
 10  9  1  0  0  0  0
 11  9  1  0  0  0  0
 13 42  2  0  0  0  0
 13 45  1  0  0  0  0
 14 47  2  0  0  0  0
 15 42  2  0  0  0  0
 16 49  1  0  0  0  0
 16 19  1  0  0  0  0
 17 16  1  0  0  0  0
 18 16  1  0  0  0  0
 19 21  1  0  0  0  0
 19 22  1  0  0  0  0
 20 19  1  0  0  0  0
 23 49  1  0  0  0  0
 23 25  1  0  0  0  0
 23 24  1  0  0  0  0
 26 23  1  0  0  0  0
 27 26  1  0  0  0  0
 28 26  1  0  0  0  0
 29 26  1  0  0  0  0
 30 34  1  6  0  0  0
 30 44  1  0  0  0  0
 30 31  1  0  0  0  0
 31 32  1  0  0  0  0
 31 33  2  0  0  0  0
 33 38  1  0  0  0  0
 34 36  1  0  0  0  0
 34 35  1  0  0  0  0
 37 34  1  0  0  0  0
 38 39  1  0  0  0  0
 38 40  1  0  0  0  0
 41 38  1  0  0  0  0
 44 46  1  0  0  0  0
 45 43  1  0  0  0  0
 46 33  1  0  0  0  0
 46 15  1  0  0  0  0
 47 13  1  0  0  0  0
 48 14  1  0  0  0  0
 48 15  1  0  0  0  0
 49 14  1  0  0  0  0
M  END
