1
q = 0.0, confidence = 1.0

 27 29  0  0  0  0  0  0  0  0999 V2000
    2.2772   -1.2211   -0.7560 N   0  0  0  0  0  2  0  0  0  0  0  0
    3.0782    0.7610   -1.4157 N   0  0  0  0  0  0  0  0  0  0  0  0
    2.1610    3.0375   -1.2948 C   0  0  0  0  0  0  0  0  0  0  0  0
    3.1737   -0.7798    0.2102 C   0  0  0  0  0  0  0  0  0  0  0  0
    2.2336   -0.2826   -1.6864 C   0  0  0  0  0  3  0  0  0  0  0  0
    1.5906   -0.3467   -2.5764 H   0  0  0  0  0  0  0  0  0  0  0  0
    3.5840   -1.3797    1.4137 C   0  0  0  0  0  0  0  0  0  0  0  0
    3.1768   -2.3642    1.6918 H   0  0  0  0  0  0  0  0  0  0  0  0
    3.6812    0.4889   -0.1864 C   0  0  0  0  0  0  0  0  0  0  0  0
    0.3129    3.3350    0.0486 C   0  0  0  0  0  0  0  0  0  0  0  0
   -0.5262    2.8592    0.5859 H   0  0  0  0  0  0  0  0  0  0  0  0
    1.0998    2.5137   -0.6608 N   0  0  0  0  0  0  0  0  0  0  0  0
    3.0379    2.0529   -2.0644 C   0  0  0  0  0  0  0  0  0  0  0  0
    2.6340    1.9059   -3.0879 H   0  0  0  0  0  0  0  0  0  0  0  0
    4.0660    2.4526   -2.1768 H   0  0  0  0  0  0  0  0  0  0  0  0
    2.4680    4.4101   -1.2605 C   0  0  0  0  0  0  0  0  0  0  0  0
    3.3536    4.7983   -1.7872 H   0  0  0  0  0  0  0  0  0  0  0  0
    4.9868    0.6038    1.8058 C   0  0  0  0  0  0  0  0  0  0  0  0
    5.6976    1.1310    2.4598 H   0  0  0  0  0  0  0  0  0  0  0  0
    4.4962   -0.6658    2.1999 C   0  0  0  0  0  0  0  0  0  0  0  0
    4.8410   -1.0981    3.1512 H   0  0  0  0  0  0  0  0  0  0  0  0
    4.5892    1.2083    0.6048 C   0  0  0  0  0  0  0  0  0  0  0  0
    4.9670    2.1977    0.3092 H   0  0  0  0  0  0  0  0  0  0  0  0
    0.5303    4.7195    0.1435 C   0  0  0  0  0  0  0  0  0  0  0  0
   -0.1424    5.3493    0.7442 H   0  0  0  0  0  0  0  0  0  0  0  0
    1.6294    5.2665   -0.5334 C   0  0  0  0  0  0  0  0  0  0  0  0
    1.8423    6.3451   -0.4828 H   0  0  0  0  0  0  0  0  0  0  0  0
  1  4  1  0  0  0  0
  2  9  1  0  0  0  0
  3 16  2  0  0  0  0
  3 12  1  0  0  0  0
  4  7  1  0  0  0  0
  5  2  1  0  0  0  0
  5  1  1  0  0  0  0
  6  5  1  0  0  0  0
  7  8  1  0  0  0  0
  7 20  2  0  0  0  0
  9  4  2  0  0  0  0
  9 22  1  0  0  0  0
 10 24  1  0  0  0  0
 10 11  1  0  0  0  0
 12 10  2  0  0  0  0
 13  2  1  0  0  0  0
 13  3  1  0  0  0  0
 14 13  1  0  0  0  0
 15 13  1  0  0  0  0
 16 26  1  0  0  0  0
 17 16  1  0  0  0  0
 18 20  1  0  0  0  0
 18 19  1  0  0  0  0
 20 21  1  0  0  0  0
 22 18  2  0  0  0  0
 23 22  1  0  0  0  0
 24 25  1  0  0  0  0
 26 27  1  0  0  0  0
 26 24  2  0  0  0  0
M  END
