2
q = 0.0, confidence = 0.994

 17 18  0  0  1  0  0  0  0  0999 V2000
    0.4579   -1.5671   -1.6390 O   0  0  0  0  0  0  0  0  0  0  0  0
    1.5915   -0.0973   -0.2163 N   0  0  0  0  0  2  0  0  0  0  0  0
    3.2471    0.8658    1.1499 N   0  0  0  0  0  0  0  0  0  0  0  0
    4.1812    0.7593    1.5479 H   0  0  0  0  0  0  0  0  0  0  0  0
    2.6525    1.7737    1.4058 H   0  0  0  0  0  0  0  0  0  0  0  0
    1.4446   -1.2712   -0.9843 C   0  0  0  0  0  0  0  0  0  0  0  0
    2.7186   -2.0604   -0.8394 C   0  0  0  0  0  0  0  0  0  0  0  0
    3.1088   -3.2829   -1.3814 C   0  0  0  0  0  0  0  0  0  0  0  0
    2.4300   -3.8425   -2.0420 H   0  0  0  0  0  0  0  0  0  0  0  0
    4.3913   -3.7640   -1.0497 C   0  0  0  0  0  0  0  0  0  0  0  0
    4.7360   -4.7268   -1.4566 H   0  0  0  0  0  0  0  0  0  0  0  0
    5.2427   -3.0302   -0.2027 C   0  0  0  0  0  0  0  0  0  0  0  0
    6.2390   -3.4286    0.0405 H   0  0  0  0  0  0  0  0  0  0  0  0
    4.8395   -1.7929    0.3393 C   0  0  0  0  0  0  0  0  0  0  0  0
    5.5170   -1.2303    1.0006 H   0  0  0  0  0  0  0  0  0  0  0  0
    3.5662   -1.3253    0.0058 C   0  0  0  0  0  0  0  0  0  0  0  0
    2.8039   -0.0966    0.3705 C   0  0  2  0  0  3  0  0  0  0  0  0
  1  6  2  0  0  0  0
  2 17  1  0  0  0  0
  3  5  1  0  0  0  0
  3  4  1  0  0  0  0
  6  7  1  0  0  0  0
  6  2  1  0  0  0  0
  7 16  1  0  0  0  0
  8 10  1  0  0  0  0
  8  7  2  0  0  0  0
  9  8  1  0  0  0  0
 10 12  2  0  0  0  0
 11 10  1  0  0  0  0
 12 13  1  0  0  0  0
 12 14  1  0  0  0  0
 14 15  1  0  0  0  0
 16 14  2  0  0  0  0
 16 17  1  0  0  0  0
 17  3  1  6  0  0  0
M  END
