4
q = 0.0, confidence = 0.99

 18 18  0  0  0  0  0  0  0  0999 V2000
   -2.9830   -0.4740    0.1164 C   0  0  0  0  0  0  0  0  0  0  0  0
   -5.2775    0.2073   -0.2828 C   0  0  0  0  0  0  0  0  0  0  0  0
   -6.3003   -0.0510   -0.5947 H   0  0  0  0  0  0  0  0  0  0  0  0
   -1.3107    1.1104    0.9199 N   0  0  0  0  0  0  0  0  0  0  0  0
   -1.1654    0.8252    1.9063 H   0  0  0  0  0  0  0  0  0  0  0  0
   -1.1055    2.1144    0.8433 H   0  0  0  0  0  0  0  0  0  0  0  0
   -1.9346   -1.3554    0.1246 O   0  0  0  0  0  0  0  0  0  0  0  0
   -4.9639    1.5227    0.0806 C   0  0  0  0  0  0  0  0  0  0  0  0
   -5.7334    2.3074    0.0570 H   0  0  0  0  0  0  0  0  0  0  0  0
   -4.2931   -0.7956   -0.2685 C   0  0  0  0  0  0  0  0  0  0  0  0
   -4.5470   -1.8163   -0.5806 H   0  0  0  0  0  0  0  0  0  0  0  0
   -2.2112   -2.7431   -0.0994 C   0  0  0  0  0  0  0  0  0  0  0  0
   -2.9590   -3.1012    0.6367 H   0  0  0  0  0  0  0  0  0  0  0  0
   -1.2504   -3.2675    0.0340 H   0  0  0  0  0  0  0  0  0  0  0  0
   -2.5765   -2.9018   -1.1349 H   0  0  0  0  0  0  0  0  0  0  0  0
   -2.6677    0.8454    0.5133 C   0  0  0  0  0  0  0  0  0  0  0  0
   -3.6546    1.8351    0.4828 C   0  0  0  0  0  0  0  0  0  0  0  0
   -3.3921    2.8621    0.7817 H   0  0  0  0  0  0  0  0  0  0  0  0
  1  7  1  0  0  0  0
  1 16  1  0  0  0  0
  2 10  1  0  0  0  0
  2  8  2  0  0  0  0
  3  2  1  0  0  0  0
  4  5  1  0  0  0  0
  6  4  1  0  0  0  0
  8 17  1  0  0  0  0
  9  8  1  0  0  0  0
 10  1  2  0  0  0  0
 11 10  1  0  0  0  0
 12 14  1  0  0  0  0
 12  7  1  0  0  0  0
 12 13  1  0  0  0  0
 15 12  1  0  0  0  0
 16  4  1  0  0  0  0
 17 16  2  0  0  0  0
 17 18  1  0  0  0  0
M  END
