1
q = -1.0

 22 22  0  0  0  0  0  0  0  0999 V2000
   -0.9630    1.2922    0.2480 N   0  0  0  0  0  2  0  0  0  0  0  0
   -1.9064    2.2763    0.4209 C   0  0  0  0  0  0  0  0  0  0  0  0
   -2.2583    4.5719    0.8317 C   0  0  0  0  0  0  0  0  0  0  0  0
   -2.9058    4.7071   -0.0597 H   0  0  0  0  0  0  0  0  0  0  0  0
   -1.6518    5.4812    1.0023 H   0  0  0  0  0  0  0  0  0  0  0  0
   -2.9204    4.3855    1.7029 H   0  0  0  0  0  0  0  0  0  0  0  0
   -3.1248    2.1322    0.3954 O   0  0  0  0  0  0  0  0  0  0  0  0
   -1.3310    3.5088    0.6457 O   0  0  0  0  0  0  0  0  0  0  0  0
    0.4027    1.6931    0.2375 C   0  0  0  0  0  0  0  0  0  0  0  0
    1.2134    1.5765    1.3846 C   0  0  0  0  0  0  0  0  0  0  0  0
    0.7475    1.2515    2.3262 H   0  0  0  0  0  0  0  0  0  0  0  0
    2.5861    1.8543    1.3292 C   0  0  0  0  0  0  0  0  0  0  0  0
    3.1980    1.7353    2.2383 H   0  0  0  0  0  0  0  0  0  0  0  0
    3.2010    2.2715    0.1323 C   0  0  0  0  0  0  0  0  0  0  0  0
    2.3749    2.4505   -0.9973 C   0  0  0  0  0  0  0  0  0  0  0  0
    2.8205    2.8067   -1.9404 H   0  0  0  0  0  0  0  0  0  0  0  0
    1.0034    2.1769   -0.9447 C   0  0  0  0  0  0  0  0  0  0  0  0
    0.3680    2.3203   -1.8310 H   0  0  0  0  0  0  0  0  0  0  0  0
    4.6918    2.4839    0.0546 C   0  0  0  0  0  0  0  0  0  0  0  0
    5.0995    2.8881    1.0029 H   0  0  0  0  0  0  0  0  0  0  0  0
    4.9660    3.1810   -0.7618 H   0  0  0  0  0  0  0  0  0  0  0  0
    5.2212    1.5246   -0.1407 H   0  0  0  0  0  0  0  0  0  0  0  0
  1  2  1  0  0  0  0
  2  8  1  0  0  0  0
  3  5  1  0  0  0  0
  3  6  1  0  0  0  0
  4  3  1  0  0  0  0
  7  2  2  0  0  0  0
  8  3  1  0  0  0  0
  9  1  1  0  0  0  0
  9 10  1  0  0  0  0
 10 11  1  0  0  0  0
 12 10  2  0  0  0  0
 12 13  1  0  0  0  0
 14 12  1  0  0  0  0
 15 17  1  0  0  0  0
 15 14  2  0  0  0  0
 16 15  1  0  0  0  0
 17  9  2  0  0  0  0
 18 17  1  0  0  0  0
 19 14  1  0  0  0  0
 19 20  1  0  0  0  0
 21 19  1  0  0  0  0
 22 19  1  0  0  0  0
M  END
