3
q = -1.0

 33 34  0  0  0  0  0  0  0  0999 V2000
    1.0442   -1.8317    0.8016 N   0  0  0  0  0  2  0  0  0  0  0  0
    0.2165   -2.7502    0.4521 N   0  0  0  0  0  2  0  0  0  0  0  0
   -0.8805   -2.2235   -0.0173 N   0  0  0  0  0  2  0  0  0  0  0  0
    2.5738    0.1546    1.6502 O   0  0  0  0  0  0  0  0  0  0  0  0
   -2.9279   -1.0150   -1.2262 O   0  0  0  0  0  0  0  0  0  0  0  0
    2.3513   -2.1487    1.1395 C   0  0  0  0  0  0  0  0  0  0  0  0
    3.1814   -1.0536    1.5489 C   0  0  0  0  0  0  0  0  0  0  0  0
    4.5465   -1.2790    1.8053 C   0  0  0  0  0  0  0  0  0  0  0  0
    5.1941   -0.4439    2.1027 H   0  0  0  0  0  0  0  0  0  0  0  0
    5.0893   -2.5706    1.6872 C   0  0  0  0  0  0  0  0  0  0  0  0
    6.1585   -2.7265    1.8956 H   0  0  0  0  0  0  0  0  0  0  0  0
    4.2760   -3.6504    1.3085 C   0  0  0  0  0  0  0  0  0  0  0  0
    4.7017   -4.6609    1.2173 H   0  0  0  0  0  0  0  0  0  0  0  0
    2.9198   -3.4372    1.0328 C   0  0  0  0  0  0  0  0  0  0  0  0
    2.2671   -4.2597    0.7085 H   0  0  0  0  0  0  0  0  0  0  0  0
    3.3584    1.2873    1.9821 C   0  0  0  0  0  0  0  0  0  0  0  0
    2.6701    2.1515    1.9688 H   0  0  0  0  0  0  0  0  0  0  0  0
    4.1623    1.4639    1.2343 H   0  0  0  0  0  0  0  0  0  0  0  0
    3.8099    1.1900    2.9949 H   0  0  0  0  0  0  0  0  0  0  0  0
   -1.9703   -3.0073   -0.3678 C   0  0  0  0  0  0  0  0  0  0  0  0
   -3.0734   -2.3555   -1.0079 C   0  0  0  0  0  0  0  0  0  0  0  0
   -4.2098   -3.0954   -1.3710 C   0  0  0  0  0  0  0  0  0  0  0  0
   -5.0552   -2.5971   -1.8639 H   0  0  0  0  0  0  0  0  0  0  0  0
   -4.2681   -4.4777   -1.1181 C   0  0  0  0  0  0  0  0  0  0  0  0
   -5.1646   -5.0435   -1.4119 H   0  0  0  0  0  0  0  0  0  0  0  0
   -3.1895   -5.1246   -0.4976 C   0  0  0  0  0  0  0  0  0  0  0  0
   -3.2321   -6.2055   -0.2970 H   0  0  0  0  0  0  0  0  0  0  0  0
   -2.0538   -4.3959   -0.1221 C   0  0  0  0  0  0  0  0  0  0  0  0
   -1.2023   -4.8802    0.3746 H   0  0  0  0  0  0  0  0  0  0  0  0
   -3.9902   -0.2875   -1.8121 C   0  0  0  0  0  0  0  0  0  0  0  0
   -3.6636    0.7686   -1.8392 H   0  0  0  0  0  0  0  0  0  0  0  0
   -4.9229   -0.3635   -1.2098 H   0  0  0  0  0  0  0  0  0  0  0  0
   -4.2045   -0.6349   -2.8471 H   0  0  0  0  0  0  0  0  0  0  0  0
  1  6  1  0  0  0  0
  2  1  1  0  0  0  0
  3  2  1  0  0  0  0
  4 16  1  0  0  0  0
  5 21  1  0  0  0  0
  6  7  1  0  0  0  0
  7  4  1  0  0  0  0
  7  8  2  0  0  0  0
  8  9  1  0  0  0  0
 10  8  1  0  0  0  0
 10 11  1  0  0  0  0
 12 10  2  0  0  0  0
 13 12  1  0  0  0  0
 14  6  2  0  0  0  0
 14 12  1  0  0  0  0
 15 14  1  0  0  0  0
 16 19  1  0  0  0  0
 17 16  1  0  0  0  0
 18 16  1  0  0  0  0
 20 28  1  0  0  0  0
 20  3  1  0  0  0  0
 21 20  2  0  0  0  0
 22 24  2  0  0  0  0
 22 21  1  0  0  0  0
 23 22  1  0  0  0  0
 24 26  1  0  0  0  0
 25 24  1  0  0  0  0
 26 27  1  0  0  0  0
 26 28  2  0  0  0  0
 28 29  1  0  0  0  0
 30  5  1  0  0  0  0
 30 32  1  0  0  0  0
 31 30  1  0  0  0  0
 33 30  1  0  0  0  0
M  END
