1
q = -1.0

 14 14  0  0  0  0  0  0  0  0999 V2000
   -0.0206    1.2659   -0.9477 N   0  0  0  0  0  2  0  0  0  0  0  0
   -0.0866    2.1862    0.0854 C   0  0  0  0  0  0  0  0  0  0  0  0
    0.0204    1.6453   -2.2436 C   0  0  0  0  0  0  0  0  0  0  0  0
    0.0730    0.8270   -2.9796 H   0  0  0  0  0  0  0  0  0  0  0  0
   -0.0014    2.9826   -2.6311 C   0  0  0  0  0  0  0  0  0  0  0  0
    0.0318    3.2471   -3.6964 H   0  0  0  0  0  0  0  0  0  0  0  0
   -0.0636    3.9582   -1.6180 C   0  0  0  0  0  0  0  0  0  0  0  0
   -0.0786    5.0370   -1.8387 H   0  0  0  0  0  0  0  0  0  0  0  0
   -0.1031    3.5858   -0.2789 C   0  0  0  0  0  0  0  0  0  0  0  0
   -0.1257    1.7715    1.2884 O   0  0  0  0  0  0  0  0  0  0  0  0
   -0.1781    3.1729    1.9768 H   0  0  0  0  0  0  0  0  0  0  0  0
   -0.1517    4.6529    0.7828 C   0  0  0  0  0  0  0  0  0  0  0  0
   -0.1472    5.8438    0.5072 O   0  0  0  0  0  0  0  0  0  0  0  0
   -0.1940    4.1965    2.0407 O   0  0  0  0  0  0  0  0  0  0  0  0
  1  2  1  0  0  0  0
  2 10  2  0  0  0  0
  3  1  1  0  0  0  0
  4  3  1  0  0  0  0
  5  3  2  0  0  0  0
  5  7  1  0  0  0  0
  6  5  1  0  0  0  0
  7  9  2  0  0  0  0
  8  7  1  0  0  0  0
  9  2  1  0  0  0  0
  9 12  1  0  0  0  0
 11 14  1  0  0  0  0
 12 14  1  0  0  0  0
 13 12  2  0  0  0  0
M  END
