1
q = 0.0, confidence = 0.992

 14 14  0  0  0  0  0  0  0  0999 V2000
   -1.3619   -0.0360   -0.8750 N   0  0  0  0  0  2  0  0  0  0  0  0
   -2.3947    0.4324   -0.1511 C   0  0  0  0  0  3  0  0  0  0  0  0
   -3.3006    1.3619   -0.6799 C   0  0  0  0  0  0  0  0  0  0  0  0
   -3.1219    1.8107   -1.9992 C   0  0  0  0  0  0  0  0  0  0  0  0
   -2.0495    1.3058   -2.7442 C   0  0  0  0  0  0  0  0  0  0  0  0
   -1.1879    0.3780   -2.1453 C   0  0  0  0  0  0  0  0  0  0  0  0
   -0.3321   -0.0767   -2.6758 H   0  0  0  0  0  0  0  0  0  0  0  0
   -1.8773    1.6251   -3.7818 H   0  0  0  0  0  0  0  0  0  0  0  0
   -3.8157    2.5479   -2.4297 H   0  0  0  0  0  0  0  0  0  0  0  0
   -4.4764    1.8389    0.1448 C   0  0  0  0  0  0  0  0  0  0  0  0
   -4.2240    1.7484    1.4675 F   0  0  0  0  0  0  0  0  0  0  0  0
   -4.7746    3.1295   -0.1378 F   0  0  0  0  0  0  0  0  0  0  0  0
   -5.5815    1.1045   -0.1146 F   0  0  0  0  0  0  0  0  0  0  0  0
   -2.4878    0.0281    0.8725 H   0  0  0  0  0  0  0  0  0  0  0  0
  1  2  1  0  0  0  0
  2 14  1  0  0  0  0
  3  2  1  0  0  0  0
  3 10  1  0  0  0  0
  4  3  2  0  0  0  0
  5  6  2  0  0  0  0
  5  4  1  0  0  0  0
  6  1  1  0  0  0  0
  7  6  1  0  0  0  0
  8  5  1  0  0  0  0
  9  4  1  0  0  0  0
 10 11  1  0  0  0  0
 12 10  1  0  0  0  0
 13 10  1  0  0  0  0
M  END
