3
q = 0.0, confidence = 0.998

 29 29  0  0  1  0  0  0  0  0999 V2000
    2.8855   -0.3242    0.8299 O   0  0  0  0  0  0  0  0  0  0  0  0
    3.8843   -2.8355    0.0420 O   0  0  0  0  0  0  0  0  0  0  0  0
    1.0069    1.7316   -0.1512 N   0  0  0  0  0  2  0  0  0  0  0  0
    2.2218    1.9307    0.4209 N   0  0  0  0  0  0  0  0  0  0  0  0
    0.7201    2.8075   -0.9071 C   0  0  1  0  0  3  0  0  0  0  0  0
    1.7926    3.7286   -0.7983 C   0  0  0  0  0  0  0  0  0  0  0  0
    1.8721    4.7039   -1.2890 H   0  0  0  0  0  0  0  0  0  0  0  0
    2.7373    3.1452    0.0476 C   0  0  0  0  0  0  0  0  0  0  0  0
   -0.5261    2.8860   -1.7242 C   0  0  0  0  0  0  0  0  0  0  0  0
   -1.4298    2.6364   -1.1329 H   0  0  0  0  0  0  0  0  0  0  0  0
   -0.4761    2.1393   -2.5434 H   0  0  0  0  0  0  0  0  0  0  0  0
   -0.6420    3.8968   -2.1573 H   0  0  0  0  0  0  0  0  0  0  0  0
    4.0592    3.6559    0.5199 C   0  0  0  0  0  0  0  0  0  0  0  0
    4.8868    2.9572    0.2778 H   0  0  0  0  0  0  0  0  0  0  0  0
    4.0773    3.8289    1.6163 H   0  0  0  0  0  0  0  0  0  0  0  0
    4.2784    4.6200    0.0256 H   0  0  0  0  0  0  0  0  0  0  0  0
    2.7576    0.9469    1.3720 C   0  0  0  0  0  0  0  0  0  0  0  0
    3.7259    1.3671    1.7282 H   0  0  0  0  0  0  0  0  0  0  0  0
    2.0320    0.8559    2.2058 H   0  0  0  0  0  0  0  0  0  0  0  0
    3.8260   -0.4565   -0.2301 C   0  0  0  0  0  0  0  0  0  0  0  0
    4.8643   -0.3593    0.1708 H   0  0  0  0  0  0  0  0  0  0  0  0
    3.6638    0.3298   -1.0026 H   0  0  0  0  0  0  0  0  0  0  0  0
    3.6284   -1.8036   -0.8897 C   0  0  0  0  0  0  0  0  0  0  0  0
    2.5860   -1.8554   -1.2857 H   0  0  0  0  0  0  0  0  0  0  0  0
    4.3216   -1.8710   -1.7673 H   0  0  0  0  0  0  0  0  0  0  0  0
    3.6106   -4.1101   -0.4854 C   0  0  0  0  0  0  0  0  0  0  0  0
    3.8338   -4.8569    0.3018 H   0  0  0  0  0  0  0  0  0  0  0  0
    4.2398   -4.3404   -1.3812 H   0  0  0  0  0  0  0  0  0  0  0  0
    2.5402   -4.2187   -0.7885 H   0  0  0  0  0  0  0  0  0  0  0  0
  1 17  1  0  0  0  0
  3  4  1  0  0  0  0
  4 17  1  0  0  0  0
  5  9  1  6  0  0  0
  5  6  1  0  0  0  0
  5  3  1  0  0  0  0
  6  8  2  0  0  0  0
  7  6  1  0  0  0  0
  8  4  1  0  0  0  0
  8 13  1  0  0  0  0
  9 10  1  0  0  0  0
 11  9  1  0  0  0  0
 12  9  1  0  0  0  0
 13 15  1  0  0  0  0
 14 13  1  0  0  0  0
 16 13  1  0  0  0  0
 17 18  1  0  0  0  0
 17 19  1  0  0  0  0
 20 21  1  0  0  0  0
 20  1  1  0  0  0  0
 22 20  1  0  0  0  0
 23 20  1  0  0  0  0
 23  2  1  0  0  0  0
 24 23  1  0  0  0  0
 25 23  1  0  0  0  0
 26  2  1  0  0  0  0
 26 27  1  0  0  0  0
 28 26  1  0  0  0  0
 29 26  1  0  0  0  0
M  END
