2
q = -1.0, confidence = 0.0

 18 18  0  0  0  0  0  0  0  0999 V2000
   -0.0594    0.4507    2.5635 O   0  0  0  0  0  0  0  0  0  0  0  0
    1.2996    0.1454    0.7695 N   0  0  0  0  0  2  0  0  0  0  0  0
    1.0963    0.3567    2.1107 C   0  0  0  0  0  0  0  0  0  0  0  0
    2.3047    0.4531    3.0269 C   0  0  0  0  0  0  0  0  0  0  0  0
    2.8715    1.3858    2.8339 H   0  0  0  0  0  0  0  0  0  0  0  0
    3.0092   -0.3851    2.8561 H   0  0  0  0  0  0  0  0  0  0  0  0
    1.9510    0.4516    4.0728 H   0  0  0  0  0  0  0  0  0  0  0  0
    2.5992    0.0782    0.2010 C   0  0  0  0  0  0  0  0  0  0  0  0
    3.1320   -1.1625   -0.2036 C   0  0  0  0  0  0  0  0  0  0  0  0
    2.5229   -2.0678   -0.0656 H   0  0  0  0  0  0  0  0  0  0  0  0
    4.4059   -1.2290   -0.7844 C   0  0  0  0  0  0  0  0  0  0  0  0
    4.8106   -2.2032   -1.0990 H   0  0  0  0  0  0  0  0  0  0  0  0
    5.1625   -0.0601   -0.9687 C   0  0  0  0  0  0  0  0  0  0  0  0
    6.1613   -0.1139   -1.4272 H   0  0  0  0  0  0  0  0  0  0  0  0
    4.6324    1.1791   -0.5743 C   0  0  0  0  0  0  0  0  0  0  0  0
    5.2137    2.1015   -0.7271 H   0  0  0  0  0  0  0  0  0  0  0  0
    3.3572    1.2507    0.0039 C   0  0  0  0  0  0  0  0  0  0  0  0
    2.9224    2.2192    0.2934 H   0  0  0  0  0  0  0  0  0  0  0  0
  2  3  1  0  0  0  0
  3  1  2  0  0  0  0
  3  4  1  0  0  0  0
  4  7  1  0  0  0  0
  5  4  1  0  0  0  0
  6  4  1  0  0  0  0
  8  2  1  0  0  0  0
  9 10  1  0  0  0  0
  9  8  2  0  0  0  0
 11  9  1  0  0  0  0
 12 11  1  0  0  0  0
 13 11  2  0  0  0  0
 13 15  1  0  0  0  0
 14 13  1  0  0  0  0
 15 17  2  0  0  0  0
 16 15  1  0  0  0  0
 17  8  1  0  0  0  0
 17 18  1  0  0  0  0
M  END
