3
q = -1.0

 24 23  0  0  0  0  0  0  0  0999 V2000
    0.2555    1.3356    2.1307 O   0  0  0  0  0  0  0  0  0  0  0  0
    1.8813    2.0439    0.6972 O   0  0  0  0  0  0  0  0  0  0  0  0
   -1.5847    1.3093    0.0124 N   0  0  0  0  0  0  0  0  0  0  0  0
   -2.5361    2.2045   -0.6883 C   0  0  0  0  0  0  0  0  0  0  0  0
   -2.4015    3.6413   -0.1762 C   0  0  0  0  0  0  0  0  0  0  0  0
   -3.9532    1.6593   -0.5372 C   0  0  0  0  0  0  0  0  0  0  0  0
   -0.1793    1.4276   -0.2178 C   0  0  0  0  0  3  0  0  0  0  0  0
    0.6415    1.6036    0.9848 C   0  0  0  0  0  0  0  0  0  0  0  0
    2.8333    2.0429    1.7845 C   0  0  0  0  0  0  0  0  0  0  0  0
    4.2236    2.0951    1.1875 C   0  0  0  0  0  0  0  0  0  0  0  0
   -1.7661    1.2785    1.0308 H   0  0  0  0  0  0  0  0  0  0  0  0
   -2.2448    2.1627   -1.7592 H   0  0  0  0  0  0  0  0  0  0  0  0
   -3.0653    4.3224   -0.7444 H   0  0  0  0  0  0  0  0  0  0  0  0
   -1.3614    4.0095   -0.2793 H   0  0  0  0  0  0  0  0  0  0  0  0
   -2.6853    3.7073    0.8954 H   0  0  0  0  0  0  0  0  0  0  0  0
   -4.6750    2.3076   -1.0709 H   0  0  0  0  0  0  0  0  0  0  0  0
   -4.2531    1.6347    0.5322 H   0  0  0  0  0  0  0  0  0  0  0  0
   -4.0343    0.6340   -0.9443 H   0  0  0  0  0  0  0  0  0  0  0  0
    0.1225    2.0178   -1.0954 H   0  0  0  0  0  0  0  0  0  0  0  0
    2.6766    1.1267    2.3857 H   0  0  0  0  0  0  0  0  0  0  0  0
    2.6215    2.9189    2.4355 H   0  0  0  0  0  0  0  0  0  0  0  0
    4.9803    2.1457    1.9957 H   0  0  0  0  0  0  0  0  0  0  0  0
    4.3521    2.9830    0.5365 H   0  0  0  0  0  0  0  0  0  0  0  0
    4.4108    1.1827    0.5891 H   0  0  0  0  0  0  0  0  0  0  0  0
  2  8  1  0  0  0  0
  2  9  1  0  0  0  0
  3 11  1  0  0  0  0
  4  6  1  0  0  0  0
  4  5  1  0  0  0  0
  4  3  1  0  0  0  0
  5 15  1  0  0  0  0
  6 17  1  0  0  0  0
  7  3  1  0  0  0  0
  7  8  1  0  0  0  0
  8  1  2  0  0  0  0
  9 20  1  0  0  0  0
  9 21  1  0  0  0  0
 10  9  1  0  0  0  0
 10 22  1  0  0  0  0
 12  4  1  0  0  0  0
 13  5  1  0  0  0  0
 14  5  1  0  0  0  0
 16  6  1  0  0  0  0
 18  6  1  0  0  0  0
 19  7  1  0  0  0  0
 23 10  1  0  0  0  0
 24 10  1  0  0  0  0
M  END
