1
q = 0.0, confidence = 0.998

 15 16  0  0  0  0  0  0  0  0999 V2000
    1.3732    0.9063    0.3923 N   0  0  0  0  0  2  0  0  0  0  0  0
    2.4735    0.3449   -0.2017 C   0  0  0  0  0  0  0  0  0  0  0  0
    1.3074    2.1700   -0.0580 C   0  0  0  0  0  3  0  0  0  0  0  0
    2.9479   -0.9236   -0.0365 N   0  0  0  0  0  0  0  0  0  0  0  0
    3.0807    1.2762   -1.0403 C   0  0  0  0  0  0  0  0  0  0  0  0
    2.3156    2.4246   -0.9247 N   0  0  0  0  0  0  0  0  0  0  0  0
    0.5404    2.8864    0.2629 H   0  0  0  0  0  0  0  0  0  0  0  0
    4.0980   -1.3463   -0.7147 C   0  0  0  0  0  0  0  0  0  0  0  0
    2.5218   -1.5281    0.6989 H   0  0  0  0  0  0  0  0  0  0  0  0
    4.2683    0.9713   -1.8160 C   0  0  0  0  0  0  0  0  0  0  0  0
    2.5066    3.3034   -1.4104 H   0  0  0  0  0  0  0  0  0  0  0  0
    4.6552   -0.3661   -1.5679 N   0  0  0  0  0  0  0  0  0  0  0  0
    4.5804   -2.4572   -0.5920 O   0  0  0  0  0  0  0  0  0  0  0  0
    4.8742    1.7134   -2.5792 O   0  0  0  0  0  0  0  0  0  0  0  0
    5.4943   -0.6810   -2.0647 H   0  0  0  0  0  0  0  0  0  0  0  0
  2  4  1  0  0  0  0
  2  1  1  0  0  0  0
  3  7  1  0  0  0  0
  3  1  1  0  0  0  0
  4  9  1  0  0  0  0
  5  6  1  0  0  0  0
  5  2  2  0  0  0  0
  6  3  1  0  0  0  0
  8 13  2  0  0  0  0
  8  4  1  0  0  0  0
 10 12  1  0  0  0  0
 10  5  1  0  0  0  0
 11  6  1  0  0  0  0
 12  8  1  0  0  0  0
 14 10  2  0  0  0  0
 15 12  1  0  0  0  0
M  END
