2
q = -1.0

 38 40  0  0  0  0  0  0  0  0999 V2000
   -0.1254   -2.3112    0.2931 S   0  0  0  0  0  0  0  0  0  0  0  0
   -0.0047    0.7093   -0.6496 N   0  0  0  0  0  2  0  0  0  0  0  0
   -3.8824   -0.9674   -0.3388 C   0  0  0  0  0  0  0  0  0  0  0  0
   -5.1579   -1.4681   -0.2297 N   0  0  0  0  0  0  0  0  0  0  0  0
   -2.3716    0.8861   -0.8533 C   0  0  0  0  0  0  0  0  0  0  0  0
   -2.1886    1.9267   -1.1626 H   0  0  0  0  0  0  0  0  0  0  0  0
    1.1681    0.0163   -0.5126 C   0  0  0  0  0  0  0  0  0  0  0  0
   -2.7489   -1.7723   -0.0467 C   0  0  0  0  0  0  0  0  0  0  0  0
   -2.8721   -2.8158    0.2698 H   0  0  0  0  0  0  0  0  0  0  0  0
    1.2866   -1.3480   -0.1014 C   0  0  0  0  0  0  0  0  0  0  0  0
   -5.3657   -2.8308    0.2236 C   0  0  0  0  0  0  0  0  0  0  0  0
   -4.8852   -3.5696   -0.4557 H   0  0  0  0  0  0  0  0  0  0  0  0
   -6.4480   -3.0479    0.2497 H   0  0  0  0  0  0  0  0  0  0  0  0
   -4.9575   -2.9948    1.2457 H   0  0  0  0  0  0  0  0  0  0  0  0
   -3.6550    0.3870   -0.7533 C   0  0  0  0  0  0  0  0  0  0  0  0
   -4.4999    1.0448   -0.9894 H   0  0  0  0  0  0  0  0  0  0  0  0
    2.5380   -1.9633    0.0200 C   0  0  0  0  0  0  0  0  0  0  0  0
    2.5769   -3.0140    0.3346 H   0  0  0  0  0  0  0  0  0  0  0  0
   -1.4535   -1.2504   -0.1397 C   0  0  0  0  0  0  0  0  0  0  0  0
    2.3774    0.7210   -0.7918 C   0  0  0  0  0  0  0  0  0  0  0  0
    2.2790    1.7800   -1.0863 H   0  0  0  0  0  0  0  0  0  0  0  0
    3.7339   -1.2448   -0.2504 C   0  0  0  0  0  0  0  0  0  0  0  0
   -6.3047   -0.6252   -0.5218 C   0  0  0  0  0  0  0  0  0  0  0  0
   -6.3563    0.2575    0.1530 H   0  0  0  0  0  0  0  0  0  0  0  0
   -7.2303   -1.2118   -0.3855 H   0  0  0  0  0  0  0  0  0  0  0  0
   -6.2888   -0.2529   -1.5693 H   0  0  0  0  0  0  0  0  0  0  0  0
   -1.2246    0.0992   -0.5477 C   0  0  0  0  0  0  0  0  0  0  0  0
    3.6161    0.1235   -0.6651 C   0  0  0  0  0  0  0  0  0  0  0  0
    4.5124    0.7184   -0.8780 H   0  0  0  0  0  0  0  0  0  0  0  0
    4.9656   -1.8392   -0.1164 N   0  0  0  0  0  0  0  0  0  0  0  0
    5.0634   -3.2110    0.3466 C   0  0  0  0  0  0  0  0  0  0  0  0
    4.6193   -3.3391    1.3587 H   0  0  0  0  0  0  0  0  0  0  0  0
    6.1262   -3.5052    0.4010 H   0  0  0  0  0  0  0  0  0  0  0  0
    4.5478   -3.9174   -0.3414 H   0  0  0  0  0  0  0  0  0  0  0  0
    6.1775   -1.0882   -0.3986 C   0  0  0  0  0  0  0  0  0  0  0  0
    6.1982   -0.7158   -1.4458 H   0  0  0  0  0  0  0  0  0  0  0  0
    7.0531   -1.7456   -0.2557 H   0  0  0  0  0  0  0  0  0  0  0  0
    6.2926   -0.2121    0.2768 H   0  0  0  0  0  0  0  0  0  0  0  0
  2 27  1  0  0  0  0
  2  7  1  0  0  0  0
  3  4  1  0  0  0  0
  3  8  1  0  0  0  0
  4 11  1  0  0  0  0
  5 15  1  0  0  0  0
  5 27  2  0  0  0  0
  6  5  1  0  0  0  0
  7 10  1  0  0  0  0
  8  9  1  0  0  0  0
 10 17  2  0  0  0  0
 10  1  1  0  0  0  0
 11 13  1  0  0  0  0
 11 14  1  0  0  0  0
 12 11  1  0  0  0  0
 15  3  2  0  0  0  0
 16 15  1  0  0  0  0
 17 18  1  0  0  0  0
 19  8  2  0  0  0  0
 19  1  1  0  0  0  0
 20 28  1  0  0  0  0
 20  7  2  0  0  0  0
 21 20  1  0  0  0  0
 22 30  1  0  0  0  0
 22 17  1  0  0  0  0
 23 25  1  0  0  0  0
 23  4  1  0  0  0  0
 23 24  1  0  0  0  0
 26 23  1  0  0  0  0
 27 19  1  0  0  0  0
 28 22  2  0  0  0  0
 29 28  1  0  0  0  0
 30 31  1  0  0  0  0
 31 33  1  0  0  0  0
 31 32  1  0  0  0  0
 34 31  1  0  0  0  0
 35 37  1  0  0  0  0
 35 30  1  0  0  0  0
 35 38  1  0  0  0  0
 36 35  1  0  0  0  0
M  END
