2
q = 0.0, confidence = 0.992

 28 29  0  0  0  0  0  0  0  0999 V2000
    3.4542    2.3021   -0.1325 O   0  0  0  0  0  0  0  0  0  0  0  0
    1.3212    0.6145   -1.2138 N   0  0  0  0  0  0  0  0  0  0  0  0
    0.9790    0.3857   -2.1597 H   0  0  0  0  0  0  0  0  0  0  0  0
    1.3241    1.6442   -1.1024 H   0  0  0  0  0  0  0  0  0  0  0  0
    4.7431    0.3044   -0.1244 N   0  0  0  0  0  0  0  0  0  0  0  0
    4.5317   -1.0078   -0.5793 N   0  0  0  0  0  0  0  0  0  0  0  0
    2.6509    0.1745   -0.9579 C   0  0  0  0  0  0  0  0  0  0  0  0
    3.5934    1.0954   -0.3515 C   0  0  0  0  0  0  0  0  0  0  0  0
    3.2104   -1.0738   -1.0410 C   0  0  0  0  0  0  0  0  0  0  0  0
    2.5893   -2.3726   -1.4263 C   0  0  0  0  0  0  0  0  0  0  0  0
    2.3724   -2.9754   -0.5188 H   0  0  0  0  0  0  0  0  0  0  0  0
    3.2437   -2.9594   -2.1016 H   0  0  0  0  0  0  0  0  0  0  0  0
    1.6127   -2.2067   -1.9217 H   0  0  0  0  0  0  0  0  0  0  0  0
    4.9646   -2.0509    0.3620 C   0  0  0  0  0  0  0  0  0  0  0  0
    4.3264   -2.0568    1.2723 H   0  0  0  0  0  0  0  0  0  0  0  0
    6.0200   -1.8760    0.6393 H   0  0  0  0  0  0  0  0  0  0  0  0
    4.8972   -3.0303   -0.1450 H   0  0  0  0  0  0  0  0  0  0  0  0
    6.0558    0.7930    0.0517 C   0  0  0  0  0  0  0  0  0  0  0  0
    6.2630    1.9353    0.8539 C   0  0  0  0  0  0  0  0  0  0  0  0
    5.3998    2.4300    1.3157 H   0  0  0  0  0  0  0  0  0  0  0  0
    7.5626    2.4302    1.0212 C   0  0  0  0  0  0  0  0  0  0  0  0
    7.7185    3.3245    1.6434 H   0  0  0  0  0  0  0  0  0  0  0  0
    8.6597    1.7950    0.4164 C   0  0  0  0  0  0  0  0  0  0  0  0
    9.6777    2.1854    0.5633 H   0  0  0  0  0  0  0  0  0  0  0  0
    8.4453    0.6614   -0.3827 C   0  0  0  0  0  0  0  0  0  0  0  0
    9.2942    0.1631   -0.8753 H   0  0  0  0  0  0  0  0  0  0  0  0
    7.1501    0.1635   -0.5792 C   0  0  0  0  0  0  0  0  0  0  0  0
    6.9714   -0.6974   -1.2385 H   0  0  0  0  0  0  0  0  0  0  0  0
  2  4  1  0  0  0  0
  2  7  1  0  0  0  0
  3  2  1  0  0  0  0
  5 18  1  0  0  0  0
  6  5  1  0  0  0  0
  6 14  1  0  0  0  0
  7  8  1  0  0  0  0
  8  1  2  0  0  0  0
  8  5  1  0  0  0  0
  9  7  2  0  0  0  0
  9  6  1  0  0  0  0
 10  9  1  0  0  0  0
 10 11  1  0  0  0  0
 12 10  1  0  0  0  0
 13 10  1  0  0  0  0
 14 16  1  0  0  0  0
 14 15  1  0  0  0  0
 17 14  1  0  0  0  0
 18 19  1  0  0  0  0
 19 21  2  0  0  0  0
 19 20  1  0  0  0  0
 21 22  1  0  0  0  0
 23 24  1  0  0  0  0
 23 21  1  0  0  0  0
 25 23  2  0  0  0  0
 26 25  1  0  0  0  0
 27 25  1  0  0  0  0
 27 18  2  0  0  0  0
 28 27  1  0  0  0  0
M  END
