1
q = -2.0, confidence = 0.86

 45 53  0  0  1  0  0  0  0  0999 V2000
   -0.8324    1.4558   -0.0000 N   0  0  0  0  0  2  0  0  0  0  0  0
    2.1028   -0.2319    0.0000 C   0  0  2  0  0  0  0  0  0  0  0  0
    0.8367   -1.3718    0.0000 C   0  0  2  0  0  0  0  0  0  0  0  0
    1.9094    1.3172    0.0000 C   0  0  0  0  0  0  0  0  0  0  0  0
    2.9513    1.6856    0.0000 H   0  0  0  0  0  0  0  0  0  0  0  0
    1.2193    1.8945   -1.2227 C   0  0  0  0  0  0  0  0  0  0  0  0
    1.9088    2.4104   -2.3305 C   0  0  0  0  0  0  0  0  0  0  0  0
    3.0053    2.3209   -2.3720 H   0  0  0  0  0  0  0  0  0  0  0  0
    1.2078    3.0333   -3.3749 C   0  0  0  0  0  0  0  0  0  0  0  0
    1.7526    3.4261   -4.2459 H   0  0  0  0  0  0  0  0  0  0  0  0
   -0.1864    3.1840   -3.2855 C   0  0  0  0  0  0  0  0  0  0  0  0
   -0.7356    3.7123   -4.0796 H   0  0  0  0  0  0  0  0  0  0  0  0
   -0.8839    2.6853   -2.1752 C   0  0  0  0  0  0  0  0  0  0  0  0
   -1.9684    2.8321   -2.0784 H   0  0  0  0  0  0  0  0  0  0  0  0
   -0.1903    1.9983   -1.1627 C   0  0  0  0  0  0  0  0  0  0  0  0
    1.7944   -1.1298   -1.4174 B   0  0  2  0  0  0  0  0  0  0  0  0
    1.3157   -0.5721   -2.3677 H   0  0  0  0  0  0  0  0  0  0  0  0
    3.4581   -0.7791   -0.8875 B   0  0  2  0  0  0  0  0  0  0  0  0
    4.0800    0.0612   -1.4922 H   0  0  0  0  0  0  0  0  0  0  0  0
    1.4042   -2.7624   -0.8745 B   0  0  1  0  0  0  0  0  0  0  0  0
    0.6138   -3.4440   -1.4759 H   0  0  0  0  0  0  0  0  0  0  0  0
    3.0472   -2.4038   -1.4473 B   0  0  2  0  0  0  0  0  0  0  0  0
    3.4485   -2.8244   -2.5077 H   0  0  0  0  0  0  0  0  0  0  0  0
    4.0810   -2.1882    0.0000 B   0  0  2  0  0  0  0  0  0  0  0  0
    5.2642   -2.4401    0.0000 H   0  0  0  0  0  0  0  0  0  0  0  0
    2.8048   -3.4216    0.0000 B   0  0  0  0  0  0  0  0  0  0  0  0
    3.0134   -4.6132    0.0000 H   0  0  0  0  0  0  0  0  0  0  0  0
    1.2193    1.8945    1.2227 C   0  0  0  0  0  0  0  0  0  0  0  0
    1.9088    2.4104    2.3305 C   0  0  0  0  0  0  0  0  0  0  0  0
    3.0052    2.3210    2.3720 H   0  0  0  0  0  0  0  0  0  0  0  0
    1.2078    3.0333    3.3749 C   0  0  0  0  0  0  0  0  0  0  0  0
    1.7526    3.4261    4.2459 H   0  0  0  0  0  0  0  0  0  0  0  0
   -0.1864    3.1840    3.2855 C   0  0  0  0  0  0  0  0  0  0  0  0
   -0.7356    3.7123    4.0795 H   0  0  0  0  0  0  0  0  0  0  0  0
   -0.8840    2.6853    2.1752 C   0  0  0  0  0  0  0  0  0  0  0  0
   -1.9684    2.8321    2.0784 H   0  0  0  0  0  0  0  0  0  0  0  0
   -0.1903    1.9983    1.1627 C   0  0  0  0  0  0  0  0  0  0  0  0
    1.7944   -1.1298    1.4174 B   0  0  1  0  0  0  0  0  0  0  0  0
    1.3157   -0.5721    2.3677 H   0  0  0  0  0  0  0  0  0  0  0  0
    3.4581   -0.7791    0.8875 B   0  0  2  0  0  0  0  0  0  0  0  0
    4.0800    0.0612    1.4922 H   0  0  0  0  0  0  0  0  0  0  0  0
    1.4042   -2.7624    0.8745 B   0  0  1  0  0  0  0  0  0  0  0  0
    0.6137   -3.4440    1.4759 H   0  0  0  0  0  0  0  0  0  0  0  0
    3.0472   -2.4038    1.4473 B   0  0  0  0  0  2  0  0  0  0  0  0
    3.4485   -2.8244    2.5077 H   0  0  0  0  0  0  0  0  0  0  0  0
  1 37  1  0  0  0  0
  2  4  1  1  0  0  0
  2 38  1  0  0  0  0
  3  2  1  0  0  0  0
  3 42  1  0  0  0  0
  3 38  1  0  0  0  0
  4  5  1  0  0  0  0
  4 28  1  0  0  0  0
  6 15  1  0  0  0  0
  6  4  1  0  0  0  0
  7  6  2  0  0  0  0
  8  7  1  0  0  0  0
  9 11  2  0  0  0  0
  9  7  1  0  0  0  0
 10  9  1  0  0  0  0
 11 13  1  0  0  0  0
 12 11  1  0  0  0  0
 13 14  1  0  0  0  0
 13 15  2  0  0  0  0
 15  1  1  0  0  0  0
 16 20  1  0  0  0  0
 16  3  1  0  0  0  0
 16  2  1  0  0  0  0
 17 16  1  0  0  0  0
 18 24  1  0  0  0  0
 18 40  1  0  0  0  0
 19 18  1  0  0  0  0
 20 42  1  0  0  0  0
 21 20  1  0  0  0  0
 22 18  1  0  0  0  0
 22 20  1  0  0  0  0
 22 26  1  0  0  0  0
 23 22  1  0  0  0  0
 24 25  1  0  0  0  0
 24 40  1  0  0  0  0
 26 24  1  0  0  0  0
 27 26  1  0  0  0  0
 28 29  1  0  0  0  0
 29 30  1  0  0  0  0
 29 31  2  0  0  0  0
 31 32  1  0  0  0  0
 33 31  1  0  0  0  0
 33 34  1  0  0  0  0
 35 33  2  0  0  0  0
 36 35  1  0  0  0  0
 37 28  2  0  0  0  0
 37 35  1  0  0  0  0
 38 39  1  0  0  0  0
 40 44  1  0  0  0  0
 40 41  1  0  0  0  0
 42 38  1  0  0  0  0
 42 43  1  0  0  0  0
 44 45  1  0  0  0  0
M  END
