2
q = -1.0

 41 43  0  0  1  0  0  0  0  0999 V2000
    1.5746   -0.1726   -0.6612 P   0  0  0  0  0  0  0  0  0  0  0  0
    0.3946    0.0383    0.5328 N   0  0  0  0  0  2  0  0  0  0  0  0
    0.6220    0.7151    1.8173 C   0  0  2  0  0  0  0  0  0  0  0  0
    1.4853    1.4165    1.7413 H   0  0  0  0  0  0  0  0  0  0  0  0
    0.9431   -0.2905    2.9364 C   0  0  0  0  0  0  0  0  0  0  0  0
    0.1146   -1.0183    3.0524 H   0  0  0  0  0  0  0  0  0  0  0  0
    1.0994    0.2235    3.9069 H   0  0  0  0  0  0  0  0  0  0  0  0
    1.8590   -0.8588    2.6827 H   0  0  0  0  0  0  0  0  0  0  0  0
   -0.6073    1.5565    2.1408 C   0  0  0  0  0  0  0  0  0  0  0  0
   -0.5295    2.9579    2.2517 C   0  0  0  0  0  0  0  0  0  0  0  0
    0.4505    3.4508    2.1478 H   0  0  0  0  0  0  0  0  0  0  0  0
   -1.6793    3.7315    2.4858 C   0  0  0  0  0  0  0  0  0  0  0  0
   -1.5951    4.8263    2.5661 H   0  0  0  0  0  0  0  0  0  0  0  0
   -2.9310    3.1108    2.6210 C   0  0  0  0  0  0  0  0  0  0  0  0
   -3.8323    3.7135    2.8103 H   0  0  0  0  0  0  0  0  0  0  0  0
   -3.0199    1.7106    2.5308 C   0  0  0  0  0  0  0  0  0  0  0  0
   -3.9933    1.2103    2.6548 H   0  0  0  0  0  0  0  0  0  0  0  0
   -1.8696    0.9444    2.2930 C   0  0  0  0  0  0  0  0  0  0  0  0
   -1.9550   -0.1540    2.2313 H   0  0  0  0  0  0  0  0  0  0  0  0
    2.2116    1.4940   -1.1635 C   0  0  0  0  0  0  0  0  0  0  0  0
    3.3462    1.5899   -1.9997 C   0  0  0  0  0  0  0  0  0  0  0  0
    3.8947    0.6768   -2.2821 H   0  0  0  0  0  0  0  0  0  0  0  0
    3.7863    2.8368   -2.4653 C   0  0  0  0  0  0  0  0  0  0  0  0
    4.6733    2.8948   -3.1149 H   0  0  0  0  0  0  0  0  0  0  0  0
    3.1000    4.0102   -2.1061 C   0  0  0  0  0  0  0  0  0  0  0  0
    3.4480    4.9883   -2.4717 H   0  0  0  0  0  0  0  0  0  0  0  0
    1.9700    3.9252   -1.2787 C   0  0  0  0  0  0  0  0  0  0  0  0
    1.4270    4.8381   -0.9871 H   0  0  0  0  0  0  0  0  0  0  0  0
    1.5281    2.6759   -0.8133 C   0  0  0  0  0  0  0  0  0  0  0  0
    0.6403    2.6121   -0.1679 H   0  0  0  0  0  0  0  0  0  0  0  0
    3.0958   -0.8786    0.1348 C   0  0  0  0  0  0  0  0  0  0  0  0
    3.2548   -2.2799    0.1278 C   0  0  0  0  0  0  0  0  0  0  0  0
    2.5286   -2.8966   -0.4231 H   0  0  0  0  0  0  0  0  0  0  0  0
    4.3174   -2.8827    0.8181 C   0  0  0  0  0  0  0  0  0  0  0  0
    4.4304   -3.9777    0.8026 H   0  0  0  0  0  0  0  0  0  0  0  0
    5.2368   -2.0893    1.5230 C   0  0  0  0  0  0  0  0  0  0  0  0
    6.0703   -2.5602    2.0664 H   0  0  0  0  0  0  0  0  0  0  0  0
    5.0943   -0.6915    1.5268 C   0  0  0  0  0  0  0  0  0  0  0  0
    5.8156   -0.0657    2.0749 H   0  0  0  0  0  0  0  0  0  0  0  0
    4.0340   -0.0886    0.8335 C   0  0  0  0  0  0  0  0  0  0  0  0
    3.9331    1.0079    0.8330 H   0  0  0  0  0  0  0  0  0  0  0  0
  1 31  1  0  0  0  0
  1  2  1  0  0  0  0
  2  3  1  0  0  0  0
  3  4  1  6  0  0  0
  3  9  1  0  0  0  0
  3  5  1  0  0  0  0
  5  6  1  0  0  0  0
  5  7  1  0  0  0  0
  8  5  1  0  0  0  0
  9 10  2  0  0  0  0
  9 18  1  0  0  0  0
 10 12  1  0  0  0  0
 11 10  1  0  0  0  0
 12 13  1  0  0  0  0
 12 14  2  0  0  0  0
 14 15  1  0  0  0  0
 16 14  1  0  0  0  0
 16 17  1  0  0  0  0
 18 16  2  0  0  0  0
 19 18  1  0  0  0  0
 20 29  1  0  0  0  0
 20  1  1  0  0  0  0
 21 20  2  0  0  0  0
 22 21  1  0  0  0  0
 23 25  2  0  0  0  0
 23 21  1  0  0  0  0
 24 23  1  0  0  0  0
 25 27  1  0  0  0  0
 26 25  1  0  0  0  0
 27 28  1  0  0  0  0
 27 29  2  0  0  0  0
 29 30  1  0  0  0  0
 31 40  1  0  0  0  0
 32 31  2  0  0  0  0
 32 34  1  0  0  0  0
 33 32  1  0  0  0  0
 34 36  2  0  0  0  0
 35 34  1  0  0  0  0
 36 38  1  0  0  0  0
 36 37  1  0  0  0  0
 38 39  1  0  0  0  0
 40 38  2  0  0  0  0
 41 40  1  0  0  0  0
M  END
