1
q = 0.0, confidence = 0.972

 38 39  0  0  0  0  0  0  0  0999 V2000
    1.5575    2.2269   -0.3323 N   0  0  0  0  0  2  0  0  0  0  0  0
    3.6092    0.3302   -0.7500 C   0  0  0  0  0  0  0  0  0  0  0  0
   10.5461   -6.3106    1.2972 N   0  0  0  0  0  0  0  0  0  0  0  0
    4.6591   -0.6445   -1.0238 C   0  0  0  0  0  0  0  0  0  0  0  0
    4.8349   -0.8517   -2.0919 H   0  0  0  0  0  0  0  0  0  0  0  0
    8.2194   -3.2522   -1.9378 C   0  0  0  0  0  0  0  0  0  0  0  0
    8.7208   -4.4778    1.6105 C   0  0  0  0  0  0  0  0  0  0  0  0
    7.0675   -2.9041    0.6888 C   0  0  0  0  0  0  0  0  0  0  0  0
    6.7983   -2.6152    1.7175 H   0  0  0  0  0  0  0  0  0  0  0  0
    6.4373   -2.2822   -0.3729 C   0  0  0  0  0  0  0  0  0  0  0  0
    6.8071   -2.6401   -1.7916 C   0  0  0  0  0  0  0  0  0  0  0  0
    6.7271   -1.7460   -2.4444 H   0  0  0  0  0  0  0  0  0  0  0  0
    6.0504   -3.3618   -2.1774 H   0  0  0  0  0  0  0  0  0  0  0  0
    2.2352    1.7035    0.7129 C   0  0  0  0  0  3  0  0  0  0  0  0
    1.9470    2.0879    1.7071 H   0  0  0  0  0  0  0  0  0  0  0  0
    8.0681   -3.9167    0.5113 C   0  0  0  0  0  0  0  0  0  0  0  0
    9.2948   -2.1730   -1.7127 C   0  0  0  0  0  0  0  0  0  0  0  0
    9.2104   -1.7008   -0.7137 H   0  0  0  0  0  0  0  0  0  0  0  0
    9.2101   -1.3717   -2.4745 H   0  0  0  0  0  0  0  0  0  0  0  0
   10.3101   -2.6109   -1.7940 H   0  0  0  0  0  0  0  0  0  0  0  0
    8.3703   -4.3771   -0.8889 C   0  0  0  0  0  0  0  0  0  0  0  0
    7.6552   -5.1962   -1.1347 H   0  0  0  0  0  0  0  0  0  0  0  0
    9.3804   -4.8313   -0.9421 H   0  0  0  0  0  0  0  0  0  0  0  0
    8.3766   -3.8459   -3.3448 C   0  0  0  0  0  0  0  0  0  0  0  0
    9.3836   -4.2903   -3.4767 H   0  0  0  0  0  0  0  0  0  0  0  0
    8.2492   -3.0631   -4.1202 H   0  0  0  0  0  0  0  0  0  0  0  0
    7.6264   -4.6407   -3.5359 H   0  0  0  0  0  0  0  0  0  0  0  0
    5.4093   -1.3055   -0.0905 C   0  0  0  0  0  0  0  0  0  0  0  0
    5.2264   -1.1117    0.9797 H   0  0  0  0  0  0  0  0  0  0  0  0
    2.8897    0.9018   -1.8277 C   0  0  0  0  0  0  0  0  0  0  0  0
    3.1228    0.6168   -2.8645 H   0  0  0  0  0  0  0  0  0  0  0  0
    8.4117   -4.0780    2.9496 C   0  0  0  0  0  0  0  0  0  0  0  0
    3.2511    0.7636    0.5515 C   0  0  0  0  0  0  0  0  0  0  0  0
    3.7666    0.3813    1.4436 H   0  0  0  0  0  0  0  0  0  0  0  0
    9.7225   -5.4847    1.4455 C   0  0  0  0  0  0  0  0  0  0  0  0
    1.8818    1.8355   -1.5809 C   0  0  0  0  0  0  0  0  0  0  0  0
    1.3092    2.3149   -2.3950 H   0  0  0  0  0  0  0  0  0  0  0  0
    8.1389   -3.7334    4.0397 N   0  0  0  0  0  0  0  0  0  0  0  0
  1 14  1  0  0  0  0
  2 33  2  0  0  0  0
  3 35  3  0  0  0  0
  4  2  1  0  0  0  0
  4 28  2  0  0  0  0
  5  4  1  0  0  0  0
  6 11  1  0  0  0  0
  6 17  1  0  0  0  0
  6 21  1  0  0  0  0
  7 32  1  0  0  0  0
  8  9  1  0  0  0  0
 10 28  1  0  0  0  0
 10  8  2  0  0  0  0
 11 10  1  0  0  0  0
 12 11  1  0  0  0  0
 13 11  1  0  0  0  0
 14 15  1  0  0  0  0
 16  8  1  0  0  0  0
 16  7  2  0  0  0  0
 17 18  1  0  0  0  0
 19 17  1  0  0  0  0
 20 17  1  0  0  0  0
 21 16  1  0  0  0  0
 22 21  1  0  0  0  0
 23 21  1  0  0  0  0
 24  6  1  0  0  0  0
 25 24  1  0  0  0  0
 26 24  1  0  0  0  0
 27 24  1  0  0  0  0
 28 29  1  0  0  0  0
 30 36  2  0  0  0  0
 30  2  1  0  0  0  0
 31 30  1  0  0  0  0
 32 38  3  0  0  0  0
 33 14  1  0  0  0  0
 33 34  1  0  0  0  0
 35  7  1  0  0  0  0
 36  1  1  0  0  0  0
 37 36  1  0  0  0  0
M  END
