1
q = 0.0, confidence = 1.0

 26 27  0  0  0  0  0  0  0  0999 V2000
   -0.0873   -0.1897    0.3765 N   0  0  0  0  0  2  0  0  0  0  0  0
    4.9591    0.3382    0.2961 N   0  0  0  0  0  0  0  0  0  0  0  0
    6.2601    0.2462    0.4071 N   0  0  0  0  0  0  0  0  0  0  0  0
   11.3356    0.0816   -0.1415 N   0  0  0  0  0  0  0  0  0  0  0  0
    0.4646   -1.4020    0.5780 C   0  0  0  0  0  3  0  0  0  0  0  0
   -0.2508   -2.2264    0.7390 H   0  0  0  0  0  0  0  0  0  0  0  0
    1.8486   -1.5906    0.6176 C   0  0  0  0  0  0  0  0  0  0  0  0
    2.2592   -2.5983    0.7810 H   0  0  0  0  0  0  0  0  0  0  0  0
    2.7050   -0.4807    0.4524 C   0  0  0  0  0  0  0  0  0  0  0  0
    2.1077    0.7846    0.2502 C   0  0  0  0  0  0  0  0  0  0  0  0
    2.7402    1.6739    0.1208 H   0  0  0  0  0  0  0  0  0  0  0  0
    0.7182    0.8838    0.2144 C   0  0  0  0  0  0  0  0  0  0  0  0
    0.1986    1.8381    0.0242 H   0  0  0  0  0  0  0  0  0  0  0  0
    4.1564   -0.6606    0.4906 C   0  0  0  0  0  0  0  0  0  0  0  0
    4.5528   -1.6776    0.6951 H   0  0  0  0  0  0  0  0  0  0  0  0
    7.0633    0.0862   -0.5953 C   0  0  0  0  0  0  0  0  0  0  0  0
    6.6626   -0.0553   -1.6218 H   0  0  0  0  0  0  0  0  0  0  0  0
    8.5171    0.0900   -0.4210 C   0  0  0  0  0  0  0  0  0  0  0  0
    9.1279    0.3034    0.8347 C   0  0  0  0  0  0  0  0  0  0  0  0
    8.5048    0.4773    1.7242 H   0  0  0  0  0  0  0  0  0  0  0  0
   10.5250    0.2896    0.9131 C   0  0  0  0  0  0  0  0  0  0  0  0
   11.0225    0.4562    1.8853 H   0  0  0  0  0  0  0  0  0  0  0  0
   10.7524   -0.1206   -1.3326 C   0  0  0  0  0  0  0  0  0  0  0  0
   11.4296   -0.2890   -2.1893 H   0  0  0  0  0  0  0  0  0  0  0  0
    9.3627   -0.1258   -1.5289 C   0  0  0  0  0  0  0  0  0  0  0  0
    8.9411   -0.2959   -2.5320 H   0  0  0  0  0  0  0  0  0  0  0  0
  1  5  1  0  0  0  0
  2  3  1  0  0  0  0
  2 14  2  0  0  0  0
  4 21  1  0  0  0  0
  5  7  1  0  0  0  0
  5  6  1  0  0  0  0
  7  8  1  0  0  0  0
  9 14  1  0  0  0  0
  9  7  2  0  0  0  0
 10  9  1  0  0  0  0
 11 10  1  0  0  0  0
 12 10  2  0  0  0  0
 12  1  1  0  0  0  0
 13 12  1  0  0  0  0
 14 15  1  0  0  0  0
 16 18  1  0  0  0  0
 16  3  2  0  0  0  0
 17 16  1  0  0  0  0
 18 19  1  0  0  0  0
 19 21  2  0  0  0  0
 19 20  1  0  0  0  0
 21 22  1  0  0  0  0
 23  4  2  0  0  0  0
 24 23  1  0  0  0  0
 25 23  1  0  0  0  0
 25 18  2  0  0  0  0
 26 25  1  0  0  0  0
M  END
