2
q = -1.0

 34 35  0  0  0  0  0  0  0  0999 V2000
   -1.6907    0.0197   -0.2996 P   0  0  0  0  0  0  0  0  0  0  0  0
   -1.5901   -1.1462    0.9152 N   0  0  0  0  0  2  0  0  0  0  0  0
   -2.1361    1.6238    0.4663 C   0  0  0  0  0  0  0  0  0  0  0  0
   -2.0330    1.7986    1.8603 C   0  0  0  0  0  0  0  0  0  0  0  0
   -2.2921    3.0519    2.4357 C   0  0  0  0  0  0  0  0  0  0  0  0
   -2.6484    4.1410    1.6239 C   0  0  0  0  0  0  0  0  0  0  0  0
   -2.7426    3.9727    0.2318 C   0  0  0  0  0  0  0  0  0  0  0  0
   -2.4855    2.7225   -0.3468 C   0  0  0  0  0  0  0  0  0  0  0  0
   -3.0998   -0.3647   -1.4112 C   0  0  0  0  0  0  0  0  0  0  0  0
   -4.4141    0.0590   -1.1182 C   0  0  0  0  0  0  0  0  0  0  0  0
   -5.4768   -0.3281   -1.9475 C   0  0  0  0  0  0  0  0  0  0  0  0
   -5.2360   -1.1350   -3.0718 C   0  0  0  0  0  0  0  0  0  0  0  0
   -3.9287   -1.5534   -3.3684 C   0  0  0  0  0  0  0  0  0  0  0  0
   -2.8600   -1.1696   -2.5449 C   0  0  0  0  0  0  0  0  0  0  0  0
   -2.6914   -1.7128    1.7107 C   0  0  0  0  0  0  0  0  0  0  0  0
   -2.2957   -1.8666    3.1822 C   0  0  0  0  0  0  0  0  0  0  0  0
   -3.1482   -3.0430    1.0980 C   0  0  0  0  0  0  0  0  0  0  0  0
   -1.7410    0.9430    2.4871 H   0  0  0  0  0  0  0  0  0  0  0  0
   -2.2169    3.1768    3.5269 H   0  0  0  0  0  0  0  0  0  0  0  0
   -2.8519    5.1237    2.0758 H   0  0  0  0  0  0  0  0  0  0  0  0
   -3.0137    4.8248   -0.4099 H   0  0  0  0  0  0  0  0  0  0  0  0
   -2.5561    2.5986   -1.4387 H   0  0  0  0  0  0  0  0  0  0  0  0
   -4.6040    0.6958   -0.2407 H   0  0  0  0  0  0  0  0  0  0  0  0
   -6.5007    0.0006   -1.7123 H   0  0  0  0  0  0  0  0  0  0  0  0
   -6.0721   -1.4372   -3.7209 H   0  0  0  0  0  0  0  0  0  0  0  0
   -3.7369   -2.1838   -4.2499 H   0  0  0  0  0  0  0  0  0  0  0  0
   -1.8348   -1.5078   -2.7604 H   0  0  0  0  0  0  0  0  0  0  0  0
   -3.5409   -0.9913    1.6561 H   0  0  0  0  0  0  0  0  0  0  0  0
   -1.9865   -0.8976    3.6224 H   0  0  0  0  0  0  0  0  0  0  0  0
   -1.4498   -2.5744    3.2802 H   0  0  0  0  0  0  0  0  0  0  0  0
   -3.1524   -2.2546    3.7694 H   0  0  0  0  0  0  0  0  0  0  0  0
   -4.0084   -3.4610    1.6598 H   0  0  0  0  0  0  0  0  0  0  0  0
   -2.3154   -3.7741    1.1277 H   0  0  0  0  0  0  0  0  0  0  0  0
   -3.4520   -2.9051    0.0419 H   0  0  0  0  0  0  0  0  0  0  0  0
  1  3  1  0  0  0  0
  1  2  1  0  0  0  0
  2 15  1  0  0  0  0
  3  4  1  0  0  0  0
  4  5  2  0  0  0  0
  4 18  1  0  0  0  0
  5 19  1  0  0  0  0
  6 20  1  0  0  0  0
  6  5  1  0  0  0  0
  7  6  2  0  0  0  0
  8  7  1  0  0  0  0
  8  3  2  0  0  0  0
  9 10  1  0  0  0  0
  9  1  1  0  0  0  0
 10 23  1  0  0  0  0
 11 24  1  0  0  0  0
 11 10  2  0  0  0  0
 12 11  1  0  0  0  0
 13 12  2  0  0  0  0
 13 14  1  0  0  0  0
 14  9  2  0  0  0  0
 15 16  1  0  0  0  0
 16 30  1  0  0  0  0
 16 29  1  0  0  0  0
 16 31  1  0  0  0  0
 17 33  1  0  0  0  0
 17 32  1  0  0  0  0
 17 15  1  0  0  0  0
 21  7  1  0  0  0  0
 22  8  1  0  0  0  0
 25 12  1  0  0  0  0
 26 13  1  0  0  0  0
 27 14  1  0  0  0  0
 28 15  1  0  0  0  0
 34 17  1  0  0  0  0
M  END
