1
q = -2.0, confidence = 0.79

 53 59  0  0  1  0  0  0  0  0999 V2000
   -1.2049    0.4317   -0.4471 N   0  0  0  0  0  2  0  0  0  0  0  0
    0.6462    1.2791   -1.5906 C   0  0  2  0  0  0  0  0  0  0  0  0
    1.4678    2.0326   -0.4731 C   0  0  1  0  0  0  0  0  0  0  0  0
    0.8845    2.6130    0.2563 H   0  0  0  0  0  0  0  0  0  0  0  0
   -0.8164    1.2027   -1.4071 C   0  0  0  0  0  3  0  0  0  0  0  0
   -1.5265    1.7514   -2.0598 H   0  0  0  0  0  0  0  0  0  0  0  0
   -2.6065    0.2737   -0.1925 C   0  0  0  0  0  0  0  0  0  0  0  0
   -3.3291   -0.7195   -0.9059 C   0  0  0  0  0  0  0  0  0  0  0  0
   -4.6995   -0.8586   -0.6140 C   0  0  0  0  0  0  0  0  0  0  0  0
   -5.2871   -1.6195   -1.1472 H   0  0  0  0  0  0  0  0  0  0  0  0
   -5.3274   -0.0475    0.3390 C   0  0  0  0  0  0  0  0  0  0  0  0
   -6.3993   -0.1781    0.5511 H   0  0  0  0  0  0  0  0  0  0  0  0
   -4.5941    0.9327    1.0187 C   0  0  0  0  0  0  0  0  0  0  0  0
   -5.0985    1.5718    1.7575 H   0  0  0  0  0  0  0  0  0  0  0  0
   -3.2220    1.1183    0.7676 C   0  0  0  0  0  0  0  0  0  0  0  0
   -2.6554   -1.5742   -1.9760 C   0  0  0  0  0  0  0  0  0  0  0  0
   -1.5942   -1.6976   -1.6697 H   0  0  0  0  0  0  0  0  0  0  0  0
   -3.2780   -2.9718   -2.1165 C   0  0  0  0  0  0  0  0  0  0  0  0
   -3.3975   -3.4774   -1.1381 H   0  0  0  0  0  0  0  0  0  0  0  0
   -2.6376   -3.6101   -2.7576 H   0  0  0  0  0  0  0  0  0  0  0  0
   -4.2770   -2.9308   -2.5982 H   0  0  0  0  0  0  0  0  0  0  0  0
   -2.6656   -0.8720   -3.3486 C   0  0  0  0  0  0  0  0  0  0  0  0
   -2.1248    0.0931   -3.3382 H   0  0  0  0  0  0  0  0  0  0  0  0
   -3.7061   -0.6713   -3.6779 H   0  0  0  0  0  0  0  0  0  0  0  0
   -2.1782   -1.5107   -4.1127 H   0  0  0  0  0  0  0  0  0  0  0  0
   -2.4285    2.2284    1.4484 C   0  0  0  0  0  0  0  0  0  0  0  0
   -1.3808    1.8671    1.5270 H   0  0  0  0  0  0  0  0  0  0  0  0
   -2.9263    2.5564    2.8631 C   0  0  0  0  0  0  0  0  0  0  0  0
   -3.0283    1.6473    3.4890 H   0  0  0  0  0  0  0  0  0  0  0  0
   -3.9120    3.0658    2.8456 H   0  0  0  0  0  0  0  0  0  0  0  0
   -2.2176    3.2424    3.3692 H   0  0  0  0  0  0  0  0  0  0  0  0
   -2.4127    3.5078    0.5886 C   0  0  0  0  0  0  0  0  0  0  0  0
   -1.9783    3.3371   -0.4158 H   0  0  0  0  0  0  0  0  0  0  0  0
   -1.8146    4.3022    1.0805 H   0  0  0  0  0  0  0  0  0  0  0  0
   -3.4424    3.8943    0.4426 H   0  0  0  0  0  0  0  0  0  0  0  0
    2.8813    1.2558   -0.1404 B   0  0  1  0  0  0  0  0  0  0  0  0
    3.3807    1.3947    0.9541 H   0  0  0  0  0  0  0  0  0  0  0  0
    2.9391   -0.1408   -1.2337 B   0  0  1  0  0  0  0  0  0  0  0  0
    3.5854   -1.1634   -1.0545 H   0  0  0  0  0  0  0  0  0  0  0  0
    1.4241   -0.0955   -2.1316 B   0  0  2  0  0  0  0  0  0  0  0  0
    0.7341   -1.0182   -2.5160 H   0  0  0  0  0  0  0  0  0  0  0  0
    1.3566    2.7683   -2.0324 B   0  0  2  0  0  0  0  0  0  0  0  0
    0.6461    3.7355   -2.1708 H   0  0  0  0  0  0  0  0  0  0  0  0
    2.8750    2.7507   -1.1131 B   0  0  2  0  0  0  0  0  0  0  0  0
    3.2619    3.7998   -0.6547 H   0  0  0  0  0  0  0  0  0  0  0  0
    3.8327    1.3506   -1.6443 B   0  0  1  0  0  0  0  0  0  0  0  0
    5.0439    1.3927   -1.6400 H   0  0  0  0  0  0  0  0  0  0  0  0
    2.8979    0.4958   -2.9094 B   0  0  1  0  0  0  0  0  0  0  0  0
    3.4092   -0.1006   -3.8316 H   0  0  0  0  0  0  0  0  0  0  0  0
    1.3652    1.3720   -3.1354 B   0  0  1  0  0  0  0  0  0  0  0  0
    0.6497    1.4271   -4.1098 H   0  0  0  0  0  0  0  0  0  0  0  0
    2.8640    2.2893   -2.8360 B   0  0  0  0  0  0  0  0  0  0  0  0
    3.3494    3.0023   -3.6835 H   0  0  0  0  0  0  0  0  0  0  0  0
  1  7  1  0  0  0  0
  2  5  1  1  0  0  0
  2  3  1  0  0  0  0
  3 36  1  0  0  0  0
  3  4  1  1  0  0  0
  5  1  1  0  0  0  0
  6  5  1  0  0  0  0
  7 15  1  0  0  0  0
  8  9  1  0  0  0  0
  8  7  2  0  0  0  0
  9 11  2  0  0  0  0
 10  9  1  0  0  0  0
 11 12  1  0  0  0  0
 11 13  1  0  0  0  0
 13 14  1  0  0  0  0
 15 13  2  0  0  0  0
 15 26  1  0  0  0  0
 16 17  1  0  0  0  0
 16  8  1  0  0  0  0
 18 16  1  0  0  0  0
 18 19  1  0  0  0  0
 20 18  1  0  0  0  0
 21 18  1  0  0  0  0
 22 23  1  0  0  0  0
 22 16  1  0  0  0  0
 24 22  1  0  0  0  0
 25 22  1  0  0  0  0
 26 27  1  0  0  0  0
 26 28  1  0  0  0  0
 28 31  1  0  0  0  0
 28 29  1  0  0  0  0
 30 28  1  0  0  0  0
 32 34  1  0  0  0  0
 32 26  1  0  0  0  0
 33 32  1  0  0  0  0
 35 32  1  0  0  0  0
 36 37  1  1  0  0  0
 38 39  1  1  0  0  0
 38 36  1  0  0  0  0
 40 41  1  6  0  0  0
 40  2  1  0  0  0  0
 40 38  1  0  0  0  0
 42 43  1  6  0  0  0
 42 44  1  0  0  0  0
 44 45  1  1  0  0  0
 44  3  1  0  0  0  0
 46 47  1  1  0  0  0
 46 38  1  0  0  0  0
 46 44  1  0  0  0  0
 46 36  1  0  0  0  0
 48 49  1  6  0  0  0
 48 52  1  0  0  0  0
 48 40  1  0  0  0  0
 50 51  1  6  0  0  0
 50 48  1  0  0  0  0
 50 42  1  0  0  0  0
 50  2  1  0  0  0  0
 52 42  1  0  0  0  0
 53 52  1  0  0  0  0
M  END
