1
q = -2.0, confidence = 0.784

 53 58  0  0  1  0  0  0  0  0999 V2000
   -1.1012    0.1794   -0.5486 N   0  0  0  0  0  2  0  0  0  0  0  0
    3.0148    1.0111   -0.5819 B   0  0  1  0  0  0  0  0  0  0  0  0
    3.5102    1.6095    0.3469 H   0  0  0  0  0  0  0  0  0  0  0  0
    3.0607   -0.7253   -0.9487 B   0  0  1  0  0  0  0  0  0  0  0  0
    3.6919   -1.5689   -0.3280 H   0  0  0  0  0  0  0  0  0  0  0  0
    1.5514   -1.0688   -1.7882 B   0  0  2  0  0  0  0  0  0  0  0  0
    0.8546   -2.0618   -1.7328 H   0  0  0  0  0  0  0  0  0  0  0  0
    1.5155    1.5476   -2.9577 B   0  0  0  0  0  2  0  0  0  0  0  0
    0.8150    2.3605   -3.5130 H   0  0  0  0  0  0  0  0  0  0  0  0
    3.0299    1.9246   -2.1137 B   0  0  2  0  0  0  0  0  0  0  0  0
    3.4265    3.0653   -2.1601 H   0  0  0  0  0  0  0  0  0  0  0  0
    3.9735    0.4258   -1.9653 B   0  0  1  0  0  0  0  0  0  0  0  0
    5.1852    0.4544   -1.9680 H   0  0  0  0  0  0  0  0  0  0  0  0
    3.0347   -0.8908   -2.7345 B   0  0  1  0  0  0  0  0  0  0  0  0
    3.5441   -1.8364   -3.2952 H   0  0  0  0  0  0  0  0  0  0  0  0
    1.5125   -0.1911   -3.3343 B   0  0  2  0  0  0  0  0  0  0  0  0
    0.8007   -0.5645   -4.2390 H   0  0  0  0  0  0  0  0  0  0  0  0
    3.0209    0.7518   -3.4572 B   0  0  0  0  0  0  0  0  0  0  0  0
    3.5164    1.0155   -4.5283 H   0  0  0  0  0  0  0  0  0  0  0  0
    0.7858    0.4100   -1.9113 C   0  0  2  0  0  0  0  0  0  0  0  0
    1.6116    1.5725   -1.2343 C   0  0  1  0  0  0  0  0  0  0  0  0
    1.0321    2.4194   -0.8400 H   0  0  0  0  0  0  0  0  0  0  0  0
   -0.6816    0.4386   -1.7406 C   0  0  0  0  0  3  0  0  0  0  0  0
   -1.3692    0.6466   -2.5868 H   0  0  0  0  0  0  0  0  0  0  0  0
   -2.5068    0.1575   -0.2785 C   0  0  0  0  0  0  0  0  0  0  0  0
   -3.2342   -1.0425   -0.4987 C   0  0  0  0  0  0  0  0  0  0  0  0
   -4.6093   -1.0316   -0.1969 C   0  0  0  0  0  0  0  0  0  0  0  0
   -5.2006   -1.9449   -0.3546 H   0  0  0  0  0  0  0  0  0  0  0  0
   -5.2376    0.1175    0.2988 C   0  0  0  0  0  0  0  0  0  0  0  0
   -6.3133    0.0992    0.5298 H   0  0  0  0  0  0  0  0  0  0  0  0
   -4.4990    1.2905    0.4975 C   0  0  0  0  0  0  0  0  0  0  0  0
   -5.0028    2.1904    0.8786 H   0  0  0  0  0  0  0  0  0  0  0  0
   -3.1221    1.3385    0.2122 C   0  0  0  0  0  0  0  0  0  0  0  0
   -2.5579   -2.2833   -1.0751 C   0  0  0  0  0  0  0  0  0  0  0  0
   -1.5000   -2.2620   -0.7350 H   0  0  0  0  0  0  0  0  0  0  0  0
   -3.1893   -3.5976   -0.5909 C   0  0  0  0  0  0  0  0  0  0  0  0
   -3.3202   -3.6190    0.5090 H   0  0  0  0  0  0  0  0  0  0  0  0
   -2.5486   -4.4554   -0.8779 H   0  0  0  0  0  0  0  0  0  0  0  0
   -4.1843   -3.7703   -1.0512 H   0  0  0  0  0  0  0  0  0  0  0  0
   -2.5511   -2.2584   -2.6167 C   0  0  0  0  0  0  0  0  0  0  0  0
   -2.0052   -1.3876   -3.0265 H   0  0  0  0  0  0  0  0  0  0  0  0
   -3.5874   -2.2223   -3.0119 H   0  0  0  0  0  0  0  0  0  0  0  0
   -2.0602   -3.1691   -3.0157 H   0  0  0  0  0  0  0  0  0  0  0  0
   -2.3183    2.6257    0.3585 C   0  0  0  0  0  0  0  0  0  0  0  0
   -1.2764    2.3223    0.5973 H   0  0  0  0  0  0  0  0  0  0  0  0
   -2.8201    3.5352    1.4886 C   0  0  0  0  0  0  0  0  0  0  0  0
   -2.1066    4.3668    1.6573 H   0  0  0  0  0  0  0  0  0  0  0  0
   -2.9364    2.9847    2.4437 H   0  0  0  0  0  0  0  0  0  0  0  0
   -3.7998    3.9951    1.2435 H   0  0  0  0  0  0  0  0  0  0  0  0
   -2.2767    3.4082   -0.9689 C   0  0  0  0  0  0  0  0  0  0  0  0
   -1.8416    2.8135   -1.7958 H   0  0  0  0  0  0  0  0  0  0  0  0
   -1.6669    4.3289   -0.8618 H   0  0  0  0  0  0  0  0  0  0  0  0
   -3.2990    3.7079   -1.2790 H   0  0  0  0  0  0  0  0  0  0  0  0
  1 25  1  0  0  0  0
  2  3  1  1  0  0  0
  4  2  1  0  0  0  0
  4  5  1  1  0  0  0
  6  7  1  1  0  0  0
  6  4  1  0  0  0  0
  8 10  1  0  0  0  0
  9  8  1  0  0  0  0
 10 11  1  6  0  0  0
 10 12  1  0  0  0  0
 10 21  1  0  0  0  0
 12 13  1  1  0  0  0
 12  4  1  0  0  0  0
 12  2  1  0  0  0  0
 14 15  1  6  0  0  0
 14  6  1  0  0  0  0
 16 17  1  6  0  0  0
 16 14  1  0  0  0  0
 16 20  1  0  0  0  0
 18 16  1  0  0  0  0
 18 14  1  0  0  0  0
 19 18  1  0  0  0  0
 20  6  1  0  0  0  0
 20 23  1  1  0  0  0
 20 21  1  0  0  0  0
 21 22  1  1  0  0  0
 21  2  1  0  0  0  0
 23  1  1  0  0  0  0
 24 23  1  0  0  0  0
 25 33  1  0  0  0  0
 26 25  2  0  0  0  0
 26 27  1  0  0  0  0
 27 29  2  0  0  0  0
 28 27  1  0  0  0  0
 29 31  1  0  0  0  0
 29 30  1  0  0  0  0
 31 32  1  0  0  0  0
 33 44  1  0  0  0  0
 33 31  2  0  0  0  0
 34 35  1  0  0  0  0
 34 36  1  0  0  0  0
 34 26  1  0  0  0  0
 36 37  1  0  0  0  0
 38 36  1  0  0  0  0
 39 36  1  0  0  0  0
 40 34  1  0  0  0  0
 41 40  1  0  0  0  0
 42 40  1  0  0  0  0
 43 40  1  0  0  0  0
 44 45  1  0  0  0  0
 44 46  1  0  0  0  0
 46 47  1  0  0  0  0
 46 48  1  0  0  0  0
 49 46  1  0  0  0  0
 50 52  1  0  0  0  0
 50 44  1  0  0  0  0
 51 50  1  0  0  0  0
 53 50  1  0  0  0  0
M  END
