1
q = 0.0, confidence = 0.974

 22 23  0  0  1  0  0  0  0  0999 V2000
    0.5491    1.1919    0.1531 N   0  0  0  0  0  2  0  0  0  0  0  0
    0.4884   -1.5155    0.2139 O   0  0  0  0  0  0  0  0  0  0  0  0
    1.7067    0.4962    0.1345 C   0  0  2  0  0  3  0  0  0  0  0  0
    0.6318    2.5323    0.1231 C   0  0  0  0  0  0  0  0  0  0  0  0
    1.8979    3.1585    0.0915 C   0  0  0  0  0  0  0  0  0  0  0  0
    3.0524    2.4868    0.0749 N   0  0  0  0  0  0  0  0  0  0  0  0
    2.9605    1.1441    0.0892 C   0  0  0  0  0  0  0  0  0  0  0  0
    4.1038    0.3803    0.0521 N   0  0  0  0  0  0  0  0  0  0  0  0
    4.0810   -1.0312    0.0535 C   0  0  0  0  0  0  0  0  0  0  0  0
    2.7876   -1.6429    0.1036 N   0  0  0  0  0  0  0  0  0  0  0  0
    1.6091   -0.9501    0.1498 C   0  0  0  0  0  0  0  0  0  0  0  0
    5.0916   -1.7015    0.0154 O   0  0  0  0  0  0  0  0  0  0  0  0
    5.4110    1.0496   -0.0107 C   0  0  0  0  0  0  0  0  0  0  0  0
    2.7228   -3.1087    0.0844 C   0  0  0  0  0  0  0  0  0  0  0  0
   -0.3039    3.1069    0.0991 H   0  0  0  0  0  0  0  0  0  0  0  0
    1.9589    4.2598    0.0725 H   0  0  0  0  0  0  0  0  0  0  0  0
    6.1847    0.2649   -0.0256 H   0  0  0  0  0  0  0  0  0  0  0  0
    5.4699    1.6702   -0.9243 H   0  0  0  0  0  0  0  0  0  0  0  0
    5.5377    1.7061    0.8699 H   0  0  0  0  0  0  0  0  0  0  0  0
    2.0932   -3.4347   -0.7651 H   0  0  0  0  0  0  0  0  0  0  0  0
    3.7513   -3.4904   -0.0205 H   0  0  0  0  0  0  0  0  0  0  0  0
    2.2705   -3.4760    1.0255 H   0  0  0  0  0  0  0  0  0  0  0  0
  3  7  1  6  0  0  0
  3 11  1  0  0  0  0
  3  1  1  0  0  0  0
  4  1  1  0  0  0  0
  5  4  2  0  0  0  0
  6  7  2  0  0  0  0
  6  5  1  0  0  0  0
  8  9  1  0  0  0  0
  8  7  1  0  0  0  0
  9 10  1  0  0  0  0
 10 11  1  0  0  0  0
 11  2  2  0  0  0  0
 12  9  2  0  0  0  0
 13  8  1  0  0  0  0
 13 19  1  0  0  0  0
 14 10  1  0  0  0  0
 14 22  1  0  0  0  0
 15  4  1  0  0  0  0
 16  5  1  0  0  0  0
 17 13  1  0  0  0  0
 18 13  1  0  0  0  0
 20 14  1  0  0  0  0
 21 14  1  0  0  0  0
M  END
