1
q = 0.0, confidence = 0.978

 23 23  0  0  0  0  0  0  0  0999 V2000
    1.4773   -0.2765   -1.4497 N   0  0  0  0  0  0  0  0  0  0  0  0
    1.3626    0.4828   -2.1383 H   0  0  0  0  0  0  0  0  0  0  0  0
    1.2361   -1.1677   -1.9152 H   0  0  0  0  0  0  0  0  0  0  0  0
    2.8499   -0.3160   -0.9717 C   0  0  0  0  0  0  0  0  0  0  0  0
    3.6494    0.8353   -1.0417 C   0  0  0  0  0  0  0  0  0  0  0  0
    3.2312    1.7698   -1.4449 H   0  0  0  0  0  0  0  0  0  0  0  0
    4.9665    0.7918   -0.5694 C   0  0  0  0  0  0  0  0  0  0  0  0
    5.5795    1.7043   -0.6290 H   0  0  0  0  0  0  0  0  0  0  0  0
    5.5111   -0.3875   -0.0202 C   0  0  0  0  0  0  0  0  0  0  0  0
    4.6847   -1.5266    0.0400 C   0  0  0  0  0  0  0  0  0  0  0  0
    5.0840   -2.4596    0.4683 H   0  0  0  0  0  0  0  0  0  0  0  0
    3.3632   -1.5009   -0.4244 C   0  0  0  0  0  0  0  0  0  0  0  0
    2.7181   -2.3894   -0.3452 H   0  0  0  0  0  0  0  0  0  0  0  0
    6.9402   -0.4288    0.5005 C   0  0  0  0  0  0  0  0  0  0  0  0
    7.1206   -1.4666    0.8566 H   0  0  0  0  0  0  0  0  0  0  0  0
    7.1296    0.5146    1.7008 C   0  0  0  0  0  0  0  0  0  0  0  0
    6.9712    1.5733    1.4077 H   0  0  0  0  0  0  0  0  0  0  0  0
    6.4134    0.2818    2.5137 H   0  0  0  0  0  0  0  0  0  0  0  0
    8.1575    0.4312    2.1097 H   0  0  0  0  0  0  0  0  0  0  0  0
    7.9613   -0.1345   -0.6113 C   0  0  0  0  0  0  0  0  0  0  0  0
    8.9983   -0.2283   -0.2288 H   0  0  0  0  0  0  0  0  0  0  0  0
    7.8432   -0.8326   -1.4639 H   0  0  0  0  0  0  0  0  0  0  0  0
    7.8434    0.8974   -1.0028 H   0  0  0  0  0  0  0  0  0  0  0  0
  1  4  1  0  0  0  0
  2  1  1  0  0  0  0
  3  1  1  0  0  0  0
  4 12  1  0  0  0  0
  5  4  2  0  0  0  0
  5  7  1  0  0  0  0
  6  5  1  0  0  0  0
  7  9  2  0  0  0  0
  8  7  1  0  0  0  0
  9 10  1  0  0  0  0
  9 14  1  0  0  0  0
 10 11  1  0  0  0  0
 12 13  1  0  0  0  0
 12 10  2  0  0  0  0
 14 15  1  0  0  0  0
 14 16  1  0  0  0  0
 16 19  1  0  0  0  0
 16 18  1  0  0  0  0
 17 16  1  0  0  0  0
 20 21  1  0  0  0  0
 20 14  1  0  0  0  0
 22 20  1  0  0  0  0
 23 20  1  0  0  0  0
M  END
