9
q = -1.0

 44 46  0  0  1  0  0  0  0  0999 V2000
    0.6639    0.4509   -1.9558 S   0  0  0  0  0  0  0  0  0  0  0  0
    3.1212    2.2026   -1.1521 F   0  0  0  0  0  0  0  0  0  0  0  0
    5.5335    1.3172   -0.3419 F   0  0  0  0  0  0  0  0  0  0  0  0
    6.0186   -1.3448   -0.0406 F   0  0  0  0  0  0  0  0  0  0  0  0
    4.0851   -3.1709   -0.6646 F   0  0  0  0  0  0  0  0  0  0  0  0
    0.8368    1.7591   -2.6383 O   0  0  0  0  0  0  0  0  0  0  0  0
    0.1660   -0.7184   -2.7221 O   0  0  0  0  0  0  0  0  0  0  0  0
   -0.7891    0.5167    1.9872 N   0  0  0  0  0  0  0  0  0  0  0  0
   -0.2818    0.6424   -0.6347 N   0  0  0  0  0  2  0  0  0  0  0  0
    2.3235   -0.0544   -1.4126 C   0  0  0  0  0  0  0  0  0  0  0  0
    2.5828   -1.4302   -1.2845 C   0  0  0  0  0  0  0  0  0  0  0  0
    3.8231   -1.8636   -0.8198 C   0  0  0  0  0  0  0  0  0  0  0  0
    4.8343   -0.9374   -0.5077 C   0  0  0  0  0  0  0  0  0  0  0  0
    4.5782    0.4341   -0.6531 C   0  0  0  0  0  0  0  0  0  0  0  0
    3.3198    0.8808   -1.0905 C   0  0  0  0  0  0  0  0  0  0  0  0
    0.1071    1.6343    1.5543 C   0  0  2  0  0  0  0  0  0  0  0  0
   -0.2334    1.9226    0.0735 C   0  0  2  0  0  0  0  0  0  0  0  0
    1.5694    1.3389    1.8338 C   0  0  0  0  0  0  0  0  0  0  0  0
    2.4647    2.4268    1.9000 C   0  0  0  0  0  0  0  0  0  0  0  0
    3.8167    2.2280    2.2063 C   0  0  0  0  0  0  0  0  0  0  0  0
    4.2967    0.9341    2.4668 C   0  0  0  0  0  0  0  0  0  0  0  0
    3.4170   -0.1550    2.3967 C   0  0  0  0  0  0  0  0  0  0  0  0
    2.0641    0.0434    2.0768 C   0  0  0  0  0  0  0  0  0  0  0  0
   -1.5592    2.6805   -0.1127 C   0  0  0  0  0  0  0  0  0  0  0  0
   -2.0411    2.8331   -1.4304 C   0  0  0  0  0  0  0  0  0  0  0  0
   -3.2396    3.5119   -1.6836 C   0  0  0  0  0  0  0  0  0  0  0  0
   -3.9926    4.0477   -0.6237 C   0  0  0  0  0  0  0  0  0  0  0  0
   -3.5221    3.9107    0.6884 C   0  0  0  0  0  0  0  0  0  0  0  0
   -2.3124    3.2379    0.9381 C   0  0  0  0  0  0  0  0  0  0  0  0
   -1.6918    0.9099    2.2848 H   0  0  0  0  0  0  0  0  0  0  0  0
   -0.3832    0.0469    2.8080 H   0  0  0  0  0  0  0  0  0  0  0  0
    1.8049   -2.1555   -1.5582 H   0  0  0  0  0  0  0  0  0  0  0  0
   -0.1359    2.5371    2.1525 H   0  0  0  0  0  0  0  0  0  0  0  0
    0.5709    2.5597   -0.3550 H   0  0  0  0  0  0  0  0  0  0  0  0
    2.0942    3.4466    1.7083 H   0  0  0  0  0  0  0  0  0  0  0  0
    4.5013    3.0883    2.2409 H   0  0  0  0  0  0  0  0  0  0  0  0
    5.3601    0.7741    2.6986 H   0  0  0  0  0  0  0  0  0  0  0  0
    3.7875   -1.1760    2.5745 H   0  0  0  0  0  0  0  0  0  0  0  0
    1.3965   -0.8263    1.9762 H   0  0  0  0  0  0  0  0  0  0  0  0
   -1.4443    2.4175   -2.2556 H   0  0  0  0  0  0  0  0  0  0  0  0
   -3.5895    3.6262   -2.7212 H   0  0  0  0  0  0  0  0  0  0  0  0
   -4.9378    4.5751   -0.8224 H   0  0  0  0  0  0  0  0  0  0  0  0
   -4.0954    4.3302    1.5293 H   0  0  0  0  0  0  0  0  0  0  0  0
   -1.9643    3.1733    1.9813 H   0  0  0  0  0  0  0  0  0  0  0  0
  1 10  1  0  0  0  0
  1  9  1  0  0  0  0
  2 15  1  0  0  0  0
  6  1  2  0  0  0  0
  7  1  2  0  0  0  0
  8 30  1  0  0  0  0
  8 31  1  0  0  0  0
  9 17  1  0  0  0  0
 10 11  2  0  0  0  0
 10 15  1  0  0  0  0
 11 12  1  0  0  0  0
 12  5  1  0  0  0  0
 12 13  2  0  0  0  0
 13  4  1  0  0  0  0
 14 13  1  0  0  0  0
 14  3  1  0  0  0  0
 15 14  2  0  0  0  0
 16 18  1  0  0  0  0
 16  8  1  0  0  0  0
 16 33  1  1  0  0  0
 17 34  1  6  0  0  0
 17 16  1  0  0  0  0
 18 19  2  0  0  0  0
 18 23  1  0  0  0  0
 19 20  1  0  0  0  0
 20 36  1  0  0  0  0
 20 21  2  0  0  0  0
 21 37  1  0  0  0  0
 22 21  1  0  0  0  0
 22 38  1  0  0  0  0
 23 22  2  0  0  0  0
 24 17  1  0  0  0  0
 24 29  1  0  0  0  0
 25 24  2  0  0  0  0
 26 25  1  0  0  0  0
 26 27  2  0  0  0  0
 27 28  1  0  0  0  0
 28 29  2  0  0  0  0
 28 43  1  0  0  0  0
 29 44  1  0  0  0  0
 32 11  1  0  0  0  0
 35 19  1  0  0  0  0
 39 23  1  0  0  0  0
 40 25  1  0  0  0  0
 41 26  1  0  0  0  0
 42 27  1  0  0  0  0
M  END
