1
q = 0.0, confidence = 0.994

 20 21  0  0  1  0  0  0  0  0999 V2000
    2.7149    0.8706   -0.0093 N   0  0  0  0  0  2  0  0  0  0  0  0
    2.9145    2.2001    0.0124 C   0  0  0  0  0  0  0  0  0  0  0  0
    2.0113    2.8287    0.0165 H   0  0  0  0  0  0  0  0  0  0  0  0
    4.1885    2.7972    0.0319 C   0  0  0  0  0  0  0  0  0  0  0  0
    4.2746    3.8920    0.0487 H   0  0  0  0  0  0  0  0  0  0  0  0
    5.2981    1.9698    0.0313 C   0  0  0  0  0  0  0  0  0  0  0  0
    6.3165    2.3875    0.0480 H   0  0  0  0  0  0  0  0  0  0  0  0
    5.1346    0.5598    0.0094 C   0  0  0  0  0  0  0  0  0  0  0  0
    6.2713   -0.2967    0.0100 C   0  0  0  0  0  0  0  0  0  0  0  0
    7.2738    0.1556    0.0283 H   0  0  0  0  0  0  0  0  0  0  0  0
    6.1015   -1.6678   -0.0121 C   0  0  0  0  0  0  0  0  0  0  0  0
    6.9710   -2.3410   -0.0113 H   0  0  0  0  0  0  0  0  0  0  0  0
    4.7946   -2.2101   -0.0375 C   0  0  0  0  0  0  0  0  0  0  0  0
    4.6773   -3.3044   -0.0574 H   0  0  0  0  0  0  0  0  0  0  0  0
    3.6378   -1.4269   -0.0401 C   0  0  0  0  0  0  0  0  0  0  0  0
    3.7966    0.0031   -0.0136 C   0  0  2  0  0  3  0  0  0  0  0  0
    2.3055   -2.1239   -0.0751 C   0  0  0  0  0  0  0  0  0  0  0  0
    1.6817   -1.8928    0.8151 H   0  0  0  0  0  0  0  0  0  0  0  0
    2.4475   -3.2204   -0.0995 H   0  0  0  0  0  0  0  0  0  0  0  0
    1.7099   -1.8494   -0.9717 H   0  0  0  0  0  0  0  0  0  0  0  0
  1  2  1  0  0  0  0
  2  3  1  0  0  0  0
  2  4  2  0  0  0  0
  4  5  1  0  0  0  0
  6  4  1  0  0  0  0
  6  7  1  0  0  0  0
  8  9  1  0  0  0  0
  8  6  2  0  0  0  0
  9 10  1  0  0  0  0
 11 12  1  0  0  0  0
 11  9  2  0  0  0  0
 13 11  1  0  0  0  0
 14 13  1  0  0  0  0
 15 13  2  0  0  0  0
 16 15  1  6  0  0  0
 16  1  1  0  0  0  0
 16  8  1  0  0  0  0
 17 15  1  0  0  0  0
 17 18  1  0  0  0  0
 19 17  1  0  0  0  0
 20 17  1  0  0  0  0
M  END
