2
q = 0.0, confidence = 0.998

 38 40  0  0  1  0  0  0  0  0999 V2000
   -6.2446    4.0240    0.3461 O   0  0  0  0  0  0  0  0  0  0  0  0
   -1.5825   -1.2200   -0.2897 N   0  0  0  0  0  2  0  0  0  0  0  0
   -4.3589    1.0344   -0.0442 N   0  0  0  0  0  0  0  0  0  0  0  0
   -3.7111   -1.9145   -0.2531 N   0  0  0  0  0  0  0  0  0  0  0  0
   -1.5686   -2.5892   -0.1017 C   0  0  0  0  0  0  0  0  0  0  0  0
   -0.4860   -3.4767    0.0319 C   0  0  0  0  0  0  0  0  0  0  0  0
    0.5414   -3.0977   -0.0535 H   0  0  0  0  0  0  0  0  0  0  0  0
   -0.7866   -4.8268    0.2260 C   0  0  0  0  0  0  0  0  0  0  0  0
    0.0321   -5.5549    0.3254 H   0  0  0  0  0  0  0  0  0  0  0  0
   -2.1278   -5.2814    0.2860 C   0  0  0  0  0  0  0  0  0  0  0  0
   -2.3260   -6.3518    0.4448 H   0  0  0  0  0  0  0  0  0  0  0  0
   -3.2115   -4.4075    0.1396 C   0  0  0  0  0  0  0  0  0  0  0  0
   -4.2420   -4.7822    0.1841 H   0  0  0  0  0  0  0  0  0  0  0  0
   -2.9166   -3.0452   -0.0617 C   0  0  0  0  0  0  0  0  0  0  0  0
   -2.8625   -0.8370   -0.3895 C   0  0  2  0  0  3  0  0  0  0  0  0
   -3.2513    0.5634   -0.6420 C   0  0  0  0  0  0  0  0  0  0  0  0
   -2.4360    1.3584   -1.4833 C   0  0  0  0  0  0  0  0  0  0  0  0
   -1.5606    0.9151   -1.9823 H   0  0  0  0  0  0  0  0  0  0  0  0
   -2.7773    2.7055   -1.6583 C   0  0  0  0  0  0  0  0  0  0  0  0
   -2.1610    3.3502   -2.3029 H   0  0  0  0  0  0  0  0  0  0  0  0
   -3.9056    3.2107   -1.0014 C   0  0  0  0  0  0  0  0  0  0  0  0
   -4.2291    4.2583   -1.0817 H   0  0  0  0  0  0  0  0  0  0  0  0
   -4.6745    2.3311   -0.2146 C   0  0  0  0  0  0  0  0  0  0  0  0
   -5.9079    2.8548    0.4868 C   0  0  0  0  0  0  0  0  0  0  0  0
   -6.6707    1.8795    1.3550 C   0  0  0  0  0  0  0  0  0  0  0  0
   -7.5316    2.3959    1.8148 H   0  0  0  0  0  0  0  0  0  0  0  0
   -7.0166    1.0134    0.7549 H   0  0  0  0  0  0  0  0  0  0  0  0
   -6.0039    1.4589    2.1345 H   0  0  0  0  0  0  0  0  0  0  0  0
   -5.1842   -1.8817   -0.3568 C   0  0  0  0  0  0  0  0  0  0  0  0
   -5.4199   -0.8221   -0.5659 H   0  0  0  0  0  0  0  0  0  0  0  0
   -5.8241   -2.2218    0.9921 C   0  0  0  0  0  0  0  0  0  0  0  0
   -5.4592   -1.5257    1.7720 H   0  0  0  0  0  0  0  0  0  0  0  0
   -6.9249   -2.1170    0.9206 H   0  0  0  0  0  0  0  0  0  0  0  0
   -5.6009   -3.2576    1.3156 H   0  0  0  0  0  0  0  0  0  0  0  0
   -5.6814   -2.7377   -1.5251 C   0  0  0  0  0  0  0  0  0  0  0  0
   -5.1852   -2.4419   -2.4703 H   0  0  0  0  0  0  0  0  0  0  0  0
   -5.5030   -3.8192   -1.3690 H   0  0  0  0  0  0  0  0  0  0  0  0
   -6.7724   -2.5915   -1.6499 H   0  0  0  0  0  0  0  0  0  0  0  0
  1 24  2  0  0  0  0
  2  5  1  0  0  0  0
  4 14  1  0  0  0  0
  5 14  2  0  0  0  0
  5  6  1  0  0  0  0
  6  8  2  0  0  0  0
  7  6  1  0  0  0  0
  8 10  1  0  0  0  0
  8  9  1  0  0  0  0
 10 11  1  0  0  0  0
 12 13  1  0  0  0  0
 12 10  2  0  0  0  0
 14 12  1  0  0  0  0
 15 16  1  6  0  0  0
 15  2  1  0  0  0  0
 15  4  1  0  0  0  0
 16  3  2  0  0  0  0
 17 16  1  0  0  0  0
 18 17  1  0  0  0  0
 19 17  2  0  0  0  0
 19 21  1  0  0  0  0
 20 19  1  0  0  0  0
 21 23  2  0  0  0  0
 22 21  1  0  0  0  0
 23  3  1  0  0  0  0
 23 24  1  0  0  0  0
 24 25  1  0  0  0  0
 25 26  1  0  0  0  0
 25 28  1  0  0  0  0
 27 25  1  0  0  0  0
 29  4  1  0  0  0  0
 29 31  1  0  0  0  0
 30 29  1  0  0  0  0
 31 34  1  0  0  0  0
 31 32  1  0  0  0  0
 33 31  1  0  0  0  0
 35 37  1  0  0  0  0
 35 29  1  0  0  0  0
 36 35  1  0  0  0  0
 38 35  1  0  0  0  0
M  END
