1
q = 0.0, confidence = 0.998

 22 22  0  0  0  0  0  0  0  0999 V2000
    1.3665   -0.0953   -0.9200 N   0  0  0  0  0  2  0  0  0  0  0  0
    1.7723    0.1917   -2.3057 C   0  0  0  0  0  0  0  0  0  0  0  0
    1.0217    0.8961   -2.7144 H   0  0  0  0  0  0  0  0  0  0  0  0
    2.7724    0.6782   -2.3605 H   0  0  0  0  0  0  0  0  0  0  0  0
    1.7905   -0.7227   -2.9359 H   0  0  0  0  0  0  0  0  0  0  0  0
    2.2508   -1.2093   -0.2060 S   0  0  2  0  0  0  0  0  0  0  0  0
    2.3272   -2.5645   -0.8235 O   0  0  0  0  0  1  0  0  0  0  0  0
    1.6088   -1.2997    1.4610 C   0  0  0  0  0  0  0  0  0  0  0  0
    1.6025   -0.2801    1.9034 H   0  0  0  0  0  0  0  0  0  0  0  0
    2.2736   -2.0018    1.9949 H   0  0  0  0  0  0  0  0  0  0  0  0
    0.5785   -1.6932    1.3757 H   0  0  0  0  0  0  0  0  0  0  0  0
    3.9411   -0.5946   -0.0207 C   0  0  0  0  0  0  0  0  0  0  0  0
    4.1310    0.7224    0.4288 C   0  0  0  0  0  0  0  0  0  0  0  0
    5.4471    1.1934    0.5445 C   0  0  0  0  0  0  0  0  0  0  0  0
    6.5307    0.3659    0.2021 C   0  0  0  0  0  0  0  0  0  0  0  0
    6.3119   -0.9439   -0.2566 C   0  0  0  0  0  0  0  0  0  0  0  0
    5.0037   -1.4383   -0.3714 C   0  0  0  0  0  0  0  0  0  0  0  0
    4.7892   -2.4555   -0.7303 H   0  0  0  0  0  0  0  0  0  0  0  0
    7.1640   -1.5850   -0.5279 H   0  0  0  0  0  0  0  0  0  0  0  0
    7.5589    0.7481    0.2909 H   0  0  0  0  0  0  0  0  0  0  0  0
    5.6242    2.2192    0.9006 H   0  0  0  0  0  0  0  0  0  0  0  0
    3.2668    1.3588    0.6938 H   0  0  0  0  0  0  0  0  0  0  0  0
  1  6  1  0  0  0  0
  2  1  1  0  0  0  0
  3  2  1  0  0  0  0
  4  2  1  0  0  0  0
  5  2  1  0  0  0  0
  6  7  1  6  0  0  0
  6 12  1  0  0  0  0
  6  8  1  0  0  0  0
  8  9  1  0  0  0  0
  8 10  1  0  0  0  0
 11  8  1  0  0  0  0
 12 13  1  0  0  0  0
 13 14  2  0  0  0  0
 13 22  1  0  0  0  0
 14 21  1  0  0  0  0
 15 20  1  0  0  0  0
 15 14  1  0  0  0  0
 16 15  2  0  0  0  0
 17 16  1  0  0  0  0
 17 12  2  0  0  0  0
 18 17  1  0  0  0  0
 19 16  1  0  0  0  0
M  END
