1
q = 0.0, confidence = 1.0

 22 22  0  0  1  0  0  0  0  0999 V2000
    0.9039    0.1727   -1.3243 N   0  0  0  0  0  2  0  0  0  0  0  0
    1.7355    0.3126   -1.9166 H   0  0  0  0  0  0  0  0  0  0  0  0
   -0.7558    1.1680   -0.1798 O   0  0  0  0  0  0  0  0  0  0  0  0
    0.2632    1.2672   -1.0467 C   0  0  1  0  0  3  0  0  0  0  0  0
   -1.5007    2.3209    0.2172 C   0  0  0  0  0  0  0  0  0  0  0  0
   -0.8492    3.0712    0.7090 H   0  0  0  0  0  0  0  0  0  0  0  0
   -2.2576    1.9489    0.9302 H   0  0  0  0  0  0  0  0  0  0  0  0
   -2.0295    2.7780   -0.6437 H   0  0  0  0  0  0  0  0  0  0  0  0
    0.7337    2.6108   -1.5434 C   0  0  0  0  0  0  0  0  0  0  0  0
   -0.1187    3.2497   -1.8479 H   0  0  0  0  0  0  0  0  0  0  0  0
    1.3431    2.4394   -2.4547 H   0  0  0  0  0  0  0  0  0  0  0  0
    1.5673    3.3202   -0.4789 C   0  0  0  0  0  0  0  0  0  0  0  0
    1.3299    4.6752   -0.1771 C   0  0  0  0  0  0  0  0  0  0  0  0
    0.5322    5.2192   -0.7086 H   0  0  0  0  0  0  0  0  0  0  0  0
    2.1027    5.3375    0.7893 C   0  0  0  0  0  0  0  0  0  0  0  0
    1.9077    6.3975    1.0129 H   0  0  0  0  0  0  0  0  0  0  0  0
    3.1184    4.6473    1.4683 C   0  0  0  0  0  0  0  0  0  0  0  0
    3.7237    5.1634    2.2288 H   0  0  0  0  0  0  0  0  0  0  0  0
    3.3580    3.2955    1.1730 C   0  0  0  0  0  0  0  0  0  0  0  0
    4.1525    2.7451    1.6991 H   0  0  0  0  0  0  0  0  0  0  0  0
    2.5895    2.6297    0.2066 C   0  0  0  0  0  0  0  0  0  0  0  0
    2.7987    1.5668   -0.0070 H   0  0  0  0  0  0  0  0  0  0  0  0
  2  1  1  0  0  0  0
  3  5  1  0  0  0  0
  4  1  1  1  0  0  0
  4  3  1  0  0  0  0
  5  6  1  0  0  0  0
  5  7  1  0  0  0  0
  8  5  1  0  0  0  0
  9  4  1  0  0  0  0
  9 12  1  0  0  0  0
 10  9  1  0  0  0  0
 11  9  1  0  0  0  0
 12 13  2  0  0  0  0
 12 21  1  0  0  0  0
 13 15  1  0  0  0  0
 14 13  1  0  0  0  0
 15 16  1  0  0  0  0
 15 17  2  0  0  0  0
 17 18  1  0  0  0  0
 19 17  1  0  0  0  0
 19 20  1  0  0  0  0
 21 19  2  0  0  0  0
 22 21  1  0  0  0  0
M  END
