17
q = 0.0, confidence = 0.978

 21 22  0  0  1  0  0  0  0  0999 V2000
   -4.5648    3.1150   -0.8438 C   0  0  0  0  0  0  0  0  0  0  0  0
   -4.7310    4.1742   -1.0944 H   0  0  0  0  0  0  0  0  0  0  0  0
   -3.1694    1.1286   -0.8750 C   0  0  0  0  0  0  0  0  0  0  0  0
   -3.3730    2.4892   -1.2140 C   0  0  0  0  0  0  0  0  0  0  0  0
   -2.5790    3.0223   -1.7561 H   0  0  0  0  0  0  0  0  0  0  0  0
   -4.1617    0.4059   -0.1710 C   0  0  0  0  0  0  0  0  0  0  0  0
   -3.9483   -0.6543    0.0568 H   0  0  0  0  0  0  0  0  0  0  0  0
   -5.5585    2.3954   -0.1482 C   0  0  0  0  0  0  0  0  0  0  0  0
   -6.4956    2.8975    0.1379 H   0  0  0  0  0  0  0  0  0  0  0  0
   -5.3567    1.0443    0.1822 C   0  0  0  0  0  0  0  0  0  0  0  0
   -6.1376    0.4857    0.7201 H   0  0  0  0  0  0  0  0  0  0  0  0
   -0.0670    0.1642   -2.1765 C   0  0  1  0  0  3  0  0  0  0  0  0
    1.8895   -0.3959   -3.0718 C   0  0  0  0  0  0  0  0  0  0  0  0
    2.7785   -0.3168   -3.7043 H   0  0  0  0  0  0  0  0  0  0  0  0
    1.5005   -1.3481   -2.1339 C   0  0  0  0  0  0  0  0  0  0  0  0
    2.0140   -2.2441   -1.7606 H   0  0  0  0  0  0  0  0  0  0  0  0
    0.2960   -0.9899   -1.5956 N   0  0  0  0  0  2  0  0  0  0  0  0
   -2.0105    0.4022   -1.1686 N   0  0  0  0  0  2  0  0  0  0  0  0
   -1.1886    0.9387   -1.9823 N   0  0  0  0  0  2  0  0  0  0  0  0
    0.8902    0.5477   -3.0774 N   0  0  0  0  0  0  0  0  0  0  0  0
    0.8305    1.3966   -3.6425 H   0  0  0  0  0  0  0  0  0  0  0  0
  1  8  1  0  0  0  0
  2  1  1  0  0  0  0
  3  6  2  0  0  0  0
  4  3  1  0  0  0  0
  4  1  2  0  0  0  0
  5  4  1  0  0  0  0
  6  7  1  0  0  0  0
  6 10  1  0  0  0  0
  8  9  1  0  0  0  0
  8 10  2  0  0  0  0
 10 11  1  0  0  0  0
 12 19  1  1  0  0  0
 12 17  1  0  0  0  0
 13 15  2  0  0  0  0
 14 13  1  0  0  0  0
 15 16  1  0  0  0  0
 15 17  1  0  0  0  0
 18  3  1  0  0  0  0
 19 18  1  0  0  0  0
 20 13  1  0  0  0  0
 20 12  1  0  0  0  0
 21 20  1  0  0  0  0
M  END
