4
q = -1.0

 30 30  0  0  0  0  0  0  0  0999 V2000
    0.0492    2.5059    0.3888 P   0  0  0  0  0  0  0  0  0  0  0  0
   -4.2964    0.4409    0.4645 O   0  0  0  0  0  0  0  0  0  0  0  0
   -2.9379   -1.3008   -0.1138 O   0  0  0  0  0  0  0  0  0  0  0  0
    0.2900    0.7856    0.4525 N   0  0  0  0  0  2  0  0  0  0  0  0
   -0.7723    0.0449    0.3572 N   0  0  0  0  0  0  0  0  0  0  0  0
   -2.6187    3.2345    0.1224 N   0  0  0  0  0  0  0  0  0  0  0  0
   -1.9182    0.7759    0.2356 C   0  0  0  0  0  0  0  0  0  0  0  0
   -1.7111    2.2012    0.2369 C   0  0  0  0  0  0  0  0  0  0  0  0
   -2.0586    4.5695    0.1979 C   0  0  0  0  0  0  0  0  0  0  0  0
   -3.8097    3.1136   -0.7056 C   0  0  0  0  0  0  0  0  0  0  0  0
   -3.1775   -0.0021    0.2156 C   0  0  0  0  0  0  0  0  0  0  0  0
   -3.9996   -2.3122   -0.0527 C   0  0  0  0  0  0  0  0  0  0  0  0
   -5.0861   -2.0007   -1.0894 C   0  0  0  0  0  0  0  0  0  0  0  0
   -3.2588   -3.6022   -0.4180 C   0  0  0  0  0  0  0  0  0  0  0  0
   -4.5655   -2.4009    1.3697 C   0  0  0  0  0  0  0  0  0  0  0  0
   -2.8734    5.3152    0.2751 H   0  0  0  0  0  0  0  0  0  0  0  0
   -1.4314    4.8227   -0.6954 H   0  0  0  0  0  0  0  0  0  0  0  0
   -1.4113    4.6608    1.0961 H   0  0  0  0  0  0  0  0  0  0  0  0
   -4.4742    3.9770   -0.5056 H   0  0  0  0  0  0  0  0  0  0  0  0
   -4.3560    2.1876   -0.4528 H   0  0  0  0  0  0  0  0  0  0  0  0
   -3.5588    3.1139   -1.7949 H   0  0  0  0  0  0  0  0  0  0  0  0
   -5.6149   -1.0652   -0.8338 H   0  0  0  0  0  0  0  0  0  0  0  0
   -5.8192   -2.8315   -1.1259 H   0  0  0  0  0  0  0  0  0  0  0  0
   -4.6351   -1.8944   -2.0965 H   0  0  0  0  0  0  0  0  0  0  0  0
   -3.9595   -4.4602   -0.4206 H   0  0  0  0  0  0  0  0  0  0  0  0
   -2.4516   -3.8067    0.3125 H   0  0  0  0  0  0  0  0  0  0  0  0
   -2.8030   -3.5168   -1.4244 H   0  0  0  0  0  0  0  0  0  0  0  0
   -5.2735   -3.2511    1.4376 H   0  0  0  0  0  0  0  0  0  0  0  0
   -5.0959   -1.4714    1.6439 H   0  0  0  0  0  0  0  0  0  0  0  0
   -3.7464   -2.5731    2.0960 H   0  0  0  0  0  0  0  0  0  0  0  0
  1  4  1  0  0  0  0
  3 12  1  0  0  0  0
  3 11  1  0  0  0  0
  5  4  1  0  0  0  0
  6  9  1  0  0  0  0
  6  8  1  0  0  0  0
  7  8  1  0  0  0  0
  7  5  2  0  0  0  0
  8  1  2  0  0  0  0
  9 16  1  0  0  0  0
  9 18  1  0  0  0  0
 10 19  1  0  0  0  0
 10 20  1  0  0  0  0
 10  6  1  0  0  0  0
 11  7  1  0  0  0  0
 11  2  2  0  0  0  0
 12 15  1  0  0  0  0
 13 22  1  0  0  0  0
 13 12  1  0  0  0  0
 14 12  1  0  0  0  0
 14 26  1  0  0  0  0
 15 28  1  0  0  0  0
 15 29  1  0  0  0  0
 15 30  1  0  0  0  0
 17  9  1  0  0  0  0
 21 10  1  0  0  0  0
 23 13  1  0  0  0  0
 24 13  1  0  0  0  0
 25 14  1  0  0  0  0
 27 14  1  0  0  0  0
M  END
