1
q = 0.0, confidence = 0.946

 25 26  0  0  0  0  0  0  0  0999 V2000
    1.9627    0.5261   -0.1347 N   0  0  0  0  0  2  0  0  0  0  0  0
    4.1678    0.3783   -0.0855 N   0  0  0  0  0  0  0  0  0  0  0  0
    2.9972   -0.2908    0.0893 C   0  0  0  0  0  3  0  0  0  0  0  0
    2.4810    1.7650   -0.4642 C   0  0  0  0  0  0  0  0  0  0  0  0
    3.8587    1.6843   -0.4380 C   0  0  0  0  0  0  0  0  0  0  0  0
    5.5044   -0.2014    0.0728 C   0  0  0  0  0  0  0  0  0  0  0  0
    6.2913    0.4837    1.2016 C   0  0  0  0  0  0  0  0  0  0  0  0
    7.6747   -0.1571    1.3729 C   0  0  0  0  0  0  0  0  0  0  0  0
    8.4646   -0.1530    0.0575 C   0  0  0  0  0  0  0  0  0  0  0  0
    7.6729   -0.8283   -1.0700 C   0  0  0  0  0  0  0  0  0  0  0  0
    6.2894   -0.1897   -1.2489 C   0  0  0  0  0  0  0  0  0  0  0  0
    2.9007   -1.3537    0.3413 H   0  0  0  0  0  0  0  0  0  0  0  0
    1.8129    2.6079   -0.6681 H   0  0  0  0  0  0  0  0  0  0  0  0
    4.6276    2.4363   -0.6358 H   0  0  0  0  0  0  0  0  0  0  0  0
    5.3307   -1.2598    0.3635 H   0  0  0  0  0  0  0  0  0  0  0  0
    5.7060    0.4343    2.1427 H   0  0  0  0  0  0  0  0  0  0  0  0
    6.4086    1.5618    0.9544 H   0  0  0  0  0  0  0  0  0  0  0  0
    8.2376    0.3698    2.1705 H   0  0  0  0  0  0  0  0  0  0  0  0
    7.5497   -1.2065    1.7226 H   0  0  0  0  0  0  0  0  0  0  0  0
    9.4454   -0.6536    0.1943 H   0  0  0  0  0  0  0  0  0  0  0  0
    8.6879    0.8987   -0.2316 H   0  0  0  0  0  0  0  0  0  0  0  0
    7.5477   -1.9091   -0.8345 H   0  0  0  0  0  0  0  0  0  0  0  0
    8.2347   -0.7833   -2.0256 H   0  0  0  0  0  0  0  0  0  0  0  0
    6.4061    0.8634   -1.5875 H   0  0  0  0  0  0  0  0  0  0  0  0
    5.7029   -0.7134   -2.0314 H   0  0  0  0  0  0  0  0  0  0  0  0
  1  3  1  0  0  0  0
  2  6  1  0  0  0  0
  2  3  1  0  0  0  0
  3 12  1  0  0  0  0
  4  5  2  0  0  0  0
  4  1  1  0  0  0  0
  5  2  1  0  0  0  0
  6 15  1  0  0  0  0
  6  7  1  0  0  0  0
  7  8  1  0  0  0  0
  7 16  1  0  0  0  0
  8 19  1  0  0  0  0
  8 18  1  0  0  0  0
  9 20  1  0  0  0  0
  9  8  1  0  0  0  0
 10 22  1  0  0  0  0
 10  9  1  0  0  0  0
 11 10  1  0  0  0  0
 11  6  1  0  0  0  0
 13  4  1  0  0  0  0
 14  5  1  0  0  0  0
 17  7  1  0  0  0  0
 21  9  1  0  0  0  0
 23 10  1  0  0  0  0
 24 11  1  0  0  0  0
 25 11  1  0  0  0  0
M  END
