2
q = 0.0, confidence = 0.992

 37 39  0  0  1  0  0  0  0  0999 V2000
    0.4048    0.4510    0.9177 S   0  0  0  0  0  0  0  0  0  0  0  0
   -2.4194    0.0927    0.1756 N   0  0  0  0  0  0  0  0  0  0  0  0
   -2.6463    0.2246   -0.8282 H   0  0  0  0  0  0  0  0  0  0  0  0
   -3.2711   -0.2678    0.6293 H   0  0  0  0  0  0  0  0  0  0  0  0
   -2.0948    1.4413    0.7594 C   0  0  1  0  0  0  0  0  0  0  0  0
   -2.1271    1.3228    1.8628 H   0  0  0  0  0  0  0  0  0  0  0  0
   -0.6712    1.8306    0.3547 C   0  0  0  0  0  0  0  0  0  0  0  0
   -0.3523    2.7626    0.8579 H   0  0  0  0  0  0  0  0  0  0  0  0
   -0.5657    1.9271   -0.7432 H   0  0  0  0  0  0  0  0  0  0  0  0
   -3.1163    2.4829    0.3441 C   0  0  0  0  0  0  0  0  0  0  0  0
   -3.3020    2.7910   -1.0209 C   0  0  0  0  0  0  0  0  0  0  0  0
   -2.7043    2.2790   -1.7940 H   0  0  0  0  0  0  0  0  0  0  0  0
   -4.2490    3.7503   -1.4042 C   0  0  0  0  0  0  0  0  0  0  0  0
   -4.3881    3.9850   -2.4699 H   0  0  0  0  0  0  0  0  0  0  0  0
   -5.0144    4.4136   -0.4305 C   0  0  0  0  0  0  0  0  0  0  0  0
   -5.7558    5.1679   -0.7333 H   0  0  0  0  0  0  0  0  0  0  0  0
   -4.8326    4.1133    0.9280 C   0  0  0  0  0  0  0  0  0  0  0  0
   -5.4300    4.6308    1.6933 H   0  0  0  0  0  0  0  0  0  0  0  0
   -3.8879    3.1500    1.3137 C   0  0  0  0  0  0  0  0  0  0  0  0
   -3.7460    2.9165    2.3811 H   0  0  0  0  0  0  0  0  0  0  0  0
    2.0098    0.7661    0.1820 C   0  0  0  0  0  0  0  0  0  0  0  0
    2.2545    0.6841   -1.2180 C   0  0  0  0  0  0  0  0  0  0  0  0
    1.4312    0.4331   -1.9024 H   0  0  0  0  0  0  0  0  0  0  0  0
    3.5368    0.9191   -1.6856 C   0  0  0  0  0  0  0  0  0  0  0  0
    3.7400    0.8631   -2.7662 H   0  0  0  0  0  0  0  0  0  0  0  0
    4.6127    1.2316   -0.8009 C   0  0  0  0  0  0  0  0  0  0  0  0
    5.9358    1.4739   -1.2684 C   0  0  0  0  0  0  0  0  0  0  0  0
    6.1359    1.4217   -2.3495 H   0  0  0  0  0  0  0  0  0  0  0  0
    6.9564    1.7731   -0.3771 C   0  0  0  0  0  0  0  0  0  0  0  0
    7.9743    1.9601   -0.7503 H   0  0  0  0  0  0  0  0  0  0  0  0
    6.6985    1.8421    1.0190 C   0  0  0  0  0  0  0  0  0  0  0  0
    7.5185    2.0821    1.7120 H   0  0  0  0  0  0  0  0  0  0  0  0
    5.4218    1.6112    1.5084 C   0  0  0  0  0  0  0  0  0  0  0  0
    5.2183    1.6663    2.5888 H   0  0  0  0  0  0  0  0  0  0  0  0
    4.3521    1.3022    0.6178 C   0  0  0  0  0  0  0  0  0  0  0  0
    3.0288    1.0608    1.0846 C   0  0  0  0  0  0  0  0  0  0  0  0
    2.8202    1.1131    2.1645 H   0  0  0  0  0  0  0  0  0  0  0  0
  2  4  1  0  0  0  0
  2  5  1  0  0  0  0
  3  2  1  0  0  0  0
  5  6  1  1  0  0  0
  7  5  1  0  0  0  0
  7  8  1  0  0  0  0
  7  1  1  0  0  0  0
  9  7  1  0  0  0  0
 10  5  1  0  0  0  0
 10 19  1  0  0  0  0
 11 10  2  0  0  0  0
 12 11  1  0  0  0  0
 13 11  1  0  0  0  0
 13 15  2  0  0  0  0
 14 13  1  0  0  0  0
 15 17  1  0  0  0  0
 16 15  1  0  0  0  0
 17 19  2  0  0  0  0
 17 18  1  0  0  0  0
 19 20  1  0  0  0  0
 21  1  1  0  0  0  0
 21 36  1  0  0  0  0
 22 21  2  0  0  0  0
 23 22  1  0  0  0  0
 24 22  1  0  0  0  0
 24 26  2  0  0  0  0
 25 24  1  0  0  0  0
 26 35  1  0  0  0  0
 27 26  1  0  0  0  0
 27 29  2  0  0  0  0
 28 27  1  0  0  0  0
 29 31  1  0  0  0  0
 30 29  1  0  0  0  0
 31 33  2  0  0  0  0
 31 32  1  0  0  0  0
 33 34  1  0  0  0  0
 35 36  2  0  0  0  0
 35 33  1  0  0  0  0
 36 37  1  0  0  0  0
M  END
