1
q = 0.0, confidence = 1.0

 23 24  0  0  1  0  0  0  0  0999 V2000
    0.6805    0.9061   -1.4858 N   0  0  0  0  0  2  0  0  0  0  0  0
    1.9968    1.1779   -2.0841 C   0  0  0  0  0  0  0  0  0  0  0  0
    2.4624   -0.2074   -2.5684 C   0  0  0  0  0  0  0  0  0  0  0  0
    1.2597   -1.0261   -2.4910 O   0  0  0  0  0  0  0  0  0  0  0  0
    0.3446   -0.3100   -1.8022 C   0  0  1  0  0  3  0  0  0  0  0  0
   -0.9178   -0.9854   -1.4847 C   0  0  0  0  0  0  0  0  0  0  0  0
   -2.0895   -0.2351   -1.2443 C   0  0  0  0  0  0  0  0  0  0  0  0
   -3.2763   -0.8945   -0.9127 C   0  0  0  0  0  0  0  0  0  0  0  0
   -3.3343   -2.3022   -0.8055 C   0  0  0  0  0  0  0  0  0  0  0  0
   -2.1593   -3.0371   -1.0686 C   0  0  0  0  0  0  0  0  0  0  0  0
   -0.9655   -2.3934   -1.4123 C   0  0  0  0  0  0  0  0  0  0  0  0
   -4.6157   -2.9891   -0.4116 C   0  0  0  0  0  0  0  0  0  0  0  0
    2.6533    1.6518   -1.3259 H   0  0  0  0  0  0  0  0  0  0  0  0
    1.8720    1.9096   -2.9117 H   0  0  0  0  0  0  0  0  0  0  0  0
    3.2214   -0.6688   -1.9031 H   0  0  0  0  0  0  0  0  0  0  0  0
    2.8232   -0.2314   -3.6139 H   0  0  0  0  0  0  0  0  0  0  0  0
   -2.0727    0.8671   -1.3138 H   0  0  0  0  0  0  0  0  0  0  0  0
   -4.1860   -0.2974   -0.7389 H   0  0  0  0  0  0  0  0  0  0  0  0
   -2.1842   -4.1361   -1.0021 H   0  0  0  0  0  0  0  0  0  0  0  0
   -0.0525   -2.9724   -1.6093 H   0  0  0  0  0  0  0  0  0  0  0  0
   -4.8540   -2.8009    0.6575 H   0  0  0  0  0  0  0  0  0  0  0  0
   -5.4752   -2.6091   -1.0003 H   0  0  0  0  0  0  0  0  0  0  0  0
   -4.5563   -4.0854   -0.5517 H   0  0  0  0  0  0  0  0  0  0  0  0
  2  1  1  0  0  0  0
  2 13  1  0  0  0  0
  3  4  1  0  0  0  0
  3  2  1  0  0  0  0
  3 15  1  0  0  0  0
  4  5  1  0  0  0  0
  5  1  1  0  0  0  0
  5  6  1  1  0  0  0
  6 11  2  0  0  0  0
  6  7  1  0  0  0  0
  7  8  2  0  0  0  0
  8  9  1  0  0  0  0
  8 18  1  0  0  0  0
  9 12  1  0  0  0  0
 10 19  1  0  0  0  0
 10  9  2  0  0  0  0
 11 10  1  0  0  0  0
 12 21  1  0  0  0  0
 14  2  1  0  0  0  0
 16  3  1  0  0  0  0
 17  7  1  0  0  0  0
 20 11  1  0  0  0  0
 22 12  1  0  0  0  0
 23 12  1  0  0  0  0
M  END
