1
q = 0.0, confidence = 0.998

 20 21  0  0  1  0  0  0  0  0999 V2000
   -0.9420    0.8918   -1.4351 N   0  0  0  0  0  2  0  0  0  0  0  0
   -2.2376    1.3696   -1.9445 C   0  0  0  0  0  0  0  0  0  0  0  0
   -2.0571    2.2036   -2.6562 H   0  0  0  0  0  0  0  0  0  0  0  0
   -2.8297    1.7778   -1.1001 H   0  0  0  0  0  0  0  0  0  0  0  0
   -2.8479    0.1196   -2.6085 C   0  0  0  0  0  0  0  0  0  0  0  0
   -3.6694   -0.3293   -2.0143 H   0  0  0  0  0  0  0  0  0  0  0  0
   -3.1807    0.2714   -3.6526 H   0  0  0  0  0  0  0  0  0  0  0  0
   -1.7473   -0.8404   -2.6278 O   0  0  0  0  0  0  0  0  0  0  0  0
   -0.7524   -0.3083   -1.8914 C   0  0  2  0  0  3  0  0  0  0  0  0
    0.4245   -1.1578   -1.6554 C   0  0  0  0  0  0  0  0  0  0  0  0
    1.6676   -0.5643   -1.3499 C   0  0  0  0  0  0  0  0  0  0  0  0
    1.7913    0.5341   -1.3482 H   0  0  0  0  0  0  0  0  0  0  0  0
    2.7538   -1.4012   -1.0665 C   0  0  0  0  0  0  0  0  0  0  0  0
    2.6332   -2.8015   -1.0981 C   0  0  0  0  0  0  0  0  0  0  0  0
    3.5074   -3.4281   -0.8718 H   0  0  0  0  0  0  0  0  0  0  0  0
    1.3965   -3.3733   -1.4323 C   0  0  0  0  0  0  0  0  0  0  0  0
    1.2972   -4.4684   -1.4656 H   0  0  0  0  0  0  0  0  0  0  0  0
    0.2920   -2.5607   -1.7148 C   0  0  0  0  0  0  0  0  0  0  0  0
   -0.6847   -2.9985   -1.9606 H   0  0  0  0  0  0  0  0  0  0  0  0
    4.3021   -0.6890   -0.6735 Cl  0  0  0  0  0  0  0  0  0  0  0  0
  2  1  1  0  0  0  0
  2  4  1  0  0  0  0
  3  2  1  0  0  0  0
  5  6  1  0  0  0  0
  5  2  1  0  0  0  0
  7  5  1  0  0  0  0
  8  5  1  0  0  0  0
  8  9  1  0  0  0  0
  9 10  1  1  0  0  0
  9  1  1  0  0  0  0
 10 11  1  0  0  0  0
 11 12  1  0  0  0  0
 11 13  2  0  0  0  0
 13 20  1  0  0  0  0
 14 13  1  0  0  0  0
 14 15  1  0  0  0  0
 16 14  2  0  0  0  0
 17 16  1  0  0  0  0
 18 10  2  0  0  0  0
 18 16  1  0  0  0  0
 19 18  1  0  0  0  0
M  END
