2
q = 0.0, confidence = 1.0

 20 21  0  0  1  0  0  0  0  0999 V2000
   -4.7433   -2.8185   -0.2434 Cl  0  0  0  0  0  0  0  0  0  0  0  0
    0.7292    1.0801   -1.4716 N   0  0  0  0  0  2  0  0  0  0  0  0
    2.0660    1.3396   -2.0293 C   0  0  0  0  0  0  0  0  0  0  0  0
    2.5162   -0.0396   -2.5523 C   0  0  0  0  0  0  0  0  0  0  0  0
    1.3079   -0.8537   -2.4761 O   0  0  0  0  0  0  0  0  0  0  0  0
    0.3895   -0.1298   -1.8051 C   0  0  1  0  0  3  0  0  0  0  0  0
   -0.8847   -0.7913   -1.5029 C   0  0  0  0  0  0  0  0  0  0  0  0
   -0.9426   -2.1981   -1.4000 C   0  0  0  0  0  0  0  0  0  0  0  0
   -2.1323   -2.8303   -1.0249 C   0  0  0  0  0  0  0  0  0  0  0  0
   -3.2726   -2.0478   -0.7701 C   0  0  0  0  0  0  0  0  0  0  0  0
   -3.2422   -0.6502   -0.9203 C   0  0  0  0  0  0  0  0  0  0  0  0
   -2.0475   -0.0224   -1.2841 C   0  0  0  0  0  0  0  0  0  0  0  0
    2.7132    1.7734   -1.2399 H   0  0  0  0  0  0  0  0  0  0  0  0
    1.9799    2.1032   -2.8320 H   0  0  0  0  0  0  0  0  0  0  0  0
    3.2852   -0.5276   -1.9194 H   0  0  0  0  0  0  0  0  0  0  0  0
    2.8564   -0.0390   -3.6051 H   0  0  0  0  0  0  0  0  0  0  0  0
   -0.0362   -2.7898   -1.5894 H   0  0  0  0  0  0  0  0  0  0  0  0
   -2.1847   -3.9225   -0.9172 H   0  0  0  0  0  0  0  0  0  0  0  0
   -4.1518   -0.0571   -0.7494 H   0  0  0  0  0  0  0  0  0  0  0  0
   -2.0225    1.0783   -1.3799 H   0  0  0  0  0  0  0  0  0  0  0  0
  3  2  1  0  0  0  0
  3 13  1  0  0  0  0
  4  5  1  0  0  0  0
  4  3  1  0  0  0  0
  4 15  1  0  0  0  0
  5  6  1  0  0  0  0
  6  7  1  1  0  0  0
  6  2  1  0  0  0  0
  7  8  2  0  0  0  0
  7 12  1  0  0  0  0
  8  9  1  0  0  0  0
  9 18  1  0  0  0  0
  9 10  2  0  0  0  0
 10  1  1  0  0  0  0
 11 10  1  0  0  0  0
 11 19  1  0  0  0  0
 12 11  2  0  0  0  0
 14  3  1  0  0  0  0
 16  4  1  0  0  0  0
 17  8  1  0  0  0  0
 20 12  1  0  0  0  0
M  END
