3
q = -1.0, confidence = 0.006

 55 54  0  0  0  0  0  0  0  0999 V2000
   -2.2884   -0.0980    0.1045 P   0  0  0  0  0  0  0  0  0  0  0  0
    2.2818    0.0503    0.1838 P   0  0  0  0  0  0  0  0  0  0  0  0
    0.0025   -0.9019    1.6453 N   0  0  0  0  0  2  0  0  0  0  0  0
   -1.1747   -1.5951    2.1486 C   0  0  0  0  0  0  0  0  0  0  0  0
   -2.4644   -0.8496    1.7999 C   0  0  0  0  0  0  0  0  0  0  0  0
    1.2139   -1.4157    2.2681 C   0  0  0  0  0  0  0  0  0  0  0  0
    2.4386   -0.5641    1.9323 C   0  0  0  0  0  0  0  0  0  0  0  0
   -3.2464   -1.2615   -1.0187 C   0  0  0  0  0  0  0  0  0  0  0  0
   -3.5562   -0.6170   -2.3748 C   0  0  0  0  0  0  0  0  0  0  0  0
   -2.4491   -2.5629   -1.1727 C   0  0  0  0  0  0  0  0  0  0  0  0
   -3.3334    1.4604    0.1731 C   0  0  0  0  0  0  0  0  0  0  0  0
   -2.6421    2.4955    1.0686 C   0  0  0  0  0  0  0  0  0  0  0  0
   -4.7923    1.2160    0.5708 C   0  0  0  0  0  0  0  0  0  0  0  0
    3.2348   -1.1666   -0.8854 C   0  0  0  0  0  0  0  0  0  0  0  0
    2.4783   -2.4998   -0.9386 C   0  0  0  0  0  0  0  0  0  0  0  0
    4.7063   -1.3402   -0.4998 C   0  0  0  0  0  0  0  0  0  0  0  0
    3.3313    1.6096    0.1683 C   0  0  0  0  0  0  0  0  0  0  0  0
    2.6189    2.7100    0.9655 C   0  0  0  0  0  0  0  0  0  0  0  0
    3.6401    2.0608   -1.2655 C   0  0  0  0  0  0  0  0  0  0  0  0
   -4.2045   -1.4809   -0.4960 H   0  0  0  0  0  0  0  0  0  0  0  0
   -1.1063   -1.6972    3.2611 H   0  0  0  0  0  0  0  0  0  0  0  0
   -1.2315   -2.6489    1.7652 H   0  0  0  0  0  0  0  0  0  0  0  0
   -2.6035    0.0006    2.4988 H   0  0  0  0  0  0  0  0  0  0  0  0
   -3.3608   -1.4992    1.8717 H   0  0  0  0  0  0  0  0  0  0  0  0
    1.4064   -2.4807    1.9693 H   0  0  0  0  0  0  0  0  0  0  0  0
    1.0863   -1.4486    3.3801 H   0  0  0  0  0  0  0  0  0  0  0  0
    3.3902   -1.1080    2.1025 H   0  0  0  0  0  0  0  0  0  0  0  0
    2.4523    0.3446    2.5678 H   0  0  0  0  0  0  0  0  0  0  0  0
   -2.6286   -0.2980   -2.8914 H   0  0  0  0  0  0  0  0  0  0  0  0
   -4.2145    0.2696   -2.2839 H   0  0  0  0  0  0  0  0  0  0  0  0
   -4.0708   -1.3458   -3.0356 H   0  0  0  0  0  0  0  0  0  0  0  0
   -1.4426   -2.3513   -1.5890 H   0  0  0  0  0  0  0  0  0  0  0  0
   -2.9775   -3.2661   -1.8503 H   0  0  0  0  0  0  0  0  0  0  0  0
   -2.3009   -3.0760   -0.2015 H   0  0  0  0  0  0  0  0  0  0  0  0
   -3.3004    1.8372   -0.8731 H   0  0  0  0  0  0  0  0  0  0  0  0
   -1.5719    2.5990    0.7971 H   0  0  0  0  0  0  0  0  0  0  0  0
   -2.6849    2.1980    2.1371 H   0  0  0  0  0  0  0  0  0  0  0  0
   -3.1417    3.4827    0.9792 H   0  0  0  0  0  0  0  0  0  0  0  0
   -5.3141    0.5269   -0.1228 H   0  0  0  0  0  0  0  0  0  0  0  0
   -5.3575    2.1719    0.5761 H   0  0  0  0  0  0  0  0  0  0  0  0
   -4.8655    0.7884    1.5923 H   0  0  0  0  0  0  0  0  0  0  0  0
    3.1799   -0.7052   -1.8965 H   0  0  0  0  0  0  0  0  0  0  0  0
    1.4070   -2.3299   -1.1724 H   0  0  0  0  0  0  0  0  0  0  0  0
    2.5305   -3.0309    0.0343 H   0  0  0  0  0  0  0  0  0  0  0  0
    2.9191   -3.1683   -1.7075 H   0  0  0  0  0  0  0  0  0  0  0  0
    5.2713   -0.3871   -0.5224 H   0  0  0  0  0  0  0  0  0  0  0  0
    5.2086   -2.0398   -1.2008 H   0  0  0  0  0  0  0  0  0  0  0  0
    4.8108   -1.7717    0.5174 H   0  0  0  0  0  0  0  0  0  0  0  0
    4.2857    1.3504    0.6805 H   0  0  0  0  0  0  0  0  0  0  0  0
    2.4495    2.4211    2.0216 H   0  0  0  0  0  0  0  0  0  0  0  0
    1.6250    2.9297    0.5268 H   0  0  0  0  0  0  0  0  0  0  0  0
    3.2244    3.6405    0.9640 H   0  0  0  0  0  0  0  0  0  0  0  0
    4.2530    1.3240   -1.8208 H   0  0  0  0  0  0  0  0  0  0  0  0
    4.2045    3.0167   -1.2516 H   0  0  0  0  0  0  0  0  0  0  0  0
    2.7101    2.2325   -1.8442 H   0  0  0  0  0  0  0  0  0  0  0  0
  1 11  1  0  0  0  0
  1  5  1  0  0  0  0
  2  7  1  0  0  0  0
  3  4  1  0  0  0  0
  3  6  1  0  0  0  0
  4 21  1  0  0  0  0
  5 24  1  0  0  0  0
  5  4  1  0  0  0  0
  5 23  1  0  0  0  0
  6 26  1  0  0  0  0
  7 27  1  0  0  0  0
  7  6  1  0  0  0  0
  7 28  1  0  0  0  0
  8 20  1  0  0  0  0
  8  1  1  0  0  0  0
  9 30  1  0  0  0  0
  9  8  1  0  0  0  0
 10  8  1  0  0  0  0
 10 34  1  0  0  0  0
 11 13  1  0  0  0  0
 11 12  1  0  0  0  0
 12 37  1  0  0  0  0
 13 40  1  0  0  0  0
 13 41  1  0  0  0  0
 14 16  1  0  0  0  0
 14  2  1  0  0  0  0
 15 14  1  0  0  0  0
 15 44  1  0  0  0  0
 16 48  1  0  0  0  0
 17  2  1  0  0  0  0
 17 49  1  0  0  0  0
 17 18  1  0  0  0  0
 18 50  1  0  0  0  0
 19 54  1  0  0  0  0
 19 17  1  0  0  0  0
 22  4  1  0  0  0  0
 25  6  1  0  0  0  0
 29  9  1  0  0  0  0
 31  9  1  0  0  0  0
 32 10  1  0  0  0  0
 33 10  1  0  0  0  0
 35 11  1  0  0  0  0
 36 12  1  0  0  0  0
 38 12  1  0  0  0  0
 39 13  1  0  0  0  0
 42 14  1  0  0  0  0
 43 15  1  0  0  0  0
 45 15  1  0  0  0  0
 46 16  1  0  0  0  0
 47 16  1  0  0  0  0
 51 18  1  0  0  0  0
 52 18  1  0  0  0  0
 53 19  1  0  0  0  0
 55 19  1  0  0  0  0
M  END
