3
q = 0.0, confidence = 0.994

 25 26  0  0  0  0  0  0  0  0999 V2000
   11.0483    0.7858   -0.9543 O   0  0  0  0  0  0  0  0  0  0  0  0
   11.0846   -0.0095    1.0839 O   0  0  0  0  0  0  0  0  0  0  0  0
   -0.6518   -0.6885   -0.1230 N   0  0  0  0  0  2  0  0  0  0  0  0
   10.5042    0.3323    0.0530 N   0  0  0  0  0  0  0  0  0  0  0  0
    0.0419   -0.2386   -1.2070 C   0  0  0  0  0  3  0  0  0  0  0  0
    0.0893   -1.0497    0.9647 C   0  0  0  0  0  0  0  0  0  0  0  0
    1.4263   -0.1089   -1.2385 C   0  0  0  0  0  0  0  0  0  0  0  0
    1.4748   -0.9569    1.0193 C   0  0  0  0  0  0  0  0  0  0  0  0
    2.1973   -0.4643   -0.1005 C   0  0  0  0  0  0  0  0  0  0  0  0
    3.6064   -0.3360   -0.0819 C   0  0  0  0  0  0  0  0  0  0  0  0
    4.8350   -0.2206   -0.0612 C   0  0  0  0  0  0  0  0  0  0  0  0
    6.2474   -0.0857   -0.0344 C   0  0  0  0  0  0  0  0  0  0  0  0
    6.9457    0.4287   -1.1622 C   0  0  0  0  0  0  0  0  0  0  0  0
    6.9861   -0.4612    1.1220 C   0  0  0  0  0  0  0  0  0  0  0  0
    8.3335    0.5649   -1.1347 C   0  0  0  0  0  0  0  0  0  0  0  0
    8.3740   -0.3259    1.1512 C   0  0  0  0  0  0  0  0  0  0  0  0
    9.0303    0.1863    0.0223 C   0  0  0  0  0  0  0  0  0  0  0  0
   -0.5615    0.0265   -2.0865 H   0  0  0  0  0  0  0  0  0  0  0  0
   -0.4794   -1.4262    1.8264 H   0  0  0  0  0  0  0  0  0  0  0  0
    1.9165    0.2665   -2.1470 H   0  0  0  0  0  0  0  0  0  0  0  0
    2.0043   -1.2623    1.9320 H   0  0  0  0  0  0  0  0  0  0  0  0
    6.3780    0.7185   -2.0575 H   0  0  0  0  0  0  0  0  0  0  0  0
    6.4497   -0.8601    1.9944 H   0  0  0  0  0  0  0  0  0  0  0  0
    8.8995    0.9590   -1.9891 H   0  0  0  0  0  0  0  0  0  0  0  0
    8.9706   -0.6071    2.0291 H   0  0  0  0  0  0  0  0  0  0  0  0
  1  4  2  0  0  0  0
  3  6  1  0  0  0  0
  4  2  2  0  0  0  0
  5  3  1  0  0  0  0
  6  8  2  0  0  0  0
  6 19  1  0  0  0  0
  7  5  1  0  0  0  0
  7  9  2  0  0  0  0
  8 21  1  0  0  0  0
  9 10  1  0  0  0  0
  9  8  1  0  0  0  0
 10 11  3  0  0  0  0
 11 12  1  0  0  0  0
 12 14  1  0  0  0  0
 13 15  1  0  0  0  0
 13 12  2  0  0  0  0
 14 16  2  0  0  0  0
 14 23  1  0  0  0  0
 15 17  2  0  0  0  0
 16 25  1  0  0  0  0
 17  4  1  0  0  0  0
 17 16  1  0  0  0  0
 18  5  1  0  0  0  0
 20  7  1  0  0  0  0
 22 13  1  0  0  0  0
 24 15  1  0  0  0  0
M  END
