2
q = -1.0, confidence = 0.0

 24 25  0  0  0  0  0  0  0  0999 V2000
    6.3554   -0.0028   -2.9332 O   0  0  0  0  0  0  0  0  0  0  0  0
    0.8441    0.0005    0.3250 N   0  0  0  0  0  0  0  0  0  0  0  0
    1.7734   -0.0005   -0.6719 C   0  0  0  0  0  0  0  0  0  0  0  0
    1.4454   -0.0016   -1.7207 H   0  0  0  0  0  0  0  0  0  0  0  0
    3.0947   -0.0000   -0.1687 C   0  0  0  0  0  0  0  0  0  0  0  0
    2.9477    0.0014    1.2764 C   0  0  0  0  0  0  0  0  0  0  0  0
    3.8414    0.0025    2.3694 C   0  0  0  0  0  0  0  0  0  0  0  0
    4.9279    0.0024    2.2042 H   0  0  0  0  0  0  0  0  0  0  0  0
    3.3350    0.0038    3.6747 C   0  0  0  0  0  0  0  0  0  0  0  0
    4.0306    0.0047    4.5277 H   0  0  0  0  0  0  0  0  0  0  0  0
    1.9405    0.0041    3.9135 C   0  0  0  0  0  0  0  0  0  0  0  0
    1.5665    0.0051    4.9490 H   0  0  0  0  0  0  0  0  0  0  0  0
    1.0286    0.0030    2.8505 C   0  0  0  0  0  0  0  0  0  0  0  0
   -0.0577    0.0032    3.0248 H   0  0  0  0  0  0  0  0  0  0  0  0
    1.5313    0.0017    1.5345 C   0  0  0  0  0  3  0  0  0  0  0  0
    4.2534   -0.0009   -1.0124 C   0  0  0  0  0  0  0  0  0  0  0  0
    4.0609   -0.0019   -2.1020 H   0  0  0  0  0  0  0  0  0  0  0  0
    5.5814   -0.0007   -0.6761 C   0  0  0  0  0  0  0  0  0  0  0  0
    5.9119    0.0003    0.3739 H   0  0  0  0  0  0  0  0  0  0  0  0
    6.6165   -0.0017   -1.7271 C   0  0  0  0  0  0  0  0  0  0  0  0
    8.0629   -0.0014   -1.2406 C   0  0  0  0  0  0  0  0  0  0  0  0
    8.7481   -0.0023   -2.1076 H   0  0  0  0  0  0  0  0  0  0  0  0
    8.2619   -0.8914   -0.6069 H   0  0  0  0  0  0  0  0  0  0  0  0
    8.2621    0.8897   -0.6085 H   0  0  0  0  0  0  0  0  0  0  0  0
  1 20  2  0  0  0  0
  2 15  1  0  0  0  0
  3  5  1  0  0  0  0
  3  2  2  0  0  0  0
  4  3  1  0  0  0  0
  5  6  2  0  0  0  0
  6 15  1  0  0  0  0
  6  7  1  0  0  0  0
  7  9  2  0  0  0  0
  8  7  1  0  0  0  0
  9 11  1  0  0  0  0
  9 10  1  0  0  0  0
 11 12  1  0  0  0  0
 13 14  1  0  0  0  0
 13 11  2  0  0  0  0
 15 13  1  0  0  0  0
 16 18  2  0  0  0  0
 16  5  1  0  0  0  0
 17 16  1  0  0  0  0
 18 19  1  0  0  0  0
 20 21  1  0  0  0  0
 20 18  1  0  0  0  0
 21 24  1  0  0  0  0
 21 23  1  0  0  0  0
 22 21  1  0  0  0  0
M  END
