1
q = 0.0, confidence = 1.0

 28 28  0  0  0  0  0  0  0  0999 V2000
    1.9862    0.4611   -0.0971 N   0  0  0  0  0  2  0  0  0  0  0  0
    2.3060    1.7413   -0.4227 O   0  0  0  0  0  0  0  0  0  0  0  0
    1.4493    2.2390   -0.2277 H   0  0  0  0  0  0  0  0  0  0  0  0
    2.9671   -0.3836    0.0800 C   0  0  0  0  0  3  0  0  0  0  0  0
    2.6055   -1.4024    0.2869 H   0  0  0  0  0  0  0  0  0  0  0  0
    4.4065   -0.1762    0.0310 C   0  0  0  0  0  0  0  0  0  0  0  0
    5.0693    1.0446   -0.2468 C   0  0  0  0  0  0  0  0  0  0  0  0
    4.4803    1.9426   -0.4612 H   0  0  0  0  0  0  0  0  0  0  0  0
    6.4679    1.1081   -0.2491 C   0  0  0  0  0  0  0  0  0  0  0  0
    6.9390    2.0755   -0.4686 H   0  0  0  0  0  0  0  0  0  0  0  0
    7.2701   -0.0211    0.0154 C   0  0  0  0  0  0  0  0  0  0  0  0
    8.8060    0.0254    0.0147 C   0  0  0  0  0  0  0  0  0  0  0  0
    9.3405   -0.9580   -1.0521 C   0  0  0  0  0  0  0  0  0  0  0  0
    9.0183   -1.9993   -0.8532 H   0  0  0  0  0  0  0  0  0  0  0  0
    8.9809   -0.6801   -2.0634 H   0  0  0  0  0  0  0  0  0  0  0  0
   10.4498   -0.9454   -1.0647 H   0  0  0  0  0  0  0  0  0  0  0  0
    9.3459    1.4303   -0.3039 C   0  0  0  0  0  0  0  0  0  0  0  0
    9.0271    1.7777   -1.3072 H   0  0  0  0  0  0  0  0  0  0  0  0
    9.0153    2.1793    0.4435 H   0  0  0  0  0  0  0  0  0  0  0  0
   10.4542    1.4162   -0.2933 H   0  0  0  0  0  0  0  0  0  0  0  0
    9.3241   -0.3931    1.4103 C   0  0  0  0  0  0  0  0  0  0  0  0
   10.4332   -0.3726    1.4301 H   0  0  0  0  0  0  0  0  0  0  0  0
    8.9524    0.2966    2.1946 H   0  0  0  0  0  0  0  0  0  0  0  0
    9.0018   -1.4181    1.6807 H   0  0  0  0  0  0  0  0  0  0  0  0
    6.6016   -1.2376    0.2880 C   0  0  0  0  0  0  0  0  0  0  0  0
    7.1833   -2.1476    0.4986 H   0  0  0  0  0  0  0  0  0  0  0  0
    5.2102   -1.3166    0.2964 C   0  0  0  0  0  0  0  0  0  0  0  0
    4.7201   -2.2789    0.5117 H   0  0  0  0  0  0  0  0  0  0  0  0
  1  4  1  0  0  0  0
  2  3  1  0  0  0  0
  2  1  1  0  0  0  0
  4  5  1  0  0  0  0
  6  4  1  0  0  0  0
  6 27  1  0  0  0  0
  7  6  2  0  0  0  0
  8  7  1  0  0  0  0
  9  7  1  0  0  0  0
  9 11  2  0  0  0  0
 10  9  1  0  0  0  0
 11 25  1  0  0  0  0
 12 11  1  0  0  0  0
 12 21  1  0  0  0  0
 13 14  1  0  0  0  0
 13 12  1  0  0  0  0
 15 13  1  0  0  0  0
 16 13  1  0  0  0  0
 17 20  1  0  0  0  0
 17 12  1  0  0  0  0
 17 19  1  0  0  0  0
 18 17  1  0  0  0  0
 21 22  1  0  0  0  0
 21 24  1  0  0  0  0
 21 23  1  0  0  0  0
 25 27  2  0  0  0  0
 25 26  1  0  0  0  0
 27 28  1  0  0  0  0
M  END
