2
q = -1.0

 49 51  0  0  0  0  0  0  0  0999 V2000
    1.5799   -0.8459    0.6448 Si  0  0  0  0  0  0  0  0  0  0  0  0
   -0.4591    0.9285   -0.4526 N   0  0  0  0  0  2  0  0  0  0  0  0
   -0.1463   -0.1582    0.1744 C   0  0  0  0  0  2  0  0  0  0  0  0
    0.2853    1.9869   -1.0127 C   0  0  0  0  0  0  0  0  0  0  0  0
   -0.2806    3.2786   -0.9648 C   0  0  0  0  0  0  0  0  0  0  0  0
    0.4496    4.3745   -1.4411 C   0  0  0  0  0  0  0  0  0  0  0  0
    1.7273    4.1892   -1.9945 C   0  0  0  0  0  0  0  0  0  0  0  0
    2.2694    2.8962   -2.0834 C   0  0  0  0  0  0  0  0  0  0  0  0
    1.5541    1.7951   -1.5988 C   0  0  0  0  0  0  0  0  0  0  0  0
    2.7345    0.6029    1.0556 C   0  0  0  0  0  0  0  0  0  0  0  0
    4.0868    0.6336    0.6489 C   0  0  0  0  0  0  0  0  0  0  0  0
    4.8983    1.7481    0.9139 C   0  0  0  0  0  0  0  0  0  0  0  0
    4.3695    2.8600    1.5873 C   0  0  0  0  0  0  0  0  0  0  0  0
    3.0278    2.8490    2.0010 C   0  0  0  0  0  0  0  0  0  0  0  0
    2.2238    1.7312    1.7386 C   0  0  0  0  0  0  0  0  0  0  0  0
    1.4168   -2.0044    2.1828 C   0  0  0  0  0  0  0  0  0  0  0  0
    0.3595   -3.0836    1.8938 C   0  0  0  0  0  0  0  0  0  0  0  0
    0.9980   -1.1562    3.3975 C   0  0  0  0  0  0  0  0  0  0  0  0
    2.7691   -2.6702    2.4983 C   0  0  0  0  0  0  0  0  0  0  0  0
    2.2179   -1.7881   -0.8816 C   0  0  0  0  0  0  0  0  0  0  0  0
    3.4408   -2.5026   -0.8652 C   0  0  0  0  0  0  0  0  0  0  0  0
    3.9111   -3.1715   -2.0062 C   0  0  0  0  0  0  0  0  0  0  0  0
    3.1683   -3.1447   -3.1967 C   0  0  0  0  0  0  0  0  0  0  0  0
    1.9586   -2.4357   -3.2408 C   0  0  0  0  0  0  0  0  0  0  0  0
    1.4958   -1.7651   -2.0983 C   0  0  0  0  0  0  0  0  0  0  0  0
   -1.2979    3.3895   -0.5661 H   0  0  0  0  0  0  0  0  0  0  0  0
    0.0110    5.3825   -1.3898 H   0  0  0  0  0  0  0  0  0  0  0  0
    2.2965    5.0523   -2.3716 H   0  0  0  0  0  0  0  0  0  0  0  0
    3.2627    2.7410   -2.5306 H   0  0  0  0  0  0  0  0  0  0  0  0
    1.9749    0.7853   -1.6837 H   0  0  0  0  0  0  0  0  0  0  0  0
    4.5118   -0.2149    0.0903 H   0  0  0  0  0  0  0  0  0  0  0  0
    5.9484    1.7519    0.5830 H   0  0  0  0  0  0  0  0  0  0  0  0
    5.0015    3.7393    1.7851 H   0  0  0  0  0  0  0  0  0  0  0  0
    2.6018    3.7214    2.5197 H   0  0  0  0  0  0  0  0  0  0  0  0
    1.1660    1.7542    2.0462 H   0  0  0  0  0  0  0  0  0  0  0  0
    0.2408   -3.7560    2.7726 H   0  0  0  0  0  0  0  0  0  0  0  0
   -0.6283   -2.6343    1.6719 H   0  0  0  0  0  0  0  0  0  0  0  0
    0.6462   -3.7159    1.0279 H   0  0  0  0  0  0  0  0  0  0  0  0
    0.0416   -0.6269    3.2294 H   0  0  0  0  0  0  0  0  0  0  0  0
    1.7651   -0.3975    3.6527 H   0  0  0  0  0  0  0  0  0  0  0  0
    0.8629   -1.8079    4.2890 H   0  0  0  0  0  0  0  0  0  0  0  0
    3.5862   -1.9260    2.6052 H   0  0  0  0  0  0  0  0  0  0  0  0
    3.0627   -3.4046    1.7229 H   0  0  0  0  0  0  0  0  0  0  0  0
    2.6993   -3.2241    3.4607 H   0  0  0  0  0  0  0  0  0  0  0  0
    4.0473   -2.5408    0.0515 H   0  0  0  0  0  0  0  0  0  0  0  0
    4.8661   -3.7176   -1.9637 H   0  0  0  0  0  0  0  0  0  0  0  0
    3.5351   -3.6720   -4.0906 H   0  0  0  0  0  0  0  0  0  0  0  0
    1.3702   -2.4005   -4.1705 H   0  0  0  0  0  0  0  0  0  0  0  0
    0.5546   -1.1999   -2.1609 H   0  0  0  0  0  0  0  0  0  0  0  0
  1 10  1  0  0  0  0
  1 16  1  0  0  0  0
  2  3  1  0  0  0  0
  3  1  1  0  0  0  0
  4  5  1  0  0  0  0
  4  2  1  0  0  0  0
  5 26  1  0  0  0  0
  6 27  1  0  0  0  0
  6  5  2  0  0  0  0
  7  6  1  0  0  0  0
  8  7  2  0  0  0  0
  8  9  1  0  0  0  0
  9  4  2  0  0  0  0
 10 15  1  0  0  0  0
 11 12  1  0  0  0  0
 11 10  2  0  0  0  0
 12 13  2  0  0  0  0
 13 33  1  0  0  0  0
 13 14  1  0  0  0  0
 14 34  1  0  0  0  0
 15 14  2  0  0  0  0
 15 35  1  0  0  0  0
 16 19  1  0  0  0  0
 16 18  1  0  0  0  0
 17 16  1  0  0  0  0
 17 36  1  0  0  0  0
 18 40  1  0  0  0  0
 18 41  1  0  0  0  0
 19 42  1  0  0  0  0
 19 44  1  0  0  0  0
 20 21  1  0  0  0  0
 20  1  1  0  0  0  0
 21 45  1  0  0  0  0
 22 46  1  0  0  0  0
 22 21  2  0  0  0  0
 23 22  1  0  0  0  0
 24 23  2  0  0  0  0
 24 25  1  0  0  0  0
 25 20  2  0  0  0  0
 28  7  1  0  0  0  0
 29  8  1  0  0  0  0
 30  9  1  0  0  0  0
 31 11  1  0  0  0  0
 32 12  1  0  0  0  0
 37 17  1  0  0  0  0
 38 17  1  0  0  0  0
 39 18  1  0  0  0  0
 43 19  1  0  0  0  0
 47 23  1  0  0  0  0
 48 24  1  0  0  0  0
 49 25  1  0  0  0  0
M  END
