2
q = -1.0

 39 38  0  0  0  0  0  0  0  0999 V2000
    0.3342   -1.9938   -0.0019 Se  0  0  0  0  0  1  0  0  0  0  0  0
    0.1641    0.9754    0.1226 N   0  0  0  0  0  2  0  0  0  0  0  0
    1.4335   -0.1175    0.0269 P   0  0  0  0  0  4  0  0  0  0  0  0
    2.3821    0.0284   -1.6315 C   0  0  0  0  0  0  0  0  0  0  0  0
    1.2807    0.1279   -2.7059 C   0  0  0  0  0  0  0  0  0  0  0  0
    3.2009   -1.2524   -1.8666 C   0  0  0  0  0  0  0  0  0  0  0  0
    3.3163    1.2512   -1.6948 C   0  0  0  0  0  0  0  0  0  0  0  0
    2.5796   -0.0838    1.5761 C   0  0  0  0  0  0  0  0  0  0  0  0
    3.3052   -1.4382    1.6693 C   0  0  0  0  0  0  0  0  0  0  0  0
    3.6262    1.0442    1.6000 C   0  0  0  0  0  0  0  0  0  0  0  0
    1.6243    0.0574    2.7738 C   0  0  0  0  0  0  0  0  0  0  0  0
    0.4590    2.4202    0.3588 C   0  0  0  0  0  0  0  0  0  0  0  0
    0.4377    3.2984   -0.9034 C   0  0  0  0  0  0  0  0  0  0  0  0
   -0.4621    3.0286    1.4216 C   0  0  0  0  0  0  0  0  0  0  0  0
    0.6561    1.0330   -2.5923 H   0  0  0  0  0  0  0  0  0  0  0  0
    0.5992   -0.7450   -2.6748 H   0  0  0  0  0  0  0  0  0  0  0  0
    1.7648    0.1574   -3.7043 H   0  0  0  0  0  0  0  0  0  0  0  0
    2.5676   -2.1582   -1.7896 H   0  0  0  0  0  0  0  0  0  0  0  0
    4.0495   -1.3485   -1.1618 H   0  0  0  0  0  0  0  0  0  0  0  0
    3.6261   -1.2163   -2.8916 H   0  0  0  0  0  0  0  0  0  0  0  0
    2.8451    2.1860   -1.3407 H   0  0  0  0  0  0  0  0  0  0  0  0
    3.6114    1.4138   -2.7526 H   0  0  0  0  0  0  0  0  0  0  0  0
    4.2467    1.0935   -1.1191 H   0  0  0  0  0  0  0  0  0  0  0  0
    2.5913   -2.2848    1.6381 H   0  0  0  0  0  0  0  0  0  0  0  0
    3.8522   -1.4804    2.6348 H   0  0  0  0  0  0  0  0  0  0  0  0
    4.0477   -1.5756    0.8605 H   0  0  0  0  0  0  0  0  0  0  0  0
    4.1319    1.0284    2.5890 H   0  0  0  0  0  0  0  0  0  0  0  0
    3.1901    2.0532    1.4722 H   0  0  0  0  0  0  0  0  0  0  0  0
    4.4098    0.9054    0.8332 H   0  0  0  0  0  0  0  0  0  0  0  0
    1.1318    1.0475    2.7981 H   0  0  0  0  0  0  0  0  0  0  0  0
    2.2038   -0.0614    3.7130 H   0  0  0  0  0  0  0  0  0  0  0  0
    0.8419   -0.7266    2.7498 H   0  0  0  0  0  0  0  0  0  0  0  0
    1.4920    2.4764    0.7684 H   0  0  0  0  0  0  0  0  0  0  0  0
    0.8171    4.3102   -0.6519 H   0  0  0  0  0  0  0  0  0  0  0  0
   -0.5883    3.3916   -1.3012 H   0  0  0  0  0  0  0  0  0  0  0  0
    1.0716    2.8898   -1.7101 H   0  0  0  0  0  0  0  0  0  0  0  0
   -0.1721    4.0815    1.6112 H   0  0  0  0  0  0  0  0  0  0  0  0
   -0.4074    2.4829    2.3829 H   0  0  0  0  0  0  0  0  0  0  0  0
   -1.5089    3.0226    1.0632 H   0  0  0  0  0  0  0  0  0  0  0  0
  1  3  1  0  0  0  0
  2 12  1  0  0  0  0
  3  2  1  0  0  0  0
  3  8  1  0  0  0  0
  4  3  1  0  0  0  0
  5 16  1  0  0  0  0
  5 15  1  0  0  0  0
  5  4  1  0  0  0  0
  6 18  1  0  0  0  0
  6  4  1  0  0  0  0
  6 19  1  0  0  0  0
  7  4  1  0  0  0  0
  7 21  1  0  0  0  0
  7 23  1  0  0  0  0
  8 10  1  0  0  0  0
  8  9  1  0  0  0  0
  8 11  1  0  0  0  0
  9 25  1  0  0  0  0
 10 27  1  0  0  0  0
 11 30  1  0  0  0  0
 11 31  1  0  0  0  0
 12 33  1  0  0  0  0
 12 14  1  0  0  0  0
 13 34  1  0  0  0  0
 13 12  1  0  0  0  0
 14 37  1  0  0  0  0
 14 38  1  0  0  0  0
 17  5  1  0  0  0  0
 20  6  1  0  0  0  0
 22  7  1  0  0  0  0
 24  9  1  0  0  0  0
 26  9  1  0  0  0  0
 28 10  1  0  0  0  0
 29 10  1  0  0  0  0
 32 11  1  0  0  0  0
 35 13  1  0  0  0  0
 36 13  1  0  0  0  0
 39 14  1  0  0  0  0
M  END
