1
q = -1.0

 32 32  0  0  0  0  0  0  0  0999 V2000
    1.5045    0.7318   -0.3884 N   0  0  0  0  0  2  0  0  0  0  0  0
    1.0394    2.0227    0.0459 C   0  0  0  0  0  0  0  0  0  0  0  0
    1.4265    2.5083    1.3239 C   0  0  0  0  0  0  0  0  0  0  0  0
    0.9359    3.7565    1.7529 C   0  0  0  0  0  0  0  0  0  0  0  0
    0.0815    4.5136    0.9431 C   0  0  0  0  0  0  0  0  0  0  0  0
   -0.2707    4.0360   -0.3273 C   0  0  0  0  0  0  0  0  0  0  0  0
    0.2082    2.8028   -0.8040 C   0  0  0  0  0  0  0  0  0  0  0  0
    2.3703    1.7237    2.1931 C   0  0  0  0  0  0  0  0  0  0  0  0
   -0.1123    2.3538   -2.2042 C   0  0  0  0  0  0  0  0  0  0  0  0
    2.8635    0.5940   -0.7681 C   0  0  0  0  0  0  0  0  0  0  0  0
    3.7908    1.5837   -1.0048 C   0  0  0  0  0  0  0  0  0  0  0  0
    3.3016   -0.8402   -0.9768 C   0  0  0  0  0  0  0  0  0  0  0  0
    5.2069    1.1668   -1.3589 C   0  0  0  0  0  0  0  0  0  0  0  0
    3.5907    3.0814   -0.9924 C   0  0  0  0  0  0  0  0  0  0  0  0
    1.2315    4.1307    2.7458 H   0  0  0  0  0  0  0  0  0  0  0  0
   -0.3023    5.4828    1.2957 H   0  0  0  0  0  0  0  0  0  0  0  0
   -0.9203    4.6393   -0.9806 H   0  0  0  0  0  0  0  0  0  0  0  0
    2.0875    0.6533    2.2196 H   0  0  0  0  0  0  0  0  0  0  0  0
    2.3840    2.1125    3.2291 H   0  0  0  0  0  0  0  0  0  0  0  0
    3.4061    1.7539    1.7934 H   0  0  0  0  0  0  0  0  0  0  0  0
    0.7708    1.8875   -2.6849 H   0  0  0  0  0  0  0  0  0  0  0  0
   -0.4477    3.2067   -2.8244 H   0  0  0  0  0  0  0  0  0  0  0  0
   -0.9167    1.5910   -2.2027 H   0  0  0  0  0  0  0  0  0  0  0  0
    4.1320   -1.1225   -0.2990 H   0  0  0  0  0  0  0  0  0  0  0  0
    3.6542   -1.0159   -2.0135 H   0  0  0  0  0  0  0  0  0  0  0  0
    2.4884   -1.5665   -0.7938 H   0  0  0  0  0  0  0  0  0  0  0  0
    5.8954    2.0324   -1.2974 H   0  0  0  0  0  0  0  0  0  0  0  0
    5.2853    0.7698   -2.3973 H   0  0  0  0  0  0  0  0  0  0  0  0
    5.6149    0.3773   -0.6939 H   0  0  0  0  0  0  0  0  0  0  0  0
    2.5505    3.4094   -1.1384 H   0  0  0  0  0  0  0  0  0  0  0  0
    4.2036    3.5393   -1.7973 H   0  0  0  0  0  0  0  0  0  0  0  0
    3.9429    3.5378   -0.0385 H   0  0  0  0  0  0  0  0  0  0  0  0
  1  2  1  0  0  0  0
  2  3  1  0  0  0  0
  3  4  2  0  0  0  0
  3  8  1  0  0  0  0
  4 15  1  0  0  0  0
  5 16  1  0  0  0  0
  5  4  1  0  0  0  0
  6  5  2  0  0  0  0
  7  6  1  0  0  0  0
  7  2  2  0  0  0  0
  8 18  1  0  0  0  0
  8 19  1  0  0  0  0
  9 23  1  0  0  0  0
  9  7  1  0  0  0  0
 10  1  1  0  0  0  0
 11 14  1  0  0  0  0
 11 10  2  0  0  0  0
 12 26  1  0  0  0  0
 12 10  1  0  0  0  0
 12 24  1  0  0  0  0
 13 27  1  0  0  0  0
 13 11  1  0  0  0  0
 13 29  1  0  0  0  0
 14 32  1  0  0  0  0
 17  6  1  0  0  0  0
 20  8  1  0  0  0  0
 21  9  1  0  0  0  0
 22  9  1  0  0  0  0
 25 12  1  0  0  0  0
 28 13  1  0  0  0  0
 30 14  1  0  0  0  0
 31 14  1  0  0  0  0
M  END
