3
q = -1.0

 35 36  0  0  0  0  0  0  0  0999 V2000
   -0.7060    0.9483    1.2744 S   0  0  0  0  0  0  0  0  0  0  0  0
    0.7055    0.9487   -1.2748 S   0  0  0  0  0  0  0  0  0  0  0  0
   -0.0003    0.0926   -0.0004 N   0  0  0  0  0  2  0  0  0  0  0  0
   -0.8513   -0.0034    2.3969 O   0  0  0  0  0  0  0  0  0  0  0  0
   -0.0248    2.2490    1.4894 O   0  0  0  0  0  0  0  0  0  0  0  0
    0.8513   -0.0029   -2.3974 O   0  0  0  0  0  0  0  0  0  0  0  0
    0.0237    2.2492   -1.4899 O   0  0  0  0  0  0  0  0  0  0  0  0
   -2.3706    1.2999    0.6767 C   0  0  0  0  0  0  0  0  0  0  0  0
   -2.6516    2.5291    0.0664 C   0  0  0  0  0  0  0  0  0  0  0  0
   -1.8461    3.2675   -0.0423 H   0  0  0  0  0  0  0  0  0  0  0  0
   -3.9479    2.7684   -0.4098 C   0  0  0  0  0  0  0  0  0  0  0  0
   -4.1771    3.7328   -0.8919 H   0  0  0  0  0  0  0  0  0  0  0  0
   -4.9640    1.7983   -0.2906 C   0  0  0  0  0  0  0  0  0  0  0  0
   -4.6485    0.5716    0.3326 C   0  0  0  0  0  0  0  0  0  0  0  0
   -5.4297   -0.1985    0.4392 H   0  0  0  0  0  0  0  0  0  0  0  0
   -3.3608    0.3155    0.8186 C   0  0  0  0  0  0  0  0  0  0  0  0
   -3.1068   -0.6348    1.3104 H   0  0  0  0  0  0  0  0  0  0  0  0
   -6.3460    2.0467   -0.8434 C   0  0  0  0  0  0  0  0  0  0  0  0
   -6.4732    1.5587   -1.8345 H   0  0  0  0  0  0  0  0  0  0  0  0
   -6.5428    3.1283   -0.9826 H   0  0  0  0  0  0  0  0  0  0  0  0
   -7.1330    1.6346   -0.1792 H   0  0  0  0  0  0  0  0  0  0  0  0
    2.3697    1.3009   -0.6767 C   0  0  0  0  0  0  0  0  0  0  0  0
    2.6503    2.5305   -0.0671 C   0  0  0  0  0  0  0  0  0  0  0  0
    1.8448    3.2689    0.0408 H   0  0  0  0  0  0  0  0  0  0  0  0
    3.9465    2.7702    0.4096 C   0  0  0  0  0  0  0  0  0  0  0  0
    4.1754    3.7349    0.8913 H   0  0  0  0  0  0  0  0  0  0  0  0
    4.9627    1.8000    0.2915 C   0  0  0  0  0  0  0  0  0  0  0  0
    4.6475    0.5730   -0.3310 C   0  0  0  0  0  0  0  0  0  0  0  0
    5.4288   -0.1972   -0.4368 H   0  0  0  0  0  0  0  0  0  0  0  0
    3.3601    0.3165   -0.8175 C   0  0  0  0  0  0  0  0  0  0  0  0
    3.1064   -0.6343   -1.3087 H   0  0  0  0  0  0  0  0  0  0  0  0
    6.3446    2.0488    0.8443 C   0  0  0  0  0  0  0  0  0  0  0  0
    6.4746    1.5541    1.8316 H   0  0  0  0  0  0  0  0  0  0  0  0
    6.5381    3.1300    0.9909 H   0  0  0  0  0  0  0  0  0  0  0  0
    7.1320    1.6440    0.1762 H   0  0  0  0  0  0  0  0  0  0  0  0
  1  5  2  0  0  0  0
  1  4  2  0  0  0  0
  2 22  1  0  0  0  0
  2  3  1  0  0  0  0
  3  1  1  0  0  0  0
  6  2  2  0  0  0  0
  7  2  2  0  0  0  0
  8 16  1  0  0  0  0
  8  1  1  0  0  0  0
  9  8  2  0  0  0  0
 10  9  1  0  0  0  0
 11 13  2  0  0  0  0
 11  9  1  0  0  0  0
 12 11  1  0  0  0  0
 13 14  1  0  0  0  0
 14 15  1  0  0  0  0
 14 16  2  0  0  0  0
 16 17  1  0  0  0  0
 18 13  1  0  0  0  0
 18 21  1  0  0  0  0
 19 18  1  0  0  0  0
 20 18  1  0  0  0  0
 22 23  1  0  0  0  0
 23 24  1  0  0  0  0
 23 25  2  0  0  0  0
 25 26  1  0  0  0  0
 27 25  1  0  0  0  0
 27 32  1  0  0  0  0
 28 27  2  0  0  0  0
 29 28  1  0  0  0  0
 30 22  2  0  0  0  0
 30 28  1  0  0  0  0
 31 30  1  0  0  0  0
 32 34  1  0  0  0  0
 32 33  1  0  0  0  0
 35 32  1  0  0  0  0
M  END
