3
q = 0.0, confidence = 0.988

 38 39  0  0  1  0  0  0  0  0999 V2000
  -12.4210   -0.6781    0.6807 Cl  0  0  0  0  0  0  0  0  0  0  0  0
   -4.8573    1.2966    1.5911 O   0  0  0  0  0  0  0  0  0  0  0  0
   -2.0201   -0.8912   -0.5074 N   0  0  0  0  0  2  0  0  0  0  0  0
   -4.1860   -0.5891   -0.5006 N   0  0  0  0  0  0  0  0  0  0  0  0
   -3.9272   -1.3021   -1.6311 N   0  0  0  0  0  0  0  0  0  0  0  0
   -2.6161   -1.4677   -1.6055 C   0  0  0  0  0  0  0  0  0  0  0  0
   -2.0677   -2.0069   -2.3867 H   0  0  0  0  0  0  0  0  0  0  0  0
   -3.0414   -0.3471    0.1774 C   0  0  0  0  0  3  0  0  0  0  0  0
   -3.0196    0.2139    1.1171 H   0  0  0  0  0  0  0  0  0  0  0  0
   -5.5243   -0.2152   -0.1315 C   0  0  0  0  0  0  0  0  0  0  0  0
   -5.7005    1.1715    0.4433 C   0  0  2  0  0  0  0  0  0  0  0  0
   -6.7666    1.2310    0.7472 H   0  0  0  0  0  0  0  0  0  0  0  0
   -5.5122    2.3399   -0.5920 C   0  0  0  0  0  0  0  0  0  0  0  0
   -4.0672    2.4651   -1.1058 C   0  0  0  0  0  0  0  0  0  0  0  0
   -3.7850    1.6266   -1.7723 H   0  0  0  0  0  0  0  0  0  0  0  0
   -3.3447    2.5132   -0.2662 H   0  0  0  0  0  0  0  0  0  0  0  0
   -3.9567    3.3971   -1.6957 H   0  0  0  0  0  0  0  0  0  0  0  0
   -5.9010    3.6439    0.1360 C   0  0  0  0  0  0  0  0  0  0  0  0
   -5.8585    4.5027   -0.5629 H   0  0  0  0  0  0  0  0  0  0  0  0
   -5.2056    3.8881    0.9684 H   0  0  0  0  0  0  0  0  0  0  0  0
   -6.9318    3.5929    0.5431 H   0  0  0  0  0  0  0  0  0  0  0  0
   -6.4750    2.1156   -1.7702 C   0  0  0  0  0  0  0  0  0  0  0  0
   -6.4444    2.9818   -2.4608 H   0  0  0  0  0  0  0  0  0  0  0  0
   -7.5224    1.9965   -1.4245 H   0  0  0  0  0  0  0  0  0  0  0  0
   -6.2051    1.2107   -2.3502 H   0  0  0  0  0  0  0  0  0  0  0  0
   -6.5166   -1.0885   -0.4441 C   0  0  0  0  0  0  0  0  0  0  0  0
   -6.2127   -1.9730   -1.0294 H   0  0  0  0  0  0  0  0  0  0  0  0
   -7.9477   -0.9700   -0.1413 C   0  0  0  0  0  0  0  0  0  0  0  0
   -8.8928   -1.3708   -1.1150 C   0  0  0  0  0  0  0  0  0  0  0  0
   -8.5420   -1.7501   -2.0870 H   0  0  0  0  0  0  0  0  0  0  0  0
  -10.2670   -1.2729   -0.8748 C   0  0  0  0  0  0  0  0  0  0  0  0
  -10.9964   -1.5702   -1.6410 H   0  0  0  0  0  0  0  0  0  0  0  0
  -10.7179   -0.7962    0.3688 C   0  0  0  0  0  0  0  0  0  0  0  0
   -9.7994   -0.4327    1.3709 C   0  0  0  0  0  0  0  0  0  0  0  0
  -10.1685   -0.0982    2.3504 H   0  0  0  0  0  0  0  0  0  0  0  0
   -8.4283   -0.5203    1.1130 C   0  0  0  0  0  0  0  0  0  0  0  0
   -7.7150   -0.2774    1.9149 H   0  0  0  0  0  0  0  0  0  0  0  0
   -4.9915    2.1935    1.9508 H   0  0  0  0  0  0  0  0  0  0  0  0
  2 38  1  0  0  0  0
  3  8  1  0  0  0  0
  4 10  1  0  0  0  0
  4  8  1  0  0  0  0
  5  6  2  0  0  0  0
  5  4  1  0  0  0  0
  6  3  1  0  0  0  0
  7  6  1  0  0  0  0
  8  9  1  0  0  0  0
 10 11  1  0  0  0  0
 11 12  1  1  0  0  0
 11  2  1  0  0  0  0
 13 18  1  0  0  0  0
 13 11  1  0  0  0  0
 14 13  1  0  0  0  0
 14 16  1  0  0  0  0
 15 14  1  0  0  0  0
 17 14  1  0  0  0  0
 18 21  1  0  0  0  0
 18 20  1  0  0  0  0
 19 18  1  0  0  0  0
 22 24  1  0  0  0  0
 22 13  1  0  0  0  0
 23 22  1  0  0  0  0
 25 22  1  0  0  0  0
 26 28  1  0  0  0  0
 26 10  2  0  0  0  0
 27 26  1  0  0  0  0
 28 36  1  0  0  0  0
 29 31  1  0  0  0  0
 29 28  2  0  0  0  0
 30 29  1  0  0  0  0
 31 33  2  0  0  0  0
 32 31  1  0  0  0  0
 33  1  1  0  0  0  0
 33 34  1  0  0  0  0
 34 35  1  0  0  0  0
 36 34  2  0  0  0  0
 36 37  1  0  0  0  0
M  END
