6
q = 0.0, confidence = 0.97

 35 36  0  0  0  0  0  0  0  0999 V2000
    3.1803    3.0696   -0.3091 S   0  0  0  0  0  0  0  0  0  0  0  0
    3.2958    4.0574    0.7803 O   0  0  0  0  0  0  0  0  0  0  0  0
    3.7824    3.2675   -1.6330 O   0  0  0  0  0  0  0  0  0  0  0  0
    5.4344   -2.8165    0.7143 O   0  0  0  0  0  0  0  0  0  0  0  0
    5.0548   -0.2031    1.8925 O   0  0  0  0  0  0  0  0  0  0  0  0
   -2.5460    1.4119   -0.8278 N   0  0  0  0  0  0  0  0  0  0  0  0
   -2.8523    1.2544   -1.7996 H   0  0  0  0  0  0  0  0  0  0  0  0
   -3.2198    2.0461   -0.3763 H   0  0  0  0  0  0  0  0  0  0  0  0
    3.8304    1.6557    0.4181 N   0  0  0  0  0  0  0  0  0  0  0  0
    4.1491    1.7855    1.3834 H   0  0  0  0  0  0  0  0  0  0  0  0
    3.6471    0.1935   -1.4267 N   0  0  0  0  0  0  0  0  0  0  0  0
    4.4815   -2.0428   -1.2580 N   0  0  0  0  0  0  0  0  0  0  0  0
   -1.2062    1.9056   -0.7570 C   0  0  0  0  0  0  0  0  0  0  0  0
   -0.7694    2.5357    0.4225 C   0  0  0  0  0  0  0  0  0  0  0  0
   -1.4685    2.6726    1.2605 H   0  0  0  0  0  0  0  0  0  0  0  0
    0.5699    2.9119    0.5445 C   0  0  0  0  0  0  0  0  0  0  0  0
    0.9439    3.4008    1.4551 H   0  0  0  0  0  0  0  0  0  0  0  0
    1.4519    2.6458   -0.5148 C   0  0  0  0  0  0  0  0  0  0  0  0
    1.0247    2.0374   -1.7039 C   0  0  0  0  0  0  0  0  0  0  0  0
    1.7524    1.8440   -2.5034 H   0  0  0  0  0  0  0  0  0  0  0  0
   -0.3185    1.6631   -1.8211 C   0  0  0  0  0  0  0  0  0  0  0  0
   -0.6796    1.1537   -2.7279 H   0  0  0  0  0  0  0  0  0  0  0  0
    4.0702    0.4305   -0.1716 C   0  0  0  0  0  0  0  0  0  0  0  0
    3.8988   -1.0284   -1.9068 C   0  0  0  0  0  0  0  0  0  0  0  0
    3.5845   -1.2250   -2.9473 H   0  0  0  0  0  0  0  0  0  0  0  0
    4.8788   -1.8160    0.0021 C   0  0  0  0  0  0  0  0  0  0  0  0
    4.7263   -0.5511    0.6160 C   0  0  0  0  0  0  0  0  0  0  0  0
    5.5705   -4.0829    0.0592 C   0  0  0  0  0  0  0  0  0  0  0  0
    4.5818   -4.4822   -0.2432 H   0  0  0  0  0  0  0  0  0  0  0  0
    6.0448   -4.7499    0.8012 H   0  0  0  0  0  0  0  0  0  0  0  0
    6.2010   -3.9984   -0.8484 H   0  0  0  0  0  0  0  0  0  0  0  0
    6.3215   -0.6197    2.4134 C   0  0  0  0  0  0  0  0  0  0  0  0
    6.3541   -1.7146    2.5747 H   0  0  0  0  0  0  0  0  0  0  0  0
    6.4428   -0.0927    3.3778 H   0  0  0  0  0  0  0  0  0  0  0  0
    7.1471   -0.3267    1.7289 H   0  0  0  0  0  0  0  0  0  0  0  0
  1  9  1  0  0  0  0
  1  2  2  0  0  0  0
  3  1  2  0  0  0  0
  5 32  1  0  0  0  0
  6 13  1  0  0  0  0
  6  8  1  0  0  0  0
  7  6  1  0  0  0  0
  9 10  1  0  0  0  0
 11 23  1  0  0  0  0
 12 26  2  0  0  0  0
 13 14  1  0  0  0  0
 14 16  2  0  0  0  0
 14 15  1  0  0  0  0
 16 17  1  0  0  0  0
 18  1  1  0  0  0  0
 18 16  1  0  0  0  0
 19 18  2  0  0  0  0
 20 19  1  0  0  0  0
 21 19  1  0  0  0  0
 21 13  2  0  0  0  0
 22 21  1  0  0  0  0
 23  9  1  0  0  0  0
 23 27  2  0  0  0  0
 24 11  2  0  0  0  0
 24 12  1  0  0  0  0
 25 24  1  0  0  0  0
 26 27  1  0  0  0  0
 26  4  1  0  0  0  0
 27  5  1  0  0  0  0
 28  4  1  0  0  0  0
 28 30  1  0  0  0  0
 29 28  1  0  0  0  0
 31 28  1  0  0  0  0
 32 33  1  0  0  0  0
 32 34  1  0  0  0  0
 35 32  1  0  0  0  0
M  END
