1
q = -1.0

 13 13  0  0  0  0  0  0  0  0999 V2000
   -1.2658    0.7102   -0.4471 N   0  0  0  0  0  0  0  0  0  0  0  0
   -0.9154    1.7834   -1.2068 N   0  0  0  0  0  0  0  0  0  0  0  0
   -2.0059    2.4548   -1.4618 N   0  0  0  0  0  0  0  0  0  0  0  0
   -2.5614    0.6709   -0.2127 N   0  0  0  0  0  0  0  0  0  0  0  0
   -4.8599    4.4913   -2.0798 N   0  0  0  0  0  0  0  0  0  0  0  0
   -7.9363    2.3811   -0.6629 N   0  0  0  0  0  0  0  0  0  0  0  0
   -5.4562   -0.8806    0.6337 N   0  0  0  0  0  0  0  0  0  0  0  0
   -3.0215    1.7699   -0.8519 C   0  0  0  0  0  0  0  0  0  0  0  0
   -4.3992    2.1965   -0.9317 C   0  0  0  0  0  0  0  0  0  0  0  0
   -5.5006    1.4762   -0.4650 C   0  0  0  0  0  0  0  0  0  0  0  0
   -4.6371    3.4611   -1.5643 C   0  0  0  0  0  0  0  0  0  0  0  0
   -6.8304    1.9924   -0.5840 C   0  0  0  0  0  0  0  0  0  0  0  0
   -5.4090    0.1837    0.1382 C   0  0  0  0  0  0  0  0  0  0  0  0
  1  4  1  0  0  0  0
  2  1  1  0  0  0  0
  3  2  1  0  0  0  0
  3  8  2  0  0  0  0
  5 11  3  0  0  0  0
  6 12  3  0  0  0  0
  8  4  1  0  0  0  0
  9  8  1  0  0  0  0
  9 10  2  0  0  0  0
 10 13  1  0  0  0  0
 11  9  1  0  0  0  0
 12 10  1  0  0  0  0
 13  7  3  0  0  0  0
M  END
