2
q = -1.0

 15 16  0  0  0  0  0  0  0  0999 V2000
   -2.0936    0.7004   -0.7427 N   0  0  0  0  0  0  0  0  0  0  0  0
   -1.2767   -0.3072   -1.0117 N   0  0  0  0  0  2  0  0  0  0  0  0
   -1.6965   -1.0456   -2.0452 N   0  0  0  0  0  0  0  0  0  0  0  0
   -2.8220   -0.5049   -2.4835 N   0  0  0  0  0  0  0  0  0  0  0  0
   -5.5423    3.2450   -0.8124 N   0  0  0  0  0  0  0  0  0  0  0  0
   -3.0600    0.5629   -1.6740 C   0  0  0  0  0  0  0  0  0  0  0  0
   -4.2331    1.4320   -1.7665 C   0  0  0  0  0  0  0  0  0  0  0  0
   -4.4763    2.4339   -0.7974 C   0  0  0  0  0  0  0  0  0  0  0  0
   -3.7537    2.5613    0.0278 H   0  0  0  0  0  0  0  0  0  0  0  0
   -6.4262    3.0930   -1.8136 C   0  0  0  0  0  0  0  0  0  0  0  0
   -7.2969    3.7739   -1.8083 H   0  0  0  0  0  0  0  0  0  0  0  0
   -6.2869    2.1321   -2.8298 C   0  0  0  0  0  0  0  0  0  0  0  0
   -7.0422    2.0521   -3.6264 H   0  0  0  0  0  0  0  0  0  0  0  0
   -5.1731    1.2856   -2.8064 C   0  0  0  0  0  0  0  0  0  0  0  0
   -5.0088    0.5119   -3.5711 H   0  0  0  0  0  0  0  0  0  0  0  0
  2  1  1  0  0  0  0
  3  2  1  0  0  0  0
  4  3  2  0  0  0  0
  4  6  1  0  0  0  0
  5  8  1  0  0  0  0
  6  1  2  0  0  0  0
  7  6  1  0  0  0  0
  7  8  2  0  0  0  0
  8  9  1  0  0  0  0
 10 11  1  0  0  0  0
 10  5  2  0  0  0  0
 12 14  2  0  0  0  0
 12 10  1  0  0  0  0
 13 12  1  0  0  0  0
 14  7  1  0  0  0  0
 15 14  1  0  0  0  0
M  END
