26
q = 0.0, confidence = 0.988

 60 62  0  0  1  0  0  0  0  0999 V2000
    1.0187   -1.5833   -1.6871 O   0  0  0  0  0  0  0  0  0  0  0  0
    0.5512    0.6157   -0.8312 C   0  0  1  0  0  3  0  0  0  0  0  0
    4.1460   -0.0812   -0.9146 C   0  0  0  0  0  0  0  0  0  0  0  0
    4.3400    0.3252   -1.9164 H   0  0  0  0  0  0  0  0  0  0  0  0
    1.9945    0.2587   -2.8670 C   0  0  0  0  0  0  0  0  0  0  0  0
    2.6960   -0.4380   -3.3647 H   0  0  0  0  0  0  0  0  0  0  0  0
    2.4506    1.2643   -2.8252 H   0  0  0  0  0  0  0  0  0  0  0  0
    1.0727    0.3176   -3.4759 H   0  0  0  0  0  0  0  0  0  0  0  0
   -0.3271    2.9117   -1.3824 C   0  0  0  0  0  0  0  0  0  0  0  0
   -1.2670    2.4543   -1.7162 H   0  0  0  0  0  0  0  0  0  0  0  0
    2.8358   -0.4232   -0.5234 C   0  0  0  0  0  0  0  0  0  0  0  0
   -2.3268    2.1213    2.2107 C   0  0  0  0  0  0  0  0  0  0  0  0
   -2.1591    2.6401    3.1660 H   0  0  0  0  0  0  0  0  0  0  0  0
   -3.0905   -0.0213   -1.4988 C   0  0  0  0  0  0  0  0  0  0  0  0
   -1.5163    0.7660    0.3862 C   0  0  0  0  0  0  0  0  0  0  0  0
    0.7170    2.0920   -0.8993 C   0  0  0  0  0  0  0  0  0  0  0  0
    1.6406   -0.2670   -1.4739 C   0  0  2  0  0  0  0  0  0  0  0  0
   -3.5954    2.1552    1.6202 C   0  0  0  0  0  0  0  0  0  0  0  0
   -4.4135    2.7085    2.1055 H   0  0  0  0  0  0  0  0  0  0  0  0
   -1.2582    1.4275    1.6149 C   0  0  0  0  0  0  0  0  0  0  0  0
   -2.8009    0.7489   -0.2142 C   0  0  0  0  0  0  0  0  0  0  0  0
   -3.8265    1.4689    0.4223 C   0  0  0  0  0  0  0  0  0  0  0  0
   -4.8306    1.4811   -0.0282 H   0  0  0  0  0  0  0  0  0  0  0  0
    2.6240   -0.9351    0.7767 C   0  0  0  0  0  0  0  0  0  0  0  0
    1.6084   -1.2290    1.0943 H   0  0  0  0  0  0  0  0  0  0  0  0
   -0.4665    0.0275   -0.2550 N   0  0  0  0  0  2  0  0  0  0  0  0
    0.0848    1.3348    2.3283 C   0  0  0  0  0  0  0  0  0  0  0  0
    1.9218    2.6996   -0.4760 C   0  0  0  0  0  0  0  0  0  0  0  0
    2.7364    2.0815   -0.0748 H   0  0  0  0  0  0  0  0  0  0  0  0
    4.9994   -0.7534    1.2636 C   0  0  0  0  0  0  0  0  0  0  0  0
    5.8428   -0.8809    1.9587 H   0  0  0  0  0  0  0  0  0  0  0  0
   -0.1694    4.3015   -1.4419 C   0  0  0  0  0  0  0  0  0  0  0  0
   -0.9922    4.9231   -1.8253 H   0  0  0  0  0  0  0  0  0  0  0  0
    0.0293    0.2570    3.4276 C   0  0  0  0  0  0  0  0  0  0  0  0
   -0.6795    0.5515    4.2292 H   0  0  0  0  0  0  0  0  0  0  0  0
    1.0297    0.1211    3.8891 H   0  0  0  0  0  0  0  0  0  0  0  0
   -0.3169   -0.7142    3.0198 H   0  0  0  0  0  0  0  0  0  0  0  0
    1.0266    4.8977   -1.0112 C   0  0  0  0  0  0  0  0  0  0  0  0
    1.1450    5.9910   -1.0505 H   0  0  0  0  0  0  0  0  0  0  0  0
    0.5664    2.6866    2.8742 C   0  0  0  0  0  0  0  0  0  0  0  0
    0.5867    3.4616    2.0821 H   0  0  0  0  0  0  0  0  0  0  0  0
    1.5914    2.5884    3.2863 H   0  0  0  0  0  0  0  0  0  0  0  0
   -0.0802    3.0541    3.6973 H   0  0  0  0  0  0  0  0  0  0  0  0
   -4.1073   -1.1482   -1.2455 C   0  0  0  0  0  0  0  0  0  0  0  0
   -3.7575   -1.8105   -0.4298 H   0  0  0  0  0  0  0  0  0  0  0  0
   -4.2429   -1.7573   -2.1625 H   0  0  0  0  0  0  0  0  0  0  0  0
   -5.0986   -0.7374   -0.9618 H   0  0  0  0  0  0  0  0  0  0  0  0
    5.2194   -0.2448   -0.0253 C   0  0  0  0  0  0  0  0  0  0  0  0
    6.2361    0.0273   -0.3463 H   0  0  0  0  0  0  0  0  0  0  0  0
    3.6983   -1.1025    1.6597 C   0  0  0  0  0  0  0  0  0  0  0  0
    3.5108   -1.5090    2.6647 H   0  0  0  0  0  0  0  0  0  0  0  0
    2.0693    4.0925   -0.5280 C   0  0  0  0  0  0  0  0  0  0  0  0
    3.0067    4.5507   -0.1789 H   0  0  0  0  0  0  0  0  0  0  0  0
   -3.5538    0.9017   -2.6392 C   0  0  0  0  0  0  0  0  0  0  0  0
   -4.5054    1.4136   -2.3863 H   0  0  0  0  0  0  0  0  0  0  0  0
   -3.7278    0.3155   -3.5643 H   0  0  0  0  0  0  0  0  0  0  0  0
   -2.8067    1.6871   -2.8764 H   0  0  0  0  0  0  0  0  0  0  0  0
    1.6907   -2.2982   -1.6037 H   0  0  0  0  0  0  0  0  0  0  0  0
    0.8432    1.0014    1.5942 H   0  0  0  0  0  0  0  0  0  0  0  0
   -2.1452   -0.5062   -1.8210 H   0  0  0  0  0  0  0  0  0  0  0  0
  1 58  1  0  0  0  0
  2 26  1  1  0  0  0
  3 11  2  0  0  0  0
  3 48  1  0  0  0  0
  4  3  1  0  0  0  0
  5  7  1  0  0  0  0
  5 17  1  0  0  0  0
  6  5  1  0  0  0  0
  8  5  1  0  0  0  0
  9 16  1  0  0  0  0
 10  9  1  0  0  0  0
 11 24  1  0  0  0  0
 12 13  1  0  0  0  0
 14 44  1  0  0  0  0
 14 21  1  0  0  0  0
 15 20  1  0  0  0  0
 16  2  1  0  0  0  0
 16 28  2  0  0  0  0
 17  1  1  6  0  0  0
 17  2  1  0  0  0  0
 17 11  1  0  0  0  0
 18 19  1  0  0  0  0
 18 12  1  0  0  0  0
 20 12  2  0  0  0  0
 20 27  1  0  0  0  0
 21 15  2  0  0  0  0
 21 22  1  0  0  0  0
 22 18  2  0  0  0  0
 23 22  1  0  0  0  0
 24 25  1  0  0  0  0
 24 50  2  0  0  0  0
 26 15  1  0  0  0  0
 27 40  1  0  0  0  0
 27 34  1  0  0  0  0
 28 29  1  0  0  0  0
 30 50  1  0  0  0  0
 30 31  1  0  0  0  0
 32  9  2  0  0  0  0
 32 38  1  0  0  0  0
 33 32  1  0  0  0  0
 34 36  1  0  0  0  0
 34 35  1  0  0  0  0
 37 34  1  0  0  0  0
 38 52  2  0  0  0  0
 39 38  1  0  0  0  0
 40 42  1  0  0  0  0
 40 43  1  0  0  0  0
 41 40  1  0  0  0  0
 44 47  1  0  0  0  0
 44 45  1  0  0  0  0
 46 44  1  0  0  0  0
 48 30  2  0  0  0  0
 49 48  1  0  0  0  0
 50 51  1  0  0  0  0
 52 28  1  0  0  0  0
 52 53  1  0  0  0  0
 54 55  1  0  0  0  0
 54 14  1  0  0  0  0
 56 54  1  0  0  0  0
 57 54  1  0  0  0  0
 59 27  1  0  0  0  0
 60 14  1  0  0  0  0
M  END
