2
q = 0.0, confidence = 0.998

 54 57  0  0  1  0  0  0  0  0999 V2000
   -0.5664   -2.3495    0.3729 O   0  0  0  0  0  0  0  0  0  0  0  0
    0.4232    0.1188   -0.1365 N   0  0  0  0  0  2  0  0  0  0  0  0
   -0.8472   -0.0925   -0.3463 C   0  0  2  0  0  3  0  0  0  0  0  0
    0.9124    1.4475    0.0660 C   0  0  0  0  0  0  0  0  0  0  0  0
   -2.8153   -1.4507   -0.2862 C   0  0  0  0  0  0  0  0  0  0  0  0
    1.8084    3.4860   -0.8574 C   0  0  0  0  0  0  0  0  0  0  0  0
    2.1801    4.0697   -1.7127 H   0  0  0  0  0  0  0  0  0  0  0  0
   -2.0101    0.7870   -0.2607 C   0  0  0  0  0  0  0  0  0  0  0  0
   -3.1481   -0.0767   -0.1840 C   0  0  0  0  0  0  0  0  0  0  0  0
   -1.3239   -1.5451   -0.5757 C   0  0  2  0  0  0  0  0  0  0  0  0
    1.3453    3.3177    1.5213 C   0  0  0  0  0  0  0  0  0  0  0  0
    1.3548    3.7709    2.5240 H   0  0  0  0  0  0  0  0  0  0  0  0
   -2.1968    2.1687   -0.1692 C   0  0  0  0  0  0  0  0  0  0  0  0
   -1.3498    2.8661   -0.2193 H   0  0  0  0  0  0  0  0  0  0  0  0
   -1.0414   -1.9971   -2.0140 C   0  0  0  0  0  0  0  0  0  0  0  0
    0.0489   -1.9605   -2.2175 H   0  0  0  0  0  0  0  0  0  0  0  0
   -1.5678   -1.3419   -2.7342 H   0  0  0  0  0  0  0  0  0  0  0  0
   -1.4068   -3.0339   -2.1644 H   0  0  0  0  0  0  0  0  0  0  0  0
    1.7727    4.0673    0.4172 C   0  0  0  0  0  0  0  0  0  0  0  0
    2.1029    5.1080    0.5553 H   0  0  0  0  0  0  0  0  0  0  0  0
   -3.8204   -2.3996   -0.1906 C   0  0  0  0  0  0  0  0  0  0  0  0
   -3.6078   -3.4772   -0.2627 H   0  0  0  0  0  0  0  0  0  0  0  0
    0.9128    1.9871    1.3749 C   0  0  0  0  0  0  0  0  0  0  0  0
    1.4447    1.5026   -2.4340 C   0  0  0  0  0  0  0  0  0  0  0  0
    1.3677    0.4083   -2.2683 H   0  0  0  0  0  0  0  0  0  0  0  0
   -5.4915   -0.6029    0.1007 C   0  0  0  0  0  0  0  0  0  0  0  0
   -6.5385   -0.2987    0.2513 H   0  0  0  0  0  0  0  0  0  0  0  0
   -5.1617   -1.9538    0.0126 C   0  0  0  0  0  0  0  0  0  0  0  0
   -5.9598   -2.7065    0.0978 H   0  0  0  0  0  0  0  0  0  0  0  0
    2.7863    1.7421   -3.1397 C   0  0  0  0  0  0  0  0  0  0  0  0
    2.8222    1.1785   -4.0941 H   0  0  0  0  0  0  0  0  0  0  0  0
    3.6211    1.3930   -2.5014 H   0  0  0  0  0  0  0  0  0  0  0  0
    2.9470    2.8126   -3.3835 H   0  0  0  0  0  0  0  0  0  0  0  0
   -3.5222    2.6563   -0.0024 C   0  0  0  0  0  0  0  0  0  0  0  0
   -3.6744    3.7438    0.0671 H   0  0  0  0  0  0  0  0  0  0  0  0
   -4.4744    0.3947    0.0034 C   0  0  0  0  0  0  0  0  0  0  0  0
    1.3927    2.1579   -1.0600 C   0  0  0  0  0  0  0  0  0  0  0  0
    0.5302    1.1459    2.5846 C   0  0  0  0  0  0  0  0  0  0  0  0
    0.0477    0.2180    2.2156 H   0  0  0  0  0  0  0  0  0  0  0  0
   -4.6311    1.8110    0.0881 C   0  0  0  0  0  0  0  0  0  0  0  0
   -5.6360    2.2375    0.2306 H   0  0  0  0  0  0  0  0  0  0  0  0
    1.8059    0.7165    3.3348 C   0  0  0  0  0  0  0  0  0  0  0  0
    2.5124    0.2062    2.6497 H   0  0  0  0  0  0  0  0  0  0  0  0
    1.5571    0.0219    4.1629 H   0  0  0  0  0  0  0  0  0  0  0  0
    2.3247    1.5973    3.7672 H   0  0  0  0  0  0  0  0  0  0  0  0
    0.2501    1.9370   -3.3019 C   0  0  0  0  0  0  0  0  0  0  0  0
   -0.7186    1.7060   -2.8134 H   0  0  0  0  0  0  0  0  0  0  0  0
    0.2700    1.4238   -4.2854 H   0  0  0  0  0  0  0  0  0  0  0  0
    0.2729    3.0308   -3.4909 H   0  0  0  0  0  0  0  0  0  0  0  0
   -0.4781    1.8486    3.5050 C   0  0  0  0  0  0  0  0  0  0  0  0
   -0.7798    1.1739    4.3316 H   0  0  0  0  0  0  0  0  0  0  0  0
   -1.3929    2.1461    2.9528 H   0  0  0  0  0  0  0  0  0  0  0  0
   -0.0486    2.7608    3.9684 H   0  0  0  0  0  0  0  0  0  0  0  0
   -0.4670   -3.2784    0.0634 H   0  0  0  0  0  0  0  0  0  0  0  0
  2  4  1  0  0  0  0
  3  8  1  0  0  0  0
  3  2  1  1  0  0  0
  4 23  1  0  0  0  0
  5 21  2  0  0  0  0
  5  9  1  0  0  0  0
  6 19  2  0  0  0  0
  7  6  1  0  0  0  0
  8  9  2  0  0  0  0
  8 13  1  0  0  0  0
  9 36  1  0  0  0  0
 10  3  1  0  0  0  0
 10  5  1  0  0  0  0
 10  1  1  1  0  0  0
 11 12  1  0  0  0  0
 13 34  2  0  0  0  0
 14 13  1  0  0  0  0
 15 10  1  0  0  0  0
 16 15  1  0  0  0  0
 17 15  1  0  0  0  0
 18 15  1  0  0  0  0
 19 20  1  0  0  0  0
 19 11  1  0  0  0  0
 21 28  1  0  0  0  0
 22 21  1  0  0  0  0
 23 11  2  0  0  0  0
 23 38  1  0  0  0  0
 24 25  1  0  0  0  0
 24 37  1  0  0  0  0
 26 27  1  0  0  0  0
 28 29  1  0  0  0  0
 28 26  2  0  0  0  0
 30 32  1  0  0  0  0
 30 24  1  0  0  0  0
 31 30  1  0  0  0  0
 33 30  1  0  0  0  0
 34 35  1  0  0  0  0
 34 40  1  0  0  0  0
 36 40  2  0  0  0  0
 36 26  1  0  0  0  0
 37  6  1  0  0  0  0
 37  4  2  0  0  0  0
 38 42  1  0  0  0  0
 38 50  1  0  0  0  0
 39 38  1  0  0  0  0
 40 41  1  0  0  0  0
 42 45  1  0  0  0  0
 42 44  1  0  0  0  0
 43 42  1  0  0  0  0
 46 47  1  0  0  0  0
 46 24  1  0  0  0  0
 48 46  1  0  0  0  0
 49 46  1  0  0  0  0
 50 53  1  0  0  0  0
 50 51  1  0  0  0  0
 52 50  1  0  0  0  0
 54  1  1  0  0  0  0
M  END
