1
q = 0.0, confidence = 1.0

 39 41  0  0  1  0  0  0  0  0999 V2000
   -0.2476   -1.1979   -1.5646 N   0  0  0  0  0  2  0  0  0  0  0  0
    0.3030    0.2516   -3.1896 N   0  0  0  0  0  0  0  0  0  0  0  0
    2.9136    0.6222   -1.9918 N   0  0  0  0  0  0  0  0  0  0  0  0
   -1.4703   -1.0213   -2.3706 C   0  0  0  0  0  0  0  0  0  0  0  0
   -1.1593    0.1883   -3.2958 C   0  0  0  0  0  0  0  0  0  0  0  0
    0.6982   -0.4838   -2.1183 C   0  0  2  0  0  3  0  0  0  0  0  0
    2.1321   -0.5667   -1.6918 C   0  0  0  0  0  0  0  0  0  0  0  0
    4.3704    0.3254   -2.0302 C   0  0  0  0  0  0  0  0  0  0  0  0
    4.9099   -0.0157   -0.6527 C   0  0  0  0  0  0  0  0  0  0  0  0
    4.7839   -1.3200   -0.1324 C   0  0  0  0  0  0  0  0  0  0  0  0
    5.1334   -1.5979    1.1978 C   0  0  0  0  0  0  0  0  0  0  0  0
    5.6316   -0.5777    2.0233 C   0  0  0  0  0  0  0  0  0  0  0  0
    5.7752    0.7229    1.5120 C   0  0  0  0  0  0  0  0  0  0  0  0
    5.4117    1.0017    0.1861 C   0  0  0  0  0  0  0  0  0  0  0  0
    2.5791    1.8019   -1.2719 C   0  0  0  0  0  0  0  0  0  0  0  0
    3.1138    3.0432   -1.6969 C   0  0  0  0  0  0  0  0  0  0  0  0
    2.8422    4.2201   -0.9914 C   0  0  0  0  0  0  0  0  0  0  0  0
    2.0218    4.1957    0.1507 C   0  0  0  0  0  0  0  0  0  0  0  0
    1.4690    2.9766    0.5619 C   0  0  0  0  0  0  0  0  0  0  0  0
    1.7403    1.7889   -0.1363 C   0  0  0  0  0  0  0  0  0  0  0  0
   -1.6582   -1.9556   -2.9421 H   0  0  0  0  0  0  0  0  0  0  0  0
   -2.3596   -0.8645   -1.7295 H   0  0  0  0  0  0  0  0  0  0  0  0
   -1.6296    1.1274   -2.9265 H   0  0  0  0  0  0  0  0  0  0  0  0
   -1.4866    0.0258   -4.3417 H   0  0  0  0  0  0  0  0  0  0  0  0
    2.5691   -1.4234   -2.2466 H   0  0  0  0  0  0  0  0  0  0  0  0
    2.1620   -0.9026   -0.6319 H   0  0  0  0  0  0  0  0  0  0  0  0
    4.5173   -0.5182   -2.7346 H   0  0  0  0  0  0  0  0  0  0  0  0
    4.8991    1.2016   -2.4503 H   0  0  0  0  0  0  0  0  0  0  0  0
    4.3716   -2.1345   -0.7471 H   0  0  0  0  0  0  0  0  0  0  0  0
    4.9931   -2.6186    1.5838 H   0  0  0  0  0  0  0  0  0  0  0  0
    5.9098   -0.7954    3.0661 H   0  0  0  0  0  0  0  0  0  0  0  0
    6.1690    1.5279    2.1514 H   0  0  0  0  0  0  0  0  0  0  0  0
    5.5070    2.0273   -0.2033 H   0  0  0  0  0  0  0  0  0  0  0  0
    3.7463    3.0769   -2.5964 H   0  0  0  0  0  0  0  0  0  0  0  0
    3.2701    5.1714   -1.3436 H   0  0  0  0  0  0  0  0  0  0  0  0
    1.8029    5.1218    0.7020 H   0  0  0  0  0  0  0  0  0  0  0  0
    0.7984    2.9415    1.4335 H   0  0  0  0  0  0  0  0  0  0  0  0
    1.2921    0.8492    0.2117 H   0  0  0  0  0  0  0  0  0  0  0  0
    0.8913    1.0054   -3.5474 H   0  0  0  0  0  0  0  0  0  0  0  0
  2  6  1  0  0  0  0
  3  7  1  0  0  0  0
  3 15  1  0  0  0  0
  4 22  1  0  0  0  0
  4  1  1  0  0  0  0
  5  2  1  0  0  0  0
  5 23  1  0  0  0  0
  5  4  1  0  0  0  0
  6  7  1  6  0  0  0
  6  1  1  0  0  0  0
  7 26  1  0  0  0  0
  8  3  1  0  0  0  0
  8  9  1  0  0  0  0
  9 10  2  0  0  0  0
  9 14  1  0  0  0  0
 10 11  1  0  0  0  0
 11 30  1  0  0  0  0
 11 12  2  0  0  0  0
 12 31  1  0  0  0  0
 13 12  1  0  0  0  0
 13 32  1  0  0  0  0
 14 13  2  0  0  0  0
 15 20  1  0  0  0  0
 16 15  2  0  0  0  0
 16 17  1  0  0  0  0
 17 18  2  0  0  0  0
 18 19  1  0  0  0  0
 18 36  1  0  0  0  0
 19 37  1  0  0  0  0
 20 38  1  0  0  0  0
 20 19  2  0  0  0  0
 21  4  1  0  0  0  0
 24  5  1  0  0  0  0
 25  7  1  0  0  0  0
 27  8  1  0  0  0  0
 28  8  1  0  0  0  0
 29 10  1  0  0  0  0
 33 14  1  0  0  0  0
 34 16  1  0  0  0  0
 35 17  1  0  0  0  0
 39  2  1  0  0  0  0
M  END
