1
q = -1.0, confidence = 0.002

 36 37  0  0  0  0  0  0  0  0999 V2000
   -1.5932    0.8028   -0.0459 N   0  0  0  0  0  2  0  0  0  0  0  0
   -3.1118   -1.5446    0.5689 N   0  0  0  0  0  0  0  0  0  0  0  0
   -2.8732    0.2091    0.9972 Si  0  0  0  0  0  0  0  0  0  0  0  0
   -4.5223    1.0845    0.6921 C   0  0  0  0  0  0  0  0  0  0  0  0
   -4.6417    1.9464    1.3786 H   0  0  0  0  0  0  0  0  0  0  0  0
   -5.3536    0.3776    0.8903 H   0  0  0  0  0  0  0  0  0  0  0  0
   -4.6219    1.4645   -0.3422 H   0  0  0  0  0  0  0  0  0  0  0  0
   -2.4956    0.4016    2.8335 C   0  0  0  0  0  0  0  0  0  0  0  0
   -1.5507   -0.0711    3.1577 H   0  0  0  0  0  0  0  0  0  0  0  0
   -3.3188    0.0196    3.4693 H   0  0  0  0  0  0  0  0  0  0  0  0
   -2.4075    1.4922    3.0212 H   0  0  0  0  0  0  0  0  0  0  0  0
   -1.6780    2.0556   -0.6688 C   0  0  0  0  0  0  0  0  0  0  0  0
   -2.1262    3.2353   -0.0054 C   0  0  0  0  0  0  0  0  0  0  0  0
   -2.4780    3.1616    1.0350 H   0  0  0  0  0  0  0  0  0  0  0  0
   -2.1117    4.4821   -0.6421 C   0  0  0  0  0  0  0  0  0  0  0  0
   -2.4660    5.3707   -0.0965 H   0  0  0  0  0  0  0  0  0  0  0  0
   -1.6342    4.6113   -1.9590 C   0  0  0  0  0  0  0  0  0  0  0  0
   -1.6117    5.5949   -2.4506 H   0  0  0  0  0  0  0  0  0  0  0  0
   -1.2040    3.4622   -2.6397 C   0  0  0  0  0  0  0  0  0  0  0  0
   -0.8476    3.5363   -3.6789 H   0  0  0  0  0  0  0  0  0  0  0  0
   -1.2444    2.2066   -2.0161 C   0  0  0  0  0  0  0  0  0  0  0  0
   -0.9549    1.3052   -2.5764 H   0  0  0  0  0  0  0  0  0  0  0  0
   -3.5906   -1.9317   -0.6966 C   0  0  0  0  0  0  0  0  0  0  0  0
   -3.7512   -3.3121   -0.6996 C   0  0  0  0  0  0  0  0  0  0  0  0
   -4.1072   -3.9023   -1.5527 H   0  0  0  0  0  0  0  0  0  0  0  0
   -3.3626   -3.7946    0.5845 C   0  0  0  0  0  0  0  0  0  0  0  0
   -3.3448   -4.8367    0.9255 H   0  0  0  0  0  0  0  0  0  0  0  0
   -2.9695   -2.7021    1.3499 C   0  0  0  0  0  0  0  0  0  0  0  0
   -3.8816   -0.9710   -1.8085 C   0  0  0  0  0  0  0  0  0  0  0  0
   -3.9615   -1.5293   -2.7611 H   0  0  0  0  0  0  0  0  0  0  0  0
   -3.0883   -0.2039   -1.9210 H   0  0  0  0  0  0  0  0  0  0  0  0
   -4.8411   -0.4284   -1.6705 H   0  0  0  0  0  0  0  0  0  0  0  0
   -2.4193   -2.7396    2.7403 C   0  0  0  0  0  0  0  0  0  0  0  0
   -2.3433   -3.7959    3.0610 H   0  0  0  0  0  0  0  0  0  0  0  0
   -3.0558   -2.2168    3.4836 H   0  0  0  0  0  0  0  0  0  0  0  0
   -1.4027   -2.2988    2.8108 H   0  0  0  0  0  0  0  0  0  0  0  0
  1  3  1  0  0  0  0
  2  3  1  0  0  0  0
  2 28  1  0  0  0  0
  3  8  1  0  0  0  0
  4  6  1  0  0  0  0
  4  3  1  0  0  0  0
  4  5  1  0  0  0  0
  7  4  1  0  0  0  0
  8 11  1  0  0  0  0
  8  9  1  0  0  0  0
  8 10  1  0  0  0  0
 12  1  1  0  0  0  0
 12 13  1  0  0  0  0
 13 14  1  0  0  0  0
 15 16  1  0  0  0  0
 15 13  2  0  0  0  0
 17 15  1  0  0  0  0
 18 17  1  0  0  0  0
 19 21  1  0  0  0  0
 19 17  2  0  0  0  0
 20 19  1  0  0  0  0
 21 12  2  0  0  0  0
 22 21  1  0  0  0  0
 23  2  1  0  0  0  0
 24 23  2  0  0  0  0
 24 26  1  0  0  0  0
 25 24  1  0  0  0  0
 26 27  1  0  0  0  0
 26 28  2  0  0  0  0
 28 33  1  0  0  0  0
 29 32  1  0  0  0  0
 29 23  1  0  0  0  0
 30 29  1  0  0  0  0
 31 29  1  0  0  0  0
 33 36  1  0  0  0  0
 33 34  1  0  0  0  0
 33 35  1  0  0  0  0
M  END
