1
q = -1.0

 24 23  0  0  0  0  0  0  0  0999 V2000
   -2.1998    0.1523   -0.4966 N   0  0  0  0  0  2  0  0  0  0  0  0
   -2.8174    0.6884    1.8388 N   0  0  0  0  0  0  0  0  0  0  0  0
   -2.1168    0.1754    0.8131 C   0  0  0  0  0  2  0  0  0  0  0  0
   -2.2721    0.5161    3.1811 C   0  0  0  0  0  0  0  0  0  0  0  0
   -1.3784   -0.1297    3.1137 H   0  0  0  0  0  0  0  0  0  0  0  0
   -3.0218    0.0418    3.8510 H   0  0  0  0  0  0  0  0  0  0  0  0
   -1.9814    1.4950    3.6214 H   0  0  0  0  0  0  0  0  0  0  0  0
   -4.0425    1.4732    1.7708 C   0  0  0  0  0  0  0  0  0  0  0  0
   -3.8436    2.5618    1.8915 H   0  0  0  0  0  0  0  0  0  0  0  0
   -4.7282    1.1608    2.5859 H   0  0  0  0  0  0  0  0  0  0  0  0
   -4.5556    1.3084    0.8094 H   0  0  0  0  0  0  0  0  0  0  0  0
   -2.9832    0.7642   -1.5929 C   0  0  0  0  0  0  0  0  0  0  0  0
   -3.1037    2.2908   -1.4194 C   0  0  0  0  0  0  0  0  0  0  0  0
   -3.7029    2.5802   -0.5378 H   0  0  0  0  0  0  0  0  0  0  0  0
   -3.5892    2.7327   -2.3128 H   0  0  0  0  0  0  0  0  0  0  0  0
   -2.0993    2.7454   -1.3183 H   0  0  0  0  0  0  0  0  0  0  0  0
   -4.3676    0.0953   -1.6921 C   0  0  0  0  0  0  0  0  0  0  0  0
   -4.2578   -0.9979   -1.8346 H   0  0  0  0  0  0  0  0  0  0  0  0
   -4.9330    0.5009   -2.5554 H   0  0  0  0  0  0  0  0  0  0  0  0
   -4.9778    0.2590   -0.7815 H   0  0  0  0  0  0  0  0  0  0  0  0
   -2.1933    0.4882   -2.8864 C   0  0  0  0  0  0  0  0  0  0  0  0
   -1.1900    0.9556   -2.8308 H   0  0  0  0  0  0  0  0  0  0  0  0
   -2.7273    0.9025   -3.7645 H   0  0  0  0  0  0  0  0  0  0  0  0
   -2.0480   -0.5982   -3.0341 H   0  0  0  0  0  0  0  0  0  0  0  0
  1  3  1  0  0  0  0
  2  4  1  0  0  0  0
  3  2  1  0  0  0  0
  4  7  1  0  0  0  0
  4  6  1  0  0  0  0
  5  4  1  0  0  0  0
  8  2  1  0  0  0  0
  8  9  1  0  0  0  0
  8 10  1  0  0  0  0
 11  8  1  0  0  0  0
 12 13  1  0  0  0  0
 12  1  1  0  0  0  0
 13 16  1  0  0  0  0
 13 14  1  0  0  0  0
 15 13  1  0  0  0  0
 17 12  1  0  0  0  0
 17 20  1  0  0  0  0
 18 17  1  0  0  0  0
 19 17  1  0  0  0  0
 21 22  1  0  0  0  0
 21 12  1  0  0  0  0
 23 21  1  0  0  0  0
 24 21  1  0  0  0  0
M  END
