2
q = -1.0

 38 40  0  0  0  0  0  0  0  0999 V2000
   -0.9124    0.9635   -1.0753 O   0  0  0  0  0  0  0  0  0  0  0  0
   -0.6288   -0.5296    0.5954 N   0  0  0  0  0  2  0  0  0  0  0  0
   -1.0271   -1.4792    1.5383 C   0  0  0  0  0  0  0  0  0  0  0  0
   -2.0883   -2.4003    1.3343 C   0  0  0  0  0  0  0  0  0  0  0  0
   -2.3795   -3.3804    2.2945 C   0  0  0  0  0  0  0  0  0  0  0  0
   -1.6191   -3.4862    3.4701 C   0  0  0  0  0  0  0  0  0  0  0  0
   -0.5511   -2.5948    3.6731 C   0  0  0  0  0  0  0  0  0  0  0  0
   -0.2586   -1.6091    2.7243 C   0  0  0  0  0  0  0  0  0  0  0  0
   -1.4213    0.2319   -0.1904 C   0  0  0  0  0  0  0  0  0  0  0  0
   -2.9488    0.2880    0.0364 C   0  0  0  0  0  0  0  0  0  0  0  0
   -3.7101   -0.4411   -1.0680 C   0  0  0  0  0  0  0  0  0  0  0  0
   -4.9097   -1.1093   -0.7462 C   0  0  0  0  0  0  0  0  0  0  0  0
   -5.6483   -1.7791   -1.7320 C   0  0  0  0  0  0  0  0  0  0  0  0
   -5.1975   -1.7926   -3.0619 C   0  0  0  0  0  0  0  0  0  0  0  0
   -4.0051   -1.1309   -3.3929 C   0  0  0  0  0  0  0  0  0  0  0  0
   -3.2660   -0.4595   -2.4060 C   0  0  0  0  0  0  0  0  0  0  0  0
   -3.4013    1.7339    0.2009 C   0  0  0  0  0  0  0  0  0  0  0  0
   -3.3428    2.6567   -0.8631 C   0  0  0  0  0  0  0  0  0  0  0  0
   -3.7297    3.9901   -0.6685 C   0  0  0  0  0  0  0  0  0  0  0  0
   -4.1872    4.4234    0.5874 C   0  0  0  0  0  0  0  0  0  0  0  0
   -4.2573    3.5105    1.6503 C   0  0  0  0  0  0  0  0  0  0  0  0
   -3.8664    2.1762    1.4549 C   0  0  0  0  0  0  0  0  0  0  0  0
   -2.6640   -2.3702    0.3981 H   0  0  0  0  0  0  0  0  0  0  0  0
   -3.2054   -4.0845    2.1073 H   0  0  0  0  0  0  0  0  0  0  0  0
   -1.8476   -4.2629    4.2149 H   0  0  0  0  0  0  0  0  0  0  0  0
    0.0643   -2.6699    4.5832 H   0  0  0  0  0  0  0  0  0  0  0  0
    0.5895   -0.9228    2.8703 H   0  0  0  0  0  0  0  0  0  0  0  0
   -3.1842   -0.2252    0.9880 H   0  0  0  0  0  0  0  0  0  0  0  0
   -5.2661   -1.1010    0.2964 H   0  0  0  0  0  0  0  0  0  0  0  0
   -6.5819   -2.2952   -1.4595 H   0  0  0  0  0  0  0  0  0  0  0  0
   -5.7744   -2.3192   -3.8374 H   0  0  0  0  0  0  0  0  0  0  0  0
   -3.6423   -1.1373   -4.4325 H   0  0  0  0  0  0  0  0  0  0  0  0
   -2.3269    0.0548   -2.6578 H   0  0  0  0  0  0  0  0  0  0  0  0
   -2.9775    2.3226   -1.8430 H   0  0  0  0  0  0  0  0  0  0  0  0
   -3.6755    4.7000   -1.5084 H   0  0  0  0  0  0  0  0  0  0  0  0
   -4.4925    5.4706    0.7351 H   0  0  0  0  0  0  0  0  0  0  0  0
   -4.6183    3.8361    2.6380 H   0  0  0  0  0  0  0  0  0  0  0  0
   -3.9143    1.4618    2.2926 H   0  0  0  0  0  0  0  0  0  0  0  0
  1  9  2  0  0  0  0
  2  3  1  0  0  0  0
  3  8  1  0  0  0  0
  4  3  2  0  0  0  0
  4  5  1  0  0  0  0
  5  6  2  0  0  0  0
  6  7  1  0  0  0  0
  6 25  1  0  0  0  0
  7 26  1  0  0  0  0
  8 27  1  0  0  0  0
  8  7  2  0  0  0  0
  9 10  1  0  0  0  0
  9  2  1  0  0  0  0
 10 17  1  0  0  0  0
 10 28  1  0  0  0  0
 11 12  1  0  0  0  0
 11 10  1  0  0  0  0
 12 29  1  0  0  0  0
 13 30  1  0  0  0  0
 13 12  2  0  0  0  0
 14 13  1  0  0  0  0
 15 14  2  0  0  0  0
 15 16  1  0  0  0  0
 16 11  2  0  0  0  0
 17 22  1  0  0  0  0
 18 19  1  0  0  0  0
 18 17  2  0  0  0  0
 19 20  2  0  0  0  0
 20 36  1  0  0  0  0
 20 21  1  0  0  0  0
 21 37  1  0  0  0  0
 22 21  2  0  0  0  0
 22 38  1  0  0  0  0
 23  4  1  0  0  0  0
 24  5  1  0  0  0  0
 31 14  1  0  0  0  0
 32 15  1  0  0  0  0
 33 16  1  0  0  0  0
 34 18  1  0  0  0  0
 35 19  1  0  0  0  0
M  END
