8
q = 0.0, confidence = 0.606

 52 56  0  0  0  0  0  0  0  0999 V2000
    0.1075   -0.6513   -1.7745 S   0  0  0  0  0  0  0  0  0  0  0  0
   -0.1548   -0.5899    1.5824 S   0  0  0  0  0  0  0  0  0  0  0  0
    2.2907   -0.7471    0.1845 P   0  0  0  0  0  4  0  0  0  0  0  0
   -0.6514    1.6592    0.0233 P   0  0  0  0  0  4  0  0  0  0  0  0
    1.6596   -0.5371   -1.3487 N   0  0  0  0  0  2  0  0  0  0  0  0
    1.3536   -1.2780    1.4248 N   0  0  0  0  0  2  0  0  0  0  0  0
    0.0439    1.0878    1.3836 N   0  0  0  0  0  2  0  0  0  0  0  0
   -1.0259    0.5727   -1.2181 N   0  0  0  0  0  2  0  0  0  0  0  0
    3.6067   -1.9948    0.0210 C   0  0  0  0  0  0  0  0  0  0  0  0
    4.1775   -2.2530   -1.2397 C   0  0  0  0  0  0  0  0  0  0  0  0
    5.2002   -3.2061   -1.3587 C   0  0  0  0  0  0  0  0  0  0  0  0
    5.6519   -3.9013   -0.2253 C   0  0  0  0  0  0  0  0  0  0  0  0
    5.0746   -3.6482    1.0304 C   0  0  0  0  0  0  0  0  0  0  0  0
    4.0529   -2.6963    1.1583 C   0  0  0  0  0  0  0  0  0  0  0  0
    3.1613    0.8171    0.5686 C   0  0  0  0  0  0  0  0  0  0  0  0
    3.7272    1.5812   -0.4695 C   0  0  0  0  0  0  0  0  0  0  0  0
    4.4511    2.7423   -0.1635 C   0  0  0  0  0  0  0  0  0  0  0  0
    4.6073    3.1435    1.1733 C   0  0  0  0  0  0  0  0  0  0  0  0
    4.0262    2.3891    2.2062 C   0  0  0  0  0  0  0  0  0  0  0  0
    3.3043    1.2246    1.9069 C   0  0  0  0  0  0  0  0  0  0  0  0
    0.3868    3.0023   -0.6266 C   0  0  0  0  0  0  0  0  0  0  0  0
    0.5475    3.1640   -2.0161 C   0  0  0  0  0  0  0  0  0  0  0  0
    1.3631    4.1953   -2.5065 C   0  0  0  0  0  0  0  0  0  0  0  0
    2.0107    5.0646   -1.6145 C   0  0  0  0  0  0  0  0  0  0  0  0
    1.8559    4.8951   -0.2284 C   0  0  0  0  0  0  0  0  0  0  0  0
    1.0494    3.8641    0.2701 C   0  0  0  0  0  0  0  0  0  0  0  0
   -2.3023    2.3676    0.3745 C   0  0  0  0  0  0  0  0  0  0  0  0
   -2.7892    2.2924    1.6915 C   0  0  0  0  0  0  0  0  0  0  0  0
   -4.0706    2.7817    1.9917 C   0  0  0  0  0  0  0  0  0  0  0  0
   -4.8609    3.3485    0.9784 C   0  0  0  0  0  0  0  0  0  0  0  0
   -4.3695    3.4297   -0.3366 C   0  0  0  0  0  0  0  0  0  0  0  0
   -3.0912    2.9410   -0.6414 C   0  0  0  0  0  0  0  0  0  0  0  0
    3.7968   -1.7141   -2.1205 H   0  0  0  0  0  0  0  0  0  0  0  0
    5.6447   -3.4108   -2.3449 H   0  0  0  0  0  0  0  0  0  0  0  0
    6.4547   -4.6484   -0.3214 H   0  0  0  0  0  0  0  0  0  0  0  0
    5.4208   -4.2005    1.9176 H   0  0  0  0  0  0  0  0  0  0  0  0
    3.5777   -2.5010    2.1310 H   0  0  0  0  0  0  0  0  0  0  0  0
    3.5748    1.2702   -1.5139 H   0  0  0  0  0  0  0  0  0  0  0  0
    4.8846    3.3454   -0.9756 H   0  0  0  0  0  0  0  0  0  0  0  0
    5.1759    4.0559    1.4112 H   0  0  0  0  0  0  0  0  0  0  0  0
    4.1337    2.7124    3.2532 H   0  0  0  0  0  0  0  0  0  0  0  0
    2.8241    0.6320    2.6997 H   0  0  0  0  0  0  0  0  0  0  0  0
    0.0428    2.4692   -2.7047 H   0  0  0  0  0  0  0  0  0  0  0  0
    1.4953    4.3186   -3.5923 H   0  0  0  0  0  0  0  0  0  0  0  0
    2.6489    5.8739   -2.0015 H   0  0  0  0  0  0  0  0  0  0  0  0
    2.3822    5.5613    0.4714 H   0  0  0  0  0  0  0  0  0  0  0  0
    0.9506    3.7003    1.3531 H   0  0  0  0  0  0  0  0  0  0  0  0
   -2.1451    1.8414    2.4630 H   0  0  0  0  0  0  0  0  0  0  0  0
   -4.4537    2.7215    3.0221 H   0  0  0  0  0  0  0  0  0  0  0  0
   -5.8652    3.7329    1.2137 H   0  0  0  0  0  0  0  0  0  0  0  0
   -4.9901    3.8754   -1.1292 H   0  0  0  0  0  0  0  0  0  0  0  0
   -2.7047    2.9925   -1.6706 H   0  0  0  0  0  0  0  0  0  0  0  0
  1  5  1  0  0  0  0
  1  8  1  0  0  0  0
  3 15  1  0  0  0  0
  3  6  1  0  0  0  0
  4 27  1  0  0  0  0
  4  7  1  0  0  0  0
  5  3  1  0  0  0  0
  6  2  1  0  0  0  0
  7  2  1  0  0  0  0
  8  4  1  0  0  0  0
  9  3  1  0  0  0  0
  9 14  1  0  0  0  0
 10  9  2  0  0  0  0
 11 10  1  0  0  0  0
 11 12  2  0  0  0  0
 12 13  1  0  0  0  0
 13 14  2  0  0  0  0
 13 36  1  0  0  0  0
 14 37  1  0  0  0  0
 15 20  1  0  0  0  0
 16 17  1  0  0  0  0
 16 15  2  0  0  0  0
 17 18  2  0  0  0  0
 18 40  1  0  0  0  0
 18 19  1  0  0  0  0
 19 41  1  0  0  0  0
 20 19  2  0  0  0  0
 20 42  1  0  0  0  0
 21  4  1  0  0  0  0
 21 26  1  0  0  0  0
 22 21  2  0  0  0  0
 23 22  1  0  0  0  0
 23 24  2  0  0  0  0
 24 25  1  0  0  0  0
 25 26  2  0  0  0  0
 25 46  1  0  0  0  0
 26 47  1  0  0  0  0
 27 28  1  0  0  0  0
 28 29  2  0  0  0  0
 28 48  1  0  0  0  0
 29 49  1  0  0  0  0
 30 50  1  0  0  0  0
 30 29  1  0  0  0  0
 31 30  2  0  0  0  0
 32 31  1  0  0  0  0
 32 27  2  0  0  0  0
 33 10  1  0  0  0  0
 34 11  1  0  0  0  0
 35 12  1  0  0  0  0
 38 16  1  0  0  0  0
 39 17  1  0  0  0  0
 43 22  1  0  0  0  0
 44 23  1  0  0  0  0
 45 24  1  0  0  0  0
 51 31  1  0  0  0  0
 52 32  1  0  0  0  0
M  END
