1
q = 0.0, confidence = 0.996

 42 46  0  0  0  0  0  0  0  0999 V2000
   -1.1611    1.1996   -0.1146 N   0  0  0  0  0  2  0  0  0  0  0  0
   -2.5061    1.2660   -0.2176 C   0  0  0  0  0  0  0  0  0  0  0  0
   -3.1476    2.5181   -0.3972 C   0  0  0  0  0  0  0  0  0  0  0  0
   -4.2416    2.5348   -0.4909 H   0  0  0  0  0  0  0  0  0  0  0  0
   -2.4002    3.6815   -0.3803 C   0  0  0  0  0  0  0  0  0  0  0  0
   -2.8867    4.6653   -0.4648 H   0  0  0  0  0  0  0  0  0  0  0  0
   -0.9921    3.6170   -0.2344 C   0  0  0  0  0  0  0  0  0  0  0  0
   -0.1925    4.8060   -0.1632 C   0  0  0  0  0  3  0  0  0  0  0  0
   -0.7032    5.7791   -0.2131 H   0  0  0  0  0  0  0  0  0  0  0  0
    1.1703    4.7289   -0.0173 C   0  0  0  0  0  0  0  0  0  0  0  0
    1.7809    5.6413    0.0631 H   0  0  0  0  0  0  0  0  0  0  0  0
    1.8273    3.4571    0.0038 C   0  0  0  0  0  0  0  0  0  0  0  0
    3.2384    3.3307    0.1109 C   0  0  0  0  0  0  0  0  0  0  0  0
    3.8517    4.2388    0.2179 H   0  0  0  0  0  0  0  0  0  0  0  0
    3.8275    2.0809    0.0547 C   0  0  0  0  0  0  0  0  0  0  0  0
    4.9194    1.9744    0.1098 H   0  0  0  0  0  0  0  0  0  0  0  0
    3.0077    0.9270   -0.1457 C   0  0  0  0  0  0  0  0  0  0  0  0
    1.6755    1.0386   -0.2160 N   0  0  0  0  0  0  0  0  0  0  0  0
    1.0777    2.2397   -0.1153 C   0  0  0  0  0  0  0  0  0  0  0  0
   -0.3800    2.3228   -0.1537 C   0  0  0  0  0  0  0  0  0  0  0  0
   -3.3352    0.0370   -0.1241 C   0  0  0  0  0  0  0  0  0  0  0  0
   -4.1549   -0.3222   -1.2138 C   0  0  0  0  0  0  0  0  0  0  0  0
   -4.1394    0.2873   -2.1297 H   0  0  0  0  0  0  0  0  0  0  0  0
   -4.9418   -1.4791   -1.1486 C   0  0  0  0  0  0  0  0  0  0  0  0
   -5.5574   -1.7691   -2.0132 H   0  0  0  0  0  0  0  0  0  0  0  0
   -4.9307   -2.2738    0.0088 C   0  0  0  0  0  0  0  0  0  0  0  0
   -5.5450   -3.1856    0.0559 H   0  0  0  0  0  0  0  0  0  0  0  0
   -4.1337   -1.9067    1.1038 C   0  0  0  0  0  0  0  0  0  0  0  0
   -4.1233   -2.5233    2.0146 H   0  0  0  0  0  0  0  0  0  0  0  0
   -3.3353   -0.7563    1.0443 C   0  0  0  0  0  0  0  0  0  0  0  0
   -2.7086   -0.4720    1.9034 H   0  0  0  0  0  0  0  0  0  0  0  0
    3.6037   -0.4163   -0.3189 C   0  0  0  0  0  0  0  0  0  0  0  0
    4.8323   -0.7563    0.2934 C   0  0  0  0  0  0  0  0  0  0  0  0
    5.3480   -0.0287    0.9381 H   0  0  0  0  0  0  0  0  0  0  0  0
    5.3770   -2.0351    0.1277 C   0  0  0  0  0  0  0  0  0  0  0  0
    6.3237   -2.2944    0.6251 H   0  0  0  0  0  0  0  0  0  0  0  0
    4.7080   -2.9887   -0.6584 C   0  0  0  0  0  0  0  0  0  0  0  0
    5.1353   -3.9953   -0.7840 H   0  0  0  0  0  0  0  0  0  0  0  0
    3.4913   -2.6572   -1.2740 C   0  0  0  0  0  0  0  0  0  0  0  0
    2.9516   -3.3995   -1.8802 H   0  0  0  0  0  0  0  0  0  0  0  0
    2.9405   -1.3815   -1.1079 C   0  0  0  0  0  0  0  0  0  0  0  0
    1.9900   -1.1244   -1.5973 H   0  0  0  0  0  0  0  0  0  0  0  0
  2 21  1  0  0  0  0
  2  1  1  0  0  0  0
  3  5  1  0  0  0  0
  3  2  2  0  0  0  0
  4  3  1  0  0  0  0
  5  7  2  0  0  0  0
  6  5  1  0  0  0  0
  7  8  1  0  0  0  0
  7 20  1  0  0  0  0
  8 10  1  0  0  0  0
  9  8  1  0  0  0  0
 10 12  2  0  0  0  0
 10 11  1  0  0  0  0
 12 13  1  0  0  0  0
 13 14  1  0  0  0  0
 15 16  1  0  0  0  0
 15 13  2  0  0  0  0
 17 15  1  0  0  0  0
 18 17  2  0  0  0  0
 18 19  1  0  0  0  0
 19 12  1  0  0  0  0
 20 19  2  0  0  0  0
 20  1  1  0  0  0  0
 21 30  1  0  0  0  0
 22 24  1  0  0  0  0
 22 21  2  0  0  0  0
 23 22  1  0  0  0  0
 24 26  2  0  0  0  0
 25 24  1  0  0  0  0
 26 27  1  0  0  0  0
 26 28  1  0  0  0  0
 28 29  1  0  0  0  0
 30 28  2  0  0  0  0
 30 31  1  0  0  0  0
 32 17  1  0  0  0  0
 32 33  1  0  0  0  0
 33 34  1  0  0  0  0
 35 33  2  0  0  0  0
 35 36  1  0  0  0  0
 37 35  1  0  0  0  0
 38 37  1  0  0  0  0
 39 41  1  0  0  0  0
 39 37  2  0  0  0  0
 40 39  1  0  0  0  0
 41 32  2  0  0  0  0
 42 41  1  0  0  0  0
M  END
