5
q = -1.0, confidence = 0.0

 14 13  0  0  0  0  0  0  0  0999 V2000
   -0.1463    0.1922   -2.8367 O   0  0  0  0  0  0  0  0  0  0  0  0
   -0.3217   -1.9373   -3.3062 O   0  0  0  0  0  0  0  0  0  0  0  0
    0.0050   -3.5879   -1.2521 O   0  0  0  0  0  0  0  0  0  0  0  0
    0.0919   -2.4210    0.7114 O   0  0  0  0  0  0  0  0  0  0  0  0
   -0.0629   -1.2250   -1.1518 N   0  0  0  0  0  2  0  0  0  0  0  0
   -0.1879   -1.0138   -2.5160 N   0  0  0  0  0  0  0  0  0  0  0  0
    0.0090   -2.5247   -0.6626 C   0  0  0  0  0  0  0  0  0  0  0  0
    0.1334   -3.6681    1.4242 C   0  0  0  0  0  0  0  0  0  0  0  0
    0.7392   -4.3940    0.8440 H   0  0  0  0  0  0  0  0  0  0  0  0
    0.6617   -3.4332    2.3707 H   0  0  0  0  0  0  0  0  0  0  0  0
   -1.2649   -4.2066    1.6860 C   0  0  0  0  0  0  0  0  0  0  0  0
   -1.2150   -5.1258    2.3045 H   0  0  0  0  0  0  0  0  0  0  0  0
   -1.7594   -4.4666    0.7294 H   0  0  0  0  0  0  0  0  0  0  0  0
   -1.8848   -3.4590    2.2211 H   0  0  0  0  0  0  0  0  0  0  0  0
  1  6  2  0  0  0  0
  2  6  2  0  0  0  0
  3  7  2  0  0  0  0
  4  8  1  0  0  0  0
  5  7  1  0  0  0  0
  6  5  1  0  0  0  0
  7  4  1  0  0  0  0
  8 11  1  0  0  0  0
  8 10  1  0  0  0  0
  9  8  1  0  0  0  0
 11 14  1  0  0  0  0
 11 12  1  0  0  0  0
 13 11  1  0  0  0  0
M  END
