1,2,8,12
q = -1.0

 19 18  0  0  1  0  0  0  0  0999 V2000
    0.7868    0.2210   -2.1884 S   0  0  0  0  0  1  0  0  0  0  0  0
    2.0246    0.3617    0.3883 N   0  0  0  0  0  0  0  0  0  0  0  0
    2.4124    1.5070   -0.3992 N   0  0  0  0  0  2  0  0  0  0  0  0
    1.9505    1.4212   -1.6315 C   0  0  2  0  0  3  0  0  0  0  0  0
    2.3699    2.3497   -2.5423 N   0  0  0  0  0  0  0  0  0  0  0  0
    1.9543    0.7248    1.8289 C   0  0  0  0  0  0  0  0  0  0  0  0
    0.9083   -0.1187    2.5893 C   0  0  0  0  0  0  0  0  0  0  0  0
    0.0039   -0.6789    1.8227 O   0  5  0  0  0  0  0  0  0  0  0  0
    0.9248   -0.1763    3.8108 O   0  0  0  0  0  0  0  0  0  0  0  0
    3.0049   -0.7566    0.1629 C   0  0  0  0  0  0  0  0  0  0  0  0
    2.3365   -2.1280    0.0384 C   0  0  0  0  0  0  0  0  0  0  0  0
    1.0512   -2.0541   -0.2009 O   0  5  0  0  0  0  0  0  0  0  0  0
    2.9855   -3.1625    0.0823 O   0  0  0  0  0  0  0  0  0  0  0  0
    3.2421    2.8441   -2.3530 H   0  0  0  0  0  0  0  0  0  0  0  0
    2.0673    2.2520   -3.5089 H   0  0  0  0  0  0  0  0  0  0  0  0
    2.9481    0.6396    2.3109 H   0  0  0  0  0  0  0  0  0  0  0  0
    1.6488    1.7854    1.8973 H   0  0  0  0  0  0  0  0  0  0  0  0
    3.5104   -0.5636   -0.8018 H   0  0  0  0  0  0  0  0  0  0  0  0
    3.7766   -0.7595    0.9569 H   0  0  0  0  0  0  0  0  0  0  0  0
  2  6  1  0  0  0  0
  3  2  1  0  0  0  0
  4  1  1  1  0  0  0
  4  3  1  0  0  0  0
  5 14  1  0  0  0  0
  5  4  1  0  0  0  0
  6 17  1  0  0  0  0
  6 16  1  0  0  0  0
  6  7  1  0  0  0  0
  7  9  2  0  0  0  0
  8  7  1  0  0  0  0
 10  2  1  0  0  0  0
 10 19  1  0  0  0  0
 11 13  2  0  0  0  0
 11 10  1  0  0  0  0
 12 11  1  0  0  0  0
 15  5  1  0  0  0  0
 18 10  1  0  0  0  0
M  CHG  2   8  -1  12  -1
M  END
