1,2,3,4
q = -1.0, confidence = 0.16

 70 72  0  0  0  0  0  0  0  0999 V2000
   -0.8361   -1.8727   -0.4189 S   0  0  0  0  0  1  0  0  0  0  0  0
   -1.0218    1.8041   -0.3108 S   0  0  0  0  0  1  0  0  0  0  0  0
    2.1654    0.1384   -1.4429 S   0  0  0  0  0  1  0  0  0  0  0  0
    0.8008    0.0047    1.1849 P   0  0  0  0  0  0  0  0  0  0  0  0
   -2.0884   -4.7717    0.7331 Si  0  0  0  0  0  0  0  0  0  0  0  0
   -2.7633    4.3252    1.0601 Si  0  0  0  0  0  0  0  0  0  0  0  0
    5.5009    0.3882   -1.8379 Si  0  0  0  0  0  0  0  0  0  0  0  0
    0.3652   -1.5709    2.0499 C   0  0  0  0  0  0  0  0  0  0  0  0
   -0.4567   -2.4054    1.2550 C   0  0  0  0  0  0  0  0  0  0  0  0
   -0.9500   -3.6409    1.7598 C   0  0  0  0  0  0  0  0  0  0  0  0
   -0.5642   -4.0063    3.0688 C   0  0  0  0  0  0  0  0  0  0  0  0
   -0.9270   -4.9564    3.4930 H   0  0  0  0  0  0  0  0  0  0  0  0
    0.2790   -3.1986    3.8513 C   0  0  0  0  0  0  0  0  0  0  0  0
    0.5702   -3.5200    4.8635 H   0  0  0  0  0  0  0  0  0  0  0  0
    0.7433   -1.9769    3.3385 C   0  0  0  0  0  0  0  0  0  0  0  0
    1.4067   -1.3450    3.9490 H   0  0  0  0  0  0  0  0  0  0  0  0
   -2.5523   -6.2728    1.8085 C   0  0  0  0  0  0  0  0  0  0  0  0
   -3.0878   -5.9703    2.7322 H   0  0  0  0  0  0  0  0  0  0  0  0
   -1.6594   -6.8613    2.1050 H   0  0  0  0  0  0  0  0  0  0  0  0
   -3.2235   -6.9471    1.2366 H   0  0  0  0  0  0  0  0  0  0  0  0
   -1.1935   -5.4098   -0.8088 C   0  0  0  0  0  0  0  0  0  0  0  0
   -1.8583   -6.0703   -1.4040 H   0  0  0  0  0  0  0  0  0  0  0  0
   -0.2886   -5.9868   -0.5276 H   0  0  0  0  0  0  0  0  0  0  0  0
   -0.8774   -4.5588   -1.4443 H   0  0  0  0  0  0  0  0  0  0  0  0
   -3.6885   -3.8763    0.2594 C   0  0  0  0  0  0  0  0  0  0  0  0
   -3.4720   -3.0046   -0.3899 H   0  0  0  0  0  0  0  0  0  0  0  0
   -4.2156   -3.5104    1.1645 H   0  0  0  0  0  0  0  0  0  0  0  0
   -4.3705   -4.5615   -0.2866 H   0  0  0  0  0  0  0  0  0  0  0  0
    0.0366    1.3477    2.2002 C   0  0  0  0  0  0  0  0  0  0  0  0
   -0.8302    2.1672    1.4374 C   0  0  0  0  0  0  0  0  0  0  0  0
   -1.5462    3.2376    2.0432 C   0  0  0  0  0  0  0  0  0  0  0  0
   -1.3443    3.4525    3.4247 C   0  0  0  0  0  0  0  0  0  0  0  0
   -1.8838    4.2710    3.9281 H   0  0  0  0  0  0  0  0  0  0  0  0
   -0.4799    2.6479    4.1869 C   0  0  0  0  0  0  0  0  0  0  0  0
   -0.3521    2.8384    5.2640 H   0  0  0  0  0  0  0  0  0  0  0  0
    0.2080    1.5900    3.5717 C   0  0  0  0  0  0  0  0  0  0  0  0
    0.8669    0.9452    4.1734 H   0  0  0  0  0  0  0  0  0  0  0  0
   -3.5143    5.5982    2.2605 C   0  0  0  0  0  0  0  0  0  0  0  0
   -2.7388    6.2542    2.7075 H   0  0  0  0  0  0  0  0  0  0  0  0
   -4.0702    5.1090    3.0869 H   0  0  0  0  0  0  0  0  0  0  0  0
   -4.2293    6.2482    1.7139 H   0  0  0  0  0  0  0  0  0  0  0  0
   -1.8679    5.2744   -0.3122 C   0  0  0  0  0  0  0  0  0  0  0  0
   -1.3850    4.5654   -1.0136 H   0  0  0  0  0  0  0  0  0  0  0  0
   -1.0816    5.9315    0.1130 H   0  0  0  0  0  0  0  0  0  0  0  0
   -2.5811    5.9065   -0.8817 H   0  0  0  0  0  0  0  0  0  0  0  0
   -4.1791    3.2866    0.3512 C   0  0  0  0  0  0  0  0  0  0  0  0
   -4.9150    3.9355   -0.1685 H   0  0  0  0  0  0  0  0  0  0  0  0
   -4.7077    2.7429    1.1611 H   0  0  0  0  0  0  0  0  0  0  0  0
   -3.7969    2.5396   -0.3730 H   0  0  0  0  0  0  0  0  0  0  0  0
    2.6265    0.1968    1.2782 C   0  0  0  0  0  0  0  0  0  0  0  0
    3.2268    0.2284   -0.0075 C   0  0  0  0  0  0  0  0  0  0  0  0
    4.6413    0.3491   -0.1407 C   0  0  0  0  0  0  0  0  0  0  0  0
    5.4027    0.4464    1.0439 C   0  0  0  0  0  0  0  0  0  0  0  0
    6.4982    0.5422    0.9734 H   0  0  0  0  0  0  0  0  0  0  0  0
    4.8100    0.4333    2.3195 C   0  0  0  0  0  0  0  0  0  0  0  0
    5.4341    0.5224    3.2223 H   0  0  0  0  0  0  0  0  0  0  0  0
    3.4176    0.3083    2.4329 C   0  0  0  0  0  0  0  0  0  0  0  0
    2.9496    0.3081    3.4294 H   0  0  0  0  0  0  0  0  0  0  0  0
    4.9439    1.8933   -2.8431 C   0  0  0  0  0  0  0  0  0  0  0  0
    3.8460    1.8657   -2.9908 H   0  0  0  0  0  0  0  0  0  0  0  0
    5.4385    1.9097   -3.8370 H   0  0  0  0  0  0  0  0  0  0  0  0
    5.1974    2.8336   -2.3116 H   0  0  0  0  0  0  0  0  0  0  0  0
    7.3779    0.5364   -1.5531 C   0  0  0  0  0  0  0  0  0  0  0  0
    7.9019    0.5544   -2.5317 H   0  0  0  0  0  0  0  0  0  0  0  0
    7.7777   -0.3216   -0.9740 H   0  0  0  0  0  0  0  0  0  0  0  0
    7.6425    1.4695   -1.0139 H   0  0  0  0  0  0  0  0  0  0  0  0
    5.1814   -1.2168   -2.7909 C   0  0  0  0  0  0  0  0  0  0  0  0
    4.0921   -1.3638   -2.9314 H   0  0  0  0  0  0  0  0  0  0  0  0
    5.5787   -2.0891   -2.2322 H   0  0  0  0  0  0  0  0  0  0  0  0
    5.6698   -1.1887   -3.7875 H   0  0  0  0  0  0  0  0  0  0  0  0
  1  9  1  0  0  0  0
  2 30  1  0  0  0  0
  3 51  1  0  0  0  0
  4 50  1  0  0  0  0
  4  8  1  0  0  0  0
  4 29  1  0  0  0  0
  5 10  1  0  0  0  0
  5 17  1  0  0  0  0
  6 31  1  0  0  0  0
  6 38  1  0  0  0  0
  7 63  1  0  0  0  0
  7 52  1  0  0  0  0
  8 15  1  0  0  0  0
  9 10  1  0  0  0  0
  9  8  2  0  0  0  0
 10 11  2  0  0  0  0
 11 12  1  0  0  0  0
 11 13  1  0  0  0  0
 13 14  1  0  0  0  0
 15 13  2  0  0  0  0
 15 16  1  0  0  0  0
 17 19  1  0  0  0  0
 17 18  1  0  0  0  0
 20 17  1  0  0  0  0
 21 23  1  0  0  0  0
 21  5  1  0  0  0  0
 22 21  1  0  0  0  0
 24 21  1  0  0  0  0
 25  5  1  0  0  0  0
 25 27  1  0  0  0  0
 26 25  1  0  0  0  0
 28 25  1  0  0  0  0
 29 36  1  0  0  0  0
 30 31  1  0  0  0  0
 30 29  2  0  0  0  0
 31 32  2  0  0  0  0
 32 33  1  0  0  0  0
 32 34  1  0  0  0  0
 34 35  1  0  0  0  0
 36 37  1  0  0  0  0
 36 34  2  0  0  0  0
 38 39  1  0  0  0  0
 38 40  1  0  0  0  0
 41 38  1  0  0  0  0
 42 44  1  0  0  0  0
 42  6  1  0  0  0  0
 43 42  1  0  0  0  0
 45 42  1  0  0  0  0
 46  6  1  0  0  0  0
 46 48  1  0  0  0  0
 47 46  1  0  0  0  0
 49 46  1  0  0  0  0
 50 57  1  0  0  0  0
 51 50  2  0  0  0  0
 52 51  1  0  0  0  0
 52 53  2  0  0  0  0
 53 55  1  0  0  0  0
 54 53  1  0  0  0  0
 55 57  2  0  0  0  0
 55 56  1  0  0  0  0
 57 58  1  0  0  0  0
 59 62  1  0  0  0  0
 59  7  1  0  0  0  0
 60 59  1  0  0  0  0
 61 59  1  0  0  0  0
 63 66  1  0  0  0  0
 63 65  1  0  0  0  0
 64 63  1  0  0  0  0
 67 69  1  0  0  0  0
 67  7  1  0  0  0  0
 68 67  1  0  0  0  0
 70 67  1  0  0  0  0
M  END
