1,2,3
q = -1.0, confidence = 0.0

 61 65  0  0  0  0  0  0  0  0999 V2000
    2.1258   -0.2549    0.0071 P   0  0  0  0  0  0  0  0  0  0  0  0
   -2.1630    0.1535   -0.3181 P   0  0  0  0  0  0  0  0  0  0  0  0
   -0.0125   -0.9414   -1.6242 C   0  0  0  0  0  3  0  0  0  0  0  0
   -1.1374   -0.9591   -2.5058 C   0  0  0  0  0  0  0  0  0  0  0  0
   -1.1273   -1.7259   -3.6845 C   0  0  0  0  0  0  0  0  0  0  0  0
   -2.0124   -1.7250   -4.3407 H   0  0  0  0  0  0  0  0  0  0  0  0
    0.0033   -2.4781   -4.0335 C   0  0  0  0  0  0  0  0  0  0  0  0
    0.0103   -3.0695   -4.9616 H   0  0  0  0  0  0  0  0  0  0  0  0
    1.1249   -2.4713   -3.1924 C   0  0  0  0  0  0  0  0  0  0  0  0
    2.0168   -3.0601   -3.4607 H   0  0  0  0  0  0  0  0  0  0  0  0
    1.1190   -1.7271   -1.9987 C   0  0  0  0  0  0  0  0  0  0  0  0
    2.3013   -1.7616   -1.0611 C   0  0  0  0  0  0  0  0  0  0  0  0
    3.2750   -1.8180   -1.5895 H   0  0  0  0  0  0  0  0  0  0  0  0
    2.2421   -2.6384   -0.3791 H   0  0  0  0  0  0  0  0  0  0  0  0
    3.1339    1.0623   -0.7897 C   0  0  0  0  0  0  0  0  0  0  0  0
    4.4432    0.8177   -1.2499 C   0  0  0  0  0  0  0  0  0  0  0  0
    4.8981   -0.1782   -1.1302 H   0  0  0  0  0  0  0  0  0  0  0  0
    5.1790    1.8470   -1.8534 C   0  0  0  0  0  0  0  0  0  0  0  0
    6.2000    1.6505   -2.2150 H   0  0  0  0  0  0  0  0  0  0  0  0
    4.6156    3.1270   -1.9913 C   0  0  0  0  0  0  0  0  0  0  0  0
    5.1955    3.9341   -2.4646 H   0  0  0  0  0  0  0  0  0  0  0  0
    3.3177    3.3760   -1.5198 C   0  0  0  0  0  0  0  0  0  0  0  0
    2.8772    4.3800   -1.6178 H   0  0  0  0  0  0  0  0  0  0  0  0
    2.5730    2.3479   -0.9212 C   0  0  0  0  0  0  0  0  0  0  0  0
    1.5629    2.5353   -0.5230 H   0  0  0  0  0  0  0  0  0  0  0  0
    3.0604   -0.6459    1.5419 C   0  0  0  0  0  0  0  0  0  0  0  0
    4.0833   -1.6186    1.5479 C   0  0  0  0  0  0  0  0  0  0  0  0
    4.3258   -2.1834    0.6352 H   0  0  0  0  0  0  0  0  0  0  0  0
    4.8068   -1.8755    2.7224 C   0  0  0  0  0  0  0  0  0  0  0  0
    5.6024   -2.6363    2.7171 H   0  0  0  0  0  0  0  0  0  0  0  0
    4.5157   -1.1661    3.8981 C   0  0  0  0  0  0  0  0  0  0  0  0
    5.0831   -1.3702    4.8191 H   0  0  0  0  0  0  0  0  0  0  0  0
    3.4975   -0.1994    3.8954 C   0  0  0  0  0  0  0  0  0  0  0  0
    3.2618    0.3561    4.8161 H   0  0  0  0  0  0  0  0  0  0  0  0
    2.7696    0.0637    2.7258 C   0  0  0  0  0  0  0  0  0  0  0  0
    1.9594    0.8117    2.7157 H   0  0  0  0  0  0  0  0  0  0  0  0
   -2.3298   -0.1043   -2.1457 C   0  0  0  0  0  0  0  0  0  0  0  0
   -3.3036   -0.5480   -2.4378 H   0  0  0  0  0  0  0  0  0  0  0  0
   -2.2512    0.9000   -2.6176 H   0  0  0  0  0  0  0  0  0  0  0  0
   -3.2870    1.5161    0.1443 C   0  0  0  0  0  0  0  0  0  0  0  0
   -4.1307    2.1519   -0.7896 C   0  0  0  0  0  0  0  0  0  0  0  0
   -4.1320    1.8397   -1.8442 H   0  0  0  0  0  0  0  0  0  0  0  0
   -4.9864    3.1866   -0.3797 C   0  0  0  0  0  0  0  0  0  0  0  0
   -5.6434    3.6742   -1.1158 H   0  0  0  0  0  0  0  0  0  0  0  0
   -5.0051    3.5942    0.9628 C   0  0  0  0  0  0  0  0  0  0  0  0
   -5.6757    4.4063    1.2827 H   0  0  0  0  0  0  0  0  0  0  0  0
   -4.1642    2.9660    1.8963 C   0  0  0  0  0  0  0  0  0  0  0  0
   -4.1694    3.2884    2.9486 H   0  0  0  0  0  0  0  0  0  0  0  0
   -3.3063    1.9340    1.4938 C   0  0  0  0  0  0  0  0  0  0  0  0
   -2.6258    1.4624    2.2171 H   0  0  0  0  0  0  0  0  0  0  0  0
   -2.9364   -1.3321    0.4408 C   0  0  0  0  0  0  0  0  0  0  0  0
   -4.3255   -1.4123    0.6677 C   0  0  0  0  0  0  0  0  0  0  0  0
   -4.9719   -0.5543    0.4266 H   0  0  0  0  0  0  0  0  0  0  0  0
   -4.8801   -2.5814    1.2087 C   0  0  0  0  0  0  0  0  0  0  0  0
   -5.9650   -2.6395    1.3857 H   0  0  0  0  0  0  0  0  0  0  0  0
   -4.0548   -3.6726    1.5277 C   0  0  0  0  0  0  0  0  0  0  0  0
   -4.4934   -4.5873    1.9552 H   0  0  0  0  0  0  0  0  0  0  0  0
   -2.6704   -3.5925    1.3090 C   0  0  0  0  0  0  0  0  0  0  0  0
   -2.0200   -4.4426    1.5652 H   0  0  0  0  0  0  0  0  0  0  0  0
   -2.1097   -2.4247    0.7721 C   0  0  0  0  0  0  0  0  0  0  0  0
   -1.0250   -2.3403    0.6015 H   0  0  0  0  0  0  0  0  0  0  0  0
  1 26  1  0  0  0  0
  2 40  1  0  0  0  0
  2 51  1  0  0  0  0
  4 37  1  0  0  0  0
  4  3  2  0  0  0  0
  5  4  1  0  0  0  0
  6  5  1  0  0  0  0
  7  5  2  0  0  0  0
  7  9  1  0  0  0  0
  8  7  1  0  0  0  0
  9 11  2  0  0  0  0
 10  9  1  0  0  0  0
 11  3  1  0  0  0  0
 11 12  1  0  0  0  0
 12 14  1  0  0  0  0
 12  1  1  0  0  0  0
 13 12  1  0  0  0  0
 15  1  1  0  0  0  0
 16 17  1  0  0  0  0
 16 15  2  0  0  0  0
 18 16  1  0  0  0  0
 19 18  1  0  0  0  0
 20 18  2  0  0  0  0
 20 22  1  0  0  0  0
 21 20  1  0  0  0  0
 22 24  2  0  0  0  0
 23 22  1  0  0  0  0
 24 15  1  0  0  0  0
 24 25  1  0  0  0  0
 26 27  2  0  0  0  0
 26 35  1  0  0  0  0
 27 29  1  0  0  0  0
 28 27  1  0  0  0  0
 29 31  2  0  0  0  0
 30 29  1  0  0  0  0
 31 32  1  0  0  0  0
 33 31  1  0  0  0  0
 33 34  1  0  0  0  0
 35 33  2  0  0  0  0
 36 35  1  0  0  0  0
 37  2  1  0  0  0  0
 38 37  1  0  0  0  0
 39 37  1  0  0  0  0
 40 49  1  0  0  0  0
 41 43  1  0  0  0  0
 41 40  2  0  0  0  0
 42 41  1  0  0  0  0
 43 45  2  0  0  0  0
 44 43  1  0  0  0  0
 45 46  1  0  0  0  0
 45 47  1  0  0  0  0
 47 48  1  0  0  0  0
 49 47  2  0  0  0  0
 49 50  1  0  0  0  0
 51 52  2  0  0  0  0
 51 60  1  0  0  0  0
 52 54  1  0  0  0  0
 53 52  1  0  0  0  0
 54 55  1  0  0  0  0
 54 56  2  0  0  0  0
 56 57  1  0  0  0  0
 58 56  1  0  0  0  0
 58 59  1  0  0  0  0
 60 58  2  0  0  0  0
 61 60  1  0  0  0  0
M  END
