1,2,4
q = -1.0, confidence = 0.006

 64 65  0  0  0  0  0  0  0  0999 V2000
    2.3296   -0.2000   -0.1141 P   0  0  0  0  0  0  0  0  0  0  0  0
   -0.2600   -1.3516   -0.7722 C   0  0  0  0  0  3  0  0  0  0  0  0
    0.1887   -1.2521   -1.7864 H   0  0  0  0  0  0  0  0  0  0  0  0
   -2.1690    0.5949    0.3468 P   0  0  0  0  0  0  0  0  0  0  0  0
    1.9583   -1.9619    0.2427 C   0  0  0  0  0  0  0  0  0  0  0  0
    0.6007   -2.3210    0.0136 C   0  0  0  0  0  0  0  0  0  0  0  0
    0.1540   -3.5683    0.4900 C   0  0  0  0  0  0  0  0  0  0  0  0
   -0.8993   -3.8562    0.3631 H   0  0  0  0  0  0  0  0  0  0  0  0
    1.0418   -4.4549    1.1231 C   0  0  0  0  0  0  0  0  0  0  0  0
    0.6688   -5.4223    1.4919 H   0  0  0  0  0  0  0  0  0  0  0  0
    2.3923   -4.1175    1.2871 C   0  0  0  0  0  0  0  0  0  0  0  0
    3.0854   -4.8150    1.7797 H   0  0  0  0  0  0  0  0  0  0  0  0
    2.8485   -2.8617    0.8512 C   0  0  0  0  0  0  0  0  0  0  0  0
    3.8958   -2.5752    1.0304 H   0  0  0  0  0  0  0  0  0  0  0  0
   -2.7537   -0.9181   -0.4875 C   0  0  0  0  0  0  0  0  0  0  0  0
   -1.7129   -1.7368   -0.9739 C   0  0  0  0  0  0  0  0  0  0  0  0
   -2.0562   -2.8944   -1.7057 C   0  0  0  0  0  0  0  0  0  0  0  0
   -1.2594   -3.5292   -2.1230 H   0  0  0  0  0  0  0  0  0  0  0  0
   -3.3996   -3.2316   -1.9221 C   0  0  0  0  0  0  0  0  0  0  0  0
   -3.6482   -4.1331   -2.5020 H   0  0  0  0  0  0  0  0  0  0  0  0
   -4.4278   -2.4167   -1.4182 C   0  0  0  0  0  0  0  0  0  0  0  0
   -5.4809   -2.6795   -1.5963 H   0  0  0  0  0  0  0  0  0  0  0  0
   -4.1056   -1.2545   -0.7057 C   0  0  0  0  0  0  0  0  0  0  0  0
   -4.9113   -0.6017   -0.3377 H   0  0  0  0  0  0  0  0  0  0  0  0
    3.3393    0.3782    1.3515 C   0  0  0  0  0  0  0  0  0  0  0  0
    4.1832   -0.3414    1.4331 H   0  0  0  0  0  0  0  0  0  0  0  0
    3.4605   -0.1299   -1.6054 C   0  0  0  0  0  0  0  0  0  0  0  0
    3.6844    0.9549   -1.7104 H   0  0  0  0  0  0  0  0  0  0  0  0
    3.9035    1.7849    1.1230 C   0  0  0  0  0  0  0  0  0  0  0  0
    4.5666    1.8404    0.2372 H   0  0  0  0  0  0  0  0  0  0  0  0
    4.5053    2.0934    2.0021 H   0  0  0  0  0  0  0  0  0  0  0  0
    3.0840    2.5194    0.9958 H   0  0  0  0  0  0  0  0  0  0  0  0
    2.4924    0.2897    2.6266 C   0  0  0  0  0  0  0  0  0  0  0  0
    2.1014   -0.7328    2.7957 H   0  0  0  0  0  0  0  0  0  0  0  0
    1.6282    0.9837    2.5761 H   0  0  0  0  0  0  0  0  0  0  0  0
    3.1027    0.5712    3.5086 H   0  0  0  0  0  0  0  0  0  0  0  0
    4.7692   -0.9023   -1.4141 C   0  0  0  0  0  0  0  0  0  0  0  0
    4.5783   -1.9873   -1.2901 H   0  0  0  0  0  0  0  0  0  0  0  0
    5.3527   -0.5485   -0.5414 H   0  0  0  0  0  0  0  0  0  0  0  0
    5.4111   -0.7810   -2.3106 H   0  0  0  0  0  0  0  0  0  0  0  0
    2.6921   -0.5902   -2.8500 C   0  0  0  0  0  0  0  0  0  0  0  0
    3.3295   -0.4894   -3.7515 H   0  0  0  0  0  0  0  0  0  0  0  0
    1.7740    0.0089   -3.0147 H   0  0  0  0  0  0  0  0  0  0  0  0
    2.4012   -1.6582   -2.7684 H   0  0  0  0  0  0  0  0  0  0  0  0
   -2.4909    0.3642    2.1808 C   0  0  0  0  0  0  0  0  0  0  0  0
   -2.1218    1.3123    2.6338 H   0  0  0  0  0  0  0  0  0  0  0  0
   -3.2895    1.9698   -0.2377 C   0  0  0  0  0  0  0  0  0  0  0  0
   -4.3281    1.6079   -0.0739 H   0  0  0  0  0  0  0  0  0  0  0  0
   -1.6297   -0.7947    2.6991 C   0  0  0  0  0  0  0  0  0  0  0  0
   -1.9330   -1.7559    2.2363 H   0  0  0  0  0  0  0  0  0  0  0  0
   -1.7500   -0.8966    3.7965 H   0  0  0  0  0  0  0  0  0  0  0  0
   -0.5546   -0.6419    2.4767 H   0  0  0  0  0  0  0  0  0  0  0  0
   -3.9728    0.1842    2.5237 C   0  0  0  0  0  0  0  0  0  0  0  0
   -4.3734   -0.7499    2.0814 H   0  0  0  0  0  0  0  0  0  0  0  0
   -4.6023    1.0295    2.1822 H   0  0  0  0  0  0  0  0  0  0  0  0
   -4.0951    0.1056    3.6234 H   0  0  0  0  0  0  0  0  0  0  0  0
   -3.0787    3.2443    0.5868 C   0  0  0  0  0  0  0  0  0  0  0  0
   -2.0274    3.5925    0.5234 H   0  0  0  0  0  0  0  0  0  0  0  0
   -3.3334    3.1088    1.6561 H   0  0  0  0  0  0  0  0  0  0  0  0
   -3.7171    4.0621    0.1955 H   0  0  0  0  0  0  0  0  0  0  0  0
   -3.0706    2.1877   -1.7395 C   0  0  0  0  0  0  0  0  0  0  0  0
   -2.0291    2.5092   -1.9494 H   0  0  0  0  0  0  0  0  0  0  0  0
   -3.7544    2.9743   -2.1178 H   0  0  0  0  0  0  0  0  0  0  0  0
   -3.2599    1.2639   -2.3209 H   0  0  0  0  0  0  0  0  0  0  0  0
  1  5  1  0  0  0  0
  1 25  1  0  0  0  0
  2  6  1  0  0  0  0
  3  2  1  0  0  0  0
  4 45  1  0  0  0  0
  5 13  1  0  0  0  0
  6  5  2  0  0  0  0
  6  7  1  0  0  0  0
  7  9  2  0  0  0  0
  8  7  1  0  0  0  0
  9 11  1  0  0  0  0
  9 10  1  0  0  0  0
 11 12  1  0  0  0  0
 13 14  1  0  0  0  0
 13 11  2  0  0  0  0
 15  4  1  0  0  0  0
 16  2  1  0  0  0  0
 16 15  2  0  0  0  0
 17 16  1  0  0  0  0
 18 17  1  0  0  0  0
 19 17  2  0  0  0  0
 19 21  1  0  0  0  0
 20 19  1  0  0  0  0
 21 23  2  0  0  0  0
 22 21  1  0  0  0  0
 23 15  1  0  0  0  0
 23 24  1  0  0  0  0
 25 26  1  0  0  0  0
 25 33  1  0  0  0  0
 27 37  1  0  0  0  0
 27  1  1  0  0  0  0
 28 27  1  0  0  0  0
 29 25  1  0  0  0  0
 29 31  1  0  0  0  0
 30 29  1  0  0  0  0
 32 29  1  0  0  0  0
 33 34  1  0  0  0  0
 33 36  1  0  0  0  0
 35 33  1  0  0  0  0
 37 38  1  0  0  0  0
 37 39  1  0  0  0  0
 40 37  1  0  0  0  0
 41 44  1  0  0  0  0
 41 27  1  0  0  0  0
 42 41  1  0  0  0  0
 43 41  1  0  0  0  0
 45 53  1  0  0  0  0
 45 46  1  0  0  0  0
 45 49  1  0  0  0  0
 47 48  1  0  0  0  0
 47  4  1  0  0  0  0
 47 57  1  0  0  0  0
 49 51  1  0  0  0  0
 50 49  1  0  0  0  0
 52 49  1  0  0  0  0
 53 56  1  0  0  0  0
 54 53  1  0  0  0  0
 55 53  1  0  0  0  0
 57 59  1  0  0  0  0
 58 57  1  0  0  0  0
 60 57  1  0  0  0  0
 61 47  1  0  0  0  0
 62 61  1  0  0  0  0
 63 61  1  0  0  0  0
 64 61  1  0  0  0  0
M  END
