1,2,6
q = -1.0, confidence = 0.0

 53 53  0  0  0  0  0  0  0  0999 V2000
   -2.1390    0.2114    0.1147 P   0  0  0  0  0  0  0  0  0  0  0  0
    2.1417   -0.3049   -0.0726 P   0  0  0  0  0  0  0  0  0  0  0  0
   -2.1820    1.9003    0.0813 O   0  0  0  0  0  0  0  0  0  0  0  0
    2.5819    1.3267   -0.1238 O   0  0  0  0  0  0  0  0  0  0  0  0
    0.6861    5.6783   -0.1039 F   0  0  0  0  0  0  0  0  0  0  0  0
    0.1928    1.5507   -0.0187 C   0  0  0  0  0  3  0  0  0  0  0  0
   -0.9111    2.4396    0.0158 C   0  0  0  0  0  0  0  0  0  0  0  0
   -0.7741    3.8323   -0.0113 C   0  0  0  0  0  0  0  0  0  0  0  0
   -1.6462    4.4974    0.0179 H   0  0  0  0  0  0  0  0  0  0  0  0
    0.5275    4.3505   -0.0763 C   0  0  0  0  0  0  0  0  0  0  0  0
    1.6699    3.5379   -0.1140 C   0  0  0  0  0  0  0  0  0  0  0  0
    2.6740    3.9771   -0.1658 H   0  0  0  0  0  0  0  0  0  0  0  0
    1.4753    2.1520   -0.0841 C   0  0  0  0  0  0  0  0  0  0  0  0
   -3.2311   -0.2155   -1.3228 C   0  0  0  0  0  0  0  0  0  0  0  0
   -3.3305   -1.3242   -1.2659 H   0  0  0  0  0  0  0  0  0  0  0  0
   -2.5019    0.1678   -2.6197 C   0  0  0  0  0  0  0  0  0  0  0  0
   -3.0890   -0.1501   -3.5042 H   0  0  0  0  0  0  0  0  0  0  0  0
   -1.4895   -0.2856   -2.6856 H   0  0  0  0  0  0  0  0  0  0  0  0
   -2.3612    1.2655   -2.6819 H   0  0  0  0  0  0  0  0  0  0  0  0
   -4.6185    0.4287   -1.2165 C   0  0  0  0  0  0  0  0  0  0  0  0
   -5.2150    0.1874   -2.1194 H   0  0  0  0  0  0  0  0  0  0  0  0
   -4.5329    1.5313   -1.1494 H   0  0  0  0  0  0  0  0  0  0  0  0
   -5.1871    0.0689   -0.3370 H   0  0  0  0  0  0  0  0  0  0  0  0
   -3.0584   -0.1568    1.6764 C   0  0  0  0  0  0  0  0  0  0  0  0
   -3.9702    0.4778    1.6212 H   0  0  0  0  0  0  0  0  0  0  0  0
   -3.4578   -1.6363    1.7450 C   0  0  0  0  0  0  0  0  0  0  0  0
   -3.9825   -1.8359    2.7008 H   0  0  0  0  0  0  0  0  0  0  0  0
   -2.5700   -2.3006    1.7120 H   0  0  0  0  0  0  0  0  0  0  0  0
   -4.1443   -1.9316    0.9268 H   0  0  0  0  0  0  0  0  0  0  0  0
   -2.2080    0.2935    2.8715 C   0  0  0  0  0  0  0  0  0  0  0  0
   -2.7837    0.1770    3.8115 H   0  0  0  0  0  0  0  0  0  0  0  0
   -1.9067    1.3556    2.7854 H   0  0  0  0  0  0  0  0  0  0  0  0
   -1.2856   -0.3176    2.9589 H   0  0  0  0  0  0  0  0  0  0  0  0
    3.0780   -0.9017    1.4105 C   0  0  0  0  0  0  0  0  0  0  0  0
    2.9000   -2.0012    1.4193 H   0  0  0  0  0  0  0  0  0  0  0  0
    2.4479   -0.2760    2.6641 C   0  0  0  0  0  0  0  0  0  0  0  0
    2.9415   -0.6662    3.5763 H   0  0  0  0  0  0  0  0  0  0  0  0
    1.3615   -0.4899    2.7360 H   0  0  0  0  0  0  0  0  0  0  0  0
    2.5673    0.8260    2.6580 H   0  0  0  0  0  0  0  0  0  0  0  0
    4.5821   -0.6227    1.3020 C   0  0  0  0  0  0  0  0  0  0  0  0
    5.0900   -0.9503    2.2316 H   0  0  0  0  0  0  0  0  0  0  0  0
    4.7721    0.4614    1.1751 H   0  0  0  0  0  0  0  0  0  0  0  0
    5.0558   -1.1618    0.4585 H   0  0  0  0  0  0  0  0  0  0  0  0
    2.9665   -0.9535   -1.5961 C   0  0  0  0  0  0  0  0  0  0  0  0
    4.0069   -0.5651   -1.5371 H   0  0  0  0  0  0  0  0  0  0  0  0
    2.9865   -2.4871   -1.6057 C   0  0  0  0  0  0  0  0  0  0  0  0
    3.4839   -2.8477   -2.5285 H   0  0  0  0  0  0  0  0  0  0  0  0
    1.9603   -2.9081   -1.5973 H   0  0  0  0  0  0  0  0  0  0  0  0
    3.5396   -2.9136   -0.7457 H   0  0  0  0  0  0  0  0  0  0  0  0
    2.2799   -0.3534   -2.8296 C   0  0  0  0  0  0  0  0  0  0  0  0
    2.8212   -0.6518   -3.7497 H   0  0  0  0  0  0  0  0  0  0  0  0
    2.2564    0.7529   -2.7902 H   0  0  0  0  0  0  0  0  0  0  0  0
    1.2330   -0.7124   -2.9186 H   0  0  0  0  0  0  0  0  0  0  0  0
  1 24  1  0  0  0  0
  2 34  1  0  0  0  0
  3  1  1  0  0  0  0
  4 13  1  0  0  0  0
  4  2  1  0  0  0  0
  5 10  1  0  0  0  0
  6  7  1  0  0  0  0
  7  3  1  0  0  0  0
  8  7  2  0  0  0  0
  8  9  1  0  0  0  0
 10  8  1  0  0  0  0
 11 13  1  0  0  0  0
 11 10  2  0  0  0  0
 12 11  1  0  0  0  0
 13  6  2  0  0  0  0
 14 15  1  0  0  0  0
 14 20  1  0  0  0  0
 14  1  1  0  0  0  0
 16 14  1  0  0  0  0
 17 16  1  0  0  0  0
 18 16  1  0  0  0  0
 19 16  1  0  0  0  0
 20 22  1  0  0  0  0
 20 23  1  0  0  0  0
 21 20  1  0  0  0  0
 24 26  1  0  0  0  0
 24 30  1  0  0  0  0
 25 24  1  0  0  0  0
 26 27  1  0  0  0  0
 28 26  1  0  0  0  0
 29 26  1  0  0  0  0
 30 33  1  0  0  0  0
 30 31  1  0  0  0  0
 32 30  1  0  0  0  0
 34 35  1  0  0  0  0
 34 36  1  0  0  0  0
 36 38  1  0  0  0  0
 36 37  1  0  0  0  0
 39 36  1  0  0  0  0
 40 34  1  0  0  0  0
 40 41  1  0  0  0  0
 42 40  1  0  0  0  0
 43 40  1  0  0  0  0
 44 45  1  0  0  0  0
 44  2  1  0  0  0  0
 46 48  1  0  0  0  0
 46 44  1  0  0  0  0
 46 49  1  0  0  0  0
 47 46  1  0  0  0  0
 50 52  1  0  0  0  0
 50 44  1  0  0  0  0
 51 50  1  0  0  0  0
 53 50  1  0  0  0  0
M  END
