1,2,4
q = -1.0, confidence = 0.016

 75 75  0  0  1  0  0  0  0  0999 V2000
    2.1948    0.0282   -0.0164 P   0  0  0  0  0  0  0  0  0  0  0  0
    0.0000    1.8057   -0.4799 C   0  0  0  0  0  3  0  0  0  0  0  0
    0.0000    1.7256   -1.6027 H   0  0  0  0  0  0  0  0  0  0  0  0
   -2.1948    0.0283   -0.0164 P   0  0  0  0  0  0  0  0  0  0  0  0
    1.2567    2.5974   -0.0684 C   0  0  2  0  0  0  0  0  0  0  0  0
    1.2168    2.7204    1.0360 H   0  0  0  0  0  0  0  0  0  0  0  0
    1.2629    4.0135   -0.6766 C   0  0  0  0  0  0  0  0  0  0  0  0
    2.1718    4.5656   -0.3523 H   0  0  0  0  0  0  0  0  0  0  0  0
    1.3288    3.9209   -1.7851 H   0  0  0  0  0  0  0  0  0  0  0  0
    0.0000    4.7939   -0.3017 C   0  0  0  0  0  0  0  0  0  0  0  0
    0.0000    5.7926   -0.7871 H   0  0  0  0  0  0  0  0  0  0  0  0
    0.0000    4.9811    0.7957 H   0  0  0  0  0  0  0  0  0  0  0  0
   -1.2628    4.0135   -0.6766 C   0  0  0  0  0  0  0  0  0  0  0  0
   -1.3288    3.9209   -1.7851 H   0  0  0  0  0  0  0  0  0  0  0  0
   -2.1717    4.5656   -0.3523 H   0  0  0  0  0  0  0  0  0  0  0  0
   -1.2567    2.5974   -0.0684 C   0  0  1  0  0  0  0  0  0  0  0  0
   -1.2167    2.7205    1.0360 H   0  0  0  0  0  0  0  0  0  0  0  0
    2.5146    1.8134   -0.4300 C   0  0  0  0  0  0  0  0  0  0  0  0
    3.4407    2.2148    0.0312 H   0  0  0  0  0  0  0  0  0  0  0  0
    2.6580    1.8581   -1.5304 H   0  0  0  0  0  0  0  0  0  0  0  0
   -2.5146    1.8134   -0.4300 C   0  0  0  0  0  0  0  0  0  0  0  0
   -2.6579    1.8582   -1.5304 H   0  0  0  0  0  0  0  0  0  0  0  0
   -3.4407    2.2149    0.0312 H   0  0  0  0  0  0  0  0  0  0  0  0
    2.9425   -0.2175    1.7284 C   0  0  0  0  0  0  0  0  0  0  0  0
    4.4683   -0.0427    1.7568 C   0  0  0  0  0  0  0  0  0  0  0  0
    4.7916    0.9291    1.3320 H   0  0  0  0  0  0  0  0  0  0  0  0
    4.9918   -0.8530    1.2144 H   0  0  0  0  0  0  0  0  0  0  0  0
    4.8186   -0.0736    2.8111 H   0  0  0  0  0  0  0  0  0  0  0  0
    2.5537   -1.6012    2.2767 C   0  0  0  0  0  0  0  0  0  0  0  0
    1.4557   -1.7401    2.2791 H   0  0  0  0  0  0  0  0  0  0  0  0
    2.9278   -1.6910    3.3192 H   0  0  0  0  0  0  0  0  0  0  0  0
    2.9834   -2.4314    1.6880 H   0  0  0  0  0  0  0  0  0  0  0  0
    2.2925    0.8502    2.6305 C   0  0  0  0  0  0  0  0  0  0  0  0
    1.1856    0.8177    2.5593 H   0  0  0  0  0  0  0  0  0  0  0  0
    2.6295    1.8759    2.3840 H   0  0  0  0  0  0  0  0  0  0  0  0
    2.5737    0.6514    3.6864 H   0  0  0  0  0  0  0  0  0  0  0  0
    3.2114   -0.9011   -1.3524 C   0  0  0  0  0  0  0  0  0  0  0  0
    4.5311   -0.1863   -1.6965 C   0  0  0  0  0  0  0  0  0  0  0  0
    4.3749    0.8335   -2.0976 H   0  0  0  0  0  0  0  0  0  0  0  0
    5.0525   -0.7688   -2.4862 H   0  0  0  0  0  0  0  0  0  0  0  0
    5.2172   -0.1158   -0.8322 H   0  0  0  0  0  0  0  0  0  0  0  0
    3.5100   -2.3526   -0.9420 C   0  0  0  0  0  0  0  0  0  0  0  0
    2.5864   -2.8851   -0.6426 H   0  0  0  0  0  0  0  0  0  0  0  0
    4.2460   -2.4095   -0.1162 H   0  0  0  0  0  0  0  0  0  0  0  0
    3.9516   -2.8855   -1.8114 H   0  0  0  0  0  0  0  0  0  0  0  0
    2.2953   -0.9089   -2.5934 C   0  0  0  0  0  0  0  0  0  0  0  0
    1.9981    0.1146   -2.9035 H   0  0  0  0  0  0  0  0  0  0  0  0
    1.3735   -1.4907   -2.3976 H   0  0  0  0  0  0  0  0  0  0  0  0
    2.8340   -1.3740   -3.4467 H   0  0  0  0  0  0  0  0  0  0  0  0
   -2.9425   -0.2175    1.7284 C   0  0  0  0  0  0  0  0  0  0  0  0
   -2.5537   -1.6012    2.2767 C   0  0  0  0  0  0  0  0  0  0  0  0
   -2.9833   -2.4314    1.6880 H   0  0  0  0  0  0  0  0  0  0  0  0
   -2.9277   -1.6910    3.3192 H   0  0  0  0  0  0  0  0  0  0  0  0
   -1.4557   -1.7400    2.2791 H   0  0  0  0  0  0  0  0  0  0  0  0
   -2.2925    0.8503    2.6305 C   0  0  0  0  0  0  0  0  0  0  0  0
   -2.6295    1.8759    2.3841 H   0  0  0  0  0  0  0  0  0  0  0  0
   -1.1857    0.8178    2.5593 H   0  0  0  0  0  0  0  0  0  0  0  0
   -2.5737    0.6514    3.6864 H   0  0  0  0  0  0  0  0  0  0  0  0
   -4.4683   -0.0427    1.7568 C   0  0  0  0  0  0  0  0  0  0  0  0
   -4.7916    0.9291    1.3320 H   0  0  0  0  0  0  0  0  0  0  0  0
   -4.8185   -0.0736    2.8111 H   0  0  0  0  0  0  0  0  0  0  0  0
   -4.9918   -0.8530    1.2144 H   0  0  0  0  0  0  0  0  0  0  0  0
   -3.2114   -0.9011   -1.3524 C   0  0  0  0  0  0  0  0  0  0  0  0
   -2.2952   -0.9089   -2.5934 C   0  0  0  0  0  0  0  0  0  0  0  0
   -1.3735   -1.4907   -2.3976 H   0  0  0  0  0  0  0  0  0  0  0  0
   -1.9981    0.1146   -2.9035 H   0  0  0  0  0  0  0  0  0  0  0  0
   -2.8340   -1.3739   -3.4467 H   0  0  0  0  0  0  0  0  0  0  0  0
   -3.5100   -2.3526   -0.9420 C   0  0  0  0  0  0  0  0  0  0  0  0
   -2.5864   -2.8850   -0.6426 H   0  0  0  0  0  0  0  0  0  0  0  0
   -3.9516   -2.8854   -1.8114 H   0  0  0  0  0  0  0  0  0  0  0  0
   -4.2460   -2.4095   -0.1162 H   0  0  0  0  0  0  0  0  0  0  0  0
   -4.5312   -0.1863   -1.6965 C   0  0  0  0  0  0  0  0  0  0  0  0
   -4.3749    0.8335   -2.0976 H   0  0  0  0  0  0  0  0  0  0  0  0
   -5.2172   -0.1158   -0.8322 H   0  0  0  0  0  0  0  0  0  0  0  0
   -5.0525   -0.7688   -2.4862 H   0  0  0  0  0  0  0  0  0  0  0  0
  1 24  1  0  0  0  0
  2  5  1  0  0  0  0
  2 16  1  0  0  0  0
  3  2  1  0  0  0  0
  4 50  1  0  0  0  0
  5  6  1  1  0  0  0
  7  8  1  0  0  0  0
  7 10  1  0  0  0  0
  7  5  1  0  0  0  0
  9  7  1  0  0  0  0
 10 12  1  0  0  0  0
 11 10  1  0  0  0  0
 13 15  1  0  0  0  0
 13 10  1  0  0  0  0
 13 16  1  0  0  0  0
 14 13  1  0  0  0  0
 16 17  1  1  0  0  0
 18  5  1  0  0  0  0
 18  1  1  0  0  0  0
 18 19  1  0  0  0  0
 20 18  1  0  0  0  0
 21 16  1  0  0  0  0
 21  4  1  0  0  0  0
 21 23  1  0  0  0  0
 22 21  1  0  0  0  0
 24 25  1  0  0  0  0
 24 29  1  0  0  0  0
 24 33  1  0  0  0  0
 25 28  1  0  0  0  0
 26 25  1  0  0  0  0
 27 25  1  0  0  0  0
 29 30  1  0  0  0  0
 29 31  1  0  0  0  0
 32 29  1  0  0  0  0
 33 36  1  0  0  0  0
 34 33  1  0  0  0  0
 35 33  1  0  0  0  0
 37 42  1  0  0  0  0
 37  1  1  0  0  0  0
 38 37  1  0  0  0  0
 38 41  1  0  0  0  0
 39 38  1  0  0  0  0
 40 38  1  0  0  0  0
 42 43  1  0  0  0  0
 42 44  1  0  0  0  0
 45 42  1  0  0  0  0
 46 48  1  0  0  0  0
 46 37  1  0  0  0  0
 47 46  1  0  0  0  0
 49 46  1  0  0  0  0
 50 59  1  0  0  0  0
 50 51  1  0  0  0  0
 50 55  1  0  0  0  0
 51 54  1  0  0  0  0
 51 53  1  0  0  0  0
 52 51  1  0  0  0  0
 55 58  1  0  0  0  0
 56 55  1  0  0  0  0
 57 55  1  0  0  0  0
 59 61  1  0  0  0  0
 60 59  1  0  0  0  0
 62 59  1  0  0  0  0
 63 68  1  0  0  0  0
 63  4  1  0  0  0  0
 64 65  1  0  0  0  0
 64 63  1  0  0  0  0
 66 64  1  0  0  0  0
 67 64  1  0  0  0  0
 68 69  1  0  0  0  0
 68 71  1  0  0  0  0
 70 68  1  0  0  0  0
 72 63  1  0  0  0  0
 72 74  1  0  0  0  0
 73 72  1  0  0  0  0
 75 72  1  0  0  0  0
M  END
