1,2,14
q = 0.0, confidence = 1.0

 72 74  0  0  1  0  0  0  0  0999 V2000
    2.1794   -0.7881    0.1231 P   0  0  0  0  0  0  0  0  0  0  0  0
   -2.0190   -0.6704    0.3366 P   0  0  0  0  0  0  0  0  0  0  0  0
    3.2934    0.7088    0.1411 C   0  0  0  0  0  0  0  0  0  0  0  0
    4.6318    0.5458    0.5609 C   0  0  0  0  0  0  0  0  0  0  0  0
    5.5147    1.6302    0.6412 C   0  0  0  0  0  0  0  0  0  0  0  0
    5.0629    2.9176    0.3101 C   0  0  0  0  0  0  0  0  0  0  0  0
    3.7376    3.1024   -0.0971 C   0  0  0  0  0  0  0  0  0  0  0  0
    2.8385    2.0162   -0.1964 C   0  0  0  0  0  0  0  0  0  0  0  0
    1.4236    2.2412   -0.5572 C   0  0  2  0  0  3  0  0  0  0  0  0
    0.6456    3.1544    0.1708 C   0  0  0  0  0  0  0  0  0  0  0  0
   -0.7602    3.1374    0.0739 C   0  0  0  0  0  0  0  0  0  0  0  0
   -1.3983    2.1949   -0.7441 C   0  0  1  0  0  3  0  0  0  0  0  0
   -0.6178    1.3695   -1.6019 C   0  0  0  0  0  3  0  0  0  0  0  0
    0.7913    1.3956   -1.5168 C   0  0  0  0  0  3  0  0  0  0  0  0
   -2.8458    1.9099   -0.6077 C   0  0  0  0  0  0  0  0  0  0  0  0
   -3.8125    2.9076   -0.8494 C   0  0  0  0  0  0  0  0  0  0  0  0
   -5.1805    2.6394   -0.7116 C   0  0  0  0  0  0  0  0  0  0  0  0
   -5.6010    1.3584   -0.3256 C   0  0  0  0  0  0  0  0  0  0  0  0
   -4.6494    0.3625   -0.0600 C   0  0  0  0  0  0  0  0  0  0  0  0
   -3.2663    0.6143   -0.1872 C   0  0  0  0  0  0  0  0  0  0  0  0
    3.2436   -1.9285   -0.9453 C   0  0  0  0  0  0  0  0  0  0  0  0
    2.7379   -3.3740   -0.9881 C   0  0  0  0  0  0  0  0  0  0  0  0
    3.3954   -1.3331   -2.3504 C   0  0  0  0  0  0  0  0  0  0  0  0
    2.4057   -1.4581    1.8768 C   0  0  0  0  0  0  0  0  0  0  0  0
    1.3671   -2.5540    2.1406 C   0  0  0  0  0  0  0  0  0  0  0  0
    2.2729   -0.3353    2.9109 C   0  0  0  0  0  0  0  0  0  0  0  0
   -2.8857   -2.2950   -0.0469 C   0  0  0  0  0  0  0  0  0  0  0  0
   -1.9669   -3.4532    0.3632 C   0  0  0  0  0  0  0  0  0  0  0  0
   -3.3177   -2.3994   -1.5144 C   0  0  0  0  0  0  0  0  0  0  0  0
   -2.1397   -0.5302    2.2288 C   0  0  0  0  0  0  0  0  0  0  0  0
   -3.4477   -1.0075    2.8619 C   0  0  0  0  0  0  0  0  0  0  0  0
   -1.8044    0.8975    2.6701 C   0  0  0  0  0  0  0  0  0  0  0  0
    4.9981   -0.4533    0.8446 H   0  0  0  0  0  0  0  0  0  0  0  0
    6.5544    1.4690    0.9641 H   0  0  0  0  0  0  0  0  0  0  0  0
    5.7471    3.7779    0.3654 H   0  0  0  0  0  0  0  0  0  0  0  0
    3.3763    4.1065   -0.3667 H   0  0  0  0  0  0  0  0  0  0  0  0
    1.1337    3.8075    0.9104 H   0  0  0  0  0  0  0  0  0  0  0  0
   -1.3639    3.7800    0.7327 H   0  0  0  0  0  0  0  0  0  0  0  0
   -1.1065    0.7734   -2.3853 H   0  0  0  0  0  0  0  0  0  0  0  0
    1.3953    0.8627   -2.2641 H   0  0  0  0  0  0  0  0  0  0  0  0
   -3.4702    3.9031   -1.1708 H   0  0  0  0  0  0  0  0  0  0  0  0
   -5.9199    3.4282   -0.9176 H   0  0  0  0  0  0  0  0  0  0  0  0
   -6.6730    1.1302   -0.2261 H   0  0  0  0  0  0  0  0  0  0  0  0
   -4.9997   -0.6314    0.2535 H   0  0  0  0  0  0  0  0  0  0  0  0
    4.2361   -1.9137   -0.4413 H   0  0  0  0  0  0  0  0  0  0  0  0
    1.6957   -3.4094   -1.3627 H   0  0  0  0  0  0  0  0  0  0  0  0
    2.7910   -3.8691    0.0008 H   0  0  0  0  0  0  0  0  0  0  0  0
    3.3729   -3.9626   -1.6830 H   0  0  0  0  0  0  0  0  0  0  0  0
    4.1004   -1.9525   -2.9434 H   0  0  0  0  0  0  0  0  0  0  0  0
    3.7957   -0.3000   -2.3230 H   0  0  0  0  0  0  0  0  0  0  0  0
    2.4157   -1.3309   -2.8686 H   0  0  0  0  0  0  0  0  0  0  0  0
    3.4307   -1.8888    1.9247 H   0  0  0  0  0  0  0  0  0  0  0  0
    1.4340   -2.9096    3.1898 H   0  0  0  0  0  0  0  0  0  0  0  0
    1.4750   -3.4269    1.4712 H   0  0  0  0  0  0  0  0  0  0  0  0
    0.3535   -2.1401    1.9683 H   0  0  0  0  0  0  0  0  0  0  0  0
    1.2871    0.1675    2.8162 H   0  0  0  0  0  0  0  0  0  0  0  0
    3.0574    0.4374    2.8036 H   0  0  0  0  0  0  0  0  0  0  0  0
    2.3367   -0.7546    3.9366 H   0  0  0  0  0  0  0  0  0  0  0  0
   -3.7914   -2.3143    0.5972 H   0  0  0  0  0  0  0  0  0  0  0  0
   -2.4741   -4.4228    0.1777 H   0  0  0  0  0  0  0  0  0  0  0  0
   -1.6938   -3.4183    1.4376 H   0  0  0  0  0  0  0  0  0  0  0  0
   -1.0354   -3.4255   -0.2369 H   0  0  0  0  0  0  0  0  0  0  0  0
   -2.4321   -2.3730   -2.1783 H   0  0  0  0  0  0  0  0  0  0  0  0
   -4.0004   -1.5795   -1.8102 H   0  0  0  0  0  0  0  0  0  0  0  0
   -3.8521   -3.3600   -1.6717 H   0  0  0  0  0  0  0  0  0  0  0  0
   -1.3161   -1.1991    2.5627 H   0  0  0  0  0  0  0  0  0  0  0  0
   -3.3871   -0.8990    3.9652 H   0  0  0  0  0  0  0  0  0  0  0  0
   -3.6673   -2.0721    2.6503 H   0  0  0  0  0  0  0  0  0  0  0  0
   -4.3099   -0.3972    2.5239 H   0  0  0  0  0  0  0  0  0  0  0  0
   -2.6164    1.6004    2.3919 H   0  0  0  0  0  0  0  0  0  0  0  0
   -0.8682    1.2653    2.2035 H   0  0  0  0  0  0  0  0  0  0  0  0
   -1.6813    0.9387    3.7720 H   0  0  0  0  0  0  0  0  0  0  0  0
  1  3  1  0  0  0  0
  1 24  1  0  0  0  0
  2 30  1  0  0  0  0
  3  4  1  0  0  0  0
  4  5  2  0  0  0  0
  4 33  1  0  0  0  0
  5 34  1  0  0  0  0
  6 35  1  0  0  0  0
  6  5  1  0  0  0  0
  7  6  2  0  0  0  0
  8  7  1  0  0  0  0
  8  3  2  0  0  0  0
  9  8  1  1  0  0  0
  9 10  1  0  0  0  0
 10 37  1  0  0  0  0
 11 10  2  0  0  0  0
 11 38  1  0  0  0  0
 12 15  1  1  0  0  0
 12 11  1  0  0  0  0
 13 14  1  0  0  0  0
 13 12  1  0  0  0  0
 14  9  1  0  0  0  0
 15 20  1  0  0  0  0
 16 17  1  0  0  0  0
 16 15  2  0  0  0  0
 17 18  2  0  0  0  0
 18 43  1  0  0  0  0
 18 19  1  0  0  0  0
 19 44  1  0  0  0  0
 20 19  2  0  0  0  0
 20  2  1  0  0  0  0
 21 45  1  0  0  0  0
 21  1  1  0  0  0  0
 22 21  1  0  0  0  0
 22 47  1  0  0  0  0
 23 50  1  0  0  0  0
 23 21  1  0  0  0  0
 24 52  1  0  0  0  0
 24 25  1  0  0  0  0
 24 26  1  0  0  0  0
 25 53  1  0  0  0  0
 26 58  1  0  0  0  0
 27  2  1  0  0  0  0
 27 28  1  0  0  0  0
 27 59  1  0  0  0  0
 28 61  1  0  0  0  0
 29 27  1  0  0  0  0
 30 66  1  0  0  0  0
 30 32  1  0  0  0  0
 30 31  1  0  0  0  0
 31 67  1  0  0  0  0
 32 72  1  0  0  0  0
 36  7  1  0  0  0  0
 39 13  1  0  0  0  0
 40 14  1  0  0  0  0
 41 16  1  0  0  0  0
 42 17  1  0  0  0  0
 46 22  1  0  0  0  0
 48 22  1  0  0  0  0
 49 23  1  0  0  0  0
 51 23  1  0  0  0  0
 54 25  1  0  0  0  0
 55 25  1  0  0  0  0
 56 26  1  0  0  0  0
 57 26  1  0  0  0  0
 60 28  1  0  0  0  0
 62 28  1  0  0  0  0
 63 29  1  0  0  0  0
 64 29  1  0  0  0  0
 65 29  1  0  0  0  0
 68 31  1  0  0  0  0
 69 31  1  0  0  0  0
 70 32  1  0  0  0  0
 71 32  1  0  0  0  0
M  END
