1,2,7
q = -1.0, confidence = 0.006

 58 62  0  0  0  0  0  0  0  0999 V2000
   -2.1266   -0.0252   -0.0472 P   0  0  0  0  0  0  0  0  0  0  0  0
    2.1237   -0.0172   -0.0418 P   0  0  0  0  0  0  0  0  0  0  0  0
   -2.3978   -0.4533   -1.6649 O   0  0  0  0  0  0  0  0  0  0  0  0
    2.3998   -0.4713   -1.6543 O   0  0  0  0  0  0  0  0  0  0  0  0
   -0.0535   -1.5299   -5.6657 O   0  0  0  0  0  0  0  0  0  0  0  0
    0.8596   -1.6194   -5.9950 H   0  0  0  0  0  0  0  0  0  0  0  0
    0.0002   -0.4454   -1.5958 C   0  0  0  0  0  3  0  0  0  0  0  0
   -1.1965   -0.6363   -2.3291 C   0  0  0  0  0  0  0  0  0  0  0  0
   -1.2253   -0.9972   -3.6798 C   0  0  0  0  0  0  0  0  0  0  0  0
   -2.1743   -1.1371   -4.2128 H   0  0  0  0  0  0  0  0  0  0  0  0
    0.0009   -1.1796   -4.3502 C   0  0  0  0  0  0  0  0  0  0  0  0
    1.2260   -1.0028   -3.6741 C   0  0  0  0  0  0  0  0  0  0  0  0
    2.1903   -1.1396   -4.1860 H   0  0  0  0  0  0  0  0  0  0  0  0
    1.1981   -0.6426   -2.3201 C   0  0  0  0  0  0  0  0  0  0  0  0
   -3.0993    1.5151    0.0912 C   0  0  0  0  0  0  0  0  0  0  0  0
   -2.9068    2.3358    1.2214 C   0  0  0  0  0  0  0  0  0  0  0  0
   -2.1503    2.0591    1.9739 H   0  0  0  0  0  0  0  0  0  0  0  0
   -3.6629    3.5086    1.3593 C   0  0  0  0  0  0  0  0  0  0  0  0
   -3.5129    4.1512    2.2401 H   0  0  0  0  0  0  0  0  0  0  0  0
   -4.5975    3.8688    0.3748 C   0  0  0  0  0  0  0  0  0  0  0  0
   -5.1858    4.7925    0.4856 H   0  0  0  0  0  0  0  0  0  0  0  0
   -4.7750    3.0559   -0.7565 C   0  0  0  0  0  0  0  0  0  0  0  0
   -5.4994    3.3423   -1.5343 H   0  0  0  0  0  0  0  0  0  0  0  0
   -4.0286    1.8776   -0.9040 C   0  0  0  0  0  0  0  0  0  0  0  0
   -4.1527    1.2409   -1.7919 H   0  0  0  0  0  0  0  0  0  0  0  0
   -3.1079   -1.2879    0.8364 C   0  0  0  0  0  0  0  0  0  0  0  0
   -2.8508   -1.5144    2.2037 C   0  0  0  0  0  0  0  0  0  0  0  0
   -2.0424   -0.9580    2.7057 H   0  0  0  0  0  0  0  0  0  0  0  0
   -3.6159   -2.4602    2.9020 C   0  0  0  0  0  0  0  0  0  0  0  0
   -3.4160   -2.6393    3.9693 H   0  0  0  0  0  0  0  0  0  0  0  0
   -4.6221   -3.1838    2.2420 C   0  0  0  0  0  0  0  0  0  0  0  0
   -5.2165   -3.9285    2.7931 H   0  0  0  0  0  0  0  0  0  0  0  0
   -4.8646   -2.9651    0.8758 C   0  0  0  0  0  0  0  0  0  0  0  0
   -5.6460   -3.5391    0.3548 H   0  0  0  0  0  0  0  0  0  0  0  0
   -4.1112   -2.0179    0.1679 C   0  0  0  0  0  0  0  0  0  0  0  0
   -4.2866   -1.8488   -0.9045 H   0  0  0  0  0  0  0  0  0  0  0  0
    3.0808    1.5352    0.0746 C   0  0  0  0  0  0  0  0  0  0  0  0
    2.6984    2.5066    1.0207 C   0  0  0  0  0  0  0  0  0  0  0  0
    1.8194    2.3254    1.6604 H   0  0  0  0  0  0  0  0  0  0  0  0
    3.4422    3.6912    1.1326 C   0  0  0  0  0  0  0  0  0  0  0  0
    3.1459    4.4508    1.8718 H   0  0  0  0  0  0  0  0  0  0  0  0
    4.5503    3.9125    0.2999 C   0  0  0  0  0  0  0  0  0  0  0  0
    5.1272    4.8458    0.3872 H   0  0  0  0  0  0  0  0  0  0  0  0
    4.9203    2.9464   -0.6512 C   0  0  0  0  0  0  0  0  0  0  0  0
    5.7842    3.1229   -1.3101 H   0  0  0  0  0  0  0  0  0  0  0  0
    4.1907    1.7553   -0.7665 C   0  0  0  0  0  0  0  0  0  0  0  0
    4.4690    0.9993   -1.5153 H   0  0  0  0  0  0  0  0  0  0  0  0
    3.1220   -1.2549    0.8557 C   0  0  0  0  0  0  0  0  0  0  0  0
    3.0149   -1.3098    2.2611 C   0  0  0  0  0  0  0  0  0  0  0  0
    2.3096   -0.6418    2.7818 H   0  0  0  0  0  0  0  0  0  0  0  0
    3.7848   -2.2377    2.9761 C   0  0  0  0  0  0  0  0  0  0  0  0
    3.7005   -2.2835    4.0725 H   0  0  0  0  0  0  0  0  0  0  0  0
    4.6507   -3.1120    2.2984 C   0  0  0  0  0  0  0  0  0  0  0  0
    5.2512   -3.8406    2.8643 H   0  0  0  0  0  0  0  0  0  0  0  0
    4.7431   -3.0637    0.8983 C   0  0  0  0  0  0  0  0  0  0  0  0
    5.4134   -3.7551    0.3649 H   0  0  0  0  0  0  0  0  0  0  0  0
    3.9799   -2.1381    0.1712 C   0  0  0  0  0  0  0  0  0  0  0  0
    4.0369   -2.0994   -0.9262 H   0  0  0  0  0  0  0  0  0  0  0  0
  1 15  1  0  0  0  0
  1 26  1  0  0  0  0
  2 37  1  0  0  0  0
  2 48  1  0  0  0  0
  3  1  1  0  0  0  0
  4  2  1  0  0  0  0
  5 11  1  0  0  0  0
  6  5  1  0  0  0  0
  8  3  1  0  0  0  0
  8  7  2  0  0  0  0
  9  8  1  0  0  0  0
 10  9  1  0  0  0  0
 11  9  2  0  0  0  0
 11 12  1  0  0  0  0
 12 14  2  0  0  0  0
 13 12  1  0  0  0  0
 14  4  1  0  0  0  0
 14  7  1  0  0  0  0
 15 16  1  0  0  0  0
 16 18  2  0  0  0  0
 16 17  1  0  0  0  0
 18 19  1  0  0  0  0
 20 21  1  0  0  0  0
 20 18  1  0  0  0  0
 22 20  2  0  0  0  0
 23 22  1  0  0  0  0
 24 22  1  0  0  0  0
 24 15  2  0  0  0  0
 25 24  1  0  0  0  0
 26 27  1  0  0  0  0
 27 28  1  0  0  0  0
 27 29  2  0  0  0  0
 29 30  1  0  0  0  0
 31 32  1  0  0  0  0
 31 29  1  0  0  0  0
 33 31  2  0  0  0  0
 34 33  1  0  0  0  0
 35 26  2  0  0  0  0
 35 33  1  0  0  0  0
 36 35  1  0  0  0  0
 37 38  1  0  0  0  0
 38 40  2  0  0  0  0
 38 39  1  0  0  0  0
 40 41  1  0  0  0  0
 42 43  1  0  0  0  0
 42 40  1  0  0  0  0
 44 42  2  0  0  0  0
 45 44  1  0  0  0  0
 46 44  1  0  0  0  0
 46 37  2  0  0  0  0
 47 46  1  0  0  0  0
 48 49  1  0  0  0  0
 49 50  1  0  0  0  0
 49 51  2  0  0  0  0
 51 52  1  0  0  0  0
 53 54  1  0  0  0  0
 53 51  1  0  0  0  0
 55 53  2  0  0  0  0
 56 55  1  0  0  0  0
 57 48  2  0  0  0  0
 57 55  1  0  0  0  0
 58 57  1  0  0  0  0
M  END
