1,2,43
q = 0.0, confidence = 0.982

 75 81  0  0  0  0  0  0  0  0999 V2000
    2.2843    0.4961   -0.0938 P   0  0  0  0  0  0  0  0  0  0  0  0
   -2.2843    0.4961    0.0938 P   0  0  0  0  0  0  0  0  0  0  0  0
    0.8352   -2.1559    0.7166 N   0  0  0  0  0  0  0  0  0  0  0  0
   -0.8354   -2.1559   -0.7166 N   0  0  0  0  0  0  0  0  0  0  0  0
    3.4397    1.9024    0.0041 C   0  0  0  0  0  0  0  0  0  0  0  0
    4.7354    1.8316   -0.5485 C   0  0  0  0  0  0  0  0  0  0  0  0
    5.6072    2.9221   -0.4145 C   0  0  0  0  0  0  0  0  0  0  0  0
    5.1930    4.0769    0.2691 C   0  0  0  0  0  0  0  0  0  0  0  0
    3.9007    4.1485    0.8146 C   0  0  0  0  0  0  0  0  0  0  0  0
    3.0190    3.0669    0.6782 C   0  0  0  0  0  0  0  0  0  0  0  0
    2.7870   -0.5386   -1.5226 C   0  0  0  0  0  0  0  0  0  0  0  0
    2.1057   -0.3710   -2.7463 C   0  0  0  0  0  0  0  0  0  0  0  0
    2.4481   -1.1628   -3.8521 C   0  0  0  0  0  0  0  0  0  0  0  0
    3.4651   -2.1257   -3.7409 C   0  0  0  0  0  0  0  0  0  0  0  0
    4.1416   -2.2975   -2.5221 C   0  0  0  0  0  0  0  0  0  0  0  0
    3.8051   -1.5079   -1.4116 C   0  0  0  0  0  0  0  0  0  0  0  0
    2.6475   -0.5687    1.3593 C   0  0  0  0  0  0  0  0  0  0  0  0
    3.6690   -0.2302    2.2647 C   0  0  0  0  0  0  0  0  0  0  0  0
    3.9549   -1.0380    3.3756 C   0  0  0  0  0  0  0  0  0  0  0  0
    3.2110   -2.2054    3.5866 C   0  0  0  0  0  0  0  0  0  0  0  0
    2.1823   -2.5567    2.7011 C   0  0  0  0  0  0  0  0  0  0  0  0
    1.8764   -1.7434    1.5925 C   0  0  0  0  0  0  0  0  0  0  0  0
    0.4447   -3.5790    0.6207 C   0  0  0  0  0  0  0  0  0  0  0  0
   -0.4452   -3.5790   -0.6203 C   0  0  0  0  0  0  0  0  0  0  0  0
   -1.8766   -1.7434   -1.5925 C   0  0  0  0  0  0  0  0  0  0  0  0
   -2.1825   -2.5567   -2.7011 C   0  0  0  0  0  0  0  0  0  0  0  0
   -3.2113   -2.2053   -3.5866 C   0  0  0  0  0  0  0  0  0  0  0  0
   -3.9551   -1.0378   -3.3756 C   0  0  0  0  0  0  0  0  0  0  0  0
   -3.6691   -0.2300   -2.2647 C   0  0  0  0  0  0  0  0  0  0  0  0
   -2.6476   -0.5686   -1.3594 C   0  0  0  0  0  0  0  0  0  0  0  0
   -2.7868   -0.5385    1.5226 C   0  0  0  0  0  0  0  0  0  0  0  0
   -3.8049   -1.5080    1.4117 C   0  0  0  0  0  0  0  0  0  0  0  0
   -4.1411   -2.2977    2.5221 C   0  0  0  0  0  0  0  0  0  0  0  0
   -3.4645   -2.1258    3.7409 C   0  0  0  0  0  0  0  0  0  0  0  0
   -2.4476   -1.1628    3.8521 C   0  0  0  0  0  0  0  0  0  0  0  0
   -2.1054   -0.3710    2.7463 C   0  0  0  0  0  0  0  0  0  0  0  0
   -3.4397    1.9025   -0.0040 C   0  0  0  0  0  0  0  0  0  0  0  0
   -3.0190    3.0672   -0.6778 C   0  0  0  0  0  0  0  0  0  0  0  0
   -3.9007    4.1487   -0.8140 C   0  0  0  0  0  0  0  0  0  0  0  0
   -5.1931    4.0769   -0.2688 C   0  0  0  0  0  0  0  0  0  0  0  0
   -5.6074    2.9219    0.4145 C   0  0  0  0  0  0  0  0  0  0  0  0
   -4.7355    1.8314    0.5484 C   0  0  0  0  0  0  0  0  0  0  0  0
   -0.0000   -1.3581   -0.0001 C   0  0  0  0  0  2  0  0  0  0  0  0
    5.0602    0.9309   -1.0904 H   0  0  0  0  0  0  0  0  0  0  0  0
    6.6156    2.8704   -0.8515 H   0  0  0  0  0  0  0  0  0  0  0  0
    5.8797    4.9308    0.3695 H   0  0  0  0  0  0  0  0  0  0  0  0
    3.5725    5.0572    1.3407 H   0  0  0  0  0  0  0  0  0  0  0  0
    1.9951    3.1224    1.0796 H   0  0  0  0  0  0  0  0  0  0  0  0
    1.2985    0.3750   -2.8211 H   0  0  0  0  0  0  0  0  0  0  0  0
    1.9158   -1.0283   -4.8057 H   0  0  0  0  0  0  0  0  0  0  0  0
    3.7322   -2.7464   -4.6094 H   0  0  0  0  0  0  0  0  0  0  0  0
    4.9382   -3.0517   -2.4346 H   0  0  0  0  0  0  0  0  0  0  0  0
    4.3286   -1.6519   -0.4538 H   0  0  0  0  0  0  0  0  0  0  0  0
    4.2563    0.6825    2.0851 H   0  0  0  0  0  0  0  0  0  0  0  0
    4.7614   -0.7557    4.0675 H   0  0  0  0  0  0  0  0  0  0  0  0
    3.4232   -2.8526    4.4502 H   0  0  0  0  0  0  0  0  0  0  0  0
    1.6007   -3.4682    2.8934 H   0  0  0  0  0  0  0  0  0  0  0  0
    1.3377   -4.2237    0.5216 H   0  0  0  0  0  0  0  0  0  0  0  0
   -0.1164   -3.8783    1.5317 H   0  0  0  0  0  0  0  0  0  0  0  0
    0.1158   -3.8787   -1.5313 H   0  0  0  0  0  0  0  0  0  0  0  0
   -1.3383   -4.2235   -0.5211 H   0  0  0  0  0  0  0  0  0  0  0  0
   -1.6010   -3.4682   -2.8934 H   0  0  0  0  0  0  0  0  0  0  0  0
   -3.4235   -2.8525   -4.4502 H   0  0  0  0  0  0  0  0  0  0  0  0
   -4.7615   -0.7556   -4.0675 H   0  0  0  0  0  0  0  0  0  0  0  0
   -4.2563    0.6827   -2.0852 H   0  0  0  0  0  0  0  0  0  0  0  0
   -4.3284   -1.6521    0.4539 H   0  0  0  0  0  0  0  0  0  0  0  0
   -4.9376   -3.0520    2.4346 H   0  0  0  0  0  0  0  0  0  0  0  0
   -3.7315   -2.7466    4.6094 H   0  0  0  0  0  0  0  0  0  0  0  0
   -1.9153   -1.0282    4.8056 H   0  0  0  0  0  0  0  0  0  0  0  0
   -1.2984    0.3752    2.8210 H   0  0  0  0  0  0  0  0  0  0  0  0
   -1.9950    3.1228   -1.0790 H   0  0  0  0  0  0  0  0  0  0  0  0
   -3.5724    5.0576   -1.3398 H   0  0  0  0  0  0  0  0  0  0  0  0
   -5.8798    4.9308   -0.3691 H   0  0  0  0  0  0  0  0  0  0  0  0
   -6.6158    2.8701    0.8513 H   0  0  0  0  0  0  0  0  0  0  0  0
   -5.0603    0.9306    1.0900 H   0  0  0  0  0  0  0  0  0  0  0  0
  1  5  1  0  0  0  0
  1 17  1  0  0  0  0
  2 31  1  0  0  0  0
  3 22  1  0  0  0  0
  4 24  1  0  0  0  0
  4 43  1  0  0  0  0
  5 10  1  0  0  0  0
  6  7  1  0  0  0  0
  6  5  2  0  0  0  0
  7  8  2  0  0  0  0
  8 46  1  0  0  0  0
  8  9  1  0  0  0  0
  9 47  1  0  0  0  0
 10  9  2  0  0  0  0
 10 48  1  0  0  0  0
 11 16  1  0  0  0  0
 11  1  1  0  0  0  0
 12 11  2  0  0  0  0
 13 14  2  0  0  0  0
 13 12  1  0  0  0  0
 14 15  1  0  0  0  0
 15 52  1  0  0  0  0
 15 16  2  0  0  0  0
 16 53  1  0  0  0  0
 17 22  2  0  0  0  0
 17 18  1  0  0  0  0
 18 19  2  0  0  0  0
 19 20  1  0  0  0  0
 19 55  1  0  0  0  0
 20 56  1  0  0  0  0
 21 57  1  0  0  0  0
 21 20  2  0  0  0  0
 22 21  1  0  0  0  0
 23  3  1  0  0  0  0
 23 59  1  0  0  0  0
 24 61  1  0  0  0  0
 24 23  1  0  0  0  0
 25 30  1  0  0  0  0
 25  4  1  0  0  0  0
 26 25  2  0  0  0  0
 27 28  2  0  0  0  0
 27 26  1  0  0  0  0
 28 29  1  0  0  0  0
 29 65  1  0  0  0  0
 29 30  2  0  0  0  0
 30  2  1  0  0  0  0
 31 36  1  0  0  0  0
 32 31  2  0  0  0  0
 32 33  1  0  0  0  0
 33 34  2  0  0  0  0
 34 35  1  0  0  0  0
 34 68  1  0  0  0  0
 35 69  1  0  0  0  0
 36 70  1  0  0  0  0
 36 35  2  0  0  0  0
 37  2  1  0  0  0  0
 37 42  1  0  0  0  0
 38 37  2  0  0  0  0
 39 38  1  0  0  0  0
 39 40  2  0  0  0  0
 40 41  1  0  0  0  0
 41 42  2  0  0  0  0
 41 74  1  0  0  0  0
 42 75  1  0  0  0  0
 43  3  1  0  0  0  0
 44  6  1  0  0  0  0
 45  7  1  0  0  0  0
 49 12  1  0  0  0  0
 50 13  1  0  0  0  0
 51 14  1  0  0  0  0
 54 18  1  0  0  0  0
 58 23  1  0  0  0  0
 60 24  1  0  0  0  0
 62 26  1  0  0  0  0
 63 27  1  0  0  0  0
 64 28  1  0  0  0  0
 66 32  1  0  0  0  0
 67 33  1  0  0  0  0
 71 38  1  0  0  0  0
 72 39  1  0  0  0  0
 73 40  1  0  0  0  0
M  END
