1,2,10
q = 0.0, confidence = 0.984

 57 57  0  0  0  0  0  0  0  0999 V2000
    2.2804    0.5653   -0.0437 P   0  0  0  0  0  0  0  0  0  0  0  0
   -2.2849   -0.1079    0.0527 P   0  0  0  0  0  0  0  0  0  0  0  0
    0.7148    2.7746    0.0566 N   0  0  0  0  0  0  0  0  0  0  0  0
    0.2071    4.0064    0.0336 N   0  0  0  0  0  2  0  0  0  0  0  0
   -1.1095    3.8042   -0.0436 N   0  0  0  0  0  0  0  0  0  0  0  0
    2.6242    0.1680    2.6834 C   0  0  0  0  0  0  0  0  0  0  0  0
    1.6557   -0.3709    2.6608 H   0  0  0  0  0  0  0  0  0  0  0  0
    2.4287    1.2317    2.9356 H   0  0  0  0  0  0  0  0  0  0  0  0
    3.2336   -0.2550    3.5068 H   0  0  0  0  0  0  0  0  0  0  0  0
   -0.2319    1.7863    0.0008 C   0  0  0  0  0  3  0  0  0  0  0  0
   -1.4451    2.4720   -0.0658 C   0  0  0  0  0  0  0  0  0  0  0  0
    2.1387    2.4604    0.1500 C   0  0  0  0  0  0  0  0  0  0  0  0
    2.5268    2.7770    1.1390 H   0  0  0  0  0  0  0  0  0  0  0  0
    2.6998    3.0000   -0.6376 H   0  0  0  0  0  0  0  0  0  0  0  0
   -2.7431    1.7422   -0.1565 C   0  0  0  0  0  0  0  0  0  0  0  0
   -3.2327    1.8800   -1.1445 H   0  0  0  0  0  0  0  0  0  0  0  0
   -3.4786    2.0464    0.6173 H   0  0  0  0  0  0  0  0  0  0  0  0
    3.3740    0.0186    1.3539 C   0  0  0  0  0  0  0  0  0  0  0  0
    3.4772   -1.0691    1.1399 H   0  0  0  0  0  0  0  0  0  0  0  0
    4.7545    0.6825    1.3511 C   0  0  0  0  0  0  0  0  0  0  0  0
    5.3057    0.5185    0.4045 H   0  0  0  0  0  0  0  0  0  0  0  0
    5.3725    0.2600    2.1693 H   0  0  0  0  0  0  0  0  0  0  0  0
    4.6895    1.7762    1.5293 H   0  0  0  0  0  0  0  0  0  0  0  0
    3.2058    0.3713   -1.6492 C   0  0  0  0  0  0  0  0  0  0  0  0
    4.0774    1.0604   -1.5778 H   0  0  0  0  0  0  0  0  0  0  0  0
    3.6986   -1.0707   -1.8159 C   0  0  0  0  0  0  0  0  0  0  0  0
    4.4352   -1.3599   -1.0412 H   0  0  0  0  0  0  0  0  0  0  0  0
    4.1948   -1.1773   -2.8016 H   0  0  0  0  0  0  0  0  0  0  0  0
    2.8554   -1.7904   -1.7739 H   0  0  0  0  0  0  0  0  0  0  0  0
    2.2987    0.8111   -2.8059 C   0  0  0  0  0  0  0  0  0  0  0  0
    1.9327    1.8526   -2.6965 H   0  0  0  0  0  0  0  0  0  0  0  0
    1.4161    0.1437   -2.8846 H   0  0  0  0  0  0  0  0  0  0  0  0
    2.8568    0.7562   -3.7620 H   0  0  0  0  0  0  0  0  0  0  0  0
   -3.1675   -1.0060   -1.3123 C   0  0  0  0  0  0  0  0  0  0  0  0
   -2.9153   -2.0659   -1.0833 H   0  0  0  0  0  0  0  0  0  0  0  0
   -2.5273   -0.6504   -2.6598 C   0  0  0  0  0  0  0  0  0  0  0  0
   -1.4373   -0.8525   -2.6521 H   0  0  0  0  0  0  0  0  0  0  0  0
   -2.6851    0.4156   -2.9281 H   0  0  0  0  0  0  0  0  0  0  0  0
   -2.9831   -1.2605   -3.4650 H   0  0  0  0  0  0  0  0  0  0  0  0
   -4.6869   -0.8147   -1.2886 C   0  0  0  0  0  0  0  0  0  0  0  0
   -5.1425   -1.1331   -0.3306 H   0  0  0  0  0  0  0  0  0  0  0  0
   -5.1520   -1.4212   -2.0922 H   0  0  0  0  0  0  0  0  0  0  0  0
   -4.9740    0.2414   -1.4738 H   0  0  0  0  0  0  0  0  0  0  0  0
   -3.0760   -0.5651    1.6775 C   0  0  0  0  0  0  0  0  0  0  0  0
   -4.1188   -0.1794    1.6165 H   0  0  0  0  0  0  0  0  0  0  0  0
   -3.0993   -2.0856    1.8689 C   0  0  0  0  0  0  0  0  0  0  0  0
   -3.7191   -2.5999    1.1089 H   0  0  0  0  0  0  0  0  0  0  0  0
   -3.5275   -2.3243    2.8634 H   0  0  0  0  0  0  0  0  0  0  0  0
   -2.0764   -2.5123    1.8218 H   0  0  0  0  0  0  0  0  0  0  0  0
   -2.3339    0.1485    2.8153 C   0  0  0  0  0  0  0  0  0  0  0  0
   -2.3054    1.2501    2.6880 H   0  0  0  0  0  0  0  0  0  0  0  0
   -1.2877   -0.2139    2.8855 H   0  0  0  0  0  0  0  0  0  0  0  0
   -2.8347   -0.0617    3.7816 H   0  0  0  0  0  0  0  0  0  0  0  0
   -2.0003    4.9574   -0.0960 C   0  0  0  0  0  0  0  0  0  0  0  0
   -1.3806    5.8693   -0.0537 H   0  0  0  0  0  0  0  0  0  0  0  0
   -2.6935    4.9331    0.7664 H   0  0  0  0  0  0  0  0  0  0  0  0
   -2.5802    4.9388   -1.0384 H   0  0  0  0  0  0  0  0  0  0  0  0
  1 12  1  0  0  0  0
  1 18  1  0  0  0  0
  2 44  1  0  0  0  0
  3 12  1  0  0  0  0
  4  3  1  0  0  0  0
  5  4  1  0  0  0  0
  6  8  1  0  0  0  0
  6  9  1  0  0  0  0
  7  6  1  0  0  0  0
 10  3  1  0  0  0  0
 11  5  1  0  0  0  0
 11 10  2  0  0  0  0
 12 13  1  0  0  0  0
 14 12  1  0  0  0  0
 15 11  1  0  0  0  0
 15  2  1  0  0  0  0
 15 17  1  0  0  0  0
 16 15  1  0  0  0  0
 18  6  1  0  0  0  0
 19 18  1  0  0  0  0
 20 18  1  0  0  0  0
 20 23  1  0  0  0  0
 20 22  1  0  0  0  0
 21 20  1  0  0  0  0
 24 25  1  0  0  0  0
 24  1  1  0  0  0  0
 26 29  1  0  0  0  0
 26 24  1  0  0  0  0
 26 27  1  0  0  0  0
 28 26  1  0  0  0  0
 30 31  1  0  0  0  0
 30 24  1  0  0  0  0
 32 30  1  0  0  0  0
 33 30  1  0  0  0  0
 34 40  1  0  0  0  0
 34 35  1  0  0  0  0
 34  2  1  0  0  0  0
 36 37  1  0  0  0  0
 36 34  1  0  0  0  0
 38 36  1  0  0  0  0
 39 36  1  0  0  0  0
 40 41  1  0  0  0  0
 42 40  1  0  0  0  0
 43 40  1  0  0  0  0
 44 46  1  0  0  0  0
 44 50  1  0  0  0  0
 45 44  1  0  0  0  0
 46 48  1  0  0  0  0
 47 46  1  0  0  0  0
 49 46  1  0  0  0  0
 50 52  1  0  0  0  0
 50 53  1  0  0  0  0
 51 50  1  0  0  0  0
 54 55  1  0  0  0  0
 54  5  1  0  0  0  0
 54 56  1  0  0  0  0
 57 54  1  0  0  0  0
M  END
