1,2,6
q = -1.0, confidence = 0.002

 56 56  0  0  1  0  0  0  0  0999 V2000
    2.3697    0.1874    0.0566 P   0  0  0  0  0  0  0  0  0  0  0  0
   -2.2871    0.0172    0.1010 P   0  0  0  0  0  0  0  0  0  0  0  0
    2.6386    1.7965   -0.2628 O   0  0  0  0  0  0  0  0  0  0  0  0
   -2.9077    1.5471   -0.1247 O   0  0  0  0  0  0  0  0  0  0  0  0
    1.5067    2.4179   -0.9171 C   0  0  0  0  0  0  0  0  0  0  0  0
    0.1832    2.0451   -0.2711 C   0  0  1  0  0  3  0  0  0  0  0  0
   -0.4460    3.0757    0.6545 C   0  0  0  0  0  0  0  0  0  0  0  0
   -0.9479    2.9192   -0.7603 C   0  0  2  0  0  0  0  0  0  0  0  0
   -2.3187    2.3913   -1.1248 C   0  0  0  0  0  0  0  0  0  0  0  0
    3.3109    0.0130    1.6472 C   0  0  0  0  0  0  0  0  0  0  0  0
    3.3072   -1.4337    2.1535 C   0  0  0  0  0  0  0  0  0  0  0  0
    2.7630    0.9998    2.6840 C   0  0  0  0  0  0  0  0  0  0  0  0
    3.3121   -0.6618   -1.3051 C   0  0  0  0  0  0  0  0  0  0  0  0
    2.9813   -2.1515   -1.4437 C   0  0  0  0  0  0  0  0  0  0  0  0
    4.8105   -0.3515   -1.2504 C   0  0  0  0  0  0  0  0  0  0  0  0
   -3.1353   -0.3345    1.7198 C   0  0  0  0  0  0  0  0  0  0  0  0
   -2.7763    0.7318    2.7603 C   0  0  0  0  0  0  0  0  0  0  0  0
   -2.8386   -1.7503    2.2246 C   0  0  0  0  0  0  0  0  0  0  0  0
   -3.1680   -0.9475   -1.2350 C   0  0  0  0  0  0  0  0  0  0  0  0
   -2.6549   -2.3797   -1.4157 C   0  0  0  0  0  0  0  0  0  0  0  0
   -4.6911   -0.8495   -1.1085 C   0  0  0  0  0  0  0  0  0  0  0  0
    1.4894    2.1117   -1.9869 H   0  0  0  0  0  0  0  0  0  0  0  0
    1.7018    3.5109   -0.8584 H   0  0  0  0  0  0  0  0  0  0  0  0
    0.1255    3.9868    0.9041 H   0  0  0  0  0  0  0  0  0  0  0  0
   -1.0878    2.7098    1.4693 H   0  0  0  0  0  0  0  0  0  0  0  0
   -0.6503    3.7173   -1.4674 H   0  0  0  0  0  0  0  0  0  0  0  0
   -3.0361    3.2295   -1.2448 H   0  0  0  0  0  0  0  0  0  0  0  0
   -2.2500    1.8505   -2.0965 H   0  0  0  0  0  0  0  0  0  0  0  0
    4.3493    0.3120    1.3849 H   0  0  0  0  0  0  0  0  0  0  0  0
    3.7796   -2.1361    1.4395 H   0  0  0  0  0  0  0  0  0  0  0  0
    2.2752   -1.7891    2.3494 H   0  0  0  0  0  0  0  0  0  0  0  0
    3.8693   -1.4998    3.1076 H   0  0  0  0  0  0  0  0  0  0  0  0
    2.7734    2.0354    2.2950 H   0  0  0  0  0  0  0  0  0  0  0  0
    3.3781    0.9594    3.6063 H   0  0  0  0  0  0  0  0  0  0  0  0
    1.7169    0.7487    2.9540 H   0  0  0  0  0  0  0  0  0  0  0  0
    2.8566   -0.1511   -2.1836 H   0  0  0  0  0  0  0  0  0  0  0  0
    1.9022   -2.2878   -1.6491 H   0  0  0  0  0  0  0  0  0  0  0  0
    3.2577   -2.7421   -0.5473 H   0  0  0  0  0  0  0  0  0  0  0  0
    3.5410   -2.5737   -2.3038 H   0  0  0  0  0  0  0  0  0  0  0  0
    4.9937    0.7346   -1.1275 H   0  0  0  0  0  0  0  0  0  0  0  0
    5.2993   -0.6737   -2.1931 H   0  0  0  0  0  0  0  0  0  0  0  0
    5.3142   -0.8894   -0.4204 H   0  0  0  0  0  0  0  0  0  0  0  0
   -4.2172   -0.2461    1.4815 H   0  0  0  0  0  0  0  0  0  0  0  0
   -3.0567    1.7438    2.4131 H   0  0  0  0  0  0  0  0  0  0  0  0
   -1.6876    0.7245    2.9750 H   0  0  0  0  0  0  0  0  0  0  0  0
   -3.3125    0.5255    3.7095 H   0  0  0  0  0  0  0  0  0  0  0  0
   -3.1173   -2.5351    1.4952 H   0  0  0  0  0  0  0  0  0  0  0  0
   -3.4102   -1.9415    3.1558 H   0  0  0  0  0  0  0  0  0  0  0  0
   -1.7632   -1.8726    2.4627 H   0  0  0  0  0  0  0  0  0  0  0  0
   -2.8294   -0.3796   -2.1312 H   0  0  0  0  0  0  0  0  0  0  0  0
   -1.5775   -2.3758   -1.6685 H   0  0  0  0  0  0  0  0  0  0  0  0
   -3.1944   -2.8557   -2.2605 H   0  0  0  0  0  0  0  0  0  0  0  0
   -2.8201   -3.0133   -0.5214 H   0  0  0  0  0  0  0  0  0  0  0  0
   -5.0210    0.1934   -0.9317 H   0  0  0  0  0  0  0  0  0  0  0  0
   -5.0758   -1.4829   -0.2823 H   0  0  0  0  0  0  0  0  0  0  0  0
   -5.1718   -1.2055   -2.0429 H   0  0  0  0  0  0  0  0  0  0  0  0
  1 10  1  0  0  0  0
  2 16  1  0  0  0  0
  3  1  1  0  0  0  0
  4  2  1  0  0  0  0
  5 23  1  0  0  0  0
  5  3  1  0  0  0  0
  6  5  1  6  0  0  0
  6  7  1  0  0  0  0
  7 24  1  0  0  0  0
  7 25  1  0  0  0  0
  8 26  1  6  0  0  0
  8  6  1  0  0  0  0
  8  7  1  0  0  0  0
  9  8  1  0  0  0  0
  9  4  1  0  0  0  0
 10 11  1  0  0  0  0
 10 12  1  0  0  0  0
 11 31  1  0  0  0  0
 11 32  1  0  0  0  0
 12 35  1  0  0  0  0
 12 34  1  0  0  0  0
 13 15  1  0  0  0  0
 13  1  1  0  0  0  0
 14 13  1  0  0  0  0
 14 38  1  0  0  0  0
 15 40  1  0  0  0  0
 15 42  1  0  0  0  0
 16 18  1  0  0  0  0
 16 17  1  0  0  0  0
 17 45  1  0  0  0  0
 17 46  1  0  0  0  0
 18 49  1  0  0  0  0
 18 48  1  0  0  0  0
 19 21  1  0  0  0  0
 19  2  1  0  0  0  0
 20 19  1  0  0  0  0
 20 53  1  0  0  0  0
 21 54  1  0  0  0  0
 21 55  1  0  0  0  0
 22  5  1  0  0  0  0
 27  9  1  0  0  0  0
 28  9  1  0  0  0  0
 29 10  1  0  0  0  0
 30 11  1  0  0  0  0
 33 12  1  0  0  0  0
 36 13  1  0  0  0  0
 37 14  1  0  0  0  0
 39 14  1  0  0  0  0
 41 15  1  0  0  0  0
 43 16  1  0  0  0  0
 44 17  1  0  0  0  0
 47 18  1  0  0  0  0
 50 19  1  0  0  0  0
 51 20  1  0  0  0  0
 52 20  1  0  0  0  0
 56 21  1  0  0  0  0
M  END
