1,2,42
q = -1.0, confidence = 0.004

 73 77  0  0  1  0  0  0  0  0999 V2000
   -2.2806   -0.9130   -0.0866 P   0  0  0  0  0  0  0  0  0  0  0  0
    2.2809   -0.9123   -0.0867 P   0  0  0  0  0  0  0  0  0  0  0  0
   -2.9562   -2.2366   -1.2262 C   0  0  0  0  0  0  0  0  0  0  0  0
   -3.9688   -1.8869   -1.5281 H   0  0  0  0  0  0  0  0  0  0  0  0
   -2.0895   -2.3559   -2.4834 C   0  0  0  0  0  0  0  0  0  0  0  0
   -1.9548   -1.3795   -2.9908 H   0  0  0  0  0  0  0  0  0  0  0  0
   -2.5592   -3.0566   -3.2044 H   0  0  0  0  0  0  0  0  0  0  0  0
   -1.0858   -2.7500   -2.2279 H   0  0  0  0  0  0  0  0  0  0  0  0
   -3.0753   -3.5715   -0.4791 C   0  0  0  0  0  0  0  0  0  0  0  0
   -2.1089   -3.8516   -0.0101 H   0  0  0  0  0  0  0  0  0  0  0  0
   -3.3703   -4.3761   -1.1844 H   0  0  0  0  0  0  0  0  0  0  0  0
   -3.8396   -3.5375    0.3226 H   0  0  0  0  0  0  0  0  0  0  0  0
   -3.5386   -0.8176    1.3030 C   0  0  0  0  0  0  0  0  0  0  0  0
   -3.4173   -1.8136    1.7847 H   0  0  0  0  0  0  0  0  0  0  0  0
   -4.9897   -0.6398    0.8489 C   0  0  0  0  0  0  0  0  0  0  0  0
   -5.1409    0.3510    0.3746 H   0  0  0  0  0  0  0  0  0  0  0  0
   -5.6681   -0.6904    1.7264 H   0  0  0  0  0  0  0  0  0  0  0  0
   -5.3178   -1.4206    0.1344 H   0  0  0  0  0  0  0  0  0  0  0  0
   -3.1142    0.2539    2.3100 C   0  0  0  0  0  0  0  0  0  0  0  0
   -2.1082    0.0423    2.7163 H   0  0  0  0  0  0  0  0  0  0  0  0
   -3.8287    0.2870    3.1584 H   0  0  0  0  0  0  0  0  0  0  0  0
   -3.0861    1.2627    1.8490 H   0  0  0  0  0  0  0  0  0  0  0  0
   -2.3947    0.6667   -1.0271 C   0  0  0  0  0  0  0  0  0  0  0  0
   -3.4972    1.1605   -1.7605 C   0  0  0  0  0  0  0  0  0  0  0  0
   -4.3983    0.5433   -1.8939 H   0  0  0  0  0  0  0  0  0  0  0  0
   -3.4456    2.4427   -2.3292 C   0  0  0  0  0  0  0  0  0  0  0  0
   -4.3023    2.8157   -2.9109 H   0  0  0  0  0  0  0  0  0  0  0  0
   -2.3227    3.2716   -2.1308 C   0  0  0  0  0  0  0  0  0  0  0  0
   -2.3129    4.2980   -2.5301 H   0  0  0  0  0  0  0  0  0  0  0  0
   -1.2317    2.7859   -1.4021 C   0  0  0  0  0  0  0  0  0  0  0  0
   -0.0006    3.5591   -0.9414 C   0  0  2  0  0  0  0  0  0  0  0  0
   -0.0008    4.6141   -1.2721 H   0  0  0  0  0  0  0  0  0  0  0  0
    1.2307    2.7863   -1.4020 C   0  0  0  0  0  0  0  0  0  0  0  0
    2.3217    3.2724   -2.1307 C   0  0  0  0  0  0  0  0  0  0  0  0
    2.3115    4.2988   -2.5300 H   0  0  0  0  0  0  0  0  0  0  0  0
    3.4448    2.4439   -2.3291 C   0  0  0  0  0  0  0  0  0  0  0  0
    4.3014    2.8172   -2.9107 H   0  0  0  0  0  0  0  0  0  0  0  0
    3.4968    1.1618   -1.7604 C   0  0  0  0  0  0  0  0  0  0  0  0
    4.3982    0.5448   -1.8938 H   0  0  0  0  0  0  0  0  0  0  0  0
    2.3944    0.6676   -1.0271 C   0  0  0  0  0  0  0  0  0  0  0  0
    1.2435    1.4653   -0.9084 C   0  0  0  0  0  0  0  0  0  0  0  0
   -0.0002    1.0325   -0.1165 C   0  0  2  0  0  3  0  0  0  0  0  0
   -1.2440    1.4649   -0.9085 C   0  0  0  0  0  0  0  0  0  0  0  0
   -0.0006    3.4128    0.5900 C   0  0  0  0  0  0  0  0  0  0  0  0
   -0.0008    4.4657    1.5092 C   0  0  0  0  0  0  0  0  0  0  0  0
   -0.0010    5.5085    1.1545 H   0  0  0  0  0  0  0  0  0  0  0  0
   -0.0008    4.1830    2.8896 C   0  0  0  0  0  0  0  0  0  0  0  0
   -0.0010    5.0092    3.6168 H   0  0  0  0  0  0  0  0  0  0  0  0
   -0.0006    2.8539    3.3361 C   0  0  0  0  0  0  0  0  0  0  0  0
   -0.0006    2.6354    4.4149 H   0  0  0  0  0  0  0  0  0  0  0  0
   -0.0004    1.7932    2.4097 C   0  0  0  0  0  0  0  0  0  0  0  0
   -0.0002    0.7463    2.7499 H   0  0  0  0  0  0  0  0  0  0  0  0
   -0.0004    2.0643    1.0393 C   0  0  0  0  0  0  0  0  0  0  0  0
    3.5387   -0.8166    1.3031 C   0  0  0  0  0  0  0  0  0  0  0  0
    3.4177   -1.8126    1.7847 H   0  0  0  0  0  0  0  0  0  0  0  0
    3.1139    0.2547    2.3101 C   0  0  0  0  0  0  0  0  0  0  0  0
    3.0858    1.2635    1.8491 H   0  0  0  0  0  0  0  0  0  0  0  0
    3.8283    0.2880    3.1586 H   0  0  0  0  0  0  0  0  0  0  0  0
    2.1080    0.0429    2.7162 H   0  0  0  0  0  0  0  0  0  0  0  0
    4.9898   -0.6384    0.8491 C   0  0  0  0  0  0  0  0  0  0  0  0
    5.3182   -1.4191    0.1346 H   0  0  0  0  0  0  0  0  0  0  0  0
    5.6681   -0.6887    1.7266 H   0  0  0  0  0  0  0  0  0  0  0  0
    5.1407    0.3524    0.3747 H   0  0  0  0  0  0  0  0  0  0  0  0
    2.9570   -2.2355   -1.2264 C   0  0  0  0  0  0  0  0  0  0  0  0
    3.9694   -1.8853   -1.5282 H   0  0  0  0  0  0  0  0  0  0  0  0
    3.0767   -3.5704   -0.4793 C   0  0  0  0  0  0  0  0  0  0  0  0
    3.8409   -3.5362    0.3223 H   0  0  0  0  0  0  0  0  0  0  0  0
    3.3720   -4.3748   -1.1847 H   0  0  0  0  0  0  0  0  0  0  0  0
    2.1103   -3.8510   -0.0104 H   0  0  0  0  0  0  0  0  0  0  0  0
    2.0904   -2.3551   -2.4835 C   0  0  0  0  0  0  0  0  0  0  0  0
    1.0868   -2.7495   -2.2280 H   0  0  0  0  0  0  0  0  0  0  0  0
    2.5603   -3.0556   -3.2046 H   0  0  0  0  0  0  0  0  0  0  0  0
    1.9552   -1.3787   -2.9908 H   0  0  0  0  0  0  0  0  0  0  0  0
  1 13  1  0  0  0  0
  2 54  1  0  0  0  0
  3  9  1  0  0  0  0
  3  1  1  0  0  0  0
  4  3  1  0  0  0  0
  5  8  1  0  0  0  0
  5  3  1  0  0  0  0
  6  5  1  0  0  0  0
  7  5  1  0  0  0  0
  9 10  1  0  0  0  0
  9 12  1  0  0  0  0
 11  9  1  0  0  0  0
 13 14  1  0  0  0  0
 13 19  1  0  0  0  0
 15 13  1  0  0  0  0
 15 17  1  0  0  0  0
 16 15  1  0  0  0  0
 18 15  1  0  0  0  0
 19 20  1  0  0  0  0
 19 21  1  0  0  0  0
 22 19  1  0  0  0  0
 23 43  1  0  0  0  0
 23  1  1  0  0  0  0
 24 23  2  0  0  0  0
 25 24  1  0  0  0  0
 26 28  2  0  0  0  0
 26 24  1  0  0  0  0
 27 26  1  0  0  0  0
 28 30  1  0  0  0  0
 29 28  1  0  0  0  0
 30 31  1  0  0  0  0
 30 43  2  0  0  0  0
 31 32  1  6  0  0  0
 31 44  1  0  0  0  0
 33 31  1  0  0  0  0
 33 41  1  0  0  0  0
 34 33  2  0  0  0  0
 35 34  1  0  0  0  0
 36 34  1  0  0  0  0
 36 38  2  0  0  0  0
 37 36  1  0  0  0  0
 38 40  1  0  0  0  0
 39 38  1  0  0  0  0
 40 41  2  0  0  0  0
 40  2  1  0  0  0  0
 41 42  1  0  0  0  0
 42 43  1  6  0  0  0
 42 53  1  0  0  0  0
 44 53  2  0  0  0  0
 44 45  1  0  0  0  0
 45 47  2  0  0  0  0
 46 45  1  0  0  0  0
 47 49  1  0  0  0  0
 47 48  1  0  0  0  0
 49 50  1  0  0  0  0
 51 52  1  0  0  0  0
 51 49  2  0  0  0  0
 53 51  1  0  0  0  0
 54 55  1  0  0  0  0
 54 56  1  0  0  0  0
 56 59  1  0  0  0  0
 56 58  1  0  0  0  0
 57 56  1  0  0  0  0
 60 54  1  0  0  0  0
 60 62  1  0  0  0  0
 61 60  1  0  0  0  0
 63 60  1  0  0  0  0
 64 66  1  0  0  0  0
 64  2  1  0  0  0  0
 65 64  1  0  0  0  0
 66 69  1  0  0  0  0
 66 67  1  0  0  0  0
 68 66  1  0  0  0  0
 70 71  1  0  0  0  0
 70 64  1  0  0  0  0
 72 70  1  0  0  0  0
 73 70  1  0  0  0  0
M  END
