1,2,32
q = 0.0, confidence = 0.998

 84 86  0  0  1  0  0  0  0  0999 V2000
    2.2116   -0.9510    0.4801 P   0  0  0  0  0  0  0  0  0  0  0  0
   -1.7899   -1.3798    0.3730 P   0  0  0  0  0  0  0  0  0  0  0  0
   -0.5037    0.2013   -2.3215 O   0  0  0  0  0  0  0  0  0  0  0  0
    0.0515    4.2954    1.4923 N   0  0  0  0  0  0  0  0  0  0  0  0
    2.9593   -0.1466   -1.0091 C   0  0  0  0  0  0  0  0  0  0  0  0
    4.1427   -0.5130   -1.6787 C   0  0  0  0  0  0  0  0  0  0  0  0
    4.7279   -1.3805   -1.3365 H   0  0  0  0  0  0  0  0  0  0  0  0
    4.5838    0.2243   -2.7891 C   0  0  0  0  0  0  0  0  0  0  0  0
    5.5044   -0.0721   -3.3151 H   0  0  0  0  0  0  0  0  0  0  0  0
    3.8540    1.3437   -3.2205 C   0  0  0  0  0  0  0  0  0  0  0  0
    4.2014    1.9275   -4.0868 H   0  0  0  0  0  0  0  0  0  0  0  0
    2.6807    1.7206   -2.5475 C   0  0  0  0  0  0  0  0  0  0  0  0
    2.1150    2.6079   -2.8715 H   0  0  0  0  0  0  0  0  0  0  0  0
    2.2060    0.9694   -1.4559 C   0  0  0  0  0  0  0  0  0  0  0  0
    0.9645    1.3666   -0.7048 C   0  0  1  0  0  3  0  0  0  0  0  0
    1.0653    2.5197    0.1519 C   0  0  0  0  0  0  0  0  0  0  0  0
    2.0758    2.8780    0.3851 H   0  0  0  0  0  0  0  0  0  0  0  0
   -0.0658    3.1779    0.6655 C   0  0  0  0  0  0  0  0  0  0  0  0
   -1.3564    2.6450    0.3401 C   0  0  0  0  0  0  0  0  0  0  0  0
   -2.2606    3.0306    0.8279 H   0  0  0  0  0  0  0  0  0  0  0  0
   -1.4973    1.5529   -0.5172 C   0  0  0  0  0  0  0  0  0  0  0  0
   -2.8404    0.9750   -0.7830 C   0  0  0  0  0  0  0  0  0  0  0  0
   -3.8625    1.7792   -1.3310 C   0  0  0  0  0  0  0  0  0  0  0  0
   -3.6367    2.8340   -1.5515 H   0  0  0  0  0  0  0  0  0  0  0  0
   -5.1294    1.2510   -1.6152 C   0  0  0  0  0  0  0  0  0  0  0  0
   -5.9095    1.8952   -2.0492 H   0  0  0  0  0  0  0  0  0  0  0  0
   -5.3903   -0.1032   -1.3601 C   0  0  0  0  0  0  0  0  0  0  0  0
   -6.3768   -0.5336   -1.5914 H   0  0  0  0  0  0  0  0  0  0  0  0
   -4.3897   -0.9091   -0.7951 C   0  0  0  0  0  0  0  0  0  0  0  0
   -4.6172   -1.9646   -0.5840 H   0  0  0  0  0  0  0  0  0  0  0  0
   -3.1168   -0.3904   -0.4837 C   0  0  0  0  0  0  0  0  0  0  0  0
   -0.3492    0.9239   -1.1325 C   0  0  1  0  0  3  0  0  0  0  0  0
    1.3615    4.6728    1.9691 C   0  0  0  0  0  0  0  0  0  0  0  0
    1.8587    3.8648    2.5626 H   0  0  0  0  0  0  0  0  0  0  0  0
    1.2778    5.5700    2.6101 H   0  0  0  0  0  0  0  0  0  0  0  0
    2.0436    4.9245    1.1275 H   0  0  0  0  0  0  0  0  0  0  0  0
   -1.1143    4.8079    2.1771 C   0  0  0  0  0  0  0  0  0  0  0  0
   -1.9193    5.0781    1.4607 H   0  0  0  0  0  0  0  0  0  0  0  0
   -0.8404    5.7287    2.7253 H   0  0  0  0  0  0  0  0  0  0  0  0
   -1.5521    4.0874    2.9120 H   0  0  0  0  0  0  0  0  0  0  0  0
   -0.8339    1.0020   -3.4486 C   0  0  0  0  0  0  0  0  0  0  0  0
   -1.8121    1.5179   -3.3182 H   0  0  0  0  0  0  0  0  0  0  0  0
   -0.9030    0.3202   -4.3184 H   0  0  0  0  0  0  0  0  0  0  0  0
   -0.0511    1.7671   -3.6520 H   0  0  0  0  0  0  0  0  0  0  0  0
    2.9408   -2.6838    0.4645 C   0  0  0  0  0  0  0  0  0  0  0  0
    4.0484   -2.5922    0.4217 H   0  0  0  0  0  0  0  0  0  0  0  0
    2.4463   -3.4201   -0.7861 C   0  0  0  0  0  0  0  0  0  0  0  0
    2.8403   -4.4579   -0.8088 H   0  0  0  0  0  0  0  0  0  0  0  0
    2.7551   -2.9122   -1.7205 H   0  0  0  0  0  0  0  0  0  0  0  0
    1.3390   -3.4738   -0.7946 H   0  0  0  0  0  0  0  0  0  0  0  0
    2.5512   -3.4243    1.7495 C   0  0  0  0  0  0  0  0  0  0  0  0
    1.4562   -3.3570    1.9221 H   0  0  0  0  0  0  0  0  0  0  0  0
    3.0560   -3.0084    2.6434 H   0  0  0  0  0  0  0  0  0  0  0  0
    2.8219   -4.4988    1.6806 H   0  0  0  0  0  0  0  0  0  0  0  0
    3.0969   -0.0281    1.8762 C   0  0  0  0  0  0  0  0  0  0  0  0
    2.9974    1.0189    1.5170 H   0  0  0  0  0  0  0  0  0  0  0  0
    4.5829   -0.3534    2.0245 C   0  0  0  0  0  0  0  0  0  0  0  0
    5.0612    0.3356    2.7530 H   0  0  0  0  0  0  0  0  0  0  0  0
    5.1238   -0.2480    1.0622 H   0  0  0  0  0  0  0  0  0  0  0  0
    4.7458   -1.3852    2.3992 H   0  0  0  0  0  0  0  0  0  0  0  0
    2.3098   -0.1310    3.1877 C   0  0  0  0  0  0  0  0  0  0  0  0
    2.3323   -1.1550    3.6123 H   0  0  0  0  0  0  0  0  0  0  0  0
    1.2476    0.1419    3.0241 H   0  0  0  0  0  0  0  0  0  0  0  0
    2.7327    0.5565    3.9510 H   0  0  0  0  0  0  0  0  0  0  0  0
   -2.0910   -3.1064   -0.3043 C   0  0  0  0  0  0  0  0  0  0  0  0
   -3.1783   -3.3257   -0.2308 H   0  0  0  0  0  0  0  0  0  0  0  0
   -1.3298   -4.1431    0.5265 C   0  0  0  0  0  0  0  0  0  0  0  0
   -1.4047   -5.1474    0.0596 H   0  0  0  0  0  0  0  0  0  0  0  0
   -1.7204   -4.2244    1.5607 H   0  0  0  0  0  0  0  0  0  0  0  0
   -0.2556   -3.8770    0.5925 H   0  0  0  0  0  0  0  0  0  0  0  0
   -1.6759   -3.1210   -1.7806 C   0  0  0  0  0  0  0  0  0  0  0  0
   -0.6053   -2.8527   -1.8913 H   0  0  0  0  0  0  0  0  0  0  0  0
   -2.2513   -2.3837   -2.3744 H   0  0  0  0  0  0  0  0  0  0  0  0
   -1.8345   -4.1277   -2.2214 H   0  0  0  0  0  0  0  0  0  0  0  0
   -2.4213   -1.4452    2.1533 C   0  0  0  0  0  0  0  0  0  0  0  0
   -1.6722   -2.1129    2.6351 H   0  0  0  0  0  0  0  0  0  0  0  0
   -3.8225   -2.0197    2.3568 C   0  0  0  0  0  0  0  0  0  0  0  0
   -4.0614   -2.0784    3.4402 H   0  0  0  0  0  0  0  0  0  0  0  0
   -3.9284   -3.0417    1.9397 H   0  0  0  0  0  0  0  0  0  0  0  0
   -4.5914   -1.3757    1.8838 H   0  0  0  0  0  0  0  0  0  0  0  0
   -2.2710   -0.0465    2.7628 C   0  0  0  0  0  0  0  0  0  0  0  0
   -2.9682    0.6737    2.2865 H   0  0  0  0  0  0  0  0  0  0  0  0
   -1.2435    0.3446    2.6108 H   0  0  0  0  0  0  0  0  0  0  0  0
   -2.4883   -0.0632    3.8515 H   0  0  0  0  0  0  0  0  0  0  0  0
  1 55  1  0  0  0  0
  2 75  1  0  0  0  0
  4 33  1  0  0  0  0
  4 37  1  0  0  0  0
  5  1  1  0  0  0  0
  6  7  1  0  0  0  0
  6  5  2  0  0  0  0
  8  6  1  0  0  0  0
  9  8  1  0  0  0  0
 10  8  2  0  0  0  0
 10 12  1  0  0  0  0
 11 10  1  0  0  0  0
 12 14  2  0  0  0  0
 13 12  1  0  0  0  0
 14  5  1  0  0  0  0
 15 14  1  6  0  0  0
 15 16  1  0  0  0  0
 16 17  1  0  0  0  0
 16 18  2  0  0  0  0
 18  4  1  0  0  0  0
 19 18  1  0  0  0  0
 19 20  1  0  0  0  0
 21 19  2  0  0  0  0
 22 21  1  0  0  0  0
 22 31  1  0  0  0  0
 23 22  2  0  0  0  0
 24 23  1  0  0  0  0
 25 27  2  0  0  0  0
 25 23  1  0  0  0  0
 26 25  1  0  0  0  0
 27 29  1  0  0  0  0
 28 27  1  0  0  0  0
 29 30  1  0  0  0  0
 29 31  2  0  0  0  0
 31  2  1  0  0  0  0
 32  3  1  6  0  0  0
 32 15  1  0  0  0  0
 32 21  1  0  0  0  0
 33 34  1  0  0  0  0
 33 35  1  0  0  0  0
 36 33  1  0  0  0  0
 37 39  1  0  0  0  0
 37 40  1  0  0  0  0
 38 37  1  0  0  0  0
 41 42  1  0  0  0  0
 41  3  1  0  0  0  0
 43 41  1  0  0  0  0
 44 41  1  0  0  0  0
 45  1  1  0  0  0  0
 45 51  1  0  0  0  0
 46 45  1  0  0  0  0
 47 45  1  0  0  0  0
 48 47  1  0  0  0  0
 49 47  1  0  0  0  0
 50 47  1  0  0  0  0
 51 52  1  0  0  0  0
 51 53  1  0  0  0  0
 54 51  1  0  0  0  0
 55 57  1  0  0  0  0
 55 61  1  0  0  0  0
 56 55  1  0  0  0  0
 57 60  1  0  0  0  0
 57 58  1  0  0  0  0
 59 57  1  0  0  0  0
 61 62  1  0  0  0  0
 61 64  1  0  0  0  0
 63 61  1  0  0  0  0
 65 66  1  0  0  0  0
 65  2  1  0  0  0  0
 65 67  1  0  0  0  0
 67 70  1  0  0  0  0
 67 69  1  0  0  0  0
 68 67  1  0  0  0  0
 71 65  1  0  0  0  0
 72 71  1  0  0  0  0
 73 71  1  0  0  0  0
 74 71  1  0  0  0  0
 75 77  1  0  0  0  0
 75 76  1  0  0  0  0
 75 81  1  0  0  0  0
 77 78  1  0  0  0  0
 79 77  1  0  0  0  0
 80 77  1  0  0  0  0
 81 84  1  0  0  0  0
 82 81  1  0  0  0  0
 83 81  1  0  0  0  0
M  END
