1,2,11
q = -1.0, confidence = 0.02

 66 66  0  0  0  0  0  0  0  0999 V2000
   -2.2635   -0.0163    0.3490 P   0  0  0  0  0  0  0  0  0  0  0  0
    2.2634   -0.0142    0.3491 P   0  0  0  0  0  0  0  0  0  0  0  0
   -0.0012    2.1275    1.1227 C   0  0  0  0  0  0  0  0  0  0  0  0
    1.2363    2.6239    0.6264 C   0  0  0  0  0  0  0  0  0  0  0  0
    1.2363    3.7648   -0.2084 C   0  0  0  0  0  0  0  0  0  0  0  0
   -0.0024    4.3337   -0.5679 C   0  0  0  0  0  0  0  0  0  0  0  0
   -1.2405    3.7639   -0.2078 C   0  0  0  0  0  0  0  0  0  0  0  0
   -1.2394    2.6229    0.6267 C   0  0  0  0  0  0  0  0  0  0  0  0
   -2.5239    4.3732   -0.7207 C   0  0  0  0  0  0  0  0  0  0  0  0
    2.5190    4.3748   -0.7220 C   0  0  0  0  0  0  0  0  0  0  0  0
   -0.0006    0.9311    1.9908 C   0  0  0  0  0  3  0  0  0  0  0  0
   -2.4743    1.7953    0.9061 C   0  0  0  0  0  0  0  0  0  0  0  0
   -2.9457   -0.0624   -1.3918 C   0  0  0  0  0  0  0  0  0  0  0  0
   -3.4919   -0.9743    1.3881 C   0  0  0  0  0  0  0  0  0  0  0  0
   -2.0651    0.7705   -2.3290 C   0  0  0  0  0  0  0  0  0  0  0  0
   -4.4263    0.3146   -1.4932 C   0  0  0  0  0  0  0  0  0  0  0  0
   -3.6513   -2.3887    0.8139 C   0  0  0  0  0  0  0  0  0  0  0  0
   -3.0223   -1.0214    2.8476 C   0  0  0  0  0  0  0  0  0  0  0  0
    2.4721    1.7977    0.9059 C   0  0  0  0  0  0  0  0  0  0  0  0
    2.9470   -0.0602   -1.3912 C   0  0  0  0  0  0  0  0  0  0  0  0
    3.4924   -0.9706    1.3891 C   0  0  0  0  0  0  0  0  0  0  0  0
    3.0217   -1.0186    2.8482 C   0  0  0  0  0  0  0  0  0  0  0  0
    3.6543   -2.3847    0.8150 C   0  0  0  0  0  0  0  0  0  0  0  0
    2.0650    0.7694   -2.3301 C   0  0  0  0  0  0  0  0  0  0  0  0
    4.4267    0.3206   -1.4916 C   0  0  0  0  0  0  0  0  0  0  0  0
   -0.0029    5.2403   -1.1943 H   0  0  0  0  0  0  0  0  0  0  0  0
   -3.2276    4.6144    0.1030 H   0  0  0  0  0  0  0  0  0  0  0  0
   -3.0648    3.6903   -1.4117 H   0  0  0  0  0  0  0  0  0  0  0  0
   -2.3248    5.3085   -1.2780 H   0  0  0  0  0  0  0  0  0  0  0  0
    3.0600    3.6920   -1.4130 H   0  0  0  0  0  0  0  0  0  0  0  0
    3.2229    4.6169    0.1013 H   0  0  0  0  0  0  0  0  0  0  0  0
    2.3189    5.3098   -1.2797 H   0  0  0  0  0  0  0  0  0  0  0  0
   -0.8912    0.8388    2.6359 H   0  0  0  0  0  0  0  0  0  0  0  0
    0.8900    0.8397    2.6359 H   0  0  0  0  0  0  0  0  0  0  0  0
   -3.3773    2.2032    0.4142 H   0  0  0  0  0  0  0  0  0  0  0  0
   -2.7051    1.7418    1.9909 H   0  0  0  0  0  0  0  0  0  0  0  0
   -2.8077   -1.1323   -1.6664 H   0  0  0  0  0  0  0  0  0  0  0  0
   -4.4616   -0.4304    1.3330 H   0  0  0  0  0  0  0  0  0  0  0  0
   -1.0110    0.4395   -2.2730 H   0  0  0  0  0  0  0  0  0  0  0  0
   -2.0958    1.8496   -2.0807 H   0  0  0  0  0  0  0  0  0  0  0  0
   -2.4093    0.6494   -3.3766 H   0  0  0  0  0  0  0  0  0  0  0  0
   -4.6058    1.3693   -1.1962 H   0  0  0  0  0  0  0  0  0  0  0  0
   -5.0794   -0.3305   -0.8730 H   0  0  0  0  0  0  0  0  0  0  0  0
   -4.7664    0.2148   -2.5450 H   0  0  0  0  0  0  0  0  0  0  0  0
   -4.1157   -2.3900   -0.1912 H   0  0  0  0  0  0  0  0  0  0  0  0
   -4.2940   -2.9991    1.4816 H   0  0  0  0  0  0  0  0  0  0  0  0
   -2.6653   -2.8911    0.7246 H   0  0  0  0  0  0  0  0  0  0  0  0
   -2.9519   -0.0155    3.3080 H   0  0  0  0  0  0  0  0  0  0  0  0
   -2.0246   -1.5014    2.9202 H   0  0  0  0  0  0  0  0  0  0  0  0
   -3.7354   -1.6138    3.4572 H   0  0  0  0  0  0  0  0  0  0  0  0
    2.7027    1.7445    1.9909 H   0  0  0  0  0  0  0  0  0  0  0  0
    3.3748    2.2066    0.4143 H   0  0  0  0  0  0  0  0  0  0  0  0
    2.8122   -1.1308   -1.6648 H   0  0  0  0  0  0  0  0  0  0  0  0
    4.4614   -0.4253    1.3349 H   0  0  0  0  0  0  0  0  0  0  0  0
    2.9495   -0.0127    3.3087 H   0  0  0  0  0  0  0  0  0  0  0  0
    3.7351   -1.6100    3.4584 H   0  0  0  0  0  0  0  0  0  0  0  0
    2.0245   -1.4999    2.9200 H   0  0  0  0  0  0  0  0  0  0  0  0
    4.1201   -2.3854   -0.1895 H   0  0  0  0  0  0  0  0  0  0  0  0
    2.6691   -2.8884    0.7244 H   0  0  0  0  0  0  0  0  0  0  0  0
    4.2968   -2.9944    1.4835 H   0  0  0  0  0  0  0  0  0  0  0  0
    1.0127    0.4322   -2.2784 H   0  0  0  0  0  0  0  0  0  0  0  0
    2.4136    0.6517   -3.3767 H   0  0  0  0  0  0  0  0  0  0  0  0
    2.0888    1.8483   -2.0802 H   0  0  0  0  0  0  0  0  0  0  0  0
    5.0808   -0.3213   -0.8691 H   0  0  0  0  0  0  0  0  0  0  0  0
    4.6029    1.3765   -1.1967 H   0  0  0  0  0  0  0  0  0  0  0  0
    4.7683    0.2193   -2.5427 H   0  0  0  0  0  0  0  0  0  0  0  0
  1 12  1  0  0  0  0
  1 14  1  0  0  0  0
  2 19  1  0  0  0  0
  2 21  1  0  0  0  0
  3 11  1  0  0  0  0
  4 19  1  0  0  0  0
  4  3  2  0  0  0  0
  5  4  1  0  0  0  0
  6  5  2  0  0  0  0
  6  7  1  0  0  0  0
  7  8  2  0  0  0  0
  8 12  1  0  0  0  0
  8  3  1  0  0  0  0
  9  7  1  0  0  0  0
  9 27  1  0  0  0  0
 10  5  1  0  0  0  0
 10 31  1  0  0  0  0
 11 33  1  0  0  0  0
 11 34  1  0  0  0  0
 12 36  1  0  0  0  0
 13  1  1  0  0  0  0
 14 18  1  0  0  0  0
 15 39  1  0  0  0  0
 15 40  1  0  0  0  0
 15 13  1  0  0  0  0
 16 13  1  0  0  0  0
 16 42  1  0  0  0  0
 16 43  1  0  0  0  0
 17 14  1  0  0  0  0
 17 46  1  0  0  0  0
 18 49  1  0  0  0  0
 18 48  1  0  0  0  0
 18 50  1  0  0  0  0
 19 51  1  0  0  0  0
 20  2  1  0  0  0  0
 21 22  1  0  0  0  0
 22 57  1  0  0  0  0
 22 55  1  0  0  0  0
 22 56  1  0  0  0  0
 23 21  1  0  0  0  0
 23 60  1  0  0  0  0
 24 61  1  0  0  0  0
 24 63  1  0  0  0  0
 24 20  1  0  0  0  0
 25 20  1  0  0  0  0
 25 65  1  0  0  0  0
 25 64  1  0  0  0  0
 26  6  1  0  0  0  0
 28  9  1  0  0  0  0
 29  9  1  0  0  0  0
 30 10  1  0  0  0  0
 32 10  1  0  0  0  0
 35 12  1  0  0  0  0
 37 13  1  0  0  0  0
 38 14  1  0  0  0  0
 41 15  1  0  0  0  0
 44 16  1  0  0  0  0
 45 17  1  0  0  0  0
 47 17  1  0  0  0  0
 52 19  1  0  0  0  0
 53 20  1  0  0  0  0
 54 21  1  0  0  0  0
 58 23  1  0  0  0  0
 59 23  1  0  0  0  0
 62 24  1  0  0  0  0
 66 25  1  0  0  0  0
M  END
