1,2,9
q = -1.0, confidence = 0.0

 53 53  0  0  0  0  0  0  0  0999 V2000
   -2.2946    0.0641    0.0544 P   0  0  0  0  0  0  0  0  0  0  0  0
    2.2725   -0.0165   -0.0509 P   0  0  0  0  0  0  0  0  0  0  0  0
    1.0983    2.3769    0.0598 N   0  0  0  0  0  0  0  0  0  0  0  0
    0.7424    3.6957    0.0177 N   0  0  0  0  0  0  0  0  0  0  0  0
   -0.5726    3.7339   -0.0682 N   0  0  0  0  0  0  0  0  0  0  0  0
    2.4452    1.8562    0.1793 C   0  0  0  0  0  0  0  0  0  0  0  0
    2.8687    2.0764    1.1821 H   0  0  0  0  0  0  0  0  0  0  0  0
    3.1155    2.3036   -0.5825 H   0  0  0  0  0  0  0  0  0  0  0  0
    0.0046    1.5604    0.0066 C   0  0  0  0  0  3  0  0  0  0  0  0
   -1.0626    2.4559   -0.0777 C   0  0  0  0  0  0  0  0  0  0  0  0
   -2.4662    1.9329   -0.1772 C   0  0  0  0  0  0  0  0  0  0  0  0
   -2.9280    2.1331   -1.1682 H   0  0  0  0  0  0  0  0  0  0  0  0
   -3.1548    2.3518    0.5867 H   0  0  0  0  0  0  0  0  0  0  0  0
   -3.3086   -0.7514   -1.2750 C   0  0  0  0  0  0  0  0  0  0  0  0
   -3.2195   -1.8297   -1.0176 H   0  0  0  0  0  0  0  0  0  0  0  0
   -2.6206   -0.5341   -2.6290 C   0  0  0  0  0  0  0  0  0  0  0  0
   -1.5803   -0.9159   -2.6057 H   0  0  0  0  0  0  0  0  0  0  0  0
   -2.5877    0.5397   -2.9087 H   0  0  0  0  0  0  0  0  0  0  0  0
   -3.1713   -1.0706   -3.4288 H   0  0  0  0  0  0  0  0  0  0  0  0
   -4.7818   -0.3340   -1.2685 C   0  0  0  0  0  0  0  0  0  0  0  0
   -5.2760   -0.5463   -0.2995 H   0  0  0  0  0  0  0  0  0  0  0  0
   -5.3395   -0.8857   -2.0538 H   0  0  0  0  0  0  0  0  0  0  0  0
   -4.8996    0.7487   -1.4820 H   0  0  0  0  0  0  0  0  0  0  0  0
   -3.1087   -0.3006    1.6916 C   0  0  0  0  0  0  0  0  0  0  0  0
   -4.1179    0.1685    1.6547 H   0  0  0  0  0  0  0  0  0  0  0  0
   -3.2364   -1.8151    1.8946 C   0  0  0  0  0  0  0  0  0  0  0  0
   -3.9449   -2.2768    1.1786 H   0  0  0  0  0  0  0  0  0  0  0  0
   -3.6093   -2.0290    2.9176 H   0  0  0  0  0  0  0  0  0  0  0  0
   -2.2525   -2.3138    1.7653 H   0  0  0  0  0  0  0  0  0  0  0  0
   -2.2854    0.3591    2.8062 C   0  0  0  0  0  0  0  0  0  0  0  0
   -2.1546    1.4490    2.6525 H   0  0  0  0  0  0  0  0  0  0  0  0
   -1.2736   -0.0934    2.8577 H   0  0  0  0  0  0  0  0  0  0  0  0
   -2.7836    0.2092    3.7861 H   0  0  0  0  0  0  0  0  0  0  0  0
    3.0745   -0.3598   -1.6980 C   0  0  0  0  0  0  0  0  0  0  0  0
    4.0912    0.0931   -1.6664 H   0  0  0  0  0  0  0  0  0  0  0  0
    2.2480    0.3210   -2.7976 C   0  0  0  0  0  0  0  0  0  0  0  0
    2.1412    1.4133   -2.6406 H   0  0  0  0  0  0  0  0  0  0  0  0
    1.2268   -0.1105   -2.8377 H   0  0  0  0  0  0  0  0  0  0  0  0
    2.7306    0.1663   -3.7843 H   0  0  0  0  0  0  0  0  0  0  0  0
    3.1754   -1.8755   -1.9120 C   0  0  0  0  0  0  0  0  0  0  0  0
    3.8825   -2.3535   -1.2052 H   0  0  0  0  0  0  0  0  0  0  0  0
    3.5357   -2.0883   -2.9394 H   0  0  0  0  0  0  0  0  0  0  0  0
    2.1839   -2.3580   -1.7780 H   0  0  0  0  0  0  0  0  0  0  0  0
    3.3266   -0.7892    1.2728 C   0  0  0  0  0  0  0  0  0  0  0  0
    3.2637   -1.8705    1.0195 H   0  0  0  0  0  0  0  0  0  0  0  0
    2.6469   -0.5868    2.6333 C   0  0  0  0  0  0  0  0  0  0  0  0
    1.6120   -0.9833    2.6183 H   0  0  0  0  0  0  0  0  0  0  0  0
    2.6004    0.4852    2.9181 H   0  0  0  0  0  0  0  0  0  0  0  0
    3.2138   -1.1166    3.4260 H   0  0  0  0  0  0  0  0  0  0  0  0
    4.7893   -0.3364    1.2470 C   0  0  0  0  0  0  0  0  0  0  0  0
    5.2769   -0.5386    0.2725 H   0  0  0  0  0  0  0  0  0  0  0  0
    5.3694   -0.8735    2.0260 H   0  0  0  0  0  0  0  0  0  0  0  0
    4.8856    0.7487    1.4599 H   0  0  0  0  0  0  0  0  0  0  0  0
  1 24  1  0  0  0  0
  2  6  1  0  0  0  0
  2 44  1  0  0  0  0
  3  6  1  0  0  0  0
  4  3  1  0  0  0  0
  5  4  2  0  0  0  0
  6  7  1  0  0  0  0
  8  6  1  0  0  0  0
  9  3  1  0  0  0  0
 10  5  1  0  0  0  0
 10  9  2  0  0  0  0
 11 10  1  0  0  0  0
 11  1  1  0  0  0  0
 11 13  1  0  0  0  0
 12 11  1  0  0  0  0
 14 20  1  0  0  0  0
 14 15  1  0  0  0  0
 14  1  1  0  0  0  0
 16 17  1  0  0  0  0
 16 14  1  0  0  0  0
 18 16  1  0  0  0  0
 19 16  1  0  0  0  0
 20 21  1  0  0  0  0
 22 20  1  0  0  0  0
 23 20  1  0  0  0  0
 24 26  1  0  0  0  0
 24 30  1  0  0  0  0
 25 24  1  0  0  0  0
 26 28  1  0  0  0  0
 27 26  1  0  0  0  0
 29 26  1  0  0  0  0
 30 32  1  0  0  0  0
 30 33  1  0  0  0  0
 31 30  1  0  0  0  0
 34 35  1  0  0  0  0
 34  2  1  0  0  0  0
 36 37  1  0  0  0  0
 36 34  1  0  0  0  0
 38 36  1  0  0  0  0
 39 36  1  0  0  0  0
 40 43  1  0  0  0  0
 40 34  1  0  0  0  0
 40 41  1  0  0  0  0
 42 40  1  0  0  0  0
 44 46  1  0  0  0  0
 45 44  1  0  0  0  0
 46 48  1  0  0  0  0
 46 49  1  0  0  0  0
 47 46  1  0  0  0  0
 50 44  1  0  0  0  0
 50 53  1  0  0  0  0
 50 52  1  0  0  0  0
 51 50  1  0  0  0  0
M  END
