1,2,10
q = -1.0, confidence = 0.024

 66 65  0  0  0  0  0  0  0  0999 V2000
   -2.1665    0.0394    0.2397 P   0  0  0  0  0  0  0  0  0  0  0  0
    2.1666    0.0394    0.2397 P   0  0  0  0  0  0  0  0  0  0  0  0
   -2.4293    0.3694    1.9059 N   0  0  0  0  0  0  0  0  0  0  0  0
   -3.3361    0.7294    2.2170 H   0  0  0  0  0  0  0  0  0  0  0  0
    2.4295    0.3696    1.9060 N   0  0  0  0  0  0  0  0  0  0  0  0
    3.3362    0.7305    2.2166 H   0  0  0  0  0  0  0  0  0  0  0  0
    1.2583    0.8832    2.6030 C   0  0  0  0  0  0  0  0  0  0  0  0
    1.1537    1.9929    2.5100 H   0  0  0  0  0  0  0  0  0  0  0  0
    1.3626    0.6707    3.6947 H   0  0  0  0  0  0  0  0  0  0  0  0
    0.0001    0.2143    2.0440 C   0  0  0  0  0  3  0  0  0  0  0  0
    0.0000   -0.8571    2.3663 H   0  0  0  0  0  0  0  0  0  0  0  0
   -1.2581    0.8832    2.6029 C   0  0  0  0  0  0  0  0  0  0  0  0
   -1.3625    0.6709    3.6947 H   0  0  0  0  0  0  0  0  0  0  0  0
   -1.1536    1.9929    2.5097 H   0  0  0  0  0  0  0  0  0  0  0  0
    3.1794   -1.5527   -0.0228 C   0  0  0  0  0  0  0  0  0  0  0  0
    2.2551   -2.6695    0.5034 C   0  0  0  0  0  0  0  0  0  0  0  0
    2.7928   -3.6413    0.4710 H   0  0  0  0  0  0  0  0  0  0  0  0
    1.3434   -2.7498   -0.1205 H   0  0  0  0  0  0  0  0  0  0  0  0
    1.9519   -2.4794    1.5531 H   0  0  0  0  0  0  0  0  0  0  0  0
    3.4715   -1.7949   -1.5116 C   0  0  0  0  0  0  0  0  0  0  0  0
    3.8966   -2.8142   -1.6342 H   0  0  0  0  0  0  0  0  0  0  0  0
    4.2158   -1.0798   -1.9141 H   0  0  0  0  0  0  0  0  0  0  0  0
    2.5439   -1.7317   -2.1147 H   0  0  0  0  0  0  0  0  0  0  0  0
    4.4792   -1.5472    0.7979 C   0  0  0  0  0  0  0  0  0  0  0  0
    4.9789   -2.5335    0.6883 H   0  0  0  0  0  0  0  0  0  0  0  0
    4.2718   -1.3963    1.8756 H   0  0  0  0  0  0  0  0  0  0  0  0
    5.1974   -0.7756    0.4608 H   0  0  0  0  0  0  0  0  0  0  0  0
    2.9084    1.5192   -0.7189 C   0  0  0  0  0  0  0  0  0  0  0  0
    4.4235    1.6598   -0.5162 C   0  0  0  0  0  0  0  0  0  0  0  0
    4.7704    2.6150   -0.9665 H   0  0  0  0  0  0  0  0  0  0  0  0
    4.9886    0.8415   -1.0025 H   0  0  0  0  0  0  0  0  0  0  0  0
    4.7036    1.6877    0.5576 H   0  0  0  0  0  0  0  0  0  0  0  0
    2.5655    1.4253   -2.2146 C   0  0  0  0  0  0  0  0  0  0  0  0
    2.8558    2.3746   -2.7145 H   0  0  0  0  0  0  0  0  0  0  0  0
    1.4829    1.2539   -2.3708 H   0  0  0  0  0  0  0  0  0  0  0  0
    3.1014    0.6012   -2.7197 H   0  0  0  0  0  0  0  0  0  0  0  0
    2.1983    2.7519   -0.1249 C   0  0  0  0  0  0  0  0  0  0  0  0
    2.4891    3.6587   -0.6962 H   0  0  0  0  0  0  0  0  0  0  0  0
    2.4690    2.9167    0.9365 H   0  0  0  0  0  0  0  0  0  0  0  0
    1.0956    2.6447   -0.1840 H   0  0  0  0  0  0  0  0  0  0  0  0
   -2.9084    1.5192   -0.7187 C   0  0  0  0  0  0  0  0  0  0  0  0
   -2.1988    2.7520   -0.1243 C   0  0  0  0  0  0  0  0  0  0  0  0
   -2.4899    3.6588   -0.6955 H   0  0  0  0  0  0  0  0  0  0  0  0
   -1.0961    2.6452   -0.1833 H   0  0  0  0  0  0  0  0  0  0  0  0
   -2.4698    2.9164    0.9370 H   0  0  0  0  0  0  0  0  0  0  0  0
   -2.5652    1.4257   -2.2144 C   0  0  0  0  0  0  0  0  0  0  0  0
   -2.8566    2.3746   -2.7143 H   0  0  0  0  0  0  0  0  0  0  0  0
   -3.1000    0.6009   -2.7195 H   0  0  0  0  0  0  0  0  0  0  0  0
   -1.4824    1.2556   -2.3704 H   0  0  0  0  0  0  0  0  0  0  0  0
   -4.4236    1.6593   -0.5163 C   0  0  0  0  0  0  0  0  0  0  0  0
   -4.7707    2.6145   -0.9663 H   0  0  0  0  0  0  0  0  0  0  0  0
   -4.7038    1.6868    0.5576 H   0  0  0  0  0  0  0  0  0  0  0  0
   -4.9883    0.8410   -1.0029 H   0  0  0  0  0  0  0  0  0  0  0  0
   -3.1795   -1.5526   -0.0229 C   0  0  0  0  0  0  0  0  0  0  0  0
   -4.4792   -1.5470    0.7977 C   0  0  0  0  0  0  0  0  0  0  0  0
   -4.9791   -2.5332    0.6880 H   0  0  0  0  0  0  0  0  0  0  0  0
   -5.1974   -0.7752    0.4607 H   0  0  0  0  0  0  0  0  0  0  0  0
   -4.2719   -1.3963    1.8755 H   0  0  0  0  0  0  0  0  0  0  0  0
   -3.4716   -1.7948   -1.5117 C   0  0  0  0  0  0  0  0  0  0  0  0
   -3.8970   -2.8139   -1.6343 H   0  0  0  0  0  0  0  0  0  0  0  0
   -2.5440   -1.7318   -2.1148 H   0  0  0  0  0  0  0  0  0  0  0  0
   -4.2157   -1.0795   -1.9143 H   0  0  0  0  0  0  0  0  0  0  0  0
   -2.2552   -2.6695    0.5033 C   0  0  0  0  0  0  0  0  0  0  0  0
   -2.7930   -3.6412    0.4709 H   0  0  0  0  0  0  0  0  0  0  0  0
   -1.9521   -2.4794    1.5530 H   0  0  0  0  0  0  0  0  0  0  0  0
   -1.3435   -2.7499   -0.1206 H   0  0  0  0  0  0  0  0  0  0  0  0
  1  3  1  0  0  0  0
  2  5  1  0  0  0  0
  3  4  1  0  0  0  0
  3 12  1  0  0  0  0
  5  6  1  0  0  0  0
  5  7  1  0  0  0  0
  7  9  1  0  0  0  0
  8  7  1  0  0  0  0
 10 11  1  0  0  0  0
 10 12  1  0  0  0  0
 10  7  1  0  0  0  0
 12 13  1  0  0  0  0
 14 12  1  0  0  0  0
 15  2  1  0  0  0  0
 15 16  1  0  0  0  0
 15 24  1  0  0  0  0
 16 19  1  0  0  0  0
 17 16  1  0  0  0  0
 18 16  1  0  0  0  0
 20 15  1  0  0  0  0
 21 20  1  0  0  0  0
 22 20  1  0  0  0  0
 23 20  1  0  0  0  0
 24 26  1  0  0  0  0
 25 24  1  0  0  0  0
 27 24  1  0  0  0  0
 28 29  1  0  0  0  0
 28 37  1  0  0  0  0
 28  2  1  0  0  0  0
 29 32  1  0  0  0  0
 30 29  1  0  0  0  0
 31 29  1  0  0  0  0
 33 28  1  0  0  0  0
 34 33  1  0  0  0  0
 35 33  1  0  0  0  0
 36 33  1  0  0  0  0
 37 39  1  0  0  0  0
 38 37  1  0  0  0  0
 40 37  1  0  0  0  0
 41 50  1  0  0  0  0
 41 42  1  0  0  0  0
 41  1  1  0  0  0  0
 42 45  1  0  0  0  0
 43 42  1  0  0  0  0
 44 42  1  0  0  0  0
 46 41  1  0  0  0  0
 47 46  1  0  0  0  0
 48 46  1  0  0  0  0
 49 46  1  0  0  0  0
 50 52  1  0  0  0  0
 51 50  1  0  0  0  0
 53 50  1  0  0  0  0
 54  1  1  0  0  0  0
 54 63  1  0  0  0  0
 54 55  1  0  0  0  0
 55 58  1  0  0  0  0
 56 55  1  0  0  0  0
 57 55  1  0  0  0  0
 59 54  1  0  0  0  0
 60 59  1  0  0  0  0
 61 59  1  0  0  0  0
 62 59  1  0  0  0  0
 63 65  1  0  0  0  0
 64 63  1  0  0  0  0
 66 63  1  0  0  0  0
M  END
