1,2,60
q = -1.0, confidence = 0.0

 60 60  0  0  0  0  0  0  0  0999 V2000
    1.9063   -0.4422    0.0658 P   0  0  0  0  0  0  0  0  0  0  0  0
   -0.8848   -1.5838    0.5527 P   0  0  1  0  0  0  0  0  0  0  0  0
    2.7560    0.4574    1.5465 C   0  0  0  0  0  0  0  0  0  0  0  0
    1.6084    0.8570    2.4958 C   0  0  0  0  0  0  0  0  0  0  0  0
    0.8781    1.5056    1.9744 H   0  0  0  0  0  0  0  0  0  0  0  0
    2.0273    1.4155    3.3605 H   0  0  0  0  0  0  0  0  0  0  0  0
    1.0695   -0.0227    2.9016 H   0  0  0  0  0  0  0  0  0  0  0  0
    3.4514    1.7434    1.0697 C   0  0  0  0  0  0  0  0  0  0  0  0
    4.3779    1.5306    0.5017 H   0  0  0  0  0  0  0  0  0  0  0  0
    3.7419    2.3400    1.9611 H   0  0  0  0  0  0  0  0  0  0  0  0
    2.7651    2.3570    0.4498 H   0  0  0  0  0  0  0  0  0  0  0  0
    3.7584   -0.4258    2.3064 C   0  0  0  0  0  0  0  0  0  0  0  0
    3.2717   -1.2812    2.8159 H   0  0  0  0  0  0  0  0  0  0  0  0
    4.2394    0.1859    3.0993 H   0  0  0  0  0  0  0  0  0  0  0  0
    4.5658   -0.8184    1.6587 H   0  0  0  0  0  0  0  0  0  0  0  0
    3.0734   -0.5953   -1.4453 C   0  0  0  0  0  0  0  0  0  0  0  0
    3.2694    0.7810   -2.1070 C   0  0  0  0  0  0  0  0  0  0  0  0
    2.3006    1.2807   -2.3099 H   0  0  0  0  0  0  0  0  0  0  0  0
    3.7969    0.6374   -3.0742 H   0  0  0  0  0  0  0  0  0  0  0  0
    3.8775    1.4678   -1.4935 H   0  0  0  0  0  0  0  0  0  0  0  0
    2.3227   -1.4835   -2.4592 C   0  0  0  0  0  0  0  0  0  0  0  0
    2.2229   -2.5357   -2.1274 H   0  0  0  0  0  0  0  0  0  0  0  0
    2.8875   -1.4958   -3.4149 H   0  0  0  0  0  0  0  0  0  0  0  0
    1.3097   -1.0810   -2.6660 H   0  0  0  0  0  0  0  0  0  0  0  0
    4.4305   -1.2244   -1.0983 C   0  0  0  0  0  0  0  0  0  0  0  0
    5.0329   -0.5694   -0.4393 H   0  0  0  0  0  0  0  0  0  0  0  0
    5.0158   -1.3770   -2.0309 H   0  0  0  0  0  0  0  0  0  0  0  0
    4.3287   -2.2138   -0.6081 H   0  0  0  0  0  0  0  0  0  0  0  0
    1.7967   -2.2248    0.6750 C   0  0  0  0  0  0  0  0  0  0  0  0
    1.7998   -2.8543   -0.2354 H   0  0  0  0  0  0  0  0  0  0  0  0
    2.6888   -2.5128    1.2638 H   0  0  0  0  0  0  0  0  0  0  0  0
    0.4967   -2.4619    1.4556 C   0  0  0  0  0  0  0  0  0  0  0  0
    0.5504   -2.0177    2.4703 H   0  0  0  0  0  0  0  0  0  0  0  0
    0.2858   -3.5434    1.5879 H   0  0  0  0  0  0  0  0  0  0  0  0
   -1.7760   -2.9456   -0.4362 C   0  0  0  0  0  0  0  0  0  0  0  0
   -2.8175   -2.3028   -1.3679 C   0  0  0  0  0  0  0  0  0  0  0  0
   -3.6206   -1.7846   -0.8104 H   0  0  0  0  0  0  0  0  0  0  0  0
   -3.2826   -3.0976   -1.9898 H   0  0  0  0  0  0  0  0  0  0  0  0
   -2.3503   -1.5576   -2.0403 H   0  0  0  0  0  0  0  0  0  0  0  0
   -0.7153   -3.6602   -1.2913 C   0  0  0  0  0  0  0  0  0  0  0  0
   -0.1726   -2.9446   -1.9399 H   0  0  0  0  0  0  0  0  0  0  0  0
   -1.2143   -4.4018   -1.9500 H   0  0  0  0  0  0  0  0  0  0  0  0
    0.0249   -4.2130   -0.6783 H   0  0  0  0  0  0  0  0  0  0  0  0
   -2.4545   -3.9441    0.5135 C   0  0  0  0  0  0  0  0  0  0  0  0
   -1.7419   -4.4006    1.2310 H   0  0  0  0  0  0  0  0  0  0  0  0
   -2.9014   -4.7718   -0.0779 H   0  0  0  0  0  0  0  0  0  0  0  0
   -3.2748   -3.4733    1.0902 H   0  0  0  0  0  0  0  0  0  0  0  0
   -2.1223   -0.9141    1.7749 C   0  0  0  0  0  0  0  0  0  0  0  0
   -2.7768   -1.6735    2.2491 H   0  0  0  0  0  0  0  0  0  0  0  0
   -1.5314   -0.4194    2.5768 H   0  0  0  0  0  0  0  0  0  0  0  0
   -2.8621    0.0751    0.8953 C   0  0  0  0  0  0  0  0  0  0  0  0
   -4.2432    0.3146    1.0187 C   0  0  0  0  0  0  0  0  0  0  0  0
   -4.8052   -0.1301    1.8564 H   0  0  0  0  0  0  0  0  0  0  0  0
   -4.9113    1.0878    0.0555 C   0  0  0  0  0  0  0  0  0  0  0  0
   -5.9929    1.2709    0.1479 H   0  0  0  0  0  0  0  0  0  0  0  0
   -4.1960    1.5957   -1.0418 C   0  0  0  0  0  0  0  0  0  0  0  0
   -4.7214    2.1693   -1.8221 H   0  0  0  0  0  0  0  0  0  0  0  0
   -2.8118    1.3766   -1.1505 C   0  0  0  0  0  0  0  0  0  0  0  0
   -2.2618    1.7742   -2.0186 H   0  0  0  0  0  0  0  0  0  0  0  0
   -2.1022    0.6442   -0.1737 C   0  0  0  0  0  3  0  0  0  0  0  0
  1 29  1  0  0  0  0
  1  3  1  0  0  0  0
  2 35  1  6  0  0  0
  2 32  1  0  0  0  0
  2 48  1  0  0  0  0
  3 12  1  0  0  0  0
  3  4  1  0  0  0  0
  4  7  1  0  0  0  0
  4  6  1  0  0  0  0
  5  4  1  0  0  0  0
  8  3  1  0  0  0  0
  8 10  1  0  0  0  0
  9  8  1  0  0  0  0
 11  8  1  0  0  0  0
 12 13  1  0  0  0  0
 12 14  1  0  0  0  0
 15 12  1  0  0  0  0
 16 25  1  0  0  0  0
 16  1  1  0  0  0  0
 17 20  1  0  0  0  0
 17 16  1  0  0  0  0
 18 17  1  0  0  0  0
 19 17  1  0  0  0  0
 21 22  1  0  0  0  0
 21 16  1  0  0  0  0
 23 21  1  0  0  0  0
 24 21  1  0  0  0  0
 25 28  1  0  0  0  0
 25 26  1  0  0  0  0
 27 25  1  0  0  0  0
 29 31  1  0  0  0  0
 29 32  1  0  0  0  0
 30 29  1  0  0  0  0
 32 34  1  0  0  0  0
 32 33  1  0  0  0  0
 35 44  1  0  0  0  0
 36 37  1  0  0  0  0
 36 35  1  0  0  0  0
 38 36  1  0  0  0  0
 39 36  1  0  0  0  0
 40 43  1  0  0  0  0
 40 35  1  0  0  0  0
 41 40  1  0  0  0  0
 42 40  1  0  0  0  0
 44 47  1  0  0  0  0
 44 45  1  0  0  0  0
 46 44  1  0  0  0  0
 48 49  1  0  0  0  0
 48 50  1  0  0  0  0
 51 52  1  0  0  0  0
 51 48  1  0  0  0  0
 52 53  1  0  0  0  0
 54 55  1  0  0  0  0
 54 52  2  0  0  0  0
 56 54  1  0  0  0  0
 57 56  1  0  0  0  0
 58 56  2  0  0  0  0
 58 60  1  0  0  0  0
 59 58  1  0  0  0  0
 60 51  2  0  0  0  0
M  END
