1,2,4
q = -1.0, confidence = 0.016

 65 67  0  0  0  0  0  0  0  0999 V2000
    1.8993    0.1059    0.3655 P   0  0  0  0  0  0  0  0  0  0  0  0
   -2.6210   -0.1767   -0.2099 P   0  0  0  0  0  0  0  0  0  0  0  0
   -1.7880    2.1359    1.0241 C   0  0  0  0  0  0  0  0  0  0  0  0
   -0.5506    1.4298    1.0297 C   0  0  0  0  0  3  0  0  0  0  0  0
    0.5209    1.9596    1.8077 C   0  0  0  0  0  0  0  0  0  0  0  0
    0.3557    3.1543    2.5358 C   0  0  0  0  0  0  0  0  0  0  0  0
   -0.8718    3.8313    2.5241 C   0  0  0  0  0  0  0  0  0  0  0  0
   -1.9393    3.3187    1.7736 C   0  0  0  0  0  0  0  0  0  0  0  0
   -2.9281    1.6179    0.1781 C   0  0  0  0  0  0  0  0  0  0  0  0
    1.8308    1.2054    1.8599 C   0  0  0  0  0  0  0  0  0  0  0  0
    2.6723    1.1037   -0.9607 C   0  0  0  0  0  0  0  0  0  0  0  0
    2.5512    2.5089   -0.9813 C   0  0  0  0  0  0  0  0  0  0  0  0
    3.0882    3.2425   -2.0499 C   0  0  0  0  0  0  0  0  0  0  0  0
    3.7381    2.5837   -3.1057 C   0  0  0  0  0  0  0  0  0  0  0  0
    3.8467    1.1833   -3.0940 C   0  0  0  0  0  0  0  0  0  0  0  0
    3.3144    0.4429   -2.0293 C   0  0  0  0  0  0  0  0  0  0  0  0
    3.1371   -1.1864    0.7512 C   0  0  0  0  0  0  0  0  0  0  0  0
    2.7391   -2.5365    0.8063 C   0  0  0  0  0  0  0  0  0  0  0  0
    3.6777   -3.5222    1.1535 C   0  0  0  0  0  0  0  0  0  0  0  0
    5.0031   -3.1670    1.4459 C   0  0  0  0  0  0  0  0  0  0  0  0
    5.4019   -1.8202    1.3838 C   0  0  0  0  0  0  0  0  0  0  0  0
    4.4738   -0.8304    1.0334 C   0  0  0  0  0  0  0  0  0  0  0  0
   -3.3731   -0.4321   -1.9375 C   0  0  0  0  0  0  0  0  0  0  0  0
   -2.3354    0.1718   -2.9070 C   0  0  0  0  0  0  0  0  0  0  0  0
   -4.7242    0.2854   -2.1036 C   0  0  0  0  0  0  0  0  0  0  0  0
   -3.5198   -1.9330   -2.2394 C   0  0  0  0  0  0  0  0  0  0  0  0
   -3.4971   -1.1689    1.1553 C   0  0  0  0  0  0  0  0  0  0  0  0
   -5.0278   -1.0728    1.0797 C   0  0  0  0  0  0  0  0  0  0  0  0
   -3.0335   -2.6353    1.0668 C   0  0  0  0  0  0  0  0  0  0  0  0
   -3.0058   -0.5812    2.4934 C   0  0  0  0  0  0  0  0  0  0  0  0
    1.1964    3.5514    3.1273 H   0  0  0  0  0  0  0  0  0  0  0  0
   -0.9970    4.7595    3.1019 H   0  0  0  0  0  0  0  0  0  0  0  0
   -2.9051    3.8493    1.7620 H   0  0  0  0  0  0  0  0  0  0  0  0
   -2.9358    2.1418   -0.8022 H   0  0  0  0  0  0  0  0  0  0  0  0
   -3.9247    1.7924    0.6352 H   0  0  0  0  0  0  0  0  0  0  0  0
    1.8543    0.5092    2.7272 H   0  0  0  0  0  0  0  0  0  0  0  0
    2.7200    1.8640    1.9450 H   0  0  0  0  0  0  0  0  0  0  0  0
    2.0234    3.0322   -0.1697 H   0  0  0  0  0  0  0  0  0  0  0  0
    2.9942    4.3392   -2.0573 H   0  0  0  0  0  0  0  0  0  0  0  0
    4.1572    3.1626   -3.9427 H   0  0  0  0  0  0  0  0  0  0  0  0
    4.3487    0.6610   -3.9225 H   0  0  0  0  0  0  0  0  0  0  0  0
    3.3936   -0.6550   -2.0249 H   0  0  0  0  0  0  0  0  0  0  0  0
    1.7044   -2.8035    0.5359 H   0  0  0  0  0  0  0  0  0  0  0  0
    3.3683   -4.5779    1.1879 H   0  0  0  0  0  0  0  0  0  0  0  0
    5.7349   -3.9433    1.7175 H   0  0  0  0  0  0  0  0  0  0  0  0
    6.4432   -1.5410    1.6060 H   0  0  0  0  0  0  0  0  0  0  0  0
    4.7898    0.2230    0.9702 H   0  0  0  0  0  0  0  0  0  0  0  0
   -2.7219    0.0945   -3.9455 H   0  0  0  0  0  0  0  0  0  0  0  0
   -1.3741   -0.3753   -2.8426 H   0  0  0  0  0  0  0  0  0  0  0  0
   -2.1400    1.2448   -2.7029 H   0  0  0  0  0  0  0  0  0  0  0  0
   -5.0857    0.1273   -3.1422 H   0  0  0  0  0  0  0  0  0  0  0  0
   -4.6453    1.3801   -1.9513 H   0  0  0  0  0  0  0  0  0  0  0  0
   -5.5017   -0.1039   -1.4202 H   0  0  0  0  0  0  0  0  0  0  0  0
   -4.3239   -2.4031   -1.6398 H   0  0  0  0  0  0  0  0  0  0  0  0
   -2.5658   -2.4696   -2.0618 H   0  0  0  0  0  0  0  0  0  0  0  0
   -3.7922   -2.0563   -3.3093 H   0  0  0  0  0  0  0  0  0  0  0  0
   -5.4336   -1.5634    0.1740 H   0  0  0  0  0  0  0  0  0  0  0  0
   -5.3852   -0.0230    1.1000 H   0  0  0  0  0  0  0  0  0  0  0  0
   -5.4696   -1.5875    1.9596 H   0  0  0  0  0  0  0  0  0  0  0  0
   -1.9283   -2.7065    1.0251 H   0  0  0  0  0  0  0  0  0  0  0  0
   -3.4296   -3.1512    0.1733 H   0  0  0  0  0  0  0  0  0  0  0  0
   -3.3943   -3.1832    1.9631 H   0  0  0  0  0  0  0  0  0  0  0  0
   -3.4252   -1.1892    3.3227 H   0  0  0  0  0  0  0  0  0  0  0  0
   -3.3277    0.4674    2.6466 H   0  0  0  0  0  0  0  0  0  0  0  0
   -1.9003   -0.6086    2.5648 H   0  0  0  0  0  0  0  0  0  0  0  0
  1 17  1  0  0  0  0
  1 10  1  0  0  0  0
  2  9  1  0  0  0  0
  2 27  1  0  0  0  0
  3  4  2  0  0  0  0
  3  8  1  0  0  0  0
  4  5  1  0  0  0  0
  5 10  1  0  0  0  0
  5  6  2  0  0  0  0
  6 31  1  0  0  0  0
  7  6  1  0  0  0  0
  7 32  1  0  0  0  0
  8  7  2  0  0  0  0
  9 35  1  0  0  0  0
  9  3  1  0  0  0  0
 10 37  1  0  0  0  0
 10 36  1  0  0  0  0
 11  1  1  0  0  0  0
 12 11  1  0  0  0  0
 12 38  1  0  0  0  0
 13 12  2  0  0  0  0
 14 15  2  0  0  0  0
 14 13  1  0  0  0  0
 15 16  1  0  0  0  0
 16 42  1  0  0  0  0
 16 11  2  0  0  0  0
 17 18  2  0  0  0  0
 17 22  1  0  0  0  0
 18 19  1  0  0  0  0
 19 44  1  0  0  0  0
 19 20  2  0  0  0  0
 20 45  1  0  0  0  0
 21 20  1  0  0  0  0
 21 46  1  0  0  0  0
 22 21  2  0  0  0  0
 23  2  1  0  0  0  0
 24 49  1  0  0  0  0
 24 50  1  0  0  0  0
 24 23  1  0  0  0  0
 25 52  1  0  0  0  0
 25 23  1  0  0  0  0
 25 53  1  0  0  0  0
 26 55  1  0  0  0  0
 26 23  1  0  0  0  0
 26 54  1  0  0  0  0
 27 30  1  0  0  0  0
 28 58  1  0  0  0  0
 28 27  1  0  0  0  0
 28 59  1  0  0  0  0
 29 27  1  0  0  0  0
 29 62  1  0  0  0  0
 30 65  1  0  0  0  0
 30 64  1  0  0  0  0
 30 63  1  0  0  0  0
 33  8  1  0  0  0  0
 34  9  1  0  0  0  0
 39 13  1  0  0  0  0
 40 14  1  0  0  0  0
 41 15  1  0  0  0  0
 43 18  1  0  0  0  0
 47 22  1  0  0  0  0
 48 24  1  0  0  0  0
 51 25  1  0  0  0  0
 56 26  1  0  0  0  0
 57 28  1  0  0  0  0
 60 29  1  0  0  0  0
 61 29  1  0  0  0  0
M  END
