1,2,3
 OpenBabel05122313063D

 57 57  0  0  0  0  0  0  0  0999 V2000
    2.1432   -0.2512   -0.0238 P   0  0  0  0  0  0  0  0  0  0  0  0
   -2.1442   -0.2911    0.0440 P   0  0  0  0  0  0  0  0  0  0  0  0
   -0.0176    1.4910   -0.0628 C   0  0  0  0  0  3  0  0  0  0  0  0
    1.1786    2.2613    0.1088 C   0  0  0  0  0  0  0  0  0  0  0  0
    1.1521    3.6672    0.0626 C   0  0  0  0  0  0  0  0  0  0  0  0
    2.0889    4.2332    0.1943 H   0  0  0  0  0  0  0  0  0  0  0  0
   -0.0542    4.3536   -0.1393 C   0  0  0  0  0  0  0  0  0  0  0  0
   -0.0681    5.4538   -0.1679 H   0  0  0  0  0  0  0  0  0  0  0  0
   -1.2425    3.6272   -0.3064 C   0  0  0  0  0  0  0  0  0  0  0  0
   -2.1929    4.1611   -0.4701 H   0  0  0  0  0  0  0  0  0  0  0  0
   -1.2322    2.2209   -0.2785 C   0  0  0  0  0  0  0  0  0  0  0  0
   -2.5124    1.4391   -0.5083 C   0  0  0  0  0  0  0  0  0  0  0  0
   -2.7560    1.3924   -1.5932 H   0  0  0  0  0  0  0  0  0  0  0  0
   -3.3957    1.8826   -0.0014 H   0  0  0  0  0  0  0  0  0  0  0  0
    2.4823    1.5286    0.3675 C   0  0  0  0  0  0  0  0  0  0  0  0
    2.7686    1.5933    1.4407 H   0  0  0  0  0  0  0  0  0  0  0  0
    3.3355    1.9393   -0.2132 H   0  0  0  0  0  0  0  0  0  0  0  0
    2.9160   -0.6172   -1.6800 C   0  0  0  0  0  0  0  0  0  0  0  0
    3.9892   -0.3238   -1.6352 H   0  0  0  0  0  0  0  0  0  0  0  0
    2.2017    0.2283   -2.7435 C   0  0  0  0  0  0  0  0  0  0  0  0
    2.6506    0.0486   -3.7425 H   0  0  0  0  0  0  0  0  0  0  0  0
    2.2570    1.3147   -2.5304 H   0  0  0  0  0  0  0  0  0  0  0  0
    1.1263   -0.0412   -2.7877 H   0  0  0  0  0  0  0  0  0  0  0  0
    2.7766   -2.1225   -1.9554 C   0  0  0  0  0  0  0  0  0  0  0  0
    1.7472   -2.4602   -1.7071 H   0  0  0  0  0  0  0  0  0  0  0  0
    3.4820   -2.7229   -1.3468 H   0  0  0  0  0  0  0  0  0  0  0  0
    2.9857   -2.3418   -3.0228 H   0  0  0  0  0  0  0  0  0  0  0  0
    3.0235   -1.3109    1.2257 C   0  0  0  0  0  0  0  0  0  0  0  0
    2.7893   -2.3360    0.8654 H   0  0  0  0  0  0  0  0  0  0  0  0
    4.5378   -1.0934    1.2652 C   0  0  0  0  0  0  0  0  0  0  0  0
    4.7897   -0.0578    1.5763 H   0  0  0  0  0  0  0  0  0  0  0  0
    5.0150   -1.2774    0.2818 H   0  0  0  0  0  0  0  0  0  0  0  0
    5.0109   -1.7805    1.9981 H   0  0  0  0  0  0  0  0  0  0  0  0
    2.3493   -1.1415    2.5929 C   0  0  0  0  0  0  0  0  0  0  0  0
    2.8033   -1.8292    3.3363 H   0  0  0  0  0  0  0  0  0  0  0  0
    1.2676   -1.3706    2.5198 H   0  0  0  0  0  0  0  0  0  0  0  0
    2.4587   -0.1086    2.9855 H   0  0  0  0  0  0  0  0  0  0  0  0
   -2.8430   -0.4773    1.7637 C   0  0  0  0  0  0  0  0  0  0  0  0
   -3.9235   -0.2116    1.7226 H   0  0  0  0  0  0  0  0  0  0  0  0
   -2.1162    0.4975    2.6999 C   0  0  0  0  0  0  0  0  0  0  0  0
   -2.5196    0.4134    3.7304 H   0  0  0  0  0  0  0  0  0  0  0  0
   -2.2156    1.5521    2.3743 H   0  0  0  0  0  0  0  0  0  0  0  0
   -1.0311    0.2676    2.7253 H   0  0  0  0  0  0  0  0  0  0  0  0
   -2.6724   -1.9369    2.2113 C   0  0  0  0  0  0  0  0  0  0  0  0
   -1.6415   -2.2909    1.9977 H   0  0  0  0  0  0  0  0  0  0  0  0
   -3.3725   -2.6184    1.6885 H   0  0  0  0  0  0  0  0  0  0  0  0
   -2.8647   -2.0322    3.2999 H   0  0  0  0  0  0  0  0  0  0  0  0
   -3.0790   -1.4751   -1.0435 C   0  0  0  0  0  0  0  0  0  0  0  0
   -2.9302   -2.4465   -0.5251 H   0  0  0  0  0  0  0  0  0  0  0  0
   -2.3546   -1.5696   -2.3923 C   0  0  0  0  0  0  0  0  0  0  0  0
   -2.8531   -2.3111   -3.0508 H   0  0  0  0  0  0  0  0  0  0  0  0
   -1.3083   -1.8897   -2.2190 H   0  0  0  0  0  0  0  0  0  0  0  0
   -2.3465   -0.5975   -2.9298 H   0  0  0  0  0  0  0  0  0  0  0  0
   -4.5729   -1.1643   -1.1569 C   0  0  0  0  0  0  0  0  0  0  0  0
   -4.7470   -0.1842   -1.6480 H   0  0  0  0  0  0  0  0  0  0  0  0
   -5.0746   -1.1414   -0.1681 H   0  0  0  0  0  0  0  0  0  0  0  0
   -5.0848   -1.9344   -1.7716 H   0  0  0  0  0  0  0  0  0  0  0  0
  1 15  1  0  0  0  0
  1 28  1  0  0  0  0
  2 38  1  0  0  0  0
  3  4  1  0  0  0  0
  4 15  1  0  0  0  0
  5  4  2  0  0  0  0
  5  6  1  0  0  0  0
  7  5  1  0  0  0  0
  8  7  1  0  0  0  0
  9 11  1  0  0  0  0
  9  7  2  0  0  0  0
 10  9  1  0  0  0  0
 11  3  2  0  0  0  0
 12 11  1  0  0  0  0
 12 14  1  0  0  0  0
 12  2  1  0  0  0  0
 13 12  1  0  0  0  0
 15 16  1  0  0  0  0
 17 15  1  0  0  0  0
 18 19  1  0  0  0  0
 18  1  1  0  0  0  0
 20 22  1  0  0  0  0
 20 18  1  0  0  0  0
 21 20  1  0  0  0  0
 23 20  1  0  0  0  0
 24 25  1  0  0  0  0
 24 18  1  0  0  0  0
 24 26  1  0  0  0  0
 27 24  1  0  0  0  0
 28 30  1  0  0  0  0
 28 34  1  0  0  0  0
 29 28  1  0  0  0  0
 30 31  1  0  0  0  0
 30 33  1  0  0  0  0
 32 30  1  0  0  0  0
 34 37  1  0  0  0  0
 34 35  1  0  0  0  0
 36 34  1  0  0  0  0
 38 44  1  0  0  0  0
 38 40  1  0  0  0  0
 39 38  1  0  0  0  0
 40 43  1  0  0  0  0
 40 41  1  0  0  0  0
 42 40  1  0  0  0  0
 44 47  1  0  0  0  0
 45 44  1  0  0  0  0
 46 44  1  0  0  0  0
 48 49  1  0  0  0  0
 48  2  1  0  0  0  0
 50 52  1  0  0  0  0
 50 48  1  0  0  0  0
 51 50  1  0  0  0  0
 53 50  1  0  0  0  0
 54 48  1  0  0  0  0
 54 56  1  0  0  0  0
 55 54  1  0  0  0  0
 57 54  1  0  0  0  0
M  END
