1,2,6
 OpenBabel05122313063D

 69 75  0  0  0  0  0  0  0  0999 V2000
    2.2794   -0.2598    0.0735 P   0  0  0  0  0  0  0  0  0  0  0  0
   -2.2747   -0.2586    0.0385 P   0  0  0  0  0  0  0  0  0  0  0  0
    0.0047    5.6901    0.0425 O   0  0  0  0  0  0  0  0  0  0  0  0
   -0.0500    1.5594   -1.9063 O   0  0  0  0  0  0  0  0  0  0  0  0
    0.5759    0.8740   -2.2152 H   0  0  0  0  0  0  0  0  0  0  0  0
    0.0013    1.5167   -0.4525 C   0  0  0  0  0  3  0  0  0  0  0  0
    1.2656    2.2633   -0.0278 C   0  0  0  0  0  0  0  0  0  0  0  0
    2.4781    1.5607    0.1526 C   0  0  0  0  0  0  0  0  0  0  0  0
    3.6765    2.2416    0.4282 C   0  0  0  0  0  0  0  0  0  0  0  0
    4.6038    1.6735    0.6013 H   0  0  0  0  0  0  0  0  0  0  0  0
    3.6788    3.6448    0.5161 C   0  0  0  0  0  0  0  0  0  0  0  0
    4.6147    4.1801    0.7356 H   0  0  0  0  0  0  0  0  0  0  0  0
    2.4816    4.3521    0.3575 C   0  0  0  0  0  0  0  0  0  0  0  0
    2.4365    5.4476    0.4535 H   0  0  0  0  0  0  0  0  0  0  0  0
    1.2749    3.6719    0.0959 C   0  0  0  0  0  0  0  0  0  0  0  0
    0.0041    4.4586    0.0418 C   0  0  0  0  0  0  0  0  0  0  0  0
   -1.2660    3.6720    0.0897 C   0  0  0  0  0  0  0  0  0  0  0  0
   -2.4774    4.3523    0.3358 C   0  0  0  0  0  0  0  0  0  0  0  0
   -2.4339    5.4472    0.4374 H   0  0  0  0  0  0  0  0  0  0  0  0
   -3.6769    3.6451    0.4650 C   0  0  0  0  0  0  0  0  0  0  0  0
   -4.6160    4.1795    0.6732 H   0  0  0  0  0  0  0  0  0  0  0  0
   -3.6760    2.2420    0.3602 C   0  0  0  0  0  0  0  0  0  0  0  0
   -4.6069    1.6730    0.5103 H   0  0  0  0  0  0  0  0  0  0  0  0
   -2.4750    1.5628    0.0983 C   0  0  0  0  0  0  0  0  0  0  0  0
   -1.2588    2.2657   -0.0422 C   0  0  0  0  0  0  0  0  0  0  0  0
    3.3464   -0.9932    1.3613 C   0  0  0  0  0  0  0  0  0  0  0  0
    2.7556   -1.3669    2.5844 C   0  0  0  0  0  0  0  0  0  0  0  0
    1.6675   -1.2586    2.7101 H   0  0  0  0  0  0  0  0  0  0  0  0
    3.5536   -1.9003    3.6066 C   0  0  0  0  0  0  0  0  0  0  0  0
    3.0914   -2.1988    4.5596 H   0  0  0  0  0  0  0  0  0  0  0  0
    4.9339   -2.0678    3.4101 C   0  0  0  0  0  0  0  0  0  0  0  0
    5.5562   -2.4915    4.2131 H   0  0  0  0  0  0  0  0  0  0  0  0
    5.5203   -1.7112    2.1844 C   0  0  0  0  0  0  0  0  0  0  0  0
    6.5995   -1.8566    2.0248 H   0  0  0  0  0  0  0  0  0  0  0  0
    4.7288   -1.1792    1.1558 C   0  0  0  0  0  0  0  0  0  0  0  0
    5.1811   -0.9241    0.1847 H   0  0  0  0  0  0  0  0  0  0  0  0
    2.9971   -0.8149   -1.5176 C   0  0  0  0  0  0  0  0  0  0  0  0
    2.7616   -2.1593   -1.8846 C   0  0  0  0  0  0  0  0  0  0  0  0
    2.1630   -2.8061   -1.2202 H   0  0  0  0  0  0  0  0  0  0  0  0
    3.2635   -2.6416   -3.1002 C   0  0  0  0  0  0  0  0  0  0  0  0
    3.0803   -3.6882   -3.3869 H   0  0  0  0  0  0  0  0  0  0  0  0
    3.9841   -1.7913   -3.9578 C   0  0  0  0  0  0  0  0  0  0  0  0
    4.3701   -2.1739   -4.9149 H   0  0  0  0  0  0  0  0  0  0  0  0
    4.2007   -0.4518   -3.6006 C   0  0  0  0  0  0  0  0  0  0  0  0
    4.7547    0.2181   -4.2756 H   0  0  0  0  0  0  0  0  0  0  0  0
    3.7084    0.0413   -2.3807 C   0  0  0  0  0  0  0  0  0  0  0  0
    3.8711    1.0939   -2.1032 H   0  0  0  0  0  0  0  0  0  0  0  0
   -3.3081   -0.9256    1.3915 C   0  0  0  0  0  0  0  0  0  0  0  0
   -4.6642   -1.2562    1.1991 C   0  0  0  0  0  0  0  0  0  0  0  0
   -5.1174   -1.1605    0.2002 H   0  0  0  0  0  0  0  0  0  0  0  0
   -5.4272   -1.7245    2.2797 C   0  0  0  0  0  0  0  0  0  0  0  0
   -6.4860   -1.9848    2.1288 H   0  0  0  0  0  0  0  0  0  0  0  0
   -4.8395   -1.8691    3.5467 C   0  0  0  0  0  0  0  0  0  0  0  0
   -5.4391   -2.2423    4.3909 H   0  0  0  0  0  0  0  0  0  0  0  0
   -3.4841   -1.5513    3.7349 C   0  0  0  0  0  0  0  0  0  0  0  0
   -3.0191   -1.6797    4.7240 H   0  0  0  0  0  0  0  0  0  0  0  0
   -2.7153   -1.0843    2.6601 C   0  0  0  0  0  0  0  0  0  0  0  0
   -1.6461   -0.8528    2.7847 H   0  0  0  0  0  0  0  0  0  0  0  0
   -3.0360   -0.8781   -1.5024 C   0  0  0  0  0  0  0  0  0  0  0  0
   -3.8042   -0.0671   -2.3584 C   0  0  0  0  0  0  0  0  0  0  0  0
   -3.9670    0.9935   -2.1153 H   0  0  0  0  0  0  0  0  0  0  0  0
   -4.3469   -0.6142   -3.5323 C   0  0  0  0  0  0  0  0  0  0  0  0
   -4.9453    0.0206   -4.2034 H   0  0  0  0  0  0  0  0  0  0  0  0
   -4.1208   -1.9619   -3.8520 C   0  0  0  0  0  0  0  0  0  0  0  0
   -4.5464   -2.3866   -4.7740 H   0  0  0  0  0  0  0  0  0  0  0  0
   -3.3396   -2.7655   -3.0033 C   0  0  0  0  0  0  0  0  0  0  0  0
   -3.1479   -3.8181   -3.2618 H   0  0  0  0  0  0  0  0  0  0  0  0
   -2.7889   -2.2291   -1.8319 C   0  0  0  0  0  0  0  0  0  0  0  0
   -2.1450   -2.8400   -1.1756 H   0  0  0  0  0  0  0  0  0  0  0  0
  1  8  1  0  0  0  0
  1 26  1  0  0  0  0
  2 24  1  0  0  0  0
  2 48  1  0  0  0  0
  4  6  1  0  0  0  0
  5  4  1  0  0  0  0
  6 25  1  0  0  0  0
  6  7  1  0  0  0  0
  7 15  2  0  0  0  0
  7  8  1  0  0  0  0
  8  9  2  0  0  0  0
  9 11  1  0  0  0  0
  9 10  1  0  0  0  0
 11 12  1  0  0  0  0
 13 14  1  0  0  0  0
 13 11  2  0  0  0  0
 15 13  1  0  0  0  0
 16  3  2  0  0  0  0
 16 17  1  0  0  0  0
 16 15  1  0  0  0  0
 17 18  1  0  0  0  0
 18 19  1  0  0  0  0
 18 20  2  0  0  0  0
 20 21  1  0  0  0  0
 22 20  1  0  0  0  0
 22 23  1  0  0  0  0
 24 22  2  0  0  0  0
 25 17  2  0  0  0  0
 25 24  1  0  0  0  0
 26 27  1  0  0  0  0
 27 28  1  0  0  0  0
 27 29  2  0  0  0  0
 29 30  1  0  0  0  0
 31 29  1  0  0  0  0
 31 32  1  0  0  0  0
 33 31  2  0  0  0  0
 34 33  1  0  0  0  0
 35 26  2  0  0  0  0
 35 33  1  0  0  0  0
 36 35  1  0  0  0  0
 37  1  1  0  0  0  0
 38 37  1  0  0  0  0
 38 39  1  0  0  0  0
 40 38  2  0  0  0  0
 41 40  1  0  0  0  0
 42 44  2  0  0  0  0
 42 40  1  0  0  0  0
 43 42  1  0  0  0  0
 44 46  1  0  0  0  0
 45 44  1  0  0  0  0
 46 47  1  0  0  0  0
 46 37  2  0  0  0  0
 48 57  1  0  0  0  0
 49 48  2  0  0  0  0
 49 51  1  0  0  0  0
 50 49  1  0  0  0  0
 51 53  2  0  0  0  0
 52 51  1  0  0  0  0
 53 55  1  0  0  0  0
 53 54  1  0  0  0  0
 55 56  1  0  0  0  0
 57 58  1  0  0  0  0
 57 55  2  0  0  0  0
 59  2  1  0  0  0  0
 60 61  1  0  0  0  0
 60 59  2  0  0  0  0
 62 60  1  0  0  0  0
 63 62  1  0  0  0  0
 64 62  2  0  0  0  0
 64 66  1  0  0  0  0
 65 64  1  0  0  0  0
 66 68  2  0  0  0  0
 67 66  1  0  0  0  0
 68 59  1  0  0  0  0
 68 69  1  0  0  0  0
M  END
