1,2,36
 OpenBabel05122313063D

 59 63  0  0  0  0  0  0  0  0999 V2000
   -2.2857   -0.0605    0.2170 P   0  0  0  0  0  0  0  0  0  0  0  0
    2.2858    0.0605    0.2169 P   0  0  0  0  0  0  0  0  0  0  0  0
   -3.5934   -0.3984    2.6400 O   0  0  0  0  0  0  0  0  0  0  0  0
    3.5934    0.4007    2.6398 O   0  0  0  0  0  0  0  0  0  0  0  0
   -3.2220   -1.4782   -0.4551 C   0  0  0  0  0  0  0  0  0  0  0  0
   -2.5193   -2.4935   -1.1346 C   0  0  0  0  0  0  0  0  0  0  0  0
   -1.4370   -2.3829   -1.3042 H   0  0  0  0  0  0  0  0  0  0  0  0
   -3.2115   -3.6155   -1.6140 C   0  0  0  0  0  0  0  0  0  0  0  0
   -2.6636   -4.4036   -2.1522 H   0  0  0  0  0  0  0  0  0  0  0  0
   -4.5964   -3.7278   -1.4148 C   0  0  0  0  0  0  0  0  0  0  0  0
   -5.1372   -4.6087   -1.7932 H   0  0  0  0  0  0  0  0  0  0  0  0
   -5.2954   -2.7141   -0.7380 C   0  0  0  0  0  0  0  0  0  0  0  0
   -6.3816   -2.8006   -0.5834 H   0  0  0  0  0  0  0  0  0  0  0  0
   -4.6143   -1.5865   -0.2589 C   0  0  0  0  0  0  0  0  0  0  0  0
   -5.1636   -0.7933    0.2679 H   0  0  0  0  0  0  0  0  0  0  0  0
   -3.2375    1.4506   -0.2036 C   0  0  0  0  0  0  0  0  0  0  0  0
   -2.8492    2.1660   -1.3568 C   0  0  0  0  0  0  0  0  0  0  0  0
   -1.9929    1.8112   -1.9541 H   0  0  0  0  0  0  0  0  0  0  0  0
   -3.5589    3.3152   -1.7332 C   0  0  0  0  0  0  0  0  0  0  0  0
   -3.2552    3.8682   -2.6350 H   0  0  0  0  0  0  0  0  0  0  0  0
   -4.6463    3.7605   -0.9643 C   0  0  0  0  0  0  0  0  0  0  0  0
   -5.1979    4.6657   -1.2612 H   0  0  0  0  0  0  0  0  0  0  0  0
   -5.0276    3.0524    0.1861 C   0  0  0  0  0  0  0  0  0  0  0  0
   -5.8765    3.4007    0.7940 H   0  0  0  0  0  0  0  0  0  0  0  0
   -4.3289    1.8979    0.5716 C   0  0  0  0  0  0  0  0  0  0  0  0
   -4.6273    1.3486    1.4765 H   0  0  0  0  0  0  0  0  0  0  0  0
   -2.5062   -0.2283    2.1087 C   0  0  0  0  0  0  0  0  0  0  0  0
   -1.2026   -0.1174    2.7984 C   0  0  0  0  0  0  0  0  0  0  0  0
   -1.1983   -0.1263    4.2112 C   0  0  0  0  0  0  0  0  0  0  0  0
   -2.1676   -0.2344    4.7239 H   0  0  0  0  0  0  0  0  0  0  0  0
   -0.0000    0.0026    4.9233 C   0  0  0  0  0  0  0  0  0  0  0  0
   -0.0000    0.0032    6.0234 H   0  0  0  0  0  0  0  0  0  0  0  0
    1.1982    0.1306    4.2110 C   0  0  0  0  0  0  0  0  0  0  0  0
    2.1675    0.2393    4.7237 H   0  0  0  0  0  0  0  0  0  0  0  0
    1.2026    0.1201    2.7983 C   0  0  0  0  0  0  0  0  0  0  0  0
   -0.0000    0.0009    2.0404 C   0  0  0  0  0  3  0  0  0  0  0  0
    2.5062    0.2301    2.1085 C   0  0  0  0  0  0  0  0  0  0  0  0
    3.2385   -1.4505   -0.2024 C   0  0  0  0  0  0  0  0  0  0  0  0
    2.8503   -2.1672   -1.3548 C   0  0  0  0  0  0  0  0  0  0  0  0
    1.9936   -1.8135   -1.9522 H   0  0  0  0  0  0  0  0  0  0  0  0
    3.5606   -3.3163   -1.7303 C   0  0  0  0  0  0  0  0  0  0  0  0
    3.2570   -3.8703   -2.6316 H   0  0  0  0  0  0  0  0  0  0  0  0
    4.6486   -3.7601   -0.9614 C   0  0  0  0  0  0  0  0  0  0  0  0
    5.2007   -4.6652   -1.2577 H   0  0  0  0  0  0  0  0  0  0  0  0
    5.0297   -3.0506    0.1882 C   0  0  0  0  0  0  0  0  0  0  0  0
    5.8790   -3.3979    0.7962 H   0  0  0  0  0  0  0  0  0  0  0  0
    4.3304   -1.8963    0.5729 C   0  0  0  0  0  0  0  0  0  0  0  0
    4.6286   -1.3460    1.4772 H   0  0  0  0  0  0  0  0  0  0  0  0
    3.2212    1.4781   -0.4564 C   0  0  0  0  0  0  0  0  0  0  0  0
    2.5185    2.4909   -1.1396 C   0  0  0  0  0  0  0  0  0  0  0  0
    1.4367    2.3785   -1.3109 H   0  0  0  0  0  0  0  0  0  0  0  0
    3.2101    3.6127   -1.6205 C   0  0  0  0  0  0  0  0  0  0  0  0
    2.6622    4.3988   -2.1615 H   0  0  0  0  0  0  0  0  0  0  0  0
    4.5945    3.7273   -1.4190 C   0  0  0  0  0  0  0  0  0  0  0  0
    5.1348    4.6080   -1.7985 H   0  0  0  0  0  0  0  0  0  0  0  0
    5.2936    2.7161   -0.7386 C   0  0  0  0  0  0  0  0  0  0  0  0
    6.3794    2.8044   -0.5822 H   0  0  0  0  0  0  0  0  0  0  0  0
    4.6131    1.5887   -0.2580 C   0  0  0  0  0  0  0  0  0  0  0  0
    5.1624    0.7976    0.2718 H   0  0  0  0  0  0  0  0  0  0  0  0
  1 27  1  0  0  0  0
  2 37  1  0  0  0  0
  5 14  1  0  0  0  0
  5  1  1  0  0  0  0
  6  5  2  0  0  0  0
  7  6  1  0  0  0  0
  8 10  2  0  0  0  0
  8  6  1  0  0  0  0
  9  8  1  0  0  0  0
 10 12  1  0  0  0  0
 11 10  1  0  0  0  0
 12 13  1  0  0  0  0
 12 14  2  0  0  0  0
 14 15  1  0  0  0  0
 16  1  1  0  0  0  0
 16 25  1  0  0  0  0
 17 16  2  0  0  0  0
 18 17  1  0  0  0  0
 19 17  1  0  0  0  0
 19 21  2  0  0  0  0
 20 19  1  0  0  0  0
 21 23  1  0  0  0  0
 22 21  1  0  0  0  0
 23 25  2  0  0  0  0
 23 24  1  0  0  0  0
 25 26  1  0  0  0  0
 27  3  2  0  0  0  0
 27 28  1  0  0  0  0
 28 29  1  0  0  0  0
 29 30  1  0  0  0  0
 29 31  2  0  0  0  0
 31 32  1  0  0  0  0
 33 34  1  0  0  0  0
 33 31  1  0  0  0  0
 35 33  2  0  0  0  0
 36 35  1  0  0  0  0
 36 28  2  0  0  0  0
 37  4  2  0  0  0  0
 37 35  1  0  0  0  0
 38  2  1  0  0  0  0
 38 47  1  0  0  0  0
 39 38  2  0  0  0  0
 40 39  1  0  0  0  0
 41 39  1  0  0  0  0
 41 43  2  0  0  0  0
 42 41  1  0  0  0  0
 43 45  1  0  0  0  0
 44 43  1  0  0  0  0
 45 47  2  0  0  0  0
 45 46  1  0  0  0  0
 47 48  1  0  0  0  0
 49 58  1  0  0  0  0
 49  2  1  0  0  0  0
 50 49  2  0  0  0  0
 51 50  1  0  0  0  0
 52 54  2  0  0  0  0
 52 50  1  0  0  0  0
 53 52  1  0  0  0  0
 54 56  1  0  0  0  0
 55 54  1  0  0  0  0
 56 57  1  0  0  0  0
 56 58  2  0  0  0  0
 58 59  1  0  0  0  0
M  END
