1,2,5
 OpenBabel05122313063D

 56 56  0  0  0  0  0  0  0  0999 V2000
    2.1035   -0.2379   -0.0038 P   0  0  0  0  0  0  0  0  0  0  0  0
   -2.1620    0.0343    0.0896 P   0  0  0  0  0  0  0  0  0  0  0  0
    2.5562    1.3330    0.4608 O   0  0  0  0  0  0  0  0  0  0  0  0
   -2.8181    1.5282   -0.2860 O   0  0  0  0  0  0  0  0  0  0  0  0
    0.2544    1.7601   -0.1801 C   0  0  0  0  0  3  0  0  0  0  0  0
    1.5332    2.2368    0.2294 C   0  0  0  0  0  0  0  0  0  0  0  0
    1.8428    3.5980    0.3716 C   0  0  0  0  0  0  0  0  0  0  0  0
    2.8521    3.8842    0.7010 H   0  0  0  0  0  0  0  0  0  0  0  0
    0.8623    4.5520    0.0710 C   0  0  0  0  0  0  0  0  0  0  0  0
    1.0840    5.6239    0.1839 H   0  0  0  0  0  0  0  0  0  0  0  0
   -0.3915    4.1319   -0.3936 C   0  0  0  0  0  0  0  0  0  0  0  0
   -1.1573    4.8771   -0.6616 H   0  0  0  0  0  0  0  0  0  0  0  0
   -0.6900    2.7603   -0.5331 C   0  0  0  0  0  0  0  0  0  0  0  0
   -2.0278    2.3838   -1.1283 C   0  0  0  0  0  0  0  0  0  0  0  0
   -2.6458    3.2886   -1.2915 H   0  0  0  0  0  0  0  0  0  0  0  0
   -1.8757    1.8974   -2.1197 H   0  0  0  0  0  0  0  0  0  0  0  0
   -2.6523   -0.0479    1.8829 C   0  0  0  0  0  0  0  0  0  0  0  0
   -3.7133    0.2876    1.8789 H   0  0  0  0  0  0  0  0  0  0  0  0
   -1.8221    0.9639    2.6825 C   0  0  0  0  0  0  0  0  0  0  0  0
   -2.1990    1.0260    3.7244 H   0  0  0  0  0  0  0  0  0  0  0  0
   -1.8706    1.9742    2.2320 H   0  0  0  0  0  0  0  0  0  0  0  0
   -0.7548    0.6659    2.7179 H   0  0  0  0  0  0  0  0  0  0  0  0
   -2.5605   -1.4692    2.4473 C   0  0  0  0  0  0  0  0  0  0  0  0
   -1.5334   -1.8759    2.3513 H   0  0  0  0  0  0  0  0  0  0  0  0
   -3.2419   -2.1745    1.9318 H   0  0  0  0  0  0  0  0  0  0  0  0
   -2.8321   -1.4642    3.5232 H   0  0  0  0  0  0  0  0  0  0  0  0
   -3.3022   -1.1183   -0.8273 C   0  0  0  0  0  0  0  0  0  0  0  0
   -2.9845   -2.1272   -0.4854 H   0  0  0  0  0  0  0  0  0  0  0  0
   -3.0035   -1.0063   -2.3280 C   0  0  0  0  0  0  0  0  0  0  0  0
   -3.6000   -1.7500   -2.8956 H   0  0  0  0  0  0  0  0  0  0  0  0
   -1.9312   -1.1969   -2.5350 H   0  0  0  0  0  0  0  0  0  0  0  0
   -3.2675   -0.0005   -2.7152 H   0  0  0  0  0  0  0  0  0  0  0  0
   -4.7781   -0.8736   -0.5026 C   0  0  0  0  0  0  0  0  0  0  0  0
   -5.0595    0.1759   -0.7236 H   0  0  0  0  0  0  0  0  0  0  0  0
   -5.0185   -1.0774    0.5597 H   0  0  0  0  0  0  0  0  0  0  0  0
   -5.4184   -1.5371   -1.1203 H   0  0  0  0  0  0  0  0  0  0  0  0
    2.8167   -1.2181    1.3982 C   0  0  0  0  0  0  0  0  0  0  0  0
    2.6372   -2.2721    1.0922 H   0  0  0  0  0  0  0  0  0  0  0  0
    1.9957   -0.9297    2.6615 C   0  0  0  0  0  0  0  0  0  0  0  0
    2.3836   -1.5231    3.5145 H   0  0  0  0  0  0  0  0  0  0  0  0
    0.9315   -1.1966    2.5092 H   0  0  0  0  0  0  0  0  0  0  0  0
    2.0506    0.1438    2.9345 H   0  0  0  0  0  0  0  0  0  0  0  0
    4.3141   -0.9575    1.5932 C   0  0  0  0  0  0  0  0  0  0  0  0
    4.5044    0.1170    1.7882 H   0  0  0  0  0  0  0  0  0  0  0  0
    4.9160   -1.2615    0.7142 H   0  0  0  0  0  0  0  0  0  0  0  0
    4.6860   -1.5333    2.4658 H   0  0  0  0  0  0  0  0  0  0  0  0
    3.1881   -0.5081   -1.4892 C   0  0  0  0  0  0  0  0  0  0  0  0
    4.1836   -0.1181   -1.1818 H   0  0  0  0  0  0  0  0  0  0  0  0
    2.6498    0.3455   -2.6453 C   0  0  0  0  0  0  0  0  0  0  0  0
    3.3286    0.2741   -3.5200 H   0  0  0  0  0  0  0  0  0  0  0  0
    2.5593    1.4134   -2.3653 H   0  0  0  0  0  0  0  0  0  0  0  0
    1.6453   -0.0072   -2.9579 H   0  0  0  0  0  0  0  0  0  0  0  0
    3.2925   -1.9928   -1.8570 C   0  0  0  0  0  0  0  0  0  0  0  0
    2.2904   -2.4263   -2.0496 H   0  0  0  0  0  0  0  0  0  0  0  0
    3.7700   -2.5937   -1.0577 H   0  0  0  0  0  0  0  0  0  0  0  0
    3.9048   -2.1085   -2.7752 H   0  0  0  0  0  0  0  0  0  0  0  0
  1  3  1  0  0  0  0
  1 37  1  0  0  0  0
  2 17  1  0  0  0  0
  4  2  1  0  0  0  0
  5  6  1  0  0  0  0
  6  7  2  0  0  0  0
  6  3  1  0  0  0  0
  7  8  1  0  0  0  0
  9 10  1  0  0  0  0
  9  7  1  0  0  0  0
 11  9  2  0  0  0  0
 12 11  1  0  0  0  0
 13 11  1  0  0  0  0
 13  5  2  0  0  0  0
 14 13  1  0  0  0  0
 14  4  1  0  0  0  0
 15 14  1  0  0  0  0
 16 14  1  0  0  0  0
 17 23  1  0  0  0  0
 17 19  1  0  0  0  0
 18 17  1  0  0  0  0
 19 22  1  0  0  0  0
 19 20  1  0  0  0  0
 21 19  1  0  0  0  0
 23 26  1  0  0  0  0
 24 23  1  0  0  0  0
 25 23  1  0  0  0  0
 27 33  1  0  0  0  0
 27 28  1  0  0  0  0
 27  2  1  0  0  0  0
 29 27  1  0  0  0  0
 30 29  1  0  0  0  0
 31 29  1  0  0  0  0
 32 29  1  0  0  0  0
 33 35  1  0  0  0  0
 34 33  1  0  0  0  0
 36 33  1  0  0  0  0
 37 43  1  0  0  0  0
 37 39  1  0  0  0  0
 38 37  1  0  0  0  0
 39 42  1  0  0  0  0
 39 40  1  0  0  0  0
 41 39  1  0  0  0  0
 43 44  1  0  0  0  0
 43 46  1  0  0  0  0
 45 43  1  0  0  0  0
 47 48  1  0  0  0  0
 47  1  1  0  0  0  0
 49 51  1  0  0  0  0
 49 47  1  0  0  0  0
 50 49  1  0  0  0  0
 52 49  1  0  0  0  0
 53 47  1  0  0  0  0
 53 55  1  0  0  0  0
 54 53  1  0  0  0  0
 56 53  1  0  0  0  0
M  END
