1,12,64
 OpenBabel05122313063D

 64 65  0  0  0  0  0  0  0  0999 V2000
   -2.2304   -0.2801    0.1804 P   0  0  0  0  0  0  0  0  0  0  0  0
   -0.4579   -2.3191   -0.4595 C   0  0  0  0  0  0  0  0  0  0  0  0
   -1.7094   -2.0529    0.1544 C   0  0  0  0  0  0  0  0  0  0  0  0
   -2.4119   -3.0883    0.7976 C   0  0  0  0  0  0  0  0  0  0  0  0
   -3.3682   -2.8754    1.2981 H   0  0  0  0  0  0  0  0  0  0  0  0
   -1.8868   -4.3906    0.8513 C   0  0  0  0  0  0  0  0  0  0  0  0
   -2.4366   -5.1858    1.3774 H   0  0  0  0  0  0  0  0  0  0  0  0
   -0.6518   -4.6586    0.2476 C   0  0  0  0  0  0  0  0  0  0  0  0
   -0.2226   -5.6716    0.2895 H   0  0  0  0  0  0  0  0  0  0  0  0
    0.0527   -3.6315   -0.4019 C   0  0  0  0  0  0  0  0  0  0  0  0
    1.0291   -3.8521   -0.8557 H   0  0  0  0  0  0  0  0  0  0  0  0
    0.3001   -1.2175   -1.2231 C   0  0  0  0  0  3  0  0  0  0  0  0
   -0.2547   -0.7200   -2.2672 O   0  0  0  0  0  1  0  0  0  0  0  0
    2.3328   -2.2401   -2.3212 C   0  0  0  0  0  0  0  0  0  0  0  0
    1.6389   -2.6521   -3.0699 H   0  0  0  0  0  0  0  0  0  0  0  0
    3.7066   -2.5086   -2.3980 C   0  0  0  0  0  0  0  0  0  0  0  0
    4.0976   -3.1442   -3.2075 H   0  0  0  0  0  0  0  0  0  0  0  0
    4.5851   -1.9603   -1.4477 C   0  0  0  0  0  0  0  0  0  0  0  0
    5.6647   -2.1673   -1.5066 H   0  0  0  0  0  0  0  0  0  0  0  0
    4.0863   -1.1183   -0.4432 C   0  0  0  0  0  0  0  0  0  0  0  0
    4.7860   -0.6446    0.2623 H   0  0  0  0  0  0  0  0  0  0  0  0
    2.7052   -0.8418   -0.3641 C   0  0  0  0  0  0  0  0  0  0  0  0
    1.8160   -1.4320   -1.2871 C   0  0  0  0  0  0  0  0  0  0  0  0
   -3.0190   -0.0750    1.8825 C   0  0  0  0  0  0  0  0  0  0  0  0
   -3.7640   -0.8880    2.0219 H   0  0  0  0  0  0  0  0  0  0  0  0
   -3.7391   -0.2259   -0.9689 C   0  0  0  0  0  0  0  0  0  0  0  0
   -4.0974    0.8202   -0.8416 H   0  0  0  0  0  0  0  0  0  0  0  0
   -3.7462    1.2716    1.9654 C   0  0  0  0  0  0  0  0  0  0  0  0
   -3.0498    2.1082    1.7487 H   0  0  0  0  0  0  0  0  0  0  0  0
   -4.1499    1.4309    2.9871 H   0  0  0  0  0  0  0  0  0  0  0  0
   -4.5955    1.3444    1.2575 H   0  0  0  0  0  0  0  0  0  0  0  0
   -1.9425   -0.1965    2.9636 C   0  0  0  0  0  0  0  0  0  0  0  0
   -1.1303    0.5397    2.7841 H   0  0  0  0  0  0  0  0  0  0  0  0
   -1.4837   -1.2038    2.9716 H   0  0  0  0  0  0  0  0  0  0  0  0
   -2.3752   -0.0090    3.9688 H   0  0  0  0  0  0  0  0  0  0  0  0
    2.0426   -0.3151    2.4786 C   0  0  0  0  0  0  0  0  0  0  0  0
    1.4001    0.3668    3.0796 H   0  0  0  0  0  0  0  0  0  0  0  0
   -3.3086   -0.4067   -2.4266 C   0  0  0  0  0  0  0  0  0  0  0  0
   -4.1755   -0.2418   -3.1009 H   0  0  0  0  0  0  0  0  0  0  0  0
   -2.9195   -1.4292   -2.6018 H   0  0  0  0  0  0  0  0  0  0  0  0
   -2.4907    0.2833   -2.7032 H   0  0  0  0  0  0  0  0  0  0  0  0
   -4.8774   -1.1805   -0.5993 C   0  0  0  0  0  0  0  0  0  0  0  0
   -5.2432   -1.0418    0.4379 H   0  0  0  0  0  0  0  0  0  0  0  0
   -4.5629   -2.2372   -0.7166 H   0  0  0  0  0  0  0  0  0  0  0  0
   -5.7421   -1.0193   -1.2778 H   0  0  0  0  0  0  0  0  0  0  0  0
    3.2166    1.7930    0.7423 C   0  0  0  0  0  0  0  0  0  0  0  0
    4.1524    1.3742    1.1708 H   0  0  0  0  0  0  0  0  0  0  0  0
    1.3963   -1.7036    2.4651 C   0  0  0  0  0  0  0  0  0  0  0  0
    1.2660   -2.0839    3.4995 H   0  0  0  0  0  0  0  0  0  0  0  0
    2.0284   -2.4282    1.9121 H   0  0  0  0  0  0  0  0  0  0  0  0
    0.4072   -1.6891    1.9709 H   0  0  0  0  0  0  0  0  0  0  0  0
    3.4431   -0.3608    3.0957 C   0  0  0  0  0  0  0  0  0  0  0  0
    3.9009    0.6414    3.2094 H   0  0  0  0  0  0  0  0  0  0  0  0
    4.1281   -0.9891    2.4900 H   0  0  0  0  0  0  0  0  0  0  0  0
    3.3958   -0.8169    4.1075 H   0  0  0  0  0  0  0  0  0  0  0  0
    2.7295    2.9357    1.6376 C   0  0  0  0  0  0  0  0  0  0  0  0
    3.4667    3.7655    1.6549 H   0  0  0  0  0  0  0  0  0  0  0  0
    2.5605    2.6118    2.6847 H   0  0  0  0  0  0  0  0  0  0  0  0
    1.7693    3.3380    1.2563 H   0  0  0  0  0  0  0  0  0  0  0  0
    3.4875    2.2563   -0.6918 C   0  0  0  0  0  0  0  0  0  0  0  0
    2.5360    2.4826   -1.2134 H   0  0  0  0  0  0  0  0  0  0  0  0
    4.0060    1.4790   -1.2851 H   0  0  0  0  0  0  0  0  0  0  0  0
    4.1166    3.1713   -0.6953 H   0  0  0  0  0  0  0  0  0  0  0  0
    1.9253    0.4195    0.7340 P   0  0  0  0  0  0  0  0  0  0  0  0
  1 24  1  0  0  0  0
  2 10  2  0  0  0  0
  2  3  1  0  0  0  0
  3  1  1  0  0  0  0
  3  4  2  0  0  0  0
  4  6  1  0  0  0  0
  4  5  1  0  0  0  0
  6  7  1  0  0  0  0
  8  9  1  0  0  0  0
  8  6  2  0  0  0  0
 10  8  1  0  0  0  0
 11 10  1  0  0  0  0
 12  2  1  0  0  0  0
 13 12  1  0  0  0  0
 14 23  1  0  0  0  0
 15 14  1  0  0  0  0
 16 14  2  0  0  0  0
 16 18  1  0  0  0  0
 17 16  1  0  0  0  0
 18 20  2  0  0  0  0
 19 18  1  0  0  0  0
 20 22  1  0  0  0  0
 20 21  1  0  0  0  0
 22 64  1  0  0  0  0
 23 12  1  0  0  0  0
 23 22  2  0  0  0  0
 24 28  1  0  0  0  0
 24 25  1  0  0  0  0
 24 32  1  0  0  0  0
 26 27  1  0  0  0  0
 26 42  1  0  0  0  0
 26  1  1  0  0  0  0
 28 30  1  0  0  0  0
 29 28  1  0  0  0  0
 31 28  1  0  0  0  0
 32 34  1  0  0  0  0
 32 35  1  0  0  0  0
 33 32  1  0  0  0  0
 36 37  1  0  0  0  0
 36 52  1  0  0  0  0
 38 26  1  0  0  0  0
 39 38  1  0  0  0  0
 40 38  1  0  0  0  0
 41 38  1  0  0  0  0
 42 43  1  0  0  0  0
 44 42  1  0  0  0  0
 45 42  1  0  0  0  0
 46 47  1  0  0  0  0
 46 56  1  0  0  0  0
 48 36  1  0  0  0  0
 48 49  1  0  0  0  0
 50 48  1  0  0  0  0
 51 48  1  0  0  0  0
 52 53  1  0  0  0  0
 52 55  1  0  0  0  0
 54 52  1  0  0  0  0
 56 57  1  0  0  0  0
 56 58  1  0  0  0  0
 59 56  1  0  0  0  0
 60 46  1  0  0  0  0
 61 60  1  0  0  0  0
 62 60  1  0  0  0  0
 63 60  1  0  0  0  0
 64 46  1  0  0  0  0
 64 36  1  0  0  0  0
M  END
