1,3,4
 OpenBabel05122313063D

 64 65  0  0  0  0  0  0  0  0999 V2000
    0.3942    1.3446   -0.9878 C   0  0  0  0  0  3  0  0  0  0  0  0
   -0.0734    0.6333   -2.5406 S   0  0  0  0  0  1  0  0  0  0  0  0
   -2.1933    0.2012    0.3019 P   0  0  0  0  0  0  0  0  0  0  0  0
    1.9209   -0.4645    0.8260 P   0  0  0  0  0  0  0  0  0  0  0  0
   -1.8549    2.0038    0.0606 C   0  0  0  0  0  0  0  0  0  0  0  0
   -0.5608    2.3714   -0.4050 C   0  0  0  0  0  0  0  0  0  0  0  0
   -0.2211    3.7442   -0.3769 C   0  0  0  0  0  0  0  0  0  0  0  0
    0.7891    4.0550   -0.6738 H   0  0  0  0  0  0  0  0  0  0  0  0
   -1.1475    4.7253    0.0029 C   0  0  0  0  0  0  0  0  0  0  0  0
   -0.8459    5.7842    0.0042 H   0  0  0  0  0  0  0  0  0  0  0  0
   -2.4527    4.3613    0.3595 C   0  0  0  0  0  0  0  0  0  0  0  0
   -3.1955    5.1253    0.6346 H   0  0  0  0  0  0  0  0  0  0  0  0
   -2.7937    3.0010    0.3878 C   0  0  0  0  0  0  0  0  0  0  0  0
   -3.8133    2.7144    0.6844 H   0  0  0  0  0  0  0  0  0  0  0  0
    2.6868    1.0334    0.0692 C   0  0  0  0  0  0  0  0  0  0  0  0
    1.8653    1.6904   -0.8752 C   0  0  0  0  0  0  0  0  0  0  0  0
    2.4453    2.6802   -1.7007 C   0  0  0  0  0  0  0  0  0  0  0  0
    1.8320    3.1343   -2.4932 H   0  0  0  0  0  0  0  0  0  0  0  0
    3.7824    3.0636   -1.5338 C   0  0  0  0  0  0  0  0  0  0  0  0
    4.2152    3.8355   -2.1886 H   0  0  0  0  0  0  0  0  0  0  0  0
    4.5687    2.4675   -0.5326 C   0  0  0  0  0  0  0  0  0  0  0  0
    5.6136    2.7806   -0.3855 H   0  0  0  0  0  0  0  0  0  0  0  0
    4.0229    1.4462    0.2565 C   0  0  0  0  0  0  0  0  0  0  0  0
    4.6493    0.9564    1.0163 H   0  0  0  0  0  0  0  0  0  0  0  0
   -3.8803    0.0240   -0.5308 C   0  0  0  0  0  0  0  0  0  0  0  0
   -4.5526    0.7624   -0.0398 H   0  0  0  0  0  0  0  0  0  0  0  0
   -2.5725    0.0884    2.1656 C   0  0  0  0  0  0  0  0  0  0  0  0
   -1.7531    0.7169    2.5776 H   0  0  0  0  0  0  0  0  0  0  0  0
   -3.7674    0.3761   -2.0177 C   0  0  0  0  0  0  0  0  0  0  0  0
   -4.7597    0.2865   -2.5086 H   0  0  0  0  0  0  0  0  0  0  0  0
   -3.0539   -0.2946   -2.5363 H   0  0  0  0  0  0  0  0  0  0  0  0
   -3.3914    1.4059   -2.1700 H   0  0  0  0  0  0  0  0  0  0  0  0
   -4.4690   -1.3756   -0.3245 C   0  0  0  0  0  0  0  0  0  0  0  0
   -5.4553   -1.4564   -0.8281 H   0  0  0  0  0  0  0  0  0  0  0  0
   -4.6203   -1.6247    0.7442 H   0  0  0  0  0  0  0  0  0  0  0  0
   -3.8119   -2.1547   -0.7614 H   0  0  0  0  0  0  0  0  0  0  0  0
   -2.3426   -1.3476    2.6518 C   0  0  0  0  0  0  0  0  0  0  0  0
   -2.2870   -1.3825    3.7603 H   0  0  0  0  0  0  0  0  0  0  0  0
   -1.3991   -1.7522    2.2350 H   0  0  0  0  0  0  0  0  0  0  0  0
   -3.1658   -2.0238    2.3426 H   0  0  0  0  0  0  0  0  0  0  0  0
    2.0121   -0.1109    2.6715 C   0  0  0  0  0  0  0  0  0  0  0  0
    3.0882    0.0445    2.9078 H   0  0  0  0  0  0  0  0  0  0  0  0
   -3.9067    0.6458    2.6676 C   0  0  0  0  0  0  0  0  0  0  0  0
   -3.9683    0.5412    3.7720 H   0  0  0  0  0  0  0  0  0  0  0  0
   -4.7728    0.0970    2.2442 H   0  0  0  0  0  0  0  0  0  0  0  0
   -4.0314    1.7198    2.4357 H   0  0  0  0  0  0  0  0  0  0  0  0
    3.2009   -1.8313    0.5360 C   0  0  0  0  0  0  0  0  0  0  0  0
    2.5909   -2.7409    0.7332 H   0  0  0  0  0  0  0  0  0  0  0  0
    3.5861   -1.8193   -0.9493 C   0  0  0  0  0  0  0  0  0  0  0  0
    4.0661   -2.7767   -1.2400 H   0  0  0  0  0  0  0  0  0  0  0  0
    4.3005   -0.9990   -1.1619 H   0  0  0  0  0  0  0  0  0  0  0  0
    2.6983   -1.6529   -1.5931 H   0  0  0  0  0  0  0  0  0  0  0  0
    4.4310   -1.8823    1.4471 C   0  0  0  0  0  0  0  0  0  0  0  0
    5.0320   -2.7868    1.2128 H   0  0  0  0  0  0  0  0  0  0  0  0
    4.1711   -1.9313    2.5226 H   0  0  0  0  0  0  0  0  0  0  0  0
    5.0959   -1.0098    1.2933 H   0  0  0  0  0  0  0  0  0  0  0  0
    1.4819   -1.3017    3.4748 C   0  0  0  0  0  0  0  0  0  0  0  0
    1.5481   -1.1003    4.5646 H   0  0  0  0  0  0  0  0  0  0  0  0
    2.0461   -2.2346    3.2720 H   0  0  0  0  0  0  0  0  0  0  0  0
    0.4183   -1.4942    3.2304 H   0  0  0  0  0  0  0  0  0  0  0  0
    1.2501    1.1822    2.9729 C   0  0  0  0  0  0  0  0  0  0  0  0
    1.2619    1.3988    4.0614 H   0  0  0  0  0  0  0  0  0  0  0  0
    0.1920    1.1002    2.6497 H   0  0  0  0  0  0  0  0  0  0  0  0
    1.6870    2.0499    2.4411 H   0  0  0  0  0  0  0  0  0  0  0  0
  1 16  1  0  0  0  0
  1  6  1  0  0  0  0
  2  1  1  0  0  0  0
  3 27  1  0  0  0  0
  4 41  1  0  0  0  0
  5  3  1  0  0  0  0
  5 13  1  0  0  0  0
  6  7  1  0  0  0  0
  6  5  2  0  0  0  0
  7  9  2  0  0  0  0
  8  7  1  0  0  0  0
  9 10  1  0  0  0  0
  9 11  1  0  0  0  0
 11 13  2  0  0  0  0
 11 12  1  0  0  0  0
 13 14  1  0  0  0  0
 15 23  1  0  0  0  0
 15  4  1  0  0  0  0
 16 15  2  0  0  0  0
 17 19  2  0  0  0  0
 17 16  1  0  0  0  0
 18 17  1  0  0  0  0
 19 21  1  0  0  0  0
 20 19  1  0  0  0  0
 21 22  1  0  0  0  0
 21 23  2  0  0  0  0
 23 24  1  0  0  0  0
 25 33  1  0  0  0  0
 25 26  1  0  0  0  0
 25  3  1  0  0  0  0
 27 28  1  0  0  0  0
 27 37  1  0  0  0  0
 27 43  1  0  0  0  0
 29 25  1  0  0  0  0
 30 29  1  0  0  0  0
 31 29  1  0  0  0  0
 32 29  1  0  0  0  0
 33 35  1  0  0  0  0
 34 33  1  0  0  0  0
 36 33  1  0  0  0  0
 37 38  1  0  0  0  0
 39 37  1  0  0  0  0
 40 37  1  0  0  0  0
 41 42  1  0  0  0  0
 41 61  1  0  0  0  0
 41 57  1  0  0  0  0
 43 44  1  0  0  0  0
 45 43  1  0  0  0  0
 46 43  1  0  0  0  0
 47 48  1  0  0  0  0
 47  4  1  0  0  0  0
 47 53  1  0  0  0  0
 49 47  1  0  0  0  0
 50 49  1  0  0  0  0
 51 49  1  0  0  0  0
 52 49  1  0  0  0  0
 53 55  1  0  0  0  0
 54 53  1  0  0  0  0
 56 53  1  0  0  0  0
 57 58  1  0  0  0  0
 59 57  1  0  0  0  0
 60 57  1  0  0  0  0
 61 62  1  0  0  0  0
 63 61  1  0  0  0  0
 64 61  1  0  0  0  0
M  END
