1,18,55
 OpenBabel05122313063D

 77 83  0  0  0  0  0  0  0  0999 V2000
    0.0002    0.0015   -1.8154 C   0  0  0  0  0  3  0  0  0  0  0  0
   -0.2533    1.1927   -2.5388 C   0  0  0  0  0  0  0  0  0  0  0  0
   -0.2304    1.1898   -3.9503 C   0  0  0  0  0  0  0  0  0  0  0  0
   -0.4265    2.1316   -4.4861 H   0  0  0  0  0  0  0  0  0  0  0  0
    0.0006    0.0037   -4.6579 C   0  0  0  0  0  0  0  0  0  0  0  0
    0.0008    0.0046   -5.7585 H   0  0  0  0  0  0  0  0  0  0  0  0
   -0.6030    2.4611   -1.8426 C   0  0  0  0  0  0  0  0  0  0  0  0
    0.2028    3.6122   -1.9310 C   0  0  0  0  0  0  0  0  0  0  0  0
    1.1501    3.5487   -2.4862 H   0  0  0  0  0  0  0  0  0  0  0  0
   -0.1771    4.8100   -1.3069 C   0  0  0  0  0  0  0  0  0  0  0  0
    0.4759    5.6930   -1.3762 H   0  0  0  0  0  0  0  0  0  0  0  0
   -1.3863    4.8802   -0.5972 C   0  0  0  0  0  0  0  0  0  0  0  0
   -1.6915    5.8186   -0.1100 H   0  0  0  0  0  0  0  0  0  0  0  0
   -2.2131    3.7497   -0.5074 C   0  0  0  0  0  0  0  0  0  0  0  0
   -3.1708    3.7740    0.0319 H   0  0  0  0  0  0  0  0  0  0  0  0
   -1.8176    2.5552   -1.1266 C   0  0  0  0  0  0  0  0  0  0  0  0
   -2.6673    1.4555   -1.0738 O   0  0  0  0  0  0  0  0  0  0  0  0
   -2.2794    0.2201    0.0147 P   0  0  0  0  0  0  0  0  0  0  0  0
   -3.4375    0.6122    1.3777 C   0  0  0  0  0  0  0  0  0  0  0  0
   -3.0723    1.6436    2.2701 C   0  0  0  0  0  0  0  0  0  0  0  0
   -2.0780    2.1071    2.1940 H   0  0  0  0  0  0  0  0  0  0  0  0
   -3.9722    2.0628    3.2593 C   0  0  0  0  0  0  0  0  0  0  0  0
   -3.6813    2.8653    3.9538 H   0  0  0  0  0  0  0  0  0  0  0  0
   -5.2289    1.4470    3.3771 C   0  0  0  0  0  0  0  0  0  0  0  0
   -5.9285    1.7697    4.1633 H   0  0  0  0  0  0  0  0  0  0  0  0
   -5.5922    0.4179    2.4943 C   0  0  0  0  0  0  0  0  0  0  0  0
   -6.5774   -0.0646    2.5822 H   0  0  0  0  0  0  0  0  0  0  0  0
   -4.7034    0.0035    1.4907 C   0  0  0  0  0  0  0  0  0  0  0  0
   -4.9982   -0.7929    0.7920 H   0  0  0  0  0  0  0  0  0  0  0  0
   -2.9917   -1.2299   -0.8251 C   0  0  0  0  0  0  0  0  0  0  0  0
   -3.0618   -2.4467   -0.1140 C   0  0  0  0  0  0  0  0  0  0  0  0
   -2.7232   -2.4938    0.9333 H   0  0  0  0  0  0  0  0  0  0  0  0
   -3.5567   -3.5949   -0.7470 C   0  0  0  0  0  0  0  0  0  0  0  0
   -3.6148   -4.5418   -0.1897 H   0  0  0  0  0  0  0  0  0  0  0  0
   -3.9614   -3.5390   -2.0918 C   0  0  0  0  0  0  0  0  0  0  0  0
   -4.3452   -4.4430   -2.5887 H   0  0  0  0  0  0  0  0  0  0  0  0
   -3.8643   -2.3330   -2.8048 C   0  0  0  0  0  0  0  0  0  0  0  0
   -4.1677   -2.2904   -3.8618 H   0  0  0  0  0  0  0  0  0  0  0  0
   -3.3806   -1.1748   -2.1763 C   0  0  0  0  0  0  0  0  0  0  0  0
   -3.2958   -0.2264   -2.7257 H   0  0  0  0  0  0  0  0  0  0  0  0
    0.2538   -1.1887   -2.5407 C   0  0  0  0  0  0  0  0  0  0  0  0
    0.2313   -1.1835   -3.9521 C   0  0  0  0  0  0  0  0  0  0  0  0
    0.4276   -2.1244   -4.4894 H   0  0  0  0  0  0  0  0  0  0  0  0
    0.6032   -2.4581   -1.8463 C   0  0  0  0  0  0  0  0  0  0  0  0
   -0.2026   -3.6091   -1.9366 C   0  0  0  0  0  0  0  0  0  0  0  0
   -1.1499   -3.5446   -2.4919 H   0  0  0  0  0  0  0  0  0  0  0  0
    0.1771   -4.8078   -1.3142 C   0  0  0  0  0  0  0  0  0  0  0  0
   -0.4760   -5.6906   -1.3850 H   0  0  0  0  0  0  0  0  0  0  0  0
    1.3861   -4.8792   -0.6043 C   0  0  0  0  0  0  0  0  0  0  0  0
    1.6911   -5.8183   -0.1185 H   0  0  0  0  0  0  0  0  0  0  0  0
    2.2130   -3.7489   -0.5127 C   0  0  0  0  0  0  0  0  0  0  0  0
    3.1705   -3.7741    0.0268 H   0  0  0  0  0  0  0  0  0  0  0  0
    1.8177   -2.5535   -1.1302 C   0  0  0  0  0  0  0  0  0  0  0  0
    2.6675   -1.4539   -1.0756 O   0  0  0  0  0  0  0  0  0  0  0  0
    2.2795   -0.2201    0.0147 P   0  0  0  0  0  0  0  0  0  0  0  0
    3.4374   -0.6142    1.3772 C   0  0  0  0  0  0  0  0  0  0  0  0
    3.0721   -1.6468    2.2682 C   0  0  0  0  0  0  0  0  0  0  0  0
    2.0777   -2.1099    2.1915 H   0  0  0  0  0  0  0  0  0  0  0  0
    3.9720   -2.0675    3.2568 C   0  0  0  0  0  0  0  0  0  0  0  0
    3.6810   -2.8709    3.9502 H   0  0  0  0  0  0  0  0  0  0  0  0
    5.2288   -1.4522    3.3753 C   0  0  0  0  0  0  0  0  0  0  0  0
    5.9284   -1.7761    4.1610 H   0  0  0  0  0  0  0  0  0  0  0  0
    5.5922   -0.4219    2.4939 C   0  0  0  0  0  0  0  0  0  0  0  0
    6.5776    0.0603    2.5824 H   0  0  0  0  0  0  0  0  0  0  0  0
    4.7035   -0.0059    1.4909 C   0  0  0  0  0  0  0  0  0  0  0  0
    4.9984    0.7914    0.7933 H   0  0  0  0  0  0  0  0  0  0  0  0
    2.9918    1.2312   -0.8228 C   0  0  0  0  0  0  0  0  0  0  0  0
    3.0620    2.4469   -0.1100 C   0  0  0  0  0  0  0  0  0  0  0  0
    2.7235    2.4925    0.9374 H   0  0  0  0  0  0  0  0  0  0  0  0
    3.5570    3.5960   -0.7413 C   0  0  0  0  0  0  0  0  0  0  0  0
    3.6152    4.5421   -0.1826 H   0  0  0  0  0  0  0  0  0  0  0  0
    3.9616    3.5422   -2.0861 C   0  0  0  0  0  0  0  0  0  0  0  0
    4.3455    4.4469   -2.5817 H   0  0  0  0  0  0  0  0  0  0  0  0
    3.8644    2.3371   -2.8009 C   0  0  0  0  0  0  0  0  0  0  0  0
    4.1678    2.2961   -3.8580 H   0  0  0  0  0  0  0  0  0  0  0  0
    3.3807    1.1781   -2.1742 C   0  0  0  0  0  0  0  0  0  0  0  0
    3.2958    0.2305   -2.7250 H   0  0  0  0  0  0  0  0  0  0  0  0
  2  7  1  0  0  0  0
  2  1  1  0  0  0  0
  3  2  2  0  0  0  0
  4  3  1  0  0  0  0
  5 42  2  0  0  0  0
  5  3  1  0  0  0  0
  6  5  1  0  0  0  0
  7 16  1  0  0  0  0
  8  7  2  0  0  0  0
  8 10  1  0  0  0  0
  9  8  1  0  0  0  0
 10 12  2  0  0  0  0
 11 10  1  0  0  0  0
 12 14  1  0  0  0  0
 12 13  1  0  0  0  0
 14 15  1  0  0  0  0
 16 17  1  0  0  0  0
 16 14  2  0  0  0  0
 17 18  1  0  0  0  0
 18 19  1  0  0  0  0
 19 28  2  0  0  0  0
 19 20  1  0  0  0  0
 20 22  2  0  0  0  0
 21 20  1  0  0  0  0
 22 24  1  0  0  0  0
 22 23  1  0  0  0  0
 24 25  1  0  0  0  0
 26 27  1  0  0  0  0
 26 24  2  0  0  0  0
 28 26  1  0  0  0  0
 29 28  1  0  0  0  0
 30 31  1  0  0  0  0
 30 18  1  0  0  0  0
 31 32  1  0  0  0  0
 33 34  1  0  0  0  0
 33 31  2  0  0  0  0
 35 33  1  0  0  0  0
 36 35  1  0  0  0  0
 37 39  1  0  0  0  0
 37 35  2  0  0  0  0
 38 37  1  0  0  0  0
 39 30  2  0  0  0  0
 40 39  1  0  0  0  0
 41 44  1  0  0  0  0
 41  1  2  0  0  0  0
 42 41  1  0  0  0  0
 43 42  1  0  0  0  0
 44 53  1  0  0  0  0
 45 44  2  0  0  0  0
 45 47  1  0  0  0  0
 46 45  1  0  0  0  0
 47 49  2  0  0  0  0
 48 47  1  0  0  0  0
 49 51  1  0  0  0  0
 49 50  1  0  0  0  0
 51 52  1  0  0  0  0
 53 54  1  0  0  0  0
 53 51  2  0  0  0  0
 54 55  1  0  0  0  0
 55 56  1  0  0  0  0
 56 65  2  0  0  0  0
 56 57  1  0  0  0  0
 57 59  2  0  0  0  0
 58 57  1  0  0  0  0
 59 61  1  0  0  0  0
 59 60  1  0  0  0  0
 61 62  1  0  0  0  0
 63 64  1  0  0  0  0
 63 61  2  0  0  0  0
 65 63  1  0  0  0  0
 66 65  1  0  0  0  0
 67 68  1  0  0  0  0
 67 55  1  0  0  0  0
 68 69  1  0  0  0  0
 70 71  1  0  0  0  0
 70 68  2  0  0  0  0
 72 70  1  0  0  0  0
 73 72  1  0  0  0  0
 74 76  1  0  0  0  0
 74 72  2  0  0  0  0
 75 74  1  0  0  0  0
 76 67  2  0  0  0  0
 77 76  1  0  0  0  0
M  END
