1,2,12
 OpenBabel05122313063D

 70 72  0  0  0  0  0  0  0  0999 V2000
    2.3030   -0.9333    0.0137 P   0  0  0  0  0  0  0  0  0  0  0  0
   -2.3030   -0.9333   -0.0137 P   0  0  0  0  0  0  0  0  0  0  0  0
    2.4804    0.8896    0.1435 C   0  0  0  0  0  0  0  0  0  0  0  0
    3.6940    1.5580    0.3044 C   0  0  0  0  0  0  0  0  0  0  0  0
    4.6386    1.0016    0.3868 H   0  0  0  0  0  0  0  0  0  0  0  0
    3.7028    2.9654    0.3649 C   0  0  0  0  0  0  0  0  0  0  0  0
    4.6550    3.5029    0.4889 H   0  0  0  0  0  0  0  0  0  0  0  0
    2.5089    3.6867    0.2612 C   0  0  0  0  0  0  0  0  0  0  0  0
    2.5522    4.7844    0.3024 H   0  0  0  0  0  0  0  0  0  0  0  0
    1.2651    3.0412    0.1141 C   0  0  0  0  0  0  0  0  0  0  0  0
    1.2449    1.6140    0.0723 C   0  0  0  0  0  0  0  0  0  0  0  0
    0.0000    0.8642    0.0000 C   0  0  0  0  0  2  0  0  0  0  0  0
   -1.2448    1.6141   -0.0722 C   0  0  0  0  0  0  0  0  0  0  0  0
   -1.2651    3.0412   -0.1140 C   0  0  0  0  0  0  0  0  0  0  0  0
    0.0000    3.8797    0.0000 C   0  0  0  0  0  0  0  0  0  0  0  0
   -2.5088    3.6867   -0.2610 C   0  0  0  0  0  0  0  0  0  0  0  0
   -2.5522    4.7845   -0.3022 H   0  0  0  0  0  0  0  0  0  0  0  0
   -3.7028    2.9655   -0.3647 C   0  0  0  0  0  0  0  0  0  0  0  0
   -4.6549    3.5030   -0.4887 H   0  0  0  0  0  0  0  0  0  0  0  0
   -3.6940    1.5581   -0.3043 C   0  0  0  0  0  0  0  0  0  0  0  0
   -4.6386    1.0017   -0.3866 H   0  0  0  0  0  0  0  0  0  0  0  0
   -2.4804    0.8896   -0.1434 C   0  0  0  0  0  0  0  0  0  0  0  0
   -0.1252    4.7735    1.2692 C   0  0  0  0  0  0  0  0  0  0  0  0
   -0.2072    4.1523    2.1822 H   0  0  0  0  0  0  0  0  0  0  0  0
   -1.0212    5.4197    1.2070 H   0  0  0  0  0  0  0  0  0  0  0  0
    0.7565    5.4336    1.3755 H   0  0  0  0  0  0  0  0  0  0  0  0
    0.1253    4.7734   -1.2693 C   0  0  0  0  0  0  0  0  0  0  0  0
    1.0213    5.4195   -1.2072 H   0  0  0  0  0  0  0  0  0  0  0  0
   -0.7564    5.4334   -1.3756 H   0  0  0  0  0  0  0  0  0  0  0  0
    0.2073    4.1520   -2.1822 H   0  0  0  0  0  0  0  0  0  0  0  0
    3.0917   -1.4622   -1.5909 C   0  0  0  0  0  0  0  0  0  0  0  0
    2.8926   -2.5573   -1.5832 H   0  0  0  0  0  0  0  0  0  0  0  0
    2.3271   -0.8344   -2.7627 C   0  0  0  0  0  0  0  0  0  0  0  0
    1.2448   -1.0708   -2.7191 H   0  0  0  0  0  0  0  0  0  0  0  0
    2.7243   -1.2219   -3.7223 H   0  0  0  0  0  0  0  0  0  0  0  0
    2.4388    0.2696   -2.7738 H   0  0  0  0  0  0  0  0  0  0  0  0
    4.6002   -1.2110   -1.6668 C   0  0  0  0  0  0  0  0  0  0  0  0
    4.8283   -0.1273   -1.7171 H   0  0  0  0  0  0  0  0  0  0  0  0
    5.0054   -1.6710   -2.5911 H   0  0  0  0  0  0  0  0  0  0  0  0
    5.1537   -1.6484   -0.8127 H   0  0  0  0  0  0  0  0  0  0  0  0
    3.2645   -1.6493    1.4381 C   0  0  0  0  0  0  0  0  0  0  0  0
    4.2626   -1.1572    1.4049 H   0  0  0  0  0  0  0  0  0  0  0  0
    2.5545   -1.2680    2.7437 C   0  0  0  0  0  0  0  0  0  0  0  0
    2.4254   -0.1719    2.8490 H   0  0  0  0  0  0  0  0  0  0  0  0
    3.1444   -1.6249    3.6117 H   0  0  0  0  0  0  0  0  0  0  0  0
    1.5533   -1.7428    2.7936 H   0  0  0  0  0  0  0  0  0  0  0  0
    3.4316   -3.1661    1.2835 C   0  0  0  0  0  0  0  0  0  0  0  0
    2.4460   -3.6674    1.2079 H   0  0  0  0  0  0  0  0  0  0  0  0
    3.9623   -3.5682    2.1701 H   0  0  0  0  0  0  0  0  0  0  0  0
    4.0263   -3.4387    0.3898 H   0  0  0  0  0  0  0  0  0  0  0  0
   -3.2645   -1.6492   -1.4382 C   0  0  0  0  0  0  0  0  0  0  0  0
   -4.2626   -1.1571   -1.4050 H   0  0  0  0  0  0  0  0  0  0  0  0
   -2.5545   -1.2677   -2.7438 C   0  0  0  0  0  0  0  0  0  0  0  0
   -2.4254   -0.1716   -2.8490 H   0  0  0  0  0  0  0  0  0  0  0  0
   -3.1443   -1.6245   -3.6118 H   0  0  0  0  0  0  0  0  0  0  0  0
   -1.5532   -1.7423   -2.7937 H   0  0  0  0  0  0  0  0  0  0  0  0
   -3.4315   -3.1659   -1.2838 C   0  0  0  0  0  0  0  0  0  0  0  0
   -2.4459   -3.6672   -1.2083 H   0  0  0  0  0  0  0  0  0  0  0  0
   -3.9622   -3.5679   -2.1704 H   0  0  0  0  0  0  0  0  0  0  0  0
   -4.0261   -3.4387   -0.3901 H   0  0  0  0  0  0  0  0  0  0  0  0
   -3.0917   -1.4623    1.5908 C   0  0  0  0  0  0  0  0  0  0  0  0
   -2.8926   -2.5574    1.5830 H   0  0  0  0  0  0  0  0  0  0  0  0
   -4.6002   -1.2112    1.6666 C   0  0  0  0  0  0  0  0  0  0  0  0
   -4.8284   -0.1275    1.7170 H   0  0  0  0  0  0  0  0  0  0  0  0
   -5.0055   -1.6713    2.5910 H   0  0  0  0  0  0  0  0  0  0  0  0
   -5.1537   -1.6486    0.8125 H   0  0  0  0  0  0  0  0  0  0  0  0
   -2.3272   -0.8346    2.7627 C   0  0  0  0  0  0  0  0  0  0  0  0
   -1.2449   -1.0709    2.7191 H   0  0  0  0  0  0  0  0  0  0  0  0
   -2.7245   -1.2222    3.7222 H   0  0  0  0  0  0  0  0  0  0  0  0
   -2.4390    0.2695    2.7739 H   0  0  0  0  0  0  0  0  0  0  0  0
  1  3  1  0  0  0  0
  1 41  1  0  0  0  0
  2 61  1  0  0  0  0
  3  4  1  0  0  0  0
  4  6  2  0  0  0  0
  4  5  1  0  0  0  0
  6  7  1  0  0  0  0
  8  9  1  0  0  0  0
  8  6  1  0  0  0  0
 10  8  2  0  0  0  0
 11 10  1  0  0  0  0
 11  3  2  0  0  0  0
 12 11  1  0  0  0  0
 13 12  1  0  0  0  0
 14 13  1  0  0  0  0
 14 15  1  0  0  0  0
 15 10  1  0  0  0  0
 15 23  1  0  0  0  0
 16 14  2  0  0  0  0
 17 16  1  0  0  0  0
 18 20  2  0  0  0  0
 18 16  1  0  0  0  0
 19 18  1  0  0  0  0
 20 22  1  0  0  0  0
 21 20  1  0  0  0  0
 22 13  2  0  0  0  0
 22  2  1  0  0  0  0
 23 26  1  0  0  0  0
 23 24  1  0  0  0  0
 25 23  1  0  0  0  0
 27 28  1  0  0  0  0
 27 15  1  0  0  0  0
 29 27  1  0  0  0  0
 30 27  1  0  0  0  0
 31 32  1  0  0  0  0
 31  1  1  0  0  0  0
 33 34  1  0  0  0  0
 33 31  1  0  0  0  0
 35 33  1  0  0  0  0
 36 33  1  0  0  0  0
 37 31  1  0  0  0  0
 37 40  1  0  0  0  0
 38 37  1  0  0  0  0
 39 37  1  0  0  0  0
 41 43  1  0  0  0  0
 42 41  1  0  0  0  0
 43 46  1  0  0  0  0
 43 44  1  0  0  0  0
 43 45  1  0  0  0  0
 47 41  1  0  0  0  0
 47 49  1  0  0  0  0
 48 47  1  0  0  0  0
 50 47  1  0  0  0  0
 51 52  1  0  0  0  0
 51 57  1  0  0  0  0
 51  2  1  0  0  0  0
 53 51  1  0  0  0  0
 54 53  1  0  0  0  0
 55 53  1  0  0  0  0
 56 53  1  0  0  0  0
 57 58  1  0  0  0  0
 57 60  1  0  0  0  0
 59 57  1  0  0  0  0
 61 63  1  0  0  0  0
 61 67  1  0  0  0  0
 62 61  1  0  0  0  0
 63 64  1  0  0  0  0
 63 65  1  0  0  0  0
 66 63  1  0  0  0  0
 67 70  1  0  0  0  0
 67 69  1  0  0  0  0
 68 67  1  0  0  0  0
M  END
