1,2,3
 OpenBabel05122313063D

 73 74  0  0  1  0  0  0  0  0999 V2000
   -2.4433   -0.5171   -0.0055 P   0  0  0  0  0  0  0  0  0  0  0  0
    2.1414   -0.7536   -0.0513 P   0  0  0  0  0  0  0  0  0  0  0  0
   -0.2069    1.4520   -0.4178 C   0  0  1  0  0  3  0  0  0  0  0  0
    0.7710    2.1855    0.5482 C   0  0  2  0  0  0  0  0  0  0  0  0
    0.5745    3.2717    0.4049 H   0  0  0  0  0  0  0  0  0  0  0  0
   -3.0850    4.0434   -0.2963 C   0  0  0  0  0  0  0  0  0  0  0  0
   -3.1904    5.1372   -0.3662 H   0  0  0  0  0  0  0  0  0  0  0  0
    2.4368   -0.9442   -2.8419 C   0  0  0  0  0  0  0  0  0  0  0  0
    1.3342   -0.9933   -2.9515 H   0  0  0  0  0  0  0  0  0  0  0  0
    2.8919   -1.4563   -3.7149 H   0  0  0  0  0  0  0  0  0  0  0  0
    2.7414    0.1204   -2.8800 H   0  0  0  0  0  0  0  0  0  0  0  0
    2.5456   -3.1217   -1.5511 C   0  0  0  0  0  0  0  0  0  0  0  0
    1.4520   -3.2882   -1.4805 H   0  0  0  0  0  0  0  0  0  0  0  0
    3.0114   -3.6628   -0.7048 H   0  0  0  0  0  0  0  0  0  0  0  0
    2.9216   -3.5812   -2.4890 H   0  0  0  0  0  0  0  0  0  0  0  0
    4.3148   -1.9336    1.4428 C   0  0  0  0  0  0  0  0  0  0  0  0
    4.8407   -0.9821    1.6614 H   0  0  0  0  0  0  0  0  0  0  0  0
    4.7217   -2.3454    0.4977 H   0  0  0  0  0  0  0  0  0  0  0  0
    4.5790   -2.6476    2.2509 H   0  0  0  0  0  0  0  0  0  0  0  0
    2.2616   -1.1912    2.7304 C   0  0  0  0  0  0  0  0  0  0  0  0
    2.6292   -0.1636    2.9298 H   0  0  0  0  0  0  0  0  0  0  0  0
    2.5954   -1.8371    3.5688 H   0  0  0  0  0  0  0  0  0  0  0  0
    1.1542   -1.1826    2.7302 H   0  0  0  0  0  0  0  0  0  0  0  0
    2.8857   -1.6266   -1.5465 C   0  0  0  0  0  0  0  0  0  0  0  0
    3.9876   -1.5114   -1.4538 H   0  0  0  0  0  0  0  0  0  0  0  0
    2.7975   -1.7419    1.4077 C   0  0  0  0  0  0  0  0  0  0  0  0
    2.2898   -2.7152    1.2273 H   0  0  0  0  0  0  0  0  0  0  0  0
   -3.4018   -2.8220   -1.3180 C   0  0  0  0  0  0  0  0  0  0  0  0
   -3.9456   -3.1878   -0.4249 H   0  0  0  0  0  0  0  0  0  0  0  0
   -2.3659   -3.2131   -1.2545 H   0  0  0  0  0  0  0  0  0  0  0  0
   -3.8966   -3.2537   -2.2128 H   0  0  0  0  0  0  0  0  0  0  0  0
   -2.8101   -0.7959   -2.7371 C   0  0  0  0  0  0  0  0  0  0  0  0
   -3.3865   -1.2056   -3.5922 H   0  0  0  0  0  0  0  0  0  0  0  0
   -1.7563   -1.1287   -2.8394 H   0  0  0  0  0  0  0  0  0  0  0  0
   -2.8280    0.3099   -2.8104 H   0  0  0  0  0  0  0  0  0  0  0  0
   -4.7040   -1.1203    1.6816 C   0  0  0  0  0  0  0  0  0  0  0  0
   -5.0637   -0.0771    1.7898 H   0  0  0  0  0  0  0  0  0  0  0  0
   -5.0400   -1.6744    2.5831 H   0  0  0  0  0  0  0  0  0  0  0  0
   -5.2127   -1.5743    0.8080 H   0  0  0  0  0  0  0  0  0  0  0  0
   -2.4874   -0.5081    2.7714 C   0  0  0  0  0  0  0  0  0  0  0  0
   -2.7145    0.5776    2.8130 H   0  0  0  0  0  0  0  0  0  0  0  0
   -1.3881   -0.6286    2.7086 H   0  0  0  0  0  0  0  0  0  0  0  0
   -2.8338   -0.9656    3.7210 H   0  0  0  0  0  0  0  0  0  0  0  0
   -3.4024   -1.2922   -1.4127 C   0  0  0  0  0  0  0  0  0  0  0  0
   -4.4438   -0.9090   -1.3186 H   0  0  0  0  0  0  0  0  0  0  0  0
   -3.1778   -1.1790    1.5796 C   0  0  0  0  0  0  0  0  0  0  0  0
   -2.8366   -2.2378    1.5379 H   0  0  0  0  0  0  0  0  0  0  0  0
    2.9921    3.2887    0.2471 C   0  0  0  0  0  0  0  0  0  0  0  0
    2.4419    4.2233    0.4419 H   0  0  0  0  0  0  0  0  0  0  0  0
    4.3691    3.3452    0.0046 C   0  0  0  0  0  0  0  0  0  0  0  0
    4.8898    4.3149    0.0153 H   0  0  0  0  0  0  0  0  0  0  0  0
    5.0717    2.1631   -0.2668 C   0  0  0  0  0  0  0  0  0  0  0  0
    6.1524    2.1848   -0.4737 H   0  0  0  0  0  0  0  0  0  0  0  0
    4.3777    0.9479   -0.2783 C   0  0  0  0  0  0  0  0  0  0  0  0
    4.9326    0.0271   -0.5074 H   0  0  0  0  0  0  0  0  0  0  0  0
    2.9898    0.8785   -0.0146 C   0  0  0  0  0  0  0  0  0  0  0  0
    2.2653    2.0759    0.2448 C   0  0  0  0  0  0  0  0  0  0  0  0
    0.4619    1.9099    2.0288 C   0  0  0  0  0  0  0  0  0  0  0  0
    1.1125    2.5135    2.6934 H   0  0  0  0  0  0  0  0  0  0  0  0
    0.6082    0.8414    2.2704 H   0  0  0  0  0  0  0  0  0  0  0  0
   -0.5943    2.1625    2.2506 H   0  0  0  0  0  0  0  0  0  0  0  0
   -1.8092    3.4673   -0.3413 C   0  0  0  0  0  0  0  0  0  0  0  0
   -0.9397    4.1302   -0.4679 H   0  0  0  0  0  0  0  0  0  0  0  0
   -4.2270    3.2334   -0.1823 C   0  0  0  0  0  0  0  0  0  0  0  0
   -5.2316    3.6822   -0.1604 H   0  0  0  0  0  0  0  0  0  0  0  0
   -4.0697    1.8453   -0.1023 C   0  0  0  0  0  0  0  0  0  0  0  0
   -4.9572    1.1992   -0.0306 H   0  0  0  0  0  0  0  0  0  0  0  0
   -2.7802    1.2722   -0.1176 C   0  0  0  0  0  0  0  0  0  0  0  0
   -1.6174    2.0671   -0.2512 C   0  0  0  0  0  0  0  0  0  0  0  0
    0.1951    1.7064   -1.8835 C   0  0  0  0  0  0  0  0  0  0  0  0
    0.1790    2.7952   -2.1244 H   0  0  0  0  0  0  0  0  0  0  0  0
   -0.4999    1.2042   -2.5839 H   0  0  0  0  0  0  0  0  0  0  0  0
    1.2165    1.3450   -2.0966 H   0  0  0  0  0  0  0  0  0  0  0  0
  1 46  1  0  0  0  0
  2 56  1  0  0  0  0
  2 26  1  0  0  0  0
  3 70  1  6  0  0  0
  3 69  1  0  0  0  0
  3  4  1  0  0  0  0
  4  5  1  6  0  0  0
  4 58  1  0  0  0  0
  6 64  1  0  0  0  0
  7  6  1  0  0  0  0
  8 24  1  0  0  0  0
  9  8  1  0  0  0  0
 10  8  1  0  0  0  0
 11  8  1  0  0  0  0
 12 24  1  0  0  0  0
 12 13  1  0  0  0  0
 12 14  1  0  0  0  0
 15 12  1  0  0  0  0
 16 17  1  0  0  0  0
 16 19  1  0  0  0  0
 18 16  1  0  0  0  0
 20 21  1  0  0  0  0
 20 22  1  0  0  0  0
 23 20  1  0  0  0  0
 24 25  1  0  0  0  0
 24  2  1  0  0  0  0
 26 16  1  0  0  0  0
 26 20  1  0  0  0  0
 27 26  1  0  0  0  0
 28 30  1  0  0  0  0
 28 29  1  0  0  0  0
 31 28  1  0  0  0  0
 32 44  1  0  0  0  0
 33 32  1  0  0  0  0
 34 32  1  0  0  0  0
 35 32  1  0  0  0  0
 36 37  1  0  0  0  0
 36 38  1  0  0  0  0
 39 36  1  0  0  0  0
 40 41  1  0  0  0  0
 40 43  1  0  0  0  0
 42 40  1  0  0  0  0
 44 45  1  0  0  0  0
 44 28  1  0  0  0  0
 44  1  1  0  0  0  0
 46 36  1  0  0  0  0
 46 40  1  0  0  0  0
 47 46  1  0  0  0  0
 48 49  1  0  0  0  0
 50 51  1  0  0  0  0
 50 48  2  0  0  0  0
 52 50  1  0  0  0  0
 53 52  1  0  0  0  0
 54 52  2  0  0  0  0
 54 56  1  0  0  0  0
 55 54  1  0  0  0  0
 56 57  2  0  0  0  0
 57 48  1  0  0  0  0
 57  4  1  0  0  0  0
 58 61  1  0  0  0  0
 58 60  1  0  0  0  0
 58 59  1  0  0  0  0
 62  6  2  0  0  0  0
 62 69  1  0  0  0  0
 63 62  1  0  0  0  0
 64 65  1  0  0  0  0
 64 66  2  0  0  0  0
 66 67  1  0  0  0  0
 68 66  1  0  0  0  0
 68  1  1  0  0  0  0
 69 68  2  0  0  0  0
 71 70  1  0  0  0  0
 72 70  1  0  0  0  0
 73 70  1  0  0  0  0
M  END
