1,3,10
 OpenBabel05122313063D

 72 74  0  0  1  0  0  0  0  0999 V2000
   -2.0827   -0.8931   -0.1646 P   0  0  0  0  0  0  0  0  0  0  0  0
   -1.0068    1.6712    1.1298 C   0  0  0  0  0  0  0  0  0  0  0  0
    2.3123   -0.7323   -0.1145 P   0  0  0  0  0  0  0  0  0  0  0  0
   -1.7620    1.7167    2.3208 C   0  0  0  0  0  0  0  0  0  0  0  0
   -2.8254    1.9931    2.2473 H   0  0  0  0  0  0  0  0  0  0  0  0
    0.1498    1.0526    3.6472 C   0  0  0  0  0  0  0  0  0  0  0  0
    0.6085    0.8052    4.6167 H   0  0  0  0  0  0  0  0  0  0  0  0
   -1.2067    1.4087    3.5715 C   0  0  0  0  0  0  0  0  0  0  0  0
   -1.8282    1.4500    4.4781 H   0  0  0  0  0  0  0  0  0  0  0  0
    0.4083    1.3690    1.1969 C   0  0  2  0  0  3  0  0  0  0  0  0
    0.9429    1.0729    2.4951 C   0  0  0  0  0  3  0  0  0  0  0  0
    2.0282    0.9181    2.5817 H   0  0  0  0  0  0  0  0  0  0  0  0
   -1.7418    1.9063   -0.1582 C   0  0  0  0  0  0  0  0  0  0  0  0
    1.4053    1.8978    0.1901 C   0  0  0  0  0  0  0  0  0  0  0  0
   -2.3462    0.8140   -0.8524 C   0  0  0  0  0  0  0  0  0  0  0  0
   -3.2739    2.3826   -2.4917 C   0  0  0  0  0  0  0  0  0  0  0  0
   -3.8684    2.5600   -3.4010 H   0  0  0  0  0  0  0  0  0  0  0  0
   -3.1081    1.0752   -2.0097 C   0  0  0  0  0  0  0  0  0  0  0  0
   -3.5875    0.2454   -2.5494 H   0  0  0  0  0  0  0  0  0  0  0  0
   -2.6923    3.4559   -1.8045 C   0  0  0  0  0  0  0  0  0  0  0  0
   -2.8250    4.4867   -2.1664 H   0  0  0  0  0  0  0  0  0  0  0  0
   -1.9439    3.2130   -0.6426 C   0  0  0  0  0  0  0  0  0  0  0  0
   -1.5107    4.0577   -0.0875 H   0  0  0  0  0  0  0  0  0  0  0  0
    2.4255    1.0949   -0.3907 C   0  0  0  0  0  0  0  0  0  0  0  0
    3.4178    1.7012   -1.1880 C   0  0  0  0  0  0  0  0  0  0  0  0
    4.2035    1.0803   -1.6450 H   0  0  0  0  0  0  0  0  0  0  0  0
    2.3932    3.8740   -0.8763 C   0  0  0  0  0  0  0  0  0  0  0  0
    2.3702    4.9587   -1.0623 H   0  0  0  0  0  0  0  0  0  0  0  0
    3.4028    3.0806   -1.4404 C   0  0  0  0  0  0  0  0  0  0  0  0
    4.1762    3.5330   -2.0797 H   0  0  0  0  0  0  0  0  0  0  0  0
    1.4176    3.2864   -0.0589 C   0  0  0  0  0  0  0  0  0  0  0  0
    0.6571    3.9161    0.4240 H   0  0  0  0  0  0  0  0  0  0  0  0
   -3.1995   -2.0505    2.1745 C   0  0  0  0  0  0  0  0  0  0  0  0
   -3.2608   -3.0815    1.7719 H   0  0  0  0  0  0  0  0  0  0  0  0
   -3.9348   -1.9722    3.0032 H   0  0  0  0  0  0  0  0  0  0  0  0
   -2.1835   -1.9143    2.5974 H   0  0  0  0  0  0  0  0  0  0  0  0
   -4.8907   -1.0737    0.5089 C   0  0  0  0  0  0  0  0  0  0  0  0
   -5.0658   -0.2780   -0.2437 H   0  0  0  0  0  0  0  0  0  0  0  0
   -5.6570   -0.9539    1.3041 H   0  0  0  0  0  0  0  0  0  0  0  0
   -5.0793   -2.0531    0.0233 H   0  0  0  0  0  0  0  0  0  0  0  0
   -2.6856   -3.4853   -1.0425 C   0  0  0  0  0  0  0  0  0  0  0  0
   -2.8851   -4.1805   -1.8848 H   0  0  0  0  0  0  0  0  0  0  0  0
   -3.4814   -3.6382   -0.2887 H   0  0  0  0  0  0  0  0  0  0  0  0
   -1.7176   -3.7770   -0.5823 H   0  0  0  0  0  0  0  0  0  0  0  0
   -1.6504   -1.9383   -2.7340 C   0  0  0  0  0  0  0  0  0  0  0  0
   -2.0053   -2.5619   -3.5814 H   0  0  0  0  0  0  0  0  0  0  0  0
   -0.6510   -2.3077   -2.4287 H   0  0  0  0  0  0  0  0  0  0  0  0
   -1.5243   -0.9000   -3.0983 H   0  0  0  0  0  0  0  0  0  0  0  0
   -2.6228   -2.0406   -1.5552 C   0  0  0  0  0  0  0  0  0  0  0  0
   -3.6398   -1.7309   -1.8808 H   0  0  0  0  0  0  0  0  0  0  0  0
   -3.4858   -0.9881    1.1074 C   0  0  0  0  0  0  0  0  0  0  0  0
   -3.3819   -0.0009    1.6010 H   0  0  0  0  0  0  0  0  0  0  0  0
    3.7198   -1.0738    1.1158 C   0  0  0  0  0  0  0  0  0  0  0  0
    3.6345   -0.1972    1.7941 H   0  0  0  0  0  0  0  0  0  0  0  0
    3.4051   -2.3309    1.9363 C   0  0  0  0  0  0  0  0  0  0  0  0
    2.3824   -2.2787    2.3620 H   0  0  0  0  0  0  0  0  0  0  0  0
    4.1304   -2.4463    2.7694 H   0  0  0  0  0  0  0  0  0  0  0  0
    3.4602   -3.2497    1.3173 H   0  0  0  0  0  0  0  0  0  0  0  0
    2.0678   -0.8906   -2.9051 C   0  0  0  0  0  0  0  0  0  0  0  0
    2.3165   -1.4147   -3.8517 H   0  0  0  0  0  0  0  0  0  0  0  0
    2.2431    0.1917   -3.0545 H   0  0  0  0  0  0  0  0  0  0  0  0
    0.9859   -1.0255   -2.7087 H   0  0  0  0  0  0  0  0  0  0  0  0
    2.8990   -1.4595   -1.7508 C   0  0  0  0  0  0  0  0  0  0  0  0
    3.9652   -1.1790   -1.8932 H   0  0  0  0  0  0  0  0  0  0  0  0
    5.1333   -1.0825    0.5314 C   0  0  0  0  0  0  0  0  0  0  0  0
    5.2904   -1.9398   -0.1550 H   0  0  0  0  0  0  0  0  0  0  0  0
    5.8848   -1.1762    1.3440 H   0  0  0  0  0  0  0  0  0  0  0  0
    5.3619   -0.1503   -0.0225 H   0  0  0  0  0  0  0  0  0  0  0  0
    2.7887   -2.9876   -1.6790 C   0  0  0  0  0  0  0  0  0  0  0  0
    3.0731   -3.4431   -2.6507 H   0  0  0  0  0  0  0  0  0  0  0  0
    1.7455   -3.2887   -1.4453 H   0  0  0  0  0  0  0  0  0  0  0  0
    3.4445   -3.4235   -0.8993 H   0  0  0  0  0  0  0  0  0  0  0  0
  1 51  1  0  0  0  0
  2 10  1  0  0  0  0
  2  4  2  0  0  0  0
  3 53  1  0  0  0  0
  4  8  1  0  0  0  0
  5  4  1  0  0  0  0
  6  7  1  0  0  0  0
  8  6  2  0  0  0  0
  8  9  1  0  0  0  0
 10 14  1  1  0  0  0
 10 11  1  0  0  0  0
 11 12  1  0  0  0  0
 11  6  1  0  0  0  0
 13  2  1  0  0  0  0
 15  1  1  0  0  0  0
 15 13  2  0  0  0  0
 16 18  2  0  0  0  0
 16 20  1  0  0  0  0
 17 16  1  0  0  0  0
 18 15  1  0  0  0  0
 19 18  1  0  0  0  0
 20 22  2  0  0  0  0
 21 20  1  0  0  0  0
 22 13  1  0  0  0  0
 22 23  1  0  0  0  0
 24  3  1  0  0  0  0
 24 14  2  0  0  0  0
 25 24  1  0  0  0  0
 26 25  1  0  0  0  0
 27 31  2  0  0  0  0
 28 27  1  0  0  0  0
 29 25  2  0  0  0  0
 29 27  1  0  0  0  0
 30 29  1  0  0  0  0
 31 14  1  0  0  0  0
 31 32  1  0  0  0  0
 33 36  1  0  0  0  0
 33 35  1  0  0  0  0
 34 33  1  0  0  0  0
 37 51  1  0  0  0  0
 37 39  1  0  0  0  0
 38 37  1  0  0  0  0
 40 37  1  0  0  0  0
 41 44  1  0  0  0  0
 41 43  1  0  0  0  0
 42 41  1  0  0  0  0
 45 47  1  0  0  0  0
 45 49  1  0  0  0  0
 46 45  1  0  0  0  0
 48 45  1  0  0  0  0
 49 41  1  0  0  0  0
 49  1  1  0  0  0  0
 50 49  1  0  0  0  0
 51 52  1  0  0  0  0
 51 33  1  0  0  0  0
 53 54  1  0  0  0  0
 53 55  1  0  0  0  0
 55 56  1  0  0  0  0
 55 57  1  0  0  0  0
 58 55  1  0  0  0  0
 59 62  1  0  0  0  0
 59 63  1  0  0  0  0
 60 59  1  0  0  0  0
 61 59  1  0  0  0  0
 63 69  1  0  0  0  0
 63  3  1  0  0  0  0
 64 63  1  0  0  0  0
 65 53  1  0  0  0  0
 65 67  1  0  0  0  0
 66 65  1  0  0  0  0
 68 65  1  0  0  0  0
 69 71  1  0  0  0  0
 69 72  1  0  0  0  0
 70 69  1  0  0  0  0
M  END
