1,2,35
 OpenBabel05122313063D

 68 67  0  0  0  0  0  0  0  0999 V2000
   -2.3034   -0.0212    0.1772 P   0  0  0  0  0  0  0  0  0  0  0  0
    2.3033   -0.0209    0.1772 P   0  0  0  0  0  0  0  0  0  0  0  0
   -3.1661    1.6701   -0.1381 C   0  0  0  0  0  0  0  0  0  0  0  0
   -4.5196    1.8185    0.5796 C   0  0  0  0  0  0  0  0  0  0  0  0
   -4.8921    2.8553    0.4319 H   0  0  0  0  0  0  0  0  0  0  0  0
   -4.4407    1.6562    1.6723 H   0  0  0  0  0  0  0  0  0  0  0  0
   -5.2918    1.1333    0.1860 H   0  0  0  0  0  0  0  0  0  0  0  0
   -2.1849    2.7255    0.4124 C   0  0  0  0  0  0  0  0  0  0  0  0
   -2.6166    3.7386    0.2643 H   0  0  0  0  0  0  0  0  0  0  0  0
   -1.2106    2.6705   -0.1115 H   0  0  0  0  0  0  0  0  0  0  0  0
   -1.9930    2.5986    1.4969 H   0  0  0  0  0  0  0  0  0  0  0  0
   -3.3505    1.9200   -1.6434 C   0  0  0  0  0  0  0  0  0  0  0  0
   -3.7468    2.9467   -1.7973 H   0  0  0  0  0  0  0  0  0  0  0  0
   -4.0706    1.2176   -2.1060 H   0  0  0  0  0  0  0  0  0  0  0  0
   -2.3850    1.8572   -2.1816 H   0  0  0  0  0  0  0  0  0  0  0  0
   -3.2686   -1.4524   -0.6517 C   0  0  0  0  0  0  0  0  0  0  0  0
   -4.7934   -1.3642   -0.5046 C   0  0  0  0  0  0  0  0  0  0  0  0
   -5.2564   -2.2937   -0.9010 H   0  0  0  0  0  0  0  0  0  0  0  0
   -5.2219   -0.5179   -1.0755 H   0  0  0  0  0  0  0  0  0  0  0  0
   -5.1084   -1.2657    0.5542 H   0  0  0  0  0  0  0  0  0  0  0  0
   -2.7678   -2.7454    0.0204 C   0  0  0  0  0  0  0  0  0  0  0  0
   -3.2040   -3.6209   -0.5062 H   0  0  0  0  0  0  0  0  0  0  0  0
   -3.0686   -2.8123    1.0847 H   0  0  0  0  0  0  0  0  0  0  0  0
   -1.6637   -2.8212   -0.0377 H   0  0  0  0  0  0  0  0  0  0  0  0
   -2.8661   -1.4974   -2.1373 C   0  0  0  0  0  0  0  0  0  0  0  0
   -3.2902   -2.4093   -2.6098 H   0  0  0  0  0  0  0  0  0  0  0  0
   -1.7623   -1.5222   -2.2415 H   0  0  0  0  0  0  0  0  0  0  0  0
   -3.2425   -0.6239   -2.7034 H   0  0  0  0  0  0  0  0  0  0  0  0
   -2.5389   -0.2405    2.0201 C   0  0  0  0  0  0  0  0  0  0  0  0
   -2.7053    0.7754    2.4328 H   0  0  0  0  0  0  0  0  0  0  0  0
   -3.4506   -0.8302    2.2496 H   0  0  0  0  0  0  0  0  0  0  0  0
   -1.2603   -0.8274    2.6197 C   0  0  0  0  0  0  0  0  0  0  0  0
   -1.3042   -0.7370    3.7318 H   0  0  0  0  0  0  0  0  0  0  0  0
   -1.2104   -1.9169    2.4027 H   0  0  0  0  0  0  0  0  0  0  0  0
   -0.0002   -0.1518    2.0548 C   0  0  0  0  0  3  0  0  0  0  0  0
   -0.0005    0.9162    2.3891 H   0  0  0  0  0  0  0  0  0  0  0  0
    1.2603   -0.8266    2.6199 C   0  0  0  0  0  0  0  0  0  0  0  0
    1.3040   -0.7359    3.7320 H   0  0  0  0  0  0  0  0  0  0  0  0
    1.2109   -1.9161    2.4032 H   0  0  0  0  0  0  0  0  0  0  0  0
    2.5385   -0.2391    2.0204 C   0  0  0  0  0  0  0  0  0  0  0  0
    3.4507   -0.8279    2.2503 H   0  0  0  0  0  0  0  0  0  0  0  0
    2.7041    0.7772    2.4324 H   0  0  0  0  0  0  0  0  0  0  0  0
    3.2687   -1.4526   -0.6506 C   0  0  0  0  0  0  0  0  0  0  0  0
    4.7934   -1.3642   -0.5035 C   0  0  0  0  0  0  0  0  0  0  0  0
    5.2565   -2.2939   -0.8995 H   0  0  0  0  0  0  0  0  0  0  0  0
    5.1084   -1.2653    0.5552 H   0  0  0  0  0  0  0  0  0  0  0  0
    5.2219   -0.5182   -1.0748 H   0  0  0  0  0  0  0  0  0  0  0  0
    2.7680   -2.7453    0.0223 C   0  0  0  0  0  0  0  0  0  0  0  0
    3.2043   -3.6210   -0.5038 H   0  0  0  0  0  0  0  0  0  0  0  0
    1.6640   -2.8213   -0.0357 H   0  0  0  0  0  0  0  0  0  0  0  0
    3.0688   -2.8115    1.0867 H   0  0  0  0  0  0  0  0  0  0  0  0
    2.8661   -1.4986   -2.1362 C   0  0  0  0  0  0  0  0  0  0  0  0
    3.2903   -2.4108   -2.6081 H   0  0  0  0  0  0  0  0  0  0  0  0
    3.2424   -0.6255   -2.7029 H   0  0  0  0  0  0  0  0  0  0  0  0
    1.7624   -1.5236   -2.2404 H   0  0  0  0  0  0  0  0  0  0  0  0
    3.1662    1.6701   -0.1392 C   0  0  0  0  0  0  0  0  0  0  0  0
    3.3521    1.9183   -1.6445 C   0  0  0  0  0  0  0  0  0  0  0  0
    3.7482    2.9450   -1.7991 H   0  0  0  0  0  0  0  0  0  0  0  0
    2.3874    1.8546   -2.1838 H   0  0  0  0  0  0  0  0  0  0  0  0
    4.0731    1.2157   -2.1055 H   0  0  0  0  0  0  0  0  0  0  0  0
    2.1844    2.7260    0.4091 C   0  0  0  0  0  0  0  0  0  0  0  0
    2.6165    3.7390    0.2612 H   0  0  0  0  0  0  0  0  0  0  0  0
    1.9906    2.5998    1.4934 H   0  0  0  0  0  0  0  0  0  0  0  0
    1.2109    2.6709   -0.1163 H   0  0  0  0  0  0  0  0  0  0  0  0
    4.5190    1.8193    0.5798 C   0  0  0  0  0  0  0  0  0  0  0  0
    4.8919    2.8557    0.4306 H   0  0  0  0  0  0  0  0  0  0  0  0
    5.2913    1.1331    0.1883 H   0  0  0  0  0  0  0  0  0  0  0  0
    4.4388    1.6590    1.6727 H   0  0  0  0  0  0  0  0  0  0  0  0
  1 29  1  0  0  0  0
  2 40  1  0  0  0  0
  3  1  1  0  0  0  0
  3  8  1  0  0  0  0
  3  4  1  0  0  0  0
  4  6  1  0  0  0  0
  5  4  1  0  0  0  0
  7  4  1  0  0  0  0
  8 11  1  0  0  0  0
  9  8  1  0  0  0  0
 10  8  1  0  0  0  0
 12  3  1  0  0  0  0
 13 12  1  0  0  0  0
 14 12  1  0  0  0  0
 15 12  1  0  0  0  0
 16 17  1  0  0  0  0
 16 21  1  0  0  0  0
 16  1  1  0  0  0  0
 17 20  1  0  0  0  0
 18 17  1  0  0  0  0
 19 17  1  0  0  0  0
 21 23  1  0  0  0  0
 22 21  1  0  0  0  0
 24 21  1  0  0  0  0
 25 16  1  0  0  0  0
 26 25  1  0  0  0  0
 27 25  1  0  0  0  0
 28 25  1  0  0  0  0
 29 31  1  0  0  0  0
 29 30  1  0  0  0  0
 29 32  1  0  0  0  0
 32 33  1  0  0  0  0
 34 32  1  0  0  0  0
 35 36  1  0  0  0  0
 35 32  1  0  0  0  0
 35 37  1  0  0  0  0
 37 38  1  0  0  0  0
 39 37  1  0  0  0  0
 40 41  1  0  0  0  0
 40 42  1  0  0  0  0
 40 37  1  0  0  0  0
 43 44  1  0  0  0  0
 43 48  1  0  0  0  0
 43  2  1  0  0  0  0
 44 46  1  0  0  0  0
 45 44  1  0  0  0  0
 47 44  1  0  0  0  0
 48 51  1  0  0  0  0
 49 48  1  0  0  0  0
 50 48  1  0  0  0  0
 52 43  1  0  0  0  0
 53 52  1  0  0  0  0
 54 52  1  0  0  0  0
 55 52  1  0  0  0  0
 56  2  1  0  0  0  0
 56 61  1  0  0  0  0
 56 65  1  0  0  0  0
 57 56  1  0  0  0  0
 58 57  1  0  0  0  0
 59 57  1  0  0  0  0
 60 57  1  0  0  0  0
 61 63  1  0  0  0  0
 62 61  1  0  0  0  0
 64 61  1  0  0  0  0
 65 68  1  0  0  0  0
 66 65  1  0  0  0  0
 67 65  1  0  0  0  0
M  END
