1,3,12
 OpenBabel05122313063D

 60 61  0  0  0  0  0  0  0  0999 V2000
    2.3069   -0.2899    0.0805 P   0  0  0  0  0  0  0  0  0  0  0  0
    2.4372    1.4449    0.0505 N   0  0  0  0  0  0  0  0  0  0  0  0
   -2.3443   -0.2106   -0.0677 P   0  0  0  0  0  0  0  0  0  0  0  0
   -2.3860    1.5237    0.0315 N   0  0  0  0  0  0  0  0  0  0  0  0
    3.5756    2.2466    0.1031 C   0  0  0  0  0  0  0  0  0  0  0  0
    4.5525    1.8355    0.3776 H   0  0  0  0  0  0  0  0  0  0  0  0
    3.1912    3.5362   -0.2288 C   0  0  0  0  0  0  0  0  0  0  0  0
    3.8512    4.4115   -0.2592 H   0  0  0  0  0  0  0  0  0  0  0  0
    1.7880    3.5103   -0.5103 C   0  0  0  0  0  0  0  0  0  0  0  0
    1.1770    4.3581   -0.8361 H   0  0  0  0  0  0  0  0  0  0  0  0
    1.3324    2.2041   -0.3401 C   0  0  0  0  0  0  0  0  0  0  0  0
    0.0174    1.5362   -0.6286 C   0  0  0  0  0  3  0  0  0  0  0  0
   -0.0997    1.5534   -1.7370 H   0  0  0  0  0  0  0  0  0  0  0  0
   -1.1920    2.2427   -0.0842 C   0  0  0  0  0  0  0  0  0  0  0  0
   -1.5032    3.5765    0.1611 C   0  0  0  0  0  0  0  0  0  0  0  0
   -0.7906    4.4061    0.1522 H   0  0  0  0  0  0  0  0  0  0  0  0
   -2.9146    3.6703    0.3921 C   0  0  0  0  0  0  0  0  0  0  0  0
   -3.4837    4.5820    0.6096 H   0  0  0  0  0  0  0  0  0  0  0  0
   -3.4436    2.3937    0.2983 C   0  0  0  0  0  0  0  0  0  0  0  0
   -4.4688    2.0286    0.4176 H   0  0  0  0  0  0  0  0  0  0  0  0
   -3.4003   -0.8707    1.3560 C   0  0  0  0  0  0  0  0  0  0  0  0
   -4.4096   -0.9593    0.8937 H   0  0  0  0  0  0  0  0  0  0  0  0
   -3.4955    0.0453    2.5829 C   0  0  0  0  0  0  0  0  0  0  0  0
   -4.2056   -0.4083    3.3057 H   0  0  0  0  0  0  0  0  0  0  0  0
   -3.8545    1.0613    2.3394 H   0  0  0  0  0  0  0  0  0  0  0  0
   -2.5069    0.1429    3.0678 H   0  0  0  0  0  0  0  0  0  0  0  0
   -2.9166   -2.2686    1.7650 C   0  0  0  0  0  0  0  0  0  0  0  0
   -1.9291   -2.1904    2.2609 H   0  0  0  0  0  0  0  0  0  0  0  0
   -2.8262   -2.9711    0.9140 H   0  0  0  0  0  0  0  0  0  0  0  0
   -3.6325   -2.7083    2.4892 H   0  0  0  0  0  0  0  0  0  0  0  0
   -3.4355   -0.5432   -1.5562 C   0  0  0  0  0  0  0  0  0  0  0  0
   -4.4474   -0.2242   -1.2173 H   0  0  0  0  0  0  0  0  0  0  0  0
   -3.4730   -2.0400   -1.8865 C   0  0  0  0  0  0  0  0  0  0  0  0
   -4.1355   -2.2196   -2.7578 H   0  0  0  0  0  0  0  0  0  0  0  0
   -3.8584   -2.6499   -1.0458 H   0  0  0  0  0  0  0  0  0  0  0  0
   -2.4655   -2.4194   -2.1511 H   0  0  0  0  0  0  0  0  0  0  0  0
   -3.0344    0.3230   -2.7542 C   0  0  0  0  0  0  0  0  0  0  0  0
   -2.0328    0.0564   -3.1416 H   0  0  0  0  0  0  0  0  0  0  0  0
   -3.0341    1.3999   -2.4980 H   0  0  0  0  0  0  0  0  0  0  0  0
   -3.7583    0.1680   -3.5807 H   0  0  0  0  0  0  0  0  0  0  0  0
    3.2577   -0.8634    1.6066 C   0  0  0  0  0  0  0  0  0  0  0  0
    4.2871   -1.0233    1.2130 H   0  0  0  0  0  0  0  0  0  0  0  0
    2.7066   -2.2052    2.1087 C   0  0  0  0  0  0  0  0  0  0  0  0
    3.3553   -2.5875    2.9231 H   0  0  0  0  0  0  0  0  0  0  0  0
    2.6654   -2.9822    1.3208 H   0  0  0  0  0  0  0  0  0  0  0  0
    1.6858   -2.0623    2.5149 H   0  0  0  0  0  0  0  0  0  0  0  0
    3.3163    0.1691    2.7401 C   0  0  0  0  0  0  0  0  0  0  0  0
    2.3034    0.3609    3.1398 H   0  0  0  0  0  0  0  0  0  0  0  0
    3.7457    1.1360    2.4205 H   0  0  0  0  0  0  0  0  0  0  0  0
    3.9509   -0.2368    3.5554 H   0  0  0  0  0  0  0  0  0  0  0  0
    3.4566   -0.7782   -1.3203 C   0  0  0  0  0  0  0  0  0  0  0  0
    4.4686   -0.5206   -0.9338 H   0  0  0  0  0  0  0  0  0  0  0  0
    3.3927   -2.2894   -1.5716 C   0  0  0  0  0  0  0  0  0  0  0  0
    2.3783   -2.6018   -1.8916 H   0  0  0  0  0  0  0  0  0  0  0  0
    3.6637   -2.8803   -0.6743 H   0  0  0  0  0  0  0  0  0  0  0  0
    4.0985   -2.5697   -2.3801 H   0  0  0  0  0  0  0  0  0  0  0  0
    3.2000    0.0519   -2.5821 C   0  0  0  0  0  0  0  0  0  0  0  0
    3.9460   -0.2199   -3.3573 H   0  0  0  0  0  0  0  0  0  0  0  0
    3.2938    1.1374   -2.3849 H   0  0  0  0  0  0  0  0  0  0  0  0
    2.1986   -0.1395   -3.0107 H   0  0  0  0  0  0  0  0  0  0  0  0
  1 41  1  0  0  0  0
  2  1  1  0  0  0  0
  2  5  1  0  0  0  0
  3  4  1  0  0  0  0
  3 21  1  0  0  0  0
  4 19  1  0  0  0  0
  5  6  1  0  0  0  0
  7  5  2  0  0  0  0
  8  7  1  0  0  0  0
  9 11  2  0  0  0  0
  9  7  1  0  0  0  0
 10  9  1  0  0  0  0
 11  2  1  0  0  0  0
 12 11  1  0  0  0  0
 12 14  1  0  0  0  0
 13 12  1  0  0  0  0
 14  4  1  0  0  0  0
 14 15  2  0  0  0  0
 15 17  1  0  0  0  0
 16 15  1  0  0  0  0
 17 18  1  0  0  0  0
 19 17  2  0  0  0  0
 19 20  1  0  0  0  0
 21 27  1  0  0  0  0
 21 23  1  0  0  0  0
 22 21  1  0  0  0  0
 23 26  1  0  0  0  0
 23 24  1  0  0  0  0
 25 23  1  0  0  0  0
 27 28  1  0  0  0  0
 27 30  1  0  0  0  0
 29 27  1  0  0  0  0
 31 32  1  0  0  0  0
 31  3  1  0  0  0  0
 33 31  1  0  0  0  0
 33 35  1  0  0  0  0
 34 33  1  0  0  0  0
 36 33  1  0  0  0  0
 37 39  1  0  0  0  0
 37 31  1  0  0  0  0
 38 37  1  0  0  0  0
 40 37  1  0  0  0  0
 41 43  1  0  0  0  0
 41 47  1  0  0  0  0
 42 41  1  0  0  0  0
 43 46  1  0  0  0  0
 43 44  1  0  0  0  0
 45 43  1  0  0  0  0
 47 48  1  0  0  0  0
 47 50  1  0  0  0  0
 49 47  1  0  0  0  0
 51 52  1  0  0  0  0
 51  1  1  0  0  0  0
 53 51  1  0  0  0  0
 53 55  1  0  0  0  0
 54 53  1  0  0  0  0
 56 53  1  0  0  0  0
 57 59  1  0  0  0  0
 57 51  1  0  0  0  0
 58 57  1  0  0  0  0
 60 57  1  0  0  0  0
M  END
