1,2,5
 OpenBabel05122313063D

 61 61  0  0  0  0  0  0  0  0999 V2000
   -2.1401   -0.4101    0.0404 P   0  0  0  0  0  0  0  0  0  0  0  0
    2.1403   -0.4098    0.0403 P   0  0  0  0  0  0  0  0  0  0  0  0
   -2.4091    1.2879   -0.1160 N   0  0  0  0  0  0  0  0  0  0  0  0
    2.4093    1.2886   -0.1119 N   0  0  0  0  0  0  0  0  0  0  0  0
    0.0000    1.2980   -0.0540 C   0  0  0  0  0  3  0  0  0  0  0  0
   -1.2133    2.0340   -0.1398 C   0  0  0  0  0  0  0  0  0  0  0  0
   -1.2211    3.4425   -0.2612 C   0  0  0  0  0  0  0  0  0  0  0  0
   -0.0001    4.1290   -0.3147 C   0  0  0  0  0  0  0  0  0  0  0  0
    1.2209    3.4428   -0.2595 C   0  0  0  0  0  0  0  0  0  0  0  0
    1.2133    2.0343   -0.1378 C   0  0  0  0  0  0  0  0  0  0  0  0
   -3.6909    1.9212   -0.3377 C   0  0  0  0  0  0  0  0  0  0  0  0
    3.6910    1.9221   -0.3339 C   0  0  0  0  0  0  0  0  0  0  0  0
   -2.9548   -1.1560   -1.4657 C   0  0  0  0  0  0  0  0  0  0  0  0
   -2.2644   -0.6050   -2.7189 C   0  0  0  0  0  0  0  0  0  0  0  0
   -2.9406   -2.6874   -1.4198 C   0  0  0  0  0  0  0  0  0  0  0  0
   -3.1054   -0.9844    1.5320 C   0  0  0  0  0  0  0  0  0  0  0  0
   -2.6584   -0.1508    2.7391 C   0  0  0  0  0  0  0  0  0  0  0  0
   -4.6307   -1.0315    1.3921 C   0  0  0  0  0  0  0  0  0  0  0  0
    2.9534   -1.1526   -1.4682 C   0  0  0  0  0  0  0  0  0  0  0  0
    2.2625   -0.5982   -2.7196 C   0  0  0  0  0  0  0  0  0  0  0  0
    2.9381   -2.6841   -1.4256 C   0  0  0  0  0  0  0  0  0  0  0  0
    3.1066   -0.9878    1.5298 C   0  0  0  0  0  0  0  0  0  0  0  0
    2.6613   -0.1566    2.7392 C   0  0  0  0  0  0  0  0  0  0  0  0
    4.6318   -1.0360    1.3886 C   0  0  0  0  0  0  0  0  0  0  0  0
   -2.1660    4.0002   -0.3095 H   0  0  0  0  0  0  0  0  0  0  0  0
   -0.0002    5.2262   -0.4041 H   0  0  0  0  0  0  0  0  0  0  0  0
    2.1658    4.0007   -0.3067 H   0  0  0  0  0  0  0  0  0  0  0  0
   -4.4808    1.1553   -0.4429 H   0  0  0  0  0  0  0  0  0  0  0  0
   -3.9796    2.5921    0.5032 H   0  0  0  0  0  0  0  0  0  0  0  0
   -3.6857    2.5308   -1.2693 H   0  0  0  0  0  0  0  0  0  0  0  0
    4.4814    1.1563   -0.4364 H   0  0  0  0  0  0  0  0  0  0  0  0
    3.6866    2.5296   -1.2669 H   0  0  0  0  0  0  0  0  0  0  0  0
    3.9783    2.5948    0.5059 H   0  0  0  0  0  0  0  0  0  0  0  0
   -4.0101   -0.8016   -1.4481 H   0  0  0  0  0  0  0  0  0  0  0  0
   -2.2665    0.5025   -2.7404 H   0  0  0  0  0  0  0  0  0  0  0  0
   -1.2058   -0.9341   -2.7549 H   0  0  0  0  0  0  0  0  0  0  0  0
   -2.7734   -0.9736   -3.6333 H   0  0  0  0  0  0  0  0  0  0  0  0
   -3.4754   -3.0934   -0.5388 H   0  0  0  0  0  0  0  0  0  0  0  0
   -3.4270   -3.0962   -2.3295 H   0  0  0  0  0  0  0  0  0  0  0  0
   -1.9026   -3.0722   -1.3788 H   0  0  0  0  0  0  0  0  0  0  0  0
   -2.7129   -2.0187    1.6564 H   0  0  0  0  0  0  0  0  0  0  0  0
   -1.5578   -0.1785    2.8596 H   0  0  0  0  0  0  0  0  0  0  0  0
   -2.9605    0.9107    2.6272 H   0  0  0  0  0  0  0  0  0  0  0  0
   -3.1180   -0.5449    3.6687 H   0  0  0  0  0  0  0  0  0  0  0  0
   -4.9669   -1.6118    0.5103 H   0  0  0  0  0  0  0  0  0  0  0  0
   -5.0704   -1.5159    2.2890 H   0  0  0  0  0  0  0  0  0  0  0  0
   -5.0710   -0.0162    1.3273 H   0  0  0  0  0  0  0  0  0  0  0  0
    4.0090   -0.7989   -1.4504 H   0  0  0  0  0  0  0  0  0  0  0  0
    2.2653    0.5094   -2.7385 H   0  0  0  0  0  0  0  0  0  0  0  0
    2.7706   -0.9650   -3.6352 H   0  0  0  0  0  0  0  0  0  0  0  0
    1.2037   -0.9265   -2.7555 H   0  0  0  0  0  0  0  0  0  0  0  0
    3.4734   -3.0924   -0.5460 H   0  0  0  0  0  0  0  0  0  0  0  0
    1.8998   -3.0681   -1.3845 H   0  0  0  0  0  0  0  0  0  0  0  0
    3.4233   -3.0913   -2.3367 H   0  0  0  0  0  0  0  0  0  0  0  0
    2.7133   -2.0221    1.6522 H   0  0  0  0  0  0  0  0  0  0  0  0
    1.5608   -0.1838    2.8605 H   0  0  0  0  0  0  0  0  0  0  0  0
    3.1213   -0.5532    3.6674 H   0  0  0  0  0  0  0  0  0  0  0  0
    2.9641    0.9049    2.6294 H   0  0  0  0  0  0  0  0  0  0  0  0
    4.9668   -1.6144    0.5050 H   0  0  0  0  0  0  0  0  0  0  0  0
    5.0731   -0.0210    1.3261 H   0  0  0  0  0  0  0  0  0  0  0  0
    5.0716   -1.5231    2.2839 H   0  0  0  0  0  0  0  0  0  0  0  0
  1 16  1  0  0  0  0
  2 22  1  0  0  0  0
  3  1  1  0  0  0  0
  4  2  1  0  0  0  0
  6  3  1  0  0  0  0
  6  5  2  0  0  0  0
  7  6  1  0  0  0  0
  8  7  2  0  0  0  0
  8  9  1  0  0  0  0
  9 10  2  0  0  0  0
 10  4  1  0  0  0  0
 10  5  1  0  0  0  0
 11  3  1  0  0  0  0
 11 29  1  0  0  0  0
 12  4  1  0  0  0  0
 12 33  1  0  0  0  0
 13 34  1  0  0  0  0
 13 15  1  0  0  0  0
 13  1  1  0  0  0  0
 14 13  1  0  0  0  0
 15 40  1  0  0  0  0
 15 38  1  0  0  0  0
 16 41  1  0  0  0  0
 16 17  1  0  0  0  0
 17 42  1  0  0  0  0
 17 44  1  0  0  0  0
 18 16  1  0  0  0  0
 18 46  1  0  0  0  0
 19 48  1  0  0  0  0
 19 21  1  0  0  0  0
 19  2  1  0  0  0  0
 20 19  1  0  0  0  0
 21 53  1  0  0  0  0
 21 52  1  0  0  0  0
 22 55  1  0  0  0  0
 22 23  1  0  0  0  0
 23 56  1  0  0  0  0
 23 57  1  0  0  0  0
 24 22  1  0  0  0  0
 24 61  1  0  0  0  0
 25  7  1  0  0  0  0
 26  8  1  0  0  0  0
 27  9  1  0  0  0  0
 28 11  1  0  0  0  0
 30 11  1  0  0  0  0
 31 12  1  0  0  0  0
 32 12  1  0  0  0  0
 35 14  1  0  0  0  0
 36 14  1  0  0  0  0
 37 14  1  0  0  0  0
 39 15  1  0  0  0  0
 43 17  1  0  0  0  0
 45 18  1  0  0  0  0
 47 18  1  0  0  0  0
 49 20  1  0  0  0  0
 50 20  1  0  0  0  0
 51 20  1  0  0  0  0
 54 21  1  0  0  0  0
 58 23  1  0  0  0  0
 59 24  1  0  0  0  0
 60 24  1  0  0  0  0
M  END
