1,2,8
 OpenBabel05122313063D

 64 69  0  0  0  0  0  0  0  0999 V2000
    1.5272    0.3803    0.4573 P   0  0  2  0  0  0  0  0  0  0  0  0
   -1.5746   -0.0293    0.3413 P   0  0  0  0  0  0  0  0  0  0  0  0
    2.8491    1.9936   -1.6691 F   0  0  0  0  0  0  0  0  0  0  0  0
   -3.3463    1.1042   -1.7463 F   0  0  0  0  0  0  0  0  0  0  0  0
   -4.3235    0.6777    1.6564 F   0  0  0  0  0  0  0  0  0  0  0  0
    1.9109   -2.6939    0.4143 N   0  0  0  0  0  0  0  0  0  0  0  0
   -0.1740   -3.3540   -0.1707 N   0  0  0  0  0  2  0  0  0  0  0  0
    0.6667   -2.3596   -0.2250 C   0  0  0  0  0  2  0  0  0  0  0  0
    0.4067   -4.4656    0.5847 C   0  0  0  0  0  0  0  0  0  0  0  0
    0.2294   -5.4318    0.0697 H   0  0  0  0  0  0  0  0  0  0  0  0
   -0.0909   -4.5362    1.5800 H   0  0  0  0  0  0  0  0  0  0  0  0
    1.9016   -4.1332    0.7178 C   0  0  0  0  0  0  0  0  0  0  0  0
    2.3228   -4.3248    1.7255 H   0  0  0  0  0  0  0  0  0  0  0  0
    2.5168   -4.6942   -0.0233 H   0  0  0  0  0  0  0  0  0  0  0  0
    3.0717   -1.9496    0.5785 C   0  0  0  0  0  0  0  0  0  0  0  0
    4.3144   -2.6191    0.7567 C   0  0  0  0  0  0  0  0  0  0  0  0
    4.3469   -3.7149    0.7142 H   0  0  0  0  0  0  0  0  0  0  0  0
    5.5060   -1.9167    0.9580 C   0  0  0  0  0  0  0  0  0  0  0  0
    6.4435   -2.4812    1.0769 H   0  0  0  0  0  0  0  0  0  0  0  0
    5.5176   -0.5142    0.9995 C   0  0  0  0  0  0  0  0  0  0  0  0
    6.4535    0.0406    1.1570 H   0  0  0  0  0  0  0  0  0  0  0  0
    4.3052    0.1694    0.8442 C   0  0  0  0  0  0  0  0  0  0  0  0
    4.2888    1.2686    0.8917 H   0  0  0  0  0  0  0  0  0  0  0  0
    3.0939   -0.5178    0.6466 C   0  0  0  0  0  0  0  0  0  0  0  0
    1.9509    2.1681    0.5206 C   0  0  0  0  0  0  0  0  0  0  0  0
    1.6505    3.0044    1.6152 C   0  0  0  0  0  0  0  0  0  0  0  0
    1.2252    2.5612    2.5271 H   0  0  0  0  0  0  0  0  0  0  0  0
    1.8840    4.3859    1.5543 C   0  0  0  0  0  0  0  0  0  0  0  0
    1.6393    5.0190    2.4197 H   0  0  0  0  0  0  0  0  0  0  0  0
    2.4264    4.9556    0.3916 C   0  0  0  0  0  0  0  0  0  0  0  0
    2.6054    6.0397    0.3360 H   0  0  0  0  0  0  0  0  0  0  0  0
    2.7489    4.1445   -0.7059 C   0  0  0  0  0  0  0  0  0  0  0  0
    3.1816    4.5542   -1.6294 H   0  0  0  0  0  0  0  0  0  0  0  0
    2.5130    2.7691   -0.6239 C   0  0  0  0  0  0  0  0  0  0  0  0
    0.6381    0.0829    2.0518 C   0  0  0  0  0  0  0  0  0  0  0  0
    1.3207   -0.0094    3.2785 C   0  0  0  0  0  0  0  0  0  0  0  0
    2.4178    0.0844    3.2963 H   0  0  0  0  0  0  0  0  0  0  0  0
    0.6049   -0.2413    4.4627 C   0  0  0  0  0  0  0  0  0  0  0  0
    1.1413   -0.3248    5.4201 H   0  0  0  0  0  0  0  0  0  0  0  0
   -0.7927   -0.3756    4.4237 C   0  0  0  0  0  0  0  0  0  0  0  0
   -1.3552   -0.5589    5.3516 H   0  0  0  0  0  0  0  0  0  0  0  0
   -1.4781   -0.2919    3.2019 C   0  0  0  0  0  0  0  0  0  0  0  0
   -2.5710   -0.4053    3.1758 H   0  0  0  0  0  0  0  0  0  0  0  0
   -0.7666   -0.0728    2.0081 C   0  0  0  0  0  0  0  0  0  0  0  0
   -2.1642    1.7102    0.2148 C   0  0  0  0  0  0  0  0  0  0  0  0
   -1.7680    2.7304    1.0985 C   0  0  0  0  0  0  0  0  0  0  0  0
   -1.1660    2.4725    1.9803 H   0  0  0  0  0  0  0  0  0  0  0  0
   -2.1342    4.0640    0.8659 C   0  0  0  0  0  0  0  0  0  0  0  0
   -1.8046    4.8482    1.5630 H   0  0  0  0  0  0  0  0  0  0  0  0
   -2.9158    4.3937   -0.2523 C   0  0  0  0  0  0  0  0  0  0  0  0
   -3.2030    5.4389   -0.4405 H   0  0  0  0  0  0  0  0  0  0  0  0
   -3.3337    3.3909   -1.1399 C   0  0  0  0  0  0  0  0  0  0  0  0
   -3.9433    3.6117   -2.0274 H   0  0  0  0  0  0  0  0  0  0  0  0
   -2.9541    2.0704   -0.8915 C   0  0  0  0  0  0  0  0  0  0  0  0
   -3.1015   -1.0381    0.5209 C   0  0  0  0  0  0  0  0  0  0  0  0
   -3.0990   -2.3575    0.0184 C   0  0  0  0  0  0  0  0  0  0  0  0
   -2.1493   -2.7811   -0.3670 H   0  0  0  0  0  0  0  0  0  0  0  0
   -4.2579   -3.1444    0.0810 C   0  0  0  0  0  0  0  0  0  0  0  0
   -4.2335   -4.1711   -0.3131 H   0  0  0  0  0  0  0  0  0  0  0  0
   -5.4385   -2.6266    0.6359 C   0  0  0  0  0  0  0  0  0  0  0  0
   -6.3531   -3.2379    0.6730 H   0  0  0  0  0  0  0  0  0  0  0  0
   -5.4572   -1.3249    1.1573 C   0  0  0  0  0  0  0  0  0  0  0  0
   -6.3577   -0.8893    1.6134 H   0  0  0  0  0  0  0  0  0  0  0  0
   -4.2906   -0.5561    1.1039 C   0  0  0  0  0  0  0  0  0  0  0  0
  1 25  1  1  0  0  0
  1 24  1  0  0  0  0
  1 35  1  0  0  0  0
  2 55  1  0  0  0  0
  2 44  1  0  0  0  0
  3 34  1  0  0  0  0
  4 54  1  0  0  0  0
  6 15  1  0  0  0  0
  6 12  1  0  0  0  0
  7  9  1  0  0  0  0
  8  7  1  0  0  0  0
  8  6  1  0  0  0  0
  9 12  1  0  0  0  0
  9 11  1  0  0  0  0
 10  9  1  0  0  0  0
 12 13  1  0  0  0  0
 14 12  1  0  0  0  0
 15 24  2  0  0  0  0
 15 16  1  0  0  0  0
 16 18  2  0  0  0  0
 17 16  1  0  0  0  0
 18 20  1  0  0  0  0
 18 19  1  0  0  0  0
 20 21  1  0  0  0  0
 22 23  1  0  0  0  0
 22 20  2  0  0  0  0
 24 22  1  0  0  0  0
 25 26  1  0  0  0  0
 26 27  1  0  0  0  0
 28 26  2  0  0  0  0
 28 29  1  0  0  0  0
 30 28  1  0  0  0  0
 31 30  1  0  0  0  0
 32 34  1  0  0  0  0
 32 30  2  0  0  0  0
 33 32  1  0  0  0  0
 34 25  2  0  0  0  0
 35 36  1  0  0  0  0
 36 37  1  0  0  0  0
 36 38  2  0  0  0  0
 38 39  1  0  0  0  0
 40 38  1  0  0  0  0
 40 41  1  0  0  0  0
 42 40  2  0  0  0  0
 43 42  1  0  0  0  0
 44 35  2  0  0  0  0
 44 42  1  0  0  0  0
 45  2  1  0  0  0  0
 45 46  1  0  0  0  0
 46 47  1  0  0  0  0
 48 46  2  0  0  0  0
 48 49  1  0  0  0  0
 50 48  1  0  0  0  0
 51 50  1  0  0  0  0
 52 54  1  0  0  0  0
 52 50  2  0  0  0  0
 53 52  1  0  0  0  0
 54 45  2  0  0  0  0
 55 64  1  0  0  0  0
 56 58  1  0  0  0  0
 56 55  2  0  0  0  0
 57 56  1  0  0  0  0
 58 60  2  0  0  0  0
 59 58  1  0  0  0  0
 60 61  1  0  0  0  0
 60 62  1  0  0  0  0
 62 63  1  0  0  0  0
 64 62  2  0  0  0  0
 64  5  1  0  0  0  0
M  END
