1,2,16
 OpenBabel05122313063D

 68 72  0  0  1  0  0  0  0  0999 V2000
    2.3217    0.0879    0.2652 P   0  0  0  0  0  0  0  0  0  0  0  0
   -2.3217    0.0879    0.2652 P   0  0  0  0  0  0  0  0  0  0  0  0
    1.0948   -2.3362    2.5144 N   0  0  0  0  0  0  0  0  0  0  0  0
   -0.0001   -2.3500    1.6944 C   0  0  1  0  0  3  0  0  0  0  0  0
   -1.0948   -2.3361    2.5145 N   0  0  0  0  0  0  0  0  0  0  0  0
   -0.6830   -2.2599    3.8447 C   0  0  0  0  0  0  0  0  0  0  0  0
   -1.3979   -2.2539    4.6724 H   0  0  0  0  0  0  0  0  0  0  0  0
    0.6831   -2.2600    3.8447 C   0  0  0  0  0  0  0  0  0  0  0  0
    1.3982   -2.2541    4.6722 H   0  0  0  0  0  0  0  0  0  0  0  0
    2.4721   -2.1644    2.0650 C   0  0  0  0  0  0  0  0  0  0  0  0
    2.6242   -2.7560    1.1401 H   0  0  0  0  0  0  0  0  0  0  0  0
    3.1208   -2.6184    2.8390 H   0  0  0  0  0  0  0  0  0  0  0  0
    2.8772   -0.6942    1.8621 C   0  0  0  0  0  0  0  0  0  0  0  0
    3.9843   -0.6341    1.8783 H   0  0  0  0  0  0  0  0  0  0  0  0
    2.4902   -0.0772    2.6979 H   0  0  0  0  0  0  0  0  0  0  0  0
   -0.0002   -2.2398    0.2629 C   0  0  0  0  0  3  0  0  0  0  0  0
   -0.9021   -2.6828   -0.1913 H   0  0  0  0  0  0  0  0  0  0  0  0
    0.9016   -2.6830   -0.1915 H   0  0  0  0  0  0  0  0  0  0  0  0
   -2.4722   -2.1641    2.0653 C   0  0  0  0  0  0  0  0  0  0  0  0
   -3.1209   -2.6179    2.8395 H   0  0  0  0  0  0  0  0  0  0  0  0
   -2.6245   -2.7558    1.1405 H   0  0  0  0  0  0  0  0  0  0  0  0
   -2.8772   -0.6939    1.8622 C   0  0  0  0  0  0  0  0  0  0  0  0
   -2.4900   -0.0768    2.6979 H   0  0  0  0  0  0  0  0  0  0  0  0
   -3.9843   -0.6337    1.8785 H   0  0  0  0  0  0  0  0  0  0  0  0
    3.0609    1.7640    0.3064 C   0  0  0  0  0  0  0  0  0  0  0  0
    2.9209    2.5466   -0.8601 C   0  0  0  0  0  0  0  0  0  0  0  0
    2.3829    2.1434   -1.7323 H   0  0  0  0  0  0  0  0  0  0  0  0
    3.4634    3.8358   -0.9116 C   0  0  0  0  0  0  0  0  0  0  0  0
    3.3542    4.4372   -1.8263 H   0  0  0  0  0  0  0  0  0  0  0  0
    4.1402    4.3612    0.2026 C   0  0  0  0  0  0  0  0  0  0  0  0
    4.5621    5.3764    0.1628 H   0  0  0  0  0  0  0  0  0  0  0  0
    4.2745    3.5906    1.3660 C   0  0  0  0  0  0  0  0  0  0  0  0
    4.8004    3.9989    2.2419 H   0  0  0  0  0  0  0  0  0  0  0  0
    3.7398    2.2925    1.4210 C   0  0  0  0  0  0  0  0  0  0  0  0
    3.8578    1.7085    2.3446 H   0  0  0  0  0  0  0  0  0  0  0  0
    3.3712   -0.8033   -0.9613 C   0  0  0  0  0  0  0  0  0  0  0  0
    2.8055   -1.6472   -1.9362 C   0  0  0  0  0  0  0  0  0  0  0  0
    1.7132   -1.7548   -1.9973 H   0  0  0  0  0  0  0  0  0  0  0  0
    3.6306   -2.3339   -2.8417 C   0  0  0  0  0  0  0  0  0  0  0  0
    3.1791   -2.9867   -3.6035 H   0  0  0  0  0  0  0  0  0  0  0  0
    5.0231   -2.1802   -2.7804 C   0  0  0  0  0  0  0  0  0  0  0  0
    5.6686   -2.7152   -3.4929 H   0  0  0  0  0  0  0  0  0  0  0  0
    5.5936   -1.3320   -1.8158 C   0  0  0  0  0  0  0  0  0  0  0  0
    6.6848   -1.1968   -1.7753 H   0  0  0  0  0  0  0  0  0  0  0  0
    4.7741   -0.6443   -0.9112 C   0  0  0  0  0  0  0  0  0  0  0  0
    5.2281    0.0413   -0.1781 H   0  0  0  0  0  0  0  0  0  0  0  0
   -3.0609    1.7641    0.3062 C   0  0  0  0  0  0  0  0  0  0  0  0
   -2.9207    2.5466   -0.8603 C   0  0  0  0  0  0  0  0  0  0  0  0
   -2.3826    2.1433   -1.7324 H   0  0  0  0  0  0  0  0  0  0  0  0
   -3.4633    3.8358   -0.9120 C   0  0  0  0  0  0  0  0  0  0  0  0
   -3.3540    4.4371   -1.8268 H   0  0  0  0  0  0  0  0  0  0  0  0
   -4.1403    4.3612    0.2021 C   0  0  0  0  0  0  0  0  0  0  0  0
   -4.5622    5.3764    0.1621 H   0  0  0  0  0  0  0  0  0  0  0  0
   -4.2748    3.5907    1.3655 C   0  0  0  0  0  0  0  0  0  0  0  0
   -4.8008    3.9990    2.2413 H   0  0  0  0  0  0  0  0  0  0  0  0
   -3.7400    2.2926    1.4206 C   0  0  0  0  0  0  0  0  0  0  0  0
   -3.8581    1.7087    2.3443 H   0  0  0  0  0  0  0  0  0  0  0  0
   -3.3712   -0.8033   -0.9612 C   0  0  0  0  0  0  0  0  0  0  0  0
   -4.7741   -0.6446   -0.9109 C   0  0  0  0  0  0  0  0  0  0  0  0
   -5.2282    0.0408   -0.1777 H   0  0  0  0  0  0  0  0  0  0  0  0
   -5.5936   -1.3324   -1.8154 C   0  0  0  0  0  0  0  0  0  0  0  0
   -6.6848   -1.1974   -1.7748 H   0  0  0  0  0  0  0  0  0  0  0  0
   -5.0231   -2.1804   -2.7802 C   0  0  0  0  0  0  0  0  0  0  0  0
   -5.6686   -2.7154   -3.4927 H   0  0  0  0  0  0  0  0  0  0  0  0
   -3.6305   -2.3338   -2.8417 C   0  0  0  0  0  0  0  0  0  0  0  0
   -3.1791   -2.9864   -3.6037 H   0  0  0  0  0  0  0  0  0  0  0  0
   -2.8055   -1.6471   -1.9362 C   0  0  0  0  0  0  0  0  0  0  0  0
   -1.7131   -1.7544   -1.9975 H   0  0  0  0  0  0  0  0  0  0  0  0
  1 25  1  0  0  0  0
  1 13  1  0  0  0  0
  2 47  1  0  0  0  0
  2 22  1  0  0  0  0
  3  8  1  0  0  0  0
  4 16  1  6  0  0  0
  4  3  1  0  0  0  0
  4  5  1  0  0  0  0
  5  6  1  0  0  0  0
  6  7  1  0  0  0  0
  8  6  2  0  0  0  0
  8  9  1  0  0  0  0
 10  3  1  0  0  0  0
 10 12  1  0  0  0  0
 11 10  1  0  0  0  0
 13 14  1  0  0  0  0
 13 10  1  0  0  0  0
 13 15  1  0  0  0  0
 17 16  1  0  0  0  0
 18 16  1  0  0  0  0
 19  5  1  0  0  0  0
 19 20  1  0  0  0  0
 21 19  1  0  0  0  0
 22 24  1  0  0  0  0
 22 19  1  0  0  0  0
 22 23  1  0  0  0  0
 25 34  1  0  0  0  0
 26 25  2  0  0  0  0
 27 26  1  0  0  0  0
 28 26  1  0  0  0  0
 28 30  2  0  0  0  0
 29 28  1  0  0  0  0
 30 32  1  0  0  0  0
 31 30  1  0  0  0  0
 32 34  2  0  0  0  0
 32 33  1  0  0  0  0
 34 35  1  0  0  0  0
 36 45  1  0  0  0  0
 36  1  1  0  0  0  0
 37 36  2  0  0  0  0
 38 37  1  0  0  0  0
 39 41  2  0  0  0  0
 39 37  1  0  0  0  0
 40 39  1  0  0  0  0
 41 43  1  0  0  0  0
 42 41  1  0  0  0  0
 43 44  1  0  0  0  0
 43 45  2  0  0  0  0
 45 46  1  0  0  0  0
 47 56  1  0  0  0  0
 48 47  2  0  0  0  0
 49 48  1  0  0  0  0
 50 48  1  0  0  0  0
 50 52  2  0  0  0  0
 51 50  1  0  0  0  0
 52 54  1  0  0  0  0
 53 52  1  0  0  0  0
 54 56  2  0  0  0  0
 54 55  1  0  0  0  0
 56 57  1  0  0  0  0
 58 59  1  0  0  0  0
 58  2  1  0  0  0  0
 59 60  1  0  0  0  0
 61 62  1  0  0  0  0
 61 59  2  0  0  0  0
 63 61  1  0  0  0  0
 64 63  1  0  0  0  0
 65 63  2  0  0  0  0
 65 67  1  0  0  0  0
 66 65  1  0  0  0  0
 67 58  2  0  0  0  0
 68 67  1  0  0  0  0
M  END
