1,2,5
 OpenBabel05122313063D

 67 66  0  0  0  0  0  0  0  0999 V2000
    2.3451   -0.1021    0.1978 P   0  0  0  0  0  0  0  0  0  0  0  0
   -2.3451   -0.1022    0.1978 P   0  0  0  0  0  0  0  0  0  0  0  0
    2.5604   -0.7214    1.9475 C   0  0  0  0  0  0  0  0  0  0  0  0
    1.2571   -1.3768    2.4099 C   0  0  0  0  0  0  0  0  0  0  0  0
    0.0000   -0.8952    1.6862 C   0  0  0  0  0  2  0  0  0  0  0  0
   -1.2571   -1.3772    2.4096 C   0  0  0  0  0  0  0  0  0  0  0  0
   -2.5604   -0.7216    1.9474 C   0  0  0  0  0  0  0  0  0  0  0  0
    3.4069    1.4965    0.1950 C   0  0  0  0  0  0  0  0  0  0  0  0
    2.5699    2.5363    0.9694 C   0  0  0  0  0  0  0  0  0  0  0  0
    3.5930    1.9925   -1.2494 C   0  0  0  0  0  0  0  0  0  0  0  0
    4.7703    1.3428    0.8918 C   0  0  0  0  0  0  0  0  0  0  0  0
    3.1354   -1.4446   -0.9221 C   0  0  0  0  0  0  0  0  0  0  0  0
    2.5918   -2.8053   -0.4435 C   0  0  0  0  0  0  0  0  0  0  0  0
    4.6691   -1.4937   -0.8799 C   0  0  0  0  0  0  0  0  0  0  0  0
    2.6459   -1.1932   -2.3606 C   0  0  0  0  0  0  0  0  0  0  0  0
   -3.1355   -1.4445   -0.9221 C   0  0  0  0  0  0  0  0  0  0  0  0
   -4.6693   -1.4933   -0.8801 C   0  0  0  0  0  0  0  0  0  0  0  0
   -2.5923   -2.8053   -0.4436 C   0  0  0  0  0  0  0  0  0  0  0  0
   -2.6458   -1.1932   -2.3607 C   0  0  0  0  0  0  0  0  0  0  0  0
   -3.4067    1.4966    0.1951 C   0  0  0  0  0  0  0  0  0  0  0  0
   -2.5694    2.5362    0.9695 C   0  0  0  0  0  0  0  0  0  0  0  0
   -3.5929    1.9927   -1.2492 C   0  0  0  0  0  0  0  0  0  0  0  0
   -4.7701    1.3431    0.8921 C   0  0  0  0  0  0  0  0  0  0  0  0
    3.4433   -1.3828    2.0573 H   0  0  0  0  0  0  0  0  0  0  0  0
    2.7593    0.1797    2.5607 H   0  0  0  0  0  0  0  0  0  0  0  0
    1.2973   -2.4791    2.2433 H   0  0  0  0  0  0  0  0  0  0  0  0
    1.1384   -1.2643    3.5121 H   0  0  0  0  0  0  0  0  0  0  0  0
   -1.1385   -1.2653    3.5119 H   0  0  0  0  0  0  0  0  0  0  0  0
   -1.2973   -2.4794    2.2423 H   0  0  0  0  0  0  0  0  0  0  0  0
   -2.7591    0.1794    2.5608 H   0  0  0  0  0  0  0  0  0  0  0  0
   -3.4433   -1.3829    2.0572 H   0  0  0  0  0  0  0  0  0  0  0  0
    3.1479    3.4823    1.0442 H   0  0  0  0  0  0  0  0  0  0  0  0
    2.3393    2.2088    2.0043 H   0  0  0  0  0  0  0  0  0  0  0  0
    1.6182    2.7510    0.4473 H   0  0  0  0  0  0  0  0  0  0  0  0
    4.0653    2.9984   -1.2308 H   0  0  0  0  0  0  0  0  0  0  0  0
    2.6166    2.0839   -1.7659 H   0  0  0  0  0  0  0  0  0  0  0  0
    4.2583    1.3308   -1.8382 H   0  0  0  0  0  0  0  0  0  0  0  0
    5.2725    2.3341    0.9143 H   0  0  0  0  0  0  0  0  0  0  0  0
    5.4479    0.6445    0.3695 H   0  0  0  0  0  0  0  0  0  0  0  0
    4.6732    1.0074    1.9435 H   0  0  0  0  0  0  0  0  0  0  0  0
    2.9082   -3.5940   -1.1589 H   0  0  0  0  0  0  0  0  0  0  0  0
    1.4851   -2.8107   -0.3961 H   0  0  0  0  0  0  0  0  0  0  0  0
    2.9873   -3.0867    0.5529 H   0  0  0  0  0  0  0  0  0  0  0  0
    5.0235   -2.3612   -1.4778 H   0  0  0  0  0  0  0  0  0  0  0  0
    5.0560   -1.6263    0.1509 H   0  0  0  0  0  0  0  0  0  0  0  0
    5.1328   -0.5874   -1.3134 H   0  0  0  0  0  0  0  0  0  0  0  0
    3.0157   -2.0017   -3.0274 H   0  0  0  0  0  0  0  0  0  0  0  0
    3.0032   -0.2276   -2.7646 H   0  0  0  0  0  0  0  0  0  0  0  0
    1.5387   -1.1822   -2.4059 H   0  0  0  0  0  0  0  0  0  0  0  0
   -5.0237   -2.3608   -1.4779 H   0  0  0  0  0  0  0  0  0  0  0  0
   -5.1327   -0.5870   -1.3137 H   0  0  0  0  0  0  0  0  0  0  0  0
   -5.0562   -1.6258    0.1507 H   0  0  0  0  0  0  0  0  0  0  0  0
   -2.9087   -3.5940   -1.1590 H   0  0  0  0  0  0  0  0  0  0  0  0
   -2.9878   -3.0866    0.5528 H   0  0  0  0  0  0  0  0  0  0  0  0
   -1.4855   -2.8110   -0.3961 H   0  0  0  0  0  0  0  0  0  0  0  0
   -3.0158   -2.0015   -3.0275 H   0  0  0  0  0  0  0  0  0  0  0  0
   -1.5386   -1.1825   -2.4058 H   0  0  0  0  0  0  0  0  0  0  0  0
   -3.0028   -0.2275   -2.7647 H   0  0  0  0  0  0  0  0  0  0  0  0
   -3.1472    3.4823    1.0443 H   0  0  0  0  0  0  0  0  0  0  0  0
   -1.6177    2.7506    0.4473 H   0  0  0  0  0  0  0  0  0  0  0  0
   -2.3389    2.2086    2.0044 H   0  0  0  0  0  0  0  0  0  0  0  0
   -4.0651    2.9987   -1.2304 H   0  0  0  0  0  0  0  0  0  0  0  0
   -4.2584    1.3311   -1.8379 H   0  0  0  0  0  0  0  0  0  0  0  0
   -2.6165    2.0840   -1.7658 H   0  0  0  0  0  0  0  0  0  0  0  0
   -5.2719    2.3346    0.9150 H   0  0  0  0  0  0  0  0  0  0  0  0
   -4.6729    1.0073    1.9437 H   0  0  0  0  0  0  0  0  0  0  0  0
   -5.4479    0.6452    0.3696 H   0  0  0  0  0  0  0  0  0  0  0  0
  1  3  1  0  0  0  0
  2  7  1  0  0  0  0
  3 24  1  0  0  0  0
  3  4  1  0  0  0  0
  3 25  1  0  0  0  0
  4 27  1  0  0  0  0
  5  6  1  0  0  0  0
  5  4  1  0  0  0  0
  6 28  1  0  0  0  0
  7 31  1  0  0  0  0
  7  6  1  0  0  0  0
  7 30  1  0  0  0  0
  8  1  1  0  0  0  0
  8 11  1  0  0  0  0
  8  9  1  0  0  0  0
  9 32  1  0  0  0  0
  9 33  1  0  0  0  0
 10 35  1  0  0  0  0
 10  8  1  0  0  0  0
 11 38  1  0  0  0  0
 11 40  1  0  0  0  0
 12 14  1  0  0  0  0
 12 13  1  0  0  0  0
 12  1  1  0  0  0  0
 13 42  1  0  0  0  0
 13 43  1  0  0  0  0
 14 45  1  0  0  0  0
 15 12  1  0  0  0  0
 16 17  1  0  0  0  0
 16 18  1  0  0  0  0
 16  2  1  0  0  0  0
 17 52  1  0  0  0  0
 18 55  1  0  0  0  0
 18 54  1  0  0  0  0
 19 16  1  0  0  0  0
 20  2  1  0  0  0  0
 20 23  1  0  0  0  0
 20 21  1  0  0  0  0
 21 59  1  0  0  0  0
 21 61  1  0  0  0  0
 22 62  1  0  0  0  0
 22 20  1  0  0  0  0
 23 65  1  0  0  0  0
 23 66  1  0  0  0  0
 26  4  1  0  0  0  0
 29  6  1  0  0  0  0
 34  9  1  0  0  0  0
 36 10  1  0  0  0  0
 37 10  1  0  0  0  0
 39 11  1  0  0  0  0
 41 13  1  0  0  0  0
 44 14  1  0  0  0  0
 46 14  1  0  0  0  0
 47 15  1  0  0  0  0
 48 15  1  0  0  0  0
 49 15  1  0  0  0  0
 50 17  1  0  0  0  0
 51 17  1  0  0  0  0
 53 18  1  0  0  0  0
 56 19  1  0  0  0  0
 57 19  1  0  0  0  0
 58 19  1  0  0  0  0
 60 21  1  0  0  0  0
 63 22  1  0  0  0  0
 64 22  1  0  0  0  0
 67 23  1  0  0  0  0
M  END
