1,2,3
 OpenBabel05122313063D

 59 59  0  0  0  0  0  0  0  0999 V2000
    1.0328   -2.1130    0.0262 P   0  0  0  0  0  0  0  0  0  0  0  0
    0.6153    2.1919    0.0260 P   0  0  0  0  0  0  0  0  0  0  0  0
   -0.7790   -0.1152   -0.0054 C   0  0  0  0  0  3  0  0  0  0  0  0
   -3.0341    0.8994    0.0092 C   0  0  0  0  0  0  0  0  0  0  0  0
   -3.6673    1.7951    0.0135 H   0  0  0  0  0  0  0  0  0  0  0  0
   -3.6037   -0.3892    0.0090 C   0  0  0  0  0  0  0  0  0  0  0  0
   -1.6400    1.0115    0.0030 C   0  0  0  0  0  0  0  0  0  0  0  0
   -2.7949   -1.5417    0.0030 C   0  0  0  0  0  0  0  0  0  0  0  0
   -3.2635   -2.5351    0.0029 H   0  0  0  0  0  0  0  0  0  0  0  0
   -1.4067   -1.3870   -0.0033 C   0  0  0  0  0  0  0  0  0  0  0  0
   -5.0884   -0.6021    0.0152 C   0  0  0  0  0  0  0  0  0  0  0  0
   -7.1978    0.4455    0.0261 C   0  0  0  0  0  0  0  0  0  0  0  0
   -7.5473   -0.1054   -0.8697 H   0  0  0  0  0  0  0  0  0  0  0  0
   -7.5920    1.4766    0.0264 H   0  0  0  0  0  0  0  0  0  0  0  0
   -7.5393   -0.1026    0.9268 H   0  0  0  0  0  0  0  0  0  0  0  0
   -1.0685    2.2717    0.0022 O   0  0  0  0  0  0  0  0  0  0  0  0
   -5.6190   -1.6987    0.0164 O   0  0  0  0  0  0  0  0  0  0  0  0
   -0.6040   -2.5131   -0.0098 O   0  0  0  0  0  0  0  0  0  0  0  0
   -5.7674    0.5668    0.0196 O   0  0  0  0  0  0  0  0  0  0  0  0
    1.0764    3.2406   -1.4257 C   0  0  0  0  0  0  0  0  0  0  0  0
    2.1890    3.2801   -1.3842 H   0  0  0  0  0  0  0  0  0  0  0  0
    1.0204    3.0974    1.5870 C   0  0  0  0  0  0  0  0  0  0  0  0
    0.4745    4.0626    1.4996 H   0  0  0  0  0  0  0  0  0  0  0  0
    0.4652    2.3131    2.7826 C   0  0  0  0  0  0  0  0  0  0  0  0
    0.9755    1.3336    2.8908 H   0  0  0  0  0  0  0  0  0  0  0  0
   -0.6210    2.1242    2.6817 H   0  0  0  0  0  0  0  0  0  0  0  0
    0.6263    2.8865    3.7174 H   0  0  0  0  0  0  0  0  0  0  0  0
    2.5277    3.3604    1.6902 C   0  0  0  0  0  0  0  0  0  0  0  0
    2.7472    3.9106    2.6271 H   0  0  0  0  0  0  0  0  0  0  0  0
    2.9140    3.9720    0.8504 H   0  0  0  0  0  0  0  0  0  0  0  0
    3.0976    2.4090    1.7240 H   0  0  0  0  0  0  0  0  0  0  0  0
    0.4983    4.6577   -1.3289 C   0  0  0  0  0  0  0  0  0  0  0  0
    0.7591    5.2298   -2.2422 H   0  0  0  0  0  0  0  0  0  0  0  0
    0.8935    5.2209   -0.4610 H   0  0  0  0  0  0  0  0  0  0  0  0
   -0.6066    4.6271   -1.2522 H   0  0  0  0  0  0  0  0  0  0  0  0
    0.6494    2.5069   -2.7060 C   0  0  0  0  0  0  0  0  0  0  0  0
   -0.4522    2.3910   -2.7470 H   0  0  0  0  0  0  0  0  0  0  0  0
    1.1004    1.4959   -2.7710 H   0  0  0  0  0  0  0  0  0  0  0  0
    0.9637    3.0842   -3.5982 H   0  0  0  0  0  0  0  0  0  0  0  0
    1.5930   -2.9232    1.5914 C   0  0  0  0  0  0  0  0  0  0  0  0
    1.2460   -3.9760    1.4994 H   0  0  0  0  0  0  0  0  0  0  0  0
    0.8856   -2.2643    2.7823 C   0  0  0  0  0  0  0  0  0  0  0  0
    1.1479   -2.7973    3.7181 H   0  0  0  0  0  0  0  0  0  0  0  0
   -0.2158   -2.2912    2.6727 H   0  0  0  0  0  0  0  0  0  0  0  0
    1.1942   -1.2043    2.8955 H   0  0  0  0  0  0  0  0  0  0  0  0
    1.3944   -4.5547   -1.3279 C   0  0  0  0  0  0  0  0  0  0  0  0
    0.3028   -4.7328   -1.2616 H   0  0  0  0  0  0  0  0  0  0  0  0
    1.8804   -5.0340   -0.4557 H   0  0  0  0  0  0  0  0  0  0  0  0
    1.7669   -5.0666   -2.2380 H   0  0  0  0  0  0  0  0  0  0  0  0
    1.6963   -3.0540   -1.4208 C   0  0  0  0  0  0  0  0  0  0  0  0
    2.7960   -2.8832   -1.3694 H   0  0  0  0  0  0  0  0  0  0  0  0
    1.1494   -2.4122   -2.7048 C   0  0  0  0  0  0  0  0  0  0  0  0
    1.5714   -2.9213   -3.5941 H   0  0  0  0  0  0  0  0  0  0  0  0
    1.4058   -1.3352   -2.7680 H   0  0  0  0  0  0  0  0  0  0  0  0
    0.0458   -2.5029   -2.7534 H   0  0  0  0  0  0  0  0  0  0  0  0
    3.1217   -2.8879    1.7074 C   0  0  0  0  0  0  0  0  0  0  0  0
    3.4954   -1.8439    1.7465 H   0  0  0  0  0  0  0  0  0  0  0  0
    3.6266   -3.4110    0.8707 H   0  0  0  0  0  0  0  0  0  0  0  0
    3.4363   -3.3869    2.6459 H   0  0  0  0  0  0  0  0  0  0  0  0
  1 40  1  0  0  0  0
  2 22  1  0  0  0  0
  3 10  2  0  0  0  0
  3  7  1  0  0  0  0
  4  5  1  0  0  0  0
  6  4  1  0  0  0  0
  6 11  1  0  0  0  0
  7  4  2  0  0  0  0
  8  6  2  0  0  0  0
  9  8  1  0  0  0  0
 10  8  1  0  0  0  0
 11 17  2  0  0  0  0
 11 19  1  0  0  0  0
 12 14  1  0  0  0  0
 12 15  1  0  0  0  0
 13 12  1  0  0  0  0
 16  7  1  0  0  0  0
 16  2  1  0  0  0  0
 18 10  1  0  0  0  0
 18  1  1  0  0  0  0
 19 12  1  0  0  0  0
 20 21  1  0  0  0  0
 20 32  1  0  0  0  0
 20  2  1  0  0  0  0
 22 28  1  0  0  0  0
 22 24  1  0  0  0  0
 23 22  1  0  0  0  0
 24 25  1  0  0  0  0
 24 27  1  0  0  0  0
 26 24  1  0  0  0  0
 28 31  1  0  0  0  0
 28 29  1  0  0  0  0
 30 28  1  0  0  0  0
 32 35  1  0  0  0  0
 32 34  1  0  0  0  0
 33 32  1  0  0  0  0
 36 20  1  0  0  0  0
 37 36  1  0  0  0  0
 38 36  1  0  0  0  0
 39 36  1  0  0  0  0
 40 56  1  0  0  0  0
 40 42  1  0  0  0  0
 41 40  1  0  0  0  0
 42 45  1  0  0  0  0
 42 43  1  0  0  0  0
 44 42  1  0  0  0  0
 46 47  1  0  0  0  0
 46 48  1  0  0  0  0
 49 46  1  0  0  0  0
 50 51  1  0  0  0  0
 50 46  1  0  0  0  0
 50  1  1  0  0  0  0
 52 50  1  0  0  0  0
 53 52  1  0  0  0  0
 54 52  1  0  0  0  0
 55 52  1  0  0  0  0
 56 57  1  0  0  0  0
 56 59  1  0  0  0  0
 58 56  1  0  0  0  0
M  END
