1,2,12
 OpenBabel05122313063D

 71 72  0  0  0  0  0  0  0  0999 V2000
   -1.6297   -0.3553   -0.0720 P   0  0  0  0  0  0  0  0  0  0  0  0
    0.8923    0.6716    1.2705 P   0  0  1  0  0  0  0  0  0  0  0  0
    0.5758   -3.2782    0.1301 O   0  0  0  0  0  0  0  0  0  0  0  0
   -2.2224    1.6252   -2.6372 O   0  0  0  0  0  0  0  0  0  0  0  0
   -2.0542    3.3782   -1.2005 O   0  0  0  0  0  0  0  0  0  0  0  0
    0.7804    2.9570   -1.9319 O   0  0  0  0  0  0  0  0  0  0  0  0
    1.2034    3.9564    0.0587 O   0  0  0  0  0  0  0  0  0  0  0  0
    3.1924    1.6916   -0.9638 O   0  0  0  0  0  0  0  0  0  0  0  0
    4.5634    0.0808   -0.1433 O   0  0  0  0  0  0  0  0  0  0  0  0
    3.1549   -1.8024   -2.0316 O   0  0  0  0  0  0  0  0  0  0  0  0
    3.5690   -3.2451   -0.3197 O   0  0  0  0  0  0  0  0  0  0  0  0
    0.7574   -2.1327    0.5068 C   0  0  0  0  0  3  0  0  0  0  0  0
   -1.0712    1.3508   -0.5385 C   0  0  0  0  0  0  0  0  0  0  0  0
    0.1107    1.7836   -0.0244 C   0  0  0  0  0  0  0  0  0  0  0  0
   -1.8285    2.1027   -1.5893 C   0  0  0  0  0  0  0  0  0  0  0  0
   -2.7539    4.1898   -2.1536 C   0  0  0  0  0  0  0  0  0  0  0  0
    0.7621    3.0206   -0.5821 C   0  0  0  0  0  0  0  0  0  0  0  0
    1.4827    4.0217   -2.5847 C   0  0  0  0  0  0  0  0  0  0  0  0
    2.2544   -0.1183    0.2931 C   0  0  0  0  0  0  0  0  0  0  0  0
    2.0396   -1.4303    0.0187 C   0  0  0  0  0  0  0  0  0  0  0  0
    3.3582    0.6579   -0.3351 C   0  0  0  0  0  0  0  0  0  0  0  0
    5.6653    0.7228   -0.8005 C   0  0  0  0  0  0  0  0  0  0  0  0
    3.0075   -2.2671   -0.7632 C   0  0  0  0  0  0  0  0  0  0  0  0
    4.0429   -2.5711   -2.8527 C   0  0  0  0  0  0  0  0  0  0  0  0
   -1.2159   -1.3020   -1.5918 C   0  0  0  0  0  0  0  0  0  0  0  0
   -1.8070   -2.5720   -1.7549 C   0  0  0  0  0  0  0  0  0  0  0  0
   -1.3799   -3.4144   -2.7889 C   0  0  0  0  0  0  0  0  0  0  0  0
   -0.3594   -3.0012   -3.6607 C   0  0  0  0  0  0  0  0  0  0  0  0
    0.2294   -1.7388   -3.4971 C   0  0  0  0  0  0  0  0  0  0  0  0
   -0.1923   -0.8875   -2.4656 C   0  0  0  0  0  0  0  0  0  0  0  0
   -3.4712   -0.2673   -0.0947 C   0  0  0  0  0  0  0  0  0  0  0  0
   -4.1833   -0.3175   -1.3135 C   0  0  0  0  0  0  0  0  0  0  0  0
   -5.5826   -0.2335   -1.3116 C   0  0  0  0  0  0  0  0  0  0  0  0
   -6.2835   -0.1017   -0.1019 C   0  0  0  0  0  0  0  0  0  0  0  0
   -5.5795   -0.0532    1.1106 C   0  0  0  0  0  0  0  0  0  0  0  0
   -4.1793   -0.1394    1.1168 C   0  0  0  0  0  0  0  0  0  0  0  0
    1.6817    1.7782    2.6105 C   0  0  0  0  0  0  0  0  0  0  0  0
    1.9648    0.8632    3.8152 C   0  0  0  0  0  0  0  0  0  0  0  0
    3.0042    2.4250    2.1667 C   0  0  0  0  0  0  0  0  0  0  0  0
    0.6448    2.8490    2.9975 C   0  0  0  0  0  0  0  0  0  0  0  0
   -2.5881   -2.9131   -1.0589 H   0  0  0  0  0  0  0  0  0  0  0  0
   -1.8386   -4.4078   -2.9040 H   0  0  0  0  0  0  0  0  0  0  0  0
   -0.0213   -3.6686   -4.4679 H   0  0  0  0  0  0  0  0  0  0  0  0
    1.0305   -1.4075   -4.1743 H   0  0  0  0  0  0  0  0  0  0  0  0
    0.2827    0.0969   -2.3478 H   0  0  0  0  0  0  0  0  0  0  0  0
   -3.6371   -0.4112   -2.2620 H   0  0  0  0  0  0  0  0  0  0  0  0
   -6.1292   -0.2747   -2.2661 H   0  0  0  0  0  0  0  0  0  0  0  0
   -7.3826   -0.0416   -0.1047 H   0  0  0  0  0  0  0  0  0  0  0  0
   -6.1210    0.0451    2.0634 H   0  0  0  0  0  0  0  0  0  0  0  0
   -3.6396   -0.1044    2.0720 H   0  0  0  0  0  0  0  0  0  0  0  0
   -2.1476    4.3165   -3.0735 H   0  0  0  0  0  0  0  0  0  0  0  0
   -3.7186    3.7212   -2.4325 H   0  0  0  0  0  0  0  0  0  0  0  0
   -2.9192    5.1639   -1.6614 H   0  0  0  0  0  0  0  0  0  0  0  0
    2.5573    3.9699   -2.3197 H   0  0  0  0  0  0  0  0  0  0  0  0
    1.3425    3.8571   -3.6674 H   0  0  0  0  0  0  0  0  0  0  0  0
    1.0794    5.0073   -2.2788 H   0  0  0  0  0  0  0  0  0  0  0  0
    6.5656    0.1561   -0.5059 H   0  0  0  0  0  0  0  0  0  0  0  0
    5.5292    0.6931   -1.9003 H   0  0  0  0  0  0  0  0  0  0  0  0
    5.7473    1.7815   -0.4832 H   0  0  0  0  0  0  0  0  0  0  0  0
    4.0075   -2.1118   -3.8566 H   0  0  0  0  0  0  0  0  0  0  0  0
    5.0753   -2.5411   -2.4484 H   0  0  0  0  0  0  0  0  0  0  0  0
    3.7176   -3.6295   -2.8969 H   0  0  0  0  0  0  0  0  0  0  0  0
    1.0380    0.4631    4.2658 H   0  0  0  0  0  0  0  0  0  0  0  0
    2.4848    1.4633    4.5909 H   0  0  0  0  0  0  0  0  0  0  0  0
    2.6229    0.0109    3.5543 H   0  0  0  0  0  0  0  0  0  0  0  0
    3.3631    3.0711    2.9955 H   0  0  0  0  0  0  0  0  0  0  0  0
    3.7886    1.6619    1.9906 H   0  0  0  0  0  0  0  0  0  0  0  0
    2.8941    3.0579    1.2701 H   0  0  0  0  0  0  0  0  0  0  0  0
   -0.3259    2.4039    3.2882 H   0  0  0  0  0  0  0  0  0  0  0  0
    0.4891    3.5739    2.1776 H   0  0  0  0  0  0  0  0  0  0  0  0
    1.0292    3.4055    3.8784 H   0  0  0  0  0  0  0  0  0  0  0  0
  2 14  1  6  0  0  0
  2 37  1  0  0  0  0
  3 12  2  0  0  0  0
  4 15  2  0  0  0  0
  6 17  1  0  0  0  0
  8 21  2  0  0  0  0
 10 23  1  0  0  0  0
 13  1  1  0  0  0  0
 13 14  2  0  0  0  0
 15  5  1  0  0  0  0
 15 13  1  0  0  0  0
 16 53  1  0  0  0  0
 16  5  1  0  0  0  0
 17 14  1  0  0  0  0
 17  7  2  0  0  0  0
 18 54  1  0  0  0  0
 18 56  1  0  0  0  0
 18  6  1  0  0  0  0
 19  2  1  0  0  0  0
 20 19  2  0  0  0  0
 20 12  1  0  0  0  0
 21  9  1  0  0  0  0
 21 19  1  0  0  0  0
 22 57  1  0  0  0  0
 22 59  1  0  0  0  0
 22  9  1  0  0  0  0
 23 11  2  0  0  0  0
 23 20  1  0  0  0  0
 24 61  1  0  0  0  0
 24 10  1  0  0  0  0
 25  1  1  0  0  0  0
 26 25  1  0  0  0  0
 26 41  1  0  0  0  0
 27 26  2  0  0  0  0
 28 29  2  0  0  0  0
 28 27  1  0  0  0  0
 29 30  1  0  0  0  0
 30 45  1  0  0  0  0
 30 25  2  0  0  0  0
 31  1  1  0  0  0  0
 31 36  1  0  0  0  0
 32 33  1  0  0  0  0
 32 31  2  0  0  0  0
 33 34  2  0  0  0  0
 34 35  1  0  0  0  0
 35 36  2  0  0  0  0
 35 49  1  0  0  0  0
 36 50  1  0  0  0  0
 37 40  1  0  0  0  0
 37 38  1  0  0  0  0
 38 63  1  0  0  0  0
 38 64  1  0  0  0  0
 39 37  1  0  0  0  0
 39 66  1  0  0  0  0
 40 69  1  0  0  0  0
 40 71  1  0  0  0  0
 42 27  1  0  0  0  0
 43 28  1  0  0  0  0
 44 29  1  0  0  0  0
 46 32  1  0  0  0  0
 47 33  1  0  0  0  0
 48 34  1  0  0  0  0
 51 16  1  0  0  0  0
 52 16  1  0  0  0  0
 55 18  1  0  0  0  0
 58 22  1  0  0  0  0
 60 24  1  0  0  0  0
 62 24  1  0  0  0  0
 65 38  1  0  0  0  0
 67 39  1  0  0  0  0
 68 39  1  0  0  0  0
 70 40  1  0  0  0  0
M  END
