1,2,34
 OpenBabel05122313063D

 73 77  0  0  0  0  0  0  0  0999 V2000
    2.2252   -0.5134    0.2513 P   0  0  0  0  0  0  0  0  0  0  0  0
   -2.1881    0.5388    0.0873 P   0  0  0  0  0  0  0  0  0  0  0  0
    3.4526    0.1873   -0.9354 C   0  0  0  0  0  0  0  0  0  0  0  0
    3.3418   -0.4500   -1.8364 H   0  0  0  0  0  0  0  0  0  0  0  0
    3.1029    1.6519   -1.3123 C   0  0  0  0  0  0  0  0  0  0  0  0
    2.3995    1.6885   -2.1661 H   0  0  0  0  0  0  0  0  0  0  0  0
    2.5949    2.1636   -0.4646 H   0  0  0  0  0  0  0  0  0  0  0  0
    4.4676    2.3071   -1.5646 C   0  0  0  0  0  0  0  0  0  0  0  0
    4.8489    2.0177   -2.5682 H   0  0  0  0  0  0  0  0  0  0  0  0
    4.4336    3.4148   -1.5328 H   0  0  0  0  0  0  0  0  0  0  0  0
    5.3524    1.6901   -0.4717 C   0  0  0  0  0  0  0  0  0  0  0  0
    5.1129    2.1640    0.5052 H   0  0  0  0  0  0  0  0  0  0  0  0
    6.4387    1.8317   -0.6414 H   0  0  0  0  0  0  0  0  0  0  0  0
    4.9374    0.2037   -0.4514 C   0  0  0  0  0  0  0  0  0  0  0  0
    5.0821   -0.2569    0.5476 H   0  0  0  0  0  0  0  0  0  0  0  0
    5.5616   -0.3829   -1.1560 H   0  0  0  0  0  0  0  0  0  0  0  0
    2.6588   -2.3104    0.4167 C   0  0  0  0  0  0  0  0  0  0  0  0
    3.7275   -2.3533    0.7162 H   0  0  0  0  0  0  0  0  0  0  0  0
    2.3937   -3.0493   -0.9354 C   0  0  0  0  0  0  0  0  0  0  0  0
    1.9653   -2.3511   -1.6866 H   0  0  0  0  0  0  0  0  0  0  0  0
    3.3283   -3.4599   -1.3657 H   0  0  0  0  0  0  0  0  0  0  0  0
    1.3507   -4.1444   -0.6179 C   0  0  0  0  0  0  0  0  0  0  0  0
    1.8553   -5.1035   -0.3716 H   0  0  0  0  0  0  0  0  0  0  0  0
    0.6754   -4.3350   -1.4755 H   0  0  0  0  0  0  0  0  0  0  0  0
    0.6172   -3.6135    0.6206 C   0  0  0  0  0  0  0  0  0  0  0  0
    0.0340   -4.3858    1.1615 H   0  0  0  0  0  0  0  0  0  0  0  0
   -0.0851   -2.8021    0.3221 H   0  0  0  0  0  0  0  0  0  0  0  0
    1.7488   -3.0115    1.4620 C   0  0  0  0  0  0  0  0  0  0  0  0
    2.3266   -3.8216    1.9559 H   0  0  0  0  0  0  0  0  0  0  0  0
    1.3861   -2.3338    2.2614 H   0  0  0  0  0  0  0  0  0  0  0  0
    2.5557    0.2649    1.9083 C   0  0  0  0  0  0  0  0  0  0  0  0
    3.3371   -0.2784    2.4801 H   0  0  0  0  0  0  0  0  0  0  0  0
    2.9583    1.2823    1.7048 H   0  0  0  0  0  0  0  0  0  0  0  0
    0.0157    0.2713    1.9277 C   0  0  0  0  0  3  0  0  0  0  0  0
    1.2405    0.3571    2.6546 C   0  0  0  0  0  0  0  0  0  0  0  0
    1.2255    0.5495    4.0501 C   0  0  0  0  0  0  0  0  0  0  0  0
    2.1778    0.6079    4.6013 H   0  0  0  0  0  0  0  0  0  0  0  0
    0.0118    0.6762    4.7405 C   0  0  0  0  0  0  0  0  0  0  0  0
    0.0101    0.8318    5.8300 H   0  0  0  0  0  0  0  0  0  0  0  0
   -1.1999    0.6056    4.0382 C   0  0  0  0  0  0  0  0  0  0  0  0
   -2.1536    0.7066    4.5809 H   0  0  0  0  0  0  0  0  0  0  0  0
   -1.2113    0.3985    2.6454 C   0  0  0  0  0  0  0  0  0  0  0  0
   -2.5263    0.2870    1.9000 C   0  0  0  0  0  0  0  0  0  0  0  0
   -3.2989    0.9836    2.2877 H   0  0  0  0  0  0  0  0  0  0  0  0
   -2.9439   -0.7398    2.0006 H   0  0  0  0  0  0  0  0  0  0  0  0
   -3.4184   -0.4700   -0.8456 C   0  0  0  0  0  0  0  0  0  0  0  0
   -3.1782   -0.2532   -1.9069 H   0  0  0  0  0  0  0  0  0  0  0  0
   -3.2280   -1.9992   -0.5867 C   0  0  0  0  0  0  0  0  0  0  0  0
   -2.9076   -2.4883   -1.5274 H   0  0  0  0  0  0  0  0  0  0  0  0
   -2.4243   -2.2129    0.1481 H   0  0  0  0  0  0  0  0  0  0  0  0
   -4.6074   -2.5087   -0.1200 C   0  0  0  0  0  0  0  0  0  0  0  0
   -4.7944   -3.5641   -0.4016 H   0  0  0  0  0  0  0  0  0  0  0  0
   -4.6818   -2.4525    0.9882 H   0  0  0  0  0  0  0  0  0  0  0  0
   -5.6048   -1.5220   -0.7435 C   0  0  0  0  0  0  0  0  0  0  0  0
   -6.6156   -1.5637   -0.2893 H   0  0  0  0  0  0  0  0  0  0  0  0
   -5.7200   -1.7345   -1.8286 H   0  0  0  0  0  0  0  0  0  0  0  0
   -4.9091   -0.1651   -0.5514 C   0  0  0  0  0  0  0  0  0  0  0  0
   -5.0449    0.1689    0.5009 H   0  0  0  0  0  0  0  0  0  0  0  0
   -5.3128    0.6375   -1.1998 H   0  0  0  0  0  0  0  0  0  0  0  0
   -2.5805    2.3110   -0.2836 C   0  0  0  0  0  0  0  0  0  0  0  0
   -3.6775    2.4304   -0.1615 H   0  0  0  0  0  0  0  0  0  0  0  0
   -1.7976    3.2738    0.6640 C   0  0  0  0  0  0  0  0  0  0  0  0
   -2.4574    3.7333    1.4259 H   0  0  0  0  0  0  0  0  0  0  0  0
   -1.0112    2.7149    1.2135 H   0  0  0  0  0  0  0  0  0  0  0  0
   -1.1277    4.3017   -0.2671 C   0  0  0  0  0  0  0  0  0  0  0  0
   -1.8317    5.1301   -0.5012 H   0  0  0  0  0  0  0  0  0  0  0  0
   -0.2235    4.7575    0.1847 H   0  0  0  0  0  0  0  0  0  0  0  0
   -0.8414    3.4890   -1.5350 C   0  0  0  0  0  0  0  0  0  0  0  0
    0.0023    2.7872   -1.3534 H   0  0  0  0  0  0  0  0  0  0  0  0
   -0.5783    4.1049   -2.4181 H   0  0  0  0  0  0  0  0  0  0  0  0
   -2.1289    2.6758   -1.7313 C   0  0  0  0  0  0  0  0  0  0  0  0
   -2.9112    3.3029   -2.2077 H   0  0  0  0  0  0  0  0  0  0  0  0
   -1.9620    1.7912   -2.3803 H   0  0  0  0  0  0  0  0  0  0  0  0
  1 17  1  0  0  0  0
  1 31  1  0  0  0  0
  2 43  1  0  0  0  0
  3 14  1  0  0  0  0
  3  1  1  0  0  0  0
  4  3  1  0  0  0  0
  5  3  1  0  0  0  0
  5  7  1  0  0  0  0
  6  5  1  0  0  0  0
  8 10  1  0  0  0  0
  8  5  1  0  0  0  0
  8 11  1  0  0  0  0
  9  8  1  0  0  0  0
 11 14  1  0  0  0  0
 11 12  1  0  0  0  0
 13 11  1  0  0  0  0
 14 15  1  0  0  0  0
 16 14  1  0  0  0  0
 17 18  1  0  0  0  0
 17 28  1  0  0  0  0
 19 22  1  0  0  0  0
 19 17  1  0  0  0  0
 20 19  1  0  0  0  0
 21 19  1  0  0  0  0
 22 23  1  0  0  0  0
 22 25  1  0  0  0  0
 24 22  1  0  0  0  0
 25 26  1  0  0  0  0
 25 28  1  0  0  0  0
 27 25  1  0  0  0  0
 28 29  1  0  0  0  0
 28 30  1  0  0  0  0
 31 32  1  0  0  0  0
 31 35  1  0  0  0  0
 33 31  1  0  0  0  0
 34 42  2  0  0  0  0
 34 35  1  0  0  0  0
 35 36  2  0  0  0  0
 36 37  1  0  0  0  0
 36 38  1  0  0  0  0
 38 39  1  0  0  0  0
 40 41  1  0  0  0  0
 40 38  2  0  0  0  0
 42 40  1  0  0  0  0
 43 45  1  0  0  0  0
 43 44  1  0  0  0  0
 43 42  1  0  0  0  0
 46 48  1  0  0  0  0
 46 57  1  0  0  0  0
 46  2  1  0  0  0  0
 47 46  1  0  0  0  0
 48 51  1  0  0  0  0
 48 50  1  0  0  0  0
 49 48  1  0  0  0  0
 51 53  1  0  0  0  0
 52 51  1  0  0  0  0
 54 57  1  0  0  0  0
 54 55  1  0  0  0  0
 54 51  1  0  0  0  0
 56 54  1  0  0  0  0
 57 58  1  0  0  0  0
 59 57  1  0  0  0  0
 60 61  1  0  0  0  0
 60  2  1  0  0  0  0
 60 62  1  0  0  0  0
 62 64  1  0  0  0  0
 62 63  1  0  0  0  0
 65 67  1  0  0  0  0
 65 62  1  0  0  0  0
 66 65  1  0  0  0  0
 68 69  1  0  0  0  0
 68 65  1  0  0  0  0
 70 68  1  0  0  0  0
 71 68  1  0  0  0  0
 71 60  1  0  0  0  0
 72 71  1  0  0  0  0
 73 71  1  0  0  0  0
M  END
