1,2,5
 OpenBabel05122313063D

 60 60  0  0  0  0  0  0  0  0999 V2000
    2.0862   -0.0612   -0.0216 P   0  0  0  0  0  0  0  0  0  0  0  0
   -2.4757   -0.0789   -0.1043 P   0  0  0  0  0  0  0  0  0  0  0  0
    2.2388    1.6380   -0.0508 O   0  0  0  0  0  0  0  0  0  0  0  0
   -2.5782    1.6348   -0.2533 N   0  0  0  0  0  0  0  0  0  0  0  0
   -0.1728    1.6275   -0.1225 C   0  0  0  0  0  3  0  0  0  0  0  0
    1.0426    2.3422   -0.0718 C   0  0  0  0  0  0  0  0  0  0  0  0
    1.0865    3.7465   -0.0407 C   0  0  0  0  0  0  0  0  0  0  0  0
    2.0565    4.2606    0.0069 H   0  0  0  0  0  0  0  0  0  0  0  0
   -0.1257    4.4540   -0.0723 C   0  0  0  0  0  0  0  0  0  0  0  0
   -0.1112    5.5541   -0.0468 H   0  0  0  0  0  0  0  0  0  0  0  0
   -1.3591    3.7826   -0.1351 C   0  0  0  0  0  0  0  0  0  0  0  0
   -2.3012    4.3522   -0.1593 H   0  0  0  0  0  0  0  0  0  0  0  0
   -1.3820    2.3739   -0.1698 C   0  0  0  0  0  0  0  0  0  0  0  0
    3.1295   -0.5498   -1.5195 C   0  0  0  0  0  0  0  0  0  0  0  0
    2.5567    0.2560   -2.7022 C   0  0  0  0  0  0  0  0  0  0  0  0
    3.1019   -0.0270   -3.6270 H   0  0  0  0  0  0  0  0  0  0  0  0
    2.6699    1.3463   -2.5477 H   0  0  0  0  0  0  0  0  0  0  0  0
    1.4820    0.0378   -2.8597 H   0  0  0  0  0  0  0  0  0  0  0  0
    2.9078   -2.0534   -1.7684 C   0  0  0  0  0  0  0  0  0  0  0  0
    3.3465   -2.6831   -0.9715 H   0  0  0  0  0  0  0  0  0  0  0  0
    3.3892   -2.3384   -2.7279 H   0  0  0  0  0  0  0  0  0  0  0  0
    1.8280   -2.2965   -1.8313 H   0  0  0  0  0  0  0  0  0  0  0  0
    4.6208   -0.2223   -1.3593 C   0  0  0  0  0  0  0  0  0  0  0  0
    5.1422   -0.4221   -2.3197 H   0  0  0  0  0  0  0  0  0  0  0  0
    5.1055   -0.8485   -0.5858 H   0  0  0  0  0  0  0  0  0  0  0  0
    4.7789    0.8441   -1.1046 H   0  0  0  0  0  0  0  0  0  0  0  0
    2.9054   -0.4385    1.6424 C   0  0  0  0  0  0  0  0  0  0  0  0
    4.1439    0.4303    1.9102 C   0  0  0  0  0  0  0  0  0  0  0  0
    4.9943    0.1758    1.2522 H   0  0  0  0  0  0  0  0  0  0  0  0
    4.4738    0.2684    2.9584 H   0  0  0  0  0  0  0  0  0  0  0  0
    3.9143    1.5056    1.7829 H   0  0  0  0  0  0  0  0  0  0  0  0
    1.8139   -0.0989    2.6815 C   0  0  0  0  0  0  0  0  0  0  0  0
    2.2319   -0.2327    3.7018 H   0  0  0  0  0  0  0  0  0  0  0  0
    0.9417   -0.7754    2.5783 H   0  0  0  0  0  0  0  0  0  0  0  0
    1.4654    0.9495    2.5897 H   0  0  0  0  0  0  0  0  0  0  0  0
    3.2287   -1.9401    1.7147 C   0  0  0  0  0  0  0  0  0  0  0  0
    2.3437   -2.5577    1.4539 H   0  0  0  0  0  0  0  0  0  0  0  0
    3.5261   -2.1957    2.7540 H   0  0  0  0  0  0  0  0  0  0  0  0
    4.0737   -2.2170    1.0536 H   0  0  0  0  0  0  0  0  0  0  0  0
   -3.5394   -0.7594   -1.4708 C   0  0  0  0  0  0  0  0  0  0  0  0
   -4.5357   -0.2714   -1.3715 H   0  0  0  0  0  0  0  0  0  0  0  0
   -2.9304   -0.3787   -2.8249 C   0  0  0  0  0  0  0  0  0  0  0  0
   -3.6043   -0.6880   -3.6501 H   0  0  0  0  0  0  0  0  0  0  0  0
   -1.9550   -0.8862   -2.9682 H   0  0  0  0  0  0  0  0  0  0  0  0
   -2.7604    0.7134   -2.9033 H   0  0  0  0  0  0  0  0  0  0  0  0
   -3.6848   -2.2782   -1.2981 C   0  0  0  0  0  0  0  0  0  0  0  0
   -2.6915   -2.7633   -1.1980 H   0  0  0  0  0  0  0  0  0  0  0  0
   -4.1992   -2.7142   -2.1790 H   0  0  0  0  0  0  0  0  0  0  0  0
   -4.2763   -2.5449   -0.4000 H   0  0  0  0  0  0  0  0  0  0  0  0
   -3.3304   -0.5132    1.4972 C   0  0  0  0  0  0  0  0  0  0  0  0
   -3.1884   -1.6152    1.5642 H   0  0  0  0  0  0  0  0  0  0  0  0
   -4.8200   -0.1612    1.5161 C   0  0  0  0  0  0  0  0  0  0  0  0
   -4.9752    0.9300    1.3771 H   0  0  0  0  0  0  0  0  0  0  0  0
   -5.2660   -0.4270    2.4970 H   0  0  0  0  0  0  0  0  0  0  0  0
   -5.3975   -0.6942    0.7350 H   0  0  0  0  0  0  0  0  0  0  0  0
   -2.5601    0.1486    2.6466 C   0  0  0  0  0  0  0  0  0  0  0  0
   -2.9990   -0.1429    3.6226 H   0  0  0  0  0  0  0  0  0  0  0  0
   -2.5970    1.2545    2.5677 H   0  0  0  0  0  0  0  0  0  0  0  0
   -1.4941   -0.1534    2.6450 H   0  0  0  0  0  0  0  0  0  0  0  0
   -3.4646    2.1415   -0.2711 H   0  0  0  0  0  0  0  0  0  0  0  0
  1 27  1  0  0  0  0
  2 50  1  0  0  0  0
  3  1  1  0  0  0  0
  4 13  1  0  0  0  0
  4  2  1  0  0  0  0
  5  6  1  0  0  0  0
  6  3  1  0  0  0  0
  6  7  2  0  0  0  0
  7  8  1  0  0  0  0
  9 10  1  0  0  0  0
  9  7  1  0  0  0  0
 11  9  2  0  0  0  0
 12 11  1  0  0  0  0
 13 11  1  0  0  0  0
 13  5  2  0  0  0  0
 14 23  1  0  0  0  0
 14  1  1  0  0  0  0
 15 17  1  0  0  0  0
 15 14  1  0  0  0  0
 16 15  1  0  0  0  0
 18 15  1  0  0  0  0
 19 14  1  0  0  0  0
 19 20  1  0  0  0  0
 21 19  1  0  0  0  0
 22 19  1  0  0  0  0
 23 26  1  0  0  0  0
 23 25  1  0  0  0  0
 24 23  1  0  0  0  0
 27 36  1  0  0  0  0
 27 28  1  0  0  0  0
 27 32  1  0  0  0  0
 28 30  1  0  0  0  0
 29 28  1  0  0  0  0
 31 28  1  0  0  0  0
 32 33  1  0  0  0  0
 34 32  1  0  0  0  0
 35 32  1  0  0  0  0
 36 38  1  0  0  0  0
 37 36  1  0  0  0  0
 39 36  1  0  0  0  0
 40 41  1  0  0  0  0
 40 46  1  0  0  0  0
 40  2  1  0  0  0  0
 42 40  1  0  0  0  0
 43 42  1  0  0  0  0
 44 42  1  0  0  0  0
 45 42  1  0  0  0  0
 46 47  1  0  0  0  0
 46 49  1  0  0  0  0
 48 46  1  0  0  0  0
 50 52  1  0  0  0  0
 50 51  1  0  0  0  0
 50 56  1  0  0  0  0
 52 54  1  0  0  0  0
 53 52  1  0  0  0  0
 55 52  1  0  0  0  0
 56 57  1  0  0  0  0
 58 56  1  0  0  0  0
 59 56  1  0  0  0  0
 60  4  1  0  0  0  0
M  END
