1,2,15
 OpenBabel05122313063D

 80 84  0  0  1  0  0  0  0  0999 V2000
   -2.3339   -0.2206   -0.1412 P   0  0  0  0  0  0  0  0  0  0  0  0
    2.2011   -0.4870   -0.3901 P   0  0  0  0  0  0  0  0  0  0  0  0
   -2.3752    1.4431    0.3348 O   0  0  0  0  0  0  0  0  0  0  0  0
    2.4908    1.1600    0.0636 O   0  0  0  0  0  0  0  0  0  0  0  0
   -1.2241    2.1653    0.0761 C   0  0  1  0  0  0  0  0  0  0  0  0
    1.4098    2.0141   -0.0742 C   0  0  2  0  0  0  0  0  0  0  0  0
    1.8773    1.0462    4.0128 C   0  0  0  0  0  0  0  0  0  0  0  0
    2.0043    1.3623    5.0686 H   0  0  0  0  0  0  0  0  0  0  0  0
    2.4428    1.7528    3.3745 H   0  0  0  0  0  0  0  0  0  0  0  0
    2.3560    0.0512    3.9010 H   0  0  0  0  0  0  0  0  0  0  0  0
    0.3931    1.0036    3.6120 C   0  0  0  0  0  0  0  0  0  0  0  0
   -0.1460    0.2885    4.2693 H   0  0  0  0  0  0  0  0  0  0  0  0
   -0.0598    1.9966    3.8170 H   0  0  0  0  0  0  0  0  0  0  0  0
    0.1726    0.6516    2.1466 C   0  0  0  0  0  0  0  0  0  0  0  0
    0.1088   -0.6277    1.6585 C   0  0  0  0  0  3  0  0  0  0  0  0
    0.3175   -1.8248    2.5830 C   0  0  0  0  0  0  0  0  0  0  0  0
    0.8656   -1.5050    3.4953 H   0  0  0  0  0  0  0  0  0  0  0  0
    0.9850   -2.5510    2.0754 H   0  0  0  0  0  0  0  0  0  0  0  0
   -0.9282   -2.5962    3.0369 C   0  0  0  0  0  0  0  0  0  0  0  0
   -1.6149   -1.9557    3.6276 H   0  0  0  0  0  0  0  0  0  0  0  0
   -0.6368   -3.4505    3.6812 H   0  0  0  0  0  0  0  0  0  0  0  0
   -1.4935   -3.0095    2.1807 H   0  0  0  0  0  0  0  0  0  0  0  0
   -3.3317   -0.8831    1.2849 C   0  0  0  0  0  0  0  0  0  0  0  0
   -2.5372   -0.9376    2.0558 H   0  0  0  0  0  0  0  0  0  0  0  0
   -3.8382   -2.3020    1.0002 C   0  0  0  0  0  0  0  0  0  0  0  0
   -4.7353   -2.2870    0.3499 H   0  0  0  0  0  0  0  0  0  0  0  0
   -4.1286   -2.7929    1.9512 H   0  0  0  0  0  0  0  0  0  0  0  0
   -3.0746   -2.9421    0.5149 H   0  0  0  0  0  0  0  0  0  0  0  0
   -4.4333    0.0391    1.8199 C   0  0  0  0  0  0  0  0  0  0  0  0
   -4.0540    1.0598    2.0094 H   0  0  0  0  0  0  0  0  0  0  0  0
   -4.8110   -0.3736    2.7787 H   0  0  0  0  0  0  0  0  0  0  0  0
   -5.2946    0.1108    1.1288 H   0  0  0  0  0  0  0  0  0  0  0  0
   -3.3818   -0.1560   -1.6903 C   0  0  0  0  0  0  0  0  0  0  0  0
   -2.6938    0.4123   -2.3528 H   0  0  0  0  0  0  0  0  0  0  0  0
   -3.5839   -1.5444   -2.3129 C   0  0  0  0  0  0  0  0  0  0  0  0
   -2.6543   -2.1467   -2.3053 H   0  0  0  0  0  0  0  0  0  0  0  0
   -3.9038   -1.4349   -3.3691 H   0  0  0  0  0  0  0  0  0  0  0  0
   -4.3692   -2.1200   -1.7865 H   0  0  0  0  0  0  0  0  0  0  0  0
   -4.6846    0.6382   -1.5665 C   0  0  0  0  0  0  0  0  0  0  0  0
   -5.4573    0.0731   -1.0083 H   0  0  0  0  0  0  0  0  0  0  0  0
   -5.0938    0.8412   -2.5779 H   0  0  0  0  0  0  0  0  0  0  0  0
   -4.5259    1.6097   -1.0607 H   0  0  0  0  0  0  0  0  0  0  0  0
    3.2600   -1.2685    0.9319 C   0  0  0  0  0  0  0  0  0  0  0  0
    2.6069   -1.1056    1.8131 H   0  0  0  0  0  0  0  0  0  0  0  0
    3.4177   -2.7783    0.7155 C   0  0  0  0  0  0  0  0  0  0  0  0
    2.4675   -3.2701    0.4278 H   0  0  0  0  0  0  0  0  0  0  0  0
    3.7707   -3.2536    1.6534 H   0  0  0  0  0  0  0  0  0  0  0  0
    4.1677   -3.0022   -0.0687 H   0  0  0  0  0  0  0  0  0  0  0  0
    4.5931   -0.5670    1.2150 C   0  0  0  0  0  0  0  0  0  0  0  0
    5.3434   -0.7607    0.4247 H   0  0  0  0  0  0  0  0  0  0  0  0
    5.0090   -0.9550    2.1681 H   0  0  0  0  0  0  0  0  0  0  0  0
    4.4654    0.5264    1.3182 H   0  0  0  0  0  0  0  0  0  0  0  0
    3.0677   -0.5445   -2.0479 C   0  0  0  0  0  0  0  0  0  0  0  0
    2.3522    0.0565   -2.6493 H   0  0  0  0  0  0  0  0  0  0  0  0
    3.0835   -1.9657   -2.6265 C   0  0  0  0  0  0  0  0  0  0  0  0
    3.8716   -2.5882   -2.1598 H   0  0  0  0  0  0  0  0  0  0  0  0
    3.2945   -1.9239   -3.7143 H   0  0  0  0  0  0  0  0  0  0  0  0
    2.1127   -2.4830   -2.4923 H   0  0  0  0  0  0  0  0  0  0  0  0
    4.4321    0.1464   -2.1135 C   0  0  0  0  0  0  0  0  0  0  0  0
    4.4143    1.1363   -1.6189 H   0  0  0  0  0  0  0  0  0  0  0  0
    4.7188    0.2987   -3.1746 H   0  0  0  0  0  0  0  0  0  0  0  0
    5.2268   -0.4656   -1.6438 H   0  0  0  0  0  0  0  0  0  0  0  0
    0.0089    1.2473   -0.6335 B   0  0  0  0  0  2  0  0  0  0  0  0
    0.1348    1.7886    1.0805 B   0  0  0  0  0  0  0  0  0  0  0  0
    0.8955    2.3966   -1.6685 B   0  0  1  0  0  0  0  0  0  0  0  0
    1.5337    1.9806   -2.6021 H   0  0  0  0  0  0  0  0  0  0  0  0
   -0.8513    2.4961   -1.5690 B   0  0  2  0  0  0  0  0  0  0  0  0
   -1.6332    2.1629   -2.4230 H   0  0  0  0  0  0  0  0  0  0  0  0
    1.1136    3.2604    1.0770 B   0  0  1  0  0  0  0  0  0  0  0  0
    1.8903    3.4348    1.9806 H   0  0  0  0  0  0  0  0  0  0  0  0
    1.5953    3.6331   -0.5984 B   0  0  0  0  0  0  0  0  0  0  0  0
    2.7019    4.0606   -0.8115 H   0  0  0  0  0  0  0  0  0  0  0  0
    0.1137    3.9808   -1.5366 B   0  0  0  0  0  0  0  0  0  0  0  0
    0.1044    4.7561   -2.4628 H   0  0  0  0  0  0  0  0  0  0  0  0
   -1.2836    3.7975   -0.4349 B   0  0  1  0  0  0  0  0  0  0  0  0
   -2.3520    4.3475   -0.5279 H   0  0  0  0  0  0  0  0  0  0  0  0
   -0.6638    3.3600    1.1803 B   0  0  2  0  0  0  0  0  0  0  0  0
   -1.3098    3.5995    2.1702 H   0  0  0  0  0  0  0  0  0  0  0  0
    0.2390    4.5099    0.1681 B   0  0  1  0  0  0  0  0  0  0  0  0
    0.3236    5.6764    0.4700 H   0  0  0  0  0  0  0  0  0  0  0  0
  1  3  1  0  0  0  0
  1 23  1  0  0  0  0
  2  4  1  0  0  0  0
  2 43  1  0  0  0  0
  5  3  1  1  0  0  0
  6  4  1  1  0  0  0
  7  8  1  0  0  0  0
  9  7  1  0  0  0  0
 10  7  1  0  0  0  0
 11 13  1  0  0  0  0
 11  7  1  0  0  0  0
 11 12  1  0  0  0  0
 14 11  1  0  0  0  0
 15 14  2  0  0  0  0
 15 16  1  0  0  0  0
 16 19  1  0  0  0  0
 16 17  1  0  0  0  0
 18 16  1  0  0  0  0
 19 20  1  0  0  0  0
 19 21  1  0  0  0  0
 22 19  1  0  0  0  0
 23 29  1  0  0  0  0
 23 24  1  0  0  0  0
 25 23  1  0  0  0  0
 25 27  1  0  0  0  0
 26 25  1  0  0  0  0
 28 25  1  0  0  0  0
 29 30  1  0  0  0  0
 29 31  1  0  0  0  0
 32 29  1  0  0  0  0
 33 39  1  0  0  0  0
 33  1  1  0  0  0  0
 34 33  1  0  0  0  0
 35 36  1  0  0  0  0
 35 38  1  0  0  0  0
 35 33  1  0  0  0  0
 37 35  1  0  0  0  0
 39 42  1  0  0  0  0
 39 40  1  0  0  0  0
 41 39  1  0  0  0  0
 43 49  1  0  0  0  0
 43 44  1  0  0  0  0
 45 43  1  0  0  0  0
 45 47  1  0  0  0  0
 46 45  1  0  0  0  0
 48 45  1  0  0  0  0
 49 52  1  0  0  0  0
 49 51  1  0  0  0  0
 50 49  1  0  0  0  0
 53  2  1  0  0  0  0
 54 53  1  0  0  0  0
 55 58  1  0  0  0  0
 55 56  1  0  0  0  0
 55 53  1  0  0  0  0
 57 55  1  0  0  0  0
 59 53  1  0  0  0  0
 59 62  1  0  0  0  0
 59 60  1  0  0  0  0
 61 59  1  0  0  0  0
 63  6  1  0  0  0  0
 63  5  1  0  0  0  0
 64 77  1  0  0  0  0
 64 14  1  0  0  0  0
 65 66  1  6  0  0  0
 65 67  1  0  0  0  0
 65 73  1  0  0  0  0
 65  6  1  0  0  0  0
 67 68  1  6  0  0  0
 67 73  1  0  0  0  0
 67  5  1  0  0  0  0
 69 64  1  0  0  0  0
 69 70  1  1  0  0  0
 71  6  1  0  0  0  0
 71 69  1  0  0  0  0
 72 71  1  0  0  0  0
 74 73  1  0  0  0  0
 75 76  1  6  0  0  0
 75  5  1  0  0  0  0
 75 79  1  0  0  0  0
 75 77  1  0  0  0  0
 77 78  1  1  0  0  0
 79 80  1  1  0  0  0
 79 69  1  0  0  0  0
 79 77  1  0  0  0  0
M  END
