1,2,35
 OpenBabel05122313063D

 67 72  0  0  0  0  0  0  0  0999 V2000
    2.2852   -0.0630    0.0250 P   0  0  0  0  0  0  0  0  0  0  0  0
    0.0001    1.6461   -0.0015 C   0  0  0  0  0  2  0  0  0  0  0  0
    2.3950    4.3288   -1.3820 C   0  0  0  0  0  0  0  0  0  0  0  0
    2.3553    5.3443   -1.8050 H   0  0  0  0  0  0  0  0  0  0  0  0
    4.5515    0.2742    3.4924 C   0  0  0  0  0  0  0  0  0  0  0  0
    5.1584    1.0329    4.0099 H   0  0  0  0  0  0  0  0  0  0  0  0
    3.6220    3.6535   -1.2985 C   0  0  0  0  0  0  0  0  0  0  0  0
    4.5487    4.1387   -1.6401 H   0  0  0  0  0  0  0  0  0  0  0  0
    4.6774   -1.2128   -1.0182 C   0  0  0  0  0  0  0  0  0  0  0  0
    5.1584   -0.9376   -0.0667 H   0  0  0  0  0  0  0  0  0  0  0  0
    2.6857   -1.3229   -2.4244 C   0  0  0  0  0  0  0  0  0  0  0  0
    1.6088   -1.1278   -2.5524 H   0  0  0  0  0  0  0  0  0  0  0  0
    3.4314   -1.9616   -3.4249 C   0  0  0  0  0  0  0  0  0  0  0  0
    2.9403   -2.2659   -4.3617 H   0  0  0  0  0  0  0  0  0  0  0  0
    1.2095    3.7152   -0.9488 C   0  0  0  0  0  0  0  0  0  0  0  0
    0.2560    4.2475   -1.0694 H   0  0  0  0  0  0  0  0  0  0  0  0
    4.3975   -1.0044    4.0495 C   0  0  0  0  0  0  0  0  0  0  0  0
    4.8856   -1.2510    5.0048 H   0  0  0  0  0  0  0  0  0  0  0  0
    1.2177    2.4020   -0.4159 C   0  0  0  0  0  0  0  0  0  0  0  0
    2.9829   -1.6561    2.1789 C   0  0  0  0  0  0  0  0  0  0  0  0
    2.3421   -2.3951    1.6694 H   0  0  0  0  0  0  0  0  0  0  0  0
    3.1518   -0.3741    1.6098 C   0  0  0  0  0  0  0  0  0  0  0  0
    3.9307    0.5926    2.2732 C   0  0  0  0  0  0  0  0  0  0  0  0
    4.0471    1.5977    1.8405 H   0  0  0  0  0  0  0  0  0  0  0  0
    3.6116   -1.9669    3.3917 C   0  0  0  0  0  0  0  0  0  0  0  0
    3.4796   -2.9668    3.8326 H   0  0  0  0  0  0  0  0  0  0  0  0
    4.7970   -2.2255   -3.2270 C   0  0  0  0  0  0  0  0  0  0  0  0
    5.3789   -2.7334   -4.0114 H   0  0  0  0  0  0  0  0  0  0  0  0
    3.3105   -0.9373   -1.2213 C   0  0  0  0  0  0  0  0  0  0  0  0
    5.4177   -1.8538   -2.0234 C   0  0  0  0  0  0  0  0  0  0  0  0
    6.4848   -2.0706   -1.8624 H   0  0  0  0  0  0  0  0  0  0  0  0
    3.6521    2.3324   -0.8168 C   0  0  0  0  0  0  0  0  0  0  0  0
    4.5973    1.7673   -0.8090 H   0  0  0  0  0  0  0  0  0  0  0  0
    2.4689    1.7175   -0.3918 C   0  0  0  0  0  0  0  0  0  0  0  0
   -2.2851   -0.0630   -0.0250 P   0  0  0  0  0  0  0  0  0  0  0  0
   -2.3947    4.3312    1.3747 C   0  0  0  0  0  0  0  0  0  0  0  0
   -2.3549    5.3474    1.7960 H   0  0  0  0  0  0  0  0  0  0  0  0
   -4.5526    0.2680   -3.4922 C   0  0  0  0  0  0  0  0  0  0  0  0
   -5.1599    1.0257   -4.0108 H   0  0  0  0  0  0  0  0  0  0  0  0
   -3.6217    3.6558    1.2925 C   0  0  0  0  0  0  0  0  0  0  0  0
   -4.5484    4.1415    1.6334 H   0  0  0  0  0  0  0  0  0  0  0  0
   -4.6773   -1.2107    1.0206 C   0  0  0  0  0  0  0  0  0  0  0  0
   -5.1585   -0.9370    0.0688 H   0  0  0  0  0  0  0  0  0  0  0  0
   -2.6853   -1.3189    2.4266 C   0  0  0  0  0  0  0  0  0  0  0  0
   -1.6084   -1.1238    2.5540 H   0  0  0  0  0  0  0  0  0  0  0  0
   -3.4309   -1.9559    3.4283 C   0  0  0  0  0  0  0  0  0  0  0  0
   -2.9396   -2.2587    4.3654 H   0  0  0  0  0  0  0  0  0  0  0  0
   -1.2093    3.7169    0.9424 C   0  0  0  0  0  0  0  0  0  0  0  0
   -0.2557    4.2492    1.0620 H   0  0  0  0  0  0  0  0  0  0  0  0
   -4.3984   -1.0115   -4.0473 C   0  0  0  0  0  0  0  0  0  0  0  0
   -4.8867   -1.2598   -5.0021 H   0  0  0  0  0  0  0  0  0  0  0  0
   -1.2175    2.4028    0.4117 C   0  0  0  0  0  0  0  0  0  0  0  0
   -2.9830   -1.6597   -2.1761 C   0  0  0  0  0  0  0  0  0  0  0  0
   -2.3418   -2.3977   -1.6656 H   0  0  0  0  0  0  0  0  0  0  0  0
   -3.1521   -0.3769   -1.6091 C   0  0  0  0  0  0  0  0  0  0  0  0
   -3.9315    0.5886   -2.2737 C   0  0  0  0  0  0  0  0  0  0  0  0
   -4.0480    1.5943   -1.8426 H   0  0  0  0  0  0  0  0  0  0  0  0
   -3.6120   -1.9727   -3.3882 C   0  0  0  0  0  0  0  0  0  0  0  0
   -3.4798   -2.9732   -3.8275 H   0  0  0  0  0  0  0  0  0  0  0  0
   -4.7965   -2.2199    3.2311 C   0  0  0  0  0  0  0  0  0  0  0  0
   -5.3783   -2.7265    4.0164 H   0  0  0  0  0  0  0  0  0  0  0  0
   -3.3103   -0.9351    1.2230 C   0  0  0  0  0  0  0  0  0  0  0  0
   -5.4174   -1.8501    2.0270 C   0  0  0  0  0  0  0  0  0  0  0  0
   -6.4847   -2.0670    1.8666 H   0  0  0  0  0  0  0  0  0  0  0  0
   -3.6519    2.3338    0.8129 C   0  0  0  0  0  0  0  0  0  0  0  0
   -4.5971    1.7688    0.8062 H   0  0  0  0  0  0  0  0  0  0  0  0
   -2.4688    1.7183    0.3889 C   0  0  0  0  0  0  0  0  0  0  0  0
  1 22  1  0  0  0  0
  2 52  1  0  0  0  0
  3  7  2  0  0  0  0
  3 15  1  0  0  0  0
  4  3  1  0  0  0  0
  5  6  1  0  0  0  0
  5 17  1  0  0  0  0
  7 32  1  0  0  0  0
  8  7  1  0  0  0  0
  9 10  1  0  0  0  0
 11 29  2  0  0  0  0
 12 11  1  0  0  0  0
 13 27  2  0  0  0  0
 13 11  1  0  0  0  0
 14 13  1  0  0  0  0
 15 19  2  0  0  0  0
 16 15  1  0  0  0  0
 17 18  1  0  0  0  0
 19 34  1  0  0  0  0
 19  2  1  0  0  0  0
 20 25  1  0  0  0  0
 21 20  1  0  0  0  0
 22 20  2  0  0  0  0
 22 23  1  0  0  0  0
 23  5  2  0  0  0  0
 24 23  1  0  0  0  0
 25 26  1  0  0  0  0
 25 17  2  0  0  0  0
 27 30  1  0  0  0  0
 28 27  1  0  0  0  0
 29  9  1  0  0  0  0
 29  1  1  0  0  0  0
 30 31  1  0  0  0  0
 30  9  2  0  0  0  0
 32 33  1  0  0  0  0
 32 34  2  0  0  0  0
 34  1  1  0  0  0  0
 35 67  1  0  0  0  0
 35 62  1  0  0  0  0
 36 37  1  0  0  0  0
 38 56  1  0  0  0  0
 39 38  1  0  0  0  0
 40 36  1  0  0  0  0
 40 41  1  0  0  0  0
 42 62  2  0  0  0  0
 42 63  1  0  0  0  0
 43 42  1  0  0  0  0
 44 45  1  0  0  0  0
 44 46  2  0  0  0  0
 46 47  1  0  0  0  0
 48 49  1  0  0  0  0
 48 36  2  0  0  0  0
 50 38  2  0  0  0  0
 50 58  1  0  0  0  0
 51 50  1  0  0  0  0
 52 48  1  0  0  0  0
 53 54  1  0  0  0  0
 53 55  1  0  0  0  0
 55 35  1  0  0  0  0
 56 57  1  0  0  0  0
 56 55  2  0  0  0  0
 58 53  2  0  0  0  0
 59 58  1  0  0  0  0
 60 46  1  0  0  0  0
 60 61  1  0  0  0  0
 62 44  1  0  0  0  0
 63 60  2  0  0  0  0
 64 63  1  0  0  0  0
 65 40  2  0  0  0  0
 66 65  1  0  0  0  0
 67 52  2  0  0  0  0
 67 65  1  0  0  0  0
M  END
