1,2,5
 OpenBabel05122313063D

 73 74  0  0  0  0  0  0  0  0999 V2000
   -2.3154   -0.4616   -0.0760 P   0  0  0  0  0  0  0  0  0  0  0  0
    2.3225   -0.4479    0.0090 P   0  0  0  0  0  0  0  0  0  0  0  0
   -1.0976    1.9685   -0.1571 N   0  0  0  0  0  0  0  0  0  0  0  0
    1.0865    1.9741    0.1415 N   0  0  0  0  0  0  0  0  0  0  0  0
   -0.0038    1.1599   -0.0040 C   0  0  0  0  0  2  0  0  0  0  0  0
   -0.7141    3.3129   -0.1008 C   0  0  0  0  0  0  0  0  0  0  0  0
    0.6940    3.3165    0.1000 C   0  0  0  0  0  0  0  0  0  0  0  0
    1.4125    4.5127    0.2161 C   0  0  0  0  0  0  0  0  0  0  0  0
    2.4994    4.5195    0.3786 H   0  0  0  0  0  0  0  0  0  0  0  0
    0.6807    5.7064    0.1159 C   0  0  0  0  0  0  0  0  0  0  0  0
    1.2090    6.6670    0.1997 H   0  0  0  0  0  0  0  0  0  0  0  0
   -0.7163    5.7030   -0.0896 C   0  0  0  0  0  0  0  0  0  0  0  0
   -1.2506    6.6610   -0.1642 H   0  0  0  0  0  0  0  0  0  0  0  0
   -1.4406    4.5057   -0.2015 C   0  0  0  0  0  0  0  0  0  0  0  0
   -2.5276    4.5072   -0.3634 H   0  0  0  0  0  0  0  0  0  0  0  0
   -2.4139    1.4034   -0.4052 C   0  0  0  0  0  0  0  0  0  0  0  0
   -2.7070    1.5701   -1.4622 H   0  0  0  0  0  0  0  0  0  0  0  0
   -3.1742    1.8905    0.2385 H   0  0  0  0  0  0  0  0  0  0  0  0
    2.4106    1.4160    0.3600 C   0  0  0  0  0  0  0  0  0  0  0  0
    2.7226    1.5765    1.4120 H   0  0  0  0  0  0  0  0  0  0  0  0
    3.1543    1.9160   -0.2924 H   0  0  0  0  0  0  0  0  0  0  0  0
   -3.3555   -1.2271   -1.4635 C   0  0  0  0  0  0  0  0  0  0  0  0
   -3.6027   -2.7085   -1.1242 C   0  0  0  0  0  0  0  0  0  0  0  0
   -4.3453   -2.8298   -0.3126 H   0  0  0  0  0  0  0  0  0  0  0  0
   -4.0130   -3.2145   -2.0224 H   0  0  0  0  0  0  0  0  0  0  0  0
   -2.6645   -3.2254   -0.8370 H   0  0  0  0  0  0  0  0  0  0  0  0
   -2.4839   -1.1419   -2.7330 C   0  0  0  0  0  0  0  0  0  0  0  0
   -1.5648   -1.7505   -2.6280 H   0  0  0  0  0  0  0  0  0  0  0  0
   -3.0635   -1.5399   -3.5914 H   0  0  0  0  0  0  0  0  0  0  0  0
   -2.1950   -0.1011   -2.9886 H   0  0  0  0  0  0  0  0  0  0  0  0
   -4.6847   -0.4868   -1.6920 C   0  0  0  0  0  0  0  0  0  0  0  0
   -5.3442   -0.5061   -0.8055 H   0  0  0  0  0  0  0  0  0  0  0  0
   -4.5421    0.5686   -1.9994 H   0  0  0  0  0  0  0  0  0  0  0  0
   -5.2294   -0.9887   -2.5186 H   0  0  0  0  0  0  0  0  0  0  0  0
   -3.0368   -0.6568    1.6764 C   0  0  0  0  0  0  0  0  0  0  0  0
   -2.8618   -2.1182    2.1321 C   0  0  0  0  0  0  0  0  0  0  0  0
   -1.8355   -2.4952    1.9509 H   0  0  0  0  0  0  0  0  0  0  0  0
   -3.0724   -2.1777    3.2199 H   0  0  0  0  0  0  0  0  0  0  0  0
   -3.5624   -2.8032    1.6219 H   0  0  0  0  0  0  0  0  0  0  0  0
   -4.5095   -0.2344    1.7766 C   0  0  0  0  0  0  0  0  0  0  0  0
   -4.6928    0.7971    1.4130 H   0  0  0  0  0  0  0  0  0  0  0  0
   -5.1770   -0.9241    1.2264 H   0  0  0  0  0  0  0  0  0  0  0  0
   -4.8191   -0.2626    2.8422 H   0  0  0  0  0  0  0  0  0  0  0  0
   -2.1657    0.2464    2.5762 C   0  0  0  0  0  0  0  0  0  0  0  0
   -1.0964   -0.0510    2.5501 H   0  0  0  0  0  0  0  0  0  0  0  0
   -2.2325    1.3219    2.3166 H   0  0  0  0  0  0  0  0  0  0  0  0
   -2.5111    0.1404    3.6252 H   0  0  0  0  0  0  0  0  0  0  0  0
    3.2439   -0.6737   -1.6350 C   0  0  0  0  0  0  0  0  0  0  0  0
    2.9878   -2.1106   -2.1289 C   0  0  0  0  0  0  0  0  0  0  0  0
    3.4874   -2.8683   -1.4988 H   0  0  0  0  0  0  0  0  0  0  0  0
    1.9073   -2.3535   -2.1484 H   0  0  0  0  0  0  0  0  0  0  0  0
    3.3904   -2.2116   -3.1578 H   0  0  0  0  0  0  0  0  0  0  0  0
    4.7497   -0.3964   -1.5075 C   0  0  0  0  0  0  0  0  0  0  0  0
    5.2584   -1.1450   -0.8711 H   0  0  0  0  0  0  0  0  0  0  0  0
    5.2132   -0.4536   -2.5143 H   0  0  0  0  0  0  0  0  0  0  0  0
    4.9677    0.6140   -1.1053 H   0  0  0  0  0  0  0  0  0  0  0  0
    2.6134    0.3166   -2.6344 C   0  0  0  0  0  0  0  0  0  0  0  0
    1.5243    0.1472   -2.7539 H   0  0  0  0  0  0  0  0  0  0  0  0
    2.7735    1.3784   -2.3600 H   0  0  0  0  0  0  0  0  0  0  0  0
    3.0834    0.1629   -3.6273 H   0  0  0  0  0  0  0  0  0  0  0  0
    3.1668   -1.2227    1.5238 C   0  0  0  0  0  0  0  0  0  0  0  0
    3.4437   -2.7081    1.2302 C   0  0  0  0  0  0  0  0  0  0  0  0
    4.2758   -2.8404    0.5122 H   0  0  0  0  0  0  0  0  0  0  0  0
    3.7444   -3.2058    2.1754 H   0  0  0  0  0  0  0  0  0  0  0  0
    2.5416   -3.2241    0.8437 H   0  0  0  0  0  0  0  0  0  0  0  0
    2.1058   -1.1155    2.6406 C   0  0  0  0  0  0  0  0  0  0  0  0
    1.8066   -0.0673    2.8516 H   0  0  0  0  0  0  0  0  0  0  0  0
    1.2015   -1.7074    2.3884 H   0  0  0  0  0  0  0  0  0  0  0  0
    2.5237   -1.5307    3.5813 H   0  0  0  0  0  0  0  0  0  0  0  0
    4.4579   -0.5062    1.9519 C   0  0  0  0  0  0  0  0  0  0  0  0
    5.2425   -0.5372    1.1743 H   0  0  0  0  0  0  0  0  0  0  0  0
    4.2928    0.5511    2.2405 H   0  0  0  0  0  0  0  0  0  0  0  0
    4.8631   -1.0198    2.8488 H   0  0  0  0  0  0  0  0  0  0  0  0
  1 35  1  0  0  0  0
  2 19  1  0  0  0  0
  2 61  1  0  0  0  0
  3  6  1  0  0  0  0
  3  5  1  0  0  0  0
  4 19  1  0  0  0  0
  5  4  1  0  0  0  0
  6  7  1  0  0  0  0
  7  4  1  0  0  0  0
  7  8  2  0  0  0  0
  8  9  1  0  0  0  0
 10 11  1  0  0  0  0
 10  8  1  0  0  0  0
 12 10  2  0  0  0  0
 13 12  1  0  0  0  0
 14  6  2  0  0  0  0
 14 12  1  0  0  0  0
 15 14  1  0  0  0  0
 16  3  1  0  0  0  0
 16  1  1  0  0  0  0
 16 18  1  0  0  0  0
 17 16  1  0  0  0  0
 19 20  1  0  0  0  0
 21 19  1  0  0  0  0
 22 23  1  0  0  0  0
 22  1  1  0  0  0  0
 23 26  1  0  0  0  0
 23 24  1  0  0  0  0
 25 23  1  0  0  0  0
 27 28  1  0  0  0  0
 27 22  1  0  0  0  0
 29 27  1  0  0  0  0
 30 27  1  0  0  0  0
 31 22  1  0  0  0  0
 31 32  1  0  0  0  0
 33 31  1  0  0  0  0
 34 31  1  0  0  0  0
 35 40  1  0  0  0  0
 35 36  1  0  0  0  0
 35 44  1  0  0  0  0
 36 38  1  0  0  0  0
 37 36  1  0  0  0  0
 39 36  1  0  0  0  0
 40 43  1  0  0  0  0
 41 40  1  0  0  0  0
 42 40  1  0  0  0  0
 44 47  1  0  0  0  0
 45 44  1  0  0  0  0
 46 44  1  0  0  0  0
 48 53  1  0  0  0  0
 48  2  1  0  0  0  0
 49 48  1  0  0  0  0
 49 50  1  0  0  0  0
 51 49  1  0  0  0  0
 52 49  1  0  0  0  0
 53 56  1  0  0  0  0
 53 54  1  0  0  0  0
 55 53  1  0  0  0  0
 57 59  1  0  0  0  0
 57 48  1  0  0  0  0
 58 57  1  0  0  0  0
 60 57  1  0  0  0  0
 61 70  1  0  0  0  0
 61 66  1  0  0  0  0
 62 61  1  0  0  0  0
 62 64  1  0  0  0  0
 63 62  1  0  0  0  0
 65 62  1  0  0  0  0
 66 67  1  0  0  0  0
 66 69  1  0  0  0  0
 68 66  1  0  0  0  0
 70 72  1  0  0  0  0
 70 73  1  0  0  0  0
 71 70  1  0  0  0  0
M  END
