1,2,6
 OpenBabel05122313063D

 57 61  0  0  0  0  0  0  0  0999 V2000
    2.2960   -0.2068    0.5150 P   0  0  0  0  0  0  0  0  0  0  0  0
   -2.1951   -0.2223    0.4033 P   0  0  0  0  0  0  0  0  0  0  0  0
   -1.0543    0.4360    2.7057 N   0  0  0  0  0  0  0  0  0  0  0  0
   -0.6957    1.0464    3.8736 N   0  0  0  0  0  0  0  0  0  0  0  0
    0.6211    1.0368    3.9217 N   0  0  0  0  0  0  0  0  0  0  0  0
    0.0376    0.0248    1.9968 C   0  0  0  0  0  3  0  0  0  0  0  0
    1.1083    0.4205    2.8016 C   0  0  0  0  0  0  0  0  0  0  0  0
    2.5137    0.1615    2.3432 C   0  0  0  0  0  0  0  0  0  0  0  0
    2.9633   -0.7418    2.8092 H   0  0  0  0  0  0  0  0  0  0  0  0
    3.2116    1.0070    2.5116 H   0  0  0  0  0  0  0  0  0  0  0  0
   -2.4053    0.2067    2.2390 C   0  0  0  0  0  0  0  0  0  0  0  0
   -3.0340    1.1060    2.3885 H   0  0  0  0  0  0  0  0  0  0  0  0
   -2.8694   -0.6584    2.7590 H   0  0  0  0  0  0  0  0  0  0  0  0
    3.7293   -1.1856   -0.0488 C   0  0  0  0  0  0  0  0  0  0  0  0
    5.0298   -0.9131    0.4261 C   0  0  0  0  0  0  0  0  0  0  0  0
    5.2010   -0.0966    1.1447 H   0  0  0  0  0  0  0  0  0  0  0  0
    6.1102   -1.6835   -0.0249 C   0  0  0  0  0  0  0  0  0  0  0  0
    7.1244   -1.4747    0.3483 H   0  0  0  0  0  0  0  0  0  0  0  0
    5.8986   -2.7170   -0.9539 C   0  0  0  0  0  0  0  0  0  0  0  0
    6.7501   -3.3188   -1.3067 H   0  0  0  0  0  0  0  0  0  0  0  0
    4.6059   -2.9810   -1.4318 C   0  0  0  0  0  0  0  0  0  0  0  0
    4.4403   -3.7879   -2.1616 H   0  0  0  0  0  0  0  0  0  0  0  0
    3.5142   -2.2222   -0.9800 C   0  0  0  0  0  0  0  0  0  0  0  0
    2.4931   -2.4107   -1.3553 H   0  0  0  0  0  0  0  0  0  0  0  0
    2.4260    1.4164   -0.3330 C   0  0  0  0  0  0  0  0  0  0  0  0
    2.2403    2.6335    0.3545 C   0  0  0  0  0  0  0  0  0  0  0  0
    2.0863    2.6457    1.4437 H   0  0  0  0  0  0  0  0  0  0  0  0
    2.2214    3.8434   -0.3581 C   0  0  0  0  0  0  0  0  0  0  0  0
    2.0798    4.7898    0.1858 H   0  0  0  0  0  0  0  0  0  0  0  0
    2.3775    3.8462   -1.7531 C   0  0  0  0  0  0  0  0  0  0  0  0
    2.3608    4.7963   -2.3085 H   0  0  0  0  0  0  0  0  0  0  0  0
    2.5481    2.6319   -2.4396 C   0  0  0  0  0  0  0  0  0  0  0  0
    2.6574    2.6264   -3.5345 H   0  0  0  0  0  0  0  0  0  0  0  0
    2.5680    1.4200   -1.7371 C   0  0  0  0  0  0  0  0  0  0  0  0
    2.6644    0.4677   -2.2806 H   0  0  0  0  0  0  0  0  0  0  0  0
   -2.5253    1.3661   -0.4576 C   0  0  0  0  0  0  0  0  0  0  0  0
   -3.7957    1.6885   -0.9749 C   0  0  0  0  0  0  0  0  0  0  0  0
   -4.6251    0.9699   -0.8926 H   0  0  0  0  0  0  0  0  0  0  0  0
   -3.9982    2.9243   -1.6082 C   0  0  0  0  0  0  0  0  0  0  0  0
   -4.9906    3.1699   -2.0157 H   0  0  0  0  0  0  0  0  0  0  0  0
   -2.9404    3.8397   -1.7288 C   0  0  0  0  0  0  0  0  0  0  0  0
   -3.1037    4.8053   -2.2313 H   0  0  0  0  0  0  0  0  0  0  0  0
   -1.6720    3.5163   -1.2205 C   0  0  0  0  0  0  0  0  0  0  0  0
   -0.8304    4.2177   -1.3240 H   0  0  0  0  0  0  0  0  0  0  0  0
   -1.4597    2.2815   -0.5930 C   0  0  0  0  0  0  0  0  0  0  0  0
   -0.4573    2.0169   -0.2216 H   0  0  0  0  0  0  0  0  0  0  0  0
   -3.5774   -1.3322   -0.0162 C   0  0  0  0  0  0  0  0  0  0  0  0
   -4.8149   -1.3092    0.6618 C   0  0  0  0  0  0  0  0  0  0  0  0
   -4.9874   -0.6097    1.4944 H   0  0  0  0  0  0  0  0  0  0  0  0
   -5.8410   -2.1814    0.2689 C   0  0  0  0  0  0  0  0  0  0  0  0
   -6.8048   -2.1655    0.8000 H   0  0  0  0  0  0  0  0  0  0  0  0
   -5.6378   -3.0702   -0.7996 C   0  0  0  0  0  0  0  0  0  0  0  0
   -6.4451   -3.7535   -1.1045 H   0  0  0  0  0  0  0  0  0  0  0  0
   -4.4065   -3.0915   -1.4744 C   0  0  0  0  0  0  0  0  0  0  0  0
   -4.2449   -3.7921   -2.3075 H   0  0  0  0  0  0  0  0  0  0  0  0
   -3.3704   -2.2293   -1.0864 C   0  0  0  0  0  0  0  0  0  0  0  0
   -2.3918   -2.2465   -1.5990 H   0  0  0  0  0  0  0  0  0  0  0  0
  1  8  1  0  0  0  0
  2 11  1  0  0  0  0
  3  4  1  0  0  0  0
  4  5  2  0  0  0  0
  6  3  1  0  0  0  0
  6  7  2  0  0  0  0
  7  5  1  0  0  0  0
  8 10  1  0  0  0  0
  8  7  1  0  0  0  0
  8  9  1  0  0  0  0
 11 12  1  0  0  0  0
 11  3  1  0  0  0  0
 11 13  1  0  0  0  0
 14 15  1  0  0  0  0
 14  1  1  0  0  0  0
 15 16  1  0  0  0  0
 17 18  1  0  0  0  0
 17 15  2  0  0  0  0
 19 17  1  0  0  0  0
 20 19  1  0  0  0  0
 21 23  1  0  0  0  0
 21 19  2  0  0  0  0
 22 21  1  0  0  0  0
 23 14  2  0  0  0  0
 24 23  1  0  0  0  0
 25 26  1  0  0  0  0
 25  1  1  0  0  0  0
 26 27  1  0  0  0  0
 28 29  1  0  0  0  0
 28 26  2  0  0  0  0
 30 28  1  0  0  0  0
 31 30  1  0  0  0  0
 32 30  2  0  0  0  0
 32 34  1  0  0  0  0
 33 32  1  0  0  0  0
 34 25  2  0  0  0  0
 35 34  1  0  0  0  0
 36  2  1  0  0  0  0
 37 38  1  0  0  0  0
 37 36  2  0  0  0  0
 39 37  1  0  0  0  0
 40 39  1  0  0  0  0
 41 39  2  0  0  0  0
 41 43  1  0  0  0  0
 42 41  1  0  0  0  0
 43 45  2  0  0  0  0
 44 43  1  0  0  0  0
 45 36  1  0  0  0  0
 45 46  1  0  0  0  0
 47  2  1  0  0  0  0
 47 48  1  0  0  0  0
 48 49  1  0  0  0  0
 50 48  2  0  0  0  0
 50 51  1  0  0  0  0
 52 50  1  0  0  0  0
 53 52  1  0  0  0  0
 54 56  1  0  0  0  0
 54 52  2  0  0  0  0
 55 54  1  0  0  0  0
 56 47  2  0  0  0  0
 57 56  1  0  0  0  0
M  END
