1,2,3
 OpenBabel05122313063D

 68 68  0  0  0  0  0  0  0  0999 V2000
   -2.3547   -0.0291   -0.0277 P   0  0  0  0  0  0  0  0  0  0  0  0
    2.3935    0.0818    0.0798 P   0  0  0  0  0  0  0  0  0  0  0  0
   -0.0523    1.6369   -0.4622 C   0  0  0  0  0  3  0  0  0  0  0  0
   -1.2861    2.3627   -0.6822 C   0  0  0  0  0  0  0  0  0  0  0  0
   -1.3373    3.7526   -0.7265 C   0  0  0  0  0  0  0  0  0  0  0  0
   -2.2943    4.2675   -0.9011 H   0  0  0  0  0  0  0  0  0  0  0  0
   -0.1361    4.5064   -0.5882 C   0  0  0  0  0  0  0  0  0  0  0  0
   -0.1818    5.6064   -0.6323 H   0  0  0  0  0  0  0  0  0  0  0  0
    1.0796    3.8797   -0.4164 C   0  0  0  0  0  0  0  0  0  0  0  0
    2.0019    4.4746   -0.3264 H   0  0  0  0  0  0  0  0  0  0  0  0
    1.1830    2.4408   -0.3390 C   0  0  0  0  0  0  0  0  0  0  0  0
   -2.5485    1.5705   -0.9282 C   0  0  0  0  0  0  0  0  0  0  0  0
   -2.6184    1.3054   -2.0034 H   0  0  0  0  0  0  0  0  0  0  0  0
   -3.4672    2.1285   -0.6624 H   0  0  0  0  0  0  0  0  0  0  0  0
    2.4317    1.8301   -0.1570 C   0  0  0  0  0  3  0  0  0  0  0  0
    3.3601    2.4189   -0.1665 H   0  0  0  0  0  0  0  0  0  0  0  0
   -2.8667    0.3387    1.7834 C   0  0  0  0  0  0  0  0  0  0  0  0
   -1.6879    1.0703    2.4528 C   0  0  0  0  0  0  0  0  0  0  0  0
   -0.7832    0.4372    2.4851 H   0  0  0  0  0  0  0  0  0  0  0  0
   -1.9741    1.3090    3.4992 H   0  0  0  0  0  0  0  0  0  0  0  0
   -1.4303    2.0151    1.9379 H   0  0  0  0  0  0  0  0  0  0  0  0
   -3.1346   -0.9726    2.5419 C   0  0  0  0  0  0  0  0  0  0  0  0
   -4.0430   -1.4940    2.1838 H   0  0  0  0  0  0  0  0  0  0  0  0
   -3.2957   -0.7302    3.6137 H   0  0  0  0  0  0  0  0  0  0  0  0
   -2.2700   -1.6611    2.4711 H   0  0  0  0  0  0  0  0  0  0  0  0
   -4.1007    1.2577    1.8370 C   0  0  0  0  0  0  0  0  0  0  0  0
   -3.8844    2.2627    1.4257 H   0  0  0  0  0  0  0  0  0  0  0  0
   -4.3814    1.3973    2.9024 H   0  0  0  0  0  0  0  0  0  0  0  0
   -4.9822    0.8430    1.3151 H   0  0  0  0  0  0  0  0  0  0  0  0
   -3.5139   -1.2973   -0.8738 C   0  0  0  0  0  0  0  0  0  0  0  0
   -3.1096   -2.7147   -0.4290 C   0  0  0  0  0  0  0  0  0  0  0  0
   -2.0559   -2.9337   -0.6877 H   0  0  0  0  0  0  0  0  0  0  0  0
   -3.7572   -3.4504   -0.9512 H   0  0  0  0  0  0  0  0  0  0  0  0
   -3.2224   -2.8728    0.6583 H   0  0  0  0  0  0  0  0  0  0  0  0
   -4.9945   -1.0248   -0.5585 C   0  0  0  0  0  0  0  0  0  0  0  0
   -5.2402   -1.1833    0.5084 H   0  0  0  0  0  0  0  0  0  0  0  0
   -5.6187   -1.7295   -1.1482 H   0  0  0  0  0  0  0  0  0  0  0  0
   -5.3005    0.0021   -0.8430 H   0  0  0  0  0  0  0  0  0  0  0  0
   -3.3047   -1.1833   -2.3963 C   0  0  0  0  0  0  0  0  0  0  0  0
   -3.7220   -0.2444   -2.8099 H   0  0  0  0  0  0  0  0  0  0  0  0
   -3.8431   -2.0227   -2.8842 H   0  0  0  0  0  0  0  0  0  0  0  0
   -2.2375   -1.2561   -2.6832 H   0  0  0  0  0  0  0  0  0  0  0  0
    3.4779   -0.7861   -1.2529 C   0  0  0  0  0  0  0  0  0  0  0  0
    3.1391   -0.1149   -2.5959 C   0  0  0  0  0  0  0  0  0  0  0  0
    2.0706   -0.2237   -2.8606 H   0  0  0  0  0  0  0  0  0  0  0  0
    3.7386   -0.5984   -3.3964 H   0  0  0  0  0  0  0  0  0  0  0  0
    3.3811    0.9655   -2.5801 H   0  0  0  0  0  0  0  0  0  0  0  0
    4.9768   -0.5842   -0.9748 C   0  0  0  0  0  0  0  0  0  0  0  0
    5.2405    0.4878   -0.8764 H   0  0  0  0  0  0  0  0  0  0  0  0
    5.5529   -0.9879   -1.8349 H   0  0  0  0  0  0  0  0  0  0  0  0
    5.3197   -1.1196   -0.0695 H   0  0  0  0  0  0  0  0  0  0  0  0
    3.1380   -2.2854   -1.3128 C   0  0  0  0  0  0  0  0  0  0  0  0
    3.3164   -2.8017   -0.3515 H   0  0  0  0  0  0  0  0  0  0  0  0
    3.7756   -2.7713   -2.0824 H   0  0  0  0  0  0  0  0  0  0  0  0
    2.0809   -2.4495   -1.5969 H   0  0  0  0  0  0  0  0  0  0  0  0
    3.0789   -0.2215    1.8524 C   0  0  0  0  0  0  0  0  0  0  0  0
    4.3338    0.6426    2.0794 C   0  0  0  0  0  0  0  0  0  0  0  0
    5.1842    0.3597    1.4339 H   0  0  0  0  0  0  0  0  0  0  0  0
    4.6593    0.5120    3.1336 H   0  0  0  0  0  0  0  0  0  0  0  0
    4.1156    1.7172    1.9264 H   0  0  0  0  0  0  0  0  0  0  0  0
    3.3834   -1.7005    2.1275 C   0  0  0  0  0  0  0  0  0  0  0  0
    2.5004   -2.3381    1.9302 H   0  0  0  0  0  0  0  0  0  0  0  0
    3.6567   -1.8172    3.1984 H   0  0  0  0  0  0  0  0  0  0  0  0
    4.2403   -2.0703    1.5314 H   0  0  0  0  0  0  0  0  0  0  0  0
    1.9825    0.2838    2.8089 C   0  0  0  0  0  0  0  0  0  0  0  0
    1.6476    1.3045    2.5316 H   0  0  0  0  0  0  0  0  0  0  0  0
    2.3925    0.3284    3.8402 H   0  0  0  0  0  0  0  0  0  0  0  0
    1.1133   -0.3985    2.8135 H   0  0  0  0  0  0  0  0  0  0  0  0
  1 17  1  0  0  0  0
  2 56  1  0  0  0  0
  3 11  1  0  0  0  0
  4  3  2  0  0  0  0
  5  4  1  0  0  0  0
  5  7  2  0  0  0  0
  6  5  1  0  0  0  0
  7  9  1  0  0  0  0
  8  7  1  0  0  0  0
  9 11  2  0  0  0  0
  9 10  1  0  0  0  0
 11 15  1  0  0  0  0
 12  4  1  0  0  0  0
 12 14  1  0  0  0  0
 12  1  1  0  0  0  0
 13 12  1  0  0  0  0
 15  2  1  0  0  0  0
 16 15  1  0  0  0  0
 17 26  1  0  0  0  0
 17 18  1  0  0  0  0
 17 22  1  0  0  0  0
 18 19  1  0  0  0  0
 18 20  1  0  0  0  0
 21 18  1  0  0  0  0
 22 24  1  0  0  0  0
 23 22  1  0  0  0  0
 25 22  1  0  0  0  0
 26 28  1  0  0  0  0
 27 26  1  0  0  0  0
 29 26  1  0  0  0  0
 30 35  1  0  0  0  0
 30 31  1  0  0  0  0
 30  1  1  0  0  0  0
 31 34  1  0  0  0  0
 32 31  1  0  0  0  0
 33 31  1  0  0  0  0
 35 36  1  0  0  0  0
 37 35  1  0  0  0  0
 38 35  1  0  0  0  0
 39 30  1  0  0  0  0
 40 39  1  0  0  0  0
 41 39  1  0  0  0  0
 42 39  1  0  0  0  0
 43 48  1  0  0  0  0
 43  2  1  0  0  0  0
 44 47  1  0  0  0  0
 44 43  1  0  0  0  0
 45 44  1  0  0  0  0
 46 44  1  0  0  0  0
 48 49  1  0  0  0  0
 48 51  1  0  0  0  0
 50 48  1  0  0  0  0
 52 43  1  0  0  0  0
 52 53  1  0  0  0  0
 54 52  1  0  0  0  0
 55 52  1  0  0  0  0
 56 57  1  0  0  0  0
 56 61  1  0  0  0  0
 56 65  1  0  0  0  0
 57 59  1  0  0  0  0
 58 57  1  0  0  0  0
 60 57  1  0  0  0  0
 61 63  1  0  0  0  0
 62 61  1  0  0  0  0
 64 61  1  0  0  0  0
 65 68  1  0  0  0  0
 65 67  1  0  0  0  0
 66 65  1  0  0  0  0
M  END
