1,22,43
 OpenBabel05122313063D

 67 67  0  0  1  0  0  0  0  0999 V2000
   -2.3382   -0.4136   -0.1546 P   0  0  0  0  0  0  0  0  0  0  0  0
   -3.2350   -1.8422   -0.9505 C   0  0  0  0  0  0  0  0  0  0  0  0
   -2.4811   -2.1197   -1.7224 H   0  0  0  0  0  0  0  0  0  0  0  0
   -3.3693   -3.0336    0.0039 C   0  0  0  0  0  0  0  0  0  0  0  0
   -4.1329   -2.8516    0.7873 H   0  0  0  0  0  0  0  0  0  0  0  0
   -2.4100   -3.2782    0.4992 H   0  0  0  0  0  0  0  0  0  0  0  0
   -3.6875   -3.9317   -0.5644 H   0  0  0  0  0  0  0  0  0  0  0  0
   -4.5550   -1.4861   -1.6433 C   0  0  0  0  0  0  0  0  0  0  0  0
   -4.8960   -2.3533   -2.2466 H   0  0  0  0  0  0  0  0  0  0  0  0
   -4.4558   -0.6269   -2.3354 H   0  0  0  0  0  0  0  0  0  0  0  0
   -5.3607   -1.2515   -0.9212 H   0  0  0  0  0  0  0  0  0  0  0  0
   -3.2266    0.2177    1.3706 C   0  0  0  0  0  0  0  0  0  0  0  0
   -2.6948    1.1850    1.5183 H   0  0  0  0  0  0  0  0  0  0  0  0
   -4.7186    0.5082    1.1743 C   0  0  0  0  0  0  0  0  0  0  0  0
   -5.3095   -0.4277    1.1201 H   0  0  0  0  0  0  0  0  0  0  0  0
   -4.9277    1.1000    0.2616 H   0  0  0  0  0  0  0  0  0  0  0  0
   -5.1028    1.0885    2.0387 H   0  0  0  0  0  0  0  0  0  0  0  0
   -2.9768   -0.6494    2.6106 C   0  0  0  0  0  0  0  0  0  0  0  0
   -3.3593   -0.1294    3.5127 H   0  0  0  0  0  0  0  0  0  0  0  0
   -1.9013   -0.8511    2.7697 H   0  0  0  0  0  0  0  0  0  0  0  0
   -3.4976   -1.6244    2.5416 H   0  0  0  0  0  0  0  0  0  0  0  0
    2.4379   -0.3925   -0.1259 P   0  0  0  0  0  0  0  0  0  0  0  0
    3.4749   -0.1763    1.4297 C   0  0  0  0  0  0  0  0  0  0  0  0
    4.4989   -0.4821    1.1202 H   0  0  0  0  0  0  0  0  0  0  0  0
    3.5303    1.2723    1.9286 C   0  0  0  0  0  0  0  0  0  0  0  0
    2.5220    1.6758    2.1449 H   0  0  0  0  0  0  0  0  0  0  0  0
    4.0226    1.9543    1.2115 H   0  0  0  0  0  0  0  0  0  0  0  0
    4.1121    1.3116    2.8727 H   0  0  0  0  0  0  0  0  0  0  0  0
    2.9919   -1.1223    2.5375 C   0  0  0  0  0  0  0  0  0  0  0  0
    3.7114   -1.1074    3.3819 H   0  0  0  0  0  0  0  0  0  0  0  0
    2.8869   -2.1699    2.1984 H   0  0  0  0  0  0  0  0  0  0  0  0
    2.0078   -0.7985    2.9297 H   0  0  0  0  0  0  0  0  0  0  0  0
    3.3205   -1.6949   -1.1359 C   0  0  0  0  0  0  0  0  0  0  0  0
    2.6537   -1.7681   -2.0233 H   0  0  0  0  0  0  0  0  0  0  0  0
    4.7261   -1.2679   -1.5703 C   0  0  0  0  0  0  0  0  0  0  0  0
    5.4178   -1.1765   -0.7069 H   0  0  0  0  0  0  0  0  0  0  0  0
    4.7332   -0.3041   -2.1167 H   0  0  0  0  0  0  0  0  0  0  0  0
    5.1557   -2.0345   -2.2481 H   0  0  0  0  0  0  0  0  0  0  0  0
    3.3106   -3.0616   -0.4442 C   0  0  0  0  0  0  0  0  0  0  0  0
    3.6935   -3.8337   -1.1429 H   0  0  0  0  0  0  0  0  0  0  0  0
    2.2848   -3.3574   -0.1520 H   0  0  0  0  0  0  0  0  0  0  0  0
    3.9640   -3.0774    0.4521 H   0  0  0  0  0  0  0  0  0  0  0  0
    0.0788    1.1608   -1.3685 C   0  0  1  0  0  3  0  0  0  0  0  0
    0.1644    0.6630   -2.8268 C   0  0  0  0  0  0  0  0  0  0  0  0
    0.1683    1.5353   -3.5176 H   0  0  0  0  0  0  0  0  0  0  0  0
   -0.6726   -0.0038   -3.0988 H   0  0  0  0  0  0  0  0  0  0  0  0
    1.0699    0.0601   -3.0190 H   0  0  0  0  0  0  0  0  0  0  0  0
    2.5953    1.1738   -1.1369 C   0  0  0  0  0  0  0  0  0  0  0  0
    3.4891    1.7523   -0.8476 H   0  0  0  0  0  0  0  0  0  0  0  0
    2.7423    0.8447   -2.1860 H   0  0  0  0  0  0  0  0  0  0  0  0
    1.2965    1.9361   -0.9843 C   0  0  0  0  0  0  0  0  0  0  0  0
    1.2356    3.2056   -0.4620 C   0  0  0  0  0  0  0  0  0  0  0  0
    2.4098    4.0486   -0.0475 C   0  0  0  0  0  0  0  0  0  0  0  0
    3.3835    3.6555   -0.3919 H   0  0  0  0  0  0  0  0  0  0  0  0
    2.4430    4.1641    1.0567 H   0  0  0  0  0  0  0  0  0  0  0  0
    2.2780    5.0758   -0.4413 H   0  0  0  0  0  0  0  0  0  0  0  0
   -0.0754    3.8647   -0.2391 C   0  0  0  0  0  0  0  0  0  0  0  0
   -0.1254    5.0190    0.2226 O   0  0  0  0  0  0  0  0  0  0  0  0
   -1.3078    3.1001   -0.5433 C   0  0  0  0  0  0  0  0  0  0  0  0
   -2.6064    3.7922   -0.2096 C   0  0  0  0  0  0  0  0  0  0  0  0
   -3.2694    3.8954   -1.0932 H   0  0  0  0  0  0  0  0  0  0  0  0
   -2.3685    4.8041    0.1699 H   0  0  0  0  0  0  0  0  0  0  0  0
   -3.1833    3.2592    0.5756 H   0  0  0  0  0  0  0  0  0  0  0  0
   -1.2157    1.8461   -1.0959 C   0  0  0  0  0  0  0  0  0  0  0  0
   -2.4506    1.0109   -1.3487 C   0  0  0  0  0  0  0  0  0  0  0  0
   -2.4433    0.5702   -2.3661 H   0  0  0  0  0  0  0  0  0  0  0  0
   -3.3954    1.5707   -1.2289 H   0  0  0  0  0  0  0  0  0  0  0  0
  1 12  1  0  0  0  0
  2  1  1  0  0  0  0
  2  4  1  0  0  0  0
  3  2  1  0  0  0  0
  4  6  1  0  0  0  0
  4  5  1  0  0  0  0
  7  4  1  0  0  0  0
  8  2  1  0  0  0  0
  8 11  1  0  0  0  0
  9  8  1  0  0  0  0
 10  8  1  0  0  0  0
 12 13  1  0  0  0  0
 12 18  1  0  0  0  0
 14 12  1  0  0  0  0
 14 17  1  0  0  0  0
 15 14  1  0  0  0  0
 16 14  1  0  0  0  0
 18 20  1  0  0  0  0
 18 19  1  0  0  0  0
 21 18  1  0  0  0  0
 22 23  1  0  0  0  0
 23 25  1  0  0  0  0
 23 29  1  0  0  0  0
 24 23  1  0  0  0  0
 25 26  1  0  0  0  0
 25 28  1  0  0  0  0
 27 25  1  0  0  0  0
 29 32  1  0  0  0  0
 29 30  1  0  0  0  0
 31 29  1  0  0  0  0
 33 39  1  0  0  0  0
 33 22  1  0  0  0  0
 34 33  1  0  0  0  0
 35 33  1  0  0  0  0
 35 36  1  0  0  0  0
 37 35  1  0  0  0  0
 38 35  1  0  0  0  0
 39 41  1  0  0  0  0
 39 42  1  0  0  0  0
 40 39  1  0  0  0  0
 43 44  1  6  0  0  0
 43 64  1  0  0  0  0
 43 51  1  0  0  0  0
 45 44  1  0  0  0  0
 46 44  1  0  0  0  0
 47 44  1  0  0  0  0
 48 51  1  0  0  0  0
 48 49  1  0  0  0  0
 48 22  1  0  0  0  0
 50 48  1  0  0  0  0
 51 52  2  0  0  0  0
 52 57  1  0  0  0  0
 52 53  1  0  0  0  0
 53 55  1  0  0  0  0
 54 53  1  0  0  0  0
 56 53  1  0  0  0  0
 57 58  2  0  0  0  0
 59 57  1  0  0  0  0
 59 60  1  0  0  0  0
 60 62  1  0  0  0  0
 60 63  1  0  0  0  0
 61 60  1  0  0  0  0
 64 59  2  0  0  0  0
 65 67  1  0  0  0  0
 65 64  1  0  0  0  0
 65  1  1  0  0  0  0
 66 65  1  0  0  0  0
M  END
