1,4,43
 OpenBabel05122313063D

 78 80  0  0  0  0  0  0  0  0999 V2000
   -2.4056   -0.5642   -0.2376 P   0  0  0  0  0  0  0  0  0  0  0  0
   -2.5975    1.2553   -0.4027 C   0  0  0  0  0  0  0  0  0  0  0  0
   -1.4015    2.0055   -0.3277 C   0  0  0  0  0  0  0  0  0  0  0  0
    2.1295   -0.6632   -0.3681 P   0  0  0  0  0  0  0  0  0  0  0  0
    0.6106    2.4749   -2.4679 C   0  0  0  0  0  0  0  0  0  0  0  0
   -0.3202    3.0588   -2.4468 H   0  0  0  0  0  0  0  0  0  0  0  0
    1.5201    2.6709   -3.5236 C   0  0  0  0  0  0  0  0  0  0  0  0
    1.2835    3.4012   -4.3130 H   0  0  0  0  0  0  0  0  0  0  0  0
    2.7177    1.9478   -3.5731 C   0  0  0  0  0  0  0  0  0  0  0  0
    3.4333    2.1038   -4.3944 H   0  0  0  0  0  0  0  0  0  0  0  0
    2.9792    0.9864   -2.5802 C   0  0  0  0  0  0  0  0  0  0  0  0
    3.8917    0.3743   -2.6492 H   0  0  0  0  0  0  0  0  0  0  0  0
    2.0608    0.7628   -1.5430 C   0  0  0  0  0  0  0  0  0  0  0  0
    0.8678    1.5400   -1.4476 C   0  0  0  0  0  0  0  0  0  0  0  0
   -3.7619   -1.0204    0.9828 C   0  0  0  0  0  0  0  0  0  0  0  0
   -4.7016   -0.6281    0.5310 H   0  0  0  0  0  0  0  0  0  0  0  0
   -3.0148   -1.2688   -1.8758 C   0  0  0  0  0  0  0  0  0  0  0  0
   -4.1258   -1.2609   -1.7974 H   0  0  0  0  0  0  0  0  0  0  0  0
   -1.5159    3.4153   -0.3250 C   0  0  0  0  0  0  0  0  0  0  0  0
   -0.6120    4.0307   -0.2136 H   0  0  0  0  0  0  0  0  0  0  0  0
   -2.7586    4.0513   -0.4454 C   0  0  0  0  0  0  0  0  0  0  0  0
   -2.8106    5.1510   -0.4419 H   0  0  0  0  0  0  0  0  0  0  0  0
   -3.9339    3.2907   -0.5620 C   0  0  0  0  0  0  0  0  0  0  0  0
   -4.9123    3.7855   -0.6575 H   0  0  0  0  0  0  0  0  0  0  0  0
   -3.8481    1.8939   -0.5315 C   0  0  0  0  0  0  0  0  0  0  0  0
   -4.7677    1.2908   -0.5966 H   0  0  0  0  0  0  0  0  0  0  0  0
    2.8694   -2.0529   -1.3881 C   0  0  0  0  0  0  0  0  0  0  0  0
    3.8310   -1.6545   -1.7821 H   0  0  0  0  0  0  0  0  0  0  0  0
   -0.0896   -0.7799    3.4615 C   0  0  0  0  0  0  0  0  0  0  0  0
    0.9407   -0.8792    3.8602 H   0  0  0  0  0  0  0  0  0  0  0  0
   -0.4436   -1.7730    3.1226 H   0  0  0  0  0  0  0  0  0  0  0  0
   -0.7546   -0.3516    4.2399 H   0  0  0  0  0  0  0  0  0  0  0  0
    0.5537    1.2539    2.2890 C   0  0  0  0  0  0  0  0  0  0  0  0
    1.1252    1.8014    3.4486 C   0  0  0  0  0  0  0  0  0  0  0  0
    1.0009    1.3050    4.4196 H   0  0  0  0  0  0  0  0  0  0  0  0
    1.8867    2.9785    3.3566 C   0  0  0  0  0  0  0  0  0  0  0  0
    2.3444    3.3981    4.2649 H   0  0  0  0  0  0  0  0  0  0  0  0
    2.0772    3.5937    2.1133 C   0  0  0  0  0  0  0  0  0  0  0  0
    2.6963    4.4990    2.0285 H   0  0  0  0  0  0  0  0  0  0  0  0
    1.4737    3.0464    0.9688 C   0  0  0  0  0  0  0  0  0  0  0  0
    1.6407    3.5194   -0.0108 H   0  0  0  0  0  0  0  0  0  0  0  0
    0.6810    1.8832    1.0224 C   0  0  0  0  0  0  0  0  0  0  0  0
   -0.0270    1.3077   -0.2240 C   0  0  0  0  0  3  0  0  0  0  0  0
   -3.5264   -0.3144    2.3217 C   0  0  0  0  0  0  0  0  0  0  0  0
   -4.3999   -0.4674    2.9890 H   0  0  0  0  0  0  0  0  0  0  0  0
   -3.3697    0.7760    2.2039 H   0  0  0  0  0  0  0  0  0  0  0  0
   -2.6396   -0.7366    2.8295 H   0  0  0  0  0  0  0  0  0  0  0  0
   -2.5275   -2.7096   -2.0843 C   0  0  0  0  0  0  0  0  0  0  0  0
   -1.4360   -2.7214   -2.2718 H   0  0  0  0  0  0  0  0  0  0  0  0
   -3.0348   -3.1535   -2.9661 H   0  0  0  0  0  0  0  0  0  0  0  0
   -2.6990   -3.3640   -1.2104 H   0  0  0  0  0  0  0  0  0  0  0  0
   -2.5859   -0.3729   -3.0446 C   0  0  0  0  0  0  0  0  0  0  0  0
   -3.0420    0.6343   -2.9958 H   0  0  0  0  0  0  0  0  0  0  0  0
   -2.8804   -0.8408   -4.0069 H   0  0  0  0  0  0  0  0  0  0  0  0
   -1.4833   -0.2427   -3.0553 H   0  0  0  0  0  0  0  0  0  0  0  0
   -3.8814   -2.5398    1.1581 C   0  0  0  0  0  0  0  0  0  0  0  0
   -2.8984   -2.9869    1.4161 H   0  0  0  0  0  0  0  0  0  0  0  0
   -4.2523   -3.0381    0.2416 H   0  0  0  0  0  0  0  0  0  0  0  0
   -4.6012   -2.7684    1.9721 H   0  0  0  0  0  0  0  0  0  0  0  0
    1.9563   -2.4006   -2.5696 C   0  0  0  0  0  0  0  0  0  0  0  0
    1.0226   -2.8710   -2.2025 H   0  0  0  0  0  0  0  0  0  0  0  0
    2.4681   -3.1257   -3.2362 H   0  0  0  0  0  0  0  0  0  0  0  0
    1.6856   -1.5113   -3.1727 H   0  0  0  0  0  0  0  0  0  0  0  0
    3.1468   -3.2923   -0.5261 C   0  0  0  0  0  0  0  0  0  0  0  0
    3.9554   -3.1233    0.2099 H   0  0  0  0  0  0  0  0  0  0  0  0
    3.4645   -4.1326   -1.1783 H   0  0  0  0  0  0  0  0  0  0  0  0
    2.2303   -3.6026    0.0183 H   0  0  0  0  0  0  0  0  0  0  0  0
    3.4140   -0.2038    0.9296 C   0  0  0  0  0  0  0  0  0  0  0  0
    3.0128    0.7721    1.2743 H   0  0  0  0  0  0  0  0  0  0  0  0
    3.3849   -1.1747    2.1209 C   0  0  0  0  0  0  0  0  0  0  0  0
    3.7260   -0.6608    3.0433 H   0  0  0  0  0  0  0  0  0  0  0  0
    4.0542   -2.0418    1.9580 H   0  0  0  0  0  0  0  0  0  0  0  0
    2.3699   -1.5820    2.2980 H   0  0  0  0  0  0  0  0  0  0  0  0
    4.8231    0.0276    0.3801 C   0  0  0  0  0  0  0  0  0  0  0  0
    5.4915    0.3908    1.1893 H   0  0  0  0  0  0  0  0  0  0  0  0
    4.8330    0.7893   -0.4243 H   0  0  0  0  0  0  0  0  0  0  0  0
    5.2701   -0.9069   -0.0178 H   0  0  0  0  0  0  0  0  0  0  0  0
   -0.0996    0.0395    2.2908 O   0  0  0  0  0  0  0  0  0  0  0  0
  1 15  1  0  0  0  0
  2  3  1  0  0  0  0
  2  1  1  0  0  0  0
  3 19  2  0  0  0  0
  3 43  1  0  0  0  0
  4 68  1  0  0  0  0
  5  6  1  0  0  0  0
  5 14  1  0  0  0  0
  7  5  2  0  0  0  0
  8  7  1  0  0  0  0
  9  7  1  0  0  0  0
  9 11  2  0  0  0  0
 10  9  1  0  0  0  0
 11 13  1  0  0  0  0
 12 11  1  0  0  0  0
 13 14  2  0  0  0  0
 13  4  1  0  0  0  0
 14 43  1  0  0  0  0
 15 56  1  0  0  0  0
 15 44  1  0  0  0  0
 16 15  1  0  0  0  0
 17 18  1  0  0  0  0
 17  1  1  0  0  0  0
 19 20  1  0  0  0  0
 21 22  1  0  0  0  0
 21 19  1  0  0  0  0
 23 25  1  0  0  0  0
 23 21  2  0  0  0  0
 24 23  1  0  0  0  0
 25  2  2  0  0  0  0
 26 25  1  0  0  0  0
 27 64  1  0  0  0  0
 27  4  1  0  0  0  0
 28 27  1  0  0  0  0
 29 30  1  0  0  0  0
 29 32  1  0  0  0  0
 31 29  1  0  0  0  0
 33 78  1  0  0  0  0
 33 34  1  0  0  0  0
 34 35  1  0  0  0  0
 36 34  2  0  0  0  0
 36 37  1  0  0  0  0
 38 36  1  0  0  0  0
 39 38  1  0  0  0  0
 40 42  1  0  0  0  0
 40 38  2  0  0  0  0
 41 40  1  0  0  0  0
 42 33  2  0  0  0  0
 43 42  1  0  0  0  0
 44 47  1  0  0  0  0
 44 45  1  0  0  0  0
 46 44  1  0  0  0  0
 48 17  1  0  0  0  0
 48 51  1  0  0  0  0
 49 48  1  0  0  0  0
 50 48  1  0  0  0  0
 52 53  1  0  0  0  0
 52 17  1  0  0  0  0
 54 52  1  0  0  0  0
 55 52  1  0  0  0  0
 56 57  1  0  0  0  0
 56 59  1  0  0  0  0
 58 56  1  0  0  0  0
 60 61  1  0  0  0  0
 60 27  1  0  0  0  0
 62 60  1  0  0  0  0
 63 60  1  0  0  0  0
 64 67  1  0  0  0  0
 64 65  1  0  0  0  0
 66 64  1  0  0  0  0
 68 69  1  0  0  0  0
 68 70  1  0  0  0  0
 70 73  1  0  0  0  0
 70 71  1  0  0  0  0
 72 70  1  0  0  0  0
 74 68  1  0  0  0  0
 74 75  1  0  0  0  0
 76 74  1  0  0  0  0
 77 74  1  0  0  0  0
 78 29  1  0  0  0  0
M  END
