1,2,3
 OpenBabel05122313063D

 63 64  0  0  0  0  0  0  0  0999 V2000
    0.0475    2.3081   -0.4686 P   0  0  0  0  0  0  0  0  0  0  0  0
    0.3370   -2.2611   -0.0766 P   0  0  0  0  0  0  0  0  0  0  0  0
    1.8232    0.1631    0.1337 C   0  0  0  0  0  2  0  0  0  0  0  0
    2.7377   -0.9937    0.0111 C   0  0  0  0  0  0  0  0  0  0  0  0
    2.1724   -2.2978   -0.1260 C   0  0  0  0  0  0  0  0  0  0  0  0
    2.9754   -3.4260   -0.3297 C   0  0  0  0  0  0  0  0  0  0  0  0
    2.5151   -4.4216   -0.4279 H   0  0  0  0  0  0  0  0  0  0  0  0
    4.3705   -3.2902   -0.4632 C   0  0  0  0  0  0  0  0  0  0  0  0
    4.9986   -4.1730   -0.6540 H   0  0  0  0  0  0  0  0  0  0  0  0
    4.9415   -2.0109   -0.3859 C   0  0  0  0  0  0  0  0  0  0  0  0
    6.0269   -1.8857   -0.5229 H   0  0  0  0  0  0  0  0  0  0  0  0
    4.1466   -0.8817   -0.1388 C   0  0  0  0  0  0  0  0  0  0  0  0
    4.6191    0.1101   -0.1107 H   0  0  0  0  0  0  0  0  0  0  0  0
    2.2960    1.4109    0.7901 C   0  0  0  0  0  0  0  0  0  0  0  0
    1.5586    2.6092    0.5403 C   0  0  0  0  0  0  0  0  0  0  0  0
    1.9298    3.8249    1.1286 C   0  0  0  0  0  0  0  0  0  0  0  0
    1.3481    4.7381    0.9302 H   0  0  0  0  0  0  0  0  0  0  0  0
    3.0362    3.8814    1.9971 C   0  0  0  0  0  0  0  0  0  0  0  0
    3.3267    4.8374    2.4585 H   0  0  0  0  0  0  0  0  0  0  0  0
    3.7464    2.7075    2.2897 C   0  0  0  0  0  0  0  0  0  0  0  0
    4.5877    2.7370    2.9993 H   0  0  0  0  0  0  0  0  0  0  0  0
    3.3811    1.4889    1.6976 C   0  0  0  0  0  0  0  0  0  0  0  0
    3.9259    0.5730    1.9674 H   0  0  0  0  0  0  0  0  0  0  0  0
   -0.2275   -3.4255   -1.4253 C   0  0  0  0  0  0  0  0  0  0  0  0
    0.2542   -4.4054   -1.2120 H   0  0  0  0  0  0  0  0  0  0  0  0
    0.2651   -2.9189   -2.7854 C   0  0  0  0  0  0  0  0  0  0  0  0
   -0.0348   -3.6244   -3.5882 H   0  0  0  0  0  0  0  0  0  0  0  0
    1.3678   -2.8145   -2.8103 H   0  0  0  0  0  0  0  0  0  0  0  0
   -0.1719   -1.9272   -3.0172 H   0  0  0  0  0  0  0  0  0  0  0  0
   -1.7519   -3.5889   -1.3772 C   0  0  0  0  0  0  0  0  0  0  0  0
   -2.0902   -4.2549   -2.1980 H   0  0  0  0  0  0  0  0  0  0  0  0
   -2.2654   -2.6143   -1.4886 H   0  0  0  0  0  0  0  0  0  0  0  0
   -2.1004   -4.0290   -0.4220 H   0  0  0  0  0  0  0  0  0  0  0  0
   -0.0943   -3.1022    1.5534 C   0  0  0  0  0  0  0  0  0  0  0  0
   -1.1577   -2.8163    1.7075 H   0  0  0  0  0  0  0  0  0  0  0  0
    0.7621   -2.4819    2.6653 C   0  0  0  0  0  0  0  0  0  0  0  0
    0.3715   -2.7759    3.6614 H   0  0  0  0  0  0  0  0  0  0  0  0
    0.7721   -1.3765    2.6121 H   0  0  0  0  0  0  0  0  0  0  0  0
    1.8115   -2.8329    2.5914 H   0  0  0  0  0  0  0  0  0  0  0  0
    0.0324   -4.6285    1.5503 C   0  0  0  0  0  0  0  0  0  0  0  0
   -0.2388   -5.0276    2.5505 H   0  0  0  0  0  0  0  0  0  0  0  0
    1.0758   -4.9464    1.3476 H   0  0  0  0  0  0  0  0  0  0  0  0
   -0.6304   -5.1181    0.8109 H   0  0  0  0  0  0  0  0  0  0  0  0
   -1.2178    3.5262    0.1846 C   0  0  0  0  0  0  0  0  0  0  0  0
   -0.7519    4.5335    0.1054 H   0  0  0  0  0  0  0  0  0  0  0  0
   -1.5358    3.2302    1.6534 C   0  0  0  0  0  0  0  0  0  0  0  0
   -2.2115    4.0123    2.0581 H   0  0  0  0  0  0  0  0  0  0  0  0
   -0.6262    3.2028    2.2847 H   0  0  0  0  0  0  0  0  0  0  0  0
   -2.0499    2.2549    1.7430 H   0  0  0  0  0  0  0  0  0  0  0  0
   -2.4855    3.4891   -0.6785 C   0  0  0  0  0  0  0  0  0  0  0  0
   -3.2254    4.2208   -0.2929 H   0  0  0  0  0  0  0  0  0  0  0  0
   -2.9547    2.4850   -0.6381 H   0  0  0  0  0  0  0  0  0  0  0  0
   -2.2898    3.7441   -1.7393 H   0  0  0  0  0  0  0  0  0  0  0  0
    0.4625    2.9380   -2.1956 C   0  0  0  0  0  0  0  0  0  0  0  0
   -0.4790    2.7519   -2.7593 H   0  0  0  0  0  0  0  0  0  0  0  0
    1.5709    2.0763   -2.8108 C   0  0  0  0  0  0  0  0  0  0  0  0
    1.7529    2.3826   -3.8620 H   0  0  0  0  0  0  0  0  0  0  0  0
    1.3066    1.0011   -2.7814 H   0  0  0  0  0  0  0  0  0  0  0  0
    2.5225    2.1944   -2.2519 H   0  0  0  0  0  0  0  0  0  0  0  0
    0.7992    4.4306   -2.2482 C   0  0  0  0  0  0  0  0  0  0  0  0
    1.0186    4.7335   -3.2935 H   0  0  0  0  0  0  0  0  0  0  0  0
    1.7015    4.6568   -1.6435 H   0  0  0  0  0  0  0  0  0  0  0  0
   -0.0290    5.0720   -1.8870 H   0  0  0  0  0  0  0  0  0  0  0  0
  1 44  1  0  0  0  0
  1 15  1  0  0  0  0
  2 34  1  0  0  0  0
  3 14  1  0  0  0  0
  4  3  1  0  0  0  0
  5  2  1  0  0  0  0
  5  4  1  0  0  0  0
  6  5  2  0  0  0  0
  7  6  1  0  0  0  0
  8 10  2  0  0  0  0
  8  6  1  0  0  0  0
  9  8  1  0  0  0  0
 10 12  1  0  0  0  0
 11 10  1  0  0  0  0
 12 13  1  0  0  0  0
 12  4  2  0  0  0  0
 14 22  1  0  0  0  0
 15 14  2  0  0  0  0
 15 16  1  0  0  0  0
 16 18  2  0  0  0  0
 17 16  1  0  0  0  0
 18 20  1  0  0  0  0
 18 19  1  0  0  0  0
 20 21  1  0  0  0  0
 22 23  1  0  0  0  0
 22 20  2  0  0  0  0
 24 30  1  0  0  0  0
 24 25  1  0  0  0  0
 24  2  1  0  0  0  0
 26 24  1  0  0  0  0
 27 26  1  0  0  0  0
 28 26  1  0  0  0  0
 29 26  1  0  0  0  0
 30 33  1  0  0  0  0
 31 30  1  0  0  0  0
 32 30  1  0  0  0  0
 34 35  1  0  0  0  0
 34 36  1  0  0  0  0
 36 37  1  0  0  0  0
 38 36  1  0  0  0  0
 39 36  1  0  0  0  0
 40 34  1  0  0  0  0
 40 41  1  0  0  0  0
 42 40  1  0  0  0  0
 43 40  1  0  0  0  0
 44 46  1  0  0  0  0
 45 44  1  0  0  0  0
 46 49  1  0  0  0  0
 46 47  1  0  0  0  0
 46 48  1  0  0  0  0
 50 52  1  0  0  0  0
 50 51  1  0  0  0  0
 50 44  1  0  0  0  0
 53 50  1  0  0  0  0
 54  1  1  0  0  0  0
 55 54  1  0  0  0  0
 56 58  1  0  0  0  0
 56 59  1  0  0  0  0
 56 54  1  0  0  0  0
 57 56  1  0  0  0  0
 60 54  1  0  0  0  0
 60 63  1  0  0  0  0
 60 62  1  0  0  0  0
 61 60  1  0  0  0  0
M  END
