1,2,33
 OpenBabel05122313063D

 72 72  0  0  1  0  0  0  0  0999 V2000
    2.2697   -0.2574   -0.0687 P   0  0  0  0  0  0  0  0  0  0  0  0
   -2.3219   -0.0525   -0.0869 P   0  0  0  0  0  0  0  0  0  0  0  0
    2.9391    0.2054    1.6605 C   0  0  0  0  0  0  0  0  0  0  0  0
    2.2787    1.5496    2.0277 C   0  0  0  0  0  0  0  0  0  0  0  0
    1.1748    1.4869    1.9528 H   0  0  0  0  0  0  0  0  0  0  0  0
    2.6061    2.3848    1.3786 H   0  0  0  0  0  0  0  0  0  0  0  0
    2.5509    1.8054    3.0740 H   0  0  0  0  0  0  0  0  0  0  0  0
    2.4594   -0.8548    2.6692 C   0  0  0  0  0  0  0  0  0  0  0  0
    2.7558   -0.5450    3.6941 H   0  0  0  0  0  0  0  0  0  0  0  0
    2.8940   -1.8543    2.4808 H   0  0  0  0  0  0  0  0  0  0  0  0
    1.3555   -0.9486    2.6333 H   0  0  0  0  0  0  0  0  0  0  0  0
    4.4665    0.3503    1.7147 C   0  0  0  0  0  0  0  0  0  0  0  0
    4.7604    0.7444    2.7112 H   0  0  0  0  0  0  0  0  0  0  0  0
    4.8502    1.0613    0.9551 H   0  0  0  0  0  0  0  0  0  0  0  0
    4.9861   -0.6184    1.5809 H   0  0  0  0  0  0  0  0  0  0  0  0
    3.3128   -1.6115   -0.9190 C   0  0  0  0  0  0  0  0  0  0  0  0
    3.4264   -2.8441   -0.0070 C   0  0  0  0  0  0  0  0  0  0  0  0
    3.8835   -3.6794   -0.5793 H   0  0  0  0  0  0  0  0  0  0  0  0
    2.4378   -3.1885    0.3535 H   0  0  0  0  0  0  0  0  0  0  0  0
    4.0745   -2.6549    0.8710 H   0  0  0  0  0  0  0  0  0  0  0  0
    4.7148   -1.1339   -1.3363 C   0  0  0  0  0  0  0  0  0  0  0  0
    5.3532   -0.8740   -0.4726 H   0  0  0  0  0  0  0  0  0  0  0  0
    4.6765   -0.2576   -2.0130 H   0  0  0  0  0  0  0  0  0  0  0  0
    5.2239   -1.9513   -1.8907 H   0  0  0  0  0  0  0  0  0  0  0  0
    2.5113   -1.9911   -2.1810 C   0  0  0  0  0  0  0  0  0  0  0  0
    2.3919   -1.1332   -2.8735 H   0  0  0  0  0  0  0  0  0  0  0  0
    1.4962   -2.3493   -1.9206 H   0  0  0  0  0  0  0  0  0  0  0  0
    3.0488   -2.7944   -2.7289 H   0  0  0  0  0  0  0  0  0  0  0  0
    2.5613    1.2560   -1.1117 C   0  0  0  0  0  0  0  0  0  0  0  0
    3.4122    1.8628   -0.7313 H   0  0  0  0  0  0  0  0  0  0  0  0
    2.8648    0.9211   -2.1289 H   0  0  0  0  0  0  0  0  0  0  0  0
    1.2798    2.0471   -1.1820 C   0  0  1  0  0  3  0  0  0  0  0  0
    0.0855    1.5276   -0.7224 C   0  0  0  0  0  2  0  0  0  0  0  0
   -1.1107    2.3682   -0.6144 C   0  0  0  0  0  0  0  0  0  0  0  0
   -1.1139    3.6868   -0.1830 C   0  0  0  0  0  0  0  0  0  0  0  0
   -2.0921    4.1213    0.0925 H   0  0  0  0  0  0  0  0  0  0  0  0
    0.0477    4.5016    0.0747 C   0  0  0  0  0  0  0  0  0  0  0  0
   -0.0408    5.2745    0.8579 H   0  0  0  0  0  0  0  0  0  0  0  0
    1.2329    4.3782   -0.5949 C   0  0  0  0  0  0  0  0  0  0  0  0
    2.1117    4.9620   -0.2727 H   0  0  0  0  0  0  0  0  0  0  0  0
    1.3499    3.4449   -1.7672 C   0  0  0  0  0  0  0  0  0  0  0  0
    2.2861    3.6098   -2.3357 H   0  0  0  0  0  0  0  0  0  0  0  0
    0.4874    3.6002   -2.4546 H   0  0  0  0  0  0  0  0  0  0  0  0
   -2.4325    1.6586   -0.8173 C   0  0  0  0  0  0  0  0  0  0  0  0
   -2.5989    1.5106   -1.9062 H   0  0  0  0  0  0  0  0  0  0  0  0
   -3.3022    2.2309   -0.4346 H   0  0  0  0  0  0  0  0  0  0  0  0
   -3.0765    0.1133    1.6602 C   0  0  0  0  0  0  0  0  0  0  0  0
   -2.7704   -1.1612    2.4669 C   0  0  0  0  0  0  0  0  0  0  0  0
   -3.1534   -1.0354    3.5021 H   0  0  0  0  0  0  0  0  0  0  0  0
   -1.6785   -1.3379    2.5189 H   0  0  0  0  0  0  0  0  0  0  0  0
   -3.2427   -2.0659    2.0413 H   0  0  0  0  0  0  0  0  0  0  0  0
   -4.5857    0.3935    1.6526 C   0  0  0  0  0  0  0  0  0  0  0  0
   -4.9207    0.6206    2.6875 H   0  0  0  0  0  0  0  0  0  0  0  0
   -5.1717   -0.4790    1.3038 H   0  0  0  0  0  0  0  0  0  0  0  0
   -4.8502    1.2667    1.0226 H   0  0  0  0  0  0  0  0  0  0  0  0
   -2.3302    1.2888    2.3221 C   0  0  0  0  0  0  0  0  0  0  0  0
   -2.5728    2.2645    1.8602 H   0  0  0  0  0  0  0  0  0  0  0  0
   -1.2319    1.1457    2.2567 H   0  0  0  0  0  0  0  0  0  0  0  0
   -2.6162    1.3389    3.3942 H   0  0  0  0  0  0  0  0  0  0  0  0
   -3.3954   -1.1235   -1.2491 C   0  0  0  0  0  0  0  0  0  0  0  0
   -2.5298   -1.3183   -2.5108 C   0  0  0  0  0  0  0  0  0  0  0  0
   -2.3203   -0.3594   -3.0267 H   0  0  0  0  0  0  0  0  0  0  0  0
   -3.0674   -1.9760   -3.2270 H   0  0  0  0  0  0  0  0  0  0  0  0
   -1.5520   -1.7749   -2.2566 H   0  0  0  0  0  0  0  0  0  0  0  0
   -3.6570   -2.4962   -0.6081 C   0  0  0  0  0  0  0  0  0  0  0  0
   -4.3530   -2.4307    0.2510 H   0  0  0  0  0  0  0  0  0  0  0  0
   -2.7212   -2.9800   -0.2660 H   0  0  0  0  0  0  0  0  0  0  0  0
   -4.1256   -3.1661   -1.3603 H   0  0  0  0  0  0  0  0  0  0  0  0
   -4.7255   -0.4584   -1.6418 C   0  0  0  0  0  0  0  0  0  0  0  0
   -5.2436   -1.0985   -2.3879 H   0  0  0  0  0  0  0  0  0  0  0  0
   -4.5762    0.5331   -2.1131 H   0  0  0  0  0  0  0  0  0  0  0  0
   -5.4105   -0.3322   -0.7837 H   0  0  0  0  0  0  0  0  0  0  0  0
  1  3  1  0  0  0  0
  2 47  1  0  0  0  0
  3 12  1  0  0  0  0
  3  4  1  0  0  0  0
  3  8  1  0  0  0  0
  4  7  1  0  0  0  0
  5  4  1  0  0  0  0
  6  4  1  0  0  0  0
  8  9  1  0  0  0  0
 10  8  1  0  0  0  0
 11  8  1  0  0  0  0
 12 13  1  0  0  0  0
 14 12  1  0  0  0  0
 15 12  1  0  0  0  0
 16  1  1  0  0  0  0
 16 17  1  0  0  0  0
 17 19  1  0  0  0  0
 17 20  1  0  0  0  0
 18 17  1  0  0  0  0
 21 16  1  0  0  0  0
 21 22  1  0  0  0  0
 23 21  1  0  0  0  0
 24 21  1  0  0  0  0
 25 27  1  0  0  0  0
 25 16  1  0  0  0  0
 26 25  1  0  0  0  0
 28 25  1  0  0  0  0
 29 30  1  0  0  0  0
 29  1  1  0  0  0  0
 31 29  1  0  0  0  0
 32 29  1  1  0  0  0
 32 33  1  0  0  0  0
 33 34  1  0  0  0  0
 34 35  2  0  0  0  0
 35 37  1  0  0  0  0
 35 36  1  0  0  0  0
 37 38  1  0  0  0  0
 39 40  1  0  0  0  0
 39 37  2  0  0  0  0
 41 32  1  0  0  0  0
 41 39  1  0  0  0  0
 42 41  1  0  0  0  0
 43 41  1  0  0  0  0
 44 34  1  0  0  0  0
 44 46  1  0  0  0  0
 44  2  1  0  0  0  0
 45 44  1  0  0  0  0
 47 56  1  0  0  0  0
 47 48  1  0  0  0  0
 48 50  1  0  0  0  0
 48 49  1  0  0  0  0
 51 48  1  0  0  0  0
 52 47  1  0  0  0  0
 52 53  1  0  0  0  0
 54 52  1  0  0  0  0
 55 52  1  0  0  0  0
 56 59  1  0  0  0  0
 57 56  1  0  0  0  0
 58 56  1  0  0  0  0
 60 65  1  0  0  0  0
 60  2  1  0  0  0  0
 61 64  1  0  0  0  0
 61 60  1  0  0  0  0
 62 61  1  0  0  0  0
 63 61  1  0  0  0  0
 65 67  1  0  0  0  0
 65 66  1  0  0  0  0
 68 65  1  0  0  0  0
 69 60  1  0  0  0  0
 69 72  1  0  0  0  0
 70 69  1  0  0  0  0
 71 69  1  0  0  0  0
M  END
