3,4,5
 OpenBabel05122313063D

 56 59  0  0  0  0  0  0  0  0999 V2000
    1.6310    1.3158   -1.8964 O   0  0  0  0  0  0  0  0  0  0  0  0
   -2.1968   -0.7605   -2.2277 O   0  0  0  0  0  0  0  0  0  0  0  0
   -1.8967   -0.0902   -0.6975 P   0  0  0  0  0  0  0  0  0  0  0  0
    1.7562    0.5668   -0.3801 P   0  0  0  0  0  0  0  0  0  0  0  0
    0.2630   -0.6913   -2.1688 C   0  0  0  0  0  3  0  0  0  0  0  0
    1.1174   -1.3521   -2.4233 H   0  0  0  0  0  0  0  0  0  0  0  0
   -0.9914   -1.2509   -2.8285 C   0  0  0  0  0  0  0  0  0  0  0  0
   -1.0457   -0.9747   -3.9080 H   0  0  0  0  0  0  0  0  0  0  0  0
   -0.9897   -2.3639   -2.7816 H   0  0  0  0  0  0  0  0  0  0  0  0
   -2.3118    1.6870   -1.0435 C   0  0  0  0  0  0  0  0  0  0  0  0
   -1.4965    2.6949   -0.5058 C   0  0  0  0  0  0  0  0  0  0  0  0
   -0.6290    2.3907    0.0971 H   0  0  0  0  0  0  0  0  0  0  0  0
   -1.7718    4.0481   -0.7588 C   0  0  0  0  0  0  0  0  0  0  0  0
   -1.1274    4.8291   -0.3256 H   0  0  0  0  0  0  0  0  0  0  0  0
   -2.8607    4.3962   -1.5729 C   0  0  0  0  0  0  0  0  0  0  0  0
   -3.0777    5.4551   -1.7821 H   0  0  0  0  0  0  0  0  0  0  0  0
   -3.6723    3.3898   -2.1282 C   0  0  0  0  0  0  0  0  0  0  0  0
   -4.5208    3.6636   -2.7747 H   0  0  0  0  0  0  0  0  0  0  0  0
   -3.4048    2.0396   -1.8614 C   0  0  0  0  0  0  0  0  0  0  0  0
   -4.0344    1.2475   -2.2950 H   0  0  0  0  0  0  0  0  0  0  0  0
   -3.4892   -0.5774    0.1018 C   0  0  0  0  0  0  0  0  0  0  0  0
   -4.1100    0.2581    1.0550 C   0  0  0  0  0  0  0  0  0  0  0  0
   -3.7110    1.2678    1.2391 H   0  0  0  0  0  0  0  0  0  0  0  0
   -5.2430   -0.1787    1.7578 C   0  0  0  0  0  0  0  0  0  0  0  0
   -5.7140    0.4835    2.5006 H   0  0  0  0  0  0  0  0  0  0  0  0
   -5.7826   -1.4505    1.5053 C   0  0  0  0  0  0  0  0  0  0  0  0
   -6.6727   -1.7931    2.0547 H   0  0  0  0  0  0  0  0  0  0  0  0
   -5.1908   -2.2749    0.5334 C   0  0  0  0  0  0  0  0  0  0  0  0
   -5.6238   -3.2626    0.3111 H   0  0  0  0  0  0  0  0  0  0  0  0
   -4.0526   -1.8424   -0.1625 C   0  0  0  0  0  0  0  0  0  0  0  0
   -3.5974   -2.4766   -0.9358 H   0  0  0  0  0  0  0  0  0  0  0  0
    0.6056    0.7055   -2.6895 C   0  0  0  0  0  0  0  0  0  0  0  0
    0.9987    0.6586   -3.7314 H   0  0  0  0  0  0  0  0  0  0  0  0
   -0.2897    1.3663   -2.7008 H   0  0  0  0  0  0  0  0  0  0  0  0
    2.3233    2.0551    0.5635 C   0  0  0  0  0  0  0  0  0  0  0  0
    3.1741    1.9529    1.6846 C   0  0  0  0  0  0  0  0  0  0  0  0
    3.6299    0.9850    1.9423 H   0  0  0  0  0  0  0  0  0  0  0  0
    3.4808    3.0836    2.4568 C   0  0  0  0  0  0  0  0  0  0  0  0
    4.1456    2.9835    3.3287 H   0  0  0  0  0  0  0  0  0  0  0  0
    2.9573    4.3397    2.1105 C   0  0  0  0  0  0  0  0  0  0  0  0
    3.1978    5.2265    2.7163 H   0  0  0  0  0  0  0  0  0  0  0  0
    2.1470    4.4591    0.9695 C   0  0  0  0  0  0  0  0  0  0  0  0
    1.7617    5.4458    0.6675 H   0  0  0  0  0  0  0  0  0  0  0  0
    1.8343    3.3288    0.1997 C   0  0  0  0  0  0  0  0  0  0  0  0
    1.2271    3.4253   -0.7108 H   0  0  0  0  0  0  0  0  0  0  0  0
    3.3742   -0.3200   -0.5914 C   0  0  0  0  0  0  0  0  0  0  0  0
    3.8093   -1.2229    0.3997 C   0  0  0  0  0  0  0  0  0  0  0  0
    3.1994   -1.3619    1.3050 H   0  0  0  0  0  0  0  0  0  0  0  0
    4.9897   -1.9607    0.2281 C   0  0  0  0  0  0  0  0  0  0  0  0
    5.3212   -2.6572    1.0141 H   0  0  0  0  0  0  0  0  0  0  0  0
    5.7361   -1.8246   -0.9549 C   0  0  0  0  0  0  0  0  0  0  0  0
    6.6535   -2.4151   -1.1007 H   0  0  0  0  0  0  0  0  0  0  0  0
    5.3029   -0.9351   -1.9515 C   0  0  0  0  0  0  0  0  0  0  0  0
    5.8838   -0.8262   -2.8807 H   0  0  0  0  0  0  0  0  0  0  0  0
    4.1341   -0.1784   -1.7688 C   0  0  0  0  0  0  0  0  0  0  0  0
    3.7901    0.5299   -2.5374 H   0  0  0  0  0  0  0  0  0  0  0  0
  1  4  1  0  0  0  0
  2  3  1  0  0  0  0
  3 21  1  0  0  0  0
  4 35  1  0  0  0  0
  6  5  1  0  0  0  0
  7  9  1  0  0  0  0
  7  2  1  0  0  0  0
  7  5  1  0  0  0  0
  8  7  1  0  0  0  0
 10  3  1  0  0  0  0
 10 11  1  0  0  0  0
 11 12  1  0  0  0  0
 13 11  2  0  0  0  0
 13 14  1  0  0  0  0
 15 13  1  0  0  0  0
 16 15  1  0  0  0  0
 17 19  1  0  0  0  0
 17 15  2  0  0  0  0
 18 17  1  0  0  0  0
 19 10  2  0  0  0  0
 20 19  1  0  0  0  0
 21 22  1  0  0  0  0
 22 23  1  0  0  0  0
 22 24  2  0  0  0  0
 24 25  1  0  0  0  0
 26 24  1  0  0  0  0
 26 27  1  0  0  0  0
 28 26  2  0  0  0  0
 29 28  1  0  0  0  0
 30 21  2  0  0  0  0
 30 28  1  0  0  0  0
 31 30  1  0  0  0  0
 32  5  1  0  0  0  0
 32  1  1  0  0  0  0
 33 32  1  0  0  0  0
 34 32  1  0  0  0  0
 35 36  1  0  0  0  0
 36 37  1  0  0  0  0
 36 38  2  0  0  0  0
 38 39  1  0  0  0  0
 40 38  1  0  0  0  0
 40 41  1  0  0  0  0
 42 40  2  0  0  0  0
 43 42  1  0  0  0  0
 44 35  2  0  0  0  0
 44 42  1  0  0  0  0
 45 44  1  0  0  0  0
 46  4  1  0  0  0  0
 46 47  1  0  0  0  0
 47 48  1  0  0  0  0
 49 47  2  0  0  0  0
 49 50  1  0  0  0  0
 51 49  1  0  0  0  0
 52 51  1  0  0  0  0
 53 55  1  0  0  0  0
 53 51  2  0  0  0  0
 54 53  1  0  0  0  0
 55 46  2  0  0  0  0
 56 55  1  0  0  0  0
M  END
