1,2,3
 OpenBabel05122313063D

 65 66  0  0  0  0  0  0  0  0999 V2000
   -0.1299    1.3352    0.0735 C   0  0  0  0  0  2  0  0  0  0  0  0
   -2.2912   -0.4020   -0.3725 P   0  0  0  0  0  0  0  0  0  0  0  0
    1.9909   -0.5690    0.3664 P   0  0  0  0  0  0  0  0  0  0  0  0
   -2.6094    1.2366    0.3743 C   0  0  0  0  0  0  0  0  0  0  0  0
   -1.3945    1.9426    0.5800 C   0  0  0  0  0  0  0  0  0  0  0  0
   -1.4593    3.1859    1.2546 C   0  0  0  0  0  0  0  0  0  0  0  0
   -0.5283    3.7294    1.4748 H   0  0  0  0  0  0  0  0  0  0  0  0
   -2.6892    3.7122    1.6722 C   0  0  0  0  0  0  0  0  0  0  0  0
   -2.7150    4.6739    2.2076 H   0  0  0  0  0  0  0  0  0  0  0  0
   -3.8860    3.0157    1.4300 C   0  0  0  0  0  0  0  0  0  0  0  0
   -4.8480    3.4298    1.7679 H   0  0  0  0  0  0  0  0  0  0  0  0
   -3.8429    1.7722    0.7791 C   0  0  0  0  0  0  0  0  0  0  0  0
   -4.7757    1.2121    0.6103 H   0  0  0  0  0  0  0  0  0  0  0  0
    2.9271    0.7566   -0.4875 C   0  0  0  0  0  0  0  0  0  0  0  0
    2.2331    1.9805   -0.7311 C   0  0  0  0  0  0  0  0  0  0  0  0
    2.9549    3.0417   -1.3329 C   0  0  0  0  0  0  0  0  0  0  0  0
    2.4301    3.9930   -1.5147 H   0  0  0  0  0  0  0  0  0  0  0  0
    4.2985    2.9068   -1.6975 C   0  0  0  0  0  0  0  0  0  0  0  0
    4.8242    3.7475   -2.1756 H   0  0  0  0  0  0  0  0  0  0  0  0
    4.9733    1.7025   -1.4460 C   0  0  0  0  0  0  0  0  0  0  0  0
    6.0320    1.5846   -1.7212 H   0  0  0  0  0  0  0  0  0  0  0  0
    4.2855    0.6422   -0.8328 C   0  0  0  0  0  0  0  0  0  0  0  0
    4.8290   -0.2910   -0.6256 H   0  0  0  0  0  0  0  0  0  0  0  0
   -3.3572   -1.5650    0.6403 C   0  0  0  0  0  0  0  0  0  0  0  0
   -4.3153   -1.0157    0.7799 H   0  0  0  0  0  0  0  0  0  0  0  0
    3.0426   -2.1039    0.1667 C   0  0  0  0  0  0  0  0  0  0  0  0
    4.0534   -1.8166    0.5335 H   0  0  0  0  0  0  0  0  0  0  0  0
   -2.6862   -1.7500    2.0071 C   0  0  0  0  0  0  0  0  0  0  0  0
   -3.3296   -2.3597    2.6748 H   0  0  0  0  0  0  0  0  0  0  0  0
   -2.4942   -0.7799    2.5087 H   0  0  0  0  0  0  0  0  0  0  0  0
   -1.7166   -2.2731    1.8830 H   0  0  0  0  0  0  0  0  0  0  0  0
   -3.6426   -2.9041   -0.0461 C   0  0  0  0  0  0  0  0  0  0  0  0
   -4.1928   -2.7818   -0.9999 H   0  0  0  0  0  0  0  0  0  0  0  0
   -4.2675   -3.5347    0.6204 H   0  0  0  0  0  0  0  0  0  0  0  0
   -2.6975   -3.4400   -0.2604 H   0  0  0  0  0  0  0  0  0  0  0  0
   -2.0844    0.5022   -2.9782 C   0  0  0  0  0  0  0  0  0  0  0  0
   -2.4358    0.4888   -4.0308 H   0  0  0  0  0  0  0  0  0  0  0  0
   -1.0308    0.1607   -2.9568 H   0  0  0  0  0  0  0  0  0  0  0  0
   -2.1061    1.5538   -2.6241 H   0  0  0  0  0  0  0  0  0  0  0  0
   -4.4541   -0.0300   -2.2004 C   0  0  0  0  0  0  0  0  0  0  0  0
   -4.8076   -0.1288   -3.2482 H   0  0  0  0  0  0  0  0  0  0  0  0
   -4.6228    1.0224   -1.8933 H   0  0  0  0  0  0  0  0  0  0  0  0
   -5.0955   -0.6793   -1.5714 H   0  0  0  0  0  0  0  0  0  0  0  0
   -2.9717   -0.3980   -2.1101 C   0  0  0  0  0  0  0  0  0  0  0  0
   -2.8146   -1.4535   -2.4243 H   0  0  0  0  0  0  0  0  0  0  0  0
    2.1460   -0.0185    2.1664 C   0  0  0  0  0  0  0  0  0  0  0  0
    1.9161    1.0642    2.0592 H   0  0  0  0  0  0  0  0  0  0  0  0
    2.5155   -3.2520    1.0390 C   0  0  0  0  0  0  0  0  0  0  0  0
    1.4654   -3.4871    0.7754 H   0  0  0  0  0  0  0  0  0  0  0  0
    2.5706   -3.0207    2.1206 H   0  0  0  0  0  0  0  0  0  0  0  0
    3.1271   -4.1613    0.8624 H   0  0  0  0  0  0  0  0  0  0  0  0
    3.1315   -2.5094   -1.3119 C   0  0  0  0  0  0  0  0  0  0  0  0
    2.1318   -2.8063   -1.6838 H   0  0  0  0  0  0  0  0  0  0  0  0
    3.8198   -3.3738   -1.4191 H   0  0  0  0  0  0  0  0  0  0  0  0
    3.5097   -1.6907   -1.9542 H   0  0  0  0  0  0  0  0  0  0  0  0
    3.5560   -0.1693    2.7384 C   0  0  0  0  0  0  0  0  0  0  0  0
    4.3193    0.2953    2.0820 H   0  0  0  0  0  0  0  0  0  0  0  0
    3.8299   -1.2332    2.8909 H   0  0  0  0  0  0  0  0  0  0  0  0
    3.6200    0.3291    3.7284 H   0  0  0  0  0  0  0  0  0  0  0  0
    1.0524   -0.6353    3.0450 C   0  0  0  0  0  0  0  0  0  0  0  0
    0.0533   -0.4645    2.5964 H   0  0  0  0  0  0  0  0  0  0  0  0
    1.0656   -0.1740    4.0547 H   0  0  0  0  0  0  0  0  0  0  0  0
    1.1820   -1.7283    3.1735 H   0  0  0  0  0  0  0  0  0  0  0  0
    0.8510    2.2162   -0.3248 C   0  0  0  0  0  3  0  0  0  0  0  0
    0.5743    3.2874   -0.3666 H   0  0  0  0  0  0  0  0  0  0  0  0
  1  5  1  0  0  0  0
  2  4  1  0  0  0  0
  2 24  1  0  0  0  0
  3 46  1  0  0  0  0
  4  5  2  0  0  0  0
  4 12  1  0  0  0  0
  5  6  1  0  0  0  0
  6  7  1  0  0  0  0
  6  8  2  0  0  0  0
  8  9  1  0  0  0  0
 10  8  1  0  0  0  0
 10 11  1  0  0  0  0
 12 10  2  0  0  0  0
 13 12  1  0  0  0  0
 14  3  1  0  0  0  0
 15 14  1  0  0  0  0
 15 64  1  0  0  0  0
 16 15  2  0  0  0  0
 17 16  1  0  0  0  0
 18 20  2  0  0  0  0
 18 16  1  0  0  0  0
 19 18  1  0  0  0  0
 20 22  1  0  0  0  0
 21 20  1  0  0  0  0
 22 23  1  0  0  0  0
 22 14  2  0  0  0  0
 24 25  1  0  0  0  0
 24 28  1  0  0  0  0
 26  3  1  0  0  0  0
 26 27  1  0  0  0  0
 26 48  1  0  0  0  0
 28 30  1  0  0  0  0
 28 29  1  0  0  0  0
 31 28  1  0  0  0  0
 32 34  1  0  0  0  0
 32 24  1  0  0  0  0
 33 32  1  0  0  0  0
 35 32  1  0  0  0  0
 36 38  1  0  0  0  0
 36 39  1  0  0  0  0
 36 44  1  0  0  0  0
 37 36  1  0  0  0  0
 40 44  1  0  0  0  0
 40 42  1  0  0  0  0
 40 43  1  0  0  0  0
 41 40  1  0  0  0  0
 44  2  1  0  0  0  0
 45 44  1  0  0  0  0
 46 56  1  0  0  0  0
 46 60  1  0  0  0  0
 47 46  1  0  0  0  0
 48 50  1  0  0  0  0
 49 48  1  0  0  0  0
 51 48  1  0  0  0  0
 52 26  1  0  0  0  0
 53 52  1  0  0  0  0
 54 52  1  0  0  0  0
 55 52  1  0  0  0  0
 56 58  1  0  0  0  0
 56 59  1  0  0  0  0
 57 56  1  0  0  0  0
 60 63  1  0  0  0  0
 60 62  1  0  0  0  0
 61 60  1  0  0  0  0
 64  1  1  0  0  0  0
 65 64  1  0  0  0  0
M  END
