1,2,22
q = -1.0, confidence = 0.012

 63 65  0  0  0  0  0  0  0  0999 V2000
   -2.2899   -0.4921   -0.0045 P   0  0  0  0  0  0  0  0  0  0  0  0
    2.2900   -0.4916    0.0046 P   0  0  0  0  0  0  0  0  0  0  0  0
   -2.4737    1.3355    0.0763 C   0  0  0  0  0  0  0  0  0  0  0  0
   -3.6757    2.0232    0.1425 C   0  0  0  0  0  0  0  0  0  0  0  0
   -4.6346    1.4809    0.1653 H   0  0  0  0  0  0  0  0  0  0  0  0
   -3.6780    3.4503    0.1698 C   0  0  0  0  0  0  0  0  0  0  0  0
   -4.6363    3.9889    0.2238 H   0  0  0  0  0  0  0  0  0  0  0  0
   -2.4885    4.1548    0.1221 C   0  0  0  0  0  0  0  0  0  0  0  0
   -2.4949    5.2562    0.1364 H   0  0  0  0  0  0  0  0  0  0  0  0
   -1.2252    3.4795    0.0549 C   0  0  0  0  0  0  0  0  0  0  0  0
   -0.0005    4.1743   -0.0003 C   0  0  0  0  0  0  0  0  0  0  0  0
   -0.0007    5.2760   -0.0003 H   0  0  0  0  0  0  0  0  0  0  0  0
    1.2243    3.4798   -0.0554 C   0  0  0  0  0  0  0  0  0  0  0  0
    2.4874    4.1554   -0.1226 C   0  0  0  0  0  0  0  0  0  0  0  0
    2.4936    5.2568   -0.1370 H   0  0  0  0  0  0  0  0  0  0  0  0
    3.6771    3.4511   -0.1703 C   0  0  0  0  0  0  0  0  0  0  0  0
    4.6353    3.9901   -0.2243 H   0  0  0  0  0  0  0  0  0  0  0  0
    3.6752    2.0241   -0.1428 C   0  0  0  0  0  0  0  0  0  0  0  0
    4.6342    1.4821   -0.1656 H   0  0  0  0  0  0  0  0  0  0  0  0
    2.4734    1.3361   -0.0767 C   0  0  0  0  0  0  0  0  0  0  0  0
    1.2160    2.0273   -0.0427 C   0  0  0  0  0  0  0  0  0  0  0  0
   -0.0002    1.2763   -0.0003 C   0  0  0  0  0  3  0  0  0  0  0  0
   -1.2165    2.0270    0.0422 C   0  0  0  0  0  0  0  0  0  0  0  0
   -3.2433   -1.0051   -1.5434 C   0  0  0  0  0  0  0  0  0  0  0  0
   -4.3221   -0.9565   -1.2707 H   0  0  0  0  0  0  0  0  0  0  0  0
   -2.9545   -0.0247   -2.6878 C   0  0  0  0  0  0  0  0  0  0  0  0
   -1.8626    0.0314   -2.8801 H   0  0  0  0  0  0  0  0  0  0  0  0
   -3.3130    0.9987   -2.4694 H   0  0  0  0  0  0  0  0  0  0  0  0
   -3.4473   -0.3753   -3.6184 H   0  0  0  0  0  0  0  0  0  0  0  0
   -2.8727   -2.4353   -1.9582 C   0  0  0  0  0  0  0  0  0  0  0  0
   -3.4904   -2.7495   -2.8251 H   0  0  0  0  0  0  0  0  0  0  0  0
   -3.0151   -3.1778   -1.1512 H   0  0  0  0  0  0  0  0  0  0  0  0
   -1.8063   -2.4771   -2.2590 H   0  0  0  0  0  0  0  0  0  0  0  0
   -3.2828   -1.0787    1.4751 C   0  0  0  0  0  0  0  0  0  0  0  0
   -4.2804   -0.5943    1.3751 H   0  0  0  0  0  0  0  0  0  0  0  0
   -3.4626   -2.5993    1.5076 C   0  0  0  0  0  0  0  0  0  0  0  0
   -2.4845   -3.1211    1.4726 H   0  0  0  0  0  0  0  0  0  0  0  0
   -4.0832   -2.9713    0.6695 H   0  0  0  0  0  0  0  0  0  0  0  0
   -3.9677   -2.8968    2.4502 H   0  0  0  0  0  0  0  0  0  0  0  0
   -2.5904   -0.5608    2.7420 C   0  0  0  0  0  0  0  0  0  0  0  0
   -3.1682   -0.8545    3.6430 H   0  0  0  0  0  0  0  0  0  0  0  0
   -2.4928    0.5427    2.7370 H   0  0  0  0  0  0  0  0  0  0  0  0
   -1.5687   -0.9867    2.8213 H   0  0  0  0  0  0  0  0  0  0  0  0
    3.2846   -1.0786   -1.4737 C   0  0  0  0  0  0  0  0  0  0  0  0
    4.2818   -0.5937   -1.3731 H   0  0  0  0  0  0  0  0  0  0  0  0
    3.4651   -2.5991   -1.5052 C   0  0  0  0  0  0  0  0  0  0  0  0
    2.4871   -3.1214   -1.4709 H   0  0  0  0  0  0  0  0  0  0  0  0
    4.0849   -2.9703   -0.6661 H   0  0  0  0  0  0  0  0  0  0  0  0
    3.9713   -2.8969   -2.4470 H   0  0  0  0  0  0  0  0  0  0  0  0
    2.5930   -0.5616   -2.7415 C   0  0  0  0  0  0  0  0  0  0  0  0
    3.1717   -0.8556   -3.6418 H   0  0  0  0  0  0  0  0  0  0  0  0
    2.4950    0.5418   -2.7372 H   0  0  0  0  0  0  0  0  0  0  0  0
    1.5715   -0.9880   -2.8215 H   0  0  0  0  0  0  0  0  0  0  0  0
    3.2420   -1.0036    1.5447 C   0  0  0  0  0  0  0  0  0  0  0  0
    4.3211   -0.9547    1.2731 H   0  0  0  0  0  0  0  0  0  0  0  0
    2.8714   -2.4338    1.9597 C   0  0  0  0  0  0  0  0  0  0  0  0
    3.4884   -2.7475    2.8274 H   0  0  0  0  0  0  0  0  0  0  0  0
    3.0149   -3.1766    1.1531 H   0  0  0  0  0  0  0  0  0  0  0  0
    1.8048   -2.4758    2.2595 H   0  0  0  0  0  0  0  0  0  0  0  0
    2.9517   -0.0229    2.6885 C   0  0  0  0  0  0  0  0  0  0  0  0
    1.8596    0.0329    2.8797 H   0  0  0  0  0  0  0  0  0  0  0  0
    3.3100    1.0007    2.4700 H   0  0  0  0  0  0  0  0  0  0  0  0
    3.4437   -0.3729    3.6197 H   0  0  0  0  0  0  0  0  0  0  0  0
  1  3  1  0  0  0  0
  1 34  1  0  0  0  0
  2 54  1  0  0  0  0
  3  4  1  0  0  0  0
  4  5  1  0  0  0  0
  4  6  2  0  0  0  0
  6  7  1  0  0  0  0
  8  9  1  0  0  0  0
  8  6  1  0  0  0  0
 10  8  2  0  0  0  0
 11 10  1  0  0  0  0
 12 11  1  0  0  0  0
 13 21  1  0  0  0  0
 13 11  2  0  0  0  0
 14 13  1  0  0  0  0
 15 14  1  0  0  0  0
 16 18  1  0  0  0  0
 16 14  2  0  0  0  0
 17 16  1  0  0  0  0
 18 20  2  0  0  0  0
 19 18  1  0  0  0  0
 20 21  1  0  0  0  0
 20  2  1  0  0  0  0
 21 22  2  0  0  0  0
 22 23  1  0  0  0  0
 23 10  1  0  0  0  0
 23  3  2  0  0  0  0
 24 25  1  0  0  0  0
 24  1  1  0  0  0  0
 26 28  1  0  0  0  0
 26 24  1  0  0  0  0
 27 26  1  0  0  0  0
 29 26  1  0  0  0  0
 30 24  1  0  0  0  0
 30 32  1  0  0  0  0
 31 30  1  0  0  0  0
 33 30  1  0  0  0  0
 34 36  1  0  0  0  0
 34 40  1  0  0  0  0
 35 34  1  0  0  0  0
 36 39  1  0  0  0  0
 37 36  1  0  0  0  0
 38 36  1  0  0  0  0
 40 43  1  0  0  0  0
 40 41  1  0  0  0  0
 42 40  1  0  0  0  0
 44 45  1  0  0  0  0
 44  2  1  0  0  0  0
 46 44  1  0  0  0  0
 46 47  1  0  0  0  0
 46 48  1  0  0  0  0
 49 46  1  0  0  0  0
 50 52  1  0  0  0  0
 50 44  1  0  0  0  0
 51 50  1  0  0  0  0
 53 50  1  0  0  0  0
 54 56  1  0  0  0  0
 54 60  1  0  0  0  0
 55 54  1  0  0  0  0
 56 59  1  0  0  0  0
 56 57  1  0  0  0  0
 58 56  1  0  0  0  0
 60 61  1  0  0  0  0
 60 63  1  0  0  0  0
 62 60  1  0  0  0  0
M  END
