1,2,10
q = -1.0, confidence = 0.0

 55 58  0  0  0  0  0  0  0  0999 V2000
   -1.5069    0.6590   -0.4261 P   0  0  0  0  0  0  0  0  0  0  0  0
    1.8466    0.0228   -0.3926 P   0  0  0  0  0  0  0  0  0  0  0  0
   -1.0111    1.6306   -1.9682 C   0  0  0  0  0  0  0  0  0  0  0  0
   -1.8443    2.2820   -2.3024 H   0  0  0  0  0  0  0  0  0  0  0  0
   -0.2179    2.3080   -1.5830 H   0  0  0  0  0  0  0  0  0  0  0  0
   -0.5022    0.7542   -3.0674 C   0  0  0  0  0  0  0  0  0  0  0  0
   -0.8730    0.9645   -4.0846 H   0  0  0  0  0  0  0  0  0  0  0  0
    0.3575   -0.2933   -2.9197 C   0  0  0  0  0  0  0  0  0  0  0  0
    0.5947   -0.8505   -3.8454 H   0  0  0  0  0  0  0  0  0  0  0  0
    0.9693   -0.8483   -1.7061 C   0  0  0  0  0  3  0  0  0  0  0  0
    1.4932   -1.8006   -1.9237 H   0  0  0  0  0  0  0  0  0  0  0  0
   -1.9052    2.1101    0.6660 C   0  0  0  0  0  0  0  0  0  0  0  0
   -0.8157    2.9224    1.0538 C   0  0  0  0  0  0  0  0  0  0  0  0
    0.1930    2.6771    0.6887 H   0  0  0  0  0  0  0  0  0  0  0  0
   -1.0000    4.0277    1.8944 C   0  0  0  0  0  0  0  0  0  0  0  0
   -0.1346    4.6503    2.1711 H   0  0  0  0  0  0  0  0  0  0  0  0
   -2.2808    4.3343    2.3858 C   0  0  0  0  0  0  0  0  0  0  0  0
   -2.4281    5.1942    3.0568 H   0  0  0  0  0  0  0  0  0  0  0  0
   -3.3711    3.5369    2.0063 C   0  0  0  0  0  0  0  0  0  0  0  0
   -4.3814    3.7741    2.3749 H   0  0  0  0  0  0  0  0  0  0  0  0
   -3.1894    2.4411    1.1453 C   0  0  0  0  0  0  0  0  0  0  0  0
   -4.0610    1.8442    0.8395 H   0  0  0  0  0  0  0  0  0  0  0  0
   -3.1975    0.0474   -0.8637 C   0  0  0  0  0  0  0  0  0  0  0  0
   -3.7145    0.0728   -2.1769 C   0  0  0  0  0  0  0  0  0  0  0  0
   -3.1435    0.5514   -2.9845 H   0  0  0  0  0  0  0  0  0  0  0  0
   -4.9446   -0.5359   -2.4769 C   0  0  0  0  0  0  0  0  0  0  0  0
   -5.3216   -0.5151   -3.5113 H   0  0  0  0  0  0  0  0  0  0  0  0
   -5.6929   -1.1639   -1.4702 C   0  0  0  0  0  0  0  0  0  0  0  0
   -6.6577   -1.6372   -1.7075 H   0  0  0  0  0  0  0  0  0  0  0  0
   -5.1972   -1.1835   -0.1544 C   0  0  0  0  0  0  0  0  0  0  0  0
   -5.7757   -1.6691    0.6470 H   0  0  0  0  0  0  0  0  0  0  0  0
   -3.9593   -0.5969    0.1393 C   0  0  0  0  0  0  0  0  0  0  0  0
   -3.5657   -0.6398    1.1659 H   0  0  0  0  0  0  0  0  0  0  0  0
    2.3798    1.7293   -0.8275 C   0  0  0  0  0  0  0  0  0  0  0  0
    2.5147    2.1627   -2.1628 C   0  0  0  0  0  0  0  0  0  0  0  0
    2.3006    1.4635   -2.9836 H   0  0  0  0  0  0  0  0  0  0  0  0
    2.8982    3.4844   -2.4413 C   0  0  0  0  0  0  0  0  0  0  0  0
    2.9900    3.8149   -3.4876 H   0  0  0  0  0  0  0  0  0  0  0  0
    3.1694    4.3810   -1.3956 C   0  0  0  0  0  0  0  0  0  0  0  0
    3.4703    5.4159   -1.6188 H   0  0  0  0  0  0  0  0  0  0  0  0
    3.0595    3.9506   -0.0627 C   0  0  0  0  0  0  0  0  0  0  0  0
    3.2805    4.6447    0.7629 H   0  0  0  0  0  0  0  0  0  0  0  0
    2.6628    2.6357    0.2189 C   0  0  0  0  0  0  0  0  0  0  0  0
    2.5720    2.3036    1.2649 H   0  0  0  0  0  0  0  0  0  0  0  0
    3.4628   -0.8220   -0.1131 C   0  0  0  0  0  0  0  0  0  0  0  0
    3.3979   -2.1224    0.4271 C   0  0  0  0  0  0  0  0  0  0  0  0
    2.3982   -2.5228    0.6601 H   0  0  0  0  0  0  0  0  0  0  0  0
    4.5666   -2.8592    0.6598 C   0  0  0  0  0  0  0  0  0  0  0  0
    4.5008   -3.8777    1.0737 H   0  0  0  0  0  0  0  0  0  0  0  0
    5.8205   -2.2899    0.3788 C   0  0  0  0  0  0  0  0  0  0  0  0
    6.7426   -2.8589    0.5728 H   0  0  0  0  0  0  0  0  0  0  0  0
    5.8933   -0.9879   -0.1436 C   0  0  0  0  0  0  0  0  0  0  0  0
    6.8742   -0.5379   -0.3628 H   0  0  0  0  0  0  0  0  0  0  0  0
    4.7223   -0.2548   -0.3941 C   0  0  0  0  0  0  0  0  0  0  0  0
    4.7870    0.7610   -0.8125 H   0  0  0  0  0  0  0  0  0  0  0  0
  1 12  1  0  0  0  0
  2 45  1  0  0  0  0
  3  5  1  0  0  0  0
  3  1  1  0  0  0  0
  4  3  1  0  0  0  0
  6  8  2  0  0  0  0
  6  3  1  0  0  0  0
  7  6  1  0  0  0  0
  8 10  1  0  0  0  0
  9  8  1  0  0  0  0
 10  2  1  0  0  0  0
 11 10  1  0  0  0  0
 12 13  2  0  0  0  0
 12 21  1  0  0  0  0
 13 15  1  0  0  0  0
 14 13  1  0  0  0  0
 15 16  1  0  0  0  0
 15 17  2  0  0  0  0
 17 18  1  0  0  0  0
 19 20  1  0  0  0  0
 19 17  1  0  0  0  0
 21 19  2  0  0  0  0
 22 21  1  0  0  0  0
 23  1  1  0  0  0  0
 23 32  1  0  0  0  0
 24 23  2  0  0  0  0
 25 24  1  0  0  0  0
 26 24  1  0  0  0  0
 26 28  2  0  0  0  0
 27 26  1  0  0  0  0
 28 30  1  0  0  0  0
 29 28  1  0  0  0  0
 30 32  2  0  0  0  0
 30 31  1  0  0  0  0
 32 33  1  0  0  0  0
 34  2  1  0  0  0  0
 34 43  1  0  0  0  0
 35 34  2  0  0  0  0
 36 35  1  0  0  0  0
 37 35  1  0  0  0  0
 37 39  2  0  0  0  0
 38 37  1  0  0  0  0
 39 41  1  0  0  0  0
 40 39  1  0  0  0  0
 41 43  2  0  0  0  0
 41 42  1  0  0  0  0
 43 44  1  0  0  0  0
 45 46  1  0  0  0  0
 46 48  2  0  0  0  0
 46 47  1  0  0  0  0
 48 49  1  0  0  0  0
 50 51  1  0  0  0  0
 50 48  1  0  0  0  0
 52 50  2  0  0  0  0
 53 52  1  0  0  0  0
 54 52  1  0  0  0  0
 54 45  2  0  0  0  0
 55 54  1  0  0  0  0
M  END
