1,2,5
q = -1.0, confidence = 0.006

 69 69  0  0  0  0  0  0  0  0999 V2000
   -2.2031   -0.3921    0.0069 P   0  0  0  0  0  0  0  0  0  0  0  0
    1.9765   -0.8812   -0.0101 P   0  0  0  0  0  0  0  0  0  0  0  0
   -2.2908    1.3260    0.0838 O   0  0  0  0  0  0  0  0  0  0  0  0
    2.4585    0.7726   -0.0694 O   0  0  0  0  0  0  0  0  0  0  0  0
    0.0800    1.0114    0.0069 C   0  0  0  0  0  3  0  0  0  0  0  0
   -1.0267    1.8914    0.0496 C   0  0  0  0  0  0  0  0  0  0  0  0
   -0.8918    3.2834    0.0537 C   0  0  0  0  0  0  0  0  0  0  0  0
   -1.7624    3.9511    0.0844 H   0  0  0  0  0  0  0  0  0  0  0  0
    0.4117    3.8315    0.0169 C   0  0  0  0  0  0  0  0  0  0  0  0
    1.5540    3.0013   -0.0246 C   0  0  0  0  0  0  0  0  0  0  0  0
    2.5746    3.4007   -0.0528 H   0  0  0  0  0  0  0  0  0  0  0  0
    1.3544    1.6096   -0.0300 C   0  0  0  0  0  0  0  0  0  0  0  0
   -3.1474   -0.8275    1.5842 C   0  0  0  0  0  0  0  0  0  0  0  0
   -2.0941   -0.6332    2.6962 C   0  0  0  0  0  0  0  0  0  0  0  0
   -2.5527   -0.8576    3.6829 H   0  0  0  0  0  0  0  0  0  0  0  0
   -1.7102    0.4062    2.7206 H   0  0  0  0  0  0  0  0  0  0  0  0
   -1.2318   -1.3144    2.5444 H   0  0  0  0  0  0  0  0  0  0  0  0
   -3.5659   -2.3049    1.5327 C   0  0  0  0  0  0  0  0  0  0  0  0
   -3.9217   -2.6207    2.5364 H   0  0  0  0  0  0  0  0  0  0  0  0
   -2.7119   -2.9548    1.2524 H   0  0  0  0  0  0  0  0  0  0  0  0
   -4.3941   -2.4798    0.8178 H   0  0  0  0  0  0  0  0  0  0  0  0
   -4.3485    0.0926    1.8483 C   0  0  0  0  0  0  0  0  0  0  0  0
   -4.7480   -0.1163    2.8637 H   0  0  0  0  0  0  0  0  0  0  0  0
   -5.1714   -0.0680    1.1275 H   0  0  0  0  0  0  0  0  0  0  0  0
   -4.0514    1.1577    1.8045 H   0  0  0  0  0  0  0  0  0  0  0  0
   -3.1636   -0.6921   -1.5925 C   0  0  0  0  0  0  0  0  0  0  0  0
   -2.3682    0.0874   -2.6611 C   0  0  0  0  0  0  0  0  0  0  0  0
   -2.8188   -0.1017   -3.6582 H   0  0  0  0  0  0  0  0  0  0  0  0
   -1.3076   -0.2346   -2.6912 H   0  0  0  0  0  0  0  0  0  0  0  0
   -2.3864    1.1774   -2.4696 H   0  0  0  0  0  0  0  0  0  0  0  0
   -3.1141   -2.1940   -1.9219 C   0  0  0  0  0  0  0  0  0  0  0  0
   -3.5168   -2.3584   -2.9439 H   0  0  0  0  0  0  0  0  0  0  0  0
   -3.7191   -2.8006   -1.2213 H   0  0  0  0  0  0  0  0  0  0  0  0
   -2.0726   -2.5712   -1.8862 H   0  0  0  0  0  0  0  0  0  0  0  0
   -4.6065   -0.1735   -1.5403 C   0  0  0  0  0  0  0  0  0  0  0  0
   -5.0548   -0.2317   -2.5553 H   0  0  0  0  0  0  0  0  0  0  0  0
   -4.6438    0.8837   -1.2119 H   0  0  0  0  0  0  0  0  0  0  0  0
   -5.2427   -0.7782   -0.8649 H   0  0  0  0  0  0  0  0  0  0  0  0
    2.8382   -1.4105    1.5860 C   0  0  0  0  0  0  0  0  0  0  0  0
    2.2421   -0.4784    2.6621 C   0  0  0  0  0  0  0  0  0  0  0  0
    2.6312   -0.7780    3.6580 H   0  0  0  0  0  0  0  0  0  0  0  0
    1.1355   -0.5434    2.6858 H   0  0  0  0  0  0  0  0  0  0  0  0
    2.5152    0.5791    2.4828 H   0  0  0  0  0  0  0  0  0  0  0  0
    2.4411   -2.8634    1.9003 C   0  0  0  0  0  0  0  0  0  0  0  0
    2.7923   -3.1265    2.9206 H   0  0  0  0  0  0  0  0  0  0  0  0
    2.8907   -3.5869    1.1937 H   0  0  0  0  0  0  0  0  0  0  0  0
    1.3407   -2.9886    1.8606 H   0  0  0  0  0  0  0  0  0  0  0  0
    4.3625   -1.2404    1.5409 C   0  0  0  0  0  0  0  0  0  0  0  0
    4.7813   -1.4100    2.5559 H   0  0  0  0  0  0  0  0  0  0  0  0
    4.6451   -0.2178    1.2226 H   0  0  0  0  0  0  0  0  0  0  0  0
    4.8441   -1.9701    0.8608 H   0  0  0  0  0  0  0  0  0  0  0  0
    2.8001   -1.5052   -1.5915 C   0  0  0  0  0  0  0  0  0  0  0  0
    1.8206   -1.0663   -2.7012 C   0  0  0  0  0  0  0  0  0  0  0  0
    2.2206   -1.3743   -3.6909 H   0  0  0  0  0  0  0  0  0  0  0  0
    1.6780    0.0328   -2.7110 H   0  0  0  0  0  0  0  0  0  0  0  0
    0.8275   -1.5394   -2.5590 H   0  0  0  0  0  0  0  0  0  0  0  0
    2.8716   -3.0396   -1.5536 C   0  0  0  0  0  0  0  0  0  0  0  0
    3.1465   -3.4192   -2.5605 H   0  0  0  0  0  0  0  0  0  0  0  0
    1.8920   -3.4806   -1.2776 H   0  0  0  0  0  0  0  0  0  0  0  0
    3.6379   -3.4043   -0.8415 H   0  0  0  0  0  0  0  0  0  0  0  0
    4.1795   -0.8804   -1.8469 C   0  0  0  0  0  0  0  0  0  0  0  0
    4.5266   -1.1711   -2.8614 H   0  0  0  0  0  0  0  0  0  0  0  0
    4.9408   -1.2251   -1.1231 H   0  0  0  0  0  0  0  0  0  0  0  0
    4.1309    0.2241   -1.7997 H   0  0  0  0  0  0  0  0  0  0  0  0
    0.4715    5.1963    0.0243 O   0  0  0  0  0  0  0  0  0  0  0  0
    1.7417    5.8103   -0.0132 C   0  0  0  0  0  0  0  0  0  0  0  0
    1.5647    6.9024   -0.0011 H   0  0  0  0  0  0  0  0  0  0  0  0
    2.3068    5.5471   -0.9364 H   0  0  0  0  0  0  0  0  0  0  0  0
    2.3652    5.5366    0.8685 H   0  0  0  0  0  0  0  0  0  0  0  0
  1  3  1  0  0  0  0
  1 13  1  0  0  0  0
  2 39  1  0  0  0  0
  4 12  1  0  0  0  0
  4  2  1  0  0  0  0
  5  6  1  0  0  0  0
  6  7  2  0  0  0  0
  6  3  1  0  0  0  0
  7  8  1  0  0  0  0
  9 65  1  0  0  0  0
  9  7  1  0  0  0  0
 10  9  2  0  0  0  0
 11 10  1  0  0  0  0
 12 10  1  0  0  0  0
 12  5  2  0  0  0  0
 13 22  1  0  0  0  0
 13 14  1  0  0  0  0
 14 16  1  0  0  0  0
 14 15  1  0  0  0  0
 17 14  1  0  0  0  0
 18 13  1  0  0  0  0
 18 19  1  0  0  0  0
 20 18  1  0  0  0  0
 21 18  1  0  0  0  0
 22 23  1  0  0  0  0
 24 22  1  0  0  0  0
 25 22  1  0  0  0  0
 26 35  1  0  0  0  0
 26  1  1  0  0  0  0
 27 30  1  0  0  0  0
 27 26  1  0  0  0  0
 28 27  1  0  0  0  0
 29 27  1  0  0  0  0
 31 34  1  0  0  0  0
 31 26  1  0  0  0  0
 31 33  1  0  0  0  0
 32 31  1  0  0  0  0
 35 37  1  0  0  0  0
 35 38  1  0  0  0  0
 36 35  1  0  0  0  0
 39 44  1  0  0  0  0
 39 40  1  0  0  0  0
 40 42  1  0  0  0  0
 40 41  1  0  0  0  0
 43 40  1  0  0  0  0
 44 45  1  0  0  0  0
 46 44  1  0  0  0  0
 47 44  1  0  0  0  0
 48 39  1  0  0  0  0
 48 49  1  0  0  0  0
 50 48  1  0  0  0  0
 51 48  1  0  0  0  0
 52 57  1  0  0  0  0
 52  2  1  0  0  0  0
 53 56  1  0  0  0  0
 53 52  1  0  0  0  0
 54 53  1  0  0  0  0
 55 53  1  0  0  0  0
 57 59  1  0  0  0  0
 57 60  1  0  0  0  0
 58 57  1  0  0  0  0
 61 64  1  0  0  0  0
 61 52  1  0  0  0  0
 61 63  1  0  0  0  0
 62 61  1  0  0  0  0
 66 67  1  0  0  0  0
 66 65  1  0  0  0  0
 66 69  1  0  0  0  0
 68 66  1  0  0  0  0
M  END
