1,2,5
q = 0.0, confidence = 0.982

 65 70  0  0  0  0  0  0  0  0999 V2000
   -2.2736    0.0508    0.0072 P   0  0  0  0  0  0  0  0  0  0  0  0
    2.2503    0.1096    0.1959 P   0  0  0  0  0  0  0  0  0  0  0  0
   -1.1349    2.4917   -0.1598 N   0  0  0  0  0  0  0  0  0  0  0  0
    1.0518    2.5277    0.0985 N   0  0  0  0  0  0  0  0  0  0  0  0
   -0.0379    1.6918    0.0547 C   0  0  0  0  0  2  0  0  0  0  0  0
   -0.7536    3.8320   -0.2503 C   0  0  0  0  0  0  0  0  0  0  0  0
   -1.4831    5.0083   -0.4642 C   0  0  0  0  0  0  0  0  0  0  0  0
   -0.7589    6.2106   -0.4947 C   0  0  0  0  0  0  0  0  0  0  0  0
    0.6420    6.2347   -0.3182 C   0  0  0  0  0  0  0  0  0  0  0  0
    1.3768    5.0575   -0.1059 C   0  0  0  0  0  0  0  0  0  0  0  0
    0.6579    3.8557   -0.0778 C   0  0  0  0  0  0  0  0  0  0  0  0
   -2.4559    1.9143   -0.3241 C   0  0  0  0  0  0  0  0  0  0  0  0
    2.3837    1.9957    0.3267 C   0  0  0  0  0  0  0  0  0  0  0  0
   -3.1767   -0.7395   -1.3818 C   0  0  0  0  0  0  0  0  0  0  0  0
   -4.1795   -1.7102   -1.1817 C   0  0  0  0  0  0  0  0  0  0  0  0
   -4.7374   -2.3809   -2.2831 C   0  0  0  0  0  0  0  0  0  0  0  0
   -4.3031   -2.0892   -3.5847 C   0  0  0  0  0  0  0  0  0  0  0  0
   -3.2983   -1.1272   -3.7885 C   0  0  0  0  0  0  0  0  0  0  0  0
   -2.7290   -0.4629   -2.6938 C   0  0  0  0  0  0  0  0  0  0  0  0
   -3.2761   -0.2306    1.5116 C   0  0  0  0  0  0  0  0  0  0  0  0
   -2.6252   -0.7497    2.6495 C   0  0  0  0  0  0  0  0  0  0  0  0
   -3.3432   -0.9573    3.8371 C   0  0  0  0  0  0  0  0  0  0  0  0
   -4.7099   -0.6431    3.8937 C   0  0  0  0  0  0  0  0  0  0  0  0
   -5.3613   -0.1168    2.7646 C   0  0  0  0  0  0  0  0  0  0  0  0
   -4.6497    0.0913    1.5748 C   0  0  0  0  0  0  0  0  0  0  0  0
    3.1196   -0.3463   -1.3483 C   0  0  0  0  0  0  0  0  0  0  0  0
    3.6746   -1.6412   -1.4522 C   0  0  0  0  0  0  0  0  0  0  0  0
    4.2365   -2.0612   -2.6671 C   0  0  0  0  0  0  0  0  0  0  0  0
    4.2422   -1.2058   -3.7811 C   0  0  0  0  0  0  0  0  0  0  0  0
    3.6740    0.0748   -3.6834 C   0  0  0  0  0  0  0  0  0  0  0  0
    3.1075    0.5035   -2.4740 C   0  0  0  0  0  0  0  0  0  0  0  0
    3.2894   -0.4951    1.5659 C   0  0  0  0  0  0  0  0  0  0  0  0
    2.6503   -1.0219    2.7053 C   0  0  0  0  0  0  0  0  0  0  0  0
    3.4162   -1.4507    3.7985 C   0  0  0  0  0  0  0  0  0  0  0  0
    4.8162   -1.3574    3.7546 C   0  0  0  0  0  0  0  0  0  0  0  0
    5.4553   -0.8356    2.6171 C   0  0  0  0  0  0  0  0  0  0  0  0
    4.6964   -0.4046    1.5200 C   0  0  0  0  0  0  0  0  0  0  0  0
   -2.5735    4.9929   -0.6004 H   0  0  0  0  0  0  0  0  0  0  0  0
   -1.2962    7.1559   -0.6582 H   0  0  0  0  0  0  0  0  0  0  0  0
    1.1705    7.1985   -0.3457 H   0  0  0  0  0  0  0  0  0  0  0  0
    2.4664    5.0800    0.0352 H   0  0  0  0  0  0  0  0  0  0  0  0
   -2.8334    2.0760   -1.3551 H   0  0  0  0  0  0  0  0  0  0  0  0
   -3.1757    2.3602    0.3921 H   0  0  0  0  0  0  0  0  0  0  0  0
    2.7391    2.2390    1.3496 H   0  0  0  0  0  0  0  0  0  0  0  0
    3.1072    2.4094   -0.4044 H   0  0  0  0  0  0  0  0  0  0  0  0
   -4.5311   -1.9425   -0.1655 H   0  0  0  0  0  0  0  0  0  0  0  0
   -5.5223   -3.1344   -2.1191 H   0  0  0  0  0  0  0  0  0  0  0  0
   -4.7458   -2.6138   -4.4443 H   0  0  0  0  0  0  0  0  0  0  0  0
   -2.9510   -0.8985   -4.8072 H   0  0  0  0  0  0  0  0  0  0  0  0
   -1.9171    0.2648   -2.8567 H   0  0  0  0  0  0  0  0  0  0  0  0
   -1.5458   -0.9696    2.5902 H   0  0  0  0  0  0  0  0  0  0  0  0
   -2.8320   -1.3608    4.7238 H   0  0  0  0  0  0  0  0  0  0  0  0
   -5.2731   -0.8047    4.8250 H   0  0  0  0  0  0  0  0  0  0  0  0
   -6.4316    0.1335    2.8124 H   0  0  0  0  0  0  0  0  0  0  0  0
   -5.1688    0.4989    0.6928 H   0  0  0  0  0  0  0  0  0  0  0  0
    3.6446   -2.3231   -0.5889 H   0  0  0  0  0  0  0  0  0  0  0  0
    4.6756   -3.0675   -2.7415 H   0  0  0  0  0  0  0  0  0  0  0  0
    4.6885   -1.5388   -4.7300 H   0  0  0  0  0  0  0  0  0  0  0  0
    3.6707    0.7461   -4.5553 H   0  0  0  0  0  0  0  0  0  0  0  0
    2.6462    1.5019   -2.4188 H   0  0  0  0  0  0  0  0  0  0  0  0
    1.5519   -1.1004    2.7165 H   0  0  0  0  0  0  0  0  0  0  0  0
    2.9185   -1.8689    4.6860 H   0  0  0  0  0  0  0  0  0  0  0  0
    5.4164   -1.6996    4.6110 H   0  0  0  0  0  0  0  0  0  0  0  0
    6.5529   -0.7683    2.5826 H   0  0  0  0  0  0  0  0  0  0  0  0
    5.1997   -0.0104    0.6235 H   0  0  0  0  0  0  0  0  0  0  0  0
  1 20  1  0  0  0  0
  2 13  1  0  0  0  0
  2 32  1  0  0  0  0
  3  5  1  0  0  0  0
  4 13  1  0  0  0  0
  5  4  1  0  0  0  0
  6  3  1  0  0  0  0
  6 11  1  0  0  0  0
  7  6  2  0  0  0  0
  8  7  1  0  0  0  0
  8  9  2  0  0  0  0
  9 10  1  0  0  0  0
 10 11  2  0  0  0  0
 10 41  1  0  0  0  0
 11  4  1  0  0  0  0
 12  3  1  0  0  0  0
 12  1  1  0  0  0  0
 12 43  1  0  0  0  0
 13 44  1  0  0  0  0
 14 15  1  0  0  0  0
 14  1  1  0  0  0  0
 15 46  1  0  0  0  0
 16 47  1  0  0  0  0
 16 15  2  0  0  0  0
 17 16  1  0  0  0  0
 18 17  2  0  0  0  0
 18 19  1  0  0  0  0
 19 14  2  0  0  0  0
 20 25  2  0  0  0  0
 20 21  1  0  0  0  0
 21 22  2  0  0  0  0
 22 23  1  0  0  0  0
 22 52  1  0  0  0  0
 23 53  1  0  0  0  0
 24 54  1  0  0  0  0
 24 23  2  0  0  0  0
 25 24  1  0  0  0  0
 26  2  1  0  0  0  0
 27 26  1  0  0  0  0
 27 56  1  0  0  0  0
 28 27  2  0  0  0  0
 29 30  2  0  0  0  0
 29 28  1  0  0  0  0
 30 31  1  0  0  0  0
 31 60  1  0  0  0  0
 31 26  2  0  0  0  0
 32 33  1  0  0  0  0
 33 61  1  0  0  0  0
 33 34  2  0  0  0  0
 34 62  1  0  0  0  0
 35 34  1  0  0  0  0
 35 63  1  0  0  0  0
 36 35  2  0  0  0  0
 37 32  2  0  0  0  0
 37 36  1  0  0  0  0
 38  7  1  0  0  0  0
 39  8  1  0  0  0  0
 40  9  1  0  0  0  0
 42 12  1  0  0  0  0
 45 13  1  0  0  0  0
 48 17  1  0  0  0  0
 49 18  1  0  0  0  0
 50 19  1  0  0  0  0
 51 21  1  0  0  0  0
 55 25  1  0  0  0  0
 57 28  1  0  0  0  0
 58 29  1  0  0  0  0
 59 30  1  0  0  0  0
 64 36  1  0  0  0  0
 65 37  1  0  0  0  0
M  END
