1,2,6
q = -1.0, confidence = 0.004

 63 68  0  0  0  0  0  0  0  0999 V2000
   -1.9124   -0.6485    0.0127 P   0  0  0  0  0  0  0  0  0  0  0  0
    2.2675    0.1368   -0.0339 P   0  0  0  0  0  0  0  0  0  0  0  0
   -2.4853    0.9501    0.0731 O   0  0  0  0  0  0  0  0  0  0  0  0
    2.2340    1.8299   -0.0163 O   0  0  0  0  0  0  0  0  0  0  0  0
   -1.4272    1.8429    0.0693 C   0  0  0  0  0  0  0  0  0  0  0  0
   -0.1215    1.3415    0.0282 C   0  0  0  0  0  3  0  0  0  0  0  0
    0.9345    2.3092    0.0189 C   0  0  0  0  0  0  0  0  0  0  0  0
    0.7116    3.6756    0.0445 C   0  0  0  0  0  0  0  0  0  0  0  0
    1.5602    4.3741    0.0331 H   0  0  0  0  0  0  0  0  0  0  0  0
   -0.9244    5.5593    0.1157 C   0  0  0  0  0  0  0  0  0  0  0  0
   -0.0875    6.2749    0.1024 H   0  0  0  0  0  0  0  0  0  0  0  0
   -2.2353    6.0143    0.1604 C   0  0  0  0  0  0  0  0  0  0  0  0
   -2.4392    7.0958    0.1820 H   0  0  0  0  0  0  0  0  0  0  0  0
   -3.3167    5.0937    0.1806 C   0  0  0  0  0  0  0  0  0  0  0  0
   -4.3517    5.4654    0.2201 H   0  0  0  0  0  0  0  0  0  0  0  0
   -3.0690    3.7282    0.1534 C   0  0  0  0  0  0  0  0  0  0  0  0
   -3.8941    3.0022    0.1754 H   0  0  0  0  0  0  0  0  0  0  0  0
   -1.7336    3.2364    0.1035 C   0  0  0  0  0  0  0  0  0  0  0  0
   -0.6271    4.1655    0.0870 C   0  0  0  0  0  0  0  0  0  0  0  0
   -2.7468   -1.4181    1.4379 C   0  0  0  0  0  0  0  0  0  0  0  0
   -4.1401   -1.2773    1.6072 C   0  0  0  0  0  0  0  0  0  0  0  0
   -4.7339   -0.7277    0.8608 H   0  0  0  0  0  0  0  0  0  0  0  0
   -4.7607   -1.8385    2.7304 C   0  0  0  0  0  0  0  0  0  0  0  0
   -5.8467   -1.7259    2.8692 H   0  0  0  0  0  0  0  0  0  0  0  0
   -3.9986   -2.5480    3.6756 C   0  0  0  0  0  0  0  0  0  0  0  0
   -4.4914   -2.9917    4.5542 H   0  0  0  0  0  0  0  0  0  0  0  0
   -2.6143   -2.6949    3.4998 C   0  0  0  0  0  0  0  0  0  0  0  0
   -2.0194   -3.2550    4.2370 H   0  0  0  0  0  0  0  0  0  0  0  0
   -1.9810   -2.1256    2.3843 C   0  0  0  0  0  0  0  0  0  0  0  0
   -0.8993   -2.2482    2.2207 H   0  0  0  0  0  0  0  0  0  0  0  0
   -2.7867   -1.2889   -1.4515 C   0  0  0  0  0  0  0  0  0  0  0  0
   -3.6161   -0.4621   -2.2342 C   0  0  0  0  0  0  0  0  0  0  0  0
   -3.7483    0.5936   -1.9564 H   0  0  0  0  0  0  0  0  0  0  0  0
   -4.2608   -0.9969   -3.3603 C   0  0  0  0  0  0  0  0  0  0  0  0
   -4.9120   -0.3531   -3.9711 H   0  0  0  0  0  0  0  0  0  0  0  0
   -4.0740   -2.3436   -3.7088 C   0  0  0  0  0  0  0  0  0  0  0  0
   -4.5804   -2.7579   -4.5939 H   0  0  0  0  0  0  0  0  0  0  0  0
   -3.2342   -3.1614   -2.9333 C   0  0  0  0  0  0  0  0  0  0  0  0
   -3.0775   -4.2144   -3.2127 H   0  0  0  0  0  0  0  0  0  0  0  0
   -2.5862   -2.6403   -1.8060 C   0  0  0  0  0  0  0  0  0  0  0  0
   -1.9040   -3.2668   -1.2095 H   0  0  0  0  0  0  0  0  0  0  0  0
    3.3351   -0.2299    1.4021 C   0  0  0  0  0  0  0  0  0  0  0  0
    4.0789    0.7866    2.0332 C   0  0  0  0  0  0  0  0  0  0  0  0
    4.0004    1.8227    1.6733 H   0  0  0  0  0  0  0  0  0  0  0  0
    4.9020    0.4655    3.1226 C   0  0  0  0  0  0  0  0  0  0  0  0
    5.4824    1.2584    3.6187 H   0  0  0  0  0  0  0  0  0  0  0  0
    4.9835   -0.8592    3.5814 C   0  0  0  0  0  0  0  0  0  0  0  0
    5.6309   -1.1057    4.4367 H   0  0  0  0  0  0  0  0  0  0  0  0
    4.2321   -1.8675    2.9555 C   0  0  0  0  0  0  0  0  0  0  0  0
    4.2850   -2.9039    3.3220 H   0  0  0  0  0  0  0  0  0  0  0  0
    3.4018   -1.5590    1.8685 C   0  0  0  0  0  0  0  0  0  0  0  0
    2.7852   -2.3374    1.3898 H   0  0  0  0  0  0  0  0  0  0  0  0
    3.3027   -0.2044   -1.4987 C   0  0  0  0  0  0  0  0  0  0  0  0
    3.2489   -1.4861   -2.0829 C   0  0  0  0  0  0  0  0  0  0  0  0
    2.5603   -2.2436   -1.6734 H   0  0  0  0  0  0  0  0  0  0  0  0
    4.0605   -1.7731   -3.1904 C   0  0  0  0  0  0  0  0  0  0  0  0
    4.0198   -2.7727   -3.6491 H   0  0  0  0  0  0  0  0  0  0  0  0
    4.9102   -0.7885   -3.7197 C   0  0  0  0  0  0  0  0  0  0  0  0
    5.5412   -1.0170   -4.5922 H   0  0  0  0  0  0  0  0  0  0  0  0
    4.9489    0.4918   -3.1430 C   0  0  0  0  0  0  0  0  0  0  0  0
    5.6070    1.2673   -3.5637 H   0  0  0  0  0  0  0  0  0  0  0  0
    4.1479    0.7897   -2.0315 C   0  0  0  0  0  0  0  0  0  0  0  0
    4.1636    1.7927   -1.5807 H   0  0  0  0  0  0  0  0  0  0  0  0
  1  3  1  0  0  0  0
  1 20  1  0  0  0  0
  2  4  1  0  0  0  0
  2 42  1  0  0  0  0
  4  7  1  0  0  0  0
  5  3  1  0  0  0  0
  5 18  1  0  0  0  0
  6  5  2  0  0  0  0
  7  6  1  0  0  0  0
  7  8  2  0  0  0  0
  8 19  1  0  0  0  0
  9  8  1  0  0  0  0
 10 12  1  0  0  0  0
 11 10  1  0  0  0  0
 12 14  2  0  0  0  0
 12 13  1  0  0  0  0
 14 15  1  0  0  0  0
 16 17  1  0  0  0  0
 16 14  1  0  0  0  0
 18 16  2  0  0  0  0
 19 18  1  0  0  0  0
 19 10  2  0  0  0  0
 20 21  2  0  0  0  0
 20 29  1  0  0  0  0
 21 23  1  0  0  0  0
 22 21  1  0  0  0  0
 23 24  1  0  0  0  0
 23 25  2  0  0  0  0
 25 26  1  0  0  0  0
 27 25  1  0  0  0  0
 27 28  1  0  0  0  0
 29 27  2  0  0  0  0
 30 29  1  0  0  0  0
 31  1  1  0  0  0  0
 32 33  1  0  0  0  0
 32 31  2  0  0  0  0
 34 32  1  0  0  0  0
 35 34  1  0  0  0  0
 36 34  2  0  0  0  0
 36 38  1  0  0  0  0
 37 36  1  0  0  0  0
 38 40  2  0  0  0  0
 39 38  1  0  0  0  0
 40 31  1  0  0  0  0
 40 41  1  0  0  0  0
 42 51  2  0  0  0  0
 42 43  1  0  0  0  0
 43 45  2  0  0  0  0
 44 43  1  0  0  0  0
 45 47  1  0  0  0  0
 45 46  1  0  0  0  0
 47 48  1  0  0  0  0
 49 50  1  0  0  0  0
 49 47  2  0  0  0  0
 51 49  1  0  0  0  0
 52 51  1  0  0  0  0
 53  2  1  0  0  0  0
 54 55  1  0  0  0  0
 54 53  2  0  0  0  0
 56 54  1  0  0  0  0
 57 56  1  0  0  0  0
 58 56  2  0  0  0  0
 58 60  1  0  0  0  0
 59 58  1  0  0  0  0
 60 62  2  0  0  0  0
 61 60  1  0  0  0  0
 62 63  1  0  0  0  0
 62 53  1  0  0  0  0
M  END
