1,3
q = -1.0

 38 38  0  0  1  0  0  0  0  0999 V2000
   -0.0148    1.1931   -0.0673 N   0  0  0  0  0  2  0  0  0  0  0  0
   -2.0279    0.0995   -0.1736 N   0  0  0  0  0  0  0  0  0  0  0  0
   -1.1535   -1.1404   -0.0931 B   0  0  0  0  0  0  0  0  0  0  0  0
   -0.4927   -1.7134   -1.3341 C   0  0  0  0  0  0  0  0  0  0  0  0
   -0.7237   -1.3595   -2.3526 H   0  0  0  0  0  0  0  0  0  0  0  0
    0.5449   -2.6545   -1.2001 C   0  0  0  0  0  0  0  0  0  0  0  0
    1.0752   -3.0319   -2.0892 H   0  0  0  0  0  0  0  0  0  0  0  0
    1.0157   -3.0619    0.0752 C   0  0  0  0  0  3  0  0  0  0  0  0
    1.8720   -3.7493    0.1401 H   0  0  0  0  0  0  0  0  0  0  0  0
    0.3978   -2.6053    1.2674 C   0  0  0  0  0  0  0  0  0  0  0  0
    0.8187   -2.9441    2.2277 H   0  0  0  0  0  0  0  0  0  0  0  0
   -0.6469   -1.6615    1.2404 C   0  0  0  0  0  0  0  0  0  0  0  0
   -0.9901   -1.2659    2.2108 H   0  0  0  0  0  0  0  0  0  0  0  0
   -1.3449    1.2649   -0.1364 C   0  0  2  0  0  3  0  0  0  0  0  0
   -2.1237    2.5594   -0.1799 C   0  0  0  0  0  0  0  0  0  0  0  0
   -2.7204    2.6214   -1.1120 H   0  0  0  0  0  0  0  0  0  0  0  0
   -1.4642    3.4370   -0.1388 H   0  0  0  0  0  0  0  0  0  0  0  0
   -2.8297    2.6193    0.6720 H   0  0  0  0  0  0  0  0  0  0  0  0
    0.9056    2.3490   -0.0491 C   0  0  0  0  0  0  0  0  0  0  0  0
    1.9219    1.8851   -0.0002 H   0  0  0  0  0  0  0  0  0  0  0  0
    0.8137    3.1860    1.2345 C   0  0  0  0  0  0  0  0  0  0  0  0
   -0.1315    3.7576    1.3203 H   0  0  0  0  0  0  0  0  0  0  0  0
    1.6490    3.9137    1.2672 H   0  0  0  0  0  0  0  0  0  0  0  0
    0.9091    2.5202    2.1146 H   0  0  0  0  0  0  0  0  0  0  0  0
    0.9191    3.1426   -1.3628 C   0  0  0  0  0  0  0  0  0  0  0  0
    1.0922    2.4499   -2.2097 H   0  0  0  0  0  0  0  0  0  0  0  0
    1.7496    3.8764   -1.3492 H   0  0  0  0  0  0  0  0  0  0  0  0
   -0.0194    3.7021   -1.5461 H   0  0  0  0  0  0  0  0  0  0  0  0
   -3.4957   -0.0002   -0.1358 C   0  0  0  0  0  0  0  0  0  0  0  0
   -3.9147    0.9478   -0.5288 H   0  0  0  0  0  0  0  0  0  0  0  0
   -3.9945   -0.1892    1.3048 C   0  0  0  0  0  0  0  0  0  0  0  0
   -3.6159   -1.1430    1.7246 H   0  0  0  0  0  0  0  0  0  0  0  0
   -5.1023   -0.2149    1.3366 H   0  0  0  0  0  0  0  0  0  0  0  0
   -3.6482    0.6329    1.9629 H   0  0  0  0  0  0  0  0  0  0  0  0
   -3.9708   -1.1313   -1.0532 C   0  0  0  0  0  0  0  0  0  0  0  0
   -3.6283   -0.9727   -2.0944 H   0  0  0  0  0  0  0  0  0  0  0  0
   -5.0769   -1.1872   -1.0510 H   0  0  0  0  0  0  0  0  0  0  0  0
   -3.5776   -2.1109   -0.7120 H   0  0  0  0  0  0  0  0  0  0  0  0
  1 19  1  0  0  0  0
  2 14  1  0  0  0  0
  2 29  1  0  0  0  0
  2  3  1  0  0  0  0
  3 12  1  0  0  0  0
  4  6  2  0  0  0  0
  4  3  1  0  0  0  0
  5  4  1  0  0  0  0
  6  8  1  0  0  0  0
  7  6  1  0  0  0  0
  8  9  1  0  0  0  0
  8 10  1  0  0  0  0
 10 11  1  0  0  0  0
 12 10  2  0  0  0  0
 12 13  1  0  0  0  0
 14  1  1  6  0  0  0
 15 17  1  0  0  0  0
 15 14  1  0  0  0  0
 15 18  1  0  0  0  0
 16 15  1  0  0  0  0
 19 20  1  0  0  0  0
 19 21  1  0  0  0  0
 21 23  1  0  0  0  0
 21 22  1  0  0  0  0
 21 24  1  0  0  0  0
 25 27  1  0  0  0  0
 25 19  1  0  0  0  0
 26 25  1  0  0  0  0
 28 25  1  0  0  0  0
 29 31  1  0  0  0  0
 30 29  1  0  0  0  0
 31 33  1  0  0  0  0
 31 32  1  0  0  0  0
 31 34  1  0  0  0  0
 35 37  1  0  0  0  0
 35 38  1  0  0  0  0
 35 29  1  0  0  0  0
 36 35  1  0  0  0  0
M  END
