1,3
q = 0.0, confidence = 0.886

 48 50  0  0  0  0  0  0  0  0999 V2000
    0.5259    0.0715   -0.7358 B   0  0  0  0  0  2  0  0  0  0  0  0
   -0.5254    0.1752   -1.5882 O   0  0  0  0  0  0  0  0  0  0  0  0
   -1.6506    0.0903   -0.6592 C   0  0  0  0  0  3  0  0  0  0  0  0
    2.0436    0.1412   -1.1428 C   0  0  0  0  0  0  0  0  0  0  0  0
    2.7095    1.3967   -1.1319 C   0  0  0  0  0  0  0  0  0  0  0  0
    4.1214    1.4468   -1.2501 C   0  0  0  0  0  0  0  0  0  0  0  0
    4.8309    0.2443   -1.4088 C   0  0  0  0  0  0  0  0  0  0  0  0
    5.9302    0.2821   -1.4886 H   0  0  0  0  0  0  0  0  0  0  0  0
    4.1867   -1.0003   -1.5116 C   0  0  0  0  0  0  0  0  0  0  0  0
    2.7748   -1.0507   -1.3943 C   0  0  0  0  0  0  0  0  0  0  0  0
    1.9302    2.6858   -1.0280 C   0  0  0  0  0  0  0  0  0  0  0  0
    2.1231    3.2273   -0.0778 H   0  0  0  0  0  0  0  0  0  0  0  0
    0.8397    2.5236   -1.1062 H   0  0  0  0  0  0  0  0  0  0  0  0
    2.2124    3.3815   -1.8455 H   0  0  0  0  0  0  0  0  0  0  0  0
    4.8506    2.7658   -1.2151 C   0  0  0  0  0  0  0  0  0  0  0  0
    5.9470    2.6234   -1.2710 H   0  0  0  0  0  0  0  0  0  0  0  0
    4.6268    3.3375   -0.2895 H   0  0  0  0  0  0  0  0  0  0  0  0
    4.5519    3.4215   -2.0609 H   0  0  0  0  0  0  0  0  0  0  0  0
    4.9848   -2.2563   -1.7537 C   0  0  0  0  0  0  0  0  0  0  0  0
    4.7966   -3.0233   -0.9726 H   0  0  0  0  0  0  0  0  0  0  0  0
    6.0717   -2.0477   -1.7711 H   0  0  0  0  0  0  0  0  0  0  0  0
    4.7171   -2.7318   -2.7217 H   0  0  0  0  0  0  0  0  0  0  0  0
    2.0655   -2.3703   -1.5820 C   0  0  0  0  0  0  0  0  0  0  0  0
    2.3737   -2.8488   -2.5350 H   0  0  0  0  0  0  0  0  0  0  0  0
    0.9678   -2.2528   -1.6209 H   0  0  0  0  0  0  0  0  0  0  0  0
    2.2955   -3.1024   -0.7789 H   0  0  0  0  0  0  0  0  0  0  0  0
   -2.4421    1.3810   -0.7446 C   0  0  0  0  0  0  0  0  0  0  0  0
   -3.3436    1.7919    0.2606 C   0  0  0  0  0  0  0  0  0  0  0  0
   -3.4426    1.2048    1.1833 H   0  0  0  0  0  0  0  0  0  0  0  0
   -4.0962    2.9653    0.1193 C   0  0  0  0  0  0  0  0  0  0  0  0
   -4.7876    3.2639    0.9222 H   0  0  0  0  0  0  0  0  0  0  0  0
   -3.9581    3.7656   -1.0257 C   0  0  0  0  0  0  0  0  0  0  0  0
   -4.5420    4.6925   -1.1308 H   0  0  0  0  0  0  0  0  0  0  0  0
   -3.0587    3.3741   -2.0279 C   0  0  0  0  0  0  0  0  0  0  0  0
   -2.9352    3.9916   -2.9312 H   0  0  0  0  0  0  0  0  0  0  0  0
   -2.3118    2.1945   -1.8917 C   0  0  0  0  0  0  0  0  0  0  0  0
   -1.6131    1.8890   -2.6823 H   0  0  0  0  0  0  0  0  0  0  0  0
   -2.4839   -1.1274   -0.9925 C   0  0  0  0  0  0  0  0  0  0  0  0
   -3.6348   -1.4643   -0.2454 C   0  0  0  0  0  0  0  0  0  0  0  0
   -3.9410   -0.8391    0.6035 H   0  0  0  0  0  0  0  0  0  0  0  0
   -4.3919   -2.5985   -0.5612 C   0  0  0  0  0  0  0  0  0  0  0  0
   -5.2805   -2.8395    0.0423 H   0  0  0  0  0  0  0  0  0  0  0  0
   -4.0236   -3.4264   -1.6351 C   0  0  0  0  0  0  0  0  0  0  0  0
   -4.6175   -4.3202   -1.8788 H   0  0  0  0  0  0  0  0  0  0  0  0
   -2.8907   -3.0965   -2.3913 C   0  0  0  0  0  0  0  0  0  0  0  0
   -2.5911   -3.7279   -3.2422 H   0  0  0  0  0  0  0  0  0  0  0  0
   -2.1302   -1.9597   -2.0766 C   0  0  0  0  0  0  0  0  0  0  0  0
   -1.2515   -1.7018   -2.6826 H   0  0  0  0  0  0  0  0  0  0  0  0
  2  1  1  0  0  0  0
  2  3  1  0  0  0  0
  4  5  1  0  0  0  0
  4  1  1  0  0  0  0
  5 11  1  0  0  0  0
  6 15  1  0  0  0  0
  6  5  2  0  0  0  0
  7  6  1  0  0  0  0
  8  7  1  0  0  0  0
  9  7  2  0  0  0  0
  9 10  1  0  0  0  0
 10  4  2  0  0  0  0
 11 12  1  0  0  0  0
 13 11  1  0  0  0  0
 14 11  1  0  0  0  0
 15 17  1  0  0  0  0
 16 15  1  0  0  0  0
 18 15  1  0  0  0  0
 19  9  1  0  0  0  0
 19 20  1  0  0  0  0
 21 19  1  0  0  0  0
 22 19  1  0  0  0  0
 23 10  1  0  0  0  0
 23 26  1  0  0  0  0
 24 23  1  0  0  0  0
 25 23  1  0  0  0  0
 27  3  1  0  0  0  0
 27 28  1  0  0  0  0
 28 29  1  0  0  0  0
 30 28  2  0  0  0  0
 30 31  1  0  0  0  0
 32 30  1  0  0  0  0
 33 32  1  0  0  0  0
 34 36  1  0  0  0  0
 34 32  2  0  0  0  0
 35 34  1  0  0  0  0
 36 27  2  0  0  0  0
 37 36  1  0  0  0  0
 38  3  1  0  0  0  0
 38 39  1  0  0  0  0
 39 40  1  0  0  0  0
 41 39  2  0  0  0  0
 41 42  1  0  0  0  0
 43 41  1  0  0  0  0
 44 43  1  0  0  0  0
 45 47  1  0  0  0  0
 45 43  2  0  0  0  0
 46 45  1  0  0  0  0
 47 38  2  0  0  0  0
 48 47  1  0  0  0  0
M  END
