2,5
q = -1.0

 11 17  0  0  1  0  0  0  0  0999 V2000
   -1.9019   -1.1639    2.7289 Cl  0  0  0  0  0  0  0  0  0  0  0  0
   -1.1628    0.7206   -2.0597 C   0  0  2  0  0  0  0  0  0  0  0  0
   -2.7837   -0.8894   -0.5251 B   0  0  1  0  0  0  0  0  0  0  0  0
   -0.6112   -0.4535   -2.6039 C   0  0  0  0  0  0  0  0  0  0  0  0
   -1.4383    0.2683    0.0784 B   0  0  0  0  0  0  0  0  0  0  0  0
   -2.6417   -0.5173    1.2232 B   0  0  1  0  0  0  0  0  0  0  0  0
   -1.5728   -0.9997   -1.6233 B   0  0  0  0  0  0  0  0  0  0  0  0
   -2.5799    0.8934   -1.4082 B   0  0  2  0  0  0  0  0  0  0  0  0
   -4.1161   -0.3697    0.4425 B   0  0  2  0  0  0  0  0  0  0  0  0
   -4.0605    0.3405   -0.9656 B   0  0  0  0  0  0  0  0  0  0  0  0
   -2.9438    0.9125    0.2848 B   0  0  1  0  0  0  0  0  0  0  0  0
  2  4  1  6  0  0  0
  2  7  1  0  0  0  0
  2  8  1  0  0  0  0
  3  7  1  6  0  0  0
  3  9  1  0  0  0  0
  3  6  1  0  0  0  0
  4  7  1  0  0  0  0
  6  1  1  1  0  0  0
  8 10  1  0  0  0  0
  8  5  1  1  0  0  0
  8 11  1  0  0  0  0
  9 10  1  1  0  0  0
  9  6  1  0  0  0  0
 10  3  1  0  0  0  0
 11  5  1  6  0  0  0
 11  9  1  0  0  0  0
 11  6  1  0  0  0  0
M  END
