24,26,37
q = -1.0, confidence = 0.012

 37 40  0  0  1  0  0  0  0  0999 V2000
   -0.1794   -0.0550   -2.7790 C   0  0  0  0  0  3  0  0  0  0  0  0
   -0.2646    1.0428   -2.7718 H   0  0  0  0  0  0  0  0  0  0  0  0
   -1.0074   -2.5030   -2.4496 C   0  0  0  0  0  0  0  0  0  0  0  0
   -1.7392   -3.2680   -2.1411 H   0  0  0  0  0  0  0  0  0  0  0  0
   -2.6474   -0.5141   -2.0745 O   0  0  0  0  0  0  0  0  0  0  0  0
   -3.4578   -1.2908    1.1172 N   0  0  0  0  0  0  0  0  0  0  0  0
   -5.1865   -0.2724   -0.2012 C   0  0  0  0  0  0  0  0  0  0  0  0
   -5.4584    0.3269   -1.0811 H   0  0  0  0  0  0  0  0  0  0  0  0
    0.3454   -2.9198   -2.5591 C   0  0  0  0  0  0  0  0  0  0  0  0
    0.6170   -3.9735   -2.3796 H   0  0  0  0  0  0  0  0  0  0  0  0
   -4.3741   -1.7727    2.0068 C   0  0  0  0  0  3  0  0  0  0  0  0
   -3.9755   -2.3555    2.8477 H   0  0  0  0  0  0  0  0  0  0  0  0
   -2.5853   -0.1320   -0.7225 C   0  0  1  0  0  0  0  0  0  0  0  0
    1.4159   -1.9938   -2.7816 C   0  0  0  0  0  3  0  0  0  0  0  0
    2.4507   -2.3593   -2.8462 H   0  0  0  0  0  0  0  0  0  0  0  0
   -2.0609   -1.5029    1.1172 C   0  0  0  0  0  3  0  0  0  0  0  0
   -1.6319   -2.1987    1.8463 H   0  0  0  0  0  0  0  0  0  0  0  0
   -5.7315   -1.5247    1.8022 C   0  0  0  0  0  0  0  0  0  0  0  0
   -6.4546   -1.9283    2.5247 H   0  0  0  0  0  0  0  0  0  0  0  0
   -2.4382    1.3909   -0.5377 C   0  0  0  0  0  0  0  0  0  0  0  0
   -3.8493   -0.5395    0.0268 C   0  0  0  0  0  0  0  0  0  0  0  0
   -6.1560   -0.7783    0.6910 C   0  0  0  0  0  0  0  0  0  0  0  0
   -7.2250   -0.5883    0.5212 H   0  0  0  0  0  0  0  0  0  0  0  0
    1.1424   -0.5894   -2.8673 C   0  0  0  0  0  3  0  0  0  0  0  0
    2.0050    0.0947   -2.9519 H   0  0  0  0  0  0  0  0  0  0  0  0
   -1.4649   -0.9173    0.0227 C   0  0  0  0  0  2  0  0  0  0  0  0
   -2.1648    1.9485    0.7268 C   0  0  0  0  0  0  0  0  0  0  0  0
   -1.9882    1.2919    1.5924 H   0  0  0  0  0  0  0  0  0  0  0  0
   -2.5332    3.6318   -1.4872 C   0  0  0  0  0  0  0  0  0  0  0  0
   -2.6737    4.2879   -2.3602 H   0  0  0  0  0  0  0  0  0  0  0  0
   -2.6304    2.2393   -1.6415 C   0  0  0  0  0  0  0  0  0  0  0  0
   -2.8406    1.7842   -2.6200 H   0  0  0  0  0  0  0  0  0  0  0  0
   -2.0768    3.3395    0.8794 C   0  0  0  0  0  0  0  0  0  0  0  0
   -1.8437    3.7600    1.8690 H   0  0  0  0  0  0  0  0  0  0  0  0
   -2.2572    4.1863   -0.2271 C   0  0  0  0  0  0  0  0  0  0  0  0
   -2.1772    5.2774   -0.1072 H   0  0  0  0  0  0  0  0  0  0  0  0
   -1.3584   -1.0008   -2.5205 B   0  0  0  0  0  0  0  0  0  0  0  0
  1  2  1  0  0  0  0
  1 37  1  0  0  0  0
  3  4  1  0  0  0  0
  6 16  1  0  0  0  0
  6 11  1  0  0  0  0
  7 21  2  0  0  0  0
  7 22  1  0  0  0  0
  8  7  1  0  0  0  0
  9  3  2  0  0  0  0
  9 10  1  0  0  0  0
 11 12  1  0  0  0  0
 13  5  1  6  0  0  0
 13 20  1  0  0  0  0
 13 26  1  0  0  0  0
 13 21  1  0  0  0  0
 14  9  1  0  0  0  0
 15 14  1  0  0  0  0
 16 17  1  0  0  0  0
 18 11  1  0  0  0  0
 18 19  1  0  0  0  0
 20 27  1  0  0  0  0
 21  6  1  0  0  0  0
 22 18  2  0  0  0  0
 23 22  1  0  0  0  0
 24 14  1  0  0  0  0
 24  1  1  0  0  0  0
 25 24  1  0  0  0  0
 26 16  1  0  0  0  0
 27 33  2  0  0  0  0
 27 28  1  0  0  0  0
 29 35  2  0  0  0  0
 30 29  1  0  0  0  0
 31 29  1  0  0  0  0
 31 20  2  0  0  0  0
 32 31  1  0  0  0  0
 33 34  1  0  0  0  0
 35 36  1  0  0  0  0
 35 33  1  0  0  0  0
 37  3  1  0  0  0  0
 37  5  1  0  0  0  0
M  END
