1,2,3,4
 OpenBabel05122313063D

 82 90  0  0  1  0  0  0  0  0999 V2000
    1.7856   -0.2258    0.0108 C   0  0  0  0  0  2  0  0  0  0  0  0
   -0.1670    2.0226   -0.3536 N   0  0  0  0  0  0  0  0  0  0  0  0
   -2.3964    0.0501   -1.0049 S   0  0  0  0  0  0  0  0  0  0  0  0
   -0.5002   -2.0927   -0.2311 N   0  0  0  0  0  0  0  0  0  0  0  0
    2.4783   -1.4419   -0.2236 C   0  0  0  0  0  0  0  0  0  0  0  0
    4.0056   -1.4015   -0.2413 C   0  0  0  0  0  0  0  0  0  0  0  0
    4.6752   -2.1654   -0.9387 O   0  0  0  0  0  0  0  0  0  0  0  0
    4.6032   -0.4557    0.6917 C   0  0  0  0  0  0  0  0  0  0  0  0
    5.6398   -0.6384    1.0009 H   0  0  0  0  0  0  0  0  0  0  0  0
    3.8618    0.6231    1.0868 C   0  0  0  0  0  0  0  0  0  0  0  0
    4.2258    1.5254    2.0189 O   0  0  0  0  0  0  0  0  0  0  0  0
    5.5446    1.4617    2.5378 C   0  0  0  0  0  0  0  0  0  0  0  0
    5.7322    0.4939    3.0518 H   0  0  0  0  0  0  0  0  0  0  0  0
    5.6334    2.2917    3.2619 H   0  0  0  0  0  0  0  0  0  0  0  0
    6.2941    1.5961    1.7278 H   0  0  0  0  0  0  0  0  0  0  0  0
    2.5516    0.9033    0.4460 C   0  0  0  0  0  0  0  0  0  0  0  0
    2.2490    2.2602    0.1643 C   0  0  0  0  0  0  0  0  0  0  0  0
    3.3341    3.2885    0.2597 C   0  0  0  0  0  0  0  0  0  0  0  0
    4.4832    3.1664   -0.5504 C   0  0  0  0  0  0  0  0  0  0  0  0
    4.5677    2.3097   -1.2359 H   0  0  0  0  0  0  0  0  0  0  0  0
    5.5061    4.1236   -0.4855 C   0  0  0  0  0  0  0  0  0  0  0  0
    6.3923    4.0186   -1.1300 H   0  0  0  0  0  0  0  0  0  0  0  0
    5.3979    5.2146    0.3920 C   0  0  0  0  0  0  0  0  0  0  0  0
    6.2019    5.9645    0.4447 H   0  0  0  0  0  0  0  0  0  0  0  0
    4.2550    5.3468    1.1977 C   0  0  0  0  0  0  0  0  0  0  0  0
    4.1632    6.1987    1.8889 H   0  0  0  0  0  0  0  0  0  0  0  0
    3.2285    4.3946    1.1283 C   0  0  0  0  0  0  0  0  0  0  0  0
    2.3386    4.4885    1.7682 H   0  0  0  0  0  0  0  0  0  0  0  0
    1.0063    2.7418   -0.3232 C   0  0  0  0  0  3  0  0  0  0  0  0
    0.7607    4.0979   -0.7545 C   0  0  0  0  0  0  0  0  0  0  0  0
    1.5252    4.8713   -0.8748 H   0  0  0  0  0  0  0  0  0  0  0  0
   -0.5926    4.2080   -0.9772 C   0  0  0  0  0  0  0  0  0  0  0  0
   -1.1484    5.0903   -1.3104 H   0  0  0  0  0  0  0  0  0  0  0  0
   -1.1847    2.9231   -0.6871 C   0  0  0  0  0  0  0  0  0  0  0  0
   -2.6052    2.7453   -0.5801 C   0  0  2  0  0  3  0  0  0  0  0  0
   -3.4778    3.9445   -0.4543 C   0  0  0  0  0  0  0  0  0  0  0  0
   -3.1902    4.9717    0.4745 C   0  0  0  0  0  0  0  0  0  0  0  0
   -2.2948    4.8854    1.1074 H   0  0  0  0  0  0  0  0  0  0  0  0
   -4.0438    6.0750    0.6060 C   0  0  0  0  0  0  0  0  0  0  0  0
   -3.8093    6.8607    1.3402 H   0  0  0  0  0  0  0  0  0  0  0  0
   -5.1995    6.1747   -0.1862 C   0  0  0  0  0  0  0  0  0  0  0  0
   -5.8673    7.0435   -0.0832 H   0  0  0  0  0  0  0  0  0  0  0  0
   -5.4997    5.1593   -1.1084 C   0  0  0  0  0  0  0  0  0  0  0  0
   -6.4002    5.2328   -1.7370 H   0  0  0  0  0  0  0  0  0  0  0  0
   -4.6494    4.0527   -1.2385 C   0  0  0  0  0  0  0  0  0  0  0  0
   -4.8767    3.2615   -1.9689 H   0  0  0  0  0  0  0  0  0  0  0  0
   -3.2310    1.4964   -0.4601 C   0  0  2  0  0  3  0  0  0  0  0  0
   -4.4493    1.1008    0.1647 C   0  0  0  0  0  0  0  0  0  0  0  0
   -5.1744    1.8379    0.5347 H   0  0  0  0  0  0  0  0  0  0  0  0
   -4.5536   -0.2727    0.3825 C   0  0  0  0  0  0  0  0  0  0  0  0
   -5.3755   -0.7438    0.9378 H   0  0  0  0  0  0  0  0  0  0  0  0
   -3.4302   -1.0238   -0.0740 C   0  0  2  0  0  3  0  0  0  0  0  0
   -3.0196   -2.3435    0.1556 C   0  0  2  0  0  3  0  0  0  0  0  0
   -4.0263   -3.2845    0.7172 C   0  0  0  0  0  0  0  0  0  0  0  0
   -5.2975   -3.4209    0.1140 C   0  0  0  0  0  0  0  0  0  0  0  0
   -5.5178   -2.8525   -0.8022 H   0  0  0  0  0  0  0  0  0  0  0  0
   -6.2580   -4.2870    0.6546 C   0  0  0  0  0  0  0  0  0  0  0  0
   -7.2379   -4.3898    0.1640 H   0  0  0  0  0  0  0  0  0  0  0  0
   -5.9678   -5.0295    1.8105 C   0  0  0  0  0  0  0  0  0  0  0  0
   -6.7218   -5.7097    2.2348 H   0  0  0  0  0  0  0  0  0  0  0  0
   -4.7097   -4.9005    2.4216 C   0  0  0  0  0  0  0  0  0  0  0  0
   -4.4777   -5.4731    3.3325 H   0  0  0  0  0  0  0  0  0  0  0  0
   -3.7474   -4.0369    1.8817 C   0  0  0  0  0  0  0  0  0  0  0  0
   -2.7668   -3.9255    2.3677 H   0  0  0  0  0  0  0  0  0  0  0  0
   -1.6825   -2.8164   -0.0683 C   0  0  0  0  0  3  0  0  0  0  0  0
   -1.3792   -4.2271   -0.1389 C   0  0  0  0  0  0  0  0  0  0  0  0
   -2.1227   -5.0277   -0.0715 H   0  0  0  0  0  0  0  0  0  0  0  0
   -0.0257   -4.3477   -0.3436 C   0  0  0  0  0  0  0  0  0  0  0  0
    0.5609   -5.2649   -0.4521 H   0  0  0  0  0  0  0  0  0  0  0  0
    0.5180   -3.0094   -0.3742 C   0  0  0  0  0  0  0  0  0  0  0  0
    1.9034   -2.7190   -0.4530 C   0  0  0  0  0  0  0  0  0  0  0  0
    2.7582   -3.9354   -0.6636 C   0  0  0  0  0  0  0  0  0  0  0  0
    2.8341   -4.5447   -1.9313 C   0  0  0  0  0  0  0  0  0  0  0  0
    2.3277   -4.0703   -2.7851 H   0  0  0  0  0  0  0  0  0  0  0  0
    3.5565   -5.7327   -2.1067 C   0  0  0  0  0  0  0  0  0  0  0  0
    3.6154   -6.1922   -3.1054 H   0  0  0  0  0  0  0  0  0  0  0  0
    4.2042   -6.3348   -1.0159 C   0  0  0  0  0  0  0  0  0  0  0  0
    4.7701   -7.2686   -1.1543 H   0  0  0  0  0  0  0  0  0  0  0  0
    4.1210   -5.7405    0.2531 C   0  0  0  0  0  0  0  0  0  0  0  0
    4.6182   -6.2097    1.1161 H   0  0  0  0  0  0  0  0  0  0  0  0
    3.4008   -4.5510    0.4294 C   0  0  0  0  0  0  0  0  0  0  0  0
    3.3320   -4.0851    1.4244 H   0  0  0  0  0  0  0  0  0  0  0  0
  1 16  1  0  0  0  0
  2 29  1  0  0  0  0
  4 65  1  0  0  0  0
  5  1  1  0  0  0  0
  6  5  1  0  0  0  0
  6  8  1  0  0  0  0
  7  6  2  0  0  0  0
  8  9  1  0  0  0  0
  8 10  2  0  0  0  0
 10 11  1  0  0  0  0
 11 12  1  0  0  0  0
 12 13  1  0  0  0  0
 12 14  1  0  0  0  0
 15 12  1  0  0  0  0
 16 10  1  0  0  0  0
 17 18  1  0  0  0  0
 17 16  2  0  0  0  0
 18 27  1  0  0  0  0
 19 21  1  0  0  0  0
 19 18  2  0  0  0  0
 20 19  1  0  0  0  0
 21 23  2  0  0  0  0
 22 21  1  0  0  0  0
 23 24  1  0  0  0  0
 23 25  1  0  0  0  0
 25 26  1  0  0  0  0
 27 25  2  0  0  0  0
 27 28  1  0  0  0  0
 29 17  1  0  0  0  0
 30 29  1  0  0  0  0
 31 30  1  0  0  0  0
 32 30  2  0  0  0  0
 32 34  1  0  0  0  0
 33 32  1  0  0  0  0
 34 35  1  0  0  0  0
 34  2  2  0  0  0  0
 35 47  1  0  0  0  0
 35 36  1  1  0  0  0
 36 37  1  0  0  0  0
 37 39  2  0  0  0  0
 37 38  1  0  0  0  0
 39 40  1  0  0  0  0
 41 42  1  0  0  0  0
 41 39  1  0  0  0  0
 43 41  2  0  0  0  0
 44 43  1  0  0  0  0
 45 43  1  0  0  0  0
 45 36  2  0  0  0  0
 46 45  1  0  0  0  0
 47  3  1  1  0  0  0
 47 48  1  0  0  0  0
 48 50  2  0  0  0  0
 48 49  1  0  0  0  0
 50 51  1  0  0  0  0
 52  3  1  1  0  0  0
 52 53  1  0  0  0  0
 52 50  1  0  0  0  0
 53 54  1  1  0  0  0
 54 63  1  0  0  0  0
 55 57  1  0  0  0  0
 55 54  2  0  0  0  0
 56 55  1  0  0  0  0
 57 59  2  0  0  0  0
 58 57  1  0  0  0  0
 59 60  1  0  0  0  0
 59 61  1  0  0  0  0
 61 62  1  0  0  0  0
 63 64  1  0  0  0  0
 63 61  2  0  0  0  0
 65 53  1  0  0  0  0
 66 67  1  0  0  0  0
 66 65  1  0  0  0  0
 68 66  2  0  0  0  0
 69 68  1  0  0  0  0
 70 68  1  0  0  0  0
 70  4  2  0  0  0  0
 71 70  1  0  0  0  0
 71  5  2  0  0  0  0
 72 71  1  0  0  0  0
 72 81  1  0  0  0  0
 73 72  2  0  0  0  0
 74 73  1  0  0  0  0
 75 73  1  0  0  0  0
 75 77  2  0  0  0  0
 76 75  1  0  0  0  0
 77 79  1  0  0  0  0
 78 77  1  0  0  0  0
 79 81  2  0  0  0  0
 79 80  1  0  0  0  0
 81 82  1  0  0  0  0
M  END
