2,3,4,8
q = -2.0, confidence = 0.516

 46 50  0  0  0  0  0  0  0  0999 V2000
    1.5829    2.9005   -0.7714 N   0  0  0  0  0  2  0  0  0  0  0  0
    1.7245    0.5260    0.6746 N   0  0  0  0  0  2  0  0  0  0  0  0
    0.3627   -0.6863    1.9124 N   0  0  0  0  0  2  0  0  0  0  0  0
   -1.8464   -1.5660    0.0616 N   0  0  0  0  0  2  0  0  0  0  0  0
   -2.5306    0.6356   -0.0418 N   0  0  0  0  0  0  0  0  0  0  0  0
   -0.9783    2.3348   -0.3481 N   0  0  0  0  0  0  0  0  0  0  0  0
    0.3374    2.7828   -0.5376 B   0  0  0  0  0  2  0  0  0  0  0  0
   -1.0966    0.9028   -0.1571 B   0  0  0  0  0  2  0  0  0  0  0  0
   -0.1689   -1.2276    3.0261 C   0  0  0  0  0  3  0  0  0  0  0  0
   -1.0552   -1.8671    2.8951 H   0  0  0  0  0  0  0  0  0  0  0  0
    0.3923   -0.9602    4.2724 C   0  0  0  0  0  0  0  0  0  0  0  0
   -0.0498   -1.3938    5.1786 H   0  0  0  0  0  0  0  0  0  0  0  0
    1.5270   -0.1138    4.3374 C   0  0  0  0  0  0  0  0  0  0  0  0
    1.9773    0.1139    5.3154 H   0  0  0  0  0  0  0  0  0  0  0  0
    2.0850    0.4378    3.1861 C   0  0  0  0  0  0  0  0  0  0  0  0
    2.9639    1.0943    3.2200 H   0  0  0  0  0  0  0  0  0  0  0  0
    2.9034    1.1827    0.2813 C   0  0  0  0  0  0  0  0  0  0  0  0
    2.8190    2.3968   -0.4827 C   0  0  0  0  0  0  0  0  0  0  0  0
    4.0120    3.0337   -0.8902 C   0  0  0  0  0  0  0  0  0  0  0  0
    3.9299    3.9574   -1.4803 H   0  0  0  0  0  0  0  0  0  0  0  0
    1.4680    0.1350    1.9450 C   0  0  0  0  0  0  0  0  0  0  0  0
   -2.0962   -2.8833    0.2545 C   0  0  0  0  0  3  0  0  0  0  0  0
   -1.2273   -3.5482    0.2058 H   0  0  0  0  0  0  0  0  0  0  0  0
   -3.3695   -3.3924    0.4997 C   0  0  0  0  0  0  0  0  0  0  0  0
   -3.5040   -4.4724    0.6452 H   0  0  0  0  0  0  0  0  0  0  0  0
   -4.4490   -2.4943    0.5496 C   0  0  0  0  0  0  0  0  0  0  0  0
   -5.4708   -2.8537    0.7404 H   0  0  0  0  0  0  0  0  0  0  0  0
   -4.2150   -1.1335    0.3640 C   0  0  0  0  0  0  0  0  0  0  0  0
   -5.0363   -0.4128    0.4196 H   0  0  0  0  0  0  0  0  0  0  0  0
   -2.9009   -0.6751    0.1249 C   0  0  0  0  0  0  0  0  0  0  0  0
   -2.6544    4.2324   -0.4552 C   0  0  0  0  0  0  0  0  0  0  0  0
   -1.8973    5.0178   -0.5951 H   0  0  0  0  0  0  0  0  0  0  0  0
   -2.2758    2.8955   -0.3202 C   0  0  0  0  0  0  0  0  0  0  0  0
   -3.2395    1.8605   -0.1376 C   0  0  0  0  0  0  0  0  0  0  0  0
   -4.6041    2.1773   -0.1002 C   0  0  0  0  0  0  0  0  0  0  0  0
   -5.3821    1.4147    0.0226 H   0  0  0  0  0  0  0  0  0  0  0  0
   -4.9822    3.5257   -0.2365 C   0  0  0  0  0  0  0  0  0  0  0  0
   -6.0504    3.7841   -0.2078 H   0  0  0  0  0  0  0  0  0  0  0  0
   -4.0251    4.5392   -0.4089 C   0  0  0  0  0  0  0  0  0  0  0  0
   -4.3492    5.5848   -0.5118 H   0  0  0  0  0  0  0  0  0  0  0  0
    4.1764    0.6920    0.6478 C   0  0  0  0  0  0  0  0  0  0  0  0
    4.2379   -0.2264    1.2520 H   0  0  0  0  0  0  0  0  0  0  0  0
    5.3472    1.3556    0.2598 C   0  0  0  0  0  0  0  0  0  0  0  0
    6.3276    0.9596    0.5622 H   0  0  0  0  0  0  0  0  0  0  0  0
    5.2610    2.5200   -0.5242 C   0  0  0  0  0  0  0  0  0  0  0  0
    6.1774    3.0385   -0.8426 H   0  0  0  0  0  0  0  0  0  0  0  0
  1  7  1  0  0  0  0
  1 18  1  0  0  0  0
  2 21  1  0  0  0  0
  3 21  1  0  0  0  0
  3  9  1  0  0  0  0
  4 30  1  0  0  0  0
  4 22  1  0  0  0  0
  5 30  1  0  0  0  0
  6 33  1  0  0  0  0
  6  8  1  0  0  0  0
  7  6  1  0  0  0  0
  8  5  1  0  0  0  0
  9 11  1  0  0  0  0
 10  9  1  0  0  0  0
 11 13  2  0  0  0  0
 11 12  1  0  0  0  0
 13 14  1  0  0  0  0
 15 16  1  0  0  0  0
 15 13  1  0  0  0  0
 17 41  1  0  0  0  0
 17  2  1  0  0  0  0
 18 17  2  0  0  0  0
 19 45  2  0  0  0  0
 19 18  1  0  0  0  0
 20 19  1  0  0  0  0
 21 15  2  0  0  0  0
 22 24  1  0  0  0  0
 23 22  1  0  0  0  0
 24 26  2  0  0  0  0
 24 25  1  0  0  0  0
 26 27  1  0  0  0  0
 28 29  1  0  0  0  0
 28 26  1  0  0  0  0
 30 28  2  0  0  0  0
 31 39  2  0  0  0  0
 31 33  1  0  0  0  0
 32 31  1  0  0  0  0
 33 34  2  0  0  0  0
 34 35  1  0  0  0  0
 34  5  1  0  0  0  0
 35 36  1  0  0  0  0
 37 38  1  0  0  0  0
 37 35  2  0  0  0  0
 39 37  1  0  0  0  0
 40 39  1  0  0  0  0
 41 42  1  0  0  0  0
 43 44  1  0  0  0  0
 43 41  2  0  0  0  0
 45 43  1  0  0  0  0
 46 45  1  0  0  0  0
M  END
