1,2,4,6
q = 0.0, confidence = 0.998

 79 84  0  0  1  0  0  0  0  0999 V2000
    0.9453   -0.0543   -0.6205 B   0  0  0  0  0  0  0  0  0  0  0  0
   -0.3858    1.6923   -0.2411 N   0  0  0  0  0  2  0  0  0  0  0  0
    0.4413    1.2614   -1.2272 N   0  0  0  0  0  0  0  0  0  0  0  0
   -1.1012   -1.0653   -0.7606 N   0  0  0  0  0  2  0  0  0  0  0  0
    0.2214   -1.2862   -1.1061 N   0  0  0  0  0  0  0  0  0  0  0  0
    1.3754    0.3706    1.5289 N   0  0  0  0  0  2  0  0  0  0  0  0
    2.0811    0.0961    0.3698 N   0  0  0  0  0  0  0  0  0  0  0  0
    0.4652    2.1047   -2.2832 C   0  0  0  0  0  0  0  0  0  0  0  0
   -0.3918    3.1810   -1.9583 C   0  0  0  0  0  0  0  0  0  0  0  0
   -0.9088    2.8864   -0.6370 C   0  0  0  0  0  0  0  0  0  0  0  0
   -1.7820    3.7843    0.0578 C   0  0  0  0  0  0  0  0  0  0  0  0
   -2.1291    4.9326   -0.6546 C   0  0  0  0  0  0  0  0  0  0  0  0
   -1.6505    5.2220   -1.9681 C   0  0  0  0  0  0  0  0  0  0  0  0
   -0.7794    4.3710   -2.6283 C   0  0  0  0  0  3  0  0  0  0  0  0
   -2.2442    3.5067    1.4949 C   0  0  0  0  0  0  0  0  0  0  0  0
   -1.0019    3.4214    2.4140 C   0  0  0  0  0  0  0  0  0  0  0  0
   -3.0094    2.1684    1.5444 C   0  0  0  0  0  0  0  0  0  0  0  0
   -3.1699    4.6153    2.0233 C   0  0  0  0  0  0  0  0  0  0  0  0
    0.4380   -2.5521   -1.5173 C   0  0  0  0  0  3  0  0  0  0  0  0
   -0.8036   -3.2216   -1.4779 C   0  0  0  0  0  0  0  0  0  0  0  0
   -1.7518   -2.2437   -0.9916 C   0  0  0  0  0  0  0  0  0  0  0  0
   -3.1435   -2.5627   -0.8515 C   0  0  0  0  0  0  0  0  0  0  0  0
   -3.4841   -3.8733   -1.1922 C   0  0  0  0  0  0  0  0  0  0  0  0
   -2.5496   -4.8457   -1.6535 C   0  0  0  0  0  0  0  0  0  0  0  0
   -1.2084   -4.5379   -1.8098 C   0  0  0  0  0  0  0  0  0  0  0  0
   -4.1758   -1.5437   -0.3500 C   0  0  0  0  0  0  0  0  0  0  0  0
   -3.9048   -1.2672    1.1460 C   0  0  0  0  0  0  0  0  0  0  0  0
   -5.6155   -2.0686   -0.4913 C   0  0  0  0  0  0  0  0  0  0  0  0
   -4.0628   -0.2345   -1.1658 C   0  0  0  0  0  0  0  0  0  0  0  0
    3.4262   -0.0476    0.6658 C   0  0  2  0  0  3  0  0  0  0  0  0
    3.5275    0.0829    2.0959 C   0  0  0  0  0  0  0  0  0  0  0  0
    2.2050    0.3494    2.5645 C   0  0  0  0  0  0  0  0  0  0  0  0
    4.7715   -0.0405    2.7510 C   0  0  0  0  0  0  0  0  0  0  0  0
    5.8914   -0.2862    1.9651 C   0  0  0  0  0  0  0  0  0  0  0  0
    5.7887   -0.3551    0.5533 C   0  0  0  0  0  0  0  0  0  0  0  0
    4.5831   -0.2161   -0.1526 C   0  0  0  0  0  0  0  0  0  0  0  0
    4.5532   -0.1156   -1.6871 C   0  0  0  0  0  0  0  0  0  0  0  0
    3.5306   -1.0955   -2.2923 C   0  0  0  0  0  0  0  0  0  0  0  0
    5.9239   -0.4274   -2.3148 C   0  0  0  0  0  0  0  0  0  0  0  0
    4.1642    1.3347   -2.0622 C   0  0  0  0  0  0  0  0  0  0  0  0
    1.0739    1.9036   -3.1701 H   0  0  0  0  0  0  0  0  0  0  0  0
   -2.7971    5.6674   -0.1859 H   0  0  0  0  0  0  0  0  0  0  0  0
   -1.9780    6.1537   -2.4534 H   0  0  0  0  0  0  0  0  0  0  0  0
   -0.3963    4.6040   -3.6325 H   0  0  0  0  0  0  0  0  0  0  0  0
   -0.3359    2.5886    2.1128 H   0  0  0  0  0  0  0  0  0  0  0  0
   -0.4185    4.3635    2.3827 H   0  0  0  0  0  0  0  0  0  0  0  0
   -1.3175    3.2431    3.4627 H   0  0  0  0  0  0  0  0  0  0  0  0
   -3.9017    2.1857    0.8883 H   0  0  0  0  0  0  0  0  0  0  0  0
   -2.3680    1.3257    1.2078 H   0  0  0  0  0  0  0  0  0  0  0  0
   -3.3374    1.9428    2.5793 H   0  0  0  0  0  0  0  0  0  0  0  0
   -4.0884    4.7134    1.4101 H   0  0  0  0  0  0  0  0  0  0  0  0
   -3.4835    4.3728    3.0583 H   0  0  0  0  0  0  0  0  0  0  0  0
   -2.6623    5.6006    2.0505 H   0  0  0  0  0  0  0  0  0  0  0  0
    1.4323   -2.9020   -1.8082 H   0  0  0  0  0  0  0  0  0  0  0  0
   -4.5329   -4.1861   -1.1038 H   0  0  0  0  0  0  0  0  0  0  0  0
   -2.9137   -5.8562   -1.8916 H   0  0  0  0  0  0  0  0  0  0  0  0
   -0.4818   -5.2790   -2.1728 H   0  0  0  0  0  0  0  0  0  0  0  0
   -2.8752   -0.8994    1.3082 H   0  0  0  0  0  0  0  0  0  0  0  0
   -4.6162   -0.5095    1.5345 H   0  0  0  0  0  0  0  0  0  0  0  0
   -4.0168   -2.1938    1.7432 H   0  0  0  0  0  0  0  0  0  0  0  0
   -5.8667   -2.3103   -1.5443 H   0  0  0  0  0  0  0  0  0  0  0  0
   -5.7931   -2.9722    0.1258 H   0  0  0  0  0  0  0  0  0  0  0  0
   -6.3250   -1.2906   -0.1449 H   0  0  0  0  0  0  0  0  0  0  0  0
   -3.0666    0.2323   -1.0597 H   0  0  0  0  0  0  0  0  0  0  0  0
   -4.2404   -0.4258   -2.2438 H   0  0  0  0  0  0  0  0  0  0  0  0
   -4.8251    0.4929   -0.8185 H   0  0  0  0  0  0  0  0  0  0  0  0
    1.8383    0.5183    3.5828 H   0  0  0  0  0  0  0  0  0  0  0  0
    4.8412    0.0537    3.8442 H   0  0  0  0  0  0  0  0  0  0  0  0
    6.8797   -0.4050    2.4332 H   0  0  0  0  0  0  0  0  0  0  0  0
    6.7167   -0.5020   -0.0140 H   0  0  0  0  0  0  0  0  0  0  0  0
    2.4913   -0.8162   -2.0305 H   0  0  0  0  0  0  0  0  0  0  0  0
    3.5879   -1.0830   -3.3995 H   0  0  0  0  0  0  0  0  0  0  0  0
    3.7091   -2.1330   -1.9452 H   0  0  0  0  0  0  0  0  0  0  0  0
    6.2645   -1.4541   -2.0717 H   0  0  0  0  0  0  0  0  0  0  0  0
    5.8510   -0.3481   -3.4179 H   0  0  0  0  0  0  0  0  0  0  0  0
    6.7050    0.2855   -1.9848 H   0  0  0  0  0  0  0  0  0  0  0  0
    3.1930    1.6276   -1.6184 H   0  0  0  0  0  0  0  0  0  0  0  0
    4.9264    2.0508   -1.6965 H   0  0  0  0  0  0  0  0  0  0  0  0
    4.0884    1.4450   -3.1644 H   0  0  0  0  0  0  0  0  0  0  0  0
  1  7  1  0  0  0  0
  3  1  1  0  0  0  0
  3  2  1  0  0  0  0
  5  4  1  0  0  0  0
  5  1  1  0  0  0  0
  6 32  1  0  0  0  0
  7 30  1  0  0  0  0
  7  6  1  0  0  0  0
  8  9  2  0  0  0  0
  8  3  1  0  0  0  0
  9 10  1  0  0  0  0
 10  2  1  0  0  0  0
 10 11  2  0  0  0  0
 11 15  1  0  0  0  0
 12 42  1  0  0  0  0
 12 11  1  0  0  0  0
 13 12  2  0  0  0  0
 14 13  1  0  0  0  0
 14  9  1  0  0  0  0
 15 17  1  0  0  0  0
 15 18  1  0  0  0  0
 15 16  1  0  0  0  0
 16 47  1  0  0  0  0
 17 50  1  0  0  0  0
 18 53  1  0  0  0  0
 18 52  1  0  0  0  0
 19 20  1  0  0  0  0
 19  5  1  0  0  0  0
 20 21  1  0  0  0  0
 21 22  2  0  0  0  0
 21  4  1  0  0  0  0
 22 26  1  0  0  0  0
 23 55  1  0  0  0  0
 23 22  1  0  0  0  0
 24 23  2  0  0  0  0
 25 24  1  0  0  0  0
 25 20  2  0  0  0  0
 26 27  1  0  0  0  0
 27 58  1  0  0  0  0
 27 59  1  0  0  0  0
 27 60  1  0  0  0  0
 28 26  1  0  0  0  0
 28 63  1  0  0  0  0
 28 62  1  0  0  0  0
 29 64  1  0  0  0  0
 29 66  1  0  0  0  0
 29 26  1  0  0  0  0
 30 36  1  6  0  0  0
 30 31  1  0  0  0  0
 31 32  2  0  0  0  0
 31 33  1  0  0  0  0
 32 67  1  0  0  0  0
 33 68  1  0  0  0  0
 34 69  1  0  0  0  0
 34 33  2  0  0  0  0
 35 34  1  0  0  0  0
 36 35  2  0  0  0  0
 37 36  1  0  0  0  0
 38 71  1  0  0  0  0
 38 73  1  0  0  0  0
 38 37  1  0  0  0  0
 39 74  1  0  0  0  0
 39 76  1  0  0  0  0
 39 37  1  0  0  0  0
 40 78  1  0  0  0  0
 40 37  1  0  0  0  0
 40 77  1  0  0  0  0
 41  8  1  0  0  0  0
 43 13  1  0  0  0  0
 44 14  1  0  0  0  0
 45 16  1  0  0  0  0
 46 16  1  0  0  0  0
 48 17  1  0  0  0  0
 49 17  1  0  0  0  0
 51 18  1  0  0  0  0
 54 19  1  0  0  0  0
 56 24  1  0  0  0  0
 57 25  1  0  0  0  0
 61 28  1  0  0  0  0
 65 29  1  0  0  0  0
 70 35  1  0  0  0  0
 72 38  1  0  0  0  0
 75 39  1  0  0  0  0
 79 40  1  0  0  0  0
M  END
