1,3,5
q = -2.0, confidence = 0.852

 37 39  0  0  0  0  0  0  0  0999 V2000
    1.8872    1.2956   -0.1609 O   0  5  0  0  0  0  0  0  0  0  0  0
   -6.7794    1.1286   -0.0041 O   0  0  0  0  0  0  0  0  0  0  0  0
   -0.3745    2.5551   -0.0745 N   0  0  0  0  0  2  0  0  0  0  0  0
    0.7506    3.3244   -0.0688 N   0  0  0  0  0  0  0  0  0  0  0  0
   -2.0391    0.1134   -0.3110 C   0  0  0  0  0  3  0  0  0  0  0  0
   -2.4497   -1.1895   -0.6361 C   0  0  0  0  0  0  0  0  0  0  0  0
   -1.7013   -1.9691   -0.8285 H   0  0  0  0  0  0  0  0  0  0  0  0
   -3.8041   -1.5769   -0.7324 C   0  0  0  0  0  0  0  0  0  0  0  0
   -4.0532   -2.6184   -0.9886 H   0  0  0  0  0  0  0  0  0  0  0  0
   -4.8037   -0.6529   -0.4842 C   0  0  0  0  0  3  0  0  0  0  0  0
   -5.8651   -0.9296   -0.5243 H   0  0  0  0  0  0  0  0  0  0  0  0
   -5.5226    1.6385    0.0495 C   0  0  0  0  0  0  0  0  0  0  0  0
   -5.2385    2.9794    0.3021 C   0  0  0  0  0  0  0  0  0  0  0  0
   -6.0353    3.7128    0.4781 H   0  0  0  0  0  0  0  0  0  0  0  0
   -3.8974    3.3963    0.3081 C   0  0  0  0  0  0  0  0  0  0  0  0
   -3.6783    4.4622    0.4749 H   0  0  0  0  0  0  0  0  0  0  0  0
   -2.8183    2.5204    0.1024 C   0  0  0  0  0  0  0  0  0  0  0  0
   -3.0712    1.1076   -0.1232 C   0  0  0  0  0  0  0  0  0  0  0  0
   -4.4594    0.6911   -0.1839 C   0  0  0  0  0  0  0  0  0  0  0  0
   -1.5259    3.1539    0.0937 C   0  0  0  0  0  0  0  0  0  0  0  0
   -1.4815    4.2493    0.2340 H   0  0  0  0  0  0  0  0  0  0  0  0
    1.8606    2.5922   -0.1176 C   0  0  0  0  0  0  0  0  0  0  0  0
    3.1654    3.3062   -0.1104 C   0  0  0  0  0  0  0  0  0  0  0  0
    4.3596    2.5545   -0.1390 C   0  0  0  0  0  0  0  0  0  0  0  0
    4.2878    1.4579   -0.1680 H   0  0  0  0  0  0  0  0  0  0  0  0
    5.6013    3.2036   -0.1255 C   0  0  0  0  0  0  0  0  0  0  0  0
    6.5282    2.6097   -0.1469 H   0  0  0  0  0  0  0  0  0  0  0  0
    5.6650    4.6064   -0.0851 C   0  0  0  0  0  0  0  0  0  0  0  0
    6.6413    5.1154   -0.0750 H   0  0  0  0  0  0  0  0  0  0  0  0
    4.4778    5.3591   -0.0574 C   0  0  0  0  0  0  0  0  0  0  0  0
    4.5244    6.4587   -0.0256 H   0  0  0  0  0  0  0  0  0  0  0  0
    3.2341    4.7156   -0.0693 C   0  0  0  0  0  0  0  0  0  0  0  0
    2.2939    5.2843   -0.0458 H   0  0  0  0  0  0  0  0  0  0  0  0
   -7.8765    1.9984    0.2028 C   0  0  0  0  0  0  0  0  0  0  0  0
   -8.7876    1.3787    0.1130 H   0  0  0  0  0  0  0  0  0  0  0  0
   -7.9098    2.8078   -0.5600 H   0  0  0  0  0  0  0  0  0  0  0  0
   -7.8498    2.4615    1.2142 H   0  0  0  0  0  0  0  0  0  0  0  0
  1 22  1  0  0  0  0
  2 12  1  0  0  0  0
  2 34  1  0  0  0  0
  3  4  1  0  0  0  0
  3 20  1  0  0  0  0
  5 18  2  0  0  0  0
  6  5  1  0  0  0  0
  7  6  1  0  0  0  0
  8  6  2  0  0  0  0
  8 10  1  0  0  0  0
  9  8  1  0  0  0  0
 10 19  1  0  0  0  0
 11 10  1  0  0  0  0
 12 13  1  0  0  0  0
 13 15  2  0  0  0  0
 13 14  1  0  0  0  0
 15 16  1  0  0  0  0
 17 15  1  0  0  0  0
 18 17  1  0  0  0  0
 19 18  1  0  0  0  0
 19 12  2  0  0  0  0
 20 17  2  0  0  0  0
 20 21  1  0  0  0  0
 22 23  1  0  0  0  0
 22  4  2  0  0  0  0
 23 32  1  0  0  0  0
 24 26  1  0  0  0  0
 24 23  2  0  0  0  0
 25 24  1  0  0  0  0
 26 28  2  0  0  0  0
 27 26  1  0  0  0  0
 28 29  1  0  0  0  0
 28 30  1  0  0  0  0
 30 31  1  0  0  0  0
 32 30  2  0  0  0  0
 32 33  1  0  0  0  0
 34 37  1  0  0  0  0
 35 34  1  0  0  0  0
 36 34  1  0  0  0  0
M  CHG  1   1  -1
M  END
