1,2,4
q = -2.0, confidence = 0.798

 33 35  0  0  0  0  0  0  0  0999 V2000
   -1.9663    0.5881   -0.1630 O   0  5  0  0  0  0  0  0  0  0  0  0
   -0.4657    2.6979   -0.0496 N   0  0  0  0  0  2  0  0  0  0  0  0
   -1.8097    2.9073   -0.0505 N   0  0  0  0  0  0  0  0  0  0  0  0
    2.0885    1.2084   -0.2793 C   0  0  0  0  0  3  0  0  0  0  0  0
    3.0258    0.2142   -0.6001 C   0  0  0  0  0  0  0  0  0  0  0  0
    2.6921   -0.8128   -0.7971 H   0  0  0  0  0  0  0  0  0  0  0  0
    4.4183    0.4510   -0.6861 C   0  0  0  0  0  0  0  0  0  0  0  0
    5.0936   -0.3809   -0.9392 H   0  0  0  0  0  0  0  0  0  0  0  0
    4.9140    1.7152   -0.4311 C   0  0  0  0  0  3  0  0  0  0  0  0
    5.9946    1.9231   -0.4642 H   0  0  0  0  0  0  0  0  0  0  0  0
    4.5626    4.0804    0.1035 C   0  0  0  0  0  0  0  0  0  0  0  0
    5.6569    4.2005    0.0699 H   0  0  0  0  0  0  0  0  0  0  0  0
    3.7406    5.1663    0.3580 C   0  0  0  0  0  0  0  0  0  0  0  0
    4.1644    6.1652    0.5383 H   0  0  0  0  0  0  0  0  0  0  0  0
    2.3462    4.9785    0.3606 C   0  0  0  0  0  0  0  0  0  0  0  0
    1.6842    5.8421    0.5274 H   0  0  0  0  0  0  0  0  0  0  0  0
    1.7558    3.7190    0.1440 C   0  0  0  0  0  0  0  0  0  0  0  0
    2.5867    2.5502   -0.0824 C   0  0  0  0  0  0  0  0  0  0  0  0
    4.0210    2.7825   -0.1324 C   0  0  0  0  0  0  0  0  0  0  0  0
    0.3131    3.7338    0.1287 C   0  0  0  0  0  0  0  0  0  0  0  0
   -0.1997    4.7021    0.2719 H   0  0  0  0  0  0  0  0  0  0  0  0
   -2.4988    1.7678   -0.1136 C   0  0  0  0  0  0  0  0  0  0  0  0
   -3.9834    1.8546   -0.1148 C   0  0  0  0  0  0  0  0  0  0  0  0
   -4.7400    0.6639   -0.1568 C   0  0  0  0  0  0  0  0  0  0  0  0
   -4.2055   -0.2961   -0.1896 H   0  0  0  0  0  0  0  0  0  0  0  0
   -6.1399    0.7187   -0.1513 C   0  0  0  0  0  0  0  0  0  0  0  0
   -6.7232   -0.2146   -0.1833 H   0  0  0  0  0  0  0  0  0  0  0  0
   -6.7981    1.9590   -0.1056 C   0  0  0  0  0  0  0  0  0  0  0  0
   -7.8983    2.0009   -0.1018 H   0  0  0  0  0  0  0  0  0  0  0  0
   -6.0482    3.1476   -0.0644 C   0  0  0  0  0  0  0  0  0  0  0  0
   -6.5615    4.1208   -0.0282 H   0  0  0  0  0  0  0  0  0  0  0  0
   -4.6487    3.0988   -0.0682 C   0  0  0  0  0  0  0  0  0  0  0  0
   -4.0431    4.0153   -0.0339 H   0  0  0  0  0  0  0  0  0  0  0  0
  1 22  1  0  0  0  0
  2 20  1  0  0  0  0
  3  2  1  0  0  0  0
  4 18  2  0  0  0  0
  5  4  1  0  0  0  0
  6  5  1  0  0  0  0
  7  5  2  0  0  0  0
  7  9  1  0  0  0  0
  8  7  1  0  0  0  0
  9 19  1  0  0  0  0
 10  9  1  0  0  0  0
 11 13  1  0  0  0  0
 12 11  1  0  0  0  0
 13 15  2  0  0  0  0
 13 14  1  0  0  0  0
 15 16  1  0  0  0  0
 17 15  1  0  0  0  0
 18 17  1  0  0  0  0
 19 18  1  0  0  0  0
 19 11  2  0  0  0  0
 20 17  2  0  0  0  0
 20 21  1  0  0  0  0
 22  3  2  0  0  0  0
 23 22  1  0  0  0  0
 23 32  1  0  0  0  0
 24 26  1  0  0  0  0
 24 23  2  0  0  0  0
 25 24  1  0  0  0  0
 26 28  2  0  0  0  0
 27 26  1  0  0  0  0
 28 29  1  0  0  0  0
 28 30  1  0  0  0  0
 30 31  1  0  0  0  0
 32 30  2  0  0  0  0
 32 33  1  0  0  0  0
M  CHG  1   1  -1
M  END
