1,2,4
q = -1.0

 20 20  0  0  0  0  0  0  0  0999 V2000
   -1.1473   -0.1294    0.0175 N   0  0  0  0  0  2  0  0  0  0  0  0
    0.0796    2.2002   -0.0249 O   0  5  0  0  0  0  0  0  0  0  0  0
   -0.9345   -3.6383   -0.1024 O   0  0  0  0  0  0  0  0  0  0  0  0
    0.8073   -1.9697    0.0951 C   0  0  0  0  0  3  0  0  0  0  0  0
    1.4248   -2.4380   -0.6997 H   0  0  0  0  0  0  0  0  0  0  0  0
    1.2278   -2.2784    1.0785 H   0  0  0  0  0  0  0  0  0  0  0  0
   -0.6360   -2.4648   -0.0076 C   0  0  0  0  0  0  0  0  0  0  0  0
   -1.6764   -1.3691    0.0121 C   0  0  0  0  0  0  0  0  0  0  0  0
   -3.0648   -1.5669    0.0000 C   0  0  0  0  0  0  0  0  0  0  0  0
   -3.4469   -2.5988   -0.0126 H   0  0  0  0  0  0  0  0  0  0  0  0
   -3.9019   -0.4424    0.0004 C   0  0  0  0  0  0  0  0  0  0  0  0
   -4.9954   -0.5601   -0.0054 H   0  0  0  0  0  0  0  0  0  0  0  0
   -3.3321    0.8440    0.0030 C   0  0  0  0  0  0  0  0  0  0  0  0
   -3.9714    1.7380   -0.0012 H   0  0  0  0  0  0  0  0  0  0  0  0
   -1.9338    0.9799    0.0068 C   0  0  0  0  0  0  0  0  0  0  0  0
   -1.1620    2.2667   -0.0108 C   0  0  0  0  0  0  0  0  0  0  0  0
   -1.8772    3.5789   -0.0149 C   0  0  0  0  0  0  0  0  0  0  0  0
   -1.1439    4.4041   -0.0230 H   0  0  0  0  0  0  0  0  0  0  0  0
   -2.5298    3.6704    0.8786 H   0  0  0  0  0  0  0  0  0  0  0  0
   -2.5355    3.6601   -0.9053 H   0  0  0  0  0  0  0  0  0  0  0  0
  2 16  1  0  0  0  0
  3  7  2  0  0  0  0
  4  6  1  0  0  0  0
  5  4  1  0  0  0  0
  7  8  1  0  0  0  0
  7  4  1  0  0  0  0
  8  1  1  0  0  0  0
  9 11  1  0  0  0  0
  9  8  2  0  0  0  0
 10  9  1  0  0  0  0
 11 13  2  0  0  0  0
 12 11  1  0  0  0  0
 13 15  1  0  0  0  0
 14 13  1  0  0  0  0
 15  1  1  0  0  0  0
 16 15  2  0  0  0  0
 17 16  1  0  0  0  0
 17 19  1  0  0  0  0
 18 17  1  0  0  0  0
 20 17  1  0  0  0  0
M  CHG  1   2  -1
M  END
