1,2,21
q = -1.0

 55 57  0  0  0  0  0  0  0  0999 V2000
    0.2104    1.1497   -0.6559 O   0  5  0  0  0  0  0  0  0  0  0  0
   -3.5381   -0.0635    0.3124 N   0  0  0  0  0  2  0  0  0  0  0  0
   -1.9075   -2.2589   -0.8775 N   0  0  0  0  0  0  0  0  0  0  0  0
    0.1793   -1.7237   -0.5325 N   0  0  0  0  0  0  0  0  0  0  0  0
   -4.2159    0.6763    1.2267 C   0  0  0  0  0  3  0  0  0  0  0  0
   -3.7610    1.6577    1.4445 H   0  0  0  0  0  0  0  0  0  0  0  0
   -5.4134    0.2376    1.7995 C   0  0  0  0  0  0  0  0  0  0  0  0
   -5.9222    0.8801    2.5320 H   0  0  0  0  0  0  0  0  0  0  0  0
   -5.9333   -1.0084    1.4298 C   0  0  0  0  0  0  0  0  0  0  0  0
   -6.8682   -1.3875    1.8683 H   0  0  0  0  0  0  0  0  0  0  0  0
   -5.2321   -1.7666    0.4826 C   0  0  0  0  0  0  0  0  0  0  0  0
   -5.6069   -2.7476    0.1563 H   0  0  0  0  0  0  0  0  0  0  0  0
   -4.0411   -1.2705   -0.0671 C   0  0  0  0  0  0  0  0  0  0  0  0
   -3.3224   -2.0442   -1.1508 C   0  0  0  0  0  0  0  0  0  0  0  0
   -3.8051   -3.0292   -1.2851 H   0  0  0  0  0  0  0  0  0  0  0  0
   -3.4160   -1.4829   -2.1082 H   0  0  0  0  0  0  0  0  0  0  0  0
   -1.1658   -3.4088   -1.1116 C   0  0  0  0  0  0  0  0  0  0  0  0
   -1.6191   -4.3562   -1.4179 H   0  0  0  0  0  0  0  0  0  0  0  0
    0.1466   -3.0730   -0.8950 C   0  0  0  0  0  0  0  0  0  0  0  0
    1.0532   -3.6734   -0.9933 H   0  0  0  0  0  0  0  0  0  0  0  0
   -1.0907   -1.2250   -0.5241 C   0  0  0  0  0  2  0  0  0  0  0  0
    1.3537   -0.9605   -0.2514 C   0  0  0  0  0  0  0  0  0  0  0  0
    2.5355   -1.6424    0.0939 C   0  0  0  0  0  0  0  0  0  0  0  0
    2.5021   -2.7323    0.2173 H   0  0  0  0  0  0  0  0  0  0  0  0
    3.7285   -0.9483    0.3046 C   0  0  0  0  0  0  0  0  0  0  0  0
    3.6840    0.4593    0.1593 C   0  0  0  0  0  0  0  0  0  0  0  0
    4.6135    1.0199    0.3227 H   0  0  0  0  0  0  0  0  0  0  0  0
    2.5307    1.1858   -0.1522 C   0  0  0  0  0  0  0  0  0  0  0  0
    1.2959    0.4648   -0.3584 C   0  0  0  0  0  0  0  0  0  0  0  0
    5.0459   -1.6399    0.6926 C   0  0  0  0  0  0  0  0  0  0  0  0
    4.8882   -3.1665    0.7960 C   0  0  0  0  0  0  0  0  0  0  0  0
    4.5691   -3.6128   -0.1680 H   0  0  0  0  0  0  0  0  0  0  0  0
    4.1501   -3.4526    1.5728 H   0  0  0  0  0  0  0  0  0  0  0  0
    5.8571   -3.6296    1.0720 H   0  0  0  0  0  0  0  0  0  0  0  0
    5.5208   -1.1062    2.0634 C   0  0  0  0  0  0  0  0  0  0  0  0
    4.7703   -1.3195    2.8512 H   0  0  0  0  0  0  0  0  0  0  0  0
    5.6812   -0.0100    2.0414 H   0  0  0  0  0  0  0  0  0  0  0  0
    6.4794   -1.5820    2.3588 H   0  0  0  0  0  0  0  0  0  0  0  0
    6.1185   -1.3339   -0.3775 C   0  0  0  0  0  0  0  0  0  0  0  0
    7.0845   -1.8121   -0.1116 H   0  0  0  0  0  0  0  0  0  0  0  0
    6.2981   -0.2451   -0.4770 H   0  0  0  0  0  0  0  0  0  0  0  0
    5.8051   -1.7142   -1.3708 H   0  0  0  0  0  0  0  0  0  0  0  0
    2.5516    2.7230   -0.2604 C   0  0  0  0  0  0  0  0  0  0  0  0
    2.1051    3.1583   -1.6765 C   0  0  0  0  0  0  0  0  0  0  0  0
    1.0734    2.8228   -1.8862 H   0  0  0  0  0  0  0  0  0  0  0  0
    2.7831    2.7393   -2.4485 H   0  0  0  0  0  0  0  0  0  0  0  0
    2.1359    4.2649   -1.7576 H   0  0  0  0  0  0  0  0  0  0  0  0
    3.9630    3.2904   -0.0189 C   0  0  0  0  0  0  0  0  0  0  0  0
    4.6995    2.9123   -0.7575 H   0  0  0  0  0  0  0  0  0  0  0  0
    4.3397    3.0583    0.9984 H   0  0  0  0  0  0  0  0  0  0  0  0
    3.9325    4.3942   -0.1160 H   0  0  0  0  0  0  0  0  0  0  0  0
    1.6057    3.3365    0.8010 C   0  0  0  0  0  0  0  0  0  0  0  0
    1.6680    4.4442    0.7599 H   0  0  0  0  0  0  0  0  0  0  0  0
    1.9050    3.0175    1.8208 H   0  0  0  0  0  0  0  0  0  0  0  0
    0.5520    3.0488    0.6295 H   0  0  0  0  0  0  0  0  0  0  0  0
  1 29  1  0  0  0  0
  2  5  1  0  0  0  0
  3 21  1  0  0  0  0
  4 21  1  0  0  0  0
  4 22  1  0  0  0  0
  5  6  1  0  0  0  0
  5  7  1  0  0  0  0
  7  8  1  0  0  0  0
  9  7  2  0  0  0  0
  9 10  1  0  0  0  0
 11  9  1  0  0  0  0
 12 11  1  0  0  0  0
 13  2  1  0  0  0  0
 13 11  2  0  0  0  0
 14  3  1  0  0  0  0
 14 13  1  0  0  0  0
 15 14  1  0  0  0  0
 16 14  1  0  0  0  0
 17 19  2  0  0  0  0
 17  3  1  0  0  0  0
 18 17  1  0  0  0  0
 19  4  1  0  0  0  0
 20 19  1  0  0  0  0
 22 23  1  0  0  0  0
 23 24  1  0  0  0  0
 23 25  2  0  0  0  0
 25 30  1  0  0  0  0
 26 25  1  0  0  0  0
 26 27  1  0  0  0  0
 28 26  2  0  0  0  0
 29 22  2  0  0  0  0
 29 28  1  0  0  0  0
 30 31  1  0  0  0  0
 30 35  1  0  0  0  0
 31 34  1  0  0  0  0
 31 33  1  0  0  0  0
 32 31  1  0  0  0  0
 35 38  1  0  0  0  0
 35 36  1  0  0  0  0
 37 35  1  0  0  0  0
 39 40  1  0  0  0  0
 39 30  1  0  0  0  0
 41 39  1  0  0  0  0
 42 39  1  0  0  0  0
 43 28  1  0  0  0  0
 43 48  1  0  0  0  0
 43 52  1  0  0  0  0
 44 43  1  0  0  0  0
 45 44  1  0  0  0  0
 46 44  1  0  0  0  0
 47 44  1  0  0  0  0
 48 50  1  0  0  0  0
 49 48  1  0  0  0  0
 51 48  1  0  0  0  0
 52 54  1  0  0  0  0
 53 52  1  0  0  0  0
 55 52  1  0  0  0  0
M  CHG  1   1  -1
M  END
