1,2,3
q = 0.0, confidence = 0.542

 32 34  0  0  0  0  0  0  0  0999 V2000
   -2.2822    0.9277   -0.0201 N   0  0  0  0  0  2  0  0  0  0  0  0
   -0.2274    2.6730    0.0309 O   0  5  0  0  0  0  0  0  0  0  0  0
   -1.0930   -1.3495    0.0050 C   0  0  0  0  0  3  0  0  0  0  0  0
   -3.1419   -0.0231   -0.0411 N   0  0  0  0  0  0  0  0  0  0  0  0
   -4.7788   -2.3733   -0.0607 C   0  0  0  0  0  0  0  0  0  0  0  0
   -5.2515   -1.3822   -0.0961 H   0  0  0  0  0  0  0  0  0  0  0  0
   -2.5254   -1.2685   -0.0231 C   0  0  0  0  0  0  0  0  0  0  0  0
   -2.6036    2.2785   -0.0175 C   0  0  0  0  0  0  0  0  0  0  0  0
   -4.9166   -4.8108   -0.0103 C   0  0  0  0  0  0  0  0  0  0  0  0
   -5.5345   -5.7214   -0.0078 H   0  0  0  0  0  0  0  0  0  0  0  0
   -1.3012   -3.7953    0.0777 C   0  0  0  0  0  0  0  0  0  0  0  0
   -0.8156   -4.7834    0.1223 H   0  0  0  0  0  0  0  0  0  0  0  0
   -4.1587    4.1546   -0.0301 C   0  0  0  0  0  0  0  0  0  0  0  0
   -5.5400   -3.5334   -0.0567 C   0  0  0  0  0  0  0  0  0  0  0  0
   -6.6383   -3.4660   -0.0898 H   0  0  0  0  0  0  0  0  0  0  0  0
   -3.3563   -2.4406   -0.0200 C   0  0  0  0  0  3  0  0  0  0  0  0
   -3.9257    2.7798   -0.0389 C   0  0  0  0  0  0  0  0  0  0  0  0
   -4.7533    2.0558   -0.0612 H   0  0  0  0  0  0  0  0  0  0  0  0
   -2.7201   -3.7344    0.0291 C   0  0  0  0  0  0  0  0  0  0  0  0
   -0.5171   -2.6407    0.0649 C   0  0  0  0  0  0  0  0  0  0  0  0
    0.5756   -2.7527    0.0926 H   0  0  0  0  0  0  0  0  0  0  0  0
   -1.7162    4.5474    0.0222 C   0  0  0  0  0  0  0  0  0  0  0  0
   -0.8583    5.2350    0.0456 H   0  0  0  0  0  0  0  0  0  0  0  0
   -1.4475    3.1458    0.0127 C   0  0  0  0  0  0  0  0  0  0  0  0
   -3.0239    5.0204    0.0012 C   0  0  0  0  0  0  0  0  0  0  0  0
   -3.1942    6.1098    0.0091 H   0  0  0  0  0  0  0  0  0  0  0  0
   -5.5530    4.7275   -0.0527 C   0  0  0  0  0  0  0  0  0  0  0  0
   -5.7154    5.3700   -0.9443 H   0  0  0  0  0  0  0  0  0  0  0  0
   -5.7471    5.3633    0.8373 H   0  0  0  0  0  0  0  0  0  0  0  0
   -6.3194    3.9288   -0.0695 H   0  0  0  0  0  0  0  0  0  0  0  0
   -3.5345   -4.9059    0.0322 C   0  0  0  0  0  0  0  0  0  0  0  0
   -3.0408   -5.8898    0.0695 H   0  0  0  0  0  0  0  0  0  0  0  0
  1  8  1  0  0  0  0
  3 20  2  0  0  0  0
  4  7  2  0  0  0  0
  4  1  1  0  0  0  0
  5 14  2  0  0  0  0
  5 16  1  0  0  0  0
  6  5  1  0  0  0  0
  7 16  1  0  0  0  0
  7  3  1  0  0  0  0
  8 24  1  0  0  0  0
  9 10  1  0  0  0  0
  9 31  2  0  0  0  0
 11 12  1  0  0  0  0
 13 25  2  0  0  0  0
 14  9  1  0  0  0  0
 15 14  1  0  0  0  0
 16 19  1  0  0  0  0
 17 13  1  0  0  0  0
 17  8  2  0  0  0  0
 18 17  1  0  0  0  0
 19 31  1  0  0  0  0
 19 11  2  0  0  0  0
 20 11  1  0  0  0  0
 20 21  1  0  0  0  0
 22 23  1  0  0  0  0
 24 22  2  0  0  0  0
 24  2  1  0  0  0  0
 25 26  1  0  0  0  0
 25 22  1  0  0  0  0
 27 13  1  0  0  0  0
 27 29  1  0  0  0  0
 28 27  1  0  0  0  0
 30 27  1  0  0  0  0
 31 32  1  0  0  0  0
M  CHG  1   2  -1
M  END
