1,2,5
q = -1.0

 42 46  0  0  1  0  0  0  0  0999 V2000
   -2.9737   -1.0648   -0.0174 O   0  0  0  0  0  1  0  0  0  0  0  0
   -1.2808    0.9960    0.0087 N   0  0  0  0  0  2  0  0  0  0  0  0
   -2.6421    1.1795    0.0475 N   0  0  0  0  0  0  0  0  0  0  0  0
   -3.0075    2.1332   -0.0386 H   0  0  0  0  0  0  0  0  0  0  0  0
    1.2038   -0.4982    0.0150 C   0  0  0  0  0  2  0  0  0  0  0  0
    2.1047   -1.5497    0.1349 C   0  0  0  0  0  0  0  0  0  0  0  0
    1.7157   -2.5763    0.1905 H   0  0  0  0  0  0  0  0  0  0  0  0
    3.5214   -1.3705    0.1622 C   0  0  0  0  0  0  0  0  0  0  0  0
    4.4032   -2.4735    0.2733 C   0  0  0  0  0  0  0  0  0  0  0  0
    3.9757   -3.4849    0.3500 H   0  0  0  0  0  0  0  0  0  0  0  0
    5.7899   -2.2834    0.2804 C   0  0  0  0  0  0  0  0  0  0  0  0
    6.4623   -3.1503    0.3658 H   0  0  0  0  0  0  0  0  0  0  0  0
    6.3258   -0.9920    0.1774 C   0  0  0  0  0  0  0  0  0  0  0  0
    7.4164   -0.8408    0.1824 H   0  0  0  0  0  0  0  0  0  0  0  0
    5.4813    0.1366    0.0665 C   0  0  0  0  0  0  0  0  0  0  0  0
    6.0048    1.4676   -0.0373 C   0  0  0  0  0  3  0  0  0  0  0  0
    7.0966    1.6098   -0.0356 H   0  0  0  0  0  0  0  0  0  0  0  0
    5.1578    2.5455   -0.1336 C   0  0  0  0  0  0  0  0  0  0  0  0
    5.5602    3.5674   -0.2096 H   0  0  0  0  0  0  0  0  0  0  0  0
    3.7322    2.3812   -0.1339 C   0  0  0  0  0  0  0  0  0  0  0  0
    2.8796    3.5082   -0.2171 C   0  0  0  0  0  0  0  0  0  0  0  0
    3.3190    4.5143   -0.2882 H   0  0  0  0  0  0  0  0  0  0  0  0
    1.5079    3.3365   -0.1961 C   0  0  0  0  0  0  0  0  0  0  0  0
    0.8479    4.2169   -0.2442 H   0  0  0  0  0  0  0  0  0  0  0  0
    0.9094    2.0480   -0.1102 C   0  0  0  0  0  0  0  0  0  0  0  0
    1.7229    0.8587   -0.0501 C   0  0  1  0  0  3  0  0  0  0  0  0
    3.1616    1.0614   -0.0429 C   0  0  0  0  0  0  0  0  0  0  0  0
    4.0566   -0.0494    0.0596 C   0  0  0  0  0  0  0  0  0  0  0  0
   -0.5219    2.0621   -0.0700 C   0  0  0  0  0  0  0  0  0  0  0  0
   -1.0177    3.0524   -0.1021 H   0  0  0  0  0  0  0  0  0  0  0  0
   -3.4645    0.0832    0.0358 C   0  0  1  0  0  3  0  0  0  0  0  0
   -4.9293    0.3209    0.0719 C   0  0  0  0  0  0  0  0  0  0  0  0
   -5.5060    1.5350    0.5054 C   0  0  0  0  0  0  0  0  0  0  0  0
   -4.8765    2.3578    0.8796 H   0  0  0  0  0  0  0  0  0  0  0  0
   -6.8981    1.6900    0.5119 C   0  0  0  0  0  0  0  0  0  0  0  0
   -7.3411    2.6354    0.8589 H   0  0  0  0  0  0  0  0  0  0  0  0
   -7.7249    0.6352    0.0919 C   0  0  0  0  0  0  0  0  0  0  0  0
   -8.8183    0.7591    0.0983 H   0  0  0  0  0  0  0  0  0  0  0  0
   -7.1565   -0.5802   -0.3253 C   0  0  0  0  0  0  0  0  0  0  0  0
   -7.8035   -1.4099   -0.6468 H   0  0  0  0  0  0  0  0  0  0  0  0
   -5.7664   -0.7413   -0.3316 C   0  0  0  0  0  0  0  0  0  0  0  0
   -5.2977   -1.6846   -0.6472 H   0  0  0  0  0  0  0  0  0  0  0  0
  2  3  1  0  0  0  0
  4  3  1  0  0  0  0
  5  6  1  0  0  0  0
  6  8  2  0  0  0  0
  6  7  1  0  0  0  0
  8  9  1  0  0  0  0
  9 11  2  0  0  0  0
  9 10  1  0  0  0  0
 11 12  1  0  0  0  0
 13 14  1  0  0  0  0
 13 11  1  0  0  0  0
 15 13  2  0  0  0  0
 16 17  1  0  0  0  0
 16 15  1  0  0  0  0
 18 16  1  0  0  0  0
 19 18  1  0  0  0  0
 20 18  2  0  0  0  0
 20 27  1  0  0  0  0
 21 23  2  0  0  0  0
 21 20  1  0  0  0  0
 22 21  1  0  0  0  0
 23 25  1  0  0  0  0
 24 23  1  0  0  0  0
 25 29  2  0  0  0  0
 25 26  1  0  0  0  0
 26 27  1  0  0  0  0
 26  5  1  1  0  0  0
 27 28  2  0  0  0  0
 28 15  1  0  0  0  0
 28  8  1  0  0  0  0
 29  2  1  0  0  0  0
 30 29  1  0  0  0  0
 31  1  1  6  0  0  0
 31  3  1  0  0  0  0
 31 32  1  0  0  0  0
 32 33  1  0  0  0  0
 33 35  2  0  0  0  0
 33 34  1  0  0  0  0
 35 36  1  0  0  0  0
 37 38  1  0  0  0  0
 37 35  1  0  0  0  0
 39 37  2  0  0  0  0
 40 39  1  0  0  0  0
 41 39  1  0  0  0  0
 41 32  2  0  0  0  0
 42 41  1  0  0  0  0
M  END
