1,3,6
q = -1.0

 46 46  0  0  1  0  0  0  0  0999 V2000
    1.2877    0.5454    0.9636 N   0  0  0  0  0  2  0  0  0  0  0  0
   -1.8408   -1.0372    0.2752 B   0  0  0  0  0  0  0  0  0  0  0  0
   -1.2652    1.3502    0.0186 C   0  0  0  0  0  2  0  0  0  0  0  0
   -2.0870    0.4677    0.4792 O   0  0  0  0  0  0  0  0  0  0  0  0
   -0.3673   -1.1090   -0.2153 O   0  0  0  0  0  0  0  0  0  0  0  0
    1.9197   -0.3238   -1.6130 O   0  0  0  0  0  1  0  0  0  0  0  0
    1.8782    1.5238    1.6877 C   0  0  0  0  0  3  0  0  0  0  0  0
    1.8277    2.5373    1.2627 H   0  0  0  0  0  0  0  0  0  0  0  0
    2.5268    1.2705    2.8992 C   0  0  0  0  0  0  0  0  0  0  0  0
    2.9885    2.1016    3.4508 H   0  0  0  0  0  0  0  0  0  0  0  0
    2.5690   -0.0450    3.3881 C   0  0  0  0  0  0  0  0  0  0  0  0
    3.0640   -0.2755    4.3431 H   0  0  0  0  0  0  0  0  0  0  0  0
    1.9588   -1.0581    2.6365 C   0  0  0  0  0  0  0  0  0  0  0  0
    1.9539   -2.1015    2.9852 H   0  0  0  0  0  0  0  0  0  0  0  0
    1.3292   -0.7310    1.4281 C   0  0  0  0  0  0  0  0  0  0  0  0
    0.6424   -1.7477    0.5317 C   0  0  2  0  0  0  0  0  0  0  0  0
    0.2082   -2.5441    1.1708 H   0  0  0  0  0  0  0  0  0  0  0  0
    1.6276   -2.4219   -0.4383 C   0  0  0  0  0  0  0  0  0  0  0  0
    2.3982   -3.0026    0.1129 H   0  0  0  0  0  0  0  0  0  0  0  0
    1.0602   -3.1678   -1.0415 H   0  0  0  0  0  0  0  0  0  0  0  0
    2.3051   -1.4847   -1.4178 C   0  0  1  0  0  3  0  0  0  0  0  0
    3.4719   -2.0270   -2.1985 C   0  0  0  0  0  0  0  0  0  0  0  0
    4.3289   -2.2111   -1.5156 H   0  0  0  0  0  0  0  0  0  0  0  0
    3.7749   -1.3087   -2.9810 H   0  0  0  0  0  0  0  0  0  0  0  0
    3.2175   -3.0060   -2.6555 H   0  0  0  0  0  0  0  0  0  0  0  0
   -2.0613   -1.7547    1.7133 C   0  0  0  0  0  0  0  0  0  0  0  0
   -1.8305   -2.8426    1.6377 H   0  0  0  0  0  0  0  0  0  0  0  0
   -1.3415   -1.3434    2.4596 H   0  0  0  0  0  0  0  0  0  0  0  0
   -3.4866   -1.5889    2.2559 C   0  0  0  0  0  0  0  0  0  0  0  0
   -3.7569   -0.5160    2.3386 H   0  0  0  0  0  0  0  0  0  0  0  0
   -3.6210   -2.0460    3.2591 H   0  0  0  0  0  0  0  0  0  0  0  0
   -4.2329   -2.0556    1.5802 H   0  0  0  0  0  0  0  0  0  0  0  0
   -2.7835   -1.5327   -0.9441 C   0  0  0  0  0  0  0  0  0  0  0  0
   -3.8495   -1.3517   -0.6833 H   0  0  0  0  0  0  0  0  0  0  0  0
   -2.5873   -0.8976   -1.8358 H   0  0  0  0  0  0  0  0  0  0  0  0
   -2.5794   -3.0057   -1.3104 C   0  0  0  0  0  0  0  0  0  0  0  0
   -1.5184   -3.2046   -1.5774 H   0  0  0  0  0  0  0  0  0  0  0  0
   -3.1950   -3.3293   -2.1762 H   0  0  0  0  0  0  0  0  0  0  0  0
   -2.8310   -3.6802   -0.4639 H   0  0  0  0  0  0  0  0  0  0  0  0
   -1.7098    2.7753    0.2536 C   0  0  0  0  0  0  0  0  0  0  0  0
   -0.8818    3.2820    0.7993 H   0  0  0  0  0  0  0  0  0  0  0  0
   -1.7044    3.2741   -0.7408 H   0  0  0  0  0  0  0  0  0  0  0  0
   -3.0461    2.9618    0.9686 C   0  0  0  0  0  0  0  0  0  0  0  0
   -3.0327    2.4955    1.9735 H   0  0  0  0  0  0  0  0  0  0  0  0
   -3.8703    2.4853    0.4025 H   0  0  0  0  0  0  0  0  0  0  0  0
   -3.2825    4.0377    1.0878 H   0  0  0  0  0  0  0  0  0  0  0  0
  1 15  1  0  0  0  0
  1  7  1  0  0  0  0
  2  4  1  0  0  0  0
  2 26  1  0  0  0  0
  3 40  1  0  0  0  0
  3  4  1  0  0  0  0
  5  2  1  0  0  0  0
  5 16  1  0  0  0  0
  7  9  1  0  0  0  0
  8  7  1  0  0  0  0
  9 11  2  0  0  0  0
  9 10  1  0  0  0  0
 11 12  1  0  0  0  0
 13 14  1  0  0  0  0
 13 11  1  0  0  0  0
 15 13  2  0  0  0  0
 16 17  1  1  0  0  0
 16 15  1  0  0  0  0
 18 19  1  0  0  0  0
 18 16  1  0  0  0  0
 20 18  1  0  0  0  0
 21  6  1  6  0  0  0
 21 18  1  0  0  0  0
 22 23  1  0  0  0  0
 22 21  1  0  0  0  0
 24 22  1  0  0  0  0
 25 22  1  0  0  0  0
 26 29  1  0  0  0  0
 26 28  1  0  0  0  0
 27 26  1  0  0  0  0
 29 30  1  0  0  0  0
 29 31  1  0  0  0  0
 32 29  1  0  0  0  0
 33 34  1  0  0  0  0
 33  2  1  0  0  0  0
 35 33  1  0  0  0  0
 36 33  1  0  0  0  0
 36 39  1  0  0  0  0
 37 36  1  0  0  0  0
 38 36  1  0  0  0  0
 40 41  1  0  0  0  0
 40 43  1  0  0  0  0
 42 40  1  0  0  0  0
 43 46  1  0  0  0  0
 43 44  1  0  0  0  0
 45 43  1  0  0  0  0
M  END
