5,6,23
q = -2.0, confidence = 0.864

 30 32  0  0  1  0  0  0  0  0999 V2000
    2.0695    5.4549   -0.0756 C   0  0  0  0  0  0  0  0  0  0  0  0
    1.7432    6.5068   -0.1063 H   0  0  0  0  0  0  0  0  0  0  0  0
    2.1957   -4.5264    0.0500 C   0  0  0  0  0  0  0  0  0  0  0  0
    2.5941   -5.5528    0.0615 H   0  0  0  0  0  0  0  0  0  0  0  0
    2.7985    0.2773   -0.0007 N   0  0  0  0  0  2  0  0  0  0  0  0
    0.5291    2.1829   -0.0664 O   0  0  0  0  0  1  0  0  0  0  0  0
    2.9039    2.7478   -0.0057 C   0  0  0  0  0  0  0  0  0  0  0  0
    1.1186    4.4464   -0.0953 C   0  0  0  0  0  0  0  0  0  0  0  0
    0.0422    4.6681   -0.1435 H   0  0  0  0  0  0  0  0  0  0  0  0
    0.3103   -2.9661    0.0284 C   0  0  0  0  0  0  0  0  0  0  0  0
   -0.7831   -2.8530    0.0189 H   0  0  0  0  0  0  0  0  0  0  0  0
    4.8416   -1.1758    0.0019 C   0  0  0  0  0  0  0  0  0  0  0  0
    5.5409   -0.3284   -0.0171 H   0  0  0  0  0  0  0  0  0  0  0  0
    0.8301   -4.2912    0.0466 C   0  0  0  0  0  0  0  0  0  0  0  0
    0.1257   -5.1381    0.0557 H   0  0  0  0  0  0  0  0  0  0  0  0
    2.5682   -2.0950    0.0223 C   0  0  2  0  0  3  0  0  0  0  0  0
    4.5209   -3.5974    0.0341 C   0  0  0  0  0  0  0  0  0  0  0  0
    4.9365   -4.6170    0.0438 H   0  0  0  0  0  0  0  0  0  0  0  0
    3.1053   -3.4289    0.0366 C   0  0  0  0  0  0  0  0  0  0  0  0
    1.4825    3.0574   -0.0554 C   0  0  1  0  0  3  0  0  0  0  0  0
    3.4560    5.1518   -0.0184 C   0  0  0  0  0  0  0  0  0  0  0  0
    4.2039    5.9574   -0.0031 H   0  0  0  0  0  0  0  0  0  0  0  0
    1.1483   -1.8501    0.0159 C   0  0  0  0  0  2  0  0  0  0  0  0
    3.4438    1.4255    0.0173 C   0  0  0  0  0  0  0  0  0  0  0  0
    4.5497    1.3843    0.0530 H   0  0  0  0  0  0  0  0  0  0  0  0
    3.8473    3.8236    0.0137 C   0  0  0  0  0  0  0  0  0  0  0  0
    4.9189    3.5674    0.0535 H   0  0  0  0  0  0  0  0  0  0  0  0
    3.4591   -0.9765    0.0093 C   0  0  0  0  0  0  0  0  0  0  0  0
    5.3631   -2.4926    0.0160 C   0  0  0  0  0  0  0  0  0  0  0  0
    6.4546   -2.6336    0.0111 H   0  0  0  0  0  0  0  0  0  0  0  0
  1 21  1  0  0  0  0
  2  1  1  0  0  0  0
  3  4  1  0  0  0  0
  5 28  1  0  0  0  0
  5 24  1  0  0  0  0
  7 26  1  0  0  0  0
  7 24  2  0  0  0  0
  8  1  2  0  0  0  0
  8 20  1  0  0  0  0
  9  8  1  0  0  0  0
 10 14  2  0  0  0  0
 11 10  1  0  0  0  0
 12 28  2  0  0  0  0
 12 29  1  0  0  0  0
 13 12  1  0  0  0  0
 14  3  1  0  0  0  0
 14 15  1  0  0  0  0
 16 23  1  6  0  0  0
 16 19  1  0  0  0  0
 17 19  1  0  0  0  0
 17 18  1  0  0  0  0
 19  3  2  0  0  0  0
 20  6  1  6  0  0  0
 20  7  1  0  0  0  0
 21 22  1  0  0  0  0
 21 26  2  0  0  0  0
 23 10  1  0  0  0  0
 24 25  1  0  0  0  0
 26 27  1  0  0  0  0
 28 16  1  0  0  0  0
 29 17  2  0  0  0  0
 30 29  1  0  0  0  0
M  END
