2,3,29
q = -2.0, confidence = 0.904

 30 32  0  0  1  0  0  0  0  0999 V2000
    7.4398   -1.1888    0.0059 Cl  0  0  0  0  0  0  0  0  0  0  0  0
    1.5372   -1.1009   -0.0688 O   0  0  0  0  0  1  0  0  0  0  0  0
    1.7839    1.8527    0.0003 N   0  0  0  0  0  2  0  0  0  0  0  0
    2.8282   -1.0382   -0.0574 C   0  0  2  0  0  3  0  0  0  0  0  0
    3.6104    0.1871   -0.0058 C   0  0  0  0  0  0  0  0  0  0  0  0
    5.0379    0.1052    0.0144 C   0  0  0  0  0  0  0  0  0  0  0  0
    5.6264    1.0341    0.0556 H   0  0  0  0  0  0  0  0  0  0  0  0
    5.6915   -1.1149   -0.0197 C   0  0  0  0  0  0  0  0  0  0  0  0
    4.9430   -2.3200   -0.0794 C   0  0  0  0  0  0  0  0  0  0  0  0
    5.4753   -3.2820   -0.1110 H   0  0  0  0  0  0  0  0  0  0  0  0
    3.5591   -2.2751   -0.0991 C   0  0  0  0  0  0  0  0  0  0  0  0
    2.9611   -3.1968   -0.1487 H   0  0  0  0  0  0  0  0  0  0  0  0
    3.0534    1.5041    0.0187 C   0  0  0  0  0  0  0  0  0  0  0  0
    3.8031    2.3178    0.0554 H   0  0  0  0  0  0  0  0  0  0  0  0
    1.3577    3.2045    0.0112 C   0  0  0  0  0  0  0  0  0  0  0  0
    2.1895    4.3265    0.0062 C   0  0  0  0  0  0  0  0  0  0  0  0
    3.2838    4.2271   -0.0109 H   0  0  0  0  0  0  0  0  0  0  0  0
    1.6214    5.6237    0.0201 C   0  0  0  0  0  0  0  0  0  0  0  0
    2.2896    6.4983    0.0170 H   0  0  0  0  0  0  0  0  0  0  0  0
    0.2437    5.8028    0.0353 C   0  0  0  0  0  0  0  0  0  0  0  0
   -0.1879    6.8157    0.0445 H   0  0  0  0  0  0  0  0  0  0  0  0
   -0.6332    4.6789    0.0354 C   0  0  0  0  0  0  0  0  0  0  0  0
   -2.0530    4.8059    0.0453 C   0  0  0  0  0  0  0  0  0  0  0  0
   -2.5013    5.8114    0.0561 H   0  0  0  0  0  0  0  0  0  0  0  0
   -2.8476    3.6706    0.0392 C   0  0  0  0  0  0  0  0  0  0  0  0
   -3.9448    3.7667    0.0452 H   0  0  0  0  0  0  0  0  0  0  0  0
   -2.2725    2.3686    0.0223 C   0  0  0  0  0  0  0  0  0  0  0  0
   -2.9616    1.5123    0.0107 H   0  0  0  0  0  0  0  0  0  0  0  0
   -0.8900    2.1782    0.0137 C   0  0  0  0  0  2  0  0  0  0  0  0
   -0.0639    3.3584    0.0220 C   0  0  1  0  0  3  0  0  0  0  0  0
  3 15  1  0  0  0  0
  3 13  1  0  0  0  0
  4  2  1  6  0  0  0
  4  5  1  0  0  0  0
  5  6  1  0  0  0  0
  5 13  2  0  0  0  0
  6  7  1  0  0  0  0
  8  1  1  0  0  0  0
  8  6  2  0  0  0  0
  9  8  1  0  0  0  0
 10  9  1  0  0  0  0
 11  9  2  0  0  0  0
 11  4  1  0  0  0  0
 12 11  1  0  0  0  0
 13 14  1  0  0  0  0
 15 30  1  0  0  0  0
 16 15  2  0  0  0  0
 16 18  1  0  0  0  0
 17 16  1  0  0  0  0
 18 20  2  0  0  0  0
 19 18  1  0  0  0  0
 20 22  1  0  0  0  0
 20 21  1  0  0  0  0
 22 23  2  0  0  0  0
 23 24  1  0  0  0  0
 25 26  1  0  0  0  0
 25 23  1  0  0  0  0
 27 25  2  0  0  0  0
 28 27  1  0  0  0  0
 29 27  1  0  0  0  0
 30 29  1  6  0  0  0
 30 22  1  0  0  0  0
M  END
