2,5,6
q = -1.0

 48 51  0  0  0  0  0  0  0  0999 V2000
    2.0791    1.3880   -0.8539 O   0  0  0  0  0  0  0  0  0  0  0  0
   -2.7429    0.5272   -0.4197 N   0  0  0  0  0  2  0  0  0  0  0  0
    2.0529   -0.1464   -0.2519 P   0  0  0  0  0  4  0  0  0  0  0  0
    0.9116    2.1646   -0.8182 C   0  0  0  0  0  0  0  0  0  0  0  0
    1.0209   -1.0971   -0.8898 O   0  0  0  0  0  1  0  0  0  0  0  0
   -0.3639    1.5824   -0.7267 C   0  0  0  0  0  2  0  0  0  0  0  0
   -1.4645    2.4940   -0.6545 C   0  0  0  0  0  0  0  0  0  0  0  0
   -1.2964    3.8949   -0.7244 C   0  0  0  0  0  0  0  0  0  0  0  0
   -2.1720    4.5600   -0.6724 H   0  0  0  0  0  0  0  0  0  0  0  0
   -0.0061    4.4215   -0.8517 C   0  0  0  0  0  0  0  0  0  0  0  0
    0.1507    5.5083   -0.9120 H   0  0  0  0  0  0  0  0  0  0  0  0
    1.1006    3.5554   -0.8901 C   0  0  0  0  0  0  0  0  0  0  0  0
    2.1260    3.9450   -0.9776 H   0  0  0  0  0  0  0  0  0  0  0  0
    3.7194   -0.7026   -0.6453 C   0  0  0  0  0  0  0  0  0  0  0  0
    4.8127    0.1860   -0.6877 C   0  0  0  0  0  0  0  0  0  0  0  0
    4.6542    1.2621   -0.5261 H   0  0  0  0  0  0  0  0  0  0  0  0
    6.0946   -0.3102   -0.9611 C   0  0  0  0  0  0  0  0  0  0  0  0
    6.9504    0.3803   -1.0015 H   0  0  0  0  0  0  0  0  0  0  0  0
    6.2853   -1.6830   -1.1906 C   0  0  0  0  0  0  0  0  0  0  0  0
    7.2940   -2.0676   -1.4051 H   0  0  0  0  0  0  0  0  0  0  0  0
    5.1930   -2.5647   -1.1546 C   0  0  0  0  0  0  0  0  0  0  0  0
    5.3422   -3.6380   -1.3451 H   0  0  0  0  0  0  0  0  0  0  0  0
    3.9060   -2.0799   -0.8828 C   0  0  0  0  0  0  0  0  0  0  0  0
    3.0381   -2.7563   -0.8660 H   0  0  0  0  0  0  0  0  0  0  0  0
    1.8176    0.0045    1.5352 C   0  0  0  0  0  0  0  0  0  0  0  0
    0.9903   -0.9351    2.1867 C   0  0  0  0  0  0  0  0  0  0  0  0
    0.4601   -1.7089    1.6049 H   0  0  0  0  0  0  0  0  0  0  0  0
    0.8157   -0.8422    3.5752 C   0  0  0  0  0  0  0  0  0  0  0  0
    0.1639   -1.5662    4.0866 H   0  0  0  0  0  0  0  0  0  0  0  0
    1.4556    0.1730    4.3044 C   0  0  0  0  0  0  0  0  0  0  0  0
    1.3100    0.2420    5.3933 H   0  0  0  0  0  0  0  0  0  0  0  0
    2.2765    1.1071    3.6497 C   0  0  0  0  0  0  0  0  0  0  0  0
    2.7701    1.9067    4.2223 H   0  0  0  0  0  0  0  0  0  0  0  0
    2.4618    1.0254    2.2632 C   0  0  0  0  0  0  0  0  0  0  0  0
    3.0956    1.7613    1.7455 H   0  0  0  0  0  0  0  0  0  0  0  0
   -2.7369    1.8409   -0.4923 C   0  0  0  0  0  0  0  0  0  0  0  0
   -3.6911    2.3968   -0.4431 H   0  0  0  0  0  0  0  0  0  0  0  0
   -3.9680   -0.1616   -0.2105 C   0  0  0  0  0  0  0  0  0  0  0  0
   -4.2999   -1.2677   -1.0183 C   0  0  0  0  0  0  0  0  0  0  0  0
   -3.5808   -1.6142   -1.7710 H   0  0  0  0  0  0  0  0  0  0  0  0
   -5.5333   -1.9053   -0.8401 C   0  0  0  0  0  0  0  0  0  0  0  0
   -5.7925   -2.7633   -1.4783 H   0  0  0  0  0  0  0  0  0  0  0  0
   -6.4277   -1.4701    0.1522 C   0  0  0  0  0  0  0  0  0  0  0  0
   -7.3886   -1.9870    0.2948 H   0  0  0  0  0  0  0  0  0  0  0  0
   -6.0840   -0.3847    0.9730 C   0  0  0  0  0  0  0  0  0  0  0  0
   -6.7684   -0.0511    1.7676 H   0  0  0  0  0  0  0  0  0  0  0  0
   -4.8575    0.2702    0.7954 C   0  0  0  0  0  0  0  0  0  0  0  0
   -4.5655    1.1000    1.4562 H   0  0  0  0  0  0  0  0  0  0  0  0
  1  4  1  0  0  0  0
  1  3  1  0  0  0  0
  2 38  1  0  0  0  0
  3 25  1  0  0  0  0
  4  6  1  0  0  0  0
  5  3  1  0  0  0  0
  6  7  1  0  0  0  0
  7 36  2  0  0  0  0
  8  9  1  0  0  0  0
  8  7  1  0  0  0  0
 10  8  2  0  0  0  0
 11 10  1  0  0  0  0
 12 10  1  0  0  0  0
 12  4  2  0  0  0  0
 13 12  1  0  0  0  0
 14  3  1  0  0  0  0
 15 14  1  0  0  0  0
 15 16  1  0  0  0  0
 17 15  2  0  0  0  0
 18 17  1  0  0  0  0
 19 21  2  0  0  0  0
 19 17  1  0  0  0  0
 20 19  1  0  0  0  0
 21 23  1  0  0  0  0
 22 21  1  0  0  0  0
 23 24  1  0  0  0  0
 23 14  2  0  0  0  0
 25 26  2  0  0  0  0
 25 34  1  0  0  0  0
 26 28  1  0  0  0  0
 27 26  1  0  0  0  0
 28 29  1  0  0  0  0
 28 30  2  0  0  0  0
 30 31  1  0  0  0  0
 32 33  1  0  0  0  0
 32 30  1  0  0  0  0
 34 32  2  0  0  0  0
 35 34  1  0  0  0  0
 36 37  1  0  0  0  0
 36  2  1  0  0  0  0
 38 47  1  0  0  0  0
 39 41  1  0  0  0  0
 39 38  2  0  0  0  0
 40 39  1  0  0  0  0
 41 43  2  0  0  0  0
 42 41  1  0  0  0  0
 43 44  1  0  0  0  0
 43 45  1  0  0  0  0
 45 46  1  0  0  0  0
 47 45  2  0  0  0  0
 47 48  1  0  0  0  0
M  END
