4,5,7
q = -1.0

 67 73  0  0  0  0  0  0  0  0999 V2000
    0.7362   -2.2311    2.1792 S   0  0  0  0  0  0  0  0  0  0  0  0
    1.7072    1.4519   -1.4278 N   0  0  0  0  0  0  0  0  0  0  0  0
   -0.2619    0.5366   -1.7712 N   0  0  0  0  0  0  0  0  0  0  0  0
    0.1337   -1.0911    1.1759 N   0  0  0  0  0  2  0  0  0  0  0  0
    1.8334   -2.8137    1.2903 O   0  0  0  0  0  1  0  0  0  0  0  0
    1.0871   -1.8321    3.5601 O   0  0  0  0  0  1  0  0  0  0  0  0
    0.9977    0.2949   -1.2887 C   0  0  0  0  0  2  0  0  0  0  0  0
    0.8982    2.4500   -1.9773 C   0  0  0  0  0  0  0  0  0  0  0  0
   -0.3698    1.8609   -2.2044 C   0  0  0  0  0  0  0  0  0  0  0  0
   -1.4367    2.5845   -2.7490 C   0  0  0  0  0  0  0  0  0  0  0  0
   -2.4153    2.1143   -2.9136 H   0  0  0  0  0  0  0  0  0  0  0  0
   -1.1960    3.9305   -3.0605 C   0  0  0  0  0  0  0  0  0  0  0  0
   -2.0090    4.5376   -3.4846 H   0  0  0  0  0  0  0  0  0  0  0  0
    0.0661    4.5240   -2.8356 C   0  0  0  0  0  0  0  0  0  0  0  0
    0.2158    5.5832   -3.0909 H   0  0  0  0  0  0  0  0  0  0  0  0
    1.1349    3.7963   -2.2908 C   0  0  0  0  0  0  0  0  0  0  0  0
    2.1125    4.2665   -2.1161 H   0  0  0  0  0  0  0  0  0  0  0  0
   -1.3287   -0.4185   -1.6817 C   0  0  0  0  0  0  0  0  0  0  0  0
   -1.5946   -1.2605   -2.7922 C   0  0  0  0  0  0  0  0  0  0  0  0
   -0.9921   -1.1436   -3.7039 H   0  0  0  0  0  0  0  0  0  0  0  0
   -2.5795   -2.2273   -2.6940 C   0  0  0  0  0  0  0  0  0  0  0  0
   -2.7888   -2.8947   -3.5436 H   0  0  0  0  0  0  0  0  0  0  0  0
   -3.3217   -2.3900   -1.4876 C   0  0  0  0  0  0  0  0  0  0  0  0
   -3.0475   -1.5237   -0.3657 C   0  0  0  0  0  0  0  0  0  0  0  0
   -2.0308   -0.5167   -0.4805 C   0  0  0  0  0  0  0  0  0  0  0  0
   -1.7064    0.3688    0.6770 C   0  0  0  0  0  0  0  0  0  0  0  0
   -0.6519    0.0116    1.5384 C   0  0  0  0  0  0  0  0  0  0  0  0
   -0.3702    0.8117    2.6892 C   0  0  0  0  0  0  0  0  0  0  0  0
    0.4595    0.5109    3.3411 H   0  0  0  0  0  0  0  0  0  0  0  0
   -1.1118    1.9481    2.9481 C   0  0  0  0  0  0  0  0  0  0  0  0
   -0.8757    2.5673    3.8278 H   0  0  0  0  0  0  0  0  0  0  0  0
   -2.1651    2.3621    2.0809 C   0  0  0  0  0  0  0  0  0  0  0  0
   -2.4731    1.5523    0.9259 C   0  0  0  0  0  0  0  0  0  0  0  0
    3.0656    1.6429   -0.8966 C   0  0  0  0  0  0  0  0  0  0  0  0
    3.4707    2.5567   -1.3718 H   0  0  0  0  0  0  0  0  0  0  0  0
    3.6670    0.7765   -1.2356 H   0  0  0  0  0  0  0  0  0  0  0  0
    3.0678    1.7515    0.6151 C   0  0  0  0  0  0  0  0  0  0  0  0
    2.5738    2.9049    1.2553 C   0  0  0  0  0  0  0  0  0  0  0  0
    2.2154    3.7553    0.6535 H   0  0  0  0  0  0  0  0  0  0  0  0
    2.5256    2.9740    2.6550 C   0  0  0  0  0  0  0  0  0  0  0  0
    2.1380    3.8802    3.1447 H   0  0  0  0  0  0  0  0  0  0  0  0
    2.9618    1.8855    3.4283 C   0  0  0  0  0  0  0  0  0  0  0  0
    2.9140    1.9350    4.5269 H   0  0  0  0  0  0  0  0  0  0  0  0
    3.4520    0.7311    2.7986 C   0  0  0  0  0  0  0  0  0  0  0  0
    3.7710   -0.1347    3.3967 H   0  0  0  0  0  0  0  0  0  0  0  0
    3.5095    0.6668    1.3979 C   0  0  0  0  0  0  0  0  0  0  0  0
    3.8922   -0.2386    0.9016 H   0  0  0  0  0  0  0  0  0  0  0  0
   -3.7878   -1.7047    0.8405 C   0  0  0  0  0  0  0  0  0  0  0  0
   -3.5784   -1.0386    1.6902 H   0  0  0  0  0  0  0  0  0  0  0  0
   -4.7519   -2.6970    0.9393 C   0  0  0  0  0  0  0  0  0  0  0  0
   -5.3141   -2.8238    1.8768 H   0  0  0  0  0  0  0  0  0  0  0  0
   -5.0223   -3.5501   -0.1645 C   0  0  0  0  0  0  0  0  0  0  0  0
   -5.7899   -4.3334   -0.0742 H   0  0  0  0  0  0  0  0  0  0  0  0
   -4.3227   -3.3969   -1.3517 C   0  0  0  0  0  0  0  0  0  0  0  0
   -4.5267   -4.0558   -2.2099 H   0  0  0  0  0  0  0  0  0  0  0  0
   -3.5492    1.9570    0.0790 C   0  0  0  0  0  0  0  0  0  0  0  0
   -3.8043    1.3315   -0.7892 H   0  0  0  0  0  0  0  0  0  0  0  0
   -4.2709    3.1118    0.3436 C   0  0  0  0  0  0  0  0  0  0  0  0
   -5.0965    3.4057   -0.3224 H   0  0  0  0  0  0  0  0  0  0  0  0
   -3.9539    3.9178    1.4692 C   0  0  0  0  0  0  0  0  0  0  0  0
   -4.5307    4.8337    1.6673 H   0  0  0  0  0  0  0  0  0  0  0  0
   -2.9232    3.5441    2.3197 C   0  0  0  0  0  0  0  0  0  0  0  0
   -2.6751    4.1576    3.2001 H   0  0  0  0  0  0  0  0  0  0  0  0
   -0.5372   -3.4990    2.3083 C   0  0  0  0  0  0  0  0  0  0  0  0
   -0.1101   -4.3327    2.8961 H   0  0  0  0  0  0  0  0  0  0  0  0
   -0.8124   -3.8182    1.2878 H   0  0  0  0  0  0  0  0  0  0  0  0
   -1.4035   -3.0541    2.8324 H   0  0  0  0  0  0  0  0  0  0  0  0
  1 64  1  0  0  0  0
  1  6  1  0  0  0  0
  2  7  1  0  0  0  0
  2 34  1  0  0  0  0
  3 18  1  0  0  0  0
  3  7  1  0  0  0  0
  4 27  1  0  0  0  0
  4  1  1  0  0  0  0
  5  1  1  0  0  0  0
  8  2  1  0  0  0  0
  9  8  1  0  0  0  0
  9  3  1  0  0  0  0
 10  9  2  0  0  0  0
 11 10  1  0  0  0  0
 12 14  2  0  0  0  0
 12 10  1  0  0  0  0
 13 12  1  0  0  0  0
 14 16  1  0  0  0  0
 15 14  1  0  0  0  0
 16 17  1  0  0  0  0
 16  8  2  0  0  0  0
 18 25  1  0  0  0  0
 19 21  1  0  0  0  0
 19 18  2  0  0  0  0
 20 19  1  0  0  0  0
 21 23  2  0  0  0  0
 22 21  1  0  0  0  0
 23 54  1  0  0  0  0
 23 24  1  0  0  0  0
 24 48  1  0  0  0  0
 25 24  2  0  0  0  0
 25 26  1  0  0  0  0
 26 33  2  0  0  0  0
 26 27  1  0  0  0  0
 27 28  2  0  0  0  0
 28 30  1  0  0  0  0
 28 29  1  0  0  0  0
 30 31  1  0  0  0  0
 32 62  1  0  0  0  0
 32 30  2  0  0  0  0
 33 32  1  0  0  0  0
 34 37  1  0  0  0  0
 35 34  1  0  0  0  0
 36 34  1  0  0  0  0
 37 38  2  0  0  0  0
 37 46  1  0  0  0  0
 38 40  1  0  0  0  0
 39 38  1  0  0  0  0
 40 41  1  0  0  0  0
 40 42  2  0  0  0  0
 42 43  1  0  0  0  0
 44 45  1  0  0  0  0
 44 42  1  0  0  0  0
 46 44  2  0  0  0  0
 47 46  1  0  0  0  0
 48 50  2  0  0  0  0
 48 49  1  0  0  0  0
 50 51  1  0  0  0  0
 52 53  1  0  0  0  0
 52 50  1  0  0  0  0
 54 52  2  0  0  0  0
 55 54  1  0  0  0  0
 56 58  2  0  0  0  0
 56 33  1  0  0  0  0
 57 56  1  0  0  0  0
 58 60  1  0  0  0  0
 59 58  1  0  0  0  0
 60 61  1  0  0  0  0
 60 62  2  0  0  0  0
 62 63  1  0  0  0  0
 64 67  1  0  0  0  0
 64 65  1  0  0  0  0
 66 64  1  0  0  0  0
M  END
