1,4,5
q = -1.0

 73 80  0  0  1  0  0  0  0  0999 V2000
    3.3805   -0.8053   -1.0770 O   0  0  0  0  0  1  0  0  0  0  0  0
   -1.3938    0.2218   -1.5478 N   0  0  0  0  0  0  0  0  0  0  0  0
   -1.4203   -1.9602   -1.3451 N   0  0  0  0  0  0  0  0  0  0  0  0
    1.2635    0.0601    0.7519 N   0  0  0  0  0  2  0  0  0  0  0  0
   -0.5968   -0.8732   -1.3351 C   0  0  0  0  0  2  0  0  0  0  0  0
   -2.7476   -1.5685   -1.5346 C   0  0  0  0  0  0  0  0  0  0  0  0
   -2.7334   -0.1576   -1.6646 C   0  0  0  0  0  0  0  0  0  0  0  0
   -3.9077    0.5821   -1.8443 C   0  0  0  0  0  0  0  0  0  0  0  0
   -3.8803    1.6768   -1.9311 H   0  0  0  0  0  0  0  0  0  0  0  0
   -5.1098   -0.1388   -1.8985 C   0  0  0  0  0  0  0  0  0  0  0  0
   -6.0566    0.4037   -2.0355 H   0  0  0  0  0  0  0  0  0  0  0  0
   -5.1299   -1.5459   -1.7764 C   0  0  0  0  0  0  0  0  0  0  0  0
   -6.0921   -2.0766   -1.8237 H   0  0  0  0  0  0  0  0  0  0  0  0
   -3.9514   -2.2853   -1.5916 C   0  0  0  0  0  0  0  0  0  0  0  0
   -3.9768   -3.3795   -1.4917 H   0  0  0  0  0  0  0  0  0  0  0  0
   -0.8906    1.5594   -1.4550 C   0  0  0  0  0  0  0  0  0  0  0  0
   -0.6551    2.3160   -2.6300 C   0  0  0  0  0  0  0  0  0  0  0  0
   -0.8775    1.8668   -3.6079 H   0  0  0  0  0  0  0  0  0  0  0  0
   -0.1189    3.5879   -2.5188 C   0  0  0  0  0  0  0  0  0  0  0  0
    0.0804    4.1852   -3.4213 H   0  0  0  0  0  0  0  0  0  0  0  0
    0.2072    4.1371   -1.2439 C   0  0  0  0  0  0  0  0  0  0  0  0
    0.7767    5.4372   -1.1071 C   0  0  0  0  0  0  0  0  0  0  0  0
    0.9657    6.0282   -2.0166 H   0  0  0  0  0  0  0  0  0  0  0  0
    1.0929    5.9478    0.1425 C   0  0  0  0  0  0  0  0  0  0  0  0
    1.5352    6.9515    0.2314 H   0  0  0  0  0  0  0  0  0  0  0  0
    0.8510    5.1789    1.3130 C   0  0  0  0  0  0  0  0  0  0  0  0
    1.1071    5.5934    2.2996 H   0  0  0  0  0  0  0  0  0  0  0  0
    0.2972    3.9114    1.2177 C   0  0  0  0  0  0  0  0  0  0  0  0
    0.1065    3.3116    2.1201 H   0  0  0  0  0  0  0  0  0  0  0  0
   -0.0363    3.3573   -0.0531 C   0  0  0  0  0  0  0  0  0  0  0  0
   -0.6025    2.0493   -0.1812 C   0  0  0  0  0  0  0  0  0  0  0  0
   -0.9062    1.1863    0.9966 C   0  0  0  0  0  0  0  0  0  0  0  0
   -2.1748    1.2992    1.6582 C   0  0  0  0  0  0  0  0  0  0  0  0
   -3.1429    2.2764    1.2765 C   0  0  0  0  0  0  0  0  0  0  0  0
   -2.8999    2.9734    0.4613 H   0  0  0  0  0  0  0  0  0  0  0  0
   -4.3687    2.3543    1.9205 C   0  0  0  0  0  0  0  0  0  0  0  0
   -5.1016    3.1147    1.6109 H   0  0  0  0  0  0  0  0  0  0  0  0
   -4.6860    1.4604    2.9779 C   0  0  0  0  0  0  0  0  0  0  0  0
   -5.6629    1.5308    3.4795 H   0  0  0  0  0  0  0  0  0  0  0  0
   -3.7643    0.5049    3.3778 C   0  0  0  0  0  0  0  0  0  0  0  0
   -3.9995   -0.1903    4.1989 H   0  0  0  0  0  0  0  0  0  0  0  0
   -2.4941    0.3985    2.7398 C   0  0  0  0  0  0  0  0  0  0  0  0
   -1.5325   -0.5776    3.1283 C   0  0  0  0  0  0  0  0  0  0  0  0
   -1.7793   -1.2786    3.9403 H   0  0  0  0  0  0  0  0  0  0  0  0
   -0.3117   -0.6678    2.4859 C   0  0  0  0  0  0  0  0  0  0  0  0
    0.4152   -1.4459    2.7578 H   0  0  0  0  0  0  0  0  0  0  0  0
    0.0077    0.2123    1.4126 C   0  0  0  0  0  0  0  0  0  0  0  0
    2.3385    0.3517    1.4605 C   0  0  0  0  0  0  0  0  0  0  0  0
    2.1494    0.7710    2.4693 H   0  0  0  0  0  0  0  0  0  0  0  0
    3.7121    0.2143    1.1067 C   0  0  0  0  0  0  0  0  0  0  0  0
    4.1605   -0.3589   -0.1501 C   0  0  1  0  0  3  0  0  0  0  0  0
    5.5800   -0.4371   -0.3598 C   0  0  0  0  0  0  0  0  0  0  0  0
    5.9126   -0.8709   -1.3138 H   0  0  0  0  0  0  0  0  0  0  0  0
    6.4823    0.0120    0.5911 C   0  0  0  0  0  0  0  0  0  0  0  0
    7.5624   -0.0664    0.3884 H   0  0  0  0  0  0  0  0  0  0  0  0
    6.0398    0.5706    1.8211 C   0  0  0  0  0  0  0  0  0  0  0  0
    6.7663    0.9225    2.5674 H   0  0  0  0  0  0  0  0  0  0  0  0
    4.6790    0.6624    2.0601 C   0  0  0  0  0  0  0  0  0  0  0  0
    4.3115    1.0922    3.0064 H   0  0  0  0  0  0  0  0  0  0  0  0
   -0.9380   -3.3397   -1.1997 C   0  0  0  0  0  0  0  0  0  0  0  0
   -1.7608   -4.0036   -1.5268 H   0  0  0  0  0  0  0  0  0  0  0  0
   -0.0945   -3.4474   -1.9120 H   0  0  0  0  0  0  0  0  0  0  0  0
   -0.5047   -3.6687    0.2138 C   0  0  0  0  0  0  0  0  0  0  0  0
    0.8662   -3.7513    0.5275 C   0  0  0  0  0  0  0  0  0  0  0  0
    1.6115   -3.5804   -0.2649 H   0  0  0  0  0  0  0  0  0  0  0  0
    1.2784   -4.0426    1.8374 C   0  0  0  0  0  0  0  0  0  0  0  0
    2.3528   -4.1015    2.0684 H   0  0  0  0  0  0  0  0  0  0  0  0
    0.3242   -4.2575    2.8452 C   0  0  0  0  0  0  0  0  0  0  0  0
    0.6472   -4.4929    3.8709 H   0  0  0  0  0  0  0  0  0  0  0  0
   -1.0449   -4.1750    2.5396 C   0  0  0  0  0  0  0  0  0  0  0  0
   -1.7974   -4.3450    3.3248 H   0  0  0  0  0  0  0  0  0  0  0  0
   -1.4553   -3.8786    1.2316 C   0  0  0  0  0  0  0  0  0  0  0  0
   -2.5298   -3.8073    0.9982 H   0  0  0  0  0  0  0  0  0  0  0  0
  2 16  1  0  0  0  0
  2  5  1  0  0  0  0
  3  5  1  0  0  0  0
  3 60  1  0  0  0  0
  4 47  1  0  0  0  0
  4 48  1  0  0  0  0
  6  3  1  0  0  0  0
  7  2  1  0  0  0  0
  7  6  2  0  0  0  0
  8  7  1  0  0  0  0
  9  8  1  0  0  0  0
 10  8  2  0  0  0  0
 10 12  1  0  0  0  0
 11 10  1  0  0  0  0
 12 14  2  0  0  0  0
 13 12  1  0  0  0  0
 14  6  1  0  0  0  0
 14 15  1  0  0  0  0
 16 31  1  0  0  0  0
 17 19  1  0  0  0  0
 17 16  2  0  0  0  0
 18 17  1  0  0  0  0
 19 21  2  0  0  0  0
 20 19  1  0  0  0  0
 21 22  1  0  0  0  0
 21 30  1  0  0  0  0
 22 24  2  0  0  0  0
 23 22  1  0  0  0  0
 24 25  1  0  0  0  0
 24 26  1  0  0  0  0
 26 27  1  0  0  0  0
 28 26  2  0  0  0  0
 28 29  1  0  0  0  0
 30 28  1  0  0  0  0
 31 30  2  0  0  0  0
 31 32  1  0  0  0  0
 32 47  2  0  0  0  0
 32 33  1  0  0  0  0
 33 42  1  0  0  0  0
 34 33  2  0  0  0  0
 34 36  1  0  0  0  0
 35 34  1  0  0  0  0
 36 38  2  0  0  0  0
 37 36  1  0  0  0  0
 38 40  1  0  0  0  0
 38 39  1  0  0  0  0
 40 41  1  0  0  0  0
 42 43  1  0  0  0  0
 42 40  2  0  0  0  0
 43 44  1  0  0  0  0
 45 46  1  0  0  0  0
 45 43  2  0  0  0  0
 47 45  1  0  0  0  0
 48 49  1  0  0  0  0
 50 48  2  0  0  0  0
 50 58  1  0  0  0  0
 51  1  1  1  0  0  0
 51 50  1  0  0  0  0
 52 51  1  0  0  0  0
 52 54  2  0  0  0  0
 53 52  1  0  0  0  0
 54 56  1  0  0  0  0
 55 54  1  0  0  0  0
 56 58  2  0  0  0  0
 56 57  1  0  0  0  0
 58 59  1  0  0  0  0
 60 63  1  0  0  0  0
 61 60  1  0  0  0  0
 62 60  1  0  0  0  0
 63 64  2  0  0  0  0
 63 72  1  0  0  0  0
 64 66  1  0  0  0  0
 65 64  1  0  0  0  0
 66 67  1  0  0  0  0
 66 68  2  0  0  0  0
 68 69  1  0  0  0  0
 70 68  1  0  0  0  0
 70 71  1  0  0  0  0
 72 70  2  0  0  0  0
 73 72  1  0  0  0  0
M  END
