1,2,4
q = -1.0

 42 43  0  0  1  0  0  0  0  0999 V2000
    1.3246   -1.1199   -0.8758 O   0  0  0  0  0  1  0  0  0  0  0  0
    0.4882    1.5199   -0.7198 N   0  0  0  0  0  0  0  0  0  0  0  0
    3.4341   -0.5451   -1.4980 N   0  0  0  0  0  0  0  0  0  0  0  0
   -2.1387    1.0604    0.0034 C   0  0  0  0  0  3  0  0  0  0  0  0
   -3.3252    0.9360    0.7506 C   0  0  0  0  0  0  0  0  0  0  0  0
   -3.5988   -0.0392    1.1764 H   0  0  0  0  0  0  0  0  0  0  0  0
   -4.1643    2.0491    0.9411 C   0  0  0  0  0  0  0  0  0  0  0  0
   -5.0918    1.9296    1.5233 H   0  0  0  0  0  0  0  0  0  0  0  0
   -3.8328    3.3025    0.4043 C   0  0  0  0  0  0  0  0  0  0  0  0
   -4.4914    4.1695    0.5643 H   0  0  0  0  0  0  0  0  0  0  0  0
   -2.6451    3.4464   -0.3301 C   0  0  0  0  0  0  0  0  0  0  0  0
   -2.3659    4.4292   -0.7447 H   0  0  0  0  0  0  0  0  0  0  0  0
   -1.8056    2.3391   -0.5379 C   0  0  0  0  0  0  0  0  0  0  0  0
   -0.5307    2.4285   -1.3371 C   0  0  0  0  0  0  0  0  0  0  0  0
   -0.1413    3.4716   -1.4058 H   0  0  0  0  0  0  0  0  0  0  0  0
   -0.6971    2.0597   -2.3710 H   0  0  0  0  0  0  0  0  0  0  0  0
    1.0182    2.1447    0.5338 C   0  0  0  0  0  0  0  0  0  0  0  0
    0.1322    2.3782    1.1558 H   0  0  0  0  0  0  0  0  0  0  0  0
    1.5028    3.1111    0.2572 H   0  0  0  0  0  0  0  0  0  0  0  0
    2.0034    1.2835    1.2859 C   0  0  0  0  0  0  0  0  0  0  0  0
    1.5659    0.1646    2.0245 C   0  0  0  0  0  0  0  0  0  0  0  0
    0.4890   -0.0725    2.0571 H   0  0  0  0  0  0  0  0  0  0  0  0
    2.4918   -0.6645    2.6711 C   0  0  0  0  0  0  0  0  0  0  0  0
    2.1353   -1.5414    3.2317 H   0  0  0  0  0  0  0  0  0  0  0  0
    3.8665   -0.3804    2.6017 C   0  0  0  0  0  0  0  0  0  0  0  0
    4.5912   -1.0320    3.1135 H   0  0  0  0  0  0  0  0  0  0  0  0
    4.3118    0.7443    1.8896 C   0  0  0  0  0  0  0  0  0  0  0  0
    5.3853    0.9849    1.8481 H   0  0  0  0  0  0  0  0  0  0  0  0
    3.3818    1.5690    1.2357 C   0  0  0  0  0  0  0  0  0  0  0  0
    3.7305    2.4553    0.6804 H   0  0  0  0  0  0  0  0  0  0  0  0
    1.5798    1.1425   -1.6406 C   0  0  0  0  0  0  0  0  0  0  0  0
    2.3609    1.9314   -1.6592 H   0  0  0  0  0  0  0  0  0  0  0  0
    1.1517    1.0669   -2.6618 H   0  0  0  0  0  0  0  0  0  0  0  0
    2.1211   -0.2539   -1.2926 C   0  0  1  0  0  3  0  0  0  0  0  0
    4.4422    0.3826   -1.9780 C   0  0  0  0  0  0  0  0  0  0  0  0
    5.0859   -0.1273   -2.7241 H   0  0  0  0  0  0  0  0  0  0  0  0
    5.0904    0.7333   -1.1444 H   0  0  0  0  0  0  0  0  0  0  0  0
    3.9935    1.2602   -2.4724 H   0  0  0  0  0  0  0  0  0  0  0  0
    3.9326   -1.8559   -1.0990 C   0  0  0  0  0  0  0  0  0  0  0  0
    4.6852   -1.7409   -0.2905 H   0  0  0  0  0  0  0  0  0  0  0  0
    4.4076   -2.3671   -1.9623 H   0  0  0  0  0  0  0  0  0  0  0  0
    3.0867   -2.4595   -0.7279 H   0  0  0  0  0  0  0  0  0  0  0  0
  2 17  1  0  0  0  0
  3 34  1  0  0  0  0
  3 39  1  0  0  0  0
  4  5  1  0  0  0  0
  5  7  2  0  0  0  0
  5  6  1  0  0  0  0
  7  8  1  0  0  0  0
  9 10  1  0  0  0  0
  9  7  1  0  0  0  0
 11  9  2  0  0  0  0
 12 11  1  0  0  0  0
 13 11  1  0  0  0  0
 13  4  2  0  0  0  0
 14  2  1  0  0  0  0
 14 13  1  0  0  0  0
 15 14  1  0  0  0  0
 16 14  1  0  0  0  0
 17 18  1  0  0  0  0
 17 20  1  0  0  0  0
 19 17  1  0  0  0  0
 20 21  1  0  0  0  0
 21 22  1  0  0  0  0
 21 23  2  0  0  0  0
 23 24  1  0  0  0  0
 25 23  1  0  0  0  0
 25 26  1  0  0  0  0
 27 25  2  0  0  0  0
 28 27  1  0  0  0  0
 29 20  2  0  0  0  0
 29 27  1  0  0  0  0
 30 29  1  0  0  0  0
 31 34  1  0  0  0  0
 31  2  1  0  0  0  0
 32 31  1  0  0  0  0
 33 31  1  0  0  0  0
 34  1  1  6  0  0  0
 35  3  1  0  0  0  0
 35 37  1  0  0  0  0
 36 35  1  0  0  0  0
 38 35  1  0  0  0  0
 39 42  1  0  0  0  0
 39 40  1  0  0  0  0
 41 39  1  0  0  0  0
M  END
