2,4,43
q = -1.0

 61 66  0  0  0  0  0  0  0  0999 V2000
    0.0187    1.3027    2.2980 S   0  0  0  0  0  0  0  0  0  0  0  0
    1.3725    1.9293    1.9611 O   0  0  0  0  0  1  0  0  0  0  0  0
   -0.3689    1.1458    3.7162 O   0  0  0  0  0  1  0  0  0  0  0  0
    0.1413   -0.0676    1.4209 N   0  0  0  0  0  2  0  0  0  0  0  0
    1.0914   -1.7317   -1.3682 N   0  0  0  0  0  0  0  0  0  0  0  0
    2.8671   -2.4123   -0.3198 N   0  0  0  0  0  0  0  0  0  0  0  0
    0.0154   -0.8841   -1.7990 C   0  0  0  0  0  0  0  0  0  0  0  0
    0.1863   -0.1327   -2.9911 C   0  0  0  0  0  0  0  0  0  0  0  0
    1.1390   -0.2086   -3.5337 H   0  0  0  0  0  0  0  0  0  0  0  0
   -0.8369    0.6852   -3.4348 C   0  0  0  0  0  0  0  0  0  0  0  0
   -0.7195    1.2682   -4.3608 H   0  0  0  0  0  0  0  0  0  0  0  0
   -2.0523    0.7924   -2.6984 C   0  0  0  0  0  0  0  0  0  0  0  0
   -3.1267    1.6172   -3.1442 C   0  0  0  0  0  0  0  0  0  0  0  0
   -3.0078    2.1715   -4.0882 H   0  0  0  0  0  0  0  0  0  0  0  0
   -4.2975    1.7185   -2.4092 C   0  0  0  0  0  0  0  0  0  0  0  0
   -5.1226    2.3514   -2.7695 H   0  0  0  0  0  0  0  0  0  0  0  0
   -4.4333    1.0128   -1.1842 C   0  0  0  0  0  0  0  0  0  0  0  0
   -5.3562    1.1159   -0.5943 H   0  0  0  0  0  0  0  0  0  0  0  0
   -3.4104    0.1979   -0.7247 C   0  0  0  0  0  0  0  0  0  0  0  0
   -3.5154   -0.3451    0.2248 H   0  0  0  0  0  0  0  0  0  0  0  0
   -2.2023    0.0518   -1.4684 C   0  0  0  0  0  0  0  0  0  0  0  0
   -1.1410   -0.8119   -1.0248 C   0  0  0  0  0  0  0  0  0  0  0  0
   -1.3054   -1.6056    0.2295 C   0  0  0  0  0  0  0  0  0  0  0  0
   -2.0997   -2.8003    0.2151 C   0  0  0  0  0  0  0  0  0  0  0  0
   -2.6431   -3.3388   -0.9909 C   0  0  0  0  0  0  0  0  0  0  0  0
   -2.4454   -2.8198   -1.9406 H   0  0  0  0  0  0  0  0  0  0  0  0
   -3.4116   -4.4943   -0.9754 C   0  0  0  0  0  0  0  0  0  0  0  0
   -3.8196   -4.8922   -1.9172 H   0  0  0  0  0  0  0  0  0  0  0  0
   -3.6785   -5.1665    0.2465 C   0  0  0  0  0  0  0  0  0  0  0  0
   -4.2894   -6.0817    0.2471 H   0  0  0  0  0  0  0  0  0  0  0  0
   -3.1712   -4.6646    1.4366 C   0  0  0  0  0  0  0  0  0  0  0  0
   -3.3750   -5.1760    2.3906 H   0  0  0  0  0  0  0  0  0  0  0  0
   -2.3794   -3.4808    1.4571 C   0  0  0  0  0  0  0  0  0  0  0  0
   -1.8596   -2.9396    2.6705 C   0  0  0  0  0  0  0  0  0  0  0  0
   -2.0887   -3.4501    3.6192 H   0  0  0  0  0  0  0  0  0  0  0  0
   -1.0612   -1.8128    2.6652 C   0  0  0  0  0  0  0  0  0  0  0  0
   -0.6394   -1.4014    3.5927 H   0  0  0  0  0  0  0  0  0  0  0  0
   -0.7532   -1.1421    1.4383 C   0  0  0  0  0  0  0  0  0  0  0  0
    1.3116   -3.0431   -1.7766 C   0  0  0  0  0  0  0  0  0  0  0  0
    0.6514   -3.5463   -2.4877 H   0  0  0  0  0  0  0  0  0  0  0  0
    2.4305   -3.4700   -1.1115 C   0  0  0  0  0  0  0  0  0  0  0  0
    2.9513   -4.4315   -1.1315 H   0  0  0  0  0  0  0  0  0  0  0  0
    2.0437   -1.3351   -0.4691 C   0  0  0  0  0  2  0  0  0  0  0  0
    3.9916   -2.4717    0.6046 C   0  0  0  0  0  0  0  0  0  0  0  0
    4.7250   -3.2119    0.2358 H   0  0  0  0  0  0  0  0  0  0  0  0
    3.6456   -2.7618    1.6168 H   0  0  0  0  0  0  0  0  0  0  0  0
    4.4639   -1.4718    0.6496 H   0  0  0  0  0  0  0  0  0  0  0  0
   -1.2236    2.3266    1.5121 C   0  0  0  0  0  0  0  0  0  0  0  0
   -0.9810    2.8398    0.2260 C   0  0  0  0  0  0  0  0  0  0  0  0
   -0.0273    2.6331   -0.2829 H   0  0  0  0  0  0  0  0  0  0  0  0
   -1.9699    3.6126   -0.3877 C   0  0  0  0  0  0  0  0  0  0  0  0
   -1.7889    4.0155   -1.3960 H   0  0  0  0  0  0  0  0  0  0  0  0
   -3.1999    3.8777    0.2550 C   0  0  0  0  0  0  0  0  0  0  0  0
   -3.4149    3.3387    1.5390 C   0  0  0  0  0  0  0  0  0  0  0  0
   -4.3694    3.5313    2.0538 H   0  0  0  0  0  0  0  0  0  0  0  0
   -2.4338    2.5667    2.1765 C   0  0  0  0  0  0  0  0  0  0  0  0
   -2.5857    2.1553    3.1845 H   0  0  0  0  0  0  0  0  0  0  0  0
   -4.2405    4.7374   -0.4127 C   0  0  0  0  0  0  0  0  0  0  0  0
   -5.2497    4.5621    0.0081 H   0  0  0  0  0  0  0  0  0  0  0  0
   -4.2788    4.5483   -1.5038 H   0  0  0  0  0  0  0  0  0  0  0  0
   -4.0082    5.8157   -0.2772 H   0  0  0  0  0  0  0  0  0  0  0  0
  1  3  1  0  0  0  0
  2  1  1  0  0  0  0
  4 38  1  0  0  0  0
  4  1  1  0  0  0  0
  5 43  1  0  0  0  0
  6 44  1  0  0  0  0
  7  5  1  0  0  0  0
  7 22  1  0  0  0  0
  8  7  2  0  0  0  0
  9  8  1  0  0  0  0
 10  8  1  0  0  0  0
 10 12  2  0  0  0  0
 11 10  1  0  0  0  0
 12 21  1  0  0  0  0
 13 12  1  0  0  0  0
 13 15  2  0  0  0  0
 14 13  1  0  0  0  0
 15 17  1  0  0  0  0
 16 15  1  0  0  0  0
 17 19  2  0  0  0  0
 17 18  1  0  0  0  0
 19 20  1  0  0  0  0
 21 22  2  0  0  0  0
 21 19  1  0  0  0  0
 22 23  1  0  0  0  0
 23 38  1  0  0  0  0
 24 23  2  0  0  0  0
 24 33  1  0  0  0  0
 25 27  2  0  0  0  0
 25 24  1  0  0  0  0
 26 25  1  0  0  0  0
 27 29  1  0  0  0  0
 28 27  1  0  0  0  0
 29 30  1  0  0  0  0
 29 31  2  0  0  0  0
 31 33  1  0  0  0  0
 31 32  1  0  0  0  0
 33 34  2  0  0  0  0
 34 35  1  0  0  0  0
 36 34  1  0  0  0  0
 36 37  1  0  0  0  0
 38 36  2  0  0  0  0
 39  5  1  0  0  0  0
 39 41  2  0  0  0  0
 40 39  1  0  0  0  0
 41  6  1  0  0  0  0
 42 41  1  0  0  0  0
 43  6  1  0  0  0  0
 44 47  1  0  0  0  0
 44 46  1  0  0  0  0
 45 44  1  0  0  0  0
 48 56  1  0  0  0  0
 48  1  1  0  0  0  0
 49 48  2  0  0  0  0
 50 49  1  0  0  0  0
 51 49  1  0  0  0  0
 51 53  2  0  0  0  0
 52 51  1  0  0  0  0
 53 54  1  0  0  0  0
 54 55  1  0  0  0  0
 54 56  2  0  0  0  0
 56 57  1  0  0  0  0
 58 61  1  0  0  0  0
 58 59  1  0  0  0  0
 58 53  1  0  0  0  0
 60 58  1  0  0  0  0
M  END
