4,5,16
q = -1.0, confidence = 0.114

 55 58  0  0  1  0  0  0  0  0999 V2000
    0.5773   -1.3139   -0.2109 P   0  0  0  0  0  4  0  0  0  0  0  0
   -1.0409    2.5775   -1.9889 O   0  0  0  0  0  0  0  0  0  0  0  0
    5.0437    3.6104    0.8254 O   0  0  0  0  0  0  0  0  0  0  0  0
   -0.7934   -1.9597   -0.5997 O   0  0  0  0  0  1  0  0  0  0  0  0
   -3.5309    1.0212   -0.1118 N   0  0  0  0  0  2  0  0  0  0  0  0
   -4.8276    1.0110    0.2649 C   0  0  0  0  0  3  0  0  0  0  0  0
   -5.2028    0.0324    0.6086 H   0  0  0  0  0  0  0  0  0  0  0  0
   -5.6079    2.1691    0.1597 C   0  0  0  0  0  0  0  0  0  0  0  0
   -6.6571    2.1395    0.4867 H   0  0  0  0  0  0  0  0  0  0  0  0
   -5.0475    3.3390   -0.3799 C   0  0  0  0  0  0  0  0  0  0  0  0
   -5.6558    4.2498   -0.4865 H   0  0  0  0  0  0  0  0  0  0  0  0
   -3.7073    3.3252   -0.7922 C   0  0  0  0  0  0  0  0  0  0  0  0
   -3.2152    4.1923   -1.2552 H   0  0  0  0  0  0  0  0  0  0  0  0
   -2.9668    2.1526   -0.6193 C   0  0  0  0  0  0  0  0  0  0  0  0
   -1.5201    1.9720   -1.0320 C   0  0  0  0  0  0  0  0  0  0  0  0
   -0.8475    0.9246   -0.2207 C   0  0  0  0  0  3  0  0  0  0  0  0
   -0.8736    1.1584    0.8662 H   0  0  0  0  0  0  0  0  0  0  0  0
    0.5252    0.4774   -0.7158 C   0  0  1  0  0  0  0  0  0  0  0  0
    0.4806    0.4157   -1.8247 H   0  0  0  0  0  0  0  0  0  0  0  0
    1.7131    1.3227   -0.3208 C   0  0  0  0  0  0  0  0  0  0  0  0
    1.9061    1.7693    1.0068 C   0  0  0  0  0  0  0  0  0  0  0  0
    1.1682    1.5187    1.7826 H   0  0  0  0  0  0  0  0  0  0  0  0
    3.0239    2.5270    1.3593 C   0  0  0  0  0  0  0  0  0  0  0  0
    3.1759    2.8747    2.3913 H   0  0  0  0  0  0  0  0  0  0  0  0
    3.9890    2.8713    0.3874 C   0  0  0  0  0  0  0  0  0  0  0  0
    3.8044    2.4487   -0.9457 C   0  0  0  0  0  0  0  0  0  0  0  0
    4.5241    2.7162   -1.7306 H   0  0  0  0  0  0  0  0  0  0  0  0
    2.6747    1.6871   -1.2816 C   0  0  0  0  0  0  0  0  0  0  0  0
    2.5337    1.3718   -2.3270 H   0  0  0  0  0  0  0  0  0  0  0  0
    6.0284    3.9985   -0.1136 C   0  0  0  0  0  0  0  0  0  0  0  0
    5.6034    4.6340   -0.9227 H   0  0  0  0  0  0  0  0  0  0  0  0
    6.5287    3.1192   -0.5789 H   0  0  0  0  0  0  0  0  0  0  0  0
    6.7811    4.5847    0.4453 H   0  0  0  0  0  0  0  0  0  0  0  0
    1.9075   -2.1945   -1.0745 C   0  0  0  0  0  0  0  0  0  0  0  0
    1.5542   -3.3847   -1.7433 C   0  0  0  0  0  0  0  0  0  0  0  0
    0.5068   -3.7216   -1.7184 H   0  0  0  0  0  0  0  0  0  0  0  0
    2.5361   -4.1111   -2.4321 C   0  0  0  0  0  0  0  0  0  0  0  0
    2.2606   -5.0406   -2.9527 H   0  0  0  0  0  0  0  0  0  0  0  0
    3.8631   -3.6530   -2.4610 C   0  0  0  0  0  0  0  0  0  0  0  0
    4.6307   -4.2251   -3.0042 H   0  0  0  0  0  0  0  0  0  0  0  0
    4.2120   -2.4626   -1.8027 C   0  0  0  0  0  0  0  0  0  0  0  0
    5.2498   -2.0977   -1.8329 H   0  0  0  0  0  0  0  0  0  0  0  0
    3.2395   -1.7290   -1.1075 C   0  0  0  0  0  0  0  0  0  0  0  0
    3.5182   -0.7863   -0.6148 H   0  0  0  0  0  0  0  0  0  0  0  0
    0.8485   -1.4384    1.5868 C   0  0  0  0  0  0  0  0  0  0  0  0
    2.1068   -1.2218    2.1856 C   0  0  0  0  0  0  0  0  0  0  0  0
    2.9881   -0.9905    1.5714 H   0  0  0  0  0  0  0  0  0  0  0  0
    2.2385   -1.3028    3.5789 C   0  0  0  0  0  0  0  0  0  0  0  0
    3.2207   -1.1303    4.0440 H   0  0  0  0  0  0  0  0  0  0  0  0
    1.1220   -1.6054    4.3759 C   0  0  0  0  0  0  0  0  0  0  0  0
    1.2295   -1.6684    5.4696 H   0  0  0  0  0  0  0  0  0  0  0  0
   -0.1269   -1.8386    3.7787 C   0  0  0  0  0  0  0  0  0  0  0  0
   -1.0004   -2.0902    4.3987 H   0  0  0  0  0  0  0  0  0  0  0  0
   -0.2696   -1.7606    2.3851 C   0  0  0  0  0  0  0  0  0  0  0  0
   -1.2453   -1.9529    1.9090 H   0  0  0  0  0  0  0  0  0  0  0  0
  1 45  1  0  0  0  0
  2 15  2  0  0  0  0
  4  1  1  0  0  0  0
  5  6  1  0  0  0  0
  6  7  1  0  0  0  0
  8  6  1  0  0  0  0
  8  9  1  0  0  0  0
 10  8  2  0  0  0  0
 11 10  1  0  0  0  0
 12 14  2  0  0  0  0
 12 10  1  0  0  0  0
 13 12  1  0  0  0  0
 14  5  1  0  0  0  0
 15 14  1  0  0  0  0
 15 16  1  0  0  0  0
 16 17  1  0  0  0  0
 18 19  1  6  0  0  0
 18 20  1  0  0  0  0
 18 16  1  0  0  0  0
 18  1  1  0  0  0  0
 20 21  1  0  0  0  0
 21 23  2  0  0  0  0
 21 22  1  0  0  0  0
 23 24  1  0  0  0  0
 25  3  1  0  0  0  0
 25 23  1  0  0  0  0
 26 25  2  0  0  0  0
 27 26  1  0  0  0  0
 28 26  1  0  0  0  0
 28 20  2  0  0  0  0
 29 28  1  0  0  0  0
 30 33  1  0  0  0  0
 30  3  1  0  0  0  0
 31 30  1  0  0  0  0
 32 30  1  0  0  0  0
 34  1  1  0  0  0  0
 35 36  1  0  0  0  0
 35 34  2  0  0  0  0
 37 35  1  0  0  0  0
 38 37  1  0  0  0  0
 39 37  2  0  0  0  0
 39 41  1  0  0  0  0
 40 39  1  0  0  0  0
 41 43  2  0  0  0  0
 42 41  1  0  0  0  0
 43 34  1  0  0  0  0
 43 44  1  0  0  0  0
 45 46  2  0  0  0  0
 45 54  1  0  0  0  0
 46 48  1  0  0  0  0
 47 46  1  0  0  0  0
 48 49  1  0  0  0  0
 48 50  2  0  0  0  0
 50 51  1  0  0  0  0
 52 50  1  0  0  0  0
 52 53  1  0  0  0  0
 54 52  2  0  0  0  0
 55 54  1  0  0  0  0
M  END
