1,7,21
q = -2.0, confidence = 0.85

 39 42  0  0  0  0  0  0  0  0999 V2000
   -1.8379    1.5136   -0.0716 O   0  5  0  0  0  0  0  0  0  0  0  0
   -0.3243    3.2800   -0.0958 N   0  0  0  0  0  0  0  0  0  0  0  0
    3.2022   -2.4329   -0.6912 C   0  0  0  0  0  0  0  0  0  0  0  0
    3.2508   -3.5091   -0.9182 H   0  0  0  0  0  0  0  0  0  0  0  0
   -2.6989    3.7337   -0.0746 C   0  0  0  0  0  0  0  0  0  0  0  0
    5.5548    0.4281   -0.0354 C   0  0  0  0  0  0  0  0  0  0  0  0
    0.6262    2.3042   -0.1047 N   0  0  0  0  0  2  0  0  0  0  0  0
    3.0185    0.3497   -0.1680 C   0  0  0  0  0  0  0  0  0  0  0  0
   -2.4889    5.1296   -0.0856 C   0  0  0  0  0  0  0  0  0  0  0  0
   -1.4555    5.5035   -0.1023 H   0  0  0  0  0  0  0  0  0  0  0  0
    3.0304    1.8040    0.0025 C   0  0  0  0  0  0  0  0  0  0  0  0
    5.5036    1.8462    0.1601 C   0  0  0  0  0  0  0  0  0  0  0  0
   -1.5599    2.7810   -0.0837 C   0  0  0  0  0  0  0  0  0  0  0  0
    4.3638   -1.7019   -0.4975 C   0  0  0  0  0  3  0  0  0  0  0  0
    5.3341   -2.2095   -0.5663 H   0  0  0  0  0  0  0  0  0  0  0  0
    4.2363    2.4865    0.1512 C   0  0  0  0  0  0  0  0  0  0  0  0
    4.2112    3.5815    0.2674 H   0  0  0  0  0  0  0  0  0  0  0  0
   -4.8937    5.4973   -0.0503 C   0  0  0  0  0  0  0  0  0  0  0  0
   -5.7513    6.1877   -0.0409 H   0  0  0  0  0  0  0  0  0  0  0  0
    4.3070   -0.3110   -0.2321 C   0  0  0  0  0  0  0  0  0  0  0  0
    1.8044   -0.4282   -0.2985 C   0  0  0  0  0  3  0  0  0  0  0  0
    6.7028    2.5908    0.3479 C   0  0  0  0  0  0  0  0  0  0  0  0
    6.6286    3.6800    0.4923 H   0  0  0  0  0  0  0  0  0  0  0  0
   -4.0166    3.2287   -0.0518 C   0  0  0  0  0  0  0  0  0  0  0  0
   -4.1614    2.1390   -0.0417 H   0  0  0  0  0  0  0  0  0  0  0  0
    7.9991    0.5570    0.1656 C   0  0  0  0  0  0  0  0  0  0  0  0
    8.9736    0.0455    0.1714 H   0  0  0  0  0  0  0  0  0  0  0  0
   -3.5825    6.0041   -0.0737 C   0  0  0  0  0  0  0  0  0  0  0  0
   -3.4132    7.0918   -0.0826 H   0  0  0  0  0  0  0  0  0  0  0  0
   -5.1065    4.1086   -0.0391 C   0  0  0  0  0  0  0  0  0  0  0  0
   -6.1318    3.7078   -0.0208 H   0  0  0  0  0  0  0  0  0  0  0  0
    7.9382    1.9584    0.3513 C   0  0  0  0  0  0  0  0  0  0  0  0
    8.8617    2.5380    0.4985 H   0  0  0  0  0  0  0  0  0  0  0  0
    1.9528   -1.8000   -0.5814 C   0  0  0  0  0  0  0  0  0  0  0  0
    1.0651   -2.4272   -0.7317 H   0  0  0  0  0  0  0  0  0  0  0  0
    1.8793    2.6732   -0.0039 C   0  0  0  0  0  0  0  0  0  0  0  0
    2.0477    3.7608    0.0846 H   0  0  0  0  0  0  0  0  0  0  0  0
    6.8360   -0.1858   -0.0237 C   0  0  0  0  0  0  0  0  0  0  0  0
    6.9278   -1.2715   -0.1583 H   0  0  0  0  0  0  0  0  0  0  0  0
  2 13  2  0  0  0  0
  3 34  2  0  0  0  0
  3 14  1  0  0  0  0
  4  3  1  0  0  0  0
  5 24  1  0  0  0  0
  6 38  1  0  0  0  0
  6 12  1  0  0  0  0
  7  2  1  0  0  0  0
  7 36  1  0  0  0  0
  8 11  1  0  0  0  0
  9  5  2  0  0  0  0
  9 28  1  0  0  0  0
 10  9  1  0  0  0  0
 11 16  1  0  0  0  0
 12 22  1  0  0  0  0
 13  5  1  0  0  0  0
 13  1  1  0  0  0  0
 14 20  1  0  0  0  0
 15 14  1  0  0  0  0
 16 12  2  0  0  0  0
 16 17  1  0  0  0  0
 18 19  1  0  0  0  0
 18 30  1  0  0  0  0
 20  8  1  0  0  0  0
 20  6  2  0  0  0  0
 21  8  2  0  0  0  0
 22 32  2  0  0  0  0
 22 23  1  0  0  0  0
 24 25  1  0  0  0  0
 24 30  2  0  0  0  0
 26 27  1  0  0  0  0
 26 32  1  0  0  0  0
 28 18  2  0  0  0  0
 29 28  1  0  0  0  0
 30 31  1  0  0  0  0
 32 33  1  0  0  0  0
 34 21  1  0  0  0  0
 35 34  1  0  0  0  0
 36 11  2  0  0  0  0
 36 37  1  0  0  0  0
 38 26  2  0  0  0  0
 39 38  1  0  0  0  0
M  CHG  1   1  -1
M  END
