1,2,4
q = -2.0, confidence = 0.744

 33 35  0  0  0  0  0  0  0  0999 V2000
   -2.2512    0.9081   -0.0075 O   0  5  0  0  0  0  0  0  0  0  0  0
   -0.2319    2.5174    0.0023 N   0  0  0  0  0  2  0  0  0  0  0  0
   -1.4405    3.1114    0.0004 N   0  0  0  0  0  0  0  0  0  0  0  0
    1.8596    0.8973    0.0007 C   0  0  0  0  0  3  0  0  0  0  0  0
    2.9767    0.0274    0.0005 C   0  0  0  0  0  0  0  0  0  0  0  0
    2.8246   -1.0614   -0.0128 H   0  0  0  0  0  0  0  0  0  0  0  0
    4.2811    0.5168    0.0067 C   0  0  0  0  0  0  0  0  0  0  0  0
    5.1307   -0.1849    0.0061 H   0  0  0  0  0  0  0  0  0  0  0  0
    4.5497    1.9118    0.0101 C   0  0  0  0  0  0  0  0  0  0  0  0
    5.8830    2.4191    0.0137 C   0  0  0  0  0  0  0  0  0  0  0  0
    6.7169    1.6994    0.0137 H   0  0  0  0  0  0  0  0  0  0  0  0
    6.1295    3.7824    0.0169 C   0  0  0  0  0  0  0  0  0  0  0  0
    7.1627    4.1610    0.0196 H   0  0  0  0  0  0  0  0  0  0  0  0
    5.0402    4.6953    0.0167 C   0  0  0  0  0  0  0  0  0  0  0  0
    5.2366    5.7784    0.0192 H   0  0  0  0  0  0  0  0  0  0  0  0
    3.7317    4.2350    0.0131 C   0  0  0  0  0  0  0  0  0  0  0  0
    2.9091    4.9640    0.0128 H   0  0  0  0  0  0  0  0  0  0  0  0
    3.4385    2.8371    0.0097 C   0  0  0  0  0  3  0  0  0  0  0  0
    2.1020    2.3082    0.0065 C   0  0  0  0  0  0  0  0  0  0  0  0
    0.9188    3.1540    0.0080 C   0  0  0  0  0  0  0  0  0  0  0  0
    0.9160    4.2552    0.0119 H   0  0  0  0  0  0  0  0  0  0  0  0
   -2.4225    2.1956   -0.0075 C   0  0  0  0  0  0  0  0  0  0  0  0
   -3.8193    2.7021   -0.0219 C   0  0  0  0  0  0  0  0  0  0  0  0
   -4.8867    1.7826   -0.1039 C   0  0  0  0  0  0  0  0  0  0  0  0
   -4.6485    0.7107   -0.1633 H   0  0  0  0  0  0  0  0  0  0  0  0
   -6.2107    2.2395   -0.1171 C   0  0  0  0  0  0  0  0  0  0  0  0
   -7.0394    1.5178   -0.1839 H   0  0  0  0  0  0  0  0  0  0  0  0
   -6.4824    3.6162   -0.0475 C   0  0  0  0  0  0  0  0  0  0  0  0
   -7.5235    3.9741   -0.0571 H   0  0  0  0  0  0  0  0  0  0  0  0
   -5.4225    4.5364    0.0324 C   0  0  0  0  0  0  0  0  0  0  0  0
   -5.6335    5.6154    0.0860 H   0  0  0  0  0  0  0  0  0  0  0  0
   -4.0973    4.0849    0.0439 C   0  0  0  0  0  0  0  0  0  0  0  0
   -3.2526    4.7853    0.1045 H   0  0  0  0  0  0  0  0  0  0  0  0
  1 22  1  0  0  0  0
  2 20  1  0  0  0  0
  3  2  1  0  0  0  0
  4 19  1  0  0  0  0
  5  4  2  0  0  0  0
  5  7  1  0  0  0  0
  6  5  1  0  0  0  0
  7  9  2  0  0  0  0
  8  7  1  0  0  0  0
  9 10  1  0  0  0  0
 10 11  1  0  0  0  0
 10 12  2  0  0  0  0
 12 13  1  0  0  0  0
 14 12  1  0  0  0  0
 14 15  1  0  0  0  0
 16 14  2  0  0  0  0
 17 16  1  0  0  0  0
 18  9  1  0  0  0  0
 18 16  1  0  0  0  0
 19 20  2  0  0  0  0
 19 18  1  0  0  0  0
 20 21  1  0  0  0  0
 22  3  2  0  0  0  0
 23 22  1  0  0  0  0
 23 32  1  0  0  0  0
 24 23  2  0  0  0  0
 25 24  1  0  0  0  0
 26 24  1  0  0  0  0
 26 28  2  0  0  0  0
 27 26  1  0  0  0  0
 28 30  1  0  0  0  0
 29 28  1  0  0  0  0
 30 32  2  0  0  0  0
 30 31  1  0  0  0  0
 32 33  1  0  0  0  0
M  CHG  1   1  -1
M  END
