1,34,39
q = -1.0

 48 50  0  0  1  0  0  0  0  0999 V2000
    0.6944   -1.8363   -0.3914 C   0  0  0  0  0  3  0  0  0  0  0  0
    1.4116   -3.0298   -0.6156 C   0  0  0  0  0  0  0  0  0  0  0  0
    2.4980   -3.0019   -0.7837 H   0  0  0  0  0  0  0  0  0  0  0  0
    0.7548   -4.2725   -0.6480 C   0  0  0  0  0  0  0  0  0  0  0  0
    1.3413   -5.1863   -0.8307 H   0  0  0  0  0  0  0  0  0  0  0  0
   -0.6353   -4.3646   -0.4643 C   0  0  0  0  0  0  0  0  0  0  0  0
   -1.1372   -5.3425   -0.4954 H   0  0  0  0  0  0  0  0  0  0  0  0
   -1.3808   -3.1964   -0.2618 C   0  0  0  0  0  0  0  0  0  0  0  0
   -2.4748   -3.2468   -0.1430 H   0  0  0  0  0  0  0  0  0  0  0  0
   -0.7174   -1.9552   -0.2290 C   0  0  0  0  0  0  0  0  0  0  0  0
   -1.5884   -0.4003   -0.0113 P   0  0  0  0  0  4  0  0  0  0  0  0
   -2.0251   -0.1428    1.7348 C   0  0  0  0  0  0  0  0  0  0  0  0
   -1.3065   -0.8278    2.7382 C   0  0  0  0  0  0  0  0  0  0  0  0
   -0.5703   -1.5956    2.4549 H   0  0  0  0  0  0  0  0  0  0  0  0
   -1.5426   -0.5337    4.0878 C   0  0  0  0  0  0  0  0  0  0  0  0
   -0.9924   -1.0779    4.8698 H   0  0  0  0  0  0  0  0  0  0  0  0
   -2.4841    0.4472    4.4429 C   0  0  0  0  0  0  0  0  0  0  0  0
   -2.6687    0.6723    5.5039 H   0  0  0  0  0  0  0  0  0  0  0  0
   -3.1953    1.1362    3.4473 C   0  0  0  0  0  0  0  0  0  0  0  0
   -3.9363    1.9001    3.7264 H   0  0  0  0  0  0  0  0  0  0  0  0
   -2.9700    0.8453    2.0935 C   0  0  0  0  0  0  0  0  0  0  0  0
   -3.5452    1.3723    1.3164 H   0  0  0  0  0  0  0  0  0  0  0  0
   -3.1249   -0.3470   -0.9730 C   0  0  0  0  0  0  0  0  0  0  0  0
   -4.3503   -0.8128   -0.4507 C   0  0  0  0  0  0  0  0  0  0  0  0
   -4.4155   -1.1592    0.5920 H   0  0  0  0  0  0  0  0  0  0  0  0
   -5.4901   -0.8264   -1.2677 C   0  0  0  0  0  0  0  0  0  0  0  0
   -6.4471   -1.1896   -0.8644 H   0  0  0  0  0  0  0  0  0  0  0  0
   -5.4108   -0.3751   -2.5955 C   0  0  0  0  0  0  0  0  0  0  0  0
   -6.3088   -0.3849   -3.2314 H   0  0  0  0  0  0  0  0  0  0  0  0
   -4.1899    0.0864   -3.1157 C   0  0  0  0  0  0  0  0  0  0  0  0
   -4.1307    0.4349   -4.1575 H   0  0  0  0  0  0  0  0  0  0  0  0
   -3.0431    0.0967   -2.3102 C   0  0  0  0  0  0  0  0  0  0  0  0
   -2.0740    0.4385   -2.7061 H   0  0  0  0  0  0  0  0  0  0  0  0
   -0.4783    0.6906   -0.5795 N   0  0  0  0  0  2  0  0  0  0  0  0
   -0.6532    2.1184   -0.3754 C   0  0  0  0  0  0  0  0  0  0  0  0
   -1.1191    2.3723    0.6114 H   0  0  0  0  0  0  0  0  0  0  0  0
   -1.3242    2.5565   -1.1514 H   0  0  0  0  0  0  0  0  0  0  0  0
    0.7040    2.8201   -0.4117 C   0  0  2  0  0  3  0  0  0  0  0  0
    1.7667    2.1374   -0.3987 O   0  0  0  0  0  1  0  0  0  0  0  0
    0.7531    4.1713   -0.4268 N   0  0  0  0  0  0  0  0  0  0  0  0
    2.0427    4.8541   -0.3839 C   0  0  0  0  0  0  0  0  0  0  0  0
    2.8500    4.1035   -0.4081 H   0  0  0  0  0  0  0  0  0  0  0  0
    2.1270    5.4559    0.5452 H   0  0  0  0  0  0  0  0  0  0  0  0
    2.1398    5.5353   -1.2540 H   0  0  0  0  0  0  0  0  0  0  0  0
   -0.4196    5.0318   -0.3607 C   0  0  0  0  0  0  0  0  0  0  0  0
   -0.5484    5.4530    0.6599 H   0  0  0  0  0  0  0  0  0  0  0  0
   -1.3392    4.4894   -0.6377 H   0  0  0  0  0  0  0  0  0  0  0  0
   -0.2963    5.8772   -1.0670 H   0  0  0  0  0  0  0  0  0  0  0  0
  1 10  1  0  0  0  0
  2  1  2  0  0  0  0
  3  2  1  0  0  0  0
  4  2  1  0  0  0  0
  4  6  2  0  0  0  0
  5  4  1  0  0  0  0
  6  8  1  0  0  0  0
  7  6  1  0  0  0  0
  8 10  2  0  0  0  0
  8  9  1  0  0  0  0
 10 11  1  0  0  0  0
 11 12  1  0  0  0  0
 12 21  2  0  0  0  0
 12 13  1  0  0  0  0
 13 15  2  0  0  0  0
 14 13  1  0  0  0  0
 15 17  1  0  0  0  0
 15 16  1  0  0  0  0
 17 18  1  0  0  0  0
 19 20  1  0  0  0  0
 19 17  2  0  0  0  0
 21 19  1  0  0  0  0
 22 21  1  0  0  0  0
 23 24  1  0  0  0  0
 23 11  1  0  0  0  0
 24 25  1  0  0  0  0
 26 27  1  0  0  0  0
 26 24  2  0  0  0  0
 28 26  1  0  0  0  0
 29 28  1  0  0  0  0
 30 28  2  0  0  0  0
 30 32  1  0  0  0  0
 31 30  1  0  0  0  0
 32 23  2  0  0  0  0
 33 32  1  0  0  0  0
 34 35  1  0  0  0  0
 34 11  1  0  0  0  0
 35 36  1  0  0  0  0
 37 35  1  0  0  0  0
 38 39  1  1  0  0  0
 38 35  1  0  0  0  0
 40 38  1  0  0  0  0
 40 41  1  0  0  0  0
 40 45  1  0  0  0  0
 41 43  1  0  0  0  0
 42 41  1  0  0  0  0
 44 41  1  0  0  0  0
 45 46  1  0  0  0  0
 47 45  1  0  0  0  0
 48 45  1  0  0  0  0
M  END
