2,4,32
q = -2.0, confidence = 0.94

 33 34  0  0  0  0  0  0  0  0999 V2000
    1.0593   -1.1600   -0.8913 S   0  0  0  0  0  0  0  0  0  0  0  0
    0.3966   -1.8416    0.3149 O   0  0  0  0  0  1  0  0  0  0  0  0
    1.3374   -1.9467   -2.1096 O   0  0  0  0  0  1  0  0  0  0  0  0
   -0.0167    0.0448   -1.0347 N   0  0  0  0  0  2  0  0  0  0  0  0
    2.5975   -0.4788   -0.2910 C   0  0  0  0  0  0  0  0  0  0  0  0
    3.7147   -0.4590   -1.1357 C   0  0  0  0  0  0  0  0  0  0  0  0
    3.6481   -0.9115   -2.1355 H   0  0  0  0  0  0  0  0  0  0  0  0
    4.9001    0.1299   -0.6716 C   0  0  0  0  0  0  0  0  0  0  0  0
    5.7852    0.1507   -1.3263 H   0  0  0  0  0  0  0  0  0  0  0  0
    4.9808    0.6894    0.6191 C   0  0  0  0  0  0  0  0  0  0  0  0
    3.8345    0.6413    1.4471 C   0  0  0  0  0  0  0  0  0  0  0  0
    3.8835    1.0627    2.4634 H   0  0  0  0  0  0  0  0  0  0  0  0
    2.6414    0.0634    1.0066 C   0  0  0  0  0  0  0  0  0  0  0  0
    1.7571    0.0108    1.6613 H   0  0  0  0  0  0  0  0  0  0  0  0
    6.2549    1.3159    1.1221 C   0  0  0  0  0  0  0  0  0  0  0  0
    6.0858    2.3651    1.4414 H   0  0  0  0  0  0  0  0  0  0  0  0
    7.0468    1.3154    0.3493 H   0  0  0  0  0  0  0  0  0  0  0  0
    6.6425    0.7715    2.0085 H   0  0  0  0  0  0  0  0  0  0  0  0
   -0.1056    0.8838   -2.2186 C   0  0  0  0  0  0  0  0  0  0  0  0
   -0.8496    0.4557   -2.9290 H   0  0  0  0  0  0  0  0  0  0  0  0
    0.8696    0.9086   -2.7537 H   0  0  0  0  0  0  0  0  0  0  0  0
   -0.5453    2.2999   -1.8026 C   0  0  0  0  0  0  0  0  0  0  0  0
    0.3364    2.8208   -1.3678 H   0  0  0  0  0  0  0  0  0  0  0  0
   -0.8451    2.8666   -2.7073 H   0  0  0  0  0  0  0  0  0  0  0  0
   -1.6587    2.2795   -0.7987 C   0  0  0  0  0  0  0  0  0  0  0  0
   -2.9575    2.7833   -0.9198 C   0  0  0  0  0  0  0  0  0  0  0  0
   -3.3831    3.2358   -1.8275 H   0  0  0  0  0  0  0  0  0  0  0  0
   -3.6430    2.6154    0.3314 C   0  0  0  0  0  0  0  0  0  0  0  0
   -4.6827    2.9115    0.5298 H   0  0  0  0  0  0  0  0  0  0  0  0
   -2.7751    2.0064    1.2418 C   0  0  0  0  0  0  0  0  0  0  0  0
   -2.9718    1.7680    2.2947 H   0  0  0  0  0  0  0  0  0  0  0  0
   -1.5259    1.7411    0.5540 C   0  0  0  0  0  3  0  0  0  0  0  0
   -0.5583    1.7623    1.0865 H   0  0  0  0  0  0  0  0  0  0  0  0
  1  5  1  0  0  0  0
  1  2  1  0  0  0  0
  3  1  1  0  0  0  0
  4  1  1  0  0  0  0
  5 13  1  0  0  0  0
  6  8  1  0  0  0  0
  6  5  2  0  0  0  0
  7  6  1  0  0  0  0
  8 10  2  0  0  0  0
  9  8  1  0  0  0  0
 10 15  1  0  0  0  0
 10 11  1  0  0  0  0
 11 12  1  0  0  0  0
 13 11  2  0  0  0  0
 13 14  1  0  0  0  0
 15 16  1  0  0  0  0
 15 18  1  0  0  0  0
 17 15  1  0  0  0  0
 19 22  1  0  0  0  0
 19  4  1  0  0  0  0
 20 19  1  0  0  0  0
 21 19  1  0  0  0  0
 22 23  1  0  0  0  0
 22 25  1  0  0  0  0
 24 22  1  0  0  0  0
 25 32  1  0  0  0  0
 26 25  2  0  0  0  0
 26 28  1  0  0  0  0
 27 26  1  0  0  0  0
 28 29  1  0  0  0  0
 28 30  2  0  0  0  0
 30 31  1  0  0  0  0
 32 33  1  0  0  0  0
 32 30  1  0  0  0  0
M  END
