1,6,31
q = -1.0, confidence = 0.088

 77 79  0  0  1  0  0  0  0  0999 V2000
    2.5438   -1.2962    1.0120 N   0  0  0  0  0  0  0  0  0  0  0  0
    3.2778   -1.8450    0.5184 H   0  0  0  0  0  0  0  0  0  0  0  0
    1.3195    2.0998    1.6840 O   0  0  0  0  0  0  0  0  0  0  0  0
    0.6304    2.5580   -0.4380 O   0  0  0  0  0  0  0  0  0  0  0  0
   -1.3332    0.9454   -2.9566 O   0  0  0  0  0  0  0  0  0  0  0  0
    0.7354    0.3905   -2.2883 O   0  0  0  0  0  1  0  0  0  0  0  0
   -0.1902   -2.4321   -1.4523 O   0  0  0  0  0  0  0  0  0  0  0  0
   -1.9103   -3.2448   -0.2101 O   0  0  0  0  0  0  0  0  0  0  0  0
   -4.7202    2.6567    0.3862 O   0  0  0  0  0  0  0  0  0  0  0  0
   -5.6731    0.6189    0.0777 O   0  0  0  0  0  0  0  0  0  0  0  0
   -2.0430    3.5678   -1.3759 O   0  0  0  0  0  0  0  0  0  0  0  0
   -1.8970    3.3713    0.8908 O   0  0  0  0  0  0  0  0  0  0  0  0
   -4.5255   -1.9066    1.2649 O   0  0  0  0  0  0  0  0  0  0  0  0
   -4.6261   -2.3777   -0.9587 O   0  0  0  0  0  0  0  0  0  0  0  0
   -0.2508   -0.2949    1.7156 C   0  0  0  0  0  0  0  0  0  0  0  0
    0.3261   -1.5090    2.1767 C   0  0  0  0  0  0  0  0  0  0  0  0
   -0.1852   -2.1092    3.3467 C   0  0  0  0  0  0  0  0  0  0  0  0
    0.2717   -3.0463    3.7028 H   0  0  0  0  0  0  0  0  0  0  0  0
   -1.2446   -1.5440    4.0641 C   0  0  0  0  0  0  0  0  0  0  0  0
   -1.6325   -2.0460    4.9631 H   0  0  0  0  0  0  0  0  0  0  0  0
   -1.7762   -0.3169    3.6451 C   0  0  0  0  0  0  0  0  0  0  0  0
   -2.5839    0.1665    4.2147 H   0  0  0  0  0  0  0  0  0  0  0  0
   -1.2647    0.3018    2.4997 C   0  0  0  0  0  0  0  0  0  0  0  0
   -1.6586    1.2823    2.1967 H   0  0  0  0  0  0  0  0  0  0  0  0
    1.4864   -2.2097    1.4990 C   0  0  0  0  0  0  0  0  0  0  0  0
    1.9334   -2.9235    2.2273 H   0  0  0  0  0  0  0  0  0  0  0  0
    1.1559   -2.7947    0.6154 H   0  0  0  0  0  0  0  0  0  0  0  0
    3.1926   -0.4846    2.0838 C   0  0  0  0  0  0  0  0  0  0  0  0
    3.4080   -1.1731    2.9328 H   0  0  0  0  0  0  0  0  0  0  0  0
    2.4665    0.2764    2.4285 H   0  0  0  0  0  0  0  0  0  0  0  0
    0.1359    0.3998    0.4242 C   0  0  1  0  0  3  0  0  0  0  0  0
   -1.0540    0.3890   -0.6366 C   0  0  2  0  0  0  0  0  0  0  0  0
   -2.1522    1.4020   -0.3449 C   0  0  0  0  0  0  0  0  0  0  0  0
   -3.3414    0.7559   -0.1187 C   0  0  0  0  0  0  0  0  0  0  0  0
   -3.1391   -0.6881   -0.2461 C   0  0  0  0  0  0  0  0  0  0  0  0
   -1.8307   -0.9309   -0.5738 C   0  0  0  0  0  0  0  0  0  0  0  0
    4.4657    0.1580    1.5922 C   0  0  0  0  0  0  0  0  0  0  0  0
    5.6358   -0.6118    1.4439 C   0  0  0  0  0  0  0  0  0  0  0  0
    5.6287   -1.6776    1.7260 H   0  0  0  0  0  0  0  0  0  0  0  0
    6.8083   -0.0386    0.9334 C   0  0  0  0  0  0  0  0  0  0  0  0
    7.7132   -0.6534    0.8146 H   0  0  0  0  0  0  0  0  0  0  0  0
    6.8244    1.3176    0.5718 C   0  0  0  0  0  0  0  0  0  0  0  0
    7.7434    1.7691    0.1678 H   0  0  0  0  0  0  0  0  0  0  0  0
    5.6667    2.0951    0.7291 C   0  0  0  0  0  0  0  0  0  0  0  0
    5.6773    3.1605    0.4516 H   0  0  0  0  0  0  0  0  0  0  0  0
    4.4917    1.5195    1.2345 C   0  0  0  0  0  0  0  0  0  0  0  0
    3.5778    2.1189    1.3613 H   0  0  0  0  0  0  0  0  0  0  0  0
   -1.2117   -2.2446   -0.8055 C   0  0  0  0  0  0  0  0  0  0  0  0
    0.7529    1.7396    0.6560 C   0  0  0  0  0  0  0  0  0  0  0  0
   -0.4612    0.5860   -2.0347 C   0  0  2  0  0  3  0  0  0  0  0  0
   -4.6178    1.4634    0.1525 C   0  0  0  0  0  0  0  0  0  0  0  0
   -4.1664   -1.7154    0.1209 C   0  0  0  0  0  0  0  0  0  0  0  0
   -2.0150    2.8944   -0.3649 C   0  0  0  0  0  0  0  0  0  0  0  0
   -1.4149   -4.5665   -0.4417 C   0  0  0  0  0  0  0  0  0  0  0  0
   -2.1499   -5.2517    0.0166 H   0  0  0  0  0  0  0  0  0  0  0  0
   -0.4222   -4.7032    0.0337 H   0  0  0  0  0  0  0  0  0  0  0  0
   -1.3102   -4.7682   -1.5264 H   0  0  0  0  0  0  0  0  0  0  0  0
    1.3230    3.8051   -0.3941 C   0  0  0  0  0  0  0  0  0  0  0  0
    1.2256    4.2736    0.6050 H   0  0  0  0  0  0  0  0  0  0  0  0
    0.8626    4.4363   -1.1758 H   0  0  0  0  0  0  0  0  0  0  0  0
    2.3994    3.6503   -0.6161 H   0  0  0  0  0  0  0  0  0  0  0  0
   -0.8190    1.1495   -4.2883 C   0  0  0  0  0  0  0  0  0  0  0  0
   -0.0709    1.9653   -4.2808 H   0  0  0  0  0  0  0  0  0  0  0  0
   -1.6923    1.4265   -4.9024 H   0  0  0  0  0  0  0  0  0  0  0  0
   -0.3437    0.2221   -4.6620 H   0  0  0  0  0  0  0  0  0  0  0  0
   -6.9528    1.2050    0.3394 C   0  0  0  0  0  0  0  0  0  0  0  0
   -6.9833    1.6361    1.3600 H   0  0  0  0  0  0  0  0  0  0  0  0
   -7.6882    0.3871    0.2440 H   0  0  0  0  0  0  0  0  0  0  0  0
   -7.1699    2.0134   -0.3874 H   0  0  0  0  0  0  0  0  0  0  0  0
   -5.5742   -3.4122   -0.6700 C   0  0  0  0  0  0  0  0  0  0  0  0
   -5.1110   -4.1989   -0.0402 H   0  0  0  0  0  0  0  0  0  0  0  0
   -5.8811   -3.8292   -1.6453 H   0  0  0  0  0  0  0  0  0  0  0  0
   -6.4502   -3.0043   -0.1268 H   0  0  0  0  0  0  0  0  0  0  0  0
   -1.9557    4.7969    1.0308 C   0  0  0  0  0  0  0  0  0  0  0  0
   -1.2745    5.2951    0.3142 H   0  0  0  0  0  0  0  0  0  0  0  0
   -1.6564    5.0141    2.0709 H   0  0  0  0  0  0  0  0  0  0  0  0
   -2.9932    5.1403    0.8450 H   0  0  0  0  0  0  0  0  0  0  0  0
  1 25  1  0  0  0  0
  1 28  1  0  0  0  0
  2  1  1  0  0  0  0
  4 58  1  0  0  0  0
  4 49  1  0  0  0  0
  5 50  1  0  0  0  0
  7 48  2  0  0  0  0
 10 51  1  0  0  0  0
 10 66  1  0  0  0  0
 11 53  2  0  0  0  0
 12 74  1  0  0  0  0
 14 70  1  0  0  0  0
 14 52  1  0  0  0  0
 15 16  2  0  0  0  0
 15 23  1  0  0  0  0
 16 17  1  0  0  0  0
 17 18  1  0  0  0  0
 17 19  2  0  0  0  0
 19 20  1  0  0  0  0
 21 19  1  0  0  0  0
 21 22  1  0  0  0  0
 23 21  2  0  0  0  0
 24 23  1  0  0  0  0
 25 16  1  0  0  0  0
 25 26  1  0  0  0  0
 27 25  1  0  0  0  0
 28 30  1  0  0  0  0
 28 29  1  0  0  0  0
 31 49  1  1  0  0  0
 31 15  1  0  0  0  0
 32 50  1  6  0  0  0
 32 36  1  0  0  0  0
 32 33  1  0  0  0  0
 32 31  1  0  0  0  0
 33 34  2  0  0  0  0
 34 51  1  0  0  0  0
 35 34  1  0  0  0  0
 35 52  1  0  0  0  0
 36 35  2  0  0  0  0
 37 28  1  0  0  0  0
 38 37  1  0  0  0  0
 38 39  1  0  0  0  0
 40 38  2  0  0  0  0
 41 40  1  0  0  0  0
 42 44  2  0  0  0  0
 42 40  1  0  0  0  0
 43 42  1  0  0  0  0
 44 46  1  0  0  0  0
 45 44  1  0  0  0  0
 46 47  1  0  0  0  0
 46 37  2  0  0  0  0
 48 36  1  0  0  0  0
 48  8  1  0  0  0  0
 49  3  2  0  0  0  0
 50  6  1  6  0  0  0
 51  9  2  0  0  0  0
 52 13  2  0  0  0  0
 53 33  1  0  0  0  0
 53 12  1  0  0  0  0
 54  8  1  0  0  0  0
 54 55  1  0  0  0  0
 54 56  1  0  0  0  0
 57 54  1  0  0  0  0
 58 59  1  0  0  0  0
 60 58  1  0  0  0  0
 61 58  1  0  0  0  0
 62 63  1  0  0  0  0
 62  5  1  0  0  0  0
 64 62  1  0  0  0  0
 65 62  1  0  0  0  0
 66 67  1  0  0  0  0
 68 66  1  0  0  0  0
 69 66  1  0  0  0  0
 70 73  1  0  0  0  0
 70 71  1  0  0  0  0
 72 70  1  0  0  0  0
 74 76  1  0  0  0  0
 75 74  1  0  0  0  0
 77 74  1  0  0  0  0
M  END
