1,4,16
q = -2.0, confidence = 0.65

 26 26  0  0  0  0  0  0  0  0999 V2000
    0.2563   -1.9782    0.0413 O   0  0  0  0  0  1  0  0  0  0  0  0
    3.0499    2.0680   -0.2475 O   0  0  0  0  0  0  0  0  0  0  0  0
    1.5765   -1.9371   -0.0025 N   0  0  0  0  0  0  0  0  0  0  0  0
    1.4471    0.3851   -0.0803 N   0  0  0  0  0  2  0  0  0  0  0  0
    2.2577   -3.1220    0.0309 C   0  0  0  0  0  3  0  0  0  0  0  0
    1.6000   -3.9984    0.0935 H   0  0  0  0  0  0  0  0  0  0  0  0
    3.6437   -3.1673   -0.0156 C   0  0  0  0  0  0  0  0  0  0  0  0
    4.1460   -4.1437    0.0116 H   0  0  0  0  0  0  0  0  0  0  0  0
    4.3623   -1.9586   -0.1016 C   0  0  0  0  0  0  0  0  0  0  0  0
    5.4611   -1.9633   -0.1449 H   0  0  0  0  0  0  0  0  0  0  0  0
    3.6735   -0.7481   -0.1365 C   0  0  0  0  0  0  0  0  0  0  0  0
    4.1719    0.2261   -0.2093 H   0  0  0  0  0  0  0  0  0  0  0  0
    2.2575   -0.7147   -0.0825 C   0  0  0  0  0  0  0  0  0  0  0  0
    1.8808    1.7095   -0.1089 C   0  0  0  0  0  0  0  0  0  0  0  0
    0.7134    2.6888    0.1521 C   0  0  0  0  0  0  0  0  0  0  0  0
   -0.6327    2.0541   -0.2670 C   0  0  0  0  0  3  0  0  0  0  0  0
   -0.8343    2.2329   -1.3476 H   0  0  0  0  0  0  0  0  0  0  0  0
   -1.4705    2.4770    0.3296 H   0  0  0  0  0  0  0  0  0  0  0  0
    0.7243    2.9365    1.6793 C   0  0  0  0  0  0  0  0  0  0  0  0
    0.5133    1.9978    2.2306 H   0  0  0  0  0  0  0  0  0  0  0  0
   -0.0565    3.6779    1.9481 H   0  0  0  0  0  0  0  0  0  0  0  0
    1.7076    3.3282    2.0084 H   0  0  0  0  0  0  0  0  0  0  0  0
    0.9800    4.0068   -0.5886 C   0  0  0  0  0  0  0  0  0  0  0  0
    1.9800    4.4014   -0.3188 H   0  0  0  0  0  0  0  0  0  0  0  0
    0.2105    4.7621   -0.3290 H   0  0  0  0  0  0  0  0  0  0  0  0
    0.9628    3.8572   -1.6872 H   0  0  0  0  0  0  0  0  0  0  0  0
  2 14  2  0  0  0  0
  3  5  1  0  0  0  0
  3  1  1  0  0  0  0
  5  6  1  0  0  0  0
  7  8  1  0  0  0  0
  7  5  1  0  0  0  0
  9  7  2  0  0  0  0
 10  9  1  0  0  0  0
 11  9  1  0  0  0  0
 11 13  2  0  0  0  0
 12 11  1  0  0  0  0
 13  4  1  0  0  0  0
 13  3  1  0  0  0  0
 14  4  1  0  0  0  0
 14 15  1  0  0  0  0
 15 19  1  0  0  0  0
 16 15  1  0  0  0  0
 16 18  1  0  0  0  0
 17 16  1  0  0  0  0
 19 21  1  0  0  0  0
 19 22  1  0  0  0  0
 19 20  1  0  0  0  0
 23 25  1  0  0  0  0
 23 24  1  0  0  0  0
 23 15  1  0  0  0  0
 26 23  1  0  0  0  0
M  END
