1,2,3
q = -2.0, confidence = 0.666

 47 50  0  0  1  0  0  0  0  0999 V2000
   -0.2160    2.3029    0.9554 O   0  5  0  0  0  0  0  0  0  0  0  0
    2.0733    0.7085    0.3247 N   0  0  0  0  0  2  0  0  0  0  0  0
    0.4525   -1.6381   -0.3526 C   0  0  0  0  0  3  0  0  0  0  0  0
   -0.2887   -2.2982    0.1381 H   0  0  0  0  0  0  0  0  0  0  0  0
    2.4777    1.8626   -0.2729 C   0  0  0  0  0  0  0  0  0  0  0  0
    3.0039   -0.1629    0.9118 C   0  0  0  0  0  0  0  0  0  0  0  0
    1.8851   -2.2318   -0.1449 C   0  0  2  0  0  0  0  0  0  0  0  0
    1.7362   -3.2478    0.2702 H   0  0  0  0  0  0  0  0  0  0  0  0
    3.7641    1.9162   -0.9149 C   0  0  0  0  0  0  0  0  0  0  0  0
    4.3908    1.0148   -0.8711 H   0  0  0  0  0  0  0  0  0  0  0  0
    2.9065   -1.5730    0.7595 C   0  0  0  0  0  0  0  0  0  0  0  0
    0.4617    3.2468    0.4593 C   0  0  0  0  0  0  0  0  0  0  0  0
    3.8570   -2.4005    1.4227 C   0  0  0  0  0  0  0  0  0  0  0  0
    1.6675    3.0740   -0.3322 C   0  0  0  0  0  0  0  0  0  0  0  0
    4.0168    0.3871    1.7404 C   0  0  0  0  0  0  0  0  0  0  0  0
    4.0505    1.4785    1.8713 H   0  0  0  0  0  0  0  0  0  0  0  0
    4.1900    3.0213   -1.6313 C   0  0  0  0  0  0  0  0  0  0  0  0
    5.1602    2.9833   -2.1515 H   0  0  0  0  0  0  0  0  0  0  0  0
    4.8603   -1.8249    2.2247 C   0  0  0  0  0  0  0  0  0  0  0  0
    5.5830   -2.4821    2.7329 H   0  0  0  0  0  0  0  0  0  0  0  0
    0.2860   -1.6518   -1.8914 C   0  0  1  0  0  0  0  0  0  0  0  0
   -0.5530   -1.0331   -2.2645 H   0  0  0  0  0  0  0  0  0  0  0  0
    2.1605    4.1945   -1.0703 C   0  0  0  0  0  3  0  0  0  0  0  0
    1.5363    5.0972   -1.1313 H   0  0  0  0  0  0  0  0  0  0  0  0
    3.3806    4.1823   -1.7262 C   0  0  0  0  0  0  0  0  0  0  0  0
    3.7136    5.0539   -2.3076 H   0  0  0  0  0  0  0  0  0  0  0  0
   -0.0495    4.6435    0.7636 C   0  0  0  0  0  0  0  0  0  0  0  0
   -0.4883    5.0996   -0.1489 H   0  0  0  0  0  0  0  0  0  0  0  0
    0.7499    5.3207    1.1209 H   0  0  0  0  0  0  0  0  0  0  0  0
   -0.8486    4.5654    1.5223 H   0  0  0  0  0  0  0  0  0  0  0  0
    4.9395   -0.4343    2.3853 C   0  0  0  0  0  0  0  0  0  0  0  0
    5.7160    0.0081    3.0281 H   0  0  0  0  0  0  0  0  0  0  0  0
    2.3942   -2.4050   -1.6226 C   0  0  2  0  0  0  0  0  0  0  0  0
    3.4981   -2.4447   -1.6971 H   0  0  0  0  0  0  0  0  0  0  0  0
    1.6965   -1.2501   -2.3660 C   0  0  0  0  0  0  0  0  0  0  0  0
    2.0039   -0.2468   -2.0169 H   0  0  0  0  0  0  0  0  0  0  0  0
    1.8243   -1.3116   -3.4671 H   0  0  0  0  0  0  0  0  0  0  0  0
    0.2009   -3.1302   -2.3623 C   0  0  0  0  0  0  0  0  0  0  0  0
   -0.5210   -3.7100   -1.7522 H   0  0  0  0  0  0  0  0  0  0  0  0
   -0.1474   -3.1832   -3.4146 H   0  0  0  0  0  0  0  0  0  0  0  0
    3.8273   -3.9043    1.2711 C   0  0  0  0  0  0  0  0  0  0  0  0
    2.8740   -4.3421    1.6369 H   0  0  0  0  0  0  0  0  0  0  0  0
    4.6505   -4.3723    1.8443 H   0  0  0  0  0  0  0  0  0  0  0  0
    3.9322   -4.2206    0.2123 H   0  0  0  0  0  0  0  0  0  0  0  0
    1.6707   -3.6317   -2.2210 C   0  0  0  0  0  0  0  0  0  0  0  0
    1.7653   -4.5276   -1.5740 H   0  0  0  0  0  0  0  0  0  0  0  0
    2.1041   -3.8928   -3.2082 H   0  0  0  0  0  0  0  0  0  0  0  0
  2  6  1  0  0  0  0
  3  7  1  0  0  0  0
  3  4  1  0  0  0  0
  5  2  1  0  0  0  0
  6 15  1  0  0  0  0
  7  8  1  1  0  0  0
  7 11  1  0  0  0  0
  9 10  1  0  0  0  0
  9  5  2  0  0  0  0
 11  6  2  0  0  0  0
 11 13  1  0  0  0  0
 12 27  1  0  0  0  0
 12  1  1  0  0  0  0
 13 19  2  0  0  0  0
 14  5  1  0  0  0  0
 14 12  2  0  0  0  0
 15 16  1  0  0  0  0
 15 31  2  0  0  0  0
 17  9  1  0  0  0  0
 18 17  1  0  0  0  0
 19 31  1  0  0  0  0
 19 20  1  0  0  0  0
 21 22  1  6  0  0  0
 21  3  1  0  0  0  0
 23 14  1  0  0  0  0
 24 23  1  0  0  0  0
 25 17  2  0  0  0  0
 25 23  1  0  0  0  0
 26 25  1  0  0  0  0
 27 29  1  0  0  0  0
 27 30  1  0  0  0  0
 28 27  1  0  0  0  0
 31 32  1  0  0  0  0
 33 34  1  6  0  0  0
 33  7  1  0  0  0  0
 35 36  1  0  0  0  0
 35 21  1  0  0  0  0
 35 33  1  0  0  0  0
 37 35  1  0  0  0  0
 38 45  1  0  0  0  0
 38 21  1  0  0  0  0
 38 39  1  0  0  0  0
 40 38  1  0  0  0  0
 41 13  1  0  0  0  0
 41 42  1  0  0  0  0
 41 43  1  0  0  0  0
 44 41  1  0  0  0  0
 45 33  1  0  0  0  0
 45 46  1  0  0  0  0
 47 45  1  0  0  0  0
M  CHG  1   1  -1
M  END
