1,2,8
q = -1.0

 34 36  0  0  1  0  0  0  0  0999 V2000
   -2.4129    1.0346   -0.0436 O   0  0  0  0  0  1  0  0  0  0  0  0
   -0.6201   -0.9134    0.0084 N   0  0  0  0  0  2  0  0  0  0  0  0
   -1.9474   -1.2002    0.0191 N   0  0  0  0  0  0  0  0  0  0  0  0
   -2.2595   -2.1653    0.1657 H   0  0  0  0  0  0  0  0  0  0  0  0
    2.8258   -2.0457    0.0781 C   0  0  0  0  0  0  0  0  0  0  0  0
    2.7578   -3.1451    0.1203 H   0  0  0  0  0  0  0  0  0  0  0  0
    1.6645   -1.2706    0.0419 C   0  0  0  0  0  0  0  0  0  0  0  0
    1.7385    0.1839   -0.0122 C   0  0  0  0  0  3  0  0  0  0  0  0
    2.9800    0.7899   -0.0277 C   0  0  0  0  0  0  0  0  0  0  0  0
    3.0473    1.8870   -0.0671 H   0  0  0  0  0  0  0  0  0  0  0  0
    5.4675    0.6231   -0.0090 C   0  0  0  0  0  0  0  0  0  0  0  0
    5.5257    1.7216   -0.0504 H   0  0  0  0  0  0  0  0  0  0  0  0
    6.6252   -0.1443    0.0262 C   0  0  0  0  0  0  0  0  0  0  0  0
    7.6098    0.3478    0.0128 H   0  0  0  0  0  0  0  0  0  0  0  0
    6.5496   -1.5620    0.0797 C   0  0  0  0  0  0  0  0  0  0  0  0
    7.4740   -2.1583    0.1072 H   0  0  0  0  0  0  0  0  0  0  0  0
    5.3133   -2.1912    0.0971 C   0  0  0  0  0  0  0  0  0  0  0  0
    5.2460   -3.2899    0.1385 H   0  0  0  0  0  0  0  0  0  0  0  0
    4.1066   -1.4318    0.0617 C   0  0  0  0  0  0  0  0  0  0  0  0
    4.1823    0.0112    0.0074 C   0  0  0  0  0  3  0  0  0  0  0  0
    0.3309   -1.8216    0.0543 C   0  0  0  0  0  0  0  0  0  0  0  0
    0.1075   -2.9029    0.0987 H   0  0  0  0  0  0  0  0  0  0  0  0
   -2.8308   -0.1358   -0.0156 C   0  0  1  0  0  3  0  0  0  0  0  0
   -4.2803   -0.4696    0.0011 C   0  0  0  0  0  0  0  0  0  0  0  0
   -4.7878   -1.7362   -0.3622 C   0  0  0  0  0  0  0  0  0  0  0  0
   -4.1164   -2.5341   -0.7167 H   0  0  0  0  0  0  0  0  0  0  0  0
   -6.1671   -1.9787   -0.3252 C   0  0  0  0  0  0  0  0  0  0  0  0
   -6.5570   -2.9646   -0.6188 H   0  0  0  0  0  0  0  0  0  0  0  0
   -7.0492   -0.9600    0.0706 C   0  0  0  0  0  0  0  0  0  0  0  0
   -8.1322   -1.1529    0.0993 H   0  0  0  0  0  0  0  0  0  0  0  0
   -6.5505    0.3066    0.4186 C   0  0  0  0  0  0  0  0  0  0  0  0
   -7.2416    1.1073    0.7211 H   0  0  0  0  0  0  0  0  0  0  0  0
   -5.1739    0.5548    0.3789 C   0  0  0  0  0  0  0  0  0  0  0  0
   -4.7588    1.5394    0.6384 H   0  0  0  0  0  0  0  0  0  0  0  0
  2  3  1  0  0  0  0
  2 21  1  0  0  0  0
  3  4  1  0  0  0  0
  5  6  1  0  0  0  0
  7 21  2  0  0  0  0
  7  5  1  0  0  0  0
  8  7  1  0  0  0  0
  9  8  2  0  0  0  0
  9 20  1  0  0  0  0
 10  9  1  0  0  0  0
 11 20  1  0  0  0  0
 11 13  2  0  0  0  0
 12 11  1  0  0  0  0
 13 15  1  0  0  0  0
 14 13  1  0  0  0  0
 15 17  2  0  0  0  0
 15 16  1  0  0  0  0
 17 18  1  0  0  0  0
 19  5  2  0  0  0  0
 19 17  1  0  0  0  0
 20 19  1  0  0  0  0
 21 22  1  0  0  0  0
 23  1  1  1  0  0  0
 23 24  1  0  0  0  0
 23  3  1  0  0  0  0
 24 33  1  0  0  0  0
 25 27  1  0  0  0  0
 25 24  2  0  0  0  0
 26 25  1  0  0  0  0
 27 29  2  0  0  0  0
 28 27  1  0  0  0  0
 29 30  1  0  0  0  0
 29 31  1  0  0  0  0
 31 32  1  0  0  0  0
 33 31  2  0  0  0  0
 33 34  1  0  0  0  0
M  END
