1,4,6
q = -2.0, confidence = 0.754

 38 39  0  0  0  0  0  0  0  0999 V2000
   -2.3360    0.0227   -0.0534 O   0  5  0  0  0  0  0  0  0  0  0  0
    5.0664    2.1620   -0.0691 O   0  0  0  0  0  0  0  0  0  0  0  0
    1.5447    5.3977    0.0476 O   0  0  0  0  0  0  0  0  0  0  0  0
   -1.1953    2.3259   -0.0136 N   0  0  0  0  0  2  0  0  0  0  0  0
   -2.5409    2.3562   -0.0110 N   0  0  0  0  0  0  0  0  0  0  0  0
    1.3870    1.7168   -0.0328 C   0  0  0  0  0  2  0  0  0  0  0  0
    2.7459    1.3883   -0.0561 C   0  0  0  0  0  0  0  0  0  0  0  0
    3.0628    0.3408   -0.0983 H   0  0  0  0  0  0  0  0  0  0  0  0
    3.7278    2.4096   -0.0446 C   0  0  0  0  0  0  0  0  0  0  0  0
    3.3603    3.7689   -0.0068 C   0  0  0  0  0  0  0  0  0  0  0  0
    4.1601    4.5188   -0.0006 H   0  0  0  0  0  0  0  0  0  0  0  0
    1.9989    4.1131    0.0152 C   0  0  0  0  0  0  0  0  0  0  0  0
    1.0005    3.0995    0.0019 C   0  0  0  0  0  0  0  0  0  0  0  0
   -0.4158    3.3850    0.0132 C   0  0  0  0  0  0  0  0  0  0  0  0
   -0.8492    4.3978    0.0393 H   0  0  0  0  0  0  0  0  0  0  0  0
   -3.0423    1.1149   -0.0336 C   0  0  0  0  0  0  0  0  0  0  0  0
   -4.5218    0.9802   -0.0419 C   0  0  0  0  0  0  0  0  0  0  0  0
   -5.3677    2.1075    0.0539 C   0  0  0  0  0  0  0  0  0  0  0  0
   -4.9061    3.1018    0.1337 H   0  0  0  0  0  0  0  0  0  0  0  0
   -6.7560    1.9512    0.0479 C   0  0  0  0  0  0  0  0  0  0  0  0
   -7.4021    2.8406    0.1257 H   0  0  0  0  0  0  0  0  0  0  0  0
   -7.3500    0.6730   -0.0563 C   0  0  0  0  0  0  0  0  0  0  0  0
   -6.4976   -0.4448   -0.1559 C   0  0  0  0  0  0  0  0  0  0  0  0
   -6.9391   -1.4508   -0.2429 H   0  0  0  0  0  0  0  0  0  0  0  0
   -5.1048   -0.2984   -0.1488 C   0  0  0  0  0  0  0  0  0  0  0  0
   -4.4400   -1.1701   -0.2338 H   0  0  0  0  0  0  0  0  0  0  0  0
    5.4989    0.8140   -0.1366 C   0  0  0  0  0  0  0  0  0  0  0  0
    5.1330    0.3037   -1.0549 H   0  0  0  0  0  0  0  0  0  0  0  0
    5.1642    0.2253    0.7469 H   0  0  0  0  0  0  0  0  0  0  0  0
    6.6043    0.8427   -0.1526 H   0  0  0  0  0  0  0  0  0  0  0  0
    2.4908    6.4490    0.0597 C   0  0  0  0  0  0  0  0  0  0  0  0
    3.1301    6.4415   -0.8514 H   0  0  0  0  0  0  0  0  0  0  0  0
    3.1495    6.4032    0.9558 H   0  0  0  0  0  0  0  0  0  0  0  0
    1.9120    7.3909    0.0860 H   0  0  0  0  0  0  0  0  0  0  0  0
   -8.8500    0.5221   -0.0610 C   0  0  0  0  0  0  0  0  0  0  0  0
   -9.2988    0.9245    0.8715 H   0  0  0  0  0  0  0  0  0  0  0  0
   -9.1551   -0.5382   -0.1537 H   0  0  0  0  0  0  0  0  0  0  0  0
   -9.3093    1.0829   -0.9021 H   0  0  0  0  0  0  0  0  0  0  0  0
  1 16  1  0  0  0  0
  2  9  1  0  0  0  0
  3 31  1  0  0  0  0
  4  5  1  0  0  0  0
  4 14  1  0  0  0  0
  6 13  1  0  0  0  0
  7  9  2  0  0  0  0
  7  6  1  0  0  0  0
  8  7  1  0  0  0  0
  9 10  1  0  0  0  0
 10 11  1  0  0  0  0
 10 12  2  0  0  0  0
 12  3  1  0  0  0  0
 13 14  2  0  0  0  0
 13 12  1  0  0  0  0
 14 15  1  0  0  0  0
 16  5  2  0  0  0  0
 17 16  1  0  0  0  0
 17 18  1  0  0  0  0
 18 19  1  0  0  0  0
 20 18  2  0  0  0  0
 20 21  1  0  0  0  0
 22 20  1  0  0  0  0
 23 25  1  0  0  0  0
 23 22  2  0  0  0  0
 24 23  1  0  0  0  0
 25 17  2  0  0  0  0
 26 25  1  0  0  0  0
 27  2  1  0  0  0  0
 27 29  1  0  0  0  0
 28 27  1  0  0  0  0
 30 27  1  0  0  0  0
 31 34  1  0  0  0  0
 31 33  1  0  0  0  0
 32 31  1  0  0  0  0
 35 22  1  0  0  0  0
 35 36  1  0  0  0  0
 37 35  1  0  0  0  0
 38 35  1  0  0  0  0
M  CHG  1   1  -1
M  END
