1,3,4
q = -2.0, confidence = 0.558

 26 26  0  0  0  0  0  0  0  0999 V2000
    0.1317    3.0165   -0.0227 O   0  5  0  0  0  0  0  0  0  0  0  0
    3.5902    1.0874    0.1509 N   0  0  0  0  0  0  0  0  0  0  0  0
    2.5222    1.7962    0.0887 N   0  0  0  0  0  2  0  0  0  0  0  0
    1.9093   -0.7098    0.1287 C   0  0  0  0  0  2  0  0  0  0  0  0
    1.6544   -2.0827    0.1807 C   0  0  0  0  0  0  0  0  0  0  0  0
    2.7134   -3.0148    0.2723 C   0  0  0  0  0  0  0  0  0  0  0  0
    4.0410   -2.5783    0.3085 C   0  0  0  0  0  0  0  0  0  0  0  0
    4.3560   -1.2049    0.2657 C   0  0  0  0  0  0  0  0  0  0  0  0
    3.2889   -0.2740    0.1776 C   0  0  0  0  0  0  0  0  0  0  0  0
    5.7915   -0.7301    0.2712 C   0  0  0  0  0  0  0  0  0  0  0  0
    6.2932   -0.3270   -1.1237 C   0  0  0  0  0  0  0  0  0  0  0  0
    2.4910    3.1554    0.0634 C   0  0  0  0  0  0  0  0  0  0  0  0
    1.2016    3.7335    0.0111 C   0  0  0  0  0  0  0  0  0  0  0  0
    1.0294    5.2307   -0.0044 C   0  0  0  0  0  0  0  0  0  0  0  0
    0.6247   -2.4646    0.1436 H   0  0  0  0  0  0  0  0  0  0  0  0
    2.4839   -4.0910    0.3130 H   0  0  0  0  0  0  0  0  0  0  0  0
    4.8619   -3.3096    0.3784 H   0  0  0  0  0  0  0  0  0  0  0  0
    5.8842    0.1414    0.9509 H   0  0  0  0  0  0  0  0  0  0  0  0
    6.4336   -1.5377    0.6818 H   0  0  0  0  0  0  0  0  0  0  0  0
    7.3546   -0.0061   -1.0895 H   0  0  0  0  0  0  0  0  0  0  0  0
    6.2123   -1.1706   -1.8393 H   0  0  0  0  0  0  0  0  0  0  0  0
    5.6916    0.5159   -1.5181 H   0  0  0  0  0  0  0  0  0  0  0  0
    3.4346    3.7208    0.0923 H   0  0  0  0  0  0  0  0  0  0  0  0
    0.4542    5.5262   -0.9058 H   0  0  0  0  0  0  0  0  0  0  0  0
    0.4273    5.5418    0.8741 H   0  0  0  0  0  0  0  0  0  0  0  0
    1.9933    5.7724    0.0070 H   0  0  0  0  0  0  0  0  0  0  0  0
  1 13  1  0  0  0  0
  2  9  2  0  0  0  0
  3  2  1  0  0  0  0
  4  9  1  0  0  0  0
  4  5  1  0  0  0  0
  5  6  2  0  0  0  0
  6  7  1  0  0  0  0
  6 16  1  0  0  0  0
  7 17  1  0  0  0  0
  8 10  1  0  0  0  0
  8  7  2  0  0  0  0
  9  8  1  0  0  0  0
 10 19  1  0  0  0  0
 10 18  1  0  0  0  0
 11 20  1  0  0  0  0
 11 10  1  0  0  0  0
 12  3  1  0  0  0  0
 12 23  1  0  0  0  0
 13 12  2  0  0  0  0
 14 26  1  0  0  0  0
 14 13  1  0  0  0  0
 14 25  1  0  0  0  0
 15  5  1  0  0  0  0
 21 11  1  0  0  0  0
 22 11  1  0  0  0  0
 24 14  1  0  0  0  0
M  CHG  1   1  -1
M  END
