1,3,26
q = -1.0

 32 33  0  0  1  0  0  0  0  0999 V2000
    0.3942    1.4066    0.4004 N   0  0  0  0  0  2  0  0  0  0  0  0
   -1.4020   -1.2444    2.3537 O   0  0  0  0  0  0  0  0  0  0  0  0
   -2.1341    0.5371    1.2224 O   0  0  0  0  0  1  0  0  0  0  0  0
   -0.2472    2.5970    0.5284 C   0  0  0  0  0  3  0  0  0  0  0  0
   -1.3443    2.5486    0.5369 H   0  0  0  0  0  0  0  0  0  0  0  0
    0.4184    3.8171    0.6451 C   0  0  0  0  0  0  0  0  0  0  0  0
   -0.1627    4.7446    0.7435 H   0  0  0  0  0  0  0  0  0  0  0  0
    1.8210    3.8200    0.6339 C   0  0  0  0  0  0  0  0  0  0  0  0
    2.3870    4.7588    0.7242 H   0  0  0  0  0  0  0  0  0  0  0  0
    2.4857    2.5966    0.5307 C   0  0  0  0  0  0  0  0  0  0  0  0
    3.5825    2.5489    0.5660 H   0  0  0  0  0  0  0  0  0  0  0  0
    1.7614    1.3884    0.4204 C   0  0  0  0  0  0  0  0  0  0  0  0
    2.5075    0.1083    0.3558 C   0  0  0  0  0  0  0  0  0  0  0  0
    3.6450    0.0187   -0.4794 C   0  0  0  0  0  0  0  0  0  0  0  0
    3.9163    0.8744   -1.1164 H   0  0  0  0  0  0  0  0  0  0  0  0
    4.4190   -1.1475   -0.5239 C   0  0  0  0  0  0  0  0  0  0  0  0
    5.2923   -1.2019   -1.1902 H   0  0  0  0  0  0  0  0  0  0  0  0
    4.0770   -2.2379    0.2909 C   0  0  0  0  0  0  0  0  0  0  0  0
    4.6831   -3.1557    0.2725 H   0  0  0  0  0  0  0  0  0  0  0  0
    2.9664   -2.1479    1.1416 C   0  0  0  0  0  0  0  0  0  0  0  0
    2.7134   -2.9928    1.8013 H   0  0  0  0  0  0  0  0  0  0  0  0
    2.1718   -0.9878    1.1924 C   0  0  0  0  0  0  0  0  0  0  0  0
    0.9824   -0.9254    2.1135 C   0  0  0  0  0  0  0  0  0  0  0  0
    0.8847    0.0852    2.5613 H   0  0  0  0  0  0  0  0  0  0  0  0
    1.1203   -1.6394    2.9541 H   0  0  0  0  0  0  0  0  0  0  0  0
   -0.2904   -1.2711    1.3507 C   0  0  0  0  0  3  0  0  0  0  0  0
   -0.2567   -2.3289    1.0278 H   0  0  0  0  0  0  0  0  0  0  0  0
   -2.2136   -0.2293    2.2164 C   0  0  2  0  0  3  0  0  0  0  0  0
   -3.2188   -0.0287    3.3026 C   0  0  0  0  0  0  0  0  0  0  0  0
   -4.0432    0.6139    2.9490 H   0  0  0  0  0  0  0  0  0  0  0  0
   -2.7238    0.4657    4.1643 H   0  0  0  0  0  0  0  0  0  0  0  0
   -3.6008   -1.0033    3.6598 H   0  0  0  0  0  0  0  0  0  0  0  0
  1 12  1  0  0  0  0
  1  4  1  0  0  0  0
  4  5  1  0  0  0  0
  4  6  1  0  0  0  0
  6  7  1  0  0  0  0
  8  6  2  0  0  0  0
  8  9  1  0  0  0  0
 10 11  1  0  0  0  0
 10  8  1  0  0  0  0
 12 10  2  0  0  0  0
 13 12  1  0  0  0  0
 13 22  1  0  0  0  0
 14 13  2  0  0  0  0
 15 14  1  0  0  0  0
 16 14  1  0  0  0  0
 16 18  2  0  0  0  0
 17 16  1  0  0  0  0
 18 20  1  0  0  0  0
 19 18  1  0  0  0  0
 20 22  2  0  0  0  0
 20 21  1  0  0  0  0
 22 23  1  0  0  0  0
 23 24  1  0  0  0  0
 23 25  1  0  0  0  0
 26 23  1  0  0  0  0
 26  2  1  0  0  0  0
 27 26  1  0  0  0  0
 28  3  1  1  0  0  0
 28  2  1  0  0  0  0
 28 29  1  0  0  0  0
 29 32  1  0  0  0  0
 29 31  1  0  0  0  0
 30 29  1  0  0  0  0
M  END
