1,3,4
q = -2.0, confidence = 0.56

 35 38  0  0  0  0  0  0  0  0999 V2000
   -1.0295   -0.3514    0.0022 N   0  0  0  0  0  2  0  0  0  0  0  0
   -1.6208    0.7927    0.0462 N   0  0  0  0  0  0  0  0  0  0  0  0
    0.6826    1.5556   -0.0870 C   0  0  0  0  0  3  0  0  0  0  0  0
    0.5651   -2.5168   -0.0577 O   0  5  0  0  0  0  0  0  0  0  0  0
   -1.2065    3.1922   -0.0108 C   0  0  0  0  0  0  0  0  0  0  0  0
   -3.0910   -1.8136    0.0408 C   0  0  0  0  0  0  0  0  0  0  0  0
   -4.0706   -0.7815    0.0701 C   0  0  0  0  0  0  0  0  0  0  0  0
   -3.7277    0.2585    0.0697 H   0  0  0  0  0  0  0  0  0  0  0  0
   -0.7201   -2.6919   -0.0263 C   0  0  0  0  0  0  0  0  0  0  0  0
   -3.5561   -3.1799    0.0403 C   0  0  0  0  0  0  0  0  0  0  0  0
   -0.7149    1.8419   -0.0085 C   0  0  0  0  0  0  0  0  0  0  0  0
   -0.2509    4.2692   -0.1260 C   0  0  0  0  0  0  0  0  0  0  0  0
   -1.6609   -1.5873    0.0092 C   0  0  0  0  0  0  0  0  0  0  0  0
    1.5806    2.6346   -0.2277 C   0  0  0  0  0  0  0  0  0  0  0  0
    2.6593    2.4424   -0.3406 H   0  0  0  0  0  0  0  0  0  0  0  0
   -2.5917    3.5097    0.0919 C   0  0  0  0  0  0  0  0  0  0  0  0
   -3.3127    2.6854    0.1792 H   0  0  0  0  0  0  0  0  0  0  0  0
    1.1314    3.9576   -0.2432 C   0  0  0  0  0  0  0  0  0  0  0  0
    1.8514    4.7846   -0.3522 H   0  0  0  0  0  0  0  0  0  0  0  0
   -2.0801    5.8931   -0.0253 C   0  0  0  0  0  0  0  0  0  0  0  0
   -2.4327    6.9356   -0.0292 H   0  0  0  0  0  0  0  0  0  0  0  0
   -4.9477   -3.4509    0.0704 C   0  0  0  0  0  0  0  0  0  0  0  0
   -5.2753   -4.5027    0.0695 H   0  0  0  0  0  0  0  0  0  0  0  0
   -0.7265    5.6149   -0.1297 C   0  0  0  0  0  3  0  0  0  0  0  0
    0.0075    6.4314   -0.2185 H   0  0  0  0  0  0  0  0  0  0  0  0
   -1.2506   -4.0306   -0.0228 C   0  0  0  0  0  0  0  0  0  0  0  0
   -0.5223   -4.8540   -0.0465 H   0  0  0  0  0  0  0  0  0  0  0  0
   -5.4323   -1.0831    0.0981 C   0  0  0  0  0  0  0  0  0  0  0  0
   -6.1630   -0.2597    0.1194 H   0  0  0  0  0  0  0  0  0  0  0  0
   -3.0179    4.8300    0.0863 C   0  0  0  0  0  0  0  0  0  0  0  0
   -4.0916    5.0583    0.1691 H   0  0  0  0  0  0  0  0  0  0  0  0
   -5.8834   -2.4206    0.0995 C   0  0  0  0  0  0  0  0  0  0  0  0
   -6.9601   -2.6459    0.1226 H   0  0  0  0  0  0  0  0  0  0  0  0
   -2.6057   -4.2552    0.0084 C   0  0  0  0  0  0  0  0  0  0  0  0
   -2.9927   -5.2870    0.0101 H   0  0  0  0  0  0  0  0  0  0  0  0
  1 13  1  0  0  0  0
  1  2  1  0  0  0  0
  3 11  1  0  0  0  0
  4  9  1  0  0  0  0
  5 11  1  0  0  0  0
  5 16  2  0  0  0  0
  6  7  2  0  0  0  0
  7 28  1  0  0  0  0
  8  7  1  0  0  0  0
  9 26  1  0  0  0  0
  9 13  2  0  0  0  0
 10  6  1  0  0  0  0
 10 22  2  0  0  0  0
 11  2  2  0  0  0  0
 12  5  1  0  0  0  0
 13  6  1  0  0  0  0
 14  3  2  0  0  0  0
 15 14  1  0  0  0  0
 16 17  1  0  0  0  0
 18 14  1  0  0  0  0
 18 12  2  0  0  0  0
 19 18  1  0  0  0  0
 20 30  2  0  0  0  0
 21 20  1  0  0  0  0
 22 32  1  0  0  0  0
 23 22  1  0  0  0  0
 24 12  1  0  0  0  0
 24 20  1  0  0  0  0
 25 24  1  0  0  0  0
 26 34  2  0  0  0  0
 27 26  1  0  0  0  0
 28 32  2  0  0  0  0
 28 29  1  0  0  0  0
 30 16  1  0  0  0  0
 30 31  1  0  0  0  0
 32 33  1  0  0  0  0
 34 35  1  0  0  0  0
 34 10  1  0  0  0  0
M  CHG  1   4  -1
M  END
