1,2,34
q = -2.0, confidence = 0.526

 35 38  0  0  1  0  0  0  0  0999 V2000
    0.3254   -1.8146   -0.0378 O   0  5  0  0  0  0  0  0  0  0  0  0
    0.8055    1.0463    0.0151 N   0  0  0  0  0  2  0  0  0  0  0  0
    2.0273    0.6672    0.0403 N   0  0  0  0  0  0  0  0  0  0  0  0
    1.6126   -1.8097   -0.0266 C   0  0  0  0  0  0  0  0  0  0  0  0
    2.2729   -3.0954   -0.0518 C   0  0  0  0  0  0  0  0  0  0  0  0
    1.6113   -3.9735   -0.0833 H   0  0  0  0  0  0  0  0  0  0  0  0
    3.6388   -3.2227   -0.0336 C   0  0  0  0  0  0  0  0  0  0  0  0
    4.0989   -4.2239   -0.0527 H   0  0  0  0  0  0  0  0  0  0  0  0
    4.5019   -2.0767    0.0119 C   0  0  0  0  0  0  0  0  0  0  0  0
    5.9148   -2.2163    0.0316 C   0  0  0  0  0  3  0  0  0  0  0  0
    6.3428   -3.2311    0.0121 H   0  0  0  0  0  0  0  0  0  0  0  0
    6.7436   -1.1001    0.0744 C   0  0  0  0  0  0  0  0  0  0  0  0
    7.8374   -1.2186    0.0896 H   0  0  0  0  0  0  0  0  0  0  0  0
    6.1657    0.1901    0.0976 C   0  0  0  0  0  0  0  0  0  0  0  0
    6.8141    1.0792    0.1306 H   0  0  0  0  0  0  0  0  0  0  0  0
    4.7819    0.3509    0.0783 C   0  0  0  0  0  0  0  0  0  0  0  0
    4.3345    1.3532    0.0943 H   0  0  0  0  0  0  0  0  0  0  0  0
    3.9131   -0.7701    0.0364 C   0  0  0  0  0  0  0  0  0  0  0  0
    2.4547   -0.6178    0.0157 C   0  0  0  0  0  0  0  0  0  0  0  0
    0.5469    2.4436    0.0469 C   0  0  0  0  0  0  0  0  0  0  0  0
    1.5126    3.4454    0.1329 C   0  0  0  0  0  0  0  0  0  0  0  0
    2.5751    3.1767    0.1933 H   0  0  0  0  0  0  0  0  0  0  0  0
    1.0922    4.7980    0.1367 C   0  0  0  0  0  0  0  0  0  0  0  0
    1.8515    5.5918    0.2076 H   0  0  0  0  0  0  0  0  0  0  0  0
   -0.2553    5.1391    0.0448 C   0  0  0  0  0  0  0  0  0  0  0  0
   -0.5611    6.1971    0.0396 H   0  0  0  0  0  0  0  0  0  0  0  0
   -1.2577    4.1289   -0.0506 C   0  0  0  0  0  0  0  0  0  0  0  0
   -2.6531    4.3987   -0.1761 C   0  0  0  0  0  0  0  0  0  0  0  0
   -3.0000    5.4435   -0.1912 H   0  0  0  0  0  0  0  0  0  0  0  0
   -3.5540    3.3496   -0.2929 C   0  0  0  0  0  0  0  0  0  0  0  0
   -4.6283    3.5648   -0.4092 H   0  0  0  0  0  0  0  0  0  0  0  0
   -3.1207    1.9909   -0.2693 C   0  0  0  0  0  0  0  0  0  0  0  0
   -3.8809    1.2021   -0.3829 H   0  0  0  0  0  0  0  0  0  0  0  0
   -1.7726    1.6698   -0.1182 C   0  0  0  0  0  2  0  0  0  0  0  0
   -0.8411    2.7568   -0.0330 C   0  0  1  0  0  3  0  0  0  0  0  0
  1  4  1  0  0  0  0
  2  3  1  0  0  0  0
  2 20  1  0  0  0  0
  4 19  1  0  0  0  0
  5  7  1  0  0  0  0
  5  4  2  0  0  0  0
  6  5  1  0  0  0  0
  7  9  2  0  0  0  0
  8  7  1  0  0  0  0
  9 10  1  0  0  0  0
  9 18  1  0  0  0  0
 10 12  1  0  0  0  0
 11 10  1  0  0  0  0
 12 13  1  0  0  0  0
 12 14  2  0  0  0  0
 14 15  1  0  0  0  0
 16 17  1  0  0  0  0
 16 14  1  0  0  0  0
 18 16  2  0  0  0  0
 19 18  1  0  0  0  0
 19  3  2  0  0  0  0
 20 21  2  0  0  0  0
 21 23  1  0  0  0  0
 21 22  1  0  0  0  0
 23 24  1  0  0  0  0
 25 23  2  0  0  0  0
 26 25  1  0  0  0  0
 27 35  1  0  0  0  0
 27 25  1  0  0  0  0
 28 27  2  0  0  0  0
 29 28  1  0  0  0  0
 30 32  2  0  0  0  0
 30 28  1  0  0  0  0
 31 30  1  0  0  0  0
 32 34  1  0  0  0  0
 33 32  1  0  0  0  0
 35 34  1  6  0  0  0
 35 20  1  0  0  0  0
M  CHG  1   1  -1
M  END
