2,3,25
q = -2.0, confidence = 0.626

 33 34  0  0  0  0  0  0  0  0999 V2000
    4.2678    1.8378    0.0011 O   0  5  0  0  0  0  0  0  0  0  0  0
    2.0666    1.5889    0.0001 O   0  0  0  0  0  0  0  0  0  0  0  0
    1.1829   -1.2913    0.0002 N   0  0  0  0  0  2  0  0  0  0  0  0
    0.4004   -2.3196    0.0004 N   0  0  0  0  0  0  0  0  0  0  0  0
   -4.9936   -0.9516   -0.0001 N   0  0  0  0  0  0  0  0  0  0  0  0
    3.2810    1.0996    0.0006 C   0  0  0  0  0  0  0  0  0  0  0  0
    3.5195   -0.4242    0.0002 C   0  0  0  0  0  0  0  0  0  0  0  0
    4.8909   -0.7644    0.0000 C   0  0  0  0  0  0  0  0  0  0  0  0
    5.5878    0.0860    0.0003 H   0  0  0  0  0  0  0  0  0  0  0  0
    5.3468   -2.0841   -0.0004 C   0  0  0  0  0  0  0  0  0  0  0  0
    6.4267   -2.2952   -0.0006 H   0  0  0  0  0  0  0  0  0  0  0  0
    4.4118   -3.1341   -0.0007 C   0  0  0  0  0  0  0  0  0  0  0  0
    4.7455   -4.1831   -0.0011 H   0  0  0  0  0  0  0  0  0  0  0  0
    3.0501   -2.8447   -0.0005 C   0  0  0  0  0  0  0  0  0  0  0  0
    2.2973   -3.6428   -0.0007 H   0  0  0  0  0  0  0  0  0  0  0  0
    2.5817   -1.5041   -0.0001 C   0  0  0  0  0  0  0  0  0  0  0  0
   -0.9222   -1.9999    0.0004 C   0  0  0  0  0  0  0  0  0  0  0  0
   -1.9162   -3.0121    0.0006 C   0  0  0  0  0  3  0  0  0  0  0  0
   -1.6003   -4.0656    0.0010 H   0  0  0  0  0  0  0  0  0  0  0  0
   -3.2625   -2.6748    0.0005 C   0  0  0  0  0  0  0  0  0  0  0  0
   -4.0123   -3.4752    0.0008 H   0  0  0  0  0  0  0  0  0  0  0  0
   -3.6668   -1.2989    0.0001 C   0  0  0  0  0  0  0  0  0  0  0  0
   -2.6563   -0.2804   -0.0001 C   0  0  0  0  0  0  0  0  0  0  0  0
   -2.9322    0.7852   -0.0005 H   0  0  0  0  0  0  0  0  0  0  0  0
   -1.3117   -0.6103    0.0000 C   0  0  0  0  0  3  0  0  0  0  0  0
   -5.3789    0.4524    0.0004 C   0  0  0  0  0  0  0  0  0  0  0  0
   -4.9921    0.9863   -0.8939 H   0  0  0  0  0  0  0  0  0  0  0  0
   -4.9903    0.9861    0.8939 H   0  0  0  0  0  0  0  0  0  0  0  0
   -6.4806    0.5270    0.0015 H   0  0  0  0  0  0  0  0  0  0  0  0
   -6.0233   -1.9756   -0.0005 C   0  0  0  0  0  0  0  0  0  0  0  0
   -5.9590   -2.6278    0.8981 H   0  0  0  0  0  0  0  0  0  0  0  0
   -5.9568   -2.6289   -0.8981 H   0  0  0  0  0  0  0  0  0  0  0  0
   -7.0174   -1.4948   -0.0021 H   0  0  0  0  0  0  0  0  0  0  0  0
  2  6  2  0  0  0  0
  3  4  1  0  0  0  0
  5 22  1  0  0  0  0
  5 26  1  0  0  0  0
  6  1  1  0  0  0  0
  7  6  1  0  0  0  0
  8  7  1  0  0  0  0
  8  9  1  0  0  0  0
 10  8  2  0  0  0  0
 11 10  1  0  0  0  0
 12 14  2  0  0  0  0
 12 10  1  0  0  0  0
 13 12  1  0  0  0  0
 14 16  1  0  0  0  0
 15 14  1  0  0  0  0
 16  3  1  0  0  0  0
 16  7  2  0  0  0  0
 17  4  2  0  0  0  0
 17 18  1  0  0  0  0
 18 19  1  0  0  0  0
 20 18  1  0  0  0  0
 20 21  1  0  0  0  0
 22 20  2  0  0  0  0
 23 25  2  0  0  0  0
 23 22  1  0  0  0  0
 24 23  1  0  0  0  0
 25 17  1  0  0  0  0
 26 29  1  0  0  0  0
 26 28  1  0  0  0  0
 27 26  1  0  0  0  0
 30  5  1  0  0  0  0
 30 31  1  0  0  0  0
 32 30  1  0  0  0  0
 33 30  1  0  0  0  0
M  CHG  1   1  -1
M  END
