2,6,7
q = -1.0, confidence = 0.088

 67 73  0  0  0  0  0  0  0  0999 V2000
   -1.1089   -1.7147    2.1261 S   0  0  0  0  0  0  0  0  0  0  0  0
   -0.1839   -2.8618    1.7131 O   0  0  0  0  0  1  0  0  0  0  0  0
   -1.5284   -1.6016    3.5390 O   0  0  0  0  0  1  0  0  0  0  0  0
    3.4258    0.4640    0.2846 N   0  0  0  0  0  0  0  0  0  0  0  0
    1.6357    0.8978   -0.9145 N   0  0  0  0  0  0  0  0  0  0  0  0
   -0.2549   -0.4646    1.5193 N   0  0  0  0  0  2  0  0  0  0  0  0
    2.2015   -0.0261   -0.0738 C   0  0  0  0  0  2  0  0  0  0  0  0
    2.4945    1.9847   -1.0962 C   0  0  0  0  0  0  0  0  0  0  0  0
    2.3742    3.1663   -1.8364 C   0  0  0  0  0  0  0  0  0  0  0  0
    1.4725    3.3778   -2.4266 H   0  0  0  0  0  0  0  0  0  0  0  0
    3.4532    4.0614   -1.7777 C   0  0  0  0  0  0  0  0  0  0  0  0
    3.3992    5.0040   -2.3417 H   0  0  0  0  0  0  0  0  0  0  0  0
    4.6045    3.7820   -1.0081 C   0  0  0  0  0  0  0  0  0  0  0  0
    5.4279    4.5108   -0.9882 H   0  0  0  0  0  0  0  0  0  0  0  0
    4.7223    2.5968   -0.2651 C   0  0  0  0  0  0  0  0  0  0  0  0
    5.6171    2.3819    0.3352 H   0  0  0  0  0  0  0  0  0  0  0  0
    3.6454    1.7020   -0.3233 C   0  0  0  0  0  0  0  0  0  0  0  0
    4.3595   -0.1753    1.1952 C   0  0  0  0  0  0  0  0  0  0  0  0
    3.9364   -1.1498    1.4978 H   0  0  0  0  0  0  0  0  0  0  0  0
    4.5167    0.4639    2.0872 H   0  0  0  0  0  0  0  0  0  0  0  0
    5.3277   -0.3487    0.6860 H   0  0  0  0  0  0  0  0  0  0  0  0
    0.3383    0.7453   -1.5068 C   0  0  0  0  0  0  0  0  0  0  0  0
    0.2591    0.1857   -2.8095 C   0  0  0  0  0  0  0  0  0  0  0  0
    1.1865   -0.1341   -3.3051 H   0  0  0  0  0  0  0  0  0  0  0  0
   -0.9741    0.0431   -3.4187 C   0  0  0  0  0  0  0  0  0  0  0  0
   -1.0477   -0.3847   -4.4300 H   0  0  0  0  0  0  0  0  0  0  0  0
   -2.1664    0.4393   -2.7458 C   0  0  0  0  0  0  0  0  0  0  0  0
   -3.4477    0.3140   -3.3588 C   0  0  0  0  0  0  0  0  0  0  0  0
   -3.5042   -0.0898   -4.3818 H   0  0  0  0  0  0  0  0  0  0  0  0
   -4.5984    0.6928   -2.6854 C   0  0  0  0  0  0  0  0  0  0  0  0
   -5.5805    0.5964   -3.1724 H   0  0  0  0  0  0  0  0  0  0  0  0
   -4.5149    1.1963   -1.3601 C   0  0  0  0  0  0  0  0  0  0  0  0
   -5.4338    1.4745   -0.8229 H   0  0  0  0  0  0  0  0  0  0  0  0
   -3.2848    1.3356   -0.7364 C   0  0  0  0  0  0  0  0  0  0  0  0
   -3.2225    1.7215    0.2905 H   0  0  0  0  0  0  0  0  0  0  0  0
   -2.0793    0.9771   -1.4090 C   0  0  0  0  0  0  0  0  0  0  0  0
   -0.7906    1.1416   -0.7909 C   0  0  0  0  0  0  0  0  0  0  0  0
   -0.6936    1.7300    0.5783 C   0  0  0  0  0  0  0  0  0  0  0  0
   -0.8419    3.1465    0.7555 C   0  0  0  0  0  0  0  0  0  0  0  0
   -0.9716    4.0432   -0.3483 C   0  0  0  0  0  0  0  0  0  0  0  0
   -0.9605    3.6335   -1.3689 H   0  0  0  0  0  0  0  0  0  0  0  0
   -1.1156    5.4086   -0.1483 C   0  0  0  0  0  0  0  0  0  0  0  0
   -1.2122    6.0807   -1.0146 H   0  0  0  0  0  0  0  0  0  0  0  0
   -1.1410    5.9458    1.1657 C   0  0  0  0  0  0  0  0  0  0  0  0
   -1.2541    7.0304    1.3128 H   0  0  0  0  0  0  0  0  0  0  0  0
   -1.0281    5.1006    2.2602 C   0  0  0  0  0  0  0  0  0  0  0  0
   -1.0521    5.5058    3.2840 H   0  0  0  0  0  0  0  0  0  0  0  0
   -0.8817    3.6939    2.0906 C   0  0  0  0  0  0  0  0  0  0  0  0
   -0.7828    2.8056    3.2024 C   0  0  0  0  0  0  0  0  0  0  0  0
   -0.8306    3.2235    4.2203 H   0  0  0  0  0  0  0  0  0  0  0  0
   -0.6064    1.4485    3.0178 C   0  0  0  0  0  0  0  0  0  0  0  0
   -0.5115    0.7588    3.8679 H   0  0  0  0  0  0  0  0  0  0  0  0
   -0.5372    0.8941    1.6999 C   0  0  0  0  0  0  0  0  0  0  0  0
   -2.5926   -1.8809    1.1364 C   0  0  0  0  0  0  0  0  0  0  0  0
   -2.4818   -2.2558   -0.2133 C   0  0  0  0  0  0  0  0  0  0  0  0
   -1.4946   -2.4678   -0.6513 H   0  0  0  0  0  0  0  0  0  0  0  0
   -3.6444   -2.3515   -0.9829 C   0  0  0  0  0  0  0  0  0  0  0  0
   -3.5659   -2.6405   -2.0420 H   0  0  0  0  0  0  0  0  0  0  0  0
   -4.9147   -2.0725   -0.4326 C   0  0  0  0  0  0  0  0  0  0  0  0
   -4.9892   -1.6898    0.9221 C   0  0  0  0  0  0  0  0  0  0  0  0
   -5.9709   -1.4643    1.3678 H   0  0  0  0  0  0  0  0  0  0  0  0
   -3.8373   -1.5949    1.7143 C   0  0  0  0  0  0  0  0  0  0  0  0
   -3.8865   -1.3121    2.7753 H   0  0  0  0  0  0  0  0  0  0  0  0
   -6.1602   -2.2072   -1.2685 C   0  0  0  0  0  0  0  0  0  0  0  0
   -5.9500   -2.0252   -2.3403 H   0  0  0  0  0  0  0  0  0  0  0  0
   -6.9497   -1.5015   -0.9426 H   0  0  0  0  0  0  0  0  0  0  0  0
   -6.5827   -3.2318   -1.1849 H   0  0  0  0  0  0  0  0  0  0  0  0
  1  3  1  0  0  0  0
  2  1  1  0  0  0  0
  4 18  1  0  0  0  0
  5  7  1  0  0  0  0
  6 53  1  0  0  0  0
  6  1  1  0  0  0  0
  7  4  1  0  0  0  0
  8  5  1  0  0  0  0
  8 17  1  0  0  0  0
  9 11  1  0  0  0  0
  9  8  2  0  0  0  0
 10  9  1  0  0  0  0
 11 13  2  0  0  0  0
 12 11  1  0  0  0  0
 13 14  1  0  0  0  0
 13 15  1  0  0  0  0
 15 16  1  0  0  0  0
 17 15  2  0  0  0  0
 17  4  1  0  0  0  0
 18 19  1  0  0  0  0
 18 20  1  0  0  0  0
 21 18  1  0  0  0  0
 22  5  1  0  0  0  0
 22 37  1  0  0  0  0
 23 22  2  0  0  0  0
 24 23  1  0  0  0  0
 25 23  1  0  0  0  0
 25 27  2  0  0  0  0
 26 25  1  0  0  0  0
 27 36  1  0  0  0  0
 28 27  1  0  0  0  0
 28 30  2  0  0  0  0
 29 28  1  0  0  0  0
 30 32  1  0  0  0  0
 31 30  1  0  0  0  0
 32 33  1  0  0  0  0
 32 34  2  0  0  0  0
 34 35  1  0  0  0  0
 36 37  2  0  0  0  0
 36 34  1  0  0  0  0
 37 38  1  0  0  0  0
 38 39  2  0  0  0  0
 38 53  1  0  0  0  0
 39 48  1  0  0  0  0
 40 42  2  0  0  0  0
 40 39  1  0  0  0  0
 41 40  1  0  0  0  0
 42 44  1  0  0  0  0
 43 42  1  0  0  0  0
 44 45  1  0  0  0  0
 44 46  2  0  0  0  0
 46 47  1  0  0  0  0
 48 46  1  0  0  0  0
 48 49  2  0  0  0  0
 49 50  1  0  0  0  0
 51 49  1  0  0  0  0
 51 52  1  0  0  0  0
 53 51  2  0  0  0  0
 54 62  1  0  0  0  0
 54  1  1  0  0  0  0
 55 54  2  0  0  0  0
 56 55  1  0  0  0  0
 57 59  2  0  0  0  0
 57 55  1  0  0  0  0
 58 57  1  0  0  0  0
 59 60  1  0  0  0  0
 60 61  1  0  0  0  0
 60 62  2  0  0  0  0
 62 63  1  0  0  0  0
 64 67  1  0  0  0  0
 64 66  1  0  0  0  0
 64 59  1  0  0  0  0
 65 64  1  0  0  0  0
M  END
