2,6,7
q = -1.0, confidence = 0.082

 57 62  0  0  0  0  0  0  0  0999 V2000
   -0.6061   -2.6010    1.9116 S   0  0  0  0  0  0  0  0  0  0  0  0
   -2.0791   -2.4885    1.5166 O   0  0  0  0  0  1  0  0  0  0  0  0
   -0.2658   -2.9498    3.3060 O   0  0  0  0  0  1  0  0  0  0  0  0
   -1.4413    2.4781    0.4399 N   0  0  0  0  0  0  0  0  0  0  0  0
   -0.0919    1.3518   -0.8795 N   0  0  0  0  0  0  0  0  0  0  0  0
   -0.0601   -1.1765    1.3436 N   0  0  0  0  0  2  0  0  0  0  0  0
   -1.1534    1.2236   -0.0192 C   0  0  0  0  0  2  0  0  0  0  0  0
    0.3052    2.6876   -0.9724 C   0  0  0  0  0  0  0  0  0  0  0  0
    1.3253    3.3195   -1.6926 C   0  0  0  0  0  0  0  0  0  0  0  0
    1.9994    2.7477   -2.3441 H   0  0  0  0  0  0  0  0  0  0  0  0
    1.4441    4.7086   -1.5339 C   0  0  0  0  0  0  0  0  0  0  0  0
    2.2345    5.2449   -2.0791 H   0  0  0  0  0  0  0  0  0  0  0  0
    0.5750    5.4330   -0.6878 C   0  0  0  0  0  0  0  0  0  0  0  0
    0.7023    6.5211   -0.5909 H   0  0  0  0  0  0  0  0  0  0  0  0
   -0.4470    4.7971    0.0342 C   0  0  0  0  0  0  0  0  0  0  0  0
   -1.1215    5.3614    0.6928 H   0  0  0  0  0  0  0  0  0  0  0  0
   -0.5664    3.4097   -0.1233 C   0  0  0  0  0  0  0  0  0  0  0  0
   -2.4772    2.8112    1.4021 C   0  0  0  0  0  0  0  0  0  0  0  0
   -3.2126    3.5029    0.9463 H   0  0  0  0  0  0  0  0  0  0  0  0
   -2.0228    3.2847    2.2954 H   0  0  0  0  0  0  0  0  0  0  0  0
   -2.9961    1.8798    1.6902 H   0  0  0  0  0  0  0  0  0  0  0  0
    0.5184    0.2377   -1.5458 C   0  0  0  0  0  0  0  0  0  0  0  0
    0.0529   -0.1115   -2.8407 C   0  0  0  0  0  0  0  0  0  0  0  0
   -0.7499    0.4868   -3.2940 H   0  0  0  0  0  0  0  0  0  0  0  0
    0.5893   -1.2105   -3.4864 C   0  0  0  0  0  0  0  0  0  0  0  0
    0.2274   -1.4992   -4.4847 H   0  0  0  0  0  0  0  0  0  0  0  0
    1.6008   -1.9977   -2.8623 C   0  0  0  0  0  0  0  0  0  0  0  0
    2.1512   -3.1502   -3.4970 C   0  0  0  0  0  0  0  0  0  0  0  0
    1.7853   -3.4243   -4.4986 H   0  0  0  0  0  0  0  0  0  0  0  0
    3.1219   -3.9148   -2.8683 C   0  0  0  0  0  0  0  0  0  0  0  0
    3.5351   -4.8028   -3.3698 H   0  0  0  0  0  0  0  0  0  0  0  0
    3.5865   -3.5542   -1.5750 C   0  0  0  0  0  0  0  0  0  0  0  0
    4.3593   -4.1643   -1.0834 H   0  0  0  0  0  0  0  0  0  0  0  0
    3.0746   -2.4381   -0.9298 C   0  0  0  0  0  0  0  0  0  0  0  0
    3.4361   -2.1562    0.0696 H   0  0  0  0  0  0  0  0  0  0  0  0
    2.0717   -1.6320   -1.5473 C   0  0  0  0  0  0  0  0  0  0  0  0
    1.5104   -0.4859   -0.8854 C   0  0  0  0  0  0  0  0  0  0  0  0
    1.9496   -0.1394    0.4989 C   0  0  0  0  0  0  0  0  0  0  0  0
    3.1721    0.5745    0.7201 C   0  0  0  0  0  0  0  0  0  0  0  0
    3.9704    1.0705   -0.3547 C   0  0  0  0  0  0  0  0  0  0  0  0
    3.6361    0.8950   -1.3879 H   0  0  0  0  0  0  0  0  0  0  0  0
    5.1516    1.7560   -0.1099 C   0  0  0  0  0  0  0  0  0  0  0  0
    5.7513    2.1309   -0.9532 H   0  0  0  0  0  0  0  0  0  0  0  0
    5.5939    1.9765    1.2213 C   0  0  0  0  0  0  0  0  0  0  0  0
    6.5309    2.5239    1.4039 H   0  0  0  0  0  0  0  0  0  0  0  0
    4.8474    1.4958    2.2876 C   0  0  0  0  0  0  0  0  0  0  0  0
    5.1861    1.6550    3.3234 H   0  0  0  0  0  0  0  0  0  0  0  0
    3.6325    0.7840    2.0723 C   0  0  0  0  0  0  0  0  0  0  0  0
    2.8608    0.2598    3.1518 C   0  0  0  0  0  0  0  0  0  0  0  0
    3.2229    0.4076    4.1814 H   0  0  0  0  0  0  0  0  0  0  0  0
    1.6702   -0.4039    2.9257 C   0  0  0  0  0  0  0  0  0  0  0  0
    1.0649   -0.7989    3.7533 H   0  0  0  0  0  0  0  0  0  0  0  0
    1.1889   -0.5960    1.5919 C   0  0  0  0  0  0  0  0  0  0  0  0
    0.0939   -3.8900    0.8618 C   0  0  0  0  0  0  0  0  0  0  0  0
    1.1885   -3.8999    1.0191 H   0  0  0  0  0  0  0  0  0  0  0  0
   -0.1520   -3.6563   -0.1890 H   0  0  0  0  0  0  0  0  0  0  0  0
   -0.3557   -4.8487    1.1811 H   0  0  0  0  0  0  0  0  0  0  0  0
  1  3  1  0  0  0  0
  2  1  1  0  0  0  0
  4 18  1  0  0  0  0
  5  7  1  0  0  0  0
  6 53  1  0  0  0  0
  6  1  1  0  0  0  0
  7  4  1  0  0  0  0
  8  5  1  0  0  0  0
  8 17  1  0  0  0  0
  9 11  1  0  0  0  0
  9  8  2  0  0  0  0
 10  9  1  0  0  0  0
 11 13  2  0  0  0  0
 12 11  1  0  0  0  0
 13 14  1  0  0  0  0
 13 15  1  0  0  0  0
 15 16  1  0  0  0  0
 17 15  2  0  0  0  0
 17  4  1  0  0  0  0
 18 21  1  0  0  0  0
 18 20  1  0  0  0  0
 19 18  1  0  0  0  0
 22 37  1  0  0  0  0
 22  5  1  0  0  0  0
 23 22  2  0  0  0  0
 24 23  1  0  0  0  0
 25 27  2  0  0  0  0
 25 23  1  0  0  0  0
 26 25  1  0  0  0  0
 27 36  1  0  0  0  0
 28 30  2  0  0  0  0
 28 27  1  0  0  0  0
 29 28  1  0  0  0  0
 30 32  1  0  0  0  0
 31 30  1  0  0  0  0
 32 33  1  0  0  0  0
 32 34  2  0  0  0  0
 34 35  1  0  0  0  0
 36 34  1  0  0  0  0
 36 37  2  0  0  0  0
 37 38  1  0  0  0  0
 38 39  2  0  0  0  0
 38 53  1  0  0  0  0
 39 48  1  0  0  0  0
 40 42  2  0  0  0  0
 40 39  1  0  0  0  0
 41 40  1  0  0  0  0
 42 44  1  0  0  0  0
 43 42  1  0  0  0  0
 44 45  1  0  0  0  0
 44 46  2  0  0  0  0
 46 47  1  0  0  0  0
 48 46  1  0  0  0  0
 48 49  2  0  0  0  0
 49 50  1  0  0  0  0
 51 49  1  0  0  0  0
 51 52  1  0  0  0  0
 53 51  2  0  0  0  0
 54 55  1  0  0  0  0
 54 57  1  0  0  0  0
 54  1  1  0  0  0  0
 56 54  1  0  0  0  0
M  END
