1,2,5
q = -1.0

 40 43  0  0  1  0  0  0  0  0999 V2000
   -2.7298   -0.8915    0.1713 O   0  0  0  0  0  1  0  0  0  0  0  0
   -0.4563    0.4919   -0.0769 N   0  0  0  0  0  2  0  0  0  0  0  0
   -1.6886    1.0976   -0.1624 N   0  0  0  0  0  0  0  0  0  0  0  0
   -1.7258    2.0969   -0.3857 H   0  0  0  0  0  0  0  0  0  0  0  0
    1.3951   -1.6811   -0.1142 C   0  0  0  0  0  2  0  0  0  0  0  0
    1.8953   -2.9737   -0.3213 C   0  0  0  0  0  3  0  0  0  0  0  0
    1.1845   -3.8110   -0.3230 H   0  0  0  0  0  0  0  0  0  0  0  0
    3.2774   -3.2469   -0.4873 C   0  0  0  0  0  0  0  0  0  0  0  0
    3.6051   -4.2867   -0.6400 H   0  0  0  0  0  0  0  0  0  0  0  0
    4.1914   -2.2179   -0.4353 C   0  0  0  0  0  0  0  0  0  0  0  0
    5.2720   -2.4001   -0.5375 H   0  0  0  0  0  0  0  0  0  0  0  0
    5.3796    2.5116    0.0168 C   0  0  0  0  0  3  0  0  0  0  0  0
    6.4304    2.1954   -0.0718 H   0  0  0  0  0  0  0  0  0  0  0  0
    5.0534    3.8419    0.1895 C   0  0  0  0  0  0  0  0  0  0  0  0
    5.8382    4.6110    0.2399 H   0  0  0  0  0  0  0  0  0  0  0  0
    3.6850    4.2090    0.3150 C   0  0  0  0  0  0  0  0  0  0  0  0
    3.4167    5.2643    0.4745 H   0  0  0  0  0  0  0  0  0  0  0  0
    2.6817    3.2548    0.2520 C   0  0  0  0  0  0  0  0  0  0  0  0
    1.6478    3.5999    0.3863 H   0  0  0  0  0  0  0  0  0  0  0  0
    1.9592    0.8294   -0.0241 C   0  0  0  0  0  0  0  0  0  0  0  0
    4.7008    0.1516   -0.2150 C   0  0  0  0  0  0  0  0  0  0  0  0
    5.7633   -0.1210   -0.3198 H   0  0  0  0  0  0  0  0  0  0  0  0
    4.3641    1.5047   -0.0458 C   0  0  0  0  0  0  0  0  0  0  0  0
    2.9680    1.8659    0.0581 C   0  0  0  0  0  0  0  0  0  0  0  0
    2.3186   -0.5675   -0.1151 C   0  0  0  0  0  0  0  0  0  0  0  0
    3.7423   -0.8744   -0.2505 C   0  0  0  0  0  0  0  0  0  0  0  0
    0.5993    1.2738   -0.0625 C   0  0  0  0  0  0  0  0  0  0  0  0
    0.4055    2.3585   -0.1069 H   0  0  0  0  0  0  0  0  0  0  0  0
   -2.8210    0.3421   -0.0055 C   0  0  1  0  0  3  0  0  0  0  0  0
   -4.1300    1.0397   -0.0772 C   0  0  0  0  0  0  0  0  0  0  0  0
   -4.2772    2.4337    0.0950 C   0  0  0  0  0  0  0  0  0  0  0  0
   -3.4094    3.0700    0.3309 H   0  0  0  0  0  0  0  0  0  0  0  0
   -5.5453    3.0232    0.0152 C   0  0  0  0  0  0  0  0  0  0  0  0
   -5.6533    4.1086    0.1584 H   0  0  0  0  0  0  0  0  0  0  0  0
   -6.6761    2.2276   -0.2319 C   0  0  0  0  0  0  0  0  0  0  0  0
   -7.6714    2.6929   -0.2939 H   0  0  0  0  0  0  0  0  0  0  0  0
   -6.5371    0.8384   -0.3889 C   0  0  0  0  0  0  0  0  0  0  0  0
   -7.4230    0.2131   -0.5748 H   0  0  0  0  0  0  0  0  0  0  0  0
   -5.2727    0.2442   -0.3075 C   0  0  0  0  0  0  0  0  0  0  0  0
   -5.1385   -0.8413   -0.4199 H   0  0  0  0  0  0  0  0  0  0  0  0
  2 27  1  0  0  0  0
  3  2  1  0  0  0  0
  3 29  1  0  0  0  0
  4  3  1  0  0  0  0
  6  5  1  0  0  0  0
  7  6  1  0  0  0  0
  8 10  2  0  0  0  0
  8  6  1  0  0  0  0
  9  8  1  0  0  0  0
 10 26  1  0  0  0  0
 11 10  1  0  0  0  0
 12 14  1  0  0  0  0
 13 12  1  0  0  0  0
 14 15  1  0  0  0  0
 14 16  2  0  0  0  0
 16 17  1  0  0  0  0
 18 16  1  0  0  0  0
 18 19  1  0  0  0  0
 20 24  1  0  0  0  0
 21 23  2  0  0  0  0
 22 21  1  0  0  0  0
 23 12  1  0  0  0  0
 23 24  1  0  0  0  0
 24 18  2  0  0  0  0
 25  5  1  0  0  0  0
 25 20  1  0  0  0  0
 26 21  1  0  0  0  0
 26 25  2  0  0  0  0
 27 20  2  0  0  0  0
 28 27  1  0  0  0  0
 29  1  1  6  0  0  0
 30 29  1  0  0  0  0
 30 31  1  0  0  0  0
 31 32  1  0  0  0  0
 33 31  2  0  0  0  0
 33 34  1  0  0  0  0
 35 33  1  0  0  0  0
 36 35  1  0  0  0  0
 37 39  1  0  0  0  0
 37 35  2  0  0  0  0
 38 37  1  0  0  0  0
 39 30  2  0  0  0  0
 40 39  1  0  0  0  0
M  END
