1,2,4
q = -2.0, confidence = 0.64

 39 42  0  0  1  0  0  0  0  0999 V2000
    1.4209    1.9102   -0.2930 O   0  5  0  0  0  0  0  0  0  0  0  0
   -1.1822    1.9496   -0.3664 N   0  0  0  0  0  2  0  0  0  0  0  0
   -0.5506    3.1518   -0.3595 N   0  0  0  0  0  0  0  0  0  0  0  0
   -1.5227   -0.8675   -0.8713 C   0  0  0  0  0  2  0  0  0  0  0  0
   -1.2644   -2.0586   -1.5555 C   0  0  0  0  0  3  0  0  0  0  0  0
   -0.2302   -2.3298   -1.8091 H   0  0  0  0  0  0  0  0  0  0  0  0
   -2.2807   -2.9857   -1.9103 C   0  0  0  0  0  0  0  0  0  0  0  0
   -2.0082   -3.9120   -2.4387 H   0  0  0  0  0  0  0  0  0  0  0  0
   -3.5828   -2.7415   -1.5312 C   0  0  0  0  0  0  0  0  0  0  0  0
   -4.3840   -3.4694   -1.7308 H   0  0  0  0  0  0  0  0  0  0  0  0
   -7.0480    0.1368    0.4317 C   0  0  0  0  0  0  0  0  0  0  0  0
   -7.7605   -0.6859    0.2639 H   0  0  0  0  0  0  0  0  0  0  0  0
   -7.4624    1.3261    0.9961 C   0  0  0  0  0  0  0  0  0  0  0  0
   -8.5133    1.4713    1.2879 H   0  0  0  0  0  0  0  0  0  0  0  0
   -6.5136    2.3665    1.2078 C   0  0  0  0  0  0  0  0  0  0  0  0
   -6.8345    3.3096    1.6756 H   0  0  0  0  0  0  0  0  0  0  0  0
   -5.1876    2.2047    0.8427 C   0  0  0  0  0  0  0  0  0  0  0  0
   -4.4904    3.0264    1.0518 H   0  0  0  0  0  0  0  0  0  0  0  0
   -3.3350    0.7796   -0.1400 C   0  0  0  0  0  0  0  0  0  0  0  0
   -5.2654   -1.2696   -0.5374 C   0  0  0  0  0  0  0  0  0  0  0  0
   -6.0149   -2.0504   -0.7445 H   0  0  0  0  0  0  0  0  0  0  0  0
   -5.6814   -0.0650    0.0522 C   0  0  0  0  0  0  0  0  0  0  0  0
   -4.7105    0.9924    0.2473 C   0  0  1  0  0  3  0  0  0  0  0  0
   -2.8984   -0.5130   -0.6066 C   0  0  0  0  0  0  0  0  0  0  0  0
   -3.9234   -1.5136   -0.8813 C   0  0  0  0  0  0  0  0  0  0  0  0
   -2.4738    1.9337   -0.1263 C   0  0  0  0  0  0  0  0  0  0  0  0
   -2.9063    2.9278    0.0648 H   0  0  0  0  0  0  0  0  0  0  0  0
    0.7776    3.0375   -0.3270 C   0  0  0  0  0  0  0  0  0  0  0  0
    1.5709    4.2954   -0.3106 C   0  0  0  0  0  0  0  0  0  0  0  0
    0.9423    5.5599   -0.2905 C   0  0  0  0  0  0  0  0  0  0  0  0
   -0.1559    5.5978   -0.2873 H   0  0  0  0  0  0  0  0  0  0  0  0
    1.7127    6.7287   -0.2728 C   0  0  0  0  0  0  0  0  0  0  0  0
    1.2156    7.7108   -0.2560 H   0  0  0  0  0  0  0  0  0  0  0  0
    3.1165    6.6518   -0.2755 C   0  0  0  0  0  0  0  0  0  0  0  0
    3.7196    7.5728   -0.2613 H   0  0  0  0  0  0  0  0  0  0  0  0
    3.7471    5.3969   -0.2978 C   0  0  0  0  0  0  0  0  0  0  0  0
    4.8461    5.3327   -0.3039 H   0  0  0  0  0  0  0  0  0  0  0  0
    2.9802    4.2244   -0.3159 C   0  0  0  0  0  0  0  0  0  0  0  0
    3.4539    3.2325   -0.3405 H   0  0  0  0  0  0  0  0  0  0  0  0
  2  3  1  0  0  0  0
  2 26  1  0  0  0  0
  3 28  2  0  0  0  0
  4 24  1  0  0  0  0
  5  4  1  0  0  0  0
  6  5  1  0  0  0  0
  7  5  1  0  0  0  0
  7  9  2  0  0  0  0
  8  7  1  0  0  0  0
  9 25  1  0  0  0  0
 10  9  1  0  0  0  0
 11 13  2  0  0  0  0
 12 11  1  0  0  0  0
 13 15  1  0  0  0  0
 13 14  1  0  0  0  0
 15 16  1  0  0  0  0
 17 18  1  0  0  0  0
 17 15  2  0  0  0  0
 19 26  2  0  0  0  0
 20 22  2  0  0  0  0
 21 20  1  0  0  0  0
 22 23  1  0  0  0  0
 22 11  1  0  0  0  0
 23 19  1  1  0  0  0
 23 17  1  0  0  0  0
 24 19  1  0  0  0  0
 25 24  2  0  0  0  0
 25 20  1  0  0  0  0
 26 27  1  0  0  0  0
 28 29  1  0  0  0  0
 28  1  1  0  0  0  0
 29 30  1  0  0  0  0
 30 31  1  0  0  0  0
 30 32  2  0  0  0  0
 32 33  1  0  0  0  0
 34 32  1  0  0  0  0
 34 35  1  0  0  0  0
 36 34  2  0  0  0  0
 37 36  1  0  0  0  0
 38 29  2  0  0  0  0
 38 36  1  0  0  0  0
 39 38  1  0  0  0  0
M  CHG  1   1  -1
M  END
