1,2,4
q = -1.0

 52 52  0  0  1  0  0  0  0  0999 V2000
    2.1328    0.2666    0.8322 O   0  0  0  0  0  1  0  0  0  0  0  0
   -0.8049   -0.3294    0.7408 N   0  0  0  0  0  2  0  0  0  0  0  0
   -1.1307   -0.4552   -1.6885 C   0  0  0  0  0  0  0  0  0  0  0  0
    0.4102   -0.3500   -1.7463 C   0  0  1  0  0  3  0  0  0  0  0  0
    1.0495   -1.6494   -1.3529 C   0  0  0  0  0  0  0  0  0  0  0  0
    2.3523   -1.9342   -1.0668 C   0  0  0  0  0  0  0  0  0  0  0  0
    3.3981   -0.8660   -0.8830 C   0  0  0  0  0  0  0  0  0  0  0  0
    0.8800    0.1187   -3.1252 C   0  0  0  0  0  0  0  0  0  0  0  0
    2.7959   -3.3627   -0.8696 C   0  0  0  0  0  0  0  0  0  0  0  0
   -1.6462   -0.9149   -0.2951 C   0  0  2  0  0  0  0  0  0  0  0  0
   -3.1394   -0.6386   -0.1466 C   0  0  0  0  0  0  0  0  0  0  0  0
   -4.0765   -1.4579   -0.8069 C   0  0  0  0  0  0  0  0  0  0  0  0
   -5.4500   -1.1847   -0.7313 C   0  0  0  0  0  0  0  0  0  0  0  0
   -5.9109   -0.0899    0.0186 C   0  0  0  0  0  0  0  0  0  0  0  0
   -4.9872    0.7237    0.6928 C   0  0  0  0  0  0  0  0  0  0  0  0
   -3.6130    0.4506    0.6086 C   0  0  0  0  0  0  0  0  0  0  0  0
   -0.9208   -0.9253    2.0747 C   0  0  0  0  0  0  0  0  0  0  0  0
   -0.4322    0.0608    3.1409 C   0  0  0  0  0  0  0  0  0  0  0  0
   -0.1625   -2.2597    2.1617 C   0  0  0  0  0  0  0  0  0  0  0  0
    3.4253   -0.2204    0.5495 C   0  0  0  0  0  0  0  0  0  0  0  0
    3.7939   -1.2323    1.6443 C   0  0  0  0  0  0  0  0  0  0  0  0
    4.4300    0.9427    0.5499 C   0  0  0  0  0  0  0  0  0  0  0  0
   -1.5889    0.5252   -1.9332 H   0  0  0  0  0  0  0  0  0  0  0  0
   -1.5136   -1.1606   -2.4652 H   0  0  0  0  0  0  0  0  0  0  0  0
    0.3678   -2.5249   -1.3447 H   0  0  0  0  0  0  0  0  0  0  0  0
    4.4102   -1.2691   -1.0981 H   0  0  0  0  0  0  0  0  0  0  0  0
    3.2284   -0.0239   -1.5850 H   0  0  0  0  0  0  0  0  0  0  0  0
    0.6737   -0.6605   -3.8955 H   0  0  0  0  0  0  0  0  0  0  0  0
    1.9702    0.3162   -3.1575 H   0  0  0  0  0  0  0  0  0  0  0  0
    0.3647    1.0429   -3.4535 H   0  0  0  0  0  0  0  0  0  0  0  0
    3.5221   -3.6640   -1.6573 H   0  0  0  0  0  0  0  0  0  0  0  0
    3.3172   -3.5138    0.0993 H   0  0  0  0  0  0  0  0  0  0  0  0
    1.9417   -4.0669   -0.9137 H   0  0  0  0  0  0  0  0  0  0  0  0
   -1.5238   -2.0249   -0.2505 H   0  0  0  0  0  0  0  0  0  0  0  0
   -3.7214   -2.3249   -1.3878 H   0  0  0  0  0  0  0  0  0  0  0  0
   -6.1674   -1.8346   -1.2558 H   0  0  0  0  0  0  0  0  0  0  0  0
   -6.9889    0.1226    0.0833 H   0  0  0  0  0  0  0  0  0  0  0  0
   -5.3395    1.5770    1.2930 H   0  0  0  0  0  0  0  0  0  0  0  0
   -2.8808    1.0753    1.1419 H   0  0  0  0  0  0  0  0  0  0  0  0
   -2.0020   -1.1283    2.2678 H   0  0  0  0  0  0  0  0  0  0  0  0
   -0.5263   -0.3755    4.1553 H   0  0  0  0  0  0  0  0  0  0  0  0
    0.6369    0.3109    2.9768 H   0  0  0  0  0  0  0  0  0  0  0  0
   -1.0215    0.9995    3.1123 H   0  0  0  0  0  0  0  0  0  0  0  0
   -0.3020   -2.7321    3.1553 H   0  0  0  0  0  0  0  0  0  0  0  0
    0.9185   -2.0863    1.9934 H   0  0  0  0  0  0  0  0  0  0  0  0
   -0.5140   -2.9778    1.3943 H   0  0  0  0  0  0  0  0  0  0  0  0
    3.0412   -2.0409    1.6976 H   0  0  0  0  0  0  0  0  0  0  0  0
    3.8186   -0.7248    2.6291 H   0  0  0  0  0  0  0  0  0  0  0  0
    4.7891   -1.6831    1.4570 H   0  0  0  0  0  0  0  0  0  0  0  0
    4.1804    1.6773   -0.2407 H   0  0  0  0  0  0  0  0  0  0  0  0
    5.4592    0.5745    0.3661 H   0  0  0  0  0  0  0  0  0  0  0  0
    4.4144    1.4610    1.5293 H   0  0  0  0  0  0  0  0  0  0  0  0
  2 17  1  0  0  0  0
  3 10  1  0  0  0  0
  4  3  1  0  0  0  0
  4  5  1  6  0  0  0
  5 25  1  0  0  0  0
  5  6  2  0  0  0  0
  6  7  1  0  0  0  0
  6  9  1  0  0  0  0
  7 20  1  0  0  0  0
  8  4  1  0  0  0  0
  9 32  1  0  0  0  0
 10 34  1  1  0  0  0
 10 11  1  0  0  0  0
 10  2  1  0  0  0  0
 11 16  1  0  0  0  0
 12 13  1  0  0  0  0
 12 11  2  0  0  0  0
 13 14  2  0  0  0  0
 14 37  1  0  0  0  0
 14 15  1  0  0  0  0
 15 38  1  0  0  0  0
 16 15  2  0  0  0  0
 16 39  1  0  0  0  0
 17 19  1  0  0  0  0
 17 40  1  0  0  0  0
 17 18  1  0  0  0  0
 18 41  1  0  0  0  0
 19 44  1  0  0  0  0
 20 22  1  0  0  0  0
 20  1  1  0  0  0  0
 20 21  1  0  0  0  0
 21 47  1  0  0  0  0
 21 48  1  0  0  0  0
 22 52  1  0  0  0  0
 23  3  1  0  0  0  0
 24  3  1  0  0  0  0
 26  7  1  0  0  0  0
 27  7  1  0  0  0  0
 28  8  1  0  0  0  0
 29  8  1  0  0  0  0
 30  8  1  0  0  0  0
 31  9  1  0  0  0  0
 33  9  1  0  0  0  0
 35 12  1  0  0  0  0
 36 13  1  0  0  0  0
 42 18  1  0  0  0  0
 43 18  1  0  0  0  0
 45 19  1  0  0  0  0
 46 19  1  0  0  0  0
 49 21  1  0  0  0  0
 50 22  1  0  0  0  0
 51 22  1  0  0  0  0
M  END
