1,2,8
q = -1.0, confidence = 0.0

 26 26  0  0  1  0  0  0  0  0999 V2000
    0.9636    2.7683   -0.1367 O   0  0  0  0  0  1  0  0  0  0  0  0
    2.8675    0.9375   -0.2238 N   0  0  0  0  0  2  0  0  0  0  0  0
    3.2060    2.2531   -0.2487 N   0  0  0  0  0  0  0  0  0  0  0  0
    4.1910    2.5308   -0.2989 H   0  0  0  0  0  0  0  0  0  0  0  0
    2.4780    4.4707   -0.2602 N   0  0  0  0  0  0  0  0  0  0  0  0
    3.4313    4.8151   -0.3608 H   0  0  0  0  0  0  0  0  0  0  0  0
    1.7127    5.1448   -0.2499 H   0  0  0  0  0  0  0  0  0  0  0  0
    1.5888   -1.3738   -0.0940 C   0  0  0  0  0  2  0  0  0  0  0  0
    0.9314   -2.6056   -0.0111 C   0  0  0  0  0  0  0  0  0  0  0  0
   -0.1643   -2.6575    0.0467 H   0  0  0  0  0  0  0  0  0  0  0  0
    1.6573   -3.8157   -0.0132 C   0  0  0  0  0  0  0  0  0  0  0  0
    1.1108   -4.7688    0.0535 H   0  0  0  0  0  0  0  0  0  0  0  0
    3.0547   -3.8113   -0.1021 C   0  0  0  0  0  0  0  0  0  0  0  0
    3.6166   -4.7563   -0.1055 H   0  0  0  0  0  0  0  0  0  0  0  0
    3.7357   -2.5895   -0.1900 C   0  0  0  0  0  0  0  0  0  0  0  0
    4.8339   -2.5867   -0.2620 H   0  0  0  0  0  0  0  0  0  0  0  0
    3.0275   -1.3697   -0.1850 C   0  0  0  0  0  0  0  0  0  0  0  0
    3.7070   -0.0699   -0.2636 C   0  0  0  0  0  0  0  0  0  0  0  0
    2.1485    3.1587   -0.2143 C   0  0  2  0  0  3  0  0  0  0  0  0
    5.1985    0.1080   -0.3052 C   0  0  0  0  0  0  0  0  0  0  0  0
    5.4529    1.0133   -0.8995 H   0  0  0  0  0  0  0  0  0  0  0  0
    5.6443   -0.7360   -0.8668 H   0  0  0  0  0  0  0  0  0  0  0  0
    5.8195    0.1936    1.1021 C   0  0  0  0  0  0  0  0  0  0  0  0
    6.9174    0.3201    1.0363 H   0  0  0  0  0  0  0  0  0  0  0  0
    5.4080    1.0458    1.6795 H   0  0  0  0  0  0  0  0  0  0  0  0
    5.6128   -0.7282    1.6798 H   0  0  0  0  0  0  0  0  0  0  0  0
  3  2  1  0  0  0  0
  3 19  1  0  0  0  0
  4  3  1  0  0  0  0
  5  7  1  0  0  0  0
  5 19  1  0  0  0  0
  6  5  1  0  0  0  0
  8  9  1  0  0  0  0
  9 10  1  0  0  0  0
 11  9  2  0  0  0  0
 11 12  1  0  0  0  0
 13 11  1  0  0  0  0
 14 13  1  0  0  0  0
 15 17  1  0  0  0  0
 15 13  2  0  0  0  0
 16 15  1  0  0  0  0
 17  8  1  0  0  0  0
 18  2  1  0  0  0  0
 18 17  2  0  0  0  0
 19  1  1  1  0  0  0
 20 18  1  0  0  0  0
 20 23  1  0  0  0  0
 21 20  1  0  0  0  0
 22 20  1  0  0  0  0
 23 25  1  0  0  0  0
 23 26  1  0  0  0  0
 24 23  1  0  0  0  0
M  END
