1,2,12
q = -2.0, confidence = 0.696

 36 37  0  0  0  0  0  0  0  0999 V2000
    2.3535    0.0541   -0.0426 O   0  5  0  0  0  0  0  0  0  0  0  0
    1.0736    2.2963   -0.4231 N   0  0  0  0  0  2  0  0  0  0  0  0
    2.4296    2.3598   -0.4160 N   0  0  0  0  0  0  0  0  0  0  0  0
   -1.0298    3.5664   -0.3429 C   0  0  0  0  0  0  0  0  0  0  0  0
   -1.9301    2.4600   -0.4881 C   0  0  0  0  0  0  0  0  0  0  0  0
   -3.2897    2.6503   -0.1627 C   0  0  0  0  0  0  0  0  0  0  0  0
   -3.9723    1.7901   -0.2594 H   0  0  0  0  0  0  0  0  0  0  0  0
   -3.8053    3.8923    0.2376 C   0  0  0  0  0  0  0  0  0  0  0  0
   -2.9173    4.9861    0.2944 C   0  0  0  0  0  0  0  0  0  0  0  0
   -3.3024    5.9768    0.5860 H   0  0  0  0  0  0  0  0  0  0  0  0
   -1.5513    4.8527    0.0135 C   0  0  0  0  0  0  0  0  0  0  0  0
   -1.5134    1.1418   -1.0331 C   0  0  0  0  0  3  0  0  0  0  0  0
   -1.1828    1.2426   -2.0955 H   0  0  0  0  0  0  0  0  0  0  0  0
   -2.3614    0.4308   -1.0175 H   0  0  0  0  0  0  0  0  0  0  0  0
   -5.2616    4.0663    0.5837 C   0  0  0  0  0  0  0  0  0  0  0  0
   -5.3886    4.3804    1.6415 H   0  0  0  0  0  0  0  0  0  0  0  0
   -5.8320    3.1287    0.4379 H   0  0  0  0  0  0  0  0  0  0  0  0
   -5.7339    4.8543   -0.0396 H   0  0  0  0  0  0  0  0  0  0  0  0
   -0.6563    6.0629    0.1388 C   0  0  0  0  0  0  0  0  0  0  0  0
   -0.1000    6.2703   -0.7990 H   0  0  0  0  0  0  0  0  0  0  0  0
    0.1024    5.9373    0.9395 H   0  0  0  0  0  0  0  0  0  0  0  0
   -1.2501    6.9646    0.3811 H   0  0  0  0  0  0  0  0  0  0  0  0
    0.4078    3.4296   -0.4647 C   0  0  0  0  0  3  0  0  0  0  0  0
    1.0385    4.3341   -0.4867 H   0  0  0  0  0  0  0  0  0  0  0  0
    2.9923    1.1702   -0.1706 C   0  0  0  0  0  0  0  0  0  0  0  0
    4.4755    1.1438   -0.0319 C   0  0  0  0  0  0  0  0  0  0  0  0
    5.1284   -0.0915    0.1642 C   0  0  0  0  0  0  0  0  0  0  0  0
    4.5172   -1.0049    0.1991 H   0  0  0  0  0  0  0  0  0  0  0  0
    6.5218   -0.1406    0.3018 C   0  0  0  0  0  0  0  0  0  0  0  0
    7.0242   -1.1085    0.4530 H   0  0  0  0  0  0  0  0  0  0  0  0
    7.2784    1.0417    0.2433 C   0  0  0  0  0  0  0  0  0  0  0  0
    8.3734    1.0024    0.3513 H   0  0  0  0  0  0  0  0  0  0  0  0
    6.6336    2.2749    0.0446 C   0  0  0  0  0  0  0  0  0  0  0  0
    7.2240    3.2030   -0.0025 H   0  0  0  0  0  0  0  0  0  0  0  0
    5.2411    2.3285   -0.0926 C   0  0  0  0  0  0  0  0  0  0  0  0
    4.7158    3.2811   -0.2478 H   0  0  0  0  0  0  0  0  0  0  0  0
  2  3  1  0  0  0  0
  3 25  2  0  0  0  0
  4 11  1  0  0  0  0
  5  4  2  0  0  0  0
  5  6  1  0  0  0  0
  6  8  2  0  0  0  0
  7  6  1  0  0  0  0
  8  9  1  0  0  0  0
  8 15  1  0  0  0  0
  9 10  1  0  0  0  0
 11 19  1  0  0  0  0
 11  9  2  0  0  0  0
 12 14  1  0  0  0  0
 12  5  1  0  0  0  0
 13 12  1  0  0  0  0
 15 16  1  0  0  0  0
 17 15  1  0  0  0  0
 18 15  1  0  0  0  0
 19 22  1  0  0  0  0
 19 21  1  0  0  0  0
 20 19  1  0  0  0  0
 23  2  1  0  0  0  0
 23  4  1  0  0  0  0
 24 23  1  0  0  0  0
 25  1  1  0  0  0  0
 25 26  1  0  0  0  0
 26 27  1  0  0  0  0
 27 28  1  0  0  0  0
 27 29  2  0  0  0  0
 29 30  1  0  0  0  0
 31 29  1  0  0  0  0
 31 32  1  0  0  0  0
 33 31  2  0  0  0  0
 34 33  1  0  0  0  0
 35 26  2  0  0  0  0
 35 33  1  0  0  0  0
 36 35  1  0  0  0  0
M  CHG  1   1  -1
M  END
