1,3,14
q = -1.0

 41 42  0  0  1  0  0  0  0  0999 V2000
    1.4253    1.2934   -0.2210 O   0  0  0  0  0  1  0  0  0  0  0  0
    7.2175   -1.4108   -0.1808 O   0  0  0  0  0  0  0  0  0  0  0  0
   -0.4980   -0.4999    0.2992 N   0  0  0  0  0  2  0  0  0  0  0  0
    0.8332   -0.8237    0.3715 N   0  0  0  0  0  0  0  0  0  0  0  0
    1.0945   -1.7804    0.6294 H   0  0  0  0  0  0  0  0  0  0  0  0
   -2.8009   -1.3046    0.2901 C   0  0  0  0  0  0  0  0  0  0  0  0
   -3.4150   -0.0087    0.2352 C   0  0  0  0  0  0  0  0  0  0  0  0
   -4.7730    0.0660   -0.1389 C   0  0  0  0  0  0  0  0  0  0  0  0
   -5.2355    1.0633   -0.2059 H   0  0  0  0  0  0  0  0  0  0  0  0
   -5.5546   -1.0727   -0.3832 C   0  0  0  0  0  0  0  0  0  0  0  0
   -4.9481   -2.3395   -0.2370 C   0  0  0  0  0  0  0  0  0  0  0  0
   -5.5509   -3.2469   -0.4044 H   0  0  0  0  0  0  0  0  0  0  0  0
   -3.5955   -2.4809    0.0886 C   0  0  0  0  0  0  0  0  0  0  0  0
   -2.7364    1.2449    0.6579 C   0  0  0  0  0  3  0  0  0  0  0  0
   -2.5779    1.2482    1.7628 H   0  0  0  0  0  0  0  0  0  0  0  0
   -3.3144    2.1458    0.3825 H   0  0  0  0  0  0  0  0  0  0  0  0
   -7.0013   -0.9609   -0.7860 C   0  0  0  0  0  0  0  0  0  0  0  0
   -7.3623    0.0839   -0.7321 H   0  0  0  0  0  0  0  0  0  0  0  0
   -7.6508   -1.5861   -0.1388 H   0  0  0  0  0  0  0  0  0  0  0  0
   -7.1518   -1.3172   -1.8274 H   0  0  0  0  0  0  0  0  0  0  0  0
   -3.0009   -3.8670    0.1770 C   0  0  0  0  0  0  0  0  0  0  0  0
   -3.7860   -4.6365    0.0522 H   0  0  0  0  0  0  0  0  0  0  0  0
   -2.5102   -4.0528    1.1557 H   0  0  0  0  0  0  0  0  0  0  0  0
   -2.2383   -4.0458   -0.6106 H   0  0  0  0  0  0  0  0  0  0  0  0
   -1.3749   -1.4689    0.4493 C   0  0  0  0  0  3  0  0  0  0  0  0
   -0.9788   -2.4881    0.6128 H   0  0  0  0  0  0  0  0  0  0  0  0
    1.7738    0.1205    0.0189 C   0  0  2  0  0  3  0  0  0  0  0  0
    3.1872   -0.3162   -0.0317 C   0  0  0  0  0  0  0  0  0  0  0  0
    4.1765    0.6883   -0.0369 C   0  0  0  0  0  0  0  0  0  0  0  0
    3.8495    1.7377   -0.0022 H   0  0  0  0  0  0  0  0  0  0  0  0
    5.5357    0.3668   -0.0830 C   0  0  0  0  0  0  0  0  0  0  0  0
    6.2791    1.1745   -0.0791 H   0  0  0  0  0  0  0  0  0  0  0  0
    5.9335   -0.9884   -0.1340 C   0  0  0  0  0  0  0  0  0  0  0  0
    4.9482   -2.0041   -0.1461 C   0  0  0  0  0  0  0  0  0  0  0  0
    5.2793   -3.0503   -0.2082 H   0  0  0  0  0  0  0  0  0  0  0  0
    3.5975   -1.6697   -0.0980 C   0  0  0  0  0  0  0  0  0  0  0  0
    2.8586   -2.4851   -0.1488 H   0  0  0  0  0  0  0  0  0  0  0  0
    8.2557   -0.4425   -0.1869 C   0  0  0  0  0  0  0  0  0  0  0  0
    9.2051   -1.0065   -0.2303 H   0  0  0  0  0  0  0  0  0  0  0  0
    8.2435    0.1786    0.7356 H   0  0  0  0  0  0  0  0  0  0  0  0
    8.1886    0.2259   -1.0732 H   0  0  0  0  0  0  0  0  0  0  0  0
  2 33  1  0  0  0  0
  3  4  1  0  0  0  0
  3 25  1  0  0  0  0
  4  5  1  0  0  0  0
  6 25  1  0  0  0  0
  7  6  1  0  0  0  0
  7 14  1  0  0  0  0
  8  7  2  0  0  0  0
  9  8  1  0  0  0  0
 10 11  2  0  0  0  0
 10  8  1  0  0  0  0
 11 13  1  0  0  0  0
 12 11  1  0  0  0  0
 13 21  1  0  0  0  0
 13  6  2  0  0  0  0
 14 15  1  0  0  0  0
 16 14  1  0  0  0  0
 17 18  1  0  0  0  0
 17 10  1  0  0  0  0
 17 19  1  0  0  0  0
 20 17  1  0  0  0  0
 21 23  1  0  0  0  0
 22 21  1  0  0  0  0
 24 21  1  0  0  0  0
 25 26  1  0  0  0  0
 27  1  1  1  0  0  0
 27  4  1  0  0  0  0
 28 27  1  0  0  0  0
 29 28  1  0  0  0  0
 29 30  1  0  0  0  0
 31 32  1  0  0  0  0
 31 29  2  0  0  0  0
 33 31  1  0  0  0  0
 34 33  2  0  0  0  0
 34 36  1  0  0  0  0
 35 34  1  0  0  0  0
 36 28  2  0  0  0  0
 37 36  1  0  0  0  0
 38  2  1  0  0  0  0
 38 40  1  0  0  0  0
 39 38  1  0  0  0  0
 41 38  1  0  0  0  0
M  END
