4,5,6
q = -2.0, confidence = 0.908

 36 37  0  0  0  0  0  0  0  0999 V2000
    3.4962   -3.0406   -0.1355 O   0  0  0  0  0  0  0  0  0  0  0  0
    5.5298   -1.2627   -0.3029 O   0  0  0  0  0  0  0  0  0  0  0  0
    4.8835    1.5662   -0.2837 O   0  0  0  0  0  0  0  0  0  0  0  0
   -1.7041    2.6237    0.0283 O   0  5  0  0  0  0  0  0  0  0  0  0
    0.9725    2.6993   -0.1109 N   0  0  0  0  0  2  0  0  0  0  0  0
    1.5062    0.0897   -0.1167 C   0  0  0  0  0  2  0  0  0  0  0  0
    3.1506   -1.7235   -0.1146 C   0  0  0  0  0  0  0  0  0  0  0  0
    1.8096   -1.2733   -0.0792 C   0  0  0  0  0  0  0  0  0  0  0  0
    1.0099   -2.0209   -0.0510 H   0  0  0  0  0  0  0  0  0  0  0  0
    4.2382   -0.8102   -0.1685 C   0  0  0  0  0  0  0  0  0  0  0  0
    3.9543    0.5771   -0.1911 C   0  0  0  0  0  0  0  0  0  0  0  0
    2.5995    1.0211   -0.1677 C   0  0  0  0  0  0  0  0  0  0  0  0
    2.2548    2.4208   -0.1621 C   0  0  0  0  0  0  0  0  0  0  0  0
    3.0245    3.2110   -0.1897 H   0  0  0  0  0  0  0  0  0  0  0  0
    0.3110    3.9303   -0.0741 C   0  0  0  0  0  0  0  0  0  0  0  0
    0.9379    5.1931   -0.1050 C   0  0  0  0  0  0  0  0  0  0  0  0
    2.0351    5.2588   -0.1661 H   0  0  0  0  0  0  0  0  0  0  0  0
    0.1656    6.3573   -0.0588 C   0  0  0  0  0  0  0  0  0  0  0  0
    0.6508    7.3440   -0.0833 H   0  0  0  0  0  0  0  0  0  0  0  0
   -1.2420    6.2542    0.0186 C   0  0  0  0  0  0  0  0  0  0  0  0
   -1.8509    7.1714    0.0548 H   0  0  0  0  0  0  0  0  0  0  0  0
   -1.8780    5.0115    0.0490 C   0  0  0  0  0  0  0  0  0  0  0  0
   -2.9736    4.9296    0.1065 H   0  0  0  0  0  0  0  0  0  0  0  0
   -1.1236    3.8043    0.0026 C   0  0  0  0  0  0  0  0  0  0  0  0
    2.4609   -4.0099   -0.1626 C   0  0  0  0  0  0  0  0  0  0  0  0
    2.9617   -4.9953   -0.1933 H   0  0  0  0  0  0  0  0  0  0  0  0
    1.8145   -3.8983   -1.0597 H   0  0  0  0  0  0  0  0  0  0  0  0
    1.8175   -3.9566    0.7437 H   0  0  0  0  0  0  0  0  0  0  0  0
    6.0694   -1.9793    0.8041 C   0  0  0  0  0  0  0  0  0  0  0  0
    7.1142   -2.2312    0.5384 H   0  0  0  0  0  0  0  0  0  0  0  0
    5.5069   -2.9144    1.0022 H   0  0  0  0  0  0  0  0  0  0  0  0
    6.0725   -1.3555    1.7280 H   0  0  0  0  0  0  0  0  0  0  0  0
    6.2274    1.3839    0.1476 C   0  0  0  0  0  0  0  0  0  0  0  0
    6.6648    2.4000    0.1953 H   0  0  0  0  0  0  0  0  0  0  0  0
    6.8100    0.7566   -0.5541 H   0  0  0  0  0  0  0  0  0  0  0  0
    6.2725    0.9285    1.1611 H   0  0  0  0  0  0  0  0  0  0  0  0
  1  7  1  0  0  0  0
  2 10  1  0  0  0  0
  2 29  1  0  0  0  0
  3 11  1  0  0  0  0
  3 33  1  0  0  0  0
  5 15  1  0  0  0  0
  6  8  1  0  0  0  0
  7  8  2  0  0  0  0
  8  9  1  0  0  0  0
 10  7  1  0  0  0  0
 11 10  2  0  0  0  0
 11 12  1  0  0  0  0
 12 13  2  0  0  0  0
 12  6  1  0  0  0  0
 13  5  1  0  0  0  0
 14 13  1  0  0  0  0
 15 24  1  0  0  0  0
 16 15  2  0  0  0  0
 16 18  1  0  0  0  0
 17 16  1  0  0  0  0
 18 20  2  0  0  0  0
 19 18  1  0  0  0  0
 20 22  1  0  0  0  0
 20 21  1  0  0  0  0
 22 23  1  0  0  0  0
 24  4  1  0  0  0  0
 24 22  2  0  0  0  0
 25  1  1  0  0  0  0
 25 28  1  0  0  0  0
 26 25  1  0  0  0  0
 27 25  1  0  0  0  0
 29 31  1  0  0  0  0
 29 32  1  0  0  0  0
 30 29  1  0  0  0  0
 33 34  1  0  0  0  0
 33 36  1  0  0  0  0
 35 33  1  0  0  0  0
M  CHG  1   4  -1
M  END
