1,2,3,5,11
 OpenBabel05122313063D

 41 40  0  0  1  0  0  0  0  0999 V2000
   -1.1408   -2.0012    0.5859 S   0  0  0  0  0  1  0  0  0  0  0  0
    2.3333   -1.4929    0.1732 S   0  0  0  0  0  1  0  0  0  0  0  0
   -1.3251    0.8905   -0.1998 N   0  0  0  0  0  0  0  0  0  0  0  0
   -1.1648    1.1733    0.7853 H   0  0  0  0  0  0  0  0  0  0  0  0
    1.4631    1.3294   -0.8498 N   0  0  0  0  0  0  0  0  0  0  0  0
    1.8634    1.2151   -1.7901 H   0  0  0  0  0  0  0  0  0  0  0  0
   -4.7708    1.1062   -1.0665 O   0  0  0  0  0  0  0  0  0  0  0  0
   -3.7962    2.1399    0.6604 O   0  0  0  0  0  0  0  0  0  0  0  0
   -3.0555    1.9744    1.2776 H   0  0  0  0  0  0  0  0  0  0  0  0
    2.1944    1.8127    2.5507 O   0  5  0  0  0  0  0  0  0  0  0  0
    0.6297    0.6162    1.4291 O   0  0  0  0  0  0  0  0  0  0  0  0
   -2.7562   -0.9546    0.6468 C   0  0  0  0  0  0  0  0  0  0  0  0
   -2.9005   -0.4754    2.0984 C   0  0  0  0  0  0  0  0  0  0  0  0
   -3.8656    0.0481    2.2693 H   0  0  0  0  0  0  0  0  0  0  0  0
   -2.0569    0.1749    2.4183 H   0  0  0  0  0  0  0  0  0  0  0  0
   -2.8717   -1.3495    2.7777 H   0  0  0  0  0  0  0  0  0  0  0  0
   -3.9074   -1.8791    0.2487 C   0  0  0  0  0  0  0  0  0  0  0  0
   -4.8822   -1.3498    0.2911 H   0  0  0  0  0  0  0  0  0  0  0  0
   -3.9512   -2.7445    0.9386 H   0  0  0  0  0  0  0  0  0  0  0  0
   -3.7683   -2.2673   -0.7792 H   0  0  0  0  0  0  0  0  0  0  0  0
   -2.6355    0.2151   -0.3710 C   0  0  1  0  0  0  0  0  0  0  0  0
   -2.6513   -0.2088   -1.3938 H   0  0  0  0  0  0  0  0  0  0  0  0
   -3.8338    1.1772   -0.3067 C   0  0  0  0  0  0  0  0  0  0  0  0
   -0.9540    2.0128   -1.1032 C   0  0  0  0  0  0  0  0  0  0  0  0
   -1.0552    1.6416   -2.1423 H   0  0  0  0  0  0  0  0  0  0  0  0
   -1.6405    2.8789   -0.9768 H   0  0  0  0  0  0  0  0  0  0  0  0
    0.4923    2.4659   -0.8219 C   0  0  0  0  0  0  0  0  0  0  0  0
    0.5506    2.9431    0.1767 H   0  0  0  0  0  0  0  0  0  0  0  0
    0.7765    3.2429   -1.5613 H   0  0  0  0  0  0  0  0  0  0  0  0
    2.5250    1.3193    0.1866 C   0  0  1  0  0  0  0  0  0  0  0  0
    3.1544    2.2359    0.1511 H   0  0  0  0  0  0  0  0  0  0  0  0
    1.7682    1.2781    1.5422 C   0  0  0  0  0  0  0  0  0  0  0  0
    3.4278    0.0668   -0.0066 C   0  0  0  0  0  0  0  0  0  0  0  0
    4.5044    0.0132    1.0799 C   0  0  0  0  0  0  0  0  0  0  0  0
    5.2149    0.8598    0.9697 H   0  0  0  0  0  0  0  0  0  0  0  0
    5.0780   -0.9305    0.9924 H   0  0  0  0  0  0  0  0  0  0  0  0
    4.0651    0.0643    2.0935 H   0  0  0  0  0  0  0  0  0  0  0  0
    4.0634    0.0471   -1.4032 C   0  0  0  0  0  0  0  0  0  0  0  0
    4.6612    0.9678   -1.5817 H   0  0  0  0  0  0  0  0  0  0  0  0
    3.3139   -0.0624   -2.2144 H   0  0  0  0  0  0  0  0  0  0  0  0
    4.7432   -0.8225   -1.4944 H   0  0  0  0  0  0  0  0  0  0  0  0
  1 12  1  0  0  0  0
  3  4  1  0  0  0  0
  5 27  1  0  0  0  0
  5 30  1  0  0  0  0
  6  5  1  0  0  0  0
  7 23  2  0  0  0  0
  8  9  1  0  0  0  0
 11 32  2  0  0  0  0
 12 13  1  0  0  0  0
 13 14  1  0  0  0  0
 13 15  1  0  0  0  0
 13 16  1  0  0  0  0
 17 18  1  0  0  0  0
 17 12  1  0  0  0  0
 17 19  1  0  0  0  0
 20 17  1  0  0  0  0
 21 22  1  6  0  0  0
 21 23  1  0  0  0  0
 21  3  1  0  0  0  0
 21 12  1  0  0  0  0
 23  8  1  0  0  0  0
 24 26  1  0  0  0  0
 24 27  1  0  0  0  0
 24  3  1  0  0  0  0
 25 24  1  0  0  0  0
 27 28  1  0  0  0  0
 29 27  1  0  0  0  0
 30 31  1  6  0  0  0
 30 32  1  0  0  0  0
 32 10  1  0  0  0  0
 33  2  1  0  0  0  0
 33 30  1  0  0  0  0
 33 34  1  0  0  0  0
 34 37  1  0  0  0  0
 35 34  1  0  0  0  0
 36 34  1  0  0  0  0
 38 33  1  0  0  0  0
 39 38  1  0  0  0  0
 40 38  1  0  0  0  0
 41 38  1  0  0  0  0
M  CHG  1  10  -1
M  END
