1,2,3,5,6
 OpenBabel05122313063D

 40 40  0  0  0  0  0  0  0  0999 V2000
   -1.3550   -2.4840   -0.3157 S   0  0  0  0  0  1  0  0  0  0  0  0
    2.0903   -1.5078   -0.9005 S   0  0  0  0  0  0  0  0  0  0  0  0
    0.9963   -0.2076    1.7383 O   0  5  0  0  0  0  0  0  0  0  0  0
    2.9991    0.7393    2.1650 O   0  0  0  0  0  0  0  0  0  0  0  0
   -2.0177    0.4883    0.5122 N   0  0  0  0  0  0  0  0  0  0  0  0
    0.5197    1.3794   -0.7825 N   0  0  0  0  0  0  0  0  0  0  0  0
   -2.9493   -1.8445    0.3428 C   0  0  0  0  0  0  0  0  0  0  0  0
   -2.8144   -0.5672    1.1752 C   0  0  0  0  0  0  0  0  0  0  0  0
   -1.7224    1.5902    1.4509 C   0  0  0  0  0  0  0  0  0  0  0  0
   -0.9545    2.7460    0.8153 C   0  0  0  0  0  0  0  0  0  0  0  0
    0.4363    2.4272    0.2779 C   0  0  0  0  0  0  0  0  0  0  0  0
   -2.6218    0.9441   -0.7676 C   0  0  0  0  0  0  0  0  0  0  0  0
   -1.6686    0.8321   -1.9630 C   0  0  0  0  0  0  0  0  0  0  0  0
   -0.3810    1.6608   -1.9362 C   0  0  0  0  0  0  0  0  0  0  0  0
    1.9374    1.3112   -1.1987 C   0  0  0  0  0  0  0  0  0  0  0  0
    2.3547    0.0144   -1.8833 C   0  0  0  0  0  0  0  0  0  0  0  0
    2.9746   -1.1185    0.6563 C   0  0  0  0  0  0  0  0  0  0  0  0
    2.2830   -0.0941    1.6058 C   0  0  0  0  0  0  0  0  0  0  0  0
   -3.4108   -2.6175    0.9917 H   0  0  0  0  0  0  0  0  0  0  0  0
   -3.6592   -1.6879   -0.4984 H   0  0  0  0  0  0  0  0  0  0  0  0
   -3.8291   -0.1732    1.4368 H   0  0  0  0  0  0  0  0  0  0  0  0
   -2.2965   -0.8040    2.1282 H   0  0  0  0  0  0  0  0  0  0  0  0
   -1.1219    1.1619    2.2799 H   0  0  0  0  0  0  0  0  0  0  0  0
   -2.6735    1.9876    1.8858 H   0  0  0  0  0  0  0  0  0  0  0  0
   -0.8154    3.5186    1.5993 H   0  0  0  0  0  0  0  0  0  0  0  0
   -1.5719    3.2404    0.0364 H   0  0  0  0  0  0  0  0  0  0  0  0
    0.8703    3.3729   -0.1309 H   0  0  0  0  0  0  0  0  0  0  0  0
    1.0851    2.0965    1.1128 H   0  0  0  0  0  0  0  0  0  0  0  0
   -3.0150    1.9781   -0.6567 H   0  0  0  0  0  0  0  0  0  0  0  0
   -3.5043    0.3116   -0.9849 H   0  0  0  0  0  0  0  0  0  0  0  0
   -2.2284    1.1094   -2.8818 H   0  0  0  0  0  0  0  0  0  0  0  0
   -1.4022   -0.2452   -2.0631 H   0  0  0  0  0  0  0  0  0  0  0  0
    0.1752    1.4326   -2.8684 H   0  0  0  0  0  0  0  0  0  0  0  0
   -0.6000    2.7534   -1.9768 H   0  0  0  0  0  0  0  0  0  0  0  0
    2.5593    1.4562   -0.2933 H   0  0  0  0  0  0  0  0  0  0  0  0
    2.1777    2.1662   -1.8778 H   0  0  0  0  0  0  0  0  0  0  0  0
    1.7832   -0.1702   -2.8174 H   0  0  0  0  0  0  0  0  0  0  0  0
    3.4258    0.0824   -2.1648 H   0  0  0  0  0  0  0  0  0  0  0  0
    4.0101   -0.7928    0.4363 H   0  0  0  0  0  0  0  0  0  0  0  0
    3.0251   -2.0988    1.1752 H   0  0  0  0  0  0  0  0  0  0  0  0
  1  7  1  0  0  0  0
  2 17  1  0  0  0  0
  5  8  1  0  0  0  0
  5  9  1  0  0  0  0
  6 11  1  0  0  0  0
  7 19  1  0  0  0  0
  7  8  1  0  0  0  0
  8 21  1  0  0  0  0
  8 22  1  0  0  0  0
  9 24  1  0  0  0  0
  9 23  1  0  0  0  0
 10  9  1  0  0  0  0
 10 25  1  0  0  0  0
 11 10  1  0  0  0  0
 11 28  1  0  0  0  0
 12 29  1  0  0  0  0
 12  5  1  0  0  0  0
 13 14  1  0  0  0  0
 13 12  1  0  0  0  0
 14  6  1  0  0  0  0
 15  6  1  0  0  0  0
 15 35  1  0  0  0  0
 16 15  1  0  0  0  0
 16  2  1  0  0  0  0
 17 40  1  0  0  0  0
 17 18  1  0  0  0  0
 18  3  1  0  0  0  0
 18  4  2  0  0  0  0
 20  7  1  0  0  0  0
 26 10  1  0  0  0  0
 27 11  1  0  0  0  0
 30 12  1  0  0  0  0
 31 13  1  0  0  0  0
 32 13  1  0  0  0  0
 33 14  1  0  0  0  0
 34 14  1  0  0  0  0
 36 15  1  0  0  0  0
 37 16  1  0  0  0  0
 38 16  1  0  0  0  0
 39 17  1  0  0  0  0
M  CHG  1   3  -1
M  END
