1,2
q = -1.0

 14 13  0  0  1  0  0  0  0  0999 V2000
    0.0591    1.7392    0.7643 O   0  5  0  0  0  0  0  0  0  0  0  0
   -1.8142    1.2449   -1.3885 O   0  0  0  0  0  1  0  0  0  0  0  0
   -0.2215    2.9524    0.4827 C   0  0  0  0  0  0  0  0  0  0  0  0
   -1.1287    3.3772   -0.5190 C   0  0  0  0  0  0  0  0  0  0  0  0
   -1.8453    2.5217   -1.3930 C   0  0  1  0  0  3  0  0  0  0  0  0
    0.5098    4.0006    1.3007 C   0  0  0  0  0  0  0  0  0  0  0  0
    0.3452    3.7997    2.3788 H   0  0  0  0  0  0  0  0  0  0  0  0
    0.1965    5.0349    1.0665 H   0  0  0  0  0  0  0  0  0  0  0  0
    1.6020    3.9079    1.1237 H   0  0  0  0  0  0  0  0  0  0  0  0
   -2.7398    3.1400   -2.4502 C   0  0  0  0  0  0  0  0  0  0  0  0
   -2.4203    2.7832   -3.4508 H   0  0  0  0  0  0  0  0  0  0  0  0
   -2.7339    4.2455   -2.4358 H   0  0  0  0  0  0  0  0  0  0  0  0
   -3.7778    2.7763   -2.3047 H   0  0  0  0  0  0  0  0  0  0  0  0
   -1.2698    4.4593   -0.6458 H   0  0  0  0  0  0  0  0  0  0  0  0
  3  1  1  0  0  0  0
  3  6  1  0  0  0  0
  4  3  2  0  0  0  0
  5  2  1  6  0  0  0
  5  4  1  0  0  0  0
  6  7  1  0  0  0  0
  8  6  1  0  0  0  0
  9  6  1  0  0  0  0
 10 12  1  0  0  0  0
 10 13  1  0  0  0  0
 10  5  1  0  0  0  0
 11 10  1  0  0  0  0
 14  4  1  0  0  0  0
M  CHG  1   1  -1
M  END
