2,3
q = -1.0

  4  3  0  0  0  0  0  0  0  0999 V2000
   -0.0558   -0.4263    2.2288 N   0  0  0  0  0  0  0  0  0  0  0  0
   -0.8116   -0.6634    1.1863 O   0  0  0  0  0  0  0  0  0  0  0  0
    0.9397    0.3465    2.0035 O   0  0  0  0  0  0  0  0  0  0  0  0
   -0.3053   -0.9075    3.3123 O   0  0  0  0  0  0  0  0  0  0  0  0
  1  4  1  0  0  0  0
  2  1  1  0  0  0  0
  3  1  1  0  0  0  0
M  END
