2,3
q = -1.0

  8  7  0  0  0  0  0  0  0  0999 V2000
    2.0879    4.4030   -1.4524 S   0  0  0  0  0  0  0  0  0  0  0  0
   -0.7231    1.6966   -0.8635 O   0  5  0  0  0  0  0  0  0  0  0  0
    1.2881    1.8147    0.0001 O   0  5  0  0  0  0  0  0  0  0  0  0
    0.3284    2.3761   -0.6155 C   0  0  0  0  0  3  0  0  0  0  0  0
    0.4051    3.8360   -1.0115 C   0  0  0  0  0  0  0  0  0  0  0  0
    2.6781    3.8561   -0.3527 H   0  0  0  0  0  0  0  0  0  0  0  0
   -0.2439    4.0094   -1.8903 H   0  0  0  0  0  0  0  0  0  0  0  0
   -0.0046    4.4403   -0.1739 H   0  0  0  0  0  0  0  0  0  0  0  0
  1  5  1  0  0  0  0
  1  6  1  0  0  0  0
  2  4  1  0  0  0  0
  4  3  1  0  0  0  0
  5  4  1  0  0  0  0
  5  8  1  0  0  0  0
  7  5  1  0  0  0  0
M  CHG  2   2  -1   3  -1
M  END
