1,6
q = -1.0

 29 28  0  0  1  0  0  0  0  0999 V2000
   -0.3258    2.1820   -0.8469 O   0  5  0  0  0  0  0  0  0  0  0  0
    0.8635    2.3852   -0.4872 C   0  0  0  0  0  0  0  0  0  0  0  0
    1.9549    1.4788   -0.7057 C   0  0  0  0  0  0  0  0  0  0  0  0
    2.9448    1.7825   -0.3456 H   0  0  0  0  0  0  0  0  0  0  0  0
    1.8747    0.1891   -1.2462 C   0  0  2  0  0  3  0  0  0  0  0  0
    0.8930   -0.4512   -1.7424 O   0  0  0  0  0  1  0  0  0  0  0  0
    3.1565   -0.6773   -1.1733 C   0  0  0  0  0  0  0  0  0  0  0  0
    3.0677   -1.8141   -0.1014 C   0  0  0  0  0  0  0  0  0  0  0  0
    2.6809   -1.3632    1.3402 C   0  0  0  0  0  0  0  0  0  0  0  0
    1.1888    3.6869    0.3088 C   0  0  0  0  0  0  0  0  0  0  0  0
    1.6002    3.2910    1.7444 C   0  0  0  0  0  0  0  0  0  0  0  0
    1.8231    4.1971    2.3469 H   0  0  0  0  0  0  0  0  0  0  0  0
    2.4983    2.6424    1.7520 H   0  0  0  0  0  0  0  0  0  0  0  0
    0.7826    2.7343    2.2471 H   0  0  0  0  0  0  0  0  0  0  0  0
    2.3351    4.4568   -0.3782 C   0  0  0  0  0  0  0  0  0  0  0  0
    2.0696    4.7213   -1.4220 H   0  0  0  0  0  0  0  0  0  0  0  0
    3.2740    3.8705   -0.4073 H   0  0  0  0  0  0  0  0  0  0  0  0
    2.5450    5.3988    0.1707 H   0  0  0  0  0  0  0  0  0  0  0  0
   -0.0547    4.5859    0.3668 C   0  0  0  0  0  0  0  0  0  0  0  0
    0.1869    5.5368    0.8842 H   0  0  0  0  0  0  0  0  0  0  0  0
   -0.8801    4.0989    0.9220 H   0  0  0  0  0  0  0  0  0  0  0  0
   -0.4295    4.8205   -0.6485 H   0  0  0  0  0  0  0  0  0  0  0  0
    3.3710   -1.3011   -2.3651 F   0  0  0  0  0  0  0  0  0  0  0  0
    4.2804    0.0467   -0.8765 F   0  0  0  0  0  0  0  0  0  0  0  0
    4.2836   -2.4190   -0.0121 F   0  0  0  0  0  0  0  0  0  0  0  0
    2.1551   -2.7420   -0.4830 F   0  0  0  0  0  0  0  0  0  0  0  0
    2.8703   -2.3847    2.1957 F   0  0  0  0  0  0  0  0  0  0  0  0
    3.4193   -0.3202    1.7495 F   0  0  0  0  0  0  0  0  0  0  0  0
    1.3740   -1.0146    1.4029 F   0  0  0  0  0  0  0  0  0  0  0  0
  1  2  1  0  0  0  0
  2 10  1  0  0  0  0
  3  2  2  0  0  0  0
  3  4  1  0  0  0  0
  5  6  1  1  0  0  0
  5  7  1  0  0  0  0
  5  3  1  0  0  0  0
  7 24  1  0  0  0  0
  7  8  1  0  0  0  0
  8 25  1  0  0  0  0
  8  9  1  0  0  0  0
  9 29  1  0  0  0  0
  9 28  1  0  0  0  0
  9 27  1  0  0  0  0
 10 19  1  0  0  0  0
 10 11  1  0  0  0  0
 11 13  1  0  0  0  0
 11 14  1  0  0  0  0
 11 12  1  0  0  0  0
 15 18  1  0  0  0  0
 15 10  1  0  0  0  0
 16 15  1  0  0  0  0
 17 15  1  0  0  0  0
 19 20  1  0  0  0  0
 19 21  1  0  0  0  0
 22 19  1  0  0  0  0
 23  7  1  0  0  0  0
 26  8  1  0  0  0  0
M  CHG  1   1  -1
M  END
