1,16
q = -1.0

 28 29  0  0  1  0  0  0  0  0999 V2000
   -1.4849   -0.0475   -0.0665 O   0  5  0  0  0  0  0  0  0  0  0  0
   -1.2680   -1.3116   -0.0347 C   0  0  0  0  0  0  0  0  0  0  0  0
   -0.0000   -1.9403    0.0000 C   0  0  0  0  0  0  0  0  0  0  0  0
   -0.0000   -3.0347    0.0000 H   0  0  0  0  0  0  0  0  0  0  0  0
   -2.5109   -2.1517   -0.0335 C   0  0  0  0  0  0  0  0  0  0  0  0
   -3.7302   -1.5389   -0.3999 C   0  0  0  0  0  0  0  0  0  0  0  0
   -3.7122   -0.4758   -0.6801 H   0  0  0  0  0  0  0  0  0  0  0  0
   -4.9304   -2.2571   -0.4087 C   0  0  0  0  0  0  0  0  0  0  0  0
   -5.8721   -1.7732   -0.7039 H   0  0  0  0  0  0  0  0  0  0  0  0
   -4.9209   -3.6109   -0.0334 C   0  0  0  0  0  0  0  0  0  0  0  0
   -3.7266   -4.2434    0.3488 C   0  0  0  0  0  0  0  0  0  0  0  0
   -3.7348   -5.2990    0.6543 H   0  0  0  0  0  0  0  0  0  0  0  0
   -2.5326   -3.5119    0.3441 C   0  0  0  0  0  0  0  0  0  0  0  0
   -1.6094   -4.0131    0.6684 H   0  0  0  0  0  0  0  0  0  0  0  0
   -6.5461   -4.5988   -0.0340 Br  0  0  0  0  0  0  0  0  0  0  0  0
    1.4849   -0.0475    0.0666 O   0  0  0  0  0  1  0  0  0  0  0  0
    1.2680   -1.3116    0.0347 C   0  0  2  0  0  3  0  0  0  0  0  0
    2.5109   -2.1517    0.0336 C   0  0  0  0  0  0  0  0  0  0  0  0
    3.7302   -1.5389    0.4000 C   0  0  0  0  0  0  0  0  0  0  0  0
    3.7122   -0.4758    0.6801 H   0  0  0  0  0  0  0  0  0  0  0  0
    4.9304   -2.2571    0.4088 C   0  0  0  0  0  0  0  0  0  0  0  0
    5.8721   -1.7732    0.7039 H   0  0  0  0  0  0  0  0  0  0  0  0
    4.9209   -3.6109    0.0335 C   0  0  0  0  0  0  0  0  0  0  0  0
    3.7265   -4.2434   -0.3487 C   0  0  0  0  0  0  0  0  0  0  0  0
    3.7348   -5.2990   -0.6541 H   0  0  0  0  0  0  0  0  0  0  0  0
    2.5326   -3.5119   -0.3440 C   0  0  0  0  0  0  0  0  0  0  0  0
    1.6094   -4.0132   -0.6682 H   0  0  0  0  0  0  0  0  0  0  0  0
    6.5461   -4.5988    0.0341 Br  0  0  0  0  0  0  0  0  0  0  0  0
  1  2  1  0  0  0  0
  2  5  1  0  0  0  0
  2  3  2  0  0  0  0
  3  4  1  0  0  0  0
  3 17  1  0  0  0  0
  5 13  1  0  0  0  0
  6  5  2  0  0  0  0
  7  6  1  0  0  0  0
  8  6  1  0  0  0  0
  8 10  2  0  0  0  0
  9  8  1  0  0  0  0
 10 11  1  0  0  0  0
 11 12  1  0  0  0  0
 13 11  2  0  0  0  0
 13 14  1  0  0  0  0
 15 10  1  0  0  0  0
 17 16  1  6  0  0  0
 18 17  1  0  0  0  0
 18 19  1  0  0  0  0
 19 21  2  0  0  0  0
 19 20  1  0  0  0  0
 21 22  1  0  0  0  0
 23 28  1  0  0  0  0
 23 21  1  0  0  0  0
 24 26  1  0  0  0  0
 24 23  2  0  0  0  0
 25 24  1  0  0  0  0
 26 18  2  0  0  0  0
 27 26  1  0  0  0  0
M  CHG  1   1  -1
M  END
