1,4
q = -1.0

  4  3  0  0  0  0  0  0  0  0999 V2000
   -0.5213    3.6808    0.0452 O   0  5  0  0  0  0  0  0  0  0  0  0
   -0.5640    3.9466   -1.1939 C   0  0  0  0  0  3  0  0  0  0  0  0
   -0.4367    5.0136   -1.5231 H   0  0  0  0  0  0  0  0  0  0  0  0
   -0.7505    3.0569   -2.0808 O   0  5  0  0  0  0  0  0  0  0  0  0
  2  1  1  0  0  0  0
  3  2  1  0  0  0  0
  4  2  1  0  0  0  0
M  CHG  2   1  -1   4  -1
M  END
