4,5
q = -1.0

 20 20  0  0  0  0  0  0  0  0999 V2000
   -5.5354    2.7077    1.0109 O   0  0  0  0  0  0  0  0  0  0  0  0
   -5.2012    3.3835    1.6391 H   0  0  0  0  0  0  0  0  0  0  0  0
   -3.4500    1.9891    1.4348 O   0  0  0  0  0  0  0  0  0  0  0  0
   -2.1909   -0.7549    1.1896 O   0  5  0  0  0  0  0  0  0  0  0  0
   -1.6269    0.5333   -0.5632 O   0  5  0  0  0  0  0  0  0  0  0  0
   -2.0902   -2.4013   -1.2972 O   0  0  0  0  0  0  0  0  0  0  0  0
   -3.7699   -3.3032   -2.4938 O   0  0  0  0  0  0  0  0  0  0  0  0
   -3.0348   -3.9303   -2.6647 H   0  0  0  0  0  0  0  0  0  0  0  0
   -4.8468    0.7166   -0.0809 C   0  0  0  0  0  0  0  0  0  0  0  0
   -3.8675   -0.2533   -0.4225 C   0  0  0  0  0  0  0  0  0  0  0  0
   -4.2433   -1.3086   -1.2950 C   0  0  0  0  0  0  0  0  0  0  0  0
   -5.5556   -1.3800   -1.8070 C   0  0  0  0  0  0  0  0  0  0  0  0
   -5.8150   -2.2098   -2.4781 H   0  0  0  0  0  0  0  0  0  0  0  0
   -6.5090   -0.4148   -1.4685 C   0  0  0  0  0  0  0  0  0  0  0  0
   -7.5296   -0.4766   -1.8729 H   0  0  0  0  0  0  0  0  0  0  0  0
   -6.1527    0.6279   -0.6081 C   0  0  0  0  0  0  0  0  0  0  0  0
   -6.8875    1.3940   -0.3264 H   0  0  0  0  0  0  0  0  0  0  0  0
   -4.5126    1.8339    0.8498 C   0  0  0  0  0  0  0  0  0  0  0  0
   -2.4498   -0.1499    0.1095 C   0  0  0  0  0  3  0  0  0  0  0  0
   -3.2528   -2.3588   -1.6706 C   0  0  0  0  0  0  0  0  0  0  0  0
  1  2  1  0  0  0  0
  5 19  1  0  0  0  0
  7 20  1  0  0  0  0
  8  7  1  0  0  0  0
  9 18  1  0  0  0  0
 10  9  1  0  0  0  0
 10 19  1  0  0  0  0
 11 10  2  0  0  0  0
 12 14  2  0  0  0  0
 12 11  1  0  0  0  0
 13 12  1  0  0  0  0
 14 16  1  0  0  0  0
 15 14  1  0  0  0  0
 16 17  1  0  0  0  0
 16  9  2  0  0  0  0
 18  1  1  0  0  0  0
 18  3  2  0  0  0  0
 19  4  1  0  0  0  0
 20  6  2  0  0  0  0
 20 11  1  0  0  0  0
M  CHG  2   4  -1   5  -1
M  END
