8,10
q = -1.0, confidence = 0.014

 14 14  0  0  1  0  0  0  0  0999 V2000
   -4.3073    1.7954    0.0463 O   0  0  0  0  0  0  0  0  0  0  0  0
   -4.1696    0.4616    2.0427 C   0  0  0  0  0  0  0  0  0  0  0  0
   -4.3465    1.3536    2.6781 H   0  0  0  0  0  0  0  0  0  0  0  0
   -3.4644   -0.2209    2.5506 H   0  0  0  0  0  0  0  0  0  0  0  0
   -5.1433   -0.0580    1.9185 H   0  0  0  0  0  0  0  0  0  0  0  0
   -3.5966    0.8504    0.7295 C   0  0  1  0  0  3  0  0  0  0  0  0
   -2.4362    0.3256    0.1755 C   0  0  0  0  0  0  0  0  0  0  0  0
   -1.7043   -0.6014    0.7885 O   0  5  0  0  0  0  0  0  0  0  0  0
   -1.9835    0.7899   -1.1224 C   0  0  0  0  0  0  0  0  0  0  0  0
   -0.8996    0.2932   -1.6002 O   0  5  0  0  0  0  0  0  0  0  0  0
   -2.7863    1.7685   -1.7878 C   0  0  0  0  0  0  0  0  0  0  0  0
   -3.9164    2.2287   -1.1623 C   0  0  0  0  0  0  0  0  0  0  0  0
   -2.4975    2.1448   -2.7784 H   0  0  0  0  0  0  0  0  0  0  0  0
   -4.6041    2.9820   -1.5703 H   0  0  0  0  0  0  0  0  0  0  0  0
  1  6  1  0  0  0  0
  2  4  1  0  0  0  0
  2  3  1  0  0  0  0
  5  2  1  0  0  0  0
  6  2  1  6  0  0  0
  7  6  1  0  0  0  0
  7  8  1  0  0  0  0
  9  7  2  0  0  0  0
 10  9  1  0  0  0  0
 11 12  2  0  0  0  0
 11  9  1  0  0  0  0
 12  1  1  0  0  0  0
 13 11  1  0  0  0  0
 14 12  1  0  0  0  0
M  CHG  2   8  -1  10  -1
M  END
