1,2
q = -1.0

 15 15  0  0  0  0  0  0  0  0999 V2000
    0.9447   -0.9116    1.2494 O   0  5  0  0  0  0  0  0  0  0  0  0
    1.4116   -1.0950   -1.2716 O   0  5  0  0  0  0  0  0  0  0  0  0
    4.2399    0.5987    1.0919 O   0  0  0  0  0  0  0  0  0  0  0  0
    3.0841    0.1164    1.6401 C   0  0  0  0  0  3  0  0  0  0  0  0
    3.0284    0.2597    2.7254 H   0  0  0  0  0  0  0  0  0  0  0  0
    2.1088   -0.4570    0.8507 C   0  0  0  0  0  0  0  0  0  0  0  0
    2.3537   -0.5790   -0.5826 C   0  0  0  0  0  0  0  0  0  0  0  0
    3.5869   -0.0800   -1.0961 C   0  0  0  0  0  0  0  0  0  0  0  0
    3.8103   -0.1480   -2.1687 H   0  0  0  0  0  0  0  0  0  0  0  0
    4.4817    0.5091   -0.2334 C   0  0  0  0  0  0  0  0  0  0  0  0
    5.7843    1.1686   -0.6020 C   0  0  0  0  0  0  0  0  0  0  0  0
    6.0195    0.9233   -1.6563 H   0  0  0  0  0  0  0  0  0  0  0  0
    5.6264    2.2785   -0.5551 H   0  0  0  0  0  0  0  0  0  0  0  0
    6.8679    0.7460    0.1923 O   0  0  0  0  0  0  0  0  0  0  0  0
    6.6141    0.8984    1.1222 H   0  0  0  0  0  0  0  0  0  0  0  0
  2  7  1  0  0  0  0
  3  4  1  0  0  0  0
  4  5  1  0  0  0  0
  6  1  1  0  0  0  0
  6  4  1  0  0  0  0
  7  6  2  0  0  0  0
  8  7  1  0  0  0  0
  8 10  2  0  0  0  0
  9  8  1  0  0  0  0
 10  3  1  0  0  0  0
 11 13  1  0  0  0  0
 11 10  1  0  0  0  0
 11 14  1  0  0  0  0
 12 11  1  0  0  0  0
 14 15  1  0  0  0  0
M  CHG  2   1  -1   2  -1
M  END
