1,2
q = -1.0

 16 15  0  0  1  0  0  0  0  0999 V2000
    2.8528    1.4928    0.0402 O   0  0  0  0  0  1  0  0  0  0  0  0
    1.9353   -1.3585    0.0448 O   0  5  0  0  0  0  0  0  0  0  0  0
    5.0909    1.6194   -0.0272 O   0  0  0  0  0  0  0  0  0  0  0  0
    3.6623   -2.7888   -0.0969 O   0  0  0  0  0  0  0  0  0  0  0  0
    3.9601    0.8654   -0.0132 C   0  0  2  0  0  3  0  0  0  0  0  0
    4.2037   -0.5250   -0.0653 C   0  0  0  0  0  0  0  0  0  0  0  0
    3.1978   -1.5104   -0.0335 C   0  0  0  0  0  0  0  0  0  0  0  0
    4.9134    3.0346    0.0040 C   0  0  0  0  0  0  0  0  0  0  0  0
    2.6772   -3.8196   -0.1132 C   0  0  0  0  0  0  0  0  0  0  0  0
    5.2461   -0.8571   -0.1291 H   0  0  0  0  0  0  0  0  0  0  0  0
    5.9314    3.4651   -0.0156 H   0  0  0  0  0  0  0  0  0  0  0  0
    4.3319    3.3912   -0.8710 H   0  0  0  0  0  0  0  0  0  0  0  0
    4.3808    3.3582    0.9218 H   0  0  0  0  0  0  0  0  0  0  0  0
    3.2367   -4.7686   -0.2062 H   0  0  0  0  0  0  0  0  0  0  0  0
    2.0765   -3.8294    0.8206 H   0  0  0  0  0  0  0  0  0  0  0  0
    1.9762   -3.7052   -0.9663 H   0  0  0  0  0  0  0  0  0  0  0  0
  3  5  1  0  0  0  0
  3  8  1  0  0  0  0
  4  7  1  0  0  0  0
  5  1  1  6  0  0  0
  6  7  2  0  0  0  0
  6  5  1  0  0  0  0
  7  2  1  0  0  0  0
  8 13  1  0  0  0  0
  9  4  1  0  0  0  0
  9 15  1  0  0  0  0
 10  6  1  0  0  0  0
 11  8  1  0  0  0  0
 12  8  1  0  0  0  0
 14  9  1  0  0  0  0
 16  9  1  0  0  0  0
M  CHG  1   2  -1
M  END
