1,2
q = -1.0

 32 32  0  0  1  0  0  0  0  0999 V2000
   -1.1438   -1.0756   -0.4445 O   0  0  0  0  0  1  0  0  0  0  0  0
   -1.6833    1.7753   -0.3859 O   0  5  0  0  0  0  0  0  0  0  0  0
   -2.9701   -2.3411   -0.1432 O   0  0  0  0  0  0  0  0  0  0  0  0
   -3.8664    2.2406   -0.3582 O   0  0  0  0  0  0  0  0  0  0  0  0
   -1.4338   -3.7084    1.2061 C   0  0  0  0  0  0  0  0  0  0  0  0
   -2.0966   -3.4835   -0.1455 C   0  0  0  0  0  0  0  0  0  0  0  0
   -2.4034   -1.1121   -0.2761 C   0  0  2  0  0  3  0  0  0  0  0  0
   -3.3249   -0.0274   -0.2097 C   0  0  0  0  0  0  0  0  0  0  0  0
   -2.8708    1.3217   -0.3185 C   0  0  0  0  0  0  0  0  0  0  0  0
   -3.4910    3.6265   -0.4115 C   0  0  0  0  0  0  0  0  0  0  0  0
   -4.7699    4.4405   -0.3863 C   0  0  0  0  0  0  0  0  0  0  0  0
   -4.7833   -0.2984   -0.0424 C   0  0  0  0  0  0  0  0  0  0  0  0
   -5.5042    0.2540    1.0399 C   0  0  0  0  0  0  0  0  0  0  0  0
   -6.8748    0.0089    1.2007 C   0  0  0  0  0  0  0  0  0  0  0  0
   -7.5601   -0.8040    0.2835 C   0  0  0  0  0  0  0  0  0  0  0  0
   -6.8585   -1.3644   -0.7958 C   0  0  0  0  0  0  0  0  0  0  0  0
   -5.4891   -1.1110   -0.9569 C   0  0  0  0  0  0  0  0  0  0  0  0
   -0.7417   -2.8783    1.4456 H   0  0  0  0  0  0  0  0  0  0  0  0
   -2.1917   -3.7896    2.0108 H   0  0  0  0  0  0  0  0  0  0  0  0
   -0.8416   -4.6458    1.1838 H   0  0  0  0  0  0  0  0  0  0  0  0
   -2.7620   -4.3305   -0.4064 H   0  0  0  0  0  0  0  0  0  0  0  0
   -1.3318   -3.3700   -0.9394 H   0  0  0  0  0  0  0  0  0  0  0  0
   -2.8267    3.8641    0.4469 H   0  0  0  0  0  0  0  0  0  0  0  0
   -2.8969    3.8136   -1.3315 H   0  0  0  0  0  0  0  0  0  0  0  0
   -5.3454    4.2466    0.5406 H   0  0  0  0  0  0  0  0  0  0  0  0
   -5.4172    4.1865   -1.2490 H   0  0  0  0  0  0  0  0  0  0  0  0
   -4.5338    5.5222   -0.4320 H   0  0  0  0  0  0  0  0  0  0  0  0
   -4.9717    0.8882    1.7645 H   0  0  0  0  0  0  0  0  0  0  0  0
   -7.4121    0.4518    2.0540 H   0  0  0  0  0  0  0  0  0  0  0  0
   -8.6361   -0.9998    0.4094 H   0  0  0  0  0  0  0  0  0  0  0  0
   -7.3847   -2.0009   -1.5244 H   0  0  0  0  0  0  0  0  0  0  0  0
   -4.9461   -1.5496   -1.8069 H   0  0  0  0  0  0  0  0  0  0  0  0
  2  9  1  0  0  0  0
  4  9  1  0  0  0  0
  5 18  1  0  0  0  0
  5 19  1  0  0  0  0
  6  3  1  0  0  0  0
  6  5  1  0  0  0  0
  7  1  1  6  0  0  0
  7  8  1  0  0  0  0
  7  3  1  0  0  0  0
  8 12  1  0  0  0  0
  9  8  2  0  0  0  0
 10 11  1  0  0  0  0
 10  4  1  0  0  0  0
 10 23  1  0  0  0  0
 11 25  1  0  0  0  0
 12 13  1  0  0  0  0
 13 14  2  0  0  0  0
 13 28  1  0  0  0  0
 14 29  1  0  0  0  0
 15 30  1  0  0  0  0
 15 14  1  0  0  0  0
 16 15  2  0  0  0  0
 17 16  1  0  0  0  0
 17 12  2  0  0  0  0
 20  5  1  0  0  0  0
 21  6  1  0  0  0  0
 22  6  1  0  0  0  0
 24 10  1  0  0  0  0
 26 11  1  0  0  0  0
 27 11  1  0  0  0  0
 31 16  1  0  0  0  0
 32 17  1  0  0  0  0
M  CHG  1   2  -1
M  END
