1,2
q = -1.0

 16 15  0  0  0  0  0  0  0  0999 V2000
   -1.7837   -0.5108   -1.3276 O   0  5  0  0  0  0  0  0  0  0  0  0
   -2.1345   -0.2860    0.8163 O   0  5  0  0  0  0  0  0  0  0  0  0
   -2.5988   -0.5653   -0.3428 C   0  0  0  0  0  3  0  0  0  0  0  0
   -4.0616   -0.9511   -0.5524 C   0  0  0  0  0  0  0  0  0  0  0  0
   -4.8151   -0.9302    0.7842 C   0  0  0  0  0  0  0  0  0  0  0  0
   -4.7841    0.0764    1.2451 H   0  0  0  0  0  0  0  0  0  0  0  0
   -4.3656   -1.6384    1.5073 H   0  0  0  0  0  0  0  0  0  0  0  0
   -5.8762   -1.2127    0.6283 H   0  0  0  0  0  0  0  0  0  0  0  0
   -4.6745    0.0617   -1.5423 C   0  0  0  0  0  0  0  0  0  0  0  0
   -4.6502    1.0899   -1.1266 H   0  0  0  0  0  0  0  0  0  0  0  0
   -5.7322   -0.1989   -1.7522 H   0  0  0  0  0  0  0  0  0  0  0  0
   -4.1146    0.0615   -2.4978 H   0  0  0  0  0  0  0  0  0  0  0  0
   -4.0858   -2.3646   -1.1717 C   0  0  0  0  0  0  0  0  0  0  0  0
   -5.1309   -2.6772   -1.3733 H   0  0  0  0  0  0  0  0  0  0  0  0
   -3.6311   -3.1081   -0.4853 H   0  0  0  0  0  0  0  0  0  0  0  0
   -3.5217   -2.3829   -2.1246 H   0  0  0  0  0  0  0  0  0  0  0  0
  1  3  1  0  0  0  0
  3  2  1  0  0  0  0
  4  3  1  0  0  0  0
  4  5  1  0  0  0  0
  5  6  1  0  0  0  0
  5  7  1  0  0  0  0
  8  5  1  0  0  0  0
  9 10  1  0  0  0  0
  9  4  1  0  0  0  0
 11  9  1  0  0  0  0
 12  9  1  0  0  0  0
 13  4  1  0  0  0  0
 13 15  1  0  0  0  0
 14 13  1  0  0  0  0
 16 13  1  0  0  0  0
M  CHG  2   1  -1   2  -1
M  END
