1,2
q = -1.0

 37 39  0  0  1  0  0  0  0  0999 V2000
    0.8430    1.2795   -0.0932 O   0  5  0  0  0  0  0  0  0  0  0  0
   -1.2341   -0.3729    1.3068 O   0  0  0  0  0  1  0  0  0  0  0  0
    0.1800    3.5083    0.1532 N   0  0  0  0  0  0  0  0  0  0  0  0
   -0.8702    4.2319    0.6802 N   0  0  0  0  0  0  0  0  0  0  0  0
    1.2274    4.1981   -0.5080 C   0  0  0  0  0  0  0  0  0  0  0  0
    2.3461    3.5214   -1.0449 C   0  0  0  0  0  0  0  0  0  0  0  0
    2.4190    2.4323   -0.9534 H   0  0  0  0  0  0  0  0  0  0  0  0
    3.3501    4.2571   -1.6909 C   0  0  0  0  0  0  0  0  0  0  0  0
    4.2162    3.7186   -2.1055 H   0  0  0  0  0  0  0  0  0  0  0  0
    3.2647    5.6521   -1.8120 C   0  0  0  0  0  0  0  0  0  0  0  0
    4.0593    6.2179   -2.3212 H   0  0  0  0  0  0  0  0  0  0  0  0
    2.1507    6.3168   -1.2734 C   0  0  0  0  0  0  0  0  0  0  0  0
    2.0663    7.4113   -1.3576 H   0  0  0  0  0  0  0  0  0  0  0  0
    1.1362    5.6029   -0.6258 C   0  0  0  0  0  0  0  0  0  0  0  0
    0.2593    6.1051   -0.1989 H   0  0  0  0  0  0  0  0  0  0  0  0
   -2.9579    3.8984    1.8510 C   0  0  0  0  0  0  0  0  0  0  0  0
   -2.9673    4.9983    1.7366 H   0  0  0  0  0  0  0  0  0  0  0  0
   -3.0066    3.6636    2.9349 H   0  0  0  0  0  0  0  0  0  0  0  0
   -3.8695    3.4835    1.3762 H   0  0  0  0  0  0  0  0  0  0  0  0
   -1.7125    3.3672    1.2139 C   0  0  0  0  0  0  0  0  0  0  0  0
   -1.2386    2.0020    1.0609 C   0  0  0  0  0  0  0  0  0  0  0  0
    0.0150    2.1414    0.3456 C   0  0  0  0  0  0  0  0  0  0  0  0
   -1.7917    0.7615    1.4850 C   0  0  1  0  0  3  0  0  0  0  0  0
   -3.1560    0.6784    2.1568 C   0  0  0  0  0  0  0  0  0  0  0  0
   -3.1259   -0.2287    2.7952 H   0  0  0  0  0  0  0  0  0  0  0  0
   -3.3471    1.5469    2.8116 H   0  0  0  0  0  0  0  0  0  0  0  0
   -4.2814    0.5395    1.1411 C   0  0  0  0  0  0  0  0  0  0  0  0
   -5.4729    1.2780    1.2840 C   0  0  0  0  0  0  0  0  0  0  0  0
   -5.5873    1.9615    2.1402 H   0  0  0  0  0  0  0  0  0  0  0  0
   -6.5190    1.1453    0.3570 C   0  0  0  0  0  0  0  0  0  0  0  0
   -7.4415    1.7315    0.4880 H   0  0  0  0  0  0  0  0  0  0  0  0
   -6.3877    0.2710   -0.7322 C   0  0  0  0  0  0  0  0  0  0  0  0
   -7.2049    0.1688   -1.4623 H   0  0  0  0  0  0  0  0  0  0  0  0
   -5.2068   -0.4744   -0.8803 C   0  0  0  0  0  0  0  0  0  0  0  0
   -5.0905   -1.1676   -1.7273 H   0  0  0  0  0  0  0  0  0  0  0  0
   -4.1644   -0.3441    0.0479 C   0  0  0  0  0  0  0  0  0  0  0  0
   -3.2465   -0.9380   -0.0696 H   0  0  0  0  0  0  0  0  0  0  0  0
  1 22  1  0  0  0  0
  3 22  1  0  0  0  0
  3  4  1  0  0  0  0
  4 20  2  0  0  0  0
  5  3  1  0  0  0  0
  6  7  1  0  0  0  0
  6  5  2  0  0  0  0
  8  6  1  0  0  0  0
  9  8  1  0  0  0  0
 10  8  2  0  0  0  0
 10 12  1  0  0  0  0
 11 10  1  0  0  0  0
 12 14  2  0  0  0  0
 13 12  1  0  0  0  0
 14  5  1  0  0  0  0
 14 15  1  0  0  0  0
 16 18  1  0  0  0  0
 17 16  1  0  0  0  0
 19 16  1  0  0  0  0
 20 16  1  0  0  0  0
 21 20  1  0  0  0  0
 21 23  1  0  0  0  0
 22 21  2  0  0  0  0
 23  2  1  6  0  0  0
 23 24  1  0  0  0  0
 24 25  1  0  0  0  0
 24 26  1  0  0  0  0
 27 28  1  0  0  0  0
 27 24  1  0  0  0  0
 28 29  1  0  0  0  0
 30 31  1  0  0  0  0
 30 28  2  0  0  0  0
 32 30  1  0  0  0  0
 33 32  1  0  0  0  0
 34 32  2  0  0  0  0
 34 36  1  0  0  0  0
 35 34  1  0  0  0  0
 36 27  2  0  0  0  0
 37 36  1  0  0  0  0
M  CHG  1   1  -1
M  END
