2,5
q = -2.0, confidence = 0.808

 15 15  0  0  0  0  0  0  0  0999 V2000
   -0.8648    0.0272   -0.0652 N   0  0  0  0  0  0  0  0  0  0  0  0
    0.7817    1.8843    0.0583 O   0  5  0  0  0  0  0  0  0  0  0  0
   -0.7849    3.5236    0.1542 O   0  0  0  0  0  0  0  0  0  0  0  0
   -1.0077   -3.4699    0.0585 O   0  5  0  0  0  0  0  0  0  0  0  0
    0.6632   -1.9296    0.0162 O   0  0  0  0  0  0  0  0  0  0  0  0
   -0.4516    2.3527    0.0617 C   0  0  0  0  0  0  0  0  0  0  0  0
   -1.4641    1.2234   -0.0164 C   0  0  0  0  0  0  0  0  0  0  0  0
   -2.8611    1.3096    0.0120 C   0  0  0  0  0  0  0  0  0  0  0  0
   -3.6000    0.1118   -0.0087 C   0  0  0  0  0  0  0  0  0  0  0  0
   -2.9373   -1.1294   -0.0328 C   0  0  0  0  0  0  0  0  0  0  0  0
   -1.5373   -1.1296   -0.0592 C   0  0  0  0  0  0  0  0  0  0  0  0
   -0.5970   -2.3221   -0.0065 C   0  0  0  0  0  0  0  0  0  0  0  0
   -3.3307    2.3028    0.0560 H   0  0  0  0  0  0  0  0  0  0  0  0
   -4.7002    0.1459    0.0079 H   0  0  0  0  0  0  0  0  0  0  0  0
   -3.4679   -2.0923   -0.0246 H   0  0  0  0  0  0  0  0  0  0  0  0
  1 11  2  0  0  0  0
  1  7  1  0  0  0  0
  2  6  1  0  0  0  0
  6  3  2  0  0  0  0
  7  8  2  0  0  0  0
  7  6  1  0  0  0  0
  8 13  1  0  0  0  0
  9 14  1  0  0  0  0
  9  8  1  0  0  0  0
 10 15  1  0  0  0  0
 10  9  2  0  0  0  0
 11 10  1  0  0  0  0
 11 12  1  0  0  0  0
 12  5  2  0  0  0  0
 12  4  1  0  0  0  0
M  CHG  2   2  -1   4  -1
M  END
