2,3
q = -1.0

 16 16  0  0  1  0  0  0  0  0999 V2000
    0.3530    2.0800   -1.6050 N   0  0  0  0  0  0  0  0  0  0  0  0
   -0.3905    1.3654    0.3860 O   0  0  0  0  0  1  0  0  0  0  0  0
   -0.5467    1.2906   -2.2038 O   0  0  0  0  0  1  0  0  0  0  0  0
    1.4445    2.9382    0.3988 C   0  0  0  0  0  0  0  0  0  0  0  0
    1.9773    4.0903   -0.2175 C   0  0  0  0  0  0  0  0  0  0  0  0
    1.5930    4.4276   -1.1927 H   0  0  0  0  0  0  0  0  0  0  0  0
    2.9690    4.8382    0.4316 C   0  0  0  0  0  0  0  0  0  0  0  0
    3.3758    5.7407   -0.0487 H   0  0  0  0  0  0  0  0  0  0  0  0
    3.4301    4.4446    1.6985 C   0  0  0  0  0  0  0  0  0  0  0  0
    4.2088    5.0334    2.2064 H   0  0  0  0  0  0  0  0  0  0  0  0
    2.8914    3.3056    2.3207 C   0  0  0  0  0  0  0  0  0  0  0  0
    3.2499    2.9993    3.3148 H   0  0  0  0  0  0  0  0  0  0  0  0
    1.8997    2.5562    1.6775 C   0  0  0  0  0  0  0  0  0  0  0  0
    1.4638    1.6596    2.1409 H   0  0  0  0  0  0  0  0  0  0  0  0
    0.4086    2.0894   -0.2426 C   0  0  1  0  0  3  0  0  0  0  0  0
    1.0773    2.4637   -2.2191 H   0  0  0  0  0  0  0  0  0  0  0  0
  1 15  1  0  0  0  0
  3  1  1  0  0  0  0
  4 13  1  0  0  0  0
  5  4  2  0  0  0  0
  5  7  1  0  0  0  0
  6  5  1  0  0  0  0
  7  9  2  0  0  0  0
  8  7  1  0  0  0  0
  9 10  1  0  0  0  0
  9 11  1  0  0  0  0
 11 12  1  0  0  0  0
 13 14  1  0  0  0  0
 13 11  2  0  0  0  0
 15  2  1  6  0  0  0
 15  4  1  0  0  0  0
 16  1  1  0  0  0  0
M  END
