1,2
q = -1.0

 21 21  0  0  0  0  0  0  0  0999 V2000
    3.0486    1.3143   -1.0349 O   0  5  0  0  0  0  0  0  0  0  0  0
    2.8115    2.3460    0.9248 O   0  5  0  0  0  0  0  0  0  0  0  0
    4.4888   -4.4707   -0.6245 O   0  0  0  0  0  0  0  0  0  0  0  0
    4.1685   -4.7685   -1.4965 H   0  0  0  0  0  0  0  0  0  0  0  0
    3.5452    1.8566    0.0121 C   0  0  0  0  0  3  0  0  0  0  0  0
    5.0599    1.9070    0.1785 C   0  0  0  0  0  0  0  0  0  0  0  0
    5.2849    1.5906    1.2186 H   0  0  0  0  0  0  0  0  0  0  0  0
    5.3616    2.9756    0.1308 H   0  0  0  0  0  0  0  0  0  0  0  0
    5.7545   -1.1703    0.3402 C   0  0  0  0  0  0  0  0  0  0  0  0
    6.1877   -0.6963    1.2355 H   0  0  0  0  0  0  0  0  0  0  0  0
    5.5387   -0.3970   -0.8196 C   0  0  0  0  0  0  0  0  0  0  0  0
    4.8576   -3.1536   -0.7350 C   0  0  0  0  0  0  0  0  0  0  0  0
    5.8495    1.0844   -0.8491 C   0  0  0  0  0  0  0  0  0  0  0  0
    5.6347    1.4751   -1.8631 H   0  0  0  0  0  0  0  0  0  0  0  0
    6.9355    1.2401   -0.6664 H   0  0  0  0  0  0  0  0  0  0  0  0
    4.9854   -1.0446   -1.9403 C   0  0  0  0  0  0  0  0  0  0  0  0
    4.7796   -0.4595   -2.8487 H   0  0  0  0  0  0  0  0  0  0  0  0
    4.6490   -2.4055   -1.9078 C   0  0  0  0  0  0  0  0  0  0  0  0
    4.1989   -2.8853   -2.7931 H   0  0  0  0  0  0  0  0  0  0  0  0
    5.4194   -2.5296    0.3934 C   0  0  0  0  0  0  0  0  0  0  0  0
    5.5809   -3.1243    1.3042 H   0  0  0  0  0  0  0  0  0  0  0  0
  1  5  1  0  0  0  0
  4  3  1  0  0  0  0
  5  6  1  0  0  0  0
  5  2  1  0  0  0  0
  6  7  1  0  0  0  0
  8  6  1  0  0  0  0
  9 20  1  0  0  0  0
  9 10  1  0  0  0  0
 11  9  2  0  0  0  0
 12  3  1  0  0  0  0
 12 20  2  0  0  0  0
 13 11  1  0  0  0  0
 13 15  1  0  0  0  0
 13  6  1  0  0  0  0
 14 13  1  0  0  0  0
 16 18  2  0  0  0  0
 16 11  1  0  0  0  0
 17 16  1  0  0  0  0
 18 12  1  0  0  0  0
 19 18  1  0  0  0  0
 20 21  1  0  0  0  0
M  CHG  2   1  -1   2  -1
M  END
