1,2
q = -1.0, confidence = 0.022

 18 18  0  0  0  0  0  0  0  0999 V2000
   -1.0758   -0.1651    0.5650 O   0  5  0  0  0  0  0  0  0  0  0  0
   -0.9185   -0.1070   -1.6551 O   0  0  0  0  0  0  0  0  0  0  0  0
   -1.6355   -0.1660   -0.6144 C   0  0  0  0  0  0  0  0  0  0  0  0
   -3.1053   -0.2307   -0.7287 C   0  0  0  0  0  0  0  0  0  0  0  0
   -3.4883   -0.2223   -1.7602 H   0  0  0  0  0  0  0  0  0  0  0  0
   -3.9227   -0.2962    0.3550 C   0  0  0  0  0  3  0  0  0  0  0  0
   -3.4273   -0.2977    1.3417 H   0  0  0  0  0  0  0  0  0  0  0  0
   -5.3828   -0.3621    0.3696 C   0  0  0  0  0  0  0  0  0  0  0  0
   -6.1664   -0.3690   -0.8116 C   0  0  0  0  0  0  0  0  0  0  0  0
   -5.6738   -0.3241   -1.7942 H   0  0  0  0  0  0  0  0  0  0  0  0
   -7.5609   -0.4324   -0.7426 C   0  0  0  0  0  0  0  0  0  0  0  0
   -8.1541   -0.4370   -1.6694 H   0  0  0  0  0  0  0  0  0  0  0  0
   -8.2083   -0.4904    0.5054 C   0  0  0  0  0  0  0  0  0  0  0  0
   -9.3064   -0.5404    0.5550 H   0  0  0  0  0  0  0  0  0  0  0  0
   -7.4486   -0.4846    1.6856 C   0  0  0  0  0  0  0  0  0  0  0  0
   -7.9489   -0.5300    2.6646 H   0  0  0  0  0  0  0  0  0  0  0  0
   -6.0513   -0.4212    1.6166 C   0  0  0  0  0  0  0  0  0  0  0  0
   -5.4541   -0.4166    2.5421 H   0  0  0  0  0  0  0  0  0  0  0  0
  2  3  2  0  0  0  0
  3  1  1  0  0  0  0
  4  3  2  0  0  0  0
  4  6  1  0  0  0  0
  5  4  1  0  0  0  0
  6  8  1  0  0  0  0
  6  7  1  0  0  0  0
  8 17  1  0  0  0  0
  9 11  1  0  0  0  0
  9  8  2  0  0  0  0
 10  9  1  0  0  0  0
 11 13  2  0  0  0  0
 12 11  1  0  0  0  0
 13 14  1  0  0  0  0
 13 15  1  0  0  0  0
 15 16  1  0  0  0  0
 17 15  2  0  0  0  0
 17 18  1  0  0  0  0
M  CHG  1   1  -1
M  END
