1,2
q = -1.0, confidence = 0.022

 19 18  0  0  0  0  0  0  0  0999 V2000
    1.1353   -0.8804   -1.7338 O   0  0  0  0  0  1  0  0  0  0  0  0
    1.3276    0.2804    0.5061 O   0  0  0  0  0  1  0  0  0  0  0  0
    2.0536    0.0272   -1.6706 N   0  0  0  0  0  2  0  0  0  0  0  0
    2.1259    0.5991   -0.5102 N   0  0  0  0  0  0  0  0  0  0  0  0
    3.0616    1.6044   -0.3456 N   0  0  0  0  0  0  0  0  0  0  0  0
    4.0421    1.2470    0.6965 C   0  0  0  0  0  0  0  0  0  0  0  0
    3.5632    1.2469    1.7053 H   0  0  0  0  0  0  0  0  0  0  0  0
    4.7881    2.0677    0.6870 H   0  0  0  0  0  0  0  0  0  0  0  0
    4.7144   -0.0902    0.4196 C   0  0  0  0  0  0  0  0  0  0  0  0
    3.9992   -0.9326    0.5104 H   0  0  0  0  0  0  0  0  0  0  0  0
    5.5232   -0.2654    1.1554 H   0  0  0  0  0  0  0  0  0  0  0  0
    5.1509   -0.1118   -0.5983 H   0  0  0  0  0  0  0  0  0  0  0  0
    2.4034    2.9063   -0.1297 C   0  0  0  0  0  0  0  0  0  0  0  0
    3.2260    3.6499   -0.1070 H   0  0  0  0  0  0  0  0  0  0  0  0
    1.9049    2.9376    0.8696 H   0  0  0  0  0  0  0  0  0  0  0  0
    1.4108    3.2369   -1.2354 C   0  0  0  0  0  0  0  0  0  0  0  0
    1.8945    3.1880   -2.2306 H   0  0  0  0  0  0  0  0  0  0  0  0
    1.0070    4.2576   -1.0871 H   0  0  0  0  0  0  0  0  0  0  0  0
    0.5535    2.5338   -1.2321 H   0  0  0  0  0  0  0  0  0  0  0  0
  1  3  1  0  0  0  0
  3  4  1  0  0  0  0
  4  5  1  0  0  0  0
  4  2  1  0  0  0  0
  5 13  1  0  0  0  0
  5  6  1  0  0  0  0
  6  7  1  0  0  0  0
  8  6  1  0  0  0  0
  9 10  1  0  0  0  0
  9  6  1  0  0  0  0
  9 11  1  0  0  0  0
 12  9  1  0  0  0  0
 13 14  1  0  0  0  0
 13 15  1  0  0  0  0
 16 19  1  0  0  0  0
 16 18  1  0  0  0  0
 16 13  1  0  0  0  0
 17 16  1  0  0  0  0
M  END
