1,2
q = -1.0, confidence = 0.0

 16 16  0  0  0  0  0  0  0  0999 V2000
   -1.7600   -0.2387   -1.1217 O   0  5  0  0  0  0  0  0  0  0  0  0
   -1.5648   -1.0170    0.9549 O   0  5  0  0  0  0  0  0  0  0  0  0
   -7.4780   -3.1459   -0.4880 N   0  0  0  0  0  0  0  0  0  0  0  0
   -7.7075   -3.9029    0.1559 H   0  0  0  0  0  0  0  0  0  0  0  0
   -7.8731   -3.2671   -1.4205 H   0  0  0  0  0  0  0  0  0  0  0  0
   -3.5985   -1.4852   -0.2261 C   0  0  0  0  0  0  0  0  0  0  0  0
   -4.1387   -2.2276    0.8442 C   0  0  0  0  0  0  0  0  0  0  0  0
   -3.5236   -2.3568    1.7469 H   0  0  0  0  0  0  0  0  0  0  0  0
   -5.4125   -2.7908    0.7574 C   0  0  0  0  0  0  0  0  0  0  0  0
   -5.8202   -3.3700    1.6017 H   0  0  0  0  0  0  0  0  0  0  0  0
   -6.1952   -2.6290   -0.4144 C   0  0  0  0  0  0  0  0  0  0  0  0
   -5.6488   -1.8838   -1.4906 C   0  0  0  0  0  0  0  0  0  0  0  0
   -6.2428   -1.7501   -2.4092 H   0  0  0  0  0  0  0  0  0  0  0  0
   -4.3736   -1.3259   -1.3934 C   0  0  0  0  0  0  0  0  0  0  0  0
   -3.9412   -0.7532   -2.2269 H   0  0  0  0  0  0  0  0  0  0  0  0
   -2.2373   -0.8880   -0.1280 C   0  0  0  0  0  3  0  0  0  0  0  0
  1 16  1  0  0  0  0
  3 11  1  0  0  0  0
  3  4  1  0  0  0  0
  5  3  1  0  0  0  0
  6 16  1  0  0  0  0
  6  7  1  0  0  0  0
  7  8  1  0  0  0  0
  9  7  2  0  0  0  0
  9 10  1  0  0  0  0
 11  9  1  0  0  0  0
 12 14  1  0  0  0  0
 12 11  2  0  0  0  0
 13 12  1  0  0  0  0
 14  6  2  0  0  0  0
 15 14  1  0  0  0  0
 16  2  1  0  0  0  0
M  CHG  2   1  -1   2  -1
M  END
