1,2
q = -1.0

 16 16  0  0  0  0  0  0  0  0999 V2000
   -1.0254    0.6183   -1.3879 O   0  5  0  0  0  0  0  0  0  0  0  0
   -1.9204    0.5096    0.6641 O   0  5  0  0  0  0  0  0  0  0  0  0
   -5.6995   -2.5082    1.4814 O   0  0  0  0  0  0  0  0  0  0  0  0
   -6.4842   -3.7806   -0.1126 O   0  0  0  0  0  0  0  0  0  0  0  0
   -5.7020   -2.9384    0.3285 N   0  0  0  0  0  0  0  0  0  0  0  0
   -1.8517    0.1433   -0.5691 C   0  0  0  0  0  3  0  0  0  0  0  0
   -2.8261   -0.9134   -1.0284 C   0  0  0  0  0  0  0  0  0  0  0  0
   -3.7988   -1.4147   -0.1472 C   0  0  0  0  0  0  0  0  0  0  0  0
   -3.8702   -1.0364    0.8804 H   0  0  0  0  0  0  0  0  0  0  0  0
   -4.6775   -2.4015   -0.6045 C   0  0  0  0  0  0  0  0  0  0  0  0
   -4.6241   -2.9052   -1.9119 C   0  0  0  0  0  0  0  0  0  0  0  0
   -5.3419   -3.6797   -2.2127 H   0  0  0  0  0  0  0  0  0  0  0  0
   -3.6508   -2.3981   -2.7842 C   0  0  0  0  0  0  0  0  0  0  0  0
   -3.5892   -2.7820   -3.8134 H   0  0  0  0  0  0  0  0  0  0  0  0
   -2.7584   -1.4081   -2.3461 C   0  0  0  0  0  0  0  0  0  0  0  0
   -1.9841   -0.9939   -3.0079 H   0  0  0  0  0  0  0  0  0  0  0  0
  1  6  1  0  0  0  0
  4  5  2  0  0  0  0
  5  3  2  0  0  0  0
  6  2  1  0  0  0  0
  7  6  1  0  0  0  0
  7  8  1  0  0  0  0
  8  9  1  0  0  0  0
 10  8  2  0  0  0  0
 10  5  1  0  0  0  0
 11 10  1  0  0  0  0
 12 11  1  0  0  0  0
 13 15  1  0  0  0  0
 13 11  2  0  0  0  0
 14 13  1  0  0  0  0
 15  7  2  0  0  0  0
 16 15  1  0  0  0  0
M  CHG  2   1  -1   2  -1
M  END
