5,6
q = -2.0, confidence = 0.546

 12 12  0  0  0  0  0  0  0  0999 V2000
   -2.8886    2.9629   -1.0799 Cl  0  0  0  0  0  0  0  0  0  0  0  0
   -5.6459    1.4746   -0.4803 Cl  0  0  0  0  0  0  0  0  0  0  0  0
   -5.6187   -1.5004    0.5686 Cl  0  0  0  0  0  0  0  0  0  0  0  0
   -2.8353   -2.9720    1.0723 Cl  0  0  0  0  0  0  0  0  0  0  0  0
   -0.5043    1.1575   -0.6089 O   0  0  0  0  0  0  0  0  0  0  0  0
   -0.4780   -1.1530    0.5131 O   0  0  0  0  0  0  0  0  0  0  0  0
   -1.6997    0.6536   -0.3054 C   0  0  0  0  0  0  0  0  0  0  0  0
   -2.9240    1.3275   -0.4950 C   0  0  0  0  0  0  0  0  0  0  0  0
   -4.1382    0.6591   -0.2244 C   0  0  0  0  0  0  0  0  0  0  0  0
   -4.1256   -0.6768    0.2581 C   0  0  0  0  0  0  0  0  0  0  0  0
   -2.8988   -1.3382    0.4857 C   0  0  0  0  0  0  0  0  0  0  0  0
   -1.6852   -0.6584    0.2510 C   0  0  0  0  0  0  0  0  0  0  0  0
  1  8  1  0  0  0  0
  2  9  1  0  0  0  0
  5  7  1  0  0  0  0
  7 12  1  0  0  0  0
  8  7  2  0  0  0  0
  8  9  1  0  0  0  0
  9 10  2  0  0  0  0
 10 11  1  0  0  0  0
 10  3  1  0  0  0  0
 11  4  1  0  0  0  0
 12 11  2  0  0  0  0
 12  6  1  0  0  0  0
M  END
