2,3
q = 0.0, confidence = 0.982

 41 42  0  0  1  0  0  0  0  0999 V2000
    0.8671    0.2311    0.1937 P   0  0  0  0  0  4  0  0  0  0  0  0
   -0.2087   -0.1620   -0.8428 O   0  0  0  0  0  1  0  0  0  0  0  0
   -2.3260   -0.4298    1.1326 O   0  0  0  0  0  1  0  0  0  0  0  0
   -3.3213    1.5801    0.7630 N   0  0  0  0  0  0  0  0  0  0  0  0
    0.1498    0.5358    1.8563 C   0  0  0  0  0  0  0  0  0  0  0  0
   -0.1732   -0.4618    2.2156 H   0  0  0  0  0  0  0  0  0  0  0  0
    0.9401    0.9390    2.5204 H   0  0  0  0  0  0  0  0  0  0  0  0
   -1.0368    1.5020    1.7583 C   0  0  0  0  0  0  0  0  0  0  0  0
   -1.2942    1.8745    2.7740 H   0  0  0  0  0  0  0  0  0  0  0  0
   -0.7607    2.3969    1.1634 H   0  0  0  0  0  0  0  0  0  0  0  0
   -2.2786    0.8144    1.1765 C   0  0  1  0  0  3  0  0  0  0  0  0
   -4.4885    0.9375    0.1660 C   0  0  0  0  0  0  0  0  0  0  0  0
   -4.4025   -0.1532    0.3001 H   0  0  0  0  0  0  0  0  0  0  0  0
   -4.5297    1.1486   -0.9215 H   0  0  0  0  0  0  0  0  0  0  0  0
   -5.4109    1.3166    0.6531 H   0  0  0  0  0  0  0  0  0  0  0  0
   -3.3342    3.0321    0.7668 C   0  0  0  0  0  0  0  0  0  0  0  0
   -2.5350    3.4467    1.4035 H   0  0  0  0  0  0  0  0  0  0  0  0
   -4.3059    3.3953    1.1614 H   0  0  0  0  0  0  0  0  0  0  0  0
   -3.2135    3.4364   -0.2627 H   0  0  0  0  0  0  0  0  0  0  0  0
    1.5505    1.8356   -0.3564 C   0  0  0  0  0  0  0  0  0  0  0  0
    0.9211    2.4560   -1.4543 C   0  0  0  0  0  0  0  0  0  0  0  0
    0.0858    1.9324   -1.9448 H   0  0  0  0  0  0  0  0  0  0  0  0
    1.3729    3.7070   -1.9019 C   0  0  0  0  0  0  0  0  0  0  0  0
    0.8839    4.1881   -2.7627 H   0  0  0  0  0  0  0  0  0  0  0  0
    2.4486    4.3395   -1.2591 C   0  0  0  0  0  0  0  0  0  0  0  0
    2.8034    5.3194   -1.6133 H   0  0  0  0  0  0  0  0  0  0  0  0
    3.0789    3.7197   -0.1668 C   0  0  0  0  0  0  0  0  0  0  0  0
    3.9276    4.2112    0.3325 H   0  0  0  0  0  0  0  0  0  0  0  0
    2.6329    2.4697    0.2854 C   0  0  0  0  0  0  0  0  0  0  0  0
    3.1438    1.9865    1.1322 H   0  0  0  0  0  0  0  0  0  0  0  0
    2.2258   -0.9640    0.3270 C   0  0  0  0  0  0  0  0  0  0  0  0
    2.2729   -1.9894   -0.6387 C   0  0  0  0  0  0  0  0  0  0  0  0
    1.4730   -2.0694   -1.3903 H   0  0  0  0  0  0  0  0  0  0  0  0
    3.3162   -2.9244   -0.5986 C   0  0  0  0  0  0  0  0  0  0  0  0
    3.3485   -3.7313   -1.3459 H   0  0  0  0  0  0  0  0  0  0  0  0
    4.3042   -2.8439    0.3960 C   0  0  0  0  0  0  0  0  0  0  0  0
    5.1187   -3.5837    0.4237 H   0  0  0  0  0  0  0  0  0  0  0  0
    4.2469   -1.8305    1.3660 C   0  0  0  0  0  0  0  0  0  0  0  0
    5.0108   -1.7763    2.1562 H   0  0  0  0  0  0  0  0  0  0  0  0
    3.2069   -0.8900    1.3354 C   0  0  0  0  0  0  0  0  0  0  0  0
    3.1599   -0.1135    2.1147 H   0  0  0  0  0  0  0  0  0  0  0  0
  1 31  1  0  0  0  0
  1  5  1  0  0  0  0
  2  1  1  0  0  0  0
  4 16  1  0  0  0  0
  4 11  1  0  0  0  0
  5  6  1  0  0  0  0
  5  7  1  0  0  0  0
  8  5  1  0  0  0  0
  8  9  1  0  0  0  0
 10  8  1  0  0  0  0
 11  3  1  1  0  0  0
 11  8  1  0  0  0  0
 12 13  1  0  0  0  0
 12 15  1  0  0  0  0
 12  4  1  0  0  0  0
 14 12  1  0  0  0  0
 16 18  1  0  0  0  0
 16 17  1  0  0  0  0
 19 16  1  0  0  0  0
 20  1  1  0  0  0  0
 20 29  1  0  0  0  0
 21 20  2  0  0  0  0
 22 21  1  0  0  0  0
 23 21  1  0  0  0  0
 23 25  2  0  0  0  0
 24 23  1  0  0  0  0
 25 27  1  0  0  0  0
 26 25  1  0  0  0  0
 27 29  2  0  0  0  0
 27 28  1  0  0  0  0
 29 30  1  0  0  0  0
 31 40  1  0  0  0  0
 32 34  1  0  0  0  0
 32 31  2  0  0  0  0
 33 32  1  0  0  0  0
 34 36  2  0  0  0  0
 35 34  1  0  0  0  0
 36 37  1  0  0  0  0
 36 38  1  0  0  0  0
 38 39  1  0  0  0  0
 40 38  2  0  0  0  0
 40 41  1  0  0  0  0
M  END
