7,8
q = 0.0, confidence = 0.562

  8  7  0  0  0  0  0  0  0  0999 V2000
   -2.5190    3.1858   -0.1019 C   0  0  0  0  0  0  0  0  0  0  0  0
   -2.4716    3.5184   -1.1632 H   0  0  0  0  0  0  0  0  0  0  0  0
   -2.2359    4.0431    0.5452 H   0  0  0  0  0  0  0  0  0  0  0  0
   -3.9061    2.6411    0.2270 C   0  0  0  0  0  0  0  0  0  0  0  0
   -4.1137    2.6896    1.3242 H   0  0  0  0  0  0  0  0  0  0  0  0
   -4.7154    3.2070   -0.2824 H   0  0  0  0  0  0  0  0  0  0  0  0
   -1.5847    2.1121    0.0939 O   0  0  0  0  0  1  0  0  0  0  0  0
   -3.9541    1.2732   -0.1924 O   0  0  0  0  0  1  0  0  0  0  0  0
  1  7  1  0  0  0  0
  1  4  1  0  0  0  0
  1  3  1  0  0  0  0
  2  1  1  0  0  0  0
  4  5  1  0  0  0  0
  6  4  1  0  0  0  0
  8  4  1  0  0  0  0
M  END
