1,2
q = -1.0

 32 31  0  0  1  0  0  0  0  0999 V2000
   -0.0031    1.8595   -0.9346 O   0  5  0  0  0  0  0  0  0  0  0  0
   -0.2675    0.0574    1.1097 O   0  0  0  0  0  1  0  0  0  0  0  0
   -1.6898    1.9241    3.9760 C   0  0  0  0  0  0  0  0  0  0  0  0
   -0.8995    2.6905    4.1019 H   0  0  0  0  0  0  0  0  0  0  0  0
   -2.0029    1.6010    4.9888 H   0  0  0  0  0  0  0  0  0  0  0  0
   -2.5672    2.3985    3.4934 H   0  0  0  0  0  0  0  0  0  0  0  0
   -1.1878    0.7076    3.1855 C   0  0  0  0  0  0  0  0  0  0  0  0
   -2.3343   -0.3199    3.0360 C   0  0  0  0  0  0  0  0  0  0  0  0
   -3.1891    0.1095    2.4748 H   0  0  0  0  0  0  0  0  0  0  0  0
   -2.6974   -0.6296    4.0366 H   0  0  0  0  0  0  0  0  0  0  0  0
   -1.9823   -1.2186    2.4935 H   0  0  0  0  0  0  0  0  0  0  0  0
    0.0045    0.0615    3.9238 C   0  0  0  0  0  0  0  0  0  0  0  0
    0.3832   -0.8155    3.3647 H   0  0  0  0  0  0  0  0  0  0  0  0
   -0.3084   -0.2693    4.9344 H   0  0  0  0  0  0  0  0  0  0  0  0
    0.8379    0.7832    4.0418 H   0  0  0  0  0  0  0  0  0  0  0  0
   -0.7247    1.0709    1.7596 C   0  0  2  0  0  3  0  0  0  0  0  0
   -0.8138    2.3757    1.2472 C   0  0  0  0  0  0  0  0  0  0  0  0
   -1.1896    3.1683    1.8968 H   0  0  0  0  0  0  0  0  0  0  0  0
   -0.4202    2.7065   -0.0648 C   0  0  0  0  0  0  0  0  0  0  0  0
   -0.4631    4.1543   -0.5971 C   0  0  0  0  0  0  0  0  0  0  0  0
    0.9591    4.5113   -1.0842 C   0  0  0  0  0  0  0  0  0  0  0  0
    1.6825    4.4942   -0.2434 H   0  0  0  0  0  0  0  0  0  0  0  0
    0.9667    5.5302   -1.5204 H   0  0  0  0  0  0  0  0  0  0  0  0
    1.3016    3.7938   -1.8541 H   0  0  0  0  0  0  0  0  0  0  0  0
   -0.9142    5.1681    0.4638 C   0  0  0  0  0  0  0  0  0  0  0  0
   -1.9433    4.9651    0.8215 H   0  0  0  0  0  0  0  0  0  0  0  0
   -0.9129    6.1854    0.0242 H   0  0  0  0  0  0  0  0  0  0  0  0
   -0.2340    5.1829    1.3385 H   0  0  0  0  0  0  0  0  0  0  0  0
   -1.4478    4.1764   -1.7879 C   0  0  0  0  0  0  0  0  0  0  0  0
   -1.1470    3.4426   -2.5602 H   0  0  0  0  0  0  0  0  0  0  0  0
   -1.4689    5.1856   -2.2460 H   0  0  0  0  0  0  0  0  0  0  0  0
   -2.4773    3.9319   -1.4551 H   0  0  0  0  0  0  0  0  0  0  0  0
  1 19  1  0  0  0  0
  3  4  1  0  0  0  0
  3  5  1  0  0  0  0
  6  3  1  0  0  0  0
  7 12  1  0  0  0  0
  7  3  1  0  0  0  0
  8  7  1  0  0  0  0
  8 10  1  0  0  0  0
  9  8  1  0  0  0  0
 11  8  1  0  0  0  0
 12 15  1  0  0  0  0
 12 14  1  0  0  0  0
 13 12  1  0  0  0  0
 16  2  1  6  0  0  0
 16  7  1  0  0  0  0
 17 16  1  0  0  0  0
 17 18  1  0  0  0  0
 19 17  2  0  0  0  0
 20 19  1  0  0  0  0
 20 25  1  0  0  0  0
 21 20  1  0  0  0  0
 21 22  1  0  0  0  0
 23 21  1  0  0  0  0
 24 21  1  0  0  0  0
 25 26  1  0  0  0  0
 25 28  1  0  0  0  0
 27 25  1  0  0  0  0
 29 32  1  0  0  0  0
 29 20  1  0  0  0  0
 30 29  1  0  0  0  0
 31 29  1  0  0  0  0
M  CHG  1   1  -1
M  END
