1,4
q = -1.0

 14 14  0  0  1  0  0  0  0  0999 V2000
    0.7903   -1.6763   -0.0021 O   0  5  0  0  0  0  0  0  0  0  0  0
    2.4948   -3.1155   -0.1924 O   0  0  0  0  0  0  0  0  0  0  0  0
    2.0585   -1.9700   -0.1113 C   0  0  0  0  0  0  0  0  0  0  0  0
    1.5089    0.8728   -0.5614 O   0  0  0  0  0  1  0  0  0  0  0  0
    3.0718   -0.8317   -0.0650 C   0  0  1  0  0  3  0  0  0  0  0  0
    2.7229    0.4888   -0.2340 N   0  0  0  0  0  0  0  0  0  0  0  0
    4.4226   -1.1317    0.1593 C   0  0  0  0  0  0  0  0  0  0  0  0
    3.6357    1.5094   -0.1166 C   0  0  0  0  0  0  0  0  0  0  0  0
    5.3862   -0.1239    0.2469 C   0  0  0  0  0  0  0  0  0  0  0  0
    4.6568   -2.2014    0.2568 H   0  0  0  0  0  0  0  0  0  0  0  0
    4.9716    1.2151    0.1174 C   0  0  0  0  0  0  0  0  0  0  0  0
    3.1608    2.5094   -0.1883 H   0  0  0  0  0  0  0  0  0  0  0  0
    6.4423   -0.3721    0.4234 H   0  0  0  0  0  0  0  0  0  0  0  0
    5.6820    2.0491    0.2070 H   0  0  0  0  0  0  0  0  0  0  0  0
  2  3  2  0  0  0  0
  3  1  1  0  0  0  0
  4  6  1  0  0  0  0
  5  3  1  1  0  0  0
  5  7  1  0  0  0  0
  6  8  1  0  0  0  0
  6  5  1  0  0  0  0
  7  9  2  0  0  0  0
  7 10  1  0  0  0  0
  8 11  2  0  0  0  0
  9 13  1  0  0  0  0
 11 14  1  0  0  0  0
 11  9  1  0  0  0  0
 12  8  1  0  0  0  0
M  CHG  1   1  -1
M  END
