1,3
q = -1.0

 18 18  0  0  0  0  0  0  0  0999 V2000
   -0.6254   -0.8675   -2.4200 O   0  0  0  0  0  1  0  0  0  0  0  0
   -1.6140    0.8093   -3.4472 O   0  5  0  0  0  0  0  0  0  0  0  0
   -1.8160   -1.5847   -0.0049 O   0  5  0  0  0  0  0  0  0  0  0  0
   -1.6144   -0.1120   -2.5975 N   0  3  0  0  0  3  0  0  0  0  0  0
   -2.7663   -0.2849   -1.8121 C   0  0  0  0  0  0  0  0  0  0  0  0
   -2.7893   -0.9865   -0.6011 C   0  0  0  0  0  0  0  0  0  0  0  0
   -4.0742   -0.9987    0.1696 C   0  0  0  0  0  0  0  0  0  0  0  0
   -3.9960   -1.0460    1.5790 C   0  0  0  0  0  0  0  0  0  0  0  0
   -5.1638   -1.0492    2.3522 C   0  0  0  0  0  0  0  0  0  0  0  0
   -6.4252   -1.0184    1.7324 C   0  0  0  0  0  0  0  0  0  0  0  0
   -6.5099   -0.9836    0.3304 C   0  0  0  0  0  0  0  0  0  0  0  0
   -5.3426   -0.9744   -0.4467 C   0  0  0  0  0  0  0  0  0  0  0  0
   -3.5960    0.3596   -2.1181 H   0  0  0  0  0  0  0  0  0  0  0  0
   -2.9951   -1.0668    2.0362 H   0  0  0  0  0  0  0  0  0  0  0  0
   -5.0906   -1.0746    3.4509 H   0  0  0  0  0  0  0  0  0  0  0  0
   -7.3428   -1.0269    2.3415 H   0  0  0  0  0  0  0  0  0  0  0  0
   -7.4949   -0.9725   -0.1625 H   0  0  0  0  0  0  0  0  0  0  0  0
   -5.4091   -0.9708   -1.5453 H   0  0  0  0  0  0  0  0  0  0  0  0
  2  4  1  0  0  0  0
  4  1  1  0  0  0  0
  4  5  1  0  0  0  0
  5  6  2  0  0  0  0
  6  3  1  0  0  0  0
  6  7  1  0  0  0  0
  7  8  1  0  0  0  0
  8 14  1  0  0  0  0
  8  9  2  0  0  0  0
  9 15  1  0  0  0  0
 10 16  1  0  0  0  0
 10  9  1  0  0  0  0
 11 10  2  0  0  0  0
 12  7  2  0  0  0  0
 12 11  1  0  0  0  0
 13  5  1  0  0  0  0
 17 11  1  0  0  0  0
 18 12  1  0  0  0  0
M  CHG  3   2  -1   3  -1   4   1
M  END
