3,4
q = -1.0

 22 22  0  0  0  0  0  0  0  0999 V2000
   -6.3106   -1.6922   -0.9975 N   0  0  0  0  0  0  0  0  0  0  0  0
   -6.6128   -2.4453   -1.6175 H   0  0  0  0  0  0  0  0  0  0  0  0
   -1.5622   -1.9523    0.1895 O   0  5  0  0  0  0  0  0  0  0  0  0
   -1.2869   -0.7325   -1.6595 O   0  5  0  0  0  0  0  0  0  0  0  0
   -4.4411   -0.5622   -0.2774 O   0  0  0  0  0  0  0  0  0  0  0  0
   -1.8487   -1.6700   -1.0020 C   0  0  0  0  0  3  0  0  0  0  0  0
   -2.8215   -2.5315   -1.7508 C   0  0  0  0  0  0  0  0  0  0  0  0
   -2.3453   -3.3036   -2.3796 H   0  0  0  0  0  0  0  0  0  0  0  0
   -4.1736   -2.4638   -1.7365 C   0  0  0  0  0  0  0  0  0  0  0  0
   -4.7462   -3.1889   -2.3394 H   0  0  0  0  0  0  0  0  0  0  0  0
   -4.9434   -1.4829   -0.9405 C   0  0  0  0  0  0  0  0  0  0  0  0
   -7.3520   -0.9984   -0.3599 C   0  0  0  0  0  0  0  0  0  0  0  0
   -7.1355   -0.0708    0.6838 C   0  0  0  0  0  0  0  0  0  0  0  0
   -6.1111    0.1264    1.0145 H   0  0  0  0  0  0  0  0  0  0  0  0
   -8.2309    0.5729    1.2752 C   0  0  0  0  0  0  0  0  0  0  0  0
   -8.0482    1.2931    2.0877 H   0  0  0  0  0  0  0  0  0  0  0  0
   -9.5436    0.3100    0.8541 C   0  0  0  0  0  0  0  0  0  0  0  0
  -10.3946    0.8221    1.3267 H   0  0  0  0  0  0  0  0  0  0  0  0
   -9.7581   -0.6193   -0.1769 C   0  0  0  0  0  0  0  0  0  0  0  0
  -10.7800   -0.8423   -0.5190 H   0  0  0  0  0  0  0  0  0  0  0  0
   -8.6750   -1.2672   -0.7806 C   0  0  0  0  0  0  0  0  0  0  0  0
   -8.8499   -1.9912   -1.5930 H   0  0  0  0  0  0  0  0  0  0  0  0
  1 11  1  0  0  0  0
  1 12  1  0  0  0  0
  2  1  1  0  0  0  0
  4  6  1  0  0  0  0
  6  3  1  0  0  0  0
  7  9  2  0  0  0  0
  7  6  1  0  0  0  0
  8  7  1  0  0  0  0
  9 11  1  0  0  0  0
 10  9  1  0  0  0  0
 11  5  2  0  0  0  0
 12 13  1  0  0  0  0
 13 14  1  0  0  0  0
 13 15  2  0  0  0  0
 15 16  1  0  0  0  0
 17 15  1  0  0  0  0
 17 18  1  0  0  0  0
 19 17  2  0  0  0  0
 20 19  1  0  0  0  0
 21 12  2  0  0  0  0
 21 19  1  0  0  0  0
 22 21  1  0  0  0  0
M  CHG  2   3  -1   4  -1
M  END
