4,7
q = -2.0, confidence = 0.874

 48 49  0  0  0  0  0  0  0  0999 V2000
    0.8126    0.0023    0.7367 P   0  0  0  0  0  0  0  0  0  0  0  0
   -0.1393   -3.1093   -0.0370 S   0  0  0  0  0  0  0  0  0  0  0  0
   -1.0670    2.7612    1.1324 S   0  0  0  0  0  0  0  0  0  0  0  0
   -1.1843   -2.2116   -0.7862 O   0  0  0  0  0  1  0  0  0  0  0  0
   -0.1817   -2.9097    1.4429 O   0  0  0  0  0  1  0  0  0  0  0  0
   -0.2593   -4.4839   -0.5612 O   0  0  0  0  0  1  0  0  0  0  0  0
   -1.8785    1.8166    0.1795 O   0  0  0  0  0  1  0  0  0  0  0  0
   -0.8572    2.1643    2.4807 O   0  0  0  0  0  1  0  0  0  0  0  0
   -1.6721    4.1062    1.0592 O   0  0  0  0  0  1  0  0  0  0  0  0
    1.4856   -2.4764   -0.5170 C   0  0  0  0  0  0  0  0  0  0  0  0
    1.9600   -1.2141   -0.0924 C   0  0  0  0  0  0  0  0  0  0  0  0
    3.3454   -0.9778   -0.2349 C   0  0  0  0  0  0  0  0  0  0  0  0
    3.7885   -0.0752    0.2055 H   0  0  0  0  0  0  0  0  0  0  0  0
    4.2150   -1.8798   -0.8772 C   0  0  0  0  0  0  0  0  0  0  0  0
    3.6761   -3.0827   -1.3738 C   0  0  0  0  0  0  0  0  0  0  0  0
    4.3291   -3.8055   -1.8877 H   0  0  0  0  0  0  0  0  0  0  0  0
    2.3290   -3.3917   -1.1658 C   0  0  0  0  0  0  0  0  0  0  0  0
    1.9027   -4.3588   -1.4695 H   0  0  0  0  0  0  0  0  0  0  0  0
    5.6806   -1.5620   -1.0290 C   0  0  0  0  0  0  0  0  0  0  0  0
    6.3136   -2.4340   -0.7687 H   0  0  0  0  0  0  0  0  0  0  0  0
    5.9845   -0.7117   -0.3880 H   0  0  0  0  0  0  0  0  0  0  0  0
    5.9222   -1.2920   -2.0794 H   0  0  0  0  0  0  0  0  0  0  0  0
    0.5469    2.8350    0.3303 C   0  0  0  0  0  0  0  0  0  0  0  0
    1.3524    1.6928    0.0894 C   0  0  0  0  0  0  0  0  0  0  0  0
    2.4596    1.8919   -0.7652 C   0  0  0  0  0  0  0  0  0  0  0  0
    3.0613    1.0342   -1.0827 H   0  0  0  0  0  0  0  0  0  0  0  0
    2.8251    3.1471   -1.2887 C   0  0  0  0  0  0  0  0  0  0  0  0
    2.0386    4.2649   -0.9555 C   0  0  0  0  0  0  0  0  0  0  0  0
    2.3028    5.2630   -1.3387 H   0  0  0  0  0  0  0  0  0  0  0  0
    0.8946    4.0994   -0.1724 C   0  0  0  0  0  0  0  0  0  0  0  0
    0.2204    4.9388    0.0510 H   0  0  0  0  0  0  0  0  0  0  0  0
    4.0333    3.2844   -2.1796 C   0  0  0  0  0  0  0  0  0  0  0  0
    3.7888    3.8360   -3.1102 H   0  0  0  0  0  0  0  0  0  0  0  0
    4.4487    2.2981   -2.4633 H   0  0  0  0  0  0  0  0  0  0  0  0
    4.8388    3.8558   -1.6715 H   0  0  0  0  0  0  0  0  0  0  0  0
    1.4997   -0.0911    2.6060 C   0  0  0  0  0  0  0  0  0  0  0  0
    2.4746   -1.2754    2.7402 C   0  0  0  0  0  0  0  0  0  0  0  0
    2.7192   -1.3728    3.8188 H   0  0  0  0  0  0  0  0  0  0  0  0
    3.4266   -1.1327    2.1997 H   0  0  0  0  0  0  0  0  0  0  0  0
    2.0097   -2.2246    2.4123 H   0  0  0  0  0  0  0  0  0  0  0  0
    2.2179    1.2321    2.9067 C   0  0  0  0  0  0  0  0  0  0  0  0
    2.6538    1.1625    3.9260 H   0  0  0  0  0  0  0  0  0  0  0  0
    1.5134    2.0842    2.8937 H   0  0  0  0  0  0  0  0  0  0  0  0
    3.0474    1.4383    2.2013 H   0  0  0  0  0  0  0  0  0  0  0  0
    0.3763   -0.3268    3.6237 C   0  0  0  0  0  0  0  0  0  0  0  0
    0.8303   -0.2636    4.6353 H   0  0  0  0  0  0  0  0  0  0  0  0
   -0.0458   -1.3418    3.5129 H   0  0  0  0  0  0  0  0  0  0  0  0
   -0.4145    0.4353    3.5575 H   0  0  0  0  0  0  0  0  0  0  0  0
  1 36  1  0  0  0  0
  2  5  1  0  0  0  0
  3  8  1  0  0  0  0
  4  2  1  0  0  0  0
  6  2  1  0  0  0  0
  7  3  1  0  0  0  0
  9  3  1  0  0  0  0
 10 11  1  0  0  0  0
 10  2  1  0  0  0  0
 11  1  1  0  0  0  0
 12 11  2  0  0  0  0
 12 13  1  0  0  0  0
 14 12  1  0  0  0  0
 15 17  1  0  0  0  0
 15 14  2  0  0  0  0
 16 15  1  0  0  0  0
 17 10  2  0  0  0  0
 18 17  1  0  0  0  0
 19 14  1  0  0  0  0
 19 20  1  0  0  0  0
 19 21  1  0  0  0  0
 22 19  1  0  0  0  0
 23  3  1  0  0  0  0
 24 23  1  0  0  0  0
 24  1  1  0  0  0  0
 25 24  2  0  0  0  0
 26 25  1  0  0  0  0
 27 28  2  0  0  0  0
 27 25  1  0  0  0  0
 28 30  1  0  0  0  0
 29 28  1  0  0  0  0
 30 31  1  0  0  0  0
 30 23  2  0  0  0  0
 32 35  1  0  0  0  0
 32 27  1  0  0  0  0
 33 32  1  0  0  0  0
 34 32  1  0  0  0  0
 36 37  1  0  0  0  0
 36 41  1  0  0  0  0
 36 45  1  0  0  0  0
 37 38  1  0  0  0  0
 39 37  1  0  0  0  0
 40 37  1  0  0  0  0
 41 42  1  0  0  0  0
 43 41  1  0  0  0  0
 44 41  1  0  0  0  0
 45 46  1  0  0  0  0
 47 45  1  0  0  0  0
 48 45  1  0  0  0  0
M  END
