1,2
q = -1.0

 24 23  0  0  1  0  0  0  0  0999 V2000
   -0.7855   -0.9105   -1.7782 O   0  0  0  0  0  1  0  0  0  0  0  0
    0.3235    1.0530   -0.2207 O   0  5  0  0  0  0  0  0  0  0  0  0
    1.3883    2.6862   -1.3836 O   0  0  0  0  0  0  0  0  0  0  0  0
    0.6299    1.5735   -1.3234 C   0  0  0  0  0  0  0  0  0  0  0  0
    0.2473    1.0717   -2.6100 C   0  0  0  0  0  0  0  0  0  0  0  0
    0.5631    1.6375   -3.4945 H   0  0  0  0  0  0  0  0  0  0  0  0
   -0.4147   -0.1461   -2.7577 C   0  0  1  0  0  3  0  0  0  0  0  0
    1.9727    3.3098   -0.1832 C   0  0  0  0  0  0  0  0  0  0  0  0
    2.6977    4.5256   -0.7668 C   0  0  0  0  0  0  0  0  0  0  0  0
    3.4570    4.2054   -1.5069 H   0  0  0  0  0  0  0  0  0  0  0  0
    3.2054    5.0919    0.0382 H   0  0  0  0  0  0  0  0  0  0  0  0
    1.9802    5.1995   -1.2749 H   0  0  0  0  0  0  0  0  0  0  0  0
    0.8771    3.7550    0.7939 C   0  0  0  0  0  0  0  0  0  0  0  0
    0.1234    4.3769    0.2706 H   0  0  0  0  0  0  0  0  0  0  0  0
    1.3300    4.3705    1.5968 H   0  0  0  0  0  0  0  0  0  0  0  0
    0.3688    2.8872    1.2505 H   0  0  0  0  0  0  0  0  0  0  0  0
   -0.7339   -0.6853   -4.1312 C   0  0  0  0  0  0  0  0  0  0  0  0
   -1.8300   -0.8346   -4.2182 H   0  0  0  0  0  0  0  0  0  0  0  0
   -0.2673   -1.6845   -4.2507 H   0  0  0  0  0  0  0  0  0  0  0  0
   -0.3888   -0.0185   -4.9424 H   0  0  0  0  0  0  0  0  0  0  0  0
    2.9682    2.3435    0.4682 C   0  0  0  0  0  0  0  0  0  0  0  0
    2.4559    1.4670    0.9054 H   0  0  0  0  0  0  0  0  0  0  0  0
    3.5175    2.8655    1.2772 H   0  0  0  0  0  0  0  0  0  0  0  0
    3.7091    1.9949   -0.2790 H   0  0  0  0  0  0  0  0  0  0  0  0
  3  4  1  0  0  0  0
  3  8  1  0  0  0  0
  4  2  1  0  0  0  0
  5  4  2  0  0  0  0
  6  5  1  0  0  0  0
  7  5  1  0  0  0  0
  7  1  1  6  0  0  0
  8 21  1  0  0  0  0
  8 13  1  0  0  0  0
  9  8  1  0  0  0  0
  9 11  1  0  0  0  0
 10  9  1  0  0  0  0
 12  9  1  0  0  0  0
 13 16  1  0  0  0  0
 13 15  1  0  0  0  0
 14 13  1  0  0  0  0
 17  7  1  0  0  0  0
 18 17  1  0  0  0  0
 19 17  1  0  0  0  0
 20 17  1  0  0  0  0
 21 22  1  0  0  0  0
 21 23  1  0  0  0  0
 24 21  1  0  0  0  0
M  CHG  1   2  -1
M  END
