2,3
q = -1.0, confidence = 0.0

 20 21  0  0  1  0  0  0  0  0999 V2000
    0.8345    3.7587   -2.4888 S   0  0  0  0  0  0  0  0  0  0  0  0
    0.5585    1.2995    0.5695 O   0  5  0  0  0  0  0  0  0  0  0  0
   -0.3355   -0.0298   -1.9714 O   0  0  0  0  0  1  0  0  0  0  0  0
    1.2626    3.5374    0.1098 C   0  0  0  0  0  0  0  0  0  0  0  0
   -0.0628    1.1192   -2.4536 C   0  0  1  0  0  3  0  0  0  0  0  0
    0.4519    2.2038   -1.6955 C   0  0  0  0  0  0  0  0  0  0  0  0
    2.2241    6.1294    0.5334 C   0  0  0  0  0  0  0  0  0  0  0  0
    2.6030    7.1478    0.7103 H   0  0  0  0  0  0  0  0  0  0  0  0
    1.6466    3.9282    1.4079 C   0  0  0  0  0  0  0  0  0  0  0  0
    1.5616    3.1962    2.2254 H   0  0  0  0  0  0  0  0  0  0  0  0
    1.8491    5.7570   -0.7631 C   0  0  0  0  0  0  0  0  0  0  0  0
    1.9294    6.4676   -1.5990 H   0  0  0  0  0  0  0  0  0  0  0  0
    2.1255    5.2240    1.6163 C   0  0  0  0  0  0  0  0  0  0  0  0
    2.4299    5.5455    2.6235 H   0  0  0  0  0  0  0  0  0  0  0  0
    1.3653    4.4517   -0.9700 C   0  0  0  0  0  0  0  0  0  0  0  0
   -0.2843    1.2944   -3.9392 C   0  0  0  0  0  0  0  0  0  0  0  0
    0.6922    1.3870   -4.4605 H   0  0  0  0  0  0  0  0  0  0  0  0
   -0.8595    2.2178   -4.1563 H   0  0  0  0  0  0  0  0  0  0  0  0
   -0.8242    0.4155   -4.3348 H   0  0  0  0  0  0  0  0  0  0  0  0
    0.7353    2.2330   -0.2907 C   0  0  0  0  0  0  0  0  0  0  0  0
  1  6  1  0  0  0  0
  1 15  1  0  0  0  0
  4  9  1  0  0  0  0
  5  3  1  6  0  0  0
  5  6  1  0  0  0  0
  6 20  2  0  0  0  0
  7  8  1  0  0  0  0
  7 13  1  0  0  0  0
  9 13  2  0  0  0  0
  9 10  1  0  0  0  0
 11  7  2  0  0  0  0
 12 11  1  0  0  0  0
 13 14  1  0  0  0  0
 15 11  1  0  0  0  0
 15  4  2  0  0  0  0
 16  5  1  0  0  0  0
 17 16  1  0  0  0  0
 18 16  1  0  0  0  0
 19 16  1  0  0  0  0
 20  4  1  0  0  0  0
 20  2  1  0  0  0  0
M  CHG  1   2  -1
M  END
