3,5
q = -2.0, confidence = 0.828

 22 22  0  0  0  0  0  0  0  0999 V2000
    3.2355    1.6523    0.0363 S   0  0  0  0  0  0  0  0  0  0  0  0
    2.8835   -1.3490    0.5842 S   0  0  0  0  0  0  0  0  0  0  0  0
   -0.8459    1.4448   -1.2761 O   0  5  0  0  0  0  0  0  0  0  0  0
    1.1485    2.4123   -1.5006 O   0  0  0  0  0  0  0  0  0  0  0  0
   -0.7261   -1.4239   -1.2232 O   0  5  0  0  0  0  0  0  0  0  0  0
    1.2681   -2.0212   -1.9991 O   0  0  0  0  0  0  0  0  0  0  0  0
    0.4810    1.4064   -1.2541 C   0  0  0  0  0  0  0  0  0  0  0  0
    1.1368    0.1062   -0.8794 C   0  0  0  0  0  3  0  0  0  0  0  0
    0.5754   -1.2065   -1.4033 C   0  0  0  0  0  0  0  0  0  0  0  0
    2.3311    0.1421   -0.1895 C   0  0  0  0  0  3  0  0  0  0  0  0
    4.4388    1.2432    1.3657 C   0  0  0  0  0  0  0  0  0  0  0  0
    4.6676    2.2511    1.7694 H   0  0  0  0  0  0  0  0  0  0  0  0
    3.9236    0.6693    2.1633 H   0  0  0  0  0  0  0  0  0  0  0  0
    5.7372    0.5605    0.9106 C   0  0  0  0  0  0  0  0  0  0  0  0
    6.5438    0.8359    1.6248 H   0  0  0  0  0  0  0  0  0  0  0  0
    6.0343    0.9912   -0.0702 H   0  0  0  0  0  0  0  0  0  0  0  0
    5.6885   -0.9676    0.8188 C   0  0  0  0  0  0  0  0  0  0  0  0
    6.6700   -1.3323    0.4424 H   0  0  0  0  0  0  0  0  0  0  0  0
    5.5731   -1.3973    1.8381 H   0  0  0  0  0  0  0  0  0  0  0  0
    4.5915   -1.5442   -0.0740 C   0  0  0  0  0  0  0  0  0  0  0  0
    4.7101   -2.6416   -0.1823 H   0  0  0  0  0  0  0  0  0  0  0  0
    4.5922   -1.1160   -1.0961 H   0  0  0  0  0  0  0  0  0  0  0  0
  1 11  1  0  0  0  0
  3  7  1  0  0  0  0
  4  7  2  0  0  0  0
  6  9  2  0  0  0  0
  7  8  1  0  0  0  0
  8 10  1  0  0  0  0
  9  5  1  0  0  0  0
  9  8  1  0  0  0  0
 10  1  1  0  0  0  0
 10  2  1  0  0  0  0
 11 12  1  0  0  0  0
 11 13  1  0  0  0  0
 14 11  1  0  0  0  0
 14 15  1  0  0  0  0
 16 14  1  0  0  0  0
 17 14  1  0  0  0  0
 17 19  1  0  0  0  0
 18 17  1  0  0  0  0
 20  2  1  0  0  0  0
 20 17  1  0  0  0  0
 21 20  1  0  0  0  0
 22 20  1  0  0  0  0
M  CHG  2   3  -1   5  -1
M  END
