1,4
q = -1.0, confidence = 0.002

 29 29  0  0  0  0  0  0  0  0999 V2000
   -0.8249   -0.7624   -1.6299 O   0  5  0  0  0  0  0  0  0  0  0  0
   -9.3007   -2.1489   -0.9989 O   0  0  0  0  0  0  0  0  0  0  0  0
   -6.8173   -1.6276   -0.9860 N   0  0  0  0  0  0  0  0  0  0  0  0
   -2.0704    0.0013    0.0508 O   0  5  0  0  0  0  0  0  0  0  0  0
   -7.0024   -0.9293    0.0939 N   0  0  0  0  0  0  0  0  0  0  0  0
   -4.4084   -1.1526   -1.0083 C   0  0  0  0  0  0  0  0  0  0  0  0
   -4.4856   -0.5567   -0.0900 H   0  0  0  0  0  0  0  0  0  0  0  0
   -3.0462   -2.0826   -2.8071 C   0  0  0  0  0  0  0  0  0  0  0  0
   -2.0523   -2.1916   -3.2635 H   0  0  0  0  0  0  0  0  0  0  0  0
   -3.1618   -1.3130   -1.6308 C   0  0  0  0  0  0  0  0  0  0  0  0
   -1.9484   -0.6580   -1.0352 C   0  0  0  0  0  3  0  0  0  0  0  0
   -5.5467   -1.7612   -1.5687 C   0  0  0  0  0  0  0  0  0  0  0  0
   -5.4357   -2.5317   -2.7457 C   0  0  0  0  0  0  0  0  0  0  0  0
   -6.3330   -3.0052   -3.1734 H   0  0  0  0  0  0  0  0  0  0  0  0
   -4.1843   -2.6885   -3.3569 C   0  0  0  0  0  0  0  0  0  0  0  0
   -4.1012   -3.2932   -4.2724 H   0  0  0  0  0  0  0  0  0  0  0  0
   -8.2229   -0.8150    0.6322 C   0  0  0  0  0  0  0  0  0  0  0  0
  -10.7773   -1.3198    0.6754 C   0  0  0  0  0  0  0  0  0  0  0  0
  -11.5041   -1.8884    0.0664 H   0  0  0  0  0  0  0  0  0  0  0  0
  -11.0660   -0.2532    0.7501 H   0  0  0  0  0  0  0  0  0  0  0  0
  -10.7657   -1.6798    1.7228 H   0  0  0  0  0  0  0  0  0  0  0  0
   -8.2695    0.0197    1.8684 C   0  0  0  0  0  0  0  0  0  0  0  0
   -9.4177   -1.4649    0.0433 C   0  0  0  0  0  0  0  0  0  0  0  0
   -6.9555    0.6125    2.3533 C   0  0  0  0  0  0  0  0  0  0  0  0
   -7.1579    1.2000    3.2665 H   0  0  0  0  0  0  0  0  0  0  0  0
   -6.4975    1.2558    1.5762 H   0  0  0  0  0  0  0  0  0  0  0  0
   -6.2143   -0.1832    2.5660 H   0  0  0  0  0  0  0  0  0  0  0  0
   -9.3189    0.2268    2.4783 O   0  0  0  0  0  0  0  0  0  0  0  0
   -7.6838   -2.0804   -1.3865 H   0  0  0  0  0  0  0  0  0  0  0  0
  1 11  1  0  0  0  0
  2 23  2  0  0  0  0
  3  5  1  0  0  0  0
  5 17  2  0  0  0  0
  6  7  1  0  0  0  0
  8 10  1  0  0  0  0
  9  8  1  0  0  0  0
 10 11  1  0  0  0  0
 10  6  2  0  0  0  0
 11  4  1  0  0  0  0
 12  6  1  0  0  0  0
 12  3  1  0  0  0  0
 13 12  2  0  0  0  0
 14 13  1  0  0  0  0
 15  8  2  0  0  0  0
 15 13  1  0  0  0  0
 16 15  1  0  0  0  0
 17 22  1  0  0  0  0
 18 20  1  0  0  0  0
 18 21  1  0  0  0  0
 19 18  1  0  0  0  0
 22 24  1  0  0  0  0
 22 28  2  0  0  0  0
 23 17  1  0  0  0  0
 23 18  1  0  0  0  0
 24 27  1  0  0  0  0
 24 25  1  0  0  0  0
 26 24  1  0  0  0  0
 29  3  1  0  0  0  0
M  CHG  2   1  -1   4  -1
M  END
