5,6
q = -1.0, confidence = 0.0

 18 18  0  0  1  0  0  0  0  0999 V2000
   -2.5058   -1.5123   -2.0645 S   0  0  0  0  0  0  0  0  0  0  0  0
    0.7271    4.4050    0.9394 F   0  0  0  0  0  0  0  0  0  0  0  0
    1.2643    4.7579   -1.1463 F   0  0  0  0  0  0  0  0  0  0  0  0
   -0.8334    4.7967   -0.5376 F   0  0  0  0  0  0  0  0  0  0  0  0
    1.3926    2.0637   -0.3362 O   0  5  0  0  0  0  0  0  0  0  0  0
   -0.0655   -0.1202   -1.4537 O   0  0  0  0  0  1  0  0  0  0  0  0
    0.2985    2.6543   -0.6149 C   0  0  0  0  0  0  0  0  0  0  0  0
   -0.8866    2.1054   -1.1145 C   0  0  0  0  0  0  0  0  0  0  0  0
   -1.7546    2.7661   -1.2124 H   0  0  0  0  0  0  0  0  0  0  0  0
   -1.0270    0.7203   -1.4373 C   0  0  2  0  0  3  0  0  0  0  0  0
    0.3492    4.1694   -0.3396 C   0  0  0  0  0  0  0  0  0  0  0  0
   -2.3705    0.1961   -1.7243 C   0  0  0  0  0  0  0  0  0  0  0  0
   -3.6252    0.8014   -1.6875 C   0  0  0  0  0  0  0  0  0  0  0  0
   -3.7702    1.8656   -1.4606 H   0  0  0  0  0  0  0  0  0  0  0  0
   -4.6848   -0.1107   -1.9378 C   0  0  0  0  0  0  0  0  0  0  0  0
   -5.7483    0.1647   -1.9468 H   0  0  0  0  0  0  0  0  0  0  0  0
   -4.2248   -1.4007   -2.1633 C   0  0  0  0  0  0  0  0  0  0  0  0
   -4.8189   -2.2964   -2.3845 H   0  0  0  0  0  0  0  0  0  0  0  0
  1 12  1  0  0  0  0
  3 11  1  0  0  0  0
  4 11  1  0  0  0  0
  7 11  1  0  0  0  0
  7  5  1  0  0  0  0
  8  7  2  0  0  0  0
  9  8  1  0  0  0  0
 10  6  1  1  0  0  0
 10  8  1  0  0  0  0
 11  2  1  0  0  0  0
 12 13  2  0  0  0  0
 12 10  1  0  0  0  0
 13 14  1  0  0  0  0
 15 13  1  0  0  0  0
 16 15  1  0  0  0  0
 17  1  1  0  0  0  0
 17 15  2  0  0  0  0
 18 17  1  0  0  0  0
M  CHG  1   5  -1
M  END
