1,2
q = -1.0, confidence = 0.004

 14 13  0  0  1  0  0  0  0  0999 V2000
    0.3022    1.2399   -1.9786 O   0  0  0  0  0  1  0  0  0  0  0  0
   -1.2082    1.5821    0.6158 O   0  5  0  0  0  0  0  0  0  0  0  0
   -3.5420    2.8918    1.1903 F   0  0  0  0  0  0  0  0  0  0  0  0
   -2.8481    4.6554    0.1094 F   0  0  0  0  0  0  0  0  0  0  0  0
   -1.8010    3.9969    1.9088 F   0  0  0  0  0  0  0  0  0  0  0  0
   -2.4421    3.5603    0.7938 C   0  0  0  0  0  0  0  0  0  0  0  0
   -1.5096    2.6405   -0.0218 C   0  0  0  0  0  0  0  0  0  0  0  0
   -1.0940    3.0769   -1.2920 C   0  0  0  0  0  0  0  0  0  0  0  0
   -1.4770    4.0487   -1.6262 H   0  0  0  0  0  0  0  0  0  0  0  0
   -0.2176    2.3846   -2.1783 C   0  0  2  0  0  3  0  0  0  0  0  0
    0.1276    3.0290   -3.5049 C   0  0  0  0  0  0  0  0  0  0  0  0
    1.2273    3.0190   -3.6415 H   0  0  0  0  0  0  0  0  0  0  0  0
   -0.2497    4.0639   -3.5952 H   0  0  0  0  0  0  0  0  0  0  0  0
   -0.2972    2.4188   -4.3296 H   0  0  0  0  0  0  0  0  0  0  0  0
  4  6  1  0  0  0  0
  6  3  1  0  0  0  0
  6  5  1  0  0  0  0
  7  2  1  0  0  0  0
  7  6  1  0  0  0  0
  8  7  2  0  0  0  0
  9  8  1  0  0  0  0
 10  1  1  6  0  0  0
 10  8  1  0  0  0  0
 11 10  1  0  0  0  0
 12 11  1  0  0  0  0
 13 11  1  0  0  0  0
 14 11  1  0  0  0  0
M  CHG  1   2  -1
M  END
