1,2
q = -1.0

 17 17  0  0  0  0  0  0  0  0999 V2000
   -1.6790    1.0913    0.8321 O   0  5  0  0  0  0  0  0  0  0  0  0
   -1.8352   -0.0225   -1.0818 O   0  5  0  0  0  0  0  0  0  0  0  0
   -3.0818   -2.1604   -0.5957 O   0  0  0  0  0  0  0  0  0  0  0  0
   -5.0447   -2.7244    0.3112 O   0  0  0  0  0  0  0  0  0  0  0  0
   -3.8785    0.7323   -0.0644 C   0  0  0  0  0  0  0  0  0  0  0  0
   -4.4242    2.0213    0.0963 C   0  0  0  0  0  0  0  0  0  0  0  0
   -3.7380    2.8756    0.1898 H   0  0  0  0  0  0  0  0  0  0  0  0
   -5.8100    2.2139    0.1299 C   0  0  0  0  0  0  0  0  0  0  0  0
   -6.2191    3.2303    0.2318 H   0  0  0  0  0  0  0  0  0  0  0  0
   -6.6699    1.1064    0.0522 C   0  0  0  0  0  0  0  0  0  0  0  0
   -7.7604    1.2468    0.0904 H   0  0  0  0  0  0  0  0  0  0  0  0
   -6.1358   -0.1821   -0.0479 C   0  0  0  0  0  0  0  0  0  0  0  0
   -6.7851   -1.0694   -0.0513 H   0  0  0  0  0  0  0  0  0  0  0  0
   -4.7439   -0.3963   -0.1275 C   0  0  0  0  0  0  0  0  0  0  0  0
   -2.3857    0.6187   -0.0987 C   0  0  0  0  0  3  0  0  0  0  0  0
   -4.3175   -1.8530   -0.1206 C   0  0  0  0  0  0  0  0  0  0  0  0
   -2.6593   -1.3511   -1.0447 H   0  0  0  0  0  0  0  0  0  0  0  0
  2 15  1  0  0  0  0
  3 16  1  0  0  0  0
  5  6  1  0  0  0  0
  6  8  2  0  0  0  0
  6  7  1  0  0  0  0
  8  9  1  0  0  0  0
 10 11  1  0  0  0  0
 10  8  1  0  0  0  0
 12 10  2  0  0  0  0
 13 12  1  0  0  0  0
 14 16  1  0  0  0  0
 14  5  2  0  0  0  0
 14 12  1  0  0  0  0
 15  5  1  0  0  0  0
 15  1  1  0  0  0  0
 16  4  2  0  0  0  0
 17  3  1  0  0  0  0
M  CHG  2   1  -1   2  -1
M  END
