1,2
q = -1.0, confidence = 0.024

 23 22  0  0  1  0  0  0  0  0999 V2000
   -1.9601   -0.6063   -0.0833 O   0  0  0  0  0  1  0  0  0  0  0  0
   -1.8869    2.0424    0.6280 O   0  5  0  0  0  0  0  0  0  0  0  0
   -4.0056   -1.5442   -0.7683 C   0  0  0  0  0  0  0  0  0  0  0  0
   -3.1938   -0.3217   -0.3286 C   0  0  1  0  0  3  0  0  0  0  0  0
   -3.8042    0.9207   -0.2007 C   0  0  0  0  0  0  0  0  0  0  0  0
   -4.8620    1.0056   -0.4727 H   0  0  0  0  0  0  0  0  0  0  0  0
   -3.1188    2.0723    0.2759 C   0  0  0  0  0  0  0  0  0  0  0  0
   -3.8152    3.4363    0.3457 C   0  0  0  0  0  0  0  0  0  0  0  0
   -5.1638    3.3194    1.0846 C   0  0  0  0  0  0  0  0  0  0  0  0
   -5.8657    2.6315    0.5732 H   0  0  0  0  0  0  0  0  0  0  0  0
   -5.0221    2.9566    2.1224 H   0  0  0  0  0  0  0  0  0  0  0  0
   -5.6502    4.3150    1.1320 H   0  0  0  0  0  0  0  0  0  0  0  0
   -4.0435    3.8943   -1.1159 C   0  0  0  0  0  0  0  0  0  0  0  0
   -4.7290    3.2112   -1.6558 H   0  0  0  0  0  0  0  0  0  0  0  0
   -4.4911    4.9095   -1.1250 H   0  0  0  0  0  0  0  0  0  0  0  0
   -3.0857    3.9233   -1.6724 H   0  0  0  0  0  0  0  0  0  0  0  0
   -2.9134    4.4493    1.0691 C   0  0  0  0  0  0  0  0  0  0  0  0
   -2.6981    4.1266    2.1066 H   0  0  0  0  0  0  0  0  0  0  0  0
   -1.9444    4.5681    0.5481 H   0  0  0  0  0  0  0  0  0  0  0  0
   -3.4168    5.4360    1.1055 H   0  0  0  0  0  0  0  0  0  0  0  0
   -3.3553   -2.2336   -1.7256 F   0  0  0  0  0  0  0  0  0  0  0  0
   -5.2230   -1.2017   -1.2510 F   0  0  0  0  0  0  0  0  0  0  0  0
   -4.2036   -2.3795    0.2796 F   0  0  0  0  0  0  0  0  0  0  0  0
  3  4  1  0  0  0  0
  3 23  1  0  0  0  0
  4  5  1  0  0  0  0
  4  1  1  1  0  0  0
  5  7  2  0  0  0  0
  6  5  1  0  0  0  0
  7  8  1  0  0  0  0
  7  2  1  0  0  0  0
  8 17  1  0  0  0  0
  8  9  1  0  0  0  0
  9 12  1  0  0  0  0
  9 11  1  0  0  0  0
 10  9  1  0  0  0  0
 13  8  1  0  0  0  0
 14 13  1  0  0  0  0
 15 13  1  0  0  0  0
 16 13  1  0  0  0  0
 17 20  1  0  0  0  0
 17 18  1  0  0  0  0
 19 17  1  0  0  0  0
 21  3  1  0  0  0  0
 22  3  1  0  0  0  0
M  CHG  1   2  -1
M  END
