2,3
q = -1.0

  9  8  0  0  1  0  0  0  0  0999 V2000
    0.2858    3.6712    0.1879 N   0  0  0  0  0  0  0  0  0  0  0  0
   -0.1802    1.8590    1.4179 O   0  0  0  0  0  1  0  0  0  0  0  0
   -0.2424    3.0741   -0.8896 O   0  0  0  0  0  1  0  0  0  0  0  0
    0.8735    3.7287    2.5637 C   0  0  0  0  0  0  0  0  0  0  0  0
    0.1213    3.7537    3.3761 H   0  0  0  0  0  0  0  0  0  0  0  0
    1.1972    4.7622    2.3352 H   0  0  0  0  0  0  0  0  0  0  0  0
    1.7420    3.1508    2.9370 H   0  0  0  0  0  0  0  0  0  0  0  0
    0.2870    3.0114    1.3767 C   0  0  1  0  0  3  0  0  0  0  0  0
    0.6489    4.6166    0.0344 H   0  0  0  0  0  0  0  0  0  0  0  0
  1  8  1  0  0  0  0
  3  1  1  0  0  0  0
  4  7  1  0  0  0  0
  4  5  1  0  0  0  0
  6  4  1  0  0  0  0
  8  2  1  6  0  0  0
  8  4  1  0  0  0  0
  9  1  1  0  0  0  0
M  END
