1,2
q = -1.0

 17 17  0  0  0  0  0  0  0  0999 V2000
   -2.1015   -1.2497    0.1301 O   0  5  0  0  0  0  0  0  0  0  0  0
   -2.5027    0.3696   -1.3459 O   0  5  0  0  0  0  0  0  0  0  0  0
   -2.9181   -0.5229   -0.5422 C   0  0  0  0  0  3  0  0  0  0  0  0
   -4.3937   -0.7260   -0.3550 C   0  0  0  0  0  0  0  0  0  0  0  0
   -5.3112    0.0877   -1.0450 C   0  0  0  0  0  0  0  0  0  0  0  0
   -4.9183    0.8631   -1.7184 H   0  0  0  0  0  0  0  0  0  0  0  0
   -6.6866   -0.1068   -0.8574 C   0  0  0  0  0  0  0  0  0  0  0  0
   -7.4110    0.5280   -1.3909 H   0  0  0  0  0  0  0  0  0  0  0  0
   -7.1457   -1.1089    0.0109 C   0  0  0  0  0  0  0  0  0  0  0  0
   -8.2293   -1.2533    0.1525 H   0  0  0  0  0  0  0  0  0  0  0  0
   -6.2415   -1.9392    0.7086 C   0  0  0  0  0  0  0  0  0  0  0  0
   -4.8648   -1.7303    0.5129 C   0  0  0  0  0  0  0  0  0  0  0  0
   -4.1193   -2.3504    1.0339 H   0  0  0  0  0  0  0  0  0  0  0  0
   -6.7455   -3.0290    1.6229 C   0  0  0  0  0  0  0  0  0  0  0  0
   -7.2134   -3.8540    1.0443 H   0  0  0  0  0  0  0  0  0  0  0  0
   -7.5192   -2.6497    2.3218 H   0  0  0  0  0  0  0  0  0  0  0  0
   -5.9250   -3.4674    2.2231 H   0  0  0  0  0  0  0  0  0  0  0  0
  2  3  1  0  0  0  0
  3  4  1  0  0  0  0
  3  1  1  0  0  0  0
  4 12  1  0  0  0  0
  5  7  1  0  0  0  0
  5  4  2  0  0  0  0
  6  5  1  0  0  0  0
  7  9  2  0  0  0  0
  8  7  1  0  0  0  0
  9 10  1  0  0  0  0
  9 11  1  0  0  0  0
 11 14  1  0  0  0  0
 12 11  2  0  0  0  0
 12 13  1  0  0  0  0
 14 17  1  0  0  0  0
 14 16  1  0  0  0  0
 15 14  1  0  0  0  0
M  CHG  2   1  -1   2  -1
M  END
