2,4
q = -2, confidence = 1.0

  6  5  0  0  0  0  0  0  0  0999 V2000
    0.5452   -2.4731   -1.1007 P   0  0  0  0  0  0  0  0  0  0  0  0
    0.2268   -0.9986   -1.7180 O   0  0  0  0  0  1  0  0  0  0  0  0
    1.8206   -3.1417   -1.5127 O   0  0  0  0  0  0  0  0  0  0  0  0
    0.3549   -2.0256    0.4452 O   0  0  0  0  0  1  0  0  0  0  0  0
   -0.7945   -3.3596   -1.4504 O   0  0  0  0  0  0  0  0  0  0  0  0
   -0.5071   -4.1930   -1.8729 H   0  0  0  0  0  0  0  0  0  0  0  0
  1  4  1  0  0  0  0
  2  1  1  0  0  0  0
  3  1  2  0  0  0  0
  5  1  1  0  0  0  0
  6  5  1  0  0  0  0
M  END
