2,3
q = -1.0

 14 14  0  0  0  0  0  0  0  0999 V2000
   -7.3035    0.0455   -0.3711 Cl  0  0  0  0  0  0  0  0  0  0  0  0
   -1.6077   -0.2137    1.2003 O   0  5  0  0  0  0  0  0  0  0  0  0
   -1.1258    1.4117   -1.1104 O   0  5  0  0  0  0  0  0  0  0  0  0
   -2.8430   -0.1268    0.8159 C   0  0  0  0  0  0  0  0  0  0  0  0
   -3.2792    0.5910   -0.3698 C   0  0  0  0  0  0  0  0  0  0  0  0
   -4.6598    0.6349   -0.7188 C   0  0  0  0  0  3  0  0  0  0  0  0
   -4.9673    1.1873   -1.6204 H   0  0  0  0  0  0  0  0  0  0  0  0
   -5.6102   -0.0034    0.0621 C   0  0  0  0  0  0  0  0  0  0  0  0
   -5.2091   -0.7004    1.2321 C   0  0  0  0  0  0  0  0  0  0  0  0
   -5.9755   -1.1982    1.8446 H   0  0  0  0  0  0  0  0  0  0  0  0
   -3.8716   -0.7542    1.5958 C   0  0  0  0  0  0  0  0  0  0  0  0
   -3.5520   -1.2942    2.4992 H   0  0  0  0  0  0  0  0  0  0  0  0
   -2.3697    1.3256   -1.2115 C   0  0  0  0  0  0  0  0  0  0  0  0
   -2.8591    1.8977   -2.0461 H   0  0  0  0  0  0  0  0  0  0  0  0
  1  8  1  0  0  0  0
  4  2  1  0  0  0  0
  4 11  2  0  0  0  0
  5  4  1  0  0  0  0
  6  5  1  0  0  0  0
  6  8  1  0  0  0  0
  7  6  1  0  0  0  0
  8  9  2  0  0  0  0
  9 11  1  0  0  0  0
  9 10  1  0  0  0  0
 11 12  1  0  0  0  0
 13  3  1  0  0  0  0
 13  5  2  0  0  0  0
 14 13  1  0  0  0  0
M  CHG  2   2  -1   3  -1
M  END
