2,3
q = -1.0

 14 14  0  0  1  0  0  0  0  0999 V2000
    7.3036   -0.0460    0.3708 Cl  0  0  0  0  0  0  0  0  0  0  0  0
    1.6077    0.2139   -1.2002 O   0  0  0  0  0  1  0  0  0  0  0  0
    1.1257   -1.4114    1.1105 O   0  5  0  0  0  0  0  0  0  0  0  0
    2.8430    0.1269   -0.8159 C   0  0  1  0  0  3  0  0  0  0  0  0
    3.2792   -0.5910    0.3697 C   0  0  0  0  0  0  0  0  0  0  0  0
    4.6598   -0.6351    0.7187 C   0  0  0  0  0  0  0  0  0  0  0  0
    4.9673   -1.1876    1.6202 H   0  0  0  0  0  0  0  0  0  0  0  0
    5.6102    0.0032   -0.0623 C   0  0  0  0  0  0  0  0  0  0  0  0
    5.2091    0.7002   -1.2322 C   0  0  0  0  0  0  0  0  0  0  0  0
    5.9756    1.1979   -1.8447 H   0  0  0  0  0  0  0  0  0  0  0  0
    3.8716    0.7542   -1.5958 C   0  0  0  0  0  0  0  0  0  0  0  0
    3.5521    1.2942   -2.4991 H   0  0  0  0  0  0  0  0  0  0  0  0
    2.3697   -1.3255    1.2116 C   0  0  0  0  0  0  0  0  0  0  0  0
    2.8591   -1.8977    2.0460 H   0  0  0  0  0  0  0  0  0  0  0  0
  3 13  1  0  0  0  0
  4  2  1  6  0  0  0
  4  5  1  0  0  0  0
  5  6  1  0  0  0  0
  5 13  2  0  0  0  0
  6  7  1  0  0  0  0
  8  1  1  0  0  0  0
  8  6  2  0  0  0  0
  9  8  1  0  0  0  0
 10  9  1  0  0  0  0
 11  9  2  0  0  0  0
 11  4  1  0  0  0  0
 12 11  1  0  0  0  0
 13 14  1  0  0  0  0
M  CHG  1   3  -1
M  END
