1,2
q = -1.0

 29 30  0  0  1  0  0  0  0  0999 V2000
   -0.6231    0.5629    0.9888 O   0  0  0  0  0  1  0  0  0  0  0  0
    1.6252    0.1330   -0.4623 O   0  5  0  0  0  0  0  0  0  0  0  0
    0.8786    3.6704   -0.0204 O   0  0  0  0  0  0  0  0  0  0  0  0
    1.7870    3.8727   -0.3236 H   0  0  0  0  0  0  0  0  0  0  0  0
   -0.3274    1.8194    0.8912 C   0  0  2  0  0  3  0  0  0  0  0  0
   -1.2488    2.7276    1.6204 C   0  0  0  0  0  0  0  0  0  0  0  0
   -2.6152    2.3718    1.6977 C   0  0  0  0  0  0  0  0  0  0  0  0
   -2.9674    1.4813    1.1582 H   0  0  0  0  0  0  0  0  0  0  0  0
   -3.5201    3.1737    2.4008 C   0  0  0  0  0  0  0  0  0  0  0  0
   -4.5850    2.8984    2.4320 H   0  0  0  0  0  0  0  0  0  0  0  0
   -3.0707    4.3324    3.0562 C   0  0  0  0  0  0  0  0  0  0  0  0
   -3.7805    4.9620    3.6136 H   0  0  0  0  0  0  0  0  0  0  0  0
   -1.7137    4.6883    2.9932 C   0  0  0  0  0  0  0  0  0  0  0  0
   -1.3571    5.5924    3.5089 H   0  0  0  0  0  0  0  0  0  0  0  0
   -0.8067    3.9006    2.2728 C   0  0  0  0  0  0  0  0  0  0  0  0
    0.2503    4.1890    2.2173 H   0  0  0  0  0  0  0  0  0  0  0  0
    0.7579    2.3049    0.1054 C   0  0  0  0  0  0  0  0  0  0  0  0
    1.6547    1.4286   -0.5496 C   0  0  0  0  0  0  0  0  0  0  0  0
    2.7855    1.9615   -1.3609 C   0  0  0  0  0  0  0  0  0  0  0  0
    2.6078    2.9954   -2.3104 C   0  0  0  0  0  0  0  0  0  0  0  0
    1.6093    3.4287   -2.4724 H   0  0  0  0  0  0  0  0  0  0  0  0
    3.6935    3.4407   -3.0796 C   0  0  0  0  0  0  0  0  0  0  0  0
    3.5417    4.2348   -3.8258 H   0  0  0  0  0  0  0  0  0  0  0  0
    4.9637    2.8695   -2.9074 C   0  0  0  0  0  0  0  0  0  0  0  0
    5.8140    3.2262   -3.5074 H   0  0  0  0  0  0  0  0  0  0  0  0
    5.1465    1.8386   -1.9694 C   0  0  0  0  0  0  0  0  0  0  0  0
    6.1426    1.3919   -1.8313 H   0  0  0  0  0  0  0  0  0  0  0  0
    4.0658    1.3813   -1.2067 C   0  0  0  0  0  0  0  0  0  0  0  0
    4.2017    0.5808   -0.4639 H   0  0  0  0  0  0  0  0  0  0  0  0
  3 17  1  0  0  0  0
  4  3  1  0  0  0  0
  5  1  1  6  0  0  0
  5  6  1  0  0  0  0
  6  7  2  0  0  0  0
  6 15  1  0  0  0  0
  7  9  1  0  0  0  0
  8  7  1  0  0  0  0
  9 10  1  0  0  0  0
  9 11  2  0  0  0  0
 11 12  1  0  0  0  0
 13 11  1  0  0  0  0
 13 14  1  0  0  0  0
 15 13  2  0  0  0  0
 16 15  1  0  0  0  0
 17  5  1  0  0  0  0
 18  2  1  0  0  0  0
 18 17  2  0  0  0  0
 19 28  1  0  0  0  0
 19 18  1  0  0  0  0
 20 19  2  0  0  0  0
 21 20  1  0  0  0  0
 22 24  2  0  0  0  0
 22 20  1  0  0  0  0
 23 22  1  0  0  0  0
 24 26  1  0  0  0  0
 25 24  1  0  0  0  0
 26 27  1  0  0  0  0
 26 28  2  0  0  0  0
 28 29  1  0  0  0  0
M  CHG  1   2  -1
M  END
