2,5
q = 0.0, confidence = 0.986

 44 43  0  0  1  0  0  0  0  0999 V2000
    1.1896   -0.7258   -0.0214 P   0  0  0  0  0  4  0  0  0  0  0  0
   -0.0765   -1.4298    0.4127 O   0  0  0  0  0  1  0  0  0  0  0  0
    1.8577    0.2447    1.0983 O   0  0  0  0  0  0  0  0  0  0  0  0
    2.3020   -1.8111   -0.4596 O   0  0  0  0  0  0  0  0  0  0  0  0
   -1.3008    1.0375   -0.8002 O   0  0  0  0  0  1  0  0  0  0  0  0
    0.1900    2.7405   -0.8413 N   0  0  0  0  0  0  0  0  0  0  0  0
    0.9326    0.4306   -1.4034 C   0  0  0  0  0  0  0  0  0  0  0  0
   -0.1322    1.4342   -0.9967 C   0  0  1  0  0  3  0  0  0  0  0  0
    1.5582    3.2610   -0.9065 C   0  0  0  0  0  0  0  0  0  0  0  0
    1.9743    3.7172   -2.3043 C   0  0  0  0  0  0  0  0  0  0  0  0
   -0.8844    3.6801   -0.4789 C   0  0  0  0  0  0  0  0  0  0  0  0
   -1.0709    3.8106    1.0314 C   0  0  0  0  0  0  0  0  0  0  0  0
    1.5061    0.0958    2.5280 C   0  0  0  0  0  0  0  0  0  0  0  0
    2.3259   -1.0282    3.1403 C   0  0  0  0  0  0  0  0  0  0  0  0
    1.7377    1.4592    3.1525 C   0  0  0  0  0  0  0  0  0  0  0  0
    3.7140   -1.4795   -0.6569 C   0  0  0  0  0  0  0  0  0  0  0  0
    4.5246   -2.4830    0.1489 C   0  0  0  0  0  0  0  0  0  0  0  0
    4.0111   -1.5180   -2.1501 C   0  0  0  0  0  0  0  0  0  0  0  0
    0.4945   -0.1942   -2.2123 H   0  0  0  0  0  0  0  0  0  0  0  0
    1.8931    0.8639   -1.7316 H   0  0  0  0  0  0  0  0  0  0  0  0
    1.6081    4.1108   -0.1955 H   0  0  0  0  0  0  0  0  0  0  0  0
    2.2522    2.5008   -0.4969 H   0  0  0  0  0  0  0  0  0  0  0  0
    2.9938    4.1515   -2.2845 H   0  0  0  0  0  0  0  0  0  0  0  0
    1.2821    4.4899   -2.6945 H   0  0  0  0  0  0  0  0  0  0  0  0
    1.9732    2.8737   -3.0240 H   0  0  0  0  0  0  0  0  0  0  0  0
   -0.6340    4.6560   -0.9443 H   0  0  0  0  0  0  0  0  0  0  0  0
   -1.8171    3.3105   -0.9452 H   0  0  0  0  0  0  0  0  0  0  0  0
   -1.8696    4.5462    1.2525 H   0  0  0  0  0  0  0  0  0  0  0  0
   -0.1436    4.1609    1.5310 H   0  0  0  0  0  0  0  0  0  0  0  0
   -1.3696    2.8355    1.4657 H   0  0  0  0  0  0  0  0  0  0  0  0
    0.4242   -0.1528    2.5646 H   0  0  0  0  0  0  0  0  0  0  0  0
    2.0722   -1.1380    4.2134 H   0  0  0  0  0  0  0  0  0  0  0  0
    3.4129   -0.8202    3.0602 H   0  0  0  0  0  0  0  0  0  0  0  0
    2.1048   -1.9944    2.6449 H   0  0  0  0  0  0  0  0  0  0  0  0
    1.4597    1.4331    4.2244 H   0  0  0  0  0  0  0  0  0  0  0  0
    1.1082    2.2218    2.6546 H   0  0  0  0  0  0  0  0  0  0  0  0
    2.8024    1.7606    3.0737 H   0  0  0  0  0  0  0  0  0  0  0  0
    3.8908   -0.4582   -0.2520 H   0  0  0  0  0  0  0  0  0  0  0  0
    5.6086   -2.2883    0.0272 H   0  0  0  0  0  0  0  0  0  0  0  0
    4.3108   -3.5141   -0.1966 H   0  0  0  0  0  0  0  0  0  0  0  0
    4.2745   -2.4167    1.2247 H   0  0  0  0  0  0  0  0  0  0  0  0
    5.0799   -1.2922   -2.3362 H   0  0  0  0  0  0  0  0  0  0  0  0
    3.4018   -0.7793   -2.7073 H   0  0  0  0  0  0  0  0  0  0  0  0
    3.7886   -2.5235   -2.5592 H   0  0  0  0  0  0  0  0  0  0  0  0
  1  2  1  0  0  0  0
  1  3  1  0  0  0  0
  3 13  1  0  0  0  0
  4  1  1  0  0  0  0
  6 11  1  0  0  0  0
  7  8  1  0  0  0  0
  7  1  1  0  0  0  0
  8  6  1  0  0  0  0
  8  5  1  1  0  0  0
  9  6  1  0  0  0  0
  9 22  1  0  0  0  0
  9 21  1  0  0  0  0
 10 23  1  0  0  0  0
 10  9  1  0  0  0  0
 11 12  1  0  0  0  0
 12 28  1  0  0  0  0
 12 30  1  0  0  0  0
 12 29  1  0  0  0  0
 13 31  1  0  0  0  0
 13 14  1  0  0  0  0
 13 15  1  0  0  0  0
 14 32  1  0  0  0  0
 15 35  1  0  0  0  0
 16  4  1  0  0  0  0
 16 38  1  0  0  0  0
 16 17  1  0  0  0  0
 17 41  1  0  0  0  0
 18 16  1  0  0  0  0
 19  7  1  0  0  0  0
 20  7  1  0  0  0  0
 24 10  1  0  0  0  0
 25 10  1  0  0  0  0
 26 11  1  0  0  0  0
 27 11  1  0  0  0  0
 33 14  1  0  0  0  0
 34 14  1  0  0  0  0
 36 15  1  0  0  0  0
 37 15  1  0  0  0  0
 39 17  1  0  0  0  0
 40 17  1  0  0  0  0
 42 18  1  0  0  0  0
 43 18  1  0  0  0  0
 44 18  1  0  0  0  0
M  END
