1,2
q = -2.0, confidence = 0.658

 20 19  0  0  0  0  0  0  0  0999 V2000
   -0.8435    1.1847    0.2430 O   0  0  0  0  0  1  0  0  0  0  0  0
   -1.7428   -1.0755   -0.1736 O   0  0  0  0  0  1  0  0  0  0  0  0
   -2.2080    1.2336   -0.0984 C   0  0  0  0  0  0  0  0  0  0  0  0
   -2.7641   -0.2034    0.2569 C   0  0  0  0  0  0  0  0  0  0  0  0
   -2.8773    2.3675    0.6932 C   0  0  0  0  0  0  0  0  0  0  0  0
   -2.3348    1.5226   -1.6094 C   0  0  0  0  0  0  0  0  0  0  0  0
   -2.9520   -0.3770    1.7766 C   0  0  0  0  0  0  0  0  0  0  0  0
   -4.0659   -0.5708   -0.4695 C   0  0  0  0  0  0  0  0  0  0  0  0
   -3.9778    2.3862    0.5408 H   0  0  0  0  0  0  0  0  0  0  0  0
   -2.4648    3.3426    0.3621 H   0  0  0  0  0  0  0  0  0  0  0  0
   -2.6669    2.2656    1.7747 H   0  0  0  0  0  0  0  0  0  0  0  0
   -3.3816    1.7029   -1.9324 H   0  0  0  0  0  0  0  0  0  0  0  0
   -1.9206    0.6780   -2.1967 H   0  0  0  0  0  0  0  0  0  0  0  0
   -1.7349    2.4256   -1.8405 H   0  0  0  0  0  0  0  0  0  0  0  0
   -3.8311    0.1789    2.1641 H   0  0  0  0  0  0  0  0  0  0  0  0
   -2.0451   -0.0340    2.3129 H   0  0  0  0  0  0  0  0  0  0  0  0
   -3.0915   -1.4547    1.9944 H   0  0  0  0  0  0  0  0  0  0  0  0
   -4.8738    0.1603   -0.2540 H   0  0  0  0  0  0  0  0  0  0  0  0
   -4.4090   -1.5728   -0.1391 H   0  0  0  0  0  0  0  0  0  0  0  0
   -3.9055   -0.6149   -1.5632 H   0  0  0  0  0  0  0  0  0  0  0  0
  2  4  1  0  0  0  0
  3  1  1  0  0  0  0
  3  4  1  0  0  0  0
  3  5  1  0  0  0  0
  4  7  1  0  0  0  0
  5 11  1  0  0  0  0
  6  3  1  0  0  0  0
  7 17  1  0  0  0  0
  7 15  1  0  0  0  0
  7 16  1  0  0  0  0
  8 18  1  0  0  0  0
  8 19  1  0  0  0  0
  8  4  1  0  0  0  0
  9  5  1  0  0  0  0
 10  5  1  0  0  0  0
 12  6  1  0  0  0  0
 13  6  1  0  0  0  0
 14  6  1  0  0  0  0
 20  8  1  0  0  0  0
M  END
