1,2
q = -2.0, confidence = 0.722

 18 19  0  0  0  0  0  0  0  0999 V2000
   -0.6233    0.6928   -0.8528 O   0  5  0  0  0  0  0  0  0  0  0  0
    0.1229   -1.9299   -0.4504 O   0  5  0  0  0  0  0  0  0  0  0  0
   -1.5044   -3.3923   -0.4085 O   0  0  0  0  0  0  0  0  0  0  0  0
   -3.4193   -1.4626   -0.1743 N   0  0  0  0  0  0  0  0  0  0  0  0
   -2.6906    1.2682   -0.1295 N   0  0  0  0  0  0  0  0  0  0  0  0
   -1.8074    0.3153   -0.4516 C   0  0  0  0  0  0  0  0  0  0  0  0
   -2.1754   -1.0944   -0.3781 C   0  0  0  0  0  0  0  0  0  0  0  0
   -4.3732   -0.5066   -0.0118 C   0  0  0  0  0  0  0  0  0  0  0  0
   -5.7392   -0.8646    0.1188 C   0  0  0  0  0  0  0  0  0  0  0  0
   -6.0074   -1.9277    0.0381 H   0  0  0  0  0  0  0  0  0  0  0  0
   -6.6906    0.1245    0.3511 C   0  0  0  0  0  0  0  0  0  0  0  0
   -7.7508   -0.1497    0.4556 H   0  0  0  0  0  0  0  0  0  0  0  0
   -6.3062    1.4899    0.4669 C   0  0  0  0  0  0  0  0  0  0  0  0
   -7.0761    2.2511    0.6625 H   0  0  0  0  0  0  0  0  0  0  0  0
   -4.9795    1.8718    0.3288 C   0  0  0  0  0  0  0  0  0  0  0  0
   -4.6608    2.9208    0.4113 H   0  0  0  0  0  0  0  0  0  0  0  0
   -3.9779    0.8891    0.0602 C   0  0  0  0  0  0  0  0  0  0  0  0
   -1.1645   -2.2112   -0.4250 C   0  0  0  0  0  0  0  0  0  0  0  0
  1  6  1  0  0  0  0
  2 18  1  0  0  0  0
  4  8  1  0  0  0  0
  5 17  1  0  0  0  0
  6  7  1  0  0  0  0
  6  5  2  0  0  0  0
  7  4  2  0  0  0  0
  8 17  2  0  0  0  0
  8  9  1  0  0  0  0
  9 11  2  0  0  0  0
 10  9  1  0  0  0  0
 11 12  1  0  0  0  0
 11 13  1  0  0  0  0
 13 14  1  0  0  0  0
 15 16  1  0  0  0  0
 15 13  2  0  0  0  0
 17 15  1  0  0  0  0
 18  3  2  0  0  0  0
 18  7  1  0  0  0  0
M  CHG  2   1  -1   2  -1
M  END
