1,2
q = -1.0

 17 17  0  0  1  0  0  0  0  0999 V2000
    0.8334   -1.5546   -0.8363 O   0  5  0  0  0  0  0  0  0  0  0  0
    0.4749   -0.4416    1.6073 O   0  0  0  0  0  1  0  0  0  0  0  0
    2.1680   -1.6278    2.5110 O   0  0  0  0  0  0  0  0  0  0  0  0
    1.3657   -1.2714    1.4443 C   0  0  2  0  0  3  0  0  0  0  0  0
    1.6427   -1.9011    0.1530 C   0  0  0  0  0  0  0  0  0  0  0  0
    2.7180   -2.7713   -0.0105 C   0  0  0  0  0  0  0  0  0  0  0  0
    3.5022   -3.0660    1.1532 C   0  0  0  0  0  0  0  0  0  0  0  0
    4.3577   -3.7532    1.0883 H   0  0  0  0  0  0  0  0  0  0  0  0
    3.1969   -2.4964    2.3573 C   0  0  0  0  0  0  0  0  0  0  0  0
    3.7340   -2.6686    3.3000 H   0  0  0  0  0  0  0  0  0  0  0  0
    3.0607   -3.2959   -1.3776 C   0  0  0  0  0  0  0  0  0  0  0  0
    3.6862   -4.2072   -1.2826 H   0  0  0  0  0  0  0  0  0  0  0  0
    2.1211   -3.5862   -1.8913 H   0  0  0  0  0  0  0  0  0  0  0  0
    3.7854   -2.2330   -2.2237 C   0  0  0  0  0  0  0  0  0  0  0  0
    3.1549   -1.3278   -2.3276 H   0  0  0  0  0  0  0  0  0  0  0  0
    4.0063   -2.6206   -3.2382 H   0  0  0  0  0  0  0  0  0  0  0  0
    4.7435   -1.9311   -1.7544 H   0  0  0  0  0  0  0  0  0  0  0  0
  1  5  1  0  0  0  0
  4  2  1  6  0  0  0
  4  3  1  0  0  0  0
  5  4  1  0  0  0  0
  6  5  2  0  0  0  0
  6  7  1  0  0  0  0
  7  9  2  0  0  0  0
  8  7  1  0  0  0  0
  9  3  1  0  0  0  0
  9 10  1  0  0  0  0
 11 12  1  0  0  0  0
 11  6  1  0  0  0  0
 13 11  1  0  0  0  0
 14 17  1  0  0  0  0
 14 11  1  0  0  0  0
 15 14  1  0  0  0  0
 16 14  1  0  0  0  0
M  CHG  1   1  -1
M  END
