1,2
q = -1.0, confidence = 0.012

  5  4  0  0  0  0  0  0  0  0999 V2000
   -0.1883    0.7792    2.4162 O   0  5  0  0  0  0  0  0  0  0  0  0
    0.2042   -1.4231    2.2121 O   0  5  0  0  0  0  0  0  0  0  0  0
   -0.0398   -0.4751    4.2564 O   0  0  0  0  0  0  0  0  0  0  0  0
   -0.0046   -0.3781    2.9142 C   0  0  0  0  0  3  0  0  0  0  0  0
    0.1121   -1.4168    4.4742 H   0  0  0  0  0  0  0  0  0  0  0  0
  1  4  1  0  0  0  0
  2  4  1  0  0  0  0
  3  5  1  0  0  0  0
  4  3  1  0  0  0  0
M  CHG  2   1  -1   2  -1
M  END
