1,2
q = -1.0, confidence = 0.0

  8  7  0  0  0  0  0  0  0  0999 V2000
    1.6455    0.3150   -1.7149 O   0  5  0  0  0  0  0  0  0  0  0  0
    2.4388   -0.0113    0.3615 O   0  5  0  0  0  0  0  0  0  0  0  0
    3.8437    0.3467   -1.3919 O   0  0  0  0  0  0  0  0  0  0  0  0
    2.6090    0.2092   -0.8824 C   0  0  0  0  0  3  0  0  0  0  0  0
    4.9412    0.2284   -0.4795 C   0  0  0  0  0  0  0  0  0  0  0  0
    4.9757   -0.7824   -0.0247 H   0  0  0  0  0  0  0  0  0  0  0  0
    4.8683    0.9787    0.3333 H   0  0  0  0  0  0  0  0  0  0  0  0
    5.8536    0.4030   -1.0774 H   0  0  0  0  0  0  0  0  0  0  0  0
  1  4  1  0  0  0  0
  3  4  1  0  0  0  0
  3  5  1  0  0  0  0
  4  2  1  0  0  0  0
  5  6  1  0  0  0  0
  5  7  1  0  0  0  0
  8  5  1  0  0  0  0
M  CHG  2   1  -1   2  -1
M  END
