1,2
q = -1.0, confidence = 0.004

 10  9  0  0  0  0  0  0  0  0999 V2000
   -1.7735   -1.2621   -1.9881 O   0  5  0  0  0  0  0  0  0  0  0  0
    0.0511   -2.0910   -1.1491 O   0  5  0  0  0  0  0  0  0  0  0  0
   -1.1261   -2.2981   -1.6073 C   0  0  0  0  0  3  0  0  0  0  0  0
   -1.7161   -3.6777   -1.6679 C   0  0  0  0  0  0  0  0  0  0  0  0
   -1.0423   -4.3555   -1.1085 H   0  0  0  0  0  0  0  0  0  0  0  0
   -1.6850   -3.9939   -2.7336 H   0  0  0  0  0  0  0  0  0  0  0  0
   -3.1522   -3.7238   -1.1364 C   0  0  0  0  0  0  0  0  0  0  0  0
   -3.5752   -4.7421   -1.2382 H   0  0  0  0  0  0  0  0  0  0  0  0
   -3.1878   -3.4393   -0.0656 H   0  0  0  0  0  0  0  0  0  0  0  0
   -3.7987   -3.0210   -1.6972 H   0  0  0  0  0  0  0  0  0  0  0  0
  1  3  1  0  0  0  0
  3  2  1  0  0  0  0
  4  3  1  0  0  0  0
  4  7  1  0  0  0  0
  4  5  1  0  0  0  0
  6  4  1  0  0  0  0
  7  9  1  0  0  0  0
  8  7  1  0  0  0  0
 10  7  1  0  0  0  0
M  CHG  2   1  -1   2  -1
M  END
