1,2
q = 0.0, confidence = 0.922

 32 34  0  0  0  0  0  0  0  0999 V2000
   -0.1274    0.4858   -1.5454 O   0  5  0  0  0  0  0  0  0  0  0  0
   -0.7496   -1.5791   -0.4386 O   0  5  0  0  0  0  0  0  0  0  0  0
   -5.2315    0.0184    0.3417 O   0  0  0  0  0  0  0  0  0  0  0  0
   -5.6499   -1.1435    1.1313 C   0  0  0  0  0  0  0  0  0  0  0  0
   -4.9521   -2.4063    0.5993 C   0  0  0  0  0  0  0  0  0  0  0  0
   -5.2847   -3.2788    1.1966 H   0  0  0  0  0  0  0  0  0  0  0  0
   -5.2960   -2.5763   -0.4425 H   0  0  0  0  0  0  0  0  0  0  0  0
   -3.4298   -2.2667    0.6210 C   0  0  0  0  0  0  0  0  0  0  0  0
   -3.0295   -2.3632    1.6549 H   0  0  0  0  0  0  0  0  0  0  0  0
   -2.9434   -3.0776    0.0415 H   0  0  0  0  0  0  0  0  0  0  0  0
   -3.0358   -0.9391    0.0387 C   0  0  0  0  0  0  0  0  0  0  0  0
   -1.7256   -0.7177   -0.4691 C   0  0  0  0  0  0  0  0  0  0  0  0
   -1.3703    0.5053   -1.1151 C   0  0  0  0  0  0  0  0  0  0  0  0
   -2.2844    1.5976   -1.2201 C   0  0  0  0  0  0  0  0  0  0  0  0
   -1.9450    2.8477   -1.7948 C   0  0  0  0  0  0  0  0  0  0  0  0
   -0.9301    2.9877   -2.1937 H   0  0  0  0  0  0  0  0  0  0  0  0
   -2.8834    3.8761   -1.8386 C   0  0  0  0  0  0  0  0  0  0  0  0
   -2.6131    4.8458   -2.2829 H   0  0  0  0  0  0  0  0  0  0  0  0
   -4.1814    3.6773   -1.3144 C   0  0  0  0  0  0  0  0  0  0  0  0
   -4.9188    4.4930   -1.3540 H   0  0  0  0  0  0  0  0  0  0  0  0
   -4.5337    2.4529   -0.7451 C   0  0  0  0  0  0  0  0  0  0  0  0
   -5.5395    2.2910   -0.3341 H   0  0  0  0  0  0  0  0  0  0  0  0
   -3.6007    1.3906   -0.6805 C   0  0  0  0  0  0  0  0  0  0  0  0
   -3.9493    0.1101   -0.0789 C   0  0  0  0  0  0  0  0  0  0  0  0
   -7.1606   -1.2142    0.9276 C   0  0  0  0  0  0  0  0  0  0  0  0
   -7.4014   -1.3848   -0.1398 H   0  0  0  0  0  0  0  0  0  0  0  0
   -7.6389   -0.2677    1.2474 H   0  0  0  0  0  0  0  0  0  0  0  0
   -7.5896   -2.0432    1.5234 H   0  0  0  0  0  0  0  0  0  0  0  0
   -5.2951   -0.8555    2.5935 C   0  0  0  0  0  0  0  0  0  0  0  0
   -4.2052   -0.7126    2.7174 H   0  0  0  0  0  0  0  0  0  0  0  0
   -5.6142   -1.6966    3.2408 H   0  0  0  0  0  0  0  0  0  0  0  0
   -5.8043    0.0663    2.9367 H   0  0  0  0  0  0  0  0  0  0  0  0
  1 13  1  0  0  0  0
  3  4  1  0  0  0  0
  4 29  1  0  0  0  0
  5  8  1  0  0  0  0
  5  4  1  0  0  0  0
  5  6  1  0  0  0  0
  7  5  1  0  0  0  0
  8  9  1  0  0  0  0
 10  8  1  0  0  0  0
 11  8  1  0  0  0  0
 12  2  1  0  0  0  0
 12 11  2  0  0  0  0
 13 12  1  0  0  0  0
 14 13  2  0  0  0  0
 14 23  1  0  0  0  0
 15 14  1  0  0  0  0
 16 15  1  0  0  0  0
 17 15  2  0  0  0  0
 17 19  1  0  0  0  0
 18 17  1  0  0  0  0
 19 21  2  0  0  0  0
 20 19  1  0  0  0  0
 21 23  1  0  0  0  0
 21 22  1  0  0  0  0
 23 24  2  0  0  0  0
 24 11  1  0  0  0  0
 24  3  1  0  0  0  0
 25  4  1  0  0  0  0
 25 27  1  0  0  0  0
 25 28  1  0  0  0  0
 26 25  1  0  0  0  0
 29 30  1  0  0  0  0
 29 32  1  0  0  0  0
 29 31  1  0  0  0  0
M  CHG  2   1  -1   2  -1
M  END
