1,2
q = -1.0

 28 29  0  0  1  0  0  0  0  0999 V2000
   -1.3693    0.0704    0.1777 O   0  5  0  0  0  0  0  0  0  0  0  0
   -1.3354   -2.6551   -0.7633 O   0  5  0  0  0  0  0  0  0  0  0  0
   -3.3165   -3.4283   -1.4855 O   0  0  0  0  0  0  0  0  0  0  0  0
   -5.4235   -0.0738   -0.6635 N   0  0  0  0  0  0  0  0  0  0  0  0
   -5.7009    2.1231    0.0872 N   0  0  0  0  0  0  0  0  0  0  0  0
   -3.4764    1.1178    0.1468 C   0  0  0  0  0  0  0  0  0  0  0  0
   -3.2627   -1.2060   -0.6418 C   0  0  0  0  0  0  0  0  0  0  0  0
   -4.6253   -1.1482   -0.8882 C   0  0  0  0  0  0  0  0  0  0  0  0
   -5.0933   -2.0538   -1.3078 H   0  0  0  0  0  0  0  0  0  0  0  0
   -2.9655    2.3212    0.6824 C   0  0  0  0  0  0  0  0  0  0  0  0
   -1.8892    2.3615    0.9058 H   0  0  0  0  0  0  0  0  0  0  0  0
   -4.8691    1.0887   -0.1305 C   0  0  2  0  0  3  0  0  0  0  0  0
   -2.6002   -0.0401   -0.0977 C   0  0  0  0  0  0  0  0  0  0  0  0
   -5.2011    3.2562    0.5940 C   0  0  0  0  0  0  0  0  0  0  0  0
   -2.6095   -2.5435   -1.0005 C   0  0  0  0  0  0  0  0  0  0  0  0
   -3.8205    3.3921    0.9078 C   0  0  0  0  0  0  0  0  0  0  0  0
   -3.4456    4.3379    1.3258 H   0  0  0  0  0  0  0  0  0  0  0  0
   -6.8745   -0.1557   -0.9130 C   0  0  0  0  0  0  0  0  0  0  0  0
   -7.1940    0.8295   -1.3000 H   0  0  0  0  0  0  0  0  0  0  0  0
   -7.0158   -0.9114   -1.7096 H   0  0  0  0  0  0  0  0  0  0  0  0
   -6.1600    4.3907    0.8345 C   0  0  0  0  0  0  0  0  0  0  0  0
   -6.2562    4.5985    1.9210 H   0  0  0  0  0  0  0  0  0  0  0  0
   -5.8014    5.3262    0.3589 H   0  0  0  0  0  0  0  0  0  0  0  0
   -7.1578    4.1363    0.4342 H   0  0  0  0  0  0  0  0  0  0  0  0
   -7.6636   -0.5174    0.3416 C   0  0  0  0  0  0  0  0  0  0  0  0
   -8.7422   -0.5947    0.0995 H   0  0  0  0  0  0  0  0  0  0  0  0
   -7.3337   -1.4897    0.7591 H   0  0  0  0  0  0  0  0  0  0  0  0
   -7.5398    0.2640    1.1161 H   0  0  0  0  0  0  0  0  0  0  0  0
  3 15  2  0  0  0  0
  4 12  1  0  0  0  0
  5 14  2  0  0  0  0
  6 10  1  0  0  0  0
  7 13  1  0  0  0  0
  8  4  1  0  0  0  0
  8  7  2  0  0  0  0
  9  8  1  0  0  0  0
 10 11  1  0  0  0  0
 10 16  2  0  0  0  0
 12  5  1  6  0  0  0
 12  6  1  0  0  0  0
 13  6  2  0  0  0  0
 13  1  1  0  0  0  0
 14 21  1  0  0  0  0
 14 16  1  0  0  0  0
 15  2  1  0  0  0  0
 15  7  1  0  0  0  0
 16 17  1  0  0  0  0
 18  4  1  0  0  0  0
 18 25  1  0  0  0  0
 19 18  1  0  0  0  0
 20 18  1  0  0  0  0
 21 22  1  0  0  0  0
 23 21  1  0  0  0  0
 24 21  1  0  0  0  0
 25 27  1  0  0  0  0
 25 28  1  0  0  0  0
 26 25  1  0  0  0  0
M  CHG  2   1  -1   2  -1
M  END
