2,5
q = -2.0, confidence = 0.942

 20 20  0  0  0  0  0  0  0  0999 V2000
   -0.7113   -2.4229   -0.1277 S   0  0  0  0  0  0  0  0  0  0  0  0
    0.1069   -1.4636    0.7957 O   0  0  0  0  0  1  0  0  0  0  0  0
    0.0198   -2.7284   -1.3867 O   0  0  0  0  0  1  0  0  0  0  0  0
   -1.2316   -3.5577    0.6683 O   0  0  0  0  0  1  0  0  0  0  0  0
    0.1711    0.3801   -1.8704 O   0  5  0  0  0  0  0  0  0  0  0  0
   -1.0714   -0.1919   -3.6538 O   0  0  0  0  0  0  0  0  0  0  0  0
   -5.6357   -2.0246    1.6537 O   0  0  0  0  0  0  0  0  0  0  0  0
   -6.5001   -2.0169    2.1171 H   0  0  0  0  0  0  0  0  0  0  0  0
   -6.6492   -0.2093    0.7663 O   0  0  0  0  0  0  0  0  0  0  0  0
   -2.0956   -0.3651   -1.5332 C   0  0  0  0  0  0  0  0  0  0  0  0
   -2.1511   -1.3900   -0.5600 C   0  0  0  0  0  0  0  0  0  0  0  0
   -3.3188   -1.6232    0.1799 C   0  0  0  0  0  0  0  0  0  0  0  0
   -3.3252   -2.4501    0.9040 H   0  0  0  0  0  0  0  0  0  0  0  0
   -4.4448   -0.7976    0.0040 C   0  0  0  0  0  0  0  0  0  0  0  0
   -4.4006    0.2357   -0.9570 C   0  0  0  0  0  0  0  0  0  0  0  0
   -5.2918    0.8673   -1.0875 H   0  0  0  0  0  0  0  0  0  0  0  0
   -3.2540    0.4221   -1.7289 C   0  0  0  0  0  0  0  0  0  0  0  0
   -3.2308    1.1899   -2.5168 H   0  0  0  0  0  0  0  0  0  0  0  0
   -0.9047   -0.0705   -2.4407 C   0  0  0  0  0  0  0  0  0  0  0  0
   -5.6808   -0.9549    0.8137 C   0  0  0  0  0  0  0  0  0  0  0  0
  1  4  1  0  0  0  0
  1  2  1  0  0  0  0
  3  1  1  0  0  0  0
  6 19  2  0  0  0  0
  7  8  1  0  0  0  0
  9 20  2  0  0  0  0
 10 11  1  0  0  0  0
 11  1  1  0  0  0  0
 11 12  2  0  0  0  0
 12 13  1  0  0  0  0
 14 12  1  0  0  0  0
 14 20  1  0  0  0  0
 15 14  2  0  0  0  0
 16 15  1  0  0  0  0
 17 10  2  0  0  0  0
 17 15  1  0  0  0  0
 18 17  1  0  0  0  0
 19  5  1  0  0  0  0
 19 10  1  0  0  0  0
 20  7  1  0  0  0  0
M  CHG  1   5  -1
M  END
