15,18
q = -2.0, confidence = 0.838

 26 25  0  0  1  0  0  0  0  0999 V2000
    2.3877   -1.0586    0.3789 C   0  0  2  0  0  0  0  0  0  0  0  0
    2.8218   -0.0564    1.3938 N   0  0  0  0  0  0  0  0  0  0  0  0
    4.2225    0.5454    1.1456 H   0  0  0  0  0  0  0  0  0  0  0  0
    2.7716   -0.4999    2.3263 H   0  0  0  0  0  0  0  0  0  0  0  0
    2.1147    0.6945    1.3880 H   0  0  0  0  0  0  0  0  0  0  0  0
    3.4649   -2.1369    0.0384 C   0  0  0  0  0  0  0  0  0  0  0  0
    3.1202   -3.1214    0.4151 H   0  0  0  0  0  0  0  0  0  0  0  0
    3.4731   -2.2457   -1.0654 H   0  0  0  0  0  0  0  0  0  0  0  0
    4.8969   -1.9161    0.5470 C   0  0  0  0  0  0  0  0  0  0  0  0
    5.5304   -2.7602    0.2052 H   0  0  0  0  0  0  0  0  0  0  0  0
    4.9528   -1.9017    1.6559 H   0  0  0  0  0  0  0  0  0  0  0  0
    1.9189   -0.1235   -1.2047 P   0  0  1  0  0  0  0  0  0  0  0  0
    0.9134   -1.9643    1.1287 P   0  0  2  0  0  0  0  0  0  0  0  0
    5.6983   -0.3932   -0.0739 P   0  0  0  0  0  0  0  0  0  0  0  0
    0.6855    0.7636   -0.8269 O   0  0  0  0  0  1  0  0  0  0  0  0
    3.1025    0.9686   -1.4032 O   0  0  0  0  0  0  0  0  0  0  0  0
    1.7871   -1.1273   -2.3402 O   0  0  0  0  0  0  0  0  0  0  0  0
   -0.1428   -0.8880    1.5433 O   0  0  0  0  0  1  0  0  0  0  0  0
    1.6174   -2.3793    2.6019 O   0  0  0  0  0  0  0  0  0  0  0  0
    1.7591   -3.3445    2.5681 H   0  0  0  0  0  0  0  0  0  0  0  0
    0.5051   -3.2133    0.3735 O   0  0  0  0  0  0  0  0  0  0  0  0
    5.4718   -0.1745   -1.5655 O   0  0  0  0  0  0  0  0  0  0  0  0
    5.2458    0.7604    0.9284 O   0  0  0  0  0  0  0  0  0  0  0  0
    7.2986   -0.5881    0.2435 O   0  0  0  0  0  0  0  0  0  0  0  0
    7.7598   -0.4895   -0.6128 H   0  0  0  0  0  0  0  0  0  0  0  0
    3.9875    0.5449   -1.6572 H   0  0  0  0  0  0  0  0  0  0  0  0
  1  6  1  6  0  0  0
  1 13  1  0  0  0  0
  1  2  1  0  0  0  0
  2  4  1  0  0  0  0
  5  2  1  0  0  0  0
  6  7  1  0  0  0  0
  6  9  1  0  0  0  0
  8  6  1  0  0  0  0
  9 11  1  0  0  0  0
 10  9  1  0  0  0  0
 12 17  2  6  0  0  0
 12 15  1  0  0  0  0
 12  1  1  0  0  0  0
 13 21  2  6  0  0  0
 13 18  1  0  0  0  0
 13 19  1  0  0  0  0
 14 24  1  0  0  0  0
 14  9  1  0  0  0  0
 14 23  1  0  0  0  0
 16 12  1  0  0  0  0
 20 19  1  0  0  0  0
 22 14  2  0  0  0  0
 23  3  1  0  0  0  0
 25 24  1  0  0  0  0
 26 16  1  0  0  0  0
M  END
