1,16
q = -2.0, confidence = 0.904

 16 16  0  0  1  0  0  0  0  0999 V2000
    1.4537    1.3563    0.9393 O   0  5  0  0  0  0  0  0  0  0  0  0
   -0.8149    0.0286   -0.4975 N   0  0  0  0  0  0  0  0  0  0  0  0
    1.1964    2.5448   -0.9681 O   0  0  0  0  0  0  0  0  0  0  0  0
    0.7542    1.8455   -0.0506 C   0  0  0  0  0  0  0  0  0  0  0  0
   -0.6754    1.3345   -0.0785 C   0  0  2  0  0  3  0  0  0  0  0  0
   -3.1690    0.0733   -0.0686 C   0  0  0  0  0  0  0  0  0  0  0  0
   -1.8128    2.0468    0.3107 C   0  0  0  0  0  0  0  0  0  0  0  0
   -1.6825    3.0921    0.6292 H   0  0  0  0  0  0  0  0  0  0  0  0
   -3.0714    1.4255    0.2950 C   0  0  0  0  0  0  0  0  0  0  0  0
   -4.0083    1.9357    0.5709 H   0  0  0  0  0  0  0  0  0  0  0  0
   -5.5083   -0.0510    0.2695 O   0  5  0  0  0  0  0  0  0  0  0  0
   -4.3099   -1.9848   -0.0671 O   0  0  0  0  0  0  0  0  0  0  0  0
   -4.4957   -0.7464    0.0504 C   0  0  0  0  0  0  0  0  0  0  0  0
   -2.0200   -0.5996   -0.4721 C   0  0  0  0  0  0  0  0  0  0  0  0
   -2.0708   -1.6621   -0.7564 H   0  0  0  0  0  0  0  0  0  0  0  0
    0.2652   -0.6440   -0.9447 O   0  0  0  0  0  1  0  0  0  0  0  0
  2 14  1  0  0  0  0
  2  5  1  0  0  0  0
  3  4  2  0  0  0  0
  4  1  1  0  0  0  0
  5  4  1  1  0  0  0
  5  7  1  0  0  0  0
  6 13  1  0  0  0  0
  6  9  1  0  0  0  0
  7  8  1  0  0  0  0
  9  7  2  0  0  0  0
  9 10  1  0  0  0  0
 12 13  2  0  0  0  0
 13 11  1  0  0  0  0
 14  6  2  0  0  0  0
 15 14  1  0  0  0  0
 16  2  1  0  0  0  0
M  CHG  2   1  -1  11  -1
M  END
