1,5
q = -1.0, confidence = 0.144

  5  4  0  0  0  0  0  0  0  0999 V2000
    0.6560   -0.4089    2.0380 O   0  0  0  0  0  0  0  0  0  0  0  0
    1.0073   -1.3179    2.8129 N   0  0  0  0  0  0  0  0  0  0  0  0
    1.0759   -2.6499    2.2403 O   0  0  0  0  0  0  0  0  0  0  0  0
    1.3127   -1.2462    3.9741 O   0  0  0  0  0  0  0  0  0  0  0  0
    0.7718   -2.6685    0.9086 O   0  0  0  0  0  0  0  0  0  0  0  0
  1  2  1  0  0  0  0
  2  4  1  0  0  0  0
  3  2  1  0  0  0  0
  5  3  1  0  0  0  0
M  END
