1,2
q = -1.0

 21 21  0  0  1  0  0  0  0  0999 V2000
    1.0627    0.6823   -1.3298 O   0  5  0  0  0  0  0  0  0  0  0  0
    1.0923   -0.4750    1.3865 O   0  0  0  0  0  1  0  0  0  0  0  0
    2.3234    0.6137   -1.1488 C   0  0  0  0  0  0  0  0  0  0  0  0
    2.9936    0.0486   -0.0164 C   0  0  0  0  0  0  0  0  0  0  0  0
    2.3485   -0.4300    1.1689 C   0  0  1  0  0  3  0  0  0  0  0  0
    4.4678    0.0060   -0.0506 C   0  0  0  0  0  0  0  0  0  0  0  0
    5.1599    1.0831    0.4764 O   0  0  0  0  0  0  0  0  0  0  0  0
    6.4918    0.8295    0.3417 C   0  0  0  0  0  0  0  0  0  0  0  0
    7.1684    1.6034    0.7189 H   0  0  0  0  0  0  0  0  0  0  0  0
    6.6913   -0.3898   -0.2622 C   0  0  0  0  0  0  0  0  0  0  0  0
    7.6568   -0.8518   -0.4970 H   0  0  0  0  0  0  0  0  0  0  0  0
    5.3816   -0.9202   -0.5143 C   0  0  0  0  0  0  0  0  0  0  0  0
    5.1290   -1.8778   -0.9830 H   0  0  0  0  0  0  0  0  0  0  0  0
    3.1663    1.1928   -2.2699 C   0  0  0  0  0  0  0  0  0  0  0  0
    2.4996    1.6332   -3.0329 H   0  0  0  0  0  0  0  0  0  0  0  0
    3.7999    0.4095   -2.7322 H   0  0  0  0  0  0  0  0  0  0  0  0
    3.8590    1.9664   -1.8829 H   0  0  0  0  0  0  0  0  0  0  0  0
    3.2175   -0.9149    2.3142 C   0  0  0  0  0  0  0  0  0  0  0  0
    2.5699   -1.2399    3.1481 H   0  0  0  0  0  0  0  0  0  0  0  0
    3.9002   -0.1118    2.6575 H   0  0  0  0  0  0  0  0  0  0  0  0
    3.8625   -1.7553    1.9892 H   0  0  0  0  0  0  0  0  0  0  0  0
  1  3  1  0  0  0  0
  3  4  2  0  0  0  0
  4  5  1  0  0  0  0
  5  2  1  1  0  0  0
  5 18  1  0  0  0  0
  6  4  1  0  0  0  0
  6  7  1  0  0  0  0
  8  7  1  0  0  0  0
  8  9  1  0  0  0  0
 10  8  2  0  0  0  0
 11 10  1  0  0  0  0
 12 10  1  0  0  0  0
 12  6  2  0  0  0  0
 13 12  1  0  0  0  0
 14 17  1  0  0  0  0
 14  3  1  0  0  0  0
 15 14  1  0  0  0  0
 16 14  1  0  0  0  0
 18 20  1  0  0  0  0
 18 19  1  0  0  0  0
 21 18  1  0  0  0  0
M  CHG  1   1  -1
M  END
