1,2
q = -2.0, confidence = 0.844

 76 77  0  0  0  0  0  0  0  0999 V2000
    1.5968   -1.6320    0.4802 O   0  5  0  0  0  0  0  0  0  0  0  0
   -1.2153   -1.8487    0.3447 O   0  5  0  0  0  0  0  0  0  0  0  0
    1.9641   -0.3291    0.3419 C   0  0  0  0  0  0  0  0  0  0  0  0
    3.1189    0.0026   -0.4252 C   0  0  0  0  0  0  0  0  0  0  0  0
    3.4061    1.3694   -0.5677 C   0  0  0  0  0  0  0  0  0  0  0  0
    2.6248    2.3967    0.0025 C   0  0  0  0  0  0  0  0  0  0  0  0
    1.5201    2.0144    0.7760 C   0  0  0  0  0  0  0  0  0  0  0  0
    1.1722    0.6670    0.9671 C   0  0  0  0  0  0  0  0  0  0  0  0
   -0.0543    0.3008    1.8025 C   0  0  0  0  0  0  0  0  0  0  0  0
   -1.3237    0.4511    0.9675 C   0  0  0  0  0  0  0  0  0  0  0  0
   -1.9698    1.6876    0.8523 C   0  0  0  0  0  0  0  0  0  0  0  0
   -3.1122    1.8663    0.0514 C   0  0  0  0  0  0  0  0  0  0  0  0
   -3.6143    0.7400   -0.6255 C   0  0  0  0  0  0  0  0  0  0  0  0
   -3.0241   -0.5370   -0.5517 C   0  0  0  0  0  0  0  0  0  0  0  0
   -1.8563   -0.6539    0.2494 C   0  0  0  0  0  0  0  0  0  0  0  0
   -0.1122    1.0610    3.1366 C   0  0  0  0  0  0  0  0  0  0  0  0
    4.0000   -1.0796   -1.0806 C   0  0  0  0  0  0  0  0  0  0  0  0
    5.2137   -0.4627   -1.8016 C   0  0  0  0  0  0  0  0  0  0  0  0
    3.1783   -1.8579   -2.1356 C   0  0  0  0  0  0  0  0  0  0  0  0
    4.5429   -2.0439    0.0004 C   0  0  0  0  0  0  0  0  0  0  0  0
    2.9995    3.8686   -0.2405 C   0  0  0  0  0  0  0  0  0  0  0  0
    4.4170    4.1331    0.3156 C   0  0  0  0  0  0  0  0  0  0  0  0
    2.9784    4.1516   -1.7601 C   0  0  0  0  0  0  0  0  0  0  0  0
    2.0181    4.8356    0.4448 C   0  0  0  0  0  0  0  0  0  0  0  0
   -3.6113   -1.7409   -1.3149 C   0  0  0  0  0  0  0  0  0  0  0  0
   -4.8910   -1.3569   -2.0820 C   0  0  0  0  0  0  0  0  0  0  0  0
   -2.5856   -2.2593   -2.3514 C   0  0  0  0  0  0  0  0  0  0  0  0
   -3.9852   -2.8641   -0.3188 C   0  0  0  0  0  0  0  0  0  0  0  0
   -3.7512    3.2613   -0.0602 C   0  0  0  0  0  0  0  0  0  0  0  0
   -2.7114    4.2440   -0.6480 C   0  0  0  0  0  0  0  0  0  0  0  0
   -4.1793    3.7418    1.3451 C   0  0  0  0  0  0  0  0  0  0  0  0
   -4.9899    3.2625   -0.9723 C   0  0  0  0  0  0  0  0  0  0  0  0
    4.2831    1.6538   -1.1624 H   0  0  0  0  0  0  0  0  0  0  0  0
    0.8920    2.7815    1.2459 H   0  0  0  0  0  0  0  0  0  0  0  0
    0.0356   -0.7697    2.0846 H   0  0  0  0  0  0  0  0  0  0  0  0
   -1.5579    2.5450    1.4037 H   0  0  0  0  0  0  0  0  0  0  0  0
   -4.5085    0.8562   -1.2461 H   0  0  0  0  0  0  0  0  0  0  0  0
    0.8004    0.8571    3.7300 H   0  0  0  0  0  0  0  0  0  0  0  0
   -0.9940    0.7377    3.7237 H   0  0  0  0  0  0  0  0  0  0  0  0
   -0.1821    2.1587    3.0050 H   0  0  0  0  0  0  0  0  0  0  0  0
    4.9113    0.2056   -2.6328 H   0  0  0  0  0  0  0  0  0  0  0  0
    5.8290   -1.2744   -2.2382 H   0  0  0  0  0  0  0  0  0  0  0  0
    5.8623    0.1118   -1.1099 H   0  0  0  0  0  0  0  0  0  0  0  0
    2.3291   -2.4078   -1.6920 H   0  0  0  0  0  0  0  0  0  0  0  0
    3.8259   -2.6020   -2.6438 H   0  0  0  0  0  0  0  0  0  0  0  0
    2.7807   -1.1686   -2.9079 H   0  0  0  0  0  0  0  0  0  0  0  0
    3.7305   -2.5554    0.5475 H   0  0  0  0  0  0  0  0  0  0  0  0
    5.1633   -1.4954    0.7379 H   0  0  0  0  0  0  0  0  0  0  0  0
    5.1792   -2.8207   -0.4712 H   0  0  0  0  0  0  0  0  0  0  0  0
    4.4571    3.9379    1.4063 H   0  0  0  0  0  0  0  0  0  0  0  0
    4.7115    5.1890    0.1423 H   0  0  0  0  0  0  0  0  0  0  0  0
    5.1759    3.4882   -0.1704 H   0  0  0  0  0  0  0  0  0  0  0  0
    1.9698    3.9674   -2.1824 H   0  0  0  0  0  0  0  0  0  0  0  0
    3.6958    3.5097   -2.3087 H   0  0  0  0  0  0  0  0  0  0  0  0
    3.2501    5.2085   -1.9614 H   0  0  0  0  0  0  0  0  0  0  0  0
    2.0075    4.7022    1.5455 H   0  0  0  0  0  0  0  0  0  0  0  0
    0.9822    4.7057    0.0698 H   0  0  0  0  0  0  0  0  0  0  0  0
    2.3176    5.8829    0.2398 H   0  0  0  0  0  0  0  0  0  0  0  0
   -4.6998   -0.5837   -2.8532 H   0  0  0  0  0  0  0  0  0  0  0  0
   -5.6877   -0.9859   -1.4061 H   0  0  0  0  0  0  0  0  0  0  0  0
   -5.2863   -2.2520   -2.6022 H   0  0  0  0  0  0  0  0  0  0  0  0
   -1.6637   -2.6447   -1.8800 H   0  0  0  0  0  0  0  0  0  0  0  0
   -2.3045   -1.4541   -3.0601 H   0  0  0  0  0  0  0  0  0  0  0  0
   -3.0302   -3.0898   -2.9378 H   0  0  0  0  0  0  0  0  0  0  0  0
   -3.1095   -3.2229    0.2518 H   0  0  0  0  0  0  0  0  0  0  0  0
   -4.4123   -3.7289   -0.8669 H   0  0  0  0  0  0  0  0  0  0  0  0
   -4.7461   -2.5081    0.4049 H   0  0  0  0  0  0  0  0  0  0  0  0
   -1.8063    4.3159   -0.0117 H   0  0  0  0  0  0  0  0  0  0  0  0
   -3.1444    5.2621   -0.7341 H   0  0  0  0  0  0  0  0  0  0  0  0
   -2.3871    3.9194   -1.6573 H   0  0  0  0  0  0  0  0  0  0  0  0
   -3.3186    3.8022    2.0405 H   0  0  0  0  0  0  0  0  0  0  0  0
   -4.9239    3.0511    1.7897 H   0  0  0  0  0  0  0  0  0  0  0  0
   -4.6359    4.7515    1.2874 H   0  0  0  0  0  0  0  0  0  0  0  0
   -5.7837    2.5892   -0.5905 H   0  0  0  0  0  0  0  0  0  0  0  0
   -4.7411    2.9515   -2.0069 H   0  0  0  0  0  0  0  0  0  0  0  0
   -5.4164    4.2843   -1.0252 H   0  0  0  0  0  0  0  0  0  0  0  0
  3  1  1  0  0  0  0
  3  8  1  0  0  0  0
  4  3  2  0  0  0  0
  5  4  1  0  0  0  0
  5  6  2  0  0  0  0
  6  7  1  0  0  0  0
  7  8  2  0  0  0  0
  7 34  1  0  0  0  0
  8  9  1  0  0  0  0
  9 35  1  0  0  0  0
  9 16  1  0  0  0  0
 10  9  1  0  0  0  0
 11 10  1  0  0  0  0
 11 36  1  0  0  0  0
 12 11  2  0  0  0  0
 13 14  2  0  0  0  0
 13 12  1  0  0  0  0
 14 15  1  0  0  0  0
 15  2  1  0  0  0  0
 15 10  2  0  0  0  0
 16 39  1  0  0  0  0
 16 38  1  0  0  0  0
 17  4  1  0  0  0  0
 17 20  1  0  0  0  0
 18 43  1  0  0  0  0
 18 17  1  0  0  0  0
 19 44  1  0  0  0  0
 19 17  1  0  0  0  0
 20 47  1  0  0  0  0
 20 48  1  0  0  0  0
 21  6  1  0  0  0  0
 21 22  1  0  0  0  0
 21 24  1  0  0  0  0
 22 50  1  0  0  0  0
 23 21  1  0  0  0  0
 24 56  1  0  0  0  0
 25 14  1  0  0  0  0
 25 28  1  0  0  0  0
 26 60  1  0  0  0  0
 26 25  1  0  0  0  0
 27 62  1  0  0  0  0
 27 25  1  0  0  0  0
 28 65  1  0  0  0  0
 28 67  1  0  0  0  0
 29 12  1  0  0  0  0
 29 31  1  0  0  0  0
 30 29  1  0  0  0  0
 30 68  1  0  0  0  0
 31 72  1  0  0  0  0
 31 71  1  0  0  0  0
 32 74  1  0  0  0  0
 32 29  1  0  0  0  0
 33  5  1  0  0  0  0
 37 13  1  0  0  0  0
 40 16  1  0  0  0  0
 41 18  1  0  0  0  0
 42 18  1  0  0  0  0
 45 19  1  0  0  0  0
 46 19  1  0  0  0  0
 49 20  1  0  0  0  0
 51 22  1  0  0  0  0
 52 22  1  0  0  0  0
 53 23  1  0  0  0  0
 54 23  1  0  0  0  0
 55 23  1  0  0  0  0
 57 24  1  0  0  0  0
 58 24  1  0  0  0  0
 59 26  1  0  0  0  0
 61 26  1  0  0  0  0
 63 27  1  0  0  0  0
 64 27  1  0  0  0  0
 66 28  1  0  0  0  0
 69 30  1  0  0  0  0
 70 30  1  0  0  0  0
 73 31  1  0  0  0  0
 75 32  1  0  0  0  0
 76 32  1  0  0  0  0
M  CHG  2   1  -1   2  -1
M  END
