3,4
q = -1.0, confidence = 0.004

 25 25  0  0  0  0  0  0  0  0999 V2000
   -6.4621   -1.5360    0.5547 N   0  0  0  0  0  0  0  0  0  0  0  0
   -6.8987   -2.3229    1.0373 H   0  0  0  0  0  0  0  0  0  0  0  0
   -1.6052   -2.2783   -0.3179 O   0  5  0  0  0  0  0  0  0  0  0  0
   -1.5270   -1.2112    1.6405 O   0  5  0  0  0  0  0  0  0  0  0  0
   -4.4243   -0.5705    0.1083 O   0  0  0  0  0  0  0  0  0  0  0  0
   -2.0421   -2.0612    0.8394 C   0  0  0  0  0  3  0  0  0  0  0  0
   -3.1600   -2.9101    1.3676 C   0  0  0  0  0  0  0  0  0  0  0  0
   -2.8241   -3.8274    1.8816 H   0  0  0  0  0  0  0  0  0  0  0  0
   -4.4912   -2.6829    1.2702 C   0  0  0  0  0  0  0  0  0  0  0  0
   -5.1879   -3.4228    1.6994 H   0  0  0  0  0  0  0  0  0  0  0  0
   -5.0800   -1.5038    0.5987 C   0  0  0  0  0  0  0  0  0  0  0  0
   -7.3603   -0.6193   -0.0169 C   0  0  0  0  0  0  0  0  0  0  0  0
   -8.7306   -0.7489    0.2987 C   0  0  0  0  0  0  0  0  0  0  0  0
   -9.0583   -1.5465    0.9852 H   0  0  0  0  0  0  0  0  0  0  0  0
   -9.6747    0.1239   -0.2517 C   0  0  0  0  0  0  0  0  0  0  0  0
  -10.7372   -0.0021    0.0096 H   0  0  0  0  0  0  0  0  0  0  0  0
   -9.2935    1.1587   -1.1296 C   0  0  0  0  0  0  0  0  0  0  0  0
   -7.9234    1.2687   -1.4426 C   0  0  0  0  0  0  0  0  0  0  0  0
   -7.5920    2.0573   -2.1377 H   0  0  0  0  0  0  0  0  0  0  0  0
   -6.9628    0.4033   -0.9068 C   0  0  0  0  0  0  0  0  0  0  0  0
   -5.9046    0.4981   -1.1696 H   0  0  0  0  0  0  0  0  0  0  0  0
  -10.3046    2.1242   -1.6936 C   0  0  0  0  0  0  0  0  0  0  0  0
  -11.3280    1.7007   -1.6781 H   0  0  0  0  0  0  0  0  0  0  0  0
  -10.0634    2.4029   -2.7391 H   0  0  0  0  0  0  0  0  0  0  0  0
  -10.3309    3.0675   -1.1059 H   0  0  0  0  0  0  0  0  0  0  0  0
  1 11  1  0  0  0  0
  1  2  1  0  0  0  0
  3  6  1  0  0  0  0
  5 11  2  0  0  0  0
  6  7  1  0  0  0  0
  6  4  1  0  0  0  0
  7  8  1  0  0  0  0
  9  7  2  0  0  0  0
  9 10  1  0  0  0  0
 11  9  1  0  0  0  0
 12 13  1  0  0  0  0
 12  1  1  0  0  0  0
 13 14  1  0  0  0  0
 15 16  1  0  0  0  0
 15 13  2  0  0  0  0
 17 15  1  0  0  0  0
 18 17  2  0  0  0  0
 18 20  1  0  0  0  0
 19 18  1  0  0  0  0
 20 12  2  0  0  0  0
 21 20  1  0  0  0  0
 22 23  1  0  0  0  0
 22 17  1  0  0  0  0
 22 25  1  0  0  0  0
 24 22  1  0  0  0  0
M  CHG  2   3  -1   4  -1
M  END
