3,4
q = -1.0

 25 25  0  0  0  0  0  0  0  0999 V2000
    6.3248   -1.6423   -0.9101 N   0  0  0  0  0  0  0  0  0  0  0  0
    6.6368   -2.3943   -1.5265 H   0  0  0  0  0  0  0  0  0  0  0  0
    1.5591   -1.9138    0.2134 O   0  5  0  0  0  0  0  0  0  0  0  0
    1.3117   -0.6909   -1.6376 O   0  5  0  0  0  0  0  0  0  0  0  0
    4.4437   -0.5169   -0.2136 O   0  0  0  0  0  0  0  0  0  0  0  0
    1.8636   -1.6295   -0.9730 C   0  0  0  0  0  3  0  0  0  0  0  0
    2.8479   -2.4896   -1.7084 C   0  0  0  0  0  0  0  0  0  0  0  0
    2.3816   -3.2631   -2.3430 H   0  0  0  0  0  0  0  0  0  0  0  0
    4.1995   -2.4191   -1.6761 C   0  0  0  0  0  0  0  0  0  0  0  0
    4.7816   -3.1434   -2.2708 H   0  0  0  0  0  0  0  0  0  0  0  0
    4.9571   -1.4362   -0.8704 C   0  0  0  0  0  0  0  0  0  0  0  0
    7.3565   -0.9462   -0.2583 C   0  0  0  0  0  0  0  0  0  0  0  0
    8.6834   -1.2129   -0.6682 C   0  0  0  0  0  0  0  0  0  0  0  0
    8.8595   -1.9358   -1.4826 H   0  0  0  0  0  0  0  0  0  0  0  0
    9.7813   -0.5777   -0.0680 C   0  0  0  0  0  0  0  0  0  0  0  0
    9.5350    0.3510    0.9663 C   0  0  0  0  0  0  0  0  0  0  0  0
   10.3809    0.8648    1.4489 H   0  0  0  0  0  0  0  0  0  0  0  0
    8.2232    0.6154    1.3795 C   0  0  0  0  0  0  0  0  0  0  0  0
    8.0413    1.3360    2.1920 H   0  0  0  0  0  0  0  0  0  0  0  0
    7.1265   -0.0229    0.7832 C   0  0  0  0  0  0  0  0  0  0  0  0
    6.1005    0.1749    1.1075 H   0  0  0  0  0  0  0  0  0  0  0  0
   11.1914   -0.8785   -0.5116 C   0  0  0  0  0  0  0  0  0  0  0  0
   11.7238    0.0472   -0.8130 H   0  0  0  0  0  0  0  0  0  0  0  0
   11.2138   -1.5784   -1.3691 H   0  0  0  0  0  0  0  0  0  0  0  0
   11.7813   -1.3331    0.3118 H   0  0  0  0  0  0  0  0  0  0  0  0
  1 11  1  0  0  0  0
  1 12  1  0  0  0  0
  2  1  1  0  0  0  0
  4  6  1  0  0  0  0
  6  3  1  0  0  0  0
  7  9  2  0  0  0  0
  7  6  1  0  0  0  0
  8  7  1  0  0  0  0
  9 11  1  0  0  0  0
 10  9  1  0  0  0  0
 11  5  2  0  0  0  0
 12 20  1  0  0  0  0
 13 12  2  0  0  0  0
 13 15  1  0  0  0  0
 14 13  1  0  0  0  0
 15 16  2  0  0  0  0
 16 18  1  0  0  0  0
 16 17  1  0  0  0  0
 18 19  1  0  0  0  0
 20 21  1  0  0  0  0
 20 18  2  0  0  0  0
 22 15  1  0  0  0  0
 22 25  1  0  0  0  0
 23 22  1  0  0  0  0
 24 22  1  0  0  0  0
M  CHG  2   3  -1   4  -1
M  END
