2,3
q = -1.0

 31 30  0  0  1  0  0  0  0  0999 V2000
   -2.8482   -1.0779   -1.1248 As  0  0  0  0  0  0  0  0  0  0  0  0
   -0.0669   -0.3091   -1.3214 O   0  0  0  0  0  1  0  0  0  0  0  0
   -1.8372    1.1400    0.4289 O   0  5  0  0  0  0  0  0  0  0  0  0
   -1.0110   -1.0841   -1.6830 C   0  0  1  0  0  3  0  0  0  0  0  0
   -2.8218    0.4039    0.1081 C   0  0  0  0  0  0  0  0  0  0  0  0
   -0.5523   -2.1521   -2.7090 C   0  0  0  0  0  0  0  0  0  0  0  0
   -1.7107   -2.9963   -3.2601 C   0  0  0  0  0  0  0  0  0  0  0  0
   -2.4611   -2.3725   -3.7865 H   0  0  0  0  0  0  0  0  0  0  0  0
   -2.2328   -3.5514   -2.4551 H   0  0  0  0  0  0  0  0  0  0  0  0
   -1.3171   -3.7409   -3.9826 H   0  0  0  0  0  0  0  0  0  0  0  0
    0.4580   -3.0696   -1.9839 C   0  0  0  0  0  0  0  0  0  0  0  0
   -0.0394   -3.6308   -1.1676 H   0  0  0  0  0  0  0  0  0  0  0  0
    1.2814   -2.4778   -1.5368 H   0  0  0  0  0  0  0  0  0  0  0  0
    0.8887   -3.8043   -2.6955 H   0  0  0  0  0  0  0  0  0  0  0  0
    0.1545   -1.4251   -3.8730 C   0  0  0  0  0  0  0  0  0  0  0  0
   -0.5506   -0.7548   -4.4079 H   0  0  0  0  0  0  0  0  0  0  0  0
    0.5451   -2.1613   -4.6052 H   0  0  0  0  0  0  0  0  0  0  0  0
    1.0011   -0.8193   -3.4968 H   0  0  0  0  0  0  0  0  0  0  0  0
   -4.1359    0.7419    0.8584 C   0  0  0  0  0  0  0  0  0  0  0  0
   -3.9262    0.3215    2.3314 C   0  0  0  0  0  0  0  0  0  0  0  0
   -4.8245    0.5643    2.9364 H   0  0  0  0  0  0  0  0  0  0  0  0
   -3.0549    0.8456    2.7710 H   0  0  0  0  0  0  0  0  0  0  0  0
   -3.7381   -0.7685    2.4072 H   0  0  0  0  0  0  0  0  0  0  0  0
   -4.3759    2.2630    0.7778 C   0  0  0  0  0  0  0  0  0  0  0  0
   -4.5185    2.5862   -0.2736 H   0  0  0  0  0  0  0  0  0  0  0  0
   -3.5154    2.8211    1.1948 H   0  0  0  0  0  0  0  0  0  0  0  0
   -5.2838    2.5417    1.3509 H   0  0  0  0  0  0  0  0  0  0  0  0
   -5.3604    0.0062    0.2921 C   0  0  0  0  0  0  0  0  0  0  0  0
   -5.5310    0.2573   -0.7739 H   0  0  0  0  0  0  0  0  0  0  0  0
   -6.2669    0.2956    0.8630 H   0  0  0  0  0  0  0  0  0  0  0  0
   -5.2512   -1.0941    0.3689 H   0  0  0  0  0  0  0  0  0  0  0  0
  1  5  2  0  0  0  0
  4  2  1  1  0  0  0
  4  1  1  0  0  0  0
  5  3  1  0  0  0  0
  5 19  1  0  0  0  0
  6 11  1  0  0  0  0
  6  4  1  0  0  0  0
  7  6  1  0  0  0  0
  7  9  1  0  0  0  0
  8  7  1  0  0  0  0
 10  7  1  0  0  0  0
 11 13  1  0  0  0  0
 11 12  1  0  0  0  0
 14 11  1  0  0  0  0
 15 18  1  0  0  0  0
 15  6  1  0  0  0  0
 16 15  1  0  0  0  0
 17 15  1  0  0  0  0
 19 20  1  0  0  0  0
 20 23  1  0  0  0  0
 20 22  1  0  0  0  0
 20 21  1  0  0  0  0
 24 19  1  0  0  0  0
 24 26  1  0  0  0  0
 24 27  1  0  0  0  0
 25 24  1  0  0  0  0
 28 31  1  0  0  0  0
 28 19  1  0  0  0  0
 28 30  1  0  0  0  0
 29 28  1  0  0  0  0
M  CHG  1   3  -1
M  END
