1,2
q = -1.0, confidence = 0.0

 21 22  0  0  0  0  0  0  0  0999 V2000
   -1.7922   -3.0019   -0.1359 O   0  5  0  0  0  0  0  0  0  0  0  0
   -1.0148   -1.8241   -1.8748 O   0  5  0  0  0  0  0  0  0  0  0  0
   -3.7196    1.4729   -1.7502 N   0  0  0  0  0  0  0  0  0  0  0  0
   -3.4172    2.4122   -1.9999 H   0  0  0  0  0  0  0  0  0  0  0  0
   -3.7751   -0.7936   -1.6369 C   0  0  0  0  0  0  0  0  0  0  0  0
   -4.7954   -0.2601   -0.7666 C   0  0  0  0  0  0  0  0  0  0  0  0
   -5.7381   -0.8379    0.1125 C   0  0  0  0  0  0  0  0  0  0  0  0
   -5.8040   -1.9321    0.2139 H   0  0  0  0  0  0  0  0  0  0  0  0
   -6.5805   -0.0036    0.8558 C   0  0  0  0  0  0  0  0  0  0  0  0
   -7.3189   -0.4471    1.5410 H   0  0  0  0  0  0  0  0  0  0  0  0
   -6.5070    1.4067    0.7368 C   0  0  0  0  0  0  0  0  0  0  0  0
   -7.1894    2.0368    1.3273 H   0  0  0  0  0  0  0  0  0  0  0  0
   -5.5845    2.0122   -0.1265 C   0  0  0  0  0  0  0  0  0  0  0  0
   -5.5257    3.1077   -0.2193 H   0  0  0  0  0  0  0  0  0  0  0  0
   -4.7342    1.1726   -0.8657 C   0  0  0  0  0  0  0  0  0  0  0  0
   -3.1386    0.3010   -2.2059 C   0  0  0  0  0  0  0  0  0  0  0  0
   -2.2771    0.3131   -2.8819 H   0  0  0  0  0  0  0  0  0  0  0  0
   -3.3731   -2.2374   -1.8086 C   0  0  0  0  0  0  0  0  0  0  0  0
   -3.3657   -2.5184   -2.8815 H   0  0  0  0  0  0  0  0  0  0  0  0
   -4.0718   -2.9071   -1.2753 H   0  0  0  0  0  0  0  0  0  0  0  0
   -1.9580   -2.4084   -1.2457 C   0  0  0  0  0  3  0  0  0  0  0  0
  2 21  1  0  0  0  0
  3 15  1  0  0  0  0
  4  3  1  0  0  0  0
  5  6  1  0  0  0  0
  6  7  1  0  0  0  0
  7  8  1  0  0  0  0
  7  9  2  0  0  0  0
  9 10  1  0  0  0  0
 11  9  1  0  0  0  0
 11 12  1  0  0  0  0
 13 11  2  0  0  0  0
 14 13  1  0  0  0  0
 15  6  2  0  0  0  0
 15 13  1  0  0  0  0
 16  3  1  0  0  0  0
 16  5  2  0  0  0  0
 17 16  1  0  0  0  0
 18  5  1  0  0  0  0
 18 20  1  0  0  0  0
 18 21  1  0  0  0  0
 19 18  1  0  0  0  0
 21  1  1  0  0  0  0
M  CHG  2   1  -1   2  -1
M  END
