12,14
q = -2.0, confidence = 0.666

 23 23  0  0  0  0  0  0  0  0999 V2000
    1.7022   -1.4714   -0.4282 N   0  0  0  0  0  0  0  0  0  0  0  0
    3.0673   -1.6537   -0.4184 N   0  0  0  0  0  0  0  0  0  0  0  0
    3.5912   -2.8801   -0.9827 C   0  0  0  0  0  0  0  0  0  0  0  0
    3.8593   -0.5331   -0.1850 C   0  0  0  0  0  0  0  0  0  0  0  0
    5.2642   -0.5859   -0.3655 C   0  0  0  0  0  0  0  0  0  0  0  0
    6.0565    0.5380   -0.0967 C   0  0  0  0  0  0  0  0  0  0  0  0
    5.4867    1.7417    0.3455 C   0  0  0  0  0  0  0  0  0  0  0  0
    4.0932    1.8013    0.5125 C   0  0  0  0  0  0  0  0  0  0  0  0
    3.2867    0.6890    0.2522 C   0  0  0  0  0  0  0  0  0  0  0  0
    1.1584   -0.9104   -1.6363 C   0  0  0  0  0  0  0  0  0  0  0  0
    0.9987   -1.9738    0.7168 C   0  0  0  0  0  0  0  0  0  0  0  0
   -0.1074   -0.5386   -1.5658 O   0  5  0  0  0  0  0  0  0  0  0  0
    1.8647   -0.7728   -2.6190 O   0  0  0  0  0  0  0  0  0  0  0  0
   -0.2962   -1.7026    0.7260 O   0  5  0  0  0  0  0  0  0  0  0  0
    1.5836   -2.6004    1.5814 O   0  0  0  0  0  0  0  0  0  0  0  0
    3.9481   -2.7438   -2.0282 H   0  0  0  0  0  0  0  0  0  0  0  0
    2.7837   -3.6335   -0.9729 H   0  0  0  0  0  0  0  0  0  0  0  0
    4.4193   -3.2715   -0.3573 H   0  0  0  0  0  0  0  0  0  0  0  0
    5.7416   -1.5076   -0.7219 H   0  0  0  0  0  0  0  0  0  0  0  0
    7.1453    0.4669   -0.2447 H   0  0  0  0  0  0  0  0  0  0  0  0
    6.1162    2.6195    0.5511 H   0  0  0  0  0  0  0  0  0  0  0  0
    3.6190    2.7354    0.8545 H   0  0  0  0  0  0  0  0  0  0  0  0
    2.2004    0.7561    0.3893 H   0  0  0  0  0  0  0  0  0  0  0  0
  1  2  1  0  0  0  0
  1 11  1  0  0  0  0
  2  4  1  0  0  0  0
  3 17  1  0  0  0  0
  3  2  1  0  0  0  0
  3 18  1  0  0  0  0
  4  9  1  0  0  0  0
  5  4  2  0  0  0  0
  5  6  1  0  0  0  0
  6  7  2  0  0  0  0
  7  8  1  0  0  0  0
  7 21  1  0  0  0  0
  8 22  1  0  0  0  0
  9 23  1  0  0  0  0
  9  8  2  0  0  0  0
 10 12  1  0  0  0  0
 10  1  1  0  0  0  0
 11 14  1  0  0  0  0
 11 15  2  0  0  0  0
 13 10  2  0  0  0  0
 16  3  1  0  0  0  0
 19  5  1  0  0  0  0
 20  6  1  0  0  0  0
M  CHG  2  12  -1  14  -1
M  END
