1,2
q = -2.0, confidence = 0.688

 16 15  0  0  0  0  0  0  0  0999 V2000
    0.6652   -1.0212   -0.9914 O   0  5  0  0  0  0  0  0  0  0  0  0
    1.1866    0.9480    0.5028 O   0  5  0  0  0  0  0  0  0  0  0  0
    2.3800   -2.4572   -1.2466 O   0  0  0  0  0  0  0  0  0  0  0  0
    4.1649   -0.4366   -0.9263 N   0  0  0  0  0  0  0  0  0  0  0  0
    2.8094   -0.2513   -0.6568 N   0  0  0  0  0  0  0  0  0  0  0  0
    3.1552    1.9234    0.0393 O   0  0  0  0  0  0  0  0  0  0  0  0
    1.9612   -1.3474   -0.9780 C   0  0  0  0  0  0  0  0  0  0  0  0
    2.3946    0.9679   -0.0327 C   0  0  0  0  0  0  0  0  0  0  0  0
    4.6554    0.3401   -2.0541 C   0  0  0  0  0  0  0  0  0  0  0  0
    5.0087   -0.4547    0.2548 C   0  0  0  0  0  0  0  0  0  0  0  0
    5.6541   -0.0489   -2.3397 H   0  0  0  0  0  0  0  0  0  0  0  0
    4.7377    1.4320   -1.8433 H   0  0  0  0  0  0  0  0  0  0  0  0
    3.9780    0.1895   -2.9180 H   0  0  0  0  0  0  0  0  0  0  0  0
    6.0174   -0.8063   -0.0418 H   0  0  0  0  0  0  0  0  0  0  0  0
    5.1115    0.5397    0.7527 H   0  0  0  0  0  0  0  0  0  0  0  0
    4.6004   -1.1852    0.9811 H   0  0  0  0  0  0  0  0  0  0  0  0
  1  7  1  0  0  0  0
  3  7  2  0  0  0  0
  4  5  1  0  0  0  0
  4 10  1  0  0  0  0
  5  8  1  0  0  0  0
  7  5  1  0  0  0  0
  8  6  2  0  0  0  0
  8  2  1  0  0  0  0
  9 12  1  0  0  0  0
  9  4  1  0  0  0  0
 10 15  1  0  0  0  0
 10 16  1  0  0  0  0
 11  9  1  0  0  0  0
 13  9  1  0  0  0  0
 14 10  1  0  0  0  0
M  CHG  2   1  -1   2  -1
M  END
