3,4
q = -1.0, confidence = 0.004

 33 34  0  0  1  0  0  0  0  0999 V2000
   -5.0200    2.5955    0.1400 O   0  0  0  0  0  0  0  0  0  0  0  0
   -3.5830    4.2925   -0.0073 O   0  0  0  0  0  0  0  0  0  0  0  0
   -2.0178   -0.2347   -0.2787 O   0  0  0  0  0  1  0  0  0  0  0  0
   -0.2347    2.0113   -0.4379 O   0  5  0  0  0  0  0  0  0  0  0  0
   -8.3783   -0.7962    0.5036 N   0  0  0  0  0  0  0  0  0  0  0  0
   -3.7081    3.0846   -0.0034 C   0  0  0  0  0  0  0  0  0  0  0  0
   -2.6349    2.0902   -0.1380 C   0  0  0  0  0  0  0  0  0  0  0  0
   -2.9093    0.6747   -0.1373 C   0  0  1  0  0  3  0  0  0  0  0  0
   -4.2992    0.2792    0.0144 C   0  0  0  0  0  0  0  0  0  0  0  0
   -4.7031   -1.0762    0.0341 C   0  0  0  0  0  0  0  0  0  0  0  0
   -3.9164   -1.8380   -0.0689 H   0  0  0  0  0  0  0  0  0  0  0  0
   -6.0331   -1.4405    0.1771 C   0  0  0  0  0  0  0  0  0  0  0  0
   -6.2907   -2.5062    0.1799 H   0  0  0  0  0  0  0  0  0  0  0  0
   -7.0560   -0.4444    0.3237 C   0  0  0  0  0  0  0  0  0  0  0  0
   -6.6537    0.9185    0.2958 C   0  0  0  0  0  0  0  0  0  0  0  0
   -7.3682    1.7443    0.3846 H   0  0  0  0  0  0  0  0  0  0  0  0
   -5.3073    1.2641    0.1501 C   0  0  0  0  0  0  0  0  0  0  0  0
   -1.3309    2.6340   -0.3170 C   0  0  0  0  0  0  0  0  0  0  0  0
   -1.2967    3.7493   -0.3623 H   0  0  0  0  0  0  0  0  0  0  0  0
   -8.7999   -2.1936    0.4584 C   0  0  0  0  0  0  0  0  0  0  0  0
   -8.0871   -2.8052    1.0508 H   0  0  0  0  0  0  0  0  0  0  0  0
   -9.7673   -2.2587    0.9969 H   0  0  0  0  0  0  0  0  0  0  0  0
   -8.9498   -2.7772   -0.9509 C   0  0  0  0  0  0  0  0  0  0  0  0
   -7.9996   -2.7081   -1.5168 H   0  0  0  0  0  0  0  0  0  0  0  0
   -9.2402   -3.8461   -0.8981 H   0  0  0  0  0  0  0  0  0  0  0  0
   -9.7271   -2.2407   -1.5300 H   0  0  0  0  0  0  0  0  0  0  0  0
   -9.4166    0.2256    0.6046 C   0  0  0  0  0  0  0  0  0  0  0  0
  -10.2769   -0.2338    1.1328 H   0  0  0  0  0  0  0  0  0  0  0  0
   -9.0549    1.0378    1.2699 H   0  0  0  0  0  0  0  0  0  0  0  0
   -9.8804    0.8098   -0.7345 C   0  0  0  0  0  0  0  0  0  0  0  0
  -10.3386    0.0329   -1.3778 H   0  0  0  0  0  0  0  0  0  0  0  0
  -10.6362    1.6038   -0.5679 H   0  0  0  0  0  0  0  0  0  0  0  0
   -9.0342    1.2563   -1.2931 H   0  0  0  0  0  0  0  0  0  0  0  0
  1 17  1  0  0  0  0
  2  6  2  0  0  0  0
  4 18  1  0  0  0  0
  5 27  1  0  0  0  0
  6  1  1  0  0  0  0
  7  8  1  0  0  0  0
  7  6  1  0  0  0  0
  8  3  1  6  0  0  0
  8  9  1  0  0  0  0
  9 10  2  0  0  0  0
  9 17  1  0  0  0  0
 10 12  1  0  0  0  0
 11 10  1  0  0  0  0
 12 13  1  0  0  0  0
 12 14  2  0  0  0  0
 14  5  1  0  0  0  0
 15 14  1  0  0  0  0
 15 16  1  0  0  0  0
 17 15  2  0  0  0  0
 18  7  2  0  0  0  0
 19 18  1  0  0  0  0
 20  5  1  0  0  0  0
 20 22  1  0  0  0  0
 20 21  1  0  0  0  0
 23 25  1  0  0  0  0
 23 20  1  0  0  0  0
 24 23  1  0  0  0  0
 26 23  1  0  0  0  0
 27 28  1  0  0  0  0
 27 29  1  0  0  0  0
 30 32  1  0  0  0  0
 30 27  1  0  0  0  0
 31 30  1  0  0  0  0
 33 30  1  0  0  0  0
M  CHG  1   4  -1
M  END
