42,43
q = 0.0, confidence = 0.906

 51 53  0  0  1  0  0  0  0  0999 V2000
    2.5943   -0.1645   -0.2109 P   0  0  0  0  0  4  0  0  0  0  0  0
    2.0976   -0.9629    1.3386 C   0  0  0  0  0  0  0  0  0  0  0  0
    0.7580   -0.8658    1.7835 C   0  0  0  0  0  0  0  0  0  0  0  0
    0.0081   -0.3001    1.2072 H   0  0  0  0  0  0  0  0  0  0  0  0
    0.3858   -1.4935    2.9790 C   0  0  0  0  0  0  0  0  0  0  0  0
   -0.6567   -1.4180    3.3227 H   0  0  0  0  0  0  0  0  0  0  0  0
    1.3304   -2.2107    3.7314 C   0  0  0  0  0  0  0  0  0  0  0  0
    1.0296   -2.7008    4.6695 H   0  0  0  0  0  0  0  0  0  0  0  0
    2.6604   -2.2986    3.2919 C   0  0  0  0  0  0  0  0  0  0  0  0
    3.4040   -2.8531    3.8829 H   0  0  0  0  0  0  0  0  0  0  0  0
    3.0505   -1.6755    2.0977 C   0  0  0  0  0  0  0  0  0  0  0  0
    4.0953   -1.7414    1.7614 H   0  0  0  0  0  0  0  0  0  0  0  0
    2.2757    1.6134   -0.1481 C   0  0  0  0  0  0  0  0  0  0  0  0
    1.9144    2.2405    1.0607 C   0  0  0  0  0  0  0  0  0  0  0  0
    1.7493    1.6448    1.9695 H   0  0  0  0  0  0  0  0  0  0  0  0
    1.7640    3.6340    1.0973 C   0  0  0  0  0  0  0  0  0  0  0  0
    1.4693    4.1236    2.0366 H   0  0  0  0  0  0  0  0  0  0  0  0
    1.9835    4.3985   -0.0578 C   0  0  0  0  0  0  0  0  0  0  0  0
    1.8667    5.4917   -0.0217 H   0  0  0  0  0  0  0  0  0  0  0  0
    2.3444    3.7720   -1.2628 C   0  0  0  0  0  0  0  0  0  0  0  0
    2.5122    4.3707   -2.1702 H   0  0  0  0  0  0  0  0  0  0  0  0
    2.4901    2.3805   -1.3142 C   0  0  0  0  0  0  0  0  0  0  0  0
    2.7831    1.9008   -2.2607 H   0  0  0  0  0  0  0  0  0  0  0  0
    4.3757   -0.4100   -0.4623 C   0  0  0  0  0  0  0  0  0  0  0  0
    4.8657   -1.6657   -0.8855 C   0  0  0  0  0  0  0  0  0  0  0  0
    4.1793   -2.5000   -1.0956 H   0  0  0  0  0  0  0  0  0  0  0  0
    6.2458   -1.8609   -1.0292 C   0  0  0  0  0  0  0  0  0  0  0  0
    6.6259   -2.8379   -1.3622 H   0  0  0  0  0  0  0  0  0  0  0  0
    7.1386   -0.8127   -0.7501 C   0  0  0  0  0  0  0  0  0  0  0  0
    8.2212   -0.9692   -0.8675 H   0  0  0  0  0  0  0  0  0  0  0  0
    6.6528    0.4328   -0.3225 C   0  0  0  0  0  0  0  0  0  0  0  0
    7.3517    1.2532   -0.1026 H   0  0  0  0  0  0  0  0  0  0  0  0
    5.2737    0.6396   -0.1753 C   0  0  0  0  0  0  0  0  0  0  0  0
    4.8949    1.6171    0.1574 H   0  0  0  0  0  0  0  0  0  0  0  0
    1.7213   -0.9360   -1.6425 C   0  0  0  0  0  0  0  0  0  0  0  0
    1.8547   -0.2389   -2.4960 H   0  0  0  0  0  0  0  0  0  0  0  0
    2.2335   -1.8862   -1.8810 H   0  0  0  0  0  0  0  0  0  0  0  0
    0.2460   -1.1296   -1.3253 C   0  0  1  0  0  3  0  0  0  0  0  0
   -0.2409   -2.4312   -1.2797 C   0  0  0  0  0  0  0  0  0  0  0  0
    0.4303   -3.2588   -1.5414 H   0  0  0  0  0  0  0  0  0  0  0  0
   -1.5844   -2.8057   -0.9314 C   0  0  0  0  0  0  0  0  0  0  0  0
   -0.3574   -0.0131   -1.0754 O   0  0  0  0  0  1  0  0  0  0  0  0
   -2.5095   -2.0473   -0.5391 O   0  5  0  0  0  0  0  0  0  0  0  0
   -1.8062   -4.1258   -1.0423 O   0  0  0  0  0  0  0  0  0  0  0  0
   -3.1228   -4.6163   -0.7008 C   0  0  0  0  0  0  0  0  0  0  0  0
   -3.8730   -4.0955   -1.3330 H   0  0  0  0  0  0  0  0  0  0  0  0
   -3.3411   -4.3477    0.3551 H   0  0  0  0  0  0  0  0  0  0  0  0
   -3.1308   -6.1138   -0.9220 C   0  0  0  0  0  0  0  0  0  0  0  0
   -4.1274   -6.5256   -0.6693 H   0  0  0  0  0  0  0  0  0  0  0  0
   -2.3771   -6.6155   -0.2839 H   0  0  0  0  0  0  0  0  0  0  0  0
   -2.9127   -6.3609   -1.9794 H   0  0  0  0  0  0  0  0  0  0  0  0
  1 13  1  0  0  0  0
  1  2  1  0  0  0  0
  2  3  2  0  0  0  0
  2 11  1  0  0  0  0
  3  5  1  0  0  0  0
  4  3  1  0  0  0  0
  5  6  1  0  0  0  0
  5  7  2  0  0  0  0
  7  8  1  0  0  0  0
  9  7  1  0  0  0  0
  9 10  1  0  0  0  0
 11  9  2  0  0  0  0
 12 11  1  0  0  0  0
 13 14  1  0  0  0  0
 14 16  2  0  0  0  0
 14 15  1  0  0  0  0
 16 17  1  0  0  0  0
 18 19  1  0  0  0  0
 18 16  1  0  0  0  0
 20 18  2  0  0  0  0
 21 20  1  0  0  0  0
 22 20  1  0  0  0  0
 22 13  2  0  0  0  0
 23 22  1  0  0  0  0
 24  1  1  0  0  0  0
 24 33  1  0  0  0  0
 25 24  2  0  0  0  0
 26 25  1  0  0  0  0
 27 25  1  0  0  0  0
 27 29  2  0  0  0  0
 28 27  1  0  0  0  0
 29 31  1  0  0  0  0
 30 29  1  0  0  0  0
 31 33  2  0  0  0  0
 31 32  1  0  0  0  0
 33 34  1  0  0  0  0
 35 38  1  0  0  0  0
 35  1  1  0  0  0  0
 36 35  1  0  0  0  0
 37 35  1  0  0  0  0
 38 39  1  0  0  0  0
 38 42  1  1  0  0  0
 39 41  2  0  0  0  0
 40 39  1  0  0  0  0
 41 43  1  0  0  0  0
 44 41  1  0  0  0  0
 44 45  1  0  0  0  0
 45 47  1  0  0  0  0
 46 45  1  0  0  0  0
 48 45  1  0  0  0  0
 48 49  1  0  0  0  0
 48 50  1  0  0  0  0
 51 48  1  0  0  0  0
M  CHG  1  43  -1
M  END
