1,2
q = -1.0, confidence = 0.006

 25 26  0  0  0  0  0  0  0  0999 V2000
   -2.1946    0.3696    0.2510 O   0  5  0  0  0  0  0  0  0  0  0  0
   -1.2688    0.2279   -1.7579 O   0  5  0  0  0  0  0  0  0  0  0  0
  -10.5660   -1.7329    1.8880 F   0  0  0  0  0  0  0  0  0  0  0  0
   -6.6728    0.7305    0.9106 F   0  0  0  0  0  0  0  0  0  0  0  0
   -2.3053    0.0845   -0.9775 C   0  0  0  0  0  3  0  0  0  0  0  0
   -3.5723   -0.3875   -1.5739 C   0  0  0  0  0  0  0  0  0  0  0  0
   -4.7141   -0.5398   -0.7647 C   0  0  0  0  0  0  0  0  0  0  0  0
   -5.9398   -0.9822   -1.2910 C   0  0  0  0  0  0  0  0  0  0  0  0
   -5.9882   -1.2645   -2.6828 C   0  0  0  0  0  0  0  0  0  0  0  0
   -4.8730   -1.1223   -3.5046 C   0  0  0  0  0  0  0  0  0  0  0  0
   -3.6382   -0.6839   -2.9711 C   0  0  0  0  0  0  0  0  0  0  0  0
   -2.5833   -0.5553   -3.7810 O   0  0  0  0  0  0  0  0  0  0  0  0
   -7.1396   -1.1809   -0.4444 C   0  0  0  0  0  0  0  0  0  0  0  0
   -8.0417   -2.2446   -0.6824 C   0  0  0  0  0  0  0  0  0  0  0  0
   -9.1958   -2.4449    0.0850 C   0  0  0  0  0  0  0  0  0  0  0  0
   -9.4662   -1.5575    1.1329 C   0  0  0  0  0  0  0  0  0  0  0  0
   -8.6113   -0.4878    1.4186 C   0  0  0  0  0  0  0  0  0  0  0  0
   -7.4702   -0.3197    0.6280 C   0  0  0  0  0  0  0  0  0  0  0  0
   -1.8241   -0.2568   -3.1764 H   0  0  0  0  0  0  0  0  0  0  0  0
   -4.6049   -0.3064    0.3023 H   0  0  0  0  0  0  0  0  0  0  0  0
   -6.9408   -1.5856   -3.1319 H   0  0  0  0  0  0  0  0  0  0  0  0
   -4.9257   -1.3365   -4.5817 H   0  0  0  0  0  0  0  0  0  0  0  0
   -7.8102   -2.9537   -1.4907 H   0  0  0  0  0  0  0  0  0  0  0  0
   -9.8796   -3.2828   -0.1080 H   0  0  0  0  0  0  0  0  0  0  0  0
   -8.8292    0.2123    2.2358 H   0  0  0  0  0  0  0  0  0  0  0  0
  2  5  1  0  0  0  0
  5  1  1  0  0  0  0
  6  5  1  0  0  0  0
  6  7  1  0  0  0  0
  7 20  1  0  0  0  0
  8  7  2  0  0  0  0
  8 13  1  0  0  0  0
  9  8  1  0  0  0  0
 10 11  1  0  0  0  0
 10  9  2  0  0  0  0
 11  6  2  0  0  0  0
 12 19  1  0  0  0  0
 12 11  1  0  0  0  0
 13 18  1  0  0  0  0
 14 13  2  0  0  0  0
 14 15  1  0  0  0  0
 15 16  2  0  0  0  0
 16 17  1  0  0  0  0
 16  3  1  0  0  0  0
 17 25  1  0  0  0  0
 18  4  1  0  0  0  0
 18 17  2  0  0  0  0
 21  9  1  0  0  0  0
 22 10  1  0  0  0  0
 23 14  1  0  0  0  0
 24 15  1  0  0  0  0
M  CHG  2   1  -1   2  -1
M  END
