1,2
q = -1.0

 19 19  0  0  0  0  0  0  0  0999 V2000
    0.7233   -1.1336    0.8009 O   0  5  0  0  0  0  0  0  0  0  0  0
    1.5098   -1.1860   -1.2291 O   0  5  0  0  0  0  0  0  0  0  0  0
    4.1109   -1.5511   -1.6477 N   0  0  0  0  0  0  0  0  0  0  0  0
    3.1611   -1.5015   -2.0343 H   0  0  0  0  0  0  0  0  0  0  0  0
    4.8976   -1.7902   -2.2445 H   0  0  0  0  0  0  0  0  0  0  0  0
    1.7509   -1.3109    0.0326 C   0  0  0  0  0  3  0  0  0  0  0  0
    3.0895   -1.5459    0.5674 C   0  0  0  0  0  0  0  0  0  0  0  0
    4.2333   -1.6464   -0.2931 C   0  0  0  0  0  0  0  0  0  0  0  0
    5.5273   -1.8096    0.2997 C   0  0  0  0  0  0  0  0  0  0  0  0
    5.6366   -1.8746    1.6918 C   0  0  0  0  0  0  0  0  0  0  0  0
    6.6397   -2.0012    2.1306 H   0  0  0  0  0  0  0  0  0  0  0  0
    4.5130   -1.7821    2.5389 C   0  0  0  0  0  0  0  0  0  0  0  0
    4.6335   -1.8408    3.6301 H   0  0  0  0  0  0  0  0  0  0  0  0
    3.2538   -1.6176    1.9703 C   0  0  0  0  0  0  0  0  0  0  0  0
    2.3515   -1.5378    2.5927 H   0  0  0  0  0  0  0  0  0  0  0  0
    6.7362   -1.8932   -0.5929 C   0  0  0  0  0  0  0  0  0  0  0  0
    6.6844   -2.7640   -1.2846 H   0  0  0  0  0  0  0  0  0  0  0  0
    7.6661   -1.9986   -0.0032 H   0  0  0  0  0  0  0  0  0  0  0  0
    6.8409   -0.9850   -1.2279 H   0  0  0  0  0  0  0  0  0  0  0  0
  2  6  1  0  0  0  0
  3  8  1  0  0  0  0
  4  3  1  0  0  0  0
  5  3  1  0  0  0  0
  6  7  1  0  0  0  0
  6  1  1  0  0  0  0
  7 14  1  0  0  0  0
  8  9  1  0  0  0  0
  8  7  2  0  0  0  0
  9 10  2  0  0  0  0
 10 11  1  0  0  0  0
 10 12  1  0  0  0  0
 12 13  1  0  0  0  0
 14 12  2  0  0  0  0
 14 15  1  0  0  0  0
 16 18  1  0  0  0  0
 16  9  1  0  0  0  0
 17 16  1  0  0  0  0
 19 16  1  0  0  0  0
M  CHG  2   1  -1   2  -1
M  END
