12,13
q = -1.0

 15 15  0  0  0  0  0  0  0  0999 V2000
    1.7921   -0.1814   -0.4857 C   0  0  0  0  0  3  0  0  0  0  0  0
    3.2396   -0.2047   -0.5412 C   0  0  0  0  0  0  0  0  0  0  0  0
    3.9251    0.6082   -1.4819 C   0  0  0  0  0  0  0  0  0  0  0  0
    3.3265    1.2265   -2.1667 H   0  0  0  0  0  0  0  0  0  0  0  0
    5.3147    0.6133   -1.5324 C   0  0  0  0  0  0  0  0  0  0  0  0
    5.8431    1.2399   -2.2644 H   0  0  0  0  0  0  0  0  0  0  0  0
    6.0423   -0.1993   -0.6326 C   0  0  0  0  0  0  0  0  0  0  0  0
    7.1424   -0.2002   -0.6682 H   0  0  0  0  0  0  0  0  0  0  0  0
    5.3932   -1.0049    0.3033 C   0  0  0  0  0  0  0  0  0  0  0  0
    5.9525   -1.6381    1.0063 H   0  0  0  0  0  0  0  0  0  0  0  0
    3.9830   -1.0260    0.3666 C   0  0  0  0  0  0  0  0  0  0  0  0
    1.0421    0.6049   -1.1742 O   0  5  0  0  0  0  0  0  0  0  0  0
    1.1223   -0.9591    0.3371 O   0  5  0  0  0  0  0  0  0  0  0  0
    3.3962   -1.8083    1.2863 O   0  0  0  0  0  0  0  0  0  0  0  0
    2.4144   -1.7165    1.1686 H   0  0  0  0  0  0  0  0  0  0  0  0
  1 13  1  0  0  0  0
  2  1  1  0  0  0  0
  2 11  1  0  0  0  0
  3  2  2  0  0  0  0
  4  3  1  0  0  0  0
  5  3  1  0  0  0  0
  5  7  2  0  0  0  0
  6  5  1  0  0  0  0
  7  9  1  0  0  0  0
  8  7  1  0  0  0  0
  9 11  2  0  0  0  0
  9 10  1  0  0  0  0
 11 14  1  0  0  0  0
 12  1  1  0  0  0  0
 15 14  1  0  0  0  0
M  CHG  2  12  -1  13  -1
M  END
