1,2
q = -1.0

 20 20  0  0  0  0  0  0  0  0999 V2000
    1.0128    0.0232   -0.8302 O   0  5  0  0  0  0  0  0  0  0  0  0
    0.7738   -0.8982    1.1259 O   0  5  0  0  0  0  0  0  0  0  0  0
    1.5837   -0.4710    0.2129 C   0  0  0  0  0  3  0  0  0  0  0  0
    3.0394   -0.5663    0.3767 C   0  0  0  0  0  0  0  0  0  0  0  0
    3.9396    0.3385   -0.2397 C   0  0  0  0  0  0  0  0  0  0  0  0
    5.3218    0.1827   -0.0732 C   0  0  0  0  0  0  0  0  0  0  0  0
    5.9920    0.9044   -0.5609 H   0  0  0  0  0  0  0  0  0  0  0  0
    5.8213   -0.8694    0.7065 C   0  0  0  0  0  0  0  0  0  0  0  0
    6.9087   -0.9867    0.8244 H   0  0  0  0  0  0  0  0  0  0  0  0
    4.9413   -1.7596    1.3458 C   0  0  0  0  0  0  0  0  0  0  0  0
    5.3338   -2.5772    1.9672 H   0  0  0  0  0  0  0  0  0  0  0  0
    3.5624   -1.6008    1.1855 C   0  0  0  0  0  0  0  0  0  0  0  0
    2.8549   -2.2855    1.6751 H   0  0  0  0  0  0  0  0  0  0  0  0
    2.6030    2.3090   -0.5720 C   0  0  0  0  0  0  0  0  0  0  0  0
    2.2550    3.2734   -1.6694 C   0  0  0  0  0  0  0  0  0  0  0  0
    1.6027    2.7493   -2.3984 H   0  0  0  0  0  0  0  0  0  0  0  0
    3.1591    3.6009   -2.2161 H   0  0  0  0  0  0  0  0  0  0  0  0
    1.7169    4.1396   -1.2477 H   0  0  0  0  0  0  0  0  0  0  0  0
    3.5243    1.3883   -1.0378 O   0  0  0  0  0  0  0  0  0  0  0  0
    2.1548    2.2972    0.5529 O   0  0  0  0  0  0  0  0  0  0  0  0
  1  3  1  0  0  0  0
  3  4  1  0  0  0  0
  3  2  1  0  0  0  0
  4 12  1  0  0  0  0
  5  6  1  0  0  0  0
  5  4  2  0  0  0  0
  6  8  2  0  0  0  0
  7  6  1  0  0  0  0
  8  9  1  0  0  0  0
  8 10  1  0  0  0  0
 10 11  1  0  0  0  0
 12 10  2  0  0  0  0
 12 13  1  0  0  0  0
 14 20  2  0  0  0  0
 15 18  1  0  0  0  0
 15 14  1  0  0  0  0
 16 15  1  0  0  0  0
 17 15  1  0  0  0  0
 19 14  1  0  0  0  0
 19  5  1  0  0  0  0
M  CHG  2   1  -1   2  -1
M  END
