13,14
q = -1.0

 17 17  0  0  0  0  0  0  0  0999 V2000
   -2.1431   -0.4656   -0.5514 C   0  0  0  0  0  3  0  0  0  0  0  0
   -3.4475   -1.1088   -0.9208 C   0  0  0  0  0  0  0  0  0  0  0  0
   -3.9526   -0.9869   -2.2303 C   0  0  0  0  0  0  0  0  0  0  0  0
   -3.3602   -0.4178   -2.9616 H   0  0  0  0  0  0  0  0  0  0  0  0
   -5.1753   -1.5823   -2.5750 C   0  0  0  0  0  0  0  0  0  0  0  0
   -5.5660   -1.4858   -3.5993 H   0  0  0  0  0  0  0  0  0  0  0  0
   -5.8985   -2.3022   -1.6157 C   0  0  0  0  0  0  0  0  0  0  0  0
   -6.8595   -2.7810   -1.8548 H   0  0  0  0  0  0  0  0  0  0  0  0
   -5.3982   -2.4311   -0.3031 C   0  0  0  0  0  0  0  0  0  0  0  0
   -4.1713   -1.8344    0.0412 C   0  0  0  0  0  0  0  0  0  0  0  0
   -3.7605   -1.9271    1.0555 H   0  0  0  0  0  0  0  0  0  0  0  0
   -6.2072   -3.2108    0.6779 C   0  0  0  0  0  0  0  0  0  0  0  0
   -1.4967    0.1833   -1.4403 O   0  5  0  0  0  0  0  0  0  0  0  0
   -1.7111   -0.5664    0.6452 O   0  5  0  0  0  0  0  0  0  0  0  0
   -7.2745   -3.7494    0.4308 O   0  0  0  0  0  0  0  0  0  0  0  0
   -5.6336   -3.2689    1.9092 O   0  0  0  0  0  0  0  0  0  0  0  0
   -6.2505   -3.8070    2.4498 H   0  0  0  0  0  0  0  0  0  0  0  0
  1 14  1  0  0  0  0
  2  1  1  0  0  0  0
  2 10  1  0  0  0  0
  3  2  2  0  0  0  0
  4  3  1  0  0  0  0
  5  3  1  0  0  0  0
  5  7  2  0  0  0  0
  6  5  1  0  0  0  0
  7  9  1  0  0  0  0
  8  7  1  0  0  0  0
  9 10  2  0  0  0  0
  9 12  1  0  0  0  0
 10 11  1  0  0  0  0
 12 16  1  0  0  0  0
 13  1  1  0  0  0  0
 15 12  2  0  0  0  0
 16 17  1  0  0  0  0
M  CHG  2  13  -1  14  -1
M  END
