1,2
q = -1.0, confidence = 0.004

 26 26  0  0  0  0  0  0  0  0999 V2000
    1.2829   -0.1208   -0.3958 O   0  5  0  0  0  0  0  0  0  0  0  0
    1.9453   -2.6323    0.0381 O   0  0  0  0  0  1  0  0  0  0  0  0
    2.4884    0.2329   -0.0487 C   0  0  0  0  0  0  0  0  0  0  0  0
    3.4243   -0.7676    0.3998 C   0  0  0  0  0  0  0  0  0  0  0  0
    4.7384   -0.4007    0.7977 C   0  0  0  0  0  0  0  0  0  0  0  0
    5.4345   -1.1859    1.1333 H   0  0  0  0  0  0  0  0  0  0  0  0
    5.1200    0.9298    0.7542 C   0  0  0  0  0  0  0  0  0  0  0  0
    6.1288    1.2364    1.0656 H   0  0  0  0  0  0  0  0  0  0  0  0
    4.2031    1.9057    0.2871 C   0  0  0  0  0  0  0  0  0  0  0  0
    4.5434    2.9498    0.2518 H   0  0  0  0  0  0  0  0  0  0  0  0
    2.9006    1.6095   -0.1312 C   0  0  0  0  0  0  0  0  0  0  0  0
    1.9330    2.6793   -0.6652 C   0  0  0  0  0  0  0  0  0  0  0  0
    1.5407    2.3305   -2.1223 C   0  0  0  0  0  0  0  0  0  0  0  0
    0.8206    3.0814   -2.5082 H   0  0  0  0  0  0  0  0  0  0  0  0
    1.0701    1.3326   -2.1950 H   0  0  0  0  0  0  0  0  0  0  0  0
    2.4327    2.3432   -2.7810 H   0  0  0  0  0  0  0  0  0  0  0  0
    0.6674    2.7366    0.2236 C   0  0  0  0  0  0  0  0  0  0  0  0
   -0.0174    3.5276   -0.1457 H   0  0  0  0  0  0  0  0  0  0  0  0
    0.9303    2.9767    1.2742 H   0  0  0  0  0  0  0  0  0  0  0  0
    0.1201    1.7786    0.2094 H   0  0  0  0  0  0  0  0  0  0  0  0
    2.5767    4.0772   -0.6647 C   0  0  0  0  0  0  0  0  0  0  0  0
    1.8520    4.8139   -1.0648 H   0  0  0  0  0  0  0  0  0  0  0  0
    3.4806    4.1209   -1.3057 H   0  0  0  0  0  0  0  0  0  0  0  0
    2.8563    4.4082    0.3565 H   0  0  0  0  0  0  0  0  0  0  0  0
    3.0617   -2.1520    0.3565 C   0  0  0  0  0  3  0  0  0  0  0  0
    3.8678   -2.8864    0.6032 H   0  0  0  0  0  0  0  0  0  0  0  0
  1  3  1  0  0  0  0
  2 25  1  0  0  0  0
  3  4  1  0  0  0  0
  4  5  2  0  0  0  0
  5  6  1  0  0  0  0
  7  5  1  0  0  0  0
  7  8  1  0  0  0  0
  9  7  2  0  0  0  0
 10  9  1  0  0  0  0
 11  3  2  0  0  0  0
 11  9  1  0  0  0  0
 12 21  1  0  0  0  0
 12 11  1  0  0  0  0
 12 17  1  0  0  0  0
 13 12  1  0  0  0  0
 14 13  1  0  0  0  0
 15 13  1  0  0  0  0
 16 13  1  0  0  0  0
 17 19  1  0  0  0  0
 18 17  1  0  0  0  0
 20 17  1  0  0  0  0
 21 24  1  0  0  0  0
 22 21  1  0  0  0  0
 23 21  1  0  0  0  0
 25  4  1  0  0  0  0
 25 26  1  0  0  0  0
M  CHG  1   1  -1
M  END
