12,13
q = -1.0, confidence = 0.016

 18 18  0  0  0  0  0  0  0  0999 V2000
   -3.0531   -2.8190   -2.2914 C   0  0  0  0  0  0  0  0  0  0  0  0
   -3.9969   -3.6823   -1.7005 C   0  0  0  0  0  0  0  0  0  0  0  0
   -4.2620   -3.5877   -0.6390 H   0  0  0  0  0  0  0  0  0  0  0  0
   -4.6028   -4.6759   -2.4862 C   0  0  0  0  0  0  0  0  0  0  0  0
   -4.2775   -4.8126   -3.8493 C   0  0  0  0  0  0  0  0  0  0  0  0
   -4.7519   -5.5884   -4.4642 H   0  0  0  0  0  0  0  0  0  0  0  0
   -3.3334   -3.9457   -4.4391 C   0  0  0  0  0  0  0  0  0  0  0  0
   -2.7207   -2.9506   -3.6605 C   0  0  0  0  0  0  0  0  0  0  0  0
   -1.9808   -2.2616   -4.0969 H   0  0  0  0  0  0  0  0  0  0  0  0
   -2.4061   -1.7800   -1.4903 C   0  0  0  0  0  3  0  0  0  0  0  0
   -5.5980   -5.5738   -1.8223 C   0  0  0  0  0  0  0  0  0  0  0  0
   -1.5131   -0.9740   -1.9900 O   0  5  0  0  0  0  0  0  0  0  0  0
   -2.6720   -1.6112   -0.2357 O   0  5  0  0  0  0  0  0  0  0  0  0
   -5.9173   -5.5045   -0.6484 O   0  0  0  0  0  0  0  0  0  0  0  0
   -6.1224   -6.4938   -2.6724 O   0  0  0  0  0  0  0  0  0  0  0  0
   -6.7523   -7.0163   -2.1311 H   0  0  0  0  0  0  0  0  0  0  0  0
   -3.0608   -4.1235   -5.7575 O   0  0  0  0  0  0  0  0  0  0  0  0
   -2.4050   -3.4574   -6.0358 H   0  0  0  0  0  0  0  0  0  0  0  0
  1  2  1  0  0  0  0
  1 10  1  0  0  0  0
  2  3  1  0  0  0  0
  4 11  1  0  0  0  0
  4  2  2  0  0  0  0
  5  4  1  0  0  0  0
  6  5  1  0  0  0  0
  7  5  2  0  0  0  0
  7  8  1  0  0  0  0
  8  1  2  0  0  0  0
  9  8  1  0  0  0  0
 10 13  1  0  0  0  0
 11 14  2  0  0  0  0
 12 10  1  0  0  0  0
 15 16  1  0  0  0  0
 15 11  1  0  0  0  0
 17  7  1  0  0  0  0
 18 17  1  0  0  0  0
M  CHG  2  12  -1  13  -1
M  END
