2,3
q = -1.0

 14 14  0  0  0  0  0  0  0  0999 V2000
   -4.3604    0.4189    1.5679 S   0  0  0  0  0  0  0  0  0  0  0  0
   -1.4831    0.2642    1.0697 O   0  5  0  0  0  0  0  0  0  0  0  0
   -1.5068   -0.0882   -1.1293 O   0  5  0  0  0  0  0  0  0  0  0  0
   -2.1372    0.1040   -0.0275 C   0  0  0  0  0  3  0  0  0  0  0  0
   -3.6037    0.1373    0.0163 C   0  0  0  0  0  0  0  0  0  0  0  0
   -4.5492   -0.0424   -1.0023 C   0  0  0  0  0  0  0  0  0  0  0  0
   -5.8810    0.0545   -0.4909 C   0  0  0  0  0  0  0  0  0  0  0  0
   -6.7779   -0.0579   -1.1164 H   0  0  0  0  0  0  0  0  0  0  0  0
   -5.9306    0.2996    0.8702 C   0  0  0  0  0  0  0  0  0  0  0  0
   -6.8223    0.4156    1.4994 H   0  0  0  0  0  0  0  0  0  0  0  0
   -4.2339   -0.2880   -2.4495 C   0  0  0  0  0  0  0  0  0  0  0  0
   -3.2216   -0.7117   -2.5721 H   0  0  0  0  0  0  0  0  0  0  0  0
   -4.2640    0.6646   -3.0217 H   0  0  0  0  0  0  0  0  0  0  0  0
   -4.9848   -0.9619   -2.9069 H   0  0  0  0  0  0  0  0  0  0  0  0
  3  4  1  0  0  0  0
  4  5  1  0  0  0  0
  4  2  1  0  0  0  0
  5  1  1  0  0  0  0
  6  7  1  0  0  0  0
  6  5  2  0  0  0  0
  7  9  2  0  0  0  0
  8  7  1  0  0  0  0
  9 10  1  0  0  0  0
  9  1  1  0  0  0  0
 11  6  1  0  0  0  0
 12 11  1  0  0  0  0
 13 11  1  0  0  0  0
 14 11  1  0  0  0  0
M  CHG  2   2  -1   3  -1
M  END
