1,2
q = -1.0

 48 48  0  0  1  0  0  0  0  0999 V2000
    1.5933   -0.7869    1.3256 O   0  0  0  0  0  1  0  0  0  0  0  0
    1.2884   -0.3921   -1.3585 O   0  5  0  0  0  0  0  0  0  0  0  0
   -2.7510    0.2230   -0.0623 N   0  0  0  0  0  0  0  0  0  0  0  0
    0.3126   -0.7460    1.3431 C   0  0  2  0  0  3  0  0  0  0  0  0
   -0.5277   -0.6699    0.1927 C   0  0  0  0  0  0  0  0  0  0  0  0
    0.0355   -0.4526   -1.1072 C   0  0  0  0  0  0  0  0  0  0  0  0
   -2.0144   -0.7511    0.3603 C   0  0  0  0  0  0  0  0  0  0  0  0
   -4.1529    0.2628   -0.0051 C   0  0  0  0  0  0  0  0  0  0  0  0
   -4.7374    1.2249    0.8753 C   0  0  0  0  0  0  0  0  0  0  0  0
   -6.1328    1.3689    0.9006 C   0  0  0  0  0  0  0  0  0  0  0  0
   -6.9568    0.6020    0.0649 C   0  0  0  0  0  0  0  0  0  0  0  0
   -6.3755   -0.3205   -0.8116 C   0  0  0  0  0  0  0  0  0  0  0  0
   -4.9818   -0.5138   -0.8672 C   0  0  0  0  0  0  0  0  0  0  0  0
   -0.8505   -0.2713   -2.3199 C   0  0  0  0  0  0  0  0  0  0  0  0
   -0.2628   -0.7151    2.7468 C   0  0  0  0  0  0  0  0  0  0  0  0
   -2.5789   -2.0233    0.9613 C   0  0  0  0  0  0  0  0  0  0  0  0
   -3.8321    2.0245    1.8001 C   0  0  0  0  0  0  0  0  0  0  0  0
   -3.6633    1.2935    3.1453 C   0  0  0  0  0  0  0  0  0  0  0  0
   -4.2901    3.4722    2.0156 C   0  0  0  0  0  0  0  0  0  0  0  0
   -4.3998   -1.4781   -1.8937 C   0  0  0  0  0  0  0  0  0  0  0  0
   -5.0490   -2.8697   -1.8391 C   0  0  0  0  0  0  0  0  0  0  0  0
   -4.4756   -0.8769   -3.3087 C   0  0  0  0  0  0  0  0  0  0  0  0
   -6.5856    2.1004    1.5868 H   0  0  0  0  0  0  0  0  0  0  0  0
   -8.0496    0.7283    0.0932 H   0  0  0  0  0  0  0  0  0  0  0  0
   -7.0217   -0.9116   -1.4793 H   0  0  0  0  0  0  0  0  0  0  0  0
   -1.5141   -1.1472   -2.4650 H   0  0  0  0  0  0  0  0  0  0  0  0
   -1.5125    0.6060   -2.1887 H   0  0  0  0  0  0  0  0  0  0  0  0
   -0.2103   -0.1493   -3.2114 H   0  0  0  0  0  0  0  0  0  0  0  0
   -1.3044   -0.3521    2.7927 H   0  0  0  0  0  0  0  0  0  0  0  0
    0.3763   -0.0496    3.3590 H   0  0  0  0  0  0  0  0  0  0  0  0
   -0.2121   -1.7225    3.2114 H   0  0  0  0  0  0  0  0  0  0  0  0
   -3.6161   -1.8820    1.3229 H   0  0  0  0  0  0  0  0  0  0  0  0
   -1.9448   -2.4193    1.7751 H   0  0  0  0  0  0  0  0  0  0  0  0
   -2.5971   -2.8090    0.1754 H   0  0  0  0  0  0  0  0  0  0  0  0
   -2.8373    2.0470    1.3039 H   0  0  0  0  0  0  0  0  0  0  0  0
   -3.3416    0.2430    2.9977 H   0  0  0  0  0  0  0  0  0  0  0  0
   -4.6258    1.2644    3.6978 H   0  0  0  0  0  0  0  0  0  0  0  0
   -2.9124    1.7977    3.7887 H   0  0  0  0  0  0  0  0  0  0  0  0
   -4.4390    3.9977    1.0513 H   0  0  0  0  0  0  0  0  0  0  0  0
   -5.2428    3.5278    2.5828 H   0  0  0  0  0  0  0  0  0  0  0  0
   -3.5333    4.0341    2.6001 H   0  0  0  0  0  0  0  0  0  0  0  0
   -3.3263   -1.6086   -1.6584 H   0  0  0  0  0  0  0  0  0  0  0  0
   -4.9941   -3.3026   -0.8199 H   0  0  0  0  0  0  0  0  0  0  0  0
   -4.5424   -3.5664   -2.5384 H   0  0  0  0  0  0  0  0  0  0  0  0
   -6.1192   -2.8357   -2.1295 H   0  0  0  0  0  0  0  0  0  0  0  0
   -3.9619    0.1040   -3.3531 H   0  0  0  0  0  0  0  0  0  0  0  0
   -5.5300   -0.7169   -3.6156 H   0  0  0  0  0  0  0  0  0  0  0  0
   -4.0018   -1.5491   -4.0544 H   0  0  0  0  0  0  0  0  0  0  0  0
  2  6  1  0  0  0  0
  3  8  1  0  0  0  0
  3  7  2  0  0  0  0
  4  1  1  1  0  0  0
  4 15  1  0  0  0  0
  5  7  1  0  0  0  0
  5  4  1  0  0  0  0
  6  5  2  0  0  0  0
  7 16  1  0  0  0  0
  8  9  1  0  0  0  0
  9 10  2  0  0  0  0
  9 17  1  0  0  0  0
 10 23  1  0  0  0  0
 11 24  1  0  0  0  0
 11 10  1  0  0  0  0
 12 11  2  0  0  0  0
 13 12  1  0  0  0  0
 13  8  2  0  0  0  0
 14 27  1  0  0  0  0
 14  6  1  0  0  0  0
 15 29  1  0  0  0  0
 15 31  1  0  0  0  0
 15 30  1  0  0  0  0
 16 32  1  0  0  0  0
 16 33  1  0  0  0  0
 17 19  1  0  0  0  0
 17 18  1  0  0  0  0
 18 37  1  0  0  0  0
 18 38  1  0  0  0  0
 19 40  1  0  0  0  0
 19 41  1  0  0  0  0
 20 21  1  0  0  0  0
 20 42  1  0  0  0  0
 20 13  1  0  0  0  0
 21 43  1  0  0  0  0
 22 20  1  0  0  0  0
 25 12  1  0  0  0  0
 26 14  1  0  0  0  0
 28 14  1  0  0  0  0
 34 16  1  0  0  0  0
 35 17  1  0  0  0  0
 36 18  1  0  0  0  0
 39 19  1  0  0  0  0
 44 21  1  0  0  0  0
 45 21  1  0  0  0  0
 46 22  1  0  0  0  0
 47 22  1  0  0  0  0
 48 22  1  0  0  0  0
M  CHG  1   2  -1
M  END
