1,3
q = -2.0, confidence = 0.71

 13 12  0  0  1  0  0  0  0  0999 V2000
   -0.5191   -1.7941    0.2034 O   0  5  0  0  0  0  0  0  0  0  0  0
   -2.2128   -3.1642    0.7241 O   0  0  0  0  0  0  0  0  0  0  0  0
   -1.5430    0.5528    0.9420 O   0  5  0  0  0  0  0  0  0  0  0  0
   -3.3523    1.8409    0.7141 O   0  0  0  0  0  0  0  0  0  0  0  0
   -1.9202   -0.8407   -1.9230 O   0  0  0  0  0  0  0  0  0  0  0  0
   -2.4905   -0.1795   -2.3585 H   0  0  0  0  0  0  0  0  0  0  0  0
   -1.7552   -2.2091    0.1023 C   0  0  0  0  0  0  0  0  0  0  0  0
   -2.6874   -1.4397   -0.8659 C   0  0  1  0  0  0  0  0  0  0  0  0
   -3.3715   -2.2133   -1.2809 H   0  0  0  0  0  0  0  0  0  0  0  0
   -3.5307   -0.4048   -0.1161 C   0  0  0  0  0  0  0  0  0  0  0  0
   -4.0674   -0.9363    0.6994 H   0  0  0  0  0  0  0  0  0  0  0  0
   -4.3187    0.0230   -0.7728 H   0  0  0  0  0  0  0  0  0  0  0  0
   -2.7767    0.7647    0.5339 C   0  0  0  0  0  0  0  0  0  0  0  0
  5  8  1  0  0  0  0
  6  5  1  0  0  0  0
  7  1  1  0  0  0  0
  7  2  2  0  0  0  0
  8  9  1  6  0  0  0
  8 10  1  0  0  0  0
  8  7  1  0  0  0  0
 10 13  1  0  0  0  0
 10 11  1  0  0  0  0
 12 10  1  0  0  0  0
 13  4  2  0  0  0  0
 13  3  1  0  0  0  0
M  CHG  2   1  -1   3  -1
M  END
