1,2
q = -1.0, confidence = 0.002

 19 19  0  0  0  0  0  0  0  0999 V2000
    1.5128    1.6200    0.3612 O   0  5  0  0  0  0  0  0  0  0  0  0
    1.7613    0.1505   -1.2864 O   0  5  0  0  0  0  0  0  0  0  0  0
    7.3046    3.3853   -1.8462 N   0  0  0  0  0  0  0  0  0  0  0  0
    7.7656    3.0190   -2.6761 H   0  0  0  0  0  0  0  0  0  0  0  0
    2.1991    1.1573   -0.5979 C   0  0  0  0  0  3  0  0  0  0  0  0
    3.5274    1.7364   -0.9297 C   0  0  0  0  0  0  0  0  0  0  0  0
    4.0359    2.8195   -0.1854 C   0  0  0  0  0  0  0  0  0  0  0  0
    3.4181    3.2157    0.6341 H   0  0  0  0  0  0  0  0  0  0  0  0
    5.2808    3.3812   -0.4766 C   0  0  0  0  0  0  0  0  0  0  0  0
    5.6464    4.2280    0.1205 H   0  0  0  0  0  0  0  0  0  0  0  0
    6.0697    2.8640   -1.5398 C   0  0  0  0  0  0  0  0  0  0  0  0
    5.5527    1.7721   -2.2914 C   0  0  0  0  0  0  0  0  0  0  0  0
    6.1512    1.3618   -3.1212 H   0  0  0  0  0  0  0  0  0  0  0  0
    4.3085    1.2248   -1.9899 C   0  0  0  0  0  0  0  0  0  0  0  0
    3.9097    0.3829   -2.5742 H   0  0  0  0  0  0  0  0  0  0  0  0
    7.8806    4.5378   -1.2029 C   0  0  0  0  0  0  0  0  0  0  0  0
    8.8731    4.7461   -1.6446 H   0  0  0  0  0  0  0  0  0  0  0  0
    8.0279    4.3739   -0.1116 H   0  0  0  0  0  0  0  0  0  0  0  0
    7.2560    5.4549   -1.3181 H   0  0  0  0  0  0  0  0  0  0  0  0
  2  5  1  0  0  0  0
  3 11  1  0  0  0  0
  3 16  1  0  0  0  0
  4  3  1  0  0  0  0
  5  1  1  0  0  0  0
  6  5  1  0  0  0  0
  6  7  1  0  0  0  0
  7  8  1  0  0  0  0
  9  7  2  0  0  0  0
  9 10  1  0  0  0  0
 11  9  1  0  0  0  0
 12 14  1  0  0  0  0
 12 11  2  0  0  0  0
 13 12  1  0  0  0  0
 14  6  2  0  0  0  0
 15 14  1  0  0  0  0
 16 18  1  0  0  0  0
 17 16  1  0  0  0  0
 19 16  1  0  0  0  0
M  CHG  2   1  -1   2  -1
M  END
