1,4
q = -1.0

 36 39  0  0  0  0  0  0  0  0999 V2000
   -1.3389   -1.4661   -1.7279 O   0  5  0  0  0  0  0  0  0  0  0  0
   -2.7432   -2.5775    0.7718 O   0  0  0  0  0  0  0  0  0  0  0  0
   -4.3850   -1.6083   -0.6637 C   0  0  0  0  0  0  0  0  0  0  0  0
    0.4186   -2.3352   -0.6527 O   0  5  0  0  0  0  0  0  0  0  0  0
   -8.2081    1.3206    0.5337 C   0  0  0  0  0  0  0  0  0  0  0  0
   -9.1321    1.7804    1.4989 C   0  0  0  0  0  0  0  0  0  0  0  0
   -9.8709    2.5428    1.2072 H   0  0  0  0  0  0  0  0  0  0  0  0
   -6.3178    0.3649   -1.3909 C   0  0  0  0  0  0  0  0  0  0  0  0
   -7.2385    0.3279    0.9081 C   0  0  0  0  0  0  0  0  0  0  0  0
   -5.3090   -1.1409    0.3277 C   0  0  0  0  0  0  0  0  0  0  0  0
   -6.2883   -0.1535   -0.0501 C   0  0  0  0  0  0  0  0  0  0  0  0
   -4.4445   -1.0847   -1.9751 C   0  0  0  0  0  0  0  0  0  0  0  0
   -3.6785   -1.3987   -2.6969 H   0  0  0  0  0  0  0  0  0  0  0  0
   -0.6864   -2.4626   -1.2532 C   0  0  0  0  0  3  0  0  0  0  0  0
   -7.2955    1.3596   -1.7378 C   0  0  0  0  0  0  0  0  0  0  0  0
   -7.3002    1.7481   -2.7678 H   0  0  0  0  0  0  0  0  0  0  0  0
   -9.1128    1.2807    2.8080 C   0  0  0  0  0  0  0  0  0  0  0  0
   -9.8402    1.6513    3.5457 H   0  0  0  0  0  0  0  0  0  0  0  0
   -2.8940   -3.6403   -1.3542 C   0  0  0  0  0  0  0  0  0  0  0  0
   -3.4101   -4.5850   -1.0703 H   0  0  0  0  0  0  0  0  0  0  0  0
   -3.2599   -3.3777   -2.3630 H   0  0  0  0  0  0  0  0  0  0  0  0
   -5.3350   -1.6329    1.6825 C   0  0  0  0  0  0  0  0  0  0  0  0
   -4.5949   -2.3839    1.9830 H   0  0  0  0  0  0  0  0  0  0  0  0
   -7.2274   -0.1762    2.2514 C   0  0  0  0  0  0  0  0  0  0  0  0
   -3.3101   -2.5874   -0.3341 C   0  0  0  0  0  0  0  0  0  0  0  0
   -6.2521   -1.1711    2.5961 C   0  0  0  0  0  0  0  0  0  0  0  0
   -6.2484   -1.5669    3.6237 H   0  0  0  0  0  0  0  0  0  0  0  0
   -1.3695   -3.8286   -1.3274 C   0  0  0  0  0  0  0  0  0  0  0  0
   -1.0426   -4.4106   -0.4461 H   0  0  0  0  0  0  0  0  0  0  0  0
   -1.0283   -4.3755   -2.2305 H   0  0  0  0  0  0  0  0  0  0  0  0
   -5.3777   -0.1137   -2.3310 C   0  0  0  0  0  0  0  0  0  0  0  0
   -5.3806    0.3003   -3.3508 H   0  0  0  0  0  0  0  0  0  0  0  0
   -8.2040    1.8180   -0.8152 C   0  0  0  0  0  0  0  0  0  0  0  0
   -8.9483    2.5795   -1.0954 H   0  0  0  0  0  0  0  0  0  0  0  0
   -8.1716    0.3134    3.1826 C   0  0  0  0  0  0  0  0  0  0  0  0
   -8.1563   -0.0779    4.2115 H   0  0  0  0  0  0  0  0  0  0  0  0
  1 14  1  0  0  0  0
  3 25  1  0  0  0  0
  3 10  1  0  0  0  0
  5  9  2  0  0  0  0
  5  6  1  0  0  0  0
  6 17  2  0  0  0  0
  7  6  1  0  0  0  0
  8 11  1  0  0  0  0
  9 24  1  0  0  0  0
 10 22  1  0  0  0  0
 11 10  2  0  0  0  0
 11  9  1  0  0  0  0
 12  3  2  0  0  0  0
 13 12  1  0  0  0  0
 14  4  1  0  0  0  0
 15  8  1  0  0  0  0
 15 33  2  0  0  0  0
 16 15  1  0  0  0  0
 17 35  1  0  0  0  0
 17 18  1  0  0  0  0
 19 28  1  0  0  0  0
 19 20  1  0  0  0  0
 19 25  1  0  0  0  0
 21 19  1  0  0  0  0
 22 23  1  0  0  0  0
 22 26  2  0  0  0  0
 24 26  1  0  0  0  0
 24 35  2  0  0  0  0
 25  2  2  0  0  0  0
 26 27  1  0  0  0  0
 28 14  1  0  0  0  0
 28 29  1  0  0  0  0
 30 28  1  0  0  0  0
 31 12  1  0  0  0  0
 31  8  2  0  0  0  0
 32 31  1  0  0  0  0
 33  5  1  0  0  0  0
 34 33  1  0  0  0  0
 35 36  1  0  0  0  0
M  CHG  2   1  -1   4  -1
M  END
