1,3
q = -2.0, confidence = 0.796

 47 48  0  0  0  0  0  0  0  0999 V2000
    0.2216   -1.7498   -0.0406 O   0  0  0  0  0  1  0  0  0  0  0  0
   -1.2445    0.1811    0.0003 O   0  0  0  0  0  0  0  0  0  0  0  0
    1.0002    1.1554    0.0297 O   0  0  0  0  0  1  0  0  0  0  0  0
   -5.6309   -4.6922   -0.1392 O   0  0  0  0  0  0  0  0  0  0  0  0
   -2.5543    6.6047    0.1365 O   0  0  0  0  0  0  0  0  0  0  0  0
   -2.2861   -2.1282   -0.0564 C   0  0  0  0  0  0  0  0  0  0  0  0
   -3.5897   -1.5895   -0.0406 C   0  0  0  0  0  0  0  0  0  0  0  0
   -3.7076   -0.4950   -0.0102 H   0  0  0  0  0  0  0  0  0  0  0  0
   -4.7374   -2.3969   -0.0584 C   0  0  0  0  0  0  0  0  0  0  0  0
   -5.7289   -1.9242   -0.0418 H   0  0  0  0  0  0  0  0  0  0  0  0
   -4.6002   -3.8013   -0.0980 C   0  0  0  0  0  0  0  0  0  0  0  0
   -3.3040   -4.3653   -0.1135 C   0  0  0  0  0  0  0  0  0  0  0  0
   -3.2198   -5.4619   -0.1444 H   0  0  0  0  0  0  0  0  0  0  0  0
   -2.1795   -3.5394   -0.0937 C   0  0  0  0  0  0  0  0  0  0  0  0
   -1.1766   -3.9952   -0.1074 H   0  0  0  0  0  0  0  0  0  0  0  0
   -6.9909   -4.2361   -0.0465 C   0  0  0  0  0  0  0  0  0  0  0  0
   -7.1116   -3.3292   -0.6832 H   0  0  0  0  0  0  0  0  0  0  0  0
   -7.8466   -5.3569   -0.6239 C   0  0  0  0  0  0  0  0  0  0  0  0
   -8.9184   -5.0774   -0.6054 H   0  0  0  0  0  0  0  0  0  0  0  0
   -7.7154   -6.2843   -0.0303 H   0  0  0  0  0  0  0  0  0  0  0  0
   -7.5544   -5.5716   -1.6701 H   0  0  0  0  0  0  0  0  0  0  0  0
   -7.3496   -3.9019    1.4012 C   0  0  0  0  0  0  0  0  0  0  0  0
   -6.6863   -3.1165    1.8125 H   0  0  0  0  0  0  0  0  0  0  0  0
   -7.2472   -4.8059    2.0352 H   0  0  0  0  0  0  0  0  0  0  0  0
   -8.3957   -3.5418    1.4712 H   0  0  0  0  0  0  0  0  0  0  0  0
   -0.9748    2.7003    0.0532 C   0  0  0  0  0  0  0  0  0  0  0  0
   -0.1644    3.8610    0.0810 C   0  0  0  0  0  0  0  0  0  0  0  0
    0.9305    3.7436    0.0860 H   0  0  0  0  0  0  0  0  0  0  0  0
   -0.7154    5.1427    0.1013 C   0  0  0  0  0  0  0  0  0  0  0  0
   -0.0861    6.0448    0.1245 H   0  0  0  0  0  0  0  0  0  0  0  0
   -2.1186    5.3143    0.0963 C   0  0  0  0  0  0  0  0  0  0  0  0
   -2.9502    4.1739    0.0668 C   0  0  0  0  0  0  0  0  0  0  0  0
   -4.0445    4.2698    0.0586 H   0  0  0  0  0  0  0  0  0  0  0  0
   -2.3718    2.8956    0.0479 C   0  0  0  0  0  0  0  0  0  0  0  0
   -3.0284    2.0120    0.0251 H   0  0  0  0  0  0  0  0  0  0  0  0
   -3.9584    6.9022    0.0537 C   0  0  0  0  0  0  0  0  0  0  0  0
   -4.5176    6.1852    0.6981 H   0  0  0  0  0  0  0  0  0  0  0  0
   -4.4484    6.7899   -1.3898 C   0  0  0  0  0  0  0  0  0  0  0  0
   -5.5328    7.0113   -1.4522 H   0  0  0  0  0  0  0  0  0  0  0  0
   -4.2797    5.7744   -1.7978 H   0  0  0  0  0  0  0  0  0  0  0  0
   -3.9057    7.5133   -2.0314 H   0  0  0  0  0  0  0  0  0  0  0  0
   -4.1215    8.3049    0.6259 C   0  0  0  0  0  0  0  0  0  0  0  0
   -3.5425    9.0344    0.0241 H   0  0  0  0  0  0  0  0  0  0  0  0
   -3.7520    8.3463    1.6689 H   0  0  0  0  0  0  0  0  0  0  0  0
   -5.1869    8.6082    0.6149 H   0  0  0  0  0  0  0  0  0  0  0  0
   -1.0125   -1.1978   -0.0311 B   0  0  0  0  0  0  0  0  0  0  0  0
   -0.3639    1.2464    0.0259 B   0  0  0  0  0  0  0  0  0  0  0  0
  1 46  1  0  0  0  0
  2 47  1  0  0  0  0
  4 11  1  0  0  0  0
  4 16  1  0  0  0  0
  6  7  1  0  0  0  0
  6 46  1  0  0  0  0
  7  8  1  0  0  0  0
  9 10  1  0  0  0  0
  9  7  2  0  0  0  0
 11  9  1  0  0  0  0
 12 11  2  0  0  0  0
 12 14  1  0  0  0  0
 13 12  1  0  0  0  0
 14  6  2  0  0  0  0
 15 14  1  0  0  0  0
 16 22  1  0  0  0  0
 17 16  1  0  0  0  0
 18 19  1  0  0  0  0
 18 16  1  0  0  0  0
 18 20  1  0  0  0  0
 21 18  1  0  0  0  0
 22 25  1  0  0  0  0
 22 23  1  0  0  0  0
 22 24  1  0  0  0  0
 26 27  1  0  0  0  0
 27 28  1  0  0  0  0
 27 29  2  0  0  0  0
 29 30  1  0  0  0  0
 31 29  1  0  0  0  0
 31  5  1  0  0  0  0
 32 31  2  0  0  0  0
 33 32  1  0  0  0  0
 34 26  2  0  0  0  0
 34 32  1  0  0  0  0
 35 34  1  0  0  0  0
 36  5  1  0  0  0  0
 36 42  1  0  0  0  0
 36 37  1  0  0  0  0
 38 36  1  0  0  0  0
 39 38  1  0  0  0  0
 40 38  1  0  0  0  0
 41 38  1  0  0  0  0
 42 44  1  0  0  0  0
 43 42  1  0  0  0  0
 45 42  1  0  0  0  0
 46  2  1  0  0  0  0
 47  3  1  0  0  0  0
 47 26  1  0  0  0  0
M  END
