7,8
q = -2.0, confidence = 0.912

 11 10  0  0  0  0  0  0  0  0999 V2000
   -3.1617    0.9663   -0.8503 S   0  0  0  0  0  0  0  0  0  0  0  0
   -2.6662   -0.7114    1.8235 S   0  0  0  0  0  0  0  0  0  0  0  0
   -3.0134   -0.3150   -1.6672 O   0  0  0  0  0  1  0  0  0  0  0  0
   -3.1763   -0.5587    3.1969 O   0  0  0  0  0  1  0  0  0  0  0  0
   -2.8651   -2.0654    1.1907 O   0  0  0  0  0  1  0  0  0  0  0  0
   -4.1972    1.9046   -1.3167 O   0  0  0  0  0  1  0  0  0  0  0  0
   -1.2108   -0.2338    1.6654 O   0  0  0  0  0  1  0  0  0  0  0  0
   -1.7728    1.6082   -0.6760 O   0  0  0  0  0  1  0  0  0  0  0  0
   -3.6756    0.4715    0.8322 C   0  0  0  0  0  0  0  0  0  0  0  0
   -3.7188    1.4112    1.4139 H   0  0  0  0  0  0  0  0  0  0  0  0
   -4.6853    0.0285    0.7427 H   0  0  0  0  0  0  0  0  0  0  0  0
  1  8  1  0  0  0  0
  1  9  1  0  0  0  0
  2  4  1  0  0  0  0
  3  1  1  0  0  0  0
  5  2  1  0  0  0  0
  6  1  1  0  0  0  0
  7  2  1  0  0  0  0
  9 10  1  0  0  0  0
  9  2  1  0  0  0  0
 11  9  1  0  0  0  0
M  END
