2,5
q = -1.0

 22 23  0  0  0  0  0  0  0  0999 V2000
    2.3304   -1.4393   -0.3307 S   0  0  0  0  0  0  0  0  0  0  0  0
    1.2627   -0.7469    0.4900 O   0  0  0  0  0  1  0  0  0  0  0  0
    2.3750   -2.8950   -0.4394 O   0  0  0  0  0  1  0  0  0  0  0  0
    1.9604   -0.8051   -1.9887 O   0  0  0  0  0  0  0  0  0  0  0  0
    1.0913    0.2165   -1.9363 O   0  0  0  0  0  1  0  0  0  0  0  0
    5.0103   -1.5696   -0.0978 C   0  0  0  0  0  0  0  0  0  0  0  0
    3.9003   -0.7317    0.0264 C   0  0  0  0  0  0  0  0  0  0  0  0
    4.0007    0.6483    0.3566 C   0  0  0  0  0  0  0  0  0  0  0  0
    5.2645    1.1707    0.5733 C   0  0  0  0  0  0  0  0  0  0  0  0
    6.4370    0.3608    0.4739 C   0  0  0  0  0  0  0  0  0  0  0  0
    7.7379    0.8880    0.6962 C   0  0  0  0  0  0  0  0  0  0  0  0
    8.8606    0.0714    0.5884 C   0  0  0  0  0  0  0  0  0  0  0  0
    8.7293   -1.3017    0.2559 C   0  0  0  0  0  0  0  0  0  0  0  0
    7.4737   -1.8504    0.0328 C   0  0  0  0  0  0  0  0  0  0  0  0
    6.3041   -1.0381    0.1340 C   0  0  0  0  0  0  0  0  0  0  0  0
    4.8831   -2.6299   -0.3613 H   0  0  0  0  0  0  0  0  0  0  0  0
    3.1091    1.2855    0.4382 H   0  0  0  0  0  0  0  0  0  0  0  0
    5.3739    2.2347    0.8318 H   0  0  0  0  0  0  0  0  0  0  0  0
    7.8468    1.9522    0.9542 H   0  0  0  0  0  0  0  0  0  0  0  0
    9.8613    0.4936    0.7633 H   0  0  0  0  0  0  0  0  0  0  0  0
    9.6273   -1.9316    0.1760 H   0  0  0  0  0  0  0  0  0  0  0  0
    7.3644   -2.9145   -0.2255 H   0  0  0  0  0  0  0  0  0  0  0  0
  1  7  1  0  0  0  0
  1  2  1  0  0  0  0
  3  1  1  0  0  0  0
  4  5  1  0  0  0  0
  4  1  1  0  0  0  0
  6  7  2  0  0  0  0
  6 15  1  0  0  0  0
  7  8  1  0  0  0  0
  8 17  1  0  0  0  0
  8  9  2  0  0  0  0
  9 18  1  0  0  0  0
 10  9  1  0  0  0  0
 10 11  1  0  0  0  0
 11 19  1  0  0  0  0
 12 11  2  0  0  0  0
 12 20  1  0  0  0  0
 13 12  1  0  0  0  0
 14 15  1  0  0  0  0
 14 13  2  0  0  0  0
 15 10  2  0  0  0  0
 16  6  1  0  0  0  0
 21 13  1  0  0  0  0
 22 14  1  0  0  0  0
M  END
