3,4
q = -1.0, confidence = 0.016

 14 14  0  0  1  0  0  0  0  0999 V2000
   -4.8746   -2.9389    0.0504 Cl  0  0  0  0  0  0  0  0  0  0  0  0
   -2.6968    3.2831   -0.0760 Cl  0  0  0  0  0  0  0  0  0  0  0  0
   -1.5065    0.7334   -0.0157 O   0  5  0  0  0  0  0  0  0  0  0  0
   -2.3682   -1.6931    0.0315 O   0  5  0  0  0  0  0  0  0  0  0  0
   -5.8321   -0.4480   -0.0016 C   0  0  0  0  0  0  0  0  0  0  0  0
   -6.7562   -1.0457    0.0090 H   0  0  0  0  0  0  0  0  0  0  0  0
   -5.9887    0.9446   -0.0300 C   0  0  0  0  0  0  0  0  0  0  0  0
   -7.0270    1.3094   -0.0393 H   0  0  0  0  0  0  0  0  0  0  0  0
   -3.2817   -0.7911    0.0107 C   0  0  0  0  0  0  0  0  0  0  0  0
   -4.6577   -1.2068    0.0158 C   0  0  1  0  0  3  0  0  0  0  0  0
   -3.6023    1.7859   -0.0427 C   0  0  0  0  0  0  0  0  0  0  0  0
   -4.9969    1.9297   -0.0481 C   0  0  0  0  0  0  0  0  0  0  0  0
   -5.3424    2.9744   -0.0703 H   0  0  0  0  0  0  0  0  0  0  0  0
   -2.7901    0.6076   -0.0160 C   0  0  0  0  0  0  0  0  0  0  0  0
  2 11  1  0  0  0  0
  5  6  1  0  0  0  0
  5 10  1  0  0  0  0
  7  5  2  0  0  0  0
  8  7  1  0  0  0  0
  9 10  1  0  0  0  0
  9  4  1  0  0  0  0
 10  1  1  1  0  0  0
 11 14  1  0  0  0  0
 12 11  2  0  0  0  0
 12  7  1  0  0  0  0
 13 12  1  0  0  0  0
 14  3  1  0  0  0  0
 14  9  2  0  0  0  0
M  CHG  2   3  -1   4  -1
M  END
