1,3
q = -1.0

 18 19  0  0  0  0  0  0  0  0999 V2000
   -1.7081   -0.8574    0.0006 O   0  5  0  0  0  0  0  0  0  0  0  0
   -4.9406    2.6903   -0.0012 O   0  0  0  0  0  0  0  0  0  0  0  0
   -0.6727    1.7820    0.0011 O   0  0  0  0  0  1  0  0  0  0  0  0
   -2.1385    3.3952    0.0002 O   0  5  0  0  0  0  0  0  0  0  0  0
   -1.9224    2.1884    0.0004 N   0  3  0  0  0  3  0  0  0  0  0  0
   -2.7734   -0.1664    0.0000 C   0  0  0  0  0  0  0  0  0  0  0  0
   -2.9447    1.2530   -0.0001 C   0  0  0  0  0  0  0  0  0  0  0  0
   -4.3925    1.5978   -0.0007 C   0  0  0  0  0  0  0  0  0  0  0  0
   -6.4522   -0.0298   -0.0020 C   0  0  0  0  0  0  0  0  0  0  0  0
   -6.8430   -1.3841   -0.0022 C   0  0  0  0  0  0  0  0  0  0  0  0
   -5.8823   -2.4141   -0.0017 C   0  0  0  0  0  0  0  0  0  0  0  0
   -4.5045   -2.1213   -0.0009 C   0  0  0  0  0  0  0  0  0  0  0  0
   -5.0881    0.2571   -0.0012 C   0  0  0  0  0  0  0  0  0  0  0  0
   -4.1259   -0.7755   -0.0007 C   0  0  0  0  0  0  0  0  0  0  0  0
   -7.1867    0.7896   -0.0023 H   0  0  0  0  0  0  0  0  0  0  0  0
   -7.9127   -1.6438   -0.0028 H   0  0  0  0  0  0  0  0  0  0  0  0
   -6.2147   -3.4633   -0.0019 H   0  0  0  0  0  0  0  0  0  0  0  0
   -3.7452   -2.9171   -0.0005 H   0  0  0  0  0  0  0  0  0  0  0  0
  2  8  2  0  0  0  0
  4  5  1  0  0  0  0
  5  3  1  0  0  0  0
  6  1  1  0  0  0  0
  7  6  2  0  0  0  0
  7  5  1  0  0  0  0
  8  7  1  0  0  0  0
  9 13  1  0  0  0  0
 10  9  2  0  0  0  0
 10 11  1  0  0  0  0
 11 12  2  0  0  0  0
 12 14  1  0  0  0  0
 12 18  1  0  0  0  0
 13  8  1  0  0  0  0
 13 14  2  0  0  0  0
 14  6  1  0  0  0  0
 15  9  1  0  0  0  0
 16 10  1  0  0  0  0
 17 11  1  0  0  0  0
M  CHG  3   1  -1   4  -1   5   1
M  END
