1,2
q = -1.0

 40 42  0  0  0  0  0  0  0  0999 V2000
    0.0321   -0.2323   -0.3043 O   0  5  0  0  0  0  0  0  0  0  0  0
    0.1536   -3.0788   -0.3799 O   0  5  0  0  0  0  0  0  0  0  0  0
   -1.8081   -4.0937   -0.0475 O   0  0  0  0  0  0  0  0  0  0  0  0
   -5.6369   -1.9125   -1.4598 O   0  0  0  0  0  0  0  0  0  0  0  0
   -5.7466   -2.8151   -1.1062 H   0  0  0  0  0  0  0  0  0  0  0  0
   -3.9627   -0.7197    0.6020 N   0  0  0  0  0  0  0  0  0  0  0  0
   -1.1158   -3.0723   -0.0776 C   0  0  0  0  0  0  0  0  0  0  0  0
   -1.7964   -1.7318    0.1509 C   0  0  0  0  0  0  0  0  0  0  0  0
   -3.1463   -1.7956    0.4385 C   0  0  0  0  0  0  0  0  0  0  0  0
   -3.5885   -2.7976    0.5436 H   0  0  0  0  0  0  0  0  0  0  0  0
   -5.3927   -0.9634    0.7945 C   0  0  0  0  0  0  0  0  0  0  0  0
   -5.8178   -0.2026    1.4785 H   0  0  0  0  0  0  0  0  0  0  0  0
   -5.4861   -1.9388    1.3131 H   0  0  0  0  0  0  0  0  0  0  0  0
   -6.1678   -0.9973   -0.5327 C   0  0  0  0  0  0  0  0  0  0  0  0
   -7.2447   -1.1818   -0.2941 H   0  0  0  0  0  0  0  0  0  0  0  0
   -6.1119   -0.0007   -1.0181 H   0  0  0  0  0  0  0  0  0  0  0  0
   -1.1943   -0.4446   -0.0283 C   0  0  0  0  0  0  0  0  0  0  0  0
   -2.0778    0.7205    0.0912 C   0  0  0  0  0  0  0  0  0  0  0  0
   -3.4578    0.5675    0.4048 C   0  0  0  0  0  0  0  0  0  0  0  0
   -4.2640    1.7290    0.5116 C   0  0  0  0  0  0  0  0  0  0  0  0
   -5.3327    1.6510    0.7490 H   0  0  0  0  0  0  0  0  0  0  0  0
   -3.7077    2.9893    0.3102 C   0  0  0  0  0  0  0  0  0  0  0  0
   -4.3570    3.8755    0.3946 H   0  0  0  0  0  0  0  0  0  0  0  0
   -2.3332    3.1605    0.0035 C   0  0  0  0  0  0  0  0  0  0  0  0
   -1.5431    2.0164   -0.0902 C   0  0  0  0  0  3  0  0  0  0  0  0
   -0.4691    2.0828   -0.3086 H   0  0  0  0  0  0  0  0  0  0  0  0
   -1.7810    4.5619   -0.2186 C   0  0  0  0  0  0  0  0  0  0  0  0
   -2.3146    5.0071   -1.0877 H   0  0  0  0  0  0  0  0  0  0  0  0
   -2.0559    5.1927    0.6535 H   0  0  0  0  0  0  0  0  0  0  0  0
   -0.2895    4.6424   -0.4511 C   0  0  0  0  0  0  0  0  0  0  0  0
    0.2617    4.3003   -1.7037 C   0  0  0  0  0  0  0  0  0  0  0  0
   -0.4080    3.9932   -2.5228 H   0  0  0  0  0  0  0  0  0  0  0  0
    1.6479    4.3405   -1.9150 C   0  0  0  0  0  0  0  0  0  0  0  0
    2.0591    4.0701   -2.8998 H   0  0  0  0  0  0  0  0  0  0  0  0
    2.5082    4.7332   -0.8763 C   0  0  0  0  0  0  0  0  0  0  0  0
    3.5959    4.7674   -1.0405 H   0  0  0  0  0  0  0  0  0  0  0  0
    1.9718    5.0807    0.3727 C   0  0  0  0  0  0  0  0  0  0  0  0
    2.6383    5.3863    1.1933 H   0  0  0  0  0  0  0  0  0  0  0  0
    0.5852    5.0290    0.5827 C   0  0  0  0  0  0  0  0  0  0  0  0
    0.1709    5.2926    1.5688 H   0  0  0  0  0  0  0  0  0  0  0  0
  1 17  1  0  0  0  0
  2  7  1  0  0  0  0
  4  5  1  0  0  0  0
  4 14  1  0  0  0  0
  6 11  1  0  0  0  0
  7  3  2  0  0  0  0
  7  8  1  0  0  0  0
  8  9  2  0  0  0  0
  9 10  1  0  0  0  0
  9  6  1  0  0  0  0
 11 13  1  0  0  0  0
 11 12  1  0  0  0  0
 14 15  1  0  0  0  0
 14 11  1  0  0  0  0
 16 14  1  0  0  0  0
 17 18  2  0  0  0  0
 17  8  1  0  0  0  0
 18 19  1  0  0  0  0
 19 20  2  0  0  0  0
 19  6  1  0  0  0  0
 20 21  1  0  0  0  0
 22 23  1  0  0  0  0
 22 20  1  0  0  0  0
 24 22  2  0  0  0  0
 25 24  1  0  0  0  0
 25 18  1  0  0  0  0
 26 25  1  0  0  0  0
 27 24  1  0  0  0  0
 27 29  1  0  0  0  0
 28 27  1  0  0  0  0
 30 27  1  0  0  0  0
 30 39  1  0  0  0  0
 31 30  2  0  0  0  0
 32 31  1  0  0  0  0
 33 31  1  0  0  0  0
 33 35  2  0  0  0  0
 34 33  1  0  0  0  0
 35 37  1  0  0  0  0
 36 35  1  0  0  0  0
 37 39  2  0  0  0  0
 37 38  1  0  0  0  0
 39 40  1  0  0  0  0
M  CHG  2   1  -1   2  -1
M  END
