2,3
q = -1.0

 40 41  0  0  1  0  0  0  0  0999 V2000
    2.6956    6.1285    1.6725 F   0  0  0  0  0  0  0  0  0  0  0  0
    0.4489   -0.1330   -1.1839 O   0  5  0  0  0  0  0  0  0  0  0  0
   -1.0374   -2.1696    0.2015 O   0  0  0  0  0  1  0  0  0  0  0  0
   -3.5744   -2.9609    0.7159 O   0  0  0  0  0  0  0  0  0  0  0  0
   -0.7227    1.7708   -1.5554 N   0  0  0  0  0  0  0  0  0  0  0  0
   -1.6367    2.2101   -1.3736 H   0  0  0  0  0  0  0  0  0  0  0  0
   -2.9437    0.8739   -0.4789 N   0  0  0  0  0  0  0  0  0  0  0  0
   -4.3661   -0.8141    0.3432 N   0  0  0  0  0  0  0  0  0  0  0  0
   -1.9794   -1.3072    0.0330 C   0  0  2  0  0  3  0  0  0  0  0  0
   -3.3427   -1.7980    0.3950 C   0  0  0  0  0  0  0  0  0  0  0  0
   -4.1218    0.4939   -0.0743 C   0  0  0  0  0  0  0  0  0  0  0  0
   -1.8774    0.0031   -0.4642 C   0  0  0  0  0  0  0  0  0  0  0  0
   -5.7049   -1.2716    0.7131 C   0  0  0  0  0  0  0  0  0  0  0  0
   -6.1163   -0.6790    1.5522 H   0  0  0  0  0  0  0  0  0  0  0  0
   -5.5980   -2.3276    1.0207 H   0  0  0  0  0  0  0  0  0  0  0  0
   -6.3992   -1.2128   -0.1487 H   0  0  0  0  0  0  0  0  0  0  0  0
   -5.2425    1.5182    0.0194 C   0  0  0  0  0  0  0  0  0  0  0  0
   -6.2037    1.0062   -0.1951 H   0  0  0  0  0  0  0  0  0  0  0  0
   -0.6392    0.5207   -1.0574 C   0  0  0  0  0  0  0  0  0  0  0  0
    0.4092    2.5222   -2.0569 C   0  0  0  0  0  0  0  0  0  0  0  0
    0.1105    3.0669   -2.9763 H   0  0  0  0  0  0  0  0  0  0  0  0
    1.1770    1.7773   -2.3513 H   0  0  0  0  0  0  0  0  0  0  0  0
    0.9915    3.4969   -1.0463 C   0  0  0  0  0  0  0  0  0  0  0  0
    1.2597    3.0840    0.2761 C   0  0  0  0  0  0  0  0  0  0  0  0
    1.0210    2.0592    0.6094 H   0  0  0  0  0  0  0  0  0  0  0  0
    1.8348    3.9696    1.1965 C   0  0  0  0  0  0  0  0  0  0  0  0
    2.0475    3.6559    2.2287 H   0  0  0  0  0  0  0  0  0  0  0  0
    2.1428    5.2741    0.7894 C   0  0  0  0  0  0  0  0  0  0  0  0
    1.8838    5.7126   -0.5139 C   0  0  0  0  0  0  0  0  0  0  0  0
    2.1307    6.7461   -0.7961 H   0  0  0  0  0  0  0  0  0  0  0  0
    1.3046    4.8155   -1.4243 C   0  0  0  0  0  0  0  0  0  0  0  0
    1.0936    5.1528   -2.4520 H   0  0  0  0  0  0  0  0  0  0  0  0
   -5.0689    2.6419   -1.0074 C   0  0  0  0  0  0  0  0  0  0  0  0
   -5.0064    2.2441   -2.0392 H   0  0  0  0  0  0  0  0  0  0  0  0
   -4.1404    3.2119   -0.8092 H   0  0  0  0  0  0  0  0  0  0  0  0
   -5.9242    3.3445   -0.9527 H   0  0  0  0  0  0  0  0  0  0  0  0
   -5.3084    2.0891    1.4513 C   0  0  0  0  0  0  0  0  0  0  0  0
   -5.4435    1.2981    2.2158 H   0  0  0  0  0  0  0  0  0  0  0  0
   -6.1481    2.8065    1.5502 H   0  0  0  0  0  0  0  0  0  0  0  0
   -4.3649    2.6218    1.6869 H   0  0  0  0  0  0  0  0  0  0  0  0
  2 19  1  0  0  0  0
  5  6  1  0  0  0  0
  5 19  1  0  0  0  0
  7 12  1  0  0  0  0
  7 11  2  0  0  0  0
  8 10  1  0  0  0  0
  8 13  1  0  0  0  0
  9  3  1  6  0  0  0
  9 10  1  0  0  0  0
 10  4  2  0  0  0  0
 11 17  1  0  0  0  0
 11  8  1  0  0  0  0
 12  9  1  0  0  0  0
 13 15  1  0  0  0  0
 13 14  1  0  0  0  0
 16 13  1  0  0  0  0
 17 37  1  0  0  0  0
 18 17  1  0  0  0  0
 19 12  2  0  0  0  0
 20  5  1  0  0  0  0
 20 23  1  0  0  0  0
 21 20  1  0  0  0  0
 22 20  1  0  0  0  0
 23 24  1  0  0  0  0
 24 25  1  0  0  0  0
 24 26  2  0  0  0  0
 26 27  1  0  0  0  0
 28 26  1  0  0  0  0
 28  1  1  0  0  0  0
 29 28  2  0  0  0  0
 30 29  1  0  0  0  0
 31 23  2  0  0  0  0
 31 29  1  0  0  0  0
 32 31  1  0  0  0  0
 33 36  1  0  0  0  0
 33 35  1  0  0  0  0
 33 17  1  0  0  0  0
 34 33  1  0  0  0  0
 37 39  1  0  0  0  0
 37 40  1  0  0  0  0
 37 38  1  0  0  0  0
M  CHG  1   2  -1
M  END
