1,2
q = -1.0

 12 12  0  0  1  0  0  0  0  0999 V2000
   -2.0135   -0.5010   -1.3416 O   0  0  0  0  0  1  0  0  0  0  0  0
   -1.4720   -0.5442    1.2222 O   0  5  0  0  0  0  0  0  0  0  0  0
   -3.7269    1.0143   -1.0497 N   0  0  0  0  0  0  0  0  0  0  0  0
   -3.8580    1.0119   -2.0655 H   0  0  0  0  0  0  0  0  0  0  0  0
   -2.7260    0.2162   -0.5733 C   0  0  2  0  0  3  0  0  0  0  0  0
   -2.4686    0.2326    0.8595 C   0  0  0  0  0  0  0  0  0  0  0  0
   -3.2573    1.0303    1.6868 C   0  0  0  0  0  0  0  0  0  0  0  0
   -3.0648    1.0370    2.7688 H   0  0  0  0  0  0  0  0  0  0  0  0
   -4.2849    1.8316    1.1146 C   0  0  0  0  0  0  0  0  0  0  0  0
   -4.9133    2.4686    1.7514 H   0  0  0  0  0  0  0  0  0  0  0  0
   -4.5051    1.8198   -0.2459 C   0  0  0  0  0  0  0  0  0  0  0  0
   -5.2732    2.4156   -0.7539 H   0  0  0  0  0  0  0  0  0  0  0  0
  3  5  1  0  0  0  0
  3 11  1  0  0  0  0
  4  3  1  0  0  0  0
  5  1  1  6  0  0  0
  5  6  1  0  0  0  0
  6  2  1  0  0  0  0
  6  7  2  0  0  0  0
  7  8  1  0  0  0  0
  9  7  1  0  0  0  0
  9 10  1  0  0  0  0
 11  9  2  0  0  0  0
 12 11  1  0  0  0  0
M  CHG  1   2  -1
M  END
