1,2
q = -1.0, confidence = 0.002

 16 16  0  0  0  0  0  0  0  0999 V2000
   -1.7055   -0.8104    1.7844 O   0  0  0  0  0  1  0  0  0  0  0  0
   -1.9553   -0.3249   -1.0400 O   0  5  0  0  0  0  0  0  0  0  0  0
   -7.2774    1.9557    1.4206 O   0  0  0  0  0  0  0  0  0  0  0  0
   -7.5995    2.3491   -0.7079 O   0  0  0  0  0  0  0  0  0  0  0  0
   -6.9282    1.9213    0.2365 N   0  0  0  0  0  0  0  0  0  0  0  0
   -3.5697    0.2591    0.6721 C   0  0  0  0  0  0  0  0  0  0  0  0
   -3.0828    0.1838   -0.7047 C   0  0  0  0  0  0  0  0  0  0  0  0
   -3.9596    0.7073   -1.7251 C   0  0  0  0  0  0  0  0  0  0  0  0
   -5.1868    1.2647   -1.4249 C   0  0  0  0  0  0  0  0  0  0  0  0
   -5.6233    1.3300   -0.0750 C   0  0  0  0  0  0  0  0  0  0  0  0
   -4.8323    0.8349    0.9513 C   0  0  0  0  0  0  0  0  0  0  0  0
   -2.8294   -0.2613    1.7931 C   0  0  0  0  0  3  0  0  0  0  0  0
   -3.3498   -0.1683    2.7841 H   0  0  0  0  0  0  0  0  0  0  0  0
   -5.2063    0.8954    1.9845 H   0  0  0  0  0  0  0  0  0  0  0  0
   -5.8505    1.6671   -2.2027 H   0  0  0  0  0  0  0  0  0  0  0  0
   -3.6011    0.6443   -2.7629 H   0  0  0  0  0  0  0  0  0  0  0  0
  1 12  1  0  0  0  0
  2  7  1  0  0  0  0
  4  5  2  0  0  0  0
  5  3  2  0  0  0  0
  6 11  1  0  0  0  0
  6 12  1  0  0  0  0
  7  6  2  0  0  0  0
  8  9  2  0  0  0  0
  8  7  1  0  0  0  0
  9 10  1  0  0  0  0
 10  5  1  0  0  0  0
 10 11  2  0  0  0  0
 11 14  1  0  0  0  0
 12 13  1  0  0  0  0
 15  9  1  0  0  0  0
 16  8  1  0  0  0  0
M  CHG  1   2  -1
M  END
