1,2
q = -1.0

 14 14  0  0  0  0  0  0  0  0999 V2000
   -1.5791   -0.2575    1.2293 O   0  5  0  0  0  0  0  0  0  0  0  0
   -1.1550    1.4417   -1.0402 O   0  5  0  0  0  0  0  0  0  0  0  0
   -7.4615    0.0384   -0.2384 Br  0  0  0  0  0  0  0  0  0  0  0  0
   -3.2879    0.5905   -0.2757 C   0  0  0  0  0  0  0  0  0  0  0  0
   -2.8226   -0.1623    0.8769 C   0  0  0  0  0  0  0  0  0  0  0  0
   -3.8316   -0.8162    1.6607 C   0  0  0  0  0  0  0  0  0  0  0  0
   -5.1777   -0.7558    1.3301 C   0  0  0  0  0  0  0  0  0  0  0  0
   -5.6059   -0.0244    0.1915 C   0  0  0  0  0  0  0  0  0  0  0  0
   -4.6765    0.6411   -0.5915 C   0  0  0  0  0  3  0  0  0  0  0  0
   -2.4006    1.3546   -1.1152 C   0  0  0  0  0  0  0  0  0  0  0  0
   -5.0001    1.2219   -1.4695 H   0  0  0  0  0  0  0  0  0  0  0  0
   -2.9111    1.9507   -1.9196 H   0  0  0  0  0  0  0  0  0  0  0  0
   -3.4904   -1.3826    2.5397 H   0  0  0  0  0  0  0  0  0  0  0  0
   -5.9240   -1.2766    1.9484 H   0  0  0  0  0  0  0  0  0  0  0  0
  3  8  1  0  0  0  0
  4  5  1  0  0  0  0
  5  1  1  0  0  0  0
  5  6  2  0  0  0  0
  6 13  1  0  0  0  0
  7  6  1  0  0  0  0
  7 14  1  0  0  0  0
  8  7  2  0  0  0  0
  9  4  1  0  0  0  0
  9  8  1  0  0  0  0
 10  2  1  0  0  0  0
 10  4  2  0  0  0  0
 11  9  1  0  0  0  0
 12 10  1  0  0  0  0
M  CHG  2   1  -1   2  -1
M  END
