1,2
q = -1.0, confidence = 0.006

 14 14  0  0  1  0  0  0  0  0999 V2000
    1.5791    0.2578   -1.2291 O   0  0  0  0  0  1  0  0  0  0  0  0
    1.1550   -1.4414    1.0405 O   0  5  0  0  0  0  0  0  0  0  0  0
    7.4616   -0.0388    0.2381 Br  0  0  0  0  0  0  0  0  0  0  0  0
    3.2879   -0.5904    0.2758 C   0  0  0  0  0  0  0  0  0  0  0  0
    2.8226    0.1624   -0.8768 C   0  0  1  0  0  3  0  0  0  0  0  0
    3.8316    0.8162   -1.6607 C   0  0  0  0  0  0  0  0  0  0  0  0
    5.1777    0.7557   -1.3303 C   0  0  0  0  0  0  0  0  0  0  0  0
    5.6059    0.0242   -0.1916 C   0  0  0  0  0  0  0  0  0  0  0  0
    4.6765   -0.6412    0.5914 C   0  0  0  0  0  0  0  0  0  0  0  0
    2.4006   -1.3544    1.1154 C   0  0  0  0  0  0  0  0  0  0  0  0
    5.0001   -1.2220    1.4694 H   0  0  0  0  0  0  0  0  0  0  0  0
    2.9111   -1.9506    1.9198 H   0  0  0  0  0  0  0  0  0  0  0  0
    3.4903    1.3827   -2.5397 H   0  0  0  0  0  0  0  0  0  0  0  0
    5.9240    1.2764   -1.9486 H   0  0  0  0  0  0  0  0  0  0  0  0
  2 10  1  0  0  0  0
  4  9  1  0  0  0  0
  4 10  2  0  0  0  0
  5  1  1  6  0  0  0
  5  4  1  0  0  0  0
  6  7  2  0  0  0  0
  6  5  1  0  0  0  0
  7  8  1  0  0  0  0
  8  3  1  0  0  0  0
  8  9  2  0  0  0  0
  9 11  1  0  0  0  0
 10 12  1  0  0  0  0
 13  6  1  0  0  0  0
 14  7  1  0  0  0  0
M  CHG  1   2  -1
M  END
