1,2
q = -1.0

 14 14  0  0  0  0  0  0  0  0999 V2000
   -0.1243   -1.1461    1.0544 O   0  5  0  0  0  0  0  0  0  0  0  0
    1.0160   -1.4985   -1.5301 O   0  0  0  0  0  1  0  0  0  0  0  0
   -1.3043   -1.8522   -0.9388 C   0  0  0  0  0  0  0  0  0  0  0  0
   -1.2259   -1.4802    0.4660 C   0  0  0  0  0  0  0  0  0  0  0  0
   -2.4639   -1.4751    1.1940 C   0  0  0  0  0  0  0  0  0  0  0  0
   -3.6771   -1.7624    0.5883 C   0  0  0  0  0  0  0  0  0  0  0  0
   -3.7270   -2.1127   -0.7862 C   0  0  0  0  0  0  0  0  0  0  0  0
   -2.5586   -2.1758   -1.5288 C   0  0  0  0  0  0  0  0  0  0  0  0
   -0.1433   -1.8888   -1.7929 C   0  0  0  0  0  3  0  0  0  0  0  0
   -5.2774   -2.4490   -1.5303 Cl  0  0  0  0  0  0  0  0  0  0  0  0
   -2.4174   -1.1820    2.2528 H   0  0  0  0  0  0  0  0  0  0  0  0
   -4.6153   -1.7058    1.1599 H   0  0  0  0  0  0  0  0  0  0  0  0
   -2.5959   -2.4516   -2.5944 H   0  0  0  0  0  0  0  0  0  0  0  0
   -0.3276   -2.3223   -2.8152 H   0  0  0  0  0  0  0  0  0  0  0  0
  3  4  1  0  0  0  0
  4  1  1  0  0  0  0
  4  5  2  0  0  0  0
  5 11  1  0  0  0  0
  6 12  1  0  0  0  0
  6  5  1  0  0  0  0
  7  6  2  0  0  0  0
  8  3  2  0  0  0  0
  8  7  1  0  0  0  0
  9  2  1  0  0  0  0
  9  3  1  0  0  0  0
 10  7  1  0  0  0  0
 13  8  1  0  0  0  0
 14  9  1  0  0  0  0
M  CHG  1   1  -1
M  END
