1,2
q = -1.0

 32 33  0  0  0  0  0  0  0  0999 V2000
    0.6571    0.9312   -1.9650 O   0  5  0  0  0  0  0  0  0  0  0  0
    1.7805    0.1619   -0.2183 O   0  5  0  0  0  0  0  0  0  0  0  0
    3.8290   -1.4231   -0.5947 N   0  0  0  0  0  0  0  0  0  0  0  0
    3.1165   -0.8867   -0.0575 H   0  0  0  0  0  0  0  0  0  0  0  0
    1.6400    0.2644   -1.5027 C   0  0  0  0  0  3  0  0  0  0  0  0
    2.6348   -0.3533   -2.4176 C   0  0  0  0  0  0  0  0  0  0  0  0
    2.5120   -0.0893   -3.7983 C   0  0  0  0  0  0  0  0  0  0  0  0
    1.6567    0.5279   -4.1094 H   0  0  0  0  0  0  0  0  0  0  0  0
    3.4332   -0.5782   -4.7259 C   0  0  0  0  0  0  0  0  0  0  0  0
    3.3177   -0.3637   -5.7982 H   0  0  0  0  0  0  0  0  0  0  0  0
    4.5233   -1.3370   -4.2573 C   0  0  0  0  0  0  0  0  0  0  0  0
    5.2825   -1.7058   -4.9651 H   0  0  0  0  0  0  0  0  0  0  0  0
    4.6703   -1.6278   -2.9002 C   0  0  0  0  0  0  0  0  0  0  0  0
    5.5449   -2.1953   -2.5584 H   0  0  0  0  0  0  0  0  0  0  0  0
    3.7225   -1.1694   -1.9445 C   0  0  0  0  0  0  0  0  0  0  0  0
    4.6166   -2.3429    0.1041 C   0  0  0  0  0  0  0  0  0  0  0  0
    5.0404   -3.5702   -0.4539 C   0  0  0  0  0  0  0  0  0  0  0  0
    4.7396   -3.8381   -1.4750 H   0  0  0  0  0  0  0  0  0  0  0  0
    5.7945   -4.4637    0.3128 C   0  0  0  0  0  0  0  0  0  0  0  0
    6.1159   -5.4201   -0.1273 H   0  0  0  0  0  0  0  0  0  0  0  0
    6.1187   -4.1576    1.6406 C   0  0  0  0  0  0  0  0  0  0  0  0
    6.7075   -4.8671    2.2423 H   0  0  0  0  0  0  0  0  0  0  0  0
    5.6861   -2.9517    2.2288 C   0  0  0  0  0  0  0  0  0  0  0  0
    4.9358   -2.0296    1.4596 C   0  0  0  0  0  0  0  0  0  0  0  0
    4.4557   -0.7175    2.0299 C   0  0  0  0  0  0  0  0  0  0  0  0
    3.3512   -0.7005    2.1637 H   0  0  0  0  0  0  0  0  0  0  0  0
    4.6973    0.1205    1.3417 H   0  0  0  0  0  0  0  0  0  0  0  0
    4.9071   -0.4955    3.0129 H   0  0  0  0  0  0  0  0  0  0  0  0
    6.0352   -2.6653    3.6708 C   0  0  0  0  0  0  0  0  0  0  0  0
    6.6204   -3.4973    4.1072 H   0  0  0  0  0  0  0  0  0  0  0  0
    5.1293   -2.5280    4.2977 H   0  0  0  0  0  0  0  0  0  0  0  0
    6.6413   -1.7407    3.7779 H   0  0  0  0  0  0  0  0  0  0  0  0
  1  5  1  0  0  0  0
  3  4  1  0  0  0  0
  3 16  1  0  0  0  0
  5  2  1  0  0  0  0
  6 15  1  0  0  0  0
  6  5  1  0  0  0  0
  7  6  2  0  0  0  0
  8  7  1  0  0  0  0
  9 11  2  0  0  0  0
  9  7  1  0  0  0  0
 10  9  1  0  0  0  0
 11 13  1  0  0  0  0
 12 11  1  0  0  0  0
 13 14  1  0  0  0  0
 13 15  2  0  0  0  0
 15  3  1  0  0  0  0
 16 24  1  0  0  0  0
 17 16  2  0  0  0  0
 17 19  1  0  0  0  0
 18 17  1  0  0  0  0
 19 21  2  0  0  0  0
 20 19  1  0  0  0  0
 21 23  1  0  0  0  0
 21 22  1  0  0  0  0
 23 29  1  0  0  0  0
 24 25  1  0  0  0  0
 24 23  2  0  0  0  0
 25 26  1  0  0  0  0
 25 28  1  0  0  0  0
 27 25  1  0  0  0  0
 29 32  1  0  0  0  0
 29 30  1  0  0  0  0
 29 31  1  0  0  0  0
M  CHG  2   1  -1   2  -1
M  END
