1,2
q = -1.0

 32 33  0  0  1  0  0  0  0  0999 V2000
   -1.7056    1.0366    1.5878 O   0  0  0  0  0  1  0  0  0  0  0  0
   -0.3545    0.5806   -0.6048 O   0  0  0  0  0  1  0  0  0  0  0  0
   -0.0209    2.7747   -1.1222 N   0  0  0  0  0  0  0  0  0  0  0  0
   -0.1982    3.7404   -0.8368 H   0  0  0  0  0  0  0  0  0  0  0  0
   -1.2514    2.1864    0.9488 C   0  0  2  0  0  0  0  0  0  0  0  0
   -0.4964    2.6904    1.6026 H   0  0  0  0  0  0  0  0  0  0  0  0
   -2.3621    3.1826    0.6545 C   0  0  0  0  0  0  0  0  0  0  0  0
   -3.5535    2.7430    0.0421 C   0  0  0  0  0  0  0  0  0  0  0  0
   -3.6846    1.6721   -0.1822 H   0  0  0  0  0  0  0  0  0  0  0  0
   -4.5548    3.6713   -0.2736 C   0  0  0  0  0  0  0  0  0  0  0  0
   -5.4843    3.3236   -0.7496 H   0  0  0  0  0  0  0  0  0  0  0  0
   -4.3777    5.0371    0.0094 C   0  0  0  0  0  0  0  0  0  0  0  0
   -5.1684    5.7603   -0.2422 H   0  0  0  0  0  0  0  0  0  0  0  0
   -3.1944    5.4758    0.6220 C   0  0  0  0  0  0  0  0  0  0  0  0
   -3.0561    6.5412    0.8616 H   0  0  0  0  0  0  0  0  0  0  0  0
   -2.1916    4.5481    0.9497 C   0  0  0  0  0  0  0  0  0  0  0  0
   -1.2744    4.8864    1.4603 H   0  0  0  0  0  0  0  0  0  0  0  0
   -0.5006    1.7873   -0.3409 C   0  0  2  0  0  3  0  0  0  0  0  0
    0.7596    2.5122   -2.3300 C   0  0  0  0  0  0  0  0  0  0  0  0
    0.4316    1.5222   -2.7028 H   0  0  0  0  0  0  0  0  0  0  0  0
    0.4888    3.2734   -3.0883 H   0  0  0  0  0  0  0  0  0  0  0  0
    2.2583    2.5120   -2.0919 C   0  0  0  0  0  0  0  0  0  0  0  0
    2.8899    1.3847   -1.5245 C   0  0  0  0  0  0  0  0  0  0  0  0
    2.2904    0.4984   -1.2651 H   0  0  0  0  0  0  0  0  0  0  0  0
    4.2743    1.3885   -1.2965 C   0  0  0  0  0  0  0  0  0  0  0  0
    4.7580    0.4944   -0.8762 H   0  0  0  0  0  0  0  0  0  0  0  0
    5.0409    2.5203   -1.6210 C   0  0  0  0  0  0  0  0  0  0  0  0
    6.1271    2.5200   -1.4430 H   0  0  0  0  0  0  0  0  0  0  0  0
    4.4196    3.6480   -2.1790 C   0  0  0  0  0  0  0  0  0  0  0  0
    5.0154    4.5362   -2.4390 H   0  0  0  0  0  0  0  0  0  0  0  0
    3.0359    3.6401   -2.4151 C   0  0  0  0  0  0  0  0  0  0  0  0
    2.5520    4.5221   -2.8657 H   0  0  0  0  0  0  0  0  0  0  0  0
  3  4  1  0  0  0  0
  3 18  1  0  0  0  0
  5  1  1  0  0  0  0
  5  6  1  1  0  0  0
  7  5  1  0  0  0  0
  7 16  1  0  0  0  0
  8  7  2  0  0  0  0
  9  8  1  0  0  0  0
 10 12  2  0  0  0  0
 10  8  1  0  0  0  0
 11 10  1  0  0  0  0
 12 14  1  0  0  0  0
 13 12  1  0  0  0  0
 14 15  1  0  0  0  0
 14 16  2  0  0  0  0
 16 17  1  0  0  0  0
 18  2  1  1  0  0  0
 18  5  1  0  0  0  0
 19 22  1  0  0  0  0
 19  3  1  0  0  0  0
 20 19  1  0  0  0  0
 21 19  1  0  0  0  0
 22 23  1  0  0  0  0
 23 25  2  0  0  0  0
 23 24  1  0  0  0  0
 25 26  1  0  0  0  0
 27 28  1  0  0  0  0
 27 25  1  0  0  0  0
 29 27  2  0  0  0  0
 30 29  1  0  0  0  0
 31 29  1  0  0  0  0
 31 22  2  0  0  0  0
 32 31  1  0  0  0  0
M  END
