3,5
q = -2.0, confidence = 0.746

 26 27  0  0  0  0  0  0  0  0999 V2000
    3.8816    0.9133   -0.0533 N   0  0  0  0  0  2  0  0  0  0  0  0
    4.4760   -0.2049   -0.1475 N   0  0  0  0  0  2  0  0  0  0  0  0
   -1.6822   -1.4935   -0.8803 O   0  5  0  0  0  0  0  0  0  0  0  0
    0.2103   -2.6796   -0.6347 O   0  0  0  0  0  0  0  0  0  0  0  0
   -1.6852    1.0670   -0.2334 O   0  5  0  0  0  0  0  0  0  0  0  0
   -0.3680   -1.6047   -0.6201 C   0  0  0  0  0  0  0  0  0  0  0  0
    0.3281   -0.2961   -0.3657 C   0  0  0  0  0  0  0  0  0  0  0  0
   -0.3638    0.9553   -0.2071 C   0  0  0  0  0  0  0  0  0  0  0  0
    0.4057    2.1395   -0.0233 C   0  0  0  0  0  0  0  0  0  0  0  0
   -0.1379    3.0893    0.0865 H   0  0  0  0  0  0  0  0  0  0  0  0
    1.7935    2.0899    0.0199 C   0  0  0  0  0  0  0  0  0  0  0  0
    2.3970    2.9984    0.1663 H   0  0  0  0  0  0  0  0  0  0  0  0
    2.4793    0.8567   -0.1198 C   0  0  0  0  0  0  0  0  0  0  0  0
    1.7288   -0.3198   -0.3180 C   0  0  0  0  0  0  0  0  0  0  0  0
    2.2485   -1.2812   -0.4359 H   0  0  0  0  0  0  0  0  0  0  0  0
    5.8850   -0.1381   -0.0901 C   0  0  0  0  0  0  0  0  0  0  0  0
    6.6258    1.0600    0.0529 C   0  0  0  0  0  0  0  0  0  0  0  0
    6.0693    2.0051    0.1250 H   0  0  0  0  0  0  0  0  0  0  0  0
    8.0210    1.0111    0.0976 C   0  0  0  0  0  0  0  0  0  0  0  0
    8.5988    1.9421    0.2085 H   0  0  0  0  0  0  0  0  0  0  0  0
    8.6952   -0.2227    0.0014 C   0  0  0  0  0  0  0  0  0  0  0  0
    9.7949   -0.2525    0.0372 H   0  0  0  0  0  0  0  0  0  0  0  0
    7.9635   -1.4132   -0.1408 C   0  0  0  0  0  0  0  0  0  0  0  0
    8.4880   -2.3777   -0.2165 H   0  0  0  0  0  0  0  0  0  0  0  0
    6.5641   -1.3722   -0.1866 C   0  0  0  0  0  0  0  0  0  0  0  0
    5.9570   -2.2829   -0.2976 H   0  0  0  0  0  0  0  0  0  0  0  0
  2 16  1  0  0  0  0
  2  1  1  0  0  0  0
  3  6  1  0  0  0  0
  4  6  2  0  0  0  0
  5  8  1  0  0  0  0
  6  7  1  0  0  0  0
  7 14  2  0  0  0  0
  7  8  1  0  0  0  0
  8  9  2  0  0  0  0
  9 11  1  0  0  0  0
  9 10  1  0  0  0  0
 11 12  1  0  0  0  0
 13  1  1  0  0  0  0
 13 11  2  0  0  0  0
 14 13  1  0  0  0  0
 15 14  1  0  0  0  0
 16 17  1  0  0  0  0
 17 19  2  0  0  0  0
 17 18  1  0  0  0  0
 19 20  1  0  0  0  0
 21 22  1  0  0  0  0
 21 19  1  0  0  0  0
 23 21  2  0  0  0  0
 24 23  1  0  0  0  0
 25 23  1  0  0  0  0
 25 16  2  0  0  0  0
 26 25  1  0  0  0  0
M  CHG  2   3  -1   5  -1
M  END
