2,3
q = -1.0

 29 29  0  0  0  0  0  0  0  0999 V2000
    3.8915   -2.3564   -0.0171 Si  0  0  0  0  0  0  0  0  0  0  0  0
    0.9066    0.1290   -0.0072 O   0  5  0  0  0  0  0  0  0  0  0  0
   -0.3307    1.9133   -0.3169 O   0  5  0  0  0  0  0  0  0  0  0  0
    3.4239    0.0017    1.7653 O   0  0  0  0  0  0  0  0  0  0  0  0
    3.7387   -0.6400   -0.3873 O   0  0  0  0  0  0  0  0  0  0  0  0
    0.8290    1.3934   -0.2014 C   0  0  0  0  0  3  0  0  0  0  0  0
    2.0610    2.2175   -0.2806 C   0  0  0  0  0  0  0  0  0  0  0  0
    1.9697    3.5651   -0.6819 C   0  0  0  0  0  0  0  0  0  0  0  0
    3.1193    4.3558   -0.7814 C   0  0  0  0  0  0  0  0  0  0  0  0
    4.3723    3.7999   -0.4718 C   0  0  0  0  0  0  0  0  0  0  0  0
    4.4707    2.4628   -0.0604 C   0  0  0  0  0  0  0  0  0  0  0  0
    3.3212    1.6586    0.0394 C   0  0  0  0  0  0  0  0  0  0  0  0
    3.4689    0.2502    0.5688 C   0  0  0  0  0  0  0  0  0  0  0  0
    2.4352   -2.9586    0.9896 C   0  0  0  0  0  0  0  0  0  0  0  0
    3.9271   -3.1048   -1.7402 C   0  0  0  0  0  0  0  0  0  0  0  0
    5.5363   -2.5689    0.8706 C   0  0  0  0  0  0  0  0  0  0  0  0
    0.9743    3.9697   -0.9164 H   0  0  0  0  0  0  0  0  0  0  0  0
    3.0424    5.4059   -1.1003 H   0  0  0  0  0  0  0  0  0  0  0  0
    5.2825    4.4141   -0.5480 H   0  0  0  0  0  0  0  0  0  0  0  0
    5.4522    2.0342    0.1924 H   0  0  0  0  0  0  0  0  0  0  0  0
    1.4732   -2.5865    0.5813 H   0  0  0  0  0  0  0  0  0  0  0  0
    2.5195   -2.6025    2.0341 H   0  0  0  0  0  0  0  0  0  0  0  0
    2.4129   -4.0686    0.9920 H   0  0  0  0  0  0  0  0  0  0  0  0
    4.7294   -2.6536   -2.3580 H   0  0  0  0  0  0  0  0  0  0  0  0
    2.9593   -2.9423   -2.2561 H   0  0  0  0  0  0  0  0  0  0  0  0
    4.1066   -4.1983   -1.6870 H   0  0  0  0  0  0  0  0  0  0  0  0
    6.3775   -2.1809    0.2611 H   0  0  0  0  0  0  0  0  0  0  0  0
    5.7329   -3.6398    1.0849 H   0  0  0  0  0  0  0  0  0  0  0  0
    5.5161   -2.0206    1.8335 H   0  0  0  0  0  0  0  0  0  0  0  0
  1 16  1  0  0  0  0
  1 14  1  0  0  0  0
  3  6  1  0  0  0  0
  5  1  1  0  0  0  0
  5 13  1  0  0  0  0
  6  2  1  0  0  0  0
  7  6  1  0  0  0  0
  7 12  1  0  0  0  0
  8  7  2  0  0  0  0
  9  8  1  0  0  0  0
  9 10  2  0  0  0  0
 10 11  1  0  0  0  0
 11 12  2  0  0  0  0
 11 20  1  0  0  0  0
 12 13  1  0  0  0  0
 13  4  2  0  0  0  0
 14 23  1  0  0  0  0
 14 22  1  0  0  0  0
 15 26  1  0  0  0  0
 15  1  1  0  0  0  0
 16 28  1  0  0  0  0
 16 29  1  0  0  0  0
 17  8  1  0  0  0  0
 18  9  1  0  0  0  0
 19 10  1  0  0  0  0
 21 14  1  0  0  0  0
 24 15  1  0  0  0  0
 25 15  1  0  0  0  0
 27 16  1  0  0  0  0
M  CHG  2   2  -1   3  -1
M  END
