1,3
q = -2.0, confidence = 0.82

 24 24  0  0  0  0  0  0  0  0999 V2000
    1.0179    1.1460   -1.2690 O   0  5  0  0  0  0  0  0  0  0  0  0
    2.5113   -0.1770   -2.2964 O   0  0  0  0  0  0  0  0  0  0  0  0
    1.0201    1.1441    1.2778 O   0  5  0  0  0  0  0  0  0  0  0  0
    2.4815   -0.2182    2.3006 O   0  0  0  0  0  0  0  0  0  0  0  0
    2.4782   -0.1458    0.0024 N   0  0  0  0  0  0  0  0  0  0  0  0
    2.0121    0.2688   -1.2747 C   0  0  0  0  0  0  0  0  0  0  0  0
    2.0009    0.2515    1.2807 C   0  0  0  0  0  0  0  0  0  0  0  0
    3.5707   -1.0918    0.0008 C   0  0  0  0  0  0  0  0  0  0  0  0
    4.8929   -0.6027   -0.0049 C   0  0  0  0  0  0  0  0  0  0  0  0
    5.9419   -1.5401   -0.0056 C   0  0  0  0  0  0  0  0  0  0  0  0
    5.6744   -2.9157   -0.0010 C   0  0  0  0  0  0  0  0  0  0  0  0
    4.3507   -3.3758    0.0040 C   0  0  0  0  0  0  0  0  0  0  0  0
    3.2741   -2.4703    0.0048 C   0  0  0  0  0  0  0  0  0  0  0  0
    5.1545    0.8800   -0.0126 C   0  0  0  0  0  0  0  0  0  0  0  0
    1.8444   -2.9442    0.0097 C   0  0  0  0  0  0  0  0  0  0  0  0
    6.9822   -1.1792   -0.0101 H   0  0  0  0  0  0  0  0  0  0  0  0
    6.5060   -3.6367   -0.0014 H   0  0  0  0  0  0  0  0  0  0  0  0
    4.1412   -4.4568    0.0072 H   0  0  0  0  0  0  0  0  0  0  0  0
    6.2401    1.0941   -0.0076 H   0  0  0  0  0  0  0  0  0  0  0  0
    4.7150    1.3571   -0.9136 H   0  0  0  0  0  0  0  0  0  0  0  0
    4.7039    1.3708    0.8754 H   0  0  0  0  0  0  0  0  0  0  0  0
    1.7920   -4.0498    0.0070 H   0  0  0  0  0  0  0  0  0  0  0  0
    1.2987   -2.5742   -0.8837 H   0  0  0  0  0  0  0  0  0  0  0  0
    1.3069   -2.5787    0.9098 H   0  0  0  0  0  0  0  0  0  0  0  0
  2  6  2  0  0  0  0
  3  7  1  0  0  0  0
  5  7  1  0  0  0  0
  6  1  1  0  0  0  0
  6  5  1  0  0  0  0
  7  4  2  0  0  0  0
  8  5  1  0  0  0  0
  8 13  1  0  0  0  0
  9  8  2  0  0  0  0
 10  9  1  0  0  0  0
 10 11  2  0  0  0  0
 11 12  1  0  0  0  0
 12 13  2  0  0  0  0
 12 18  1  0  0  0  0
 13 15  1  0  0  0  0
 14 19  1  0  0  0  0
 14  9  1  0  0  0  0
 14 21  1  0  0  0  0
 15 24  1  0  0  0  0
 16 10  1  0  0  0  0
 17 11  1  0  0  0  0
 20 14  1  0  0  0  0
 22 15  1  0  0  0  0
 23 15  1  0  0  0  0
M  CHG  2   1  -1   3  -1
M  END
