5,6
q = 0.0, confidence = 0.75

 12 12  0  0  0  0  0  0  0  0999 V2000
   -4.0078    2.5899   -0.8717 F   0  0  0  0  0  0  0  0  0  0  0  0
   -6.0828    1.0448   -1.7440 F   0  0  0  0  0  0  0  0  0  0  0  0
   -5.6576   -1.5748   -2.4608 F   0  0  0  0  0  0  0  0  0  0  0  0
   -3.1540   -2.6735   -2.2667 F   0  0  0  0  0  0  0  0  0  0  0  0
   -1.4262    1.4552   -0.6526 O   0  0  0  0  0  0  0  0  0  0  0  0
   -1.0280   -1.0932   -1.3024 O   0  0  0  0  0  0  0  0  0  0  0  0
   -2.4765    0.7735   -1.1551 C   0  0  0  0  0  0  0  0  0  0  0  0
   -3.7647    1.3225   -1.2660 C   0  0  0  0  0  0  0  0  0  0  0  0
   -4.8366    0.5300   -1.7100 C   0  0  0  0  0  0  0  0  0  0  0  0
   -4.6231   -0.8170   -2.0523 C   0  0  0  0  0  0  0  0  0  0  0  0
   -3.3349   -1.3716   -1.9622 C   0  0  0  0  0  0  0  0  0  0  0  0
   -2.2575   -0.5939   -1.4905 C   0  0  0  0  0  0  0  0  0  0  0  0
  2  9  1  0  0  0  0
  3 10  1  0  0  0  0
  4 11  1  0  0  0  0
  7  5  1  0  0  0  0
  8  7  1  0  0  0  0
  8  1  1  0  0  0  0
  9  8  2  0  0  0  0
 10 11  2  0  0  0  0
 10  9  1  0  0  0  0
 11 12  1  0  0  0  0
 12  6  1  0  0  0  0
 12  7  2  0  0  0  0
M  END
