1,2
q = -1.0

 14 14  0  0  0  0  0  0  0  0999 V2000
    2.0131    0.2382   -0.9599 O   0  5  0  0  0  0  0  0  0  0  0  0
    2.1343   -1.3333    1.5681 O   0  0  0  0  0  1  0  0  0  0  0  0
    7.8278    1.5155    0.2146 Br  0  0  0  0  0  0  0  0  0  0  0  0
    3.9199   -0.0381    0.5322 C   0  0  0  0  0  0  0  0  0  0  0  0
    3.2376    0.4783   -0.6509 C   0  0  0  0  0  0  0  0  0  0  0  0
    4.0301    1.3055   -1.5266 C   0  0  0  0  0  0  0  0  0  0  0  0
    5.3574    1.6027   -1.2714 C   0  0  0  0  0  0  0  0  0  0  0  0
    5.9976    1.0891   -0.1106 C   0  0  0  0  0  0  0  0  0  0  0  0
    5.2917    0.2872    0.7670 C   0  0  0  0  0  0  0  0  0  0  0  0
    3.3092   -0.8936    1.5121 C   0  0  0  0  0  3  0  0  0  0  0  0
    4.0028   -1.2131    2.3373 H   0  0  0  0  0  0  0  0  0  0  0  0
    5.7813   -0.1164    1.6672 H   0  0  0  0  0  0  0  0  0  0  0  0
    5.9272    2.2395   -1.9645 H   0  0  0  0  0  0  0  0  0  0  0  0
    3.5276    1.6984   -2.4228 H   0  0  0  0  0  0  0  0  0  0  0  0
  1  5  1  0  0  0  0
  4  9  1  0  0  0  0
  4 10  1  0  0  0  0
  5  4  2  0  0  0  0
  6  7  2  0  0  0  0
  6  5  1  0  0  0  0
  7  8  1  0  0  0  0
  8  3  1  0  0  0  0
  8  9  2  0  0  0  0
  9 12  1  0  0  0  0
 10  2  1  0  0  0  0
 10 11  1  0  0  0  0
 13  7  1  0  0  0  0
 14  6  1  0  0  0  0
M  CHG  1   1  -1
M  END
