6,7
q = -1.0

 28 30  0  0  0  0  0  0  0  0999 V2000
   -4.0362    3.2590   -0.4798 O   0  0  0  0  0  0  0  0  0  0  0  0
   -2.9436   -2.0959    0.3191 N   0  0  0  0  0  0  0  0  0  0  0  0
    0.4591   -3.9529   -0.6034 O   0  5  0  0  0  0  0  0  0  0  0  0
   -5.8125    1.8716    0.0638 O   0  0  0  0  0  0  0  0  0  0  0  0
   -1.7521   -2.6519    0.1413 N   0  0  0  0  0  0  0  0  0  0  0  0
    1.6984   -2.0961   -0.5821 O   0  0  0  0  0  0  0  0  0  0  0  0
    0.2053    0.2918   -0.5738 O   0  5  0  0  0  0  0  0  0  0  0  0
   -2.1113    0.0911   -0.2430 C   0  0  0  0  0  0  0  0  0  0  0  0
   -3.2088   -0.7539    0.1029 C   0  0  0  0  0  0  0  0  0  0  0  0
   -0.6938   -1.9178   -0.1576 C   0  0  0  0  0  0  0  0  0  0  0  0
   -4.5284   -0.2208    0.2293 C   0  0  0  0  0  0  0  0  0  0  0  0
   -5.3971   -0.8381    0.4807 H   0  0  0  0  0  0  0  0  0  0  0  0
   -4.6705    1.1354    0.0105 C   0  0  0  0  0  0  0  0  0  0  0  0
   -3.5797    1.9800   -0.3224 C   0  0  0  0  0  0  0  0  0  0  0  0
   -2.3007    1.4891   -0.4515 C   0  0  0  0  0  3  0  0  0  0  0  0
   -1.4341    2.1162   -0.6935 H   0  0  0  0  0  0  0  0  0  0  0  0
   -4.7061   -3.5899   -0.6180 C   0  0  0  0  0  0  0  0  0  0  0  0
   -5.2223   -2.7809   -1.1727 H   0  0  0  0  0  0  0  0  0  0  0  0
   -5.4597   -4.3533   -0.3412 H   0  0  0  0  0  0  0  0  0  0  0  0
   -3.9669   -4.0615   -1.2949 H   0  0  0  0  0  0  0  0  0  0  0  0
   -4.0042   -3.0684    0.6326 C   0  0  0  0  0  0  0  0  0  0  0  0
   -4.7110   -2.6016    1.3465 H   0  0  0  0  0  0  0  0  0  0  0  0
   -3.4869   -3.8890    1.1619 H   0  0  0  0  0  0  0  0  0  0  0  0
   -5.4326    3.2358   -0.1793 C   0  0  0  0  0  0  0  0  0  0  0  0
   -6.0108    3.6308   -1.0435 H   0  0  0  0  0  0  0  0  0  0  0  0
   -5.6335    3.8415    0.7342 H   0  0  0  0  0  0  0  0  0  0  0  0
   -0.7819   -0.4810   -0.3302 C   0  0  0  0  0  0  0  0  0  0  0  0
    0.5676   -2.7437   -0.4425 C   0  0  0  0  0  0  0  0  0  0  0  0
  1 14  1  0  0  0  0
  1 24  1  0  0  0  0
  2 21  1  0  0  0  0
  3 28  1  0  0  0  0
  5  2  1  0  0  0  0
  6 28  2  0  0  0  0
  7 27  1  0  0  0  0
  8  9  1  0  0  0  0
  9 11  2  0  0  0  0
  9  2  1  0  0  0  0
 10  5  2  0  0  0  0
 11 12  1  0  0  0  0
 13  4  1  0  0  0  0
 13 11  1  0  0  0  0
 14 13  2  0  0  0  0
 15 14  1  0  0  0  0
 15  8  1  0  0  0  0
 16 15  1  0  0  0  0
 17 19  1  0  0  0  0
 17 21  1  0  0  0  0
 18 17  1  0  0  0  0
 20 17  1  0  0  0  0
 21 23  1  0  0  0  0
 21 22  1  0  0  0  0
 24  4  1  0  0  0  0
 24 26  1  0  0  0  0
 25 24  1  0  0  0  0
 27  8  2  0  0  0  0
 27 10  1  0  0  0  0
 28 10  1  0  0  0  0
M  CHG  2   3  -1   7  -1
M  END
