1,2
q = -1.0

 26 25  0  0  1  0  0  0  0  0999 V2000
    1.1642    0.0078   -1.2331 O   0  0  0  0  0  1  0  0  0  0  0  0
    1.4738   -1.6897    0.9692 O   0  5  0  0  0  0  0  0  0  0  0  0
    2.4188   -0.2088   -1.3731 C   0  0  1  0  0  3  0  0  0  0  0  0
    3.2361   -1.0234   -0.5432 C   0  0  0  0  0  0  0  0  0  0  0  0
    2.6903   -1.7152    0.5746 C   0  0  0  0  0  0  0  0  0  0  0  0
    3.5735   -2.6083    1.4262 C   0  0  0  0  0  0  0  0  0  0  0  0
    2.9781   -2.9953    2.2721 H   0  0  0  0  0  0  0  0  0  0  0  0
    4.4518   -2.0586    1.8190 H   0  0  0  0  0  0  0  0  0  0  0  0
    3.9578   -3.4645    0.8343 H   0  0  0  0  0  0  0  0  0  0  0  0
    4.7241   -1.1229   -0.8286 C   0  0  0  0  0  0  0  0  0  0  0  0
    5.1030   -2.1259   -0.5425 H   0  0  0  0  0  0  0  0  0  0  0  0
    4.9099   -1.0583   -1.9207 H   0  0  0  0  0  0  0  0  0  0  0  0
    5.5776   -0.0552   -0.1206 C   0  0  0  0  0  0  0  0  0  0  0  0
    5.4073   -0.1183    0.9775 H   0  0  0  0  0  0  0  0  0  0  0  0
    5.2143    0.9563   -0.4103 H   0  0  0  0  0  0  0  0  0  0  0  0
    7.0756   -0.1670   -0.4157 C   0  0  0  0  0  0  0  0  0  0  0  0
    7.4289   -1.1813   -0.1232 H   0  0  0  0  0  0  0  0  0  0  0  0
    7.2351   -0.1043   -1.5157 H   0  0  0  0  0  0  0  0  0  0  0  0
    7.9180    0.8963    0.2895 C   0  0  0  0  0  0  0  0  0  0  0  0
    7.6101    1.9193   -0.0125 H   0  0  0  0  0  0  0  0  0  0  0  0
    8.9970    0.7900    0.0574 H   0  0  0  0  0  0  0  0  0  0  0  0
    7.8052    0.8330    1.3922 H   0  0  0  0  0  0  0  0  0  0  0  0
    3.0115    0.4953   -2.5797 C   0  0  0  0  0  0  0  0  0  0  0  0
    3.3613   -0.2401   -3.3334 H   0  0  0  0  0  0  0  0  0  0  0  0
    3.8821    1.1221   -2.3022 H   0  0  0  0  0  0  0  0  0  0  0  0
    2.2336    1.1323   -3.0371 H   0  0  0  0  0  0  0  0  0  0  0  0
  3  1  1  6  0  0  0
  3  4  1  0  0  0  0
  4  5  2  0  0  0  0
  5  2  1  0  0  0  0
  5  6  1  0  0  0  0
  6  8  1  0  0  0  0
  6  7  1  0  0  0  0
  9  6  1  0  0  0  0
 10  4  1  0  0  0  0
 10 11  1  0  0  0  0
 10 13  1  0  0  0  0
 12 10  1  0  0  0  0
 13 14  1  0  0  0  0
 15 13  1  0  0  0  0
 16 17  1  0  0  0  0
 16 13  1  0  0  0  0
 16 19  1  0  0  0  0
 18 16  1  0  0  0  0
 19 22  1  0  0  0  0
 20 19  1  0  0  0  0
 21 19  1  0  0  0  0
 23 25  1  0  0  0  0
 23  3  1  0  0  0  0
 24 23  1  0  0  0  0
 26 23  1  0  0  0  0
M  CHG  1   2  -1
M  END
