1,2
q = -1.0, confidence = 0.006

 11 10  0  0  0  0  0  0  0  0999 V2000
    0.6487    2.7411    0.9076 O   0  5  0  0  0  0  0  0  0  0  0  0
    0.6958    2.6318   -1.3217 O   0  5  0  0  0  0  0  0  0  0  0  0
    0.9147    3.2493   -0.2290 C   0  0  0  0  0  3  0  0  0  0  0  0
    1.5908    4.6235   -0.2810 C   0  0  0  0  0  0  0  0  0  0  0  0
    3.0291    4.4966    0.1416 C   0  0  0  0  0  0  0  0  0  0  0  0
    4.0920    4.7543   -0.6404 C   0  0  0  0  0  0  0  0  0  0  0  0
    1.0508    5.2885    0.4269 H   0  0  0  0  0  0  0  0  0  0  0  0
    1.5112    5.0365   -1.3046 H   0  0  0  0  0  0  0  0  0  0  0  0
    3.1849    4.1204    1.1687 H   0  0  0  0  0  0  0  0  0  0  0  0
    3.9683    5.1177   -1.6746 H   0  0  0  0  0  0  0  0  0  0  0  0
    5.1213    4.6123   -0.2759 H   0  0  0  0  0  0  0  0  0  0  0  0
  2  3  1  0  0  0  0
  3  1  1  0  0  0  0
  4  3  1  0  0  0  0
  4  5  1  0  0  0  0
  4  7  1  0  0  0  0
  5  9  1  0  0  0  0
  6 11  1  0  0  0  0
  6  5  2  0  0  0  0
  8  4  1  0  0  0  0
 10  6  1  0  0  0  0
M  CHG  2   1  -1   2  -1
M  END
