1,2
q = -1.0

 20 21  0  0  0  0  0  0  0  0999 V2000
   -0.1650   -0.6032   -0.7106 O   0  0  0  0  0  1  0  0  0  0  0  0
   -1.0673    0.5206    1.6249 O   0  5  0  0  0  0  0  0  0  0  0  0
   -1.3663   -0.5403   -1.0455 C   0  0  0  0  0  3  0  0  0  0  0  0
   -1.5978   -0.7518   -2.1204 H   0  0  0  0  0  0  0  0  0  0  0  0
   -2.4847   -0.1596   -0.2206 C   0  0  0  0  0  0  0  0  0  0  0  0
   -2.2385    0.4367    1.0624 C   0  0  0  0  0  0  0  0  0  0  0  0
   -3.3436    1.0361    1.7662 C   0  0  0  0  0  0  0  0  0  0  0  0
   -3.1140    1.5070    2.7330 H   0  0  0  0  0  0  0  0  0  0  0  0
   -4.6197    0.9976    1.2583 C   0  0  0  0  0  0  0  0  0  0  0  0
   -5.4507    1.4515    1.8222 H   0  0  0  0  0  0  0  0  0  0  0  0
   -4.9169    0.3613    0.0090 C   0  0  0  0  0  0  0  0  0  0  0  0
   -3.8419   -0.2338   -0.7405 C   0  0  0  0  0  0  0  0  0  0  0  0
   -4.1826   -0.8923   -1.9564 C   0  0  0  0  0  0  0  0  0  0  0  0
   -3.4048   -1.4009   -2.5424 H   0  0  0  0  0  0  0  0  0  0  0  0
   -5.4954   -0.9339   -2.4184 C   0  0  0  0  0  0  0  0  0  0  0  0
   -5.7191   -1.4547   -3.3621 H   0  0  0  0  0  0  0  0  0  0  0  0
   -6.5424   -0.3295   -1.6842 C   0  0  0  0  0  0  0  0  0  0  0  0
   -7.5769   -0.3713   -2.0561 H   0  0  0  0  0  0  0  0  0  0  0  0
   -6.2487    0.3030   -0.4826 C   0  0  0  0  0  0  0  0  0  0  0  0
   -7.0487    0.7677    0.1152 H   0  0  0  0  0  0  0  0  0  0  0  0
  3  1  1  0  0  0  0
  3  5  1  0  0  0  0
  4  3  1  0  0  0  0
  5  6  1  0  0  0  0
  6  2  1  0  0  0  0
  6  7  2  0  0  0  0
  7  8  1  0  0  0  0
  9  7  1  0  0  0  0
  9 10  1  0  0  0  0
 11  9  2  0  0  0  0
 12  5  2  0  0  0  0
 12 11  1  0  0  0  0
 13 12  1  0  0  0  0
 14 13  1  0  0  0  0
 15 13  2  0  0  0  0
 15 17  1  0  0  0  0
 16 15  1  0  0  0  0
 17 19  2  0  0  0  0
 18 17  1  0  0  0  0
 19 11  1  0  0  0  0
 19 20  1  0  0  0  0
M  CHG  1   2  -1
M  END
