6,9
q = -1.0

 19 18  0  0  1  0  0  0  0  0999 V2000
   -2.3387    1.8169    0.9618 P   0  0  1  0  0  0  0  0  0  0  0  0
   -0.4775    2.9326   -1.0645 P   0  0  1  0  0  0  0  0  0  0  0  0
   -2.2625    2.3835   -0.8356 C   0  0  2  0  0  0  0  0  0  0  0  0
   -3.2859    3.4903   -1.0782 C   0  0  0  0  0  0  0  0  0  0  0  0
   -2.5280    1.2324   -1.7465 N   0  3  0  0  0  0  0  0  0  0  0  0
   -1.0780    0.9103    1.2218 O   0  0  0  0  0  1  0  0  0  0  0  0
   -2.1389    3.2246    1.7314 O   0  0  0  0  0  0  0  0  0  0  0  0
   -3.6743    1.1376    1.2511 O   0  0  0  0  0  0  0  0  0  0  0  0
    0.3104    1.6463   -1.3675 O   0  0  0  0  0  1  0  0  0  0  0  0
   -0.5045    3.8086   -2.4686 O   0  0  0  0  0  0  0  0  0  0  0  0
   -0.1615    3.8627    0.1159 O   0  0  0  0  0  0  0  0  0  0  0  0
   -3.0762    4.3484   -0.4143 H   0  0  0  0  0  0  0  0  0  0  0  0
   -3.2366    3.8406   -2.1304 H   0  0  0  0  0  0  0  0  0  0  0  0
   -4.3101    3.1304   -0.8502 H   0  0  0  0  0  0  0  0  0  0  0  0
   -3.3103    0.5536   -1.4560 H   0  0  0  0  0  0  0  0  0  0  0  0
   -2.6897    1.5515   -2.7142 H   0  0  0  0  0  0  0  0  0  0  0  0
   -1.7037    0.5407   -1.7426 H   0  0  0  0  0  0  0  0  0  0  0  0
   -1.3194    3.6391    1.2796 H   0  0  0  0  0  0  0  0  0  0  0  0
   -0.4477    4.7524   -2.2211 H   0  0  0  0  0  0  0  0  0  0  0  0
  1  6  1  1  0  0  0
  1  8  2  0  0  0  0
  1  7  1  0  0  0  0
  2  9  1  6  0  0  0
  2  3  1  0  0  0  0
  2 11  2  0  0  0  0
  3  4  1  6  0  0  0
  3  1  1  0  0  0  0
  4 14  1  0  0  0  0
  4 12  1  0  0  0  0
  5 17  1  0  0  0  0
  5 15  1  0  0  0  0
  5  3  1  0  0  0  0
 10 19  1  0  0  0  0
 10  2  1  0  0  0  0
 13  4  1  0  0  0  0
 16  5  1  0  0  0  0
 18  7  1  0  0  0  0
M  CHG  1   5   1
M  END
