1,2
q = -1.0

 19 19  0  0  1  0  0  0  0  0999 V2000
   -2.3426   -1.2563   -1.5068 O   0  0  0  0  0  1  0  0  0  0  0  0
   -1.0404   -1.2268    0.7183 O   0  0  0  0  0  1  0  0  0  0  0  0
   -1.3373   -2.1323   -1.2901 N   0  0  0  0  0  0  0  0  0  0  0  0
   -1.1162   -2.7469   -2.0784 H   0  0  0  0  0  0  0  0  0  0  0  0
   -0.6689   -2.0833   -0.1321 C   0  0  2  0  0  3  0  0  0  0  0  0
    0.4541   -3.0606    0.1091 C   0  0  0  0  0  0  0  0  0  0  0  0
    0.5258   -3.7718   -0.7381 H   0  0  0  0  0  0  0  0  0  0  0  0
    0.1504   -3.6564    0.9985 H   0  0  0  0  0  0  0  0  0  0  0  0
    1.8093   -2.4244    0.3715 C   0  0  0  0  0  0  0  0  0  0  0  0
    1.9627   -1.4002    1.3290 C   0  0  0  0  0  0  0  0  0  0  0  0
    1.0741   -1.0173    1.8510 H   0  0  0  0  0  0  0  0  0  0  0  0
    3.2315   -0.8726    1.6029 C   0  0  0  0  0  0  0  0  0  0  0  0
    3.3365   -0.0643    2.3420 H   0  0  0  0  0  0  0  0  0  0  0  0
    4.3644   -1.3633    0.9352 C   0  0  0  0  0  0  0  0  0  0  0  0
    5.3590   -0.9485    1.1572 H   0  0  0  0  0  0  0  0  0  0  0  0
    4.2198   -2.3743   -0.0254 C   0  0  0  0  0  0  0  0  0  0  0  0
    5.1005   -2.7614   -0.5602 H   0  0  0  0  0  0  0  0  0  0  0  0
    2.9479   -2.8961   -0.3088 C   0  0  0  0  0  0  0  0  0  0  0  0
    2.8403   -3.6942   -1.0611 H   0  0  0  0  0  0  0  0  0  0  0  0
  1  3  1  0  0  0  0
  3  5  1  0  0  0  0
  4  3  1  0  0  0  0
  5  6  1  0  0  0  0
  5  2  1  1  0  0  0
  6  9  1  0  0  0  0
  6  8  1  0  0  0  0
  7  6  1  0  0  0  0
  9 10  1  0  0  0  0
 10 12  2  0  0  0  0
 10 11  1  0  0  0  0
 12 13  1  0  0  0  0
 14 15  1  0  0  0  0
 14 12  1  0  0  0  0
 16 14  2  0  0  0  0
 17 16  1  0  0  0  0
 18 16  1  0  0  0  0
 18  9  2  0  0  0  0
 19 18  1  0  0  0  0
M  END
