1,2
q = -2.0, confidence = 0.632

 10  9  0  0  1  0  0  0  0  0999 V2000
   -0.8822   -2.0071   -1.4318 O   0  0  0  0  0  1  0  0  0  0  0  0
   -1.9896    0.4647   -1.5952 O   0  0  0  0  0  1  0  0  0  0  0  0
   -3.8599   -0.8606    0.0334 O   0  0  0  0  0  0  0  0  0  0  0  0
   -1.7336   -1.7371   -2.5126 C   0  0  0  0  0  0  0  0  0  0  0  0
   -2.7147   -0.6093   -2.1000 C   0  0  1  0  0  0  0  0  0  0  0  0
   -3.7381   -1.1833   -1.1411 C   0  0  0  0  0  0  0  0  0  0  0  0
   -2.2703   -2.6709   -2.8123 H   0  0  0  0  0  0  0  0  0  0  0  0
   -1.1848   -1.3651   -3.4160 H   0  0  0  0  0  0  0  0  0  0  0  0
   -3.3071   -0.2969   -3.0022 H   0  0  0  0  0  0  0  0  0  0  0  0
   -4.4132   -1.9873   -1.5624 H   0  0  0  0  0  0  0  0  0  0  0  0
  4  5  1  0  0  0  0
  4  1  1  0  0  0  0
  5  9  1  6  0  0  0
  5  2  1  0  0  0  0
  5  6  1  0  0  0  0
  6  3  2  0  0  0  0
  7  4  1  0  0  0  0
  8  4  1  0  0  0  0
 10  6  1  0  0  0  0
M  END
