2,7
q = -1.0

 18 18  0  0  1  0  0  0  0  0999 V2000
    2.4140   -1.3518   -0.0007 C   0  0  2  0  0  3  0  0  0  0  0  0
    0.4019   -1.7188   -1.1311 O   0  0  0  0  0  1  0  0  0  0  0  0
    1.7053   -1.9253   -0.9947 N   0  0  0  0  0  0  0  0  0  0  0  0
    2.1873   -2.3789   -1.7819 H   0  0  0  0  0  0  0  0  0  0  0  0
    4.6356   -0.3790    0.4165 C   0  0  0  0  0  0  0  0  0  0  0  0
    4.1167    0.4826    0.8572 H   0  0  0  0  0  0  0  0  0  0  0  0
    1.8448   -0.6166    0.8620 O   0  0  0  0  0  1  0  0  0  0  0  0
    5.9821   -2.5923   -0.6756 C   0  0  0  0  0  0  0  0  0  0  0  0
    6.5037   -3.4705   -1.0844 H   0  0  0  0  0  0  0  0  0  0  0  0
    8.0099    0.7099    0.7967 O   0  0  0  0  0  0  0  0  0  0  0  0
    6.7255   -1.4900   -0.2289 C   0  0  0  0  0  0  0  0  0  0  0  0
    7.8216   -1.4562   -0.2770 H   0  0  0  0  0  0  0  0  0  0  0  0
    6.1402    1.8290    0.9673 O   0  0  0  0  0  0  0  0  0  0  0  0
    6.0259   -0.3957    0.3007 C   0  0  0  0  0  0  0  0  0  0  0  0
    3.8906   -1.4742   -0.0660 C   0  0  0  0  0  0  0  0  0  0  0  0
    6.7861    0.8067    0.7271 N   0  0  0  0  0  0  0  0  0  0  0  0
    4.5808   -2.5876   -0.5986 C   0  0  0  0  0  0  0  0  0  0  0  0
    4.0176   -3.4724   -0.9334 H   0  0  0  0  0  0  0  0  0  0  0  0
  1  7  1  6  0  0  0
  2  3  1  0  0  0  0
  3  1  1  0  0  0  0
  4  3  1  0  0  0  0
  5  6  1  0  0  0  0
  8 17  2  0  0  0  0
  8 11  1  0  0  0  0
  9  8  1  0  0  0  0
 11 14  2  0  0  0  0
 12 11  1  0  0  0  0
 14  5  1  0  0  0  0
 14 16  1  0  0  0  0
 15  1  1  0  0  0  0
 15  5  2  0  0  0  0
 16 10  2  0  0  0  0
 16 13  2  0  0  0  0
 17 15  1  0  0  0  0
 18 17  1  0  0  0  0
M  END
