1,2
q = -2.0, confidence = 0.826

 37 40  0  0  0  0  0  0  0  0999 V2000
    0.3124   -0.2280    0.7849 O   0  5  0  0  0  0  0  0  0  0  0  0
    0.7735    1.3636   -1.3282 O   0  5  0  0  0  0  0  0  0  0  0  0
   -4.9370   -3.9177    0.5277 C   0  0  0  0  0  0  0  0  0  0  0  0
   -5.7597   -4.6327    0.6789 H   0  0  0  0  0  0  0  0  0  0  0  0
   -4.8773   -3.1413   -0.6583 C   0  0  0  0  0  0  0  0  0  0  0  0
   -5.6526   -3.2611   -1.4305 H   0  0  0  0  0  0  0  0  0  0  0  0
   -1.4654    4.1281   -0.5507 C   0  0  0  0  0  0  0  0  0  0  0  0
   -1.4213    5.2168   -0.3898 H   0  0  0  0  0  0  0  0  0  0  0  0
   -0.8020   -1.8453    2.1073 C   0  0  0  0  0  0  0  0  0  0  0  0
    0.0084   -1.7383    2.8428 H   0  0  0  0  0  0  0  0  0  0  0  0
   -2.7200    3.4635   -0.4204 C   0  0  0  0  0  0  0  0  0  0  0  0
   -5.1242    3.5249    0.0450 C   0  0  0  0  0  0  0  0  0  0  0  0
   -6.0325    4.0897    0.3044 H   0  0  0  0  0  0  0  0  0  0  0  0
   -0.3220    3.4210   -0.8649 C   0  0  0  0  0  0  0  0  0  0  0  0
    0.6596    3.9078   -0.9524 H   0  0  0  0  0  0  0  0  0  0  0  0
   -0.7374   -1.0413    0.9296 C   0  0  0  0  0  0  0  0  0  0  0  0
   -4.0538    1.3968   -0.4795 C   0  0  0  0  0  0  0  0  0  0  0  0
   -4.1340    0.3100   -0.6073 H   0  0  0  0  0  0  0  0  0  0  0  0
   -2.8139   -2.0403    0.1142 C   0  0  0  0  0  0  0  0  0  0  0  0
   -1.7418   -1.0997   -0.0572 C   0  0  0  0  0  0  0  0  0  0  0  0
   -3.8470   -2.2334   -0.8574 C   0  0  0  0  0  0  0  0  0  0  0  0
   -3.8250   -1.6594   -1.7942 H   0  0  0  0  0  0  0  0  0  0  0  0
   -5.1912    2.1210   -0.1505 C   0  0  0  0  0  0  0  0  0  0  0  0
   -6.1528    1.5974   -0.0359 H   0  0  0  0  0  0  0  0  0  0  0  0
   -2.8741   -2.8522    1.3128 C   0  0  0  0  0  0  0  0  0  0  0  0
   -2.7832    2.0334   -0.6295 C   0  0  0  0  0  0  0  0  0  0  0  0
   -1.5941    1.3063   -0.9706 C   0  0  0  0  0  0  0  0  0  0  0  0
   -1.6201   -0.1853   -1.2638 C   0  0  0  0  0  0  0  0  0  0  0  0
   -2.4388   -0.3896   -1.9781 H   0  0  0  0  0  0  0  0  0  0  0  0
   -0.6788   -0.4400   -1.7917 H   0  0  0  0  0  0  0  0  0  0  0  0
   -1.8507   -2.7217    2.2963 C   0  0  0  0  0  0  0  0  0  0  0  0
   -1.9062   -3.3399    3.2059 H   0  0  0  0  0  0  0  0  0  0  0  0
   -3.9073    4.1770   -0.0883 C   0  0  0  0  0  0  0  0  0  0  0  0
   -3.8375    5.2660    0.0634 H   0  0  0  0  0  0  0  0  0  0  0  0
   -0.3797    2.0093   -1.0678 C   0  0  0  0  0  0  0  0  0  0  0  0
   -3.9478   -3.7716    1.4882 C   0  0  0  0  0  0  0  0  0  0  0  0
   -3.9734   -4.3724    2.4112 H   0  0  0  0  0  0  0  0  0  0  0  0
  1 16  1  0  0  0  0
  2 35  1  0  0  0  0
  3  4  1  0  0  0  0
  3 36  1  0  0  0  0
  5  3  2  0  0  0  0
  6  5  1  0  0  0  0
  7 11  1  0  0  0  0
  7  8  1  0  0  0  0
  9 31  2  0  0  0  0
  9 10  1  0  0  0  0
 11 33  1  0  0  0  0
 12 13  1  0  0  0  0
 14  7  2  0  0  0  0
 15 14  1  0  0  0  0
 16  9  1  0  0  0  0
 17 23  2  0  0  0  0
 18 17  1  0  0  0  0
 19 25  1  0  0  0  0
 20 19  1  0  0  0  0
 20 16  2  0  0  0  0
 21  5  1  0  0  0  0
 21 19  2  0  0  0  0
 22 21  1  0  0  0  0
 23 24  1  0  0  0  0
 23 12  1  0  0  0  0
 25 36  2  0  0  0  0
 25 31  1  0  0  0  0
 26 17  1  0  0  0  0
 26 11  2  0  0  0  0
 27 26  1  0  0  0  0
 28 27  1  0  0  0  0
 28 20  1  0  0  0  0
 29 28  1  0  0  0  0
 30 28  1  0  0  0  0
 31 32  1  0  0  0  0
 33 12  2  0  0  0  0
 33 34  1  0  0  0  0
 35 27  2  0  0  0  0
 35 14  1  0  0  0  0
 36 37  1  0  0  0  0
M  CHG  2   1  -1   2  -1
M  END
