1,2
q = -2.0, confidence = 0.942

 20 21  0  0  0  0  0  0  0  0999 V2000
    2.4879   -1.6597   -0.0733 O   0  5  0  0  0  0  0  0  0  0  0  0
    2.4899    1.6567   -0.0705 O   0  5  0  0  0  0  0  0  0  0  0  0
    1.6871    3.0319    1.5625 O   0  0  0  0  0  0  0  0  0  0  0  0
    1.6854   -3.0364    1.5586 O   0  0  0  0  0  0  0  0  0  0  0  0
    0.6574   -0.0026    2.7777 N   0  0  0  0  0  0  0  0  0  0  0  0
   -0.7150   -0.0016    2.4100 C   0  0  0  0  0  0  0  0  0  0  0  0
    1.5682    0.6537    1.7854 C   0  0  0  0  0  0  0  0  0  0  0  0
    1.9496   -1.9312    1.0915 C   0  0  0  0  0  0  0  0  0  0  0  0
    1.5674   -0.6584    1.7842 C   0  0  0  0  0  0  0  0  0  0  0  0
    1.9511    1.9272    1.0944 C   0  0  0  0  0  0  0  0  0  0  0  0
   -3.4390    0.0004    1.6890 C   0  0  0  0  0  0  0  0  0  0  0  0
   -4.5063    0.0011    1.4193 H   0  0  0  0  0  0  0  0  0  0  0  0
   -2.7535   -1.2147    1.8683 C   0  0  0  0  0  0  0  0  0  0  0  0
   -3.2808   -2.1710    1.7248 H   0  0  0  0  0  0  0  0  0  0  0  0
   -1.3965    1.2214    2.2262 C   0  0  0  0  0  0  0  0  0  0  0  0
   -0.8382    2.1621    2.3518 H   0  0  0  0  0  0  0  0  0  0  0  0
   -1.3979   -1.2235    2.2247 C   0  0  0  0  0  0  0  0  0  0  0  0
   -0.8406   -2.1650    2.3494 H   0  0  0  0  0  0  0  0  0  0  0  0
   -2.7521    1.2145    1.8697 C   0  0  0  0  0  0  0  0  0  0  0  0
   -3.2784    2.1715    1.7273 H   0  0  0  0  0  0  0  0  0  0  0  0
  1  8  1  0  0  0  0
  2 10  1  0  0  0  0
  6  5  1  0  0  0  0
  7  5  1  0  0  0  0
  8  4  2  0  0  0  0
  8  9  1  0  0  0  0
  9  7  2  0  0  0  0
  9  5  1  0  0  0  0
 10  3  2  0  0  0  0
 10  7  1  0  0  0  0
 11 13  2  0  0  0  0
 11 19  1  0  0  0  0
 12 11  1  0  0  0  0
 13 17  1  0  0  0  0
 14 13  1  0  0  0  0
 15 16  1  0  0  0  0
 15  6  1  0  0  0  0
 17 18  1  0  0  0  0
 17  6  2  0  0  0  0
 19 15  2  0  0  0  0
 20 19  1  0  0  0  0
M  CHG  2   1  -1   2  -1
M  END
