1,4
q = -1.0

 29 30  0  0  0  0  0  0  0  0999 V2000
   -2.6688    1.1695   -0.5434 O   0  5  0  0  0  0  0  0  0  0  0  0
   -2.7982    3.3873   -1.0482 O   0  0  0  0  0  0  0  0  0  0  0  0
   -2.6906   -2.3157   -0.5610 O   0  5  0  0  0  0  0  0  0  0  0  0
   -1.1086   -1.1214    0.5649 O   0  0  0  0  0  0  0  0  0  0  0  0
   -4.6190    1.2313    1.1909 N   0  0  0  0  0  0  0  0  0  0  0  0
   -3.9915   -0.8449    1.6556 N   0  0  0  0  0  0  0  0  0  0  0  0
   -5.5434    0.3802    0.5721 C   0  0  0  0  0  0  0  0  0  0  0  0
   -6.6657    0.6461   -0.2238 C   0  0  0  0  0  0  0  0  0  0  0  0
   -6.9761    1.6726   -0.4626 H   0  0  0  0  0  0  0  0  0  0  0  0
   -7.3714   -0.4610   -0.7124 C   0  0  0  0  0  0  0  0  0  0  0  0
   -8.2567   -0.2961   -1.3435 H   0  0  0  0  0  0  0  0  0  0  0  0
   -6.9620   -1.7843   -0.4270 C   0  0  0  0  0  0  0  0  0  0  0  0
   -7.5315   -2.6255   -0.8479 H   0  0  0  0  0  0  0  0  0  0  0  0
   -5.8354   -2.0501    0.3606 C   0  0  0  0  0  0  0  0  0  0  0  0
   -5.4899   -3.0757    0.5417 H   0  0  0  0  0  0  0  0  0  0  0  0
   -5.1424   -0.9419    0.8637 C   0  0  0  0  0  0  0  0  0  0  0  0
   -3.6774    0.4654    1.8137 C   0  0  0  0  0  3  0  0  0  0  0  0
   -2.5039    0.9861    2.5486 C   0  0  0  0  0  0  0  0  0  0  0  0
   -2.7229    1.9885    2.9611 H   0  0  0  0  0  0  0  0  0  0  0  0
   -2.2447    0.3103    3.3850 H   0  0  0  0  0  0  0  0  0  0  0  0
   -1.6076    1.0579    1.8869 H   0  0  0  0  0  0  0  0  0  0  0  0
   -3.0085   -1.9242    1.7767 C   0  0  0  0  0  0  0  0  0  0  0  0
   -2.3826   -1.7609    2.6714 H   0  0  0  0  0  0  0  0  0  0  0  0
   -3.5453   -2.8862    1.8581 H   0  0  0  0  0  0  0  0  0  0  0  0
   -2.1709   -1.8219    0.4610 C   0  0  0  0  0  0  0  0  0  0  0  0
   -4.2567    2.5278    0.6354 C   0  0  0  0  0  0  0  0  0  0  0  0
   -5.1475    3.0089    0.1933 H   0  0  0  0  0  0  0  0  0  0  0  0
   -3.8770    3.2026    1.4266 H   0  0  0  0  0  0  0  0  0  0  0  0
   -3.1346    2.3472   -0.4425 C   0  0  0  0  0  0  0  0  0  0  0  0
  1 29  1  0  0  0  0
  2 29  2  0  0  0  0
  3 25  1  0  0  0  0
  5 17  1  0  0  0  0
  6 22  1  0  0  0  0
  6 17  1  0  0  0  0
  7 16  1  0  0  0  0
  7  5  1  0  0  0  0
  8  7  2  0  0  0  0
  9  8  1  0  0  0  0
 10 12  2  0  0  0  0
 10  8  1  0  0  0  0
 11 10  1  0  0  0  0
 12 14  1  0  0  0  0
 13 12  1  0  0  0  0
 14 15  1  0  0  0  0
 14 16  2  0  0  0  0
 16  6  1  0  0  0  0
 17 18  1  0  0  0  0
 18 19  1  0  0  0  0
 18 20  1  0  0  0  0
 21 18  1  0  0  0  0
 22 24  1  0  0  0  0
 22 23  1  0  0  0  0
 25  4  2  0  0  0  0
 25 22  1  0  0  0  0
 26  5  1  0  0  0  0
 26 28  1  0  0  0  0
 27 26  1  0  0  0  0
 29 26  1  0  0  0  0
M  CHG  2   1  -1   3  -1
M  END
