3,4
q = -2.0, confidence = 0.734

 13 12  0  0  0  0  0  0  0  0999 V2000
   -0.0045    2.2362   -1.7223 S   0  0  0  0  0  0  0  0  0  0  0  0
   -2.8634    3.2567    0.7073 O   0  5  0  0  0  0  0  0  0  0  0  0
   -1.6176    1.4173    0.8115 O   0  0  0  0  0  0  0  0  0  0  0  0
    1.0962    1.4545    1.0051 O   0  5  0  0  0  0  0  0  0  0  0  0
    3.0941    2.4286    0.7634 O   0  0  0  0  0  0  0  0  0  0  0  0
   -1.8422    2.6534    0.4007 C   0  0  0  0  0  0  0  0  0  0  0  0
   -0.7893    3.3357   -0.4841 C   0  0  0  0  0  0  0  0  0  0  0  0
    0.0054    3.7470    0.1700 H   0  0  0  0  0  0  0  0  0  0  0  0
   -1.2807    4.1815   -0.9995 H   0  0  0  0  0  0  0  0  0  0  0  0
    1.7405    2.2865   -1.2008 C   0  0  0  0  0  0  0  0  0  0  0  0
    2.2445    1.4840   -1.7805 H   0  0  0  0  0  0  0  0  0  0  0  0
    2.2158    3.2449   -1.4884 H   0  0  0  0  0  0  0  0  0  0  0  0
    2.0271    2.0514    0.2920 C   0  0  0  0  0  0  0  0  0  0  0  0
  1 10  1  0  0  0  0
  1  7  1  0  0  0  0
  6  2  1  0  0  0  0
  6  3  2  0  0  0  0
  7  8  1  0  0  0  0
  7  6  1  0  0  0  0
  9  7  1  0  0  0  0
 10 13  1  0  0  0  0
 11 10  1  0  0  0  0
 12 10  1  0  0  0  0
 13  5  2  0  0  0  0
 13  4  1  0  0  0  0
M  CHG  2   2  -1   4  -1
M  END
