1,2
q = -1.0, confidence = 0.0

 26 26  0  0  1  0  0  0  0  0999 V2000
   -1.9720    0.6262   -0.7309 O   0  0  0  0  0  1  0  0  0  0  0  0
   -0.4588    0.6972    1.2996 O   0  0  0  0  0  1  0  0  0  0  0  0
   -8.0328   -0.5570    0.4426 O   0  0  0  0  0  0  0  0  0  0  0  0
   -2.5295    0.4385    0.5009 N   0  0  0  0  0  0  0  0  0  0  0  0
   -3.9267    0.1766    0.4849 C   0  0  0  0  0  0  0  0  0  0  0  0
   -4.7946    0.7956    1.4070 C   0  0  0  0  0  0  0  0  0  0  0  0
   -6.1612    0.5159    1.3744 C   0  0  0  0  0  0  0  0  0  0  0  0
   -6.6915   -0.3570    0.3983 C   0  0  0  0  0  0  0  0  0  0  0  0
   -5.8232   -0.9425   -0.5503 C   0  0  0  0  0  0  0  0  0  0  0  0
   -4.4499   -0.6755   -0.5025 C   0  0  0  0  0  0  0  0  0  0  0  0
   -1.6687    0.4236    1.5443 C   0  0  1  0  0  3  0  0  0  0  0  0
   -2.1185    0.0649    2.9316 C   0  0  0  0  0  0  0  0  0  0  0  0
   -8.6384   -1.4056   -0.5323 C   0  0  0  0  0  0  0  0  0  0  0  0
  -10.1293   -1.4423   -0.2580 C   0  0  0  0  0  0  0  0  0  0  0  0
   -4.4002    1.5152    2.1376 H   0  0  0  0  0  0  0  0  0  0  0  0
   -6.8549    0.9874    2.0849 H   0  0  0  0  0  0  0  0  0  0  0  0
   -6.2079   -1.6095   -1.3326 H   0  0  0  0  0  0  0  0  0  0  0  0
   -3.7658   -1.1150   -1.2411 H   0  0  0  0  0  0  0  0  0  0  0  0
   -3.0447   -0.5371    2.9417 H   0  0  0  0  0  0  0  0  0  0  0  0
   -2.2844    0.9823    3.5326 H   0  0  0  0  0  0  0  0  0  0  0  0
   -1.2941   -0.4962    3.4106 H   0  0  0  0  0  0  0  0  0  0  0  0
   -8.4295   -1.0145   -1.5552 H   0  0  0  0  0  0  0  0  0  0  0  0
   -8.1955   -2.4270   -0.4716 H   0  0  0  0  0  0  0  0  0  0  0  0
  -10.3322   -1.8380    0.7567 H   0  0  0  0  0  0  0  0  0  0  0  0
  -10.5658   -0.4266   -0.3273 H   0  0  0  0  0  0  0  0  0  0  0  0
  -10.6379   -2.0931   -0.9960 H   0  0  0  0  0  0  0  0  0  0  0  0
  1  4  1  0  0  0  0
  4 11  1  0  0  0  0
  5  4  1  0  0  0  0
  5  6  1  0  0  0  0
  6 15  1  0  0  0  0
  7  6  2  0  0  0  0
  7 16  1  0  0  0  0
  8  3  1  0  0  0  0
  8  7  1  0  0  0  0
  9 10  1  0  0  0  0
  9  8  2  0  0  0  0
 10  5  2  0  0  0  0
 11  2  1  6  0  0  0
 11 12  1  0  0  0  0
 12 19  1  0  0  0  0
 12 21  1  0  0  0  0
 12 20  1  0  0  0  0
 13 23  1  0  0  0  0
 13 14  1  0  0  0  0
 13  3  1  0  0  0  0
 14 24  1  0  0  0  0
 17  9  1  0  0  0  0
 18 10  1  0  0  0  0
 22 13  1  0  0  0  0
 25 14  1  0  0  0  0
 26 14  1  0  0  0  0
M  END
