1,13
q = -1.0, confidence = 0.002

 31 32  0  0  1  0  0  0  0  0999 V2000
    1.4154    1.6140    0.3913 O   0  5  0  0  0  0  0  0  0  0  0  0
    2.5615    1.2550    0.0373 C   0  0  0  0  0  0  0  0  0  0  0  0
    3.7486    2.0749    0.3272 C   0  0  0  0  0  0  0  0  0  0  0  0
    3.6252    3.3042    1.0034 C   0  0  0  0  0  0  0  0  0  0  0  0
    4.7680    4.0701    1.2718 C   0  0  0  0  0  0  0  0  0  0  0  0
    6.0328    3.6046    0.8719 C   0  0  0  0  0  0  0  0  0  0  0  0
    6.1590    2.3745    0.2051 C   0  0  0  0  0  0  0  0  0  0  0  0
    5.0222    1.6040   -0.0735 C   0  0  0  0  0  0  0  0  0  0  0  0
    5.1779    0.2804   -0.7815 C   0  0  0  0  0  0  0  0  0  0  0  0
    6.3205   -0.1154   -1.0727 O   0  0  0  0  0  0  0  0  0  0  0  0
    3.9768   -0.4897   -1.0860 C   0  0  2  0  0  3  0  0  0  0  0  0
    2.7074   -0.0368   -0.7190 C   0  0  0  0  0  0  0  0  0  0  0  0
    1.6135   -0.6802   -0.9858 O   0  5  0  0  0  0  0  0  0  0  0  0
    4.1126   -1.8130   -1.8005 C   0  0  0  0  0  0  0  0  0  0  0  0
    3.6433   -2.9889   -0.9678 C   0  0  0  0  0  0  0  0  0  0  0  0
    4.3476   -3.6013    0.0149 C   0  0  0  0  0  0  0  0  0  0  0  0
    3.7604   -4.7601    0.7806 C   0  0  0  0  0  0  0  0  0  0  0  0
    4.4033   -5.6638    0.6963 H   0  0  0  0  0  0  0  0  0  0  0  0
    3.6975   -4.5320    1.8686 H   0  0  0  0  0  0  0  0  0  0  0  0
    2.7461   -5.0249    0.4225 H   0  0  0  0  0  0  0  0  0  0  0  0
    5.7401   -3.1976    0.4243 C   0  0  0  0  0  0  0  0  0  0  0  0
    5.7583   -2.9024    1.4969 H   0  0  0  0  0  0  0  0  0  0  0  0
    6.4397   -4.0575    0.3343 H   0  0  0  0  0  0  0  0  0  0  0  0
    6.1458   -2.3535   -0.1640 H   0  0  0  0  0  0  0  0  0  0  0  0
    2.6201   -3.3473   -1.1711 H   0  0  0  0  0  0  0  0  0  0  0  0
    3.5019   -1.7759   -2.7272 H   0  0  0  0  0  0  0  0  0  0  0  0
    5.1737   -1.9247   -2.0978 H   0  0  0  0  0  0  0  0  0  0  0  0
    7.1345    1.9783   -0.1137 H   0  0  0  0  0  0  0  0  0  0  0  0
    6.9301    4.2060    1.0844 H   0  0  0  0  0  0  0  0  0  0  0  0
    4.6745    5.0326    1.7968 H   0  0  0  0  0  0  0  0  0  0  0  0
    2.6231    3.6374    1.3105 H   0  0  0  0  0  0  0  0  0  0  0  0
  2  3  1  0  0  0  0
  2  1  1  0  0  0  0
  3  4  1  0  0  0  0
  4  5  2  0  0  0  0
  4 31  1  0  0  0  0
  5 30  1  0  0  0  0
  6 29  1  0  0  0  0
  6  5  1  0  0  0  0
  7  6  2  0  0  0  0
  8  7  1  0  0  0  0
  8  3  2  0  0  0  0
  9  8  1  0  0  0  0
 10  9  2  0  0  0  0
 11 14  1  1  0  0  0
 11  9  1  0  0  0  0
 11 12  1  0  0  0  0
 12  2  2  0  0  0  0
 13 12  1  0  0  0  0
 14 15  1  0  0  0  0
 15 16  2  0  0  0  0
 16 21  1  0  0  0  0
 16 17  1  0  0  0  0
 17 19  1  0  0  0  0
 18 17  1  0  0  0  0
 20 17  1  0  0  0  0
 21 22  1  0  0  0  0
 23 21  1  0  0  0  0
 24 21  1  0  0  0  0
 25 15  1  0  0  0  0
 26 14  1  0  0  0  0
 27 14  1  0  0  0  0
 28  7  1  0  0  0  0
M  CHG  2   1  -1  13  -1
M  END
