2,3
q = -1.0

 44 45  0  0  0  0  0  0  0  0999 V2000
    8.3213    4.1893   -0.1503 O   0  0  0  0  0  0  0  0  0  0  0  0
    1.3224   -0.4847   -0.2309 O   0  5  0  0  0  0  0  0  0  0  0  0
   -1.5763   -0.6900   -0.1531 O   0  5  0  0  0  0  0  0  0  0  0  0
   -9.1257    3.0387    0.1918 O   0  0  0  0  0  0  0  0  0  0  0  0
    8.3558    5.6021   -0.0668 C   0  0  0  0  0  0  0  0  0  0  0  0
    7.8378    6.0812   -0.9277 H   0  0  0  0  0  0  0  0  0  0  0  0
    9.4230    5.8905   -0.0842 H   0  0  0  0  0  0  0  0  0  0  0  0
    7.8964    5.9729    0.8768 H   0  0  0  0  0  0  0  0  0  0  0  0
    7.1139    3.5669   -0.1451 C   0  0  0  0  0  0  0  0  0  0  0  0
    7.1393    2.1569   -0.2259 C   0  0  0  0  0  0  0  0  0  0  0  0
    8.1160    1.6555   -0.2857 H   0  0  0  0  0  0  0  0  0  0  0  0
    5.9476    1.4364   -0.2270 C   0  0  0  0  0  0  0  0  0  0  0  0
    5.9791    0.3372   -0.2874 H   0  0  0  0  0  0  0  0  0  0  0  0
    4.6841    2.0803   -0.1478 C   0  0  0  0  0  0  0  0  0  0  0  0
    4.6829    3.4936   -0.0691 C   0  0  0  0  0  0  0  0  0  0  0  0
    3.7266    4.0343   -0.0089 H   0  0  0  0  0  0  0  0  0  0  0  0
    5.8694    4.2330   -0.0665 C   0  0  0  0  0  0  0  0  0  0  0  0
    5.8195    5.3281   -0.0038 H   0  0  0  0  0  0  0  0  0  0  0  0
    3.4728    1.2721   -0.1501 C   0  0  0  0  0  0  0  0  0  0  0  0
    3.6166    0.1815   -0.2390 H   0  0  0  0  0  0  0  0  0  0  0  0
    2.1819    1.6953   -0.0478 C   0  0  0  0  0  0  0  0  0  0  0  0
    1.9351    2.7631    0.0606 H   0  0  0  0  0  0  0  0  0  0  0  0
    1.0463    0.7632   -0.0555 C   0  0  0  0  0  0  0  0  0  0  0  0
   -0.2521    1.3049    0.0950 C   0  0  0  0  0  0  0  0  0  0  0  0
   -0.3254    2.3923    0.2322 H   0  0  0  0  0  0  0  0  0  0  0  0
   -1.4676    0.5869   -0.0001 C   0  0  0  0  0  0  0  0  0  0  0  0
   -2.7175    1.3582    0.0475 C   0  0  0  0  0  0  0  0  0  0  0  0
   -2.6107    2.4519    0.1191 H   0  0  0  0  0  0  0  0  0  0  0  0
   -3.9449    0.7678    0.0237 C   0  0  0  0  0  3  0  0  0  0  0  0
   -3.9492   -0.3348   -0.0252 H   0  0  0  0  0  0  0  0  0  0  0  0
   -5.2499    1.4132    0.0665 C   0  0  0  0  0  0  0  0  0  0  0  0
   -5.4280    2.8170    0.1080 C   0  0  0  0  0  0  0  0  0  0  0  0
   -4.5480    3.4773    0.1057 H   0  0  0  0  0  0  0  0  0  0  0  0
   -6.6987    3.3982    0.1511 C   0  0  0  0  0  0  0  0  0  0  0  0
   -6.7878    4.4923    0.1827 H   0  0  0  0  0  0  0  0  0  0  0  0
   -7.8490    2.5765    0.1526 C   0  0  0  0  0  0  0  0  0  0  0  0
   -7.6954    1.1729    0.1100 C   0  0  0  0  0  0  0  0  0  0  0  0
   -8.6008    0.5491    0.1126 H   0  0  0  0  0  0  0  0  0  0  0  0
   -6.4219    0.6111    0.0679 C   0  0  0  0  0  0  0  0  0  0  0  0
   -6.3145   -0.4845    0.0377 H   0  0  0  0  0  0  0  0  0  0  0  0
   -9.3389    4.4375    0.2397 C   0  0  0  0  0  0  0  0  0  0  0  0
  -10.4342    4.5860    0.2680 H   0  0  0  0  0  0  0  0  0  0  0  0
   -8.9277    4.9506   -0.6584 H   0  0  0  0  0  0  0  0  0  0  0  0
   -8.8885    4.8947    1.1490 H   0  0  0  0  0  0  0  0  0  0  0  0
  1  9  1  0  0  0  0
  1  5  1  0  0  0  0
  2 23  1  0  0  0  0
  3 26  1  0  0  0  0
  4 41  1  0  0  0  0
  5  8  1  0  0  0  0
  6  5  1  0  0  0  0
  7  5  1  0  0  0  0
  9 17  1  0  0  0  0
 10  9  2  0  0  0  0
 11 10  1  0  0  0  0
 12 10  1  0  0  0  0
 12 14  2  0  0  0  0
 13 12  1  0  0  0  0
 14 15  1  0  0  0  0
 15 17  2  0  0  0  0
 15 16  1  0  0  0  0
 17 18  1  0  0  0  0
 19 14  1  0  0  0  0
 19 21  2  0  0  0  0
 20 19  1  0  0  0  0
 21 22  1  0  0  0  0
 23 21  1  0  0  0  0
 23 24  2  0  0  0  0
 24 25  1  0  0  0  0
 26 27  2  0  0  0  0
 26 24  1  0  0  0  0
 27 28  1  0  0  0  0
 29 27  1  0  0  0  0
 29 31  1  0  0  0  0
 30 29  1  0  0  0  0
 31 39  2  0  0  0  0
 31 32  1  0  0  0  0
 32 34  2  0  0  0  0
 33 32  1  0  0  0  0
 34 36  1  0  0  0  0
 34 35  1  0  0  0  0
 36  4  1  0  0  0  0
 37 38  1  0  0  0  0
 37 36  2  0  0  0  0
 39 37  1  0  0  0  0
 40 39  1  0  0  0  0
 41 42  1  0  0  0  0
 41 44  1  0  0  0  0
 43 41  1  0  0  0  0
M  CHG  2   2  -1   3  -1
M  END
