1,2
q = -2.0, confidence = 0.686

 17 16  0  0  1  0  0  0  0  0999 V2000
    1.3473    1.2446   -0.1026 O   0  0  0  0  0  1  0  0  0  0  0  0
    1.1509   -1.4492    0.0690 O   0  5  0  0  0  0  0  0  0  0  0  0
    5.0731   -0.8389   -1.2698 N   0  0  0  0  0  2  0  0  0  0  0  0
    4.1414    3.1246   -0.1344 N   0  0  0  0  0  0  0  0  0  0  0  0
    2.6123    0.9915   -0.0792 C   0  0  2  0  0  3  0  0  0  0  0  0
    3.2318   -0.2784   -0.0129 C   0  0  0  0  0  0  0  0  0  0  0  0
    2.4274   -1.4637    0.0230 C   0  0  0  0  0  0  0  0  0  0  0  0
    3.4578    2.1708   -0.1196 C   0  0  0  0  0  0  0  0  0  0  0  0
    3.0584   -2.8299    0.0185 C   0  0  0  0  0  0  0  0  0  0  0  0
    4.7413   -0.4069   -0.1384 C   0  0  0  0  0  0  0  0  0  0  0  0
    5.6603   -0.0499    1.0126 C   0  0  0  0  0  0  0  0  0  0  0  0
    5.3864   -0.6480    1.9064 H   0  0  0  0  0  0  0  0  0  0  0  0
    5.5475    1.0226    1.2712 H   0  0  0  0  0  0  0  0  0  0  0  0
    6.7120   -0.2482    0.7357 H   0  0  0  0  0  0  0  0  0  0  0  0
    3.5134   -3.0192   -0.9742 H   0  0  0  0  0  0  0  0  0  0  0  0
    2.2884   -3.5910    0.2342 H   0  0  0  0  0  0  0  0  0  0  0  0
    3.8810   -2.8897    0.7581 H   0  0  0  0  0  0  0  0  0  0  0  0
  3 10  2  0  0  0  0
  4  8  3  0  0  0  0
  5  1  1  1  0  0  0
  5  6  1  0  0  0  0
  6  7  2  0  0  0  0
  7  2  1  0  0  0  0
  8  5  1  0  0  0  0
  9  7  1  0  0  0  0
  9 16  1  0  0  0  0
  9 17  1  0  0  0  0
 10  6  1  0  0  0  0
 10 11  1  0  0  0  0
 11 13  1  0  0  0  0
 11 12  1  0  0  0  0
 14 11  1  0  0  0  0
 15  9  1  0  0  0  0
M  CHG  1   2  -1
M  END
