1,2
q = 0.0, confidence = 0.908

 32 33  0  0  0  0  0  0  0  0999 V2000
   -0.4209   -1.1744    0.1060 O   0  5  0  0  0  0  0  0  0  0  0  0
   -0.4210    1.1743   -0.1062 O   0  5  0  0  0  0  0  0  0  0  0  0
    0.8240   -0.7047    0.0325 C   0  0  0  0  0  0  0  0  0  0  0  0
    0.8240    0.7046   -0.0326 C   0  0  0  0  0  0  0  0  0  0  0  0
    1.9144   -1.6804   -0.0104 C   0  0  0  0  0  0  0  0  0  0  0  0
    1.7303   -2.9454    0.5957 C   0  0  0  0  0  0  0  0  0  0  0  0
    0.7815   -3.1572    1.1093 H   0  0  0  0  0  0  0  0  0  0  0  0
    2.7386   -3.9118    0.5417 C   0  0  0  0  0  0  0  0  0  0  0  0
    2.5769   -4.8879    1.0255 H   0  0  0  0  0  0  0  0  0  0  0  0
    3.9573   -3.6640   -0.1243 C   0  0  0  0  0  0  0  0  0  0  0  0
    4.1214   -2.4097   -0.7528 C   0  0  0  0  0  0  0  0  0  0  0  0
    5.0497   -2.2016   -1.3077 H   0  0  0  0  0  0  0  0  0  0  0  0
    3.1238   -1.4332   -0.7026 C   0  0  0  0  0  0  0  0  0  0  0  0
    3.2696   -0.4786   -1.2269 H   0  0  0  0  0  0  0  0  0  0  0  0
    5.0549   -4.6943   -0.1542 C   0  0  0  0  0  0  0  0  0  0  0  0
    4.6603   -5.7181   -0.0049 H   0  0  0  0  0  0  0  0  0  0  0  0
    5.7949   -4.5066    0.6540 H   0  0  0  0  0  0  0  0  0  0  0  0
    5.6113   -4.6704   -1.1123 H   0  0  0  0  0  0  0  0  0  0  0  0
    1.9144    1.6805    0.0103 C   0  0  0  0  0  0  0  0  0  0  0  0
    3.1238    1.4333    0.7025 C   0  0  0  0  0  0  0  0  0  0  0  0
    3.2696    0.4786    1.2268 H   0  0  0  0  0  0  0  0  0  0  0  0
    4.1213    2.4097    0.7527 C   0  0  0  0  0  0  0  0  0  0  0  0
    5.0497    2.2016    1.3076 H   0  0  0  0  0  0  0  0  0  0  0  0
    3.9571    3.6641    0.1243 C   0  0  0  0  0  0  0  0  0  0  0  0
    2.7385    3.9119   -0.5417 C   0  0  0  0  0  0  0  0  0  0  0  0
    2.5767    4.8880   -1.0254 H   0  0  0  0  0  0  0  0  0  0  0  0
    1.7302    2.9455   -0.5958 C   0  0  0  0  0  0  0  0  0  0  0  0
    0.7814    3.1573   -1.1093 H   0  0  0  0  0  0  0  0  0  0  0  0
    5.0548    4.6944    0.1542 C   0  0  0  0  0  0  0  0  0  0  0  0
    5.6115    4.6701    1.1120 H   0  0  0  0  0  0  0  0  0  0  0  0
    4.6600    5.7182    0.0055 H   0  0  0  0  0  0  0  0  0  0  0  0
    5.7944    4.5071   -0.6543 H   0  0  0  0  0  0  0  0  0  0  0  0
  2  4  1  0  0  0  0
  3  1  1  0  0  0  0
  4 19  1  0  0  0  0
  4  3  2  0  0  0  0
  5  3  1  0  0  0  0
  5  6  1  0  0  0  0
  6  7  1  0  0  0  0
  8  6  2  0  0  0  0
  8  9  1  0  0  0  0
 10  8  1  0  0  0  0
 11 13  1  0  0  0  0
 11 10  2  0  0  0  0
 12 11  1  0  0  0  0
 13  5  2  0  0  0  0
 14 13  1  0  0  0  0
 15 10  1  0  0  0  0
 15 16  1  0  0  0  0
 15 17  1  0  0  0  0
 18 15  1  0  0  0  0
 19 20  1  0  0  0  0
 20 22  2  0  0  0  0
 20 21  1  0  0  0  0
 22 23  1  0  0  0  0
 24 29  1  0  0  0  0
 24 22  1  0  0  0  0
 25 24  2  0  0  0  0
 26 25  1  0  0  0  0
 27 25  1  0  0  0  0
 27 19  2  0  0  0  0
 28 27  1  0  0  0  0
 29 30  1  0  0  0  0
 31 29  1  0  0  0  0
 32 29  1  0  0  0  0
M  CHG  2   1  -1   2  -1
M  END
