1,5
q = -1.0

 15 15  0  0  0  0  0  0  0  0999 V2000
    1.9528   -0.3736    0.0577 O   0  0  0  0  0  1  0  0  0  0  0  0
    5.3643    1.8936   -0.1654 C   0  0  0  0  0  0  0  0  0  0  0  0
    5.2811    2.9843   -0.2856 H   0  0  0  0  0  0  0  0  0  0  0  0
    3.1632   -2.3394    0.1381 N   0  0  0  0  0  2  0  0  0  0  0  0
    2.0186   -2.9290    0.1716 O   0  0  0  0  0  1  0  0  0  0  0  0
    3.1021   -1.0422    0.0825 N   0  0  0  0  0  0  0  0  0  0  0  0
    6.7183   -0.1066    0.0874 C   0  0  0  0  0  0  0  0  0  0  0  0
    7.7040   -0.5888    0.1688 H   0  0  0  0  0  0  0  0  0  0  0  0
    5.5651   -0.8979    0.1386 C   0  0  0  0  0  0  0  0  0  0  0  0
    5.6204   -1.9873    0.2575 H   0  0  0  0  0  0  0  0  0  0  0  0
    4.3078   -0.2724    0.0346 C   0  0  0  0  0  0  0  0  0  0  0  0
    4.1957    1.1207   -0.1178 C   0  0  0  0  0  0  0  0  0  0  0  0
    3.1987    1.5727   -0.1954 H   0  0  0  0  0  0  0  0  0  0  0  0
    6.6261    1.2884   -0.0638 C   0  0  0  0  0  0  0  0  0  0  0  0
    7.5393    1.9008   -0.1018 H   0  0  0  0  0  0  0  0  0  0  0  0
  1  6  1  0  0  0  0
  2 12  2  0  0  0  0
  2 14  1  0  0  0  0
  3  2  1  0  0  0  0
  4  5  1  0  0  0  0
  6  4  1  0  0  0  0
  7  9  1  0  0  0  0
  7  8  1  0  0  0  0
  9 10  1  0  0  0  0
 11  6  1  0  0  0  0
 11  9  2  0  0  0  0
 12 11  1  0  0  0  0
 13 12  1  0  0  0  0
 14  7  2  0  0  0  0
 15 14  1  0  0  0  0
M  END
