1,2
q = -2.0, confidence = 0.788

 42 43  0  0  0  0  0  0  0  0999 V2000
   -1.2812    0.2493    0.5256 O   0  5  0  0  0  0  0  0  0  0  0  0
    1.5794    0.0621    0.5347 O   0  5  0  0  0  0  0  0  0  0  0  0
   -0.2449    2.5289   -0.7377 C   0  0  0  0  0  0  0  0  0  0  0  0
    0.6116    2.7317    0.5414 C   0  0  0  0  0  0  0  0  0  0  0  0
   -2.1495    1.2452    0.2998 C   0  0  0  0  0  0  0  0  0  0  0  0
   -3.4792    1.1543    0.7976 C   0  0  0  0  0  0  0  0  0  0  0  0
   -4.3688    2.1988    0.5128 C   0  0  0  0  0  0  0  0  0  0  0  0
   -3.9829    3.3366   -0.2310 C   0  0  0  0  0  0  0  0  0  0  0  0
   -2.6355    3.4190   -0.6544 C   0  0  0  0  0  0  0  0  0  0  0  0
   -1.7061    2.4056   -0.3965 C   0  0  0  0  0  0  0  0  0  0  0  0
   -3.8992   -0.0241    1.6377 C   0  0  0  0  0  0  0  0  0  0  0  0
   -4.9030    4.4347   -0.5540 C   0  0  0  0  0  0  0  0  0  0  0  0
   -6.2208    4.5204   -0.2671 C   0  0  0  0  0  0  0  0  0  0  0  0
    2.4874    1.0381    0.3826 C   0  0  0  0  0  0  0  0  0  0  0  0
    3.8642    0.7052    0.2817 C   0  0  0  0  0  0  0  0  0  0  0  0
    4.7917    1.7413    0.1082 C   0  0  0  0  0  0  0  0  0  0  0  0
    4.4084    3.0996    0.0433 C   0  0  0  0  0  0  0  0  0  0  0  0
    3.0335    3.3983    0.1847 C   0  0  0  0  0  0  0  0  0  0  0  0
    2.0689    2.4015    0.3611 C   0  0  0  0  0  0  0  0  0  0  0  0
    4.2886   -0.7317    0.3793 C   0  0  0  0  0  0  0  0  0  0  0  0
    5.4393    4.1271   -0.1487 C   0  0  0  0  0  0  0  0  0  0  0  0
    5.2629    5.4624   -0.2604 C   0  0  0  0  0  0  0  0  0  0  0  0
   -0.0798    3.3731   -1.4367 H   0  0  0  0  0  0  0  0  0  0  0  0
    0.0901    1.6112   -1.2625 H   0  0  0  0  0  0  0  0  0  0  0  0
    0.5019    3.7772    0.8932 H   0  0  0  0  0  0  0  0  0  0  0  0
    0.2036    2.0818    1.3422 H   0  0  0  0  0  0  0  0  0  0  0  0
   -5.3965    2.1278    0.9021 H   0  0  0  0  0  0  0  0  0  0  0  0
   -2.3005    4.3167   -1.1997 H   0  0  0  0  0  0  0  0  0  0  0  0
   -3.0203   -0.5369    2.0730 H   0  0  0  0  0  0  0  0  0  0  0  0
   -4.5662    0.2975    2.4616 H   0  0  0  0  0  0  0  0  0  0  0  0
   -4.4683   -0.7705    1.0420 H   0  0  0  0  0  0  0  0  0  0  0  0
   -4.4370    5.2748   -1.0994 H   0  0  0  0  0  0  0  0  0  0  0  0
   -6.8075    5.4023   -0.5638 H   0  0  0  0  0  0  0  0  0  0  0  0
   -6.7620    3.7235    0.2676 H   0  0  0  0  0  0  0  0  0  0  0  0
    5.8608    1.4852    0.0251 H   0  0  0  0  0  0  0  0  0  0  0  0
    2.6985    4.4472    0.1739 H   0  0  0  0  0  0  0  0  0  0  0  0
    3.9014   -1.1947    1.3102 H   0  0  0  0  0  0  0  0  0  0  0  0
    3.8759   -1.3211   -0.4642 H   0  0  0  0  0  0  0  0  0  0  0  0
    5.3904   -0.8310    0.3648 H   0  0  0  0  0  0  0  0  0  0  0  0
    6.4704    3.7348   -0.2083 H   0  0  0  0  0  0  0  0  0  0  0  0
    6.1209    6.1359   -0.4025 H   0  0  0  0  0  0  0  0  0  0  0  0
    4.2673    5.9318   -0.2166 H   0  0  0  0  0  0  0  0  0  0  0  0
  3 10  1  0  0  0  0
  3  4  1  0  0  0  0
  4 25  1  0  0  0  0
  4 26  1  0  0  0  0
  5  1  1  0  0  0  0
  5  6  1  0  0  0  0
  6 11  1  0  0  0  0
  7  6  2  0  0  0  0
  7 27  1  0  0  0  0
  8  7  1  0  0  0  0
  9 10  1  0  0  0  0
  9  8  2  0  0  0  0
 10  5  2  0  0  0  0
 11 29  1  0  0  0  0
 11 30  1  0  0  0  0
 12 13  2  0  0  0  0
 12  8  1  0  0  0  0
 13 34  1  0  0  0  0
 14  2  1  0  0  0  0
 15 20  1  0  0  0  0
 15 14  2  0  0  0  0
 16 15  1  0  0  0  0
 17 16  2  0  0  0  0
 17 18  1  0  0  0  0
 18 19  2  0  0  0  0
 19 14  1  0  0  0  0
 19  4  1  0  0  0  0
 20 37  1  0  0  0  0
 21 17  1  0  0  0  0
 22 42  1  0  0  0  0
 22 21  2  0  0  0  0
 23  3  1  0  0  0  0
 24  3  1  0  0  0  0
 28  9  1  0  0  0  0
 31 11  1  0  0  0  0
 32 12  1  0  0  0  0
 33 13  1  0  0  0  0
 35 16  1  0  0  0  0
 36 18  1  0  0  0  0
 38 20  1  0  0  0  0
 39 20  1  0  0  0  0
 40 21  1  0  0  0  0
 41 22  1  0  0  0  0
M  CHG  2   1  -1   2  -1
M  END
