3,4
q = 0.0, confidence = 0.92

 77 83  0  0  0  0  0  0  0  0999 V2000
   -1.4763   -0.4523    0.0750 O   0  0  0  0  0  0  0  0  0  0  0  0
    1.0739    1.8196    0.5627 O   0  0  0  0  0  0  0  0  0  0  0  0
   -0.4419   -1.9418   -1.9163 O   0  0  0  0  0  1  0  0  0  0  0  0
    1.4879   -0.7819   -0.0197 O   0  0  0  0  0  1  0  0  0  0  0  0
   -1.3465   -1.8989   -0.6814 P   0  0  0  0  0  4  0  0  0  0  0  0
    2.0348    0.4925    0.6323 P   0  0  0  0  0  4  0  0  0  0  0  0
   -1.4467    0.7645   -0.7087 C   0  0  0  0  0  0  0  0  0  0  0  0
   -2.3682    0.8446   -1.3238 H   0  0  0  0  0  0  0  0  0  0  0  0
   -0.5673    0.7526   -1.3884 H   0  0  0  0  0  0  0  0  0  0  0  0
   -0.1946    1.8319    1.2427 C   0  0  0  0  0  0  0  0  0  0  0  0
   -0.1973    2.7081    1.9212 H   0  0  0  0  0  0  0  0  0  0  0  0
   -0.3201    0.9131    1.8525 H   0  0  0  0  0  0  0  0  0  0  0  0
   -1.3722    1.9568    0.2551 C   0  0  0  0  0  0  0  0  0  0  0  0
   -2.6562    2.1363    1.0619 C   0  0  0  0  0  0  0  0  0  0  0  0
   -3.2431    1.2698    1.9911 C   0  0  0  0  0  0  0  0  0  0  0  0
   -2.7716    0.3052    2.2303 H   0  0  0  0  0  0  0  0  0  0  0  0
   -4.4464    1.6545    2.6140 C   0  0  0  0  0  0  0  0  0  0  0  0
   -4.9218    0.9830    3.3450 H   0  0  0  0  0  0  0  0  0  0  0  0
   -5.0433    2.8922    2.3125 C   0  0  0  0  0  0  0  0  0  0  0  0
   -5.9832    3.1779    2.8090 H   0  0  0  0  0  0  0  0  0  0  0  0
   -4.4509    3.7694    1.3891 C   0  0  0  0  0  0  0  0  0  0  0  0
   -4.9204    4.7384    1.1609 H   0  0  0  0  0  0  0  0  0  0  0  0
   -3.2519    3.3898    0.7633 C   0  0  0  0  0  0  0  0  0  0  0  0
   -2.4192    4.0803   -0.2313 C   0  0  0  0  0  0  0  0  0  0  0  0
   -2.5701    5.3303   -0.8532 C   0  0  0  0  0  0  0  0  0  0  0  0
   -3.4237    5.9817   -0.6103 H   0  0  0  0  0  0  0  0  0  0  0  0
   -1.6128    5.7312   -1.7994 C   0  0  0  0  0  0  0  0  0  0  0  0
   -1.7174    6.7067   -2.2987 H   0  0  0  0  0  0  0  0  0  0  0  0
   -0.5282    4.8957   -2.1254 C   0  0  0  0  0  0  0  0  0  0  0  0
    0.2027    5.2209   -2.8811 H   0  0  0  0  0  0  0  0  0  0  0  0
   -0.3678    3.6416   -1.5063 C   0  0  0  0  0  0  0  0  0  0  0  0
    0.4670    2.9780   -1.7797 H   0  0  0  0  0  0  0  0  0  0  0  0
   -1.3142    3.2500   -0.5527 C   0  0  0  0  0  0  0  0  0  0  0  0
   -3.0422   -2.3209   -1.1583 C   0  0  0  0  0  0  0  0  0  0  0  0
   -4.1473   -1.7471   -0.4960 C   0  0  0  0  0  0  0  0  0  0  0  0
   -3.9885   -1.0077    0.3038 H   0  0  0  0  0  0  0  0  0  0  0  0
   -5.4479   -2.1022   -0.8826 C   0  0  0  0  0  0  0  0  0  0  0  0
   -6.3113   -1.6491   -0.3726 H   0  0  0  0  0  0  0  0  0  0  0  0
   -5.6462   -3.0230   -1.9241 C   0  0  0  0  0  0  0  0  0  0  0  0
   -6.6682   -3.2982   -2.2258 H   0  0  0  0  0  0  0  0  0  0  0  0
   -4.5443   -3.5850   -2.5906 C   0  0  0  0  0  0  0  0  0  0  0  0
   -4.7020   -4.2956   -3.4158 H   0  0  0  0  0  0  0  0  0  0  0  0
   -3.2407   -3.2340   -2.2139 C   0  0  0  0  0  0  0  0  0  0  0  0
   -2.3693   -3.6499   -2.7417 H   0  0  0  0  0  0  0  0  0  0  0  0
   -0.7862   -2.9697    0.6639 C   0  0  0  0  0  0  0  0  0  0  0  0
    0.4040   -3.7030    0.4845 C   0  0  0  0  0  0  0  0  0  0  0  0
    0.9847   -3.6214   -0.4503 H   0  0  0  0  0  0  0  0  0  0  0  0
    0.8760   -4.5073    1.5332 C   0  0  0  0  0  0  0  0  0  0  0  0
    1.8113   -5.0706    1.3971 H   0  0  0  0  0  0  0  0  0  0  0  0
    0.1715   -4.5810    2.7457 C   0  0  0  0  0  0  0  0  0  0  0  0
    0.5486   -5.2146    3.5633 H   0  0  0  0  0  0  0  0  0  0  0  0
   -1.0157   -3.8481    2.9188 C   0  0  0  0  0  0  0  0  0  0  0  0
   -1.5682   -3.9054    3.8688 H   0  0  0  0  0  0  0  0  0  0  0  0
   -1.4997   -3.0441    1.8776 C   0  0  0  0  0  0  0  0  0  0  0  0
   -2.4333   -2.4759    2.0101 H   0  0  0  0  0  0  0  0  0  0  0  0
    2.2504    0.1559    2.4032 C   0  0  0  0  0  0  0  0  0  0  0  0
    1.8396   -1.0942    2.9059 C   0  0  0  0  0  0  0  0  0  0  0  0
    1.4299   -1.8432    2.2134 H   0  0  0  0  0  0  0  0  0  0  0  0
    1.9599   -1.3635    4.2771 C   0  0  0  0  0  0  0  0  0  0  0  0
    1.6356   -2.3403    4.6668 H   0  0  0  0  0  0  0  0  0  0  0  0
    2.4914   -0.3936    5.1417 C   0  0  0  0  0  0  0  0  0  0  0  0
    2.5879   -0.6082    6.2170 H   0  0  0  0  0  0  0  0  0  0  0  0
    2.9050    0.8523    4.6381 C   0  0  0  0  0  0  0  0  0  0  0  0
    3.3255    1.6096    5.3168 H   0  0  0  0  0  0  0  0  0  0  0  0
    2.7844    1.1313    3.2702 C   0  0  0  0  0  0  0  0  0  0  0  0
    3.1128    2.1049    2.8743 H   0  0  0  0  0  0  0  0  0  0  0  0
    3.5518    1.1018   -0.1149 C   0  0  0  0  0  0  0  0  0  0  0  0
    4.3851    0.1581   -0.7513 C   0  0  0  0  0  0  0  0  0  0  0  0
    4.0819   -0.9001   -0.8288 H   0  0  0  0  0  0  0  0  0  0  0  0
    5.5849    0.5885   -1.3329 C   0  0  0  0  0  0  0  0  0  0  0  0
    6.2278   -0.1425   -1.8454 H   0  0  0  0  0  0  0  0  0  0  0  0
    5.9504    1.9431   -1.2820 C   0  0  0  0  0  0  0  0  0  0  0  0
    6.8915    2.2754   -1.7462 H   0  0  0  0  0  0  0  0  0  0  0  0
    5.1115    2.8802   -0.6561 C   0  0  0  0  0  0  0  0  0  0  0  0
    5.3905    3.9445   -0.6352 H   0  0  0  0  0  0  0  0  0  0  0  0
    3.9072    2.4650   -0.0722 C   0  0  0  0  0  0  0  0  0  0  0  0
    3.2260    3.1958    0.3876 H   0  0  0  0  0  0  0  0  0  0  0  0
  2  6  1  0  0  0  0
  2 10  1  0  0  0  0
  3  5  1  0  0  0  0
  4  6  1  0  0  0  0
  5  1  1  0  0  0  0
  5 45  1  0  0  0  0
  6 56  1  0  0  0  0
  7  1  1  0  0  0  0
  7 13  1  0  0  0  0
  8  7  1  0  0  0  0
  9  7  1  0  0  0  0
 10 12  1  0  0  0  0
 10 11  1  0  0  0  0
 13 14  1  0  0  0  0
 13 10  1  0  0  0  0
 14 15  1  0  0  0  0
 15 16  1  0  0  0  0
 15 17  2  0  0  0  0
 17 18  1  0  0  0  0
 19 17  1  0  0  0  0
 19 20  1  0  0  0  0
 21 19  2  0  0  0  0
 22 21  1  0  0  0  0
 23 14  2  0  0  0  0
 23 21  1  0  0  0  0
 24 23  1  0  0  0  0
 25 26  1  0  0  0  0
 25 24  2  0  0  0  0
 27 25  1  0  0  0  0
 28 27  1  0  0  0  0
 29 27  2  0  0  0  0
 29 31  1  0  0  0  0
 30 29  1  0  0  0  0
 31 33  2  0  0  0  0
 32 31  1  0  0  0  0
 33 24  1  0  0  0  0
 33 13  1  0  0  0  0
 34  5  1  0  0  0  0
 34 35  1  0  0  0  0
 35 36  1  0  0  0  0
 37 35  2  0  0  0  0
 37 38  1  0  0  0  0
 39 37  1  0  0  0  0
 40 39  1  0  0  0  0
 41 43  1  0  0  0  0
 41 39  2  0  0  0  0
 42 41  1  0  0  0  0
 43 34  2  0  0  0  0
 44 43  1  0  0  0  0
 45 54  1  0  0  0  0
 46 45  2  0  0  0  0
 46 48  1  0  0  0  0
 47 46  1  0  0  0  0
 48 50  2  0  0  0  0
 49 48  1  0  0  0  0
 50 52  1  0  0  0  0
 50 51  1  0  0  0  0
 52 53  1  0  0  0  0
 54 55  1  0  0  0  0
 54 52  2  0  0  0  0
 56 57  2  0  0  0  0
 56 65  1  0  0  0  0
 57 59  1  0  0  0  0
 58 57  1  0  0  0  0
 59 60  1  0  0  0  0
 59 61  2  0  0  0  0
 61 62  1  0  0  0  0
 63 61  1  0  0  0  0
 63 64  1  0  0  0  0
 65 63  2  0  0  0  0
 66 65  1  0  0  0  0
 67 76  1  0  0  0  0
 67  6  1  0  0  0  0
 68 67  2  0  0  0  0
 69 68  1  0  0  0  0
 70 72  2  0  0  0  0
 70 68  1  0  0  0  0
 71 70  1  0  0  0  0
 72 74  1  0  0  0  0
 73 72  1  0  0  0  0
 74 75  1  0  0  0  0
 74 76  2  0  0  0  0
 76 77  1  0  0  0  0
M  END
