3,4
q = -2.0, confidence = 0.932

 12 12  0  0  0  0  0  0  0  0999 V2000
    3.2285   -3.7747   -0.2449 Cl  0  0  0  0  0  0  0  0  0  0  0  0
    3.8007    1.8305    2.7922 Cl  0  0  0  0  0  0  0  0  0  0  0  0
    1.3645    0.6150    1.4906 O   0  0  0  0  0  0  0  0  0  0  0  0
    1.1227   -1.6884    0.3136 O   0  0  0  0  0  0  0  0  0  0  0  0
    5.7095   -2.6671    1.1049 O   0  0  0  0  0  0  0  0  0  0  0  0
    5.9413   -0.2714    2.4243 O   0  0  0  0  0  0  0  0  0  0  0  0
    2.4550   -0.1132    1.4696 C   0  0  0  0  0  0  0  0  0  0  0  0
    2.3224   -1.4318    0.7731 C   0  0  0  0  0  0  0  0  0  0  0  0
    3.4108   -2.2778    0.6367 C   0  0  0  0  0  0  0  0  0  0  0  0
    4.7146   -1.9559    1.2001 C   0  0  0  0  0  0  0  0  0  0  0  0
    4.8496   -0.5760    1.9578 C   0  0  0  0  0  0  0  0  0  0  0  0
    3.6626    0.2748    2.0300 C   0  0  0  0  0  0  0  0  0  0  0  0
  1  9  1  0  0  0  0
  4  8  1  0  0  0  0
  5 10  2  0  0  0  0
  7  3  1  0  0  0  0
  7 12  2  0  0  0  0
  8  7  1  0  0  0  0
  9  8  2  0  0  0  0
  9 10  1  0  0  0  0
 10 11  1  0  0  0  0
 11 12  1  0  0  0  0
 11  6  2  0  0  0  0
 12  2  1  0  0  0  0
M  END
