1,2
q = -1.0

 18 18  0  0  0  0  0  0  0  0999 V2000
    0.3960   -0.6804   -1.6882 O   0  5  0  0  0  0  0  0  0  0  0  0
   -0.3058   -1.9931   -0.0325 O   0  5  0  0  0  0  0  0  0  0  0  0
    6.4934   -1.8963    0.3307 O   0  0  0  0  0  0  0  0  0  0  0  0
    4.6414   -1.3014   -1.0370 C   0  0  0  0  0  0  0  0  0  0  0  0
    5.1878   -0.3893   -1.3188 H   0  0  0  0  0  0  0  0  0  0  0  0
    2.6458   -2.7203   -1.1555 C   0  0  0  0  0  0  0  0  0  0  0  0
    0.3479   -1.8148   -1.1074 C   0  0  0  0  0  3  0  0  0  0  0  0
    4.5664   -3.3827    0.2144 C   0  0  0  0  0  0  0  0  0  0  0  0
    5.0388   -4.1042    0.9024 H   0  0  0  0  0  0  0  0  0  0  0  0
    5.2540   -2.2129   -0.1542 C   0  0  0  0  0  0  0  0  0  0  0  0
    3.3561   -1.5550   -1.5231 C   0  0  0  0  0  0  0  0  0  0  0  0
    2.8617   -0.8267   -2.1835 H   0  0  0  0  0  0  0  0  0  0  0  0
    1.2276   -2.9415   -1.6483 C   0  0  0  0  0  0  0  0  0  0  0  0
    1.1960   -2.9150   -2.7563 H   0  0  0  0  0  0  0  0  0  0  0  0
    0.8424   -3.9161   -1.2966 H   0  0  0  0  0  0  0  0  0  0  0  0
    3.2740   -3.6246   -0.2801 C   0  0  0  0  0  0  0  0  0  0  0  0
    2.7424   -4.5388    0.0271 H   0  0  0  0  0  0  0  0  0  0  0  0
    6.8045   -2.6413    0.8778 H   0  0  0  0  0  0  0  0  0  0  0  0
  1  7  1  0  0  0  0
  3 18  1  0  0  0  0
  4 10  1  0  0  0  0
  5  4  1  0  0  0  0
  6 16  2  0  0  0  0
  7  2  1  0  0  0  0
  8  9  1  0  0  0  0
 10  8  2  0  0  0  0
 10  3  1  0  0  0  0
 11  6  1  0  0  0  0
 11  4  2  0  0  0  0
 12 11  1  0  0  0  0
 13 15  1  0  0  0  0
 13  6  1  0  0  0  0
 13  7  1  0  0  0  0
 14 13  1  0  0  0  0
 16 17  1  0  0  0  0
 16  8  1  0  0  0  0
M  CHG  2   1  -1   2  -1
M  END
