1,2
q = 0.0, confidence = 0.884

 16 16  0  0  0  0  0  0  0  0999 V2000
   -0.4886   -1.5619   -1.1789 O   0  5  0  0  0  0  0  0  0  0  0  0
   -1.1364   -0.1335    0.8786 O   0  5  0  0  0  0  0  0  0  0  0  0
   -3.7314    0.3743    1.6032 O   0  0  0  0  0  0  0  0  0  0  0  0
   -1.7665   -1.3824   -1.0057 C   0  0  0  0  0  0  0  0  0  0  0  0
   -2.7883   -2.0019   -1.7766 C   0  0  0  0  0  0  0  0  0  0  0  0
   -2.5084   -2.6213   -2.6395 H   0  0  0  0  0  0  0  0  0  0  0  0
   -4.1117   -1.7844   -1.4138 C   0  0  0  0  0  0  0  0  0  0  0  0
   -4.9151   -2.2383   -2.0143 H   0  0  0  0  0  0  0  0  0  0  0  0
   -4.4863   -0.9917   -0.2897 C   0  0  0  0  0  0  0  0  0  0  0  0
   -5.5522   -0.8590   -0.0641 H   0  0  0  0  0  0  0  0  0  0  0  0
   -3.5102   -0.3939    0.5115 C   0  0  0  0  0  0  0  0  0  0  0  0
   -2.1297   -0.5733    0.1513 C   0  0  0  0  0  0  0  0  0  0  0  0
   -5.0729    0.5979    1.9934 C   0  0  0  0  0  0  0  0  0  0  0  0
   -5.6500    1.1238    1.1996 H   0  0  0  0  0  0  0  0  0  0  0  0
   -5.0348    1.2345    2.8963 H   0  0  0  0  0  0  0  0  0  0  0  0
   -5.5939   -0.3546    2.2393 H   0  0  0  0  0  0  0  0  0  0  0  0
  1  4  1  0  0  0  0
  3 13  1  0  0  0  0
  4 12  1  0  0  0  0
  5  7  1  0  0  0  0
  5  4  2  0  0  0  0
  6  5  1  0  0  0  0
  7  9  2  0  0  0  0
  8  7  1  0  0  0  0
  9 10  1  0  0  0  0
  9 11  1  0  0  0  0
 11  3  1  0  0  0  0
 12 11  2  0  0  0  0
 12  2  1  0  0  0  0
 13 16  1  0  0  0  0
 13 15  1  0  0  0  0
 14 13  1  0  0  0  0
M  CHG  2   1  -1   2  -1
M  END
