22,42
q = 0.0, confidence = 0.976

 48 47  0  0  1  0  0  0  0  0999 V2000
    1.3536    0.5750    0.5809 N   0  0  0  0  0  0  0  0  0  0  0  0
   -1.3536   -0.5750    0.5809 N   0  0  0  0  0  0  0  0  0  0  0  0
    0.4944    0.5820    1.7751 C   0  0  0  0  0  0  0  0  0  0  0  0
   -0.0644    1.5393    1.7845 H   0  0  0  0  0  0  0  0  0  0  0  0
    1.0958    0.5655    2.7111 H   0  0  0  0  0  0  0  0  0  0  0  0
   -0.4943   -0.5821    1.7751 C   0  0  0  0  0  0  0  0  0  0  0  0
    0.0644   -1.5393    1.7844 H   0  0  0  0  0  0  0  0  0  0  0  0
   -1.0957   -0.5656    2.7111 H   0  0  0  0  0  0  0  0  0  0  0  0
    2.4032   -0.4426    0.5981 C   0  0  0  0  0  0  0  0  0  0  0  0
    2.8533   -0.4685   -0.4227 H   0  0  0  0  0  0  0  0  0  0  0  0
    1.9579   -1.4493    0.7194 H   0  0  0  0  0  0  0  0  0  0  0  0
    3.4775   -0.2365    1.6505 C   0  0  0  0  0  0  0  0  0  0  0  0
    3.5862    0.7324    2.3843 O   0  0  0  0  0  0  0  0  0  0  0  0
    4.3296   -1.2860    1.6651 O   0  0  0  0  0  0  0  0  0  0  0  0
    5.4165   -1.1881    2.5954 C   0  0  0  0  0  0  0  0  0  0  0  0
    6.0052   -2.1148    2.4775 H   0  0  0  0  0  0  0  0  0  0  0  0
    5.0399   -1.0971    3.6342 H   0  0  0  0  0  0  0  0  0  0  0  0
    6.0440   -0.3010    2.3757 H   0  0  0  0  0  0  0  0  0  0  0  0
    1.8558    1.8991    0.2154 C   0  0  0  0  0  0  0  0  0  0  0  0
    2.6308    1.7652   -0.5698 H   0  0  0  0  0  0  0  0  0  0  0  0
    2.3067    2.4598    1.0620 H   0  0  0  0  0  0  0  0  0  0  0  0
   -0.2960    2.2494   -0.8529 O   0  0  0  0  0  1  0  0  0  0  0  0
    0.7731    2.7115   -0.4585 C   0  0  2  0  0  3  0  0  0  0  0  0
    1.1191    3.9880   -0.6185 O   0  0  0  0  0  0  0  0  0  0  0  0
    0.2044    4.7920   -1.3882 C   0  0  0  0  0  0  0  0  0  0  0  0
    0.6752    5.7865   -1.4722 H   0  0  0  0  0  0  0  0  0  0  0  0
   -0.7747    4.8653   -0.8753 H   0  0  0  0  0  0  0  0  0  0  0  0
    0.0489    4.3415   -2.3879 H   0  0  0  0  0  0  0  0  0  0  0  0
   -2.4032    0.4426    0.5982 C   0  0  0  0  0  0  0  0  0  0  0  0
   -2.8533    0.4686   -0.4226 H   0  0  0  0  0  0  0  0  0  0  0  0
   -1.9579    1.4493    0.7195 H   0  0  0  0  0  0  0  0  0  0  0  0
   -3.5861   -0.7325    2.3843 O   0  0  0  0  0  0  0  0  0  0  0  0
   -3.4774    0.2364    1.6506 C   0  0  0  0  0  0  0  0  0  0  0  0
   -4.3296    1.2859    1.6651 O   0  0  0  0  0  0  0  0  0  0  0  0
   -5.4165    1.1879    2.5954 C   0  0  0  0  0  0  0  0  0  0  0  0
   -6.0053    2.1146    2.4776 H   0  0  0  0  0  0  0  0  0  0  0  0
   -5.0399    1.0969    3.6343 H   0  0  0  0  0  0  0  0  0  0  0  0
   -6.0440    0.3009    2.3756 H   0  0  0  0  0  0  0  0  0  0  0  0
   -1.8558   -1.8991    0.2154 C   0  0  0  0  0  0  0  0  0  0  0  0
   -2.6308   -1.7652   -0.5698 H   0  0  0  0  0  0  0  0  0  0  0  0
   -2.3066   -2.4598    1.0620 H   0  0  0  0  0  0  0  0  0  0  0  0
    0.2960   -2.2494   -0.8530 O   0  0  0  0  0  1  0  0  0  0  0  0
   -0.7731   -2.7115   -0.4586 C   0  0  2  0  0  3  0  0  0  0  0  0
   -1.1191   -3.9880   -0.6186 O   0  0  0  0  0  0  0  0  0  0  0  0
   -0.2045   -4.7919   -1.3883 C   0  0  0  0  0  0  0  0  0  0  0  0
   -0.6753   -5.7864   -1.4725 H   0  0  0  0  0  0  0  0  0  0  0  0
    0.7747   -4.8653   -0.8755 H   0  0  0  0  0  0  0  0  0  0  0  0
   -0.0489   -4.3415   -2.3881 H   0  0  0  0  0  0  0  0  0  0  0  0
  1  9  1  0  0  0  0
  1  3  1  0  0  0  0
  2 29  1  0  0  0  0
  2  6  1  0  0  0  0
  3  4  1  0  0  0  0
  3  5  1  0  0  0  0
  6  3  1  0  0  0  0
  6  7  1  0  0  0  0
  6  8  1  0  0  0  0
  9 11  1  0  0  0  0
  9 12  1  0  0  0  0
 10  9  1  0  0  0  0
 12 14  1  0  0  0  0
 12 13  2  0  0  0  0
 14 15  1  0  0  0  0
 15 17  1  0  0  0  0
 16 15  1  0  0  0  0
 18 15  1  0  0  0  0
 19  1  1  0  0  0  0
 19 21  1  0  0  0  0
 20 19  1  0  0  0  0
 23 22  1  6  0  0  0
 23 19  1  0  0  0  0
 24 23  1  0  0  0  0
 25 27  1  0  0  0  0
 25 24  1  0  0  0  0
 26 25  1  0  0  0  0
 28 25  1  0  0  0  0
 29 31  1  0  0  0  0
 29 33  1  0  0  0  0
 30 29  1  0  0  0  0
 33 34  1  0  0  0  0
 33 32  2  0  0  0  0
 34 35  1  0  0  0  0
 35 37  1  0  0  0  0
 36 35  1  0  0  0  0
 38 35  1  0  0  0  0
 39  2  1  0  0  0  0
 39 41  1  0  0  0  0
 40 39  1  0  0  0  0
 43 42  1  6  0  0  0
 43 39  1  0  0  0  0
 44 43  1  0  0  0  0
 45 47  1  0  0  0  0
 45 44  1  0  0  0  0
 46 45  1  0  0  0  0
 48 45  1  0  0  0  0
M  END
