1,2
q = -1.0

 18 19  0  0  0  0  0  0  0  0999 V2000
   -1.6437    0.9075    0.2606 O   0  5  0  0  0  0  0  0  0  0  0  0
   -1.0760   -1.5855    0.2833 O   0  5  0  0  0  0  0  0  0  0  0  0
   -5.6846   -2.6201   -0.4352 O   0  0  0  0  0  0  0  0  0  0  0  0
   -2.6501    0.1331    0.0910 C   0  0  0  0  0  0  0  0  0  0  0  0
   -2.3466   -1.3134    0.0986 C   0  0  0  0  0  0  0  0  0  0  0  0
   -3.3756   -2.2313   -0.0764 C   0  0  0  0  0  3  0  0  0  0  0  0
   -4.7538   -1.8148   -0.2715 C   0  0  0  0  0  0  0  0  0  0  0  0
   -5.0406   -0.3305   -0.2654 C   0  0  0  0  0  0  0  0  0  0  0  0
   -4.0043    0.6262   -0.0816 C   0  0  0  0  0  0  0  0  0  0  0  0
   -4.3022    2.0079   -0.0774 C   0  0  0  0  0  0  0  0  0  0  0  0
   -5.6227    2.4333   -0.2530 C   0  0  0  0  0  0  0  0  0  0  0  0
   -6.6504    1.4869   -0.4356 C   0  0  0  0  0  0  0  0  0  0  0  0
   -6.3582    0.1147   -0.4414 C   0  0  0  0  0  0  0  0  0  0  0  0
   -3.1682   -3.3106   -0.0586 H   0  0  0  0  0  0  0  0  0  0  0  0
   -7.1356   -0.6519   -0.5799 H   0  0  0  0  0  0  0  0  0  0  0  0
   -7.6882    1.8269   -0.5735 H   0  0  0  0  0  0  0  0  0  0  0  0
   -5.8585    3.5082   -0.2476 H   0  0  0  0  0  0  0  0  0  0  0  0
   -3.4829    2.7274    0.0673 H   0  0  0  0  0  0  0  0  0  0  0  0
  3  7  2  0  0  0  0
  4  5  2  0  0  0  0
  4  1  1  0  0  0  0
  5  2  1  0  0  0  0
  6 14  1  0  0  0  0
  6  5  1  0  0  0  0
  7  8  1  0  0  0  0
  7  6  1  0  0  0  0
  8  9  1  0  0  0  0
  9 10  2  0  0  0  0
  9  4  1  0  0  0  0
 10 18  1  0  0  0  0
 11 17  1  0  0  0  0
 11 10  1  0  0  0  0
 12 11  2  0  0  0  0
 13 12  1  0  0  0  0
 13  8  2  0  0  0  0
 15 13  1  0  0  0  0
 16 12  1  0  0  0  0
M  CHG  2   1  -1   2  -1
M  END
