2,3
q = -1.0

 14 13  0  0  1  0  0  0  0  0999 V2000
    4.7948   -2.0064   -0.0012 Br  0  0  0  0  0  0  0  0  0  0  0  0
    1.5970    0.2719   -1.1831 O   0  5  0  0  0  0  0  0  0  0  0  0
    0.9285   -1.3289    1.1847 O   0  0  0  0  0  1  0  0  0  0  0  0
    2.7253   -0.3193   -1.0264 C   0  0  0  0  0  0  0  0  0  0  0  0
    3.0163   -1.2620   -0.0001 C   0  0  0  0  0  0  0  0  0  0  0  0
    2.1415   -1.7172    1.0268 C   0  0  1  0  0  3  0  0  0  0  0  0
    3.7656    0.0670   -2.0484 C   0  0  0  0  0  0  0  0  0  0  0  0
    3.3256    0.8054   -2.7420 H   0  0  0  0  0  0  0  0  0  0  0  0
    4.1101   -0.8228   -2.6128 H   0  0  0  0  0  0  0  0  0  0  0  0
    4.6609    0.4963   -1.5552 H   0  0  0  0  0  0  0  0  0  0  0  0
    2.5975   -2.7301    2.0476 C   0  0  0  0  0  0  0  0  0  0  0  0
    1.7635   -2.9351    2.7421 H   0  0  0  0  0  0  0  0  0  0  0  0
    3.4739   -2.3516    2.6112 H   0  0  0  0  0  0  0  0  0  0  0  0
    2.9191   -3.6688    1.5534 H   0  0  0  0  0  0  0  0  0  0  0  0
  1  5  1  0  0  0  0
  2  4  1  0  0  0  0
  4  5  2  0  0  0  0
  5  6  1  0  0  0  0
  6  3  1  1  0  0  0
  6 11  1  0  0  0  0
  7 10  1  0  0  0  0
  7  4  1  0  0  0  0
  8  7  1  0  0  0  0
  9  7  1  0  0  0  0
 11 13  1  0  0  0  0
 11 12  1  0  0  0  0
 14 11  1  0  0  0  0
M  CHG  1   2  -1
M  END
