4,5
q = -3.0

 15 15  0  0  0  0  0  0  0  0999 V2000
   -2.0909   -0.8846   -1.5061 P   0  0  1  0  0  0  0  0  0  0  0  0
   -2.0909   -0.8830    1.5071 P   0  0  2  0  0  0  0  0  0  0  0  0
   -2.0944    1.7334   -0.0009 P   0  0  2  0  0  0  0  0  0  0  0  0
   -0.5119   -0.8753   -1.4745 O   0  0  0  0  0  1  0  0  0  0  0  0
   -0.5119   -0.8738    1.4753 O   0  0  0  0  0  1  0  0  0  0  0  0
   -0.5174    1.7171   -0.0008 O   0  0  0  0  0  1  0  0  0  0  0  0
   -2.8088   -1.5440   -2.6517 O   0  0  0  0  0  0  0  0  0  0  0  0
   -2.8086   -1.5411    2.6535 O   0  0  0  0  0  0  0  0  0  0  0  0
   -2.8327    3.0443   -0.0016 O   0  0  0  0  0  0  0  0  0  0  0  0
   -2.5327   -1.6071    0.0009 N   0  0  0  0  0  0  0  0  0  0  0  0
   -2.5244    0.7852    1.3806 N   0  0  0  0  0  0  0  0  0  0  0  0
   -2.5244    0.7837   -1.3814 N   0  0  0  0  0  0  0  0  0  0  0  0
   -3.4913   -1.9721    0.0011 H   0  0  0  0  0  0  0  0  0  0  0  0
   -3.4785    0.9721    1.7076 H   0  0  0  0  0  0  0  0  0  0  0  0
   -3.4785    0.9704   -1.7085 H   0  0  0  0  0  0  0  0  0  0  0  0
  1  7  2  6  0  0  0
  1  4  1  0  0  0  0
  1 12  1  0  0  0  0
  1 10  1  0  0  0  0
  2  5  1  1  0  0  0
  2  8  2  0  0  0  0
  3  9  2  6  0  0  0
  3  6  1  0  0  0  0
  3 11  1  0  0  0  0
 10 13  1  0  0  0  0
 10  2  1  0  0  0  0
 11  2  1  0  0  0  0
 11 14  1  0  0  0  0
 12  3  1  0  0  0  0
 15 12  1  0  0  0  0
M  END
