2,5
q = -1.0

 18 18  0  0  0  0  0  0  0  0999 V2000
    2.3057   -0.1800   -0.1374 C   0  0  0  0  0  3  0  0  0  0  0  0
    2.0014    0.6165    0.8076 O   0  5  0  0  0  0  0  0  0  0  0  0
    6.7728   -0.9278    2.0038 N   0  0  0  0  0  0  0  0  0  0  0  0
    3.6492   -0.8542   -0.1213 C   0  0  0  0  0  0  0  0  0  0  0  0
    1.5162   -0.4056   -1.1097 O   0  5  0  0  0  0  0  0  0  0  0  0
    5.6299   -3.3136   -2.1979 N   0  0  0  0  0  0  0  0  0  0  0  0
    3.9981   -1.7531   -1.1454 C   0  0  0  0  0  0  0  0  0  0  0  0
    3.2906   -1.9702   -1.9565 H   0  0  0  0  0  0  0  0  0  0  0  0
    4.8024   -3.5016   -3.0861 O   0  0  0  0  0  0  0  0  0  0  0  0
    5.2559   -2.3645   -1.1112 C   0  0  0  0  0  0  0  0  0  0  0  0
    6.7399   -3.8366   -2.1271 O   0  0  0  0  0  0  0  0  0  0  0  0
    6.1835   -2.1169   -0.0946 C   0  0  0  0  0  0  0  0  0  0  0  0
    7.1650   -2.6066   -0.0848 H   0  0  0  0  0  0  0  0  0  0  0  0
    7.8554   -1.5080    1.9651 O   0  0  0  0  0  0  0  0  0  0  0  0
    5.8063   -1.2181    0.9078 C   0  0  0  0  0  0  0  0  0  0  0  0
    6.4177   -0.1276    2.8663 O   0  0  0  0  0  0  0  0  0  0  0  0
    4.5595   -0.5837    0.9158 C   0  0  0  0  0  0  0  0  0  0  0  0
    4.2937    0.1160    1.7188 H   0  0  0  0  0  0  0  0  0  0  0  0
  1  4  1  0  0  0  0
  1  2  1  0  0  0  0
  3 16  2  0  0  0  0
  4 17  1  0  0  0  0
  5  1  1  0  0  0  0
  6 11  2  0  0  0  0
  6 10  1  0  0  0  0
  7 10  1  0  0  0  0
  7  4  2  0  0  0  0
  8  7  1  0  0  0  0
  9  6  2  0  0  0  0
 10 12  2  0  0  0  0
 12 13  1  0  0  0  0
 12 15  1  0  0  0  0
 14  3  2  0  0  0  0
 15 17  2  0  0  0  0
 15  3  1  0  0  0  0
 17 18  1  0  0  0  0
M  CHG  2   2  -1   5  -1
M  END
