1,2
q = -1.0, confidence = 0.006

 42 42  0  0  1  0  0  0  0  0999 V2000
   -1.3541    0.3307   -0.0207 O   0  0  0  0  0  1  0  0  0  0  0  0
    1.3740    0.3547   -0.1215 O   0  0  0  0  0  1  0  0  0  0  0  0
   -2.8999    1.8652    0.5689 N   0  0  0  0  0  0  0  0  0  0  0  0
   -3.0586    2.8466    0.7991 H   0  0  0  0  0  0  0  0  0  0  0  0
    2.9017    1.9007    0.4792 N   0  0  0  0  0  0  0  0  0  0  0  0
    3.0478    2.8761    0.7411 H   0  0  0  0  0  0  0  0  0  0  0  0
   -1.6475    1.5674    0.1332 C   0  0  2  0  0  3  0  0  0  0  0  0
    1.6470    1.5914    0.0601 C   0  0  1  0  0  3  0  0  0  0  0  0
   -0.7427    2.6648   -0.1283 C   0  0  0  0  0  0  0  0  0  0  0  0
    0.7156    2.6771   -0.1547 C   0  0  1  0  0  3  0  0  0  0  0  0
    1.1138    4.0255   -0.3820 C   0  0  0  0  0  0  0  0  0  0  0  0
    2.1495    4.3699   -0.5130 H   0  0  0  0  0  0  0  0  0  0  0  0
   -0.0369    4.8305   -0.5112 C   0  0  0  0  0  0  0  0  0  0  0  0
   -0.0495    5.9028   -0.7450 H   0  0  0  0  0  0  0  0  0  0  0  0
   -1.1687    4.0076   -0.3428 C   0  0  0  0  0  0  0  0  0  0  0  0
   -2.2132    4.3383   -0.4344 H   0  0  0  0  0  0  0  0  0  0  0  0
   -4.0575    0.9489    0.7010 C   0  0  0  0  0  0  0  0  0  0  0  0
   -5.2427    1.8404    1.1059 C   0  0  0  0  0  0  0  0  0  0  0  0
   -5.0448    2.3571    2.0682 H   0  0  0  0  0  0  0  0  0  0  0  0
   -6.1552    1.2274    1.2330 H   0  0  0  0  0  0  0  0  0  0  0  0
   -5.4514    2.6052    0.3293 H   0  0  0  0  0  0  0  0  0  0  0  0
   -3.7964   -0.1066    1.7935 C   0  0  0  0  0  0  0  0  0  0  0  0
   -2.9711   -0.7809    1.4974 H   0  0  0  0  0  0  0  0  0  0  0  0
   -4.7045   -0.7243    1.9427 H   0  0  0  0  0  0  0  0  0  0  0  0
   -3.5488    0.3821    2.7578 H   0  0  0  0  0  0  0  0  0  0  0  0
   -4.3576    0.2551   -0.6410 C   0  0  0  0  0  0  0  0  0  0  0  0
   -4.4785    1.0039   -1.4499 H   0  0  0  0  0  0  0  0  0  0  0  0
   -5.2995   -0.3230   -0.5602 H   0  0  0  0  0  0  0  0  0  0  0  0
   -3.5518   -0.4532   -0.9088 H   0  0  0  0  0  0  0  0  0  0  0  0
    4.0503    0.9780    0.6390 C   0  0  0  0  0  0  0  0  0  0  0  0
    3.7603   -0.0531    1.7484 C   0  0  0  0  0  0  0  0  0  0  0  0
    3.5135    0.4575    2.7017 H   0  0  0  0  0  0  0  0  0  0  0  0
    4.6542   -0.6865    1.9162 H   0  0  0  0  0  0  0  0  0  0  0  0
    2.9222   -0.7141    1.4583 H   0  0  0  0  0  0  0  0  0  0  0  0
    5.2389    1.8652    1.0427 C   0  0  0  0  0  0  0  0  0  0  0  0
    5.4650    2.6130    0.2547 H   0  0  0  0  0  0  0  0  0  0  0  0
    6.1433    1.2454    1.1934 H   0  0  0  0  0  0  0  0  0  0  0  0
    5.0346    2.4020    1.9927 H   0  0  0  0  0  0  0  0  0  0  0  0
    4.3600    0.2587   -0.6872 C   0  0  0  0  0  0  0  0  0  0  0  0
    3.5553   -0.4527   -0.9505 H   0  0  0  0  0  0  0  0  0  0  0  0
    5.3003   -0.3190   -0.5867 H   0  0  0  0  0  0  0  0  0  0  0  0
    4.4894    0.9925   -1.5083 H   0  0  0  0  0  0  0  0  0  0  0  0
  3 17  1  0  0  0  0
  3  4  1  0  0  0  0
  5 30  1  0  0  0  0
  5  6  1  0  0  0  0
  7  1  1  6  0  0  0
  7  3  1  0  0  0  0
  8  2  1  6  0  0  0
  8  5  1  0  0  0  0
  9  7  1  0  0  0  0
 10  9  1  0  0  0  0
 10  8  1  1  0  0  0
 11 10  1  0  0  0  0
 12 11  1  0  0  0  0
 13 11  2  0  0  0  0
 13 15  1  0  0  0  0
 14 13  1  0  0  0  0
 15  9  2  0  0  0  0
 16 15  1  0  0  0  0
 17 18  1  0  0  0  0
 17 22  1  0  0  0  0
 18 20  1  0  0  0  0
 18 19  1  0  0  0  0
 21 18  1  0  0  0  0
 22 24  1  0  0  0  0
 22 25  1  0  0  0  0
 23 22  1  0  0  0  0
 26 28  1  0  0  0  0
 26 17  1  0  0  0  0
 27 26  1  0  0  0  0
 29 26  1  0  0  0  0
 30 35  1  0  0  0  0
 30 31  1  0  0  0  0
 31 33  1  0  0  0  0
 31 32  1  0  0  0  0
 34 31  1  0  0  0  0
 35 37  1  0  0  0  0
 35 38  1  0  0  0  0
 36 35  1  0  0  0  0
 39 41  1  0  0  0  0
 39 30  1  0  0  0  0
 40 39  1  0  0  0  0
 42 39  1  0  0  0  0
M  END
