1,3
q = -1.0, confidence = 0.04

 26 26  0  0  1  0  0  0  0  0999 V2000
   -1.8981   -0.3361   -2.3328 O   0  5  0  0  0  0  0  0  0  0  0  0
   -3.8697   -1.4363   -2.5971 O   0  0  0  0  0  0  0  0  0  0  0  0
    0.9490   -1.5975    0.6170 O   0  0  0  0  0  1  0  0  0  0  0  0
    5.1137   -6.5806    3.2843 O   0  0  0  0  0  0  0  0  0  0  0  0
    5.2934   -7.3427    1.2425 O   0  0  0  0  0  0  0  0  0  0  0  0
   -0.9578   -2.3483   -1.0155 N   0  0  0  0  0  0  0  0  0  0  0  0
   -0.1798   -3.2822   -0.4235 N   0  0  0  0  0  0  0  0  0  0  0  0
   -0.2585   -4.2810   -0.6505 H   0  0  0  0  0  0  0  0  0  0  0  0
    4.8150   -6.5937    2.0914 N   0  0  0  0  0  0  0  0  0  0  0  0
    0.8532   -2.8081    0.3454 C   0  0  1  0  0  3  0  0  0  0  0  0
    1.8516   -3.8169    0.8001 C   0  0  0  0  0  0  0  0  0  0  0  0
    2.2450   -3.8426    2.1542 C   0  0  0  0  0  0  0  0  0  0  0  0
    1.7832   -3.1418    2.8646 H   0  0  0  0  0  0  0  0  0  0  0  0
    3.2091   -4.7589    2.5833 C   0  0  0  0  0  0  0  0  0  0  0  0
    3.5337   -4.8250    3.6301 H   0  0  0  0  0  0  0  0  0  0  0  0
    3.7834   -5.6196    1.6376 C   0  0  0  0  0  0  0  0  0  0  0  0
    3.4363   -5.5865    0.2822 C   0  0  0  0  0  0  0  0  0  0  0  0
    3.9480   -6.2593   -0.4186 H   0  0  0  0  0  0  0  0  0  0  0  0
    2.4588   -4.6772   -0.1409 C   0  0  0  0  0  0  0  0  0  0  0  0
    2.2309   -4.5717   -1.2134 H   0  0  0  0  0  0  0  0  0  0  0  0
   -1.9970   -2.6317   -1.7306 C   0  0  0  0  0  0  0  0  0  0  0  0
   -2.5640   -3.9843   -2.0003 C   0  0  0  0  0  0  0  0  0  0  0  0
   -2.0305   -4.4662   -2.8487 H   0  0  0  0  0  0  0  0  0  0  0  0
   -3.6216   -3.8518   -2.2975 H   0  0  0  0  0  0  0  0  0  0  0  0
   -2.5059   -4.6607   -1.1222 H   0  0  0  0  0  0  0  0  0  0  0  0
   -2.6729   -1.3681   -2.2934 C   0  0  0  0  0  0  0  0  0  0  0  0
  1 26  1  0  0  0  0
  2 26  2  0  0  0  0
  5  9  2  0  0  0  0
  6  7  1  0  0  0  0
  7 10  1  0  0  0  0
  8  7  1  0  0  0  0
  9  4  2  0  0  0  0
 10  3  1  6  0  0  0
 10 11  1  0  0  0  0
 11 12  1  0  0  0  0
 12 14  2  0  0  0  0
 12 13  1  0  0  0  0
 14 15  1  0  0  0  0
 16  9  1  0  0  0  0
 16 14  1  0  0  0  0
 17 16  2  0  0  0  0
 18 17  1  0  0  0  0
 19 17  1  0  0  0  0
 19 11  2  0  0  0  0
 20 19  1  0  0  0  0
 21  6  2  0  0  0  0
 22 21  1  0  0  0  0
 22 25  1  0  0  0  0
 23 22  1  0  0  0  0
 24 22  1  0  0  0  0
 26 21  1  0  0  0  0
M  CHG  1   1  -1
M  END
