1,2
q = 0.0, confidence = 0.934

 16 16  0  0  0  0  0  0  0  0999 V2000
   -0.3570   -1.7102   -0.3370 O   0  0  0  0  0  1  0  0  0  0  0  0
   -0.2852    0.5583   -1.7689 O   0  0  0  0  0  1  0  0  0  0  0  0
   -1.5928   -1.8570   -0.5886 C   0  0  0  0  0  3  0  0  0  0  0  0
   -2.5963   -0.8369   -0.4691 C   0  0  0  0  0  0  0  0  0  0  0  0
   -3.9462   -1.2398   -0.2756 C   0  0  0  0  0  0  0  0  0  0  0  0
   -4.9089   -0.3343    0.1627 C   0  0  0  0  0  0  0  0  0  0  0  0
   -4.5357    1.0040    0.4313 C   0  0  0  0  0  0  0  0  0  0  0  0
   -3.2266    1.4297    0.2001 C   0  0  0  0  0  0  0  0  0  0  0  0
   -2.2432    0.5476   -0.3093 C   0  0  0  0  0  0  0  0  0  0  0  0
   -0.9528    1.0746   -0.7524 C   0  0  0  0  0  3  0  0  0  0  0  0
   -1.9375   -2.8997   -0.7778 H   0  0  0  0  0  0  0  0  0  0  0  0
   -4.2084   -2.2997   -0.4257 H   0  0  0  0  0  0  0  0  0  0  0  0
   -5.9470   -0.6618    0.3215 H   0  0  0  0  0  0  0  0  0  0  0  0
   -5.2896    1.7214    0.7904 H   0  0  0  0  0  0  0  0  0  0  0  0
   -2.9560    2.4875    0.3496 H   0  0  0  0  0  0  0  0  0  0  0  0
   -0.7893    2.1526   -0.5006 H   0  0  0  0  0  0  0  0  0  0  0  0
  2 10  1  0  0  0  0
  3  4  1  0  0  0  0
  3  1  1  0  0  0  0
  4  9  2  0  0  0  0
  4  5  1  0  0  0  0
  5  6  2  0  0  0  0
  6 13  1  0  0  0  0
  6  7  1  0  0  0  0
  7 14  1  0  0  0  0
  8 15  1  0  0  0  0
  8  7  2  0  0  0  0
  9  8  1  0  0  0  0
 10 16  1  0  0  0  0
 10  9  1  0  0  0  0
 11  3  1  0  0  0  0
 12  5  1  0  0  0  0
M  END
