2,3
q = -1.0

 20 21  0  0  0  0  0  0  0  0999 V2000
   -3.7199    0.2895   -1.3995 N   0  0  0  0  0  0  0  0  0  0  0  0
   -0.3737   -0.4546   -1.8858 O   0  5  0  0  0  0  0  0  0  0  0  0
   -1.7840   -1.5697   -0.5618 O   0  5  0  0  0  0  0  0  0  0  0  0
   -5.0240    0.1208   -1.5073 N   0  0  0  0  0  0  0  0  0  0  0  0
   -2.7363   -0.2352   -2.3344 C   0  0  0  0  0  0  0  0  0  0  0  0
   -2.4023    0.5592   -3.0288 H   0  0  0  0  0  0  0  0  0  0  0  0
   -3.2386   -1.0351   -2.9107 H   0  0  0  0  0  0  0  0  0  0  0  0
   -7.2391    1.5270    1.0509 N   0  0  0  0  0  0  0  0  0  0  0  0
   -4.4729    1.3194    0.3105 N   0  0  0  0  0  0  0  0  0  0  0  0
   -6.9191    0.8820   -0.0862 C   0  0  0  0  0  0  0  0  0  0  0  0
   -5.4907    0.7764   -0.4247 C   0  0  0  0  0  0  0  0  0  0  0  0
   -1.5402   -0.8040   -1.5557 C   0  0  0  0  0  3  0  0  0  0  0  0
   -9.2090    0.4107   -0.6371 N   0  0  0  0  0  0  0  0  0  0  0  0
   -7.9062    0.3238   -0.9302 C   0  0  0  0  0  0  0  0  0  0  0  0
   -7.6225   -0.2002   -1.8592 H   0  0  0  0  0  0  0  0  0  0  0  0
   -3.3710    1.0096   -0.3188 N   0  0  0  0  0  0  0  0  0  0  0  0
   -9.5276    1.0555    0.4954 C   0  0  0  0  0  0  0  0  0  0  0  0
  -10.5992    1.1353    0.7489 H   0  0  0  0  0  0  0  0  0  0  0  0
   -8.5430    1.6122    1.3359 C   0  0  0  0  0  0  0  0  0  0  0  0
   -8.8235    2.1397    2.2644 H   0  0  0  0  0  0  0  0  0  0  0  0
  1 16  1  0  0  0  0
  2 12  1  0  0  0  0
  4  1  1  0  0  0  0
  4 11  2  0  0  0  0
  5 12  1  0  0  0  0
  5  1  1  0  0  0  0
  6  5  1  0  0  0  0
  7  5  1  0  0  0  0
  8 19  1  0  0  0  0
 10  8  2  0  0  0  0
 11 10  1  0  0  0  0
 11  9  1  0  0  0  0
 12  3  1  0  0  0  0
 13 17  1  0  0  0  0
 14 13  2  0  0  0  0
 14 10  1  0  0  0  0
 15 14  1  0  0  0  0
 16  9  2  0  0  0  0
 17 18  1  0  0  0  0
 17 19  2  0  0  0  0
 19 20  1  0  0  0  0
M  CHG  2   2  -1   3  -1
M  END
