2,3
q = -1.0

 28 30  0  0  1  0  0  0  0  0999 V2000
    3.4295    1.0185   -0.0133 O   0  0  0  0  0  0  0  0  0  0  0  0
   -0.2440   -0.7474   -0.3896 O   0  5  0  0  0  0  0  0  0  0  0  0
   -1.3434    1.8897   -0.3181 O   0  0  0  0  0  1  0  0  0  0  0  0
    1.8058    5.4237    0.0491 O   0  0  0  0  0  0  0  0  0  0  0  0
    0.8621   -0.1133   -0.2774 C   0  0  0  0  0  0  0  0  0  0  0  0
    2.0737   -0.8966   -0.3254 C   0  0  0  0  0  0  0  0  0  0  0  0
    3.3083   -0.3211   -0.1650 C   0  0  0  0  0  0  0  0  0  0  0  0
    2.3314    1.8459   -0.0384 C   0  0  0  0  0  0  0  0  0  0  0  0
    1.0110    1.3104   -0.1352 C   0  0  0  0  0  0  0  0  0  0  0  0
   -0.0995    2.2446   -0.1883 C   0  0  1  0  0  3  0  0  0  0  0  0
    0.2018    3.6309   -0.1415 C   0  0  0  0  0  0  0  0  0  0  0  0
    1.5173    4.0995   -0.0224 C   0  0  0  0  0  0  0  0  0  0  0  0
    2.6090    3.2071    0.0320 C   0  0  0  0  0  0  0  0  0  0  0  0
    4.6037   -1.0243   -0.1358 C   0  0  0  0  0  0  0  0  0  0  0  0
    5.8106   -0.2890   -0.0920 C   0  0  0  0  0  0  0  0  0  0  0  0
    7.0454   -0.9493   -0.0713 C   0  0  0  0  0  0  0  0  0  0  0  0
    7.0994   -2.3516   -0.0917 C   0  0  0  0  0  0  0  0  0  0  0  0
    5.9055   -3.0916   -0.1306 C   0  0  0  0  0  0  0  0  0  0  0  0
    4.6697   -2.4368   -0.1511 C   0  0  0  0  0  0  0  0  0  0  0  0
    1.9665   -1.9797   -0.4529 H   0  0  0  0  0  0  0  0  0  0  0  0
   -0.6458    4.3324   -0.1767 H   0  0  0  0  0  0  0  0  0  0  0  0
    0.9665    5.9196    0.0093 H   0  0  0  0  0  0  0  0  0  0  0  0
    3.6384    3.5734    0.1192 H   0  0  0  0  0  0  0  0  0  0  0  0
    5.7673    0.8082   -0.0765 H   0  0  0  0  0  0  0  0  0  0  0  0
    7.9752   -0.3617   -0.0388 H   0  0  0  0  0  0  0  0  0  0  0  0
    8.0702   -2.8693   -0.0741 H   0  0  0  0  0  0  0  0  0  0  0  0
    5.9376   -4.1914   -0.1399 H   0  0  0  0  0  0  0  0  0  0  0  0
    3.7459   -3.0321   -0.1681 H   0  0  0  0  0  0  0  0  0  0  0  0
  2  5  1  0  0  0  0
  5  9  2  0  0  0  0
  6  5  1  0  0  0  0
  6  7  2  0  0  0  0
  7 14  1  0  0  0  0
  7  1  1  0  0  0  0
  8  1  1  0  0  0  0
  8 13  2  0  0  0  0
  9  8  1  0  0  0  0
 10  3  1  6  0  0  0
 10 11  1  0  0  0  0
 10  9  1  0  0  0  0
 11 12  2  0  0  0  0
 12 13  1  0  0  0  0
 12  4  1  0  0  0  0
 13 23  1  0  0  0  0
 14 15  1  0  0  0  0
 15 24  1  0  0  0  0
 15 16  2  0  0  0  0
 16 25  1  0  0  0  0
 17 26  1  0  0  0  0
 17 16  1  0  0  0  0
 18 17  2  0  0  0  0
 19 14  2  0  0  0  0
 19 18  1  0  0  0  0
 20  6  1  0  0  0  0
 21 11  1  0  0  0  0
 22  4  1  0  0  0  0
 27 18  1  0  0  0  0
 28 19  1  0  0  0  0
M  CHG  1   2  -1
M  END
