1,3
q = -1.0, confidence = 0.004

 20 20  0  0  1  0  0  0  0  0999 V2000
    0.5301    1.4512   -1.3915 O   0  5  0  0  0  0  0  0  0  0  0  0
    1.9976    3.1466   -1.1683 O   0  0  0  0  0  0  0  0  0  0  0  0
    1.1166   -0.1427    0.8889 O   0  0  0  0  0  1  0  0  0  0  0  0
    2.3595    0.0284    0.4903 N   0  0  0  0  0  0  0  0  0  0  0  0
    1.6507    1.9818   -1.0035 C   0  0  0  0  0  0  0  0  0  0  0  0
    2.6981    1.0461   -0.3760 C   0  0  1  0  0  3  0  0  0  0  0  0
    4.0467    1.2392   -0.6972 C   0  0  0  0  0  0  0  0  0  0  0  0
    5.0344    0.3945   -0.1857 C   0  0  0  0  0  0  0  0  0  0  0  0
    4.6475   -0.6495    0.6663 C   0  0  0  0  0  0  0  0  0  0  0  0
    3.3067   -0.8378    1.0099 C   0  0  0  0  0  0  0  0  0  0  0  0
    2.7999   -1.9525    1.8745 C   0  0  0  0  0  0  0  0  0  0  0  0
    2.1175   -3.0698    1.0628 C   0  0  0  0  0  0  0  0  0  0  0  0
    4.2729    2.0905   -1.3538 H   0  0  0  0  0  0  0  0  0  0  0  0
    6.0925    0.5456   -0.4429 H   0  0  0  0  0  0  0  0  0  0  0  0
    5.3872   -1.3449    1.0881 H   0  0  0  0  0  0  0  0  0  0  0  0
    3.6596   -2.3596    2.4434 H   0  0  0  0  0  0  0  0  0  0  0  0
    2.0777   -1.5300    2.6019 H   0  0  0  0  0  0  0  0  0  0  0  0
    2.8306   -3.5408    0.3573 H   0  0  0  0  0  0  0  0  0  0  0  0
    1.7391   -3.8579    1.7429 H   0  0  0  0  0  0  0  0  0  0  0  0
    1.2582   -2.6846    0.4801 H   0  0  0  0  0  0  0  0  0  0  0  0
  1  5  1  0  0  0  0
  2  5  2  0  0  0  0
  4  3  1  0  0  0  0
  4 10  1  0  0  0  0
  6  5  1  1  0  0  0
  6  4  1  0  0  0  0
  7  6  1  0  0  0  0
  7  8  2  0  0  0  0
  8  9  1  0  0  0  0
  9 10  2  0  0  0  0
  9 15  1  0  0  0  0
 10 11  1  0  0  0  0
 11 16  1  0  0  0  0
 11 17  1  0  0  0  0
 12 19  1  0  0  0  0
 12 11  1  0  0  0  0
 13  7  1  0  0  0  0
 14  8  1  0  0  0  0
 18 12  1  0  0  0  0
 20 12  1  0  0  0  0
M  CHG  1   1  -1
M  END
