1,2
q = -1.0, confidence = 0.006

 25 27  0  0  0  0  0  0  0  0999 V2000
    1.3721   -1.4434   -0.0005 O   0  5  0  0  0  0  0  0  0  0  0  0
    1.3701    1.4453   -0.0006 O   0  5  0  0  0  0  0  0  0  0  0  0
    2.6496   -1.2691   -0.0007 C   0  0  0  0  0  0  0  0  0  0  0  0
    3.3453    0.0020   -0.0006 C   0  0  0  0  0  0  0  0  0  0  0  0
    2.6482    1.2725   -0.0008 C   0  0  0  0  0  0  0  0  0  0  0  0
    3.4330    2.4890   -0.0011 C   0  0  0  0  0  0  0  0  0  0  0  0
    4.8030    2.4673   -0.0013 C   0  0  0  0  0  3  0  0  0  0  0  0
    5.5279    1.2289   -0.0008 C   0  0  0  0  0  0  0  0  0  0  0  0
    6.9409    1.2039   -0.0010 C   0  0  0  0  0  0  0  0  0  0  0  0
    7.6703    0.0039   -0.0006 C   0  0  0  0  0  0  0  0  0  0  0  0
    6.9403   -1.1990   -0.0009 C   0  0  0  0  0  0  0  0  0  0  0  0
    5.5297   -1.2246   -0.0008 C   0  0  0  0  0  0  0  0  0  0  0  0
    4.8046   -2.4639   -0.0012 C   0  0  0  0  0  0  0  0  0  0  0  0
    3.4352   -2.4859   -0.0010 C   0  0  0  0  0  0  0  0  0  0  0  0
    4.7859    0.0025   -0.0006 C   0  0  0  0  0  0  0  0  0  0  0  0
    9.1784   -0.0068    0.0040 C   0  0  0  0  0  0  0  0  0  0  0  0
    2.8643    3.4296   -0.0013 H   0  0  0  0  0  0  0  0  0  0  0  0
    5.3710    3.4111   -0.0017 H   0  0  0  0  0  0  0  0  0  0  0  0
    7.4797    2.1654   -0.0017 H   0  0  0  0  0  0  0  0  0  0  0  0
    7.4788   -2.1610   -0.0016 H   0  0  0  0  0  0  0  0  0  0  0  0
    5.3730   -3.4076   -0.0015 H   0  0  0  0  0  0  0  0  0  0  0  0
    2.8665   -3.4265   -0.0011 H   0  0  0  0  0  0  0  0  0  0  0  0
    9.5813   -0.5749   -0.8600 H   0  0  0  0  0  0  0  0  0  0  0  0
    9.5936    1.0183   -0.0414 H   0  0  0  0  0  0  0  0  0  0  0  0
    9.5754   -0.4916    0.9204 H   0  0  0  0  0  0  0  0  0  0  0  0
  3  4  1  0  0  0  0
  3  1  1  0  0  0  0
  4 15  2  0  0  0  0
  5  4  1  0  0  0  0
  5  2  1  0  0  0  0
  6  5  2  0  0  0  0
  7  6  1  0  0  0  0
  7  8  1  0  0  0  0
  8 15  1  0  0  0  0
  9  8  2  0  0  0  0
  9 10  1  0  0  0  0
 10 16  1  0  0  0  0
 11 12  1  0  0  0  0
 11 10  2  0  0  0  0
 12 15  1  0  0  0  0
 13 14  1  0  0  0  0
 13 12  2  0  0  0  0
 14  3  2  0  0  0  0
 16 25  1  0  0  0  0
 17  6  1  0  0  0  0
 18  7  1  0  0  0  0
 19  9  1  0  0  0  0
 20 11  1  0  0  0  0
 21 13  1  0  0  0  0
 22 14  1  0  0  0  0
 23 16  1  0  0  0  0
 24 16  1  0  0  0  0
M  CHG  2   1  -1   2  -1
M  END
