2,3
q = -1.0, confidence = 0.024

 29 30  0  0  0  0  0  0  0  0999 V2000
    3.7018   -1.3190   -1.0105 N   0  0  0  0  0  0  0  0  0  0  0  0
    0.4135    1.0520   -2.0139 O   0  5  0  0  0  0  0  0  0  0  0  0
    1.7459    0.3042   -0.4110 O   0  5  0  0  0  0  0  0  0  0  0  0
    1.4403    0.3821   -1.6674 C   0  0  0  0  0  3  0  0  0  0  0  0
    2.2989   -0.2718   -2.6904 C   0  0  0  0  0  0  0  0  0  0  0  0
    2.0009   -0.0357   -4.0489 C   0  0  0  0  0  0  0  0  0  0  0  0
    2.7868   -0.5615   -5.0760 C   0  0  0  0  0  0  0  0  0  0  0  0
    3.9173   -1.3281   -4.7356 C   0  0  0  0  0  0  0  0  0  0  0  0
    4.2354   -1.5916   -3.4018 C   0  0  0  0  0  0  0  0  0  0  0  0
    3.4262   -1.0962   -2.3443 C   0  0  0  0  0  0  0  0  0  0  0  0
    4.5457   -2.2396   -0.3921 C   0  0  0  0  0  0  0  0  0  0  0  0
    4.9032   -3.4770   -0.9746 C   0  0  0  0  0  0  0  0  0  0  0  0
    5.7325   -4.3689   -0.2858 C   0  0  0  0  0  0  0  0  0  0  0  0
    6.2093   -4.0614    0.9939 C   0  0  0  0  0  0  0  0  0  0  0  0
    5.8298   -2.8408    1.5772 C   0  0  0  0  0  0  0  0  0  0  0  0
    5.0070   -1.9047    0.9207 C   0  0  0  0  0  0  0  0  0  0  0  0
    4.6078   -0.5906    1.5351 C   0  0  0  0  0  0  0  0  0  0  0  0
    4.8275    0.2463    0.8387 H   0  0  0  0  0  0  0  0  0  0  0  0
    5.1427   -0.4167    2.4849 H   0  0  0  0  0  0  0  0  0  0  0  0
    3.5169   -0.5500    1.7464 H   0  0  0  0  0  0  0  0  0  0  0  0
    6.4336   -2.5011    3.1925 Cl  0  0  0  0  0  0  0  0  0  0  0  0
    3.0758   -0.7486   -0.4026 H   0  0  0  0  0  0  0  0  0  0  0  0
    1.1213    0.5890   -4.2616 H   0  0  0  0  0  0  0  0  0  0  0  0
    2.5353   -0.3688   -6.1290 H   0  0  0  0  0  0  0  0  0  0  0  0
    4.5726   -1.7250   -5.5268 H   0  0  0  0  0  0  0  0  0  0  0  0
    5.1405   -2.1642   -3.1641 H   0  0  0  0  0  0  0  0  0  0  0  0
    4.4931   -3.7561   -1.9531 H   0  0  0  0  0  0  0  0  0  0  0  0
    5.9978   -5.3317   -0.7481 H   0  0  0  0  0  0  0  0  0  0  0  0
    6.8566   -4.7521    1.5502 H   0  0  0  0  0  0  0  0  0  0  0  0
  1 22  1  0  0  0  0
  1 11  1  0  0  0  0
  2  4  1  0  0  0  0
  4  3  1  0  0  0  0
  5 10  1  0  0  0  0
  5  4  1  0  0  0  0
  6  5  2  0  0  0  0
  7  8  2  0  0  0  0
  7  6  1  0  0  0  0
  8  9  1  0  0  0  0
  9 26  1  0  0  0  0
  9 10  2  0  0  0  0
 10  1  1  0  0  0  0
 11 16  1  0  0  0  0
 12 11  2  0  0  0  0
 12 13  1  0  0  0  0
 13 14  2  0  0  0  0
 14 29  1  0  0  0  0
 14 15  1  0  0  0  0
 15 21  1  0  0  0  0
 16 17  1  0  0  0  0
 16 15  2  0  0  0  0
 17 20  1  0  0  0  0
 17 19  1  0  0  0  0
 18 17  1  0  0  0  0
 23  6  1  0  0  0  0
 24  7  1  0  0  0  0
 25  8  1  0  0  0  0
 27 12  1  0  0  0  0
 28 13  1  0  0  0  0
M  CHG  2   2  -1   3  -1
M  END
