1,3
q = -2.0, confidence = 0.828

 25 25  0  0  0  0  0  0  0  0999 V2000
   -0.0873   -1.5311    0.5273 O   0  5  0  0  0  0  0  0  0  0  0  0
   -0.7668   -3.5985   -0.0213 O   0  0  0  0  0  0  0  0  0  0  0  0
   -0.1191    0.0545   -2.1013 O   0  5  0  0  0  0  0  0  0  0  0  0
   -0.3313   -1.7156   -3.4638 O   0  0  0  0  0  0  0  0  0  0  0  0
   -0.7479   -2.3798   -0.2174 C   0  0  0  0  0  0  0  0  0  0  0  0
   -1.5797   -1.7508   -1.3842 C   0  0  0  0  0  0  0  0  0  0  0  0
   -2.1479   -0.9112   -0.9281 H   0  0  0  0  0  0  0  0  0  0  0  0
   -0.6179   -1.1112   -2.4219 C   0  0  0  0  0  0  0  0  0  0  0  0
   -2.5454   -2.7274   -2.0569 C   0  0  0  0  0  0  0  0  0  0  0  0
   -1.9462   -3.4587   -2.6346 H   0  0  0  0  0  0  0  0  0  0  0  0
   -3.1333   -2.1558   -2.8077 H   0  0  0  0  0  0  0  0  0  0  0  0
   -3.5003   -3.4911   -1.1138 C   0  0  0  0  0  0  0  0  0  0  0  0
   -4.2630   -4.0080   -1.7351 H   0  0  0  0  0  0  0  0  0  0  0  0
   -2.9068   -4.2617   -0.5891 H   0  0  0  0  0  0  0  0  0  0  0  0
   -4.2031   -2.6359   -0.0847 C   0  0  0  0  0  0  0  0  0  0  0  0
   -3.7595   -2.6181    1.2566 C   0  0  0  0  0  0  0  0  0  0  0  0
   -2.8825   -3.2269    1.5265 H   0  0  0  0  0  0  0  0  0  0  0  0
   -4.4224   -1.8510    2.2280 C   0  0  0  0  0  0  0  0  0  0  0  0
   -4.0705   -1.8707    3.2718 H   0  0  0  0  0  0  0  0  0  0  0  0
   -5.5401   -1.0746    1.8764 C   0  0  0  0  0  0  0  0  0  0  0  0
   -6.0784   -0.4936    2.6424 H   0  0  0  0  0  0  0  0  0  0  0  0
   -5.9765   -1.0608    0.5403 C   0  0  0  0  0  0  0  0  0  0  0  0
   -6.8510   -0.4563    0.2522 H   0  0  0  0  0  0  0  0  0  0  0  0
   -5.3130   -1.8330   -0.4253 C   0  0  0  0  0  0  0  0  0  0  0  0
   -5.6711   -1.8291   -1.4676 H   0  0  0  0  0  0  0  0  0  0  0  0
  4  8  2  0  0  0  0
  5  2  2  0  0  0  0
  5  1  1  0  0  0  0
  6  7  1  0  0  0  0
  6  5  1  0  0  0  0
  8  3  1  0  0  0  0
  8  6  1  0  0  0  0
  9  6  1  0  0  0  0
  9 12  1  0  0  0  0
 10  9  1  0  0  0  0
 11  9  1  0  0  0  0
 12 14  1  0  0  0  0
 12 15  1  0  0  0  0
 13 12  1  0  0  0  0
 15 16  1  0  0  0  0
 16 17  1  0  0  0  0
 16 18  2  0  0  0  0
 18 19  1  0  0  0  0
 20 18  1  0  0  0  0
 20 21  1  0  0  0  0
 22 20  2  0  0  0  0
 23 22  1  0  0  0  0
 24 15  2  0  0  0  0
 24 22  1  0  0  0  0
 25 24  1  0  0  0  0
M  CHG  2   1  -1   3  -1
M  END
