2,3
q = -1.0, confidence = 0.01

 21 21  0  0  1  0  0  0  0  0999 V2000
   -7.2848   -0.6117    0.7178 Cl  0  0  0  0  0  0  0  0  0  0  0  0
   -0.6679   -0.6855   -0.0077 O   0  5  0  0  0  0  0  0  0  0  0  0
    1.4794    1.1523   -0.6753 O   0  0  0  0  0  1  0  0  0  0  0  0
    0.4739    1.9372   -0.6919 C   0  0  2  0  0  3  0  0  0  0  0  0
    1.6295    3.7827    0.2333 F   0  0  0  0  0  0  0  0  0  0  0  0
   -0.1417    4.2529   -0.9581 F   0  0  0  0  0  0  0  0  0  0  0  0
    1.6827    3.5675   -1.9385 F   0  0  0  0  0  0  0  0  0  0  0  0
   -1.3840    0.3622   -0.1782 C   0  0  0  0  0  0  0  0  0  0  0  0
    0.9064    3.4058   -0.8533 C   0  0  0  0  0  0  0  0  0  0  0  0
   -0.8817    1.6449   -0.5265 C   0  0  0  0  0  0  0  0  0  0  0  0
   -1.5841    2.4770   -0.6344 H   0  0  0  0  0  0  0  0  0  0  0  0
   -2.8460    0.1668    0.0467 C   0  0  0  0  0  0  0  0  0  0  0  0
   -3.3540   -1.1519    0.0653 C   0  0  0  0  0  0  0  0  0  0  0  0
   -2.6527   -1.9825   -0.0951 H   0  0  0  0  0  0  0  0  0  0  0  0
   -5.1079    1.0054    0.4550 C   0  0  0  0  0  0  0  0  0  0  0  0
   -5.8042    1.8396    0.6174 H   0  0  0  0  0  0  0  0  0  0  0  0
   -4.7142   -1.3993    0.2663 C   0  0  0  0  0  0  0  0  0  0  0  0
   -5.1097   -2.4246    0.2687 H   0  0  0  0  0  0  0  0  0  0  0  0
   -3.7447    1.2380    0.2450 C   0  0  0  0  0  0  0  0  0  0  0  0
   -3.3804    2.2748    0.2581 H   0  0  0  0  0  0  0  0  0  0  0  0
   -5.5882   -0.3154    0.4623 C   0  0  0  0  0  0  0  0  0  0  0  0
  4  3  1  1  0  0  0
  4 10  1  0  0  0  0
  6  9  1  0  0  0  0
  7  9  1  0  0  0  0
  8  2  1  0  0  0  0
  8 12  1  0  0  0  0
  9  4  1  0  0  0  0
  9  5  1  0  0  0  0
 10  8  2  0  0  0  0
 11 10  1  0  0  0  0
 12 13  2  0  0  0  0
 12 19  1  0  0  0  0
 13 17  1  0  0  0  0
 14 13  1  0  0  0  0
 15 21  1  0  0  0  0
 15 16  1  0  0  0  0
 17 18  1  0  0  0  0
 17 21  2  0  0  0  0
 19 20  1  0  0  0  0
 19 15  2  0  0  0  0
 21  1  1  0  0  0  0
M  CHG  1   2  -1
M  END
