2,4
q = -1.0

 33 33  0  0  1  0  0  0  0  0999 V2000
    1.8328   -2.9825    3.0932 F   0  0  0  0  0  0  0  0  0  0  0  0
    1.5683   -1.2254    1.0414 O   0  5  0  0  0  0  0  0  0  0  0  0
    0.0436   -2.1742    4.0515 F   0  0  0  0  0  0  0  0  0  0  0  0
   -0.6592   -0.5376   -0.6854 O   0  0  0  0  0  1  0  0  0  0  0  0
    1.8075   -0.9114    3.7892 F   0  0  0  0  0  0  0  0  0  0  0  0
    0.5775   -1.4160    1.8344 C   0  0  0  0  0  0  0  0  0  0  0  0
   -2.8183   -0.6720    0.2168 C   0  0  0  0  0  0  0  0  0  0  0  0
   -5.6387   -0.3363   -0.1472 C   0  0  0  0  0  0  0  0  0  0  0  0
   -7.1563   -0.1779   -0.3063 C   0  0  0  0  0  0  0  0  0  0  0  0
   -3.7391   -1.1556    1.1774 C   0  0  0  0  0  0  0  0  0  0  0  0
   -3.3884   -1.6874    2.0728 H   0  0  0  0  0  0  0  0  0  0  0  0
   -3.3365   -0.0226   -0.9271 C   0  0  0  0  0  0  0  0  0  0  0  0
   -2.6358    0.3596   -1.6829 H   0  0  0  0  0  0  0  0  0  0  0  0
   -0.7839   -1.2259    1.6077 C   0  0  0  0  0  0  0  0  0  0  0  0
   -1.4540   -1.4350    2.4473 H   0  0  0  0  0  0  0  0  0  0  0  0
   -4.7133    0.1444   -1.0996 C   0  0  0  0  0  0  0  0  0  0  0  0
   -5.0719    0.6627   -1.9985 H   0  0  0  0  0  0  0  0  0  0  0  0
    1.0604   -1.8868    3.2194 C   0  0  0  0  0  0  0  0  0  0  0  0
   -5.1118   -0.9919    0.9913 C   0  0  0  0  0  0  0  0  0  0  0  0
   -5.7952   -1.3906    1.7551 H   0  0  0  0  0  0  0  0  0  0  0  0
   -1.3524   -0.8164    0.3653 C   0  0  2  0  0  3  0  0  0  0  0  0
   -7.7077    0.6160    0.9016 C   0  0  0  0  0  0  0  0  0  0  0  0
   -7.5103    0.1027    1.8633 H   0  0  0  0  0  0  0  0  0  0  0  0
   -8.8058    0.7356    0.8061 H   0  0  0  0  0  0  0  0  0  0  0  0
   -7.2560    1.6270    0.9548 H   0  0  0  0  0  0  0  0  0  0  0  0
   -7.5317    0.5692   -1.5974 C   0  0  0  0  0  0  0  0  0  0  0  0
   -7.1131    1.5957   -1.6196 H   0  0  0  0  0  0  0  0  0  0  0  0
   -8.6335    0.6609   -1.6669 H   0  0  0  0  0  0  0  0  0  0  0  0
   -7.1881    0.0311   -2.5037 H   0  0  0  0  0  0  0  0  0  0  0  0
   -7.8029   -1.5832   -0.3432 C   0  0  0  0  0  0  0  0  0  0  0  0
   -7.4202   -2.1765   -1.1978 H   0  0  0  0  0  0  0  0  0  0  0  0
   -8.9022   -1.4910   -0.4540 H   0  0  0  0  0  0  0  0  0  0  0  0
   -7.6072   -2.1561    0.5846 H   0  0  0  0  0  0  0  0  0  0  0  0
  1 18  1  0  0  0  0
  2  6  1  0  0  0  0
  6 18  1  0  0  0  0
  7 21  1  0  0  0  0
  7 10  1  0  0  0  0
  8 19  1  0  0  0  0
  9  8  1  0  0  0  0
  9 22  1  0  0  0  0
 10 11  1  0  0  0  0
 12  7  2  0  0  0  0
 13 12  1  0  0  0  0
 14  6  2  0  0  0  0
 14 15  1  0  0  0  0
 16 12  1  0  0  0  0
 16  8  2  0  0  0  0
 17 16  1  0  0  0  0
 18  5  1  0  0  0  0
 18  3  1  0  0  0  0
 19 10  2  0  0  0  0
 19 20  1  0  0  0  0
 21  4  1  1  0  0  0
 21 14  1  0  0  0  0
 22 25  1  0  0  0  0
 22 23  1  0  0  0  0
 24 22  1  0  0  0  0
 26  9  1  0  0  0  0
 27 26  1  0  0  0  0
 28 26  1  0  0  0  0
 29 26  1  0  0  0  0
 30  9  1  0  0  0  0
 30 33  1  0  0  0  0
 31 30  1  0  0  0  0
 32 30  1  0  0  0  0
M  CHG  1   2  -1
M  END
