1,3
q = -2.0, confidence = 0.782

 16 16  0  0  0  0  0  0  0  0999 V2000
    0.4000    0.8639    1.2366 O   0  5  0  0  0  0  0  0  0  0  0  0
    2.2763    0.4903    2.4113 O   0  0  0  0  0  0  0  0  0  0  0  0
    0.3507    0.8194   -1.3252 O   0  5  0  0  0  0  0  0  0  0  0  0
   -0.2435    2.9589   -1.6859 O   0  0  0  0  0  0  0  0  0  0  0  0
    1.6875    1.0496    1.4868 C   0  0  0  0  0  0  0  0  0  0  0  0
    2.4008    2.0320    0.5856 C   0  0  0  0  0  0  0  0  0  0  0  0
    3.6664    2.4787    1.0165 C   0  0  0  0  0  0  0  0  0  0  0  0
    4.3833    3.4377    0.2932 C   0  0  0  0  0  0  0  0  0  0  0  0
    3.8281    3.9798   -0.8782 C   0  0  0  0  0  0  0  0  0  0  0  0
    2.5711    3.5469   -1.3176 C   0  0  0  0  0  0  0  0  0  0  0  0
    1.8534    2.5581   -0.6145 C   0  0  0  0  0  0  0  0  0  0  0  0
    0.5364    2.1335   -1.2268 C   0  0  0  0  0  0  0  0  0  0  0  0
    4.0564    2.0475    1.9504 H   0  0  0  0  0  0  0  0  0  0  0  0
    5.3702    3.7732    0.6472 H   0  0  0  0  0  0  0  0  0  0  0  0
    4.3754    4.7453   -1.4497 H   0  0  0  0  0  0  0  0  0  0  0  0
    2.1156    3.9680   -2.2262 H   0  0  0  0  0  0  0  0  0  0  0  0
  1  5  1  0  0  0  0
  3 12  1  0  0  0  0
  4 12  2  0  0  0  0
  5  2  2  0  0  0  0
  6  7  1  0  0  0  0
  6  5  1  0  0  0  0
  7 13  1  0  0  0  0
  8 14  1  0  0  0  0
  8  7  2  0  0  0  0
  9  8  1  0  0  0  0
 10  9  2  0  0  0  0
 10 11  1  0  0  0  0
 11  6  2  0  0  0  0
 12 11  1  0  0  0  0
 15  9  1  0  0  0  0
 16 10  1  0  0  0  0
M  CHG  2   1  -1   3  -1
M  END
