1,2
q = -1.0

 21 21  0  0  0  0  0  0  0  0999 V2000
   -1.5533    0.4005    0.7770 O   0  5  0  0  0  0  0  0  0  0  0  0
   -1.2201   -1.1618   -1.4460 O   0  5  0  0  0  0  0  0  0  0  0  0
   -4.8800    0.5519   -0.6428 N   0  0  0  0  0  0  0  0  0  0  0  0
   -2.5579    0.2117   -0.0294 C   0  0  0  0  0  0  0  0  0  0  0  0
   -2.3758   -0.6241   -1.2259 C   0  0  0  0  0  0  0  0  0  0  0  0
   -3.5052   -0.8061   -2.0670 C   0  0  0  0  0  0  0  0  0  0  0  0
   -3.4093   -1.4254   -2.9695 H   0  0  0  0  0  0  0  0  0  0  0  0
   -4.7221   -0.2185   -1.7568 C   0  0  0  0  0  3  0  0  0  0  0  0
   -5.6137   -0.3435   -2.3857 H   0  0  0  0  0  0  0  0  0  0  0  0
   -3.8204    0.7915    0.2207 C   0  0  0  0  0  0  0  0  0  0  0  0
   -6.1884    1.1462   -0.3748 C   0  0  0  0  0  0  0  0  0  0  0  0
   -6.9100    0.7755   -1.1238 H   0  0  0  0  0  0  0  0  0  0  0  0
   -6.1460    2.2521   -0.4401 H   0  0  0  0  0  0  0  0  0  0  0  0
   -6.5497    0.8664    0.6339 H   0  0  0  0  0  0  0  0  0  0  0  0
   -4.0024    1.5974    1.4768 C   0  0  0  0  0  0  0  0  0  0  0  0
   -4.7675    2.3902    1.3509 H   0  0  0  0  0  0  0  0  0  0  0  0
   -3.0339    2.1069    1.6544 H   0  0  0  0  0  0  0  0  0  0  0  0
   -4.3218    0.7250    2.7037 C   0  0  0  0  0  0  0  0  0  0  0  0
   -4.3924    1.3396    3.6242 H   0  0  0  0  0  0  0  0  0  0  0  0
   -3.5182   -0.0235    2.8472 H   0  0  0  0  0  0  0  0  0  0  0  0
   -5.2798    0.1768    2.5862 H   0  0  0  0  0  0  0  0  0  0  0  0
  2  5  1  0  0  0  0
  3 11  1  0  0  0  0
  3 10  1  0  0  0  0
  4 10  2  0  0  0  0
  4  1  1  0  0  0  0
  5  4  1  0  0  0  0
  6  8  1  0  0  0  0
  6  5  2  0  0  0  0
  7  6  1  0  0  0  0
  8  3  1  0  0  0  0
  9  8  1  0  0  0  0
 10 15  1  0  0  0  0
 11 14  1  0  0  0  0
 12 11  1  0  0  0  0
 13 11  1  0  0  0  0
 15 17  1  0  0  0  0
 15 18  1  0  0  0  0
 16 15  1  0  0  0  0
 18 20  1  0  0  0  0
 18 19  1  0  0  0  0
 21 18  1  0  0  0  0
M  CHG  2   1  -1   2  -1
M  END
