1,2
q = -1.0

 16 15  0  0  1  0  0  0  0  0999 V2000
    0.7381   -0.8420   -1.1103 O   0  5  0  0  0  0  0  0  0  0  0  0
    0.7370    0.8461    1.1075 O   0  0  0  0  0  1  0  0  0  0  0  0
    2.0031   -0.7908   -0.9892 C   0  0  0  0  0  0  0  0  0  0  0  0
    2.6743    0.0021   -0.0004 C   0  0  0  0  0  0  0  0  0  0  0  0
    2.0021    0.7954    0.9873 C   0  0  2  0  0  3  0  0  0  0  0  0
    2.7406   -1.6139   -2.0183 C   0  0  0  0  0  0  0  0  0  0  0  0
    2.7385    1.6202    2.0159 C   0  0  0  0  0  0  0  0  0  0  0  0
    4.1348    0.0019    0.0004 N   0  0  0  0  0  0  0  0  0  0  0  0
    4.7191   -1.0558   -0.2656 O   0  0  0  0  0  0  0  0  0  0  0  0
    4.7193    1.0594    0.2668 O   0  0  0  0  0  0  0  0  0  0  0  0
    3.6209   -1.0892   -2.4329 H   0  0  0  0  0  0  0  0  0  0  0  0
    2.0231   -1.8682   -2.8192 H   0  0  0  0  0  0  0  0  0  0  0  0
    3.1235   -2.5412   -1.5497 H   0  0  0  0  0  0  0  0  0  0  0  0
    3.6179    1.0959    2.4326 H   0  0  0  0  0  0  0  0  0  0  0  0
    2.0199    1.8762    2.8153 H   0  0  0  0  0  0  0  0  0  0  0  0
    3.1224    2.5465    1.5462 H   0  0  0  0  0  0  0  0  0  0  0  0
  1  3  1  0  0  0  0
  3  4  2  0  0  0  0
  4  8  1  0  0  0  0
  4  5  1  0  0  0  0
  5  2  1  1  0  0  0
  5  7  1  0  0  0  0
  6 13  1  0  0  0  0
  6  3  1  0  0  0  0
  7 14  1  0  0  0  0
  7 15  1  0  0  0  0
  8 10  2  0  0  0  0
  9  8  2  0  0  0  0
 11  6  1  0  0  0  0
 12  6  1  0  0  0  0
 16  7  1  0  0  0  0
M  CHG  1   1  -1
M  END
