1,2
q = -2.0, confidence = 0.61

 16 16  0  0  0  0  0  0  0  0999 V2000
   -0.6498   -0.4023    0.4864 O   0  5  0  0  0  0  0  0  0  0  0  0
   -0.5268    0.3082   -1.8848 O   0  5  0  0  0  0  0  0  0  0  0  0
   -3.9581   -1.3924   -1.9198 O   0  0  0  0  0  0  0  0  0  0  0  0
   -1.6506   -0.3649   -1.5637 N   0  0  0  0  0  0  0  0  0  0  0  0
   -1.6425   -0.7301   -0.2661 C   0  0  0  0  0  0  0  0  0  0  0  0
   -2.8154   -1.4665    0.2278 C   0  0  0  0  0  0  0  0  0  0  0  0
   -2.8525   -1.8865    1.5761 C   0  0  0  0  0  0  0  0  0  0  0  0
   -3.9509   -2.5784    2.0885 C   0  0  0  0  0  0  0  0  0  0  0  0
   -5.0422   -2.8588    1.2393 C   0  0  0  0  0  0  0  0  0  0  0  0
   -5.0320   -2.4550   -0.0972 C   0  0  0  0  0  0  0  0  0  0  0  0
   -3.9243   -1.7557   -0.6344 C   0  0  0  0  0  0  0  0  0  0  0  0
   -1.9788   -1.6507    2.2018 H   0  0  0  0  0  0  0  0  0  0  0  0
   -3.9646   -2.9039    3.1390 H   0  0  0  0  0  0  0  0  0  0  0  0
   -5.9152   -3.4049    1.6300 H   0  0  0  0  0  0  0  0  0  0  0  0
   -5.8754   -2.6687   -0.7697 H   0  0  0  0  0  0  0  0  0  0  0  0
   -3.0801   -0.9054   -2.1139 H   0  0  0  0  0  0  0  0  0  0  0  0
  2  4  1  0  0  0  0
  3 11  1  0  0  0  0
  4  5  2  0  0  0  0
  5  6  1  0  0  0  0
  5  1  1  0  0  0  0
  6  7  1  0  0  0  0
  7  8  2  0  0  0  0
  7 12  1  0  0  0  0
  8 13  1  0  0  0  0
  9 14  1  0  0  0  0
  9  8  1  0  0  0  0
 10  9  2  0  0  0  0
 11 10  1  0  0  0  0
 11  6  2  0  0  0  0
 15 10  1  0  0  0  0
 16  3  1  0  0  0  0
M  CHG  2   1  -1   2  -1
M  END
