1,2
q = -1.0

 24 24  0  0  1  0  0  0  0  0999 V2000
   -0.6922    1.0725    0.2218 O   0  5  0  0  0  0  0  0  0  0  0  0
    0.1852   -1.3352   -0.4976 O   0  5  0  0  0  0  0  0  0  0  0  0
   -3.8181   -0.7716    0.1875 N   0  0  0  0  0  0  0  0  0  0  0  0
   -1.5725    0.1075    0.1114 C   0  0  0  0  0  0  0  0  0  0  0  0
   -2.9461    0.2999    0.3486 C   0  0  2  0  0  3  0  0  0  0  0  0
   -3.3728   -1.9956   -0.2159 C   0  0  0  0  0  0  0  0  0  0  0  0
   -4.1415   -2.7742   -0.3143 H   0  0  0  0  0  0  0  0  0  0  0  0
   -2.0332   -2.2397   -0.4718 C   0  0  0  0  0  0  0  0  0  0  0  0
   -1.6987   -3.2396   -0.7785 H   0  0  0  0  0  0  0  0  0  0  0  0
   -1.0856   -1.1987   -0.2976 C   0  0  0  0  0  0  0  0  0  0  0  0
   -3.4459    1.6315    0.8162 C   0  0  0  0  0  0  0  0  0  0  0  0
   -3.8675    1.5869    1.8439 H   0  0  0  0  0  0  0  0  0  0  0  0
   -4.2217    2.0688    0.1528 H   0  0  0  0  0  0  0  0  0  0  0  0
   -2.5808    2.3189    0.8404 H   0  0  0  0  0  0  0  0  0  0  0  0
   -5.2656   -0.5833    0.3522 C   0  0  0  0  0  0  0  0  0  0  0  0
   -5.4384    0.1442    1.1681 H   0  0  0  0  0  0  0  0  0  0  0  0
   -5.6902   -1.5485    0.6951 H   0  0  0  0  0  0  0  0  0  0  0  0
   -5.9662   -0.1273   -0.9325 C   0  0  0  0  0  0  0  0  0  0  0  0
   -5.5008    0.8176   -1.2847 H   0  0  0  0  0  0  0  0  0  0  0  0
   -5.7710   -0.8793   -1.7270 H   0  0  0  0  0  0  0  0  0  0  0  0
   -7.4692    0.0635   -0.7339 C   0  0  0  0  0  0  0  0  0  0  0  0
   -7.9589   -0.8766   -0.4045 H   0  0  0  0  0  0  0  0  0  0  0  0
   -7.9613    0.3840   -1.6730 H   0  0  0  0  0  0  0  0  0  0  0  0
   -7.6823    0.8352    0.0348 H   0  0  0  0  0  0  0  0  0  0  0  0
  2 10  1  0  0  0  0
  3  5  1  0  0  0  0
  3 15  1  0  0  0  0
  4  1  1  0  0  0  0
  4  5  1  0  0  0  0
  5 11  1  1  0  0  0
  6  3  1  0  0  0  0
  7  6  1  0  0  0  0
  8 10  1  0  0  0  0
  8  6  2  0  0  0  0
  9  8  1  0  0  0  0
 10  4  2  0  0  0  0
 11 14  1  0  0  0  0
 11 12  1  0  0  0  0
 13 11  1  0  0  0  0
 15 17  1  0  0  0  0
 15 16  1  0  0  0  0
 18 21  1  0  0  0  0
 18 15  1  0  0  0  0
 19 18  1  0  0  0  0
 20 18  1  0  0  0  0
 21 22  1  0  0  0  0
 21 24  1  0  0  0  0
 23 21  1  0  0  0  0
M  CHG  2   1  -1   2  -1
M  END
