1,2
q = -1.0

 40 43  0  0  0  0  0  0  0  0999 V2000
    2.4963    1.6790   -0.8097 O   0  5  0  0  0  0  0  0  0  0  0  0
    0.1675    0.3058    0.1950 O   0  5  0  0  0  0  0  0  0  0  0  0
    1.6441    2.6494   -0.9223 C   0  0  0  0  0  0  0  0  0  0  0  0
    2.1636    3.8885   -1.4308 C   0  0  0  0  0  0  0  0  0  0  0  0
    3.2343    3.9028   -1.6799 H   0  0  0  0  0  0  0  0  0  0  0  0
    1.3728    5.0119   -1.5818 C   0  0  0  0  0  0  0  0  0  0  0  0
    1.8185    5.9450   -1.9609 H   0  0  0  0  0  0  0  0  0  0  0  0
   -0.0043    4.9724   -1.2401 C   0  0  0  0  0  0  0  0  0  0  0  0
   -0.6302    5.8710   -1.3357 H   0  0  0  0  0  0  0  0  0  0  0  0
   -0.5505    3.7864   -0.7825 C   0  0  0  0  0  0  0  0  0  0  0  0
   -1.6132    3.7792   -0.5071 H   0  0  0  0  0  0  0  0  0  0  0  0
    0.2201    2.5897   -0.6156 C   0  0  0  0  0  0  0  0  0  0  0  0
   -0.4369    1.3708   -0.1827 C   0  0  0  0  0  0  0  0  0  0  0  0
   -1.9062    1.2714   -0.2056 C   0  0  0  0  0  0  0  0  0  0  0  0
   -2.4807    2.1226   -0.5879 H   0  0  0  0  0  0  0  0  0  0  0  0
   -2.5504    0.1154    0.1305 C   0  0  0  0  0  3  0  0  0  0  0  0
   -1.8911   -0.7264    0.3973 H   0  0  0  0  0  0  0  0  0  0  0  0
   -3.9832   -0.1539    0.1007 C   0  0  0  0  0  0  0  0  0  0  0  0
   -4.9569    0.8290    0.4815 C   0  0  0  0  0  0  0  0  0  0  0  0
   -4.6138    2.0903    1.0697 C   0  0  0  0  0  0  0  0  0  0  0  0
   -3.5608    2.3094    1.2875 H   0  0  0  0  0  0  0  0  0  0  0  0
   -5.5817    3.0190    1.4095 C   0  0  0  0  0  0  0  0  0  0  0  0
   -5.2813    3.9715    1.8717 H   0  0  0  0  0  0  0  0  0  0  0  0
   -6.9631    2.7477    1.1882 C   0  0  0  0  0  0  0  0  0  0  0  0
   -7.7200    3.5014    1.4522 H   0  0  0  0  0  0  0  0  0  0  0  0
   -7.3441    1.5244    0.6752 C   0  0  0  0  0  0  0  0  0  0  0  0
   -8.4085    1.2810    0.5337 H   0  0  0  0  0  0  0  0  0  0  0  0
   -6.3710    0.5300    0.3307 C   0  0  0  0  0  0  0  0  0  0  0  0
   -6.7692   -0.7367   -0.1322 C   0  0  0  0  0  0  0  0  0  0  0  0
   -7.8437   -0.9511   -0.2469 H   0  0  0  0  0  0  0  0  0  0  0  0
   -5.8348   -1.7418   -0.4385 C   0  0  0  0  0  0  0  0  0  0  0  0
   -6.2615   -3.0371   -0.8790 C   0  0  0  0  0  0  0  0  0  0  0  0
   -7.3427   -3.2303   -0.9564 H   0  0  0  0  0  0  0  0  0  0  0  0
   -5.3454   -4.0187   -1.1991 C   0  0  0  0  0  0  0  0  0  0  0  0
   -5.6851   -5.0105   -1.5330 H   0  0  0  0  0  0  0  0  0  0  0  0
   -3.9509   -3.7405   -1.1031 C   0  0  0  0  0  0  0  0  0  0  0  0
   -3.2203   -4.5212   -1.3635 H   0  0  0  0  0  0  0  0  0  0  0  0
   -3.5037   -2.4973   -0.6924 C   0  0  0  0  0  0  0  0  0  0  0  0
   -2.4225   -2.3122   -0.6532 H   0  0  0  0  0  0  0  0  0  0  0  0
   -4.4167   -1.4549   -0.3267 C   0  0  0  0  0  0  0  0  0  0  0  0
  3  1  1  0  0  0  0
  3 12  1  0  0  0  0
  4  3  2  0  0  0  0
  5  4  1  0  0  0  0
  6  4  1  0  0  0  0
  6  8  2  0  0  0  0
  7  6  1  0  0  0  0
  8 10  1  0  0  0  0
  9  8  1  0  0  0  0
 10 12  2  0  0  0  0
 10 11  1  0  0  0  0
 12 13  1  0  0  0  0
 13  2  1  0  0  0  0
 14 13  2  0  0  0  0
 14 16  1  0  0  0  0
 15 14  1  0  0  0  0
 16 17  1  0  0  0  0
 18 16  1  0  0  0  0
 18 19  1  0  0  0  0
 19 20  1  0  0  0  0
 20 21  1  0  0  0  0
 20 22  2  0  0  0  0
 22 23  1  0  0  0  0
 24 22  1  0  0  0  0
 24 25  1  0  0  0  0
 26 24  2  0  0  0  0
 27 26  1  0  0  0  0
 28 19  2  0  0  0  0
 28 26  1  0  0  0  0
 29 28  1  0  0  0  0
 30 29  1  0  0  0  0
 31 40  1  0  0  0  0
 31 29  2  0  0  0  0
 32 31  1  0  0  0  0
 33 32  1  0  0  0  0
 34 36  1  0  0  0  0
 34 32  2  0  0  0  0
 35 34  1  0  0  0  0
 36 38  2  0  0  0  0
 37 36  1  0  0  0  0
 38 39  1  0  0  0  0
 38 40  1  0  0  0  0
 40 18  2  0  0  0  0
M  CHG  2   1  -1   2  -1
M  END
