2,3
q = -1.0

 14 13  0  0  1  0  0  0  0  0999 V2000
   -2.0589    3.8962   -1.0604 Cl  0  0  0  0  0  0  0  0  0  0  0  0
    0.0506    1.6526    1.4095 O   0  5  0  0  0  0  0  0  0  0  0  0
    0.7447    1.1348   -1.3373 O   0  0  0  0  0  1  0  0  0  0  0  0
   -0.1708    2.5703   -2.9696 C   0  0  0  0  0  0  0  0  0  0  0  0
   -0.0364    3.6683   -3.0346 H   0  0  0  0  0  0  0  0  0  0  0  0
   -1.1798    2.3582   -3.3807 H   0  0  0  0  0  0  0  0  0  0  0  0
    0.5909    2.0524   -3.5789 H   0  0  0  0  0  0  0  0  0  0  0  0
   -0.0818    2.0972   -1.5448 C   0  0  1  0  0  3  0  0  0  0  0  0
   -0.8817    2.6983   -0.5333 C   0  0  0  0  0  0  0  0  0  0  0  0
   -0.7091    2.5391    0.8686 C   0  0  0  0  0  0  0  0  0  0  0  0
   -1.4301    3.4428    1.8313 C   0  0  0  0  0  0  0  0  0  0  0  0
   -1.1187    3.2089    2.8647 H   0  0  0  0  0  0  0  0  0  0  0  0
   -2.5276    3.3100    1.7337 H   0  0  0  0  0  0  0  0  0  0  0  0
   -1.2300    4.5086    1.6021 H   0  0  0  0  0  0  0  0  0  0  0  0
  1  9  1  0  0  0  0
  4  8  1  0  0  0  0
  5  4  1  0  0  0  0
  6  4  1  0  0  0  0
  7  4  1  0  0  0  0
  8  3  1  6  0  0  0
  8  9  1  0  0  0  0
  9 10  2  0  0  0  0
 10  2  1  0  0  0  0
 10 11  1  0  0  0  0
 11 12  1  0  0  0  0
 13 11  1  0  0  0  0
 14 11  1  0  0  0  0
M  CHG  1   2  -1
M  END
