1,32
q = 0.0, confidence = 0.9

 62 63  0  0  1  0  0  0  0  0999 V2000
   -0.9647    0.7775   -0.9934 O   0  0  0  0  0  1  0  0  0  0  0  0
    0.2127    0.5093   -0.5041 C   0  0  1  0  0  3  0  0  0  0  0  0
    1.3771    1.3466   -0.9130 C   0  0  0  0  0  0  0  0  0  0  0  0
    2.4240    0.8198   -1.7126 C   0  0  0  0  0  0  0  0  0  0  0  0
    3.4942    1.6651   -2.0658 C   0  0  0  0  0  0  0  0  0  0  0  0
    4.3108    1.2698   -2.6891 H   0  0  0  0  0  0  0  0  0  0  0  0
    3.5291    2.9998   -1.6477 C   0  0  0  0  0  0  0  0  0  0  0  0
    4.3733    3.6459   -1.9335 H   0  0  0  0  0  0  0  0  0  0  0  0
    2.4877    3.5128   -0.8622 C   0  0  0  0  0  0  0  0  0  0  0  0
    2.5250    4.5619   -0.5324 H   0  0  0  0  0  0  0  0  0  0  0  0
    1.4041    2.7042   -0.4796 C   0  0  0  0  0  0  0  0  0  0  0  0
    0.2705    3.2800    0.3655 C   0  0  0  0  0  0  0  0  0  0  0  0
   -0.2657    2.4225    0.8258 H   0  0  0  0  0  0  0  0  0  0  0  0
   -0.7413    4.0160   -0.5320 C   0  0  0  0  0  0  0  0  0  0  0  0
   -0.2644    4.8859   -1.0299 H   0  0  0  0  0  0  0  0  0  0  0  0
   -1.5994    4.3946    0.0626 H   0  0  0  0  0  0  0  0  0  0  0  0
   -1.1263    3.3359   -1.3154 H   0  0  0  0  0  0  0  0  0  0  0  0
    0.7580    4.1790    1.5108 C   0  0  0  0  0  0  0  0  0  0  0  0
    1.4976    3.6591    2.1520 H   0  0  0  0  0  0  0  0  0  0  0  0
   -0.0956    4.4832    2.1502 H   0  0  0  0  0  0  0  0  0  0  0  0
    1.2303    5.1104    1.1364 H   0  0  0  0  0  0  0  0  0  0  0  0
    2.3757   -0.6044   -2.2512 C   0  0  0  0  0  0  0  0  0  0  0  0
    1.5434   -1.1210   -1.7340 H   0  0  0  0  0  0  0  0  0  0  0  0
    3.6604   -1.3893   -1.9515 C   0  0  0  0  0  0  0  0  0  0  0  0
    4.5357   -0.9609   -2.4827 H   0  0  0  0  0  0  0  0  0  0  0  0
    3.5600   -2.4435   -2.2808 H   0  0  0  0  0  0  0  0  0  0  0  0
    3.8821   -1.3942   -0.8663 H   0  0  0  0  0  0  0  0  0  0  0  0
    2.0392   -0.6023   -3.7528 C   0  0  0  0  0  0  0  0  0  0  0  0
    1.0837   -0.0747   -3.9457 H   0  0  0  0  0  0  0  0  0  0  0  0
    1.9456   -1.6399   -4.1360 H   0  0  0  0  0  0  0  0  0  0  0  0
    2.8309   -0.0936   -4.3416 H   0  0  0  0  0  0  0  0  0  0  0  0
   -0.9647   -0.7775    0.9934 O   0  0  0  0  0  1  0  0  0  0  0  0
    0.2127   -0.5093    0.5041 C   0  0  1  0  0  3  0  0  0  0  0  0
    1.3770   -1.3466    0.9131 C   0  0  0  0  0  0  0  0  0  0  0  0
    2.4239   -0.8199    1.7126 C   0  0  0  0  0  0  0  0  0  0  0  0
    3.4941   -1.6652    2.0658 C   0  0  0  0  0  0  0  0  0  0  0  0
    4.3107   -1.2699    2.6892 H   0  0  0  0  0  0  0  0  0  0  0  0
    3.5290   -2.9999    1.6478 C   0  0  0  0  0  0  0  0  0  0  0  0
    4.3732   -3.6461    1.9335 H   0  0  0  0  0  0  0  0  0  0  0  0
    2.4876   -3.5129    0.8622 C   0  0  0  0  0  0  0  0  0  0  0  0
    2.5248   -4.5619    0.5324 H   0  0  0  0  0  0  0  0  0  0  0  0
    1.4040   -2.7043    0.4796 C   0  0  0  0  0  0  0  0  0  0  0  0
    0.2703   -3.2799   -0.3655 C   0  0  0  0  0  0  0  0  0  0  0  0
   -0.2658   -2.4223   -0.8258 H   0  0  0  0  0  0  0  0  0  0  0  0
   -0.7415   -4.0160    0.5319 C   0  0  0  0  0  0  0  0  0  0  0  0
   -0.2646   -4.8859    1.0297 H   0  0  0  0  0  0  0  0  0  0  0  0
   -1.5996   -4.3945   -0.0628 H   0  0  0  0  0  0  0  0  0  0  0  0
   -1.1265   -3.3359    1.3154 H   0  0  0  0  0  0  0  0  0  0  0  0
    0.7578   -4.1788   -1.5109 C   0  0  0  0  0  0  0  0  0  0  0  0
    1.4974   -3.6588   -2.1520 H   0  0  0  0  0  0  0  0  0  0  0  0
   -0.0957   -4.4830   -2.1504 H   0  0  0  0  0  0  0  0  0  0  0  0
    1.2302   -5.1103   -1.1366 H   0  0  0  0  0  0  0  0  0  0  0  0
    2.3757    0.6043    2.2513 C   0  0  0  0  0  0  0  0  0  0  0  0
    1.5433    1.1209    1.7341 H   0  0  0  0  0  0  0  0  0  0  0  0
    3.6603    1.3893    1.9514 C   0  0  0  0  0  0  0  0  0  0  0  0
    4.5357    0.9609    2.4826 H   0  0  0  0  0  0  0  0  0  0  0  0
    3.5599    2.4435    2.2808 H   0  0  0  0  0  0  0  0  0  0  0  0
    3.8819    1.3942    0.8663 H   0  0  0  0  0  0  0  0  0  0  0  0
    2.0393    0.6022    3.7529 C   0  0  0  0  0  0  0  0  0  0  0  0
    1.0837    0.0745    3.9458 H   0  0  0  0  0  0  0  0  0  0  0  0
    1.9456    1.6398    4.1361 H   0  0  0  0  0  0  0  0  0  0  0  0
    2.8310    0.0935    4.3416 H   0  0  0  0  0  0  0  0  0  0  0  0
  2  1  1  1  0  0  0
  2 33  1  0  0  0  0
  3  2  1  0  0  0  0
  3 11  1  0  0  0  0
  4  3  2  0  0  0  0
  5  4  1  0  0  0  0
  5  7  2  0  0  0  0
  6  5  1  0  0  0  0
  7  9  1  0  0  0  0
  8  7  1  0  0  0  0
  9 10  1  0  0  0  0
  9 11  2  0  0  0  0
 11 12  1  0  0  0  0
 12 13  1  0  0  0  0
 12 18  1  0  0  0  0
 14 16  1  0  0  0  0
 14 12  1  0  0  0  0
 15 14  1  0  0  0  0
 17 14  1  0  0  0  0
 18 20  1  0  0  0  0
 18 19  1  0  0  0  0
 21 18  1  0  0  0  0
 22 24  1  0  0  0  0
 22 23  1  0  0  0  0
 22  4  1  0  0  0  0
 24 27  1  0  0  0  0
 25 24  1  0  0  0  0
 26 24  1  0  0  0  0
 28 22  1  0  0  0  0
 29 28  1  0  0  0  0
 30 28  1  0  0  0  0
 31 28  1  0  0  0  0
 33 34  1  0  0  0  0
 33 32  1  6  0  0  0
 34 35  1  0  0  0  0
 35 36  2  0  0  0  0
 35 53  1  0  0  0  0
 36 37  1  0  0  0  0
 38 39  1  0  0  0  0
 38 36  1  0  0  0  0
 40 38  2  0  0  0  0
 41 40  1  0  0  0  0
 42 40  1  0  0  0  0
 42 34  2  0  0  0  0
 43 42  1  0  0  0  0
 43 45  1  0  0  0  0
 44 43  1  0  0  0  0
 45 46  1  0  0  0  0
 45 48  1  0  0  0  0
 47 45  1  0  0  0  0
 49 52  1  0  0  0  0
 49 43  1  0  0  0  0
 50 49  1  0  0  0  0
 51 49  1  0  0  0  0
 53 59  1  0  0  0  0
 54 53  1  0  0  0  0
 55 53  1  0  0  0  0
 55 57  1  0  0  0  0
 55 56  1  0  0  0  0
 58 55  1  0  0  0  0
 59 60  1  0  0  0  0
 59 61  1  0  0  0  0
 59 62  1  0  0  0  0
M  END
