1,2
q = -1.0

 17 16  0  0  1  0  0  0  0  0999 V2000
    1.7157    1.1743   -0.1647 O   0  0  0  0  0  1  0  0  0  0  0  0
    2.5500   -1.5711    0.0135 O   0  5  0  0  0  0  0  0  0  0  0  0
    3.3478    2.8380   -0.4130 C   0  0  0  0  0  0  0  0  0  0  0  0
    2.9794    1.3742   -0.2359 C   0  0  2  0  0  3  0  0  0  0  0  0
    3.9967    0.3753   -0.1665 C   0  0  0  0  0  0  0  0  0  0  0  0
    5.4577    0.7787   -0.2355 C   0  0  0  0  0  0  0  0  0  0  0  0
    3.7092   -1.0138   -0.0532 C   0  0  0  0  0  0  0  0  0  0  0  0
    4.8591   -1.9994   -0.0106 C   0  0  0  0  0  0  0  0  0  0  0  0
    2.4153    3.4248   -0.4900 H   0  0  0  0  0  0  0  0  0  0  0  0
    3.9583    3.0004   -1.3243 H   0  0  0  0  0  0  0  0  0  0  0  0
    3.9373    3.2160    0.4478 H   0  0  0  0  0  0  0  0  0  0  0  0
    6.0338    0.4154    0.6421 H   0  0  0  0  0  0  0  0  0  0  0  0
    5.5885    1.8739   -0.2663 H   0  0  0  0  0  0  0  0  0  0  0  0
    5.9683    0.3700   -1.1347 H   0  0  0  0  0  0  0  0  0  0  0  0
    4.4562   -3.0255    0.0566 H   0  0  0  0  0  0  0  0  0  0  0  0
    5.5193   -1.8096    0.8607 H   0  0  0  0  0  0  0  0  0  0  0  0
    5.4973   -1.9152   -0.9141 H   0  0  0  0  0  0  0  0  0  0  0  0
  3  4  1  0  0  0  0
  3 11  1  0  0  0  0
  4  5  1  0  0  0  0
  4  1  1  6  0  0  0
  5  7  2  0  0  0  0
  6  5  1  0  0  0  0
  6 12  1  0  0  0  0
  7  8  1  0  0  0  0
  7  2  1  0  0  0  0
  8 15  1  0  0  0  0
  8 16  1  0  0  0  0
  9  3  1  0  0  0  0
 10  3  1  0  0  0  0
 13  6  1  0  0  0  0
 14  6  1  0  0  0  0
 17  8  1  0  0  0  0
M  CHG  1   2  -1
M  END
