6,7
q = -1.0, confidence = 0.008

  9  8  0  0  0  0  0  0  0  0999 V2000
    1.8860   -5.3623   -0.4684 C   0  0  0  0  0  0  0  0  0  0  0  0
    2.7587   -5.8253    0.0320 H   0  0  0  0  0  0  0  0  0  0  0  0
    2.2229   -4.8448   -1.3930 H   0  0  0  0  0  0  0  0  0  0  0  0
    1.1488   -6.1492   -0.7349 H   0  0  0  0  0  0  0  0  0  0  0  0
   -0.0560   -3.6675   -0.0748 S   0  0  0  0  0  0  0  0  0  0  0  0
   -0.4118   -2.8120    1.1153 O   0  0  0  0  0  1  0  0  0  0  0  0
    0.4114   -2.7552   -1.1979 O   0  0  0  0  0  1  0  0  0  0  0  0
   -1.0080   -4.7247   -0.4621 O   0  0  0  0  0  1  0  0  0  0  0  0
    1.3333   -4.4393    0.4703 O   0  0  0  0  0  0  0  0  0  0  0  0
  1  2  1  0  0  0  0
  1  9  1  0  0  0  0
  3  1  1  0  0  0  0
  4  1  1  0  0  0  0
  5  9  1  0  0  0  0
  5  6  1  0  0  0  0
  7  5  1  0  0  0  0
  8  5  1  0  0  0  0
M  END
