2,32
q = 0.0, confidence = 0.93

 58 62  0  0  0  0  0  0  0  0999 V2000
    1.6563    0.5264    0.4451 P   0  0  0  0  0  4  0  0  0  0  0  0
    0.9834   -0.2736   -0.6771 O   0  0  0  0  0  1  0  0  0  0  0  0
    1.8792    2.2470   -0.1017 C   0  0  0  0  0  0  0  0  0  0  0  0
    1.8036    2.4930   -1.4862 C   0  0  0  0  0  0  0  0  0  0  0  0
    1.5620    1.6629   -2.1691 H   0  0  0  0  0  0  0  0  0  0  0  0
    2.0130    3.7950   -1.9640 C   0  0  0  0  0  0  0  0  0  0  0  0
    1.9479    3.9932   -3.0443 H   0  0  0  0  0  0  0  0  0  0  0  0
    2.2955    4.8406   -1.0708 C   0  0  0  0  0  0  0  0  0  0  0  0
    2.4598    5.8599   -1.4524 H   0  0  0  0  0  0  0  0  0  0  0  0
    2.3585    4.5931    0.3110 C   0  0  0  0  0  0  0  0  0  0  0  0
    2.5696    5.4155    1.0111 H   0  0  0  0  0  0  0  0  0  0  0  0
    2.1478    3.2961    0.8000 C   0  0  0  0  0  0  0  0  0  0  0  0
    2.1850    3.1027    1.8835 H   0  0  0  0  0  0  0  0  0  0  0  0
    3.2971   -0.1006    0.9233 C   0  0  0  0  0  0  0  0  0  0  0  0
    3.4161   -1.4730    1.2352 C   0  0  0  0  0  0  0  0  0  0  0  0
    2.5243   -2.1219    1.2273 H   0  0  0  0  0  0  0  0  0  0  0  0
    4.6741   -2.0007    1.5538 C   0  0  0  0  0  0  0  0  0  0  0  0
    4.7652   -3.0712    1.7907 H   0  0  0  0  0  0  0  0  0  0  0  0
    5.8101   -1.1744    1.5609 C   0  0  0  0  0  0  0  0  0  0  0  0
    6.7960   -1.5967    1.8086 H   0  0  0  0  0  0  0  0  0  0  0  0
    5.6922    0.1875    1.2424 C   0  0  0  0  0  0  0  0  0  0  0  0
    6.5824    0.8343    1.2363 H   0  0  0  0  0  0  0  0  0  0  0  0
    4.4387    0.7277    0.9178 C   0  0  0  0  0  0  0  0  0  0  0  0
    4.3524    1.7911    0.6506 H   0  0  0  0  0  0  0  0  0  0  0  0
    0.6168    0.5378    1.9528 C   0  0  0  0  0  0  0  0  0  0  0  0
    1.2624    0.6395    3.1982 C   0  0  0  0  0  0  0  0  0  0  0  0
    2.3603    0.7121    3.2307 H   0  0  0  0  0  0  0  0  0  0  0  0
    0.5313    0.6089    4.3957 C   0  0  0  0  0  0  0  0  0  0  0  0
    1.0543    0.6844    5.3606 H   0  0  0  0  0  0  0  0  0  0  0  0
   -0.7991    0.3930    1.8972 C   0  0  0  0  0  0  0  0  0  0  0  0
   -1.7987    0.2902    0.3323 P   0  0  0  0  0  4  0  0  0  0  0  0
   -1.6267   -0.9317   -0.5936 O   0  0  0  0  0  1  0  0  0  0  0  0
   -1.5572    1.8746   -0.5176 C   0  0  0  0  0  0  0  0  0  0  0  0
   -1.7282    1.8958   -1.9154 C   0  0  0  0  0  0  0  0  0  0  0  0
   -1.8921    0.9525   -2.4584 H   0  0  0  0  0  0  0  0  0  0  0  0
   -1.6397    3.1158   -2.6000 C   0  0  0  0  0  0  0  0  0  0  0  0
   -1.7579    3.1323   -3.6939 H   0  0  0  0  0  0  0  0  0  0  0  0
   -1.3914    4.3056   -1.8968 C   0  0  0  0  0  0  0  0  0  0  0  0
   -1.3202    5.2604   -2.4397 H   0  0  0  0  0  0  0  0  0  0  0  0
   -1.2170    4.2810   -0.5035 C   0  0  0  0  0  0  0  0  0  0  0  0
   -1.0015    5.2103    0.0441 H   0  0  0  0  0  0  0  0  0  0  0  0
   -1.2953    3.0654    0.1903 C   0  0  0  0  0  0  0  0  0  0  0  0
   -1.1383    3.0412    1.2797 H   0  0  0  0  0  0  0  0  0  0  0  0
   -3.5376    0.2466    0.8800 C   0  0  0  0  0  0  0  0  0  0  0  0
   -4.1393   -1.0241    0.9900 C   0  0  0  0  0  0  0  0  0  0  0  0
   -3.5546   -1.9213    0.7357 H   0  0  0  0  0  0  0  0  0  0  0  0
   -5.4732   -1.1227    1.4111 C   0  0  0  0  0  0  0  0  0  0  0  0
   -5.9449   -2.1131    1.4965 H   0  0  0  0  0  0  0  0  0  0  0  0
   -6.2063    0.0370    1.7126 C   0  0  0  0  0  0  0  0  0  0  0  0
   -7.2548   -0.0449    2.0373 H   0  0  0  0  0  0  0  0  0  0  0  0
   -5.6084    1.3021    1.5897 C   0  0  0  0  0  0  0  0  0  0  0  0
   -6.1876    2.2110    1.8122 H   0  0  0  0  0  0  0  0  0  0  0  0
   -4.2739    1.4112    1.1721 C   0  0  0  0  0  0  0  0  0  0  0  0
   -3.8088    2.4027    1.0622 H   0  0  0  0  0  0  0  0  0  0  0  0
   -1.5129    0.3526    3.1114 C   0  0  0  0  0  0  0  0  0  0  0  0
   -2.6037    0.2230    3.0937 H   0  0  0  0  0  0  0  0  0  0  0  0
   -0.8584    0.4593    4.3489 C   0  0  0  0  0  0  0  0  0  0  0  0
   -1.4461    0.4145    5.2778 H   0  0  0  0  0  0  0  0  0  0  0  0
  1 14  1  0  0  0  0
  1 25  1  0  0  0  0
  2  1  1  0  0  0  0
  3  1  1  0  0  0  0
  3 12  1  0  0  0  0
  4  3  2  0  0  0  0
  5  4  1  0  0  0  0
  6  4  1  0  0  0  0
  6  8  2  0  0  0  0
  7  6  1  0  0  0  0
  8 10  1  0  0  0  0
  9  8  1  0  0  0  0
 10 12  2  0  0  0  0
 10 11  1  0  0  0  0
 12 13  1  0  0  0  0
 14 15  1  0  0  0  0
 15 17  2  0  0  0  0
 16 15  1  0  0  0  0
 17 19  1  0  0  0  0
 17 18  1  0  0  0  0
 19 20  1  0  0  0  0
 21 19  2  0  0  0  0
 22 21  1  0  0  0  0
 23 14  2  0  0  0  0
 23 21  1  0  0  0  0
 24 23  1  0  0  0  0
 25 26  1  0  0  0  0
 26 27  1  0  0  0  0
 26 28  2  0  0  0  0
 28 29  1  0  0  0  0
 30 25  2  0  0  0  0
 30 55  1  0  0  0  0
 31 44  1  0  0  0  0
 31 30  1  0  0  0  0
 32 31  1  0  0  0  0
 33 42  1  0  0  0  0
 33 31  1  0  0  0  0
 34 33  2  0  0  0  0
 35 34  1  0  0  0  0
 36 34  1  0  0  0  0
 36 38  2  0  0  0  0
 37 36  1  0  0  0  0
 38 40  1  0  0  0  0
 39 38  1  0  0  0  0
 40 41  1  0  0  0  0
 40 42  2  0  0  0  0
 42 43  1  0  0  0  0
 44 45  2  0  0  0  0
 44 53  1  0  0  0  0
 45 47  1  0  0  0  0
 46 45  1  0  0  0  0
 47 48  1  0  0  0  0
 47 49  2  0  0  0  0
 49 50  1  0  0  0  0
 51 49  1  0  0  0  0
 51 52  1  0  0  0  0
 53 51  2  0  0  0  0
 54 53  1  0  0  0  0
 55 57  2  0  0  0  0
 56 55  1  0  0  0  0
 57 28  1  0  0  0  0
 57 58  1  0  0  0  0
M  END
