2,3
q = -1.0

 36 35  0  0  1  0  0  0  0  0999 V2000
    2.7608   -2.2325   -1.3949 N   0  0  0  0  0  0  0  0  0  0  0  0
    1.9983   -0.8459    0.1789 O   0  0  0  0  0  1  0  0  0  0  0  0
    3.9990   -2.0050   -0.8794 O   0  0  0  0  0  1  0  0  0  0  0  0
    1.7363   -1.5727   -0.8252 C   0  0  1  0  0  3  0  0  0  0  0  0
    0.3308   -1.6583   -1.3674 C   0  0  0  0  0  0  0  0  0  0  0  0
    0.2034   -2.5405   -2.0247 H   0  0  0  0  0  0  0  0  0  0  0  0
    0.1760   -0.7647   -2.0149 H   0  0  0  0  0  0  0  0  0  0  0  0
   -0.7250   -1.6685   -0.2564 C   0  0  0  0  0  0  0  0  0  0  0  0
   -0.5586   -0.7889    0.3997 H   0  0  0  0  0  0  0  0  0  0  0  0
   -0.5676   -2.5590    0.3899 H   0  0  0  0  0  0  0  0  0  0  0  0
   -2.1529   -1.6643   -0.8028 C   0  0  0  0  0  0  0  0  0  0  0  0
   -2.2937   -0.7736   -1.4566 H   0  0  0  0  0  0  0  0  0  0  0  0
   -2.3026   -2.5468   -1.4658 H   0  0  0  0  0  0  0  0  0  0  0  0
   -3.2272   -1.6634    0.2866 C   0  0  0  0  0  0  0  0  0  0  0  0
   -3.0828   -0.7743    0.9412 H   0  0  0  0  0  0  0  0  0  0  0  0
   -3.0834   -2.5464    0.9490 H   0  0  0  0  0  0  0  0  0  0  0  0
   -4.6558   -1.6629   -0.2619 C   0  0  0  0  0  0  0  0  0  0  0  0
   -4.7867   -0.7879   -0.9377 H   0  0  0  0  0  0  0  0  0  0  0  0
   -4.8048   -2.5597   -0.9050 H   0  0  0  0  0  0  0  0  0  0  0  0
   -5.7377   -1.6273    0.8198 C   0  0  0  0  0  0  0  0  0  0  0  0
   -5.5756   -0.7366    1.4686 H   0  0  0  0  0  0  0  0  0  0  0  0
   -5.6197   -2.5076    1.4913 H   0  0  0  0  0  0  0  0  0  0  0  0
   -7.1642   -1.5940    0.2664 C   0  0  0  0  0  0  0  0  0  0  0  0
   -7.2719   -0.7184   -0.4131 H   0  0  0  0  0  0  0  0  0  0  0  0
   -7.3343   -2.4894   -0.3738 H   0  0  0  0  0  0  0  0  0  0  0  0
   -8.2492   -1.5276    1.3450 C   0  0  0  0  0  0  0  0  0  0  0  0
   -8.1608   -2.4171    2.0079 H   0  0  0  0  0  0  0  0  0  0  0  0
   -8.0562   -0.6487    2.0001 H   0  0  0  0  0  0  0  0  0  0  0  0
   -9.6662   -1.4410    0.7778 C   0  0  0  0  0  0  0  0  0  0  0  0
   -9.7912   -0.5337    0.1498 H   0  0  0  0  0  0  0  0  0  0  0  0
  -10.4303   -1.3996    1.5800 H   0  0  0  0  0  0  0  0  0  0  0  0
   -9.8998   -2.3178    0.1382 H   0  0  0  0  0  0  0  0  0  0  0  0
    2.8012   -3.0780   -2.5682 C   0  0  0  0  0  0  0  0  0  0  0  0
    3.2865   -4.0387   -2.3043 H   0  0  0  0  0  0  0  0  0  0  0  0
    3.3995   -2.5855   -3.3621 H   0  0  0  0  0  0  0  0  0  0  0  0
    1.7802   -3.2689   -2.9391 H   0  0  0  0  0  0  0  0  0  0  0  0
  1  3  1  0  0  0  0
  1  4  1  0  0  0  0
  4  2  1  6  0  0  0
  5  4  1  0  0  0  0
  5  8  1  0  0  0  0
  6  5  1  0  0  0  0
  7  5  1  0  0  0  0
  8 10  1  0  0  0  0
  8  9  1  0  0  0  0
 11  8  1  0  0  0  0
 11 14  1  0  0  0  0
 12 11  1  0  0  0  0
 13 11  1  0  0  0  0
 14 15  1  0  0  0  0
 14 16  1  0  0  0  0
 17 14  1  0  0  0  0
 17 20  1  0  0  0  0
 18 17  1  0  0  0  0
 19 17  1  0  0  0  0
 20 21  1  0  0  0  0
 20 22  1  0  0  0  0
 23 20  1  0  0  0  0
 23 26  1  0  0  0  0
 24 23  1  0  0  0  0
 25 23  1  0  0  0  0
 26 28  1  0  0  0  0
 26 27  1  0  0  0  0
 29 26  1  0  0  0  0
 29 31  1  0  0  0  0
 30 29  1  0  0  0  0
 32 29  1  0  0  0  0
 33 34  1  0  0  0  0
 33  1  1  0  0  0  0
 35 33  1  0  0  0  0
 36 33  1  0  0  0  0
M  END
