2,3
q = -1.0

 24 23  0  0  1  0  0  0  0  0999 V2000
    1.7846    2.0996    0.8129 N   0  0  0  0  0  0  0  0  0  0  0  0
    1.8647    0.8373   -1.0242 O   0  0  0  0  0  1  0  0  0  0  0  0
    2.1093    0.9698    1.4957 O   0  0  0  0  0  1  0  0  0  0  0  0
    1.6330    1.9756   -0.5172 C   0  0  1  0  0  3  0  0  0  0  0  0
    1.1101    3.0936   -1.3819 C   0  0  0  0  0  0  0  0  0  0  0  0
    1.7703    3.1422   -2.2711 H   0  0  0  0  0  0  0  0  0  0  0  0
    1.1692    4.0747   -0.8726 H   0  0  0  0  0  0  0  0  0  0  0  0
   -0.3382    2.8018   -1.8234 C   0  0  0  0  0  0  0  0  0  0  0  0
   -0.6538    3.5900   -2.5403 H   0  0  0  0  0  0  0  0  0  0  0  0
   -0.3431    1.8440   -2.3866 H   0  0  0  0  0  0  0  0  0  0  0  0
   -1.3321    2.7215   -0.6610 C   0  0  0  0  0  0  0  0  0  0  0  0
   -1.2921    3.6678   -0.0738 H   0  0  0  0  0  0  0  0  0  0  0  0
   -1.0207    1.9113    0.0359 H   0  0  0  0  0  0  0  0  0  0  0  0
   -2.7771    2.4680   -1.1010 C   0  0  0  0  0  0  0  0  0  0  0  0
   -3.0812    3.2441   -1.8383 H   0  0  0  0  0  0  0  0  0  0  0  0
   -2.8231    1.5014   -1.6519 H   0  0  0  0  0  0  0  0  0  0  0  0
   -3.7666    2.4465    0.0643 C   0  0  0  0  0  0  0  0  0  0  0  0
   -3.4875    1.6770    0.8134 H   0  0  0  0  0  0  0  0  0  0  0  0
   -4.7993    2.2252   -0.2732 H   0  0  0  0  0  0  0  0  0  0  0  0
   -3.7891    3.4235    0.5905 H   0  0  0  0  0  0  0  0  0  0  0  0
    1.5423    3.2257    1.6885 C   0  0  0  0  0  0  0  0  0  0  0  0
    1.3628    4.1387    1.0964 H   0  0  0  0  0  0  0  0  0  0  0  0
    2.4300    3.3715    2.3351 H   0  0  0  0  0  0  0  0  0  0  0  0
    0.6621    3.0196    2.3316 H   0  0  0  0  0  0  0  0  0  0  0  0
  1  3  1  0  0  0  0
  1 21  1  0  0  0  0
  4  2  1  1  0  0  0
  4  1  1  0  0  0  0
  5  7  1  0  0  0  0
  5  4  1  0  0  0  0
  6  5  1  0  0  0  0
  8  5  1  0  0  0  0
  8 11  1  0  0  0  0
  9  8  1  0  0  0  0
 10  8  1  0  0  0  0
 11 12  1  0  0  0  0
 11 13  1  0  0  0  0
 14 11  1  0  0  0  0
 14 17  1  0  0  0  0
 15 14  1  0  0  0  0
 16 14  1  0  0  0  0
 17 20  1  0  0  0  0
 17 18  1  0  0  0  0
 19 17  1  0  0  0  0
 21 24  1  0  0  0  0
 21 23  1  0  0  0  0
 22 21  1  0  0  0  0
M  END
