1,5
q = -1.0, confidence = 0.0

 24 23  0  0  1  0  0  0  0  0999 V2000
   -0.2175   -1.9993    0.0859 O   0  0  0  0  0  1  0  0  0  0  0  0
   -1.3498   -2.5872    0.0908 C   0  0  2  0  0  3  0  0  0  0  0  0
   -2.6227   -1.9676    0.0996 C   0  0  0  0  0  0  0  0  0  0  0  0
   -2.8319   -0.5849    0.1001 C   0  0  0  0  0  0  0  0  0  0  0  0
   -1.9756    0.3652    0.0893 O   0  5  0  0  0  0  0  0  0  0  0  0
   -4.2782   -0.0499    0.1082 C   0  0  0  0  0  0  0  0  0  0  0  0
   -4.4797    0.7315    1.1875 F   0  0  0  0  0  0  0  0  0  0  0  0
   -5.1936   -1.0425    0.1361 F   0  0  0  0  0  0  0  0  0  0  0  0
   -4.5043    0.6916   -0.9952 F   0  0  0  0  0  0  0  0  0  0  0  0
   -3.4945   -2.6316    0.1111 H   0  0  0  0  0  0  0  0  0  0  0  0
   -1.2850   -4.1384    0.1565 C   0  0  0  0  0  0  0  0  0  0  0  0
   -0.0000   -4.6557   -0.5023 C   0  0  0  0  0  0  0  0  0  0  0  0
    0.0028   -5.7629   -0.4739 H   0  0  0  0  0  0  0  0  0  0  0  0
    0.8845   -4.2768    0.0407 H   0  0  0  0  0  0  0  0  0  0  0  0
    0.0949   -4.3215   -1.5530 H   0  0  0  0  0  0  0  0  0  0  0  0
   -1.3285   -4.5236    1.6440 C   0  0  0  0  0  0  0  0  0  0  0  0
   -2.2794   -4.1868    2.0995 H   0  0  0  0  0  0  0  0  0  0  0  0
   -0.4826   -4.0660    2.1911 H   0  0  0  0  0  0  0  0  0  0  0  0
   -1.2672   -5.6261    1.7332 H   0  0  0  0  0  0  0  0  0  0  0  0
   -2.4675   -4.7057   -0.4054 O   0  0  0  0  0  0  0  0  0  0  0  0
   -2.5987   -4.6270   -1.8132 C   0  0  0  0  0  0  0  0  0  0  0  0
   -3.6245   -4.9663   -2.0547 H   0  0  0  0  0  0  0  0  0  0  0  0
   -1.8773   -5.2852   -2.3471 H   0  0  0  0  0  0  0  0  0  0  0  0
   -2.4761   -3.5863   -2.1958 H   0  0  0  0  0  0  0  0  0  0  0  0
  2  1  1  1  0  0  0
  2  3  1  0  0  0  0
  2 11  1  0  0  0  0
  3  4  2  0  0  0  0
  3 10  1  0  0  0  0
  4  6  1  0  0  0  0
  5  4  1  0  0  0  0
  6  8  1  0  0  0  0
  6  7  1  0  0  0  0
  9  6  1  0  0  0  0
 11 16  1  0  0  0  0
 12 13  1  0  0  0  0
 12 14  1  0  0  0  0
 12 11  1  0  0  0  0
 15 12  1  0  0  0  0
 16 19  1  0  0  0  0
 16 17  1  0  0  0  0
 16 18  1  0  0  0  0
 20 11  1  0  0  0  0
 21 20  1  0  0  0  0
 22 21  1  0  0  0  0
 23 21  1  0  0  0  0
 24 21  1  0  0  0  0
M  CHG  1   5  -1
M  END
