2,3
q = -1.0

 28 29  0  0  0  0  0  0  0  0999 V2000
   -8.9867   -0.7792    0.1168 Cl  0  0  0  0  0  0  0  0  0  0  0  0
    2.0537    1.7180    0.4219 O   0  5  0  0  0  0  0  0  0  0  0  0
   -0.2889    0.1340   -0.1646 O   0  5  0  0  0  0  0  0  0  0  0  0
    1.2454    2.6924    0.1229 C   0  0  0  0  0  0  0  0  0  0  0  0
    1.7883    4.0178    0.1972 C   0  0  0  0  0  0  0  0  0  0  0  0
    2.8439    4.0976    0.4956 H   0  0  0  0  0  0  0  0  0  0  0  0
    1.0430    5.1382   -0.1263 C   0  0  0  0  0  0  0  0  0  0  0  0
    1.5090    6.1349   -0.0801 H   0  0  0  0  0  0  0  0  0  0  0  0
   -0.3084    5.0064   -0.5355 C   0  0  0  0  0  0  0  0  0  0  0  0
   -0.8936    5.8906   -0.8254 H   0  0  0  0  0  0  0  0  0  0  0  0
   -0.8815    3.7460   -0.5700 C   0  0  0  0  0  0  0  0  0  0  0  0
   -1.9218    3.6566   -0.9104 H   0  0  0  0  0  0  0  0  0  0  0  0
   -0.1602    2.5568   -0.2322 C   0  0  0  0  0  0  0  0  0  0  0  0
   -0.8582    1.2794   -0.2098 C   0  0  0  0  0  0  0  0  0  0  0  0
   -2.3301    1.2526   -0.1713 C   0  0  0  0  0  0  0  0  0  0  0  0
   -2.8575    2.2100   -0.0745 H   0  0  0  0  0  0  0  0  0  0  0  0
   -3.0362    0.0867   -0.2001 C   0  0  0  0  0  3  0  0  0  0  0  0
   -2.4511   -0.8433   -0.2934 H   0  0  0  0  0  0  0  0  0  0  0  0
   -4.4813   -0.0791   -0.1219 C   0  0  0  0  0  0  0  0  0  0  0  0
   -5.3859    1.0059    0.0081 C   0  0  0  0  0  0  0  0  0  0  0  0
   -5.0047    2.0366    0.0537 H   0  0  0  0  0  0  0  0  0  0  0  0
   -6.7633    0.7965    0.0809 C   0  0  0  0  0  0  0  0  0  0  0  0
   -7.4585    1.6416    0.1817 H   0  0  0  0  0  0  0  0  0  0  0  0
   -7.2697   -0.5167    0.0249 C   0  0  0  0  0  0  0  0  0  0  0  0
   -6.4017   -1.6140   -0.1038 C   0  0  0  0  0  0  0  0  0  0  0  0
   -6.8118   -2.6325   -0.1463 H   0  0  0  0  0  0  0  0  0  0  0  0
   -5.0243   -1.3873   -0.1757 C   0  0  0  0  0  0  0  0  0  0  0  0
   -4.3414   -2.2452   -0.2768 H   0  0  0  0  0  0  0  0  0  0  0  0
  4  5  1  0  0  0  0
  4  2  1  0  0  0  0
  5  6  1  0  0  0  0
  7  8  1  0  0  0  0
  7  5  2  0  0  0  0
  9  7  1  0  0  0  0
 10  9  1  0  0  0  0
 11  9  2  0  0  0  0
 11 13  1  0  0  0  0
 12 11  1  0  0  0  0
 13 14  1  0  0  0  0
 13  4  2  0  0  0  0
 14 15  2  0  0  0  0
 14  3  1  0  0  0  0
 15 16  1  0  0  0  0
 17 15  1  0  0  0  0
 17 19  1  0  0  0  0
 18 17  1  0  0  0  0
 19 20  1  0  0  0  0
 20 21  1  0  0  0  0
 20 22  2  0  0  0  0
 22 23  1  0  0  0  0
 24 22  1  0  0  0  0
 24  1  1  0  0  0  0
 25 24  2  0  0  0  0
 26 25  1  0  0  0  0
 27 19  2  0  0  0  0
 27 25  1  0  0  0  0
 28 27  1  0  0  0  0
M  CHG  2   2  -1   3  -1
M  END
