1,2
q = -2.0, confidence = 0.648

  4  3  0  0  0  0  0  0  0  0999 V2000
    2.3903    1.2019   -0.0005 O   0  0  0  0  0  0  0  0  0  0  0  0
    2.3903   -1.2019    0.0011 O   0  0  0  0  0  0  0  0  0  0  0  0
    3.6246    0.6223    0.0004 N   0  0  0  0  0  0  0  0  0  0  0  0
    3.6246   -0.6223    0.0012 N   0  0  0  0  0  0  0  0  0  0  0  0
  1  3  1  0  0  0  0
  2  4  1  0  0  0  0
  3  4  2  0  0  0  0
M  END
