2,13
q = -1.0

 24 25  0  0  1  0  0  0  0  0999 V2000
   -0.5404    2.1383    0.9006 C   0  0  0  0  0  0  0  0  0  0  0  0
    0.6463    1.6199    0.9984 O   0  5  0  0  0  0  0  0  0  0  0  0
   -0.7540    3.4049    1.5358 C   0  0  0  0  0  0  0  0  0  0  0  0
    0.1054    3.8437    2.0627 H   0  0  0  0  0  0  0  0  0  0  0  0
   -1.9643    4.0732    1.4377 C   0  0  0  0  0  0  0  0  0  0  0  0
   -2.0723    5.0656    1.9037 H   0  0  0  0  0  0  0  0  0  0  0  0
   -3.0525    3.5101    0.7225 C   0  0  0  0  0  0  0  0  0  0  0  0
   -3.9950    4.0649    0.6115 H   0  0  0  0  0  0  0  0  0  0  0  0
   -2.9064    2.2523    0.1589 C   0  0  0  0  0  0  0  0  0  0  0  0
   -3.7388    1.8106   -0.4065 H   0  0  0  0  0  0  0  0  0  0  0  0
   -1.6823    1.5192    0.2500 C   0  0  0  0  0  0  0  0  0  0  0  0
   -1.6152    0.1625   -0.2351 C   0  0  1  0  0  3  0  0  0  0  0  0
   -0.5416   -0.4819   -0.4661 O   0  0  0  0  0  1  0  0  0  0  0  0
   -2.8511   -0.6454   -0.4694 C   0  0  0  0  0  0  0  0  0  0  0  0
   -3.9407   -0.6343    0.4286 C   0  0  0  0  0  0  0  0  0  0  0  0
   -3.9055    0.0134    1.3165 H   0  0  0  0  0  0  0  0  0  0  0  0
   -5.0470   -1.4665    0.2060 C   0  0  0  0  0  0  0  0  0  0  0  0
   -5.8859   -1.4605    0.9183 H   0  0  0  0  0  0  0  0  0  0  0  0
   -5.0827   -2.3080   -0.9172 C   0  0  0  0  0  0  0  0  0  0  0  0
   -5.9564   -2.9536   -1.0943 H   0  0  0  0  0  0  0  0  0  0  0  0
   -3.9988   -2.3289   -1.8117 C   0  0  0  0  0  0  0  0  0  0  0  0
   -4.0244   -2.9873   -2.6932 H   0  0  0  0  0  0  0  0  0  0  0  0
   -2.8840   -1.5139   -1.5830 C   0  0  0  0  0  0  0  0  0  0  0  0
   -2.0235   -1.5256   -2.2676 H   0  0  0  0  0  0  0  0  0  0  0  0
  1  2  1  0  0  0  0
  1  3  1  0  0  0  0
  3  4  1  0  0  0  0
  5  3  2  0  0  0  0
  5  6  1  0  0  0  0
  7  5  1  0  0  0  0
  8  7  1  0  0  0  0
  9 11  1  0  0  0  0
  9  7  2  0  0  0  0
 10  9  1  0  0  0  0
 11  1  2  0  0  0  0
 12 13  1  1  0  0  0
 12 11  1  0  0  0  0
 14 12  1  0  0  0  0
 14 15  1  0  0  0  0
 15 16  1  0  0  0  0
 17 15  2  0  0  0  0
 17 18  1  0  0  0  0
 19 17  1  0  0  0  0
 20 19  1  0  0  0  0
 21 23  1  0  0  0  0
 21 19  2  0  0  0  0
 22 21  1  0  0  0  0
 23 14  2  0  0  0  0
 24 23  1  0  0  0  0
M  CHG  1   2  -1
M  END
