1,2
q = -1.0

 29 31  0  0  1  0  0  0  0  0999 V2000
    0.4954    0.2037    0.1328 O   0  5  0  0  0  0  0  0  0  0  0  0
   -0.7525   -2.3955    0.3303 O   0  5  0  0  0  0  0  0  0  0  0  0
    0.6432   -4.1057   -0.0891 O   0  0  0  0  0  0  0  0  0  0  0  0
    6.3177    2.4256   -0.2835 O   0  0  0  0  0  0  0  0  0  0  0  0
    4.3277    3.6117   -0.1982 O   0  0  0  0  0  0  0  0  0  0  0  0
    4.0388   -1.9182   -0.0652 N   0  0  0  0  0  0  0  0  0  0  0  0
    0.4113   -2.9061    0.1062 C   0  0  0  0  0  0  0  0  0  0  0  0
    1.6069   -1.9408    0.0773 C   0  0  0  0  0  0  0  0  0  0  0  0
    2.8399   -2.5581   -0.0012 C   0  0  0  0  0  0  0  0  0  0  0  0
    2.8443   -3.6601   -0.0221 H   0  0  0  0  0  0  0  0  0  0  0  0
    4.0807   -0.5241   -0.0965 C   0  0  1  0  0  3  0  0  0  0  0  0
    2.8486    0.1950   -0.0344 C   0  0  0  0  0  0  0  0  0  0  0  0
    1.5517   -0.4970    0.0692 C   0  0  0  0  0  0  0  0  0  0  0  0
    5.2599   -2.7270   -0.1974 C   0  0  0  0  0  0  0  0  0  0  0  0
    5.0277   -3.7189    0.2348 H   0  0  0  0  0  0  0  0  0  0  0  0
    6.0475   -2.2848    0.4448 H   0  0  0  0  0  0  0  0  0  0  0  0
    5.7307   -2.8737   -1.6432 C   0  0  0  0  0  0  0  0  0  0  0  0
    4.9499   -3.3607   -2.2601 H   0  0  0  0  0  0  0  0  0  0  0  0
    6.6437   -3.5003   -1.6847 H   0  0  0  0  0  0  0  0  0  0  0  0
    5.9657   -1.8928   -2.1013 H   0  0  0  0  0  0  0  0  0  0  0  0
    2.8474    1.6199   -0.0568 C   0  0  0  0  0  0  0  0  0  0  0  0
    1.8835    2.1413   -0.0117 H   0  0  0  0  0  0  0  0  0  0  0  0
    4.0594    2.2682   -0.1337 C   0  0  0  0  0  0  0  0  0  0  0  0
    5.2760    1.5508   -0.1913 C   0  0  0  0  0  0  0  0  0  0  0  0
    5.3257    0.1694   -0.1781 C   0  0  0  0  0  0  0  0  0  0  0  0
    6.2906   -0.3458   -0.2322 H   0  0  0  0  0  0  0  0  0  0  0  0
    5.7483    3.7368   -0.1371 C   0  0  0  0  0  0  0  0  0  0  0  0
    6.0510    4.1599    0.8507 H   0  0  0  0  0  0  0  0  0  0  0  0
    6.1049    4.3875   -0.9642 H   0  0  0  0  0  0  0  0  0  0  0  0
  3  7  2  0  0  0  0
  4 24  1  0  0  0  0
  4 27  1  0  0  0  0
  5 27  1  0  0  0  0
  5 23  1  0  0  0  0
  6  9  1  0  0  0  0
  7  2  1  0  0  0  0
  8  7  1  0  0  0  0
  9  8  2  0  0  0  0
 10  9  1  0  0  0  0
 11 25  1  1  0  0  0
 11  6  1  0  0  0  0
 11 12  1  0  0  0  0
 12 13  2  0  0  0  0
 13  8  1  0  0  0  0
 13  1  1  0  0  0  0
 14  6  1  0  0  0  0
 14 15  1  0  0  0  0
 14 16  1  0  0  0  0
 17 14  1  0  0  0  0
 18 17  1  0  0  0  0
 19 17  1  0  0  0  0
 20 17  1  0  0  0  0
 21 12  1  0  0  0  0
 21 22  1  0  0  0  0
 23 21  2  0  0  0  0
 24 25  2  0  0  0  0
 24 23  1  0  0  0  0
 26 25  1  0  0  0  0
 27 28  1  0  0  0  0
 29 27  1  0  0  0  0
M  CHG  2   1  -1   2  -1
M  END
