2,3
q = -1.0

 27 29  0  0  0  0  0  0  0  0999 V2000
   -7.1856   -2.3972    1.3695 Cl  0  0  0  0  0  0  0  0  0  0  0  0
   -0.7655   -0.7898   -0.5270 O   0  5  0  0  0  0  0  0  0  0  0  0
    1.0178    0.9969   -1.3864 O   0  5  0  0  0  0  0  0  0  0  0  0
   -2.8109    2.2079   -0.6670 O   0  0  0  0  0  0  0  0  0  0  0  0
   -1.1590    0.4545   -0.6760 C   0  0  0  0  0  0  0  0  0  0  0  0
   -2.4792    0.8958   -0.4542 C   0  0  0  0  0  0  0  0  0  0  0  0
   -3.6088    0.0875   -0.0103 C   0  0  0  0  0  0  0  0  0  0  0  0
   -3.4448   -1.2648    0.3912 C   0  0  0  0  0  0  0  0  0  0  0  0
   -2.4378   -1.6994    0.3724 H   0  0  0  0  0  0  0  0  0  0  0  0
   -4.5387   -2.0239    0.8159 C   0  0  0  0  0  0  0  0  0  0  0  0
   -4.4054   -3.0682    1.1318 H   0  0  0  0  0  0  0  0  0  0  0  0
   -5.8195   -1.4481    0.8461 C   0  0  0  0  0  0  0  0  0  0  0  0
   -6.0086   -0.1095    0.4596 C   0  0  0  0  0  0  0  0  0  0  0  0
   -7.0156    0.3295    0.4919 H   0  0  0  0  0  0  0  0  0  0  0  0
   -4.9130    0.6466    0.0392 C   0  0  0  0  0  0  0  0  0  0  0  0
   -5.0622    1.6924   -0.2603 H   0  0  0  0  0  0  0  0  0  0  0  0
   -1.9098    3.1336   -1.0667 C   0  0  0  0  0  0  0  0  0  0  0  0
   -2.3590    4.4611   -1.2132 C   0  0  0  0  0  0  0  0  0  0  0  0
   -3.4128    4.6940   -1.0058 H   0  0  0  0  0  0  0  0  0  0  0  0
   -1.4481    5.4393   -1.6071 C   0  0  0  0  0  0  0  0  0  0  0  0
   -1.7888    6.4796   -1.7193 H   0  0  0  0  0  0  0  0  0  0  0  0
   -0.0902    5.1133   -1.8503 C   0  0  0  0  0  0  0  0  0  0  0  0
    0.6163    5.9043   -2.1415 H   0  0  0  0  0  0  0  0  0  0  0  0
    0.3505    3.8035   -1.7060 C   0  0  0  0  0  3  0  0  0  0  0  0
    1.4007    3.5211   -1.8615 H   0  0  0  0  0  0  0  0  0  0  0  0
   -0.5597    2.7859   -1.3210 C   0  0  0  0  0  0  0  0  0  0  0  0
   -0.1713    1.4116   -1.1410 C   0  0  0  0  0  0  0  0  0  0  0  0
  3 27  1  0  0  0  0
  4  6  1  0  0  0  0
  5  2  1  0  0  0  0
  5  6  2  0  0  0  0
  6  7  1  0  0  0  0
  7 15  2  0  0  0  0
  7  8  1  0  0  0  0
  8 10  2  0  0  0  0
  9  8  1  0  0  0  0
 10 12  1  0  0  0  0
 10 11  1  0  0  0  0
 12  1  1  0  0  0  0
 13 14  1  0  0  0  0
 13 12  2  0  0  0  0
 15 13  1  0  0  0  0
 16 15  1  0  0  0  0
 17  4  1  0  0  0  0
 18 17  2  0  0  0  0
 18 19  1  0  0  0  0
 20 18  1  0  0  0  0
 21 20  1  0  0  0  0
 22 24  1  0  0  0  0
 22 20  2  0  0  0  0
 23 22  1  0  0  0  0
 24 26  1  0  0  0  0
 25 24  1  0  0  0  0
 26 27  2  0  0  0  0
 26 17  1  0  0  0  0
 27  5  1  0  0  0  0
M  CHG  2   2  -1   3  -1
M  END
