1,2
q = -1.0, confidence = 0.056

 39 41  0  0  1  0  0  0  0  0999 V2000
   -0.2866   -0.3834    0.2807 O   0  5  0  0  0  0  0  0  0  0  0  0
   -2.1094    1.5514    0.1823 O   0  5  0  0  0  0  0  0  0  0  0  0
    1.8464    2.5484   -0.0212 O   0  0  0  0  0  0  0  0  0  0  0  0
    3.5056   -3.2727    0.2654 O   0  0  0  0  0  0  0  0  0  0  0  0
    6.0847   -2.0586   -0.0039 O   0  0  0  0  0  0  0  0  0  0  0  0
    6.3589    0.4602   -0.1755 O   0  0  0  0  0  0  0  0  0  0  0  0
    0.1428    0.8785    0.1644 C   0  0  0  0  0  0  0  0  0  0  0  0
   -0.8566    1.9015    0.1337 C   0  0  0  0  0  0  0  0  0  0  0  0
   -0.4559    3.2831    0.0426 C   0  0  0  0  0  0  0  0  0  0  0  0
   -1.3653    4.3711    0.0265 C   0  0  0  0  0  0  0  0  0  0  0  0
   -2.4409    4.1524    0.0844 H   0  0  0  0  0  0  0  0  0  0  0  0
   -0.8891    5.6763   -0.0603 C   0  0  0  0  0  0  0  0  0  0  0  0
   -1.5941    6.5200   -0.0729 H   0  0  0  0  0  0  0  0  0  0  0  0
    0.5024    5.9246   -0.1331 C   0  0  0  0  0  0  0  0  0  0  0  0
    0.8705    6.9589   -0.2014 H   0  0  0  0  0  0  0  0  0  0  0  0
    1.4180    4.8715   -0.1194 C   0  0  0  0  0  0  0  0  0  0  0  0
    2.5020    5.0422   -0.1755 H   0  0  0  0  0  0  0  0  0  0  0  0
    0.9337    3.5541   -0.0311 C   0  0  2  0  0  3  0  0  0  0  0  0
    1.5121    1.2287    0.0637 C   0  0  0  0  0  0  0  0  0  0  0  0
    2.6567    0.3416    0.0575 C   0  0  0  0  0  0  0  0  0  0  0  0
    3.9645    0.8831   -0.0539 C   0  0  0  0  0  0  0  0  0  0  0  0
    4.0914    1.9675   -0.1320 H   0  0  0  0  0  0  0  0  0  0  0  0
    5.0782    0.0417   -0.0715 C   0  0  0  0  0  0  0  0  0  0  0  0
    4.9279   -1.3839    0.0187 C   0  0  0  0  0  0  0  0  0  0  0  0
    3.6104   -1.9162    0.1455 C   0  0  0  0  0  0  0  0  0  0  0  0
    2.4987   -1.0638    0.1572 C   0  0  0  0  0  0  0  0  0  0  0  0
    1.4874   -1.4684    0.2558 H   0  0  0  0  0  0  0  0  0  0  0  0
    2.2173   -3.8422    0.3799 C   0  0  0  0  0  0  0  0  0  0  0  0
    2.3668   -4.9344    0.4625 H   0  0  0  0  0  0  0  0  0  0  0  0
    1.5909   -3.6256   -0.5149 H   0  0  0  0  0  0  0  0  0  0  0  0
    1.6811   -3.4781    1.2851 H   0  0  0  0  0  0  0  0  0  0  0  0
    6.1875   -3.4786   -0.1323 C   0  0  0  0  0  0  0  0  0  0  0  0
    7.2684   -3.6770   -0.2525 H   0  0  0  0  0  0  0  0  0  0  0  0
    5.6394   -3.8457   -1.0220 H   0  0  0  0  0  0  0  0  0  0  0  0
    5.8083   -3.9985    0.7681 H   0  0  0  0  0  0  0  0  0  0  0  0
    6.6069    1.8524   -0.2658 C   0  0  0  0  0  0  0  0  0  0  0  0
    7.7035    1.9676   -0.3368 H   0  0  0  0  0  0  0  0  0  0  0  0
    6.2415    2.3944    0.6347 H   0  0  0  0  0  0  0  0  0  0  0  0
    6.1351    2.2967   -1.1706 H   0  0  0  0  0  0  0  0  0  0  0  0
  3 19  1  0  0  0  0
  4 28  1  0  0  0  0
  5 24  1  0  0  0  0
  6 23  1  0  0  0  0
  7  1  1  0  0  0  0
  8  7  1  0  0  0  0
  8  2  1  0  0  0  0
  9  8  2  0  0  0  0
 10  9  1  0  0  0  0
 10 11  1  0  0  0  0
 12 10  2  0  0  0  0
 13 12  1  0  0  0  0
 14 16  2  0  0  0  0
 14 12  1  0  0  0  0
 15 14  1  0  0  0  0
 17 16  1  0  0  0  0
 18 16  1  6  0  0  0
 18  3  1  0  0  0  0
 18  9  1  0  0  0  0
 19  7  2  0  0  0  0
 20 19  1  0  0  0  0
 20 26  1  0  0  0  0
 21 20  2  0  0  0  0
 22 21  1  0  0  0  0
 23 21  1  0  0  0  0
 23 24  2  0  0  0  0
 24 25  1  0  0  0  0
 25 26  2  0  0  0  0
 25  4  1  0  0  0  0
 26 27  1  0  0  0  0
 28 29  1  0  0  0  0
 28 31  1  0  0  0  0
 30 28  1  0  0  0  0
 32  5  1  0  0  0  0
 32 35  1  0  0  0  0
 33 32  1  0  0  0  0
 34 32  1  0  0  0  0
 36  6  1  0  0  0  0
 36 38  1  0  0  0  0
 37 36  1  0  0  0  0
 39 36  1  0  0  0  0
M  CHG  2   1  -1   2  -1
M  END
