2,3
q = -1.0, confidence = 0.036

 27 29  0  0  0  0  0  0  0  0999 V2000
    7.2622   -1.3892    0.8039 Br  0  0  0  0  0  0  0  0  0  0  0  0
    0.4346   -0.5614   -0.6607 O   0  5  0  0  0  0  0  0  0  0  0  0
   -1.6347    0.9898   -1.3086 O   0  5  0  0  0  0  0  0  0  0  0  0
    2.0207    2.7049   -0.7257 O   0  0  0  0  0  0  0  0  0  0  0  0
    0.6374    0.7327   -0.7533 C   0  0  0  0  0  0  0  0  0  0  0  0
   -0.5039    1.5596   -1.1034 C   0  0  0  0  0  0  0  0  0  0  0  0
   -0.3266    2.9835   -1.2186 C   0  0  0  0  0  0  0  0  0  0  0  0
   -1.3945    3.8770   -1.4894 C   0  0  0  0  0  3  0  0  0  0  0  0
   -2.4016    3.4537   -1.6048 H   0  0  0  0  0  0  0  0  0  0  0  0
   -1.1543    5.2429   -1.5753 C   0  0  0  0  0  0  0  0  0  0  0  0
   -1.9828    5.9372   -1.7778 H   0  0  0  0  0  0  0  0  0  0  0  0
    0.1561    5.7494   -1.3862 C   0  0  0  0  0  0  0  0  0  0  0  0
    0.3378    6.8326   -1.4514 H   0  0  0  0  0  0  0  0  0  0  0  0
    1.2197    4.8944   -1.1043 C   0  0  0  0  0  0  0  0  0  0  0  0
    2.2406    5.2666   -0.9404 H   0  0  0  0  0  0  0  0  0  0  0  0
    0.9737    3.5096   -1.0168 C   0  0  0  0  0  0  0  0  0  0  0  0
    1.8928    1.3489   -0.5772 C   0  0  0  0  0  0  0  0  0  0  0  0
    3.1516    0.6906   -0.2479 C   0  0  0  0  0  0  0  0  0  0  0  0
    3.2067   -0.6907    0.0768 C   0  0  0  0  0  0  0  0  0  0  0  0
    2.2725   -1.2656    0.0876 H   0  0  0  0  0  0  0  0  0  0  0  0
    4.4225   -1.3055    0.3914 C   0  0  0  0  0  0  0  0  0  0  0  0
    4.4526   -2.3740    0.6476 H   0  0  0  0  0  0  0  0  0  0  0  0
    5.6070   -0.5515    0.3849 C   0  0  0  0  0  0  0  0  0  0  0  0
    5.5809    0.8188    0.0734 C   0  0  0  0  0  0  0  0  0  0  0  0
    6.5124    1.4022    0.0748 H   0  0  0  0  0  0  0  0  0  0  0  0
    4.3637    1.4296   -0.2365 C   0  0  0  0  0  0  0  0  0  0  0  0
    4.3442    2.5007   -0.4777 H   0  0  0  0  0  0  0  0  0  0  0  0
  3  6  1  0  0  0  0
  4 17  1  0  0  0  0
  5  2  1  0  0  0  0
  5 17  2  0  0  0  0
  6  5  1  0  0  0  0
  7  6  2  0  0  0  0
  7 16  1  0  0  0  0
  8  7  1  0  0  0  0
  9  8  1  0  0  0  0
 10  8  1  0  0  0  0
 10 12  2  0  0  0  0
 11 10  1  0  0  0  0
 12 14  1  0  0  0  0
 13 12  1  0  0  0  0
 14 16  2  0  0  0  0
 14 15  1  0  0  0  0
 16  4  1  0  0  0  0
 17 18  1  0  0  0  0
 18 26  2  0  0  0  0
 18 19  1  0  0  0  0
 19 20  1  0  0  0  0
 19 21  2  0  0  0  0
 21 22  1  0  0  0  0
 23 21  1  0  0  0  0
 23  1  1  0  0  0  0
 24 25  1  0  0  0  0
 24 23  2  0  0  0  0
 26 24  1  0  0  0  0
 27 26  1  0  0  0  0
M  CHG  2   2  -1   3  -1
M  END
