1,2
q = -1.0, confidence = 0.006

 31 31  0  0  1  0  0  0  0  0999 V2000
   -0.7566    1.7725   -0.3148 O   0  0  0  0  0  1  0  0  0  0  0  0
   -0.5613   -1.0118   -1.0947 O   0  5  0  0  0  0  0  0  0  0  0  0
   -2.8529    2.7944   -0.4999 C   0  0  0  0  0  0  0  0  0  0  0  0
   -3.7827    2.5439    0.0485 H   0  0  0  0  0  0  0  0  0  0  0  0
   -3.1517    3.2323   -1.4752 H   0  0  0  0  0  0  0  0  0  0  0  0
   -2.2865    3.5548    0.0663 H   0  0  0  0  0  0  0  0  0  0  0  0
   -1.9743    1.5753   -0.6973 C   0  0  2  0  0  3  0  0  0  0  0  0
   -2.5262    0.3841   -1.2427 C   0  0  0  0  0  0  0  0  0  0  0  0
   -1.7988   -0.8393   -1.3743 C   0  0  0  0  0  0  0  0  0  0  0  0
   -2.5105   -2.0802   -1.8764 C   0  0  0  0  0  0  0  0  0  0  0  0
   -1.8337   -2.9473   -1.7762 H   0  0  0  0  0  0  0  0  0  0  0  0
   -2.7919   -1.9728   -2.9449 H   0  0  0  0  0  0  0  0  0  0  0  0
   -3.4442   -2.2723   -1.3110 H   0  0  0  0  0  0  0  0  0  0  0  0
   -3.9898    0.3882   -1.6467 C   0  0  0  0  0  0  0  0  0  0  0  0
   -4.2845    1.4016   -1.9892 H   0  0  0  0  0  0  0  0  0  0  0  0
   -4.1385   -0.2459   -2.5449 H   0  0  0  0  0  0  0  0  0  0  0  0
   -4.9892   -0.0557   -0.5856 C   0  0  0  0  0  0  0  0  0  0  0  0
   -4.6157   -0.2941    0.7490 C   0  0  0  0  0  0  0  0  0  0  0  0
   -3.5611   -0.1739    1.0414 H   0  0  0  0  0  0  0  0  0  0  0  0
   -5.5653   -0.6876    1.7025 C   0  0  0  0  0  0  0  0  0  0  0  0
   -5.2472   -0.8685    2.7417 H   0  0  0  0  0  0  0  0  0  0  0  0
   -6.9251   -0.8611    1.3633 C   0  0  0  0  0  0  0  0  0  0  0  0
   -7.2954   -0.6222    0.0168 C   0  0  0  0  0  0  0  0  0  0  0  0
   -8.3441   -0.7487   -0.2919 H   0  0  0  0  0  0  0  0  0  0  0  0
   -6.3489   -0.2299   -0.9306 C   0  0  0  0  0  0  0  0  0  0  0  0
   -6.6663   -0.0525   -1.9713 H   0  0  0  0  0  0  0  0  0  0  0  0
   -7.8807   -1.2766    2.4007 C   0  0  0  0  0  0  0  0  0  0  0  0
   -7.4345   -1.4242    3.4004 H   0  0  0  0  0  0  0  0  0  0  0  0
   -9.2068   -1.4890    2.2602 C   0  0  0  0  0  0  0  0  0  0  0  0
   -9.7269   -1.3632    1.2973 H   0  0  0  0  0  0  0  0  0  0  0  0
   -9.8231   -1.7998    3.1168 H   0  0  0  0  0  0  0  0  0  0  0  0
  3  4  1  0  0  0  0
  3  6  1  0  0  0  0
  5  3  1  0  0  0  0
  7  3  1  0  0  0  0
  7  1  1  1  0  0  0
  8  7  1  0  0  0  0
  9  8  2  0  0  0  0
  9  2  1  0  0  0  0
 10 11  1  0  0  0  0
 10  9  1  0  0  0  0
 10 13  1  0  0  0  0
 12 10  1  0  0  0  0
 14  8  1  0  0  0  0
 14 17  1  0  0  0  0
 15 14  1  0  0  0  0
 16 14  1  0  0  0  0
 17 18  1  0  0  0  0
 18 19  1  0  0  0  0
 18 20  2  0  0  0  0
 20 21  1  0  0  0  0
 22 20  1  0  0  0  0
 22 27  1  0  0  0  0
 23 22  2  0  0  0  0
 24 23  1  0  0  0  0
 25 17  2  0  0  0  0
 25 23  1  0  0  0  0
 26 25  1  0  0  0  0
 27 28  1  0  0  0  0
 29 27  2  0  0  0  0
 29 31  1  0  0  0  0
 30 29  1  0  0  0  0
M  CHG  1   2  -1
M  END
