1,2
q = -1.0

 20 20  0  0  0  0  0  0  0  0999 V2000
   -1.9207   -0.3083    1.0832 O   0  5  0  0  0  0  0  0  0  0  0  0
   -1.8863   -0.6898   -1.1239 O   0  5  0  0  0  0  0  0  0  0  0  0
   -5.9208   -1.3450    3.7238 O   0  0  0  0  0  0  0  0  0  0  0  0
   -6.5194   -1.4289    4.4965 H   0  0  0  0  0  0  0  0  0  0  0  0
   -7.7711   -2.2478    2.7875 O   0  0  0  0  0  0  0  0  0  0  0  0
   -5.7816   -2.7115   -3.3316 O   0  0  0  0  0  0  0  0  0  0  0  0
   -6.3490   -3.0879   -4.0380 H   0  0  0  0  0  0  0  0  0  0  0  0
   -7.6691   -3.2235   -2.1956 O   0  0  0  0  0  0  0  0  0  0  0  0
   -3.8697   -1.2679    0.0877 C   0  0  0  0  0  0  0  0  0  0  0  0
   -4.5501   -1.2891    1.3180 C   0  0  0  0  0  0  0  0  0  0  0  0
   -4.0373   -0.9122    2.2131 H   0  0  0  0  0  0  0  0  0  0  0  0
   -5.8652   -1.7875    1.3905 C   0  0  0  0  0  0  0  0  0  0  0  0
   -6.4969   -2.2677    0.2300 C   0  0  0  0  0  0  0  0  0  0  0  0
   -7.5235   -2.6579    0.2859 H   0  0  0  0  0  0  0  0  0  0  0  0
   -5.8180   -2.2527   -1.0009 C   0  0  0  0  0  0  0  0  0  0  0  0
   -4.5032   -1.7530   -1.0698 C   0  0  0  0  0  0  0  0  0  0  0  0
   -3.9531   -1.7373   -2.0203 H   0  0  0  0  0  0  0  0  0  0  0  0
   -2.4678   -0.7262    0.0066 C   0  0  0  0  0  3  0  0  0  0  0  0
   -6.6317   -1.8297    2.6721 C   0  0  0  0  0  0  0  0  0  0  0  0
   -6.5341   -2.7787   -2.2016 C   0  0  0  0  0  0  0  0  0  0  0  0
  2 18  1  0  0  0  0
  3  4  1  0  0  0  0
  6 20  1  0  0  0  0
  7  6  1  0  0  0  0
  9 10  1  0  0  0  0
 10 12  2  0  0  0  0
 10 11  1  0  0  0  0
 12 19  1  0  0  0  0
 13 14  1  0  0  0  0
 13 12  1  0  0  0  0
 15 13  2  0  0  0  0
 16 15  1  0  0  0  0
 16  9  2  0  0  0  0
 17 16  1  0  0  0  0
 18  9  1  0  0  0  0
 18  1  1  0  0  0  0
 19  5  2  0  0  0  0
 19  3  1  0  0  0  0
 20  8  2  0  0  0  0
 20 15  1  0  0  0  0
M  CHG  2   1  -1   2  -1
M  END
