1,3
q = -1.0, confidence = 0.034

 17 17  0  0  0  0  0  0  0  0999 V2000
   -1.8409   -0.0524    0.9578 O   0  5  0  0  0  0  0  0  0  0  0  0
   -6.7645    0.0497    2.3878 O   0  0  0  0  0  0  0  0  0  0  0  0
   -1.9014    0.0620   -1.2684 O   0  5  0  0  0  0  0  0  0  0  0  0
   -2.5031    0.0085   -0.1404 C   0  0  0  0  0  3  0  0  0  0  0  0
   -4.6582    0.0218    1.1515 C   0  0  0  0  0  0  0  0  0  0  0  0
   -4.0480    0.0333    2.0691 H   0  0  0  0  0  0  0  0  0  0  0  0
   -3.9911    0.0123   -0.0942 C   0  0  0  0  0  0  0  0  0  0  0  0
   -6.0497    0.0249    1.2144 C   0  0  0  0  0  0  0  0  0  0  0  0
   -8.2079   -0.0290    0.1326 N   0  0  0  0  0  0  0  0  0  0  0  0
   -4.7548    0.0096   -1.2763 C   0  0  0  0  0  0  0  0  0  0  0  0
   -4.2261    0.0031   -2.2399 H   0  0  0  0  0  0  0  0  0  0  0  0
   -6.8319    0.0169    0.0212 C   0  0  0  0  0  0  0  0  0  0  0  0
   -6.1529    0.0114   -1.2172 C   0  0  0  0  0  0  0  0  0  0  0  0
   -6.7471    0.0046   -2.1449 H   0  0  0  0  0  0  0  0  0  0  0  0
   -6.1311    0.0877    3.1273 H   0  0  0  0  0  0  0  0  0  0  0  0
   -8.7524    0.2791   -0.6718 H   0  0  0  0  0  0  0  0  0  0  0  0
   -8.5854    0.2383    1.0423 H   0  0  0  0  0  0  0  0  0  0  0  0
  2 15  1  0  0  0  0
  3  4  1  0  0  0  0
  4  7  1  0  0  0  0
  4  1  1  0  0  0  0
  5  8  1  0  0  0  0
  5  6  1  0  0  0  0
  7  5  2  0  0  0  0
  8  2  1  0  0  0  0
  9 17  1  0  0  0  0
 10 13  2  0  0  0  0
 10  7  1  0  0  0  0
 11 10  1  0  0  0  0
 12  9  1  0  0  0  0
 12  8  2  0  0  0  0
 13 12  1  0  0  0  0
 14 13  1  0  0  0  0
 16  9  1  0  0  0  0
M  CHG  2   1  -1   3  -1
M  END
