20,21
q = -1.0

 27 28  0  0  1  0  0  0  0  0999 V2000
    2.6905    1.0123   -0.0555 N   0  0  0  0  0  0  0  0  0  0  0  0
    3.7079    0.0479   -0.2724 C   0  0  0  0  0  0  0  0  0  0  0  0
    3.4085   -1.3213   -0.4420 C   0  0  0  0  0  0  0  0  0  0  0  0
    2.3669   -1.6567   -0.4087 H   0  0  0  0  0  0  0  0  0  0  0  0
    4.4522   -2.2350   -0.6451 C   0  0  0  0  0  0  0  0  0  0  0  0
    4.2080   -3.3011   -0.7713 H   0  0  0  0  0  0  0  0  0  0  0  0
    5.7887   -1.8103   -0.6843 C   0  0  0  0  0  0  0  0  0  0  0  0
    6.6000   -2.5359   -0.8447 H   0  0  0  0  0  0  0  0  0  0  0  0
    6.0775   -0.4466   -0.5132 C   0  0  0  0  0  0  0  0  0  0  0  0
    7.1205   -0.0955   -0.5385 H   0  0  0  0  0  0  0  0  0  0  0  0
    5.0505    0.4819   -0.3079 C   0  0  0  0  0  0  0  0  0  0  0  0
    5.2582    1.5496   -0.1658 H   0  0  0  0  0  0  0  0  0  0  0  0
    3.0528    2.3156    0.2255 N   0  0  0  0  0  0  0  0  0  0  0  0
    1.9379    3.0075    0.3695 C   0  0  0  0  0  0  0  0  0  0  0  0
    2.0230    4.4628    0.7062 C   0  0  0  0  0  0  0  0  0  0  0  0
    3.0861    4.7372    0.8376 H   0  0  0  0  0  0  0  0  0  0  0  0
    1.4806    4.7011    1.6440 H   0  0  0  0  0  0  0  0  0  0  0  0
    1.5981    5.1034   -0.0945 H   0  0  0  0  0  0  0  0  0  0  0  0
    0.7739    2.1623    0.1953 C   0  0  0  0  0  0  0  0  0  0  0  0
    0.7370   -0.2501   -0.3563 O   0  5  0  0  0  0  0  0  0  0  0  0
   -1.5217    1.5601    0.0548 O   0  0  0  0  0  1  0  0  0  0  0  0
    1.3149    0.8547   -0.0779 C   0  0  0  0  0  0  0  0  0  0  0  0
   -0.6148    2.4372    0.1794 C   0  0  2  0  0  3  0  0  0  0  0  0
   -1.0876    3.8824    0.3116 C   0  0  0  0  0  0  0  0  0  0  0  0
   -0.5455    4.5357   -0.3972 H   0  0  0  0  0  0  0  0  0  0  0  0
   -0.8673    4.2397    1.3376 H   0  0  0  0  0  0  0  0  0  0  0  0
   -2.8376    4.0957    0.0270 Cl  0  0  0  0  0  0  0  0  0  0  0  0
  1 13  1  0  0  0  0
  2  1  1  0  0  0  0
  3  4  1  0  0  0  0
  3  2  2  0  0  0  0
  5  3  1  0  0  0  0
  6  5  1  0  0  0  0
  7  5  2  0  0  0  0
  7  9  1  0  0  0  0
  8  7  1  0  0  0  0
  9 11  2  0  0  0  0
 10  9  1  0  0  0  0
 11  2  1  0  0  0  0
 11 12  1  0  0  0  0
 13 14  2  0  0  0  0
 14 15  1  0  0  0  0
 15 16  1  0  0  0  0
 15 17  1  0  0  0  0
 18 15  1  0  0  0  0
 19 14  1  0  0  0  0
 20 22  1  0  0  0  0
 22  1  1  0  0  0  0
 22 19  2  0  0  0  0
 23 21  1  6  0  0  0
 23 19  1  0  0  0  0
 23 24  1  0  0  0  0
 24 26  1  0  0  0  0
 25 24  1  0  0  0  0
 27 24  1  0  0  0  0
M  CHG  1  20  -1
M  END
