2,3
q = -1.0, confidence = 0.044

 34 36  0  0  1  0  0  0  0  0999 V2000
   -8.4827    0.1645   -0.0367 Cl  0  0  0  0  0  0  0  0  0  0  0  0
   -1.8616    0.1895    0.1565 O   0  0  0  0  0  1  0  0  0  0  0  0
    0.3346    1.8078   -0.3834 O   0  5  0  0  0  0  0  0  0  0  0  0
   -4.5727    0.0017    0.8847 C   0  0  0  0  0  0  0  0  0  0  0  0
   -3.9038   -0.5975    1.5194 H   0  0  0  0  0  0  0  0  0  0  0  0
   -5.9433   -0.2688    0.8505 C   0  0  0  0  0  0  0  0  0  0  0  0
   -6.3775   -1.0731    1.4606 H   0  0  0  0  0  0  0  0  0  0  0  0
   -6.7760    0.5008    0.0175 C   0  0  0  0  0  0  0  0  0  0  0  0
   -6.2468    1.5304   -0.7796 C   0  0  0  0  0  0  0  0  0  0  0  0
   -6.9105    2.1017   -1.4432 H   0  0  0  0  0  0  0  0  0  0  0  0
   -4.8753    1.8030   -0.7239 C   0  0  0  0  0  0  0  0  0  0  0  0
   -4.4481    2.5843   -1.3684 H   0  0  0  0  0  0  0  0  0  0  0  0
   -4.0259    1.0535    0.1162 C   0  0  0  0  0  0  0  0  0  0  0  0
   -2.5587    1.2766    0.1335 C   0  0  2  0  0  3  0  0  0  0  0  0
   -1.9580    2.5578    0.1172 C   0  0  0  0  0  0  0  0  0  0  0  0
   -2.4165    3.9091    0.3804 C   0  0  0  0  0  0  0  0  0  0  0  0
   -1.4121    4.7651    0.3082 N   0  0  0  0  0  0  0  0  0  0  0  0
   -0.2738    4.0472   -0.0048 N   0  0  0  0  0  0  0  0  0  0  0  0
   -0.5428    2.6996   -0.1069 C   0  0  0  0  0  0  0  0  0  0  0  0
   -3.7704    4.4055    0.7806 C   0  0  0  0  0  0  0  0  0  0  0  0
   -3.6635    5.4096    1.2314 H   0  0  0  0  0  0  0  0  0  0  0  0
   -4.2509    3.7253    1.5105 H   0  0  0  0  0  0  0  0  0  0  0  0
   -4.4600    4.4921   -0.0833 H   0  0  0  0  0  0  0  0  0  0  0  0
    0.9688    4.7231   -0.1243 C   0  0  0  0  0  0  0  0  0  0  0  0
    1.0027    6.1152    0.1011 C   0  0  0  0  0  0  0  0  0  0  0  0
    0.0666    6.6273    0.3559 H   0  0  0  0  0  0  0  0  0  0  0  0
    2.2164    6.8050    0.0009 C   0  0  0  0  0  0  0  0  0  0  0  0
    2.2323    7.8909    0.1799 H   0  0  0  0  0  0  0  0  0  0  0  0
    3.4032    6.1263   -0.3203 C   0  0  0  0  0  0  0  0  0  0  0  0
    4.3547    6.6735   -0.3947 H   0  0  0  0  0  0  0  0  0  0  0  0
    3.3603    4.7423   -0.5451 C   0  0  0  0  0  0  0  0  0  0  0  0
    4.2816    4.1947   -0.7970 H   0  0  0  0  0  0  0  0  0  0  0  0
    2.1550    4.0322   -0.4546 C   0  0  0  0  0  0  0  0  0  0  0  0
    2.1249    2.9519   -0.6355 H   0  0  0  0  0  0  0  0  0  0  0  0
  1  8  1  0  0  0  0
  3 19  1  0  0  0  0
  4  5  1  0  0  0  0
  6  4  1  0  0  0  0
  6  7  1  0  0  0  0
  8  6  2  0  0  0  0
  9 11  2  0  0  0  0
  9  8  1  0  0  0  0
 10  9  1  0  0  0  0
 11 13  1  0  0  0  0
 12 11  1  0  0  0  0
 13 14  1  0  0  0  0
 13  4  2  0  0  0  0
 14  2  1  6  0  0  0
 15 14  1  0  0  0  0
 15 16  1  0  0  0  0
 16 20  1  0  0  0  0
 17 16  2  0  0  0  0
 18 17  1  0  0  0  0
 19 18  1  0  0  0  0
 19 15  2  0  0  0  0
 20 21  1  0  0  0  0
 20 22  1  0  0  0  0
 23 20  1  0  0  0  0
 24 18  1  0  0  0  0
 24 25  1  0  0  0  0
 25 26  1  0  0  0  0
 27 25  2  0  0  0  0
 27 28  1  0  0  0  0
 29 27  1  0  0  0  0
 30 29  1  0  0  0  0
 31 33  1  0  0  0  0
 31 29  2  0  0  0  0
 32 31  1  0  0  0  0
 33 24  2  0  0  0  0
 34 33  1  0  0  0  0
M  CHG  1   3  -1
M  END
