1,2
q = -1.0, confidence = 0.004

 19 19  0  0  1  0  0  0  0  0999 V2000
   -1.7564   -0.6112   -1.2265 O   0  0  0  0  0  1  0  0  0  0  0  0
   -0.7860    1.6936   -1.1354 O   0  0  0  0  0  1  0  0  0  0  0  0
   -5.7836   -1.2772   -2.0923 O   0  0  0  0  0  0  0  0  0  0  0  0
   -2.5826    0.3742   -1.5827 N   0  0  0  0  0  0  0  0  0  0  0  0
   -3.8102   -2.2592   -1.4412 N   0  0  0  0  0  0  0  0  0  0  0  0
   -2.8106   -2.0591   -1.2872 H   0  0  0  0  0  0  0  0  0  0  0  0
   -1.9928    1.6456   -1.5664 C   0  0  1  0  0  3  0  0  0  0  0  0
   -2.7786    2.7313   -2.0170 C   0  0  0  0  0  0  0  0  0  0  0  0
   -2.3040    3.7214   -2.0313 H   0  0  0  0  0  0  0  0  0  0  0  0
   -4.1079    2.5254   -2.3860 C   0  0  0  0  0  0  0  0  0  0  0  0
   -4.7229    3.3756   -2.7164 H   0  0  0  0  0  0  0  0  0  0  0  0
   -4.6688    1.2403   -2.3176 C   0  0  0  0  0  0  0  0  0  0  0  0
   -5.7171    1.0217   -2.5593 H   0  0  0  0  0  0  0  0  0  0  0  0
   -3.8965    0.1503   -1.9101 C   0  0  0  0  0  0  0  0  0  0  0  0
   -4.5821   -1.2067   -1.8244 C   0  0  0  0  0  0  0  0  0  0  0  0
   -4.3486   -3.5940   -1.3194 C   0  0  0  0  0  0  0  0  0  0  0  0
   -4.1950   -3.9913   -0.2942 H   0  0  0  0  0  0  0  0  0  0  0  0
   -3.8696   -4.2911   -2.0395 H   0  0  0  0  0  0  0  0  0  0  0  0
   -5.4330   -3.5475   -1.5318 H   0  0  0  0  0  0  0  0  0  0  0  0
  3 15  2  0  0  0  0
  4  7  1  0  0  0  0
  4  1  1  0  0  0  0
  5 16  1  0  0  0  0
  5  6  1  0  0  0  0
  7  2  1  1  0  0  0
  8  7  1  0  0  0  0
  9  8  1  0  0  0  0
 10 12  1  0  0  0  0
 10  8  2  0  0  0  0
 11 10  1  0  0  0  0
 12 14  2  0  0  0  0
 13 12  1  0  0  0  0
 14 15  1  0  0  0  0
 14  4  1  0  0  0  0
 15  5  1  0  0  0  0
 16 17  1  0  0  0  0
 18 16  1  0  0  0  0
 19 16  1  0  0  0  0
M  END
