1,2
q = -1.0, confidence = 0.004

 29 29  0  0  0  0  0  0  0  0999 V2000
   -1.5569    0.5816    0.9493 O   0  5  0  0  0  0  0  0  0  0  0  0
   -1.7331    1.3357   -1.1390 O   0  5  0  0  0  0  0  0  0  0  0  0
  -10.6547   -4.4325    1.2341 O   0  0  0  0  0  0  0  0  0  0  0  0
   -9.3416   -2.2635   -2.1251 O   0  0  0  0  0  0  0  0  0  0  0  0
   -7.8594   -2.5261    0.2636 N   0  0  0  0  0  0  0  0  0  0  0  0
   -7.3062   -1.8190   -0.6779 N   0  0  0  0  0  0  0  0  0  0  0  0
   -7.8704   -1.7296   -1.5668 H   0  0  0  0  0  0  0  0  0  0  0  0
   -6.0495   -1.2220   -0.5134 C   0  0  0  0  0  0  0  0  0  0  0  0
   -9.0619   -3.0840    0.0777 C   0  0  0  0  0  0  0  0  0  0  0  0
   -5.3123   -1.3562    0.6834 C   0  0  0  0  0  0  0  0  0  0  0  0
   -5.7365   -1.9484    1.5052 H   0  0  0  0  0  0  0  0  0  0  0  0
   -5.5298   -0.4724   -1.5914 C   0  0  0  0  0  0  0  0  0  0  0  0
   -6.1138   -0.3791   -2.5201 H   0  0  0  0  0  0  0  0  0  0  0  0
   -3.5376    0.0167   -0.2789 C   0  0  0  0  0  0  0  0  0  0  0  0
  -11.1750   -3.5780   -1.3642 C   0  0  0  0  0  0  0  0  0  0  0  0
  -11.5440   -3.3308   -2.3766 H   0  0  0  0  0  0  0  0  0  0  0  0
  -11.8826   -3.2329   -0.5853 H   0  0  0  0  0  0  0  0  0  0  0  0
  -11.1125   -4.6741   -1.2186 H   0  0  0  0  0  0  0  0  0  0  0  0
   -9.8248   -2.9350   -1.1859 C   0  0  0  0  0  0  0  0  0  0  0  0
   -9.5631   -3.8639    1.2479 C   0  0  0  0  0  0  0  0  0  0  0  0
   -4.0660   -0.7378    0.7903 C   0  0  0  0  0  0  0  0  0  0  0  0
   -3.4646   -0.8268    1.7065 H   0  0  0  0  0  0  0  0  0  0  0  0
   -4.2804    0.1400   -1.4698 C   0  0  0  0  0  0  0  0  0  0  0  0
   -3.8491    0.7260   -2.2938 H   0  0  0  0  0  0  0  0  0  0  0  0
   -2.2008    0.6775   -0.1494 C   0  0  0  0  0  3  0  0  0  0  0  0
   -8.6644   -3.9313    2.4729 C   0  0  0  0  0  0  0  0  0  0  0  0
   -9.1742   -4.5377    3.2426 H   0  0  0  0  0  0  0  0  0  0  0  0
   -8.4497   -2.9174    2.8647 H   0  0  0  0  0  0  0  0  0  0  0  0
   -7.6830   -4.3797    2.2211 H   0  0  0  0  0  0  0  0  0  0  0  0
  2 25  1  0  0  0  0
  3 20  2  0  0  0  0
  4 19  2  0  0  0  0
  6  8  1  0  0  0  0
  6  5  1  0  0  0  0
  7  6  1  0  0  0  0
  8 10  1  0  0  0  0
  9  5  2  0  0  0  0
  9 20  1  0  0  0  0
 10 21  2  0  0  0  0
 10 11  1  0  0  0  0
 12 23  1  0  0  0  0
 12  8  2  0  0  0  0
 13 12  1  0  0  0  0
 14 25  1  0  0  0  0
 14 21  1  0  0  0  0
 15 18  1  0  0  0  0
 15 19  1  0  0  0  0
 15 17  1  0  0  0  0
 16 15  1  0  0  0  0
 19  9  1  0  0  0  0
 20 26  1  0  0  0  0
 21 22  1  0  0  0  0
 23 14  2  0  0  0  0
 24 23  1  0  0  0  0
 25  1  1  0  0  0  0
 26 28  1  0  0  0  0
 26 27  1  0  0  0  0
 29 26  1  0  0  0  0
M  CHG  2   1  -1   2  -1
M  END
