1,2
q = -1.0

 14 13  0  0  0  0  0  0  0  0999 V2000
    1.8154    0.6471    0.1521 O   0  5  0  0  0  0  0  0  0  0  0  0
    1.1431   -1.9224   -0.0389 O   0  5  0  0  0  0  0  0  0  0  0  0
    2.3594   -1.6818    0.0904 C   0  0  0  0  0  0  0  0  0  0  0  0
    3.3305   -2.8322    0.1764 C   0  0  0  0  0  0  0  0  0  0  0  0
    2.8077   -3.7602   -0.1169 H   0  0  0  0  0  0  0  0  0  0  0  0
    3.6833   -2.9379    1.2234 H   0  0  0  0  0  0  0  0  0  0  0  0
    4.2155   -2.6796   -0.4694 H   0  0  0  0  0  0  0  0  0  0  0  0
    2.7817   -0.2509    0.2004 C   0  0  0  0  0  0  0  0  0  0  0  0
    4.1123    0.0669    0.3683 C   0  0  0  0  0  3  0  0  0  0  0  0
    4.8487   -0.7497    0.3915 H   0  0  0  0  0  0  0  0  0  0  0  0
    4.5953    1.4689    0.5370 C   0  0  0  0  0  0  0  0  0  0  0  0
    5.2206    1.5812    1.4506 H   0  0  0  0  0  0  0  0  0  0  0  0
    3.7403    2.1689    0.5976 H   0  0  0  0  0  0  0  0  0  0  0  0
    5.2417    1.7898   -0.3119 H   0  0  0  0  0  0  0  0  0  0  0  0
  1  8  1  0  0  0  0
  2  3  1  0  0  0  0
  3  4  1  0  0  0  0
  3  8  2  0  0  0  0
  4  6  1  0  0  0  0
  5  4  1  0  0  0  0
  7  4  1  0  0  0  0
  8  9  1  0  0  0  0
  9 10  1  0  0  0  0
  9 11  1  0  0  0  0
 11 13  1  0  0  0  0
 11 12  1  0  0  0  0
 14 11  1  0  0  0  0
M  CHG  2   1  -1   2  -1
M  END
