1,2
q = -1.0

 30 31  0  0  1  0  0  0  0  0999 V2000
   -0.9625   -2.3884   -0.7761 O   0  0  0  0  0  1  0  0  0  0  0  0
   -1.4950    0.5410   -0.4386 O   0  5  0  0  0  0  0  0  0  0  0  0
   -3.8291    0.7604   -0.2926 N   0  0  0  0  0  0  0  0  0  0  0  0
   -4.9574   -0.0319   -0.3440 N   0  0  0  0  0  0  0  0  0  0  0  0
   -4.5487   -1.2776   -0.5051 C   0  0  0  0  0  0  0  0  0  0  0  0
   -3.1010   -1.3547   -0.5689 C   0  0  0  0  0  0  0  0  0  0  0  0
   -2.6659    0.0185   -0.4279 C   0  0  0  0  0  0  0  0  0  0  0  0
   -5.5803   -2.3591   -0.5819 C   0  0  0  0  0  0  0  0  0  0  0  0
   -6.5807   -1.8990   -0.4801 H   0  0  0  0  0  0  0  0  0  0  0  0
   -5.4557   -3.1106    0.2242 H   0  0  0  0  0  0  0  0  0  0  0  0
   -5.5414   -2.9054   -1.5464 H   0  0  0  0  0  0  0  0  0  0  0  0
   -3.9834    2.1633   -0.1472 C   0  0  0  0  0  0  0  0  0  0  0  0
   -2.8834    3.0087    0.1154 C   0  0  0  0  0  0  0  0  0  0  0  0
   -1.8814    2.5772    0.2112 H   0  0  0  0  0  0  0  0  0  0  0  0
   -3.0923    4.3886    0.2513 C   0  0  0  0  0  0  0  0  0  0  0  0
   -2.2290    5.0399    0.4576 H   0  0  0  0  0  0  0  0  0  0  0  0
   -4.3765    4.9413    0.1346 C   0  0  0  0  0  0  0  0  0  0  0  0
   -4.5285    6.0256    0.2433 H   0  0  0  0  0  0  0  0  0  0  0  0
   -5.4660    4.0922   -0.1193 C   0  0  0  0  0  0  0  0  0  0  0  0
   -6.4811    4.5083   -0.2105 H   0  0  0  0  0  0  0  0  0  0  0  0
   -5.2789    2.7125   -0.2607 C   0  0  0  0  0  0  0  0  0  0  0  0
   -6.1182    2.0326   -0.4534 H   0  0  0  0  0  0  0  0  0  0  0  0
   -2.2329   -2.4751   -0.7531 C   0  0  1  0  0  3  0  0  0  0  0  0
   -2.8060   -3.8714   -0.9402 C   0  0  0  0  0  0  0  0  0  0  0  0
   -3.5054   -3.8434   -1.8031 H   0  0  0  0  0  0  0  0  0  0  0  0
   -3.4496   -4.0960   -0.0628 H   0  0  0  0  0  0  0  0  0  0  0  0
   -1.7492   -4.9544   -1.1300 C   0  0  0  0  0  0  0  0  0  0  0  0
   -1.1227   -4.7510   -2.0197 H   0  0  0  0  0  0  0  0  0  0  0  0
   -2.2273   -5.9452   -1.2577 H   0  0  0  0  0  0  0  0  0  0  0  0
   -1.0672   -5.0045   -0.2594 H   0  0  0  0  0  0  0  0  0  0  0  0
  2  7  1  0  0  0  0
  3 12  1  0  0  0  0
  4  3  1  0  0  0  0
  5  4  2  0  0  0  0
  6  5  1  0  0  0  0
  6  7  2  0  0  0  0
  7  3  1  0  0  0  0
  8  5  1  0  0  0  0
  8  9  1  0  0  0  0
  8 10  1  0  0  0  0
 11  8  1  0  0  0  0
 12 13  1  0  0  0  0
 13 14  1  0  0  0  0
 13 15  2  0  0  0  0
 15 16  1  0  0  0  0
 17 18  1  0  0  0  0
 17 15  1  0  0  0  0
 19 17  2  0  0  0  0
 20 19  1  0  0  0  0
 21 12  2  0  0  0  0
 21 19  1  0  0  0  0
 22 21  1  0  0  0  0
 23  1  1  6  0  0  0
 23  6  1  0  0  0  0
 24 23  1  0  0  0  0
 24 26  1  0  0  0  0
 25 24  1  0  0  0  0
 27 24  1  0  0  0  0
 27 30  1  0  0  0  0
 28 27  1  0  0  0  0
 29 27  1  0  0  0  0
M  CHG  1   2  -1
M  END
