1,2
q = -1.0

 36 36  0  0  1  0  0  0  0  0999 V2000
    0.3187    1.4217    0.0040 O   0  0  0  0  0  1  0  0  0  0  0  0
    0.2849   -1.5079    0.0037 O   0  5  0  0  0  0  0  0  0  0  0  0
   -1.7716    2.4910    0.0105 C   0  0  0  0  0  0  0  0  0  0  0  0
   -1.0915    3.3614    0.0031 H   0  0  0  0  0  0  0  0  0  0  0  0
   -2.4286    2.5375    0.9018 H   0  0  0  0  0  0  0  0  0  0  0  0
   -2.4426    2.5330   -0.8705 H   0  0  0  0  0  0  0  0  0  0  0  0
   -0.9558    1.2163    0.0080 C   0  0  2  0  0  3  0  0  0  0  0  0
   -1.6268   -0.0367    0.0105 C   0  0  0  0  0  0  0  0  0  0  0  0
   -0.9799   -1.3103    0.0079 C   0  0  0  0  0  0  0  0  0  0  0  0
   -1.8304   -2.5639    0.0106 C   0  0  0  0  0  0  0  0  0  0  0  0
   -1.1739   -3.4525    0.0024 H   0  0  0  0  0  0  0  0  0  0  0  0
   -2.5040   -2.5885   -0.8692 H   0  0  0  0  0  0  0  0  0  0  0  0
   -2.4888   -2.5939    0.9017 H   0  0  0  0  0  0  0  0  0  0  0  0
   -3.1273   -0.0184    0.0165 C   0  0  0  0  0  0  0  0  0  0  0  0
   -3.8644   -0.0100   -1.1871 C   0  0  0  0  0  0  0  0  0  0  0  0
   -3.3211   -0.0149   -2.1455 H   0  0  0  0  0  0  0  0  0  0  0  0
   -5.2642    0.0050   -1.1787 C   0  0  0  0  0  0  0  0  0  0  0  0
   -5.7977    0.0115   -2.1418 H   0  0  0  0  0  0  0  0  0  0  0  0
   -5.9978    0.0123    0.0289 C   0  0  0  0  0  0  0  0  0  0  0  0
   -5.2586    0.0040    1.2283 C   0  0  0  0  0  0  0  0  0  0  0  0
   -5.7779    0.0094    2.1964 H   0  0  0  0  0  0  0  0  0  0  0  0
   -3.8546   -0.0110    1.2220 C   0  0  0  0  0  0  0  0  0  0  0  0
   -3.3046   -0.0168    2.1766 H   0  0  0  0  0  0  0  0  0  0  0  0
   -7.5361    0.0290   -0.0067 C   0  0  0  0  0  0  0  0  0  0  0  0
   -8.1499    0.0351    1.4038 C   0  0  0  0  0  0  0  0  0  0  0  0
   -7.8439    0.9294    1.9832 H   0  0  0  0  0  0  0  0  0  0  0  0
   -7.8634   -0.8662    1.9825 H   0  0  0  0  0  0  0  0  0  0  0  0
   -9.2562    0.0472    1.3318 H   0  0  0  0  0  0  0  0  0  0  0  0
   -8.0132    1.2969   -0.7512 C   0  0  0  0  0  0  0  0  0  0  0  0
   -9.1217    1.3266   -0.7950 H   0  0  0  0  0  0  0  0  0  0  0  0
   -7.6342    1.3308   -1.7918 H   0  0  0  0  0  0  0  0  0  0  0  0
   -7.6638    2.2139   -0.2349 H   0  0  0  0  0  0  0  0  0  0  0  0
   -8.0405   -1.2278   -0.7521 C   0  0  0  0  0  0  0  0  0  0  0  0
   -7.7112   -2.1524   -0.2364 H   0  0  0  0  0  0  0  0  0  0  0  0
   -7.6621   -1.2690   -1.7927 H   0  0  0  0  0  0  0  0  0  0  0  0
   -9.1494   -1.2334   -0.7962 H   0  0  0  0  0  0  0  0  0  0  0  0
  2  9  1  0  0  0  0
  3  5  1  0  0  0  0
  4  3  1  0  0  0  0
  6  3  1  0  0  0  0
  7  1  1  1  0  0  0
  7  8  1  0  0  0  0
  7  3  1  0  0  0  0
  8 14  1  0  0  0  0
  9  8  2  0  0  0  0
  9 10  1  0  0  0  0
 10 13  1  0  0  0  0
 11 10  1  0  0  0  0
 12 10  1  0  0  0  0
 14 22  1  0  0  0  0
 15 17  1  0  0  0  0
 15 14  2  0  0  0  0
 16 15  1  0  0  0  0
 17 19  2  0  0  0  0
 18 17  1  0  0  0  0
 19 20  1  0  0  0  0
 20 21  1  0  0  0  0
 22 20  2  0  0  0  0
 22 23  1  0  0  0  0
 24 19  1  0  0  0  0
 24 25  1  0  0  0  0
 25 27  1  0  0  0  0
 25 26  1  0  0  0  0
 28 25  1  0  0  0  0
 29 32  1  0  0  0  0
 29 24  1  0  0  0  0
 30 29  1  0  0  0  0
 31 29  1  0  0  0  0
 33 34  1  0  0  0  0
 33 24  1  0  0  0  0
 35 33  1  0  0  0  0
 36 33  1  0  0  0  0
M  CHG  1   2  -1
M  END
