1,2
q = -1.0, confidence = 0.0

 17 18  0  0  0  0  0  0  0  0999 V2000
   -1.8357   -0.6276    1.2299 O   0  5  0  0  0  0  0  0  0  0  0  0
   -2.3435    0.4581   -0.6632 O   0  5  0  0  0  0  0  0  0  0  0  0
   -6.5075   -2.2163    2.8909 O   0  0  0  0  0  0  0  0  0  0  0  0
   -8.0748   -1.4816    1.3498 O   0  0  0  0  0  0  0  0  0  0  0  0
   -2.6871   -0.2008    0.3755 C   0  0  0  0  0  3  0  0  0  0  0  0
   -4.1372   -0.5116    0.5900 C   0  0  0  0  0  0  0  0  0  0  0  0
   -4.5222   -1.2502    1.7414 C   0  0  0  0  0  0  0  0  0  0  0  0
   -3.7611   -1.5900    2.4552 H   0  0  0  0  0  0  0  0  0  0  0  0
   -5.8747   -1.5076    1.8981 C   0  0  0  0  0  0  0  0  0  0  0  0
   -6.8302   -1.0666    0.9627 C   0  0  0  0  0  0  0  0  0  0  0  0
   -6.4702   -0.3476   -0.1741 C   0  0  0  0  0  0  0  0  0  0  0  0
   -7.2260   -0.0141   -0.8982 H   0  0  0  0  0  0  0  0  0  0  0  0
   -5.0974   -0.0743   -0.3433 C   0  0  0  0  0  0  0  0  0  0  0  0
   -4.7429    0.4930   -1.2152 H   0  0  0  0  0  0  0  0  0  0  0  0
   -7.9065   -2.0563    2.6535 C   0  0  0  0  0  0  0  0  0  0  0  0
   -8.3453   -1.3701    3.4191 H   0  0  0  0  0  0  0  0  0  0  0  0
   -8.4097   -3.0465    2.6897 H   0  0  0  0  0  0  0  0  0  0  0  0
  2  5  1  0  0  0  0
  4 15  1  0  0  0  0
  5  6  1  0  0  0  0
  5  1  1  0  0  0  0
  6  7  1  0  0  0  0
  7  9  2  0  0  0  0
  7  8  1  0  0  0  0
  9  3  1  0  0  0  0
 10  4  1  0  0  0  0
 10  9  1  0  0  0  0
 11 10  2  0  0  0  0
 12 11  1  0  0  0  0
 13 11  1  0  0  0  0
 13  6  2  0  0  0  0
 14 13  1  0  0  0  0
 15 17  1  0  0  0  0
 15  3  1  0  0  0  0
 15 16  1  0  0  0  0
M  CHG  2   1  -1   2  -1
M  END
