1,2
q = -2.0, confidence = 0.884

 16 16  0  0  0  0  0  0  0  0999 V2000
   -1.0029   -1.2156    0.2976 O   0  5  0  0  0  0  0  0  0  0  0  0
   -1.1086    1.0111    0.4409 O   0  5  0  0  0  0  0  0  0  0  0  0
   -8.0733    0.6496   -0.4816 O   0  5  0  0  0  0  0  0  0  0  0  0
   -8.0591   -1.4520    0.4208 O   0  0  0  0  0  0  0  0  0  0  0  0
   -1.7189   -0.1351    0.3625 C   0  0  0  0  0  3  0  0  0  0  0  0
   -3.1796   -0.1978    0.3120 C   0  0  0  0  0  0  0  0  0  0  0  0
   -3.9548    0.9922    0.3468 C   0  0  0  0  0  0  0  0  0  0  0  0
   -5.3426    0.9277    0.2357 C   0  0  0  0  0  0  0  0  0  0  0  0
   -6.0047   -0.3162    0.1302 C   0  0  0  0  0  0  0  0  0  0  0  0
   -5.2338   -1.5005    0.1265 C   0  0  0  0  0  0  0  0  0  0  0  0
   -3.8425   -1.4485    0.1932 C   0  0  0  0  0  0  0  0  0  0  0  0
   -7.5434   -0.3798    0.0119 C   0  0  0  0  0  0  0  0  0  0  0  0
   -3.4295    1.9552    0.4427 H   0  0  0  0  0  0  0  0  0  0  0  0
   -5.9769    1.8274    0.1986 H   0  0  0  0  0  0  0  0  0  0  0  0
   -5.7909   -2.4499    0.0862 H   0  0  0  0  0  0  0  0  0  0  0  0
   -3.2301   -2.3634    0.1688 H   0  0  0  0  0  0  0  0  0  0  0  0
  1  5  1  0  0  0  0
  3 12  1  0  0  0  0
  5  2  1  0  0  0  0
  6  7  1  0  0  0  0
  6  5  1  0  0  0  0
  7 13  1  0  0  0  0
  8  7  2  0  0  0  0
  9  8  1  0  0  0  0
 10  9  2  0  0  0  0
 10 11  1  0  0  0  0
 11  6  2  0  0  0  0
 12  9  1  0  0  0  0
 12  4  2  0  0  0  0
 14  8  1  0  0  0  0
 15 10  1  0  0  0  0
 16 11  1  0  0  0  0
M  CHG  3   1  -1   2  -1   3  -1
M  END
