2,5
q = -1.0

 10  9  0  0  0  0  0  0  0  0999 V2000
    3.2114   -0.1996   -0.1583 C   0  0  0  0  0  0  0  0  0  0  0  0
    1.3681    0.9494    0.8733 O   0  0  0  0  0  1  0  0  0  0  0  0
    2.6092    0.7686    0.6876 C   0  0  0  0  0  3  0  0  0  0  0  0
    3.3018    1.4333    1.2513 H   0  0  0  0  0  0  0  0  0  0  0  0
    1.1502   -1.1539   -0.9461 O   0  5  0  0  0  0  0  0  0  0  0  0
    2.4203   -1.0932   -0.9131 C   0  0  0  0  0  0  0  0  0  0  0  0
    2.9492   -1.8384   -1.5527 H   0  0  0  0  0  0  0  0  0  0  0  0
    5.4457    0.4597    0.3898 O   0  0  0  0  0  0  0  0  0  0  0  0
    4.6807   -0.2617   -0.2340 C   0  0  0  0  0  0  0  0  0  0  0  0
    5.0726   -1.0579   -0.9390 H   0  0  0  0  0  0  0  0  0  0  0  0
  1  3  1  0  0  0  0
  3  2  1  0  0  0  0
  3  4  1  0  0  0  0
  5  6  1  0  0  0  0
  6  1  2  0  0  0  0
  7  6  1  0  0  0  0
  9  1  1  0  0  0  0
  9  8  2  0  0  0  0
 10  9  1  0  0  0  0
M  CHG  1   5  -1
M  END
