1,2
q = -1.0

 16 16  0  0  0  0  0  0  0  0999 V2000
    1.4364   -0.2019   -1.4729 O   0  5  0  0  0  0  0  0  0  0  0  0
    1.6948   -0.9377    0.6172 O   0  5  0  0  0  0  0  0  0  0  0  0
    4.3132    0.1431    0.9995 O   0  0  0  0  0  0  0  0  0  0  0  0
    5.0976   -1.6440    1.9870 O   0  0  0  0  0  0  0  0  0  0  0  0
    4.6129   -1.0517    1.0255 N   0  0  0  0  0  0  0  0  0  0  0  0
    2.0761   -0.8589   -0.5904 C   0  0  0  0  0  3  0  0  0  0  0  0
    3.2894   -1.6391   -1.0273 C   0  0  0  0  0  0  0  0  0  0  0  0
    4.4344   -1.8185   -0.2258 C   0  0  0  0  0  0  0  0  0  0  0  0
    5.4805   -2.6726   -0.5973 C   0  0  0  0  0  0  0  0  0  0  0  0
    6.3388   -2.7859    0.0792 H   0  0  0  0  0  0  0  0  0  0  0  0
    5.4111   -3.3449   -1.8244 C   0  0  0  0  0  0  0  0  0  0  0  0
    6.2335   -4.0082   -2.1307 H   0  0  0  0  0  0  0  0  0  0  0  0
    4.2958   -3.1613   -2.6580 C   0  0  0  0  0  0  0  0  0  0  0  0
    4.2384   -3.6838   -3.6247 H   0  0  0  0  0  0  0  0  0  0  0  0
    3.2487   -2.3185   -2.2591 C   0  0  0  0  0  0  0  0  0  0  0  0
    2.3600   -2.1742   -2.8904 H   0  0  0  0  0  0  0  0  0  0  0  0
  1  6  1  0  0  0  0
  3  5  2  0  0  0  0
  5  4  2  0  0  0  0
  6  2  1  0  0  0  0
  7  6  1  0  0  0  0
  7  8  1  0  0  0  0
  8  5  1  0  0  0  0
  9  8  2  0  0  0  0
  9 10  1  0  0  0  0
 11  9  1  0  0  0  0
 12 11  1  0  0  0  0
 13 15  1  0  0  0  0
 13 11  2  0  0  0  0
 14 13  1  0  0  0  0
 15  7  2  0  0  0  0
 16 15  1  0  0  0  0
M  CHG  2   1  -1   2  -1
M  END
