6,10
q = -1.0

 38 38  0  0  0  0  0  0  0  0999 V2000
    0.1068   -2.5152    0.9494 N   0  0  0  0  0  0  0  0  0  0  0  0
    3.1810   -1.4751    0.3175 N   0  3  0  0  0  0  0  0  0  0  0  0
    2.4465   -0.7406   -0.0503 H   0  0  0  0  0  0  0  0  0  0  0  0
   -0.8498   -1.8111   -1.5335 P   0  0  1  0  0  0  0  0  0  0  0  0
   -2.0288   -1.2077    2.2017 P   0  0  1  0  0  0  0  0  0  0  0  0
   -1.0725   -0.3699   -0.8390 O   0  0  0  0  0  1  0  0  0  0  0  0
   -1.9482   -2.1237   -2.5255 O   0  0  0  0  0  0  0  0  0  0  0  0
    0.6695   -1.8440   -2.1249 O   0  0  0  0  0  0  0  0  0  0  0  0
    0.9367   -0.9611   -2.5706 H   0  0  0  0  0  0  0  0  0  0  0  0
   -1.5996    0.2328    1.7327 O   0  0  0  0  0  1  0  0  0  0  0  0
   -2.3390   -1.0480    3.8198 O   0  0  0  0  0  0  0  0  0  0  0  0
   -3.1578   -1.5526    3.9934 H   0  0  0  0  0  0  0  0  0  0  0  0
   -3.1933   -1.9046    1.5117 O   0  0  0  0  0  0  0  0  0  0  0  0
    5.5935   -1.0492   -1.2001 O   0  0  0  0  0  0  0  0  0  0  0  0
   -0.7565   -3.0040   -0.1302 C   0  0  0  0  0  0  0  0  0  0  0  0
   -1.8037   -3.0984    0.2278 H   0  0  0  0  0  0  0  0  0  0  0  0
   -0.4426   -3.9989   -0.5150 H   0  0  0  0  0  0  0  0  0  0  0  0
   -0.5335   -2.2945    2.2369 C   0  0  0  0  0  0  0  0  0  0  0  0
    0.1792   -1.7964    2.9263 H   0  0  0  0  0  0  0  0  0  0  0  0
   -0.8617   -3.2488    2.7285 H   0  0  0  0  0  0  0  0  0  0  0  0
    1.3965   -3.1670    1.0761 C   0  0  0  0  0  0  0  0  0  0  0  0
    1.6265   -3.6962    0.1322 H   0  0  0  0  0  0  0  0  0  0  0  0
    1.3705   -3.9635    1.8650 H   0  0  0  0  0  0  0  0  0  0  0  0
    2.5520   -2.2360    1.4485 C   0  0  0  0  0  0  0  0  0  0  0  0
    2.2206   -1.4710    2.1795 H   0  0  0  0  0  0  0  0  0  0  0  0
    3.3666   -2.8315    1.9115 H   0  0  0  0  0  0  0  0  0  0  0  0
    3.5783   -2.3520   -0.8336 C   0  0  0  0  0  0  0  0  0  0  0  0
    2.6466   -2.6842   -1.3309 H   0  0  0  0  0  0  0  0  0  0  0  0
    4.1359   -3.2179   -0.4191 H   0  0  0  0  0  0  0  0  0  0  0  0
    4.4477   -1.5910   -1.8295 C   0  0  0  0  0  0  0  0  0  0  0  0
    4.7915   -2.2983   -2.6098 H   0  0  0  0  0  0  0  0  0  0  0  0
    3.8440   -0.7980   -2.3332 H   0  0  0  0  0  0  0  0  0  0  0  0
    5.1805   -0.0656   -0.2632 C   0  0  0  0  0  0  0  0  0  0  0  0
    4.6099    0.7382   -0.7754 H   0  0  0  0  0  0  0  0  0  0  0  0
    6.0903    0.3795    0.1851 H   0  0  0  0  0  0  0  0  0  0  0  0
    4.3379   -0.6733    0.8541 C   0  0  0  0  0  0  0  0  0  0  0  0
    4.9505   -1.3613    1.4726 H   0  0  0  0  0  0  0  0  0  0  0  0
    3.9081    0.1279    1.4880 H   0  0  0  0  0  0  0  0  0  0  0  0
  1 21  1  0  0  0  0
  1 18  1  0  0  0  0
  2 36  1  0  0  0  0
  2 24  1  0  0  0  0
  3  2  1  0  0  0  0
  4  7  2  6  0  0  0
  4  6  1  0  0  0  0
  4 15  1  0  0  0  0
  5 13  2  6  0  0  0
  5 18  1  0  0  0  0
  5 11  1  0  0  0  0
  8  4  1  0  0  0  0
  9  8  1  0  0  0  0
 10  5  1  0  0  0  0
 11 12  1  0  0  0  0
 14 33  1  0  0  0  0
 15 16  1  0  0  0  0
 15  1  1  0  0  0  0
 17 15  1  0  0  0  0
 18 20  1  0  0  0  0
 18 19  1  0  0  0  0
 21 24  1  0  0  0  0
 21 23  1  0  0  0  0
 22 21  1  0  0  0  0
 24 26  1  0  0  0  0
 24 25  1  0  0  0  0
 27 29  1  0  0  0  0
 27  2  1  0  0  0  0
 28 27  1  0  0  0  0
 30 14  1  0  0  0  0
 30 27  1  0  0  0  0
 31 30  1  0  0  0  0
 32 30  1  0  0  0  0
 33 35  1  0  0  0  0
 33 36  1  0  0  0  0
 34 33  1  0  0  0  0
 36 37  1  0  0  0  0
 36 38  1  0  0  0  0
M  CHG  1   2   1
M  END
