1,3
q = -2.0, confidence = 0.752

 23 23  0  0  1  0  0  0  0  0999 V2000
    0.3171   -2.1143   -0.0471 O   0  5  0  0  0  0  0  0  0  0  0  0
   -1.5093   -3.4008    0.0704 O   0  0  0  0  0  0  0  0  0  0  0  0
   -1.0566    0.1259   -0.4892 O   0  0  0  0  0  1  0  0  0  0  0  0
   -2.5049    1.6874    1.0877 O   0  0  0  0  0  0  0  0  0  0  0  0
   -5.3638    1.3248    0.6991 O   0  0  0  0  0  0  0  0  0  0  0  0
   -5.8916    1.2468   -0.1233 H   0  0  0  0  0  0  0  0  0  0  0  0
   -5.1832   -0.1254   -1.6645 O   0  0  0  0  0  0  0  0  0  0  0  0
   -1.0084   -2.2925   -0.0122 C   0  0  0  0  0  0  0  0  0  0  0  0
   -1.8364   -0.9877   -0.0208 C   0  0  1  0  0  0  0  0  0  0  0  0
   -2.3024   -0.7157    1.4379 C   0  0  0  0  0  0  0  0  0  0  0  0
   -2.8324   -1.6139    1.8156 H   0  0  0  0  0  0  0  0  0  0  0  0
   -1.4067   -0.5582    2.0748 H   0  0  0  0  0  0  0  0  0  0  0  0
   -3.2103    0.5244    1.4989 C   0  0  2  0  0  0  0  0  0  0  0  0
   -3.5623    0.6977    2.5396 H   0  0  0  0  0  0  0  0  0  0  0  0
   -4.4484    0.2601    0.6186 C   0  0  2  0  0  0  0  0  0  0  0  0
   -4.9093   -0.6989    0.9901 H   0  0  0  0  0  0  0  0  0  0  0  0
   -4.0261    0.0210   -0.8366 C   0  0  1  0  0  0  0  0  0  0  0  0
   -3.5423    0.9550   -1.1914 H   0  0  0  0  0  0  0  0  0  0  0  0
   -3.0495   -1.1476   -0.9539 C   0  0  0  0  0  0  0  0  0  0  0  0
   -2.6994   -1.2534   -2.0002 H   0  0  0  0  0  0  0  0  0  0  0  0
   -3.5494   -2.0999   -0.6695 H   0  0  0  0  0  0  0  0  0  0  0  0
   -1.9033    1.3432    0.3763 H   0  0  0  0  0  0  0  0  0  0  0  0
   -5.5771   -0.9917   -1.4401 H   0  0  0  0  0  0  0  0  0  0  0  0
  1  8  1  0  0  0  0
  4 13  1  0  0  0  0
  6  5  1  0  0  0  0
  7 23  1  0  0  0  0
  7 17  1  0  0  0  0
  8  2  2  0  0  0  0
  9  3  1  6  0  0  0
  9  8  1  0  0  0  0
  9 10  1  0  0  0  0
 10 13  1  0  0  0  0
 10 11  1  0  0  0  0
 10 12  1  0  0  0  0
 13 14  1  1  0  0  0
 15  5  1  0  0  0  0
 15 16  1  1  0  0  0
 15 13  1  0  0  0  0
 17 18  1  6  0  0  0
 17 15  1  0  0  0  0
 19 17  1  0  0  0  0
 19 21  1  0  0  0  0
 19  9  1  0  0  0  0
 20 19  1  0  0  0  0
 22  4  1  0  0  0  0
M  CHG  1   1  -1
M  END
