2,3
q = -1.0

 15 15  0  0  0  0  0  0  0  0999 V2000
    7.6067    0.9842   -0.6181 Cl  0  0  0  0  0  0  0  0  0  0  0  0
    1.4780    0.2449    1.0291 O   0  5  0  0  0  0  0  0  0  0  0  0
    2.2801    0.3203   -1.0444 O   0  5  0  0  0  0  0  0  0  0  0  0
    2.9954    0.4496    3.0486 O   0  0  0  0  0  0  0  0  0  0  0  0
    2.1779    0.3268    2.4570 H   0  0  0  0  0  0  0  0  0  0  0  0
    2.4800    0.3585    0.2099 C   0  0  0  0  0  3  0  0  0  0  0  0
    3.8363    0.5306    0.7778 C   0  0  0  0  0  0  0  0  0  0  0  0
    4.0178    0.5688    2.1955 C   0  0  0  0  0  0  0  0  0  0  0  0
    5.3278    0.7385    2.7050 C   0  0  0  0  0  0  0  0  0  0  0  0
    5.4607    0.7678    3.7960 H   0  0  0  0  0  0  0  0  0  0  0  0
    6.4182    0.8645    1.8448 C   0  0  0  0  0  0  0  0  0  0  0  0
    7.4331    0.9959    2.2468 H   0  0  0  0  0  0  0  0  0  0  0  0
    6.2270    0.8245    0.4471 C   0  0  0  0  0  0  0  0  0  0  0  0
    4.9474    0.6597   -0.0824 C   0  0  0  0  0  0  0  0  0  0  0  0
    4.7759    0.6300   -1.1671 H   0  0  0  0  0  0  0  0  0  0  0  0
  1 13  1  0  0  0  0
  3  6  1  0  0  0  0
  5  4  1  0  0  0  0
  6  7  1  0  0  0  0
  6  2  1  0  0  0  0
  7  8  1  0  0  0  0
  8  9  2  0  0  0  0
  8  4  1  0  0  0  0
  9 10  1  0  0  0  0
 11 12  1  0  0  0  0
 11  9  1  0  0  0  0
 13 11  2  0  0  0  0
 14 13  1  0  0  0  0
 14  7  2  0  0  0  0
 15 14  1  0  0  0  0
M  CHG  2   2  -1   3  -1
M  END
