23,24
q = -1.0

 24 25  0  0  0  0  0  0  0  0999 V2000
    0.3137    2.7386    0.3399 C   0  0  0  0  0  3  0  0  0  0  0  0
    1.1846    3.9667    0.5072 C   0  0  0  0  0  0  0  0  0  0  0  0
    0.6170    4.8447    0.1287 H   0  0  0  0  0  0  0  0  0  0  0  0
    1.3540    4.1317    1.5887 H   0  0  0  0  0  0  0  0  0  0  0  0
    2.5106    3.8456   -0.2669 C   0  0  0  0  0  0  0  0  0  0  0  0
    3.0768    4.7913   -0.1393 H   0  0  0  0  0  0  0  0  0  0  0  0
    2.2762    3.7611   -1.3466 H   0  0  0  0  0  0  0  0  0  0  0  0
    3.3817    2.6824    0.1314 C   0  0  0  0  0  0  0  0  0  0  0  0
    4.2669    2.6393    1.2006 C   0  0  0  0  0  0  0  0  0  0  0  0
    4.4830    3.4039    1.9565 H   0  0  0  0  0  0  0  0  0  0  0  0
    4.5603    0.6789    0.1178 C   0  0  0  0  0  0  0  0  0  0  0  0
    5.0210   -0.5672   -0.3439 C   0  0  0  0  0  0  0  0  0  0  0  0
    5.8300   -1.1052    0.1736 H   0  0  0  0  0  0  0  0  0  0  0  0
    4.4268   -1.0892   -1.4981 C   0  0  0  0  0  0  0  0  0  0  0  0
    4.7748   -2.0542   -1.8950 H   0  0  0  0  0  0  0  0  0  0  0  0
    3.3863   -0.3941   -2.1637 C   0  0  0  0  0  0  0  0  0  0  0  0
    2.9360   -0.8377   -3.0649 H   0  0  0  0  0  0  0  0  0  0  0  0
    2.9389    0.8522   -1.7114 C   0  0  0  0  0  0  0  0  0  0  0  0
    2.1231    1.3851   -2.2199 H   0  0  0  0  0  0  0  0  0  0  0  0
    3.5370    1.4204   -0.5638 C   0  0  0  0  0  0  0  0  0  0  0  0
    4.9555    1.4359    1.2022 N   0  0  0  0  0  0  0  0  0  0  0  0
    5.7291    1.2088    1.8246 H   0  0  0  0  0  0  0  0  0  0  0  0
    0.2147    2.1944   -0.8141 O   0  5  0  0  0  0  0  0  0  0  0  0
   -0.2737    2.2306    1.3532 O   0  5  0  0  0  0  0  0  0  0  0  0
  1  2  1  0  0  0  0
  1 24  1  0  0  0  0
  2  4  1  0  0  0  0
  3  2  1  0  0  0  0
  5  6  1  0  0  0  0
  5  8  1  0  0  0  0
  5  2  1  0  0  0  0
  7  5  1  0  0  0  0
  8  9  2  0  0  0  0
  9 21  1  0  0  0  0
  9 10  1  0  0  0  0
 11 21  1  0  0  0  0
 12 11  1  0  0  0  0
 12 13  1  0  0  0  0
 14 12  2  0  0  0  0
 15 14  1  0  0  0  0
 16 18  2  0  0  0  0
 16 14  1  0  0  0  0
 17 16  1  0  0  0  0
 18 20  1  0  0  0  0
 19 18  1  0  0  0  0
 20 11  2  0  0  0  0
 20  8  1  0  0  0  0
 21 22  1  0  0  0  0
 23  1  1  0  0  0  0
M  CHG  2  23  -1  24  -1
M  END
