1,2
q = -2.0, confidence = 0.952

 45 46  0  0  1  0  0  0  0  0999 V2000
    2.3112    0.5623   -0.0727 O   0  0  0  0  0  1  0  0  0  0  0  0
    0.2472    2.6140   -1.1906 O   0  0  0  0  0  1  0  0  0  0  0  0
   -3.1114   -0.3469    2.3321 O   0  0  0  0  0  0  0  0  0  0  0  0
   -2.0847   -1.9675    1.1251 O   0  0  0  0  0  0  0  0  0  0  0  0
   -0.4031    0.2209   -0.0072 N   0  0  0  0  0  0  0  0  0  0  0  0
   -3.6999    0.7621   -0.6681 C   0  0  0  0  0  0  0  0  0  0  0  0
   -3.5723    1.7097   -0.1244 H   0  0  0  0  0  0  0  0  0  0  0  0
   -4.9763    0.1799   -0.7334 C   0  0  0  0  0  0  0  0  0  0  0  0
   -5.8294    0.6828   -0.2527 H   0  0  0  0  0  0  0  0  0  0  0  0
   -5.1635   -1.0355   -1.4082 C   0  0  0  0  0  0  0  0  0  0  0  0
   -6.1633   -1.4928   -1.4587 H   0  0  0  0  0  0  0  0  0  0  0  0
   -4.0677   -1.6630   -2.0239 C   0  0  0  0  0  0  0  0  0  0  0  0
   -4.2050   -2.6160   -2.5566 H   0  0  0  0  0  0  0  0  0  0  0  0
   -2.7978   -1.0769   -1.9605 C   0  0  0  0  0  0  0  0  0  0  0  0
   -1.9405   -1.5760   -2.4387 H   0  0  0  0  0  0  0  0  0  0  0  0
   -2.5921    0.1394   -1.2774 C   0  0  0  0  0  0  0  0  0  0  0  0
   -1.1844    0.7032   -1.1688 C   0  0  1  0  0  0  0  0  0  0  0  0
   -0.6138    0.3666   -2.0576 H   0  0  0  0  0  0  0  0  0  0  0  0
    2.8126   -1.7963    0.1271 C   0  0  0  0  0  0  0  0  0  0  0  0
    3.8176   -1.6450   -0.8445 C   0  0  0  0  0  0  0  0  0  0  0  0
    3.9230   -0.6710   -1.3437 H   0  0  0  0  0  0  0  0  0  0  0  0
    4.6715   -2.7158   -1.1511 C   0  0  0  0  0  0  0  0  0  0  0  0
    5.4595   -2.5857   -1.9089 H   0  0  0  0  0  0  0  0  0  0  0  0
    4.5262   -3.9477   -0.4941 C   0  0  0  0  0  0  0  0  0  0  0  0
    5.1972   -4.7865   -0.7347 H   0  0  0  0  0  0  0  0  0  0  0  0
    3.5239   -4.1034    0.4777 C   0  0  0  0  0  0  0  0  0  0  0  0
    3.4073   -5.0644    1.0017 H   0  0  0  0  0  0  0  0  0  0  0  0
    2.6737   -3.0323    0.7880 C   0  0  0  0  0  0  0  0  0  0  0  0
    1.8944   -3.1557    1.5578 H   0  0  0  0  0  0  0  0  0  0  0  0
    1.8492   -0.6629    0.4285 C   0  0  2  0  0  0  0  0  0  0  0  0
    1.7266   -0.5919    1.5385 H   0  0  0  0  0  0  0  0  0  0  0  0
   -1.0983    2.2414   -1.1885 C   0  0  0  0  0  0  0  0  0  0  0  0
   -1.6012    2.6296   -2.1030 H   0  0  0  0  0  0  0  0  0  0  0  0
   -1.6282    2.6820   -0.3094 H   0  0  0  0  0  0  0  0  0  0  0  0
    0.4657   -0.9396   -0.2058 C   0  0  0  0  0  0  0  0  0  0  0  0
    0.6289   -1.0751   -1.2928 H   0  0  0  0  0  0  0  0  0  0  0  0
    0.0212   -1.8754    0.1906 H   0  0  0  0  0  0  0  0  0  0  0  0
   -1.0860    0.2697    1.2779 C   0  0  0  0  0  0  0  0  0  0  0  0
   -1.5529    1.2611    1.4240 H   0  0  0  0  0  0  0  0  0  0  0  0
   -0.3280    0.1991    2.0870 H   0  0  0  0  0  0  0  0  0  0  0  0
   -2.1294   -0.8199    1.5292 C   0  0  0  0  0  0  0  0  0  0  0  0
   -4.1485   -1.2850    2.6489 C   0  0  0  0  0  0  0  0  0  0  0  0
   -4.8066   -0.7806    3.3785 H   0  0  0  0  0  0  0  0  0  0  0  0
   -3.7258   -2.2144    3.0797 H   0  0  0  0  0  0  0  0  0  0  0  0
   -4.7159   -1.5474    1.7327 H   0  0  0  0  0  0  0  0  0  0  0  0
  1 30  1  0  0  0  0
  2 32  1  0  0  0  0
  3 42  1  0  0  0  0
  4 41  2  0  0  0  0
  5 38  1  0  0  0  0
  6  7  1  0  0  0  0
  8  6  1  0  0  0  0
  8  9  1  0  0  0  0
 10  8  2  0  0  0  0
 11 10  1  0  0  0  0
 12 14  2  0  0  0  0
 12 10  1  0  0  0  0
 13 12  1  0  0  0  0
 14 16  1  0  0  0  0
 15 14  1  0  0  0  0
 16 17  1  0  0  0  0
 16  6  2  0  0  0  0
 17 18  1  6  0  0  0
 17  5  1  0  0  0  0
 19 30  1  0  0  0  0
 19 28  1  0  0  0  0
 20 19  2  0  0  0  0
 21 20  1  0  0  0  0
 22 20  1  0  0  0  0
 22 24  2  0  0  0  0
 23 22  1  0  0  0  0
 24 26  1  0  0  0  0
 25 24  1  0  0  0  0
 26 28  2  0  0  0  0
 26 27  1  0  0  0  0
 28 29  1  0  0  0  0
 30 31  1  1  0  0  0
 32 17  1  0  0  0  0
 32 34  1  0  0  0  0
 33 32  1  0  0  0  0
 35  5  1  0  0  0  0
 35 37  1  0  0  0  0
 35 30  1  0  0  0  0
 36 35  1  0  0  0  0
 38 39  1  0  0  0  0
 38 41  1  0  0  0  0
 38 40  1  0  0  0  0
 41  3  1  0  0  0  0
 42 44  1  0  0  0  0
 42 43  1  0  0  0  0
 45 42  1  0  0  0  0
M  END
