3,4
q = -1.0

 36 37  0  0  0  0  0  0  0  0999 V2000
    5.7282   -7.3142    0.0824 F   0  0  0  0  0  0  0  0  0  0  0  0
    5.7272    7.3149    0.0829 F   0  0  0  0  0  0  0  0  0  0  0  0
   -0.7798    1.4595    0.0074 O   0  5  0  0  0  0  0  0  0  0  0  0
   -0.7796   -1.4596    0.0078 O   0  5  0  0  0  0  0  0  0  0  0  0
    4.9798   -6.1980    0.0560 C   0  0  0  0  0  0  0  0  0  0  0  0
    3.5844   -6.3119   -0.0412 C   0  0  0  0  0  0  0  0  0  0  0  0
    3.1300   -7.3115   -0.0966 H   0  0  0  0  0  0  0  0  0  0  0  0
    2.8079   -5.1520   -0.0694 C   0  0  0  0  0  0  0  0  0  0  0  0
    1.7154   -5.2453   -0.1518 H   0  0  0  0  0  0  0  0  0  0  0  0
    3.4020   -3.8658   -0.0002 C   0  0  0  0  0  0  0  0  0  0  0  0
    4.8141   -3.7959    0.0939 C   0  0  0  0  0  0  0  0  0  0  0  0
    5.2974   -2.8078    0.1456 H   0  0  0  0  0  0  0  0  0  0  0  0
    5.6069   -4.9484    0.1233 C   0  0  0  0  0  0  0  0  0  0  0  0
    6.7025   -4.8966    0.1964 H   0  0  0  0  0  0  0  0  0  0  0  0
    2.6294   -2.6251   -0.0224 C   0  0  0  0  0  3  0  0  0  0  0  0
    3.2378   -1.7052    0.0081 H   0  0  0  0  0  0  0  0  0  0  0  0
    1.2757   -2.5058   -0.0680 C   0  0  0  0  0  0  0  0  0  0  0  0
    0.6354   -3.4027   -0.0710 H   0  0  0  0  0  0  0  0  0  0  0  0
    0.4930   -1.2576   -0.1059 C   0  0  0  0  0  0  0  0  0  0  0  0
    1.1219    0.0001   -0.2316 C   0  0  0  0  0  0  0  0  0  0  0  0
    2.2088    0.0001   -0.3744 H   0  0  0  0  0  0  0  0  0  0  0  0
    0.4929    1.2576   -0.1063 C   0  0  0  0  0  0  0  0  0  0  0  0
    1.2754    2.5060   -0.0687 C   0  0  0  0  0  0  0  0  0  0  0  0
    0.6350    3.4028   -0.0730 H   0  0  0  0  0  0  0  0  0  0  0  0
    2.6290    2.6254   -0.0217 C   0  0  0  0  0  0  0  0  0  0  0  0
    3.2374    1.7056    0.0104 H   0  0  0  0  0  0  0  0  0  0  0  0
    3.4015    3.8661    0.0002 C   0  0  0  0  0  0  0  0  0  0  0  0
    2.8075    5.1522   -0.0728 C   0  0  0  0  0  0  0  0  0  0  0  0
    1.7152    5.2452   -0.1583 H   0  0  0  0  0  0  0  0  0  0  0  0
    3.5838    6.3122   -0.0446 C   0  0  0  0  0  0  0  0  0  0  0  0
    3.1295    7.3116   -0.1029 H   0  0  0  0  0  0  0  0  0  0  0  0
    4.9790    6.1986    0.0564 C   0  0  0  0  0  0  0  0  0  0  0  0
    5.6060    4.9491    0.1274 C   0  0  0  0  0  0  0  0  0  0  0  0
    6.7014    4.8975    0.2034 H   0  0  0  0  0  0  0  0  0  0  0  0
    4.8134    3.7966    0.0979 C   0  0  0  0  0  0  0  0  0  0  0  0
    5.2966    2.8086    0.1525 H   0  0  0  0  0  0  0  0  0  0  0  0
  5  1  1  0  0  0  0
  5 13  1  0  0  0  0
  6  5  2  0  0  0  0
  7  6  1  0  0  0  0
  8  6  1  0  0  0  0
  8 10  2  0  0  0  0
  9  8  1  0  0  0  0
 10 11  1  0  0  0  0
 11 13  2  0  0  0  0
 11 12  1  0  0  0  0
 13 14  1  0  0  0  0
 15 10  1  0  0  0  0
 15 16  1  0  0  0  0
 17 15  1  0  0  0  0
 18 17  1  0  0  0  0
 19 17  2  0  0  0  0
 19  4  1  0  0  0  0
 20 22  2  0  0  0  0
 20 19  1  0  0  0  0
 21 20  1  0  0  0  0
 22 23  1  0  0  0  0
 22  3  1  0  0  0  0
 23 25  2  0  0  0  0
 24 23  1  0  0  0  0
 25 27  1  0  0  0  0
 25 26  1  0  0  0  0
 27 35  1  0  0  0  0
 28 30  1  0  0  0  0
 28 27  2  0  0  0  0
 29 28  1  0  0  0  0
 30 32  2  0  0  0  0
 31 30  1  0  0  0  0
 32  2  1  0  0  0  0
 32 33  1  0  0  0  0
 33 34  1  0  0  0  0
 35 33  2  0  0  0  0
 35 36  1  0  0  0  0
M  CHG  2   3  -1   4  -1
M  END
