1,2
q = -2.0, confidence = 0.892

 27 27  0  0  0  0  0  0  0  0999 V2000
   -2.5505   -0.1737   -0.4867 O   0  0  0  0  0  1  0  0  0  0  0  0
    1.0275   -1.2582   -0.3541 O   0  5  0  0  0  0  0  0  0  0  0  0
   -0.3832    1.0905   -0.1711 N   0  0  0  0  0  0  0  0  0  0  0  0
    3.3674   -1.1714   -0.1135 C   0  0  0  0  0  0  0  0  0  0  0  0
    4.5352   -0.4238    0.0316 C   0  0  0  0  0  0  0  0  0  0  0  0
    4.4969    0.9877    0.1132 C   0  0  0  0  0  0  0  0  0  0  0  0
    3.2678    1.6354    0.0540 C   0  0  0  0  0  0  0  0  0  0  0  0
    2.0578    0.9025   -0.0827 C   0  0  0  0  0  0  0  0  0  0  0  0
    2.1067   -0.5251   -0.1793 C   0  0  0  0  0  0  0  0  0  0  0  0
    0.8101    1.6121   -0.0969 C   0  0  0  0  0  0  0  0  0  0  0  0
   -1.5770    1.9774   -0.0143 C   0  0  0  0  0  0  0  0  0  0  0  0
   -1.4158    3.3568   -0.6613 C   0  0  0  0  0  0  0  0  0  0  0  0
   -1.8708    2.0986    1.4936 C   0  0  0  0  0  0  0  0  0  0  0  0
   -2.7010    1.1993   -0.7248 C   0  0  0  0  0  0  0  0  0  0  0  0
    3.3850   -2.2678   -0.1847 H   0  0  0  0  0  0  0  0  0  0  0  0
    5.5035   -0.9454    0.0803 H   0  0  0  0  0  0  0  0  0  0  0  0
    5.4267    1.5632    0.2245 H   0  0  0  0  0  0  0  0  0  0  0  0
    3.2122    2.7338    0.1210 H   0  0  0  0  0  0  0  0  0  0  0  0
    0.8972    2.7142   -0.0150 H   0  0  0  0  0  0  0  0  0  0  0  0
   -0.7213    4.0105   -0.0974 H   0  0  0  0  0  0  0  0  0  0  0  0
   -2.3975    3.8709   -0.6695 H   0  0  0  0  0  0  0  0  0  0  0  0
   -1.0609    3.2759   -1.7082 H   0  0  0  0  0  0  0  0  0  0  0  0
   -1.0288    2.6052    2.0069 H   0  0  0  0  0  0  0  0  0  0  0  0
   -1.9964    1.0970    1.9493 H   0  0  0  0  0  0  0  0  0  0  0  0
   -2.7898    2.6961    1.6555 H   0  0  0  0  0  0  0  0  0  0  0  0
   -3.6974    1.5280   -0.3567 H   0  0  0  0  0  0  0  0  0  0  0  0
   -2.6670    1.3878   -1.8237 H   0  0  0  0  0  0  0  0  0  0  0  0
  2  9  1  0  0  0  0
  3 10  2  0  0  0  0
  3 11  1  0  0  0  0
  4  5  1  0  0  0  0
  5 16  1  0  0  0  0
  5  6  2  0  0  0  0
  6 17  1  0  0  0  0
  7  6  1  0  0  0  0
  7 18  1  0  0  0  0
  8  7  2  0  0  0  0
  9  4  2  0  0  0  0
  9  8  1  0  0  0  0
 10  8  1  0  0  0  0
 10 19  1  0  0  0  0
 11 13  1  0  0  0  0
 12 20  1  0  0  0  0
 12 11  1  0  0  0  0
 13 25  1  0  0  0  0
 13 24  1  0  0  0  0
 13 23  1  0  0  0  0
 14  1  1  0  0  0  0
 14 26  1  0  0  0  0
 14 11  1  0  0  0  0
 15  4  1  0  0  0  0
 21 12  1  0  0  0  0
 22 12  1  0  0  0  0
 27 14  1  0  0  0  0
M  CHG  1   2  -1
M  END
