1,2
q = -1.0

 21 21  0  0  1  0  0  0  0  0999 V2000
    2.1266   -0.1423   -1.9109 O   0  0  0  0  0  1  0  0  0  0  0  0
    0.8639   -1.3152    0.1010 O   0  5  0  0  0  0  0  0  0  0  0  0
   -4.6297   -3.3423   -1.0611 F   0  0  0  0  0  0  0  0  0  0  0  0
   -0.0173   -1.1372   -2.0907 C   0  0  0  0  0  0  0  0  0  0  0  0
   -0.0702   -1.5582   -0.7343 C   0  0  0  0  0  0  0  0  0  0  0  0
    1.1110   -0.4977   -2.6242 C   0  0  2  0  0  3  0  0  0  0  0  0
   -1.2291   -2.3415   -0.2095 C   0  0  0  0  0  0  0  0  0  0  0  0
   -1.1149   -2.9287    1.0702 C   0  0  0  0  0  0  0  0  0  0  0  0
   -2.4307   -2.4899   -0.9338 C   0  0  0  0  0  0  0  0  0  0  0  0
   -3.3789   -3.8079    0.8958 C   0  0  0  0  0  0  0  0  0  0  0  0
   -3.4832   -3.2144   -0.3690 C   0  0  0  0  0  0  0  0  0  0  0  0
   -2.1799   -3.6587    1.6108 C   0  0  0  0  0  0  0  0  0  0  0  0
    1.2237   -0.1975   -4.0939 C   0  0  0  0  0  0  0  0  0  0  0  0
   -2.5804   -2.0379   -1.9232 H   0  0  0  0  0  0  0  0  0  0  0  0
   -0.1710   -2.7980    1.6168 H   0  0  0  0  0  0  0  0  0  0  0  0
   -2.0816   -4.1211    2.6044 H   0  0  0  0  0  0  0  0  0  0  0  0
   -0.8256   -1.4107   -2.7777 H   0  0  0  0  0  0  0  0  0  0  0  0
   -4.2326   -4.3716    1.2983 H   0  0  0  0  0  0  0  0  0  0  0  0
    1.3771    0.8924   -4.2323 H   0  0  0  0  0  0  0  0  0  0  0  0
    2.1271   -0.6964   -4.5007 H   0  0  0  0  0  0  0  0  0  0  0  0
    0.3346   -0.5231   -4.6632 H   0  0  0  0  0  0  0  0  0  0  0  0
  3 11  1  0  0  0  0
  4  5  2  0  0  0  0
  5  7  1  0  0  0  0
  5  2  1  0  0  0  0
  6  4  1  0  0  0  0
  6  1  1  6  0  0  0
  7  8  1  0  0  0  0
  8 12  2  0  0  0  0
  8 15  1  0  0  0  0
  9 11  1  0  0  0  0
  9  7  2  0  0  0  0
 10 18  1  0  0  0  0
 10 12  1  0  0  0  0
 11 10  2  0  0  0  0
 12 16  1  0  0  0  0
 13  6  1  0  0  0  0
 14  9  1  0  0  0  0
 17  4  1  0  0  0  0
 19 13  1  0  0  0  0
 20 13  1  0  0  0  0
 21 13  1  0  0  0  0
M  CHG  1   2  -1
M  END
