3,21
q = -1.0

 21 21  0  0  1  0  0  0  0  0999 V2000
   -1.2125    1.4091    1.6319 Cl  0  0  0  0  0  0  0  0  0  0  0  0
   -5.9075    3.8525    0.6249 Cl  0  0  0  0  0  0  0  0  0  0  0  0
   -1.3373   -1.0772    0.0247 O   0  5  0  0  0  0  0  0  0  0  0  0
   -1.8416   -0.3737   -0.9067 C   0  0  0  0  0  0  0  0  0  0  0  0
   -2.8123    0.6923   -0.5096 C   0  0  0  0  0  0  0  0  0  0  0  0
   -1.5315   -0.5444   -2.2829 C   0  0  0  0  0  0  0  0  0  0  0  0
   -1.9649    0.1417   -3.0205 H   0  0  0  0  0  0  0  0  0  0  0  0
   -4.7309    2.6488    0.1855 C   0  0  0  0  0  0  0  0  0  0  0  0
   -2.6350    1.5155    0.6309 C   0  0  0  0  0  0  0  0  0  0  0  0
   -4.9403    1.8486   -0.9495 C   0  0  0  0  0  0  0  0  0  0  0  0
   -5.8486    1.9756   -1.5536 H   0  0  0  0  0  0  0  0  0  0  0  0
   -3.9769    0.8928   -1.2830 C   0  0  0  0  0  0  0  0  0  0  0  0
   -4.1406    0.2488   -2.1597 H   0  0  0  0  0  0  0  0  0  0  0  0
   -3.5810    2.4936    0.9739 C   0  0  0  0  0  0  0  0  0  0  0  0
   -3.4154    3.1321    1.8511 H   0  0  0  0  0  0  0  0  0  0  0  0
   -0.2175   -1.6272   -4.1642 C   0  0  0  0  0  0  0  0  0  0  0  0
   -0.8200   -0.9761   -4.8229 H   0  0  0  0  0  0  0  0  0  0  0  0
   -0.3016   -2.6819   -4.4935 H   0  0  0  0  0  0  0  0  0  0  0  0
    0.8529   -1.3471   -4.2550 H   0  0  0  0  0  0  0  0  0  0  0  0
   -0.6187   -1.5158   -2.7198 C   0  0  1  0  0  3  0  0  0  0  0  0
   -0.0495   -2.3532   -1.9213 O   0  0  0  0  0  1  0  0  0  0  0  0
  4  5  1  0  0  0  0
  4  3  1  0  0  0  0
  5  9  1  0  0  0  0
  6  4  2  0  0  0  0
  7  6  1  0  0  0  0
  8  2  1  0  0  0  0
  8 14  1  0  0  0  0
  9 14  2  0  0  0  0
  9  1  1  0  0  0  0
 10  8  2  0  0  0  0
 11 10  1  0  0  0  0
 12 10  1  0  0  0  0
 12  5  2  0  0  0  0
 13 12  1  0  0  0  0
 14 15  1  0  0  0  0
 16 20  1  0  0  0  0
 17 16  1  0  0  0  0
 18 16  1  0  0  0  0
 19 16  1  0  0  0  0
 20  6  1  0  0  0  0
 20 21  1  1  0  0  0
M  CHG  1   3  -1
M  END
