3,4
q = -1.0

  6  5  0  0  0  0  0  0  0  0999 V2000
    3.2041   -0.9947    1.0715 S   0  0  0  0  0  0  0  0  0  0  0  0
    3.7387   -2.2048    1.6962 O   0  0  0  0  0  1  0  0  0  0  0  0
    3.0085   -1.0655   -0.4666 O   0  0  0  0  0  1  0  0  0  0  0  0
    1.8609   -0.4857    1.6105 O   0  0  0  0  0  1  0  0  0  0  0  0
    4.2567    0.2062    1.2956 O   0  0  0  0  0  0  0  0  0  0  0  0
    3.7683    1.0194    0.8365 H   0  0  0  0  0  0  0  0  0  0  0  0
  1  5  1  0  0  0  0
  1  4  1  0  0  0  0
  1  2  1  0  0  0  0
  3  1  1  0  0  0  0
  6  5  1  0  0  0  0
M  END
