1,3
q = -2.0, confidence = 0.772

 24 24  0  0  0  0  0  0  0  0999 V2000
   -0.4970    0.4798    2.0834 O   0  5  0  0  0  0  0  0  0  0  0  0
   -1.8560    0.2838    3.8340 O   0  0  0  0  0  0  0  0  0  0  0  0
    1.4019   -1.4212    1.6570 O   0  5  0  0  0  0  0  0  0  0  0  0
    2.0710   -3.4293    0.9026 O   0  0  0  0  0  0  0  0  0  0  0  0
   -1.3246   -2.0930    1.1418 N   0  0  0  0  0  0  0  0  0  0  0  0
   -1.2900   -0.2077    2.8599 C   0  0  0  0  0  0  0  0  0  0  0  0
    1.1830   -2.6084    1.1570 C   0  0  0  0  0  0  0  0  0  0  0  0
   -1.5043   -1.6978    2.5284 C   0  0  0  0  0  0  0  0  0  0  0  0
   -0.7703   -2.2556    3.1421 H   0  0  0  0  0  0  0  0  0  0  0  0
   -2.5167   -1.9658    2.9015 H   0  0  0  0  0  0  0  0  0  0  0  0
   -2.4008   -2.3749   -1.0686 C   0  0  0  0  0  0  0  0  0  0  0  0
   -1.6981   -3.1649   -1.3573 H   0  0  0  0  0  0  0  0  0  0  0  0
   -2.3053   -1.7614    0.2136 C   0  0  0  0  0  0  0  0  0  0  0  0
   -4.2627   -0.4018   -0.4044 C   0  0  0  0  0  0  0  0  0  0  0  0
   -4.9862    0.3781   -0.1210 H   0  0  0  0  0  0  0  0  0  0  0  0
   -0.2790   -3.0651    0.8889 C   0  0  0  0  0  0  0  0  0  0  0  0
   -0.3075   -3.3920   -0.1629 H   0  0  0  0  0  0  0  0  0  0  0  0
   -0.4274   -3.9864    1.4993 H   0  0  0  0  0  0  0  0  0  0  0  0
   -3.3887   -1.9953   -1.9857 C   0  0  0  0  0  0  0  0  0  0  0  0
   -3.4324   -2.5131   -2.9578 H   0  0  0  0  0  0  0  0  0  0  0  0
   -4.3293   -0.9979   -1.6755 C   0  0  0  0  0  0  0  0  0  0  0  0
   -5.1145   -0.7153   -2.3927 H   0  0  0  0  0  0  0  0  0  0  0  0
   -3.2841   -0.7708    0.5250 C   0  0  0  0  0  0  0  0  0  0  0  0
   -3.2766   -0.2690    1.5009 H   0  0  0  0  0  0  0  0  0  0  0  0
  1  6  1  0  0  0  0
  4  7  2  0  0  0  0
  5  8  1  0  0  0  0
  6  2  2  0  0  0  0
  7  3  1  0  0  0  0
  8  6  1  0  0  0  0
  8 10  1  0  0  0  0
  8  9  1  0  0  0  0
 11 13  1  0  0  0  0
 12 11  1  0  0  0  0
 13 23  2  0  0  0  0
 13  5  1  0  0  0  0
 14 15  1  0  0  0  0
 14 23  1  0  0  0  0
 16  5  1  0  0  0  0
 16  7  1  0  0  0  0
 16 18  1  0  0  0  0
 17 16  1  0  0  0  0
 19 21  1  0  0  0  0
 19 11  2  0  0  0  0
 20 19  1  0  0  0  0
 21 14  2  0  0  0  0
 22 21  1  0  0  0  0
 23 24  1  0  0  0  0
M  CHG  2   1  -1   3  -1
M  END
