1,2
q = -1.0, confidence = 0.012

 11 10  0  0  0  0  0  0  0  0999 V2000
    1.8796   -1.0011    0.9644 O   0  5  0  0  0  0  0  0  0  0  0  0
    0.0341   -2.2191    1.0963 O   0  5  0  0  0  0  0  0  0  0  0  0
    5.0611   -3.5742   -0.6302 O   0  0  0  0  0  0  0  0  0  0  0  0
    4.0396   -1.6241   -0.2069 O   0  0  0  0  0  0  0  0  0  0  0  0
    3.2966   -1.2781    0.3978 H   0  0  0  0  0  0  0  0  0  0  0  0
    1.3019   -2.1304    1.1639 C   0  0  0  0  0  3  0  0  0  0  0  0
    2.0907   -3.3624    1.4366 C   0  0  0  0  0  0  0  0  0  0  0  0
    1.5489   -4.1218    2.0236 H   0  0  0  0  0  0  0  0  0  0  0  0
    4.2163   -2.9474   -0.0189 C   0  0  0  0  0  0  0  0  0  0  0  0
    3.3204   -3.6740    0.9534 C   0  0  0  0  0  0  0  0  0  0  0  0
    3.7284   -4.6698    1.1892 H   0  0  0  0  0  0  0  0  0  0  0  0
  1  6  1  0  0  0  0
  2  6  1  0  0  0  0
  3  9  2  0  0  0  0
  4  9  1  0  0  0  0
  4  5  1  0  0  0  0
  6  7  1  0  0  0  0
  7  8  1  0  0  0  0
  9 10  1  0  0  0  0
 10 11  1  0  0  0  0
 10  7  2  0  0  0  0
M  CHG  2   1  -1   2  -1
M  END
