4,5
q = -1.0

 14 14  0  0  1  0  0  0  0  0999 V2000
   -3.8020    1.3225   -0.0087 N   0  0  0  0  0  0  0  0  0  0  0  0
   -3.4588    2.3305   -0.0106 H   0  0  0  0  0  0  0  0  0  0  0  0
   -2.3781   -3.2452   -0.0459 O   0  5  0  0  0  0  0  0  0  0  0  0
   -0.7711   -1.6914   -0.0130 O   0  0  0  0  0  0  0  0  0  0  0  0
   -1.5911    0.9212   -0.0832 O   0  0  0  0  0  1  0  0  0  0  0  0
   -2.0264   -2.0646   -0.0255 C   0  0  0  0  0  0  0  0  0  0  0  0
   -2.7624    0.4118   -0.0330 C   0  0  2  0  0  3  0  0  0  0  0  0
   -3.0902   -0.9815   -0.0082 C   0  0  0  0  0  0  0  0  0  0  0  0
   -4.4339   -1.3437    0.0230 C   0  0  0  0  0  0  0  0  0  0  0  0
   -4.6450   -2.4252    0.0320 H   0  0  0  0  0  0  0  0  0  0  0  0
   -5.4660   -0.3743    0.0397 C   0  0  0  0  0  0  0  0  0  0  0  0
   -6.5253   -0.6611    0.0642 H   0  0  0  0  0  0  0  0  0  0  0  0
   -5.1089    0.9643    0.0244 C   0  0  0  0  0  0  0  0  0  0  0  0
   -5.8365    1.7886    0.0369 H   0  0  0  0  0  0  0  0  0  0  0  0
  1 13  1  0  0  0  0
  2  1  1  0  0  0  0
  3  6  1  0  0  0  0
  6  4  2  0  0  0  0
  6  8  1  0  0  0  0
  7  5  1  6  0  0  0
  7  1  1  0  0  0  0
  7  8  1  0  0  0  0
  8  9  2  0  0  0  0
  9 10  1  0  0  0  0
  9 11  1  0  0  0  0
 11 12  1  0  0  0  0
 13 14  1  0  0  0  0
 13 11  2  0  0  0  0
M  CHG  1   3  -1
M  END
