1,2
q = -1.0, confidence = 0.004

 14 14  0  0  0  0  0  0  0  0999 V2000
   -1.6393    0.9513   -0.0010 O   0  5  0  0  0  0  0  0  0  0  0  0
   -1.1381   -1.9809   -0.0006 O   0  5  0  0  0  0  0  0  0  0  0  0
   -2.3974   -1.9774   -0.0013 C   0  0  0  0  0  0  0  0  0  0  0  0
   -2.8921   -2.9813   -0.0024 H   0  0  0  0  0  0  0  0  0  0  0  0
   -3.2933   -0.8610   -0.0006 C   0  0  0  0  0  0  0  0  0  0  0  0
   -2.8661    0.5304   -0.0000 C   0  0  0  0  0  0  0  0  0  0  0  0
   -5.6596   -0.1797    0.0010 C   0  0  0  0  0  0  0  0  0  0  0  0
   -6.7281   -0.4377    0.0013 H   0  0  0  0  0  0  0  0  0  0  0  0
   -4.6912   -1.1673   -0.0003 C   0  0  0  0  0  3  0  0  0  0  0  0
   -4.9829   -2.2304   -0.0009 H   0  0  0  0  0  0  0  0  0  0  0  0
   -5.2456    1.1803    0.0019 C   0  0  0  0  0  0  0  0  0  0  0  0
   -6.0046    1.9787    0.0030 H   0  0  0  0  0  0  0  0  0  0  0  0
   -3.9035    1.5238    0.0014 C   0  0  0  0  0  0  0  0  0  0  0  0
   -3.5798    2.5747    0.0021 H   0  0  0  0  0  0  0  0  0  0  0  0
  1  6  1  0  0  0  0
  3  2  1  0  0  0  0
  3  5  2  0  0  0  0
  4  3  1  0  0  0  0
  5  9  1  0  0  0  0
  5  6  1  0  0  0  0
  6 13  2  0  0  0  0
  7  8  1  0  0  0  0
  7 11  2  0  0  0  0
  9  7  1  0  0  0  0
 10  9  1  0  0  0  0
 11 12  1  0  0  0  0
 13 11  1  0  0  0  0
 13 14  1  0  0  0  0
M  CHG  2   1  -1   2  -1
M  END
