1,2
q = -1.0

 38 40  0  0  1  0  0  0  0  0999 V2000
    0.1613    1.1342   -0.4445 O   0  0  0  0  0  1  0  0  0  0  0  0
    0.3153   -1.6847    0.3727 O   0  5  0  0  0  0  0  0  0  0  0  0
   -1.1102    0.9092   -0.3858 C   0  0  2  0  0  3  0  0  0  0  0  0
   -1.9529    2.1232   -0.6101 C   0  0  0  0  0  0  0  0  0  0  0  0
   -1.5651    3.3497   -0.0294 C   0  0  0  0  0  0  0  0  0  0  0  0
   -0.6587    3.3769    0.5927 H   0  0  0  0  0  0  0  0  0  0  0  0
   -2.3268    4.5068   -0.2341 C   0  0  0  0  0  0  0  0  0  0  0  0
   -2.0221    5.4537    0.2374 H   0  0  0  0  0  0  0  0  0  0  0  0
   -3.4745    4.4614   -1.0434 C   0  0  0  0  0  0  0  0  0  0  0  0
   -4.0699    5.3720   -1.2102 H   0  0  0  0  0  0  0  0  0  0  0  0
   -3.8527    3.2519   -1.6471 C   0  0  0  0  0  0  0  0  0  0  0  0
   -4.7377    3.2145   -2.3004 H   0  0  0  0  0  0  0  0  0  0  0  0
   -3.1011    2.0879   -1.4290 C   0  0  0  0  0  0  0  0  0  0  0  0
   -3.3840    1.1507   -1.9287 H   0  0  0  0  0  0  0  0  0  0  0  0
   -1.6818   -0.3323   -0.0648 C   0  0  0  0  0  0  0  0  0  0  0  0
   -0.9386   -1.4841    0.3133 C   0  0  0  0  0  0  0  0  0  0  0  0
   -1.9410   -2.5857    0.6533 C   0  0  2  0  0  0  0  0  0  0  0  0
   -2.5193   -2.9462   -0.7632 C   0  0  0  0  0  0  0  0  0  0  0  0
   -1.6970   -3.1287   -1.4827 H   0  0  0  0  0  0  0  0  0  0  0  0
   -3.1134   -3.8799   -0.6912 H   0  0  0  0  0  0  0  0  0  0  0  0
   -3.3914   -1.7172   -1.1467 C   0  0  0  0  0  0  0  0  0  0  0  0
   -4.4633   -1.9828   -1.2441 H   0  0  0  0  0  0  0  0  0  0  0  0
   -3.0683   -1.2623   -2.1026 H   0  0  0  0  0  0  0  0  0  0  0  0
   -3.1429   -0.7496    0.0471 C   0  0  1  0  0  0  0  0  0  0  0  0
   -3.8666    0.0816    0.1374 H   0  0  0  0  0  0  0  0  0  0  0  0
   -3.1046   -1.7252    1.2707 C   0  0  0  0  0  0  0  0  0  0  0  0
   -1.3829   -3.7541    1.4402 C   0  0  0  0  0  0  0  0  0  0  0  0
   -0.9910   -3.4298    2.4251 H   0  0  0  0  0  0  0  0  0  0  0  0
   -0.5439   -4.2251    0.8906 H   0  0  0  0  0  0  0  0  0  0  0  0
   -2.1605   -4.5255    1.6110 H   0  0  0  0  0  0  0  0  0  0  0  0
   -4.4046   -2.5061    1.5007 C   0  0  0  0  0  0  0  0  0  0  0  0
   -4.2892   -3.2123    2.3483 H   0  0  0  0  0  0  0  0  0  0  0  0
   -4.7331   -3.0926    0.6228 H   0  0  0  0  0  0  0  0  0  0  0  0
   -5.2263   -1.8082    1.7642 H   0  0  0  0  0  0  0  0  0  0  0  0
   -2.7234   -1.0324    2.5862 C   0  0  0  0  0  0  0  0  0  0  0  0
   -1.7959   -0.4338    2.4955 H   0  0  0  0  0  0  0  0  0  0  0  0
   -2.5748   -1.7761    3.3957 H   0  0  0  0  0  0  0  0  0  0  0  0
   -3.5339   -0.3477    2.9102 H   0  0  0  0  0  0  0  0  0  0  0  0
  3  1  1  1  0  0  0
  3 15  1  0  0  0  0
  4  3  1  0  0  0  0
  4  5  1  0  0  0  0
  5  6  1  0  0  0  0
  7  5  2  0  0  0  0
  7  8  1  0  0  0  0
  9  7  1  0  0  0  0
 10  9  1  0  0  0  0
 11 13  1  0  0  0  0
 11  9  2  0  0  0  0
 12 11  1  0  0  0  0
 13  4  2  0  0  0  0
 14 13  1  0  0  0  0
 15 24  1  0  0  0  0
 15 16  2  0  0  0  0
 16  2  1  0  0  0  0
 16 17  1  0  0  0  0
 17 26  1  0  0  0  0
 17 27  1  1  0  0  0
 18 20  1  0  0  0  0
 18 17  1  0  0  0  0
 19 18  1  0  0  0  0
 21 18  1  0  0  0  0
 21 24  1  0  0  0  0
 22 21  1  0  0  0  0
 23 21  1  0  0  0  0
 24 25  1  1  0  0  0
 24 26  1  0  0  0  0
 26 31  1  0  0  0  0
 26 35  1  0  0  0  0
 27 30  1  0  0  0  0
 27 28  1  0  0  0  0
 29 27  1  0  0  0  0
 31 34  1  0  0  0  0
 31 32  1  0  0  0  0
 33 31  1  0  0  0  0
 35 38  1  0  0  0  0
 35 37  1  0  0  0  0
 36 35  1  0  0  0  0
M  CHG  1   2  -1
M  END
