9,11
q = -1

 37 36  0  0  1  0  0  0  0  0999 V2000
   -2.0024   -2.3555   -0.6251 S   0  0  0  0  0  0  0  0  0  0  0  0
   -2.4098   -4.2567    1.1770 F   0  0  0  0  0  0  0  0  0  0  0  0
   -4.1847   -3.1297    0.5893 F   0  0  0  0  0  0  0  0  0  0  0  0
   -3.3505   -4.6300   -0.7601 F   0  0  0  0  0  0  0  0  0  0  0  0
    1.0620   -2.2903   -0.2473 O   0  0  0  0  0  0  0  0  0  0  0  0
    0.0421   -0.6706   -2.1650 O   0  0  0  0  0  0  0  0  0  0  0  0
    0.3066    2.0402   -1.6674 O   0  0  0  0  0  0  0  0  0  0  0  0
    0.8424    2.8691    0.9720 O   0  0  0  0  0  0  0  0  0  0  0  0
   -0.0769    0.9976    2.6003 O   0  0  0  0  0  1  0  0  0  0  0  0
   -2.7043   -1.7907   -1.7755 O   0  0  0  0  0  1  0  0  0  0  0  0
   -1.5172   -1.5299    0.5084 O   0  0  0  0  0  1  0  0  0  0  0  0
   -0.7963   -3.3882   -1.0940 O   0  0  0  0  0  0  0  0  0  0  0  0
    0.5355   -2.8792   -1.3908 C   0  0  1  0  0  0  0  0  0  0  0  0
    0.5380   -1.9328   -2.5854 C   0  0  0  0  0  0  0  0  0  0  0  0
    0.0050    0.2770   -3.2418 C   0  0  0  0  0  0  0  0  0  0  0  0
   -0.5341    1.5920   -2.7323 C   0  0  0  0  0  0  0  0  0  0  0  0
    0.0774    3.3993   -1.2859 C   0  0  0  0  0  0  0  0  0  0  0  0
    1.0435    3.7169   -0.1584 C   0  0  0  0  0  0  0  0  0  0  0  0
   -0.1411    3.3131    1.9441 C   0  0  0  0  0  0  0  0  0  0  0  0
   -0.0920    2.2985    3.0896 C   0  0  0  0  0  0  0  0  0  0  0  0
   -3.0734   -3.7092    0.1615 C   0  0  0  0  0  0  0  0  0  0  0  0
    2.0664   -2.1563   -0.3825 H   0  0  0  0  0  0  0  0  0  0  0  0
    1.0712   -3.8141   -1.6703 H   0  0  0  0  0  0  0  0  0  0  0  0
   -0.0893   -2.3554   -3.4029 H   0  0  0  0  0  0  0  0  0  0  0  0
    1.5858   -1.8297   -2.9495 H   0  0  0  0  0  0  0  0  0  0  0  0
    1.0376    0.4013   -3.6355 H   0  0  0  0  0  0  0  0  0  0  0  0
   -0.6627   -0.0986   -4.0501 H   0  0  0  0  0  0  0  0  0  0  0  0
   -1.5801    1.4923   -2.3712 H   0  0  0  0  0  0  0  0  0  0  0  0
   -0.5094    2.3244   -3.5711 H   0  0  0  0  0  0  0  0  0  0  0  0
    0.2815    4.0729   -2.1508 H   0  0  0  0  0  0  0  0  0  0  0  0
   -0.9819    3.5307   -0.9746 H   0  0  0  0  0  0  0  0  0  0  0  0
    0.9505    4.7855    0.1342 H   0  0  0  0  0  0  0  0  0  0  0  0
    2.0820    3.5294   -0.5006 H   0  0  0  0  0  0  0  0  0  0  0  0
    0.1221    4.3405    2.2839 H   0  0  0  0  0  0  0  0  0  0  0  0
   -1.1520    3.3174    1.4840 H   0  0  0  0  0  0  0  0  0  0  0  0
   -0.9787    2.4997    3.7394 H   0  0  0  0  0  0  0  0  0  0  0  0
    0.8193    2.5060    3.7125 H   0  0  0  0  0  0  0  0  0  0  0  0
  1 21  1  0  0  0  0
  1 11  1  0  0  0  0
  4 21  1  0  0  0  0
  7 17  1  0  0  0  0
  8 19  1  0  0  0  0
  9 20  1  0  0  0  0
 10  1  1  0  0  0  0
 12  1  1  0  0  0  0
 13 23  1  6  0  0  0
 13 12  1  0  0  0  0
 13  5  1  0  0  0  0
 14  6  1  0  0  0  0
 14 13  1  0  0  0  0
 15 16  1  0  0  0  0
 15  6  1  0  0  0  0
 16 28  1  0  0  0  0
 16  7  1  0  0  0  0
 17 31  1  0  0  0  0
 17 18  1  0  0  0  0
 18 32  1  0  0  0  0
 18  8  1  0  0  0  0
 19 34  1  0  0  0  0
 19 20  1  0  0  0  0
 20 37  1  0  0  0  0
 20 36  1  0  0  0  0
 21  3  1  0  0  0  0
 21  2  1  0  0  0  0
 22  5  1  0  0  0  0
 24 14  1  0  0  0  0
 25 14  1  0  0  0  0
 26 15  1  0  0  0  0
 27 15  1  0  0  0  0
 29 16  1  0  0  0  0
 30 17  1  0  0  0  0
 33 18  1  0  0  0  0
 35 19  1  0  0  0  0
M  END
