17,18
q = -2.0, confidence = 0.79

 21 21  0  0  1  0  0  0  0  0999 V2000
    3.5277    1.0619   -0.4735 C   0  0  1  0  0  0  0  0  0  0  0  0
    3.6056    1.8300   -1.2803 H   0  0  0  0  0  0  0  0  0  0  0  0
    2.1918    0.3124   -0.5428 C   0  0  1  0  0  0  0  0  0  0  0  0
    2.2101   -0.1867   -1.5451 H   0  0  0  0  0  0  0  0  0  0  0  0
    2.1604   -0.8095    0.4923 C   0  0  2  0  0  0  0  0  0  0  0  0
    2.2649   -0.3540    1.5074 H   0  0  0  0  0  0  0  0  0  0  0  0
    3.3256   -1.7803    0.2385 C   0  0  2  0  0  0  0  0  0  0  0  0
    3.4341   -2.4696    1.1177 H   0  0  0  0  0  0  0  0  0  0  0  0
    4.6295   -0.9811    0.1302 C   0  0  0  0  0  0  0  0  0  0  0  0
    4.9194   -0.6558    1.1570 H   0  0  0  0  0  0  0  0  0  0  0  0
    5.4299   -1.6346   -0.2706 H   0  0  0  0  0  0  0  0  0  0  0  0
    4.7866    2.5153    0.8868 C   0  0  0  0  0  0  0  0  0  0  0  0
    4.8026    2.9355    1.9114 H   0  0  0  0  0  0  0  0  0  0  0  0
    4.7338    3.3584    0.1554 H   0  0  0  0  0  0  0  0  0  0  0  0
    5.7377    1.9662    0.7028 H   0  0  0  0  0  0  0  0  0  0  0  0
    3.6590    1.6716    0.7893 O   0  0  0  0  0  0  0  0  0  0  0  0
    1.0594    1.1329   -0.3822 O   0  0  0  0  0  1  0  0  0  0  0  0
    0.9282   -1.5011    0.3404 O   0  0  0  0  0  1  0  0  0  0  0  0
    3.0648   -2.5103   -0.9456 O   0  0  0  0  0  0  0  0  0  0  0  0
    2.0785   -2.5391   -0.9508 H   0  0  0  0  0  0  0  0  0  0  0  0
    4.5784    0.1437   -0.7512 O   0  0  0  0  0  0  0  0  0  0  0  0
  1  2  1  6  0  0  0
  1 16  1  0  0  0  0
  3  4  1  6  0  0  0
  3  1  1  0  0  0  0
  3 17  1  0  0  0  0
  3  5  1  0  0  0  0
  5  6  1  1  0  0  0
  7  5  1  0  0  0  0
  7  8  1  1  0  0  0
  9  7  1  0  0  0  0
  9 10  1  0  0  0  0
 11  9  1  0  0  0  0
 12 13  1  0  0  0  0
 14 12  1  0  0  0  0
 15 12  1  0  0  0  0
 16 12  1  0  0  0  0
 18  5  1  0  0  0  0
 19  7  1  0  0  0  0
 20 19  1  0  0  0  0
 21  1  1  0  0  0  0
 21  9  1  0  0  0  0
M  END
