1,2
q = -1.0

 60 65  0  0  1  0  0  0  0  0999 V2000
   -1.0305   -0.4427   -0.9759 O   0  5  0  0  0  0  0  0  0  0  0  0
    1.3711   -0.5752    0.5863 O   0  0  0  0  0  1  0  0  0  0  0  0
   -3.8105    0.2373   -0.5965 C   0  0  0  0  0  0  0  0  0  0  0  0
   -3.8213   -0.9970   -1.2981 C   0  0  0  0  0  0  0  0  0  0  0  0
   -3.0183   -1.2087   -2.0159 H   0  0  0  0  0  0  0  0  0  0  0  0
   -4.8395   -1.9381   -1.0958 C   0  0  0  0  0  0  0  0  0  0  0  0
   -4.8213   -2.8848   -1.6588 H   0  0  0  0  0  0  0  0  0  0  0  0
   -5.8825   -1.6807   -0.1894 C   0  0  0  0  0  0  0  0  0  0  0  0
   -6.6768   -2.4246   -0.0260 H   0  0  0  0  0  0  0  0  0  0  0  0
   -5.9038   -0.4536    0.4939 C   0  0  0  0  0  0  0  0  0  0  0  0
   -6.7172   -0.2308    1.2017 H   0  0  0  0  0  0  0  0  0  0  0  0
   -4.8886    0.4908    0.2892 C   0  0  0  0  0  0  0  0  0  0  0  0
   -4.9140    1.4430    0.8401 H   0  0  0  0  0  0  0  0  0  0  0  0
   -2.7183    1.2289   -0.7435 C   0  0  0  0  0  0  0  0  0  0  0  0
   -3.0780    2.6613   -0.5639 C   0  0  0  0  0  0  0  0  0  0  0  0
   -2.4577    3.4692    0.4192 C   0  0  0  0  0  0  0  0  0  0  0  0
   -1.7015    3.0157    1.0797 H   0  0  0  0  0  0  0  0  0  0  0  0
   -2.8085    4.8182    0.5825 C   0  0  0  0  0  0  0  0  0  0  0  0
   -2.3096    5.4228    1.3558 H   0  0  0  0  0  0  0  0  0  0  0  0
   -3.8072    5.3887   -0.2213 C   0  0  0  0  0  0  0  0  0  0  0  0
   -4.0890    6.4446   -0.0914 H   0  0  0  0  0  0  0  0  0  0  0  0
   -4.4544    4.5950   -1.1842 C   0  0  0  0  0  0  0  0  0  0  0  0
   -5.2439    5.0313   -1.8157 H   0  0  0  0  0  0  0  0  0  0  0  0
   -4.0972    3.2507   -1.3499 C   0  0  0  0  0  0  0  0  0  0  0  0
   -4.6061    2.6327   -2.1054 H   0  0  0  0  0  0  0  0  0  0  0  0
   -1.4058    0.8225   -0.9491 C   0  0  0  0  0  0  0  0  0  0  0  0
   -0.2806    1.8085   -1.2240 C   0  0  2  0  0  0  0  0  0  0  0  0
   -0.7135    2.8312   -1.2270 H   0  0  0  0  0  0  0  0  0  0  0  0
    0.4456    1.6023   -2.5454 C   0  0  0  0  0  0  0  0  0  0  0  0
   -0.1005    1.3613   -3.4694 H   0  0  0  0  0  0  0  0  0  0  0  0
    1.7731    1.8285   -2.4611 C   0  0  0  0  0  0  0  0  0  0  0  0
    2.4773    1.7916   -3.3049 H   0  0  0  0  0  0  0  0  0  0  0  0
    2.2044    2.1813   -1.0590 C   0  0  1  0  0  0  0  0  0  0  0  0
    2.6062    3.2102   -0.9799 H   0  0  0  0  0  0  0  0  0  0  0  0
    0.9200    1.8077   -0.2398 C   0  0  2  0  0  0  0  0  0  0  0  0
    0.7397    2.4093    0.6758 H   0  0  0  0  0  0  0  0  0  0  0  0
    1.6671    0.5240    0.1289 C   0  0  2  0  0  3  0  0  0  0  0  0
    3.0382    1.0656   -0.3110 C   0  0  0  0  0  0  0  0  0  0  0  0
    3.7370    1.5337    0.9715 C   0  0  0  0  0  0  0  0  0  0  0  0
    4.0059    2.8829    1.2638 C   0  0  0  0  0  0  0  0  0  0  0  0
    3.7126    3.6742    0.5597 H   0  0  0  0  0  0  0  0  0  0  0  0
    4.6633    3.2384    2.4536 C   0  0  0  0  0  0  0  0  0  0  0  0
    4.8731    4.2987    2.6611 H   0  0  0  0  0  0  0  0  0  0  0  0
    5.0484    2.2517    3.3718 C   0  0  0  0  0  0  0  0  0  0  0  0
    5.5586    2.5327    4.3054 H   0  0  0  0  0  0  0  0  0  0  0  0
    4.7766    0.9016    3.0925 C   0  0  0  0  0  0  0  0  0  0  0  0
    5.0731    0.1185    3.8066 H   0  0  0  0  0  0  0  0  0  0  0  0
    4.1280    0.5463    1.9036 C   0  0  0  0  0  0  0  0  0  0  0  0
    3.9212   -0.5115    1.6820 H   0  0  0  0  0  0  0  0  0  0  0  0
    3.9177    0.1615   -1.1569 C   0  0  0  0  0  0  0  0  0  0  0  0
    3.3591   -0.8969   -1.9027 C   0  0  0  0  0  0  0  0  0  0  0  0
    2.2818   -1.1021   -1.8409 H   0  0  0  0  0  0  0  0  0  0  0  0
    4.1678   -1.6951   -2.7256 C   0  0  0  0  0  0  0  0  0  0  0  0
    3.7146   -2.5241   -3.2904 H   0  0  0  0  0  0  0  0  0  0  0  0
    5.5443   -1.4403   -2.8243 C   0  0  0  0  0  0  0  0  0  0  0  0
    6.1789   -2.0675   -3.4685 H   0  0  0  0  0  0  0  0  0  0  0  0
    6.1073   -0.3826   -2.0924 C   0  0  0  0  0  0  0  0  0  0  0  0
    7.1859   -0.1750   -2.1630 H   0  0  0  0  0  0  0  0  0  0  0  0
    5.3012    0.4085   -1.2609 C   0  0  0  0  0  0  0  0  0  0  0  0
    5.7506    1.2265   -0.6778 H   0  0  0  0  0  0  0  0  0  0  0  0
  1 26  1  0  0  0  0
  3 12  1  0  0  0  0
  4  6  1  0  0  0  0
  4  3  2  0  0  0  0
  5  4  1  0  0  0  0
  6  8  2  0  0  0  0
  7  6  1  0  0  0  0
  8  9  1  0  0  0  0
  8 10  1  0  0  0  0
 10 11  1  0  0  0  0
 12 10  2  0  0  0  0
 12 13  1  0  0  0  0
 14  3  1  0  0  0  0
 14 15  1  0  0  0  0
 15 16  1  0  0  0  0
 16 18  2  0  0  0  0
 16 17  1  0  0  0  0
 18 19  1  0  0  0  0
 20 21  1  0  0  0  0
 20 18  1  0  0  0  0
 22 20  2  0  0  0  0
 23 22  1  0  0  0  0
 24 22  1  0  0  0  0
 24 15  2  0  0  0  0
 25 24  1  0  0  0  0
 26 14  2  0  0  0  0
 27 28  1  6  0  0  0
 27 26  1  0  0  0  0
 27 35  1  0  0  0  0
 29 31  2  0  0  0  0
 29 27  1  0  0  0  0
 30 29  1  0  0  0  0
 31 33  1  0  0  0  0
 32 31  1  0  0  0  0
 33 34  1  1  0  0  0
 33 38  1  0  0  0  0
 33 35  1  0  0  0  0
 35 37  1  0  0  0  0
 35 36  1  1  0  0  0
 37  2  1  6  0  0  0
 38 37  1  0  0  0  0
 38 39  1  0  0  0  0
 39 40  2  0  0  0  0
 39 48  1  0  0  0  0
 40 42  1  0  0  0  0
 41 40  1  0  0  0  0
 42 43  1  0  0  0  0
 42 44  2  0  0  0  0
 44 45  1  0  0  0  0
 46 44  1  0  0  0  0
 46 47  1  0  0  0  0
 48 46  2  0  0  0  0
 49 48  1  0  0  0  0
 50 38  1  0  0  0  0
 51 52  1  0  0  0  0
 51 50  2  0  0  0  0
 53 51  1  0  0  0  0
 54 53  1  0  0  0  0
 55 53  2  0  0  0  0
 55 57  1  0  0  0  0
 56 55  1  0  0  0  0
 57 59  2  0  0  0  0
 58 57  1  0  0  0  0
 59 50  1  0  0  0  0
 59 60  1  0  0  0  0
M  CHG  1   1  -1
M  END
