13,16
q = -1.0, confidence = 0.024

 27 28  0  0  1  0  0  0  0  0999 V2000
    2.8345    0.5635   -0.0231 N   0  0  0  0  0  0  0  0  0  0  0  0
    3.6171   -0.6158    0.0071 C   0  0  0  0  0  0  0  0  0  0  0  0
    3.0611   -1.8769   -0.3000 C   0  0  0  0  0  0  0  0  0  0  0  0
    3.8761   -3.0169   -0.2585 C   0  0  0  0  0  0  0  0  0  0  0  0
    5.2355   -2.9218    0.0773 C   0  0  0  0  0  0  0  0  0  0  0  0
    5.7831   -1.6613    0.3673 C   0  0  0  0  0  0  0  0  0  0  0  0
    4.9855   -0.5114    0.3346 C   0  0  0  0  0  0  0  0  0  0  0  0
    3.4630    1.7924   -0.0678 N   0  0  0  0  0  0  0  0  0  0  0  0
    2.5116    2.7093   -0.0573 C   0  0  0  0  0  0  0  0  0  0  0  0
    2.9009    4.1522   -0.1306 C   0  0  0  0  0  0  0  0  0  0  0  0
    1.1951    2.1035   -0.0023 C   0  0  0  0  0  0  0  0  0  0  0  0
   -0.0994    2.6806    0.1028 C   0  0  1  0  0  3  0  0  0  0  0  0
   -1.1814    2.0071    0.1257 O   0  0  0  0  0  1  0  0  0  0  0  0
   -0.2733    4.1792    0.2122 C   0  0  0  0  0  0  0  0  0  0  0  0
    1.4552    0.6871    0.0213 C   0  0  0  0  0  0  0  0  0  0  0  0
    0.6733   -0.3179    0.1229 O   0  5  0  0  0  0  0  0  0  0  0  0
    2.0035   -1.9483   -0.5790 H   0  0  0  0  0  0  0  0  0  0  0  0
    3.4370   -3.9961   -0.5046 H   0  0  0  0  0  0  0  0  0  0  0  0
    5.8663   -3.8228    0.1061 H   0  0  0  0  0  0  0  0  0  0  0  0
    6.8495   -1.5687    0.6244 H   0  0  0  0  0  0  0  0  0  0  0  0
    5.3963    0.4836    0.5480 H   0  0  0  0  0  0  0  0  0  0  0  0
    2.4481    4.6570   -1.0082 H   0  0  0  0  0  0  0  0  0  0  0  0
    4.0014    4.2182   -0.2167 H   0  0  0  0  0  0  0  0  0  0  0  0
    2.5868    4.7169    0.7711 H   0  0  0  0  0  0  0  0  0  0  0  0
    0.0772    4.6735   -0.7160 H   0  0  0  0  0  0  0  0  0  0  0  0
    0.3143    4.5991    1.0516 H   0  0  0  0  0  0  0  0  0  0  0  0
   -1.3440    4.4091    0.3557 H   0  0  0  0  0  0  0  0  0  0  0  0
  1  2  1  0  0  0  0
  1 15  1  0  0  0  0
  2  7  1  0  0  0  0
  3  4  1  0  0  0  0
  3  2  2  0  0  0  0
  4  5  2  0  0  0  0
  5 19  1  0  0  0  0
  5  6  1  0  0  0  0
  6 20  1  0  0  0  0
  7  6  2  0  0  0  0
  7 21  1  0  0  0  0
  8  9  2  0  0  0  0
  8  1  1  0  0  0  0
  9 11  1  0  0  0  0
 10  9  1  0  0  0  0
 10 24  1  0  0  0  0
 11 15  2  0  0  0  0
 11 12  1  0  0  0  0
 12 13  1  1  0  0  0
 12 14  1  0  0  0  0
 14 27  1  0  0  0  0
 14 26  1  0  0  0  0
 15 16  1  0  0  0  0
 17  3  1  0  0  0  0
 18  4  1  0  0  0  0
 22 10  1  0  0  0  0
 23 10  1  0  0  0  0
 25 14  1  0  0  0  0
M  CHG  1  16  -1
M  END
