13,20
q = -1.0

 39 40  0  0  1  0  0  0  0  0999 V2000
    2.7557    1.1480    0.1353 N   0  0  0  0  0  0  0  0  0  0  0  0
    3.9315    0.3842   -0.0629 C   0  0  0  0  0  0  0  0  0  0  0  0
    3.8802   -0.9372   -0.5579 C   0  0  0  0  0  0  0  0  0  0  0  0
    5.0729   -1.6518   -0.7385 C   0  0  0  0  0  0  0  0  0  0  0  0
    6.3156   -1.0721   -0.4404 C   0  0  0  0  0  0  0  0  0  0  0  0
    6.3580    0.2473    0.0393 C   0  0  0  0  0  0  0  0  0  0  0  0
    5.1786    0.9767    0.2294 C   0  0  0  0  0  0  0  0  0  0  0  0
    2.8617    2.5136    0.3106 N   0  0  0  0  0  0  0  0  0  0  0  0
    1.6391    2.9784    0.4932 C   0  0  0  0  0  0  0  0  0  0  0  0
    1.4778    4.4507    0.7135 C   0  0  0  0  0  0  0  0  0  0  0  0
    0.6568    1.9076    0.4523 C   0  0  0  0  0  0  0  0  0  0  0  0
   -0.7441    1.8849    0.6839 C   0  0  2  0  0  3  0  0  0  0  0  0
   -1.4411    0.8116    0.7001 O   0  0  0  0  0  1  0  0  0  0  0  0
   -1.5546    3.1381    0.9211 C   0  0  0  0  0  0  0  0  0  0  0  0
   -2.4482    3.5577   -0.2954 C   0  0  0  0  0  0  0  0  0  0  0  0
   -3.5543    2.5193   -0.5617 C   0  0  0  0  0  0  0  0  0  0  0  0
   -3.0927    4.9068    0.0729 C   0  0  0  0  0  0  0  0  0  0  0  0
   -1.5945    3.7158   -1.5670 C   0  0  0  0  0  0  0  0  0  0  0  0
    1.4424    0.7174    0.2175 C   0  0  0  0  0  0  0  0  0  0  0  0
    1.1142   -0.5129    0.1280 O   0  5  0  0  0  0  0  0  0  0  0  0
    2.9115   -1.3858   -0.8038 H   0  0  0  0  0  0  0  0  0  0  0  0
    5.0244   -2.6800   -1.1292 H   0  0  0  0  0  0  0  0  0  0  0  0
    7.2455   -1.6418   -0.5864 H   0  0  0  0  0  0  0  0  0  0  0  0
    7.3250    0.7197    0.2711 H   0  0  0  0  0  0  0  0  0  0  0  0
    5.1915    2.0116    0.5941 H   0  0  0  0  0  0  0  0  0  0  0  0
    1.0536    4.6775    1.7135 H   0  0  0  0  0  0  0  0  0  0  0  0
    0.8142    4.9156   -0.0427 H   0  0  0  0  0  0  0  0  0  0  0  0
    2.4749    4.9243    0.6453 H   0  0  0  0  0  0  0  0  0  0  0  0
   -0.8984    3.9842    1.1882 H   0  0  0  0  0  0  0  0  0  0  0  0
   -2.2207    2.9423    1.7874 H   0  0  0  0  0  0  0  0  0  0  0  0
   -4.2332    2.8929   -1.3563 H   0  0  0  0  0  0  0  0  0  0  0  0
   -4.1638    2.3371    0.3482 H   0  0  0  0  0  0  0  0  0  0  0  0
   -3.1293    1.5552   -0.9004 H   0  0  0  0  0  0  0  0  0  0  0  0
   -3.7509    5.2608   -0.7469 H   0  0  0  0  0  0  0  0  0  0  0  0
   -2.3243    5.6878    0.2506 H   0  0  0  0  0  0  0  0  0  0  0  0
   -3.7109    4.8223    0.9911 H   0  0  0  0  0  0  0  0  0  0  0  0
   -2.2262    4.0698   -2.4075 H   0  0  0  0  0  0  0  0  0  0  0  0
   -1.1398    2.7508   -1.8709 H   0  0  0  0  0  0  0  0  0  0  0  0
   -0.7834    4.4596   -1.4256 H   0  0  0  0  0  0  0  0  0  0  0  0
  1 19  1  0  0  0  0
  1  8  1  0  0  0  0
  2  1  1  0  0  0  0
  2  7  1  0  0  0  0
  3  2  2  0  0  0  0
  4  3  1  0  0  0  0
  4  5  2  0  0  0  0
  5  6  1  0  0  0  0
  6  7  2  0  0  0  0
  6 24  1  0  0  0  0
  7 25  1  0  0  0  0
  8  9  2  0  0  0  0
  9 10  1  0  0  0  0
 10 26  1  0  0  0  0
 11  9  1  0  0  0  0
 11 12  1  0  0  0  0
 12 13  1  6  0  0  0
 12 14  1  0  0  0  0
 14 29  1  0  0  0  0
 14 30  1  0  0  0  0
 15 17  1  0  0  0  0
 15 14  1  0  0  0  0
 16 15  1  0  0  0  0
 16 32  1  0  0  0  0
 17 35  1  0  0  0  0
 17 36  1  0  0  0  0
 18 39  1  0  0  0  0
 18 15  1  0  0  0  0
 19 11  2  0  0  0  0
 20 19  1  0  0  0  0
 21  3  1  0  0  0  0
 22  4  1  0  0  0  0
 23  5  1  0  0  0  0
 27 10  1  0  0  0  0
 28 10  1  0  0  0  0
 31 16  1  0  0  0  0
 33 16  1  0  0  0  0
 34 17  1  0  0  0  0
 37 18  1  0  0  0  0
 38 18  1  0  0  0  0
M  CHG  1  20  -1
M  END
