1,2
q = -1.0, confidence = 0.006

 16 16  0  0  0  0  0  0  0  0999 V2000
    1.8483   -0.5785    1.0972 O   0  5  0  0  0  0  0  0  0  0  0  0
    1.4002   -0.2472   -1.8143 O   0  5  0  0  0  0  0  0  0  0  0  0
    8.0548    0.1563    0.7531 O   0  0  0  0  0  0  0  0  0  0  0  0
    7.5609    0.4064   -1.3643 O   0  0  0  0  0  0  0  0  0  0  0  0
    3.5192   -0.1456   -0.6211 C   0  0  0  0  0  0  0  0  0  0  0  0
    3.0780   -0.3869    0.7497 C   0  0  0  0  0  0  0  0  0  0  0  0
    4.1006   -0.4252    1.7622 C   0  0  0  0  0  0  0  0  0  0  0  0
    5.4380   -0.2352    1.4664 C   0  0  0  0  0  0  0  0  0  0  0  0
    5.8339    0.0033    0.1266 C   0  0  0  0  0  0  0  0  0  0  0  0
    4.8971    0.0436   -0.8947 C   0  0  0  0  0  3  0  0  0  0  0  0
    2.6413   -0.1158   -1.7703 C   0  0  0  0  0  0  0  0  0  0  0  0
    7.2563    0.2039   -0.1861 N   0  0  0  0  0  0  0  0  0  0  0  0
    5.2451    0.2224   -1.9234 H   0  0  0  0  0  0  0  0  0  0  0  0
    6.2159   -0.2602    2.2422 H   0  0  0  0  0  0  0  0  0  0  0  0
    3.7652   -0.6085    2.7933 H   0  0  0  0  0  0  0  0  0  0  0  0
    3.1738    0.0373   -2.7479 H   0  0  0  0  0  0  0  0  0  0  0  0
  2 11  1  0  0  0  0
  4 12  2  0  0  0  0
  5  6  1  0  0  0  0
  6  1  1  0  0  0  0
  6  7  2  0  0  0  0
  7 15  1  0  0  0  0
  8  7  1  0  0  0  0
  8 14  1  0  0  0  0
  9  8  2  0  0  0  0
 10  5  1  0  0  0  0
 10  9  1  0  0  0  0
 11  5  2  0  0  0  0
 12  9  1  0  0  0  0
 12  3  2  0  0  0  0
 13 10  1  0  0  0  0
 16 11  1  0  0  0  0
M  CHG  2   1  -1   2  -1
M  END
