1,2
q = -1.0

 16 16  0  0  1  0  0  0  0  0999 V2000
   -1.8483    0.5775   -1.0974 O   0  0  0  0  0  1  0  0  0  0  0  0
   -1.4002    0.2458    1.8141 O   0  5  0  0  0  0  0  0  0  0  0  0
   -8.0552   -0.1532   -0.7529 O   0  0  0  0  0  0  0  0  0  0  0  0
   -7.5614   -0.4036    1.3645 O   0  0  0  0  0  0  0  0  0  0  0  0
   -3.5194    0.1457    0.6211 C   0  0  0  0  0  0  0  0  0  0  0  0
   -3.0781    0.3867   -0.7499 C   0  0  1  0  0  3  0  0  0  0  0  0
   -4.1008    0.4256   -1.7622 C   0  0  0  0  0  0  0  0  0  0  0  0
   -5.4383    0.2365   -1.4664 C   0  0  0  0  0  0  0  0  0  0  0  0
   -5.8342   -0.0017   -0.1265 C   0  0  0  0  0  0  0  0  0  0  0  0
   -4.8974   -0.0427    0.8947 C   0  0  0  0  0  0  0  0  0  0  0  0
   -2.6415    0.1152    1.7702 C   0  0  0  0  0  0  0  0  0  0  0  0
   -7.2568   -0.2013    0.1863 N   0  0  0  0  0  0  0  0  0  0  0  0
   -5.2454   -0.2211    1.9234 H   0  0  0  0  0  0  0  0  0  0  0  0
   -6.2162    0.2620   -2.2421 H   0  0  0  0  0  0  0  0  0  0  0  0
   -3.7653    0.6086   -2.7934 H   0  0  0  0  0  0  0  0  0  0  0  0
   -3.1739   -0.0375    2.7478 H   0  0  0  0  0  0  0  0  0  0  0  0
  3 12  2  0  0  0  0
  5 10  1  0  0  0  0
  5 11  2  0  0  0  0
  6  1  1  1  0  0  0
  6  5  1  0  0  0  0
  7  8  2  0  0  0  0
  7  6  1  0  0  0  0
  8  9  1  0  0  0  0
  9 12  1  0  0  0  0
  9 10  2  0  0  0  0
 10 13  1  0  0  0  0
 11  2  1  0  0  0  0
 11 16  1  0  0  0  0
 12  4  2  0  0  0  0
 14  8  1  0  0  0  0
 15  7  1  0  0  0  0
M  CHG  1   2  -1
M  END
