1,2
q = -2.0, confidence = 0.624

  8  7  0  0  0  0  0  0  0  0999 V2000
   -0.1283   -2.0671    0.1007 O   0  5  0  0  0  0  0  0  0  0  0  0
    0.1944   -0.6969   -1.9938 O   0  5  0  0  0  0  0  0  0  0  0  0
    0.0696   -2.0418   -2.1901 N   0  0  0  0  0  0  0  0  0  0  0  0
   -0.1172   -2.7002   -1.0743 C   0  0  0  0  0  0  0  0  0  0  0  0
   -0.2686   -4.1882   -1.0718 C   0  0  0  0  0  0  0  0  0  0  0  0
   -1.2271   -4.4781   -0.5944 H   0  0  0  0  0  0  0  0  0  0  0  0
    0.5454   -4.6607   -0.4837 H   0  0  0  0  0  0  0  0  0  0  0  0
   -0.2420   -4.5756   -2.1057 H   0  0  0  0  0  0  0  0  0  0  0  0
  3  2  1  0  0  0  0
  3  4  2  0  0  0  0
  4  5  1  0  0  0  0
  4  1  1  0  0  0  0
  5  6  1  0  0  0  0
  5  7  1  0  0  0  0
  8  5  1  0  0  0  0
M  CHG  2   1  -1   2  -1
M  END
