1,2
q = -2.0, confidence = 0.562

 11 10  0  0  0  0  0  0  0  0999 V2000
   -0.0914    0.6684   -1.9640 O   0  5  0  0  0  0  0  0  0  0  0  0
    0.5097    1.8578    0.1747 O   0  5  0  0  0  0  0  0  0  0  0  0
    0.3255    1.9593   -2.1142 N   0  0  0  0  0  0  0  0  0  0  0  0
    0.6388    2.5226   -0.9735 C   0  0  0  0  0  0  0  0  0  0  0  0
    1.0791    3.9588   -0.9224 C   0  0  0  0  0  0  0  0  0  0  0  0
    1.1393    4.3227   -1.9665 H   0  0  0  0  0  0  0  0  0  0  0  0
    0.2764    4.5463   -0.4226 H   0  0  0  0  0  0  0  0  0  0  0  0
    2.4029    4.1678   -0.1790 C   0  0  0  0  0  0  0  0  0  0  0  0
    2.3339    3.8093    0.8671 H   0  0  0  0  0  0  0  0  0  0  0  0
    2.6733    5.2414   -0.1545 H   0  0  0  0  0  0  0  0  0  0  0  0
    3.2312    3.6210   -0.6727 H   0  0  0  0  0  0  0  0  0  0  0  0
  3  1  1  0  0  0  0
  3  4  2  0  0  0  0
  4  5  1  0  0  0  0
  4  2  1  0  0  0  0
  5  7  1  0  0  0  0
  5  8  1  0  0  0  0
  6  5  1  0  0  0  0
  8 10  1  0  0  0  0
  8  9  1  0  0  0  0
 11  8  1  0  0  0  0
M  CHG  2   1  -1   2  -1
M  END
