1,2
q = -1.0

 32 31  0  0  1  0  0  0  0  0999 V2000
   -0.2254    1.7712   -0.1252 O   0  0  0  0  0  1  0  0  0  0  0  0
    1.4243   -0.6234   -0.4560 O   0  5  0  0  0  0  0  0  0  0  0  0
    1.7234    4.2969    1.1910 C   0  0  0  0  0  0  0  0  0  0  0  0
    1.7161    5.4013    1.3016 H   0  0  0  0  0  0  0  0  0  0  0  0
    2.7798    3.9676    1.1393 H   0  0  0  0  0  0  0  0  0  0  0  0
    1.2755    3.8592    2.1061 H   0  0  0  0  0  0  0  0  0  0  0  0
    1.5854    4.4878   -1.3265 C   0  0  0  0  0  0  0  0  0  0  0  0
    1.5707    5.5961   -1.2701 H   0  0  0  0  0  0  0  0  0  0  0  0
    1.0404    4.1855   -2.2437 H   0  0  0  0  0  0  0  0  0  0  0  0
    2.6402    4.1685   -1.4380 H   0  0  0  0  0  0  0  0  0  0  0  0
   -0.5120    4.4132    0.0518 C   0  0  0  0  0  0  0  0  0  0  0  0
   -0.4998    5.5192    0.1304 H   0  0  0  0  0  0  0  0  0  0  0  0
   -1.0220    4.0059    0.9459 H   0  0  0  0  0  0  0  0  0  0  0  0
   -1.1206    4.1335   -0.8300 H   0  0  0  0  0  0  0  0  0  0  0  0
    0.9265    3.8857   -0.0666 C   0  0  0  0  0  0  0  0  0  0  0  0
    0.9192    2.3394   -0.1769 C   0  0  1  0  0  3  0  0  0  0  0  0
    2.1578    1.6618   -0.3184 C   0  0  0  0  0  0  0  0  0  0  0  0
    3.0675    2.2766   -0.3358 H   0  0  0  0  0  0  0  0  0  0  0  0
    2.3483    0.2678   -0.4577 C   0  0  0  0  0  0  0  0  0  0  0  0
    3.7610   -0.2691   -0.6310 C   0  0  0  0  0  0  0  0  0  0  0  0
    3.8519   -0.6211   -1.6833 H   0  0  0  0  0  0  0  0  0  0  0  0
    4.5025    0.5470   -0.5011 H   0  0  0  0  0  0  0  0  0  0  0  0
    4.0861   -1.4435    0.3131 C   0  0  0  0  0  0  0  0  0  0  0  0
    3.3140   -2.2215    0.1251 H   0  0  0  0  0  0  0  0  0  0  0  0
    3.9842   -1.0244    1.7843 C   0  0  0  0  0  0  0  0  0  0  0  0
    2.9762   -0.6314    2.0270 H   0  0  0  0  0  0  0  0  0  0  0  0
    4.7222   -0.2289    2.0241 H   0  0  0  0  0  0  0  0  0  0  0  0
    4.1837   -1.8814    2.4596 H   0  0  0  0  0  0  0  0  0  0  0  0
    5.4607   -2.0372   -0.0091 C   0  0  0  0  0  0  0  0  0  0  0  0
    5.5234   -2.3732   -1.0647 H   0  0  0  0  0  0  0  0  0  0  0  0
    5.6834   -2.9101    0.6382 H   0  0  0  0  0  0  0  0  0  0  0  0
    6.2670   -1.2896    0.1521 H   0  0  0  0  0  0  0  0  0  0  0  0
  3  4  1  0  0  0  0
  3  6  1  0  0  0  0
  5  3  1  0  0  0  0
  7  8  1  0  0  0  0
  7 15  1  0  0  0  0
  9  7  1  0  0  0  0
 10  7  1  0  0  0  0
 11 12  1  0  0  0  0
 11 13  1  0  0  0  0
 14 11  1  0  0  0  0
 15 11  1  0  0  0  0
 15  3  1  0  0  0  0
 16  1  1  1  0  0  0
 16 15  1  0  0  0  0
 17 16  1  0  0  0  0
 18 17  1  0  0  0  0
 19  2  1  0  0  0  0
 19 17  2  0  0  0  0
 20 22  1  0  0  0  0
 20 19  1  0  0  0  0
 20 23  1  0  0  0  0
 21 20  1  0  0  0  0
 23 25  1  0  0  0  0
 24 23  1  0  0  0  0
 25 27  1  0  0  0  0
 25 26  1  0  0  0  0
 25 28  1  0  0  0  0
 29 32  1  0  0  0  0
 29 23  1  0  0  0  0
 29 31  1  0  0  0  0
 30 29  1  0  0  0  0
M  CHG  1   2  -1
M  END
