1,2
q = -1.0

 16 16  0  0  1  0  0  0  0  0999 V2000
   -0.1693   -0.8914   -1.1465 O   0  5  0  0  0  0  0  0  0  0  0  0
   -0.0800    0.3565    1.2145 O   0  5  0  0  0  0  0  0  0  0  0  0
   -3.6367   -0.2343    0.8778 O   0  0  0  0  0  0  0  0  0  0  0  0
   -5.9060    0.0296   -1.0311 N   0  0  0  0  0  0  0  0  0  0  0  0
   -6.2590    0.7491   -0.0929 N   0  0  0  0  0  4  0  0  0  0  0  0
   -6.6660    1.5093    0.6709 N   0  0  0  0  0  2  0  0  0  0  0  0
   -1.2781   -0.7013   -0.5364 C   0  0  0  0  0  0  0  0  0  0  0  0
   -2.5535   -1.0666   -1.0644 C   0  0  0  0  0  0  0  0  0  0  0  0
   -2.6199   -1.5502   -2.0484 H   0  0  0  0  0  0  0  0  0  0  0  0
   -3.6921   -0.8342   -0.3224 C   0  0  2  0  0  3  0  0  0  0  0  0
   -2.4527    0.1784    1.4118 C   0  0  0  0  0  0  0  0  0  0  0  0
   -2.5720    0.6637    2.3876 H   0  0  0  0  0  0  0  0  0  0  0  0
   -1.2393   -0.0327    0.7652 C   0  0  0  0  0  0  0  0  0  0  0  0
   -5.1001   -1.1655   -0.7304 C   0  0  0  0  0  0  0  0  0  0  0  0
   -5.0761   -1.7675   -1.6556 H   0  0  0  0  0  0  0  0  0  0  0  0
   -5.5840   -1.7763    0.0656 H   0  0  0  0  0  0  0  0  0  0  0  0
  1  7  1  0  0  0  0
  3 11  1  0  0  0  0
  4 14  1  0  0  0  0
  4  5  2  0  0  0  0
  5  6  2  0  0  0  0
  7 13  1  0  0  0  0
  8  7  2  0  0  0  0
  8 10  1  0  0  0  0
  9  8  1  0  0  0  0
 10 14  1  6  0  0  0
 10  3  1  0  0  0  0
 11 12  1  0  0  0  0
 13  2  1  0  0  0  0
 13 11  2  0  0  0  0
 14 16  1  0  0  0  0
 15 14  1  0  0  0  0
M  CHG  2   1  -1   2  -1
M  END
