3,4
q = -2.0, confidence = 0.746

 34 37  0  0  0  0  0  0  0  0999 V2000
   -5.6747    4.7820    0.0096 Br  0  0  0  0  0  0  0  0  0  0  0  0
   -5.7503   -4.7703   -0.0352 Br  0  0  0  0  0  0  0  0  0  0  0  0
    1.0096    0.0515    1.3176 O   0  5  0  0  0  0  0  0  0  0  0  0
    1.0114   -0.1390   -1.2844 O   0  5  0  0  0  0  0  0  0  0  0  0
   -0.0639    0.8740    1.2711 C   0  0  0  0  0  0  0  0  0  0  0  0
   -1.1405    0.5979    0.4097 C   0  0  0  0  0  0  0  0  0  0  0  0
   -2.2002    1.5665    0.3047 C   0  0  0  0  0  0  0  0  0  0  0  0
   -3.2629    1.4400   -0.6414 C   0  0  0  0  0  0  0  0  0  0  0  0
   -3.2721    0.5788   -1.3232 H   0  0  0  0  0  0  0  0  0  0  0  0
   -4.2746    2.3832   -0.7313 C   0  0  0  0  0  0  0  0  0  0  0  0
   -5.0800    2.2707   -1.4704 H   0  0  0  0  0  0  0  0  0  0  0  0
   -4.2647    3.5071    0.1360 C   0  0  0  0  0  0  0  0  0  0  0  0
   -3.2431    3.6901    1.0541 C   0  0  0  0  0  0  0  0  0  0  0  0
   -3.2307    4.5733    1.7090 H   0  0  0  0  0  0  0  0  0  0  0  0
   -2.1874    2.7377    1.1496 C   0  0  0  0  0  0  0  0  0  0  0  0
   -1.1027    2.9309    2.0549 C   0  0  0  0  0  0  0  0  0  0  0  0
   -1.1011    3.8216    2.7019 H   0  0  0  0  0  0  0  0  0  0  0  0
   -0.0570    2.0296    2.1038 C   0  0  0  0  0  0  0  0  0  0  0  0
    0.8058    2.1763    2.7676 H   0  0  0  0  0  0  0  0  0  0  0  0
   -0.0704   -0.9547   -1.2401 C   0  0  0  0  0  0  0  0  0  0  0  0
   -1.1468   -0.6599   -0.3859 C   0  0  0  0  0  0  0  0  0  0  0  0
   -2.2210   -1.6134   -0.2915 C   0  0  0  0  0  0  0  0  0  0  0  0
   -3.2898   -1.4707    0.6452 C   0  0  0  0  0  0  0  0  0  0  0  0
   -3.2903   -0.6102    1.3280 H   0  0  0  0  0  0  0  0  0  0  0  0
   -4.3178   -2.3969    0.7236 C   0  0  0  0  0  0  0  0  0  0  0  0
   -5.1283   -2.2725    1.4553 H   0  0  0  0  0  0  0  0  0  0  0  0
   -4.3184   -3.5192   -0.1460 C   0  0  0  0  0  0  0  0  0  0  0  0
   -3.2914   -3.7178   -1.0549 C   0  0  0  0  0  0  0  0  0  0  0  0
   -3.2877   -4.6001   -1.7110 H   0  0  0  0  0  0  0  0  0  0  0  0
   -2.2191   -2.7830   -1.1387 C   0  0  0  0  0  0  0  0  0  0  0  0
   -1.1293   -2.9938   -2.0338 C   0  0  0  0  0  0  0  0  0  0  0  0
   -1.1353   -3.8845   -2.6805 H   0  0  0  0  0  0  0  0  0  0  0  0
   -0.0692   -2.1090   -2.0725 C   0  0  0  0  0  0  0  0  0  0  0  0
    0.7981   -2.2678   -2.7277 H   0  0  0  0  0  0  0  0  0  0  0  0
  1 12  1  0  0  0  0
  4 20  1  0  0  0  0
  5  3  1  0  0  0  0
  5 18  1  0  0  0  0
  6  5  2  0  0  0  0
  7  6  1  0  0  0  0
  7 15  1  0  0  0  0
  8  7  2  0  0  0  0
  9  8  1  0  0  0  0
 10  8  1  0  0  0  0
 10 12  2  0  0  0  0
 11 10  1  0  0  0  0
 12 13  1  0  0  0  0
 13 15  2  0  0  0  0
 13 14  1  0  0  0  0
 15 16  1  0  0  0  0
 16 18  2  0  0  0  0
 16 17  1  0  0  0  0
 18 19  1  0  0  0  0
 20 21  1  0  0  0  0
 21 22  2  0  0  0  0
 21  6  1  0  0  0  0
 22 23  1  0  0  0  0
 23 25  2  0  0  0  0
 23 24  1  0  0  0  0
 25 26  1  0  0  0  0
 27  2  1  0  0  0  0
 27 25  1  0  0  0  0
 28 27  2  0  0  0  0
 29 28  1  0  0  0  0
 30 28  1  0  0  0  0
 30 22  1  0  0  0  0
 31 30  2  0  0  0  0
 32 31  1  0  0  0  0
 33 31  1  0  0  0  0
 33 20  2  0  0  0  0
 34 33  1  0  0  0  0
M  CHG  2   3  -1   4  -1
M  END
