2,5
q = -2.0, confidence = 0.892

 17 18  0  0  1  0  0  0  0  0999 V2000
    1.4973   -0.7849   -1.4940 O   0  0  0  0  0  0  0  0  0  0  0  0
    1.2857   -0.4740    0.7855 O   0  0  0  0  0  1  0  0  0  0  0  0
    1.9989    1.3218   -0.5471 O   0  0  0  0  0  0  0  0  0  0  0  0
    3.5202    3.0042   -0.5986 O   0  0  0  0  0  0  0  0  0  0  0  0
    0.0730   -0.4820   -1.6029 O   0  0  0  0  0  1  0  0  0  0  0  0
    1.9870   -0.1882   -0.3489 C   0  0  2  0  0  0  0  0  0  0  0  0
    3.4658   -0.5075   -0.2337 C   0  0  0  0  0  0  0  0  0  0  0  0
    4.0914   -1.7428   -0.0545 C   0  0  0  0  0  0  0  0  0  0  0  0
    3.5030   -2.6692    0.0161 H   0  0  0  0  0  0  0  0  0  0  0  0
    5.4955   -1.7558    0.0292 C   0  0  0  0  0  0  0  0  0  0  0  0
    6.0221   -2.7125    0.1683 H   0  0  0  0  0  0  0  0  0  0  0  0
    6.2430   -0.5631   -0.0605 C   0  0  0  0  0  0  0  0  0  0  0  0
    7.3405   -0.6063    0.0110 H   0  0  0  0  0  0  0  0  0  0  0  0
    5.6016    0.6735   -0.2392 C   0  0  0  0  0  0  0  0  0  0  0  0
    6.1614    1.6179   -0.3125 H   0  0  0  0  0  0  0  0  0  0  0  0
    4.2049    0.6742   -0.3254 C   0  0  0  0  0  0  0  0  0  0  0  0
    3.2651    1.8194   -0.5095 C   0  0  0  0  0  0  0  0  0  0  0  0
  1  6  1  0  0  0  0
  3 17  1  0  0  0  0
  3  6  1  0  0  0  0
  4 17  2  0  0  0  0
  5  1  1  0  0  0  0
  6  7  1  0  0  0  0
  6  2  1  1  0  0  0
  7  8  1  0  0  0  0
  8  9  1  0  0  0  0
  8 10  2  0  0  0  0
 10 11  1  0  0  0  0
 12 13  1  0  0  0  0
 12 10  1  0  0  0  0
 14 12  2  0  0  0  0
 15 14  1  0  0  0  0
 16 14  1  0  0  0  0
 16  7  2  0  0  0  0
 17 16  1  0  0  0  0
M  END
