1,2
q = -1.0

 34 33  0  0  1  0  0  0  0  0999 V2000
    1.3793    0.6719    0.0894 O   0  5  0  0  0  0  0  0  0  0  0  0
   -1.3715    0.6821    0.0858 O   0  0  0  0  0  1  0  0  0  0  0  0
    2.3239    2.7031   -0.3037 O   0  0  0  0  0  0  0  0  0  0  0  0
   -2.3026    2.7195   -0.3011 O   0  0  0  0  0  0  0  0  0  0  0  0
    3.6823    2.2517    0.0277 C   0  0  0  0  0  0  0  0  0  0  0  0
    4.5138    3.5159   -0.2105 C   0  0  0  0  0  0  0  0  0  0  0  0
    4.4294    3.8413   -1.2659 H   0  0  0  0  0  0  0  0  0  0  0  0
    5.5805    3.3223    0.0158 H   0  0  0  0  0  0  0  0  0  0  0  0
    4.1577    4.3412    0.4366 H   0  0  0  0  0  0  0  0  0  0  0  0
    4.1321    1.1302   -0.9163 C   0  0  0  0  0  0  0  0  0  0  0  0
    3.5733    0.1975   -0.7260 H   0  0  0  0  0  0  0  0  0  0  0  0
    5.2134    0.9350   -0.7702 H   0  0  0  0  0  0  0  0  0  0  0  0
    3.9750    1.4300   -1.9713 H   0  0  0  0  0  0  0  0  0  0  0  0
    3.7507    1.8311    1.5010 C   0  0  0  0  0  0  0  0  0  0  0  0
    3.3784    2.6476    2.1511 H   0  0  0  0  0  0  0  0  0  0  0  0
    4.8023    1.6195    1.7801 H   0  0  0  0  0  0  0  0  0  0  0  0
    3.1463    0.9250    1.6866 H   0  0  0  0  0  0  0  0  0  0  0  0
   -3.6624    2.2735    0.0336 C   0  0  0  0  0  0  0  0  0  0  0  0
   -4.1208    1.1561   -0.9111 C   0  0  0  0  0  0  0  0  0  0  0  0
   -3.9624    1.4556   -1.9660 H   0  0  0  0  0  0  0  0  0  0  0  0
   -5.2035    0.9689   -0.7645 H   0  0  0  0  0  0  0  0  0  0  0  0
   -3.5691    0.2187   -0.7218 H   0  0  0  0  0  0  0  0  0  0  0  0
   -3.7286    1.8496    1.5061 C   0  0  0  0  0  0  0  0  0  0  0  0
   -3.1302    0.9386    1.6875 H   0  0  0  0  0  0  0  0  0  0  0  0
   -4.7807    1.6451    1.7881 H   0  0  0  0  0  0  0  0  0  0  0  0
   -3.3483    2.6618    2.1571 H   0  0  0  0  0  0  0  0  0  0  0  0
   -4.4884    3.5422   -0.1994 C   0  0  0  0  0  0  0  0  0  0  0  0
   -4.1262    4.3644    0.4483 H   0  0  0  0  0  0  0  0  0  0  0  0
   -5.5553    3.3535    0.0299 H   0  0  0  0  0  0  0  0  0  0  0  0
   -4.4057    3.8695   -1.2544 H   0  0  0  0  0  0  0  0  0  0  0  0
   -1.2232    1.9167   -0.2020 C   0  0  1  0  0  3  0  0  0  0  0  0
    0.0107    2.5693   -0.4106 C   0  0  0  0  0  0  0  0  0  0  0  0
    0.0153    3.6435   -0.6221 H   0  0  0  0  0  0  0  0  0  0  0  0
    1.2399    1.9064   -0.2015 C   0  0  0  0  0  0  0  0  0  0  0  0
  3 34  1  0  0  0  0
  3  5  1  0  0  0  0
  4 31  1  0  0  0  0
  4 18  1  0  0  0  0
  5 14  1  0  0  0  0
  6  8  1  0  0  0  0
  6  5  1  0  0  0  0
  6  9  1  0  0  0  0
  7  6  1  0  0  0  0
 10 12  1  0  0  0  0
 10 11  1  0  0  0  0
 10  5  1  0  0  0  0
 13 10  1  0  0  0  0
 14 17  1  0  0  0  0
 14 16  1  0  0  0  0
 14 15  1  0  0  0  0
 18 23  1  0  0  0  0
 19 21  1  0  0  0  0
 19 22  1  0  0  0  0
 19 18  1  0  0  0  0
 20 19  1  0  0  0  0
 23 24  1  0  0  0  0
 23 25  1  0  0  0  0
 23 26  1  0  0  0  0
 27 29  1  0  0  0  0
 27 18  1  0  0  0  0
 27 28  1  0  0  0  0
 30 27  1  0  0  0  0
 31  2  1  1  0  0  0
 32 31  1  0  0  0  0
 32 34  2  0  0  0  0
 33 32  1  0  0  0  0
 34  1  1  0  0  0  0
M  CHG  1   1  -1
M  END
