1,2
q = -1.0, confidence = 0.01

 12 12  0  0  0  0  0  0  0  0999 V2000
    1.7248    0.8966    0.9048 O   0  5  0  0  0  0  0  0  0  0  0  0
    0.8005   -0.4468   -1.1652 O   0  5  0  0  0  0  0  0  0  0  0  0
    2.6150   -1.8816   -1.1590 N   0  0  0  0  0  0  0  0  0  0  0  0
    2.2050   -2.3567   -1.9690 H   0  0  0  0  0  0  0  0  0  0  0  0
    3.8218   -2.3008   -0.6408 C   0  0  0  0  0  3  0  0  0  0  0  0
    4.2933   -3.1593   -1.1350 H   0  0  0  0  0  0  0  0  0  0  0  0
    4.3592   -1.6337    0.4386 C   0  0  0  0  0  0  0  0  0  0  0  0
    5.3207   -1.9684    0.8503 H   0  0  0  0  0  0  0  0  0  0  0  0
    3.6770   -0.5228    1.0113 C   0  0  0  0  0  0  0  0  0  0  0  0
    4.0943    0.0204    1.8711 H   0  0  0  0  0  0  0  0  0  0  0  0
    2.4611   -0.1096    0.4734 C   0  0  0  0  0  0  0  0  0  0  0  0
    1.9012   -0.8192   -0.6677 C   0  0  0  0  0  0  0  0  0  0  0  0
  2 12  1  0  0  0  0
  3 12  1  0  0  0  0
  3  5  1  0  0  0  0
  4  3  1  0  0  0  0
  5  7  1  0  0  0  0
  6  5  1  0  0  0  0
  7  8  1  0  0  0  0
  7  9  2  0  0  0  0
  9 10  1  0  0  0  0
 11  1  1  0  0  0  0
 11  9  1  0  0  0  0
 12 11  2  0  0  0  0
M  CHG  2   1  -1   2  -1
M  END
