3,4
q = 0.0, confidence = 0.932

 68 71  0  0  0  0  0  0  0  0999 V2000
    1.5316    0.1104    0.3499 P   0  0  2  0  0  4  0  0  0  0  0  0
   -1.9617   -0.1622    0.0975 P   0  0  0  0  0  4  0  0  0  0  0  0
    0.8784   -0.4993   -0.8974 O   0  0  0  0  0  1  0  0  0  0  0  0
   -1.8091   -1.4551   -0.7192 O   0  0  0  0  0  1  0  0  0  0  0  0
    2.9761   -0.6074    0.8235 N   0  0  0  0  0  0  0  0  0  0  0  0
    0.4003   -0.0351    1.7974 C   0  0  0  0  0  0  0  0  0  0  0  0
   -1.0182   -0.1199    1.6947 C   0  0  0  0  0  0  0  0  0  0  0  0
   -1.7731   -0.2259    2.8824 C   0  0  0  0  0  0  0  0  0  0  0  0
   -2.8672   -0.3114    2.8197 H   0  0  0  0  0  0  0  0  0  0  0  0
   -1.1600   -0.2278    4.1442 C   0  0  0  0  0  0  0  0  0  0  0  0
   -1.7792   -0.3153    5.0495 H   0  0  0  0  0  0  0  0  0  0  0  0
    0.2319   -0.1232    4.2422 C   0  0  0  0  0  0  0  0  0  0  0  0
    0.7259   -0.1238    5.2254 H   0  0  0  0  0  0  0  0  0  0  0  0
    0.9998   -0.0335    3.0721 C   0  0  0  0  0  0  0  0  0  0  0  0
    2.0966    0.0200    3.1318 H   0  0  0  0  0  0  0  0  0  0  0  0
   -3.7260   -0.0658    0.5740 C   0  0  0  0  0  0  0  0  0  0  0  0
   -4.4493   -1.2757    0.5444 C   0  0  0  0  0  0  0  0  0  0  0  0
   -3.9332   -2.1957    0.2311 H   0  0  0  0  0  0  0  0  0  0  0  0
   -5.8077   -1.2838    0.8936 C   0  0  0  0  0  0  0  0  0  0  0  0
   -6.3712   -2.2287    0.8677 H   0  0  0  0  0  0  0  0  0  0  0  0
   -6.4479   -0.0906    1.2648 C   0  0  0  0  0  0  0  0  0  0  0  0
   -7.5151   -0.0990    1.5340 H   0  0  0  0  0  0  0  0  0  0  0  0
   -5.7307    1.1172    1.2803 C   0  0  0  0  0  0  0  0  0  0  0  0
   -6.2351    2.0557    1.5555 H   0  0  0  0  0  0  0  0  0  0  0  0
   -4.3720    1.1336    0.9333 C   0  0  0  0  0  0  0  0  0  0  0  0
   -3.8207    2.0854    0.9292 H   0  0  0  0  0  0  0  0  0  0  0  0
   -1.5901    1.3638   -0.8114 C   0  0  0  0  0  0  0  0  0  0  0  0
   -1.4729    2.6050   -0.1523 C   0  0  0  0  0  0  0  0  0  0  0  0
   -1.4823    2.6559    0.9480 H   0  0  0  0  0  0  0  0  0  0  0  0
   -1.3196    3.7777   -0.9048 C   0  0  0  0  0  0  0  0  0  0  0  0
   -1.2222    4.7472   -0.3941 H   0  0  0  0  0  0  0  0  0  0  0  0
   -1.2662    3.7071   -2.3067 C   0  0  0  0  0  0  0  0  0  0  0  0
   -1.1404    4.6285   -2.8958 H   0  0  0  0  0  0  0  0  0  0  0  0
   -1.3448    2.4644   -2.9556 C   0  0  0  0  0  0  0  0  0  0  0  0
   -1.2670    2.4019   -4.0515 H   0  0  0  0  0  0  0  0  0  0  0  0
   -1.5118    1.2847   -2.2156 C   0  0  0  0  0  0  0  0  0  0  0  0
   -1.5283    0.3050   -2.7240 H   0  0  0  0  0  0  0  0  0  0  0  0
    1.7816    1.8868    0.0503 C   0  0  0  0  0  0  0  0  0  0  0  0
    1.8521    2.2843   -1.3003 C   0  0  0  0  0  0  0  0  0  0  0  0
    1.7346    1.5234   -2.0875 H   0  0  0  0  0  0  0  0  0  0  0  0
    2.0453    3.6363   -1.6136 C   0  0  0  0  0  0  0  0  0  0  0  0
    2.1017    3.9472   -2.6674 H   0  0  0  0  0  0  0  0  0  0  0  0
    2.1474    4.5916   -0.5892 C   0  0  0  0  0  0  0  0  0  0  0  0
    2.2971    5.6527   -0.8401 H   0  0  0  0  0  0  0  0  0  0  0  0
    2.0361    4.1995    0.7550 C   0  0  0  0  0  0  0  0  0  0  0  0
    2.0924    4.9512    1.5567 H   0  0  0  0  0  0  0  0  0  0  0  0
    1.8484    2.8475    1.0778 C   0  0  0  0  0  0  0  0  0  0  0  0
    1.7432    2.5424    2.1300 H   0  0  0  0  0  0  0  0  0  0  0  0
    2.8634   -2.1011    0.8417 C   0  0  0  0  0  0  0  0  0  0  0  0
    1.7780   -2.3432    0.7766 H   0  0  0  0  0  0  0  0  0  0  0  0
    3.3849   -2.6966    2.1504 C   0  0  0  0  0  0  0  0  0  0  0  0
    2.8639   -2.2652    3.0276 H   0  0  0  0  0  0  0  0  0  0  0  0
    4.4763   -2.5377    2.2791 H   0  0  0  0  0  0  0  0  0  0  0  0
    3.2061   -3.7899    2.1516 H   0  0  0  0  0  0  0  0  0  0  0  0
    3.4965   -2.7412   -0.3978 C   0  0  0  0  0  0  0  0  0  0  0  0
    3.0818   -2.2864   -1.3183 H   0  0  0  0  0  0  0  0  0  0  0  0
    3.2377   -3.8164   -0.4269 H   0  0  0  0  0  0  0  0  0  0  0  0
    4.6016   -2.6366   -0.4071 H   0  0  0  0  0  0  0  0  0  0  0  0
    4.3491   -0.0440    0.7798 C   0  0  0  0  0  0  0  0  0  0  0  0
    4.9910   -0.9341    0.9395 H   0  0  0  0  0  0  0  0  0  0  0  0
    4.7620    0.5478   -0.5748 C   0  0  0  0  0  0  0  0  0  0  0  0
    4.4940   -0.1360   -1.4029 H   0  0  0  0  0  0  0  0  0  0  0  0
    5.8598    0.7035   -0.5978 H   0  0  0  0  0  0  0  0  0  0  0  0
    4.2845    1.5274   -0.7644 H   0  0  0  0  0  0  0  0  0  0  0  0
    4.6370    0.9076    1.9459 C   0  0  0  0  0  0  0  0  0  0  0  0
    4.4103    0.4239    2.9172 H   0  0  0  0  0  0  0  0  0  0  0  0
    4.0464    1.8408    1.8684 H   0  0  0  0  0  0  0  0  0  0  0  0
    5.7083    1.1939    1.9514 H   0  0  0  0  0  0  0  0  0  0  0  0
  1  3  1  6  0  0  0
  1  5  1  0  0  0  0
  1  6  1  0  0  0  0
  2 16  1  0  0  0  0
  2  7  1  0  0  0  0
  4  2  1  0  0  0  0
  5 49  1  0  0  0  0
  6 14  1  0  0  0  0
  7  6  2  0  0  0  0
  7  8  1  0  0  0  0
  8 10  2  0  0  0  0
  9  8  1  0  0  0  0
 10 12  1  0  0  0  0
 10 11  1  0  0  0  0
 12 13  1  0  0  0  0
 14 15  1  0  0  0  0
 14 12  2  0  0  0  0
 16 25  1  0  0  0  0
 17 16  2  0  0  0  0
 17 19  1  0  0  0  0
 18 17  1  0  0  0  0
 19 21  2  0  0  0  0
 20 19  1  0  0  0  0
 21 23  1  0  0  0  0
 21 22  1  0  0  0  0
 23 24  1  0  0  0  0
 25 23  2  0  0  0  0
 26 25  1  0  0  0  0
 27 28  1  0  0  0  0
 27  2  1  0  0  0  0
 28 29  1  0  0  0  0
 30 31  1  0  0  0  0
 30 28  2  0  0  0  0
 32 30  1  0  0  0  0
 33 32  1  0  0  0  0
 34 32  2  0  0  0  0
 34 36  1  0  0  0  0
 35 34  1  0  0  0  0
 36 27  2  0  0  0  0
 37 36  1  0  0  0  0
 38  1  1  0  0  0  0
 38 47  1  0  0  0  0
 39 38  2  0  0  0  0
 40 39  1  0  0  0  0
 41 39  1  0  0  0  0
 41 43  2  0  0  0  0
 42 41  1  0  0  0  0
 43 45  1  0  0  0  0
 44 43  1  0  0  0  0
 45 47  2  0  0  0  0
 45 46  1  0  0  0  0
 47 48  1  0  0  0  0
 49 51  1  0  0  0  0
 50 49  1  0  0  0  0
 51 54  1  0  0  0  0
 51 53  1  0  0  0  0
 51 52  1  0  0  0  0
 55 49  1  0  0  0  0
 56 55  1  0  0  0  0
 57 55  1  0  0  0  0
 58 55  1  0  0  0  0
 59  5  1  0  0  0  0
 59 60  1  0  0  0  0
 59 65  1  0  0  0  0
 61 59  1  0  0  0  0
 62 61  1  0  0  0  0
 63 61  1  0  0  0  0
 64 61  1  0  0  0  0
 65 68  1  0  0  0  0
 65 66  1  0  0  0  0
 67 65  1  0  0  0  0
M  END
