2,3
q = -2.0, confidence = 0.918

 48 50  0  0  1  0  0  0  0  0999 V2000
   -2.3618   -0.7047    0.2700 Si  0  0  0  0  0  0  0  0  0  0  0  0
    1.2639   -2.0617   -0.6876 O   0  0  0  0  0  1  0  0  0  0  0  0
    0.5211    0.4381   -0.8788 O   0  0  0  0  0  1  0  0  0  0  0  0
   -1.0324    2.0574   -2.5615 O   0  0  0  0  0  0  0  0  0  0  0  0
   -0.1325    1.8499   -2.2341 H   0  0  0  0  0  0  0  0  0  0  0  0
   -0.9418   -1.9682    0.4283 C   0  0  0  0  0  0  0  0  0  0  0  0
   -0.2776   -1.6588    1.2623 H   0  0  0  0  0  0  0  0  0  0  0  0
   -1.2728   -3.0031    0.6386 H   0  0  0  0  0  0  0  0  0  0  0  0
   -0.1496   -1.8722   -0.8990 C   0  0  1  0  0  0  0  0  0  0  0  0
   -0.4797   -2.6704   -1.6002 H   0  0  0  0  0  0  0  0  0  0  0  0
   -0.3556   -0.4949   -1.5532 C   0  0  1  0  0  0  0  0  0  0  0  0
   -0.0399   -0.5340   -2.6219 H   0  0  0  0  0  0  0  0  0  0  0  0
   -1.8024    0.0114   -1.4211 C   0  0  2  0  0  0  0  0  0  0  0  0
   -2.3883   -0.4661   -2.2368 H   0  0  0  0  0  0  0  0  0  0  0  0
   -1.8939    1.5498   -1.5432 C   0  0  2  0  0  0  0  0  0  0  0  0
   -1.5823    1.9736   -0.5605 H   0  0  0  0  0  0  0  0  0  0  0  0
   -3.3249    2.0518   -1.8163 C   0  0  0  0  0  0  0  0  0  0  0  0
   -3.9861    1.5255   -1.0902 H   0  0  0  0  0  0  0  0  0  0  0  0
   -3.7958    1.7161   -3.2368 C   0  0  0  0  0  0  0  0  0  0  0  0
   -3.7849    0.6251   -3.4380 H   0  0  0  0  0  0  0  0  0  0  0  0
   -3.1299    2.1945   -3.9818 H   0  0  0  0  0  0  0  0  0  0  0  0
   -4.8309    2.0751   -3.4069 H   0  0  0  0  0  0  0  0  0  0  0  0
   -3.4161    3.5578   -1.5422 C   0  0  0  0  0  0  0  0  0  0  0  0
   -4.4301    3.9518   -1.7579 H   0  0  0  0  0  0  0  0  0  0  0  0
   -2.6883    4.1008   -2.1787 H   0  0  0  0  0  0  0  0  0  0  0  0
   -3.1781    3.7834   -0.4823 H   0  0  0  0  0  0  0  0  0  0  0  0
   -4.0982   -1.4567    0.2381 C   0  0  0  0  0  0  0  0  0  0  0  0
   -4.8940   -1.4887   -0.9284 C   0  0  0  0  0  0  0  0  0  0  0  0
   -4.5100   -1.0577   -1.8665 H   0  0  0  0  0  0  0  0  0  0  0  0
   -6.1790   -2.0556   -0.9172 C   0  0  0  0  0  0  0  0  0  0  0  0
   -6.7820   -2.0657   -1.8384 H   0  0  0  0  0  0  0  0  0  0  0  0
   -6.6938   -2.6052    0.2668 C   0  0  0  0  0  0  0  0  0  0  0  0
   -7.7009   -3.0500    0.2779 H   0  0  0  0  0  0  0  0  0  0  0  0
   -5.9202   -2.5821    1.4392 C   0  0  0  0  0  0  0  0  0  0  0  0
   -6.3203   -3.0087    2.3722 H   0  0  0  0  0  0  0  0  0  0  0  0
   -4.6390   -2.0114    1.4225 C   0  0  0  0  0  0  0  0  0  0  0  0
   -4.0488   -1.9892    2.3537 H   0  0  0  0  0  0  0  0  0  0  0  0
   -2.3013    0.6131    1.6288 C   0  0  0  0  0  0  0  0  0  0  0  0
   -3.4682    1.3131    2.0113 C   0  0  0  0  0  0  0  0  0  0  0  0
   -4.4411    1.0271    1.5792 H   0  0  0  0  0  0  0  0  0  0  0  0
   -3.4105    2.3700    2.9341 C   0  0  0  0  0  0  0  0  0  0  0  0
   -4.3311    2.9044    3.2158 H   0  0  0  0  0  0  0  0  0  0  0  0
   -2.1800    2.7418    3.4985 C   0  0  0  0  0  0  0  0  0  0  0  0
   -2.1322    3.5688    4.2240 H   0  0  0  0  0  0  0  0  0  0  0  0
   -1.0121    2.0499    3.1371 C   0  0  0  0  0  0  0  0  0  0  0  0
   -0.0446    2.3305    3.5834 H   0  0  0  0  0  0  0  0  0  0  0  0
   -1.0698    0.9974    2.2100 C   0  0  0  0  0  0  0  0  0  0  0  0
   -0.1371    0.4755    1.9377 H   0  0  0  0  0  0  0  0  0  0  0  0
  1  6  1  0  0  0  0
  1 38  1  0  0  0  0
  4  5  1  0  0  0  0
  4 15  1  0  0  0  0
  6  8  1  0  0  0  0
  6  7  1  0  0  0  0
  9 10  1  6  0  0  0
  9  2  1  0  0  0  0
  9  6  1  0  0  0  0
 11 12  1  6  0  0  0
 11 13  1  0  0  0  0
 11  9  1  0  0  0  0
 11  3  1  0  0  0  0
 13 14  1  6  0  0  0
 13  1  1  0  0  0  0
 15 13  1  0  0  0  0
 15 16  1  1  0  0  0
 17 15  1  0  0  0  0
 17 23  1  0  0  0  0
 17 18  1  0  0  0  0
 19 17  1  0  0  0  0
 20 19  1  0  0  0  0
 21 19  1  0  0  0  0
 22 19  1  0  0  0  0
 23 26  1  0  0  0  0
 24 23  1  0  0  0  0
 25 23  1  0  0  0  0
 27  1  1  0  0  0  0
 27 36  1  0  0  0  0
 28 30  1  0  0  0  0
 28 27  2  0  0  0  0
 29 28  1  0  0  0  0
 30 32  2  0  0  0  0
 31 30  1  0  0  0  0
 32 33  1  0  0  0  0
 32 34  1  0  0  0  0
 34 35  1  0  0  0  0
 36 34  2  0  0  0  0
 36 37  1  0  0  0  0
 38 39  2  0  0  0  0
 38 47  1  0  0  0  0
 39 41  1  0  0  0  0
 40 39  1  0  0  0  0
 41 42  1  0  0  0  0
 41 43  2  0  0  0  0
 43 44  1  0  0  0  0
 45 43  1  0  0  0  0
 45 46  1  0  0  0  0
 47 45  2  0  0  0  0
 48 47  1  0  0  0  0
M  END
