1,3
q = -1.0, confidence = 0.034

 15 14  0  0  1  0  0  0  0  0999 V2000
   -1.6161   -1.6646    0.3561 O   0  0  0  0  0  1  0  0  0  0  0  0
   -1.5684    1.4835   -0.9700 O   0  0  0  0  0  0  0  0  0  0  0  0
   -0.8669    0.3627   -1.4709 O   0  0  0  0  0  1  0  0  0  0  0  0
   -4.6902    2.3786    0.3042 F   0  0  0  0  0  0  0  0  0  0  0  0
   -3.5578    3.2452   -1.3461 F   0  0  0  0  0  0  0  0  0  0  0  0
   -2.7673    3.3393    0.6854 F   0  0  0  0  0  0  0  0  0  0  0  0
   -3.5351   -3.2620    1.2621 F   0  0  0  0  0  0  0  0  0  0  0  0
   -3.8277   -3.0939   -0.8952 F   0  0  0  0  0  0  0  0  0  0  0  0
   -5.0990   -1.9616    0.4755 F   0  0  0  0  0  0  0  0  0  0  0  0
   -2.7194    1.2380   -0.3920 C   0  0  2  0  0  3  0  0  0  0  0  0
   -3.3204    0.0439   -0.0143 C   0  0  0  0  0  3  0  0  0  0  0  0
   -2.7993   -1.2675    0.1851 C   0  0  2  0  0  3  0  0  0  0  0  0
   -3.4516    2.5757   -0.1865 C   0  0  0  0  0  0  0  0  0  0  0  0
   -3.8421   -2.4148    0.2700 C   0  0  0  0  0  0  0  0  0  0  0  0
   -4.3880    0.1457    0.2208 H   0  0  0  0  0  0  0  0  0  0  0  0
  3  2  1  0  0  0  0
  5 13  1  0  0  0  0
  8 14  1  0  0  0  0
 10  2  1  6  0  0  0
 10 13  1  0  0  0  0
 10 11  1  0  0  0  0
 11 12  1  0  0  0  0
 11 15  1  0  0  0  0
 12 14  1  0  0  0  0
 12  1  1  1  0  0  0
 13  4  1  0  0  0  0
 13  6  1  0  0  0  0
 14  9  1  0  0  0  0
 14  7  1  0  0  0  0
M  END
