1,2
q = -2, confidence = 1.0

 53 53  0  0  1  0  0  0  0  0999 V2000
    2.9088   -1.8603   -0.9751 O   0  0  0  0  0  1  0  0  0  0  0  0
    2.9242    0.5914   -1.5747 O   0  0  0  0  0  1  0  0  0  0  0  0
    0.1359   -0.4386   -1.5963 O   0  0  0  0  0  0  0  0  0  0  0  0
   -1.2446    1.1787   -0.7813 O   0  0  0  0  0  0  0  0  0  0  0  0
   -1.9713   -2.3523   -1.3577 O   0  0  0  0  0  0  0  0  0  0  0  0
   -0.4119   -3.2638    0.0302 O   0  0  0  0  0  0  0  0  0  0  0  0
   -3.8391   -1.6120    0.6680 O   0  0  0  0  0  0  0  0  0  0  0  0
   -5.9114   -1.6086   -0.2755 O   0  0  0  0  0  0  0  0  0  0  0  0
   -4.7691    1.2413    0.1279 O   0  0  0  0  0  0  0  0  0  0  0  0
   -5.1454    0.6411    2.2923 O   0  0  0  0  0  0  0  0  0  0  0  0
   -1.7827    3.9658   -0.9557 O   0  0  0  0  0  0  0  0  0  0  0  0
    0.1113    3.7715    0.2921 O   0  0  0  0  0  0  0  0  0  0  0  0
    2.6189   -1.6712   -2.3616 C   0  0  0  0  0  0  0  0  0  0  0  0
    1.7652   -2.3256   -2.6400 H   0  0  0  0  0  0  0  0  0  0  0  0
    3.5039   -1.9834   -2.9587 H   0  0  0  0  0  0  0  0  0  0  0  0
    2.3109   -0.1796   -2.6176 C   0  0  1  0  0  0  0  0  0  0  0  0
    2.7632    0.1451   -3.5821 H   0  0  0  0  0  0  0  0  0  0  0  0
    0.8280    0.1598   -2.7027 C   0  0  0  0  0  0  0  0  0  0  0  0
    0.7059    1.2645   -2.6810 H   0  0  0  0  0  0  0  0  0  0  0  0
    0.4011   -0.2302   -3.6545 H   0  0  0  0  0  0  0  0  0  0  0  0
   -1.1998   -0.0649   -1.4635 C   0  0  2  0  0  0  0  0  0  0  0  0
   -1.6826    0.0333   -2.4698 H   0  0  0  0  0  0  0  0  0  0  0  0
   -1.9288   -1.1231   -0.6333 C   0  0  1  0  0  0  0  0  0  0  0  0
   -1.3681   -1.2744    0.3123 H   0  0  0  0  0  0  0  0  0  0  0  0
   -3.3611   -0.6954   -0.3216 C   0  0  2  0  0  0  0  0  0  0  0  0
   -3.9998   -0.7721   -1.2280 H   0  0  0  0  0  0  0  0  0  0  0  0
   -3.4260    0.7520    0.2006 C   0  0  1  0  0  0  0  0  0  0  0  0
   -3.0820    0.7666    1.2574 H   0  0  0  0  0  0  0  0  0  0  0  0
   -2.5716    1.6929   -0.6665 C   0  0  1  0  0  0  0  0  0  0  0  0
   -3.0348    1.7608   -1.6806 H   0  0  0  0  0  0  0  0  0  0  0  0
   -1.1549   -3.3660   -0.9255 C   0  0  0  0  0  0  0  0  0  0  0  0
   -1.3294   -4.5825   -1.7913 C   0  0  0  0  0  0  0  0  0  0  0  0
   -1.1269   -4.3282   -2.8505 H   0  0  0  0  0  0  0  0  0  0  0  0
   -2.3803   -4.9308   -1.7423 H   0  0  0  0  0  0  0  0  0  0  0  0
   -0.6494   -5.3824   -1.4533 H   0  0  0  0  0  0  0  0  0  0  0  0
   -5.1637   -1.9781    0.6065 C   0  0  0  0  0  0  0  0  0  0  0  0
   -5.5253   -2.8196    1.7964 C   0  0  0  0  0  0  0  0  0  0  0  0
   -5.6613   -2.1317    2.6570 H   0  0  0  0  0  0  0  0  0  0  0  0
   -4.7134   -3.5237    2.0565 H   0  0  0  0  0  0  0  0  0  0  0  0
   -6.4717   -3.3540    1.6054 H   0  0  0  0  0  0  0  0  0  0  0  0
   -5.5667    1.0773    1.2411 C   0  0  0  0  0  0  0  0  0  0  0  0
   -6.9840    1.4543    0.9246 C   0  0  0  0  0  0  0  0  0  0  0  0
   -7.4315    0.6028    0.3701 H   0  0  0  0  0  0  0  0  0  0  0  0
   -7.0329    2.3416    0.2667 H   0  0  0  0  0  0  0  0  0  0  0  0
   -7.5481    1.6180    1.8588 H   0  0  0  0  0  0  0  0  0  0  0  0
   -2.4896    3.0906   -0.0700 C   0  0  0  0  0  0  0  0  0  0  0  0
   -3.5124    3.4963    0.0381 H   0  0  0  0  0  0  0  0  0  0  0  0
   -1.9857    3.0616    0.9169 H   0  0  0  0  0  0  0  0  0  0  0  0
   -0.4700    4.2026   -0.6891 C   0  0  0  0  0  0  0  0  0  0  0  0
    0.1476    5.0451   -1.7735 C   0  0  0  0  0  0  0  0  0  0  0  0
    0.3437    4.4060   -2.6594 H   0  0  0  0  0  0  0  0  0  0  0  0
    1.1024    5.4710   -1.4200 H   0  0  0  0  0  0  0  0  0  0  0  0
   -0.5435    5.8461   -2.0962 H   0  0  0  0  0  0  0  0  0  0  0  0
  3 21  1  0  0  0  0
  4 29  1  0  0  0  0
  5 31  1  0  0  0  0
  5 23  1  0  0  0  0
  8 36  2  0  0  0  0
  9 27  1  0  0  0  0
  9 41  1  0  0  0  0
 11 49  1  0  0  0  0
 11 46  1  0  0  0  0
 13  1  1  0  0  0  0
 14 13  1  0  0  0  0
 15 13  1  0  0  0  0
 16 17  1  6  0  0  0
 16 13  1  0  0  0  0
 16  2  1  0  0  0  0
 18 19  1  0  0  0  0
 18 16  1  0  0  0  0
 18  3  1  0  0  0  0
 20 18  1  0  0  0  0
 21 22  1  6  0  0  0
 21  4  1  0  0  0  0
 21 23  1  0  0  0  0
 23 25  1  0  0  0  0
 23 24  1  1  0  0  0
 25 26  1  6  0  0  0
 25 27  1  0  0  0  0
 25  7  1  0  0  0  0
 27 28  1  1  0  0  0
 29 30  1  6  0  0  0
 29 46  1  0  0  0  0
 29 27  1  0  0  0  0
 31  6  2  0  0  0  0
 32 34  1  0  0  0  0
 32 35  1  0  0  0  0
 32 31  1  0  0  0  0
 33 32  1  0  0  0  0
 36  7  1  0  0  0  0
 36 37  1  0  0  0  0
 37 39  1  0  0  0  0
 37 38  1  0  0  0  0
 40 37  1  0  0  0  0
 41 10  2  0  0  0  0
 42 41  1  0  0  0  0
 42 45  1  0  0  0  0
 43 42  1  0  0  0  0
 44 42  1  0  0  0  0
 46 47  1  0  0  0  0
 46 48  1  0  0  0  0
 49 12  2  0  0  0  0
 50 52  1  0  0  0  0
 50 49  1  0  0  0  0
 51 50  1  0  0  0  0
 53 50  1  0  0  0  0
M  END
