2,3
q = -1.0

 35 37  0  0  0  0  0  0  0  0999 V2000
    1.1246    0.0240    0.1005 P   0  0  0  0  0  4  0  0  0  0  0  0
   -0.1072    0.1768    1.0429 O   0  0  0  0  0  1  0  0  0  0  0  0
   -1.2610    0.1848   -1.3426 O   0  5  0  0  0  0  0  0  0  0  0  0
    2.6144    0.5150    1.0133 C   0  0  0  0  0  0  0  0  0  0  0  0
    2.4525    1.2865    2.1804 C   0  0  0  0  0  0  0  0  0  0  0  0
    1.4359    1.5269    2.5256 H   0  0  0  0  0  0  0  0  0  0  0  0
    3.5834    1.7139    2.8909 C   0  0  0  0  0  0  0  0  0  0  0  0
    3.4598    2.3107    3.8071 H   0  0  0  0  0  0  0  0  0  0  0  0
    4.8691    1.3765    2.4380 C   0  0  0  0  0  0  0  0  0  0  0  0
    5.7546    1.7133    2.9981 H   0  0  0  0  0  0  0  0  0  0  0  0
    5.0287    0.6005    1.2780 C   0  0  0  0  0  0  0  0  0  0  0  0
    6.0362    0.3258    0.9313 H   0  0  0  0  0  0  0  0  0  0  0  0
    3.9031    0.1625    0.5652 C   0  0  0  0  0  0  0  0  0  0  0  0
    4.0270   -0.4675   -0.3291 H   0  0  0  0  0  0  0  0  0  0  0  0
    1.3290   -1.6858   -0.4716 C   0  0  0  0  0  0  0  0  0  0  0  0
    0.7937   -2.7236    0.3174 C   0  0  0  0  0  0  0  0  0  0  0  0
    0.2174   -2.4840    1.2258 H   0  0  0  0  0  0  0  0  0  0  0  0
    0.9528   -4.0525   -0.1010 C   0  0  0  0  0  0  0  0  0  0  0  0
    0.5206   -4.8650    0.5020 H   0  0  0  0  0  0  0  0  0  0  0  0
    1.6420   -4.3442   -1.2892 C   0  0  0  0  0  0  0  0  0  0  0  0
    1.7595   -5.3896   -1.6131 H   0  0  0  0  0  0  0  0  0  0  0  0
    2.1651   -3.3057   -2.0774 C   0  0  0  0  0  0  0  0  0  0  0  0
    2.6868   -3.5347   -3.0188 H   0  0  0  0  0  0  0  0  0  0  0  0
    2.0045   -1.9721   -1.6751 C   0  0  0  0  0  0  0  0  0  0  0  0
    2.3790   -1.1521   -2.3079 H   0  0  0  0  0  0  0  0  0  0  0  0
    0.9437    1.0761   -1.3449 C   0  0  0  0  0  0  0  0  0  0  0  0
   -0.3705    0.9866   -1.8987 C   0  0  0  0  0  0  0  0  0  0  0  0
   -0.6645    1.7610   -3.0497 C   0  0  0  0  0  0  0  0  0  0  0  0
   -1.6691    1.6806   -3.4901 H   0  0  0  0  0  0  0  0  0  0  0  0
    0.3172    2.5903   -3.6039 C   0  0  0  0  0  0  0  0  0  0  0  0
    0.0749    3.1841   -4.4990 H   0  0  0  0  0  0  0  0  0  0  0  0
    1.6052    2.6831   -3.0384 C   0  0  0  0  0  0  0  0  0  0  0  0
    2.3601    3.3466   -3.4844 H   0  0  0  0  0  0  0  0  0  0  0  0
    1.9179    1.9232   -1.9031 C   0  0  0  0  0  0  0  0  0  0  0  0
    2.9172    1.9863   -1.4441 H   0  0  0  0  0  0  0  0  0  0  0  0
  1  4  1  0  0  0  0
  1  2  1  0  0  0  0
  4  5  1  0  0  0  0
  5  6  1  0  0  0  0
  5  7  2  0  0  0  0
  7  8  1  0  0  0  0
  9  7  1  0  0  0  0
  9 10  1  0  0  0  0
 11  9  2  0  0  0  0
 12 11  1  0  0  0  0
 13  4  2  0  0  0  0
 13 11  1  0  0  0  0
 14 13  1  0  0  0  0
 15  1  1  0  0  0  0
 15 16  1  0  0  0  0
 16 17  1  0  0  0  0
 18 16  2  0  0  0  0
 18 19  1  0  0  0  0
 20 18  1  0  0  0  0
 21 20  1  0  0  0  0
 22 24  1  0  0  0  0
 22 20  2  0  0  0  0
 23 22  1  0  0  0  0
 24 15  2  0  0  0  0
 25 24  1  0  0  0  0
 26  1  1  0  0  0  0
 27 26  1  0  0  0  0
 27  3  1  0  0  0  0
 28 27  2  0  0  0  0
 29 28  1  0  0  0  0
 30 28  1  0  0  0  0
 30 32  2  0  0  0  0
 31 30  1  0  0  0  0
 32 34  1  0  0  0  0
 33 32  1  0  0  0  0
 34 35  1  0  0  0  0
 34 26  2  0  0  0  0
M  CHG  1   3  -1
M  END
