5,12
q = -1.0

 15 14  0  0  0  0  0  0  0  0999 V2000
   -1.4868   -2.0498    1.4333 S   0  0  0  0  0  0  0  0  0  0  0  0
   -0.4625   -4.4779    1.7047 F   0  0  0  0  0  0  0  0  0  0  0  0
   -2.6216   -4.3786    2.0122 F   0  0  0  0  0  0  0  0  0  0  0  0
   -1.8020   -4.2491   -0.0097 F   0  0  0  0  0  0  0  0  0  0  0  0
   -0.4007   -1.7550    0.4107 O   0  0  0  0  0  0  0  0  0  0  0  0
   -1.2249   -1.7281    2.8322 O   0  0  0  0  0  0  0  0  0  0  0  0
   -1.6042   -3.9326    1.2825 C   0  0  0  0  0  0  0  0  0  0  0  0
   -3.4461   -1.4581   -0.5379 S   0  0  0  0  0  0  0  0  0  0  0  0
   -5.0650    0.2393    0.8039 F   0  0  0  0  0  0  0  0  0  0  0  0
   -5.7180   -0.2936   -1.2069 F   0  0  0  0  0  0  0  0  0  0  0  0
   -4.0762    1.1168   -0.9336 F   0  0  0  0  0  0  0  0  0  0  0  0
   -2.3963   -0.9505   -1.5248 O   0  0  0  0  0  0  0  0  0  0  0  0
   -4.2199   -2.6170   -1.0055 O   0  0  0  0  0  0  0  0  0  0  0  0
   -2.9426   -1.5096    0.9897 N   0  0  0  0  0  0  0  0  0  0  0  0
   -4.6739    0.0108   -0.4384 C   0  0  0  0  0  0  0  0  0  0  0  0
  1  6  1  0  0  0  0
  4  7  1  0  0  0  0
  5  1  1  0  0  0  0
  7  1  1  0  0  0  0
  7  2  1  0  0  0  0
  7  3  1  0  0  0  0
  8 15  1  0  0  0  0
  8 14  1  0  0  0  0
 10 15  1  0  0  0  0
 11 15  1  0  0  0  0
 12  8  1  0  0  0  0
 13  8  1  0  0  0  0
 14  1  1  0  0  0  0
 15  9  1  0  0  0  0
M  END
