8,9
q = -1.0

 19 18  0  0  1  0  0  0  0  0999 V2000
   -3.8381   -1.9230   -1.3741 C   0  0  0  0  0  0  0  0  0  0  0  0
   -2.7950   -0.8365   -1.3674 C   0  0  2  0  0  3  0  0  0  0  0  0
   -3.0204    0.4518   -1.9763 C   0  0  1  0  0  3  0  0  0  0  0  0
   -1.8706    1.2587   -2.2636 C   0  0  2  0  0  3  0  0  0  0  0  0
   -1.8966    2.3671   -3.2941 C   0  0  0  0  0  0  0  0  0  0  0  0
   -4.4012    0.8472   -2.3708 C   0  0  0  0  0  0  0  0  0  0  0  0
   -4.7808    2.3301   -2.3494 C   0  0  0  0  0  0  0  0  0  0  0  0
   -1.6946   -1.1384   -0.8011 O   0  0  0  0  0  1  0  0  0  0  0  0
   -0.7161    1.0527   -1.7627 O   0  0  0  0  0  1  0  0  0  0  0  0
   -5.2878    0.0262   -2.6114 O   0  0  0  0  0  0  0  0  0  0  0  0
   -4.1644   -2.1621   -2.4031 H   0  0  0  0  0  0  0  0  0  0  0  0
   -4.7579   -1.5812   -0.8588 H   0  0  0  0  0  0  0  0  0  0  0  0
   -3.4173   -2.8103   -0.8672 H   0  0  0  0  0  0  0  0  0  0  0  0
   -0.9302    2.3413   -3.8326 H   0  0  0  0  0  0  0  0  0  0  0  0
   -2.7285    2.2950   -4.0149 H   0  0  0  0  0  0  0  0  0  0  0  0
   -1.9513    3.3497   -2.7810 H   0  0  0  0  0  0  0  0  0  0  0  0
   -5.7812    2.3970   -1.8799 H   0  0  0  0  0  0  0  0  0  0  0  0
   -4.0726    2.9780   -1.8021 H   0  0  0  0  0  0  0  0  0  0  0  0
   -4.8922    2.7118   -3.3848 H   0  0  0  0  0  0  0  0  0  0  0  0
  1  2  1  0  0  0  0
  1 13  1  0  0  0  0
  1 12  1  0  0  0  0
  2  8  1  6  0  0  0
  3  6  1  6  0  0  0
  3  2  1  0  0  0  0
  4  3  1  0  0  0  0
  4  9  1  6  0  0  0
  5 16  1  0  0  0  0
  5  4  1  0  0  0  0
  6  7  1  0  0  0  0
  7 17  1  0  0  0  0
  7 18  1  0  0  0  0
 10  6  2  0  0  0  0
 11  1  1  0  0  0  0
 14  5  1  0  0  0  0
 15  5  1  0  0  0  0
 19  7  1  0  0  0  0
M  END
