2,3
q = -1.0, confidence = 0.076

 52 53  0  0  0  0  0  0  0  0999 V2000
    6.6100    3.0209    0.1128 C   0  0  0  0  0  0  0  0  0  0  0  0
   -1.3618   -0.9276   -0.2314 O   0  5  0  0  0  0  0  0  0  0  0  0
    1.5379   -1.1175   -0.1630 O   0  5  0  0  0  0  0  0  0  0  0  0
    6.8415    4.3586    0.1587 O   0  0  0  0  0  0  0  0  0  0  0  0
    8.9639    2.8675    0.1386 O   0  0  0  0  0  0  0  0  0  0  0  0
   -8.2550    3.9121   -0.1394 O   0  0  0  0  0  0  0  0  0  0  0  0
   -5.9751    5.1402    0.0095 O   0  0  0  0  0  0  0  0  0  0  0  0
    3.9011    0.3541   -0.0042 C   0  0  0  0  0  3  0  0  0  0  0  0
    3.9144   -0.7483   -0.0491 H   0  0  0  0  0  0  0  0  0  0  0  0
    2.6694    0.9370    0.0224 C   0  0  0  0  0  0  0  0  0  0  0  0
    2.5565    2.0305    0.0890 H   0  0  0  0  0  0  0  0  0  0  0  0
    1.4236    0.1602   -0.0163 C   0  0  0  0  0  0  0  0  0  0  0  0
    0.2045    0.8720    0.0792 C   0  0  0  0  0  0  0  0  0  0  0  0
    0.2727    1.9605    0.2105 H   0  0  0  0  0  0  0  0  0  0  0  0
   -1.0919    0.3233   -0.0636 C   0  0  0  0  0  0  0  0  0  0  0  0
   -2.2319    1.2486   -0.0572 C   0  0  0  0  0  0  0  0  0  0  0  0
   -1.9896    2.3180    0.0451 H   0  0  0  0  0  0  0  0  0  0  0  0
   -3.5222    0.8196   -0.1540 C   0  0  0  0  0  0  0  0  0  0  0  0
   -3.6640   -0.2713   -0.2383 H   0  0  0  0  0  0  0  0  0  0  0  0
    5.2004    1.0083    0.0305 C   0  0  0  0  0  0  0  0  0  0  0  0
    5.3497    2.4227    0.0767 C   0  0  0  0  0  0  0  0  0  0  0  0
    4.4519    3.0535    0.0844 H   0  0  0  0  0  0  0  0  0  0  0  0
    7.7857    2.1995    0.1017 C   0  0  0  0  0  0  0  0  0  0  0  0
    7.6439    0.8039    0.0548 C   0  0  0  0  0  0  0  0  0  0  0  0
    8.5335    0.1605    0.0469 H   0  0  0  0  0  0  0  0  0  0  0  0
    6.3686    0.2190    0.0197 C   0  0  0  0  0  0  0  0  0  0  0  0
    6.2758   -0.8770   -0.0136 H   0  0  0  0  0  0  0  0  0  0  0  0
    5.7234    5.2228    0.1787 C   0  0  0  0  0  0  0  0  0  0  0  0
    5.0975    5.1136   -0.7361 H   0  0  0  0  0  0  0  0  0  0  0  0
    6.1241    6.2526    0.2200 H   0  0  0  0  0  0  0  0  0  0  0  0
    5.0795    5.0480    1.0704 H   0  0  0  0  0  0  0  0  0  0  0  0
   10.1597    2.1118    0.1342 C   0  0  0  0  0  0  0  0  0  0  0  0
   10.9902    2.8409    0.1697 H   0  0  0  0  0  0  0  0  0  0  0  0
   10.2568    1.4955   -0.7879 H   0  0  0  0  0  0  0  0  0  0  0  0
   10.2280    1.4402    1.0194 H   0  0  0  0  0  0  0  0  0  0  0  0
   -4.7350    1.6231   -0.1518 C   0  0  0  0  0  0  0  0  0  0  0  0
   -5.9862    0.9781   -0.2321 C   0  0  0  0  0  0  0  0  0  0  0  0
   -6.0207   -0.1200   -0.2939 H   0  0  0  0  0  0  0  0  0  0  0  0
   -7.1842    1.7091   -0.2304 C   0  0  0  0  0  0  0  0  0  0  0  0
   -8.1421    1.1762   -0.2926 H   0  0  0  0  0  0  0  0  0  0  0  0
   -7.1628    3.1101   -0.1484 C   0  0  0  0  0  0  0  0  0  0  0  0
   -5.9004    3.7859   -0.0662 C   0  0  0  0  0  0  0  0  0  0  0  0
   -4.7187    3.0436   -0.0696 C   0  0  0  0  0  0  0  0  0  0  0  0
   -3.7540    3.5628   -0.0079 H   0  0  0  0  0  0  0  0  0  0  0  0
   -9.5298    3.3039   -0.2154 C   0  0  0  0  0  0  0  0  0  0  0  0
  -10.2697    4.1252   -0.1925 H   0  0  0  0  0  0  0  0  0  0  0  0
   -9.7158    2.6235    0.6460 H   0  0  0  0  0  0  0  0  0  0  0  0
   -9.6575    2.7262   -1.1585 H   0  0  0  0  0  0  0  0  0  0  0  0
   -4.7650    5.8649    0.0985 C   0  0  0  0  0  0  0  0  0  0  0  0
   -5.0433    6.9337    0.1537 H   0  0  0  0  0  0  0  0  0  0  0  0
   -4.1181    5.7043   -0.7938 H   0  0  0  0  0  0  0  0  0  0  0  0
   -4.1844    5.5936    1.0093 H   0  0  0  0  0  0  0  0  0  0  0  0
  1  4  1  0  0  0  0
  2 15  1  0  0  0  0
  3 12  1  0  0  0  0
  4 28  1  0  0  0  0
  7 49  1  0  0  0  0
  8 10  1  0  0  0  0
  8 20  1  0  0  0  0
  9  8  1  0  0  0  0
 10 11  1  0  0  0  0
 12 10  2  0  0  0  0
 12 13  1  0  0  0  0
 13 14  1  0  0  0  0
 15 16  1  0  0  0  0
 15 13  2  0  0  0  0
 16 17  1  0  0  0  0
 18 36  1  0  0  0  0
 18 16  2  0  0  0  0
 19 18  1  0  0  0  0
 20 21  1  0  0  0  0
 21 22  1  0  0  0  0
 21  1  2  0  0  0  0
 23  1  1  0  0  0  0
 23  5  1  0  0  0  0
 24 23  2  0  0  0  0
 25 24  1  0  0  0  0
 26 20  2  0  0  0  0
 26 24  1  0  0  0  0
 27 26  1  0  0  0  0
 28 30  1  0  0  0  0
 28 31  1  0  0  0  0
 29 28  1  0  0  0  0
 32  5  1  0  0  0  0
 32 33  1  0  0  0  0
 32 35  1  0  0  0  0
 34 32  1  0  0  0  0
 36 43  1  0  0  0  0
 37 39  1  0  0  0  0
 37 36  2  0  0  0  0
 38 37  1  0  0  0  0
 39 41  2  0  0  0  0
 40 39  1  0  0  0  0
 41  6  1  0  0  0  0
 41 42  1  0  0  0  0
 42  7  1  0  0  0  0
 43 42  2  0  0  0  0
 43 44  1  0  0  0  0
 45 46  1  0  0  0  0
 45  6  1  0  0  0  0
 45 47  1  0  0  0  0
 48 45  1  0  0  0  0
 49 50  1  0  0  0  0
 49 52  1  0  0  0  0
 51 49  1  0  0  0  0
M  CHG  2   2  -1   3  -1
M  END
