1,2
q = -2.0, confidence = 0.944

 18 18  0  0  0  0  0  0  0  0999 V2000
   -1.2883   -0.3789   -0.5994 O   0  5  0  0  0  0  0  0  0  0  0  0
   -0.0707    1.6254    1.1547 O   0  5  0  0  0  0  0  0  0  0  0  0
   -1.4155    3.3545    1.4948 O   0  0  0  0  0  0  0  0  0  0  0  0
   -3.4543   -1.6395   -1.1772 O   0  0  0  0  0  0  0  0  0  0  0  0
   -2.3764    0.1827   -0.1243 C   0  0  0  0  0  0  0  0  0  0  0  0
   -2.4538    1.3854    0.6448 C   0  0  0  0  0  0  0  0  0  0  0  0
   -3.7249    1.9030    1.0070 C   0  0  0  0  0  0  0  0  0  0  0  0
   -4.9059    1.2516    0.6685 C   0  0  0  0  0  0  0  0  0  0  0  0
   -4.8528    0.0468   -0.0700 C   0  0  0  0  0  0  0  0  0  0  0  0
   -3.6191   -0.4738   -0.4625 C   0  0  0  0  0  0  0  0  0  0  0  0
   -1.2616    2.1833    1.1128 C   0  0  0  0  0  0  0  0  0  0  0  0
   -4.6135   -2.3533   -1.5394 C   0  0  0  0  0  0  0  0  0  0  0  0
   -3.7232    2.8472    1.5704 H   0  0  0  0  0  0  0  0  0  0  0  0
   -5.8807    1.6638    0.9688 H   0  0  0  0  0  0  0  0  0  0  0  0
   -5.7860   -0.4704   -0.3344 H   0  0  0  0  0  0  0  0  0  0  0  0
   -4.2756   -3.2465   -2.0990 H   0  0  0  0  0  0  0  0  0  0  0  0
   -5.1987   -2.6847   -0.6501 H   0  0  0  0  0  0  0  0  0  0  0  0
   -5.2878   -1.7528   -2.1929 H   0  0  0  0  0  0  0  0  0  0  0  0
  1  5  1  0  0  0  0
  4 10  1  0  0  0  0
  5  6  1  0  0  0  0
  6  7  2  0  0  0  0
  6 11  1  0  0  0  0
  7 13  1  0  0  0  0
  8 14  1  0  0  0  0
  8  7  1  0  0  0  0
  9  8  2  0  0  0  0
 10  5  2  0  0  0  0
 10  9  1  0  0  0  0
 11  2  1  0  0  0  0
 11  3  2  0  0  0  0
 12  4  1  0  0  0  0
 12 17  1  0  0  0  0
 15  9  1  0  0  0  0
 16 12  1  0  0  0  0
 18 12  1  0  0  0  0
M  CHG  2   1  -1   2  -1
M  END
