14,32
q = -1.0

 32 32  0  0  1  0  0  0  0  0999 V2000
    0.6585    3.3208   -0.2375 N   0  0  0  0  0  0  0  0  0  0  0  0
   -0.3362    4.3439   -0.0335 C   0  0  0  0  0  0  0  0  0  0  0  0
   -1.2938    3.8449    0.2046 H   0  0  0  0  0  0  0  0  0  0  0  0
   -0.4616    4.9694   -0.9420 H   0  0  0  0  0  0  0  0  0  0  0  0
   -0.0354    4.9972    0.8090 H   0  0  0  0  0  0  0  0  0  0  0  0
    1.9865    3.6518   -0.3593 N   0  0  0  0  0  0  0  0  0  0  0  0
    2.6456    2.5141   -0.5243 C   0  0  0  0  0  0  0  0  0  0  0  0
    4.1303    2.5775   -0.7060 C   0  0  0  0  0  0  0  0  0  0  0  0
    4.4462    2.1827   -1.6941 H   0  0  0  0  0  0  0  0  0  0  0  0
    4.6734    2.0013    0.0699 H   0  0  0  0  0  0  0  0  0  0  0  0
    4.4443    3.6360   -0.6409 H   0  0  0  0  0  0  0  0  0  0  0  0
    1.7360    1.3784   -0.5130 C   0  0  0  0  0  0  0  0  0  0  0  0
    1.9179   -0.0137   -0.6967 C   0  0  2  0  0  3  0  0  0  0  0  0
    0.9455   -0.8506   -0.7061 O   0  0  0  0  0  1  0  0  0  0  0  0
    3.2767   -0.6461   -0.8796 C   0  0  0  0  0  0  0  0  0  0  0  0
    4.0228    0.1160   -1.1656 H   0  0  0  0  0  0  0  0  0  0  0  0
    3.1970   -1.3701   -1.7175 H   0  0  0  0  0  0  0  0  0  0  0  0
    3.8000   -1.4166    0.3803 C   0  0  0  0  0  0  0  0  0  0  0  0
    2.9191   -2.6410    0.6907 C   0  0  0  0  0  0  0  0  0  0  0  0
    2.8413   -3.3153   -0.1875 H   0  0  0  0  0  0  0  0  0  0  0  0
    1.8978   -2.3374    0.9900 H   0  0  0  0  0  0  0  0  0  0  0  0
    3.3653   -3.2200    1.5258 H   0  0  0  0  0  0  0  0  0  0  0  0
    5.2292   -1.8863    0.0524 C   0  0  0  0  0  0  0  0  0  0  0  0
    5.6595   -2.4499    0.9056 H   0  0  0  0  0  0  0  0  0  0  0  0
    5.8998   -1.0272   -0.1580 H   0  0  0  0  0  0  0  0  0  0  0  0
    5.2420   -2.5533   -0.8348 H   0  0  0  0  0  0  0  0  0  0  0  0
    3.8238   -0.4932    1.6121 C   0  0  0  0  0  0  0  0  0  0  0  0
    2.8040   -0.1474    1.8776 H   0  0  0  0  0  0  0  0  0  0  0  0
    4.4651    0.3962    1.4439 H   0  0  0  0  0  0  0  0  0  0  0  0
    4.2349   -1.0375    2.4871 H   0  0  0  0  0  0  0  0  0  0  0  0
    0.4335    1.9766   -0.3260 C   0  0  0  0  0  0  0  0  0  0  0  0
   -0.7495    1.4814   -0.2770 O   0  5  0  0  0  0  0  0  0  0  0  0
  1  2  1  0  0  0  0
  2  3  1  0  0  0  0
  2  5  1  0  0  0  0
  4  2  1  0  0  0  0
  6  1  1  0  0  0  0
  7 12  1  0  0  0  0
  7  6  2  0  0  0  0
  8 11  1  0  0  0  0
  8  7  1  0  0  0  0
  8 10  1  0  0  0  0
  9  8  1  0  0  0  0
 12 31  2  0  0  0  0
 13 14  1  1  0  0  0
 13 12  1  0  0  0  0
 15 13  1  0  0  0  0
 15 18  1  0  0  0  0
 16 15  1  0  0  0  0
 17 15  1  0  0  0  0
 18 19  1  0  0  0  0
 18 27  1  0  0  0  0
 19 21  1  0  0  0  0
 19 22  1  0  0  0  0
 20 19  1  0  0  0  0
 23 18  1  0  0  0  0
 23 24  1  0  0  0  0
 25 23  1  0  0  0  0
 26 23  1  0  0  0  0
 27 28  1  0  0  0  0
 27 30  1  0  0  0  0
 29 27  1  0  0  0  0
 31 32  1  0  0  0  0
 31  1  1  0  0  0  0
M  CHG  1  32  -1
M  END
