1,2
q = -1.0

 18 18  0  0  1  0  0  0  0  0999 V2000
    0.5026   -1.9471    0.0001 O   0  5  0  0  0  0  0  0  0  0  0  0
    1.8957    0.6317   -0.0005 O   0  0  0  0  0  1  0  0  0  0  0  0
    4.1706    1.8594   -0.0004 O   0  0  0  0  0  0  0  0  0  0  0  0
    1.7051   -2.3424    0.0002 C   0  0  0  0  0  0  0  0  0  0  0  0
    2.9148   -1.5896    0.0001 C   0  0  0  0  0  0  0  0  0  0  0  0
    2.9292   -0.1430   -0.0002 C   0  0  1  0  0  3  0  0  0  0  0  0
    4.2321    0.5056   -0.0002 C   0  0  0  0  0  0  0  0  0  0  0  0
    5.4010   -0.2497    0.0001 C   0  0  0  0  0  0  0  0  0  0  0  0
    5.3608   -1.6731    0.0003 C   0  0  0  0  0  0  0  0  0  0  0  0
    4.1474   -2.3267    0.0003 C   0  0  0  0  0  0  0  0  0  0  0  0
    5.3862    2.5780    0.0005 C   0  0  0  0  0  0  0  0  0  0  0  0
    1.8230   -3.4511    0.0003 H   0  0  0  0  0  0  0  0  0  0  0  0
    6.3767    0.2552   -0.0000 H   0  0  0  0  0  0  0  0  0  0  0  0
    6.3036   -2.2385    0.0005 H   0  0  0  0  0  0  0  0  0  0  0  0
    4.0990   -3.4263    0.0005 H   0  0  0  0  0  0  0  0  0  0  0  0
    5.9991    2.3581   -0.9034 H   0  0  0  0  0  0  0  0  0  0  0  0
    5.9984    2.3570    0.9047 H   0  0  0  0  0  0  0  0  0  0  0  0
    5.1165    3.6502    0.0010 H   0  0  0  0  0  0  0  0  0  0  0  0
  1  4  1  0  0  0  0
  3  7  1  0  0  0  0
  3 11  1  0  0  0  0
  4 12  1  0  0  0  0
  5  4  2  0  0  0  0
  5 10  1  0  0  0  0
  6  2  1  6  0  0  0
  6  7  1  0  0  0  0
  6  5  1  0  0  0  0
  7  8  2  0  0  0  0
  8  9  1  0  0  0  0
  9 10  2  0  0  0  0
  9 14  1  0  0  0  0
 10 15  1  0  0  0  0
 11 18  1  0  0  0  0
 11 17  1  0  0  0  0
 13  8  1  0  0  0  0
 16 11  1  0  0  0  0
M  CHG  1   1  -1
M  END
