1,3
q = -1.0

 33 35  0  0  1  0  0  0  0  0999 V2000
   -1.9774   -1.0501    0.1383 O   0  5  0  0  0  0  0  0  0  0  0  0
   -2.1695    3.6332   -0.7391 O   0  0  0  0  0  0  0  0  0  0  0  0
    0.4439    0.1886   -1.0497 O   0  0  0  0  0  1  0  0  0  0  0  0
    0.2653    2.4349   -1.3437 N   0  0  0  0  0  0  0  0  0  0  0  0
   -0.3676    3.2487   -1.2204 H   0  0  0  0  0  0  0  0  0  0  0  0
   -0.2599    1.2578   -0.9427 C   0  0  1  0  0  3  0  0  0  0  0  0
   -1.6130    1.2834   -0.4578 C   0  0  0  0  0  0  0  0  0  0  0  0
   -2.3489    0.1593   -0.0082 C   0  0  0  0  0  0  0  0  0  0  0  0
   -3.7373    0.6122    0.3110 C   0  0  0  0  0  0  0  0  0  0  0  0
   -4.8385   -0.0980    0.7873 C   0  0  0  0  0  0  0  0  0  0  0  0
   -4.7693   -1.1786    0.9811 H   0  0  0  0  0  0  0  0  0  0  0  0
   -6.0352    0.6160    1.0156 C   0  0  0  0  0  0  0  0  0  0  0  0
   -6.9225    0.0834    1.3906 H   0  0  0  0  0  0  0  0  0  0  0  0
   -6.1094    1.9985    0.7751 C   0  0  0  0  0  0  0  0  0  0  0  0
   -7.0542    2.5307    0.9644 H   0  0  0  0  0  0  0  0  0  0  0  0
   -4.9873    2.7119    0.2984 C   0  0  0  0  0  0  0  0  0  0  0  0
   -5.0264    3.7953    0.1105 H   0  0  0  0  0  0  0  0  0  0  0  0
   -3.8115    2.0023    0.0708 C   0  0  0  0  0  0  0  0  0  0  0  0
   -2.4663    2.4700   -0.4243 C   0  0  0  0  0  0  0  0  0  0  0  0
    1.6392    2.5962   -1.7737 C   0  0  0  0  0  0  0  0  0  0  0  0
    1.6706    3.3255   -2.6089 H   0  0  0  0  0  0  0  0  0  0  0  0
    1.9719    1.6184   -2.1802 H   0  0  0  0  0  0  0  0  0  0  0  0
    2.5938    3.0355   -0.6731 C   0  0  0  0  0  0  0  0  0  0  0  0
    2.5156    2.4769    0.6188 C   0  0  0  0  0  0  0  0  0  0  0  0
    1.7374    1.7369    0.8673 H   0  0  0  0  0  0  0  0  0  0  0  0
    3.4377    2.8528    1.6067 C   0  0  0  0  0  0  0  0  0  0  0  0
    3.3614    2.4043    2.6092 H   0  0  0  0  0  0  0  0  0  0  0  0
    4.4458    3.7883    1.3221 C   0  0  0  0  0  0  0  0  0  0  0  0
    5.1654    4.0832    2.1012 H   0  0  0  0  0  0  0  0  0  0  0  0
    4.5254    4.3516    0.0391 C   0  0  0  0  0  0  0  0  0  0  0  0
    5.3055    5.0931   -0.1925 H   0  0  0  0  0  0  0  0  0  0  0  0
    3.6021    3.9776   -0.9498 C   0  0  0  0  0  0  0  0  0  0  0  0
    3.6640    4.4268   -1.9545 H   0  0  0  0  0  0  0  0  0  0  0  0
  2 19  2  0  0  0  0
  4  5  1  0  0  0  0
  4  6  1  0  0  0  0
  6  3  1  6  0  0  0
  6  7  1  0  0  0  0
  7 19  1  0  0  0  0
  7  8  2  0  0  0  0
  8  1  1  0  0  0  0
  8  9  1  0  0  0  0
  9 10  1  0  0  0  0
 10 11  1  0  0  0  0
 10 12  2  0  0  0  0
 12 13  1  0  0  0  0
 14 15  1  0  0  0  0
 14 12  1  0  0  0  0
 16 14  2  0  0  0  0
 17 16  1  0  0  0  0
 18 16  1  0  0  0  0
 18  9  2  0  0  0  0
 19 18  1  0  0  0  0
 20  4  1  0  0  0  0
 20 23  1  0  0  0  0
 21 20  1  0  0  0  0
 22 20  1  0  0  0  0
 23 24  1  0  0  0  0
 24 25  1  0  0  0  0
 24 26  2  0  0  0  0
 26 27  1  0  0  0  0
 28 26  1  0  0  0  0
 28 29  1  0  0  0  0
 30 28  2  0  0  0  0
 31 30  1  0  0  0  0
 32 23  2  0  0  0  0
 32 30  1  0  0  0  0
 33 32  1  0  0  0  0
M  CHG  1   1  -1
M  END
