1,2
q = -1.0

 23 23  0  0  0  0  0  0  0  0999 V2000
   -1.7973   -1.8217    0.6946 O   0  5  0  0  0  0  0  0  0  0  0  0
   -0.6497   -0.5139   -1.2469 O   0  5  0  0  0  0  0  0  0  0  0  0
   -0.6045    1.4191   -2.9517 N   0  0  0  0  0  4  0  0  0  0  0  0
   -2.4410    1.0986   -1.4323 C   0  0  0  0  0  0  0  0  0  0  0  0
   -1.7699    1.8082   -2.4557 C   0  0  0  0  0  0  0  0  0  0  0  0
   -2.2153    2.7305   -2.8729 H   0  0  0  0  0  0  0  0  0  0  0  0
   -3.7127   -0.3496    0.6518 C   0  0  0  0  0  0  0  0  0  0  0  0
   -4.2040   -0.9111    1.4598 H   0  0  0  0  0  0  0  0  0  0  0  0
   -3.7270    1.5086   -0.9432 C   0  0  0  0  0  0  0  0  0  0  0  0
   -4.2129    2.3897   -1.3895 H   0  0  0  0  0  0  0  0  0  0  0  0
   -4.3399    0.7913    0.0701 C   0  0  0  0  0  0  0  0  0  0  0  0
   -5.3283    1.1007    0.4410 H   0  0  0  0  0  0  0  0  0  0  0  0
   -1.8051   -0.0650   -0.8636 C   0  0  0  0  0  0  0  0  0  0  0  0
    1.5010    2.6414   -3.3798 C   0  0  0  0  0  0  0  0  0  0  0  0
    2.1302    3.1635   -4.1220 H   0  0  0  0  0  0  0  0  0  0  0  0
   -2.4627   -0.7805    0.2044 C   0  0  0  0  0  0  0  0  0  0  0  0
    0.1828    2.1458   -3.9235 C   0  0  0  0  0  0  0  0  0  0  0  0
    0.3748    1.4846   -4.7998 H   0  0  0  0  0  0  0  0  0  0  0  0
   -0.4233    2.9951   -4.3105 H   0  0  0  0  0  0  0  0  0  0  0  0
    1.9415    2.4690   -2.1237 C   0  0  0  0  0  0  0  0  0  0  0  0
    1.3527    1.9306   -1.3640 H   0  0  0  0  0  0  0  0  0  0  0  0
    2.9277    2.8375   -1.8075 H   0  0  0  0  0  0  0  0  0  0  0  0
   -0.2435    0.5378   -2.4896 H   0  0  0  0  0  0  0  0  0  0  0  0
  2 13  1  0  0  0  0
  3 23  1  0  0  0  0
  3  5  2  0  0  0  0
  4  9  2  0  0  0  0
  4 13  1  0  0  0  0
  5  4  1  0  0  0  0
  6  5  1  0  0  0  0
  7  8  1  0  0  0  0
  9 11  1  0  0  0  0
 10  9  1  0  0  0  0
 11 12  1  0  0  0  0
 11  7  2  0  0  0  0
 13 16  2  0  0  0  0
 14 20  2  0  0  0  0
 15 14  1  0  0  0  0
 16  7  1  0  0  0  0
 16  1  1  0  0  0  0
 17 14  1  0  0  0  0
 17  3  1  0  0  0  0
 18 17  1  0  0  0  0
 19 17  1  0  0  0  0
 20 22  1  0  0  0  0
 20 21  1  0  0  0  0
M  CHG  2   1  -1   2  -1
M  END
