1,2
q = -1.0

 27 29  0  0  0  0  0  0  0  0999 V2000
   -0.0660   -0.0032   -2.0460 O   0  5  0  0  0  0  0  0  0  0  0  0
   -0.2203   -1.8975   -0.8774 O   0  5  0  0  0  0  0  0  0  0  0  0
    2.7379   -1.3944   -1.5827 N   0  0  0  0  0  0  0  0  0  0  0  0
    3.3275   -0.1398   -1.4269 C   0  0  0  0  0  0  0  0  0  0  0  0
    2.9361    1.1021   -1.9579 C   0  0  0  0  0  0  0  0  0  0  0  0
    2.0332    1.1910   -2.5771 H   0  0  0  0  0  0  0  0  0  0  0  0
    3.7121    2.2213   -1.6224 C   0  0  0  0  0  0  0  0  0  0  0  0
    3.4282    3.2069   -2.0214 H   0  0  0  0  0  0  0  0  0  0  0  0
    4.8466    2.1132   -0.7858 C   0  0  0  0  0  0  0  0  0  0  0  0
    5.4379    3.0121   -0.5562 H   0  0  0  0  0  0  0  0  0  0  0  0
    5.2258    0.8746   -0.2512 C   0  0  0  0  0  0  0  0  0  0  0  0
    6.1102    0.7916    0.3989 H   0  0  0  0  0  0  0  0  0  0  0  0
    4.4614   -0.2663   -0.5612 C   0  0  0  0  0  0  0  0  0  0  0  0
    4.5149   -1.6538   -0.1468 C   0  0  0  0  0  0  0  0  0  0  0  0
    5.3529   -2.3813    0.7201 C   0  0  0  0  0  0  0  0  0  0  0  0
    6.2118   -1.8919    1.2044 H   0  0  0  0  0  0  0  0  0  0  0  0
    5.0764   -3.7336    0.9577 C   0  0  0  0  0  0  0  0  0  0  0  0
    5.7229   -4.3148    1.6313 H   0  0  0  0  0  0  0  0  0  0  0  0
    3.9722   -4.3640    0.3378 C   0  0  0  0  0  0  0  0  0  0  0  0
    3.7699   -5.4253    0.5460 H   0  0  0  0  0  0  0  0  0  0  0  0
    3.1254   -3.6674   -0.5356 C   0  0  0  0  0  0  0  0  0  0  0  0
    2.2554   -4.1609   -0.9915 H   0  0  0  0  0  0  0  0  0  0  0  0
    3.4112   -2.3132   -0.7783 C   0  0  0  0  0  0  0  0  0  0  0  0
    1.6085   -1.6890   -2.4487 C   0  0  0  0  0  0  0  0  0  0  0  0
    1.5634   -2.7810   -2.6125 H   0  0  0  0  0  0  0  0  0  0  0  0
    1.7519   -1.1826   -3.4234 H   0  0  0  0  0  0  0  0  0  0  0  0
    0.3251   -1.1873   -1.7804 C   0  0  0  0  0  3  0  0  0  0  0  0
  1 27  1  0  0  0  0
  3  4  1  0  0  0  0
  3 23  1  0  0  0  0
  4 13  1  0  0  0  0
  5  7  1  0  0  0  0
  5  4  2  0  0  0  0
  6  5  1  0  0  0  0
  7  9  2  0  0  0  0
  8  7  1  0  0  0  0
  9 10  1  0  0  0  0
  9 11  1  0  0  0  0
 11 12  1  0  0  0  0
 13 11  2  0  0  0  0
 13 14  1  0  0  0  0
 14 15  1  0  0  0  0
 15 17  2  0  0  0  0
 15 16  1  0  0  0  0
 17 18  1  0  0  0  0
 19 20  1  0  0  0  0
 19 17  1  0  0  0  0
 21 19  2  0  0  0  0
 22 21  1  0  0  0  0
 23 21  1  0  0  0  0
 23 14  2  0  0  0  0
 24 27  1  0  0  0  0
 24  3  1  0  0  0  0
 25 24  1  0  0  0  0
 26 24  1  0  0  0  0
 27  2  1  0  0  0  0
M  CHG  2   1  -1   2  -1
M  END
