2,3
q = -1.0

 14 14  0  0  0  0  0  0  0  0999 V2000
   -7.7471    0.8556    0.5645 Br  0  0  0  0  0  0  0  0  0  0  0  0
   -1.1503    1.4075   -1.4422 O   0  5  0  0  0  0  0  0  0  0  0  0
   -0.8803    1.4937    0.7652 O   0  5  0  0  0  0  0  0  0  0  0  0
   -3.1245    1.4134   -0.0770 C   0  0  0  0  0  0  0  0  0  0  0  0
   -5.8770    1.0916    0.3017 C   0  0  0  0  0  0  0  0  0  0  0  0
   -1.6390    1.4730   -0.2657 C   0  0  0  0  0  3  0  0  0  0  0  0
   -5.0623    1.4059    1.4031 C   0  0  0  0  0  0  0  0  0  0  0  0
   -5.5078    1.5174    2.4018 H   0  0  0  0  0  0  0  0  0  0  0  0
   -3.9600    1.1119   -1.1696 C   0  0  0  0  0  0  0  0  0  0  0  0
   -3.5009    0.9791   -2.1599 H   0  0  0  0  0  0  0  0  0  0  0  0
   -5.3371    0.9410   -0.9868 C   0  0  0  0  0  0  0  0  0  0  0  0
   -5.9901    0.6782   -1.8304 H   0  0  0  0  0  0  0  0  0  0  0  0
   -3.6847    1.5577    1.2060 C   0  0  0  0  0  0  0  0  0  0  0  0
   -3.0136    1.7757    2.0495 H   0  0  0  0  0  0  0  0  0  0  0  0
  2  6  1  0  0  0  0
  4 13  1  0  0  0  0
  5  1  1  0  0  0  0
  5  7  1  0  0  0  0
  6  4  1  0  0  0  0
  6  3  1  0  0  0  0
  7  8  1  0  0  0  0
  9 11  1  0  0  0  0
  9  4  2  0  0  0  0
 10  9  1  0  0  0  0
 11  5  2  0  0  0  0
 12 11  1  0  0  0  0
 13  7  2  0  0  0  0
 13 14  1  0  0  0  0
M  CHG  2   2  -1   3  -1
M  END
