2,3
q = -1.0, confidence = 0.12

 41 43  0  0  0  0  0  0  0  0999 V2000
    4.4998    0.8336   -0.4165 P   0  0  0  0  0  0  0  0  0  0  0  0
   -1.9198   -1.5871   -0.7274 O   0  5  0  0  0  0  0  0  0  0  0  0
   -2.3405    0.2628    1.1549 O   0  5  0  0  0  0  0  0  0  0  0  0
    1.2295   -0.2321    1.4632 O   0  0  0  0  0  0  0  0  0  0  0  0
    4.7971    1.6021   -1.6641 O   0  0  0  0  0  0  0  0  0  0  0  0
    5.7434    0.2245    0.4703 O   0  0  0  0  0  0  0  0  0  0  0  0
    3.9018    1.6670    0.8711 O   0  0  0  0  0  0  0  0  0  0  0  0
    3.5024   -0.4691   -0.7181 N   0  0  0  0  0  0  0  0  0  0  0  0
    3.1306   -0.5044   -1.6697 H   0  0  0  0  0  0  0  0  0  0  0  0
   -0.9075   -1.1903   -0.0506 C   0  0  0  0  0  0  0  0  0  0  0  0
   -1.1287   -0.1916    0.9923 C   0  0  0  0  0  0  0  0  0  0  0  0
   -0.0221    0.2347    1.7175 C   0  0  0  0  0  3  0  0  0  0  0  0
   -0.0418    0.9795    2.5208 H   0  0  0  0  0  0  0  0  0  0  0  0
    1.4609   -1.1230    0.4887 C   0  0  0  0  0  0  0  0  0  0  0  0
    0.4313   -1.6284   -0.2795 C   0  0  0  0  0  0  0  0  0  0  0  0
    0.6368   -2.3666   -1.0675 H   0  0  0  0  0  0  0  0  0  0  0  0
    2.9248   -1.3896    0.2581 C   0  0  0  0  0  0  0  0  0  0  0  0
    3.4754   -1.2784    1.2125 H   0  0  0  0  0  0  0  0  0  0  0  0
    3.0605   -2.4363   -0.0849 H   0  0  0  0  0  0  0  0  0  0  0  0
    6.6022   -0.7311   -0.0646 C   0  0  0  0  0  0  0  0  0  0  0  0
    7.0650   -0.6659   -1.3901 C   0  0  0  0  0  0  0  0  0  0  0  0
    6.7378    0.1604   -2.0377 H   0  0  0  0  0  0  0  0  0  0  0  0
    7.9451   -1.6578   -1.8497 C   0  0  0  0  0  0  0  0  0  0  0  0
    8.3104   -1.6114   -2.8870 H   0  0  0  0  0  0  0  0  0  0  0  0
    8.3664   -2.6936   -1.0010 C   0  0  0  0  0  0  0  0  0  0  0  0
    9.0602   -3.4636   -1.3697 H   0  0  0  0  0  0  0  0  0  0  0  0
    7.9018   -2.7381    0.3237 C   0  0  0  0  0  0  0  0  0  0  0  0
    8.2294   -3.5435    0.9985 H   0  0  0  0  0  0  0  0  0  0  0  0
    7.0145   -1.7605    0.7963 C   0  0  0  0  0  0  0  0  0  0  0  0
    6.6368   -1.7740    1.8289 H   0  0  0  0  0  0  0  0  0  0  0  0
    2.7218    2.3905    0.8506 C   0  0  0  0  0  0  0  0  0  0  0  0
    1.9705    2.6236   -0.3150 C   0  0  0  0  0  0  0  0  0  0  0  0
    2.3437    2.2850   -1.2918 H   0  0  0  0  0  0  0  0  0  0  0  0
    0.7587    3.3262   -0.2144 C   0  0  0  0  0  0  0  0  0  0  0  0
    0.1629    3.4982   -1.1239 H   0  0  0  0  0  0  0  0  0  0  0  0
    0.3096    3.8148    1.0214 C   0  0  0  0  0  0  0  0  0  0  0  0
   -0.6419    4.3615    1.0881 H   0  0  0  0  0  0  0  0  0  0  0  0
    1.0877    3.6014    2.1718 C   0  0  0  0  0  0  0  0  0  0  0  0
    0.7523    3.9889    3.1459 H   0  0  0  0  0  0  0  0  0  0  0  0
    2.2898    2.8863    2.0927 C   0  0  0  0  0  0  0  0  0  0  0  0
    2.9072    2.6904    2.9807 H   0  0  0  0  0  0  0  0  0  0  0  0
  1  6  1  0  0  0  0
  1  7  1  0  0  0  0
  2 10  1  0  0  0  0
  4 12  1  0  0  0  0
  5  1  2  0  0  0  0
  8  1  1  0  0  0  0
  8 17  1  0  0  0  0
  9  8  1  0  0  0  0
 10 11  2  0  0  0  0
 11  3  1  0  0  0  0
 11 12  1  0  0  0  0
 12 13  1  0  0  0  0
 14  4  1  0  0  0  0
 15 10  1  0  0  0  0
 15 14  2  0  0  0  0
 16 15  1  0  0  0  0
 17 14  1  0  0  0  0
 17 18  1  0  0  0  0
 19 17  1  0  0  0  0
 20  6  1  0  0  0  0
 20 29  1  0  0  0  0
 21 20  2  0  0  0  0
 22 21  1  0  0  0  0
 23 21  1  0  0  0  0
 23 25  2  0  0  0  0
 24 23  1  0  0  0  0
 25 27  1  0  0  0  0
 26 25  1  0  0  0  0
 27 29  2  0  0  0  0
 27 28  1  0  0  0  0
 29 30  1  0  0  0  0
 31  7  1  0  0  0  0
 31 40  1  0  0  0  0
 32 34  1  0  0  0  0
 32 31  2  0  0  0  0
 33 32  1  0  0  0  0
 34 36  2  0  0  0  0
 35 34  1  0  0  0  0
 36 37  1  0  0  0  0
 36 38  1  0  0  0  0
 38 39  1  0  0  0  0
 40 38  2  0  0  0  0
 40 41  1  0  0  0  0
M  CHG  2   2  -1   3  -1
M  END
