1,7
q = -1.0

 10  9  0  0  0  0  0  0  0  0999 V2000
   -0.7036    2.2056   -0.4026 O   0  0  0  0  0  1  0  0  0  0  0  0
   -1.6984    2.7412   -0.9528 C   0  0  0  0  0  3  0  0  0  0  0  0
   -1.8182    3.8489   -0.8988 H   0  0  0  0  0  0  0  0  0  0  0  0
   -2.7144    2.0463   -1.6682 C   0  0  0  0  0  0  0  0  0  0  0  0
   -2.7170    0.6359   -1.8733 C   0  0  0  0  0  0  0  0  0  0  0  0
   -3.5627    0.2380   -2.4825 H   0  0  0  0  0  0  0  0  0  0  0  0
   -1.8536   -0.1596   -1.4287 O   0  5  0  0  0  0  0  0  0  0  0  0
   -3.7953    2.8241   -2.2497 N   0  0  0  0  0  0  0  0  0  0  0  0
   -3.7913    4.0517   -2.0806 O   0  0  0  0  0  0  0  0  0  0  0  0
   -4.6730    2.2234   -2.8857 O   0  0  0  0  0  0  0  0  0  0  0  0
  2  3  1  0  0  0  0
  2  1  1  0  0  0  0
  4  2  1  0  0  0  0
  5  4  2  0  0  0  0
  5  7  1  0  0  0  0
  6  5  1  0  0  0  0
  8  9  2  0  0  0  0
  8  4  1  0  0  0  0
 10  8  2  0  0  0  0
M  CHG  1   7  -1
M  END
