1,2
q = -1.0, confidence = 0.006

 18 18  0  0  0  0  0  0  0  0999 V2000
   -1.5549    1.5115    0.5055 O   0  5  0  0  0  0  0  0  0  0  0  0
   -1.9491    0.1007   -1.1682 O   0  5  0  0  0  0  0  0  0  0  0  0
   -7.5315    3.2104   -1.0919 O   0  0  0  0  0  0  0  0  0  0  0  0
   -2.3245    1.0606   -0.4049 C   0  0  0  0  0  3  0  0  0  0  0  0
   -3.6902    1.6410   -0.5689 C   0  0  0  0  0  0  0  0  0  0  0  0
   -4.1089    2.7131    0.2393 C   0  0  0  0  0  0  0  0  0  0  0  0
   -3.4028    3.1057    0.9855 H   0  0  0  0  0  0  0  0  0  0  0  0
   -5.3868    3.2704    0.0978 C   0  0  0  0  0  0  0  0  0  0  0  0
   -5.6850    4.1095    0.7405 H   0  0  0  0  0  0  0  0  0  0  0  0
   -6.2707    2.7464   -0.8705 C   0  0  0  0  0  0  0  0  0  0  0  0
   -5.8579    1.6675   -1.6856 C   0  0  0  0  0  0  0  0  0  0  0  0
   -6.5669    1.2790   -2.4311 H   0  0  0  0  0  0  0  0  0  0  0  0
   -4.5824    1.1262   -1.5350 C   0  0  0  0  0  0  0  0  0  0  0  0
   -4.2451    0.2882   -2.1619 H   0  0  0  0  0  0  0  0  0  0  0  0
   -7.9963    4.2950   -0.3126 C   0  0  0  0  0  0  0  0  0  0  0  0
   -9.0259    4.5091   -0.6551 H   0  0  0  0  0  0  0  0  0  0  0  0
   -7.3722    5.2062   -0.4531 H   0  0  0  0  0  0  0  0  0  0  0  0
   -8.0211    4.0477    0.7728 H   0  0  0  0  0  0  0  0  0  0  0  0
  2  4  1  0  0  0  0
  3 10  1  0  0  0  0
  3 15  1  0  0  0  0
  4  1  1  0  0  0  0
  5  4  1  0  0  0  0
  5  6  1  0  0  0  0
  6  7  1  0  0  0  0
  8  6  2  0  0  0  0
  8  9  1  0  0  0  0
 10  8  1  0  0  0  0
 11 13  1  0  0  0  0
 11 10  2  0  0  0  0
 12 11  1  0  0  0  0
 13  5  2  0  0  0  0
 14 13  1  0  0  0  0
 15 18  1  0  0  0  0
 16 15  1  0  0  0  0
 17 15  1  0  0  0  0
M  CHG  2   1  -1   2  -1
M  END
