2,3
q = -1.0

 36 36  0  0  1  0  0  0  0  0999 V2000
   -2.1189    2.1251   -1.9110 N   0  0  0  0  0  0  0  0  0  0  0  0
   -2.6048   -0.0141   -1.1887 O   0  0  0  0  0  1  0  0  0  0  0  0
   -4.4420    0.8043    0.4894 O   0  5  0  0  0  0  0  0  0  0  0  0
   -2.8212    1.2347   -1.1317 C   0  0  1  0  0  3  0  0  0  0  0  0
   -3.8296    1.7382   -0.2175 C   0  0  0  0  0  0  0  0  0  0  0  0
   -4.0640    3.1089   -0.1454 C   0  0  0  0  0  0  0  0  0  0  0  0
   -4.8267    3.4927    0.5466 H   0  0  0  0  0  0  0  0  0  0  0  0
   -3.3066    3.9819   -0.9732 C   0  0  0  0  0  0  0  0  0  0  0  0
   -3.4750    5.0667   -0.9383 H   0  0  0  0  0  0  0  0  0  0  0  0
   -2.3518    3.4831   -1.8351 C   0  0  0  0  0  0  0  0  0  0  0  0
   -1.7427    4.1095   -2.4996 H   0  0  0  0  0  0  0  0  0  0  0  0
   -1.0827    1.5612   -2.7915 C   0  0  0  0  0  0  0  0  0  0  0  0
   -0.8708    2.3062   -3.5833 H   0  0  0  0  0  0  0  0  0  0  0  0
   -1.5173    0.6599   -3.2671 H   0  0  0  0  0  0  0  0  0  0  0  0
    0.1801    1.1785   -2.0168 C   0  0  0  0  0  0  0  0  0  0  0  0
    0.6551    2.0974   -1.6095 H   0  0  0  0  0  0  0  0  0  0  0  0
   -0.1280    0.5638   -1.1458 H   0  0  0  0  0  0  0  0  0  0  0  0
    1.1873    0.3824   -2.8498 C   0  0  0  0  0  0  0  0  0  0  0  0
    0.6880   -0.5288   -3.2481 H   0  0  0  0  0  0  0  0  0  0  0  0
    1.5039    0.9728   -3.7394 H   0  0  0  0  0  0  0  0  0  0  0  0
    2.4167   -0.0266   -2.0353 C   0  0  0  0  0  0  0  0  0  0  0  0
    2.0779   -0.5894   -1.1362 H   0  0  0  0  0  0  0  0  0  0  0  0
    2.9169    0.8878   -1.6456 H   0  0  0  0  0  0  0  0  0  0  0  0
    3.4436   -0.8748   -2.7873 C   0  0  0  0  0  0  0  0  0  0  0  0
    3.7864   -0.3320   -3.6970 H   0  0  0  0  0  0  0  0  0  0  0  0
    2.9574   -1.8056   -3.1573 H   0  0  0  0  0  0  0  0  0  0  0  0
    4.6545   -1.2377   -1.9229 C   0  0  0  0  0  0  0  0  0  0  0  0
    5.1364   -0.3017   -1.5594 H   0  0  0  0  0  0  0  0  0  0  0  0
    4.3014   -1.7625   -1.0049 H   0  0  0  0  0  0  0  0  0  0  0  0
    5.7054   -2.1012   -2.6252 C   0  0  0  0  0  0  0  0  0  0  0  0
    5.2292   -3.0426   -2.9791 H   0  0  0  0  0  0  0  0  0  0  0  0
    6.0508   -1.5782   -3.5447 H   0  0  0  0  0  0  0  0  0  0  0  0
    6.9061   -2.4303   -1.7371 C   0  0  0  0  0  0  0  0  0  0  0  0
    7.4214   -1.5067   -1.3981 H   0  0  0  0  0  0  0  0  0  0  0  0
    7.6539   -3.0543   -2.2663 H   0  0  0  0  0  0  0  0  0  0  0  0
    6.5939   -2.9836   -0.8264 H   0  0  0  0  0  0  0  0  0  0  0  0
  1 10  1  0  0  0  0
  1  4  1  0  0  0  0
  4  2  1  1  0  0  0
  4  5  1  0  0  0  0
  5  6  2  0  0  0  0
  5  3  1  0  0  0  0
  6  7  1  0  0  0  0
  8  9  1  0  0  0  0
  8  6  1  0  0  0  0
 10  8  2  0  0  0  0
 11 10  1  0  0  0  0
 12 15  1  0  0  0  0
 12  1  1  0  0  0  0
 13 12  1  0  0  0  0
 14 12  1  0  0  0  0
 15 16  1  0  0  0  0
 15 17  1  0  0  0  0
 18 21  1  0  0  0  0
 18 15  1  0  0  0  0
 19 18  1  0  0  0  0
 20 18  1  0  0  0  0
 21 23  1  0  0  0  0
 21 22  1  0  0  0  0
 24 21  1  0  0  0  0
 24 27  1  0  0  0  0
 25 24  1  0  0  0  0
 26 24  1  0  0  0  0
 27 28  1  0  0  0  0
 27 29  1  0  0  0  0
 30 27  1  0  0  0  0
 30 33  1  0  0  0  0
 31 30  1  0  0  0  0
 32 30  1  0  0  0  0
 33 34  1  0  0  0  0
 33 36  1  0  0  0  0
 35 33  1  0  0  0  0
M  CHG  1   3  -1
M  END
