1,2
q = -1.0, confidence = 0.01

 27 27  0  0  1  0  0  0  0  0999 V2000
   -0.9489    0.4721   -0.6842 O   0  5  0  0  0  0  0  0  0  0  0  0
   -1.6263   -2.2525   -0.3039 O   0  0  0  0  0  1  0  0  0  0  0  0
   -3.8520   -2.9132   -0.6651 C   0  0  0  0  0  0  0  0  0  0  0  0
   -4.7402   -2.5986   -0.0809 H   0  0  0  0  0  0  0  0  0  0  0  0
   -3.4298   -3.8363   -0.2299 H   0  0  0  0  0  0  0  0  0  0  0  0
   -4.1993   -3.1333   -1.6962 H   0  0  0  0  0  0  0  0  0  0  0  0
   -2.7811   -1.8383   -0.6699 C   0  0  1  0  0  3  0  0  0  0  0  0
   -3.1257   -0.5059   -1.0485 C   0  0  0  0  0  0  0  0  0  0  0  0
   -2.1941    0.5644   -0.9917 C   0  0  0  0  0  0  0  0  0  0  0  0
   -2.6446    1.9808   -1.2974 C   0  0  0  0  0  0  0  0  0  0  0  0
   -3.5532    2.2526   -0.7240 H   0  0  0  0  0  0  0  0  0  0  0  0
   -2.8893    2.0971   -2.3743 H   0  0  0  0  0  0  0  0  0  0  0  0
   -1.8250    2.6772   -1.0445 H   0  0  0  0  0  0  0  0  0  0  0  0
   -4.5566   -0.2105   -1.4547 C   0  0  0  0  0  0  0  0  0  0  0  0
   -4.9781   -1.0706   -2.0146 H   0  0  0  0  0  0  0  0  0  0  0  0
   -4.5757    0.6207   -2.1897 H   0  0  0  0  0  0  0  0  0  0  0  0
   -5.5265    0.1388   -0.3298 C   0  0  0  0  0  0  0  0  0  0  0  0
   -6.8915    0.3430   -0.6243 C   0  0  0  0  0  0  0  0  0  0  0  0
   -7.2390    0.2387   -1.6654 H   0  0  0  0  0  0  0  0  0  0  0  0
   -7.8068    0.6741    0.3835 C   0  0  0  0  0  0  0  0  0  0  0  0
   -8.8674    0.8278    0.1310 H   0  0  0  0  0  0  0  0  0  0  0  0
   -7.3734    0.8079    1.7137 C   0  0  0  0  0  0  0  0  0  0  0  0
   -8.0907    1.0670    2.5072 H   0  0  0  0  0  0  0  0  0  0  0  0
   -6.0201    0.6064    2.0201 C   0  0  0  0  0  0  0  0  0  0  0  0
   -5.6686    0.7064    3.0586 H   0  0  0  0  0  0  0  0  0  0  0  0
   -5.1055    0.2743    1.0065 C   0  0  0  0  0  0  0  0  0  0  0  0
   -4.0440    0.1125    1.2507 H   0  0  0  0  0  0  0  0  0  0  0  0
  3  5  1  0  0  0  0
  3  4  1  0  0  0  0
  6  3  1  0  0  0  0
  7  3  1  0  0  0  0
  7  2  1  1  0  0  0
  8  9  2  0  0  0  0
  8  7  1  0  0  0  0
  9  1  1  0  0  0  0
 10 13  1  0  0  0  0
 10  9  1  0  0  0  0
 10 11  1  0  0  0  0
 12 10  1  0  0  0  0
 14  8  1  0  0  0  0
 14 17  1  0  0  0  0
 15 14  1  0  0  0  0
 16 14  1  0  0  0  0
 17 26  1  0  0  0  0
 18 17  2  0  0  0  0
 18 20  1  0  0  0  0
 19 18  1  0  0  0  0
 20 22  2  0  0  0  0
 21 20  1  0  0  0  0
 22 24  1  0  0  0  0
 22 23  1  0  0  0  0
 24 25  1  0  0  0  0
 26 27  1  0  0  0  0
 26 24  2  0  0  0  0
M  CHG  1   1  -1
M  END
