1,2
q = -1.0

 26 27  0  0  0  0  0  0  0  0999 V2000
    1.0087   -1.8644    0.9668 O   0  5  0  0  0  0  0  0  0  0  0  0
    1.7146   -0.0177   -0.0276 O   0  5  0  0  0  0  0  0  0  0  0  0
    1.8439   -1.2842    0.1927 C   0  0  0  0  0  3  0  0  0  0  0  0
    2.9624   -2.0473   -0.4165 C   0  0  0  0  0  0  0  0  0  0  0  0
    4.0312   -1.4085   -1.1375 C   0  0  0  0  0  0  0  0  0  0  0  0
    4.0198   -0.0370   -1.2776 N   0  0  0  0  0  0  0  0  0  0  0  0
    3.1113    0.3706   -0.9773 H   0  0  0  0  0  0  0  0  0  0  0  0
    5.0267    0.8472   -1.6645 C   0  0  0  0  0  0  0  0  0  0  0  0
    6.4105    0.5911   -1.5024 C   0  0  0  0  0  0  0  0  0  0  0  0
    6.7449   -0.3501   -1.0468 H   0  0  0  0  0  0  0  0  0  0  0  0
    7.3566    1.5541   -1.8794 C   0  0  0  0  0  0  0  0  0  0  0  0
    8.4266    1.3334   -1.7414 H   0  0  0  0  0  0  0  0  0  0  0  0
    6.9589    2.7918   -2.4087 C   0  0  0  0  0  0  0  0  0  0  0  0
    7.7088    3.5406   -2.7031 H   0  0  0  0  0  0  0  0  0  0  0  0
    5.5869    3.0613   -2.5493 C   0  0  0  0  0  0  0  0  0  0  0  0
    5.2528    4.0283   -2.9560 H   0  0  0  0  0  0  0  0  0  0  0  0
    4.6328    2.1046   -2.1881 C   0  0  0  0  0  0  0  0  0  0  0  0
    3.5591    2.3140   -2.3139 H   0  0  0  0  0  0  0  0  0  0  0  0
    5.0316   -2.2376   -1.7137 C   0  0  0  0  0  0  0  0  0  0  0  0
    5.8227   -1.7807   -2.3214 H   0  0  0  0  0  0  0  0  0  0  0  0
    4.9951   -3.6240   -1.5579 C   0  0  0  0  0  0  0  0  0  0  0  0
    5.7816   -4.2331   -2.0303 H   0  0  0  0  0  0  0  0  0  0  0  0
    3.9666   -4.2472   -0.8250 C   0  0  0  0  0  0  0  0  0  0  0  0
    3.9470   -5.3398   -0.7030 H   0  0  0  0  0  0  0  0  0  0  0  0
    2.9619   -3.4514   -0.2728 C   0  0  0  0  0  0  0  0  0  0  0  0
    2.1281   -3.8929    0.2917 H   0  0  0  0  0  0  0  0  0  0  0  0
  2  3  1  0  0  0  0
  3  1  1  0  0  0  0
  4 25  1  0  0  0  0
  4  3  1  0  0  0  0
  5  4  2  0  0  0  0
  6  5  1  0  0  0  0
  6  7  1  0  0  0  0
  8  9  1  0  0  0  0
  8  6  1  0  0  0  0
  9 10  1  0  0  0  0
 11 12  1  0  0  0  0
 11  9  2  0  0  0  0
 13 11  1  0  0  0  0
 14 13  1  0  0  0  0
 15 13  2  0  0  0  0
 15 17  1  0  0  0  0
 16 15  1  0  0  0  0
 17  8  2  0  0  0  0
 18 17  1  0  0  0  0
 19 21  2  0  0  0  0
 19  5  1  0  0  0  0
 20 19  1  0  0  0  0
 21 23  1  0  0  0  0
 22 21  1  0  0  0  0
 23 24  1  0  0  0  0
 23 25  2  0  0  0  0
 25 26  1  0  0  0  0
M  CHG  2   1  -1   2  -1
M  END
