1,2
q = -1.0

 16 16  0  0  0  0  0  0  0  0999 V2000
   -1.9537    0.5600   -1.0492 O   0  5  0  0  0  0  0  0  0  0  0  0
   -2.3959    0.4331    1.1464 O   0  5  0  0  0  0  0  0  0  0  0  0
   -8.8864    1.6076   -2.2400 O   0  0  0  0  0  0  0  0  0  0  0  0
   -2.7587    0.6004   -0.0666 C   0  0  0  0  0  3  0  0  0  0  0  0
   -4.2228    0.8440   -0.3395 C   0  0  0  0  0  0  0  0  0  0  0  0
   -4.6892    0.9164   -1.6706 C   0  0  0  0  0  0  0  0  0  0  0  0
   -3.9565    0.7892   -2.4809 H   0  0  0  0  0  0  0  0  0  0  0  0
   -6.0429    1.1360   -1.9293 C   0  0  0  0  0  0  0  0  0  0  0  0
   -6.4390    1.1938   -2.9547 H   0  0  0  0  0  0  0  0  0  0  0  0
   -6.9497    1.2899   -0.8573 C   0  0  0  0  0  0  0  0  0  0  0  0
   -6.4838    1.2182    0.4717 C   0  0  0  0  0  0  0  0  0  0  0  0
   -7.1997    1.3399    1.3014 H   0  0  0  0  0  0  0  0  0  0  0  0
   -5.1271    0.9949    0.7307 C   0  0  0  0  0  0  0  0  0  0  0  0
   -4.7341    0.9331    1.7557 H   0  0  0  0  0  0  0  0  0  0  0  0
   -8.3897    1.5262   -1.1286 C   0  0  0  0  0  0  0  0  0  0  0  0
   -9.0235    1.6310   -0.1948 H   0  0  0  0  0  0  0  0  0  0  0  0
  1  4  1  0  0  0  0
  3 15  2  0  0  0  0
  4  2  1  0  0  0  0
  5  4  1  0  0  0  0
  5 13  1  0  0  0  0
  6  5  2  0  0  0  0
  7  6  1  0  0  0  0
  8  6  1  0  0  0  0
  8 10  2  0  0  0  0
  9  8  1  0  0  0  0
 10 11  1  0  0  0  0
 11 13  2  0  0  0  0
 11 12  1  0  0  0  0
 13 14  1  0  0  0  0
 15 10  1  0  0  0  0
 15 16  1  0  0  0  0
M  CHG  2   1  -1   2  -1
M  END
