1,2
q = -1.0, confidence = 0.028

 42 44  0  0  1  0  0  0  0  0999 V2000
   -1.5203    1.1748   -0.3753 O   0  0  0  0  0  1  0  0  0  0  0  0
    0.2551   -1.1050    0.1020 O   0  5  0  0  0  0  0  0  0  0  0  0
    6.3216   -2.4018    1.0169 O   0  0  0  0  0  0  0  0  0  0  0  0
   -0.3695    1.7192   -0.3614 C   0  0  2  0  0  3  0  0  0  0  0  0
   -0.2047    3.2271   -0.5480 C   0  0  2  0  0  0  0  0  0  0  0  0
   -1.4542    4.0510   -0.3112 C   0  0  0  0  0  0  0  0  0  0  0  0
   -2.2701    3.7175   -0.9829 H   0  0  0  0  0  0  0  0  0  0  0  0
   -1.2651    5.1263   -0.5036 H   0  0  0  0  0  0  0  0  0  0  0  0
   -1.8194    3.9427    0.7302 H   0  0  0  0  0  0  0  0  0  0  0  0
    0.3889    3.3082   -2.0015 C   0  0  0  0  0  0  0  0  0  0  0  0
    0.3703    4.3609   -2.3500 H   0  0  0  0  0  0  0  0  0  0  0  0
   -0.2256    2.7128   -2.7049 H   0  0  0  0  0  0  0  0  0  0  0  0
    1.8367    2.7587   -1.8550 C   0  0  0  0  0  0  0  0  0  0  0  0
    2.0176    1.8895   -2.5161 H   0  0  0  0  0  0  0  0  0  0  0  0
    2.5987    3.5285   -2.0917 H   0  0  0  0  0  0  0  0  0  0  0  0
    1.8812    2.3406   -0.3553 C   0  0  2  0  0  0  0  0  0  0  0  0
    2.8931    2.1778    0.0596 H   0  0  0  0  0  0  0  0  0  0  0  0
    0.9271    1.1577   -0.2348 C   0  0  0  0  0  0  0  0  0  0  0  0
    1.0688    3.4851    0.3370 C   0  0  0  0  0  0  0  0  0  0  0  0
    1.6750    4.8843    0.1678 C   0  0  0  0  0  0  0  0  0  0  0  0
    2.6611    4.9357    0.6745 H   0  0  0  0  0  0  0  0  0  0  0  0
    1.0242    5.6496    0.6385 H   0  0  0  0  0  0  0  0  0  0  0  0
    1.8254    5.1805   -0.8868 H   0  0  0  0  0  0  0  0  0  0  0  0
    0.8367    3.2442    1.8345 C   0  0  0  0  0  0  0  0  0  0  0  0
    0.4121    2.2430    2.0402 H   0  0  0  0  0  0  0  0  0  0  0  0
    0.1454    4.0035    2.2546 H   0  0  0  0  0  0  0  0  0  0  0  0
    1.7932    3.3237    2.3908 H   0  0  0  0  0  0  0  0  0  0  0  0
    1.1805   -0.2068    0.0041 C   0  0  0  0  0  0  0  0  0  0  0  0
    2.5551   -0.7263    0.2487 C   0  0  0  0  0  0  0  0  0  0  0  0
    3.6734   -0.2853   -0.4853 C   0  0  0  0  0  0  0  0  0  0  0  0
    3.5447    0.4625   -1.2797 H   0  0  0  0  0  0  0  0  0  0  0  0
    4.9497   -0.8252   -0.2665 C   0  0  0  0  0  0  0  0  0  0  0  0
    5.7928   -0.4697   -0.8735 H   0  0  0  0  0  0  0  0  0  0  0  0
    5.1292   -1.8222    0.7143 C   0  0  0  0  0  0  0  0  0  0  0  0
    4.0115   -2.2833    1.4470 C   0  0  0  0  0  0  0  0  0  0  0  0
    4.1717   -3.0683    2.2003 H   0  0  0  0  0  0  0  0  0  0  0  0
    2.7474   -1.7525    1.2045 C   0  0  0  0  0  0  0  0  0  0  0  0
    1.8738   -2.1239    1.7592 H   0  0  0  0  0  0  0  0  0  0  0  0
    7.4725   -1.9845    0.3075 C   0  0  0  0  0  0  0  0  0  0  0  0
    8.3189   -2.5713    0.7101 H   0  0  0  0  0  0  0  0  0  0  0  0
    7.6811   -0.9009    0.4552 H   0  0  0  0  0  0  0  0  0  0  0  0
    7.3823   -2.1831   -0.7841 H   0  0  0  0  0  0  0  0  0  0  0  0
  4  1  1  6  0  0  0
  4 18  1  0  0  0  0
  5  4  1  0  0  0  0
  5  6  1  1  0  0  0
  5 19  1  0  0  0  0
  6  9  1  0  0  0  0
  7  6  1  0  0  0  0
  8  6  1  0  0  0  0
 10 13  1  0  0  0  0
 10  5  1  0  0  0  0
 11 10  1  0  0  0  0
 12 10  1  0  0  0  0
 13 16  1  0  0  0  0
 14 13  1  0  0  0  0
 15 13  1  0  0  0  0
 16 18  1  0  0  0  0
 16 17  1  1  0  0  0
 16 19  1  0  0  0  0
 18 28  2  0  0  0  0
 19 24  1  0  0  0  0
 20 19  1  0  0  0  0
 20 22  1  0  0  0  0
 20 21  1  0  0  0  0
 23 20  1  0  0  0  0
 24 25  1  0  0  0  0
 24 26  1  0  0  0  0
 24 27  1  0  0  0  0
 28  2  1  0  0  0  0
 28 29  1  0  0  0  0
 29 37  1  0  0  0  0
 30 32  1  0  0  0  0
 30 29  2  0  0  0  0
 31 30  1  0  0  0  0
 32 34  2  0  0  0  0
 33 32  1  0  0  0  0
 34  3  1  0  0  0  0
 34 35  1  0  0  0  0
 35 36  1  0  0  0  0
 37 35  2  0  0  0  0
 37 38  1  0  0  0  0
 39 41  1  0  0  0  0
 39 40  1  0  0  0  0
 39  3  1  0  0  0  0
 42 39  1  0  0  0  0
M  CHG  1   2  -1
M  END
