1,2
q = -1.0

 15 15  0  0  0  0  0  0  0  0999 V2000
    1.8918   -0.2418    0.9005 O   0  5  0  0  0  0  0  0  0  0  0  0
    1.7431   -0.7770   -1.2726 O   0  5  0  0  0  0  0  0  0  0  0  0
    7.6669   -5.2047    0.5285 N   0  0  0  0  0  0  0  0  0  0  0  0
    3.4482   -1.8352    0.0191 C   0  0  0  0  0  0  0  0  0  0  0  0
    4.0770   -1.9995    1.2688 C   0  0  0  0  0  0  0  0  0  0  0  0
    3.6881   -1.4300    2.1249 H   0  0  0  0  0  0  0  0  0  0  0  0
    5.1627   -2.8677    1.4070 C   0  0  0  0  0  0  0  0  0  0  0  0
    5.6573   -3.0005    2.3799 H   0  0  0  0  0  0  0  0  0  0  0  0
    5.6337   -3.5887    0.2832 C   0  0  0  0  0  0  0  0  0  0  0  0
    5.0000   -3.4283   -0.9727 C   0  0  0  0  0  0  0  0  0  0  0  0
    5.3692   -3.9938   -1.8401 H   0  0  0  0  0  0  0  0  0  0  0  0
    3.9150   -2.5569   -1.0971 C   0  0  0  0  0  0  0  0  0  0  0  0
    3.4031   -2.4149   -2.0594 H   0  0  0  0  0  0  0  0  0  0  0  0
    2.2816   -0.8922   -0.1203 C   0  0  0  0  0  3  0  0  0  0  0  0
    6.7506   -4.4784    0.4177 C   0  0  0  0  0  0  0  0  0  0  0  0
  2 14  1  0  0  0  0
  4  5  1  0  0  0  0
  5  7  2  0  0  0  0
  5  6  1  0  0  0  0
  7  8  1  0  0  0  0
  9 15  1  0  0  0  0
  9  7  1  0  0  0  0
 10  9  2  0  0  0  0
 11 10  1  0  0  0  0
 12 10  1  0  0  0  0
 12  4  2  0  0  0  0
 13 12  1  0  0  0  0
 14  4  1  0  0  0  0
 14  1  1  0  0  0  0
 15  3  3  0  0  0  0
M  CHG  2   1  -1   2  -1
M  END
