12,13
q = -1.0

 35 36  0  0  1  0  0  0  0  0999 V2000
   -3.4803   -0.8357   -2.4910 C   0  0  0  0  0  0  0  0  0  0  0  0
   -2.8319   -1.0440   -3.3612 H   0  0  0  0  0  0  0  0  0  0  0  0
   -4.3701   -1.4955   -2.5144 H   0  0  0  0  0  0  0  0  0  0  0  0
   -3.8660    0.2023   -2.5595 H   0  0  0  0  0  0  0  0  0  0  0  0
   -2.6730   -1.0198   -1.2176 C   0  0  1  0  0  3  0  0  0  0  0  0
   -3.3426   -0.8994    0.0393 C   0  0  0  0  0  0  0  0  0  0  0  0
   -2.7006   -1.0786    1.3049 C   0  0  0  0  0  0  0  0  0  0  0  0
   -3.5414   -0.9816    2.5653 C   0  0  0  0  0  0  0  0  0  0  0  0
   -2.9160   -1.2474    3.4366 H   0  0  0  0  0  0  0  0  0  0  0  0
   -3.9281    0.0502    2.6944 H   0  0  0  0  0  0  0  0  0  0  0  0
   -4.4310   -1.6403    2.5185 H   0  0  0  0  0  0  0  0  0  0  0  0
   -1.4331   -1.2763   -1.3828 O   0  0  0  0  0  1  0  0  0  0  0  0
   -1.4614   -1.3222    1.4870 O   0  5  0  0  0  0  0  0  0  0  0  0
   -4.7902   -0.5213    0.0330 C   0  0  0  0  0  0  0  0  0  0  0  0
   -5.1713    0.8389    0.0899 C   0  0  0  0  0  0  0  0  0  0  0  0
   -4.3798    1.6034    0.1384 H   0  0  0  0  0  0  0  0  0  0  0  0
   -6.5157    1.2201    0.0858 C   0  0  0  0  0  0  0  0  0  0  0  0
   -6.7956    2.2827    0.1307 H   0  0  0  0  0  0  0  0  0  0  0  0
   -7.5403    0.2398    0.0233 C   0  0  0  0  0  0  0  0  0  0  0  0
   -7.1645   -1.1277   -0.0341 C   0  0  0  0  0  0  0  0  0  0  0  0
   -7.9504   -1.8955   -0.0820 H   0  0  0  0  0  0  0  0  0  0  0  0
   -5.8153   -1.4922   -0.0286 C   0  0  0  0  0  0  0  0  0  0  0  0
   -5.5358   -2.5566   -0.0721 H   0  0  0  0  0  0  0  0  0  0  0  0
   -8.9118    0.6189    0.0191 C   0  0  0  0  0  0  0  0  0  0  0  0
  -10.0999    0.9474    0.0158 C   0  0  0  0  0  0  0  0  0  0  0  0
  -11.4705    1.3265    0.0122 C   0  0  0  0  0  0  0  0  0  0  0  0
  -11.8631    2.6874    0.0786 C   0  0  0  0  0  0  0  0  0  0  0  0
  -11.1028    3.4797    0.1348 H   0  0  0  0  0  0  0  0  0  0  0  0
  -13.2281    2.9995    0.0715 C   0  0  0  0  0  0  0  0  0  0  0  0
  -13.5464    4.0566    0.1230 H   0  0  0  0  0  0  0  0  0  0  0  0
  -14.2105    2.0846    0.0050 N   0  0  0  0  0  0  0  0  0  0  0  0
  -13.8377    0.7947   -0.0579 C   0  0  0  0  0  0  0  0  0  0  0  0
  -14.6538    0.0515   -0.1122 H   0  0  0  0  0  0  0  0  0  0  0  0
  -12.5063    0.3609   -0.0579 C   0  0  0  0  0  0  0  0  0  0  0  0
  -12.2612   -0.7096   -0.1112 H   0  0  0  0  0  0  0  0  0  0  0  0
  1  5  1  0  0  0  0
  2  1  1  0  0  0  0
  3  1  1  0  0  0  0
  4  1  1  0  0  0  0
  5 12  1  6  0  0  0
  5  6  1  0  0  0  0
  6  7  2  0  0  0  0
  7 13  1  0  0  0  0
  7  8  1  0  0  0  0
  8 10  1  0  0  0  0
  8  9  1  0  0  0  0
 11  8  1  0  0  0  0
 14  6  1  0  0  0  0
 14 15  1  0  0  0  0
 15 16  1  0  0  0  0
 17 15  2  0  0  0  0
 17 18  1  0  0  0  0
 19 17  1  0  0  0  0
 20 22  1  0  0  0  0
 20 19  2  0  0  0  0
 21 20  1  0  0  0  0
 22 14  2  0  0  0  0
 23 22  1  0  0  0  0
 24 19  1  0  0  0  0
 25 24  3  0  0  0  0
 26 25  1  0  0  0  0
 26 27  1  0  0  0  0
 27 28  1  0  0  0  0
 29 27  2  0  0  0  0
 29 30  1  0  0  0  0
 31 29  1  0  0  0  0
 32 34  1  0  0  0  0
 32 31  2  0  0  0  0
 33 32  1  0  0  0  0
 34 26  2  0  0  0  0
 35 34  1  0  0  0  0
M  CHG  1  13  -1
M  END
