1,2
q = -1.0, confidence = 0.062

 37 39  0  0  1  0  0  0  0  0999 V2000
   -1.2139    1.9057   -0.2655 O   0  5  0  0  0  0  0  0  0  0  0  0
    0.9656   -0.0685    0.1952 O   0  0  0  0  0  1  0  0  0  0  0  0
    7.7321   -1.3764    0.3119 N   0  0  0  0  0  0  0  0  0  0  0  0
   -0.5342    4.1287   -0.5901 C   0  0  0  0  0  0  0  0  0  0  0  0
   -1.8645    4.4518   -0.9412 C   0  0  0  0  0  0  0  0  0  0  0  0
   -2.5926    3.6313   -1.0128 H   0  0  0  0  0  0  0  0  0  0  0  0
   -2.2402    5.7783   -1.1847 C   0  0  0  0  0  0  0  0  0  0  0  0
   -3.2799    6.0097   -1.4624 H   0  0  0  0  0  0  0  0  0  0  0  0
   -1.2955    6.8116   -1.0718 C   0  0  0  0  0  0  0  0  0  0  0  0
   -1.5898    7.8554   -1.2602 H   0  0  0  0  0  0  0  0  0  0  0  0
    0.0265    6.5061   -0.7097 C   0  0  0  0  0  0  0  0  0  0  0  0
    0.7702    7.3109   -0.6063 H   0  0  0  0  0  0  0  0  0  0  0  0
    0.4039    5.1780   -0.4713 C   0  0  0  0  0  0  0  0  0  0  0  0
    1.4387    4.9639   -0.1686 H   0  0  0  0  0  0  0  0  0  0  0  0
   -0.1967    2.6854   -0.3460 C   0  0  0  0  0  0  0  0  0  0  0  0
    1.1606    2.2893   -0.2531 C   0  0  0  0  0  0  0  0  0  0  0  0
    1.9064    3.0697   -0.4331 H   0  0  0  0  0  0  0  0  0  0  0  0
    1.6667    0.9927    0.0140 C   0  0  2  0  0  3  0  0  0  0  0  0
    3.1482    0.7820    0.1032 C   0  0  0  0  0  0  0  0  0  0  0  0
    4.0792    1.8333    0.2532 C   0  0  0  0  0  0  0  0  0  0  0  0
    3.7325    2.8735    0.3308 H   0  0  0  0  0  0  0  0  0  0  0  0
    5.4500    1.5736    0.3369 C   0  0  0  0  0  0  0  0  0  0  0  0
    6.1362    2.4230    0.4643 H   0  0  0  0  0  0  0  0  0  0  0  0
    5.9474    0.2524    0.2716 C   0  0  0  0  0  0  0  0  0  0  0  0
    5.0129   -0.7995    0.1309 C   0  0  0  0  0  0  0  0  0  0  0  0
    5.4042   -1.8254    0.0846 H   0  0  0  0  0  0  0  0  0  0  0  0
    3.6443   -0.5409    0.0540 C   0  0  0  0  0  0  0  0  0  0  0  0
    2.9196   -1.3608   -0.0505 H   0  0  0  0  0  0  0  0  0  0  0  0
    7.3992   -0.0658    0.3494 C   0  0  0  0  0  0  0  0  0  0  0  0
    9.0210   -1.7225    0.3782 C   0  0  0  0  0  0  0  0  0  0  0  0
    9.2377   -2.8058    0.3434 H   0  0  0  0  0  0  0  0  0  0  0  0
   10.0723   -0.7964    0.4865 C   0  0  0  0  0  0  0  0  0  0  0  0
   11.1172   -1.1359    0.5381 H   0  0  0  0  0  0  0  0  0  0  0  0
    9.7392    0.5650    0.5241 C   0  0  0  0  0  0  0  0  0  0  0  0
   10.5224    1.3341    0.6060 H   0  0  0  0  0  0  0  0  0  0  0  0
    8.3922    0.9371    0.4546 C   0  0  0  0  0  0  0  0  0  0  0  0
    8.1186    2.0007    0.4794 H   0  0  0  0  0  0  0  0  0  0  0  0
  3 29  2  0  0  0  0
  3 30  1  0  0  0  0
  4 13  1  0  0  0  0
  4 15  1  0  0  0  0
  5  4  2  0  0  0  0
  6  5  1  0  0  0  0
  7  9  2  0  0  0  0
  7  5  1  0  0  0  0
  8  7  1  0  0  0  0
  9 11  1  0  0  0  0
 10  9  1  0  0  0  0
 11 12  1  0  0  0  0
 11 13  2  0  0  0  0
 13 14  1  0  0  0  0
 15  1  1  0  0  0  0
 15 16  2  0  0  0  0
 16 18  1  0  0  0  0
 17 16  1  0  0  0  0
 18 19  1  0  0  0  0
 18  2  1  6  0  0  0
 19 20  1  0  0  0  0
 20 21  1  0  0  0  0
 20 22  2  0  0  0  0
 22 23  1  0  0  0  0
 24 22  1  0  0  0  0
 24 29  1  0  0  0  0
 25 24  2  0  0  0  0
 26 25  1  0  0  0  0
 27 19  2  0  0  0  0
 27 25  1  0  0  0  0
 28 27  1  0  0  0  0
 29 36  1  0  0  0  0
 30 32  2  0  0  0  0
 31 30  1  0  0  0  0
 32 34  1  0  0  0  0
 32 33  1  0  0  0  0
 34 35  1  0  0  0  0
 36 37  1  0  0  0  0
 36 34  2  0  0  0  0
M  CHG  1   1  -1
M  END
