1,2
q = -1.0

 18 18  0  0  0  0  0  0  0  0999 V2000
   -1.2534   -2.7229   -0.0581 O   0  5  0  0  0  0  0  0  0  0  0  0
   -1.2462    0.0137   -0.0446 O   0  5  0  0  0  0  0  0  0  0  0  0
   -2.5870    2.2292    0.0249 O   0  0  0  0  0  0  0  0  0  0  0  0
   -2.5133   -2.5825   -0.0836 C   0  0  0  0  0  0  0  0  0  0  0  0
   -3.0956   -3.5326   -0.1151 H   0  0  0  0  0  0  0  0  0  0  0  0
   -3.2479   -1.3659   -0.0717 C   0  0  0  0  0  0  0  0  0  0  0  0
   -2.5342   -0.1147   -0.0459 C   0  0  0  0  0  0  0  0  0  0  0  0
   -3.3290    1.0985   -0.0099 C   0  0  0  0  0  0  0  0  0  0  0  0
   -4.7189    1.0363    0.0016 C   0  0  0  0  0  0  0  0  0  0  0  0
   -5.3035    1.9664    0.0356 H   0  0  0  0  0  0  0  0  0  0  0  0
   -5.3990   -0.2151   -0.0322 C   0  0  0  0  0  0  0  0  0  0  0  0
   -6.4984   -0.2288   -0.0258 H   0  0  0  0  0  0  0  0  0  0  0  0
   -4.6805   -1.3933   -0.0698 C   0  0  0  0  0  3  0  0  0  0  0  0
   -5.1901   -2.3688   -0.0918 H   0  0  0  0  0  0  0  0  0  0  0  0
   -3.2090    3.4813    0.2536 C   0  0  0  0  0  0  0  0  0  0  0  0
   -3.8643    3.7785   -0.5958 H   0  0  0  0  0  0  0  0  0  0  0  0
   -2.3718    4.1958    0.3587 H   0  0  0  0  0  0  0  0  0  0  0  0
   -3.8130    3.4662    1.1879 H   0  0  0  0  0  0  0  0  0  0  0  0
  3 15  1  0  0  0  0
  4  6  2  0  0  0  0
  4  1  1  0  0  0  0
  5  4  1  0  0  0  0
  6 13  1  0  0  0  0
  6  7  1  0  0  0  0
  7  2  1  0  0  0  0
  7  8  2  0  0  0  0
  8  9  1  0  0  0  0
  8  3  1  0  0  0  0
  9 10  1  0  0  0  0
 11 12  1  0  0  0  0
 11  9  2  0  0  0  0
 13 11  1  0  0  0  0
 14 13  1  0  0  0  0
 15 17  1  0  0  0  0
 15 18  1  0  0  0  0
 16 15  1  0  0  0  0
M  CHG  2   1  -1   2  -1
M  END
