1,2
q = -1.0, confidence = 0.016

 23 23  0  0  0  0  0  0  0  0999 V2000
    1.5679   -0.9352   -1.6078 O   0  5  0  0  0  0  0  0  0  0  0  0
    1.7029    1.1493   -0.8426 O   0  5  0  0  0  0  0  0  0  0  0  0
    5.2845   -2.1852   -1.7451 O   0  0  0  0  0  0  0  0  0  0  0  0
    4.1577   -3.2166   -0.0833 O   0  0  0  0  0  0  0  0  0  0  0  0
    4.3049   -3.9473   -0.7232 H   0  0  0  0  0  0  0  0  0  0  0  0
    2.1675    0.1857   -1.5375 C   0  0  0  0  0  3  0  0  0  0  0  0
    3.4651    0.3956   -2.3165 C   0  0  0  0  0  0  0  0  0  0  0  0
    3.7780   -0.5745   -2.7463 H   0  0  0  0  0  0  0  0  0  0  0  0
    3.2131    1.0660   -3.1637 H   0  0  0  0  0  0  0  0  0  0  0  0
    4.5921    1.0169   -1.5221 C   0  0  0  0  0  0  0  0  0  0  0  0
    5.1590    2.2322   -1.9490 C   0  0  0  0  0  0  0  0  0  0  0  0
    4.7436    2.7205   -2.8445 H   0  0  0  0  0  0  0  0  0  0  0  0
    6.2289    2.8291   -1.2673 C   0  0  0  0  0  0  0  0  0  0  0  0
    6.6488    3.7804   -1.6284 H   0  0  0  0  0  0  0  0  0  0  0  0
    6.7560    2.2080   -0.1274 C   0  0  0  0  0  0  0  0  0  0  0  0
    7.5967    2.6610    0.4194 H   0  0  0  0  0  0  0  0  0  0  0  0
    6.1982    1.0001    0.3147 C   0  0  0  0  0  0  0  0  0  0  0  0
    6.6042    0.5093    1.2141 H   0  0  0  0  0  0  0  0  0  0  0  0
    5.1243    0.3931   -0.3621 C   0  0  0  0  0  0  0  0  0  0  0  0
    4.5390   -0.8835    0.1910 C   0  0  0  0  0  0  0  0  0  0  0  0
    3.4509   -0.7723    0.3820 H   0  0  0  0  0  0  0  0  0  0  0  0
    4.9803   -1.1170    1.1825 H   0  0  0  0  0  0  0  0  0  0  0  0
    4.7190   -2.1190   -0.6740 C   0  0  0  0  0  0  0  0  0  0  0  0
  1  6  1  0  0  0  0
  3 23  2  0  0  0  0
  5  4  1  0  0  0  0
  6  2  1  0  0  0  0
  7  6  1  0  0  0  0
  7 10  1  0  0  0  0
  8  7  1  0  0  0  0
  9  7  1  0  0  0  0
 10 19  1  0  0  0  0
 11 10  2  0  0  0  0
 11 13  1  0  0  0  0
 12 11  1  0  0  0  0
 13 15  2  0  0  0  0
 14 13  1  0  0  0  0
 15 17  1  0  0  0  0
 15 16  1  0  0  0  0
 17 18  1  0  0  0  0
 19 20  1  0  0  0  0
 19 17  2  0  0  0  0
 20 21  1  0  0  0  0
 20 22  1  0  0  0  0
 23  4  1  0  0  0  0
 23 20  1  0  0  0  0
M  CHG  2   1  -1   2  -1
M  END
