2,3
q = -2.0, confidence = 0.892

 26 26  0  0  0  0  0  0  0  0999 V2000
   -0.4307    1.7304   -0.1374 N   0  0  0  0  0  0  0  0  0  0  0  0
   -2.5545    0.0554   -1.2753 O   0  0  0  0  0  1  0  0  0  0  0  0
   -2.3030    0.2291    1.3853 O   0  0  0  0  0  1  0  0  0  0  0  0
   -2.5428    1.4396   -1.4231 C   0  0  0  0  0  0  0  0  0  0  0  0
   -1.1234    2.0131   -1.3996 C   0  0  0  0  0  0  0  0  0  0  0  0
   -1.5772    1.2262    2.0357 C   0  0  0  0  0  0  0  0  0  0  0  0
   -1.0696    2.3007    1.0570 C   0  0  0  0  0  0  0  0  0  0  0  0
    0.9710    1.5680   -0.1297 C   0  0  0  0  0  0  0  0  0  0  0  0
    1.7299    1.4349   -1.3211 C   0  0  0  0  0  0  0  0  0  0  0  0
    3.1112    1.2063   -1.2794 C   0  0  0  0  0  0  0  0  0  0  0  0
    3.7968    1.1191   -0.0593 C   0  0  0  0  0  0  0  0  0  0  0  0
    3.0646    1.2804    1.1258 C   0  0  0  0  0  0  0  0  0  0  0  0
    1.6823    1.5015    1.0973 C   0  0  0  0  0  0  0  0  0  0  0  0
   -3.1710    1.9003   -0.6185 H   0  0  0  0  0  0  0  0  0  0  0  0
   -3.0109    1.7185   -2.3963 H   0  0  0  0  0  0  0  0  0  0  0  0
   -1.1446    3.1088   -1.6192 H   0  0  0  0  0  0  0  0  0  0  0  0
   -0.5769    1.5147   -2.2184 H   0  0  0  0  0  0  0  0  0  0  0  0
   -0.7194    0.7527    2.5705 H   0  0  0  0  0  0  0  0  0  0  0  0
   -2.2203    1.7133    2.8056 H   0  0  0  0  0  0  0  0  0  0  0  0
   -1.9351    2.9049    0.7196 H   0  0  0  0  0  0  0  0  0  0  0  0
   -0.3789    3.0011    1.5759 H   0  0  0  0  0  0  0  0  0  0  0  0
    1.2479    1.5094   -2.3032 H   0  0  0  0  0  0  0  0  0  0  0  0
    3.6595    1.1046   -2.2289 H   0  0  0  0  0  0  0  0  0  0  0  0
    4.8816    0.9413   -0.0329 H   0  0  0  0  0  0  0  0  0  0  0  0
    3.5741    1.2300    2.1008 H   0  0  0  0  0  0  0  0  0  0  0  0
    1.1475    1.5922    2.0504 H   0  0  0  0  0  0  0  0  0  0  0  0
  1  8  1  0  0  0  0
  1  7  1  0  0  0  0
  3  6  1  0  0  0  0
  4  5  1  0  0  0  0
  4  2  1  0  0  0  0
  4 14  1  0  0  0  0
  5  1  1  0  0  0  0
  6 18  1  0  0  0  0
  6 19  1  0  0  0  0
  7 21  1  0  0  0  0
  7  6  1  0  0  0  0
  8 13  1  0  0  0  0
  9 10  1  0  0  0  0
  9  8  2  0  0  0  0
 10 11  2  0  0  0  0
 11 24  1  0  0  0  0
 11 12  1  0  0  0  0
 12 25  1  0  0  0  0
 13 12  2  0  0  0  0
 13 26  1  0  0  0  0
 15  4  1  0  0  0  0
 16  5  1  0  0  0  0
 17  5  1  0  0  0  0
 20  7  1  0  0  0  0
 22  9  1  0  0  0  0
 23 10  1  0  0  0  0
M  END
