1,2
q = -1.0, confidence = 0.054

 42 41  0  0  1  0  0  0  0  0999 V2000
   -1.1549   -1.4056   -0.3161 O   0  0  0  0  0  1  0  0  0  0  0  0
   -1.1871    1.2855   -0.5893 O   0  5  0  0  0  0  0  0  0  0  0  0
   -3.0158   -2.6960   -0.9300 C   0  0  0  0  0  0  0  0  0  0  0  0
   -2.3486   -1.3427   -0.7882 C   0  0  2  0  0  3  0  0  0  0  0  0
   -3.0266   -0.1554   -1.1738 C   0  0  0  0  0  0  0  0  0  0  0  0
   -2.3780    1.1009   -1.0359 C   0  0  0  0  0  0  0  0  0  0  0  0
   -3.0769    2.3820   -1.4443 C   0  0  0  0  0  0  0  0  0  0  0  0
   -4.4549   -0.2239   -1.6804 C   0  0  0  0  0  0  0  0  0  0  0  0
   -5.5254   -0.1257   -0.5784 C   0  0  0  0  0  0  0  0  0  0  0  0
   -6.9596   -0.1967   -1.1063 C   0  0  0  0  0  0  0  0  0  0  0  0
   -8.0275   -0.0990   -0.0140 C   0  0  0  0  0  0  0  0  0  0  0  0
   -9.4632   -0.1700   -0.5407 C   0  0  0  0  0  0  0  0  0  0  0  0
  -10.5297   -0.0722    0.5530 C   0  0  0  0  0  0  0  0  0  0  0  0
  -11.9646   -0.1421    0.0248 C   0  0  0  0  0  0  0  0  0  0  0  0
  -13.0313   -0.0389    1.1283 C   0  0  0  0  0  0  0  0  0  0  0  0
  -14.4362   -0.1520    0.6092 C   0  0  0  0  0  0  0  0  0  0  0  0
  -14.6794   -1.0964    0.0855 H   0  0  0  0  0  0  0  0  0  0  0  0
  -15.3866    0.7931    0.7118 C   0  0  0  0  0  0  0  0  0  0  0  0
  -15.1885    1.7519    1.2207 H   0  0  0  0  0  0  0  0  0  0  0  0
   -5.3610   -0.9360    0.1664 H   0  0  0  0  0  0  0  0  0  0  0  0
  -10.3711   -0.8860    1.2967 H   0  0  0  0  0  0  0  0  0  0  0  0
   -7.8675   -0.9122    0.7299 H   0  0  0  0  0  0  0  0  0  0  0  0
   -5.3827    0.8211   -0.0114 H   0  0  0  0  0  0  0  0  0  0  0  0
   -7.1182    0.6164   -1.8511 H   0  0  0  0  0  0  0  0  0  0  0  0
   -4.6346    0.5816   -2.4226 H   0  0  0  0  0  0  0  0  0  0  0  0
   -9.6231    0.6435   -1.2843 H   0  0  0  0  0  0  0  0  0  0  0  0
   -4.6134   -1.1656   -2.2463 H   0  0  0  0  0  0  0  0  0  0  0  0
  -12.1311    0.6702   -0.7168 H   0  0  0  0  0  0  0  0  0  0  0  0
   -7.0966   -1.1463   -1.6724 H   0  0  0  0  0  0  0  0  0  0  0  0
   -4.0605    2.4902   -0.9454 H   0  0  0  0  0  0  0  0  0  0  0  0
   -9.6013   -1.1198   -1.1057 H   0  0  0  0  0  0  0  0  0  0  0  0
  -12.8478   -0.8509    1.8698 H   0  0  0  0  0  0  0  0  0  0  0  0
   -7.8892    0.8506    0.5510 H   0  0  0  0  0  0  0  0  0  0  0  0
  -10.3912    0.8775    1.1181 H   0  0  0  0  0  0  0  0  0  0  0  0
   -3.9981   -2.7253   -0.4179 H   0  0  0  0  0  0  0  0  0  0  0  0
   -2.3537   -3.4671   -0.4976 H   0  0  0  0  0  0  0  0  0  0  0  0
   -2.4342    3.2396   -1.1774 H   0  0  0  0  0  0  0  0  0  0  0  0
  -16.3963    0.6459    0.2977 H   0  0  0  0  0  0  0  0  0  0  0  0
   -3.2612    2.3994   -2.5387 H   0  0  0  0  0  0  0  0  0  0  0  0
  -12.9097    0.9186    1.6801 H   0  0  0  0  0  0  0  0  0  0  0  0
   -3.1962   -2.9368   -1.9984 H   0  0  0  0  0  0  0  0  0  0  0  0
  -12.1058   -1.0934   -0.5363 H   0  0  0  0  0  0  0  0  0  0  0  0
  3  4  1  0  0  0  0
  3 36  1  0  0  0  0
  3 35  1  0  0  0  0
  4  1  1  6  0  0  0
  5  6  2  0  0  0  0
  5  4  1  0  0  0  0
  6  2  1  0  0  0  0
  7 37  1  0  0  0  0
  7  6  1  0  0  0  0
  7 30  1  0  0  0  0
  8  5  1  0  0  0  0
  8  9  1  0  0  0  0
  9 23  1  0  0  0  0
  9 20  1  0  0  0  0
 10  9  1  0  0  0  0
 10 11  1  0  0  0  0
 11 33  1  0  0  0  0
 11 22  1  0  0  0  0
 12 11  1  0  0  0  0
 12 13  1  0  0  0  0
 13 34  1  0  0  0  0
 13 21  1  0  0  0  0
 14 13  1  0  0  0  0
 14 15  1  0  0  0  0
 15 40  1  0  0  0  0
 15 32  1  0  0  0  0
 16 18  2  0  0  0  0
 16 15  1  0  0  0  0
 17 16  1  0  0  0  0
 18 19  1  0  0  0  0
 24 10  1  0  0  0  0
 25  8  1  0  0  0  0
 26 12  1  0  0  0  0
 27  8  1  0  0  0  0
 28 14  1  0  0  0  0
 29 10  1  0  0  0  0
 31 12  1  0  0  0  0
 38 18  1  0  0  0  0
 39  7  1  0  0  0  0
 41  3  1  0  0  0  0
 42 14  1  0  0  0  0
M  CHG  1   2  -1
M  END
