1,2
q = -1.0

 36 35  0  0  1  0  0  0  0  0999 V2000
   -1.1677   -1.3984   -0.3006 O   0  0  0  0  0  1  0  0  0  0  0  0
   -1.2135    1.2990   -0.4995 O   0  5  0  0  0  0  0  0  0  0  0  0
   -3.0543   -2.6750   -0.8624 C   0  0  0  0  0  0  0  0  0  0  0  0
   -2.3819   -1.3249   -0.7152 C   0  0  2  0  0  3  0  0  0  0  0  0
   -3.0774   -0.1287   -1.0370 C   0  0  0  0  0  0  0  0  0  0  0  0
   -2.4235    1.1245   -0.8958 C   0  0  0  0  0  0  0  0  0  0  0  0
   -3.1407    2.4149   -1.2377 C   0  0  0  0  0  0  0  0  0  0  0  0
   -4.5273   -0.1859   -1.4792 C   0  0  0  0  0  0  0  0  0  0  0  0
   -5.5461   -0.1200   -0.3269 C   0  0  0  0  0  0  0  0  0  0  0  0
   -7.0030   -0.1769   -0.7911 C   0  0  0  0  0  0  0  0  0  0  0  0
   -8.0197   -0.1128    0.3513 C   0  0  0  0  0  0  0  0  0  0  0  0
   -9.4768   -0.1667   -0.1143 C   0  0  0  0  0  0  0  0  0  0  0  0
  -10.4930   -0.0967    1.0383 C   0  0  0  0  0  0  0  0  0  0  0  0
  -11.9198   -0.1927    0.5787 C   0  0  0  0  0  0  0  0  0  0  0  0
  -12.1884   -1.1209    0.0386 H   0  0  0  0  0  0  0  0  0  0  0  0
  -12.8620    0.7503    0.7510 C   0  0  0  0  0  0  0  0  0  0  0  0
  -12.6391    1.6933    1.2788 H   0  0  0  0  0  0  0  0  0  0  0  0
   -7.1950    0.6580   -1.5030 H   0  0  0  0  0  0  0  0  0  0  0  0
   -7.8286   -0.9488    1.0619 H   0  0  0  0  0  0  0  0  0  0  0  0
   -9.6749    0.6677   -0.8228 H   0  0  0  0  0  0  0  0  0  0  0  0
   -5.3483   -0.9512    0.3860 H   0  0  0  0  0  0  0  0  0  0  0  0
   -4.7112   -1.1120   -2.0629 H   0  0  0  0  0  0  0  0  0  0  0  0
   -4.7415    0.6394   -2.1899 H   0  0  0  0  0  0  0  0  0  0  0  0
   -5.3773    0.8103    0.2597 H   0  0  0  0  0  0  0  0  0  0  0  0
   -4.1004    2.5088   -0.6916 H   0  0  0  0  0  0  0  0  0  0  0  0
   -2.3722   -3.4564   -0.4831 H   0  0  0  0  0  0  0  0  0  0  0  0
   -7.1658   -1.1093   -1.3783 H   0  0  0  0  0  0  0  0  0  0  0  0
   -9.6441   -1.1006   -0.6971 H   0  0  0  0  0  0  0  0  0  0  0  0
   -2.4866    3.2661   -0.9781 H   0  0  0  0  0  0  0  0  0  0  0  0
   -4.0112   -2.7201   -0.3053 H   0  0  0  0  0  0  0  0  0  0  0  0
  -10.2785   -0.9311    1.7458 H   0  0  0  0  0  0  0  0  0  0  0  0
   -3.3749    2.4608   -2.3217 H   0  0  0  0  0  0  0  0  0  0  0  0
   -7.8547    0.8190    0.9383 H   0  0  0  0  0  0  0  0  0  0  0  0
  -13.8894    0.6168    0.3778 H   0  0  0  0  0  0  0  0  0  0  0  0
  -10.3449    0.8433    1.6130 H   0  0  0  0  0  0  0  0  0  0  0  0
   -3.2850   -2.8868   -1.9272 H   0  0  0  0  0  0  0  0  0  0  0  0
  3  4  1  0  0  0  0
  3 26  1  0  0  0  0
  3 30  1  0  0  0  0
  4  1  1  6  0  0  0
  5  6  2  0  0  0  0
  5  4  1  0  0  0  0
  6  2  1  0  0  0  0
  7 29  1  0  0  0  0
  7  6  1  0  0  0  0
  7 25  1  0  0  0  0
  8  5  1  0  0  0  0
  8  9  1  0  0  0  0
  9 24  1  0  0  0  0
  9 21  1  0  0  0  0
 10  9  1  0  0  0  0
 10 11  1  0  0  0  0
 11 33  1  0  0  0  0
 11 19  1  0  0  0  0
 12 11  1  0  0  0  0
 12 13  1  0  0  0  0
 13 35  1  0  0  0  0
 13 31  1  0  0  0  0
 14 16  2  0  0  0  0
 14 13  1  0  0  0  0
 15 14  1  0  0  0  0
 16 17  1  0  0  0  0
 18 10  1  0  0  0  0
 20 12  1  0  0  0  0
 22  8  1  0  0  0  0
 23  8  1  0  0  0  0
 27 10  1  0  0  0  0
 28 12  1  0  0  0  0
 32  7  1  0  0  0  0
 34 16  1  0  0  0  0
 36  3  1  0  0  0  0
M  CHG  1   2  -1
M  END
