1,9
q = -1.0

 30 30  0  0  1  0  0  0  0  0999 V2000
   -1.2430   -1.3531   -0.1853 O   0  0  0  0  0  1  0  0  0  0  0  0
   -2.5081   -1.2291   -0.3717 C   0  0  2  0  0  3  0  0  0  0  0  0
   -3.2364   -2.5524   -0.4923 C   0  0  0  0  0  0  0  0  0  0  0  0
   -3.6581   -2.6789   -1.5111 H   0  0  0  0  0  0  0  0  0  0  0  0
   -4.0811   -2.6238    0.2217 H   0  0  0  0  0  0  0  0  0  0  0  0
   -2.5224   -3.3720   -0.2969 H   0  0  0  0  0  0  0  0  0  0  0  0
   -3.2127   -0.0001   -0.4815 C   0  0  0  0  0  0  0  0  0  0  0  0
   -2.5080    1.2289   -0.3726 C   0  0  0  0  0  0  0  0  0  0  0  0
   -1.2429    1.3530   -0.1863 O   0  5  0  0  0  0  0  0  0  0  0  0
   -3.2363    2.5522   -0.4940 C   0  0  0  0  0  0  0  0  0  0  0  0
   -3.6572    2.6784   -1.5132 H   0  0  0  0  0  0  0  0  0  0  0  0
   -4.0816    2.6238    0.2192 H   0  0  0  0  0  0  0  0  0  0  0  0
   -2.5224    3.3719   -0.2984 H   0  0  0  0  0  0  0  0  0  0  0  0
   -4.7170   -0.0001   -0.6616 C   0  0  0  0  0  0  0  0  0  0  0  0
   -5.5126    0.0003    0.6689 C   0  0  0  0  0  0  0  0  0  0  0  0
   -7.0061    0.0001    0.4504 C   0  0  0  0  0  0  0  0  0  0  0  0
   -7.7168    1.2101    0.3136 C   0  0  0  0  0  0  0  0  0  0  0  0
   -9.0947    1.2130    0.0500 C   0  0  0  0  0  0  0  0  0  0  0  0
   -9.7885   -0.0001   -0.0846 C   0  0  0  0  0  0  0  0  0  0  0  0
   -9.0940   -1.2131    0.0475 C   0  0  0  0  0  0  0  0  0  0  0  0
   -7.7161   -1.2100    0.3111 C   0  0  0  0  0  0  0  0  0  0  0  0
   -7.1770   -2.1656    0.4180 H   0  0  0  0  0  0  0  0  0  0  0  0
   -9.6306   -2.1693   -0.0516 H   0  0  0  0  0  0  0  0  0  0  0  0
  -10.8700   -0.0003   -0.2883 H   0  0  0  0  0  0  0  0  0  0  0  0
   -9.6319    2.1690   -0.0471 H   0  0  0  0  0  0  0  0  0  0  0  0
   -7.1783    2.1658    0.4224 H   0  0  0  0  0  0  0  0  0  0  0  0
   -5.2156   -0.8864    1.2673 H   0  0  0  0  0  0  0  0  0  0  0  0
   -5.2157    0.8875    1.2667 H   0  0  0  0  0  0  0  0  0  0  0  0
   -5.0382   -0.8780   -1.2579 H   0  0  0  0  0  0  0  0  0  0  0  0
   -5.0382    0.8773   -1.2585 H   0  0  0  0  0  0  0  0  0  0  0  0
  2  1  1  6  0  0  0
  3  2  1  0  0  0  0
  3  6  1  0  0  0  0
  3  5  1  0  0  0  0
  4  3  1  0  0  0  0
  7  8  2  0  0  0  0
  7  2  1  0  0  0  0
  8  9  1  0  0  0  0
 10  8  1  0  0  0  0
 10 13  1  0  0  0  0
 10 12  1  0  0  0  0
 11 10  1  0  0  0  0
 14  7  1  0  0  0  0
 14 15  1  0  0  0  0
 15 28  1  0  0  0  0
 15 27  1  0  0  0  0
 16 15  1  0  0  0  0
 17 26  1  0  0  0  0
 17 16  1  0  0  0  0
 18 17  2  0  0  0  0
 19 20  2  0  0  0  0
 19 18  1  0  0  0  0
 20 21  1  0  0  0  0
 21 22  1  0  0  0  0
 21 16  2  0  0  0  0
 23 20  1  0  0  0  0
 24 19  1  0  0  0  0
 25 18  1  0  0  0  0
 29 14  1  0  0  0  0
 30 14  1  0  0  0  0
M  CHG  1   9  -1
M  END
