1,2
q = -1.0

 21 22  0  0  1  0  0  0  0  0999 V2000
   -1.3377    1.8279   -0.0334 O   0  5  0  0  0  0  0  0  0  0  0  0
   -2.2813   -1.0744    0.0505 O   0  0  0  0  0  1  0  0  0  0  0  0
   -3.3503   -0.3956    0.0261 C   0  0  2  0  0  3  0  0  0  0  0  0
   -3.5806    1.0263   -0.0154 C   0  0  0  0  0  0  0  0  0  0  0  0
   -2.5823    2.0581   -0.0411 C   0  0  0  0  0  0  0  0  0  0  0  0
   -5.0424    1.2640   -0.0276 C   0  0  0  0  0  0  0  0  0  0  0  0
   -4.6850   -1.0776    0.0400 C   0  0  0  0  0  0  0  0  0  0  0  0
   -5.6611    2.3291   -0.0599 O   0  0  0  0  0  0  0  0  0  0  0  0
   -7.0428   -0.4470    0.0124 C   0  0  0  0  0  0  0  0  0  0  0  0
   -7.8157    0.3361   -0.0130 H   0  0  0  0  0  0  0  0  0  0  0  0
   -4.9970   -2.4382    0.0772 C   0  0  0  0  0  0  0  0  0  0  0  0
   -4.1971   -3.1933    0.1020 H   0  0  0  0  0  0  0  0  0  0  0  0
   -5.6933   -0.0980    0.0081 C   0  0  0  0  0  0  0  0  0  0  0  0
   -7.3689   -1.8188    0.0497 C   0  0  0  0  0  0  0  0  0  0  0  0
   -8.4249   -2.1302    0.0540 H   0  0  0  0  0  0  0  0  0  0  0  0
   -6.3597   -2.7998    0.0817 C   0  0  0  0  0  0  0  0  0  0  0  0
   -6.6415   -3.8637    0.1105 H   0  0  0  0  0  0  0  0  0  0  0  0
   -3.0226    3.5058   -0.0787 C   0  0  0  0  0  0  0  0  0  0  0  0
   -3.6718    3.6979   -0.9556 H   0  0  0  0  0  0  0  0  0  0  0  0
   -2.1273    4.1537   -0.1045 H   0  0  0  0  0  0  0  0  0  0  0  0
   -3.6557    3.7469    0.7981 H   0  0  0  0  0  0  0  0  0  0  0  0
  3  7  1  0  0  0  0
  3  2  1  1  0  0  0
  4  3  1  0  0  0  0
  5  1  1  0  0  0  0
  5  4  2  0  0  0  0
  6  4  1  0  0  0  0
  6 13  1  0  0  0  0
  7 11  1  0  0  0  0
  8  6  2  0  0  0  0
  9 14  2  0  0  0  0
 10  9  1  0  0  0  0
 11 16  2  0  0  0  0
 11 12  1  0  0  0  0
 13  9  1  0  0  0  0
 13  7  2  0  0  0  0
 14 15  1  0  0  0  0
 14 16  1  0  0  0  0
 16 17  1  0  0  0  0
 18  5  1  0  0  0  0
 18 21  1  0  0  0  0
 19 18  1  0  0  0  0
 20 18  1  0  0  0  0
M  CHG  1   1  -1
M  END
