1,2
q = -1.0

 48 52  0  0  1  0  0  0  0  0999 V2000
   -1.4057    0.3175   -0.4426 O   0  0  0  0  0  1  0  0  0  0  0  0
    1.1004   -0.8855   -0.0356 O   0  5  0  0  0  0  0  0  0  0  0  0
   -1.1893    2.6117   -0.0982 N   0  0  0  0  0  0  0  0  0  0  0  0
   -0.2335    3.5251    0.2750 N   0  0  0  0  0  0  0  0  0  0  0  0
   -2.5271    3.0437   -0.2749 C   0  0  0  0  0  0  0  0  0  0  0  0
   -2.9040    4.3037    0.2359 C   0  0  0  0  0  0  0  0  0  0  0  0
   -2.1440    4.9083    0.7465 H   0  0  0  0  0  0  0  0  0  0  0  0
   -4.2210    4.7513    0.0804 C   0  0  0  0  0  0  0  0  0  0  0  0
   -4.5054    5.7346    0.4856 H   0  0  0  0  0  0  0  0  0  0  0  0
   -5.1755    3.9586   -0.5783 C   0  0  0  0  0  0  0  0  0  0  0  0
   -6.2105    4.3138   -0.6933 H   0  0  0  0  0  0  0  0  0  0  0  0
   -4.7911    2.7113   -1.0934 C   0  0  0  0  0  0  0  0  0  0  0  0
   -5.5241    2.0831   -1.6231 H   0  0  0  0  0  0  0  0  0  0  0  0
   -3.4748    2.2496   -0.9537 C   0  0  0  0  0  0  0  0  0  0  0  0
   -3.1708    1.2797   -1.3612 H   0  0  0  0  0  0  0  0  0  0  0  0
   -0.6785    1.3294   -0.1443 C   0  0  2  0  0  3  0  0  0  0  0  0
    0.7331    1.4479    0.1397 C   0  0  0  0  0  0  0  0  0  0  0  0
    0.9085    2.8698    0.4137 C   0  0  0  0  0  0  0  0  0  0  0  0
    2.0556    3.6785    0.9434 C   0  0  0  0  0  0  0  0  0  0  0  0
    1.7338    4.7359    0.9787 H   0  0  0  0  0  0  0  0  0  0  0  0
    2.9751    3.6107    0.3324 H   0  0  0  0  0  0  0  0  0  0  0  0
    2.3195    3.3685    1.9757 H   0  0  0  0  0  0  0  0  0  0  0  0
    1.5778    0.2977    0.0130 C   0  0  0  0  0  0  0  0  0  0  0  0
    3.1058    0.3473   -0.1474 C   0  0  2  0  0  0  0  0  0  0  0  0
    3.6583   -1.0518   -0.5252 C   0  0  0  0  0  0  0  0  0  0  0  0
    3.1858   -1.3911   -1.4708 H   0  0  0  0  0  0  0  0  0  0  0  0
    3.3676   -1.7831    0.2547 H   0  0  0  0  0  0  0  0  0  0  0  0
    3.7670    0.7492    1.2015 C   0  0  0  0  0  0  0  0  0  0  0  0
    3.4804    0.0040    1.9734 H   0  0  0  0  0  0  0  0  0  0  0  0
    3.3883    1.7253    1.5490 H   0  0  0  0  0  0  0  0  0  0  0  0
    3.5201    1.3295   -1.2752 C   0  0  0  0  0  0  0  0  0  0  0  0
    3.1135    2.3405   -1.0899 H   0  0  0  0  0  0  0  0  0  0  0  0
    3.0704    0.9855   -2.2315 H   0  0  0  0  0  0  0  0  0  0  0  0
    5.1908   -1.0149   -0.6762 C   0  0  2  0  0  0  0  0  0  0  0  0
    5.5476   -2.0306   -0.9511 H   0  0  0  0  0  0  0  0  0  0  0  0
    5.2987    0.8055    1.0450 C   0  0  1  0  0  0  0  0  0  0  0  0
    5.7447    1.1230    2.0116 H   0  0  0  0  0  0  0  0  0  0  0  0
    5.0546    1.3832   -1.3992 C   0  0  2  0  0  0  0  0  0  0  0  0
    5.3266    2.1149   -2.1896 H   0  0  0  0  0  0  0  0  0  0  0  0
    5.8283   -0.5865    0.6585 C   0  0  0  0  0  0  0  0  0  0  0  0
    5.5820   -1.3217    1.4545 H   0  0  0  0  0  0  0  0  0  0  0  0
    6.9356   -0.5658    0.5662 H   0  0  0  0  0  0  0  0  0  0  0  0
    5.5841   -0.0121   -1.7763 C   0  0  0  0  0  0  0  0  0  0  0  0
    5.1599   -0.3284   -2.7536 H   0  0  0  0  0  0  0  0  0  0  0  0
    6.6888    0.0138   -1.8954 H   0  0  0  0  0  0  0  0  0  0  0  0
    5.6686    1.8214   -0.0544 C   0  0  0  0  0  0  0  0  0  0  0  0
    5.3052    2.8349    0.2219 H   0  0  0  0  0  0  0  0  0  0  0  0
    6.7734    1.8936   -0.1480 H   0  0  0  0  0  0  0  0  0  0  0  0
  2 23  1  0  0  0  0
  3  4  1  0  0  0  0
  4 18  2  0  0  0  0
  5  3  1  0  0  0  0
  5  6  1  0  0  0  0
  6  7  1  0  0  0  0
  8  6  2  0  0  0  0
  8  9  1  0  0  0  0
 10  8  1  0  0  0  0
 11 10  1  0  0  0  0
 12 14  1  0  0  0  0
 12 10  2  0  0  0  0
 13 12  1  0  0  0  0
 14  5  2  0  0  0  0
 15 14  1  0  0  0  0
 16  1  1  6  0  0  0
 16  3  1  0  0  0  0
 16 17  1  0  0  0  0
 17 18  1  0  0  0  0
 18 19  1  0  0  0  0
 19 20  1  0  0  0  0
 19 22  1  0  0  0  0
 21 19  1  0  0  0  0
 23 17  2  0  0  0  0
 24 23  1  1  0  0  0
 24 28  1  0  0  0  0
 25 24  1  0  0  0  0
 25 27  1  0  0  0  0
 26 25  1  0  0  0  0
 28 30  1  0  0  0  0
 28 29  1  0  0  0  0
 31 32  1  0  0  0  0
 31 24  1  0  0  0  0
 33 31  1  0  0  0  0
 34 35  1  6  0  0  0
 34 25  1  0  0  0  0
 34 40  1  0  0  0  0
 36 28  1  0  0  0  0
 36 37  1  1  0  0  0
 38 39  1  6  0  0  0
 38 31  1  0  0  0  0
 38 46  1  0  0  0  0
 40 36  1  0  0  0  0
 40 41  1  0  0  0  0
 42 40  1  0  0  0  0
 43 38  1  0  0  0  0
 43 34  1  0  0  0  0
 44 43  1  0  0  0  0
 45 43  1  0  0  0  0
 46 47  1  0  0  0  0
 46 36  1  0  0  0  0
 48 46  1  0  0  0  0
M  CHG  1   2  -1
M  END
