1,2
q = -1.0, confidence = 0.038

 40 42  0  0  1  0  0  0  0  0999 V2000
   -1.3460    0.0577    0.0615 O   0  5  0  0  0  0  0  0  0  0  0  0
    1.5620    0.1260   -0.1586 O   0  0  0  0  0  1  0  0  0  0  0  0
   -2.1075    2.2470   -0.2308 N   0  0  0  0  0  0  0  0  0  0  0  0
   -1.5985    3.5165   -0.4155 N   0  0  0  0  0  0  0  0  0  0  0  0
   -3.5033    2.0692   -0.0820 C   0  0  0  0  0  0  0  0  0  0  0  0
   -4.2886    3.1643    0.3329 C   0  0  0  0  0  0  0  0  0  0  0  0
   -3.7909    4.1250    0.5181 H   0  0  0  0  0  0  0  0  0  0  0  0
   -5.6721    3.0091    0.4833 C   0  0  0  0  0  0  0  0  0  0  0  0
   -6.2782    3.8689    0.8077 H   0  0  0  0  0  0  0  0  0  0  0  0
   -6.2856    1.7718    0.2269 C   0  0  0  0  0  0  0  0  0  0  0  0
   -7.3726    1.6543    0.3503 H   0  0  0  0  0  0  0  0  0  0  0  0
   -5.4991    0.6902   -0.1997 C   0  0  0  0  0  0  0  0  0  0  0  0
   -5.9697   -0.2796   -0.4235 H   0  0  0  0  0  0  0  0  0  0  0  0
   -4.1135    0.8281   -0.3626 C   0  0  0  0  0  0  0  0  0  0  0  0
   -3.5010   -0.0083   -0.7192 H   0  0  0  0  0  0  0  0  0  0  0  0
   -1.1097    1.2901   -0.1783 C   0  0  0  0  0  0  0  0  0  0  0  0
    0.1255    2.0086   -0.3636 C   0  0  0  0  0  0  0  0  0  0  0  0
   -0.2847    3.3957   -0.4998 C   0  0  0  0  0  0  0  0  0  0  0  0
    0.5247    4.6328   -0.7381 C   0  0  0  0  0  0  0  0  0  0  0  0
   -0.1640    5.4964   -0.7941 H   0  0  0  0  0  0  0  0  0  0  0  0
    1.0911    4.5776   -1.6908 H   0  0  0  0  0  0  0  0  0  0  0  0
    1.2566    4.8204    0.0742 H   0  0  0  0  0  0  0  0  0  0  0  0
    1.3990    1.3851   -0.2965 C   0  0  1  0  0  3  0  0  0  0  0  0
    2.6820    2.2008   -0.3026 C   0  0  0  0  0  0  0  0  0  0  0  0
    2.4904    3.1337   -0.8689 H   0  0  0  0  0  0  0  0  0  0  0  0
    3.8491    1.4636   -0.9816 C   0  0  0  0  0  0  0  0  0  0  0  0
    3.5683    1.1989   -2.0217 H   0  0  0  0  0  0  0  0  0  0  0  0
    4.0167    0.5011   -0.4541 H   0  0  0  0  0  0  0  0  0  0  0  0
    5.1293    2.3062   -0.9517 C   0  0  0  0  0  0  0  0  0  0  0  0
    5.9627    1.7489   -1.4282 H   0  0  0  0  0  0  0  0  0  0  0  0
    4.9815    3.2250   -1.5635 H   0  0  0  0  0  0  0  0  0  0  0  0
    5.5049    2.7105    0.4800 C   0  0  0  0  0  0  0  0  0  0  0  0
    6.4152    3.3459    0.4804 H   0  0  0  0  0  0  0  0  0  0  0  0
    5.7614    1.7953    1.0603 H   0  0  0  0  0  0  0  0  0  0  0  0
    4.3467    3.4357    1.1767 C   0  0  0  0  0  0  0  0  0  0  0  0
    4.6129    3.6811    2.2264 H   0  0  0  0  0  0  0  0  0  0  0  0
    4.1631    4.4083    0.6664 H   0  0  0  0  0  0  0  0  0  0  0  0
    3.0585    2.6050    1.1434 C   0  0  0  0  0  0  0  0  0  0  0  0
    2.2189    3.1582    1.6140 H   0  0  0  0  0  0  0  0  0  0  0  0
    3.1953    1.6748    1.7395 H   0  0  0  0  0  0  0  0  0  0  0  0
  3 16  1  0  0  0  0
  3  5  1  0  0  0  0
  4  3  1  0  0  0  0
  5  6  1  0  0  0  0
  6  8  2  0  0  0  0
  6  7  1  0  0  0  0
  8  9  1  0  0  0  0
 10 11  1  0  0  0  0
 10  8  1  0  0  0  0
 12 10  2  0  0  0  0
 13 12  1  0  0  0  0
 14 12  1  0  0  0  0
 14  5  2  0  0  0  0
 15 14  1  0  0  0  0
 16  1  1  0  0  0  0
 17 23  1  0  0  0  0
 17 16  2  0  0  0  0
 18  4  2  0  0  0  0
 18 17  1  0  0  0  0
 19 18  1  0  0  0  0
 19 22  1  0  0  0  0
 20 19  1  0  0  0  0
 21 19  1  0  0  0  0
 23  2  1  1  0  0  0
 24 23  1  0  0  0  0
 24 38  1  0  0  0  0
 25 24  1  0  0  0  0
 26 29  1  0  0  0  0
 26 28  1  0  0  0  0
 26 24  1  0  0  0  0
 27 26  1  0  0  0  0
 29 32  1  0  0  0  0
 30 29  1  0  0  0  0
 31 29  1  0  0  0  0
 32 33  1  0  0  0  0
 32 34  1  0  0  0  0
 32 35  1  0  0  0  0
 35 36  1  0  0  0  0
 37 35  1  0  0  0  0
 38 35  1  0  0  0  0
 38 39  1  0  0  0  0
 38 40  1  0  0  0  0
M  CHG  1   1  -1
M  END
