1,2
q = -1.0

 32 33  0  0  1  0  0  0  0  0999 V2000
   -0.0047    2.0138   -0.0417 O   0  0  0  0  0  1  0  0  0  0  0  0
    0.8783   -0.4097   -0.7367 O   0  5  0  0  0  0  0  0  0  0  0  0
    2.1648    1.5550   -0.7311 N   0  0  0  0  0  0  0  0  0  0  0  0
    3.1984   -0.5253   -0.5494 N   0  0  0  0  0  0  0  0  0  0  0  0
    1.1397    2.3934   -0.4087 C   0  0  2  0  0  3  0  0  0  0  0  0
    1.3931    3.8902   -0.4254 C   0  0  0  0  0  0  0  0  0  0  0  0
    2.2940    4.3726    0.7319 C   0  0  0  0  0  0  0  0  0  0  0  0
    3.7918    4.1717    0.4854 C   0  0  0  0  0  0  0  0  0  0  0  0
    4.2070    2.7289    0.1819 C   0  0  0  0  0  0  0  0  0  0  0  0
    3.5057    2.0999   -1.0269 C   0  0  0  0  0  0  0  0  0  0  0  0
    2.0585    0.0859   -0.6729 C   0  0  0  0  0  0  0  0  0  0  0  0
    3.2546   -1.9196   -0.4786 C   0  0  0  0  0  0  0  0  0  0  0  0
    2.5188   -2.7870   -1.3254 C   0  0  0  0  0  0  0  0  0  0  0  0
    2.6401   -4.1768   -1.1980 C   0  0  0  0  0  0  0  0  0  0  0  0
    3.4818   -4.7390   -0.2233 C   0  0  0  0  0  0  0  0  0  0  0  0
    4.2226   -3.8887    0.6143 C   0  0  0  0  0  0  0  0  0  0  0  0
    4.1210   -2.4978    0.4814 C   0  0  0  0  0  0  0  0  0  0  0  0
    1.8252    4.2051   -1.3991 H   0  0  0  0  0  0  0  0  0  0  0  0
    0.3908    4.3489   -0.3422 H   0  0  0  0  0  0  0  0  0  0  0  0
    1.9800    3.8594    1.6672 H   0  0  0  0  0  0  0  0  0  0  0  0
    2.0954    5.4518    0.8962 H   0  0  0  0  0  0  0  0  0  0  0  0
    4.3617    4.5477    1.3610 H   0  0  0  0  0  0  0  0  0  0  0  0
    4.0948    4.8137   -0.3728 H   0  0  0  0  0  0  0  0  0  0  0  0
    5.3002    2.7037   -0.0096 H   0  0  0  0  0  0  0  0  0  0  0  0
    4.0361    2.0656    1.0566 H   0  0  0  0  0  0  0  0  0  0  0  0
    3.4245    2.8220   -1.8667 H   0  0  0  0  0  0  0  0  0  0  0  0
    4.0853    1.2262   -1.3697 H   0  0  0  0  0  0  0  0  0  0  0  0
    1.8496   -2.3571   -2.0820 H   0  0  0  0  0  0  0  0  0  0  0  0
    2.0621   -4.8322   -1.8687 H   0  0  0  0  0  0  0  0  0  0  0  0
    3.5652   -5.8316   -0.1224 H   0  0  0  0  0  0  0  0  0  0  0  0
    4.8931   -4.3139    1.3773 H   0  0  0  0  0  0  0  0  0  0  0  0
    4.7044   -1.8214    1.1238 H   0  0  0  0  0  0  0  0  0  0  0  0
  2 11  1  0  0  0  0
  3 11  1  0  0  0  0
  3  5  1  0  0  0  0
  4 12  1  0  0  0  0
  5  1  1  1  0  0  0
  6  5  1  0  0  0  0
  6 19  1  0  0  0  0
  6  7  1  0  0  0  0
  7 21  1  0  0  0  0
  7 20  1  0  0  0  0
  8  7  1  0  0  0  0
  8 22  1  0  0  0  0
  9  8  1  0  0  0  0
  9 25  1  0  0  0  0
 10  3  1  0  0  0  0
 10  9  1  0  0  0  0
 11  4  2  0  0  0  0
 12 17  1  0  0  0  0
 13 14  1  0  0  0  0
 13 12  2  0  0  0  0
 14 15  2  0  0  0  0
 15 30  1  0  0  0  0
 15 16  1  0  0  0  0
 16 31  1  0  0  0  0
 17 16  2  0  0  0  0
 17 32  1  0  0  0  0
 18  6  1  0  0  0  0
 23  8  1  0  0  0  0
 24  9  1  0  0  0  0
 26 10  1  0  0  0  0
 27 10  1  0  0  0  0
 28 13  1  0  0  0  0
 29 14  1  0  0  0  0
M  CHG  1   2  -1
M  END
