1,2
q = -1.0

 22 21  0  0  0  0  0  0  0  0999 V2000
    0.9073   -1.4795   -1.8565 O   0  5  0  0  0  0  0  0  0  0  0  0
    1.8480   -2.2273    0.0156 O   0  5  0  0  0  0  0  0  0  0  0  0
    1.8250   -2.1338   -1.2541 C   0  0  0  0  0  3  0  0  0  0  0  0
    2.9273   -2.7732   -2.0844 C   0  0  0  0  0  0  0  0  0  0  0  0
    2.4621   -3.5482   -2.7289 H   0  0  0  0  0  0  0  0  0  0  0  0
    3.6284   -3.2896   -1.4011 H   0  0  0  0  0  0  0  0  0  0  0  0
    3.6473   -1.7463   -2.9742 C   0  0  0  0  0  0  0  0  0  0  0  0
    2.9350   -1.3901   -3.7465 H   0  0  0  0  0  0  0  0  0  0  0  0
    4.4768   -2.2569   -3.5106 H   0  0  0  0  0  0  0  0  0  0  0  0
    4.1934   -0.5283   -2.2152 C   0  0  0  0  0  0  0  0  0  0  0  0
    3.3368    0.0876   -1.8603 H   0  0  0  0  0  0  0  0  0  0  0  0
    4.7597    0.1161   -2.9230 H   0  0  0  0  0  0  0  0  0  0  0  0
    5.0798   -0.8774   -1.0158 C   0  0  0  0  0  0  0  0  0  0  0  0
    5.8821   -1.5839   -1.3221 H   0  0  0  0  0  0  0  0  0  0  0  0
    4.4719   -1.4014   -0.2493 H   0  0  0  0  0  0  0  0  0  0  0  0
    5.7278    0.3678   -0.3806 C   0  0  0  0  0  0  0  0  0  0  0  0
    6.4514    0.8308   -1.0792 H   0  0  0  0  0  0  0  0  0  0  0  0
    4.9376    1.1125   -0.1502 H   0  0  0  0  0  0  0  0  0  0  0  0
    6.4728    0.0248    0.8874 C   0  0  0  0  0  0  0  0  0  0  0  0
    5.6174   -0.1431    1.9447 O   0  0  0  0  0  0  0  0  0  0  0  0
    7.6713   -0.1339    1.0015 O   0  0  0  0  0  0  0  0  0  0  0  0
    6.1841   -0.4315    2.6936 H   0  0  0  0  0  0  0  0  0  0  0  0
  1  3  1  0  0  0  0
  3  2  1  0  0  0  0
  4  6  1  0  0  0  0
  4  3  1  0  0  0  0
  5  4  1  0  0  0  0
  7 10  1  0  0  0  0
  7  4  1  0  0  0  0
  8  7  1  0  0  0  0
  9  7  1  0  0  0  0
 10 11  1  0  0  0  0
 10 13  1  0  0  0  0
 12 10  1  0  0  0  0
 13 16  1  0  0  0  0
 13 15  1  0  0  0  0
 14 13  1  0  0  0  0
 16 18  1  0  0  0  0
 16 19  1  0  0  0  0
 17 16  1  0  0  0  0
 19 21  2  0  0  0  0
 19 20  1  0  0  0  0
 20 22  1  0  0  0  0
M  CHG  2   1  -1   2  -1
M  END
