3,4
q = -1.0, confidence = 0.004

 14 14  0  0  0  0  0  0  0  0999 V2000
   -7.1869    2.4710    0.9878 F   0  0  0  0  0  0  0  0  0  0  0  0
   -7.2872   -2.2435    0.7401 F   0  0  0  0  0  0  0  0  0  0  0  0
   -2.3810   -1.0932    0.5164 O   0  5  0  0  0  0  0  0  0  0  0  0
   -2.3357    1.1441    0.6085 O   0  5  0  0  0  0  0  0  0  0  0  0
   -2.9636    0.0327    0.6037 C   0  0  0  0  0  3  0  0  0  0  0  0
   -4.4679    0.0636    0.6983 C   0  0  0  0  0  0  0  0  0  0  0  0
   -5.1359    1.2978    0.8035 C   0  0  0  0  0  0  0  0  0  0  0  0
   -4.5593    2.2319    0.8184 H   0  0  0  0  0  0  0  0  0  0  0  0
   -6.5308    1.2988    0.8864 C   0  0  0  0  0  0  0  0  0  0  0  0
   -7.2797    0.1145    0.8672 C   0  0  0  0  0  0  0  0  0  0  0  0
   -8.3756    0.1344    0.9330 H   0  0  0  0  0  0  0  0  0  0  0  0
   -6.5818   -1.0960    0.7608 C   0  0  0  0  0  0  0  0  0  0  0  0
   -5.1880   -1.1453    0.6761 C   0  0  0  0  0  0  0  0  0  0  0  0
   -4.6502   -2.0989    0.5936 H   0  0  0  0  0  0  0  0  0  0  0  0
  2 12  1  0  0  0  0
  3  5  1  0  0  0  0
  5  4  1  0  0  0  0
  5  6  1  0  0  0  0
  6  7  1  0  0  0  0
  7  8  1  0  0  0  0
  7  9  2  0  0  0  0
  9  1  1  0  0  0  0
 10  9  1  0  0  0  0
 10 11  1  0  0  0  0
 12 10  2  0  0  0  0
 13  6  2  0  0  0  0
 13 12  1  0  0  0  0
 14 13  1  0  0  0  0
M  CHG  2   3  -1   4  -1
M  END
