1,2
q = -1.0, confidence = 0.024

 25 26  0  0  0  0  0  0  0  0999 V2000
    1.8098    0.4886    1.0197 O   0  5  0  0  0  0  0  0  0  0  0  0
    1.5215   -0.2767   -1.0512 O   0  5  0  0  0  0  0  0  0  0  0  0
   11.4296   -4.1661    0.1626 O   0  0  0  0  0  0  0  0  0  0  0  0
   12.0345   -3.6100    0.6878 H   0  0  0  0  0  0  0  0  0  0  0  0
    3.6105   -0.7470    0.0322 C   0  0  0  0  0  0  0  0  0  0  0  0
    4.0983   -1.4778   -1.0687 C   0  0  0  0  0  0  0  0  0  0  0  0
    3.4444   -1.5951   -1.9452 H   0  0  0  0  0  0  0  0  0  0  0  0
    5.3827   -2.0288   -1.0408 C   0  0  0  0  0  0  0  0  0  0  0  0
    5.7582   -2.5723   -1.9210 H   0  0  0  0  0  0  0  0  0  0  0  0
    6.2221   -1.8717    0.0886 C   0  0  0  0  0  0  0  0  0  0  0  0
    5.7176   -1.1388    1.1901 C   0  0  0  0  0  0  0  0  0  0  0  0
    6.3355   -1.0303    2.0944 H   0  0  0  0  0  0  0  0  0  0  0  0
    4.4343   -0.5852    1.1633 C   0  0  0  0  0  0  0  0  0  0  0  0
    4.0341   -0.0261    2.0216 H   0  0  0  0  0  0  0  0  0  0  0  0
    7.5836   -2.4570    0.1171 C   0  0  0  0  0  0  0  0  0  0  0  0
    7.8775   -3.6729   -0.5459 C   0  0  0  0  0  0  0  0  0  0  0  0
    7.0721   -4.2088   -1.0700 H   0  0  0  0  0  0  0  0  0  0  0  0
    9.1570   -4.2329   -0.5240 C   0  0  0  0  0  0  0  0  0  0  0  0
    9.3722   -5.1847   -1.0308 H   0  0  0  0  0  0  0  0  0  0  0  0
   10.1987   -3.5846    0.1694 C   0  0  0  0  0  0  0  0  0  0  0  0
    9.9289   -2.3727    0.8356 C   0  0  0  0  0  0  0  0  0  0  0  0
   10.7394   -1.8508    1.3715 H   0  0  0  0  0  0  0  0  0  0  0  0
    8.6416   -1.8241    0.8076 C   0  0  0  0  0  0  0  0  0  0  0  0
    8.4608   -0.8639    1.3134 H   0  0  0  0  0  0  0  0  0  0  0  0
    2.2378   -0.1517   -0.0010 C   0  0  0  0  0  3  0  0  0  0  0  0
  2 25  1  0  0  0  0
  3 20  1  0  0  0  0
  3  4  1  0  0  0  0
  5 13  1  0  0  0  0
  6  8  1  0  0  0  0
  6  5  2  0  0  0  0
  7  6  1  0  0  0  0
  8 10  2  0  0  0  0
  9  8  1  0  0  0  0
 10 15  1  0  0  0  0
 10 11  1  0  0  0  0
 11 12  1  0  0  0  0
 13 11  2  0  0  0  0
 13 14  1  0  0  0  0
 15 23  1  0  0  0  0
 16 18  1  0  0  0  0
 16 15  2  0  0  0  0
 17 16  1  0  0  0  0
 18 20  2  0  0  0  0
 19 18  1  0  0  0  0
 20 21  1  0  0  0  0
 21 22  1  0  0  0  0
 23 21  2  0  0  0  0
 23 24  1  0  0  0  0
 25  5  1  0  0  0  0
 25  1  1  0  0  0  0
M  CHG  2   1  -1   2  -1
M  END
