2,5
q = -2.0, confidence = 0.808

 19 20  0  0  1  0  0  0  0  0999 V2000
   -3.3503   -0.7070    1.1428 O   0  0  0  0  0  0  0  0  0  0  0  0
   -0.1421   -1.5840   -0.4311 O   0  0  0  0  0  1  0  0  0  0  0  0
   -3.2338   -0.2147   -1.7115 O   0  0  0  0  0  0  0  0  0  0  0  0
   -3.3873    0.5072   -2.3481 H   0  0  0  0  0  0  0  0  0  0  0  0
   -0.1557    1.4930   -0.6838 O   0  0  0  0  0  1  0  0  0  0  0  0
   -1.2928    0.1390    1.5573 O   0  0  0  0  0  0  0  0  0  0  0  0
   -1.9608   -1.0115    1.0642 C   0  0  2  0  0  0  0  0  0  0  0  0
   -1.7214   -1.8688    1.7288 H   0  0  0  0  0  0  0  0  0  0  0  0
   -1.5018   -1.3051   -0.3919 C   0  0  1  0  0  0  0  0  0  0  0  0
   -2.0723   -2.1911   -0.7634 H   0  0  0  0  0  0  0  0  0  0  0  0
   -1.8664   -0.1214   -1.3219 C   0  0  2  0  0  0  0  0  0  0  0  0
   -1.1887   -0.2014   -2.2064 H   0  0  0  0  0  0  0  0  0  0  0  0
   -1.5107    1.2176   -0.6087 C   0  0  1  0  0  0  0  0  0  0  0  0
   -2.0708    2.0328   -1.1423 H   0  0  0  0  0  0  0  0  0  0  0  0
   -1.9995    1.1826    0.8646 C   0  0  1  0  0  0  0  0  0  0  0  0
   -1.7591    2.1437    1.3609 H   0  0  0  0  0  0  0  0  0  0  0  0
   -3.4583    0.7172    1.0570 C   0  0  0  0  0  0  0  0  0  0  0  0
   -3.8872    1.1163    2.0042 H   0  0  0  0  0  0  0  0  0  0  0  0
   -4.1121    0.9957    0.2061 H   0  0  0  0  0  0  0  0  0  0  0  0
  2  9  1  0  0  0  0
  3 11  1  0  0  0  0
  4  3  1  0  0  0  0
  5 13  1  0  0  0  0
  7  1  1  0  0  0  0
  7  6  1  0  0  0  0
  7  8  1  1  0  0  0
  9 10  1  6  0  0  0
  9  7  1  0  0  0  0
 11 12  1  6  0  0  0
 11 13  1  0  0  0  0
 11  9  1  0  0  0  0
 13 14  1  6  0  0  0
 13 15  1  0  0  0  0
 15 17  1  0  0  0  0
 15 16  1  1  0  0  0
 15  6  1  0  0  0  0
 17  1  1  0  0  0  0
 17 18  1  0  0  0  0
 19 17  1  0  0  0  0
M  END
