2,3
q = -1.0, confidence = 0.008

 16 16  0  0  1  0  0  0  0  0999 V2000
   -1.8958    3.0060    0.1831 N   0  0  0  0  0  0  0  0  0  0  0  0
   -0.2021    1.5389    0.1895 O   0  0  0  0  0  1  0  0  0  0  0  0
   -0.7066   -1.0035   -0.5006 O   0  5  0  0  0  0  0  0  0  0  0  0
   -2.9369   -1.7191   -0.4827 C   0  0  0  0  0  0  0  0  0  0  0  0
   -4.2933   -1.4756   -0.2730 C   0  0  0  0  0  0  0  0  0  0  0  0
   -4.7348   -0.1931    0.1080 C   0  0  0  0  0  0  0  0  0  0  0  0
   -3.8050    0.8381    0.2536 C   0  0  0  0  0  0  0  0  0  0  0  0
   -2.4242    0.6293    0.0314 C   0  0  0  0  0  0  0  0  0  0  0  0
   -1.9824   -0.6852   -0.3183 C   0  0  0  0  0  0  0  0  0  0  0  0
   -1.4424    1.7326    0.1380 C   0  0  1  0  0  3  0  0  0  0  0  0
   -2.8672    3.2462    0.0008 H   0  0  0  0  0  0  0  0  0  0  0  0
   -1.1992    3.7505    0.2351 H   0  0  0  0  0  0  0  0  0  0  0  0
   -2.5617   -2.7127   -0.7648 H   0  0  0  0  0  0  0  0  0  0  0  0
   -5.0182   -2.2945   -0.3943 H   0  0  0  0  0  0  0  0  0  0  0  0
   -5.8010   -0.0040    0.2978 H   0  0  0  0  0  0  0  0  0  0  0  0
   -4.1625    1.8258    0.5826 H   0  0  0  0  0  0  0  0  0  0  0  0
  1 12  1  0  0  0  0
  3  9  1  0  0  0  0
  4  9  2  0  0  0  0
  4  5  1  0  0  0  0
  5  6  2  0  0  0  0
  6  7  1  0  0  0  0
  6 15  1  0  0  0  0
  7 16  1  0  0  0  0
  8 10  1  0  0  0  0
  8  7  2  0  0  0  0
  9  8  1  0  0  0  0
 10  1  1  0  0  0  0
 10  2  1  1  0  0  0
 11  1  1  0  0  0  0
 13  4  1  0  0  0  0
 14  5  1  0  0  0  0
M  CHG  1   3  -1
M  END
