9,14
q = -1.0

 14 13  0  0  1  0  0  0  0  0999 V2000
    2.5351    1.3494   -1.5476 C   0  0  0  0  0  0  0  0  0  0  0  0
    3.2374    0.0571   -1.0801 C   0  0  0  0  0  0  0  0  0  0  0  0
    3.1820   -0.6962   -1.8993 H   0  0  0  0  0  0  0  0  0  0  0  0
    4.3018    0.2641   -0.8408 H   0  0  0  0  0  0  0  0  0  0  0  0
    2.8798   -1.7555    0.4438 C   0  0  0  0  0  0  0  0  0  0  0  0
    3.9200   -1.8447    0.8330 H   0  0  0  0  0  0  0  0  0  0  0  0
    2.7543   -2.4592   -0.4159 H   0  0  0  0  0  0  0  0  0  0  0  0
    1.8894   -2.1767    1.5012 C   0  0  2  0  0  3  0  0  0  0  0  0
    1.2564    1.3678   -1.2792 O   0  5  0  0  0  0  0  0  0  0  0  0
    3.1790    2.2206   -2.1183 O   0  0  0  0  0  0  0  0  0  0  0  0
    2.5474   -0.4394    0.0772 O   0  0  0  0  0  0  0  0  0  0  0  0
    2.2611   -3.2633    2.1767 O   0  0  0  0  0  0  0  0  0  0  0  0
    1.5223   -3.4913    2.7842 H   0  0  0  0  0  0  0  0  0  0  0  0
    0.8286   -1.5903    1.7075 O   0  0  0  0  0  1  0  0  0  0  0  0
  1  9  1  0  0  0  0
  1  2  1  0  0  0  0
  2  4  1  0  0  0  0
  2 11  1  0  0  0  0
  3  2  1  0  0  0  0
  5  6  1  0  0  0  0
  5  8  1  0  0  0  0
  7  5  1  0  0  0  0
  8 14  1  6  0  0  0
  8 12  1  0  0  0  0
 10  1  2  0  0  0  0
 11  5  1  0  0  0  0
 12 13  1  0  0  0  0
M  CHG  1   9  -1
M  END
