2,5
q = -1.0

 20 21  0  0  1  0  0  0  0  0999 V2000
   -0.2070   -1.0980   -1.2566 N   0  0  0  0  0  0  0  0  0  0  0  0
   -1.2070   -0.3607   -1.6507 O   0  0  0  0  0  1  0  0  0  0  0  0
   -0.3774   -2.2701   -0.5824 C   0  0  0  0  0  0  0  0  0  0  0  0
   -1.7533   -2.8799   -0.2359 C   0  0  0  0  0  0  0  0  0  0  0  0
   -2.7355   -2.0727   -0.0331 O   0  5  0  0  0  0  0  0  0  0  0  0
   -1.7646   -4.1052   -0.1187 O   0  0  0  0  0  0  0  0  0  0  0  0
    0.7563   -3.0085   -0.1716 C   0  0  0  0  0  0  0  0  0  0  0  0
    0.5468   -3.9609    0.3327 H   0  0  0  0  0  0  0  0  0  0  0  0
    2.0398   -2.5512   -0.3919 C   0  0  0  0  0  0  0  0  0  0  0  0
    3.3988   -3.4491    0.2120 Cl  0  0  0  0  0  0  0  0  0  0  0  0
    2.2476   -1.3268   -1.1018 C   0  0  0  0  0  0  0  0  0  0  0  0
    3.5239   -0.7695   -1.3853 C   0  0  0  0  0  0  0  0  0  0  0  0
    4.4130   -1.3144   -1.0398 H   0  0  0  0  0  0  0  0  0  0  0  0
    3.6376    0.4314   -2.0723 C   0  0  0  0  0  0  0  0  0  0  0  0
    4.6321    0.8551   -2.2742 H   0  0  0  0  0  0  0  0  0  0  0  0
    2.4781    1.1172   -2.5100 C   0  0  0  0  0  0  0  0  0  0  0  0
    2.5760    2.0727   -3.0454 H   0  0  0  0  0  0  0  0  0  0  0  0
    1.2139    0.6010   -2.2533 C   0  0  0  0  0  0  0  0  0  0  0  0
    0.2932    1.1081   -2.5650 H   0  0  0  0  0  0  0  0  0  0  0  0
    1.0881   -0.6143   -1.5428 C   0  0  2  0  0  3  0  0  0  0  0  0
  1  3  1  0  0  0  0
  2  1  1  0  0  0  0
  3  4  1  0  0  0  0
  3  7  2  0  0  0  0
  4  6  2  0  0  0  0
  4  5  1  0  0  0  0
  7  8  1  0  0  0  0
  9  7  1  0  0  0  0
  9 10  1  0  0  0  0
 11  9  2  0  0  0  0
 12 11  1  0  0  0  0
 12 13  1  0  0  0  0
 14 12  2  0  0  0  0
 15 14  1  0  0  0  0
 16 18  2  0  0  0  0
 16 14  1  0  0  0  0
 17 16  1  0  0  0  0
 19 18  1  0  0  0  0
 20 18  1  1  0  0  0
 20  1  1  0  0  0  0
 20 11  1  0  0  0  0
M  CHG  1   5  -1
M  END
