2,3
q = -1.0

 44 47  0  0  1  0  0  0  0  0999 V2000
    5.4798    0.0089    0.1189 N   0  0  0  0  0  0  0  0  0  0  0  0
   -1.1501    1.4500    0.9733 O   0  0  0  0  0  1  0  0  0  0  0  0
   -1.2709   -1.4019    0.3320 O   0  5  0  0  0  0  0  0  0  0  0  0
    0.0526    1.1414    1.2854 C   0  0  1  0  0  3  0  0  0  0  0  0
    0.6301   -0.1615    1.1950 C   0  0  0  0  0  0  0  0  0  0  0  0
   -0.0468   -1.3228    0.7309 C   0  0  0  0  0  0  0  0  0  0  0  0
    0.9043    2.2916    1.7810 C   0  0  0  0  0  0  0  0  0  0  0  0
    1.7259    2.5040    1.0664 H   0  0  0  0  0  0  0  0  0  0  0  0
    1.3874    2.0512    2.7483 H   0  0  0  0  0  0  0  0  0  0  0  0
    0.2760    3.1939    1.8873 H   0  0  0  0  0  0  0  0  0  0  0  0
    0.6958   -2.6395    0.6697 C   0  0  0  0  0  0  0  0  0  0  0  0
    1.0593   -2.9362    1.6737 H   0  0  0  0  0  0  0  0  0  0  0  0
    1.5938   -2.5576    0.0253 H   0  0  0  0  0  0  0  0  0  0  0  0
    0.0240   -3.4213    0.2731 H   0  0  0  0  0  0  0  0  0  0  0  0
    2.0640   -0.3164    1.6108 C   0  0  0  0  0  0  0  0  0  0  0  0
    3.1023   -0.0994    0.6846 C   0  0  0  0  0  0  0  0  0  0  0  0
    2.8571    0.1683   -0.3539 H   0  0  0  0  0  0  0  0  0  0  0  0
    4.4518   -0.2328    1.0647 C   0  0  0  0  0  0  0  0  0  0  0  0
    4.7739   -0.6042    2.3850 C   0  0  0  0  0  0  0  0  0  0  0  0
    5.8290   -0.6882    2.6819 H   0  0  0  0  0  0  0  0  0  0  0  0
    3.7452   -0.8423    3.3065 C   0  0  0  0  0  0  0  0  0  0  0  0
    3.9968   -1.1314    4.3382 H   0  0  0  0  0  0  0  0  0  0  0  0
    2.4022   -0.6939    2.9283 C   0  0  0  0  0  0  0  0  0  0  0  0
    1.5962   -0.8698    3.6573 H   0  0  0  0  0  0  0  0  0  0  0  0
    5.6146    1.1656   -0.6605 C   0  0  0  0  0  0  0  0  0  0  0  0
    4.8379    2.3366   -0.6659 C   0  0  0  0  0  0  0  0  0  0  0  0
    3.9689    2.4472   -0.0025 H   0  0  0  0  0  0  0  0  0  0  0  0
    5.2151    3.3654   -1.5399 C   0  0  0  0  0  0  0  0  0  0  0  0
    4.6210    4.2915   -1.5639 H   0  0  0  0  0  0  0  0  0  0  0  0
    6.3403    3.2391   -2.3853 C   0  0  0  0  0  0  0  0  0  0  0  0
    6.6061    4.0653   -3.0612 H   0  0  0  0  0  0  0  0  0  0  0  0
    7.1219    2.0773   -2.3641 C   0  0  0  0  0  0  0  0  0  0  0  0
    8.0055    1.9841   -3.0135 H   0  0  0  0  0  0  0  0  0  0  0  0
    6.7665    1.0284   -1.4959 C   0  0  0  0  0  0  0  0  0  0  0  0
    7.3441   -0.2699   -1.2037 C   0  0  0  0  0  0  0  0  0  0  0  0
    8.4552   -0.9743   -1.7033 C   0  0  0  0  0  0  0  0  0  0  0  0
    9.0960   -0.5230   -2.4759 H   0  0  0  0  0  0  0  0  0  0  0  0
    8.7283   -2.2556   -1.2088 C   0  0  0  0  0  0  0  0  0  0  0  0
    9.5947   -2.8162   -1.5899 H   0  0  0  0  0  0  0  0  0  0  0  0
    7.8961   -2.8416   -0.2285 C   0  0  0  0  0  0  0  0  0  0  0  0
    8.1219   -3.8544    0.1380 H   0  0  0  0  0  0  0  0  0  0  0  0
    6.7832   -2.1632    0.2876 C   0  0  0  0  0  0  0  0  0  0  0  0
    6.1346   -2.6300    1.0419 H   0  0  0  0  0  0  0  0  0  0  0  0
    6.5229   -0.8713   -0.1997 C   0  0  0  0  0  0  0  0  0  0  0  0
  1 18  1  0  0  0  0
  3  6  1  0  0  0  0
  4  2  1  6  0  0  0
  4  7  1  0  0  0  0
  5  4  1  0  0  0  0
  5 15  1  0  0  0  0
  6  5  2  0  0  0  0
  7 10  1  0  0  0  0
  7  9  1  0  0  0  0
  8  7  1  0  0  0  0
 11  6  1  0  0  0  0
 11 12  1  0  0  0  0
 13 11  1  0  0  0  0
 14 11  1  0  0  0  0
 15 23  1  0  0  0  0
 16 18  1  0  0  0  0
 16 15  2  0  0  0  0
 17 16  1  0  0  0  0
 18 19  2  0  0  0  0
 19 20  1  0  0  0  0
 19 21  1  0  0  0  0
 21 22  1  0  0  0  0
 23 21  2  0  0  0  0
 23 24  1  0  0  0  0
 25  1  1  0  0  0  0
 26 25  1  0  0  0  0
 26 27  1  0  0  0  0
 28 26  2  0  0  0  0
 29 28  1  0  0  0  0
 30 32  2  0  0  0  0
 30 28  1  0  0  0  0
 31 30  1  0  0  0  0
 32 34  1  0  0  0  0
 33 32  1  0  0  0  0
 34 35  1  0  0  0  0
 34 25  2  0  0  0  0
 35 44  1  0  0  0  0
 36 38  1  0  0  0  0
 36 35  2  0  0  0  0
 37 36  1  0  0  0  0
 38 40  2  0  0  0  0
 39 38  1  0  0  0  0
 40 41  1  0  0  0  0
 40 42  1  0  0  0  0
 42 43  1  0  0  0  0
 44  1  1  0  0  0  0
 44 42  2  0  0  0  0
M  CHG  1   3  -1
M  END
