2,3
q = -1.0

 18 18  0  0  0  0  0  0  0  0999 V2000
    2.1738    0.0982   -1.7902 S   0  0  0  0  0  0  0  0  0  0  0  0
    1.3027   -1.1455   -1.4962 O   0  0  0  0  0  1  0  0  0  0  0  0
    1.2869    1.2979   -1.3882 O   0  0  0  0  0  1  0  0  0  0  0  0
    2.7609    0.1592   -3.1377 O   0  0  0  0  0  1  0  0  0  0  0  0
    3.5143    0.0549   -0.5985 C   0  0  0  0  0  0  0  0  0  0  0  0
    3.2289   -0.0559    0.7728 C   0  0  0  0  0  0  0  0  0  0  0  0
    2.1786   -0.1252    1.1012 H   0  0  0  0  0  0  0  0  0  0  0  0
    4.2840   -0.0786    1.6885 C   0  0  0  0  0  0  0  0  0  0  0  0
    4.0629   -0.1660    2.7643 H   0  0  0  0  0  0  0  0  0  0  0  0
    5.6283    0.0079    1.2591 C   0  0  0  0  0  0  0  0  0  0  0  0
    5.8816    0.1167   -0.1224 C   0  0  0  0  0  0  0  0  0  0  0  0
    6.9223    0.1838   -0.4765 H   0  0  0  0  0  0  0  0  0  0  0  0
    4.8345    0.1410   -1.0561 C   0  0  0  0  0  0  0  0  0  0  0  0
    5.0231    0.2247   -2.1360 H   0  0  0  0  0  0  0  0  0  0  0  0
    6.7524   -0.0176    2.2629 C   0  0  0  0  0  0  0  0  0  0  0  0
    6.7400   -0.9563    2.8554 H   0  0  0  0  0  0  0  0  0  0  0  0
    6.6623    0.8185    2.9875 H   0  0  0  0  0  0  0  0  0  0  0  0
    7.7416    0.0621    1.7729 H   0  0  0  0  0  0  0  0  0  0  0  0
  1  2  1  0  0  0  0
  1  3  1  0  0  0  0
  1  5  1  0  0  0  0
  4  1  1  0  0  0  0
  5  6  1  0  0  0  0
  6  7  1  0  0  0  0
  6  8  2  0  0  0  0
  8  9  1  0  0  0  0
 10  8  1  0  0  0  0
 10 15  1  0  0  0  0
 11 10  2  0  0  0  0
 12 11  1  0  0  0  0
 13  5  2  0  0  0  0
 13 11  1  0  0  0  0
 14 13  1  0  0  0  0
 15 16  1  0  0  0  0
 15 17  1  0  0  0  0
 18 15  1  0  0  0  0
M  END
