1,2
q = -1.0, confidence = 0.014

 27 29  0  0  0  0  0  0  0  0999 V2000
   -0.3927   -0.9177   -0.1311 O   0  5  0  0  0  0  0  0  0  0  0  0
    0.9971    1.3240   -0.2675 O   0  5  0  0  0  0  0  0  0  0  0  0
   -3.0713    1.5349   -0.0819 O   0  0  0  0  0  0  0  0  0  0  0  0
   -7.0362   -1.3126    0.0116 F   0  0  0  0  0  0  0  0  0  0  0  0
   -1.0602    0.2089   -0.1085 C   0  0  0  0  0  0  0  0  0  0  0  0
   -0.2777    1.4280   -0.1985 C   0  0  0  0  0  0  0  0  0  0  0  0
   -0.9597    2.6975   -0.2382 C   0  0  0  0  0  0  0  0  0  0  0  0
   -0.2856    3.9429   -0.3291 C   0  0  0  0  0  3  0  0  0  0  0  0
    0.8127    3.9308   -0.3723 H   0  0  0  0  0  0  0  0  0  0  0  0
   -1.0090    5.1298   -0.3541 C   0  0  0  0  0  0  0  0  0  0  0  0
   -0.4854    6.0946   -0.4226 H   0  0  0  0  0  0  0  0  0  0  0  0
   -2.4245    5.1015   -0.2847 C   0  0  0  0  0  0  0  0  0  0  0  0
   -2.9916    6.0443   -0.3013 H   0  0  0  0  0  0  0  0  0  0  0  0
   -3.1113    3.8926   -0.1919 C   0  0  0  0  0  0  0  0  0  0  0  0
   -4.2079    3.8475   -0.1340 H   0  0  0  0  0  0  0  0  0  0  0  0
   -2.3768    2.6894   -0.1706 C   0  0  0  0  0  0  0  0  0  0  0  0
   -2.4659    0.3033   -0.0496 C   0  0  0  0  0  0  0  0  0  0  0  0
   -3.4174   -0.7981    0.0390 C   0  0  0  0  0  0  0  0  0  0  0  0
   -2.9856   -2.1437    0.1866 C   0  0  0  0  0  0  0  0  0  0  0  0
   -1.9102   -2.3486    0.2421 H   0  0  0  0  0  0  0  0  0  0  0  0
   -3.9259   -3.1772    0.2722 C   0  0  0  0  0  0  0  0  0  0  0  0
   -3.5785   -4.2146    0.3924 H   0  0  0  0  0  0  0  0  0  0  0  0
   -5.3036   -2.9158    0.2121 C   0  0  0  0  0  0  0  0  0  0  0  0
   -6.0564   -3.7140    0.2761 H   0  0  0  0  0  0  0  0  0  0  0  0
   -5.7168   -1.5841    0.0692 C   0  0  0  0  0  0  0  0  0  0  0  0
   -4.8098   -0.5296   -0.0159 C   0  0  0  0  0  0  0  0  0  0  0  0
   -5.1861    0.4950   -0.1249 H   0  0  0  0  0  0  0  0  0  0  0  0
  1  5  1  0  0  0  0
  2  6  1  0  0  0  0
  3 17  1  0  0  0  0
  4 25  1  0  0  0  0
  5 17  2  0  0  0  0
  6  5  1  0  0  0  0
  7  6  2  0  0  0  0
  7 16  1  0  0  0  0
  8  7  1  0  0  0  0
  9  8  1  0  0  0  0
 10  8  1  0  0  0  0
 10 12  2  0  0  0  0
 11 10  1  0  0  0  0
 12 14  1  0  0  0  0
 13 12  1  0  0  0  0
 14 16  2  0  0  0  0
 14 15  1  0  0  0  0
 16  3  1  0  0  0  0
 17 18  1  0  0  0  0
 18 19  1  0  0  0  0
 19 20  1  0  0  0  0
 19 21  2  0  0  0  0
 21 22  1  0  0  0  0
 23 21  1  0  0  0  0
 23 24  1  0  0  0  0
 25 23  2  0  0  0  0
 26 18  2  0  0  0  0
 26 25  1  0  0  0  0
 27 26  1  0  0  0  0
M  CHG  2   1  -1   2  -1
M  END
