1,11
q = -1.0

 11 11  0  0  0  0  0  0  0  0999 V2000
   -0.6986    0.0032   -0.7963 O   0  0  0  0  0  0  0  0  0  0  0  0
   -1.9479    0.0021   -0.5792 C   0  0  0  0  0  0  0  0  0  0  0  0
   -2.9255    0.0041   -1.4215 N   0  0  0  0  0  0  0  0  0  0  0  0
   -4.2955    0.0031   -1.1383 C   0  0  0  0  0  0  0  0  0  0  0  0
   -5.1072    0.0057   -2.0624 O   0  0  0  0  0  0  0  0  0  0  0  0
   -4.6781   -0.0006    0.1724 N   0  0  0  0  0  0  0  0  0  0  0  0
   -3.9461   -0.0035    1.2748 C   0  0  0  0  0  0  0  0  0  0  0  0
   -4.2274   -0.0069    2.4607 O   0  0  0  0  0  0  0  0  0  0  0  0
   -2.3485   -0.0022    0.9339 C   0  0  0  0  0  0  0  0  0  0  0  0
   -1.4528   -0.0044    1.7870 N   0  0  0  0  0  0  0  0  0  0  0  0
   -0.2622   -0.0051    2.0965 O   0  0  0  0  0  0  0  0  0  0  0  0
  1  2  1  0  0  0  0
  2  9  1  0  0  0  0
  3  4  1  0  0  0  0
  3  2  2  0  0  0  0
  4  6  1  0  0  0  0
  5  4  2  0  0  0  0
  6  7  1  0  0  0  0
  7  8  2  0  0  0  0
  9  7  1  0  0  0  0
  9 10  2  0  0  0  0
 10 11  1  0  0  0  0
M  END
