1,3
q = -2.0, confidence = 0.794

 28 28  0  0  1  0  0  0  0  0999 V2000
    0.8786    1.4128   -0.4233 O   0  0  0  0  0  1  0  0  0  0  0  0
    3.1022   -1.1783    0.4393 O   0  0  0  0  0  0  0  0  0  0  0  0
    0.9294   -1.3394   -0.4485 O   0  0  0  0  0  1  0  0  0  0  0  0
    2.2440    1.3240   -0.7504 C   0  0  1  0  0  0  0  0  0  0  0  0
    3.1420    1.2826    0.5116 C   0  0  0  0  0  0  0  0  0  0  0  0
    4.1915    1.4423    0.1840 H   0  0  0  0  0  0  0  0  0  0  0  0
    2.8706    2.1356    1.1679 H   0  0  0  0  0  0  0  0  0  0  0  0
    3.0812   -0.0343    1.3177 C   0  0  0  0  0  0  0  0  0  0  0  0
    2.2755   -1.1929   -0.7387 C   0  0  1  0  0  0  0  0  0  0  0  0
    2.5387    0.0668   -1.5793 C   0  0  0  0  0  0  0  0  0  0  0  0
    1.8893    0.0517   -2.4789 H   0  0  0  0  0  0  0  0  0  0  0  0
    3.5964    0.0712   -1.9142 H   0  0  0  0  0  0  0  0  0  0  0  0
    2.5661    2.5867   -1.5716 C   0  0  0  0  0  0  0  0  0  0  0  0
    1.9197    2.6182   -2.4713 H   0  0  0  0  0  0  0  0  0  0  0  0
    3.6273    2.6108   -1.8918 H   0  0  0  0  0  0  0  0  0  0  0  0
    2.3621    3.4926   -0.9650 H   0  0  0  0  0  0  0  0  0  0  0  0
    4.3639   -0.1937    2.1445 C   0  0  0  0  0  0  0  0  0  0  0  0
    4.3223   -1.1311    2.7346 H   0  0  0  0  0  0  0  0  0  0  0  0
    4.4946    0.6582    2.8415 H   0  0  0  0  0  0  0  0  0  0  0  0
    5.2439   -0.2473    1.4734 H   0  0  0  0  0  0  0  0  0  0  0  0
    1.8667   -0.0768    2.2662 C   0  0  0  0  0  0  0  0  0  0  0  0
    1.7477   -1.1012    2.6697 H   0  0  0  0  0  0  0  0  0  0  0  0
    2.0158    0.6273    3.1109 H   0  0  0  0  0  0  0  0  0  0  0  0
    0.9360    0.2120    1.7447 H   0  0  0  0  0  0  0  0  0  0  0  0
    2.7223   -2.4634   -1.4782 C   0  0  0  0  0  0  0  0  0  0  0  0
    2.1451   -2.5762   -2.4157 H   0  0  0  0  0  0  0  0  0  0  0  0
    2.5298   -3.3356   -0.8241 H   0  0  0  0  0  0  0  0  0  0  0  0
    3.8042   -2.4253   -1.7084 H   0  0  0  0  0  0  0  0  0  0  0  0
  2  8  1  0  0  0  0
  4  1  1  1  0  0  0
  4  5  1  0  0  0  0
  5  7  1  0  0  0  0
  5  8  1  0  0  0  0
  6  5  1  0  0  0  0
  8 17  1  0  0  0  0
  8 21  1  0  0  0  0
  9  3  1  1  0  0  0
  9  2  1  0  0  0  0
 10  4  1  0  0  0  0
 10  9  1  0  0  0  0
 11 10  1  0  0  0  0
 12 10  1  0  0  0  0
 13 16  1  0  0  0  0
 13  4  1  0  0  0  0
 14 13  1  0  0  0  0
 15 13  1  0  0  0  0
 17 18  1  0  0  0  0
 17 19  1  0  0  0  0
 20 17  1  0  0  0  0
 21 22  1  0  0  0  0
 21 23  1  0  0  0  0
 24 21  1  0  0  0  0
 25 27  1  0  0  0  0
 25  9  1  0  0  0  0
 26 25  1  0  0  0  0
 28 25  1  0  0  0  0
M  END
