1,3
q = -1.0, confidence = 0.014

 26 26  0  0  1  0  0  0  0  0999 V2000
    0.0682    1.7861   -0.8542 O   0  5  0  0  0  0  0  0  0  0  0  0
   -1.9107    2.8042   -1.2143 O   0  0  0  0  0  0  0  0  0  0  0  0
   -0.9668   -0.0901    0.5490 O   0  5  0  0  0  0  0  0  0  0  0  0
   -4.8592    2.0123   -1.3830 N   0  0  0  0  0  0  0  0  0  0  0  0
   -1.1882    1.8211   -0.7342 C   0  0  0  0  0  0  0  0  0  0  0  0
   -1.2751    3.8572   -1.9917 C   0  0  0  0  0  0  0  0  0  0  0  0
   -0.7336    3.3792   -2.8353 H   0  0  0  0  0  0  0  0  0  0  0  0
   -0.5234    4.3571   -1.3444 H   0  0  0  0  0  0  0  0  0  0  0  0
   -2.3672    4.7947   -2.4546 C   0  0  0  0  0  0  0  0  0  0  0  0
   -1.9307    5.5954   -3.0829 H   0  0  0  0  0  0  0  0  0  0  0  0
   -2.8783    5.2641   -1.5922 H   0  0  0  0  0  0  0  0  0  0  0  0
   -3.1270    4.2493   -3.0466 H   0  0  0  0  0  0  0  0  0  0  0  0
   -1.8423    0.7039   -0.0170 C   0  0  0  0  0  0  0  0  0  0  0  0
   -3.2300    0.4820   -0.0490 C   0  0  1  0  0  3  0  0  0  0  0  0
   -4.0879    1.3571   -0.7819 C   0  0  0  0  0  0  0  0  0  0  0  0
   -3.8820   -0.6976    0.5608 C   0  0  0  0  0  0  0  0  0  0  0  0
   -5.0855   -1.2014    0.0050 C   0  0  0  0  0  0  0  0  0  0  0  0
   -5.5299   -0.6947   -0.8647 H   0  0  0  0  0  0  0  0  0  0  0  0
   -5.7088   -2.3315    0.5451 C   0  0  0  0  0  0  0  0  0  0  0  0
   -6.6376   -2.7075    0.0906 H   0  0  0  0  0  0  0  0  0  0  0  0
   -5.1591   -2.9791    1.6641 C   0  0  0  0  0  0  0  0  0  0  0  0
   -5.6534   -3.8643    2.0913 H   0  0  0  0  0  0  0  0  0  0  0  0
   -3.9848   -2.4736    2.2445 C   0  0  0  0  0  0  0  0  0  0  0  0
   -3.5622   -2.9539    3.1403 H   0  0  0  0  0  0  0  0  0  0  0  0
   -3.3515   -1.3487    1.7018 C   0  0  0  0  0  0  0  0  0  0  0  0
   -2.4556   -0.9446    2.1850 H   0  0  0  0  0  0  0  0  0  0  0  0
  1  5  1  0  0  0  0
  2  5  1  0  0  0  0
  4 15  3  0  0  0  0
  5 13  2  0  0  0  0
  6  8  1  0  0  0  0
  6  2  1  0  0  0  0
  7  6  1  0  0  0  0
  9  6  1  0  0  0  0
  9 11  1  0  0  0  0
 10  9  1  0  0  0  0
 12  9  1  0  0  0  0
 13  3  1  0  0  0  0
 14 15  1  6  0  0  0
 14 13  1  0  0  0  0
 14 16  1  0  0  0  0
 16 25  1  0  0  0  0
 17 19  1  0  0  0  0
 17 16  2  0  0  0  0
 18 17  1  0  0  0  0
 19 21  2  0  0  0  0
 20 19  1  0  0  0  0
 21 22  1  0  0  0  0
 21 23  1  0  0  0  0
 23 24  1  0  0  0  0
 25 26  1  0  0  0  0
 25 23  2  0  0  0  0
M  CHG  2   1  -1   3  -1
M  END
