3,6
q = 0.0, confidence = 0.636

 61 64  0  0  0  0  0  0  0  0999 V2000
   -2.3936    0.3651   -0.5034 P   0  0  0  0  0  4  0  0  0  0  0  0
    2.3463    0.4917   -0.1699 P   0  0  0  0  0  4  0  0  0  0  0  0
   -0.6194   -0.6476   -3.2322 O   0  0  0  0  0  1  0  0  0  0  0  0
   -0.8256    0.7339   -0.2346 O   0  0  0  0  0  0  0  0  0  0  0  0
   -2.6518   -1.0343    0.5813 C   0  0  0  0  0  0  0  0  0  0  0  0
    2.4951   -0.2409   -1.5475 O   0  0  0  0  0  1  0  0  0  0  0  0
   -1.8878   -1.1078   -2.9406 C   0  0  0  0  0  0  0  0  0  0  0  0
   -1.8571   -2.0433   -2.3326 H   0  0  0  0  0  0  0  0  0  0  0  0
   -2.4327   -1.3672   -3.8808 H   0  0  0  0  0  0  0  0  0  0  0  0
    1.7686   -0.5819    1.1659 C   0  0  0  0  0  0  0  0  0  0  0  0
   -2.7589   -0.0290   -2.2418 C   0  0  0  0  0  0  0  0  0  0  0  0
   -3.8271   -0.3422   -2.2184 H   0  0  0  0  0  0  0  0  0  0  0  0
   -2.7012    0.9171   -2.8212 H   0  0  0  0  0  0  0  0  0  0  0  0
    4.9402    1.2886   -0.7300 C   0  0  0  0  0  0  0  0  0  0  0  0
    4.7134    0.9505   -1.7520 H   0  0  0  0  0  0  0  0  0  0  0  0
   -3.1213    2.2965    1.3167 C   0  0  0  0  0  0  0  0  0  0  0  0
   -2.3505    1.8342    1.9527 H   0  0  0  0  0  0  0  0  0  0  0  0
   -1.6654   -2.0420    0.6471 C   0  0  0  0  0  0  0  0  0  0  0  0
   -0.7307   -1.9666    0.0692 H   0  0  0  0  0  0  0  0  0  0  0  0
    2.1829   -1.9301    1.1249 C   0  0  0  0  0  0  0  0  0  0  0  0
    2.7488   -2.3048    0.2603 H   0  0  0  0  0  0  0  0  0  0  0  0
   -0.1052    1.7320   -0.9902 C   0  0  0  0  0  0  0  0  0  0  0  0
   -0.6874    2.6801   -1.0165 H   0  0  0  0  0  0  0  0  0  0  0  0
    0.0148    1.3708   -2.0369 H   0  0  0  0  0  0  0  0  0  0  0  0
    1.2380    1.9682   -0.3178 C   0  0  0  0  0  0  0  0  0  0  0  0
    1.1175    2.4236    0.6865 H   0  0  0  0  0  0  0  0  0  0  0  0
    1.8176    2.6927   -0.9270 H   0  0  0  0  0  0  0  0  0  0  0  0
   -4.3739    2.3626   -0.7888 C   0  0  0  0  0  0  0  0  0  0  0  0
   -4.5876    1.9677   -1.7923 H   0  0  0  0  0  0  0  0  0  0  0  0
    3.9661    1.1570    0.2811 C   0  0  0  0  0  0  0  0  0  0  0  0
    1.0798   -2.3161    3.2594 C   0  0  0  0  0  0  0  0  0  0  0  0
    0.8113   -2.9959    4.0819 H   0  0  0  0  0  0  0  0  0  0  0  0
   -3.8530    3.3954    1.7815 C   0  0  0  0  0  0  0  0  0  0  0  0
   -3.6541    3.8008    2.7845 H   0  0  0  0  0  0  0  0  0  0  0  0
   -4.8427    3.9765    0.9692 C   0  0  0  0  0  0  0  0  0  0  0  0
   -5.4174    4.8387    1.3390 H   0  0  0  0  0  0  0  0  0  0  0  0
   -3.3825    1.7766    0.0268 C   0  0  0  0  0  0  0  0  0  0  0  0
   -3.8579   -1.1441    1.3095 C   0  0  0  0  0  0  0  0  0  0  0  0
   -4.6201   -0.3519    1.2584 H   0  0  0  0  0  0  0  0  0  0  0  0
    1.8338   -2.7913    2.1742 C   0  0  0  0  0  0  0  0  0  0  0  0
    2.1525   -3.8436    2.1391 H   0  0  0  0  0  0  0  0  0  0  0  0
    0.6645   -0.9750    3.2976 C   0  0  0  0  0  0  0  0  0  0  0  0
    0.0688   -0.6051    4.1452 H   0  0  0  0  0  0  0  0  0  0  0  0
   -5.1023    3.4617   -0.3106 C   0  0  0  0  0  0  0  0  0  0  0  0
   -5.8775    3.9179   -0.9435 H   0  0  0  0  0  0  0  0  0  0  0  0
   -1.9000   -3.1660    1.4494 C   0  0  0  0  0  0  0  0  0  0  0  0
   -1.1346   -3.9542    1.4949 H   0  0  0  0  0  0  0  0  0  0  0  0
   -4.0714   -2.2746    2.1087 C   0  0  0  0  0  0  0  0  0  0  0  0
   -5.0056   -2.3683    2.6816 H   0  0  0  0  0  0  0  0  0  0  0  0
    4.2474    1.5510    1.6055 C   0  0  0  0  0  0  0  0  0  0  0  0
    3.4973    1.4173    2.4006 H   0  0  0  0  0  0  0  0  0  0  0  0
   -3.0949   -3.2834    2.1772 C   0  0  0  0  0  0  0  0  0  0  0  0
   -3.2709   -4.1705    2.8041 H   0  0  0  0  0  0  0  0  0  0  0  0
    1.0065   -0.1050    2.2533 C   0  0  0  0  0  0  0  0  0  0  0  0
    0.6688    0.9409    2.2900 H   0  0  0  0  0  0  0  0  0  0  0  0
    6.4740    2.2316    0.9058 C   0  0  0  0  0  0  0  0  0  0  0  0
    7.4610    2.6509    1.1521 H   0  0  0  0  0  0  0  0  0  0  0  0
    5.5033    2.0928    1.9119 C   0  0  0  0  0  0  0  0  0  0  0  0
    5.7303    2.3978    2.9442 H   0  0  0  0  0  0  0  0  0  0  0  0
    6.1948    1.8265   -0.4096 C   0  0  0  0  0  0  0  0  0  0  0  0
    6.9619    1.9239   -1.1922 H   0  0  0  0  0  0  0  0  0  0  0  0
  1  4  1  0  0  0  0
  1 37  1  0  0  0  0
  1  5  1  0  0  0  0
  2 30  1  0  0  0  0
  2 10  1  0  0  0  0
  3  7  1  0  0  0  0
  5 18  2  0  0  0  0
  5 38  1  0  0  0  0
  6  2  1  0  0  0  0
  7  8  1  0  0  0  0
  7 11  1  0  0  0  0
  9  7  1  0  0  0  0
 10 54  1  0  0  0  0
 11 12  1  0  0  0  0
 11  1  1  0  0  0  0
 13 11  1  0  0  0  0
 14 60  2  0  0  0  0
 14 30  1  0  0  0  0
 15 14  1  0  0  0  0
 16 33  1  0  0  0  0
 16 17  1  0  0  0  0
 18 46  1  0  0  0  0
 19 18  1  0  0  0  0
 20 10  2  0  0  0  0
 20 40  1  0  0  0  0
 21 20  1  0  0  0  0
 22 25  1  0  0  0  0
 22  4  1  0  0  0  0
 23 22  1  0  0  0  0
 24 22  1  0  0  0  0
 25  2  1  0  0  0  0
 25 26  1  0  0  0  0
 27 25  1  0  0  0  0
 28 44  2  0  0  0  0
 28 37  1  0  0  0  0
 29 28  1  0  0  0  0
 30 50  2  0  0  0  0
 31 42  1  0  0  0  0
 31 32  1  0  0  0  0
 33 34  1  0  0  0  0
 35 36  1  0  0  0  0
 35 33  2  0  0  0  0
 37 16  2  0  0  0  0
 38 48  2  0  0  0  0
 39 38  1  0  0  0  0
 40 31  2  0  0  0  0
 41 40  1  0  0  0  0
 42 43  1  0  0  0  0
 44 35  1  0  0  0  0
 45 44  1  0  0  0  0
 46 47  1  0  0  0  0
 46 52  2  0  0  0  0
 48 52  1  0  0  0  0
 48 49  1  0  0  0  0
 50 58  1  0  0  0  0
 50 51  1  0  0  0  0
 52 53  1  0  0  0  0
 54 55  1  0  0  0  0
 54 42  2  0  0  0  0
 56 57  1  0  0  0  0
 56 58  2  0  0  0  0
 58 59  1  0  0  0  0
 60 56  1  0  0  0  0
 61 60  1  0  0  0  0
M  END
