2,6
q = -1.0

 32 31  0  0  0  0  0  0  0  0999 V2000
   -0.5379    2.1980    0.2185 P   0  0  0  0  0  4  0  0  0  0  0  0
   -0.7551    0.9326    1.0465 O   0  0  0  0  0  1  0  0  0  0  0  0
   -0.4467    1.8774   -1.3797 O   0  0  0  0  0  0  0  0  0  0  0  0
   -1.6799    3.3188    0.3177 O   0  0  0  0  0  0  0  0  0  0  0  0
    0.7760    2.9415    0.7527 O   0  0  0  0  0  0  0  0  0  0  0  0
    0.5191    0.7556   -1.5483 O   0  0  0  0  0  1  0  0  0  0  0  0
   -3.1111    3.1931   -0.0644 C   0  0  0  0  0  0  0  0  0  0  0  0
   -3.7833    4.3159    0.7236 C   0  0  0  0  0  0  0  0  0  0  0  0
   -3.6677    4.1509    1.8124 H   0  0  0  0  0  0  0  0  0  0  0  0
   -4.8640    4.3559    0.4848 H   0  0  0  0  0  0  0  0  0  0  0  0
   -3.3312    5.2933    0.4668 H   0  0  0  0  0  0  0  0  0  0  0  0
   -3.6615    1.8246    0.3421 C   0  0  0  0  0  0  0  0  0  0  0  0
   -3.4790    1.6250    1.4149 H   0  0  0  0  0  0  0  0  0  0  0  0
   -3.1965    1.0105   -0.2448 H   0  0  0  0  0  0  0  0  0  0  0  0
   -4.7534    1.8022    0.1566 H   0  0  0  0  0  0  0  0  0  0  0  0
   -3.2099    3.4216   -1.5731 C   0  0  0  0  0  0  0  0  0  0  0  0
   -2.7845    4.4071   -1.8456 H   0  0  0  0  0  0  0  0  0  0  0  0
   -4.2711    3.4012   -1.8912 H   0  0  0  0  0  0  0  0  0  0  0  0
   -2.6555    2.6383   -2.1247 H   0  0  0  0  0  0  0  0  0  0  0  0
    1.6677    3.8866    0.0198 C   0  0  0  0  0  0  0  0  0  0  0  0
    2.3350    4.6777    1.1430 C   0  0  0  0  0  0  0  0  0  0  0  0
    1.5847    5.2560    1.7164 H   0  0  0  0  0  0  0  0  0  0  0  0
    3.0777    5.3831    0.7217 H   0  0  0  0  0  0  0  0  0  0  0  0
    2.8590    3.9932    1.8388 H   0  0  0  0  0  0  0  0  0  0  0  0
    0.8557    4.8023   -0.8967 C   0  0  0  0  0  0  0  0  0  0  0  0
    0.0661    5.3294   -0.3279 H   0  0  0  0  0  0  0  0  0  0  0  0
    0.3853    4.2305   -1.7192 H   0  0  0  0  0  0  0  0  0  0  0  0
    1.5288    5.5590   -1.3450 H   0  0  0  0  0  0  0  0  0  0  0  0
    2.6728    3.0361   -0.7583 C   0  0  0  0  0  0  0  0  0  0  0  0
    2.1489    2.3356   -1.4395 H   0  0  0  0  0  0  0  0  0  0  0  0
    3.2935    2.4396   -0.0596 H   0  0  0  0  0  0  0  0  0  0  0  0
    3.3480    3.6900   -1.3451 H   0  0  0  0  0  0  0  0  0  0  0  0
  1  4  1  0  0  0  0
  1  5  1  0  0  0  0
  1  2  1  0  0  0  0
  3  1  1  0  0  0  0
  6  3  1  0  0  0  0
  7  4  1  0  0  0  0
  7 12  1  0  0  0  0
  7  8  1  0  0  0  0
  8  9  1  0  0  0  0
 10  8  1  0  0  0  0
 11  8  1  0  0  0  0
 12 13  1  0  0  0  0
 14 12  1  0  0  0  0
 15 12  1  0  0  0  0
 16  7  1  0  0  0  0
 17 16  1  0  0  0  0
 18 16  1  0  0  0  0
 19 16  1  0  0  0  0
 20  5  1  0  0  0  0
 20 21  1  0  0  0  0
 21 22  1  0  0  0  0
 21 24  1  0  0  0  0
 23 21  1  0  0  0  0
 25 26  1  0  0  0  0
 25 20  1  0  0  0  0
 27 25  1  0  0  0  0
 28 25  1  0  0  0  0
 29 31  1  0  0  0  0
 29 20  1  0  0  0  0
 30 29  1  0  0  0  0
 32 29  1  0  0  0  0
M  END
