1,2
q = -2.0, confidence = 0.676

 70 75  0  0  0  0  0  0  0  0999 V2000
   -1.3596    1.3872    0.7292 O   0  5  0  0  0  0  0  0  0  0  0  0
    1.3595   -1.3876    0.7296 O   0  5  0  0  0  0  0  0  0  0  0  0
   -0.8127   -1.0421   -0.9541 O   0  0  0  0  0  0  0  0  0  0  0  0
    0.8129    1.0421   -0.9542 O   0  0  0  0  0  0  0  0  0  0  0  0
   -0.2358   -3.4090   -0.5608 C   0  0  0  0  0  0  0  0  0  0  0  0
    0.2357    3.4089   -0.5608 C   0  0  0  0  0  0  0  0  0  0  0  0
   -1.9695    2.2041   -0.1248 C   0  0  0  0  0  0  0  0  0  0  0  0
    1.9694   -2.2043   -0.1246 C   0  0  0  0  0  0  0  0  0  0  0  0
   -3.3612    2.0410   -0.4190 C   0  0  0  0  0  0  0  0  0  0  0  0
   -1.1855   -2.3648   -0.6953 C   0  0  0  0  0  0  0  0  0  0  0  0
   -1.2274    3.2413   -0.7728 C   0  0  0  0  0  0  0  0  0  0  0  0
    1.2273   -3.2414   -0.7728 C   0  0  0  0  0  0  0  0  0  0  0  0
    3.3611   -2.0410   -0.4190 C   0  0  0  0  0  0  0  0  0  0  0  0
    1.8977   -4.1351   -1.6340 C   0  0  0  0  0  0  0  0  0  0  0  0
    1.3156   -4.9304   -2.1241 H   0  0  0  0  0  0  0  0  0  0  0  0
    4.1493   -0.9104    0.1358 C   0  0  0  0  0  0  0  0  0  0  0  0
    1.1855    2.3649   -0.6954 C   0  0  0  0  0  0  0  0  0  0  0  0
   -4.1493    0.9103    0.1358 C   0  0  0  0  0  0  0  0  0  0  0  0
   -0.7488   -4.6884   -0.2403 C   0  0  0  0  0  0  0  0  0  0  0  0
   -0.0328   -5.5149   -0.1171 H   0  0  0  0  0  0  0  0  0  0  0  0
    4.0328   -0.4930    1.4813 C   0  0  0  0  0  0  0  0  0  0  0  0
    3.3374   -1.0177    2.1484 H   0  0  0  0  0  0  0  0  0  0  0  0
   -1.8979    4.1352   -1.6338 C   0  0  0  0  0  0  0  0  0  0  0  0
   -1.3158    4.9306   -2.1238 H   0  0  0  0  0  0  0  0  0  0  0  0
   -4.0324    0.4926    1.4812 C   0  0  0  0  0  0  0  0  0  0  0  0
   -3.3367    1.0171    2.1481 H   0  0  0  0  0  0  0  0  0  0  0  0
   -3.9787    2.9540   -1.2989 C   0  0  0  0  0  0  0  0  0  0  0  0
   -5.0549    2.8414   -1.4997 H   0  0  0  0  0  0  0  0  0  0  0  0
   -0.1306   -0.7451   -2.1844 C   0  0  0  0  0  0  0  0  0  0  0  0
   -0.7776   -1.0163   -3.0463 H   0  0  0  0  0  0  0  0  0  0  0  0
    0.8178   -1.3171   -2.2486 H   0  0  0  0  0  0  0  0  0  0  0  0
    0.7486    4.6885   -0.2402 C   0  0  0  0  0  0  0  0  0  0  0  0
    0.0324    5.5149   -0.1169 H   0  0  0  0  0  0  0  0  0  0  0  0
   -2.5573   -2.5770   -0.4950 C   0  0  0  0  0  0  0  0  0  0  0  0
   -3.2406   -1.7216   -0.5912 H   0  0  0  0  0  0  0  0  0  0  0  0
   -5.0623    0.2185   -0.6965 C   0  0  0  0  0  0  0  0  0  0  0  0
   -5.1518    0.5109   -1.7539 H   0  0  0  0  0  0  0  0  0  0  0  0
    0.1308    0.7452   -2.1844 C   0  0  0  0  0  0  0  0  0  0  0  0
    0.7778    1.0162   -3.0464 H   0  0  0  0  0  0  0  0  0  0  0  0
   -0.8176    1.3171   -2.2486 H   0  0  0  0  0  0  0  0  0  0  0  0
   -4.7952   -0.5767    1.9708 C   0  0  0  0  0  0  0  0  0  0  0  0
   -4.6790   -0.8858    3.0206 H   0  0  0  0  0  0  0  0  0  0  0  0
   -3.2664    4.0022   -1.8946 C   0  0  0  0  0  0  0  0  0  0  0  0
   -3.7751    4.7077   -2.5677 H   0  0  0  0  0  0  0  0  0  0  0  0
    3.9785   -2.9539   -1.2992 C   0  0  0  0  0  0  0  0  0  0  0  0
    5.0547   -2.8412   -1.5000 H   0  0  0  0  0  0  0  0  0  0  0  0
    2.1159    4.9143   -0.0387 C   0  0  0  0  0  0  0  0  0  0  0  0
    2.4685    5.9215    0.2289 H   0  0  0  0  0  0  0  0  0  0  0  0
    3.2662   -4.0020   -1.8949 C   0  0  0  0  0  0  0  0  0  0  0  0
    3.7749   -4.7074   -2.5682 H   0  0  0  0  0  0  0  0  0  0  0  0
   -3.0265   -3.8523   -0.1599 C   0  0  0  0  0  0  0  0  0  0  0  0
   -4.1025   -4.0068    0.0088 H   0  0  0  0  0  0  0  0  0  0  0  0
    2.5573    2.5773   -0.4950 C   0  0  0  0  0  0  0  0  0  0  0  0
    3.2407    1.7219   -0.5913 H   0  0  0  0  0  0  0  0  0  0  0  0
   -2.1162   -4.9141   -0.0389 C   0  0  0  0  0  0  0  0  0  0  0  0
   -2.4689   -5.9213    0.2286 H   0  0  0  0  0  0  0  0  0  0  0  0
    5.0619   -0.2184   -0.6967 C   0  0  0  0  0  0  0  0  0  0  0  0
    5.1511   -0.5106   -1.7542 H   0  0  0  0  0  0  0  0  0  0  0  0
    4.7958    0.5762    1.9709 C   0  0  0  0  0  0  0  0  0  0  0  0
    4.6800    0.8850    3.0208 H   0  0  0  0  0  0  0  0  0  0  0  0
   -5.6951   -1.2540    1.1325 C   0  0  0  0  0  0  0  0  0  0  0  0
   -6.2892   -2.0956    1.5202 H   0  0  0  0  0  0  0  0  0  0  0  0
    3.0264    3.8526   -0.1598 C   0  0  0  0  0  0  0  0  0  0  0  0
    4.1024    4.0072    0.0089 H   0  0  0  0  0  0  0  0  0  0  0  0
    5.8287    0.8480   -0.2053 C   0  0  0  0  0  0  0  0  0  0  0  0
    6.5254    1.3734   -0.8766 H   0  0  0  0  0  0  0  0  0  0  0  0
    5.6954    1.2538    1.1324 C   0  0  0  0  0  0  0  0  0  0  0  0
    6.2896    2.0952    1.5201 H   0  0  0  0  0  0  0  0  0  0  0  0
   -5.8289   -0.8480   -0.2051 C   0  0  0  0  0  0  0  0  0  0  0  0
   -6.5258   -1.3733   -0.8762 H   0  0  0  0  0  0  0  0  0  0  0  0
  3 10  1  0  0  0  0
  4 17  1  0  0  0  0
  5 19  1  0  0  0  0
  6 32  1  0  0  0  0
  7  1  1  0  0  0  0
  8  2  1  0  0  0  0
  9  7  1  0  0  0  0
  9 18  1  0  0  0  0
 10  5  2  0  0  0  0
 10 34  1  0  0  0  0
 11  6  1  0  0  0  0
 11  7  2  0  0  0  0
 12  5  1  0  0  0  0
 12  8  2  0  0  0  0
 13  8  1  0  0  0  0
 13 16  1  0  0  0  0
 14 12  1  0  0  0  0
 15 14  1  0  0  0  0
 16 21  1  0  0  0  0
 17  6  2  0  0  0  0
 17 53  1  0  0  0  0
 18 25  1  0  0  0  0
 19 20  1  0  0  0  0
 19 55  2  0  0  0  0
 21 59  2  0  0  0  0
 21 22  1  0  0  0  0
 23 11  1  0  0  0  0
 24 23  1  0  0  0  0
 25 41  2  0  0  0  0
 25 26  1  0  0  0  0
 27  9  2  0  0  0  0
 28 27  1  0  0  0  0
 29  3  1  0  0  0  0
 30 29  1  0  0  0  0
 31 29  1  0  0  0  0
 32 33  1  0  0  0  0
 32 47  2  0  0  0  0
 34 51  2  0  0  0  0
 35 34  1  0  0  0  0
 36 69  1  0  0  0  0
 36 18  2  0  0  0  0
 37 36  1  0  0  0  0
 38 29  1  0  0  0  0
 38  4  1  0  0  0  0
 39 38  1  0  0  0  0
 40 38  1  0  0  0  0
 41 42  1  0  0  0  0
 43 23  2  0  0  0  0
 43 27  1  0  0  0  0
 44 43  1  0  0  0  0
 45 13  2  0  0  0  0
 46 45  1  0  0  0  0
 47 48  1  0  0  0  0
 49 14  2  0  0  0  0
 49 45  1  0  0  0  0
 50 49  1  0  0  0  0
 51 55  1  0  0  0  0
 51 52  1  0  0  0  0
 53 63  2  0  0  0  0
 54 53  1  0  0  0  0
 55 56  1  0  0  0  0
 57 65  1  0  0  0  0
 57 16  2  0  0  0  0
 58 57  1  0  0  0  0
 59 60  1  0  0  0  0
 61 62  1  0  0  0  0
 61 41  1  0  0  0  0
 63 47  1  0  0  0  0
 63 64  1  0  0  0  0
 65 67  2  0  0  0  0
 66 65  1  0  0  0  0
 67 68  1  0  0  0  0
 67 59  1  0  0  0  0
 69 61  2  0  0  0  0
 70 69  1  0  0  0  0
M  CHG  2   1  -1   2  -1
M  END
