1,2
q = -1.0

 19 19  0  0  0  0  0  0  0  0999 V2000
   -1.1947    2.8338   -1.3069 O   0  5  0  0  0  0  0  0  0  0  0  0
   -1.4443    3.1785    0.8860 O   0  5  0  0  0  0  0  0  0  0  0  0
   -4.3142   -3.1571   -0.5716 O   0  0  0  0  0  0  0  0  0  0  0  0
   -5.6609   -2.6510    1.0740 O   0  0  0  0  0  0  0  0  0  0  0  0
   -4.9031   -2.3467    0.1518 N   0  0  0  0  0  0  0  0  0  0  0  0
   -1.9110    3.1097   -0.2977 C   0  0  0  0  0  3  0  0  0  0  0  0
   -3.4324    3.1960   -0.4869 C   0  0  0  0  0  0  0  0  0  0  0  0
   -3.9509    1.7794   -0.3902 C   0  0  0  0  0  0  0  0  0  0  0  0
   -4.7656    1.3670    0.6847 C   0  0  0  0  0  0  0  0  0  0  0  0
   -5.1256    0.0233    0.8411 C   0  0  0  0  0  0  0  0  0  0  0  0
   -4.6446   -0.9136   -0.0829 C   0  0  0  0  0  0  0  0  0  0  0  0
   -3.8585   -0.5329   -1.1809 C   0  0  0  0  0  0  0  0  0  0  0  0
   -3.5230    0.8134   -1.3317 C   0  0  0  0  0  0  0  0  0  0  0  0
   -3.6419    3.6226   -1.4874 H   0  0  0  0  0  0  0  0  0  0  0  0
   -3.8816    3.8348    0.2950 H   0  0  0  0  0  0  0  0  0  0  0  0
   -5.1046    2.1108    1.4216 H   0  0  0  0  0  0  0  0  0  0  0  0
   -5.7439   -0.3239    1.6795 H   0  0  0  0  0  0  0  0  0  0  0  0
   -3.5029   -1.3047   -1.8760 H   0  0  0  0  0  0  0  0  0  0  0  0
   -2.8695    1.1353   -2.1558 H   0  0  0  0  0  0  0  0  0  0  0  0
  1  6  1  0  0  0  0
  3  5  2  0  0  0  0
  5  4  2  0  0  0  0
  6  2  1  0  0  0  0
  7  8  1  0  0  0  0
  7  6  1  0  0  0  0
  7 15  1  0  0  0  0
  8  9  1  0  0  0  0
  9 10  2  0  0  0  0
  9 16  1  0  0  0  0
 10 17  1  0  0  0  0
 11  5  1  0  0  0  0
 11 10  1  0  0  0  0
 12 11  2  0  0  0  0
 13 12  1  0  0  0  0
 13  8  2  0  0  0  0
 14  7  1  0  0  0  0
 18 12  1  0  0  0  0
 19 13  1  0  0  0  0
M  CHG  2   1  -1   2  -1
M  END
