1,2
q = -1.0

  7  6  0  0  0  0  0  0  0  0999 V2000
    0.6743    2.6298   -1.4893 O   0  5  0  0  0  0  0  0  0  0  0  0
    0.5076    2.7740    0.7412 O   0  5  0  0  0  0  0  0  0  0  0  0
    0.9125    3.2060   -0.3830 C   0  0  0  0  0  3  0  0  0  0  0  0
    1.7785    4.4638   -0.3693 C   0  0  0  0  0  0  0  0  0  0  0  0
    2.3987    4.6975   -1.5821 F   0  0  0  0  0  0  0  0  0  0  0  0
    1.1436    5.3387   -0.1001 H   0  0  0  0  0  0  0  0  0  0  0  0
    2.5474    4.3398    0.4243 H   0  0  0  0  0  0  0  0  0  0  0  0
  1  3  1  0  0  0  0
  3  4  1  0  0  0  0
  3  2  1  0  0  0  0
  4  6  1  0  0  0  0
  4  7  1  0  0  0  0
  5  4  1  0  0  0  0
M  CHG  2   1  -1   2  -1
M  END
