1,2
q = -1.0

 44 45  0  0  0  0  0  0  0  0999 V2000
    1.4648   -0.1921    0.0003 O   0  5  0  0  0  0  0  0  0  0  0  0
   -1.4648   -0.1921    0.0000 O   0  5  0  0  0  0  0  0  0  0  0  0
    6.1195   -0.4996   -0.0005 O   0  0  0  0  0  0  0  0  0  0  0  0
   -6.1195   -0.4997   -0.0008 O   0  0  0  0  0  0  0  0  0  0  0  0
    3.7258   -1.8300   -0.0001 C   0  0  0  0  0  3  0  0  0  0  0  0
    3.8327   -0.7355   -0.0003 H   0  0  0  0  0  0  0  0  0  0  0  0
    2.4544   -2.3310    0.0003 C   0  0  0  0  0  0  0  0  0  0  0  0
    2.2664   -3.4149    0.0006 H   0  0  0  0  0  0  0  0  0  0  0  0
    1.2678   -1.4828    0.0003 C   0  0  0  0  0  0  0  0  0  0  0  0
    0.0000   -2.1098    0.0003 C   0  0  0  0  0  0  0  0  0  0  0  0
    0.0000   -3.2077    0.0004 H   0  0  0  0  0  0  0  0  0  0  0  0
   -1.2678   -1.4828    0.0002 C   0  0  0  0  0  0  0  0  0  0  0  0
   -2.4544   -2.3310    0.0002 C   0  0  0  0  0  0  0  0  0  0  0  0
   -2.2664   -3.4149    0.0003 H   0  0  0  0  0  0  0  0  0  0  0  0
   -3.7258   -1.8301    0.0001 C   0  0  0  0  0  0  0  0  0  0  0  0
   -3.8327   -0.7355   -0.0000 H   0  0  0  0  0  0  0  0  0  0  0  0
    4.9701   -2.5747   -0.0001 C   0  0  0  0  0  0  0  0  0  0  0  0
    6.2105   -1.8553   -0.0004 C   0  0  0  0  0  0  0  0  0  0  0  0
    7.4346   -2.5519   -0.0005 C   0  0  0  0  0  0  0  0  0  0  0  0
    8.3880   -2.0084   -0.0006 H   0  0  0  0  0  0  0  0  0  0  0  0
    7.4425   -3.9534   -0.0003 C   0  0  0  0  0  0  0  0  0  0  0  0
    8.4064   -4.4841   -0.0004 H   0  0  0  0  0  0  0  0  0  0  0  0
    6.2382   -4.6790   -0.0001 C   0  0  0  0  0  0  0  0  0  0  0  0
    6.2518   -5.7781    0.0001 H   0  0  0  0  0  0  0  0  0  0  0  0
    5.0249   -3.9902    0.0000 C   0  0  0  0  0  0  0  0  0  0  0  0
    4.0829   -4.5579    0.0002 H   0  0  0  0  0  0  0  0  0  0  0  0
    7.3127    0.2678   -0.0012 C   0  0  0  0  0  0  0  0  0  0  0  0
    7.9283    0.0734    0.9040 H   0  0  0  0  0  0  0  0  0  0  0  0
    7.0003    1.3286   -0.0017 H   0  0  0  0  0  0  0  0  0  0  0  0
    7.9278    0.0726   -0.9067 H   0  0  0  0  0  0  0  0  0  0  0  0
   -4.9701   -2.5747    0.0002 C   0  0  0  0  0  0  0  0  0  0  0  0
   -6.2105   -1.8553   -0.0003 C   0  0  0  0  0  0  0  0  0  0  0  0
   -7.4345   -2.5519   -0.0003 C   0  0  0  0  0  0  0  0  0  0  0  0
   -8.3879   -2.0084   -0.0007 H   0  0  0  0  0  0  0  0  0  0  0  0
   -7.4425   -3.9534    0.0002 C   0  0  0  0  0  0  0  0  0  0  0  0
   -8.4064   -4.4841    0.0003 H   0  0  0  0  0  0  0  0  0  0  0  0
   -6.2381   -4.6790    0.0007 C   0  0  0  0  0  0  0  0  0  0  0  0
   -6.2517   -5.7781    0.0012 H   0  0  0  0  0  0  0  0  0  0  0  0
   -5.0248   -3.9902    0.0007 C   0  0  0  0  0  0  0  0  0  0  0  0
   -4.0829   -4.5579    0.0011 H   0  0  0  0  0  0  0  0  0  0  0  0
   -7.3127    0.2678   -0.0012 C   0  0  0  0  0  0  0  0  0  0  0  0
   -7.9279    0.0727   -0.9065 H   0  0  0  0  0  0  0  0  0  0  0  0
   -7.0002    1.3286   -0.0015 H   0  0  0  0  0  0  0  0  0  0  0  0
   -7.9282    0.0732    0.9041 H   0  0  0  0  0  0  0  0  0  0  0  0
  2 12  1  0  0  0  0
  3 18  1  0  0  0  0
  4 32  1  0  0  0  0
  5  7  1  0  0  0  0
  6  5  1  0  0  0  0
  7  9  2  0  0  0  0
  7  8  1  0  0  0  0
  9  1  1  0  0  0  0
  9 10  1  0  0  0  0
 10 11  1  0  0  0  0
 12 13  1  0  0  0  0
 12 10  2  0  0  0  0
 13 14  1  0  0  0  0
 15 31  1  0  0  0  0
 15 13  2  0  0  0  0
 16 15  1  0  0  0  0
 17  5  1  0  0  0  0
 17 25  1  0  0  0  0
 18 17  2  0  0  0  0
 19 18  1  0  0  0  0
 19 21  2  0  0  0  0
 20 19  1  0  0  0  0
 21 23  1  0  0  0  0
 22 21  1  0  0  0  0
 23 25  2  0  0  0  0
 23 24  1  0  0  0  0
 25 26  1  0  0  0  0
 27  3  1  0  0  0  0
 27 28  1  0  0  0  0
 29 27  1  0  0  0  0
 30 27  1  0  0  0  0
 31 39  1  0  0  0  0
 32 33  1  0  0  0  0
 32 31  2  0  0  0  0
 33 35  2  0  0  0  0
 34 33  1  0  0  0  0
 35 36  1  0  0  0  0
 35 37  1  0  0  0  0
 37 38  1  0  0  0  0
 39 37  2  0  0  0  0
 39 40  1  0  0  0  0
 41  4  1  0  0  0  0
 41 44  1  0  0  0  0
 42 41  1  0  0  0  0
 43 41  1  0  0  0  0
M  CHG  2   1  -1   2  -1
M  END
