6,7
q = -1.0

 29 31  0  0  0  0  0  0  0  0999 V2000
    4.8228    3.2483    1.3701 N   0  0  0  0  0  0  0  0  0  0  0  0
    7.6378    3.2839    1.2390 N   0  0  0  0  0  0  0  0  0  0  0  0
    5.4363   -0.0245   -0.0773 N   0  0  0  0  0  0  0  0  0  0  0  0
    4.9129   -3.3348   -1.4741 N   0  0  0  0  0  0  0  0  0  0  0  0
    7.7240   -3.1811   -1.6043 N   0  0  0  0  0  0  0  0  0  0  0  0
    0.5242   -1.2152   -0.2770 O   0  5  0  0  0  0  0  0  0  0  0  0
    0.4969    0.8347    0.5754 O   0  5  0  0  0  0  0  0  0  0  0  0
    5.5329    4.3023    1.7865 C   0  0  0  0  0  0  0  0  0  0  0  0
    4.9714    5.1652    2.1870 H   0  0  0  0  0  0  0  0  0  0  0  0
    6.9381    4.3226    1.7222 C   0  0  0  0  0  0  0  0  0  0  0  0
    7.5081    5.2020    2.0709 H   0  0  0  0  0  0  0  0  0  0  0  0
    6.9285    2.2272    0.8222 C   0  0  0  0  0  0  0  0  0  0  0  0
    7.4754    1.3589    0.4210 H   0  0  0  0  0  0  0  0  0  0  0  0
    5.5150    2.1982    0.8837 C   0  0  0  0  0  0  0  0  0  0  0  0
    4.7406    1.0156    0.4177 C   0  0  0  0  0  0  0  0  0  0  0  0
    3.3327    1.0132    0.5046 C   0  0  0  0  0  0  0  0  0  0  0  0
    2.8041    1.8823    0.9172 H   0  0  0  0  0  0  0  0  0  0  0  0
    2.6385   -0.1200    0.0540 C   0  0  0  0  0  0  0  0  0  0  0  0
    3.3629   -1.2044   -0.4634 C   0  0  0  0  0  0  0  0  0  0  0  0
    2.8595   -2.1082   -0.8301 H   0  0  0  0  0  0  0  0  0  0  0  0
    4.7697   -1.1110   -0.5085 C   0  0  0  0  0  0  0  0  0  0  0  0
    5.5752   -2.2396   -1.0493 C   0  0  0  0  0  0  0  0  0  0  0  0
    6.9871   -2.1735   -1.1191 C   0  0  0  0  0  0  0  0  0  0  0  0
    7.5094   -1.2697   -0.7666 H   0  0  0  0  0  0  0  0  0  0  0  0
    7.0538   -4.2654   -2.0248 C   0  0  0  0  0  0  0  0  0  0  0  0
    7.6466   -5.1054   -2.4282 H   0  0  0  0  0  0  0  0  0  0  0  0
    5.6504   -4.3397   -1.9587 C   0  0  0  0  0  0  0  0  0  0  0  0
    5.1134   -5.2392   -2.3089 H   0  0  0  0  0  0  0  0  0  0  0  0
    1.1445   -0.1684    0.1220 C   0  0  0  0  0  3  0  0  0  0  0  0
  1  8  1  0  0  0  0
  2 10  1  0  0  0  0
  3 15  1  0  0  0  0
  4 22  1  0  0  0  0
  5 23  1  0  0  0  0
  6 29  1  0  0  0  0
  8  9  1  0  0  0  0
 10  8  2  0  0  0  0
 10 11  1  0  0  0  0
 12 14  1  0  0  0  0
 12  2  2  0  0  0  0
 13 12  1  0  0  0  0
 14  1  2  0  0  0  0
 15 16  2  0  0  0  0
 15 14  1  0  0  0  0
 16 17  1  0  0  0  0
 18 29  1  0  0  0  0
 18 16  1  0  0  0  0
 19 18  2  0  0  0  0
 20 19  1  0  0  0  0
 21 19  1  0  0  0  0
 21  3  2  0  0  0  0
 22 21  1  0  0  0  0
 23 22  2  0  0  0  0
 23 24  1  0  0  0  0
 25 27  1  0  0  0  0
 25  5  2  0  0  0  0
 26 25  1  0  0  0  0
 27  4  2  0  0  0  0
 28 27  1  0  0  0  0
 29  7  1  0  0  0  0
M  CHG  2   6  -1   7  -1
M  END
