1,3
q = -2.0, confidence = 0.818

 29 30  0  0  0  0  0  0  0  0999 V2000
   -2.5832    1.0768   -1.1127 O   0  5  0  0  0  0  0  0  0  0  0  0
   -0.9578    2.6281   -1.1546 O   0  0  0  0  0  0  0  0  0  0  0  0
   -2.1035   -1.2144    0.1062 O   0  5  0  0  0  0  0  0  0  0  0  0
    3.2986    0.1091   -0.1874 N   0  0  0  0  0  2  0  0  0  0  0  0
    4.1388   -0.7761    0.1687 N   0  0  0  0  0  2  0  0  0  0  0  0
   -1.3110    1.4826   -0.9210 C   0  0  0  0  0  0  0  0  0  0  0  0
   -0.3814    0.4050   -0.4520 C   0  0  0  0  0  0  0  0  0  0  0  0
   -0.8256   -0.8749    0.0193 C   0  0  0  0  0  0  0  0  0  0  0  0
    0.1526   -1.8375    0.4137 C   0  0  0  0  0  0  0  0  0  0  0  0
   -0.2143   -2.8122    0.7692 H   0  0  0  0  0  0  0  0  0  0  0  0
    1.5066   -1.5500    0.3559 C   0  0  0  0  0  0  0  0  0  0  0  0
    2.2698   -2.2801    0.6618 H   0  0  0  0  0  0  0  0  0  0  0  0
    1.9519   -0.2781   -0.1037 C   0  0  0  0  0  0  0  0  0  0  0  0
    0.9979    0.6739   -0.5005 C   0  0  0  0  0  0  0  0  0  0  0  0
    1.3328    1.6600   -0.8536 H   0  0  0  0  0  0  0  0  0  0  0  0
    5.4896   -0.3821    0.0865 C   0  0  0  0  0  0  0  0  0  0  0  0
    6.4454   -1.3442    0.4731 C   0  0  0  0  0  0  0  0  0  0  0  0
    6.0798   -2.3261    0.8084 H   0  0  0  0  0  0  0  0  0  0  0  0
    7.8121   -1.0447    0.4263 C   0  0  0  0  0  0  0  0  0  0  0  0
    8.5486   -1.8049    0.7310 H   0  0  0  0  0  0  0  0  0  0  0  0
    8.2635    0.2185   -0.0059 C   0  0  0  0  0  0  0  0  0  0  0  0
    7.2941    1.1773   -0.3920 C   0  0  0  0  0  0  0  0  0  0  0  0
    7.6303    2.1704   -0.7327 H   0  0  0  0  0  0  0  0  0  0  0  0
    5.9310    0.8913   -0.3500 C   0  0  0  0  0  0  0  0  0  0  0  0
    5.1706    1.6273   -0.6472 H   0  0  0  0  0  0  0  0  0  0  0  0
    9.7314    0.5527   -0.0615 C   0  0  0  0  0  0  0  0  0  0  0  0
    9.9689    1.4297    0.5769 H   0  0  0  0  0  0  0  0  0  0  0  0
   10.0447    0.8180   -1.0933 H   0  0  0  0  0  0  0  0  0  0  0  0
   10.3588   -0.2942    0.2769 H   0  0  0  0  0  0  0  0  0  0  0  0
  1  6  1  0  0  0  0
  2  6  2  0  0  0  0
  4 13  1  0  0  0  0
  4  5  1  0  0  0  0
  6  7  1  0  0  0  0
  7  8  1  0  0  0  0
  8  3  1  0  0  0  0
  8  9  2  0  0  0  0
  9 10  1  0  0  0  0
 11  9  1  0  0  0  0
 11 12  1  0  0  0  0
 13 11  2  0  0  0  0
 14  7  2  0  0  0  0
 14 13  1  0  0  0  0
 15 14  1  0  0  0  0
 16  5  1  0  0  0  0
 16 17  1  0  0  0  0
 17 18  1  0  0  0  0
 19 17  2  0  0  0  0
 19 20  1  0  0  0  0
 21 19  1  0  0  0  0
 22 24  1  0  0  0  0
 22 21  2  0  0  0  0
 23 22  1  0  0  0  0
 24 16  2  0  0  0  0
 25 24  1  0  0  0  0
 26 21  1  0  0  0  0
 26 29  1  0  0  0  0
 26 27  1  0  0  0  0
 28 26  1  0  0  0  0
M  CHG  2   1  -1   3  -1
M  END
