1,2
q = -1.0

 27 28  0  0  0  0  0  0  0  0999 V2000
   -0.3282    0.2923   -0.2255 O   0  5  0  0  0  0  0  0  0  0  0  0
    1.0129    2.0356   -0.1567 O   0  5  0  0  0  0  0  0  0  0  0  0
   -3.0085    0.6953   -0.4699 O   0  0  0  0  0  0  0  0  0  0  0  0
   -2.5379    0.2545    1.7198 O   0  0  0  0  0  0  0  0  0  0  0  0
   -0.1733    1.5844   -0.2137 C   0  0  0  0  0  3  0  0  0  0  0  0
   -1.3477    2.4862   -0.2502 C   0  0  0  0  0  0  0  0  0  0  0  0
   -1.1083    3.8786   -0.2040 C   0  0  0  0  0  0  0  0  0  0  0  0
   -0.0638    4.2148   -0.1339 H   0  0  0  0  0  0  0  0  0  0  0  0
   -2.1618    4.7952   -0.2485 C   0  0  0  0  0  0  0  0  0  0  0  0
   -1.9552    5.8744   -0.2105 H   0  0  0  0  0  0  0  0  0  0  0  0
   -3.4842    4.3297   -0.3459 C   0  0  0  0  0  0  0  0  0  0  0  0
   -4.3211    5.0429   -0.3837 H   0  0  0  0  0  0  0  0  0  0  0  0
   -3.7471    2.9539   -0.3931 C   0  0  0  0  0  0  0  0  0  0  0  0
   -4.7730    2.5671   -0.4693 H   0  0  0  0  0  0  0  0  0  0  0  0
   -2.6895    2.0379   -0.3436 C   0  0  0  0  0  0  0  0  0  0  0  0
   -2.8348   -0.1428    0.6092 C   0  0  0  0  0  0  0  0  0  0  0  0
   -3.0501   -1.5646    0.2325 C   0  0  0  0  0  0  0  0  0  0  0  0
   -3.1809   -1.9773   -1.1107 C   0  0  0  0  0  0  0  0  0  0  0  0
   -3.1682   -1.2227   -1.9093 H   0  0  0  0  0  0  0  0  0  0  0  0
   -3.3296   -3.3382   -1.4105 C   0  0  0  0  0  0  0  0  0  0  0  0
   -3.4353   -3.6609   -2.4572 H   0  0  0  0  0  0  0  0  0  0  0  0
   -3.3581   -4.2892   -0.3760 C   0  0  0  0  0  0  0  0  0  0  0  0
   -3.4834   -5.3562   -0.6149 H   0  0  0  0  0  0  0  0  0  0  0  0
   -3.2409   -3.8797    0.9636 C   0  0  0  0  0  0  0  0  0  0  0  0
   -3.2800   -4.6243    1.7727 H   0  0  0  0  0  0  0  0  0  0  0  0
   -3.0864   -2.5220    1.2684 C   0  0  0  0  0  0  0  0  0  0  0  0
   -2.9992   -2.1744    2.3085 H   0  0  0  0  0  0  0  0  0  0  0  0
  1  5  1  0  0  0  0
  3 15  1  0  0  0  0
  3 16  1  0  0  0  0
  5  2  1  0  0  0  0
  6  5  1  0  0  0  0
  6  7  1  0  0  0  0
  7  8  1  0  0  0  0
  9 10  1  0  0  0  0
  9  7  2  0  0  0  0
 11  9  1  0  0  0  0
 12 11  1  0  0  0  0
 13 11  2  0  0  0  0
 13 15  1  0  0  0  0
 14 13  1  0  0  0  0
 15  6  2  0  0  0  0
 16  4  2  0  0  0  0
 17 16  1  0  0  0  0
 17 26  1  0  0  0  0
 18 17  2  0  0  0  0
 19 18  1  0  0  0  0
 20 18  1  0  0  0  0
 20 22  2  0  0  0  0
 21 20  1  0  0  0  0
 22 24  1  0  0  0  0
 23 22  1  0  0  0  0
 24 26  2  0  0  0  0
 24 25  1  0  0  0  0
 26 27  1  0  0  0  0
M  CHG  2   1  -1   2  -1
M  END
