1,2
q = -1.0, confidence = 0.028

 39 42  0  0  1  0  0  0  0  0999 V2000
    2.5533    0.8214    0.2077 O   0  0  0  0  0  1  0  0  0  0  0  0
   -0.1104   -0.2836   -0.5419 O   0  5  0  0  0  0  0  0  0  0  0  0
    2.3039   -3.8681   -0.6177 O   0  0  0  0  0  0  0  0  0  0  0  0
   -0.1149   -2.5226   -0.8457 N   0  0  0  0  0  0  0  0  0  0  0  0
    0.4728   -3.3768   -0.8604 H   0  0  0  0  0  0  0  0  0  0  0  0
    2.8221   -0.4070    0.0228 C   0  0  2  0  0  3  0  0  0  0  0  0
    1.9678   -1.4758   -0.3548 C   0  0  0  0  0  0  0  0  0  0  0  0
    2.7246   -2.7250   -0.3742 C   0  0  0  0  0  0  0  0  0  0  0  0
    4.1414   -2.3591   -0.0123 C   0  0  0  0  0  0  0  0  0  0  0  0
    5.2791   -3.1537    0.1023 C   0  0  0  0  0  0  0  0  0  0  0  0
    5.2214   -4.2357   -0.0890 H   0  0  0  0  0  0  0  0  0  0  0  0
    6.4910   -2.5265    0.4660 C   0  0  0  0  0  0  0  0  0  0  0  0
    7.4084   -3.1269    0.5630 H   0  0  0  0  0  0  0  0  0  0  0  0
    6.5428   -1.1423    0.7042 C   0  0  0  0  0  0  0  0  0  0  0  0
    7.5003   -0.6767    0.9833 H   0  0  0  0  0  0  0  0  0  0  0  0
    5.3859   -0.3412    0.5878 C   0  0  0  0  0  0  0  0  0  0  0  0
    5.4185    0.7437    0.7669 H   0  0  0  0  0  0  0  0  0  0  0  0
    4.1932   -0.9679    0.2293 C   0  0  0  0  0  0  0  0  0  0  0  0
    0.5563   -1.3718   -0.5935 C   0  0  0  0  0  0  0  0  0  0  0  0
   -1.5399   -2.5291   -1.0841 C   0  0  0  0  0  0  0  0  0  0  0  0
   -1.8115   -3.5170   -1.5115 H   0  0  0  0  0  0  0  0  0  0  0  0
   -1.7720   -1.7691   -1.8607 H   0  0  0  0  0  0  0  0  0  0  0  0
   -2.3923   -2.2321    0.1438 C   0  0  0  0  0  0  0  0  0  0  0  0
   -3.7813   -1.8964   -0.0153 C   0  0  0  0  0  0  0  0  0  0  0  0
   -4.4327   -1.8789   -1.2862 C   0  0  0  0  0  0  0  0  0  0  0  0
   -3.8696   -2.1486   -2.1906 H   0  0  0  0  0  0  0  0  0  0  0  0
   -5.7700   -1.5262   -1.4057 C   0  0  0  0  0  0  0  0  0  0  0  0
   -6.2471   -1.5201   -2.3973 H   0  0  0  0  0  0  0  0  0  0  0  0
   -6.5262   -1.1731   -0.2575 C   0  0  0  0  0  0  0  0  0  0  0  0
   -7.5853   -0.8938   -0.3631 H   0  0  0  0  0  0  0  0  0  0  0  0
   -5.9281   -1.1838    0.9934 C   0  0  0  0  0  0  0  0  0  0  0  0
   -6.5064   -0.9133    1.8907 H   0  0  0  0  0  0  0  0  0  0  0  0
   -4.5568   -1.5419    1.1520 C   0  0  0  0  0  0  0  0  0  0  0  0
   -3.9337   -1.5464    2.4341 C   0  0  0  0  0  0  0  0  0  0  0  0
   -4.5326   -1.2713    3.3161 H   0  0  0  0  0  0  0  0  0  0  0  0
   -2.5997   -1.8972    2.5625 C   0  0  0  0  0  0  0  0  0  0  0  0
   -2.1223   -1.9098    3.5542 H   0  0  0  0  0  0  0  0  0  0  0  0
   -1.8352   -2.2385    1.4167 C   0  0  0  0  0  0  0  0  0  0  0  0
   -0.7717   -2.4958    1.5297 H   0  0  0  0  0  0  0  0  0  0  0  0
  3  8  2  0  0  0  0
  4 19  1  0  0  0  0
  5  4  1  0  0  0  0
  6  1  1  1  0  0  0
  6 18  1  0  0  0  0
  7  6  1  0  0  0  0
  8  7  1  0  0  0  0
  8  9  1  0  0  0  0
  9 10  2  0  0  0  0
  9 18  1  0  0  0  0
 10 12  1  0  0  0  0
 11 10  1  0  0  0  0
 12 13  1  0  0  0  0
 12 14  2  0  0  0  0
 14 15  1  0  0  0  0
 16 14  1  0  0  0  0
 16 17  1  0  0  0  0
 18 16  2  0  0  0  0
 19  2  1  0  0  0  0
 19  7  2  0  0  0  0
 20  4  1  0  0  0  0
 20 23  1  0  0  0  0
 21 20  1  0  0  0  0
 22 20  1  0  0  0  0
 23 38  1  0  0  0  0
 24 23  2  0  0  0  0
 24 33  1  0  0  0  0
 25 24  1  0  0  0  0
 26 25  1  0  0  0  0
 27 25  2  0  0  0  0
 27 29  1  0  0  0  0
 28 27  1  0  0  0  0
 29 31  2  0  0  0  0
 30 29  1  0  0  0  0
 31 33  1  0  0  0  0
 31 32  1  0  0  0  0
 33 34  2  0  0  0  0
 34 36  1  0  0  0  0
 34 35  1  0  0  0  0
 36 37  1  0  0  0  0
 38 39  1  0  0  0  0
 38 36  2  0  0  0  0
M  CHG  1   2  -1
M  END
