26,27
q = -1.0

 30 31  0  0  0  0  0  0  0  0999 V2000
    2.5111   -2.1953    1.9805 C   0  0  0  0  0  0  0  0  0  0  0  0
    3.8643   -1.5413    1.6938 C   0  0  0  0  0  0  0  0  0  0  0  0
    4.8370   -1.6143    2.6816 C   0  0  0  0  0  0  0  0  0  0  0  0
    4.5306   -2.0875    3.6282 H   0  0  0  0  0  0  0  0  0  0  0  0
    6.1483   -1.1304    2.4613 C   0  0  0  0  0  0  0  0  0  0  0  0
    6.9223   -1.1727    3.2389 H   0  0  0  0  0  0  0  0  0  0  0  0
    6.4547   -0.6159    1.2194 C   0  0  0  0  0  3  0  0  0  0  0  0
    7.4517   -0.2339    0.9587 H   0  0  0  0  0  0  0  0  0  0  0  0
    4.1911   -0.9764    0.4125 C   0  0  0  0  0  0  0  0  0  0  0  0
    5.8837    0.0530   -1.0816 C   0  0  0  0  0  0  0  0  0  0  0  0
    5.7084   -0.6993   -1.8758 H   0  0  0  0  0  0  0  0  0  0  0  0
    6.9721    0.2580   -1.0383 H   0  0  0  0  0  0  0  0  0  0  0  0
    5.0589    1.2894   -1.3631 C   0  0  0  0  0  0  0  0  0  0  0  0
    4.8260    2.2337   -0.3472 C   0  0  0  0  0  0  0  0  0  0  0  0
    5.3892    2.1775    0.5984 H   0  0  0  0  0  0  0  0  0  0  0  0
    3.7911    3.1673   -0.4786 C   0  0  0  0  0  0  0  0  0  0  0  0
    3.5484    3.8614    0.3376 H   0  0  0  0  0  0  0  0  0  0  0  0
    2.9507    3.1319   -1.6033 C   0  0  0  0  0  0  0  0  0  0  0  0
    3.3182    2.3329   -2.7035 C   0  0  0  0  0  0  0  0  0  0  0  0
    2.6998    2.3434   -3.6140 H   0  0  0  0  0  0  0  0  0  0  0  0
    4.3707    1.4186   -2.5837 C   0  0  0  0  0  0  0  0  0  0  0  0
    4.5835    0.7174   -3.4066 H   0  0  0  0  0  0  0  0  0  0  0  0
    1.5804    3.7716   -1.5038 C   0  0  0  0  0  0  0  0  0  0  0  0
    5.5204   -0.5500    0.2203 N   0  0  0  0  0  0  0  0  0  0  0  0
    2.4016   -2.8501    3.0203 O   0  5  0  0  0  0  0  0  0  0  0  0
    1.5683   -2.0736    1.0954 O   0  0  0  0  0  0  0  0  0  0  0  0
    3.3919   -0.8348   -0.5644 O   0  5  0  0  0  0  0  0  0  0  0  0
    1.4153    4.9364   -1.1658 O   0  0  0  0  0  0  0  0  0  0  0  0
    0.5947    2.9151   -1.7385 O   0  0  0  0  0  0  0  0  0  0  0  0
    0.9159    1.8733   -1.6790 H   0  0  0  0  0  0  0  0  0  0  0  0
  1 25  1  0  0  0  0
  2  1  1  0  0  0  0
  2  3  1  0  0  0  0
  3  4  1  0  0  0  0
  5  3  2  0  0  0  0
  5  6  1  0  0  0  0
  7  5  1  0  0  0  0
  8  7  1  0  0  0  0
  9  2  2  0  0  0  0
 10 12  1  0  0  0  0
 10 24  1  0  0  0  0
 11 10  1  0  0  0  0
 13 10  1  0  0  0  0
 13 14  1  0  0  0  0
 14 15  1  0  0  0  0
 16 14  2  0  0  0  0
 16 17  1  0  0  0  0
 18 23  1  0  0  0  0
 18 16  1  0  0  0  0
 19 21  1  0  0  0  0
 19 18  2  0  0  0  0
 20 19  1  0  0  0  0
 21 13  2  0  0  0  0
 22 21  1  0  0  0  0
 23 28  2  0  0  0  0
 24  9  1  0  0  0  0
 24  7  1  0  0  0  0
 26  1  2  0  0  0  0
 27  9  1  0  0  0  0
 29 30  1  0  0  0  0
 29 23  1  0  0  0  0
M  CHG  2  25  -1  27  -1
M  END
