1,2
q = -2.0, confidence = 0.852

 28 30  0  0  0  0  0  0  0  0999 V2000
    0.4436   -1.5025    1.0796 O   0  5  0  0  0  0  0  0  0  0  0  0
    0.4429    1.5075    1.0704 O   0  5  0  0  0  0  0  0  0  0  0  0
   -1.1668   -2.0915    2.4894 O   0  0  0  0  0  0  0  0  0  0  0  0
   -1.1655    2.1022    2.4801 O   0  0  0  0  0  0  0  0  0  0  0  0
   -0.7188   -1.2793    1.6925 C   0  0  0  0  0  0  0  0  0  0  0  0
   -0.7185    1.2866    1.6862 C   0  0  0  0  0  0  0  0  0  0  0  0
   -1.4383    0.0029    1.3390 C   0  0  0  0  0  3  0  0  0  0  0  0
   -2.6576    0.0016    0.7041 C   0  0  0  0  0  0  0  0  0  0  0  0
   -3.3812    1.1899    0.1582 C   0  0  0  0  0  0  0  0  0  0  0  0
   -4.3786    0.7310   -0.7537 C   0  0  0  0  0  0  0  0  0  0  0  0
   -5.1883    1.6281   -1.4623 C   0  0  0  0  0  0  0  0  0  0  0  0
   -5.9505    1.2576   -2.1648 H   0  0  0  0  0  0  0  0  0  0  0  0
   -5.0179    3.0065   -1.2549 C   0  0  0  0  0  0  0  0  0  0  0  0
   -5.6473    3.7260   -1.8006 H   0  0  0  0  0  0  0  0  0  0  0  0
   -4.0574    3.4678   -0.3380 C   0  0  0  0  0  0  0  0  0  0  0  0
   -3.9474    4.5487   -0.1615 H   0  0  0  0  0  0  0  0  0  0  0  0
   -3.2405    2.5728    0.3759 C   0  0  0  0  0  0  0  0  0  0  0  0
   -2.5274    2.9574    1.1145 H   0  0  0  0  0  0  0  0  0  0  0  0
   -3.3818   -1.1888    0.1638 C   0  0  0  0  0  0  0  0  0  0  0  0
   -4.3790   -0.7337   -0.7503 C   0  0  0  0  0  0  0  0  0  0  0  0
   -5.1891   -1.6336   -1.4548 C   0  0  0  0  0  3  0  0  0  0  0  0
   -5.9511   -1.2660   -2.1589 H   0  0  0  0  0  0  0  0  0  0  0  0
   -5.0195   -3.0112   -1.2409 C   0  0  0  0  0  0  0  0  0  0  0  0
   -5.6493   -3.7329   -1.7833 H   0  0  0  0  0  0  0  0  0  0  0  0
   -4.0592   -3.4687   -0.3219 C   0  0  0  0  0  0  0  0  0  0  0  0
   -3.9498   -4.5488   -0.1403 H   0  0  0  0  0  0  0  0  0  0  0  0
   -3.2418   -2.5708    0.3879 C   0  0  0  0  0  0  0  0  0  0  0  0
   -2.5289   -2.9522    1.1283 H   0  0  0  0  0  0  0  0  0  0  0  0
  1  5  1  0  0  0  0
  2  6  1  0  0  0  0
  5  3  2  0  0  0  0
  6  4  2  0  0  0  0
  7  6  1  0  0  0  0
  7  5  1  0  0  0  0
  8  7  1  0  0  0  0
  9 17  1  0  0  0  0
  9  8  2  0  0  0  0
 10 20  2  0  0  0  0
 10  9  1  0  0  0  0
 11 13  2  0  0  0  0
 11 10  1  0  0  0  0
 12 11  1  0  0  0  0
 13 15  1  0  0  0  0
 14 13  1  0  0  0  0
 15 16  1  0  0  0  0
 15 17  2  0  0  0  0
 17 18  1  0  0  0  0
 19 27  2  0  0  0  0
 19  8  1  0  0  0  0
 20 19  1  0  0  0  0
 21 23  1  0  0  0  0
 21 20  1  0  0  0  0
 22 21  1  0  0  0  0
 23 25  2  0  0  0  0
 24 23  1  0  0  0  0
 25 26  1  0  0  0  0
 25 27  1  0  0  0  0
 27 28  1  0  0  0  0
M  CHG  2   1  -1   2  -1
M  END
