1,3
q = -2.0, confidence = 0.938

 25 25  0  0  1  0  0  0  0  0999 V2000
   -0.8821    1.0738    0.1929 O   0  0  0  0  0  1  0  0  0  0  0  0
   -4.8978   -1.4023   -0.8730 O   0  0  0  0  0  0  0  0  0  0  0  0
   -0.5243   -1.3005    1.0543 O   0  0  0  0  0  1  0  0  0  0  0  0
   -3.9044    0.5495   -0.1998 O   0  0  0  0  0  0  0  0  0  0  0  0
   -1.8715   -0.8422    1.2337 C   0  0  1  0  0  0  0  0  0  0  0  0
   -2.2258   -1.1798    2.2349 H   0  0  0  0  0  0  0  0  0  0  0  0
   -4.1316   -0.8275    0.1203 C   0  0  2  0  0  0  0  0  0  0  0  0
   -4.6528   -0.8834    1.1179 H   0  0  0  0  0  0  0  0  0  0  0  0
   -1.8606    0.6914    1.1553 C   0  0  2  0  0  0  0  0  0  0  0  0
   -1.5527    1.1126    2.1436 H   0  0  0  0  0  0  0  0  0  0  0  0
   -4.5508    3.1827    0.1456 O   0  0  0  0  0  0  0  0  0  0  0  0
   -4.9354    2.4961   -0.4353 H   0  0  0  0  0  0  0  0  0  0  0  0
   -3.2505    1.2648    0.8448 C   0  0  1  0  0  0  0  0  0  0  0  0
   -3.8622    1.1794    1.7796 H   0  0  0  0  0  0  0  0  0  0  0  0
   -6.2492   -0.9792   -0.8792 C   0  0  0  0  0  0  0  0  0  0  0  0
   -6.7451   -1.1843    0.0992 H   0  0  0  0  0  0  0  0  0  0  0  0
   -6.7679   -1.5530   -1.6702 H   0  0  0  0  0  0  0  0  0  0  0  0
   -6.3461    0.1069   -1.0992 H   0  0  0  0  0  0  0  0  0  0  0  0
   -2.9421   -2.8882    0.5138 O   0  0  0  0  0  0  0  0  0  0  0  0
   -2.0370   -3.2308    0.6445 H   0  0  0  0  0  0  0  0  0  0  0  0
   -3.2409    2.7272    0.4053 C   0  0  0  0  0  0  0  0  0  0  0  0
   -2.8099    3.3541    1.2135 H   0  0  0  0  0  0  0  0  0  0  0  0
   -2.5678    2.8156   -0.4805 H   0  0  0  0  0  0  0  0  0  0  0  0
   -2.7752   -1.5230    0.1888 C   0  0  2  0  0  0  0  0  0  0  0  0
   -2.3219   -1.3896   -0.8229 H   0  0  0  0  0  0  0  0  0  0  0  0
  1  9  1  0  0  0  0
  2  7  1  0  0  0  0
  3  5  1  0  0  0  0
  4  7  1  0  0  0  0
  4 13  1  0  0  0  0
  5  6  1  1  0  0  0
  7 24  1  0  0  0  0
  7  8  1  1  0  0  0
  9  5  1  0  0  0  0
  9 10  1  1  0  0  0
 11 21  1  0  0  0  0
 12 11  1  0  0  0  0
 13  9  1  0  0  0  0
 13 14  1  1  0  0  0
 15  2  1  0  0  0  0
 15 16  1  0  0  0  0
 17 15  1  0  0  0  0
 18 15  1  0  0  0  0
 19 20  1  0  0  0  0
 21 13  1  0  0  0  0
 21 22  1  0  0  0  0
 23 21  1  0  0  0  0
 24 25  1  6  0  0  0
 24 19  1  0  0  0  0
 24  5  1  0  0  0  0
M  END
