1,7
q = -1.0

 40 42  0  0  1  0  0  0  0  0999 V2000
    1.4858    0.7903   -1.0062 O   0  5  0  0  0  0  0  0  0  0  0  0
   -3.0205    1.7191    0.0040 O   0  0  0  0  0  0  0  0  0  0  0  0
   -7.1668    2.9472    0.1396 O   0  0  0  0  0  0  0  0  0  0  0  0
   -7.7337    0.5472    0.2796 O   0  0  0  0  0  0  0  0  0  0  0  0
   -4.3756   -2.7828    0.2134 O   0  0  0  0  0  0  0  0  0  0  0  0
   -1.8479   -2.6497   -0.5828 O   0  0  0  0  0  0  0  0  0  0  0  0
    2.1254   -1.7939   -1.5859 O   0  5  0  0  0  0  0  0  0  0  0  0
    0.3262    0.3334   -0.7081 C   0  0  0  0  0  0  0  0  0  0  0  0
   -0.6716    1.3445   -0.4073 C   0  0  0  0  0  0  0  0  0  0  0  0
   -1.9169    0.9363   -0.0452 C   0  0  2  0  0  3  0  0  0  0  0  0
   -4.1382    0.8759    0.0808 C   0  0  0  0  0  0  0  0  0  0  0  0
   -5.4700    1.3199    0.1301 C   0  0  0  0  0  0  0  0  0  0  0  0
   -6.4477    0.2528    0.2302 C   0  0  0  0  0  0  0  0  0  0  0  0
   -6.0882   -1.1300    0.2522 C   0  0  0  0  0  0  0  0  0  0  0  0
   -4.7171   -1.4917    0.1970 C   0  0  0  0  0  0  0  0  0  0  0  0
   -3.7470   -0.4638    0.1119 C   0  0  0  0  0  0  0  0  0  0  0  0
   -2.2477   -0.4795    0.3099 C   0  0  1  0  0  0  0  0  0  0  0  0
   -1.3896   -1.5009   -0.4405 C   0  0  0  0  0  0  0  0  0  0  0  0
   -0.0371   -1.0819   -0.8030 C   0  0  0  0  0  0  0  0  0  0  0  0
   -5.9382    2.7082    0.0814 C   0  0  0  0  0  0  0  0  0  0  0  0
   -4.9718    3.8576   -0.0381 C   0  0  0  0  0  0  0  0  0  0  0  0
   -7.1671   -2.1644    0.3225 C   0  0  0  0  0  0  0  0  0  0  0  0
   -1.9275   -0.7179    1.8294 C   0  0  0  0  0  0  0  0  0  0  0  0
    0.8881   -2.0303   -1.3605 C   0  0  0  0  0  0  0  0  0  0  0  0
    0.4735   -3.4277   -1.7412 C   0  0  0  0  0  0  0  0  0  0  0  0
   -0.4113    2.3947   -0.5897 H   0  0  0  0  0  0  0  0  0  0  0  0
   -4.3516    3.7589   -0.9512 H   0  0  0  0  0  0  0  0  0  0  0  0
   -4.2696    3.8729    0.8192 H   0  0  0  0  0  0  0  0  0  0  0  0
   -5.5459    4.8004   -0.0708 H   0  0  0  0  0  0  0  0  0  0  0  0
   -7.7725    1.5883    0.2369 H   0  0  0  0  0  0  0  0  0  0  0  0
   -7.9398   -1.9777   -0.4510 H   0  0  0  0  0  0  0  0  0  0  0  0
   -7.6981   -2.1157    1.2973 H   0  0  0  0  0  0  0  0  0  0  0  0
   -6.7532   -3.1797    0.1959 H   0  0  0  0  0  0  0  0  0  0  0  0
   -3.4066   -2.8590   -0.0564 H   0  0  0  0  0  0  0  0  0  0  0  0
   -2.2835   -1.7281    2.1079 H   0  0  0  0  0  0  0  0  0  0  0  0
   -2.4589    0.0303    2.4476 H   0  0  0  0  0  0  0  0  0  0  0  0
   -0.8387   -0.6428    2.0185 H   0  0  0  0  0  0  0  0  0  0  0  0
   -0.3790   -3.4059   -2.4469 H   0  0  0  0  0  0  0  0  0  0  0  0
    0.1005   -3.9726   -0.8517 H   0  0  0  0  0  0  0  0  0  0  0  0
    1.3386   -3.9488   -2.1876 H   0  0  0  0  0  0  0  0  0  0  0  0
  1  8  1  0  0  0  0
  2 11  1  0  0  0  0
  6 18  2  0  0  0  0
  7 24  1  0  0  0  0
  8  9  2  0  0  0  0
 10  9  1  6  0  0  0
 10  2  1  0  0  0  0
 10 17  1  0  0  0  0
 11 16  2  0  0  0  0
 11 12  1  0  0  0  0
 12 13  2  0  0  0  0
 13 14  1  0  0  0  0
 13  4  1  0  0  0  0
 14 22  1  0  0  0  0
 15  5  1  0  0  0  0
 15 14  2  0  0  0  0
 16 15  1  0  0  0  0
 16 17  1  0  0  0  0
 17 23  1  1  0  0  0
 18 17  1  0  0  0  0
 19  8  1  0  0  0  0
 19 18  1  0  0  0  0
 20 12  1  0  0  0  0
 20  3  2  0  0  0  0
 21 20  1  0  0  0  0
 21 28  1  0  0  0  0
 22 32  1  0  0  0  0
 23 37  1  0  0  0  0
 23 35  1  0  0  0  0
 23 36  1  0  0  0  0
 24 19  2  0  0  0  0
 25 24  1  0  0  0  0
 25 39  1  0  0  0  0
 26  9  1  0  0  0  0
 27 21  1  0  0  0  0
 29 21  1  0  0  0  0
 30  4  1  0  0  0  0
 31 22  1  0  0  0  0
 33 22  1  0  0  0  0
 34  5  1  0  0  0  0
 38 25  1  0  0  0  0
 40 25  1  0  0  0  0
M  CHG  2   1  -1   7  -1
M  END
