1,2
q = -1.0

 16 16  0  0  0  0  0  0  0  0999 V2000
    1.2729    0.9680    0.2726 O   0  5  0  0  0  0  0  0  0  0  0  0
    1.1594   -1.1998    0.1844 O   0  5  0  0  0  0  0  0  0  0  0  0
    3.5262    2.2347   -0.0392 O   0  0  0  0  0  0  0  0  0  0  0  0
    2.5587    2.0830    0.1327 H   0  0  0  0  0  0  0  0  0  0  0  0
    7.4323   -0.2395   -0.9031 O   0  0  0  0  0  0  0  0  0  0  0  0
    7.7592   -1.1529   -1.0140 H   0  0  0  0  0  0  0  0  0  0  0  0
    3.3388   -0.1886   -0.1506 C   0  0  0  0  0  0  0  0  0  0  0  0
    4.0940    1.0339   -0.2175 C   0  0  0  0  0  0  0  0  0  0  0  0
    5.4720    0.9797   -0.4738 C   0  0  0  0  0  0  0  0  0  0  0  0
    6.0522    1.9103   -0.5257 H   0  0  0  0  0  0  0  0  0  0  0  0
    6.1087   -0.2578   -0.6610 C   0  0  0  0  0  0  0  0  0  0  0  0
    5.3696   -1.4736   -0.5928 C   0  0  0  0  0  0  0  0  0  0  0  0
    5.8813   -2.4372   -0.7399 H   0  0  0  0  0  0  0  0  0  0  0  0
    4.0085   -1.4265   -0.3403 C   0  0  0  0  0  0  0  0  0  0  0  0
    3.4193   -2.3533   -0.2828 H   0  0  0  0  0  0  0  0  0  0  0  0
    1.9228   -0.1555    0.1024 C   0  0  0  0  0  3  0  0  0  0  0  0
  3  4  1  0  0  0  0
  5 11  1  0  0  0  0
  6  5  1  0  0  0  0
  7 16  1  0  0  0  0
  8  7  1  0  0  0  0
  8  3  1  0  0  0  0
  9  8  2  0  0  0  0
 10  9  1  0  0  0  0
 11 12  2  0  0  0  0
 11  9  1  0  0  0  0
 12 14  1  0  0  0  0
 13 12  1  0  0  0  0
 14 15  1  0  0  0  0
 14  7  2  0  0  0  0
 16  2  1  0  0  0  0
 16  1  1  0  0  0  0
M  CHG  2   1  -1   2  -1
M  END
