1,4
q = -1.0, confidence = 0.002

 17 16  0  0  1  0  0  0  0  0999 V2000
   -0.7331   -0.5479    0.0001 O   0  0  0  0  0  1  0  0  0  0  0  0
   -3.9773    0.8094    0.0003 O   0  0  0  0  0  0  0  0  0  0  0  0
   -3.2048   -1.3240   -0.0001 O   0  0  0  0  0  0  0  0  0  0  0  0
    1.0708    1.7139   -0.0001 O   0  5  0  0  0  0  0  0  0  0  0  0
   -1.5798    0.4133    0.0001 C   0  0  1  0  0  3  0  0  0  0  0  0
   -1.3257    1.7931    0.0000 C   0  0  0  0  0  0  0  0  0  0  0  0
   -2.2055    2.4487   -0.0000 H   0  0  0  0  0  0  0  0  0  0  0  0
   -3.0570    0.0112    0.0001 C   0  0  0  0  0  0  0  0  0  0  0  0
    0.1195    3.8696    0.0001 C   0  0  0  0  0  0  0  0  0  0  0  0
   -0.8521    4.3948   -0.0012 H   0  0  0  0  0  0  0  0  0  0  0  0
    0.7048    4.1787    0.8900 H   0  0  0  0  0  0  0  0  0  0  0  0
    0.7071    4.1786   -0.8884 H   0  0  0  0  0  0  0  0  0  0  0  0
   -0.0339    2.3688   -0.0000 C   0  0  0  0  0  0  0  0  0  0  0  0
   -4.5618   -1.7848   -0.0004 C   0  0  0  0  0  0  0  0  0  0  0  0
   -4.5099   -2.8875   -0.0052 H   0  0  0  0  0  0  0  0  0  0  0  0
   -5.0987   -1.4237    0.9000 H   0  0  0  0  0  0  0  0  0  0  0  0
   -5.1012   -1.4156   -0.8959 H   0  0  0  0  0  0  0  0  0  0  0  0
  3  8  1  0  0  0  0
  4 13  1  0  0  0  0
  5  8  1  0  0  0  0
  5  1  1  6  0  0  0
  6  5  1  0  0  0  0
  7  6  1  0  0  0  0
  8  2  2  0  0  0  0
  9 11  1  0  0  0  0
 10  9  1  0  0  0  0
 12  9  1  0  0  0  0
 13  6  2  0  0  0  0
 13  9  1  0  0  0  0
 14  3  1  0  0  0  0
 14 16  1  0  0  0  0
 15 14  1  0  0  0  0
 17 14  1  0  0  0  0
M  CHG  1   4  -1
M  END
