2,3
q = -1.0

 11 11  0  0  0  0  0  0  0  0999 V2000
    5.1822   -0.3509    0.7366 S   0  0  0  0  0  0  0  0  0  0  0  0
    1.8284   -0.1117   -1.3590 O   0  5  0  0  0  0  0  0  0  0  0  0
    2.2794    0.3554    0.7971 O   0  5  0  0  0  0  0  0  0  0  0  0
    2.6335   -0.0334   -0.3592 C   0  0  0  0  0  3  0  0  0  0  0  0
    4.0448   -0.4195   -0.5817 C   0  0  0  0  0  0  0  0  0  0  0  0
    6.4610   -0.9182   -0.2767 C   0  0  0  0  0  0  0  0  0  0  0  0
    7.4694   -1.0524    0.1350 H   0  0  0  0  0  0  0  0  0  0  0  0
    6.0339   -1.1521   -1.5754 C   0  0  0  0  0  0  0  0  0  0  0  0
    6.6971   -1.5165   -2.3722 H   0  0  0  0  0  0  0  0  0  0  0  0
    4.6503   -0.8666   -1.7488 C   0  0  0  0  0  0  0  0  0  0  0  0
    4.0865   -0.9738   -2.6848 H   0  0  0  0  0  0  0  0  0  0  0  0
  2  4  1  0  0  0  0
  4  3  1  0  0  0  0
  5  4  1  0  0  0  0
  5  1  1  0  0  0  0
  6  7  1  0  0  0  0
  6  1  1  0  0  0  0
  8  6  2  0  0  0  0
  9  8  1  0  0  0  0
 10  8  1  0  0  0  0
 10  5  2  0  0  0  0
 11 10  1  0  0  0  0
M  CHG  2   2  -1   3  -1
M  END
