1,3
q = -1.0, confidence = 0.008

 17 17  0  0  1  0  0  0  0  0999 V2000
   -1.5868   -0.5943    1.2343 O   0  0  0  0  0  1  0  0  0  0  0  0
   -2.2900   -2.7028    0.8460 O   0  0  0  0  0  0  0  0  0  0  0  0
   -1.4795    0.0779   -1.5724 O   0  5  0  0  0  0  0  0  0  0  0  0
   -2.4642    2.1048   -1.3873 O   0  0  0  0  0  0  0  0  0  0  0  0
   -1.2579   -2.9464    1.0693 H   0  0  0  0  0  0  0  0  0  0  0  0
   -2.4318   -1.4030    0.7996 C   0  0  1  0  0  3  0  0  0  0  0  0
   -3.7111   -0.9156    0.1951 C   0  0  0  0  0  0  0  0  0  0  0  0
   -4.9236   -1.5367    0.5495 C   0  0  0  0  0  0  0  0  0  0  0  0
   -4.8933   -2.4147    1.2116 H   0  0  0  0  0  0  0  0  0  0  0  0
   -6.1463   -1.0337    0.0840 C   0  0  0  0  0  0  0  0  0  0  0  0
   -7.0887   -1.5228    0.3741 H   0  0  0  0  0  0  0  0  0  0  0  0
   -6.1596    0.0990   -0.7450 C   0  0  0  0  0  0  0  0  0  0  0  0
   -7.1151    0.5061   -1.1104 H   0  0  0  0  0  0  0  0  0  0  0  0
   -4.9531    0.7102   -1.1137 C   0  0  0  0  0  0  0  0  0  0  0  0
   -4.9397    1.5965   -1.7653 H   0  0  0  0  0  0  0  0  0  0  0  0
   -3.7156    0.2068   -0.6721 C   0  0  0  0  0  0  0  0  0  0  0  0
   -2.4651    0.8834   -1.2177 C   0  0  0  0  0  0  0  0  0  0  0  0
  2  5  1  0  0  0  0
  3 17  1  0  0  0  0
  4 17  2  0  0  0  0
  6  2  1  0  0  0  0
  6  1  1  1  0  0  0
  7  8  1  0  0  0  0
  7  6  1  0  0  0  0
  8  9  1  0  0  0  0
 10 11  1  0  0  0  0
 10  8  2  0  0  0  0
 12 10  1  0  0  0  0
 13 12  1  0  0  0  0
 14 12  2  0  0  0  0
 14 16  1  0  0  0  0
 15 14  1  0  0  0  0
 16  7  2  0  0  0  0
 17 16  1  0  0  0  0
M  CHG  1   3  -1
M  END
