1,3
q = -1.0

 17 16  0  0  0  0  0  0  0  0999 V2000
   -0.0674    1.2000    0.0596 O   0  5  0  0  0  0  0  0  0  0  0  0
    0.7321    2.0355   -0.5078 C   0  0  0  0  0  3  0  0  0  0  0  0
    1.7861    1.5393   -1.0562 O   0  5  0  0  0  0  0  0  0  0  0  0
    0.5588    3.3315   -0.5662 O   0  0  0  0  0  0  0  0  0  0  0  0
   -0.5646    4.0637    0.1113 C   0  0  0  0  0  0  0  0  0  0  0  0
   -0.4714    3.8290    1.6185 C   0  0  0  0  0  0  0  0  0  0  0  0
    0.5324    4.1049    1.9972 H   0  0  0  0  0  0  0  0  0  0  0  0
   -0.6872    2.7753    1.8772 H   0  0  0  0  0  0  0  0  0  0  0  0
   -1.2156    4.4677    2.1330 H   0  0  0  0  0  0  0  0  0  0  0  0
   -1.8975    3.5994   -0.4730 C   0  0  0  0  0  0  0  0  0  0  0  0
   -1.8880    3.6771   -1.5783 H   0  0  0  0  0  0  0  0  0  0  0  0
   -2.7064    4.2550   -0.0955 H   0  0  0  0  0  0  0  0  0  0  0  0
   -2.1297    2.5600   -0.1779 H   0  0  0  0  0  0  0  0  0  0  0  0
   -0.2653    5.5156   -0.2518 C   0  0  0  0  0  0  0  0  0  0  0  0
    0.7304    5.8179    0.1257 H   0  0  0  0  0  0  0  0  0  0  0  0
   -1.0283    6.1790    0.1987 H   0  0  0  0  0  0  0  0  0  0  0  0
   -0.2819    5.6563   -1.3496 H   0  0  0  0  0  0  0  0  0  0  0  0
  2  1  1  0  0  0  0
  3  2  1  0  0  0  0
  4  2  1  0  0  0  0
  4  5  1  0  0  0  0
  5  6  1  0  0  0  0
  6  8  1  0  0  0  0
  6  7  1  0  0  0  0
  6  9  1  0  0  0  0
 10 13  1  0  0  0  0
 10 12  1  0  0  0  0
 10  5  1  0  0  0  0
 11 10  1  0  0  0  0
 14  5  1  0  0  0  0
 14 15  1  0  0  0  0
 14 16  1  0  0  0  0
 17 14  1  0  0  0  0
M  CHG  2   1  -1   3  -1
M  END
