7,8
q = -2.0, confidence = 0.714

 45 45  0  0  0  0  0  0  0  0999 V2000
   -1.9508   -3.2917   -0.9968 F   0  0  0  0  0  0  0  0  0  0  0  0
    0.2102   -3.5323   -1.0642 F   0  0  0  0  0  0  0  0  0  0  0  0
   -0.7339   -1.9265   -2.1907 F   0  0  0  0  0  0  0  0  0  0  0  0
    0.0340   -3.3985    1.6852 F   0  0  0  0  0  0  0  0  0  0  0  0
   -0.5879   -1.4912    2.5423 F   0  0  0  0  0  0  0  0  0  0  0  0
   -2.0701   -2.8462    1.6911 F   0  0  0  0  0  0  0  0  0  0  0  0
    0.7465   -1.2908    0.1592 O   0  0  0  0  0  1  0  0  0  0  0  0
    0.2159    1.1508    0.1140 O   0  5  0  0  0  0  0  0  0  0  0  0
   -0.6004   -1.6312    0.1717 C   0  0  0  0  0  0  0  0  0  0  0  0
   -0.7788   -2.6153   -1.0393 C   0  0  0  0  0  0  0  0  0  0  0  0
   -0.8194   -2.3600    1.5442 C   0  0  0  0  0  0  0  0  0  0  0  0
   -1.5698   -0.4456    0.0552 C   0  0  0  0  0  0  0  0  0  0  0  0
   -1.1011    0.8924    0.0496 C   0  0  0  0  0  0  0  0  0  0  0  0
   -2.0052    1.9925   -0.0376 C   0  0  0  0  0  0  0  0  0  0  0  0
   -3.3714    1.6912   -0.1173 C   0  0  0  0  0  0  0  0  0  0  0  0
   -4.0847    2.5224   -0.1865 H   0  0  0  0  0  0  0  0  0  0  0  0
   -3.8767    0.3739   -0.1162 C   0  0  0  0  0  0  0  0  0  0  0  0
   -2.9550   -0.6786   -0.0271 C   0  0  0  0  0  0  0  0  0  0  0  0
   -3.3133   -1.7119   -0.0207 H   0  0  0  0  0  0  0  0  0  0  0  0
   -1.4801    3.4417   -0.0480 C   0  0  0  0  0  0  0  0  0  0  0  0
   -0.7026    3.7295    1.2597 C   0  0  0  0  0  0  0  0  0  0  0  0
    0.1627    3.0533    1.3851 H   0  0  0  0  0  0  0  0  0  0  0  0
   -1.3633    3.6110    2.1423 H   0  0  0  0  0  0  0  0  0  0  0  0
   -0.3291    4.7749    1.2525 H   0  0  0  0  0  0  0  0  0  0  0  0
   -0.5614    3.6591   -1.2756 C   0  0  0  0  0  0  0  0  0  0  0  0
   -1.1138    3.4664   -2.2176 H   0  0  0  0  0  0  0  0  0  0  0  0
    0.3232    2.9976   -1.2542 H   0  0  0  0  0  0  0  0  0  0  0  0
   -0.2072    4.7110   -1.2969 H   0  0  0  0  0  0  0  0  0  0  0  0
   -2.6329    4.4585   -0.1411 C   0  0  0  0  0  0  0  0  0  0  0  0
   -3.2205    4.3388   -1.0738 H   0  0  0  0  0  0  0  0  0  0  0  0
   -2.2160    5.4854   -0.1417 H   0  0  0  0  0  0  0  0  0  0  0  0
   -3.3269    4.3827    0.7204 H   0  0  0  0  0  0  0  0  0  0  0  0
   -5.3927    0.1339   -0.2116 C   0  0  0  0  0  0  0  0  0  0  0  0
   -5.9191    0.7381   -1.5334 C   0  0  0  0  0  0  0  0  0  0  0  0
   -5.4318    0.2615   -2.4078 H   0  0  0  0  0  0  0  0  0  0  0  0
   -5.7276    1.8281   -1.5930 H   0  0  0  0  0  0  0  0  0  0  0  0
   -7.0145    0.5835   -1.6211 H   0  0  0  0  0  0  0  0  0  0  0  0
   -5.7417   -1.3643   -0.1870 C   0  0  0  0  0  0  0  0  0  0  0  0
   -5.4064   -1.8503    0.7513 H   0  0  0  0  0  0  0  0  0  0  0  0
   -5.2864   -1.9083   -1.0389 H   0  0  0  0  0  0  0  0  0  0  0  0
   -6.8403   -1.4948   -0.2566 H   0  0  0  0  0  0  0  0  0  0  0  0
   -6.0919    0.8189    0.9848 C   0  0  0  0  0  0  0  0  0  0  0  0
   -5.7288    0.4028    1.9462 H   0  0  0  0  0  0  0  0  0  0  0  0
   -7.1894    0.6629    0.9330 H   0  0  0  0  0  0  0  0  0  0  0  0
   -5.9085    1.9117    0.9991 H   0  0  0  0  0  0  0  0  0  0  0  0
  2 10  1  0  0  0  0
  3 10  1  0  0  0  0
  7  9  1  0  0  0  0
  9 11  1  0  0  0  0
 10  1  1  0  0  0  0
 10  9  1  0  0  0  0
 11  4  1  0  0  0  0
 11  6  1  0  0  0  0
 11  5  1  0  0  0  0
 12  9  1  0  0  0  0
 13 12  1  0  0  0  0
 13  8  1  0  0  0  0
 14 13  2  0  0  0  0
 15 17  2  0  0  0  0
 15 14  1  0  0  0  0
 16 15  1  0  0  0  0
 17 18  1  0  0  0  0
 18 19  1  0  0  0  0
 18 12  2  0  0  0  0
 20 14  1  0  0  0  0
 20 21  1  0  0  0  0
 21 22  1  0  0  0  0
 21 23  1  0  0  0  0
 24 21  1  0  0  0  0
 25 27  1  0  0  0  0
 25 20  1  0  0  0  0
 26 25  1  0  0  0  0
 28 25  1  0  0  0  0
 29 20  1  0  0  0  0
 29 32  1  0  0  0  0
 30 29  1  0  0  0  0
 31 29  1  0  0  0  0
 33 38  1  0  0  0  0
 33 17  1  0  0  0  0
 33 42  1  0  0  0  0
 34 33  1  0  0  0  0
 35 34  1  0  0  0  0
 36 34  1  0  0  0  0
 37 34  1  0  0  0  0
 38 39  1  0  0  0  0
 40 38  1  0  0  0  0
 41 38  1  0  0  0  0
 42 45  1  0  0  0  0
 42 43  1  0  0  0  0
 44 42  1  0  0  0  0
M  CHG  1   8  -1
M  END
