1,4
q = -1.0

 11 11  0  0  1  0  0  0  0  0999 V2000
   -1.4531    0.3097   -1.4949 O   0  5  0  0  0  0  0  0  0  0  0  0
   -2.2032    1.2224   -1.0117 C   0  0  0  0  0  0  0  0  0  0  0  0
   -1.9014    2.1104    0.1374 C   0  0  0  0  0  0  0  0  0  0  0  0
   -0.8784    2.1516    0.8445 O   0  5  0  0  0  0  0  0  0  0  0  0
   -3.3322    2.6925    0.0031 C   0  0  0  0  0  0  0  0  0  0  0  0
   -4.0350    3.4914    0.5921 O   0  0  0  0  0  0  0  0  0  0  0  0
   -3.5141    1.7545   -1.1453 C   0  0  2  0  0  3  0  0  0  0  0  0
   -4.6862    1.4622   -1.9930 C   0  0  0  0  0  0  0  0  0  0  0  0
   -5.3987    2.3103   -1.9864 H   0  0  0  0  0  0  0  0  0  0  0  0
   -5.2296    0.5660   -1.6138 H   0  0  0  0  0  0  0  0  0  0  0  0
   -4.3892    1.2238   -3.0342 H   0  0  0  0  0  0  0  0  0  0  0  0
  1  2  1  0  0  0  0
  2  3  2  0  0  0  0
  3  4  1  0  0  0  0
  5  3  1  0  0  0  0
  5  6  2  0  0  0  0
  7  8  1  1  0  0  0
  7  2  1  0  0  0  0
  7  5  1  0  0  0  0
  8  9  1  0  0  0  0
  8 10  1  0  0  0  0
 11  8  1  0  0  0  0
M  CHG  2   1  -1   4  -1
M  END
