1,2
q = -1.0

 34 33  0  0  1  0  0  0  0  0999 V2000
    1.9386    1.4375   -0.4504 O   0  0  0  0  0  1  0  0  0  0  0  0
    0.0538   -0.1753   -1.4259 O   0  5  0  0  0  0  0  0  0  0  0  0
    0.5646   -2.3409   -1.8283 N   0  0  0  0  0  0  0  0  0  0  0  0
    0.9245   -1.1068   -1.3425 C   0  0  0  0  0  0  0  0  0  0  0  0
    2.2397   -0.8931   -0.7967 C   0  0  0  0  0  0  0  0  0  0  0  0
    2.9532   -1.7193   -0.7652 H   0  0  0  0  0  0  0  0  0  0  0  0
    2.6793    0.3772   -0.4254 C   0  0  1  0  0  3  0  0  0  0  0  0
    4.1265    0.6409    0.0388 C   0  0  0  0  0  0  0  0  0  0  0  0
    4.9919   -0.6258    0.0869 C   0  0  0  0  0  0  0  0  0  0  0  0
    6.0126   -0.3696    0.4365 H   0  0  0  0  0  0  0  0  0  0  0  0
    5.0917   -1.0961   -0.9124 H   0  0  0  0  0  0  0  0  0  0  0  0
    4.5790   -1.3798    0.7877 H   0  0  0  0  0  0  0  0  0  0  0  0
    4.0541    1.2692    1.4477 C   0  0  0  0  0  0  0  0  0  0  0  0
    5.0671    1.5602    1.7932 H   0  0  0  0  0  0  0  0  0  0  0  0
    3.6300    0.5556    2.1831 H   0  0  0  0  0  0  0  0  0  0  0  0
    3.4087    2.1679    1.4348 H   0  0  0  0  0  0  0  0  0  0  0  0
    4.7459    1.6566   -0.9460 C   0  0  0  0  0  0  0  0  0  0  0  0
    5.7633    1.9468   -0.6124 H   0  0  0  0  0  0  0  0  0  0  0  0
    4.1174    2.5656   -1.0069 H   0  0  0  0  0  0  0  0  0  0  0  0
    4.8253    1.2239   -1.9642 H   0  0  0  0  0  0  0  0  0  0  0  0
    1.4591   -3.4937   -1.8167 C   0  0  0  0  0  0  0  0  0  0  0  0
    0.8222   -4.4024   -1.7918 H   0  0  0  0  0  0  0  0  0  0  0  0
    2.0292   -3.5058   -0.8657 H   0  0  0  0  0  0  0  0  0  0  0  0
    2.4070   -3.5471   -3.0172 C   0  0  0  0  0  0  0  0  0  0  0  0
    3.0411   -4.4558   -2.9785 H   0  0  0  0  0  0  0  0  0  0  0  0
    3.0709   -2.6600   -3.0353 H   0  0  0  0  0  0  0  0  0  0  0  0
    1.8412   -3.5658   -3.9706 H   0  0  0  0  0  0  0  0  0  0  0  0
   -0.7490   -2.5159   -2.4498 C   0  0  0  0  0  0  0  0  0  0  0  0
   -0.6185   -3.1561   -3.3490 H   0  0  0  0  0  0  0  0  0  0  0  0
   -1.0882   -1.5208   -2.7934 H   0  0  0  0  0  0  0  0  0  0  0  0
   -1.7849   -3.1194   -1.5004 C   0  0  0  0  0  0  0  0  0  0  0  0
   -2.7494   -3.2735   -2.0256 H   0  0  0  0  0  0  0  0  0  0  0  0
   -1.9604   -2.4340   -0.6471 H   0  0  0  0  0  0  0  0  0  0  0  0
   -1.4583   -4.1032   -1.1036 H   0  0  0  0  0  0  0  0  0  0  0  0
  2  4  1  0  0  0  0
  3 21  1  0  0  0  0
  3  4  1  0  0  0  0
  4  5  2  0  0  0  0
  5  6  1  0  0  0  0
  5  7  1  0  0  0  0
  7  1  1  6  0  0  0
  7  8  1  0  0  0  0
  8  9  1  0  0  0  0
  8 13  1  0  0  0  0
  9 10  1  0  0  0  0
  9 12  1  0  0  0  0
 11  9  1  0  0  0  0
 13 14  1  0  0  0  0
 13 15  1  0  0  0  0
 16 13  1  0  0  0  0
 17 18  1  0  0  0  0
 17  8  1  0  0  0  0
 19 17  1  0  0  0  0
 20 17  1  0  0  0  0
 21 22  1  0  0  0  0
 21 23  1  0  0  0  0
 24 25  1  0  0  0  0
 24 21  1  0  0  0  0
 26 24  1  0  0  0  0
 27 24  1  0  0  0  0
 28  3  1  0  0  0  0
 28 31  1  0  0  0  0
 29 28  1  0  0  0  0
 30 28  1  0  0  0  0
 31 34  1  0  0  0  0
 31 33  1  0  0  0  0
 32 31  1  0  0  0  0
M  CHG  1   2  -1
M  END
