1,2
q = -1.0

 19 18  0  0  1  0  0  0  0  0999 V2000
   -0.9267   -1.5297   -0.0607 O   0  0  0  0  0  1  0  0  0  0  0  0
   -0.8755    1.1280   -0.1559 O   0  0  0  0  0  1  0  0  0  0  0  0
   -2.1382   -1.4296    0.2063 C   0  0  2  0  0  3  0  0  0  0  0  0
   -2.7173   -0.1461    0.7289 C   0  0  0  0  0  0  0  0  0  0  0  0
   -2.3070   -0.0287    1.7586 H   0  0  0  0  0  0  0  0  0  0  0  0
   -3.8201   -0.2062    0.7962 H   0  0  0  0  0  0  0  0  0  0  0  0
   -2.2910    1.1087   -0.0913 C   0  0  0  0  0  0  0  0  0  0  0  0
   -3.0284   -2.6159    0.0128 C   0  0  0  0  0  0  0  0  0  0  0  0
   -2.4445   -3.5010   -0.2950 H   0  0  0  0  0  0  0  0  0  0  0  0
   -3.7880   -2.3714   -0.7607 H   0  0  0  0  0  0  0  0  0  0  0  0
   -3.5917   -2.8240    0.9464 H   0  0  0  0  0  0  0  0  0  0  0  0
   -2.8371    1.0432   -1.5246 C   0  0  0  0  0  0  0  0  0  0  0  0
   -2.5135    1.9389   -2.0888 H   0  0  0  0  0  0  0  0  0  0  0  0
   -3.9449    1.0094   -1.5230 H   0  0  0  0  0  0  0  0  0  0  0  0
   -2.4453    0.1552   -2.0593 H   0  0  0  0  0  0  0  0  0  0  0  0
   -2.7448    2.3780    0.6366 C   0  0  0  0  0  0  0  0  0  0  0  0
   -2.2958    2.4195    1.6477 H   0  0  0  0  0  0  0  0  0  0  0  0
   -3.8485    2.4089    0.7293 H   0  0  0  0  0  0  0  0  0  0  0  0
   -2.4125    3.2692    0.0699 H   0  0  0  0  0  0  0  0  0  0  0  0
  2  7  1  0  0  0  0
  3  1  1  1  0  0  0
  3  4  1  0  0  0  0
  4  6  1  0  0  0  0
  4  5  1  0  0  0  0
  7 16  1  0  0  0  0
  7  4  1  0  0  0  0
  8  3  1  0  0  0  0
  8 11  1  0  0  0  0
  9  8  1  0  0  0  0
 10  8  1  0  0  0  0
 12 14  1  0  0  0  0
 12  7  1  0  0  0  0
 13 12  1  0  0  0  0
 15 12  1  0  0  0  0
 16 18  1  0  0  0  0
 16 17  1  0  0  0  0
 19 16  1  0  0  0  0
M  END
