1,2
q = -1.0

 27 28  0  0  0  0  0  0  0  0999 V2000
    1.1240   -0.8070   -0.0147 O   0  5  0  0  0  0  0  0  0  0  0  0
    0.4963   -0.2688    2.0460 O   0  5  0  0  0  0  0  0  0  0  0  0
    4.2124    1.3952    0.5707 O   0  0  0  0  0  0  0  0  0  0  0  0
    4.6013    2.2234   -1.4908 O   0  0  0  0  0  0  0  0  0  0  0  0
    4.7938    2.9852   -0.9023 H   0  0  0  0  0  0  0  0  0  0  0  0
    1.3901   -0.7016    1.2350 C   0  0  0  0  0  3  0  0  0  0  0  0
    2.7341   -1.0883    1.7557 C   0  0  0  0  0  0  0  0  0  0  0  0
    2.9082   -1.1809    3.1512 C   0  0  0  0  0  0  0  0  0  0  0  0
    2.0432   -0.9532    3.7903 H   0  0  0  0  0  0  0  0  0  0  0  0
    4.1417   -1.5418    3.7028 C   0  0  0  0  0  0  0  0  0  0  0  0
    4.2607   -1.6132    4.7942 H   0  0  0  0  0  0  0  0  0  0  0  0
    5.2254   -1.8083    2.8522 C   0  0  0  0  0  0  0  0  0  0  0  0
    6.2023   -2.0942    3.2705 H   0  0  0  0  0  0  0  0  0  0  0  0
    5.0690   -1.7030    1.4632 C   0  0  0  0  0  0  0  0  0  0  0  0
    5.9233   -1.8976    0.7974 H   0  0  0  0  0  0  0  0  0  0  0  0
    3.8335   -1.3382    0.8943 C   0  0  0  0  0  0  0  0  0  0  0  0
    3.7536   -1.2664   -0.5984 C   0  0  0  0  0  0  0  0  0  0  0  0
    3.5077   -2.4572   -1.3091 C   0  0  0  0  0  0  0  0  0  0  0  0
    3.3202   -3.3785   -0.7382 H   0  0  0  0  0  0  0  0  0  0  0  0
    3.4908   -2.4815   -2.7088 C   0  0  0  0  0  0  0  0  0  0  0  0
    3.2928   -3.4271   -3.2362 H   0  0  0  0  0  0  0  0  0  0  0  0
    3.7365   -1.3057   -3.4366 C   0  0  0  0  0  0  0  0  0  0  0  0
    3.7370   -1.3206   -4.5367 H   0  0  0  0  0  0  0  0  0  0  0  0
    4.0046   -0.1173   -2.7513 C   0  0  0  0  0  0  0  0  0  0  0  0
    4.2256    0.8050   -3.3055 H   0  0  0  0  0  0  0  0  0  0  0  0
    4.0132   -0.0802   -1.3379 C   0  0  0  0  0  0  0  0  0  0  0  0
    4.2790    1.2044   -0.6311 C   0  0  0  0  0  0  0  0  0  0  0  0
  1  6  1  0  0  0  0
  4  5  1  0  0  0  0
  4 27  1  0  0  0  0
  6  7  1  0  0  0  0
  6  2  1  0  0  0  0
  7  8  1  0  0  0  0
  8 10  2  0  0  0  0
  8  9  1  0  0  0  0
 10 11  1  0  0  0  0
 12 13  1  0  0  0  0
 12 10  1  0  0  0  0
 14 12  2  0  0  0  0
 15 14  1  0  0  0  0
 16 14  1  0  0  0  0
 16  7  2  0  0  0  0
 17 16  1  0  0  0  0
 18 19  1  0  0  0  0
 18 17  1  0  0  0  0
 20 18  2  0  0  0  0
 21 20  1  0  0  0  0
 22 24  2  0  0  0  0
 22 20  1  0  0  0  0
 23 22  1  0  0  0  0
 24 26  1  0  0  0  0
 25 24  1  0  0  0  0
 26 27  1  0  0  0  0
 26 17  2  0  0  0  0
 27  3  2  0  0  0  0
M  CHG  2   1  -1   2  -1
M  END
