2,3
q = -1.0

 31 33  0  0  1  0  0  0  0  0999 V2000
    3.9119    2.1646    0.4937 S   0  0  0  0  0  0  0  0  0  0  0  0
   -1.1140   -0.4112   -0.4116 O   0  5  0  0  0  0  0  0  0  0  0  0
    1.7147    0.2670    0.1323 O   0  0  0  0  0  1  0  0  0  0  0  0
   -2.3453    1.5462   -0.0009 N   0  0  0  0  0  0  0  0  0  0  0  0
   -2.1164    2.8634    0.3306 N   0  0  0  0  0  0  0  0  0  0  0  0
   -1.1608    0.8405   -0.1470 C   0  0  0  0  0  0  0  0  0  0  0  0
   -0.1076    1.8116    0.0441 C   0  0  0  0  0  0  0  0  0  0  0  0
    1.2769    1.4711    0.0125 C   0  0  1  0  0  3  0  0  0  0  0  0
   -0.8071    3.0457    0.3495 C   0  0  0  0  0  0  0  0  0  0  0  0
   -0.2814    4.3844    0.7707 C   0  0  0  0  0  0  0  0  0  0  0  0
   -0.0020    5.0219   -0.0922 H   0  0  0  0  0  0  0  0  0  0  0  0
    0.6193    4.2870    1.4062 H   0  0  0  0  0  0  0  0  0  0  0  0
   -1.0741    4.9124    1.3331 H   0  0  0  0  0  0  0  0  0  0  0  0
   -3.6832    1.0791   -0.0764 C   0  0  0  0  0  0  0  0  0  0  0  0
   -4.7203    1.9374    0.3482 C   0  0  0  0  0  0  0  0  0  0  0  0
   -4.4532    2.9351    0.7180 H   0  0  0  0  0  0  0  0  0  0  0  0
   -6.0503    1.5064    0.2860 C   0  0  0  0  0  0  0  0  0  0  0  0
   -6.8501    2.1847    0.6210 H   0  0  0  0  0  0  0  0  0  0  0  0
   -6.3679    0.2257   -0.1950 C   0  0  0  0  0  0  0  0  0  0  0  0
   -7.4150   -0.1088   -0.2401 H   0  0  0  0  0  0  0  0  0  0  0  0
   -5.3327   -0.6201   -0.6206 C   0  0  0  0  0  0  0  0  0  0  0  0
   -5.5650   -1.6245   -1.0066 H   0  0  0  0  0  0  0  0  0  0  0  0
   -3.9938   -0.2067   -0.5695 C   0  0  0  0  0  0  0  0  0  0  0  0
   -3.1875   -0.8670   -0.9064 H   0  0  0  0  0  0  0  0  0  0  0  0
    2.3225    2.4878   -0.1614 C   0  0  0  0  0  0  0  0  0  0  0  0
    2.3191    3.6719   -0.8939 C   0  0  0  0  0  0  0  0  0  0  0  0
    1.4369    4.0230   -1.4429 H   0  0  0  0  0  0  0  0  0  0  0  0
    3.5827    4.3238   -0.8986 C   0  0  0  0  0  0  0  0  0  0  0  0
    3.7898    5.2666   -1.4229 H   0  0  0  0  0  0  0  0  0  0  0  0
    4.5369    3.6274   -0.1727 C   0  0  0  0  0  0  0  0  0  0  0  0
    5.5851    3.9020   -0.0001 H   0  0  0  0  0  0  0  0  0  0  0  0
  2  6  1  0  0  0  0
  4  5  1  0  0  0  0
  5  9  2  0  0  0  0
  6  4  1  0  0  0  0
  6  7  2  0  0  0  0
  7  9  1  0  0  0  0
  8  7  1  0  0  0  0
  8  3  1  1  0  0  0
  9 10  1  0  0  0  0
 10 13  1  0  0  0  0
 10 12  1  0  0  0  0
 11 10  1  0  0  0  0
 14  4  1  0  0  0  0
 14 15  1  0  0  0  0
 15 16  1  0  0  0  0
 17 15  2  0  0  0  0
 17 18  1  0  0  0  0
 19 17  1  0  0  0  0
 20 19  1  0  0  0  0
 21 23  1  0  0  0  0
 21 19  2  0  0  0  0
 22 21  1  0  0  0  0
 23 14  2  0  0  0  0
 24 23  1  0  0  0  0
 25  8  1  0  0  0  0
 25  1  1  0  0  0  0
 26 25  2  0  0  0  0
 27 26  1  0  0  0  0
 28 26  1  0  0  0  0
 28 30  2  0  0  0  0
 29 28  1  0  0  0  0
 30 31  1  0  0  0  0
 30  1  1  0  0  0  0
M  CHG  1   2  -1
M  END
