3,4
q = 0.0, confidence = 0.922

 68 71  0  0  1  0  0  0  0  0999 V2000
    1.2025    0.3259    0.5452 P   0  0  2  0  0  4  0  0  0  0  0  0
   -2.1881   -0.2759   -0.0626 P   0  0  0  0  0  4  0  0  0  0  0  0
   -1.8196   -1.6770   -0.5947 O   0  0  0  0  0  1  0  0  0  0  0  0
    0.6144   -0.2303   -0.7697 O   0  0  0  0  0  1  0  0  0  0  0  0
    2.5541   -0.3817    1.2135 N   0  0  0  0  0  0  0  0  0  0  0  0
   -1.4629    0.1071    1.5992 C   0  0  0  0  0  0  0  0  0  0  0  0
   -0.0687    0.2333    1.8640 C   0  0  0  0  0  0  0  0  0  0  0  0
    1.6308    2.0708    0.2769 C   0  0  0  0  0  0  0  0  0  0  0  0
   -1.8439    1.0895   -1.2115 C   0  0  0  0  0  0  0  0  0  0  0  0
    1.5622    2.5567   -1.0426 C   0  0  0  0  0  0  0  0  0  0  0  0
    1.2371    1.8766   -1.8441 H   0  0  0  0  0  0  0  0  0  0  0  0
   -4.6151   -1.5488    0.3067 C   0  0  0  0  0  0  0  0  0  0  0  0
   -3.9909   -2.4525    0.2415 H   0  0  0  0  0  0  0  0  0  0  0  0
   -2.3581    0.1227    2.6904 C   0  0  0  0  0  0  0  0  0  0  0  0
   -3.4358    0.0096    2.5073 H   0  0  0  0  0  0  0  0  0  0  0  0
   -4.0009   -0.2863    0.1787 C   0  0  0  0  0  0  0  0  0  0  0  0
    2.0231    2.9237    1.3285 C   0  0  0  0  0  0  0  0  0  0  0  0
    2.0696    2.5464    2.3612 H   0  0  0  0  0  0  0  0  0  0  0  0
    0.3741    0.3513    3.1956 C   0  0  0  0  0  0  0  0  0  0  0  0
    1.4571    0.3975    3.3833 H   0  0  0  0  0  0  0  0  0  0  0  0
   -4.7828    0.8852    0.2218 C   0  0  0  0  0  0  0  0  0  0  0  0
   -4.3144    1.8720    0.0934 H   0  0  0  0  0  0  0  0  0  0  0  0
   -6.0022   -1.6336    0.4955 C   0  0  0  0  0  0  0  0  0  0  0  0
   -6.4798   -2.6203    0.5922 H   0  0  0  0  0  0  0  0  0  0  0  0
    3.9625   -0.0665    0.9129 C   0  0  2  0  0  0  0  0  0  0  0  0
    3.9824    0.9850    0.5527 H   0  0  0  0  0  0  0  0  0  0  0  0
    2.3521    4.2583    1.0553 C   0  0  0  0  0  0  0  0  0  0  0  0
    2.6587    4.9258    1.8747 H   0  0  0  0  0  0  0  0  0  0  0  0
    4.5695   -0.9359   -0.2434 C   0  0  0  0  0  0  0  0  0  0  0  0
   -1.5709    0.7645   -2.5555 C   0  0  0  0  0  0  0  0  0  0  0  0
   -1.4621   -0.2903   -2.8548 H   0  0  0  0  0  0  0  0  0  0  0  0
   -1.6880    3.4591   -1.7287 C   0  0  0  0  0  0  0  0  0  0  0  0
   -1.7117    4.5094   -1.4020 H   0  0  0  0  0  0  0  0  0  0  0  0
   -1.8864    2.4327   -0.7922 C   0  0  0  0  0  0  0  0  0  0  0  0
   -2.0459    2.6808    0.2692 H   0  0  0  0  0  0  0  0  0  0  0  0
   -1.9027    0.2625    4.0096 C   0  0  0  0  0  0  0  0  0  0  0  0
   -2.6281    0.2706    4.8368 H   0  0  0  0  0  0  0  0  0  0  0  0
   -6.7789   -0.4653    0.5524 C   0  0  0  0  0  0  0  0  0  0  0  0
   -7.8677   -0.5345    0.6974 H   0  0  0  0  0  0  0  0  0  0  0  0
   -1.3671    1.7976   -3.4801 C   0  0  0  0  0  0  0  0  0  0  0  0
   -1.1400    1.5484   -4.5276 H   0  0  0  0  0  0  0  0  0  0  0  0
    4.7363   -0.1204    2.2362 C   0  0  0  0  0  0  0  0  0  0  0  0
    5.7917    0.1868    2.1119 H   0  0  0  0  0  0  0  0  0  0  0  0
    4.2660    0.5620    2.9717 H   0  0  0  0  0  0  0  0  0  0  0  0
    4.7239   -1.1414    2.6688 H   0  0  0  0  0  0  0  0  0  0  0  0
    1.8957    3.8930   -1.3084 C   0  0  0  0  0  0  0  0  0  0  0  0
    1.8394    4.2723   -2.3398 H   0  0  0  0  0  0  0  0  0  0  0  0
    2.2906    4.7423   -0.2633 C   0  0  0  0  0  0  0  0  0  0  0  0
    2.5510    5.7907   -0.4744 H   0  0  0  0  0  0  0  0  0  0  0  0
   -0.5309    0.3683    4.2655 C   0  0  0  0  0  0  0  0  0  0  0  0
   -0.1595    0.4534    5.2978 H   0  0  0  0  0  0  0  0  0  0  0  0
    4.4943   -2.4386    0.0820 C   0  0  0  0  0  0  0  0  0  0  0  0
    5.0629   -2.6940    0.9998 H   0  0  0  0  0  0  0  0  0  0  0  0
    3.4484   -2.7859    0.2111 H   0  0  0  0  0  0  0  0  0  0  0  0
    4.9310   -3.0275   -0.7499 H   0  0  0  0  0  0  0  0  0  0  0  0
   -6.1691    0.7923    0.4120 C   0  0  0  0  0  0  0  0  0  0  0  0
   -6.7785    1.7082    0.4413 H   0  0  0  0  0  0  0  0  0  0  0  0
    6.0405   -0.5233   -0.4529 C   0  0  0  0  0  0  0  0  0  0  0  0
    6.6844   -0.8007    0.4052 H   0  0  0  0  0  0  0  0  0  0  0  0
    6.4513   -1.0302   -1.3492 H   0  0  0  0  0  0  0  0  0  0  0  0
    6.1359    0.5713   -0.6161 H   0  0  0  0  0  0  0  0  0  0  0  0
   -1.4377    3.1416   -3.0727 C   0  0  0  0  0  0  0  0  0  0  0  0
   -1.2785    3.9470   -3.8060 H   0  0  0  0  0  0  0  0  0  0  0  0
    3.8057   -0.6612   -1.5527 C   0  0  0  0  0  0  0  0  0  0  0  0
    3.7858    0.4247   -1.7857 H   0  0  0  0  0  0  0  0  0  0  0  0
    4.3041   -1.1763   -2.3984 H   0  0  0  0  0  0  0  0  0  0  0  0
    2.7616   -1.0244   -1.5355 H   0  0  0  0  0  0  0  0  0  0  0  0
    2.3479   -1.3751    1.4436 H   0  0  0  0  0  0  0  0  0  0  0  0
  1  4  1  6  0  0  0
  1  5  1  0  0  0  0
  1  7  1  0  0  0  0
  2 16  1  0  0  0  0
  2  6  1  0  0  0  0
  3  2  1  0  0  0  0
  5 68  1  0  0  0  0
  6  7  2  0  0  0  0
  6 14  1  0  0  0  0
  7 19  1  0  0  0  0
  8  1  1  0  0  0  0
  8 17  1  0  0  0  0
  9 34  1  0  0  0  0
  9  2  1  0  0  0  0
 10  8  2  0  0  0  0
 11 10  1  0  0  0  0
 12 23  1  0  0  0  0
 13 12  1  0  0  0  0
 14 36  2  0  0  0  0
 15 14  1  0  0  0  0
 16 21  1  0  0  0  0
 16 12  2  0  0  0  0
 17 18  1  0  0  0  0
 19 20  1  0  0  0  0
 19 50  2  0  0  0  0
 21 56  2  0  0  0  0
 22 21  1  0  0  0  0
 23 38  2  0  0  0  0
 23 24  1  0  0  0  0
 25 26  1  6  0  0  0
 25  5  1  0  0  0  0
 25 42  1  0  0  0  0
 27 17  2  0  0  0  0
 27 28  1  0  0  0  0
 29 52  1  0  0  0  0
 29 25  1  0  0  0  0
 30  9  2  0  0  0  0
 31 30  1  0  0  0  0
 32 33  1  0  0  0  0
 32 34  2  0  0  0  0
 34 35  1  0  0  0  0
 36 50  1  0  0  0  0
 36 37  1  0  0  0  0
 38 39  1  0  0  0  0
 40 62  2  0  0  0  0
 40 30  1  0  0  0  0
 41 40  1  0  0  0  0
 42 45  1  0  0  0  0
 42 44  1  0  0  0  0
 43 42  1  0  0  0  0
 46 10  1  0  0  0  0
 46 48  2  0  0  0  0
 47 46  1  0  0  0  0
 48 27  1  0  0  0  0
 49 48  1  0  0  0  0
 50 51  1  0  0  0  0
 52 54  1  0  0  0  0
 52 53  1  0  0  0  0
 55 52  1  0  0  0  0
 56 57  1  0  0  0  0
 56 38  1  0  0  0  0
 58 29  1  0  0  0  0
 58 59  1  0  0  0  0
 60 58  1  0  0  0  0
 61 58  1  0  0  0  0
 62 32  1  0  0  0  0
 63 62  1  0  0  0  0
 64 67  1  0  0  0  0
 64 29  1  0  0  0  0
 65 64  1  0  0  0  0
 66 64  1  0  0  0  0
M  END
