1,3
q = -1.0

 29 30  0  0  0  0  0  0  0  0999 V2000
   -0.2761    2.0981    1.3668 O   0  5  0  0  0  0  0  0  0  0  0  0
   -6.7916   -3.1463   -1.0417 F   0  0  0  0  0  0  0  0  0  0  0  0
   -1.5982    0.6127    0.3955 O   0  5  0  0  0  0  0  0  0  0  0  0
   -7.5119   -2.6313   -3.0326 F   0  0  0  0  0  0  0  0  0  0  0  0
   -5.3708   -2.8893   -2.6751 F   0  0  0  0  0  0  0  0  0  0  0  0
   -3.7445    1.4423   -0.8509 N   0  0  0  0  0  0  0  0  0  0  0  0
   -3.0400    0.7413   -0.5398 H   0  0  0  0  0  0  0  0  0  0  0  0
   -1.2584    1.8433    0.5919 C   0  0  0  0  0  3  0  0  0  0  0  0
   -3.2475    2.7288   -0.7598 C   0  0  0  0  0  0  0  0  0  0  0  0
   -3.8710    3.8462   -1.3743 C   0  0  0  0  0  0  0  0  0  0  0  0
   -4.7753    3.6950   -1.9772 H   0  0  0  0  0  0  0  0  0  0  0  0
   -2.0157    2.9482   -0.0525 C   0  0  0  0  0  0  0  0  0  0  0  0
   -6.4048   -0.9330   -1.7973 C   0  0  0  0  0  0  0  0  0  0  0  0
   -5.1478   -0.3783   -1.5344 C   0  0  0  0  0  0  0  0  0  0  0  0
   -4.2438   -0.9955   -1.6400 H   0  0  0  0  0  0  0  0  0  0  0  0
   -6.2027    1.7512   -1.0181 C   0  0  0  0  0  0  0  0  0  0  0  0
   -6.1457    2.7890   -0.6660 H   0  0  0  0  0  0  0  0  0  0  0  0
   -5.0212    0.9787   -1.1442 C   0  0  0  0  0  0  0  0  0  0  0  0
   -3.3209    5.1253   -1.2672 C   0  0  0  0  0  0  0  0  0  0  0  0
   -3.8257    5.9657   -1.7686 H   0  0  0  0  0  0  0  0  0  0  0  0
   -2.1314    5.3461   -0.5479 C   0  0  0  0  0  0  0  0  0  0  0  0
   -1.7054    6.3564   -0.4653 H   0  0  0  0  0  0  0  0  0  0  0  0
   -1.4914    4.2545    0.0417 C   0  0  0  0  0  0  0  0  0  0  0  0
   -0.5504    4.3750    0.5974 H   0  0  0  0  0  0  0  0  0  0  0  0
   -7.5724   -0.1535   -1.6976 C   0  0  0  0  0  0  0  0  0  0  0  0
   -8.5528   -0.5927   -1.9270 H   0  0  0  0  0  0  0  0  0  0  0  0
   -7.4526    1.1851   -1.3013 C   0  0  0  0  0  0  0  0  0  0  0  0
   -8.3557    1.8058   -1.1986 H   0  0  0  0  0  0  0  0  0  0  0  0
   -6.5159   -2.3987   -2.1433 C   0  0  0  0  0  0  0  0  0  0  0  0
  3  8  1  0  0  0  0
  4 29  1  0  0  0  0
  5 29  1  0  0  0  0
  6  9  1  0  0  0  0
  6  7  1  0  0  0  0
  8  1  1  0  0  0  0
  9 12  1  0  0  0  0
 10 19  1  0  0  0  0
 10  9  2  0  0  0  0
 11 10  1  0  0  0  0
 12 23  2  0  0  0  0
 12  8  1  0  0  0  0
 13 25  2  0  0  0  0
 13 14  1  0  0  0  0
 14 18  2  0  0  0  0
 15 14  1  0  0  0  0
 16 17  1  0  0  0  0
 18 16  1  0  0  0  0
 18  6  1  0  0  0  0
 19 21  2  0  0  0  0
 20 19  1  0  0  0  0
 21 22  1  0  0  0  0
 21 23  1  0  0  0  0
 23 24  1  0  0  0  0
 25 27  1  0  0  0  0
 26 25  1  0  0  0  0
 27 28  1  0  0  0  0
 27 16  2  0  0  0  0
 29 13  1  0  0  0  0
 29  2  1  0  0  0  0
M  CHG  2   1  -1   3  -1
M  END
