3,4
q = -1.0

 30 31  0  0  0  0  0  0  0  0999 V2000
    5.6885    3.1743   -0.2196 S   0  0  0  0  0  0  0  0  0  0  0  0
   -4.2751    4.5523    0.1018 S   0  0  0  0  0  0  0  0  0  0  0  0
    1.5958   -0.3955    0.1322 O   0  5  0  0  0  0  0  0  0  0  0  0
   -1.2837    0.0128    0.2548 O   0  5  0  0  0  0  0  0  0  0  0  0
    7.3988    2.9278   -0.2867 C   0  0  0  0  0  0  0  0  0  0  0  0
    8.0716    3.7927   -0.3384 H   0  0  0  0  0  0  0  0  0  0  0  0
    7.7311    1.5835   -0.2666 C   0  0  0  0  0  0  0  0  0  0  0  0
    8.7666    1.2188   -0.3026 H   0  0  0  0  0  0  0  0  0  0  0  0
    6.5870    0.7432   -0.1957 C   0  0  0  0  0  0  0  0  0  0  0  0
    6.6214   -0.3549   -0.1718 H   0  0  0  0  0  0  0  0  0  0  0  0
    5.3797    1.4463   -0.1630 C   0  0  0  0  0  0  0  0  0  0  0  0
    4.0545    0.8891   -0.0949 C   0  0  0  0  0  3  0  0  0  0  0  0
    4.0001   -0.2120   -0.0504 H   0  0  0  0  0  0  0  0  0  0  0  0
    2.8706    1.5666   -0.0902 C   0  0  0  0  0  0  0  0  0  0  0  0
    2.8523    2.6665   -0.1566 H   0  0  0  0  0  0  0  0  0  0  0  0
    1.5722    0.8858   -0.0189 C   0  0  0  0  0  0  0  0  0  0  0  0
    0.4095    1.6883   -0.0935 C   0  0  0  0  0  0  0  0  0  0  0  0
    0.5565    2.7679   -0.2317 H   0  0  0  0  0  0  0  0  0  0  0  0
   -0.9212    1.2376    0.0755 C   0  0  0  0  0  0  0  0  0  0  0  0
   -1.9868    2.2464    0.0819 C   0  0  0  0  0  0  0  0  0  0  0  0
   -1.6778    3.2989   -0.0243 H   0  0  0  0  0  0  0  0  0  0  0  0
   -3.3051    1.9142    0.1947 C   0  0  0  0  0  0  0  0  0  0  0  0
   -3.5432    0.8403    0.2815 H   0  0  0  0  0  0  0  0  0  0  0  0
   -4.4340    2.8063    0.2058 C   0  0  0  0  0  0  0  0  0  0  0  0
   -5.7832    2.4530    0.2948 C   0  0  0  0  0  0  0  0  0  0  0  0
   -6.1060    1.4050    0.3668 H   0  0  0  0  0  0  0  0  0  0  0  0
   -6.6639    3.5684    0.2775 C   0  0  0  0  0  0  0  0  0  0  0  0
   -7.7583    3.4950    0.3363 H   0  0  0  0  0  0  0  0  0  0  0  0
   -5.9886    4.7733    0.1763 C   0  0  0  0  0  0  0  0  0  0  0  0
   -6.4086    5.7861    0.1409 H   0  0  0  0  0  0  0  0  0  0  0  0
  1 11  1  0  0  0  0
  2 29  1  0  0  0  0
  2 24  1  0  0  0  0
  5  7  2  0  0  0  0
  5  1  1  0  0  0  0
  6  5  1  0  0  0  0
  7  9  1  0  0  0  0
  8  7  1  0  0  0  0
  9 10  1  0  0  0  0
  9 11  2  0  0  0  0
 11 12  1  0  0  0  0
 12 14  1  0  0  0  0
 12 13  1  0  0  0  0
 14 16  2  0  0  0  0
 15 14  1  0  0  0  0
 16  3  1  0  0  0  0
 17 16  1  0  0  0  0
 17 19  2  0  0  0  0
 18 17  1  0  0  0  0
 19 20  1  0  0  0  0
 19  4  1  0  0  0  0
 20 22  2  0  0  0  0
 21 20  1  0  0  0  0
 22 24  1  0  0  0  0
 22 23  1  0  0  0  0
 24 25  2  0  0  0  0
 25 26  1  0  0  0  0
 27 25  1  0  0  0  0
 27 28  1  0  0  0  0
 29 27  2  0  0  0  0
 30 29  1  0  0  0  0
M  CHG  2   3  -1   4  -1
M  END
