1,2
q = -1.0, confidence = 0.01

 17 17  0  0  0  0  0  0  0  0999 V2000
   -0.4323   -0.6576    1.8580 O   0  5  0  0  0  0  0  0  0  0  0  0
   -0.8109   -0.9129   -0.3184 O   0  5  0  0  0  0  0  0  0  0  0  0
   -1.1133   -1.1403    0.9255 C   0  0  0  0  0  3  0  0  0  0  0  0
   -2.3140   -2.0385    1.2052 C   0  0  0  0  0  0  0  0  0  0  0  0
   -3.6085   -1.5240    0.6148 C   0  0  0  0  0  0  0  0  0  0  0  0
   -3.7722   -1.4053   -0.7819 C   0  0  0  0  0  0  0  0  0  0  0  0
   -4.9637   -0.8976   -1.3191 C   0  0  0  0  0  0  0  0  0  0  0  0
   -6.0150   -0.5024   -0.4731 C   0  0  0  0  0  0  0  0  0  0  0  0
   -5.8634   -0.6230    0.9166 C   0  0  0  0  0  0  0  0  0  0  0  0
   -4.6679   -1.1274    1.4534 C   0  0  0  0  0  0  0  0  0  0  0  0
   -2.3994   -2.1599    2.2999 H   0  0  0  0  0  0  0  0  0  0  0  0
   -2.0669   -3.0309    0.7706 H   0  0  0  0  0  0  0  0  0  0  0  0
   -2.9391   -1.6901   -1.4410 H   0  0  0  0  0  0  0  0  0  0  0  0
   -5.0777   -0.8137   -2.4116 H   0  0  0  0  0  0  0  0  0  0  0  0
   -6.9496   -0.1051   -0.8975 H   0  0  0  0  0  0  0  0  0  0  0  0
   -6.6788   -0.3174    1.5904 H   0  0  0  0  0  0  0  0  0  0  0  0
   -4.5473   -1.2059    2.5452 H   0  0  0  0  0  0  0  0  0  0  0  0
  2  3  1  0  0  0  0
  3  4  1  0  0  0  0
  3  1  1  0  0  0  0
  4 11  1  0  0  0  0
  5  4  1  0  0  0  0
  5 10  1  0  0  0  0
  6  5  2  0  0  0  0
  7  6  1  0  0  0  0
  7  8  2  0  0  0  0
  8  9  1  0  0  0  0
  9 10  2  0  0  0  0
  9 16  1  0  0  0  0
 10 17  1  0  0  0  0
 12  4  1  0  0  0  0
 13  6  1  0  0  0  0
 14  7  1  0  0  0  0
 15  8  1  0  0  0  0
M  CHG  2   1  -1   2  -1
M  END
