17,19
q = -2.0, confidence = 0.642

 30 31  0  0  0  0  0  0  0  0999 V2000
   -1.6084   -0.3556   -0.1779 N   0  0  0  0  0  0  0  0  0  0  0  0
   -2.9602   -0.0741   -0.2169 N   0  0  0  0  0  0  0  0  0  0  0  0
   -3.8536   -1.1808   -0.0938 C   0  0  0  0  0  0  0  0  0  0  0  0
   -3.9131   -2.1404   -1.1225 C   0  0  0  0  0  0  0  0  0  0  0  0
   -4.7584   -3.2513   -0.9859 C   0  0  0  0  0  0  0  0  0  0  0  0
   -5.5596   -3.3955    0.1584 C   0  0  0  0  0  0  0  0  0  0  0  0
   -5.5038   -2.4294    1.1776 C   0  0  0  0  0  0  0  0  0  0  0  0
   -4.6447   -1.3283    1.0621 C   0  0  0  0  0  0  0  0  0  0  0  0
   -3.3495    1.2686   -0.1474 C   0  0  0  0  0  0  0  0  0  0  0  0
   -4.7110    1.6313   -0.2852 C   0  0  0  0  0  0  0  0  0  0  0  0
   -5.0914    2.9770   -0.2319 C   0  0  0  0  0  0  0  0  0  0  0  0
   -4.1401    3.9950   -0.0511 C   0  0  0  0  0  0  0  0  0  0  0  0
   -2.7891    3.6370    0.0730 C   0  0  0  0  0  0  0  0  0  0  0  0
   -2.3911    2.2953    0.0275 C   0  0  0  0  0  0  0  0  0  0  0  0
   -1.0561   -0.5129    1.1366 C   0  0  0  0  0  0  0  0  0  0  0  0
   -0.9357   -0.3963   -1.4452 C   0  0  0  0  0  0  0  0  0  0  0  0
    0.2427   -0.7539    1.1700 O   0  5  0  0  0  0  0  0  0  0  0  0
   -1.7649   -0.4238    2.1232 O   0  0  0  0  0  0  0  0  0  0  0  0
    0.3786   -0.4875   -1.3737 O   0  5  0  0  0  0  0  0  0  0  0  0
   -1.5624   -0.3311   -2.4878 O   0  0  0  0  0  0  0  0  0  0  0  0
   -3.2998   -1.9828   -2.0214 H   0  0  0  0  0  0  0  0  0  0  0  0
   -4.8046   -4.0022   -1.7897 H   0  0  0  0  0  0  0  0  0  0  0  0
   -6.2290   -4.2635    0.2579 H   0  0  0  0  0  0  0  0  0  0  0  0
   -6.1207   -2.5457    2.0819 H   0  0  0  0  0  0  0  0  0  0  0  0
   -4.5551   -0.5833    1.8645 H   0  0  0  0  0  0  0  0  0  0  0  0
   -5.4669    0.8500   -0.4425 H   0  0  0  0  0  0  0  0  0  0  0  0
   -6.1566    3.2329   -0.3429 H   0  0  0  0  0  0  0  0  0  0  0  0
   -4.4479    5.0500   -0.0120 H   0  0  0  0  0  0  0  0  0  0  0  0
   -2.0221    4.4155    0.2129 H   0  0  0  0  0  0  0  0  0  0  0  0
   -1.3288    2.0399    0.1276 H   0  0  0  0  0  0  0  0  0  0  0  0
  1 15  1  0  0  0  0
  2  1  1  0  0  0  0
  2  9  1  0  0  0  0
  2  3  1  0  0  0  0
  3  8  1  0  0  0  0
  4  5  1  0  0  0  0
  4  3  2  0  0  0  0
  5  6  2  0  0  0  0
  6 23  1  0  0  0  0
  6  7  1  0  0  0  0
  7 24  1  0  0  0  0
  8  7  2  0  0  0  0
  8 25  1  0  0  0  0
  9 14  1  0  0  0  0
 10 11  1  0  0  0  0
 10  9  2  0  0  0  0
 11 12  2  0  0  0  0
 12 28  1  0  0  0  0
 12 13  1  0  0  0  0
 13 29  1  0  0  0  0
 14 13  2  0  0  0  0
 14 30  1  0  0  0  0
 15 17  1  0  0  0  0
 15 18  2  0  0  0  0
 16 19  1  0  0  0  0
 16  1  1  0  0  0  0
 20 16  2  0  0  0  0
 21  4  1  0  0  0  0
 22  5  1  0  0  0  0
 26 10  1  0  0  0  0
 27 11  1  0  0  0  0
M  CHG  2  17  -1  19  -1
M  END
