2,3
q = -1.0, confidence = 0.01

 14 14  0  0  0  0  0  0  0  0999 V2000
    7.1603   -0.0716    0.5740 Cl  0  0  0  0  0  0  0  0  0  0  0  0
    1.8297    0.2535    0.3476 O   0  5  0  0  0  0  0  0  0  0  0  0
    1.0699   -1.6706   -0.4563 O   0  5  0  0  0  0  0  0  0  0  0  0
    2.0491   -0.9231   -0.1118 C   0  0  0  0  0  3  0  0  0  0  0  0
    3.4510   -1.4175   -0.2482 C   0  0  0  0  0  0  0  0  0  0  0  0
    3.7031   -2.6868   -0.8043 C   0  0  0  0  0  0  0  0  0  0  0  0
    2.8510   -3.2988   -1.1314 H   0  0  0  0  0  0  0  0  0  0  0  0
    5.0229   -3.1388   -0.9314 C   0  0  0  0  0  0  0  0  0  0  0  0
    5.2286   -4.1286   -1.3660 H   0  0  0  0  0  0  0  0  0  0  0  0
    6.0946   -2.3373   -0.5079 C   0  0  0  0  0  0  0  0  0  0  0  0
    7.1342   -2.6816   -0.6021 H   0  0  0  0  0  0  0  0  0  0  0  0
    5.8303   -1.0721    0.0459 C   0  0  0  0  0  0  0  0  0  0  0  0
    4.5171   -0.6032    0.1793 C   0  0  0  0  0  0  0  0  0  0  0  0
    4.3066    0.3844    0.6111 H   0  0  0  0  0  0  0  0  0  0  0  0
  3  4  1  0  0  0  0
  4  2  1  0  0  0  0
  5  4  1  0  0  0  0
  5 13  1  0  0  0  0
  6  5  2  0  0  0  0
  7  6  1  0  0  0  0
  8  6  1  0  0  0  0
  8 10  2  0  0  0  0
  9  8  1  0  0  0  0
 10 12  1  0  0  0  0
 11 10  1  0  0  0  0
 12 13  2  0  0  0  0
 12  1  1  0  0  0  0
 13 14  1  0  0  0  0
M  CHG  2   2  -1   3  -1
M  END
