2,3
q = -1.0

 18 17  0  0  0  0  0  0  0  0999 V2000
   -3.2875   -1.6292   -0.3482 N   0  0  0  0  0  0  0  0  0  0  0  0
   -1.8471   -0.0014   -1.1053 O   0  5  0  0  0  0  0  0  0  0  0  0
   -1.3311   -1.1385    0.7522 O   0  5  0  0  0  0  0  0  0  0  0  0
   -2.1214   -0.9063   -0.2324 C   0  0  0  0  0  3  0  0  0  0  0  0
   -4.2139   -1.3317   -1.4331 C   0  0  0  0  0  0  0  0  0  0  0  0
   -5.2127   -0.2118   -1.1252 C   0  0  0  0  0  0  0  0  0  0  0  0
   -3.6149   -2.6239    0.6677 C   0  0  0  0  0  0  0  0  0  0  0  0
   -4.2393   -2.0496    1.9429 C   0  0  0  0  0  0  0  0  0  0  0  0
   -4.7532   -2.2695   -1.6876 H   0  0  0  0  0  0  0  0  0  0  0  0
   -3.6063   -1.0459   -2.3144 H   0  0  0  0  0  0  0  0  0  0  0  0
   -5.8634   -0.0135   -2.0019 H   0  0  0  0  0  0  0  0  0  0  0  0
   -4.6681    0.7233   -0.8852 H   0  0  0  0  0  0  0  0  0  0  0  0
   -5.8672   -0.4639   -0.2665 H   0  0  0  0  0  0  0  0  0  0  0  0
   -2.6775   -3.1534    0.9324 H   0  0  0  0  0  0  0  0  0  0  0  0
   -4.2988   -3.3651    0.2020 H   0  0  0  0  0  0  0  0  0  0  0  0
   -4.4515   -2.8576    2.6731 H   0  0  0  0  0  0  0  0  0  0  0  0
   -5.1895   -1.5171    1.7365 H   0  0  0  0  0  0  0  0  0  0  0  0
   -3.5327   -1.3406    2.4183 H   0  0  0  0  0  0  0  0  0  0  0  0
  1  4  1  0  0  0  0
  1  7  1  0  0  0  0
  2  4  1  0  0  0  0
  4  3  1  0  0  0  0
  5  6  1  0  0  0  0
  5  1  1  0  0  0  0
  6 12  1  0  0  0  0
  6 13  1  0  0  0  0
  7 14  1  0  0  0  0
  7  8  1  0  0  0  0
  8 18  1  0  0  0  0
  8 16  1  0  0  0  0
  9  5  1  0  0  0  0
 10  5  1  0  0  0  0
 11  6  1  0  0  0  0
 15  7  1  0  0  0  0
 17  8  1  0  0  0  0
M  CHG  2   2  -1   3  -1
M  END
