1,2
q = -1.0

 29 29  0  0  0  0  0  0  0  0999 V2000
    0.2303   -1.0155   -1.9655 O   0  0  0  0  0  1  0  0  0  0  0  0
   -1.4361   -0.8307    0.1178 O   0  5  0  0  0  0  0  0  0  0  0  0
   -0.5313   -0.1707   -2.4789 C   0  0  0  0  0  3  0  0  0  0  0  0
   -1.6902    0.4400   -1.8751 C   0  0  0  0  0  0  0  0  0  0  0  0
   -2.1094    0.0776   -0.5536 C   0  0  0  0  0  0  0  0  0  0  0  0
   -3.2519    0.7111    0.0339 C   0  0  0  0  0  0  0  0  0  0  0  0
   -3.9076    1.6741   -0.7435 C   0  0  0  0  0  0  0  0  0  0  0  0
   -3.5178    2.0517   -2.0575 C   0  0  0  0  0  0  0  0  0  0  0  0
   -2.4066    1.4205   -2.6078 C   0  0  0  0  0  0  0  0  0  0  0  0
   -3.7117    0.3334    1.4524 C   0  0  0  0  0  0  0  0  0  0  0  0
   -4.9403    1.1543    1.8835 C   0  0  0  0  0  0  0  0  0  0  0  0
   -4.0979   -1.1657    1.4870 C   0  0  0  0  0  0  0  0  0  0  0  0
   -2.5730    0.6087    2.4655 C   0  0  0  0  0  0  0  0  0  0  0  0
   -4.2997    3.1009   -2.8054 C   0  0  0  0  0  0  0  0  0  0  0  0
   -0.2945    0.1650   -3.5213 H   0  0  0  0  0  0  0  0  0  0  0  0
   -4.7862    2.1795   -0.3173 H   0  0  0  0  0  0  0  0  0  0  0  0
   -2.0629    1.6777   -3.6234 H   0  0  0  0  0  0  0  0  0  0  0  0
   -5.2424    0.8506    2.9053 H   0  0  0  0  0  0  0  0  0  0  0  0
   -5.8111    0.9855    1.2178 H   0  0  0  0  0  0  0  0  0  0  0  0
   -4.7267    2.2426    1.9106 H   0  0  0  0  0  0  0  0  0  0  0  0
   -4.4353   -1.4412    2.5073 H   0  0  0  0  0  0  0  0  0  0  0  0
   -3.2459   -1.8183    1.2222 H   0  0  0  0  0  0  0  0  0  0  0  0
   -4.9300   -1.3734    0.7840 H   0  0  0  0  0  0  0  0  0  0  0  0
   -2.9334    0.4033    3.4942 H   0  0  0  0  0  0  0  0  0  0  0  0
   -2.2508    1.6693    2.4216 H   0  0  0  0  0  0  0  0  0  0  0  0
   -1.6926   -0.0334    2.2821 H   0  0  0  0  0  0  0  0  0  0  0  0
   -5.3582    2.7949   -2.9412 H   0  0  0  0  0  0  0  0  0  0  0  0
   -3.8718    3.2915   -3.8083 H   0  0  0  0  0  0  0  0  0  0  0  0
   -4.3136    4.0641   -2.2535 H   0  0  0  0  0  0  0  0  0  0  0  0
  3  1  1  0  0  0  0
  3  4  1  0  0  0  0
  4  5  1  0  0  0  0
  5  6  2  0  0  0  0
  5  2  1  0  0  0  0
  6 10  1  0  0  0  0
  7 16  1  0  0  0  0
  7  6  1  0  0  0  0
  8  7  2  0  0  0  0
  9  8  1  0  0  0  0
  9  4  2  0  0  0  0
 10 12  1  0  0  0  0
 10 11  1  0  0  0  0
 10 13  1  0  0  0  0
 11 20  1  0  0  0  0
 11 18  1  0  0  0  0
 12 21  1  0  0  0  0
 13 24  1  0  0  0  0
 14 29  1  0  0  0  0
 14  8  1  0  0  0  0
 15  3  1  0  0  0  0
 17  9  1  0  0  0  0
 19 11  1  0  0  0  0
 22 12  1  0  0  0  0
 23 12  1  0  0  0  0
 25 13  1  0  0  0  0
 26 13  1  0  0  0  0
 27 14  1  0  0  0  0
 28 14  1  0  0  0  0
M  CHG  1   2  -1
M  END
