21,23
q = -1.0

 44 47  0  0  1  0  0  0  0  0999 V2000
    1.6515    2.6783    0.0466 N   0  0  0  0  0  0  0  0  0  0  0  0
    2.9412    3.2398   -0.1199 C   0  0  0  0  0  0  0  0  0  0  0  0
    4.1024    2.4400   -0.0766 C   0  0  0  0  0  0  0  0  0  0  0  0
    4.0096    1.3637    0.0985 H   0  0  0  0  0  0  0  0  0  0  0  0
    5.3587    3.0382   -0.2436 C   0  0  0  0  0  0  0  0  0  0  0  0
    6.2596    2.4063   -0.2033 H   0  0  0  0  0  0  0  0  0  0  0  0
    5.4776    4.4216   -0.4482 C   0  0  0  0  0  0  0  0  0  0  0  0
    6.4683    4.8824   -0.5780 H   0  0  0  0  0  0  0  0  0  0  0  0
    4.3171    5.2121   -0.4772 C   0  0  0  0  0  0  0  0  0  0  0  0
    4.3938    6.2997   -0.6291 H   0  0  0  0  0  0  0  0  0  0  0  0
    3.0530    4.6324   -0.3149 C   0  0  0  0  0  0  0  0  0  0  0  0
    2.1356    5.2345   -0.3232 H   0  0  0  0  0  0  0  0  0  0  0  0
    0.5917    3.5100    0.3567 N   0  0  0  0  0  0  0  0  0  0  0  0
   -0.4893    2.7534    0.4298 C   0  0  0  0  0  0  0  0  0  0  0  0
   -1.7827    3.3784    0.8520 C   0  0  0  0  0  0  0  0  0  0  0  0
   -1.5706    4.3750    1.2822 H   0  0  0  0  0  0  0  0  0  0  0  0
   -2.3021    2.7564    1.6072 H   0  0  0  0  0  0  0  0  0  0  0  0
   -2.4869    3.5097    0.0065 H   0  0  0  0  0  0  0  0  0  0  0  0
   -0.1670    1.3634    0.1675 C   0  0  0  0  0  0  0  0  0  0  0  0
    1.2572    1.3568   -0.0504 C   0  0  1  0  0  3  0  0  0  0  0  0
    2.0546    0.3996   -0.3404 O   0  0  0  0  0  1  0  0  0  0  0  0
   -0.9565    0.1886    0.1129 C   0  0  0  0  0  0  0  0  0  0  0  0
   -0.4740   -0.9989    0.0882 O   0  5  0  0  0  0  0  0  0  0  0  0
   -2.4450    0.2381    0.0524 C   0  0  0  0  0  0  0  0  0  0  0  0
   -3.1212    1.0642   -0.8674 C   0  0  0  0  0  0  0  0  0  0  0  0
   -2.5392    1.7003   -1.5506 H   0  0  0  0  0  0  0  0  0  0  0  0
   -4.5176    1.0450   -0.9443 C   0  0  0  0  0  0  0  0  0  0  0  0
   -5.0259    1.6665   -1.6965 H   0  0  0  0  0  0  0  0  0  0  0  0
   -5.2852    0.2118   -0.0978 C   0  0  0  0  0  0  0  0  0  0  0  0
   -4.5947   -0.6217    0.8140 C   0  0  0  0  0  0  0  0  0  0  0  0
   -5.1679   -1.2614    1.5014 H   0  0  0  0  0  0  0  0  0  0  0  0
   -3.1988   -0.6222    0.8785 C   0  0  0  0  0  0  0  0  0  0  0  0
   -2.6697   -1.2736    1.5895 H   0  0  0  0  0  0  0  0  0  0  0  0
   -6.7673    0.2081   -0.1686 C   0  0  0  0  0  0  0  0  0  0  0  0
   -7.5036   -0.9795    0.0470 C   0  0  0  0  0  0  0  0  0  0  0  0
   -6.9673   -1.9201    0.2434 H   0  0  0  0  0  0  0  0  0  0  0  0
   -8.9032   -0.9819   -0.0204 C   0  0  0  0  0  0  0  0  0  0  0  0
   -9.4548   -1.9206    0.1413 H   0  0  0  0  0  0  0  0  0  0  0  0
   -9.5998    0.2038   -0.3030 C   0  0  0  0  0  0  0  0  0  0  0  0
  -10.6991    0.2022   -0.3548 H   0  0  0  0  0  0  0  0  0  0  0  0
   -8.8833    1.3918   -0.5184 C   0  0  0  0  0  0  0  0  0  0  0  0
   -9.4199    2.3291   -0.7306 H   0  0  0  0  0  0  0  0  0  0  0  0
   -7.4836    1.3936   -0.4527 C   0  0  0  0  0  0  0  0  0  0  0  0
   -6.9337    2.3360   -0.5955 H   0  0  0  0  0  0  0  0  0  0  0  0
  1 13  1  0  0  0  0
  2  3  1  0  0  0  0
  2  1  1  0  0  0  0
  3  4  1  0  0  0  0
  5  6  1  0  0  0  0
  5  3  2  0  0  0  0
  7  5  1  0  0  0  0
  8  7  1  0  0  0  0
  9  7  2  0  0  0  0
  9 11  1  0  0  0  0
 10  9  1  0  0  0  0
 11  2  2  0  0  0  0
 12 11  1  0  0  0  0
 13 14  2  0  0  0  0
 14 15  1  0  0  0  0
 15 16  1  0  0  0  0
 15 17  1  0  0  0  0
 18 15  1  0  0  0  0
 19 14  1  0  0  0  0
 20 21  1  6  0  0  0
 20  1  1  0  0  0  0
 20 19  1  0  0  0  0
 22 19  2  0  0  0  0
 23 22  1  0  0  0  0
 24 22  1  0  0  0  0
 24 32  1  0  0  0  0
 25 24  2  0  0  0  0
 26 25  1  0  0  0  0
 27 25  1  0  0  0  0
 27 29  2  0  0  0  0
 28 27  1  0  0  0  0
 29 30  1  0  0  0  0
 30 32  2  0  0  0  0
 30 31  1  0  0  0  0
 32 33  1  0  0  0  0
 34 29  1  0  0  0  0
 34 35  1  0  0  0  0
 35 36  1  0  0  0  0
 37 35  2  0  0  0  0
 37 38  1  0  0  0  0
 39 37  1  0  0  0  0
 40 39  1  0  0  0  0
 41 43  1  0  0  0  0
 41 39  2  0  0  0  0
 42 41  1  0  0  0  0
 43 34  2  0  0  0  0
 44 43  1  0  0  0  0
M  CHG  1  23  -1
M  END
