3,4
q = -1.0

 34 35  0  0  1  0  0  0  0  0999 V2000
   -3.8625   -0.1177   -0.9242 S   0  0  0  0  0  0  0  0  0  0  0  0
   -2.8477   -0.8871    0.2037 N   0  0  0  0  0  0  0  0  0  0  0  0
    0.5904   -1.9473   -0.4235 O   0  5  0  0  0  0  0  0  0  0  0  0
    0.2938    0.8900   -0.5456 O   0  0  0  0  0  1  0  0  0  0  0  0
   -1.3490   -3.0389   -0.2412 O   0  0  0  0  0  0  0  0  0  0  0  0
   -3.4807   -0.5894   -2.2661 O   0  0  0  0  0  0  0  0  0  0  0  0
   -5.2579   -0.1870   -0.4455 O   0  0  0  0  0  0  0  0  0  0  0  0
   -3.2373   -0.7545    1.6225 C   0  0  0  0  0  0  0  0  0  0  0  0
   -4.3401   -0.8531    1.6610 H   0  0  0  0  0  0  0  0  0  0  0  0
   -2.9742    0.2635    2.0029 H   0  0  0  0  0  0  0  0  0  0  0  0
   -2.5722   -1.8087    2.5063 C   0  0  0  0  0  0  0  0  0  0  0  0
   -1.4689   -1.6917    2.4430 H   0  0  0  0  0  0  0  0  0  0  0  0
   -2.8172   -2.8148    2.1068 H   0  0  0  0  0  0  0  0  0  0  0  0
   -1.4634   -0.7054   -0.1074 C   0  0  0  0  0  0  0  0  0  0  0  0
   -0.9457    0.5862   -0.3521 C   0  0  2  0  0  3  0  0  0  0  0  0
   -1.4021    3.0583   -0.3234 C   0  0  0  0  0  0  0  0  0  0  0  0
   -0.3288    3.1978   -0.1327 H   0  0  0  0  0  0  0  0  0  0  0  0
   -2.2742    4.1504   -0.4182 C   0  0  0  0  0  0  0  0  0  0  0  0
   -1.8825    5.1720   -0.3018 H   0  0  0  0  0  0  0  0  0  0  0  0
   -3.6469    3.9486   -0.6471 C   0  0  0  0  0  0  0  0  0  0  0  0
   -4.3304    4.8090   -0.7061 H   0  0  0  0  0  0  0  0  0  0  0  0
   -4.1494    2.6471   -0.7948 C   0  0  0  0  0  0  0  0  0  0  0  0
   -5.2194    2.4537   -0.9605 H   0  0  0  0  0  0  0  0  0  0  0  0
   -3.2668    1.5651   -0.7134 C   0  0  0  0  0  0  0  0  0  0  0  0
   -1.8857    1.7408   -0.4610 C   0  0  0  0  0  0  0  0  0  0  0  0
   -0.6645   -1.8872   -0.2550 C   0  0  0  0  0  0  0  0  0  0  0  0
   -0.5892   -4.2456   -0.3395 C   0  0  0  0  0  0  0  0  0  0  0  0
   -0.0972   -4.3256   -1.3304 H   0  0  0  0  0  0  0  0  0  0  0  0
   -1.3176   -5.0663   -0.2146 H   0  0  0  0  0  0  0  0  0  0  0  0
    0.1879   -4.2925    0.4497 H   0  0  0  0  0  0  0  0  0  0  0  0
   -3.0141   -1.6782    3.9639 C   0  0  0  0  0  0  0  0  0  0  0  0
   -2.7473   -0.6834    4.3776 H   0  0  0  0  0  0  0  0  0  0  0  0
   -2.5262   -2.4423    4.6011 H   0  0  0  0  0  0  0  0  0  0  0  0
   -4.1122   -1.8007    4.0722 H   0  0  0  0  0  0  0  0  0  0  0  0
  1 24  1  0  0  0  0
  1  7  2  0  0  0  0
  1  2  1  0  0  0  0
  2  8  1  0  0  0  0
  3 26  1  0  0  0  0
  6  1  2  0  0  0  0
  8  9  1  0  0  0  0
  8 10  1  0  0  0  0
  8 11  1  0  0  0  0
 11 31  1  0  0  0  0
 12 11  1  0  0  0  0
 13 11  1  0  0  0  0
 14  2  1  0  0  0  0
 15  4  1  6  0  0  0
 15 14  1  0  0  0  0
 16 17  1  0  0  0  0
 18 16  1  0  0  0  0
 18 19  1  0  0  0  0
 20 18  2  0  0  0  0
 21 20  1  0  0  0  0
 22 24  2  0  0  0  0
 22 20  1  0  0  0  0
 23 22  1  0  0  0  0
 24 25  1  0  0  0  0
 25 15  1  0  0  0  0
 25 16  2  0  0  0  0
 26  5  1  0  0  0  0
 26 14  2  0  0  0  0
 27  5  1  0  0  0  0
 27 29  1  0  0  0  0
 27 30  1  0  0  0  0
 28 27  1  0  0  0  0
 31 34  1  0  0  0  0
 31 32  1  0  0  0  0
 31 33  1  0  0  0  0
M  CHG  1   3  -1
M  END
