3,4
q = -1.0

 31 32  0  0  1  0  0  0  0  0999 V2000
   -3.9745   -0.3329   -0.5836 S   0  0  0  0  0  0  0  0  0  0  0  0
   -2.8912   -0.9765    0.5588 N   0  0  0  0  0  0  0  0  0  0  0  0
    0.5456   -2.0014   -0.1328 O   0  5  0  0  0  0  0  0  0  0  0  0
    0.1595    0.8038   -0.4987 O   0  0  0  0  0  1  0  0  0  0  0  0
   -1.3490   -3.1202    0.2455 O   0  0  0  0  0  0  0  0  0  0  0  0
   -3.6362   -0.9075   -1.8967 O   0  0  0  0  0  0  0  0  0  0  0  0
   -5.3455   -0.3969   -0.0384 O   0  0  0  0  0  0  0  0  0  0  0  0
   -3.2298   -0.7373    1.9795 C   0  0  0  0  0  0  0  0  0  0  0  0
   -4.3230   -0.8852    2.0697 H   0  0  0  0  0  0  0  0  0  0  0  0
   -3.0064    0.3223    2.2537 H   0  0  0  0  0  0  0  0  0  0  0  0
   -2.4703   -1.6766    2.9082 C   0  0  0  0  0  0  0  0  0  0  0  0
   -2.6723   -2.7349    2.6530 H   0  0  0  0  0  0  0  0  0  0  0  0
   -2.7887   -1.4955    3.9543 H   0  0  0  0  0  0  0  0  0  0  0  0
   -1.3773   -1.4957    2.8540 H   0  0  0  0  0  0  0  0  0  0  0  0
   -1.5269   -0.7875    0.1729 C   0  0  0  0  0  0  0  0  0  0  0  0
   -1.0587    0.4890   -0.2119 C   0  0  2  0  0  3  0  0  0  0  0  0
   -1.5835    2.9429   -0.3692 C   0  0  0  0  0  0  0  0  0  0  0  0
   -0.5070    3.1248   -0.2430 H   0  0  0  0  0  0  0  0  0  0  0  0
   -2.4902    4.0009   -0.5126 C   0  0  0  0  0  0  0  0  0  0  0  0
   -2.1231    5.0382   -0.5011 H   0  0  0  0  0  0  0  0  0  0  0  0
   -3.8656    3.7465   -0.6575 C   0  0  0  0  0  0  0  0  0  0  0  0
   -4.5755    4.5817   -0.7554 H   0  0  0  0  0  0  0  0  0  0  0  0
   -4.3368    2.4251   -0.6718 C   0  0  0  0  0  0  0  0  0  0  0  0
   -5.4072    2.1918   -0.7696 H   0  0  0  0  0  0  0  0  0  0  0  0
   -3.4204    1.3764   -0.5427 C   0  0  0  0  0  0  0  0  0  0  0  0
   -2.0351    1.6070   -0.3724 C   0  0  0  0  0  0  0  0  0  0  0  0
   -0.7007   -1.9574    0.0931 C   0  0  0  0  0  0  0  0  0  0  0  0
   -0.5593   -4.3111    0.2143 C   0  0  0  0  0  0  0  0  0  0  0  0
   -0.1142   -4.4664   -0.7898 H   0  0  0  0  0  0  0  0  0  0  0  0
   -1.2559   -5.1358    0.4477 H   0  0  0  0  0  0  0  0  0  0  0  0
    0.2566   -4.2681    0.9636 H   0  0  0  0  0  0  0  0  0  0  0  0
  1 25  1  0  0  0  0
  1  7  2  0  0  0  0
  1  2  1  0  0  0  0
  2  8  1  0  0  0  0
  3 27  1  0  0  0  0
  6  1  2  0  0  0  0
  8  9  1  0  0  0  0
  8 10  1  0  0  0  0
  8 11  1  0  0  0  0
 11 13  1  0  0  0  0
 12 11  1  0  0  0  0
 14 11  1  0  0  0  0
 15  2  1  0  0  0  0
 16  4  1  6  0  0  0
 16 15  1  0  0  0  0
 17 18  1  0  0  0  0
 19 20  1  0  0  0  0
 19 17  2  0  0  0  0
 21 19  1  0  0  0  0
 22 21  1  0  0  0  0
 23 21  2  0  0  0  0
 23 25  1  0  0  0  0
 24 23  1  0  0  0  0
 25 26  2  0  0  0  0
 26 17  1  0  0  0  0
 26 16  1  0  0  0  0
 27 15  2  0  0  0  0
 27  5  1  0  0  0  0
 28  5  1  0  0  0  0
 28 30  1  0  0  0  0
 28 31  1  0  0  0  0
 29 28  1  0  0  0  0
M  CHG  1   3  -1
M  END
