1,2
q = -2.0, confidence = 0.878

 12 12  0  0  0  0  0  0  0  0999 V2000
   -0.4780    0.8247    1.1687 O   0  5  0  0  0  0  0  0  0  0  0  0
   -0.3262    1.8610   -1.2298 O   0  5  0  0  0  0  0  0  0  0  0  0
   -5.1323    1.6293    1.3315 O   0  0  0  0  0  0  0  0  0  0  0  0
   -5.0338    2.0795   -1.4022 O   0  0  0  0  0  0  0  0  0  0  0  0
   -1.5835    1.3229    0.7189 C   0  0  0  0  0  0  0  0  0  0  0  0
   -2.7822    1.3602    1.4215 C   0  0  0  0  0  0  0  0  0  0  0  0
   -2.8119    1.0302    2.4710 H   0  0  0  0  0  0  0  0  0  0  0  0
   -4.0323    1.6902    0.7716 C   0  0  0  0  0  0  0  0  0  0  0  0
   -3.9749    2.0457   -0.7587 C   0  0  0  0  0  0  0  0  0  0  0  0
   -2.6752    2.2467   -1.3611 C   0  0  0  0  0  0  0  0  0  0  0  0
   -2.6292    2.5655   -2.4136 H   0  0  0  0  0  0  0  0  0  0  0  0
   -1.5107    1.8638   -0.7056 C   0  0  0  0  0  0  0  0  0  0  0  0
  2 12  1  0  0  0  0
  4  9  2  0  0  0  0
  5  1  1  0  0  0  0
  5  6  2  0  0  0  0
  6  7  1  0  0  0  0
  8  3  2  0  0  0  0
  8  6  1  0  0  0  0
  9  8  1  0  0  0  0
 10  9  1  0  0  0  0
 10 12  2  0  0  0  0
 11 10  1  0  0  0  0
 12  5  1  0  0  0  0
M  CHG  2   1  -1   2  -1
M  END
