14,15
q = -1.0

 19 19  0  0  1  0  0  0  0  0999 V2000
    4.2194   -0.1655    0.2205 C   0  0  0  0  0  0  0  0  0  0  0  0
    4.7390   -2.4712   -0.3928 C   0  0  0  0  0  0  0  0  0  0  0  0
    4.4882   -3.5425   -0.3516 H   0  0  0  0  0  0  0  0  0  0  0  0
    5.3591    0.2542   -0.4927 C   0  0  0  0  0  0  0  0  0  0  0  0
    5.5985    1.3285   -0.5378 H   0  0  0  0  0  0  0  0  0  0  0  0
    3.9211   -1.5431    0.2680 C   0  0  0  0  0  0  0  0  0  0  0  0
    3.0298   -1.8831    0.8133 H   0  0  0  0  0  0  0  0  0  0  0  0
    6.1842   -0.6744   -1.1450 C   0  0  0  0  0  0  0  0  0  0  0  0
    7.0726   -0.3260   -1.6941 H   0  0  0  0  0  0  0  0  0  0  0  0
    5.8734   -2.0423   -1.1009 C   0  0  0  0  0  0  0  0  0  0  0  0
    6.5163   -2.7738   -1.6142 H   0  0  0  0  0  0  0  0  0  0  0  0
    1.0665    2.1236    0.6693 C   0  0  0  0  0  0  0  0  0  0  0  0
    1.8892    0.8335    0.5901 C   0  0  2  0  0  3  0  0  0  0  0  0
    1.2582   -0.2156    0.3189 O   0  0  0  0  0  1  0  0  0  0  0  0
   -0.2160    1.8675    0.5880 O   0  5  0  0  0  0  0  0  0  0  0  0
    1.6047    3.2225    0.8082 O   0  0  0  0  0  0  0  0  0  0  0  0
    3.3488    0.8572    0.9091 C   0  0  0  0  0  0  0  0  0  0  0  0
    3.6906    1.8970    0.7345 H   0  0  0  0  0  0  0  0  0  0  0  0
    3.3940    0.7209    2.0183 H   0  0  0  0  0  0  0  0  0  0  0  0
  1  6  1  0  0  0  0
  1 17  1  0  0  0  0
  2  3  1  0  0  0  0
  2  6  2  0  0  0  0
  4  1  2  0  0  0  0
  5  4  1  0  0  0  0
  6  7  1  0  0  0  0
  8 10  2  0  0  0  0
  8  4  1  0  0  0  0
  9  8  1  0  0  0  0
 10  2  1  0  0  0  0
 11 10  1  0  0  0  0
 12 16  2  0  0  0  0
 13 14  1  1  0  0  0
 13 12  1  0  0  0  0
 13 17  1  0  0  0  0
 15 12  1  0  0  0  0
 17 19  1  0  0  0  0
 18 17  1  0  0  0  0
M  CHG  1  15  -1
M  END
