1,5
q = -1.0, confidence = 0.016

 16 16  0  0  1  0  0  0  0  0999 V2000
   -1.1287    1.7303   -0.3515 O   0  5  0  0  0  0  0  0  0  0  0  0
   -2.4063    1.8721   -0.2269 N   0  0  0  0  0  0  0  0  0  0  0  0
   -3.1540    0.7751   -0.1017 C   0  0  0  0  0  0  0  0  0  0  0  0
   -2.7832   -0.6430   -0.1788 C   0  0  2  0  0  3  0  0  0  0  0  0
   -1.6587   -1.2051   -0.3699 O   0  0  0  0  0  1  0  0  0  0  0  0
   -3.9703   -1.3020   -0.0384 N   0  0  0  0  0  0  0  0  0  0  0  0
   -5.0615   -0.4569    0.1216 N   0  0  0  0  0  0  0  0  0  0  0  0
   -4.5959    0.7752    0.0811 C   0  0  0  0  0  0  0  0  0  0  0  0
   -5.4742    1.9708    0.2241 C   0  0  0  0  0  0  0  0  0  0  0  0
   -5.3523    2.6542   -0.6405 H   0  0  0  0  0  0  0  0  0  0  0  0
   -6.5316    1.6569    0.3000 H   0  0  0  0  0  0  0  0  0  0  0  0
   -5.2029    2.5545    1.1275 H   0  0  0  0  0  0  0  0  0  0  0  0
   -4.1552   -2.7323   -0.0488 C   0  0  0  0  0  0  0  0  0  0  0  0
   -4.6199   -3.0684    0.8999 H   0  0  0  0  0  0  0  0  0  0  0  0
   -4.8088   -3.0366   -0.8915 H   0  0  0  0  0  0  0  0  0  0  0  0
   -3.1581   -3.1974   -0.1622 H   0  0  0  0  0  0  0  0  0  0  0  0
  1  2  1  0  0  0  0
  2  3  2  0  0  0  0
  3  8  1  0  0  0  0
  4  5  1  6  0  0  0
  4  3  1  0  0  0  0
  4  6  1  0  0  0  0
  6  7  1  0  0  0  0
  8  7  2  0  0  0  0
  8  9  1  0  0  0  0
  9 11  1  0  0  0  0
  9 12  1  0  0  0  0
 10  9  1  0  0  0  0
 13  6  1  0  0  0  0
 13 14  1  0  0  0  0
 15 13  1  0  0  0  0
 16 13  1  0  0  0  0
M  CHG  1   1  -1
M  END
