1,2,11
 OpenBabel05122313063D

 40 42  0  0  0  0  0  0  0  0999 V2000
   -2.4239   -0.3249    0.0900 Se  0  0  0  0  0  1  0  0  0  0  0  0
    2.3974   -0.2650    0.1252 Se  0  0  0  0  0  1  0  0  0  0  0  0
   -9.1410   -1.2007    0.0813 Cl  0  0  0  0  0  0  0  0  0  0  0  0
    9.1802   -1.1505    0.2351 Cl  0  0  0  0  0  0  0  0  0  0  0  0
   -1.1495   -2.8902   -0.0203 N   0  0  0  0  0  0  0  0  0  0  0  0
    1.1842   -2.8548   -0.0728 N   0  0  0  0  0  0  0  0  0  0  0  0
   -3.4567   -2.9965    0.1101 N   0  0  0  0  0  0  0  0  0  0  0  0
    3.4959   -2.9009   -0.1361 N   0  0  0  0  0  0  0  0  0  0  0  0
   -2.4207   -2.2337    0.0484 C   0  0  0  0  0  0  0  0  0  0  0  0
    2.4421   -2.1673   -0.0367 C   0  0  0  0  0  0  0  0  0  0  0  0
    0.0070   -2.1709   -0.0223 C   0  0  0  0  0  2  0  0  0  0  0  0
   -1.1937   -4.3668   -0.0712 C   0  0  0  0  0  0  0  0  0  0  0  0
    0.0254   -4.8902   -0.8003 C   0  0  0  0  0  0  0  0  0  0  0  0
    1.2692   -4.3293   -0.1451 C   0  0  0  0  0  0  0  0  0  0  0  0
   -4.7696   -2.5261    0.0987 C   0  0  0  0  0  0  0  0  0  0  0  0
   -5.6546   -2.9379    1.1217 C   0  0  0  0  0  0  0  0  0  0  0  0
   -6.9914   -2.5249    1.1268 C   0  0  0  0  0  0  0  0  0  0  0  0
   -7.4686   -1.7104    0.0868 C   0  0  0  0  0  0  0  0  0  0  0  0
   -6.6148   -1.3099   -0.9541 C   0  0  0  0  0  0  0  0  0  0  0  0
   -5.2740   -1.7101   -0.9430 C   0  0  0  0  0  0  0  0  0  0  0  0
    4.8050   -2.4383   -0.0370 C   0  0  0  0  0  0  0  0  0  0  0  0
    5.7441   -2.8474   -1.0134 C   0  0  0  0  0  0  0  0  0  0  0  0
    7.0814   -2.4449   -0.9416 C   0  0  0  0  0  0  0  0  0  0  0  0
    7.5071   -1.6455    0.1326 C   0  0  0  0  0  0  0  0  0  0  0  0
    6.6004   -1.2502    1.1295 C   0  0  0  0  0  0  0  0  0  0  0  0
    5.2592   -1.6386    1.0407 C   0  0  0  0  0  0  0  0  0  0  0  0
   -2.1493   -4.6385   -0.5536 H   0  0  0  0  0  0  0  0  0  0  0  0
   -1.2428   -4.7561    0.9688 H   0  0  0  0  0  0  0  0  0  0  0  0
    0.0448   -5.9968   -0.7612 H   0  0  0  0  0  0  0  0  0  0  0  0
   -0.0122   -4.5957   -1.8703 H   0  0  0  0  0  0  0  0  0  0  0  0
    2.2018   -4.5609   -0.6905 H   0  0  0  0  0  0  0  0  0  0  0  0
    1.3978   -4.7266    0.8850 H   0  0  0  0  0  0  0  0  0  0  0  0
   -5.2680   -3.5854    1.9219 H   0  0  0  0  0  0  0  0  0  0  0  0
   -7.6725   -2.8362    1.9313 H   0  0  0  0  0  0  0  0  0  0  0  0
   -7.0058   -0.6840   -1.7687 H   0  0  0  0  0  0  0  0  0  0  0  0
   -4.6023   -1.3997   -1.7561 H   0  0  0  0  0  0  0  0  0  0  0  0
    5.3980   -3.4844   -1.8403 H   0  0  0  0  0  0  0  0  0  0  0  0
    7.8036   -2.7535   -1.7106 H   0  0  0  0  0  0  0  0  0  0  0  0
    6.9503   -0.6363    1.9715 H   0  0  0  0  0  0  0  0  0  0  0  0
    4.5495   -1.3340    1.8230 H   0  0  0  0  0  0  0  0  0  0  0  0
  3 18  1  0  0  0  0
  5  9  1  0  0  0  0
  6 10  1  0  0  0  0
  6 11  1  0  0  0  0
  8 21  1  0  0  0  0
  8 10  2  0  0  0  0
  9  1  1  0  0  0  0
  9  7  2  0  0  0  0
 10  2  1  0  0  0  0
 11  5  1  0  0  0  0
 12  5  1  0  0  0  0
 12 28  1  0  0  0  0
 13 29  1  0  0  0  0
 13 14  1  0  0  0  0
 13 12  1  0  0  0  0
 14  6  1  0  0  0  0
 14 32  1  0  0  0  0
 15  7  1  0  0  0  0
 15 16  1  0  0  0  0
 16 17  2  0  0  0  0
 16 33  1  0  0  0  0
 17 34  1  0  0  0  0
 18 17  1  0  0  0  0
 19 20  1  0  0  0  0
 19 18  2  0  0  0  0
 20 15  2  0  0  0  0
 21 26  1  0  0  0  0
 22 23  1  0  0  0  0
 22 21  2  0  0  0  0
 23 24  2  0  0  0  0
 24  4  1  0  0  0  0
 24 25  1  0  0  0  0
 25 39  1  0  0  0  0
 26 25  2  0  0  0  0
 26 40  1  0  0  0  0
 27 12  1  0  0  0  0
 30 13  1  0  0  0  0
 31 14  1  0  0  0  0
 35 19  1  0  0  0  0
 36 20  1  0  0  0  0
 37 22  1  0  0  0  0
 38 23  1  0  0  0  0
M  END
