2,4,23,24,43,44
q = -3.0

 61 63  0  0  0  0  0  0  0  0999 V2000
    0.8993    3.2809   -2.8497 F   0  0  0  0  0  0  0  0  0  0  0  0
    0.1756    1.8634   -0.6651 O   0  5  0  0  0  0  0  0  0  0  0  0
    0.0022   -0.0052    3.3129 N   0  0  0  0  0  0  0  0  0  0  0  0
   -1.6009    1.6130    1.4962 N   0  0  0  0  0  2  0  0  0  0  0  0
   -0.9575    1.0261    3.7592 C   0  0  0  0  0  0  0  0  0  0  0  0
   -0.4285    1.9991    3.8075 H   0  0  0  0  0  0  0  0  0  0  0  0
   -1.3281    0.8072    4.7900 H   0  0  0  0  0  0  0  0  0  0  0  0
   -2.1226    1.1783    2.7797 C   0  0  0  0  0  0  0  0  0  0  0  0
   -2.6407    0.1993    2.6561 H   0  0  0  0  0  0  0  0  0  0  0  0
   -2.8710    1.8912    3.1997 H   0  0  0  0  0  0  0  0  0  0  0  0
   -2.0624    2.7280    0.9964 C   0  0  0  0  0  3  0  0  0  0  0  0
   -2.8746    3.2543    1.5520 H   0  0  0  0  0  0  0  0  0  0  0  0
   -1.6330    3.3944   -0.2061 C   0  0  0  0  0  0  0  0  0  0  0  0
   -0.5070    2.9187   -0.9741 C   0  0  0  0  0  0  0  0  0  0  0  0
   -0.1496    3.7004   -2.1224 C   0  0  0  0  0  0  0  0  0  0  0  0
   -0.8416    4.8430   -2.4970 C   0  0  0  0  0  0  0  0  0  0  0  0
   -0.5114    5.3825   -3.3974 H   0  0  0  0  0  0  0  0  0  0  0  0
   -1.9443    5.2917   -1.7297 C   0  0  0  0  0  0  0  0  0  0  0  0
   -2.4886    6.1977   -2.0315 H   0  0  0  0  0  0  0  0  0  0  0  0
   -2.3238    4.5765   -0.6011 C   0  0  0  0  0  0  0  0  0  0  0  0
   -3.1772    4.9141    0.0088 H   0  0  0  0  0  0  0  0  0  0  0  0
   -3.2933   -0.8524   -2.8503 F   0  0  0  0  0  0  0  0  0  0  0  0
   -1.7014   -0.7776   -0.6672 O   0  5  0  0  0  0  0  0  0  0  0  0
   -0.5963   -2.1977    1.4902 N   0  0  0  0  0  2  0  0  0  0  0  0
   -0.4115   -1.3531    3.7555 C   0  0  0  0  0  0  0  0  0  0  0  0
   -1.5187   -1.3817    3.8027 H   0  0  0  0  0  0  0  0  0  0  0  0
   -0.0375   -1.5673    4.7860 H   0  0  0  0  0  0  0  0  0  0  0  0
    0.0400   -2.4357    2.7736 C   0  0  0  0  0  0  0  0  0  0  0  0
    1.1470   -2.3950    2.6510 H   0  0  0  0  0  0  0  0  0  0  0  0
   -0.2039   -3.4414    3.1907 H   0  0  0  0  0  0  0  0  0  0  0  0
   -1.3324   -3.1528    0.9882 C   0  0  0  0  0  3  0  0  0  0  0  0
   -1.3830   -4.1207    1.5414 H   0  0  0  0  0  0  0  0  0  0  0  0
   -2.1248   -3.1102   -0.2138 C   0  0  0  0  0  0  0  0  0  0  0  0
   -2.2753   -1.8951   -0.9785 C   0  0  0  0  0  0  0  0  0  0  0  0
   -3.1323   -1.9726   -2.1261 C   0  0  0  0  0  0  0  0  0  0  0  0
   -3.7773   -3.1416   -2.5032 C   0  0  0  0  0  0  0  0  0  0  0  0
   -4.4106   -3.1225   -3.4028 H   0  0  0  0  0  0  0  0  0  0  0  0
   -3.6150   -4.3231   -1.7391 C   0  0  0  0  0  0  0  0  0  0  0  0
   -4.1286   -5.2462   -2.0428 H   0  0  0  0  0  0  0  0  0  0  0  0
   -2.8047   -4.2979   -0.6113 C   0  0  0  0  0  0  0  0  0  0  0  0
   -2.6707   -5.2074   -0.0038 H   0  0  0  0  0  0  0  0  0  0  0  0
    2.3875   -2.4140   -2.8584 F   0  0  0  0  0  0  0  0  0  0  0  0
    1.5260   -1.0827   -0.6695 O   0  5  0  0  0  0  0  0  0  0  0  0
    2.2017    0.5779    1.4935 N   0  0  0  0  0  2  0  0  0  0  0  0
    1.3759    0.3093    3.7576 C   0  0  0  0  0  0  0  0  0  0  0  0
    1.9541   -0.6354    3.8034 H   0  0  0  0  0  0  0  0  0  0  0  0
    1.3733    0.7379    4.7891 H   0  0  0  0  0  0  0  0  0  0  0  0
    2.0890    1.2441    2.7788 C   0  0  0  0  0  0  0  0  0  0  0  0
    1.5012    2.1832    2.6587 H   0  0  0  0  0  0  0  0  0  0  0  0
    3.0818    1.5337    3.1977 H   0  0  0  0  0  0  0  0  0  0  0  0
    3.3972    0.4194    0.9917 C   0  0  0  0  0  3  0  0  0  0  0  0
    4.2605    0.8574    1.5471 H   0  0  0  0  0  0  0  0  0  0  0  0
    3.7572   -0.2836   -0.2127 C   0  0  0  0  0  0  0  0  0  0  0  0
    2.7807   -1.0189   -0.9806 C   0  0  0  0  0  0  0  0  0  0  0  0
    3.2768   -1.7171   -2.1311 C   0  0  0  0  0  0  0  0  0  0  0  0
    4.6117   -1.6890   -2.5078 C   0  0  0  0  0  0  0  0  0  0  0  0
    4.9122   -2.2431   -3.4098 H   0  0  0  0  0  0  0  0  0  0  0  0
    5.5533   -0.9605   -1.7405 C   0  0  0  0  0  0  0  0  0  0  0  0
    6.6096   -0.9420   -2.0439 H   0  0  0  0  0  0  0  0  0  0  0  0
    5.1258   -0.2763   -0.6099 C   0  0  0  0  0  0  0  0  0  0  0  0
    5.8461    0.2923    0.0000 H   0  0  0  0  0  0  0  0  0  0  0  0
  1 15  1  0  0  0  0
  3 25  1  0  0  0  0
  3 45  1  0  0  0  0
  3  5  1  0  0  0  0
  4  8  1  0  0  0  0
  5  6  1  0  0  0  0
  5  7  1  0  0  0  0
  8 10  1  0  0  0  0
  8  5  1  0  0  0  0
  9  8  1  0  0  0  0
 11  4  1  0  0  0  0
 11 12  1  0  0  0  0
 13 11  1  0  0  0  0
 14  2  1  0  0  0  0
 14 13  2  0  0  0  0
 15 14  1  0  0  0  0
 16 15  2  0  0  0  0
 16 18  1  0  0  0  0
 17 16  1  0  0  0  0
 18 20  2  0  0  0  0
 19 18  1  0  0  0  0
 20 13  1  0  0  0  0
 20 21  1  0  0  0  0
 22 35  1  0  0  0  0
 24 28  1  0  0  0  0
 25 26  1  0  0  0  0
 25 27  1  0  0  0  0
 28 30  1  0  0  0  0
 28 25  1  0  0  0  0
 29 28  1  0  0  0  0
 31 24  1  0  0  0  0
 31 32  1  0  0  0  0
 33 31  1  0  0  0  0
 34 23  1  0  0  0  0
 34 33  2  0  0  0  0
 35 34  1  0  0  0  0
 36 35  2  0  0  0  0
 36 38  1  0  0  0  0
 37 36  1  0  0  0  0
 38 40  2  0  0  0  0
 39 38  1  0  0  0  0
 40 33  1  0  0  0  0
 40 41  1  0  0  0  0
 42 55  1  0  0  0  0
 44 48  1  0  0  0  0
 45 46  1  0  0  0  0
 45 47  1  0  0  0  0
 48 50  1  0  0  0  0
 48 45  1  0  0  0  0
 49 48  1  0  0  0  0
 51 44  1  0  0  0  0
 51 52  1  0  0  0  0
 53 51  1  0  0  0  0
 54 43  1  0  0  0  0
 54 53  2  0  0  0  0
 55 54  1  0  0  0  0
 56 55  2  0  0  0  0
 56 58  1  0  0  0  0
 57 56  1  0  0  0  0
 58 60  2  0  0  0  0
 59 58  1  0  0  0  0
 60 53  1  0  0  0  0
 60 61  1  0  0  0  0
M  END
