1,2,3,6,7,8
q = -3.0

 70 73  0  0  0  0  0  0  0  0999 V2000
   -2.5971   -1.3242   -0.1976 O   0  5  0  0  0  0  0  0  0  0  0  0
   -1.4161   -0.1647    1.8121 O   0  5  0  0  0  0  0  0  0  0  0  0
   -2.6949    1.2701    0.0559 O   0  5  0  0  0  0  0  0  0  0  0  0
    4.9781   -1.7312   -0.4948 O   0  0  0  0  0  0  0  0  0  0  0  0
    4.2840   -1.2597   -1.0966 H   0  0  0  0  0  0  0  0  0  0  0  0
   -1.1878    0.3124   -1.9656 N   0  0  0  0  0  2  0  0  0  0  0  0
    0.1046   -1.3080   -0.2314 N   0  0  0  0  0  2  0  0  0  0  0  0
    0.0921    1.3567    0.1754 N   0  0  0  0  0  2  0  0  0  0  0  0
    3.7091    0.0317   -1.8304 N   0  0  0  0  0  0  0  0  0  0  0  0
   -3.4706   -1.3985   -1.1477 C   0  0  0  0  0  0  0  0  0  0  0  0
   -4.6328   -2.2142   -0.9474 C   0  0  0  0  0  0  0  0  0  0  0  0
   -4.7268   -2.7130    0.0278 H   0  0  0  0  0  0  0  0  0  0  0  0
   -5.6006   -2.3495   -1.9329 C   0  0  0  0  0  0  0  0  0  0  0  0
   -6.4870   -2.9723   -1.7324 H   0  0  0  0  0  0  0  0  0  0  0  0
   -5.4720   -1.7013   -3.1894 C   0  0  0  0  0  0  0  0  0  0  0  0
   -6.2471   -1.8189   -3.9600 H   0  0  0  0  0  0  0  0  0  0  0  0
   -4.3467   -0.9258   -3.4277 C   0  0  0  0  0  0  0  0  0  0  0  0
   -4.2137   -0.4260   -4.4013 H   0  0  0  0  0  0  0  0  0  0  0  0
   -3.3392   -0.7476   -2.4363 C   0  0  0  0  0  0  0  0  0  0  0  0
   -2.1545   -0.0279   -2.7796 C   0  0  0  0  0  3  0  0  0  0  0  0
   -2.0298    0.2357   -3.8510 H   0  0  0  0  0  0  0  0  0  0  0  0
    0.0490    0.8705   -2.4867 C   0  0  0  0  0  0  0  0  0  0  0  0
    0.0448    1.9790   -2.3840 H   0  0  0  0  0  0  0  0  0  0  0  0
    0.1508    0.6324   -3.5690 H   0  0  0  0  0  0  0  0  0  0  0  0
   -1.1402   -1.2482    2.4627 C   0  0  0  0  0  0  0  0  0  0  0  0
   -1.6354   -1.3877    3.8007 C   0  0  0  0  0  0  0  0  0  0  0  0
   -2.2545   -0.5664    4.1892 H   0  0  0  0  0  0  0  0  0  0  0  0
   -1.3587   -2.5160    4.5604 C   0  0  0  0  0  0  0  0  0  0  0  0
   -1.7716   -2.5912    5.5791 H   0  0  0  0  0  0  0  0  0  0  0  0
   -0.5581   -3.5716    4.0514 C   0  0  0  0  0  0  0  0  0  0  0  0
   -0.3465   -4.4581    4.6661 H   0  0  0  0  0  0  0  0  0  0  0  0
   -0.0411   -3.4580    2.7689 C   0  0  0  0  0  0  0  0  0  0  0  0
    0.5988   -4.2550    2.3559 H   0  0  0  0  0  0  0  0  0  0  0  0
   -0.3171   -2.3251    1.9508 C   0  0  0  0  0  0  0  0  0  0  0  0
    0.3288   -2.2188    0.6811 C   0  0  0  0  0  3  0  0  0  0  0  0
    1.1240   -2.9629    0.4664 H   0  0  0  0  0  0  0  0  0  0  0  0
    0.9753   -1.2066   -1.3921 C   0  0  0  0  0  0  0  0  0  0  0  0
    0.4972   -1.6852   -2.2760 H   0  0  0  0  0  0  0  0  0  0  0  0
    1.9344   -1.7286   -1.1928 H   0  0  0  0  0  0  0  0  0  0  0  0
   -2.6415    2.3668    0.7389 C   0  0  0  0  0  0  0  0  0  0  0  0
   -3.8696    3.0257    1.0753 C   0  0  0  0  0  0  0  0  0  0  0  0
   -4.7998    2.5365    0.7524 H   0  0  0  0  0  0  0  0  0  0  0  0
   -3.8808    4.2139    1.7928 C   0  0  0  0  0  0  0  0  0  0  0  0
   -4.8471    4.6785    2.0462 H   0  0  0  0  0  0  0  0  0  0  0  0
   -2.6754    4.8382    2.2074 C   0  0  0  0  0  0  0  0  0  0  0  0
   -2.7008    5.7793    2.7752 H   0  0  0  0  0  0  0  0  0  0  0  0
   -1.4672    4.2427    1.8746 C   0  0  0  0  0  0  0  0  0  0  0  0
   -0.5160    4.7162    2.1690 H   0  0  0  0  0  0  0  0  0  0  0  0
   -1.4133    3.0147    1.1549 C   0  0  0  0  0  0  0  0  0  0  0  0
   -0.1407    2.5113    0.7454 C   0  0  0  0  0  3  0  0  0  0  0  0
    0.7288    3.1857    0.8942 H   0  0  0  0  0  0  0  0  0  0  0  0
    1.4069    1.0573   -0.3688 C   0  0  0  0  0  0  0  0  0  0  0  0
    1.9955    0.4413    0.3461 H   0  0  0  0  0  0  0  0  0  0  0  0
    1.9743    1.9993   -0.5402 H   0  0  0  0  0  0  0  0  0  0  0  0
    5.9100   -0.8130   -0.2427 C   0  0  0  0  0  0  0  0  0  0  0  0
    7.0322   -1.1451    0.5517 C   0  0  0  0  0  0  0  0  0  0  0  0
    7.1010   -2.1686    0.9472 H   0  0  0  0  0  0  0  0  0  0  0  0
    8.0151   -0.1898    0.8155 C   0  0  0  0  0  0  0  0  0  0  0  0
    8.8810   -0.4688    1.4357 H   0  0  0  0  0  0  0  0  0  0  0  0
    7.9192    1.1235    0.3027 C   0  0  0  0  0  0  0  0  0  0  0  0
    8.7027    1.8632    0.5204 H   0  0  0  0  0  0  0  0  0  0  0  0
    6.8185    1.4672   -0.4793 C   0  0  0  0  0  0  0  0  0  0  0  0
    6.7194    2.4861   -0.8877 H   0  0  0  0  0  0  0  0  0  0  0  0
    5.8028    0.5222   -0.7661 C   0  0  0  0  0  0  0  0  0  0  0  0
    4.6485    0.8873   -1.5591 C   0  0  0  0  0  0  0  0  0  0  0  0
    4.5861    1.9394   -1.9272 H   0  0  0  0  0  0  0  0  0  0  0  0
    2.5319    0.4344   -2.5585 C   0  0  0  0  0  0  0  0  0  0  0  0
    2.4246   -0.2126   -3.4583 H   0  0  0  0  0  0  0  0  0  0  0  0
    2.6096    1.4904   -2.9167 H   0  0  0  0  0  0  0  0  0  0  0  0
    1.2527    0.2863   -1.7046 C   0  0  0  0  0  0  0  0  0  0  0  0
  2 25  1  0  0  0  0
  3 40  1  0  0  0  0
  4 55  1  0  0  0  0
  5  4  1  0  0  0  0
  7 35  1  0  0  0  0
  8 50  1  0  0  0  0
  9 65  2  0  0  0  0
 10 11  1  0  0  0  0
 10  1  1  0  0  0  0
 11 12  1  0  0  0  0
 13 14  1  0  0  0  0
 13 11  2  0  0  0  0
 15 13  1  0  0  0  0
 16 15  1  0  0  0  0
 17 15  2  0  0  0  0
 17 19  1  0  0  0  0
 18 17  1  0  0  0  0
 19 10  2  0  0  0  0
 20 19  1  0  0  0  0
 20  6  1  0  0  0  0
 21 20  1  0  0  0  0
 22 23  1  0  0  0  0
 22  6  1  0  0  0  0
 22 70  1  0  0  0  0
 24 22  1  0  0  0  0
 25 26  1  0  0  0  0
 26 27  1  0  0  0  0
 26 28  2  0  0  0  0
 28 29  1  0  0  0  0
 30 28  1  0  0  0  0
 30 31  1  0  0  0  0
 32 30  2  0  0  0  0
 33 32  1  0  0  0  0
 34 25  2  0  0  0  0
 34 32  1  0  0  0  0
 35 34  1  0  0  0  0
 36 35  1  0  0  0  0
 37 39  1  0  0  0  0
 37  7  1  0  0  0  0
 38 37  1  0  0  0  0
 40 41  2  0  0  0  0
 40 49  1  0  0  0  0
 41 43  1  0  0  0  0
 42 41  1  0  0  0  0
 43 44  1  0  0  0  0
 43 45  2  0  0  0  0
 45 46  1  0  0  0  0
 47 48  1  0  0  0  0
 47 45  1  0  0  0  0
 49 47  2  0  0  0  0
 50 51  1  0  0  0  0
 50 49  1  0  0  0  0
 52  8  1  0  0  0  0
 52 53  1  0  0  0  0
 54 52  1  0  0  0  0
 55 56  1  0  0  0  0
 56 58  2  0  0  0  0
 56 57  1  0  0  0  0
 58 59  1  0  0  0  0
 60 61  1  0  0  0  0
 60 58  1  0  0  0  0
 62 60  2  0  0  0  0
 63 62  1  0  0  0  0
 64 62  1  0  0  0  0
 64 55  2  0  0  0  0
 65 64  1  0  0  0  0
 66 65  1  0  0  0  0
 67  9  1  0  0  0  0
 67 70  1  0  0  0  0
 68 67  1  0  0  0  0
 69 67  1  0  0  0  0
 70 37  1  0  0  0  0
 70 52  1  0  0  0  0
M  END
