1,2,3,5,6,7
q = -1.0

 61 63  0  0  0  0  0  0  0  0999 V2000
    1.3832   -0.5580   -1.1536 O   0  5  0  0  0  0  0  0  0  0  0  0
   -0.2063    1.4852   -1.1459 O   0  5  0  0  0  0  0  0  0  0  0  0
   -1.1804   -0.9134   -1.1563 O   0  5  0  0  0  0  0  0  0  0  0  0
   -0.0042   -0.0129    3.6073 N   0  0  0  0  0  0  0  0  0  0  0  0
   -0.0734   -1.6718    1.0355 N   0  0  0  0  0  2  0  0  0  0  0  0
    1.4788    0.7685    1.0451 N   0  0  0  0  0  2  0  0  0  0  0  0
   -1.4121    0.8919    1.0438 N   0  0  0  0  0  2  0  0  0  0  0  0
   -0.4631   -1.3732    3.5032 C   0  0  0  0  0  0  0  0  0  0  0  0
   -1.2750   -1.5609    4.2476 H   0  0  0  0  0  0  0  0  0  0  0  0
    0.3808   -2.0383    3.7888 H   0  0  0  0  0  0  0  0  0  0  0  0
   -1.0125   -1.8403    2.1362 C   0  0  0  0  0  0  0  0  0  0  0  0
   -1.2889   -2.9139    2.2336 H   0  0  0  0  0  0  0  0  0  0  0  0
   -1.9435   -1.2922    1.8994 H   0  0  0  0  0  0  0  0  0  0  0  0
    0.5743   -2.7411    0.6391 C   0  0  0  0  0  3  0  0  0  0  0  0
    0.3520   -3.6844    1.1810 H   0  0  0  0  0  0  0  0  0  0  0  0
    1.5516   -2.8532   -0.3960 C   0  0  0  0  0  0  0  0  0  0  0  0
    1.9110   -1.7334   -1.2373 C   0  0  0  0  0  0  0  0  0  0  0  0
    2.9199   -1.9581   -2.2326 C   0  0  0  0  0  0  0  0  0  0  0  0
    3.1900   -1.1029   -2.8685 H   0  0  0  0  0  0  0  0  0  0  0  0
    3.5153   -3.2014   -2.3890 C   0  0  0  0  0  0  0  0  0  0  0  0
    4.2825   -3.3348   -3.1683 H   0  0  0  0  0  0  0  0  0  0  0  0
    3.1507   -4.3028   -1.5705 C   0  0  0  0  0  0  0  0  0  0  0  0
    3.6274   -5.2835   -1.7093 H   0  0  0  0  0  0  0  0  0  0  0  0
    2.1816   -4.1168   -0.5960 C   0  0  0  0  0  0  0  0  0  0  0  0
    1.8800   -4.9556    0.0528 H   0  0  0  0  0  0  0  0  0  0  0  0
    1.4036    0.2704    3.5108 C   0  0  0  0  0  0  0  0  0  0  0  0
    1.9689   -0.3426    4.2546 H   0  0  0  0  0  0  0  0  0  0  0  0
    1.5563    1.3323    3.8026 H   0  0  0  0  0  0  0  0  0  0  0  0
    2.0893    0.0352    2.1458 C   0  0  0  0  0  0  0  0  0  0  0  0
    3.1564    0.3331    2.2497 H   0  0  0  0  0  0  0  0  0  0  0  0
    2.0827   -1.0441    1.9039 H   0  0  0  0  0  0  0  0  0  0  0  0
    2.0850    1.8637    0.6538 C   0  0  0  0  0  3  0  0  0  0  0  0
    3.0114    2.1395    1.2003 H   0  0  0  0  0  0  0  0  0  0  0  0
    1.7008    2.7691   -0.3814 C   0  0  0  0  0  0  0  0  0  0  0  0
    0.5531    2.5263   -1.2269 C   0  0  0  0  0  0  0  0  0  0  0  0
    0.2512    3.5145   -2.2225 C   0  0  0  0  0  0  0  0  0  0  0  0
   -0.6230    3.3252   -2.8617 H   0  0  0  0  0  0  0  0  0  0  0  0
    1.0358    4.6484   -2.3752 C   0  0  0  0  0  0  0  0  0  0  0  0
    0.7740    5.3812   -3.1551 H   0  0  0  0  0  0  0  0  0  0  0  0
    2.1700    4.8777   -1.5524 C   0  0  0  0  0  0  0  0  0  0  0  0
    2.7856    5.7782   -1.6885 H   0  0  0  0  0  0  0  0  0  0  0  0
    2.4859    3.9434   -0.5775 C   0  0  0  0  0  0  0  0  0  0  0  0
    3.3615    4.0971    0.0745 H   0  0  0  0  0  0  0  0  0  0  0  0
   -0.9532    1.0650    3.5118 C   0  0  0  0  0  0  0  0  0  0  0  0
   -0.7083    1.8576    4.2604 H   0  0  0  0  0  0  0  0  0  0  0  0
   -1.9504    0.6648    3.7973 H   0  0  0  0  0  0  0  0  0  0  0  0
   -1.0864    1.7826    2.1495 C   0  0  0  0  0  0  0  0  0  0  0  0
   -1.8782    2.5577    2.2536 H   0  0  0  0  0  0  0  0  0  0  0  0
   -0.1472    2.3170    1.9137 H   0  0  0  0  0  0  0  0  0  0  0  0
   -2.6622    0.8701    0.6480 C   0  0  0  0  0  3  0  0  0  0  0  0
   -3.3666    1.5316    1.1949 H   0  0  0  0  0  0  0  0  0  0  0  0
   -3.2500    0.0881   -0.3923 C   0  0  0  0  0  0  0  0  0  0  0  0
   -2.4619   -0.7791   -1.2395 C   0  0  0  0  0  0  0  0  0  0  0  0
   -3.1627   -1.5321   -2.2399 C   0  0  0  0  0  0  0  0  0  0  0  0
   -2.5587   -2.1906   -2.8804 H   0  0  0  0  0  0  0  0  0  0  0  0
   -4.5369   -1.4219   -2.3955 C   0  0  0  0  0  0  0  0  0  0  0  0
   -5.0374   -2.0130   -3.1789 H   0  0  0  0  0  0  0  0  0  0  0  0
   -5.3065   -0.5593   -1.5710 C   0  0  0  0  0  0  0  0  0  0  0  0
   -6.3939   -0.4782   -1.7094 H   0  0  0  0  0  0  0  0  0  0  0  0
   -4.6592    0.1788   -0.5915 C   0  0  0  0  0  0  0  0  0  0  0  0
   -5.2332    0.8562    0.0620 H   0  0  0  0  0  0  0  0  0  0  0  0
  5 11  1  0  0  0  0
  6 29  1  0  0  0  0
  7 47  1  0  0  0  0
  8  4  1  0  0  0  0
  8 10  1  0  0  0  0
  8  9  1  0  0  0  0
 11 12  1  0  0  0  0
 11  8  1  0  0  0  0
 13 11  1  0  0  0  0
 14  5  1  0  0  0  0
 14 15  1  0  0  0  0
 16 14  1  0  0  0  0
 17  1  1  0  0  0  0
 17 16  2  0  0  0  0
 18 17  1  0  0  0  0
 19 18  1  0  0  0  0
 20 18  2  0  0  0  0
 20 22  1  0  0  0  0
 21 20  1  0  0  0  0
 22 24  2  0  0  0  0
 23 22  1  0  0  0  0
 24 16  1  0  0  0  0
 24 25  1  0  0  0  0
 26  4  1  0  0  0  0
 26 28  1  0  0  0  0
 26 27  1  0  0  0  0
 29 30  1  0  0  0  0
 29 26  1  0  0  0  0
 31 29  1  0  0  0  0
 32  6  1  0  0  0  0
 32 33  1  0  0  0  0
 34 32  1  0  0  0  0
 35  2  1  0  0  0  0
 35 34  2  0  0  0  0
 36 35  1  0  0  0  0
 37 36  1  0  0  0  0
 38 36  2  0  0  0  0
 38 40  1  0  0  0  0
 39 38  1  0  0  0  0
 40 42  2  0  0  0  0
 41 40  1  0  0  0  0
 42 34  1  0  0  0  0
 42 43  1  0  0  0  0
 44  4  1  0  0  0  0
 44 46  1  0  0  0  0
 44 45  1  0  0  0  0
 47 48  1  0  0  0  0
 47 44  1  0  0  0  0
 49 47  1  0  0  0  0
 50  7  1  0  0  0  0
 50 51  1  0  0  0  0
 52 50  1  0  0  0  0
 53  3  1  0  0  0  0
 53 52  2  0  0  0  0
 54 53  1  0  0  0  0
 55 54  1  0  0  0  0
 56 54  2  0  0  0  0
 56 58  1  0  0  0  0
 57 56  1  0  0  0  0
 58 60  2  0  0  0  0
 59 58  1  0  0  0  0
 60 52  1  0  0  0  0
 60 61  1  0  0  0  0
M  CHG  3   1  -1   2  -1   3  -1
M  END
