1,3,5,7,8,9
q = -3.0

 43 42  0  0  0  0  0  0  0  0999 V2000
    0.2402   -1.5766   -1.0798 O   0  5  0  0  0  0  0  0  0  0  0  0
   -0.4289   -3.3175   -2.2978 O   0  0  0  0  0  0  0  0  0  0  0  0
   -1.4893    0.5768   -1.0768 O   0  5  0  0  0  0  0  0  0  0  0  0
   -2.6661    2.0229   -2.2958 O   0  0  0  0  0  0  0  0  0  0  0  0
    1.2413    0.9974   -1.0829 O   0  5  0  0  0  0  0  0  0  0  0  0
    3.0786    1.2897   -2.3079 O   0  0  0  0  0  0  0  0  0  0  0  0
   -1.4681   -0.7927    1.0897 N   0  0  0  0  0  0  0  0  0  0  0  0
    0.0504    1.6710    1.0840 N   0  0  0  0  0  0  0  0  0  0  0  0
    1.4251   -0.8764    1.0830 N   0  0  0  0  0  0  0  0  0  0  0  0
    0.0068    0.0028    2.8938 N   0  0  0  0  0  0  0  0  0  0  0  0
   -0.6758   -2.4451   -1.4756 C   0  0  0  0  0  0  0  0  0  0  0  0
   -2.0363   -2.3472   -0.7826 C   0  0  0  0  0  0  0  0  0  0  0  0
   -1.8943   -2.1670    0.7252 C   0  0  0  0  0  0  0  0  0  0  0  0
   -1.7839    1.8029   -1.4765 C   0  0  0  0  0  0  0  0  0  0  0  0
   -1.0164    2.9340   -0.7895 C   0  0  0  0  0  0  0  0  0  0  0  0
   -0.9276    2.7261    0.7189 C   0  0  0  0  0  0  0  0  0  0  0  0
    2.4497    0.6385   -1.4842 C   0  0  0  0  0  0  0  0  0  0  0  0
    3.0481   -0.5895   -0.7950 C   0  0  0  0  0  0  0  0  0  0  0  0
    2.8269   -0.5580    0.7136 C   0  0  0  0  0  0  0  0  0  0  0  0
   -1.2638   -0.5923    2.5590 C   0  0  0  0  0  0  0  0  0  0  0  0
    0.1262    1.3994    2.5538 C   0  0  0  0  0  0  0  0  0  0  0  0
    1.1558   -0.8004    2.5534 C   0  0  0  0  0  0  0  0  0  0  0  0
   -2.1796   -0.1444    0.7093 H   0  0  0  0  0  0  0  0  0  0  0  0
    0.9664    1.9618    0.6996 H   0  0  0  0  0  0  0  0  0  0  0  0
    1.2182   -1.8166    0.7027 H   0  0  0  0  0  0  0  0  0  0  0  0
   -2.5961   -3.2759   -1.0012 H   0  0  0  0  0  0  0  0  0  0  0  0
   -2.5919   -1.4892   -1.2165 H   0  0  0  0  0  0  0  0  0  0  0  0
   -2.8544   -2.3951    1.2425 H   0  0  0  0  0  0  0  0  0  0  0  0
   -1.1392   -2.8748    1.1338 H   0  0  0  0  0  0  0  0  0  0  0  0
    0.0036    2.9832   -1.2259 H   0  0  0  0  0  0  0  0  0  0  0  0
   -1.5401    3.8829   -1.0103 H   0  0  0  0  0  0  0  0  0  0  0  0
   -0.6435    3.6732    1.2323 H   0  0  0  0  0  0  0  0  0  0  0  0
   -1.9170    2.4274    1.1310 H   0  0  0  0  0  0  0  0  0  0  0  0
    4.1314   -0.6098   -1.0180 H   0  0  0  0  0  0  0  0  0  0  0  0
    2.5809   -1.4991   -1.2280 H   0  0  0  0  0  0  0  0  0  0  0  0
    3.5065   -1.2758    1.2277 H   0  0  0  0  0  0  0  0  0  0  0  0
    3.0635    0.4495    1.1223 H   0  0  0  0  0  0  0  0  0  0  0  0
   -2.0734    0.0479    2.9656 H   0  0  0  0  0  0  0  0  0  0  0  0
   -1.3305   -1.5820    3.0554 H   0  0  0  0  0  0  0  0  0  0  0  0
    1.0865    1.7820    2.9565 H   0  0  0  0  0  0  0  0  0  0  0  0
   -0.6963    1.9537    3.0505 H   0  0  0  0  0  0  0  0  0  0  0  0
    1.0075   -1.8218    2.9601 H   0  0  0  0  0  0  0  0  0  0  0  0
    2.0487   -0.3639    3.0461 H   0  0  0  0  0  0  0  0  0  0  0  0
  2 11  2  0  0  0  0
  4 14  2  0  0  0  0
  6 17  2  0  0  0  0
  7 20  1  0  0  0  0
  8 21  1  0  0  0  0
  9 22  1  0  0  0  0
 11  1  1  0  0  0  0
 11 12  1  0  0  0  0
 12 13  1  0  0  0  0
 13  7  1  0  0  0  0
 13 29  1  0  0  0  0
 13 28  1  0  0  0  0
 14  3  1  0  0  0  0
 14 15  1  0  0  0  0
 15 16  1  0  0  0  0
 16  8  1  0  0  0  0
 16 33  1  0  0  0  0
 16 32  1  0  0  0  0
 17  5  1  0  0  0  0
 17 18  1  0  0  0  0
 18 19  1  0  0  0  0
 19  9  1  0  0  0  0
 19 37  1  0  0  0  0
 19 36  1  0  0  0  0
 20 10  1  0  0  0  0
 20 38  1  0  0  0  0
 20 39  1  0  0  0  0
 21 10  1  0  0  0  0
 21 40  1  0  0  0  0
 21 41  1  0  0  0  0
 22 10  1  0  0  0  0
 22 42  1  0  0  0  0
 22 43  1  0  0  0  0
 23  7  1  0  0  0  0
 24  8  1  0  0  0  0
 25  9  1  0  0  0  0
 26 12  1  0  0  0  0
 27 12  1  0  0  0  0
 30 15  1  0  0  0  0
 31 15  1  0  0  0  0
 34 18  1  0  0  0  0
 35 18  1  0  0  0  0
M  END
