1,3,14,19,23
q = -1.0, confidence = 0.408

 39 39  0  0  0  0  0  0  0  0999 V2000
    0.9784   -1.2723   -1.3190 O   0  5  0  0  0  0  0  0  0  0  0  0
    1.1408   -3.5005   -1.6272 O   0  0  0  0  0  0  0  0  0  0  0  0
   -0.4985   -1.5180    0.8530 N   0  0  0  0  0  0  0  0  0  0  0  0
    0.6293   -2.5222   -1.1056 C   0  0  0  0  0  0  0  0  0  0  0  0
   -0.5418   -2.6563   -0.1014 C   0  0  0  0  0  0  0  0  0  0  0  0
   -0.5151   -3.6379    0.4157 H   0  0  0  0  0  0  0  0  0  0  0  0
   -1.4772   -2.5637   -0.6870 H   0  0  0  0  0  0  0  0  0  0  0  0
   -1.8074   -1.1284    1.4357 C   0  0  0  0  0  0  0  0  0  0  0  0
   -2.5641   -1.2558    0.6412 H   0  0  0  0  0  0  0  0  0  0  0  0
   -2.0907   -1.7856    2.2886 H   0  0  0  0  0  0  0  0  0  0  0  0
    0.5785   -1.6734    1.8842 C   0  0  0  0  0  0  0  0  0  0  0  0
    0.7541   -2.7493    2.0932 H   0  0  0  0  0  0  0  0  0  0  0  0
    0.2174   -1.2239    2.8300 H   0  0  0  0  0  0  0  0  0  0  0  0
   -1.5908   -0.2107   -1.3195 O   0  5  0  0  0  0  0  0  0  0  0  0
   -2.4988    0.7163   -1.1060 C   0  0  0  0  0  0  0  0  0  0  0  0
   -3.6015    0.7628   -1.6282 O   0  0  0  0  0  0  0  0  0  0  0  0
   -2.0295    1.7974   -0.1015 C   0  0  0  0  0  0  0  0  0  0  0  0
   -1.0657    1.1905    0.8530 N   0  0  0  0  0  0  0  0  0  0  0  0
    0.6136    1.4834   -1.3191 O   0  5  0  0  0  0  0  0  0  0  0  0
    1.8705    1.8058   -1.1053 C   0  0  0  0  0  0  0  0  0  0  0  0
    2.4625    2.7373   -1.6275 O   0  0  0  0  0  0  0  0  0  0  0  0
    2.5715    0.8588   -0.1004 C   0  0  0  0  0  0  0  0  0  0  0  0
    1.5636    0.3275    0.8536 N   0  0  0  0  0  0  0  0  0  0  0  0
    1.8801   -1.0007    1.4366 C   0  0  0  0  0  0  0  0  0  0  0  0
    2.3694   -1.5923    0.6426 H   0  0  0  0  0  0  0  0  0  0  0  0
    2.5905   -0.9173    2.2898 H   0  0  0  0  0  0  0  0  0  0  0  0
   -1.7393    0.3350    1.8837 C   0  0  0  0  0  0  0  0  0  0  0  0
   -0.0742    2.1289    1.4365 C   0  0  0  0  0  0  0  0  0  0  0  0
    0.1939    2.8488    0.6429 H   0  0  0  0  0  0  0  0  0  0  0  0
   -0.5020    2.7022    2.2896 H   0  0  0  0  0  0  0  0  0  0  0  0
    1.1589    1.3381    1.8847 C   0  0  0  0  0  0  0  0  0  0  0  0
    2.0029    2.0278    2.0945 H   0  0  0  0  0  0  0  0  0  0  0  0
    0.9492    0.8002    2.8300 H   0  0  0  0  0  0  0  0  0  0  0  0
   -2.7589    0.7209    2.0924 H   0  0  0  0  0  0  0  0  0  0  0  0
   -1.1699    0.4227    2.8298 H   0  0  0  0  0  0  0  0  0  0  0  0
    3.4081    1.3727    0.4168 H   0  0  0  0  0  0  0  0  0  0  0  0
    2.9589    0.0022   -0.6856 H   0  0  0  0  0  0  0  0  0  0  0  0
   -2.8930    2.2651    0.4155 H   0  0  0  0  0  0  0  0  0  0  0  0
   -1.4814    2.5613   -0.6867 H   0  0  0  0  0  0  0  0  0  0  0  0
  1  4  1  0  0  0  0
  2  4  2  0  0  0  0
  3  8  1  0  0  0  0
  3 11  1  0  0  0  0
  4  5  1  0  0  0  0
  5  6  1  0  0  0  0
  5  3  1  0  0  0  0
  7  5  1  0  0  0  0
  8 27  1  0  0  0  0
  8 10  1  0  0  0  0
  9  8  1  0  0  0  0
 11 12  1  0  0  0  0
 11 13  1  0  0  0  0
 14 15  1  0  0  0  0
 15 17  1  0  0  0  0
 16 15  2  0  0  0  0
 17 38  1  0  0  0  0
 17 18  1  0  0  0  0
 18 28  1  0  0  0  0
 18 27  1  0  0  0  0
 19 20  1  0  0  0  0
 20 22  1  0  0  0  0
 21 20  2  0  0  0  0
 22 36  1  0  0  0  0
 22 23  1  0  0  0  0
 23 24  1  0  0  0  0
 23 31  1  0  0  0  0
 24 11  1  0  0  0  0
 24 26  1  0  0  0  0
 25 24  1  0  0  0  0
 27 34  1  0  0  0  0
 27 35  1  0  0  0  0
 28 31  1  0  0  0  0
 28 30  1  0  0  0  0
 29 28  1  0  0  0  0
 31 32  1  0  0  0  0
 31 33  1  0  0  0  0
 37 22  1  0  0  0  0
 39 17  1  0  0  0  0
M  CHG  3   1  -1  14  -1  19  -1
M  END
