1,2,7,22,24,34
q = -1.0

 60 63  0  0  1  0  0  0  0  0999 V2000
   -1.0863    1.4382   -0.9548 N   0  0  0  0  0  2  0  0  0  0  0  0
    0.8125   -0.3920   -1.5821 O   0  5  0  0  0  0  0  0  0  0  0  0
   -1.1058    2.0930    1.9585 C   0  0  1  0  0  0  0  0  0  0  0  0
   -1.6448    2.1935    2.9255 H   0  0  0  0  0  0  0  0  0  0  0  0
    0.8806    3.4670   -1.5883 O   0  0  0  0  0  0  0  0  0  0  0  0
    0.9043    2.5316   -1.8832 H   0  0  0  0  0  0  0  0  0  0  0  0
   -0.8906    0.6848    1.6775 N   0  0  0  0  0  2  0  0  0  0  0  0
    0.2933    2.7527    2.1172 C   0  0  1  0  0  0  0  0  0  0  0  0
    0.1384    3.7955    2.4678 H   0  0  0  0  0  0  0  0  0  0  0  0
    1.0627    2.1068    3.0991 O   0  0  0  0  0  0  0  0  0  0  0  0
    1.2954    1.2277    2.7309 H   0  0  0  0  0  0  0  0  0  0  0  0
    1.0384    2.8109    0.7684 C   0  0  2  0  0  0  0  0  0  0  0  0
    1.9624    3.4132    0.9092 H   0  0  0  0  0  0  0  0  0  0  0  0
    0.1998    3.4724   -0.3591 C   0  0  2  0  0  0  0  0  0  0  0  0
    0.0429    4.5379   -0.0858 H   0  0  0  0  0  0  0  0  0  0  0  0
   -1.1846    2.8050   -0.4781 C   0  0  2  0  0  0  0  0  0  0  0  0
   -1.7789    3.4033   -1.2082 H   0  0  0  0  0  0  0  0  0  0  0  0
   -1.9225    2.8157    0.8823 C   0  0  1  0  0  0  0  0  0  0  0  0
   -1.9916    3.8865    1.2025 H   0  0  0  0  0  0  0  0  0  0  0  0
   -3.1920    2.2091    0.8269 O   0  0  0  0  0  0  0  0  0  0  0  0
   -3.7076    2.6400    0.1205 H   0  0  0  0  0  0  0  0  0  0  0  0
    1.0557   -1.0890    0.9792 O   0  5  0  0  0  0  0  0  0  0  0  0
   -1.9251   -1.3739   -1.3194 C   0  0  0  0  0  0  0  0  0  0  0  0
   -1.2606   -1.2142   -0.2215 O   0  5  0  0  0  0  0  0  0  0  0  0
   -2.2310   -0.3008   -2.2420 C   0  0  0  0  0  0  0  0  0  0  0  0
   -3.0015   -0.5644   -3.4097 C   0  0  0  0  0  0  0  0  0  0  0  0
   -3.2283    0.2747   -4.0878 H   0  0  0  0  0  0  0  0  0  0  0  0
   -3.4608   -1.8414   -3.6996 C   0  0  0  0  0  0  0  0  0  0  0  0
   -4.0425   -2.0356   -4.6119 H   0  0  0  0  0  0  0  0  0  0  0  0
   -3.1782   -2.8933   -2.7890 C   0  0  0  0  0  0  0  0  0  0  0  0
   -3.5450   -3.9094   -3.0051 H   0  0  0  0  0  0  0  0  0  0  0  0
   -2.4469   -2.6710   -1.6298 C   0  0  0  0  0  0  0  0  0  0  0  0
   -2.2241   -3.4811   -0.9207 H   0  0  0  0  0  0  0  0  0  0  0  0
    1.3964    1.4816    0.3089 N   0  0  0  0  0  2  0  0  0  0  0  0
    2.0934   -0.5850   -1.6662 C   0  0  0  0  0  0  0  0  0  0  0  0
    3.0645    0.1684   -0.9013 C   0  0  0  0  0  0  0  0  0  0  0  0
    4.4547   -0.0602   -1.0933 C   0  0  0  0  0  0  0  0  0  0  0  0
    5.1708    0.5394   -0.5082 H   0  0  0  0  0  0  0  0  0  0  0  0
    4.9108   -1.0163   -1.9916 C   0  0  0  0  0  0  0  0  0  0  0  0
    5.9875   -1.1973   -2.1199 H   0  0  0  0  0  0  0  0  0  0  0  0
    3.9636   -1.7474   -2.7530 C   0  0  0  0  0  0  0  0  0  0  0  0
    4.3152   -2.5033   -3.4731 H   0  0  0  0  0  0  0  0  0  0  0  0
    2.5974   -1.5338   -2.6095 C   0  0  0  0  0  0  0  0  0  0  0  0
    1.8585   -2.0973   -3.1969 H   0  0  0  0  0  0  0  0  0  0  0  0
    0.5233   -1.8884    1.8565 C   0  0  0  0  0  0  0  0  0  0  0  0
   -0.6107   -1.5254    2.6777 C   0  0  0  0  0  0  0  0  0  0  0  0
   -1.0994   -2.4322    3.6558 C   0  0  0  0  0  0  0  0  0  0  0  0
   -1.9553   -2.1226    4.2772 H   0  0  0  0  0  0  0  0  0  0  0  0
   -0.5217   -3.6843    3.8320 C   0  0  0  0  0  0  0  0  0  0  0  0
   -0.9189   -4.3848    4.5803 H   0  0  0  0  0  0  0  0  0  0  0  0
    0.5983   -4.0383    3.0395 C   0  0  0  0  0  0  0  0  0  0  0  0
    1.0684   -5.0253    3.1753 H   0  0  0  0  0  0  0  0  0  0  0  0
    1.1172   -3.1665    2.0876 C   0  0  0  0  0  0  0  0  0  0  0  0
    1.9853   -3.4354    1.4687 H   0  0  0  0  0  0  0  0  0  0  0  0
   -1.9112    1.0451   -1.8975 C   0  0  0  0  0  3  0  0  0  0  0  0
   -2.4489    1.8428   -2.4530 H   0  0  0  0  0  0  0  0  0  0  0  0
    2.6278    1.2617   -0.0930 C   0  0  0  0  0  3  0  0  0  0  0  0
    3.3841    2.0288    0.1718 H   0  0  0  0  0  0  0  0  0  0  0  0
   -1.1182   -0.1880    2.6276 C   0  0  0  0  0  3  0  0  0  0  0  0
   -1.7053    0.1628    3.5007 H   0  0  0  0  0  0  0  0  0  0  0  0
  1 16  1  0  0  0  0
  3  8  1  0  0  0  0
  3  4  1  1  0  0  0
  5 14  1  0  0  0  0
  6  5  1  0  0  0  0
  7  3  1  0  0  0  0
  7 59  1  0  0  0  0
  8  9  1  1  0  0  0
  8 10  1  0  0  0  0
 11 10  1  0  0  0  0
 12 13  1  1  0  0  0
 12  8  1  0  0  0  0
 14 15  1  1  0  0  0
 14 12  1  0  0  0  0
 16 17  1  6  0  0  0
 16 14  1  0  0  0  0
 16 18  1  0  0  0  0
 18 19  1  1  0  0  0
 18  3  1  0  0  0  0
 20 18  1  0  0  0  0
 21 20  1  0  0  0  0
 22 45  1  0  0  0  0
 23 24  1  0  0  0  0
 25 55  1  0  0  0  0
 25 23  2  0  0  0  0
 26 25  1  0  0  0  0
 27 26  1  0  0  0  0
 28 26  2  0  0  0  0
 28 30  1  0  0  0  0
 29 28  1  0  0  0  0
 30 32  2  0  0  0  0
 31 30  1  0  0  0  0
 32 23  1  0  0  0  0
 32 33  1  0  0  0  0
 34 12  1  0  0  0  0
 35  2  1  0  0  0  0
 35 36  1  0  0  0  0
 36 57  1  0  0  0  0
 37 36  2  0  0  0  0
 37 38  1  0  0  0  0
 39 37  1  0  0  0  0
 40 39  1  0  0  0  0
 41 43  1  0  0  0  0
 41 39  2  0  0  0  0
 42 41  1  0  0  0  0
 43 35  2  0  0  0  0
 44 43  1  0  0  0  0
 45 53  2  0  0  0  0
 45 46  1  0  0  0  0
 46 47  2  0  0  0  0
 47 49  1  0  0  0  0
 47 48  1  0  0  0  0
 49 50  1  0  0  0  0
 51 52  1  0  0  0  0
 51 49  2  0  0  0  0
 53 51  1  0  0  0  0
 54 53  1  0  0  0  0
 55  1  1  0  0  0  0
 56 55  1  0  0  0  0
 57 58  1  0  0  0  0
 57 34  1  0  0  0  0
 59 46  1  0  0  0  0
 59 60  1  0  0  0  0
M  CHG  3   2  -1  22  -1  24  -1
M  END
