1,2,4,5,6
q = -3.0, confidence = 0.288

 53 54  0  0  0  0  0  0  0  0999 V2000
   -2.0737   -0.5053    0.8088 N   0  0  0  0  0  0  0  0  0  0  0  0
    0.6161   -1.1133    1.1437 N   0  0  0  0  0  0  0  0  0  0  0  0
   -0.2133    1.5328    1.1146 N   0  0  0  0  0  0  0  0  0  0  0  0
   -0.4473   -1.5004   -1.3378 O   0  5  0  0  0  0  0  0  0  0  0  0
    1.1527    0.6178   -1.0973 O   0  5  0  0  0  0  0  0  0  0  0  0
   -1.4811    0.9787   -1.4036 O   0  5  0  0  0  0  0  0  0  0  0  0
   -1.0927   -3.4623   -2.1566 O   0  0  0  0  0  0  0  0  0  0  0  0
   -2.8925    2.5770   -2.0358 O   0  0  0  0  0  0  0  0  0  0  0  0
   -1.7100   -1.4900    1.8758 C   0  0  0  0  0  0  0  0  0  0  0  0
   -0.3631   -2.1407    1.5813 C   0  0  0  0  0  0  0  0  0  0  0  0
    1.0583   -0.2396    2.2772 C   0  0  0  0  0  0  0  0  0  0  0  0
    1.0315    1.2278    1.8689 C   0  0  0  0  0  0  0  0  0  0  0  0
   -1.4095    1.5439    2.0135 C   0  0  0  0  0  0  0  0  0  0  0  0
   -2.5664    0.7711    1.3918 C   0  0  0  0  0  0  0  0  0  0  0  0
   -3.0903   -1.0323   -0.1542 C   0  0  0  0  0  0  0  0  0  0  0  0
   -2.7053   -2.3469   -0.8046 C   0  0  0  0  0  0  0  0  0  0  0  0
   -1.3349   -2.4478   -1.5056 C   0  0  0  0  0  0  0  0  0  0  0  0
   -0.0361    2.8070    0.3552 C   0  0  0  0  0  0  0  0  0  0  0  0
   -1.2614    3.2358   -0.4297 C   0  0  0  0  0  0  0  0  0  0  0  0
   -1.9242    2.2078   -1.3712 C   0  0  0  0  0  0  0  0  0  0  0  0
    1.7752   -1.7728    0.4573 C   0  0  0  0  0  0  0  0  0  0  0  0
    2.8105   -0.7992   -0.0166 C   0  0  0  0  0  0  0  0  0  0  0  0
    2.4056    0.3059   -0.8339 C   0  0  0  0  0  0  0  0  0  0  0  0
    3.4348    1.1433   -1.3589 C   0  0  0  0  0  0  0  0  0  0  0  0
    4.7820    0.9062   -1.0760 C   0  0  0  0  0  0  0  0  0  0  0  0
    5.1690   -0.1649   -0.2492 C   0  0  0  0  0  0  0  0  0  0  0  0
    4.1730   -1.0030    0.2693 C   0  0  0  0  0  0  0  0  0  0  0  0
   -2.4997   -2.2626    1.9773 H   0  0  0  0  0  0  0  0  0  0  0  0
   -1.6735   -0.9565    2.8457 H   0  0  0  0  0  0  0  0  0  0  0  0
   -0.4470   -2.8756    0.7613 H   0  0  0  0  0  0  0  0  0  0  0  0
    0.0113   -2.6866    2.4774 H   0  0  0  0  0  0  0  0  0  0  0  0
    2.0852   -0.5176    2.5905 H   0  0  0  0  0  0  0  0  0  0  0  0
    0.3938   -0.4226    3.1448 H   0  0  0  0  0  0  0  0  0  0  0  0
    1.1231    1.8885    2.7612 H   0  0  0  0  0  0  0  0  0  0  0  0
    1.8839    1.4467    1.2013 H   0  0  0  0  0  0  0  0  0  0  0  0
   -1.1201    1.0902    2.9814 H   0  0  0  0  0  0  0  0  0  0  0  0
   -1.7175    2.5854    2.2406 H   0  0  0  0  0  0  0  0  0  0  0  0
   -3.3595    0.5769    2.1497 H   0  0  0  0  0  0  0  0  0  0  0  0
   -3.0359    1.3441    0.5725 H   0  0  0  0  0  0  0  0  0  0  0  0
   -3.1957   -0.2498   -0.9300 H   0  0  0  0  0  0  0  0  0  0  0  0
   -4.0587   -1.1364    0.3897 H   0  0  0  0  0  0  0  0  0  0  0  0
   -2.7564   -3.1989   -0.0918 H   0  0  0  0  0  0  0  0  0  0  0  0
   -3.4665   -2.5858   -1.5739 H   0  0  0  0  0  0  0  0  0  0  0  0
    0.8029    2.6108   -0.3388 H   0  0  0  0  0  0  0  0  0  0  0  0
    0.2652    3.6043    1.0748 H   0  0  0  0  0  0  0  0  0  0  0  0
   -0.9795    4.1010   -1.0631 H   0  0  0  0  0  0  0  0  0  0  0  0
   -2.0677    3.6276    0.2273 H   0  0  0  0  0  0  0  0  0  0  0  0
    1.3304   -2.3148   -0.4031 H   0  0  0  0  0  0  0  0  0  0  0  0
    2.2288   -2.5070    1.1610 H   0  0  0  0  0  0  0  0  0  0  0  0
    3.1257    1.9779   -2.0058 H   0  0  0  0  0  0  0  0  0  0  0  0
    5.5461    1.5738   -1.5049 H   0  0  0  0  0  0  0  0  0  0  0  0
    6.2286   -0.3462   -0.0189 H   0  0  0  0  0  0  0  0  0  0  0  0
    4.4535   -1.8598    0.9051 H   0  0  0  0  0  0  0  0  0  0  0  0
  1 14  1  0  0  0  0
  1  9  1  0  0  0  0
  2 10  1  0  0  0  0
  2 11  1  0  0  0  0
  3 12  1  0  0  0  0
  3 13  1  0  0  0  0
  5 23  1  0  0  0  0
  6 20  1  0  0  0  0
  7 17  2  0  0  0  0
  8 20  2  0  0  0  0
  9 28  1  0  0  0  0
  9 29  1  0  0  0  0
 10  9  1  0  0  0  0
 10 31  1  0  0  0  0
 11 32  1  0  0  0  0
 11 33  1  0  0  0  0
 12 11  1  0  0  0  0
 12 34  1  0  0  0  0
 13 37  1  0  0  0  0
 13 36  1  0  0  0  0
 14 13  1  0  0  0  0
 14 38  1  0  0  0  0
 15 41  1  0  0  0  0
 15  1  1  0  0  0  0
 16 15  1  0  0  0  0
 16 42  1  0  0  0  0
 17  4  1  0  0  0  0
 17 16  1  0  0  0  0
 18 45  1  0  0  0  0
 18  3  1  0  0  0  0
 19 47  1  0  0  0  0
 19 18  1  0  0  0  0
 20 19  1  0  0  0  0
 21  2  1  0  0  0  0
 21 49  1  0  0  0  0
 22 27  1  0  0  0  0
 22 21  1  0  0  0  0
 23 22  2  0  0  0  0
 24 25  2  0  0  0  0
 24 23  1  0  0  0  0
 25 26  1  0  0  0  0
 26 52  1  0  0  0  0
 26 27  2  0  0  0  0
 27 53  1  0  0  0  0
 30 10  1  0  0  0  0
 35 12  1  0  0  0  0
 39 14  1  0  0  0  0
 40 15  1  0  0  0  0
 43 16  1  0  0  0  0
 44 18  1  0  0  0  0
 46 19  1  0  0  0  0
 48 21  1  0  0  0  0
 50 24  1  0  0  0  0
 51 25  1  0  0  0  0
M  CHG  3   4  -1   5  -1   6  -1
M  END
