1,2,4,6,7,8
q = -3.0, confidence = 0.398

 71 72  0  0  0  0  0  0  0  0999 V2000
   -0.0301    0.8390    0.4125 O   0  5  0  0  0  0  0  0  0  0  0  0
   -2.5001    1.6796    0.1568 O   0  5  0  0  0  0  0  0  0  0  0  0
   -2.5554    3.5697   -1.0715 O   0  0  0  0  0  0  0  0  0  0  0  0
   -1.9454   -0.3590    1.9974 O   0  5  0  0  0  0  0  0  0  0  0  0
   -3.5740   -0.8351    3.4835 O   0  0  0  0  0  0  0  0  0  0  0  0
   -0.9194   -1.8628   -0.1017 N   0  0  0  0  0  0  0  0  0  0  0  0
   -1.6319    0.1768   -1.8295 N   0  0  0  0  0  0  0  0  0  0  0  0
   -3.4906   -0.8666   -0.0882 N   0  0  0  0  0  0  0  0  0  0  0  0
   -0.5741   -2.0268   -1.5531 C   0  0  0  0  0  0  0  0  0  0  0  0
   -1.3424   -2.6703   -2.0265 H   0  0  0  0  0  0  0  0  0  0  0  0
    0.3976   -2.5525   -1.6509 H   0  0  0  0  0  0  0  0  0  0  0  0
   -0.4895   -0.6689   -2.2534 C   0  0  0  0  0  0  0  0  0  0  0  0
    0.4350   -0.1488   -1.9432 H   0  0  0  0  0  0  0  0  0  0  0  0
   -0.4602   -0.7968   -3.3596 H   0  0  0  0  0  0  0  0  0  0  0  0
   -2.9409   -0.2824   -2.3950 C   0  0  0  0  0  0  0  0  0  0  0  0
   -2.8079   -1.3088   -2.7887 H   0  0  0  0  0  0  0  0  0  0  0  0
   -3.2263    0.3530   -3.2590 H   0  0  0  0  0  0  0  0  0  0  0  0
   -4.0351   -0.2590   -1.3277 C   0  0  0  0  0  0  0  0  0  0  0  0
   -4.3221    0.7786   -1.0834 H   0  0  0  0  0  0  0  0  0  0  0  0
   -4.9438   -0.7963   -1.6812 H   0  0  0  0  0  0  0  0  0  0  0  0
   -3.3326   -2.3490   -0.2089 C   0  0  0  0  0  0  0  0  0  0  0  0
   -4.1623   -2.8663    0.3164 H   0  0  0  0  0  0  0  0  0  0  0  0
   -3.4163   -2.6220   -1.2788 H   0  0  0  0  0  0  0  0  0  0  0  0
   -1.9860   -2.7931    0.3500 C   0  0  0  0  0  0  0  0  0  0  0  0
   -1.9926   -2.7547    1.4544 H   0  0  0  0  0  0  0  0  0  0  0  0
   -1.7578   -3.8404    0.0485 H   0  0  0  0  0  0  0  0  0  0  0  0
    0.2783   -1.9942    0.7846 C   0  0  0  0  0  0  0  0  0  0  0  0
   -0.0978   -1.7543    1.8017 H   0  0  0  0  0  0  0  0  0  0  0  0
    0.6152   -3.0556    0.7686 H   0  0  0  0  0  0  0  0  0  0  0  0
    1.4132   -1.0909    0.4125 C   0  0  0  0  0  0  0  0  0  0  0  0
    1.1845    0.3188    0.3895 C   0  0  0  0  0  0  0  0  0  0  0  0
    2.3407    1.1832    0.3574 C   0  0  0  0  0  0  0  0  0  0  0  0
    3.5948    0.5865    0.1620 C   0  0  0  0  0  0  0  0  0  0  0  0
    4.4687    1.2490    0.1039 H   0  0  0  0  0  0  0  0  0  0  0  0
    3.8184   -0.8049    0.0461 C   0  0  0  0  0  0  0  0  0  0  0  0
    2.6984   -1.6285    0.2130 C   0  0  0  0  0  0  0  0  0  0  0  0
    2.8030   -2.7243    0.2202 H   0  0  0  0  0  0  0  0  0  0  0  0
    2.2098    2.6975    0.6181 C   0  0  0  0  0  0  0  0  0  0  0  0
    1.5308    2.9043    1.9937 C   0  0  0  0  0  0  0  0  0  0  0  0
    1.4094    3.9879    2.2009 H   0  0  0  0  0  0  0  0  0  0  0  0
    2.1480    2.4658    2.8040 H   0  0  0  0  0  0  0  0  0  0  0  0
    0.5310    2.4311    2.0166 H   0  0  0  0  0  0  0  0  0  0  0  0
    3.5841    3.3921    0.6560 C   0  0  0  0  0  0  0  0  0  0  0  0
    3.4437    4.4658    0.8931 H   0  0  0  0  0  0  0  0  0  0  0  0
    4.1112    3.3345   -0.3187 H   0  0  0  0  0  0  0  0  0  0  0  0
    4.2467    2.9631    1.4346 H   0  0  0  0  0  0  0  0  0  0  0  0
    1.3651    3.3920   -0.4731 C   0  0  0  0  0  0  0  0  0  0  0  0
    1.3978    4.4930   -0.3401 H   0  0  0  0  0  0  0  0  0  0  0  0
    0.3084    3.0851   -0.4054 H   0  0  0  0  0  0  0  0  0  0  0  0
    1.7528    3.1628   -1.4879 H   0  0  0  0  0  0  0  0  0  0  0  0
    5.2377   -1.3393   -0.2085 C   0  0  0  0  0  0  0  0  0  0  0  0
    5.7649   -0.7711   -1.5458 C   0  0  0  0  0  0  0  0  0  0  0  0
    6.7962   -1.1297   -1.7476 H   0  0  0  0  0  0  0  0  0  0  0  0
    5.7886    0.3368   -1.5366 H   0  0  0  0  0  0  0  0  0  0  0  0
    5.1183   -1.0858   -2.3903 H   0  0  0  0  0  0  0  0  0  0  0  0
    6.1735   -0.8971    0.9396 C   0  0  0  0  0  0  0  0  0  0  0  0
    7.2064   -1.2671    0.7695 H   0  0  0  0  0  0  0  0  0  0  0  0
    5.8185   -1.2943    1.9119 H   0  0  0  0  0  0  0  0  0  0  0  0
    6.2220    0.2065    1.0261 H   0  0  0  0  0  0  0  0  0  0  0  0
    5.2672   -2.8751   -0.2905 C   0  0  0  0  0  0  0  0  0  0  0  0
    6.3007   -3.2250   -0.4881 H   0  0  0  0  0  0  0  0  0  0  0  0
    4.6229   -3.2548   -1.1097 H   0  0  0  0  0  0  0  0  0  0  0  0
    4.9323   -3.3440    0.6569 H   0  0  0  0  0  0  0  0  0  0  0  0
   -1.4458    1.6375   -2.0007 C   0  0  0  0  0  0  0  0  0  0  0  0
   -1.7496    1.9808   -3.0115 H   0  0  0  0  0  0  0  0  0  0  0  0
   -0.3761    1.8694   -1.8474 H   0  0  0  0  0  0  0  0  0  0  0  0
   -2.2368    2.4012   -0.9091 C   0  0  0  0  0  0  0  0  0  0  0  0
   -4.1813   -0.4702    1.1664 C   0  0  0  0  0  0  0  0  0  0  0  0
   -5.0920   -1.0773    1.3493 H   0  0  0  0  0  0  0  0  0  0  0  0
   -4.4536    0.5990    1.0730 H   0  0  0  0  0  0  0  0  0  0  0  0
   -3.1919   -0.5792    2.3518 C   0  0  0  0  0  0  0  0  0  0  0  0
  3 67  2  0  0  0  0
  4 71  1  0  0  0  0
  6 24  1  0  0  0  0
  6 27  1  0  0  0  0
  8 68  1  0  0  0  0
  9  6  1  0  0  0  0
 10  9  1  0  0  0  0
 11  9  1  0  0  0  0
 12 13  1  0  0  0  0
 12  7  1  0  0  0  0
 12  9  1  0  0  0  0
 14 12  1  0  0  0  0
 15  7  1  0  0  0  0
 15 18  1  0  0  0  0
 16 15  1  0  0  0  0
 17 15  1  0  0  0  0
 18 19  1  0  0  0  0
 18  8  1  0  0  0  0
 20 18  1  0  0  0  0
 21  8  1  0  0  0  0
 21 22  1  0  0  0  0
 21 24  1  0  0  0  0
 23 21  1  0  0  0  0
 24 25  1  0  0  0  0
 26 24  1  0  0  0  0
 27 28  1  0  0  0  0
 29 27  1  0  0  0  0
 30 27  1  0  0  0  0
 31  1  1  0  0  0  0
 31 30  1  0  0  0  0
 32 31  2  0  0  0  0
 32 38  1  0  0  0  0
 33 32  1  0  0  0  0
 34 33  1  0  0  0  0
 35 33  2  0  0  0  0
 35 36  1  0  0  0  0
 36 37  1  0  0  0  0
 36 30  2  0  0  0  0
 38 43  1  0  0  0  0
 38 39  1  0  0  0  0
 39 42  1  0  0  0  0
 39 40  1  0  0  0  0
 39 41  1  0  0  0  0
 43 44  1  0  0  0  0
 43 46  1  0  0  0  0
 45 43  1  0  0  0  0
 47 49  1  0  0  0  0
 47 48  1  0  0  0  0
 47 38  1  0  0  0  0
 50 47  1  0  0  0  0
 51 35  1  0  0  0  0
 51 56  1  0  0  0  0
 52 54  1  0  0  0  0
 52 51  1  0  0  0  0
 53 52  1  0  0  0  0
 55 52  1  0  0  0  0
 56 59  1  0  0  0  0
 56 58  1  0  0  0  0
 57 56  1  0  0  0  0
 60 51  1  0  0  0  0
 60 63  1  0  0  0  0
 61 60  1  0  0  0  0
 62 60  1  0  0  0  0
 64 66  1  0  0  0  0
 64  7  1  0  0  0  0
 64 67  1  0  0  0  0
 65 64  1  0  0  0  0
 67  2  1  0  0  0  0
 68 69  1  0  0  0  0
 68 71  1  0  0  0  0
 70 68  1  0  0  0  0
 71  5  2  0  0  0  0
M  CHG  3   1  -1   2  -1   4  -1
M  END
