2,4,25,29,30,34
q = -3.0, confidence = 0.468

 72 75  0  0  0  0  0  0  0  0999 V2000
    2.1380    2.1573   -0.2998 P   0  0  2  0  0  0  0  0  0  0  0  0
    0.6995    1.6860    0.1291 O   0  0  0  0  0  1  0  0  0  0  0  0
    2.3154    3.5379   -0.9208 O   0  0  0  0  0  0  0  0  0  0  0  0
    1.6479    0.3338   -2.3299 N   0  0  0  0  0  0  0  0  0  0  0  0
    1.1901    1.3255   -3.3170 C   0  0  0  0  0  0  0  0  0  0  0  0
    1.8608   -1.0111   -2.8746 C   0  0  0  0  0  0  0  0  0  0  0  0
    2.7299    0.7977   -1.4589 C   0  0  0  0  0  0  0  0  0  0  0  0
    3.2095    1.9388    1.1728 C   0  0  0  0  0  0  0  0  0  0  0  0
    4.0761    2.9790    1.5533 C   0  0  0  0  0  0  0  0  0  0  0  0
    4.8837    2.8409    2.6936 C   0  0  0  0  0  0  0  0  0  0  0  0
    4.8287    1.6591    3.4511 C   0  0  0  0  0  0  0  0  0  0  0  0
    3.9626    0.6181    3.0711 C   0  0  0  0  0  0  0  0  0  0  0  0
    3.1466    0.7544    1.9378 C   0  0  0  0  0  0  0  0  0  0  0  0
    4.0893    3.8918    0.9364 H   0  0  0  0  0  0  0  0  0  0  0  0
    5.5598    3.6576    2.9943 H   0  0  0  0  0  0  0  0  0  0  0  0
    5.4638    1.5477    4.3447 H   0  0  0  0  0  0  0  0  0  0  0  0
    3.9181   -0.3072    3.6671 H   0  0  0  0  0  0  0  0  0  0  0  0
    2.4612   -0.0577    1.6370 H   0  0  0  0  0  0  0  0  0  0  0  0
    1.9952    2.0657   -3.5266 H   0  0  0  0  0  0  0  0  0  0  0  0
    0.9855    0.7981   -4.2718 H   0  0  0  0  0  0  0  0  0  0  0  0
    2.5660   -1.0035   -3.7442 H   0  0  0  0  0  0  0  0  0  0  0  0
    2.3234   -1.6336   -2.0843 H   0  0  0  0  0  0  0  0  0  0  0  0
    3.0349   -0.0588   -0.8266 H   0  0  0  0  0  0  0  0  0  0  0  0
    3.6170    1.1721   -2.0253 H   0  0  0  0  0  0  0  0  0  0  0  0
    1.1101   -1.4483    0.1285 O   0  0  0  0  0  1  0  0  0  0  0  0
    0.7992   -2.9295   -0.3012 P   0  0  2  0  0  0  0  0  0  0  0  0
    1.9062   -3.7728   -0.9228 O   0  0  0  0  0  0  0  0  0  0  0  0
   -0.6745   -2.7621   -1.4598 C   0  0  0  0  0  0  0  0  0  0  0  0
   -0.5354   -1.5927   -2.3304 N   0  0  0  0  0  0  0  0  0  0  0  0
   -1.8097   -0.2368    0.1285 O   0  0  0  0  0  1  0  0  0  0  0  0
   -2.9371    0.7733   -0.3007 P   0  0  2  0  0  0  0  0  0  0  0  0
   -4.2210    0.2366   -0.9224 O   0  0  0  0  0  0  0  0  0  0  0  0
   -2.0553    1.9662   -1.4590 C   0  0  0  0  0  0  0  0  0  0  0  0
   -1.1122    1.2614   -2.3300 N   0  0  0  0  0  0  0  0  0  0  0  0
   -1.7420    0.3692   -3.3174 C   0  0  0  0  0  0  0  0  0  0  0  0
   -1.8066   -1.1045   -2.8750 C   0  0  0  0  0  0  0  0  0  0  0  0
    0.5524   -1.6918   -3.3176 C   0  0  0  0  0  0  0  0  0  0  0  0
   -0.0538    2.1183   -2.8743 C   0  0  0  0  0  0  0  0  0  0  0  0
   -0.4128    2.7253   -3.7439 H   0  0  0  0  0  0  0  0  0  0  0  0
    0.2539    2.8300   -2.0839 H   0  0  0  0  0  0  0  0  0  0  0  0
    0.7908   -2.7591   -3.5273 H   0  0  0  0  0  0  0  0  0  0  0  0
    0.1980   -1.2506   -4.2724 H   0  0  0  0  0  0  0  0  0  0  0  0
   -2.1524   -1.7187   -3.7449 H   0  0  0  0  0  0  0  0  0  0  0  0
   -2.5771   -1.1943   -2.0849 H   0  0  0  0  0  0  0  0  0  0  0  0
   -2.7855    0.6964   -3.5270 H   0  0  0  0  0  0  0  0  0  0  0  0
   -1.1828    0.4559   -4.2721 H   0  0  0  0  0  0  0  0  0  0  0  0
   -1.4663    2.6586   -0.8263 H   0  0  0  0  0  0  0  0  0  0  0  0
   -2.8230    2.5474   -2.0255 H   0  0  0  0  0  0  0  0  0  0  0  0
   -3.2845    1.8095    1.1724 C   0  0  0  0  0  0  0  0  0  0  0  0
   -4.6188    2.0394    1.5525 C   0  0  0  0  0  0  0  0  0  0  0  0
   -4.9036    2.8066    2.6935 C   0  0  0  0  0  0  0  0  0  0  0  0
   -3.8530    3.3491    3.4521 C   0  0  0  0  0  0  0  0  0  0  0  0
   -2.5182    3.1201    3.0724 C   0  0  0  0  0  0  0  0  0  0  0  0
   -2.2277    2.3464    1.9384 C   0  0  0  0  0  0  0  0  0  0  0  0
   -1.1816    2.1593    1.6378 H   0  0  0  0  0  0  0  0  0  0  0  0
   -1.6950    3.5436    3.6692 H   0  0  0  0  0  0  0  0  0  0  0  0
   -4.0745    3.9538    4.3463 H   0  0  0  0  0  0  0  0  0  0  0  0
   -5.9491    2.9833    2.9940 H   0  0  0  0  0  0  0  0  0  0  0  0
   -5.4156    1.5950    0.9347 H   0  0  0  0  0  0  0  0  0  0  0  0
   -1.5688   -2.5984   -0.8274 H   0  0  0  0  0  0  0  0  0  0  0  0
   -0.7937   -3.7174   -2.0266 H   0  0  0  0  0  0  0  0  0  0  0  0
    0.0749   -3.7492    1.1712 C   0  0  0  0  0  0  0  0  0  0  0  0
    0.5427   -5.0200    1.5507 C   0  0  0  0  0  0  0  0  0  0  0  0
    0.0196   -5.6512    2.6907 C   0  0  0  0  0  0  0  0  0  0  0  0
   -0.9763   -5.0134    3.4489 C   0  0  0  0  0  0  0  0  0  0  0  0
   -1.4451   -3.7427    3.0698 C   0  0  0  0  0  0  0  0  0  0  0  0
   -0.9193   -3.1032    1.9368 C   0  0  0  0  0  0  0  0  0  0  0  0
   -1.2802   -2.1035    1.6366 H   0  0  0  0  0  0  0  0  0  0  0  0
   -2.2241   -3.2420    3.6662 H   0  0  0  0  0  0  0  0  0  0  0  0
   -1.3900   -5.5083    4.3422 H   0  0  0  0  0  0  0  0  0  0  0  0
    0.3892   -6.6452    2.9907 H   0  0  0  0  0  0  0  0  0  0  0  0
    1.3265   -5.4874    0.9333 H   0  0  0  0  0  0  0  0  0  0  0  0
  1  3  2  6  0  0  0
  1  2  1  0  0  0  0
  1  8  1  0  0  0  0
  4  7  1  0  0  0  0
  5 38  1  0  0  0  0
  5  4  1  0  0  0  0
  6  4  1  0  0  0  0
  6 22  1  0  0  0  0
  7 23  1  0  0  0  0
  7  1  1  0  0  0  0
  8  9  2  0  0  0  0
  8 13  1  0  0  0  0
  9 10  1  0  0  0  0
 10 15  1  0  0  0  0
 10 11  2  0  0  0  0
 11 16  1  0  0  0  0
 12 11  1  0  0  0  0
 12 17  1  0  0  0  0
 13 12  2  0  0  0  0
 14  9  1  0  0  0  0
 18 13  1  0  0  0  0
 19  5  1  0  0  0  0
 20  5  1  0  0  0  0
 21  6  1  0  0  0  0
 24  7  1  0  0  0  0
 26 27  2  6  0  0  0
 26 25  1  0  0  0  0
 26 62  1  0  0  0  0
 28 60  1  0  0  0  0
 28 26  1  0  0  0  0
 29 28  1  0  0  0  0
 31 32  2  6  0  0  0
 31 30  1  0  0  0  0
 31 49  1  0  0  0  0
 33 47  1  0  0  0  0
 33 31  1  0  0  0  0
 34 33  1  0  0  0  0
 35 36  1  0  0  0  0
 35 34  1  0  0  0  0
 36 29  1  0  0  0  0
 36 44  1  0  0  0  0
 37  6  1  0  0  0  0
 37 29  1  0  0  0  0
 38 34  1  0  0  0  0
 38 40  1  0  0  0  0
 39 38  1  0  0  0  0
 41 37  1  0  0  0  0
 42 37  1  0  0  0  0
 43 36  1  0  0  0  0
 45 35  1  0  0  0  0
 46 35  1  0  0  0  0
 48 33  1  0  0  0  0
 49 50  2  0  0  0  0
 49 54  1  0  0  0  0
 50 51  1  0  0  0  0
 51 58  1  0  0  0  0
 51 52  2  0  0  0  0
 52 57  1  0  0  0  0
 53 52  1  0  0  0  0
 53 56  1  0  0  0  0
 54 53  2  0  0  0  0
 55 54  1  0  0  0  0
 59 50  1  0  0  0  0
 61 28  1  0  0  0  0
 62 63  2  0  0  0  0
 62 67  1  0  0  0  0
 63 64  1  0  0  0  0
 64 71  1  0  0  0  0
 64 65  2  0  0  0  0
 65 70  1  0  0  0  0
 66 65  1  0  0  0  0
 66 69  1  0  0  0  0
 67 66  2  0  0  0  0
 68 67  1  0  0  0  0
 72 63  1  0  0  0  0
M  END
