1,2,3,9
 OpenBabel05122313063D

 17 16  0  0  0  0  0  0  0  0999 V2000
    1.3083    0.4842    1.2218 S   0  0  0  0  0  0  0  0  0  0  0  0
    0.9264   -1.6615   -1.1315 S   0  0  0  0  0  0  0  0  0  0  0  0
   -0.5709    1.4639   -0.6909 O   0  5  0  0  0  0  0  0  0  0  0  0
    0.3230    3.4971   -1.0748 O   0  0  0  0  0  0  0  0  0  0  0  0
    0.3709    2.3758   -0.6084 C   0  0  0  0  0  0  0  0  0  0  0  0
    1.6629    1.9139    0.1270 C   0  0  0  0  0  0  0  0  0  0  0  0
    2.6692   -0.7069    0.8709 C   0  0  0  0  0  0  0  0  0  0  0  0
    2.6292   -1.2616   -0.5413 C   0  0  0  0  0  0  0  0  0  0  0  0
    0.0282   -2.2001    0.3256 C   0  0  0  0  0  3  0  0  0  0  0  0
    2.4124    1.6162   -0.6343 H   0  0  0  0  0  0  0  0  0  0  0  0
    2.0863    2.7387    0.7306 H   0  0  0  0  0  0  0  0  0  0  0  0
    2.5456   -1.4989    1.6348 H   0  0  0  0  0  0  0  0  0  0  0  0
    3.6303   -0.1963    1.0821 H   0  0  0  0  0  0  0  0  0  0  0  0
    3.0040   -0.5360   -1.2910 H   0  0  0  0  0  0  0  0  0  0  0  0
    3.2427   -2.1813   -0.6317 H   0  0  0  0  0  0  0  0  0  0  0  0
   -0.7201   -2.9703    0.0484 H   0  0  0  0  0  0  0  0  0  0  0  0
    0.6632   -2.5673    1.1553 H   0  0  0  0  0  0  0  0  0  0  0  0
  2  8  1  0  0  0  0
  2  9  1  0  0  0  0
  3  5  1  0  0  0  0
  4  5  2  0  0  0  0
  5  6  1  0  0  0  0
  6 11  1  0  0  0  0
  6  1  1  0  0  0  0
  7 13  1  0  0  0  0
  7  1  1  0  0  0  0
  7 12  1  0  0  0  0
  8  7  1  0  0  0  0
  9 17  1  0  0  0  0
 10  6  1  0  0  0  0
 14  8  1  0  0  0  0
 15  8  1  0  0  0  0
 16  9  1  0  0  0  0
M  CHG  1   3  -1
M  END
