1,2,4
q = -2.0, confidence = 0.822

 14 13  0  0  0  0  0  0  0  0999 V2000
    2.6213   -0.6054   -1.0571 S   0  0  0  0  0  1  0  0  0  0  0  0
    0.8951    2.0506   -0.1065 S   0  0  0  0  0  0  0  0  0  0  0  0
    0.7828    0.8645    3.6398 O   0  5  0  0  0  0  0  0  0  0  0  0
    0.7410   -0.2281    1.6666 O   0  0  0  0  0  0  0  0  0  0  0  0
    3.2637    1.1383   -1.1660 C   0  0  0  0  0  0  0  0  0  0  0  0
    4.3693    1.0663   -1.1143 H   0  0  0  0  0  0  0  0  0  0  0  0
    2.9969    1.5564   -2.1597 H   0  0  0  0  0  0  0  0  0  0  0  0
    2.7460    2.0132   -0.0392 C   0  0  0  0  0  0  0  0  0  0  0  0
    3.0965    3.0618   -0.1279 H   0  0  0  0  0  0  0  0  0  0  0  0
    3.0411    1.6039    0.9482 H   0  0  0  0  0  0  0  0  0  0  0  0
    0.4825    2.1788    1.6597 C   0  0  0  0  0  0  0  0  0  0  0  0
    1.0506    2.9992    2.1379 H   0  0  0  0  0  0  0  0  0  0  0  0
   -0.5971    2.4347    1.6656 H   0  0  0  0  0  0  0  0  0  0  0  0
    0.6945    0.8540    2.4256 C   0  0  0  0  0  0  0  0  0  0  0  0
  2  8  1  0  0  0  0
  2 11  1  0  0  0  0
  4 14  2  0  0  0  0
  5  6  1  0  0  0  0
  5  1  1  0  0  0  0
  5  8  1  0  0  0  0
  7  5  1  0  0  0  0
  8 10  1  0  0  0  0
  9  8  1  0  0  0  0
 11 13  1  0  0  0  0
 11 12  1  0  0  0  0
 11 14  1  0  0  0  0
 14  3  1  0  0  0  0
M  CHG  1   3  -1
M  END
