16,25,28
 OpenBabel05122313063D

 55 56  0  0  1  0  0  0  0  0999 V2000
    1.4235    0.7860   -2.2712 O   0  0  0  0  0  0  0  0  0  0  0  0
    2.4667    0.5212   -1.4774 C   0  0  0  0  0  0  0  0  0  0  0  0
    2.9618   -0.8159   -1.4481 C   0  0  0  0  0  0  0  0  0  0  0  0
    4.0958   -1.1199   -0.6878 C   0  0  0  0  0  0  0  0  0  0  0  0
    4.7254   -0.1194    0.0604 C   0  0  0  0  0  0  0  0  0  0  0  0
    5.9140   -0.4576    0.8693 N   0  0  0  0  0  0  0  0  0  0  0  0
    6.4307    0.4506    1.5202 O   0  0  0  0  0  0  0  0  0  0  0  0
    6.2987   -1.6272    0.8434 O   0  0  0  0  0  0  0  0  0  0  0  0
    4.2397    1.1924    0.0688 C   0  0  0  0  0  0  0  0  0  0  0  0
    3.1120    1.5253   -0.6907 C   0  0  0  0  0  0  0  0  0  0  0  0
    2.5861    2.9452   -0.6784 C   0  0  0  0  0  0  0  0  0  0  0  0
    1.5490    3.1951    0.3340 N   0  0  0  0  0  0  0  0  0  0  0  0
    0.2459    2.9174    0.1150 C   0  0  0  0  0  0  0  0  0  0  0  0
   -0.1649    2.4109   -0.9451 O   0  0  0  0  0  0  0  0  0  0  0  0
   -0.7160    3.3323    1.2241 C   0  0  0  0  0  0  0  0  0  0  0  0
   -2.0936    2.1758    1.5925 S   0  0  0  0  0  0  0  0  0  0  0  0
   -3.4330    2.7542    0.4749 C   0  0  0  0  0  0  0  0  0  0  0  0
   -3.2580    2.4310   -1.0091 C   0  0  0  0  0  0  0  0  0  0  0  0
   -3.1298    1.0415   -1.2583 O   0  0  0  0  0  0  0  0  0  0  0  0
   -4.3519    0.3387   -1.4421 C   0  0  0  0  0  0  0  0  0  0  0  0
   -4.0300   -1.1291   -1.6075 C   0  0  0  0  0  0  0  0  0  0  0  0
   -3.5413   -1.6299   -0.3686 O   0  0  0  0  0  0  0  0  0  0  0  0
   -3.0836   -2.9662   -0.4344 C   0  0  0  0  0  0  0  0  0  0  0  0
   -2.6980   -3.4278    0.9603 C   0  0  0  0  0  0  0  0  0  0  0  0
   -1.3625   -2.4838    1.7931 S   0  0  0  0  0  0  0  0  0  0  0  0
    0.1180   -3.0487    0.8985 C   0  0  0  0  0  0  0  0  0  0  0  0
    0.4804   -2.2530   -0.3647 C   0  0  1  0  0  3  0  0  0  0  0  0
   -0.0691   -1.1839   -0.6737 O   0  0  0  0  0  1  0  0  0  0  0  0
    1.4974   -2.7570   -1.0987 N   0  0  0  0  0  0  0  0  0  0  0  0
    2.1726   -1.9280   -2.1128 C   0  0  0  0  0  0  0  0  0  0  0  0
    0.8345    1.5017   -1.8766 H   0  0  0  0  0  0  0  0  0  0  0  0
    4.5084   -2.1385   -0.6411 H   0  0  0  0  0  0  0  0  0  0  0  0
    4.7764    1.9425    0.6679 H   0  0  0  0  0  0  0  0  0  0  0  0
    2.1537    3.2060   -1.6655 H   0  0  0  0  0  0  0  0  0  0  0  0
    3.4133    3.6515   -0.4786 H   0  0  0  0  0  0  0  0  0  0  0  0
    1.8418    3.5262    1.2552 H   0  0  0  0  0  0  0  0  0  0  0  0
   -1.1758    4.3046    0.9469 H   0  0  0  0  0  0  0  0  0  0  0  0
   -0.1937    3.4847    2.1894 H   0  0  0  0  0  0  0  0  0  0  0  0
   -3.5509    3.8462    0.6337 H   0  0  0  0  0  0  0  0  0  0  0  0
   -4.3356    2.2661    0.8982 H   0  0  0  0  0  0  0  0  0  0  0  0
   -2.3310    2.8987   -1.3924 H   0  0  0  0  0  0  0  0  0  0  0  0
   -4.1262    2.8536   -1.5657 H   0  0  0  0  0  0  0  0  0  0  0  0
   -4.8781    0.7035   -2.3546 H   0  0  0  0  0  0  0  0  0  0  0  0
   -5.0399    0.4707   -0.5736 H   0  0  0  0  0  0  0  0  0  0  0  0
   -3.2643   -1.2536   -2.4087 H   0  0  0  0  0  0  0  0  0  0  0  0
   -4.9495   -1.6801   -1.9145 H   0  0  0  0  0  0  0  0  0  0  0  0
   -2.2278   -3.0567   -1.1464 H   0  0  0  0  0  0  0  0  0  0  0  0
   -3.8941   -3.6373   -0.8089 H   0  0  0  0  0  0  0  0  0  0  0  0
   -2.4070   -4.4975    0.9525 H   0  0  0  0  0  0  0  0  0  0  0  0
   -3.5623   -3.3209    1.6469 H   0  0  0  0  0  0  0  0  0  0  0  0
    0.0258   -4.1339    0.6845 H   0  0  0  0  0  0  0  0  0  0  0  0
    0.9548   -2.9376    1.6209 H   0  0  0  0  0  0  0  0  0  0  0  0
    1.9713   -3.6005   -0.7676 H   0  0  0  0  0  0  0  0  0  0  0  0
    2.8270   -2.5958   -2.7041 H   0  0  0  0  0  0  0  0  0  0  0  0
    1.4053   -1.4957   -2.7802 H   0  0  0  0  0  0  0  0  0  0  0  0
  1 31  1  0  0  0  0
  1  2  1  0  0  0  0
  2  3  2  0  0  0  0
  2 10  1  0  0  0  0
  3  4  1  0  0  0  0
  4 32  1  0  0  0  0
  4  5  2  0  0  0  0
  5  9  1  0  0  0  0
  5  6  1  0  0  0  0
  6  7  2  0  0  0  0
  8  6  2  0  0  0  0
  9 33  1  0  0  0  0
 10 11  1  0  0  0  0
 10  9  2  0  0  0  0
 11 35  1  0  0  0  0
 11 12  1  0  0  0  0
 12 36  1  0  0  0  0
 13 12  1  0  0  0  0
 13 15  1  0  0  0  0
 14 13  2  0  0  0  0
 15 16  1  0  0  0  0
 15 38  1  0  0  0  0
 17 39  1  0  0  0  0
 17 40  1  0  0  0  0
 17 16  1  0  0  0  0
 18 17  1  0  0  0  0
 19 18  1  0  0  0  0
 20 19  1  0  0  0  0
 20 44  1  0  0  0  0
 21 20  1  0  0  0  0
 21 22  1  0  0  0  0
 23 22  1  0  0  0  0
 23 24  1  0  0  0  0
 24 50  1  0  0  0  0
 24 25  1  0  0  0  0
 26 52  1  0  0  0  0
 26 25  1  0  0  0  0
 27 28  1  1  0  0  0
 27 26  1  0  0  0  0
 29 53  1  0  0  0  0
 29 27  1  0  0  0  0
 30  3  1  0  0  0  0
 30 29  1  0  0  0  0
 34 11  1  0  0  0  0
 37 15  1  0  0  0  0
 41 18  1  0  0  0  0
 42 18  1  0  0  0  0
 43 20  1  0  0  0  0
 45 21  1  0  0  0  0
 46 21  1  0  0  0  0
 47 23  1  0  0  0  0
 48 23  1  0  0  0  0
 49 24  1  0  0  0  0
 51 26  1  0  0  0  0
 54 30  1  0  0  0  0
 55 30  1  0  0  0  0
M  END
