1,2,3
 OpenBabel05122313063D

 34 35  0  0  1  0  0  0  0  0999 V2000
   -2.1065   -2.4440    0.1985 S   0  0  0  0  0  1  0  0  0  0  0  0
   -1.1430    0.5586    1.8206 S   0  0  0  0  0  1  0  0  0  0  0  0
   -0.0968   -0.2278   -0.7211 O   0  0  0  0  0  1  0  0  0  0  0  0
   -0.3541   -2.7828    0.7005 C   0  0  0  0  0  0  0  0  0  0  0  0
    0.2681   -1.9156    1.8002 C   0  0  0  0  0  0  0  0  0  0  0  0
    0.4405   -0.3979    1.5829 C   0  0  1  0  0  0  0  0  0  0  0  0
    0.9794    0.0185    0.1741 C   0  0  0  0  0  0  0  0  0  0  0  0
    1.3534    1.5115    0.0985 C   0  0  0  0  0  0  0  0  0  0  0  0
    1.1514    2.1954   -1.1155 C   0  0  0  0  0  0  0  0  0  0  0  0
    1.5159    3.5423   -1.2502 C   0  0  0  0  0  0  0  0  0  0  0  0
    2.0916    4.2302   -0.1705 C   0  0  0  0  0  0  0  0  0  0  0  0
    2.2988    3.5562    1.0423 C   0  0  0  0  0  0  0  0  0  0  0  0
    1.9342    2.2077    1.1746 C   0  0  0  0  0  0  0  0  0  0  0  0
    2.2093   -0.8023   -0.2406 C   0  0  0  0  0  0  0  0  0  0  0  0
    2.2317   -1.4757   -1.4755 C   0  0  0  0  0  0  0  0  0  0  0  0
    3.3599   -2.2146   -1.8650 C   0  0  0  0  0  0  0  0  0  0  0  0
    4.4797   -2.2922   -1.0238 C   0  0  0  0  0  0  0  0  0  0  0  0
    4.4666   -1.6181    0.2083 C   0  0  0  0  0  0  0  0  0  0  0  0
    3.3424   -0.8747    0.5942 C   0  0  0  0  0  0  0  0  0  0  0  0
   -0.3569   -3.8336    1.0556 H   0  0  0  0  0  0  0  0  0  0  0  0
    0.2575   -2.7447   -0.2216 H   0  0  0  0  0  0  0  0  0  0  0  0
   -0.2984   -2.0480    2.7454 H   0  0  0  0  0  0  0  0  0  0  0  0
    1.2814   -2.3382    1.9812 H   0  0  0  0  0  0  0  0  0  0  0  0
    1.1210   -0.0420    2.3828 H   0  0  0  0  0  0  0  0  0  0  0  0
    0.6950    1.6546   -1.9566 H   0  0  0  0  0  0  0  0  0  0  0  0
    1.3486    4.0593   -2.2078 H   0  0  0  0  0  0  0  0  0  0  0  0
    2.3757    5.2885   -0.2726 H   0  0  0  0  0  0  0  0  0  0  0  0
    2.7414    4.0852    1.9000 H   0  0  0  0  0  0  0  0  0  0  0  0
    2.0962    1.7072    2.1403 H   0  0  0  0  0  0  0  0  0  0  0  0
    1.3467   -1.4116   -2.1241 H   0  0  0  0  0  0  0  0  0  0  0  0
    3.3611   -2.7351   -2.8350 H   0  0  0  0  0  0  0  0  0  0  0  0
    5.3633   -2.8737   -1.3273 H   0  0  0  0  0  0  0  0  0  0  0  0
    5.3415   -1.6677    0.8743 H   0  0  0  0  0  0  0  0  0  0  0  0
    3.3547   -0.3382    1.5547 H   0  0  0  0  0  0  0  0  0  0  0  0
  1  4  1  0  0  0  0
  3  7  1  0  0  0  0
  4 20  1  0  0  0  0
  4  5  1  0  0  0  0
  5 23  1  0  0  0  0
  5 22  1  0  0  0  0
  6  5  1  0  0  0  0
  6  2  1  0  0  0  0
  6 24  1  1  0  0  0
  7  6  1  0  0  0  0
  8  7  1  0  0  0  0
  8 13  1  0  0  0  0
  9  8  2  0  0  0  0
 10  9  1  0  0  0  0
 10 11  2  0  0  0  0
 11 12  1  0  0  0  0
 12 13  2  0  0  0  0
 12 28  1  0  0  0  0
 13 29  1  0  0  0  0
 14  7  1  0  0  0  0
 14 19  1  0  0  0  0
 15 14  2  0  0  0  0
 16 15  1  0  0  0  0
 16 17  2  0  0  0  0
 17 18  1  0  0  0  0
 18 19  2  0  0  0  0
 18 33  1  0  0  0  0
 19 34  1  0  0  0  0
 21  4  1  0  0  0  0
 25  9  1  0  0  0  0
 26 10  1  0  0  0  0
 27 11  1  0  0  0  0
 30 15  1  0  0  0  0
 31 16  1  0  0  0  0
 32 17  1  0  0  0  0
M  END
