1,10,24
 OpenBabel05122313063D

 37 36  0  0  0  0  0  0  0  0999 V2000
    0.1504   -0.3069    1.3933 O   0  0  0  0  0  1  0  0  0  0  0  0
   -1.3710   -2.0431    0.8013 C   0  0  0  0  0  0  0  0  0  0  0  0
   -2.0822   -1.7527    1.5987 H   0  0  0  0  0  0  0  0  0  0  0  0
   -1.4870   -3.1238    0.5837 H   0  0  0  0  0  0  0  0  0  0  0  0
    0.0612   -1.6853    1.2531 C   0  0  0  0  0  0  0  0  0  0  0  0
    0.2253   -2.1740    2.2421 H   0  0  0  0  0  0  0  0  0  0  0  0
    1.1574   -2.2156    0.2660 C   0  0  0  0  0  0  0  0  0  0  0  0
    0.7792   -3.0280   -0.3854 H   0  0  0  0  0  0  0  0  0  0  0  0
    2.0370   -2.6052    0.8133 H   0  0  0  0  0  0  0  0  0  0  0  0
   -1.7820   -1.0632   -0.6951 S   0  0  0  0  0  0  0  0  0  0  0  0
   -3.4208   -0.3643   -0.2558 C   0  0  0  0  0  0  0  0  0  0  0  0
   -3.2964    0.2236    0.6767 H   0  0  0  0  0  0  0  0  0  0  0  0
   -3.6034    0.3726   -1.0652 H   0  0  0  0  0  0  0  0  0  0  0  0
   -4.5289   -1.4089   -0.1845 C   0  0  0  0  0  0  0  0  0  0  0  0
   -4.2967   -2.1542    0.6087 H   0  0  0  0  0  0  0  0  0  0  0  0
   -4.5690   -1.9780   -1.1391 H   0  0  0  0  0  0  0  0  0  0  0  0
   -5.8973   -0.7777    0.1050 C   0  0  0  0  0  0  0  0  0  0  0  0
   -5.8375   -0.1979    1.0521 H   0  0  0  0  0  0  0  0  0  0  0  0
   -6.1285   -0.0334   -0.6883 H   0  0  0  0  0  0  0  0  0  0  0  0
   -7.0237   -1.8074    0.1951 C   0  0  0  0  0  0  0  0  0  0  0  0
   -7.9996   -1.3252    0.4028 H   0  0  0  0  0  0  0  0  0  0  0  0
   -6.8352   -2.5428    1.0050 H   0  0  0  0  0  0  0  0  0  0  0  0
   -7.1265   -2.3774   -0.7517 H   0  0  0  0  0  0  0  0  0  0  0  0
    1.7592   -0.8697   -0.8304 S   0  0  0  0  0  0  0  0  0  0  0  0
    3.3265   -0.4288    0.0286 C   0  0  0  0  0  0  0  0  0  0  0  0
    3.5344    0.6047   -0.3152 H   0  0  0  0  0  0  0  0  0  0  0  0
    3.0981   -0.3513    1.1112 H   0  0  0  0  0  0  0  0  0  0  0  0
    4.4655   -1.3929   -0.2792 C   0  0  0  0  0  0  0  0  0  0  0  0
    4.1914   -2.4266    0.0320 H   0  0  0  0  0  0  0  0  0  0  0  0
    4.6243   -1.4388   -1.3785 H   0  0  0  0  0  0  0  0  0  0  0  0
    5.7698   -0.9869    0.4198 C   0  0  0  0  0  0  0  0  0  0  0  0
    5.5941   -0.9327    1.5168 H   0  0  0  0  0  0  0  0  0  0  0  0
    6.0403    0.0458    0.1085 H   0  0  0  0  0  0  0  0  0  0  0  0
    6.9285   -1.9396    0.1249 C   0  0  0  0  0  0  0  0  0  0  0  0
    7.8568   -1.6227    0.6404 H   0  0  0  0  0  0  0  0  0  0  0  0
    7.1475   -1.9838   -0.9622 H   0  0  0  0  0  0  0  0  0  0  0  0
    6.6972   -2.9732    0.4575 H   0  0  0  0  0  0  0  0  0  0  0  0
  2  5  1  0  0  0  0
  2  3  1  0  0  0  0
  4  2  1  0  0  0  0
  5  1  1  0  0  0  0
  5  6  1  0  0  0  0
  7  9  1  0  0  0  0
  7  5  1  0  0  0  0
  8  7  1  0  0  0  0
 10 11  1  0  0  0  0
 10  2  1  0  0  0  0
 11 14  1  0  0  0  0
 11 12  1  0  0  0  0
 13 11  1  0  0  0  0
 14 17  1  0  0  0  0
 14 15  1  0  0  0  0
 16 14  1  0  0  0  0
 17 20  1  0  0  0  0
 17 18  1  0  0  0  0
 19 17  1  0  0  0  0
 20 21  1  0  0  0  0
 20 22  1  0  0  0  0
 23 20  1  0  0  0  0
 24 25  1  0  0  0  0
 24  7  1  0  0  0  0
 25 27  1  0  0  0  0
 26 25  1  0  0  0  0
 28 25  1  0  0  0  0
 28 29  1  0  0  0  0
 28 31  1  0  0  0  0
 30 28  1  0  0  0  0
 31 32  1  0  0  0  0
 33 31  1  0  0  0  0
 34 31  1  0  0  0  0
 34 37  1  0  0  0  0
 34 35  1  0  0  0  0
 36 34  1  0  0  0  0
M  END
