1,2,3
 OpenBabel05122313063D

 23 22  0  0  0  0  0  0  0  0999 V2000
   -1.6356    0.2109    0.6180 S   0  0  0  0  0  0  0  0  0  0  0  0
    0.8205    2.0527   -0.7423 S   0  0  0  0  0  0  0  0  0  0  0  0
    1.1416    0.3808    1.5658 O   0  0  0  0  0  1  0  0  0  0  0  0
   -1.9716    1.5813   -0.5781 C   0  0  0  0  0  0  0  0  0  0  0  0
   -1.9378    1.1330   -1.5925 H   0  0  0  0  0  0  0  0  0  0  0  0
   -2.9914    1.9617   -0.3761 H   0  0  0  0  0  0  0  0  0  0  0  0
   -0.9202    2.6688   -0.4216 C   0  0  0  0  0  0  0  0  0  0  0  0
   -0.9417    3.1101    0.5958 H   0  0  0  0  0  0  0  0  0  0  0  0
   -1.1028    3.4798   -1.1538 H   0  0  0  0  0  0  0  0  0  0  0  0
    1.6645    2.5704    0.7956 C   0  0  0  0  0  0  0  0  0  0  0  0
    2.7312    2.3543    0.5837 H   0  0  0  0  0  0  0  0  0  0  0  0
    1.5355    3.6607    0.9494 H   0  0  0  0  0  0  0  0  0  0  0  0
    1.1592    1.7096    1.9603 C   0  0  0  0  0  0  0  0  0  0  0  0
    1.8275    1.8448    2.8417 H   0  0  0  0  0  0  0  0  0  0  0  0
    0.1378    2.0443    2.2768 H   0  0  0  0  0  0  0  0  0  0  0  0
   -2.7417   -1.1122    0.0015 C   0  0  0  0  0  0  0  0  0  0  0  0
   -2.5539   -1.2124   -1.0891 H   0  0  0  0  0  0  0  0  0  0  0  0
   -2.3277   -2.0236    0.4843 H   0  0  0  0  0  0  0  0  0  0  0  0
   -4.2124   -0.8940    0.3349 C   0  0  0  0  0  0  0  0  0  0  0  0
   -4.7688   -1.8245    0.0646 H   0  0  0  0  0  0  0  0  0  0  0  0
   -4.3316   -0.7557    1.4292 H   0  0  0  0  0  0  0  0  0  0  0  0
   -4.7737    0.2575   -0.2750 O   0  0  0  0  0  0  0  0  0  0  0  0
   -4.8139    0.0902   -1.2351 H   0  0  0  0  0  0  0  0  0  0  0  0
  2  7  1  0  0  0  0
  2 10  1  0  0  0  0
  3 13  1  0  0  0  0
  4  7  1  0  0  0  0
  4  6  1  0  0  0  0
  4  1  1  0  0  0  0
  5  4  1  0  0  0  0
  7  8  1  0  0  0  0
  9  7  1  0  0  0  0
 10 12  1  0  0  0  0
 10 13  1  0  0  0  0
 11 10  1  0  0  0  0
 13 15  1  0  0  0  0
 13 14  1  0  0  0  0
 16 19  1  0  0  0  0
 16 18  1  0  0  0  0
 16  1  1  0  0  0  0
 17 16  1  0  0  0  0
 19 21  1  0  0  0  0
 20 19  1  0  0  0  0
 22 19  1  0  0  0  0
 23 22  1  0  0  0  0
M  END
