1,5,8
 OpenBabel05122313063D

 21 20  0  0  0  0  0  0  0  0999 V2000
    1.7419    0.1301    1.3190 O   0  5  0  0  0  0  0  0  0  0  0  0
    2.7418    0.9013    0.9826 C   0  0  0  0  0  0  0  0  0  0  0  0
    3.4759    1.5082    1.7521 O   0  0  0  0  0  0  0  0  0  0  0  0
    2.9943    1.0318   -0.5420 C   0  0  0  0  0  0  0  0  0  0  0  0
    1.4671    0.9303   -1.5528 S   0  0  0  0  0  0  0  0  0  0  0  0
    0.6951    2.5640   -1.1736 C   0  0  0  0  0  0  0  0  0  0  0  0
    0.2214    2.7507    0.2596 C   0  0  0  0  0  0  0  0  0  0  0  0
   -0.8843    1.4224    0.8923 S   0  0  0  0  0  0  0  0  0  0  0  0
   -2.3538    1.7321   -0.1538 C   0  0  0  0  0  0  0  0  0  0  0  0
   -3.4495    0.7543    0.2401 C   0  0  0  0  0  0  0  0  0  0  0  0
   -4.5509    0.9537   -0.5109 O   0  0  0  0  0  0  0  0  0  0  0  0
   -3.3498   -0.0875    1.1074 O   0  0  0  0  0  0  0  0  0  0  0  0
    3.5363    1.9679   -0.7760 H   0  0  0  0  0  0  0  0  0  0  0  0
    3.6085    0.1742   -0.8880 H   0  0  0  0  0  0  0  0  0  0  0  0
    1.4426    3.3397   -1.4396 H   0  0  0  0  0  0  0  0  0  0  0  0
   -0.1381    2.6476   -1.9004 H   0  0  0  0  0  0  0  0  0  0  0  0
    1.0657    2.7694    0.9769 H   0  0  0  0  0  0  0  0  0  0  0  0
   -0.3225    3.7121    0.3677 H   0  0  0  0  0  0  0  0  0  0  0  0
   -2.1271    1.6018   -1.2308 H   0  0  0  0  0  0  0  0  0  0  0  0
   -2.7065    2.7722    0.0056 H   0  0  0  0  0  0  0  0  0  0  0  0
   -5.2024    0.2751   -0.2264 H   0  0  0  0  0  0  0  0  0  0  0  0
  2  1  1  0  0  0  0
  2  3  2  0  0  0  0
  4  2  1  0  0  0  0
  5  6  1  0  0  0  0
  5  4  1  0  0  0  0
  6  7  1  0  0  0  0
  7 18  1  0  0  0  0
  7  8  1  0  0  0  0
  7 17  1  0  0  0  0
  9 20  1  0  0  0  0
  9 10  1  0  0  0  0
  9  8  1  0  0  0  0
 10 12  2  0  0  0  0
 11 21  1  0  0  0  0
 11 10  1  0  0  0  0
 13  4  1  0  0  0  0
 14  4  1  0  0  0  0
 15  6  1  0  0  0  0
 16  6  1  0  0  0  0
 19  9  1  0  0  0  0
M  CHG  1   1  -1
M  END
