1,2,3,4,5,6
q = -2.0, confidence = 0.748

 38 37  0  0  1  0  0  0  0  0999 V2000
   -1.4081    0.6140    0.0617 N   0  0  0  0  0  0  0  0  0  0  0  0
    1.4082    0.6139   -0.0626 N   0  0  0  0  0  0  0  0  0  0  0  0
   -0.1843   -0.7080   -1.9163 O   0  5  0  0  0  0  0  0  0  0  0  0
   -1.4693   -1.9750    0.2305 O   0  5  0  0  0  0  0  0  0  0  0  0
    0.1844   -0.7053    1.9173 O   0  5  0  0  0  0  0  0  0  0  0  0
    1.4692   -1.9753   -0.2278 O   0  5  0  0  0  0  0  0  0  0  0  0
   -1.2990    0.3689   -3.5603 O   0  0  0  0  0  0  0  0  0  0  0  0
   -3.4875   -2.0339    1.2447 O   0  0  0  0  0  0  0  0  0  0  0  0
    1.2988    0.3742    3.5598 O   0  0  0  0  0  0  0  0  0  0  0  0
    3.4876   -2.0357   -1.2417 O   0  0  0  0  0  0  0  0  0  0  0  0
   -0.6633    1.8687    0.4009 C   0  0  1  0  0  0  0  0  0  0  0  0
    0.6634    1.8681   -0.4035 C   0  0  1  0  0  0  0  0  0  0  0  0
   -1.4870    3.1484    0.2393 C   0  0  0  0  0  0  0  0  0  0  0  0
    1.4871    3.1480   -0.2437 C   0  0  0  0  0  0  0  0  0  0  0  0
   -2.0473    0.6163   -1.2818 C   0  0  0  0  0  0  0  0  0  0  0  0
   -1.1138    0.0751   -2.3798 C   0  0  0  0  0  0  0  0  0  0  0  0
   -2.3475    0.0940    1.0834 C   0  0  0  0  0  0  0  0  0  0  0  0
   -2.4843   -1.4426    0.8528 C   0  0  0  0  0  0  0  0  0  0  0  0
    2.0474    0.6181    1.2809 C   0  0  0  0  0  0  0  0  0  0  0  0
    1.1138    0.0785    2.3797 C   0  0  0  0  0  0  0  0  0  0  0  0
    2.3475    0.0924   -1.0835 C   0  0  0  0  0  0  0  0  0  0  0  0
    2.4843   -1.4438   -0.8508 C   0  0  0  0  0  0  0  0  0  0  0  0
   -0.4093    1.7683    1.4762 H   0  0  0  0  0  0  0  0  0  0  0  0
    0.4093    1.7662   -1.4787 H   0  0  0  0  0  0  0  0  0  0  0  0
   -2.4841    3.0237    0.7064 H   0  0  0  0  0  0  0  0  0  0  0  0
   -0.9866    3.9953    0.7471 H   0  0  0  0  0  0  0  0  0  0  0  0
   -1.6340    3.4290   -0.8231 H   0  0  0  0  0  0  0  0  0  0  0  0
    0.9867    3.9943   -0.7528 H   0  0  0  0  0  0  0  0  0  0  0  0
    1.6341    3.4301    0.8183 H   0  0  0  0  0  0  0  0  0  0  0  0
    2.4842    3.0227   -0.7107 H   0  0  0  0  0  0  0  0  0  0  0  0
   -2.4368    1.6151   -1.5601 H   0  0  0  0  0  0  0  0  0  0  0  0
   -2.9147   -0.0710   -1.2438 H   0  0  0  0  0  0  0  0  0  0  0  0
   -1.9053    0.2433    2.0864 H   0  0  0  0  0  0  0  0  0  0  0  0
   -3.3447    0.5806    1.0294 H   0  0  0  0  0  0  0  0  0  0  0  0
    2.9147   -0.0693    1.2439 H   0  0  0  0  0  0  0  0  0  0  0  0
    2.4369    1.6172    1.5578 H   0  0  0  0  0  0  0  0  0  0  0  0
    1.9053    0.2403   -2.0867 H   0  0  0  0  0  0  0  0  0  0  0  0
    3.3448    0.5791   -1.0302 H   0  0  0  0  0  0  0  0  0  0  0  0
  1 11  1  0  0  0  0
  1 17  1  0  0  0  0
  2 19  1  0  0  0  0
  4 18  1  0  0  0  0
  5 20  1  0  0  0  0
  7 16  2  0  0  0  0
 10 22  2  0  0  0  0
 11 23  1  1  0  0  0
 12 24  1  6  0  0  0
 12 14  1  0  0  0  0
 12  2  1  0  0  0  0
 12 11  1  0  0  0  0
 13 11  1  0  0  0  0
 13 25  1  0  0  0  0
 13 26  1  0  0  0  0
 14 29  1  0  0  0  0
 15 32  1  0  0  0  0
 15  1  1  0  0  0  0
 16  3  1  0  0  0  0
 16 15  1  0  0  0  0
 17 33  1  0  0  0  0
 18 17  1  0  0  0  0
 18  8  2  0  0  0  0
 19 36  1  0  0  0  0
 19 20  1  0  0  0  0
 20  9  2  0  0  0  0
 21 38  1  0  0  0  0
 21 22  1  0  0  0  0
 21  2  1  0  0  0  0
 22  6  1  0  0  0  0
 27 13  1  0  0  0  0
 28 14  1  0  0  0  0
 30 14  1  0  0  0  0
 31 15  1  0  0  0  0
 34 17  1  0  0  0  0
 35 19  1  0  0  0  0
 37 21  1  0  0  0  0
M  CHG  4   3  -1   4  -1   5  -1   6  -1
M  END
