1,2,3,5,7,9
q = -1.0, confidence = 0.206

 39 38  0  0  1  0  0  0  0  0999 V2000
    1.4644   -0.0721    1.0559 N   0  0  0  0  0  0  0  0  0  0  0  0
   -1.3642    0.0766    1.1776 N   0  0  0  0  0  0  0  0  0  0  0  0
    1.2634   -0.0240   -1.7125 O   0  5  0  0  0  0  0  0  0  0  0  0
    3.0701    0.4947   -2.8874 O   0  0  0  0  0  0  0  0  0  0  0  0
   -1.3436   -0.0231   -1.6720 O   0  0  0  0  0  1  0  0  0  0  0  0
   -3.1973   -0.4940   -2.7465 O   0  0  0  0  0  0  0  0  0  0  0  0
   -0.0370   -1.8946   -0.1975 O   0  5  0  0  0  0  0  0  0  0  0  0
    0.7891   -3.6150    1.0012 O   0  0  0  0  0  0  0  0  0  0  0  0
    0.0510    1.9200   -0.1953 O   0  5  0  0  0  0  0  0  0  0  0  0
   -0.8289    3.6621    0.9361 O   0  0  0  0  0  0  0  0  0  0  0  0
    2.5005    0.3965   -1.8053 C   0  0  0  0  0  0  0  0  0  0  0  0
    3.3090    0.6663   -0.5189 C   0  0  0  0  0  0  0  0  0  0  0  0
    2.5543    0.9165    0.7746 C   0  0  0  0  0  0  0  0  0  0  0  0
   -2.5125   -0.3888   -1.6015 C   0  0  2  0  0  3  0  0  0  0  0  0
   -3.2857   -0.6389   -0.3195 C   0  0  0  0  0  0  0  0  0  0  0  0
   -2.4564   -0.8991    0.9367 C   0  0  0  0  0  0  0  0  0  0  0  0
    0.8256   -2.4540    0.6161 C   0  0  0  0  0  0  0  0  0  0  0  0
    1.9406   -1.4853    1.0480 C   0  0  0  0  0  0  0  0  0  0  0  0
   -0.7855    2.4756    0.6415 C   0  0  0  0  0  0  0  0  0  0  0  0
   -1.8137    1.4902    1.2498 C   0  0  0  0  0  0  0  0  0  0  0  0
    0.7933    0.2831    2.3391 C   0  0  0  0  0  0  0  0  0  0  0  0
   -0.5977   -0.3252    2.3883 C   0  0  0  0  0  0  0  0  0  0  0  0
   -4.1084   -0.8003   -2.5706 H   0  0  0  0  0  0  0  0  0  0  0  0
    3.9448    1.5500   -0.7237 H   0  0  0  0  0  0  0  0  0  0  0  0
    4.0241   -0.1795   -0.4246 H   0  0  0  0  0  0  0  0  0  0  0  0
    2.0570    1.9032    0.7280 H   0  0  0  0  0  0  0  0  0  0  0  0
    3.2503    0.9075    1.6448 H   0  0  0  0  0  0  0  0  0  0  0  0
   -3.9566   -1.5126   -0.4615 H   0  0  0  0  0  0  0  0  0  0  0  0
   -3.9631    0.2361   -0.1954 H   0  0  0  0  0  0  0  0  0  0  0  0
   -1.9675   -1.8870    0.8361 H   0  0  0  0  0  0  0  0  0  0  0  0
   -3.1405   -0.9197    1.8152 H   0  0  0  0  0  0  0  0  0  0  0  0
    2.7417   -1.5747    0.2913 H   0  0  0  0  0  0  0  0  0  0  0  0
    2.3623   -1.7713    2.0333 H   0  0  0  0  0  0  0  0  0  0  0  0
   -2.7406    1.6131    0.6578 H   0  0  0  0  0  0  0  0  0  0  0  0
   -2.0568    1.7890    2.2910 H   0  0  0  0  0  0  0  0  0  0  0  0
    1.4039   -0.0640    3.2009 H   0  0  0  0  0  0  0  0  0  0  0  0
    0.7417    1.3879    2.3951 H   0  0  0  0  0  0  0  0  0  0  0  0
   -1.1295   -0.0060    3.3126 H   0  0  0  0  0  0  0  0  0  0  0  0
   -0.5395   -1.4308    2.4062 H   0  0  0  0  0  0  0  0  0  0  0  0
  1 21  1  0  0  0  0
  2 20  1  0  0  0  0
  2 22  1  0  0  0  0
  4 11  2  0  0  0  0
  6 23  1  0  0  0  0
  6 14  1  0  0  0  0
  7 17  1  0  0  0  0
  9 19  1  0  0  0  0
 11  3  1  0  0  0  0
 11 12  1  0  0  0  0
 12 25  1  0  0  0  0
 12 13  1  0  0  0  0
 13  1  1  0  0  0  0
 13 27  1  0  0  0  0
 14  5  1  1  0  0  0
 14 15  1  0  0  0  0
 15 29  1  0  0  0  0
 15 16  1  0  0  0  0
 16  2  1  0  0  0  0
 16 31  1  0  0  0  0
 17  8  2  0  0  0  0
 17 18  1  0  0  0  0
 18  1  1  0  0  0  0
 18 33  1  0  0  0  0
 19 10  2  0  0  0  0
 19 20  1  0  0  0  0
 20 35  1  0  0  0  0
 21 22  1  0  0  0  0
 21 37  1  0  0  0  0
 21 36  1  0  0  0  0
 22 39  1  0  0  0  0
 22 38  1  0  0  0  0
 24 12  1  0  0  0  0
 26 13  1  0  0  0  0
 28 15  1  0  0  0  0
 30 16  1  0  0  0  0
 32 18  1  0  0  0  0
 34 20  1  0  0  0  0
M  CHG  3   3  -1   7  -1   9  -1
M  END
