1,2,3,24,25,26
q = -2.0, confidence = 0.82

 74 81  0  0  1  0  0  0  0  0999 V2000
    0.4452    1.4344   -1.2388 O   0  5  0  0  0  0  0  0  0  0  0  0
    0.2254   -1.5762    0.9272 O   0  0  0  0  0  1  0  0  0  0  0  0
    1.9055    0.1940    0.5913 N   0  0  0  0  0  2  0  0  0  0  0  0
    2.5143    1.3506    0.6906 C   0  0  0  0  0  3  0  0  0  0  0  0
    2.1504    2.5583    0.0130 C   0  0  0  0  0  0  0  0  0  0  0  0
    1.1286    2.5093   -0.9904 C   0  0  0  0  0  0  0  0  0  0  0  0
    0.8598    3.6840   -1.7752 C   0  0  0  0  0  0  0  0  0  0  0  0
    1.5424    4.8553   -1.5475 C   0  0  0  0  0  0  0  0  0  0  0  0
    2.5453    4.9601   -0.5287 C   0  0  0  0  0  0  0  0  0  0  0  0
    3.2257    6.1863   -0.2986 C   0  0  0  0  0  0  0  0  0  0  0  0
    4.1917    6.2969    0.6935 C   0  0  0  0  0  0  0  0  0  0  0  0
    4.4946    5.1683    1.4907 C   0  0  0  0  0  0  0  0  0  0  0  0
    3.8415    3.9563    1.2862 C   0  0  0  0  0  0  0  0  0  0  0  0
    2.8557    3.8031    0.2706 C   0  0  0  0  0  0  0  0  0  0  0  0
    2.4962   -0.9677    1.2452 C   0  0  2  0  0  0  0  0  0  0  0  0
    3.3503   -1.8062    0.3135 C   0  0  0  0  0  0  0  0  0  0  0  0
    4.3593   -1.3679   -0.5537 C   0  0  0  0  0  0  0  0  0  0  0  0
    5.0751   -2.3192   -1.2974 C   0  0  0  0  0  0  0  0  0  0  0  0
    4.7820   -3.6892   -1.1642 C   0  0  0  0  0  0  0  0  0  0  0  0
    3.7574   -4.1196   -0.3056 C   0  0  0  0  0  0  0  0  0  0  0  0
    3.0279   -3.1694    0.4262 C   0  0  0  0  0  0  0  0  0  0  0  0
    1.8699   -3.3898    1.3781 C   0  0  1  0  0  0  0  0  0  0  0  0
    1.3392   -1.9345    1.6714 C   0  0  2  0  0  0  0  0  0  0  0  0
   -1.2868    0.8442    0.6691 O   0  5  0  0  0  0  0  0  0  0  0  0
    0.3435   -1.2004   -1.8751 O   0  0  0  0  0  1  0  0  0  0  0  0
   -1.9014   -1.1963   -0.8786 N   0  0  0  0  0  2  0  0  0  0  0  0
   -3.1294   -0.7699   -0.7623 C   0  0  0  0  0  3  0  0  0  0  0  0
   -3.5245    0.4417   -0.0995 C   0  0  0  0  0  0  0  0  0  0  0  0
   -2.5460    1.1752    0.6449 C   0  0  0  0  0  0  0  0  0  0  0  0
   -2.9617    2.3115    1.4205 C   0  0  0  0  0  0  0  0  0  0  0  0
   -4.2756    2.7180    1.4311 C   0  0  0  0  0  0  0  0  0  0  0  0
   -5.2812    2.0345    0.6740 C   0  0  0  0  0  0  0  0  0  0  0  0
   -6.6313    2.4791    0.6831 C   0  0  0  0  0  0  0  0  0  0  0  0
   -7.6080    1.8261   -0.0575 C   0  0  0  0  0  0  0  0  0  0  0  0
   -7.2467    0.7032   -0.8393 C   0  0  0  0  0  0  0  0  0  0  0  0
   -5.9321    0.2484   -0.8668 C   0  0  0  0  0  0  0  0  0  0  0  0
   -4.9070    0.8849   -0.1098 C   0  0  0  0  0  0  0  0  0  0  0  0
   -1.6247   -2.5277   -1.4061 C   0  0  2  0  0  0  0  0  0  0  0  0
   -1.3015   -3.4589   -0.2444 C   0  0  0  0  0  0  0  0  0  0  0  0
   -2.0801   -3.8038    0.8173 C   0  0  0  0  0  0  0  0  0  0  0  0
   -1.4846   -4.5657    1.9066 C   0  0  0  0  0  0  0  0  0  0  0  0
   -0.1553   -4.8475    1.9436 C   0  0  0  0  0  0  0  0  0  0  0  0
    0.8060   -4.4246    0.8562 C   0  0  1  0  0  0  0  0  0  0  0  0
    0.0912   -3.8740   -0.3573 C   0  0  2  0  0  3  0  0  0  0  0  0
    0.6024   -3.5035   -1.5680 C   0  0  0  0  0  3  0  0  0  0  0  0
   -0.2678   -2.4416   -2.1922 C   0  0  2  0  0  0  0  0  0  0  0  0
    3.4122    1.3915    1.3395 H   0  0  0  0  0  0  0  0  0  0  0  0
    0.0833    3.6008   -2.5487 H   0  0  0  0  0  0  0  0  0  0  0  0
    1.3185    5.7494   -2.1512 H   0  0  0  0  0  0  0  0  0  0  0  0
    2.9677    7.0536   -0.9266 H   0  0  0  0  0  0  0  0  0  0  0  0
    4.7119    7.2512    0.8633 H   0  0  0  0  0  0  0  0  0  0  0  0
    5.2504    5.2473    2.2870 H   0  0  0  0  0  0  0  0  0  0  0  0
    4.0940    3.1111    1.9419 H   0  0  0  0  0  0  0  0  0  0  0  0
    3.1047   -0.6492    2.1243 H   0  0  0  0  0  0  0  0  0  0  0  0
    4.5797   -0.2943   -0.6605 H   0  0  0  0  0  0  0  0  0  0  0  0
    5.8674   -1.9931   -1.9879 H   0  0  0  0  0  0  0  0  0  0  0  0
    5.3532   -4.4285   -1.7461 H   0  0  0  0  0  0  0  0  0  0  0  0
    3.5217   -5.1926   -0.2263 H   0  0  0  0  0  0  0  0  0  0  0  0
    2.2646   -3.8001    2.3358 H   0  0  0  0  0  0  0  0  0  0  0  0
    1.1020   -1.8295    2.7551 H   0  0  0  0  0  0  0  0  0  0  0  0
   -3.9331   -1.4106   -1.1789 H   0  0  0  0  0  0  0  0  0  0  0  0
   -2.1832    2.8379    1.9910 H   0  0  0  0  0  0  0  0  0  0  0  0
   -4.5768    3.5949    2.0263 H   0  0  0  0  0  0  0  0  0  0  0  0
   -6.8877    3.3600    1.2925 H   0  0  0  0  0  0  0  0  0  0  0  0
   -8.6497    2.1794   -0.0434 H   0  0  0  0  0  0  0  0  0  0  0  0
   -8.0107    0.1851   -1.4390 H   0  0  0  0  0  0  0  0  0  0  0  0
   -5.6914   -0.6149   -1.5029 H   0  0  0  0  0  0  0  0  0  0  0  0
   -2.4674   -2.9015   -2.0305 H   0  0  0  0  0  0  0  0  0  0  0  0
   -3.1274   -3.4731    0.8932 H   0  0  0  0  0  0  0  0  0  0  0  0
   -2.1322   -4.8961    2.7339 H   0  0  0  0  0  0  0  0  0  0  0  0
    0.2688   -5.4050    2.7946 H   0  0  0  0  0  0  0  0  0  0  0  0
    1.4045   -5.3195    0.5710 H   0  0  0  0  0  0  0  0  0  0  0  0
    1.6221   -3.6887   -1.9298 H   0  0  0  0  0  0  0  0  0  0  0  0
   -0.4015   -2.5067   -3.2953 H   0  0  0  0  0  0  0  0  0  0  0  0
  1  6  1  0  0  0  0
  2 23  1  0  0  0  0
  3  4  1  0  0  0  0
  3 15  1  0  0  0  0
  4 47  1  0  0  0  0
  5 14  1  0  0  0  0
  5  4  1  0  0  0  0
  6  5  2  0  0  0  0
  7  8  2  0  0  0  0
  7  6  1  0  0  0  0
  8  9  1  0  0  0  0
  9 10  2  0  0  0  0
  9 14  1  0  0  0  0
 10 11  1  0  0  0  0
 11 51  1  0  0  0  0
 11 12  2  0  0  0  0
 12 52  1  0  0  0  0
 13 12  1  0  0  0  0
 13 53  1  0  0  0  0
 14 13  2  0  0  0  0
 15 23  1  0  0  0  0
 15 54  1  1  0  0  0
 16 21  1  0  0  0  0
 16 15  1  0  0  0  0
 17 16  2  0  0  0  0
 18 19  2  0  0  0  0
 18 17  1  0  0  0  0
 19 20  1  0  0  0  0
 20 58  1  0  0  0  0
 20 21  2  0  0  0  0
 21 22  1  0  0  0  0
 22 23  1  0  0  0  0
 22 59  1  1  0  0  0
 23 60  1  1  0  0  0
 26 27  1  0  0  0  0
 27 28  1  0  0  0  0
 28 29  1  0  0  0  0
 29 24  1  0  0  0  0
 29 30  2  0  0  0  0
 30 31  1  0  0  0  0
 30 62  1  0  0  0  0
 31 63  1  0  0  0  0
 32 33  1  0  0  0  0
 32 31  2  0  0  0  0
 33 64  1  0  0  0  0
 34 65  1  0  0  0  0
 34 33  2  0  0  0  0
 35 34  1  0  0  0  0
 36 35  2  0  0  0  0
 36 37  1  0  0  0  0
 37 28  2  0  0  0  0
 37 32  1  0  0  0  0
 38 68  1  6  0  0  0
 38 26  1  0  0  0  0
 38 39  1  0  0  0  0
 39 40  2  0  0  0  0
 40 69  1  0  0  0  0
 40 41  1  0  0  0  0
 41 42  2  0  0  0  0
 41 70  1  0  0  0  0
 42 71  1  0  0  0  0
 43 72  1  6  0  0  0
 43 22  1  0  0  0  0
 43 42  1  0  0  0  0
 44 45  1  1  0  0  0
 44 39  1  0  0  0  0
 44 43  1  0  0  0  0
 46 74  1  6  0  0  0
 46 25  1  0  0  0  0
 46 45  1  0  0  0  0
 46 38  1  0  0  0  0
 48  7  1  0  0  0  0
 49  8  1  0  0  0  0
 50 10  1  0  0  0  0
 55 17  1  0  0  0  0
 56 18  1  0  0  0  0
 57 19  1  0  0  0  0
 61 27  1  0  0  0  0
 66 35  1  0  0  0  0
 67 36  1  0  0  0  0
 73 45  1  0  0  0  0
M  CHG  2   1  -1  24  -1
M  END
