11,12,17,23,29,35
q = -2.0, confidence = 0.746

 36 35  0  0  0  0  0  0  0  0999 V2000
   -0.8325    3.6090    0.6618 O   0  0  0  0  0  0  0  0  0  0  0  0
   -1.3866    4.1495    0.0702 H   0  0  0  0  0  0  0  0  0  0  0  0
    0.8294    1.9869    0.8271 C   0  0  0  0  0  0  0  0  0  0  0  0
    1.6138    2.7153    1.1375 H   0  0  0  0  0  0  0  0  0  0  0  0
    0.2376    1.7470    1.7305 H   0  0  0  0  0  0  0  0  0  0  0  0
   -0.1043    2.6968   -0.1656 C   0  0  0  0  0  0  0  0  0  0  0  0
    0.5147    3.2693   -0.8985 H   0  0  0  0  0  0  0  0  0  0  0  0
   -1.0179    1.8026   -1.0258 C   0  0  0  0  0  0  0  0  0  0  0  0
   -0.4956    1.5559   -1.9686 H   0  0  0  0  0  0  0  0  0  0  0  0
   -1.9079    2.4168   -1.3111 H   0  0  0  0  0  0  0  0  0  0  0  0
    1.4548    0.7365    0.3722 N   0  0  0  0  0  0  0  0  0  0  0  0
   -1.4649    0.5265   -0.4417 N   0  0  0  0  0  0  0  0  0  0  0  0
    2.2398    0.1090    1.4686 C   0  0  0  0  0  0  0  0  0  0  0  0
    3.2042    0.6368    1.6325 H   0  0  0  0  0  0  0  0  0  0  0  0
    1.6276    0.1461    2.3903 H   0  0  0  0  0  0  0  0  0  0  0  0
    2.4635   -1.3799    1.1245 C   0  0  0  0  0  0  0  0  0  0  0  0
    1.5173   -1.8720    0.3780 O   0  5  0  0  0  0  0  0  0  0  0  0
    3.4434   -1.9864    1.5527 O   0  0  0  0  0  0  0  0  0  0  0  0
    2.2803    0.8866   -0.8581 C   0  0  0  0  0  0  0  0  0  0  0  0
    2.5889    1.9411   -1.0130 H   0  0  0  0  0  0  0  0  0  0  0  0
    3.2062    0.2895   -0.7366 H   0  0  0  0  0  0  0  0  0  0  0  0
    1.5731    0.3448   -2.1207 C   0  0  0  0  0  0  0  0  0  0  0  0
    0.6446   -0.5304   -1.8693 O   0  5  0  0  0  0  0  0  0  0  0  0
    1.9209    0.7379   -3.2344 O   0  0  0  0  0  0  0  0  0  0  0  0
   -2.2056   -0.2745   -1.4513 C   0  0  0  0  0  0  0  0  0  0  0  0
   -1.6586   -0.1918   -2.4110 H   0  0  0  0  0  0  0  0  0  0  0  0
   -3.2465    0.0941   -1.5780 H   0  0  0  0  0  0  0  0  0  0  0  0
   -2.1807   -1.7669   -1.0618 C   0  0  0  0  0  0  0  0  0  0  0  0
   -1.1155   -2.0918   -0.3896 O   0  5  0  0  0  0  0  0  0  0  0  0
   -3.0790   -2.5263   -1.4188 O   0  0  0  0  0  0  0  0  0  0  0  0
   -2.2472    0.6839    0.8204 C   0  0  0  0  0  0  0  0  0  0  0  0
   -2.3271    1.7581    1.0794 H   0  0  0  0  0  0  0  0  0  0  0  0
   -3.2741    0.2919    0.6795 H   0  0  0  0  0  0  0  0  0  0  0  0
   -1.6160   -0.0323    2.0367 C   0  0  0  0  0  0  0  0  0  0  0  0
   -0.4901   -0.6407    1.7943 O   0  5  0  0  0  0  0  0  0  0  0  0
   -2.1690    0.0545    3.1301 O   0  0  0  0  0  0  0  0  0  0  0  0
  2  1  1  0  0  0  0
  3  4  1  0  0  0  0
  3  5  1  0  0  0  0
  6  1  1  0  0  0  0
  6  3  1  0  0  0  0
  7  6  1  0  0  0  0
  8 12  1  0  0  0  0
  8  6  1  0  0  0  0
  9  8  1  0  0  0  0
 10  8  1  0  0  0  0
 11  3  1  0  0  0  0
 11 13  1  0  0  0  0
 12 31  1  0  0  0  0
 13 14  1  0  0  0  0
 13 15  1  0  0  0  0
 16 13  1  0  0  0  0
 16 18  2  0  0  0  0
 17 16  1  0  0  0  0
 19 21  1  0  0  0  0
 19 11  1  0  0  0  0
 20 19  1  0  0  0  0
 22 23  1  0  0  0  0
 22 19  1  0  0  0  0
 24 22  2  0  0  0  0
 25 28  1  0  0  0  0
 25 12  1  0  0  0  0
 26 25  1  0  0  0  0
 27 25  1  0  0  0  0
 28 29  1  0  0  0  0
 30 28  2  0  0  0  0
 31 32  1  0  0  0  0
 31 34  1  0  0  0  0
 33 31  1  0  0  0  0
 34 36  2  0  0  0  0
 35 34  1  0  0  0  0
M  CHG  4  17  -1  23  -1  29  -1  35  -1
M  END
