1,2
 OpenBabel05122313063D

 38 39  0  0  0  0  0  0  0  0999 V2000
   -2.3127   -0.6288   -0.4101 P   0  0  0  0  0  0  0  0  0  0  0  0
    0.5839   -1.9791   -1.5620 Si  0  0  2  0  0  3  0  0  0  0  0  0
    1.7664   -1.6590   -2.7153 F   0  0  0  0  0  0  0  0  0  0  0  0
    1.3134   -3.3502   -0.4826 C   0  0  0  0  0  0  0  0  0  0  0  0
    1.6700   -4.1816   -1.1243 H   0  0  0  0  0  0  0  0  0  0  0  0
    0.5395   -3.7529    0.2040 H   0  0  0  0  0  0  0  0  0  0  0  0
    2.1685   -2.9908    0.1233 H   0  0  0  0  0  0  0  0  0  0  0  0
   -0.7625   -2.7620   -2.6493 C   0  0  0  0  0  0  0  0  0  0  0  0
   -0.9023   -2.1314   -3.5542 H   0  0  0  0  0  0  0  0  0  0  0  0
   -0.3217   -3.7147   -3.0147 H   0  0  0  0  0  0  0  0  0  0  0  0
   -2.1160   -3.0321   -1.9836 C   0  0  0  0  0  0  0  0  0  0  0  0
   -1.9778   -3.5900   -1.0312 H   0  0  0  0  0  0  0  0  0  0  0  0
   -2.7324   -3.6966   -2.6262 H   0  0  0  0  0  0  0  0  0  0  0  0
   -2.9324   -1.7568   -1.7388 C   0  0  0  0  0  0  0  0  0  0  0  0
   -3.9931   -1.9745   -1.4968 H   0  0  0  0  0  0  0  0  0  0  0  0
   -2.9481   -1.1427   -2.6631 H   0  0  0  0  0  0  0  0  0  0  0  0
   -2.8010   -1.4260    1.1765 C   0  0  0  0  0  0  0  0  0  0  0  0
   -3.5161   -2.6387    1.2385 C   0  0  0  0  0  0  0  0  0  0  0  0
   -3.8261   -3.1563    0.3203 H   0  0  0  0  0  0  0  0  0  0  0  0
   -3.8475   -3.2054    2.4802 C   0  0  0  0  0  0  0  0  0  0  0  0
   -4.4022   -4.1550    2.5122 H   0  0  0  0  0  0  0  0  0  0  0  0
   -3.4843   -2.5617    3.6723 C   0  0  0  0  0  0  0  0  0  0  0  0
   -3.7544   -3.0039    4.6429 H   0  0  0  0  0  0  0  0  0  0  0  0
   -2.7827   -1.3450    3.6205 C   0  0  0  0  0  0  0  0  0  0  0  0
   -2.5068   -0.8261    4.5514 H   0  0  0  0  0  0  0  0  0  0  0  0
   -2.4351   -0.7862    2.3825 C   0  0  0  0  0  0  0  0  0  0  0  0
   -1.8703    0.1575    2.3460 H   0  0  0  0  0  0  0  0  0  0  0  0
   -3.5035    0.7826   -0.5630 C   0  0  0  0  0  0  0  0  0  0  0  0
   -3.6558    1.4203   -1.8147 C   0  0  0  0  0  0  0  0  0  0  0  0
   -3.1005    1.0644   -2.6943 H   0  0  0  0  0  0  0  0  0  0  0  0
   -4.5253    2.5116   -1.9602 C   0  0  0  0  0  0  0  0  0  0  0  0
   -4.6359    2.9894   -2.9452 H   0  0  0  0  0  0  0  0  0  0  0  0
   -5.2600    2.9825   -0.8599 C   0  0  0  0  0  0  0  0  0  0  0  0
   -5.9498    3.8317   -0.9771 H   0  0  0  0  0  0  0  0  0  0  0  0
   -5.1226    2.3482    0.3850 C   0  0  0  0  0  0  0  0  0  0  0  0
   -5.7095    2.6942    1.2495 H   0  0  0  0  0  0  0  0  0  0  0  0
   -4.2515    1.2566    0.5345 C   0  0  0  0  0  0  0  0  0  0  0  0
   -4.1727    0.7626    1.5128 H   0  0  0  0  0  0  0  0  0  0  0  0
  1 17  1  0  0  0  0
  2  3  1  6  0  0  0
  2  4  1  0  0  0  0
  4  7  1  0  0  0  0
  4  6  1  0  0  0  0
  5  4  1  0  0  0  0
  8 11  1  0  0  0  0
  8  2  1  0  0  0  0
  9  8  1  0  0  0  0
 10  8  1  0  0  0  0
 11 14  1  0  0  0  0
 11 12  1  0  0  0  0
 13 11  1  0  0  0  0
 14 15  1  0  0  0  0
 14  1  1  0  0  0  0
 16 14  1  0  0  0  0
 17 18  2  0  0  0  0
 17 26  1  0  0  0  0
 18 20  1  0  0  0  0
 19 18  1  0  0  0  0
 20 21  1  0  0  0  0
 20 22  2  0  0  0  0
 22 23  1  0  0  0  0
 24 22  1  0  0  0  0
 24 25  1  0  0  0  0
 26 24  2  0  0  0  0
 27 26  1  0  0  0  0
 28  1  1  0  0  0  0
 28 37  1  0  0  0  0
 29 28  2  0  0  0  0
 30 29  1  0  0  0  0
 31 29  1  0  0  0  0
 31 33  2  0  0  0  0
 32 31  1  0  0  0  0
 33 35  1  0  0  0  0
 34 33  1  0  0  0  0
 35 37  2  0  0  0  0
 35 36  1  0  0  0  0
 37 38  1  0  0  0  0
M  END
