1,4
 OpenBabel05122313063D

 36 38  0  0  0  0  0  0  0  0999 V2000
   -0.1006    2.1659    0.0525 Si  0  0  0  0  0  3  0  0  0  0  0  0
   -0.0642    3.0903   -1.3244 F   0  0  0  0  0  0  0  0  0  0  0  0
    0.9967    2.9366    1.0115 F   0  0  0  0  0  0  0  0  0  0  0  0
   -2.2202   -0.1011   -0.0905 P   0  0  0  0  0  0  0  0  0  0  0  0
   -1.7820    2.4712    0.8685 C   0  0  0  0  0  0  0  0  0  0  0  0
   -2.1205    3.6564    1.5516 C   0  0  0  0  0  0  0  0  0  0  0  0
   -1.3855    4.4741    1.6135 H   0  0  0  0  0  0  0  0  0  0  0  0
   -3.3727    3.7927    2.1693 C   0  0  0  0  0  0  0  0  0  0  0  0
   -3.6233    4.7199    2.7075 H   0  0  0  0  0  0  0  0  0  0  0  0
   -4.3026    2.7403    2.1170 C   0  0  0  0  0  0  0  0  0  0  0  0
   -5.2802    2.8420    2.6125 H   0  0  0  0  0  0  0  0  0  0  0  0
   -3.9844    1.5502    1.4460 C   0  0  0  0  0  0  0  0  0  0  0  0
   -4.7063    0.7201    1.4251 H   0  0  0  0  0  0  0  0  0  0  0  0
   -2.7292    1.4201    0.8209 C   0  0  0  0  0  0  0  0  0  0  0  0
   -3.0585   -1.5011    0.7502 C   0  0  0  0  0  0  0  0  0  0  0  0
   -4.4280   -1.7360    0.4988 C   0  0  0  0  0  0  0  0  0  0  0  0
   -4.9638   -1.1304   -0.2481 H   0  0  0  0  0  0  0  0  0  0  0  0
   -5.1031   -2.7568    1.1840 C   0  0  0  0  0  0  0  0  0  0  0  0
   -6.1705   -2.9349    0.9832 H   0  0  0  0  0  0  0  0  0  0  0  0
   -4.4145   -3.5541    2.1121 C   0  0  0  0  0  0  0  0  0  0  0  0
   -4.9433   -4.3591    2.6451 H   0  0  0  0  0  0  0  0  0  0  0  0
   -3.0476   -3.3361    2.3442 C   0  0  0  0  0  0  0  0  0  0  0  0
   -2.4979   -3.9753    3.0514 H   0  0  0  0  0  0  0  0  0  0  0  0
   -2.3642   -2.3174    1.6642 C   0  0  0  0  0  0  0  0  0  0  0  0
   -1.2848   -2.1795    1.8081 H   0  0  0  0  0  0  0  0  0  0  0  0
   -3.0653   -0.0241   -1.7144 C   0  0  0  0  0  0  0  0  0  0  0  0
   -3.7815    1.1064   -2.1467 C   0  0  0  0  0  0  0  0  0  0  0  0
   -3.8874    1.9790   -1.4849 H   0  0  0  0  0  0  0  0  0  0  0  0
   -4.3546    1.1168   -3.4292 C   0  0  0  0  0  0  0  0  0  0  0  0
   -4.9124    2.0028   -3.7686 H   0  0  0  0  0  0  0  0  0  0  0  0
   -4.2142    0.0058   -4.2741 C   0  0  0  0  0  0  0  0  0  0  0  0
   -4.6634    0.0187   -5.2788 H   0  0  0  0  0  0  0  0  0  0  0  0
   -3.4927   -1.1209   -3.8415 C   0  0  0  0  0  0  0  0  0  0  0  0
   -3.3729   -1.9895   -4.5064 H   0  0  0  0  0  0  0  0  0  0  0  0
   -2.9142   -1.1403   -2.5665 C   0  0  0  0  0  0  0  0  0  0  0  0
   -2.3253   -2.0088   -2.2263 H   0  0  0  0  0  0  0  0  0  0  0  0
  1  5  1  0  0  0  0
  1  3  1  0  0  0  0
  2  1  1  0  0  0  0
  4 15  1  0  0  0  0
  4 14  1  0  0  0  0
  5  6  1  0  0  0  0
  6  7  1  0  0  0  0
  6  8  2  0  0  0  0
  8  9  1  0  0  0  0
 10  8  1  0  0  0  0
 10 11  1  0  0  0  0
 12 10  2  0  0  0  0
 13 12  1  0  0  0  0
 14  5  2  0  0  0  0
 14 12  1  0  0  0  0
 15 24  1  0  0  0  0
 16 15  2  0  0  0  0
 16 18  1  0  0  0  0
 17 16  1  0  0  0  0
 18 20  2  0  0  0  0
 19 18  1  0  0  0  0
 20 22  1  0  0  0  0
 20 21  1  0  0  0  0
 22 23  1  0  0  0  0
 24 25  1  0  0  0  0
 24 22  2  0  0  0  0
 26  4  1  0  0  0  0
 27 26  1  0  0  0  0
 27 28  1  0  0  0  0
 29 27  2  0  0  0  0
 30 29  1  0  0  0  0
 31 33  2  0  0  0  0
 31 29  1  0  0  0  0
 32 31  1  0  0  0  0
 33 35  1  0  0  0  0
 34 33  1  0  0  0  0
 35 36  1  0  0  0  0
 35 26  2  0  0  0  0
M  END
