1,2,4
q = 0.0, confidence = 0.988

 48 49  0  0  1  0  0  0  0  0999 V2000
    0.6092    1.5848   -0.2395 N   0  0  0  0  0  2  0  0  0  0  0  0
   -1.7383    0.7724   -0.1036 N   0  0  0  0  0  2  0  0  0  0  0  0
    2.8108    0.8914   -0.0789 O   0  0  0  0  0  0  0  0  0  0  0  0
    2.0516   -0.6948   -0.1418 P   0  0  0  0  0  0  0  0  0  0  0  0
    1.9389    1.9016   -0.2150 C   0  0  1  0  0  3  0  0  0  0  0  0
    2.3795    3.2248   -0.3444 C   0  0  0  0  0  0  0  0  0  0  0  0
    3.4591    3.4219   -0.3193 H   0  0  0  0  0  0  0  0  0  0  0  0
    1.4278    4.2488   -0.4999 C   0  0  0  0  0  0  0  0  0  0  0  0
    1.7589    5.2911   -0.6123 H   0  0  0  0  0  0  0  0  0  0  0  0
    0.0650    3.9346   -0.5025 C   0  0  0  0  0  0  0  0  0  0  0  0
   -0.6985    4.7158   -0.6134 H   0  0  0  0  0  0  0  0  0  0  0  0
   -0.3300    2.5925   -0.3474 C   0  0  0  0  0  0  0  0  0  0  0  0
   -1.6848    2.0855   -0.2777 C   0  0  2  0  0  3  0  0  0  0  0  0
   -2.8735    2.9946   -0.3720 C   0  0  0  0  0  0  0  0  0  0  0  0
   -3.0374    3.3421   -1.4142 H   0  0  0  0  0  0  0  0  0  0  0  0
   -2.7203    3.8966    0.2535 H   0  0  0  0  0  0  0  0  0  0  0  0
   -3.7934    2.4831   -0.0365 H   0  0  0  0  0  0  0  0  0  0  0  0
   -2.9758    0.0777   -0.0404 C   0  0  0  0  0  0  0  0  0  0  0  0
   -3.3342   -0.5903    1.1469 C   0  0  0  0  0  0  0  0  0  0  0  0
   -2.6538   -0.5349    2.0092 H   0  0  0  0  0  0  0  0  0  0  0  0
   -4.5358   -1.3081    1.2005 C   0  0  0  0  0  0  0  0  0  0  0  0
   -4.8163   -1.8219    2.1325 H   0  0  0  0  0  0  0  0  0  0  0  0
   -5.3758   -1.3810    0.0766 C   0  0  0  0  0  0  0  0  0  0  0  0
   -6.3145   -1.9531    0.1234 H   0  0  0  0  0  0  0  0  0  0  0  0
   -5.0058   -0.7301   -1.1107 C   0  0  0  0  0  0  0  0  0  0  0  0
   -5.6483   -0.7966   -2.0018 H   0  0  0  0  0  0  0  0  0  0  0  0
   -3.8093   -0.0029   -1.1739 C   0  0  0  0  0  0  0  0  0  0  0  0
   -3.4947    0.4858   -2.1075 H   0  0  0  0  0  0  0  0  0  0  0  0
    2.7001   -1.1974   -1.8262 C   0  0  0  0  0  0  0  0  0  0  0  0
    2.2498   -2.2056   -1.9699 H   0  0  0  0  0  0  0  0  0  0  0  0
    4.2282   -1.2667   -1.9177 C   0  0  0  0  0  0  0  0  0  0  0  0
    4.5288   -1.4774   -2.9649 H   0  0  0  0  0  0  0  0  0  0  0  0
    4.6682   -2.0639   -1.2879 H   0  0  0  0  0  0  0  0  0  0  0  0
    4.6870   -0.2999   -1.6257 H   0  0  0  0  0  0  0  0  0  0  0  0
    2.1234   -0.2530   -2.8905 C   0  0  0  0  0  0  0  0  0  0  0  0
    2.5577    0.7635   -2.7959 H   0  0  0  0  0  0  0  0  0  0  0  0
    1.0219   -0.1793   -2.8161 H   0  0  0  0  0  0  0  0  0  0  0  0
    2.3736   -0.6298   -3.9032 H   0  0  0  0  0  0  0  0  0  0  0  0
    3.0593   -1.6670    1.0916 C   0  0  0  0  0  0  0  0  0  0  0  0
    3.9324   -2.0535    0.5265 H   0  0  0  0  0  0  0  0  0  0  0  0
    2.1928   -2.8545    1.5424 C   0  0  0  0  0  0  0  0  0  0  0  0
    2.7918   -3.5335    2.1836 H   0  0  0  0  0  0  0  0  0  0  0  0
    1.8086   -3.4445    0.6852 H   0  0  0  0  0  0  0  0  0  0  0  0
    1.3197   -2.4981    2.1244 H   0  0  0  0  0  0  0  0  0  0  0  0
    3.5712   -0.8149    2.2579 C   0  0  0  0  0  0  0  0  0  0  0  0
    2.7285   -0.3798    2.8294 H   0  0  0  0  0  0  0  0  0  0  0  0
    4.2167    0.0127    1.9067 H   0  0  0  0  0  0  0  0  0  0  0  0
    4.1665   -1.4547    2.9423 H   0  0  0  0  0  0  0  0  0  0  0  0
  1  5  1  0  0  0  0
  2 18  1  0  0  0  0
  4  3  1  0  0  0  0
  4 39  1  0  0  0  0
  5  3  1  6  0  0  0
  6  7  1  0  0  0  0
  6  5  1  0  0  0  0
  8  6  2  0  0  0  0
  9  8  1  0  0  0  0
 10  8  1  0  0  0  0
 10 12  2  0  0  0  0
 11 10  1  0  0  0  0
 12 13  1  0  0  0  0
 12  1  1  0  0  0  0
 13  2  1  1  0  0  0
 14 13  1  0  0  0  0
 14 17  1  0  0  0  0
 14 16  1  0  0  0  0
 15 14  1  0  0  0  0
 18 19  1  0  0  0  0
 19 21  2  0  0  0  0
 19 20  1  0  0  0  0
 21 22  1  0  0  0  0
 23 24  1  0  0  0  0
 23 21  1  0  0  0  0
 25 23  2  0  0  0  0
 26 25  1  0  0  0  0
 27 25  1  0  0  0  0
 27 18  2  0  0  0  0
 28 27  1  0  0  0  0
 29  4  1  0  0  0  0
 30 29  1  0  0  0  0
 31 29  1  0  0  0  0
 31 34  1  0  0  0  0
 31 33  1  0  0  0  0
 32 31  1  0  0  0  0
 35 37  1  0  0  0  0
 35 36  1  0  0  0  0
 35 29  1  0  0  0  0
 38 35  1  0  0  0  0
 39 41  1  0  0  0  0
 39 45  1  0  0  0  0
 40 39  1  0  0  0  0
 41 44  1  0  0  0  0
 41 42  1  0  0  0  0
 43 41  1  0  0  0  0
 45 46  1  0  0  0  0
 45 48  1  0  0  0  0
 47 45  1  0  0  0  0
M  END
