1,4,5
q = -2.0, confidence = 0.838

 72 74  0  0  0  0  0  0  0  0999 V2000
   -0.8164   -1.8346    0.7538 P   0  0  0  0  0  0  0  0  0  0  0  0
   -2.9168    0.3022    0.8728 Si  0  0  0  0  0  0  0  0  0  0  0  0
    1.7907   -1.0863    2.0909 Si  0  0  0  0  0  0  0  0  0  0  0  0
   -1.5312    1.1337    0.1206 N   0  0  0  0  0  2  0  0  0  0  0  0
    1.8336   -0.2706    0.5118 N   0  0  0  0  0  2  0  0  0  0  0  0
   -1.7073    2.5479   -0.0912 C   0  0  0  0  0  0  0  0  0  0  0  0
   -2.2975    3.0461   -1.2883 C   0  0  0  0  0  0  0  0  0  0  0  0
   -2.4980    4.4331   -1.4225 C   0  0  0  0  0  0  0  0  0  0  0  0
   -2.9600    4.8131   -2.3476 H   0  0  0  0  0  0  0  0  0  0  0  0
   -2.1066    5.3278   -0.4203 C   0  0  0  0  0  0  0  0  0  0  0  0
   -2.2718    6.4085   -0.5454 H   0  0  0  0  0  0  0  0  0  0  0  0
   -1.4847    4.8372    0.7349 C   0  0  0  0  0  0  0  0  0  0  0  0
   -1.1480    5.5344    1.5183 H   0  0  0  0  0  0  0  0  0  0  0  0
   -1.2735    3.4592    0.9158 C   0  0  0  0  0  0  0  0  0  0  0  0
    3.1161   -0.0467   -0.0916 C   0  0  0  0  0  0  0  0  0  0  0  0
    3.8342    1.1582    0.1611 C   0  0  0  0  0  0  0  0  0  0  0  0
    5.0839    1.3507   -0.4533 C   0  0  0  0  0  0  0  0  0  0  0  0
    5.6321    2.2861   -0.2589 H   0  0  0  0  0  0  0  0  0  0  0  0
    5.6318    0.3833   -1.3054 C   0  0  0  0  0  0  0  0  0  0  0  0
    6.6084    0.5542   -1.7828 H   0  0  0  0  0  0  0  0  0  0  0  0
    4.9287   -0.8034   -1.5438 C   0  0  0  0  0  0  0  0  0  0  0  0
    5.3551   -1.5720   -2.2077 H   0  0  0  0  0  0  0  0  0  0  0  0
    3.6773   -1.0418   -0.9448 C   0  0  0  0  0  0  0  0  0  0  0  0
   -1.5583   -3.3278   -0.0191 C   0  0  0  0  0  0  0  0  0  0  0  0
   -0.7153   -4.1493   -0.8019 C   0  0  0  0  0  0  0  0  0  0  0  0
    0.3510   -3.8969   -0.9117 H   0  0  0  0  0  0  0  0  0  0  0  0
   -1.2226   -5.2857   -1.4451 C   0  0  0  0  0  0  0  0  0  0  0  0
   -0.5507   -5.9150   -2.0482 H   0  0  0  0  0  0  0  0  0  0  0  0
   -2.5832   -5.6147   -1.3285 C   0  0  0  0  0  0  0  0  0  0  0  0
   -2.9833   -6.5039   -1.8384 H   0  0  0  0  0  0  0  0  0  0  0  0
   -3.4288   -4.8014   -0.5603 C   0  0  0  0  0  0  0  0  0  0  0  0
   -4.4963   -5.0510   -0.4621 H   0  0  0  0  0  0  0  0  0  0  0  0
   -2.9215   -3.6654    0.0910 C   0  0  0  0  0  0  0  0  0  0  0  0
   -3.6015   -3.0436    0.6892 H   0  0  0  0  0  0  0  0  0  0  0  0
   -2.1112   -1.1235    1.8530 C   0  0  0  0  0  0  0  0  0  0  0  0
   -1.5734   -0.6613    2.7065 H   0  0  0  0  0  0  0  0  0  0  0  0
   -2.8063   -1.8825    2.2667 H   0  0  0  0  0  0  0  0  0  0  0  0
   -4.1326   -0.4097   -0.3908 C   0  0  0  0  0  0  0  0  0  0  0  0
   -3.6237   -1.0422   -1.1458 H   0  0  0  0  0  0  0  0  0  0  0  0
   -4.6629    0.4056   -0.9227 H   0  0  0  0  0  0  0  0  0  0  0  0
   -4.9017   -1.0287    0.1172 H   0  0  0  0  0  0  0  0  0  0  0  0
   -3.8869    1.4466    2.0168 C   0  0  0  0  0  0  0  0  0  0  0  0
   -4.2396    2.3379    1.4593 H   0  0  0  0  0  0  0  0  0  0  0  0
   -3.2871    1.8021    2.8772 H   0  0  0  0  0  0  0  0  0  0  0  0
   -4.7769    0.9152    2.4124 H   0  0  0  0  0  0  0  0  0  0  0  0
   -2.6141    2.1395   -2.4495 C   0  0  0  0  0  0  0  0  0  0  0  0
   -2.9368    1.1329   -2.1323 H   0  0  0  0  0  0  0  0  0  0  0  0
   -1.7048    2.0027   -3.0753 H   0  0  0  0  0  0  0  0  0  0  0  0
   -3.3968    2.5757   -3.0998 H   0  0  0  0  0  0  0  0  0  0  0  0
   -0.5548    2.9604    2.1408 C   0  0  0  0  0  0  0  0  0  0  0  0
    0.3907    2.4452    1.8719 H   0  0  0  0  0  0  0  0  0  0  0  0
   -1.1561    2.2235    2.7106 H   0  0  0  0  0  0  0  0  0  0  0  0
   -0.3005    3.7952    2.8214 H   0  0  0  0  0  0  0  0  0  0  0  0
    0.5169   -2.4920    1.8537 C   0  0  0  0  0  0  0  0  0  0  0  0
    1.0229   -3.3096    1.2987 H   0  0  0  0  0  0  0  0  0  0  0  0
    0.0949   -2.9223    2.7854 H   0  0  0  0  0  0  0  0  0  0  0  0
    3.4941   -1.7612    2.5314 C   0  0  0  0  0  0  0  0  0  0  0  0
    3.8808   -2.4535    1.7581 H   0  0  0  0  0  0  0  0  0  0  0  0
    3.4606   -2.2988    3.5010 H   0  0  0  0  0  0  0  0  0  0  0  0
    4.2205   -0.9280    2.6232 H   0  0  0  0  0  0  0  0  0  0  0  0
    1.1867    0.0050    3.5138 C   0  0  0  0  0  0  0  0  0  0  0  0
    0.2278    0.5037    3.2754 H   0  0  0  0  0  0  0  0  0  0  0  0
    1.9207    0.7983    3.7604 H   0  0  0  0  0  0  0  0  0  0  0  0
    1.0382   -0.6132    4.4239 H   0  0  0  0  0  0  0  0  0  0  0  0
    3.2545    2.2268    1.0483 C   0  0  0  0  0  0  0  0  0  0  0  0
    2.9248    1.8246    2.0269 H   0  0  0  0  0  0  0  0  0  0  0  0
    2.3636    2.6918    0.5743 H   0  0  0  0  0  0  0  0  0  0  0  0
    3.9912    3.0313    1.2346 H   0  0  0  0  0  0  0  0  0  0  0  0
    2.9561   -2.3409   -1.2001 C   0  0  0  0  0  0  0  0  0  0  0  0
    3.5166   -2.9683   -1.9189 H   0  0  0  0  0  0  0  0  0  0  0  0
    1.9390   -2.1739   -1.6073 H   0  0  0  0  0  0  0  0  0  0  0  0
    2.8296   -2.9299   -0.2667 H   0  0  0  0  0  0  0  0  0  0  0  0
  1 35  1  0  0  0  0
  1 54  1  0  0  0  0
  2 35  1  0  0  0  0
  2 42  1  0  0  0  0
  3 57  1  0  0  0  0
  3 61  1  0  0  0  0
  4  2  1  0  0  0  0
  5  3  1  0  0  0  0
  6  4  1  0  0  0  0
  6 14  1  0  0  0  0
  7  6  2  0  0  0  0
  8  7  1  0  0  0  0
  8 10  2  0  0  0  0
  9  8  1  0  0  0  0
 10 12  1  0  0  0  0
 11 10  1  0  0  0  0
 12 14  2  0  0  0  0
 12 13  1  0  0  0  0
 14 50  1  0  0  0  0
 15 16  1  0  0  0  0
 15  5  1  0  0  0  0
 16 65  1  0  0  0  0
 17 18  1  0  0  0  0
 17 16  2  0  0  0  0
 19 17  1  0  0  0  0
 20 19  1  0  0  0  0
 21 19  2  0  0  0  0
 21 23  1  0  0  0  0
 22 21  1  0  0  0  0
 23 15  2  0  0  0  0
 24 33  1  0  0  0  0
 24  1  1  0  0  0  0
 25 24  2  0  0  0  0
 26 25  1  0  0  0  0
 27 29  2  0  0  0  0
 27 25  1  0  0  0  0
 28 27  1  0  0  0  0
 29 31  1  0  0  0  0
 30 29  1  0  0  0  0
 31 32  1  0  0  0  0
 31 33  2  0  0  0  0
 33 34  1  0  0  0  0
 35 37  1  0  0  0  0
 35 36  1  0  0  0  0
 38 41  1  0  0  0  0
 38  2  1  0  0  0  0
 39 38  1  0  0  0  0
 40 38  1  0  0  0  0
 42 45  1  0  0  0  0
 42 44  1  0  0  0  0
 43 42  1  0  0  0  0
 46 47  1  0  0  0  0
 46  7  1  0  0  0  0
 48 46  1  0  0  0  0
 49 46  1  0  0  0  0
 50 52  1  0  0  0  0
 50 53  1  0  0  0  0
 51 50  1  0  0  0  0
 54  3  1  0  0  0  0
 54 56  1  0  0  0  0
 55 54  1  0  0  0  0
 57 60  1  0  0  0  0
 57 59  1  0  0  0  0
 58 57  1  0  0  0  0
 61 63  1  0  0  0  0
 61 64  1  0  0  0  0
 62 61  1  0  0  0  0
 65 68  1  0  0  0  0
 65 66  1  0  0  0  0
 67 65  1  0  0  0  0
 69 23  1  0  0  0  0
 69 72  1  0  0  0  0
 70 69  1  0  0  0  0
 71 69  1  0  0  0  0
M  END
