1,2,3
q = 0.0, confidence = 1.0

 50 51  0  0  1  0  0  0  0  0999 V2000
    1.8998    0.1697   -0.0771 P   0  0  0  0  0  0  0  0  0  0  0  0
   -0.7029    1.3955    0.4758 N   0  0  0  0  0  2  0  0  0  0  0  0
   -2.4081   -0.3558   -0.5208 N   0  0  0  0  0  2  0  0  0  0  0  0
   -2.6342   -2.4884   -1.2676 O   0  0  0  0  0  0  0  0  0  0  0  0
   -3.2789   -3.1041   -1.6662 H   0  0  0  0  0  0  0  0  0  0  0  0
    1.6340    1.5585    1.1615 C   0  0  0  0  0  0  0  0  0  0  0  0
    1.6801    1.0689    2.1589 H   0  0  0  0  0  0  0  0  0  0  0  0
    2.4370    2.3216    1.1436 H   0  0  0  0  0  0  0  0  0  0  0  0
    0.2732    2.1810    1.0021 C   0  0  2  0  0  3  0  0  0  0  0  0
   -0.0140    3.4984    1.3960 C   0  0  0  0  0  0  0  0  0  0  0  0
    0.7856    4.1289    1.8095 H   0  0  0  0  0  0  0  0  0  0  0  0
   -1.3198    3.9888    1.2603 C   0  0  0  0  0  0  0  0  0  0  0  0
   -1.5609    5.0185    1.5614 H   0  0  0  0  0  0  0  0  0  0  0  0
   -2.3175    3.1561    0.7408 C   0  0  0  0  0  0  0  0  0  0  0  0
   -3.3456    3.5247    0.6341 H   0  0  0  0  0  0  0  0  0  0  0  0
   -1.9818    1.8477    0.3522 C   0  0  0  0  0  0  0  0  0  0  0  0
   -2.9373    0.8707   -0.2092 C   0  0  1  0  0  3  0  0  0  0  0  0
   -4.2929    1.1624   -0.4168 C   0  0  0  0  0  0  0  0  0  0  0  0
   -4.6944    2.1520   -0.1672 H   0  0  0  0  0  0  0  0  0  0  0  0
   -5.1296    0.1733   -0.9524 C   0  0  0  0  0  0  0  0  0  0  0  0
   -6.1949    0.3788   -1.1297 H   0  0  0  0  0  0  0  0  0  0  0  0
   -4.5951   -1.0782   -1.2564 C   0  0  0  0  0  0  0  0  0  0  0  0
   -5.2229   -1.8804   -1.6722 H   0  0  0  0  0  0  0  0  0  0  0  0
   -3.2227   -1.3097   -1.0195 C   0  0  0  0  0  0  0  0  0  0  0  0
    2.6077    1.0561   -1.6241 C   0  0  0  0  0  0  0  0  0  0  0  0
    1.6986    2.2672   -1.9125 C   0  0  0  0  0  0  0  0  0  0  0  0
    1.7826    3.0559   -1.1389 H   0  0  0  0  0  0  0  0  0  0  0  0
    0.6364    1.9705   -2.0106 H   0  0  0  0  0  0  0  0  0  0  0  0
    2.0125    2.7217   -2.8748 H   0  0  0  0  0  0  0  0  0  0  0  0
    4.0450    1.5642   -1.4252 C   0  0  0  0  0  0  0  0  0  0  0  0
    4.3359    2.1566   -2.3176 H   0  0  0  0  0  0  0  0  0  0  0  0
    4.7804    0.7439   -1.3290 H   0  0  0  0  0  0  0  0  0  0  0  0
    4.1446    2.2341   -0.5474 H   0  0  0  0  0  0  0  0  0  0  0  0
    2.5454    0.0918   -2.8235 C   0  0  0  0  0  0  0  0  0  0  0  0
    2.9005    0.6244   -3.7300 H   0  0  0  0  0  0  0  0  0  0  0  0
    1.5097   -0.2493   -3.0120 H   0  0  0  0  0  0  0  0  0  0  0  0
    3.1847   -0.7999   -2.6901 H   0  0  0  0  0  0  0  0  0  0  0  0
    3.2306   -0.9262    0.7583 C   0  0  0  0  0  0  0  0  0  0  0  0
    4.3368   -0.1097    1.4518 C   0  0  0  0  0  0  0  0  0  0  0  0
    3.9405    0.5319    2.2636 H   0  0  0  0  0  0  0  0  0  0  0  0
    4.9137    0.5247    0.7576 H   0  0  0  0  0  0  0  0  0  0  0  0
    5.0523   -0.8155    1.9235 H   0  0  0  0  0  0  0  0  0  0  0  0
    3.8334   -1.8769   -0.2920 C   0  0  0  0  0  0  0  0  0  0  0  0
    4.4810   -2.6158    0.2242 H   0  0  0  0  0  0  0  0  0  0  0  0
    4.4659   -1.3487   -1.0298 H   0  0  0  0  0  0  0  0  0  0  0  0
    3.0537   -2.4446   -0.8374 H   0  0  0  0  0  0  0  0  0  0  0  0
    2.5089   -1.7725    1.8220 C   0  0  0  0  0  0  0  0  0  0  0  0
    3.2595   -2.4057    2.3393 H   0  0  0  0  0  0  0  0  0  0  0  0
    1.7467   -2.4348    1.3719 H   0  0  0  0  0  0  0  0  0  0  0  0
    2.0144   -1.1487    2.5938 H   0  0  0  0  0  0  0  0  0  0  0  0
  1 38  1  0  0  0  0
  1  6  1  0  0  0  0
  2  9  1  0  0  0  0
  3 17  1  0  0  0  0
  4 24  1  0  0  0  0
  5  4  1  0  0  0  0
  6  7  1  0  0  0  0
  8  6  1  0  0  0  0
  9  6  1  1  0  0  0
  9 10  1  0  0  0  0
 10 11  1  0  0  0  0
 12 10  2  0  0  0  0
 12 13  1  0  0  0  0
 14 12  1  0  0  0  0
 15 14  1  0  0  0  0
 16  2  1  0  0  0  0
 16 14  2  0  0  0  0
 17 16  1  6  0  0  0
 18 17  1  0  0  0  0
 18 19  1  0  0  0  0
 20 18  2  0  0  0  0
 21 20  1  0  0  0  0
 22 24  2  0  0  0  0
 22 20  1  0  0  0  0
 23 22  1  0  0  0  0
 24  3  1  0  0  0  0
 25 30  1  0  0  0  0
 25  1  1  0  0  0  0
 26 25  1  0  0  0  0
 26 27  1  0  0  0  0
 28 26  1  0  0  0  0
 29 26  1  0  0  0  0
 30 32  1  0  0  0  0
 30 33  1  0  0  0  0
 31 30  1  0  0  0  0
 34 37  1  0  0  0  0
 34 25  1  0  0  0  0
 35 34  1  0  0  0  0
 36 34  1  0  0  0  0
 38 39  1  0  0  0  0
 38 47  1  0  0  0  0
 39 42  1  0  0  0  0
 39 40  1  0  0  0  0
 41 39  1  0  0  0  0
 43 44  1  0  0  0  0
 43 38  1  0  0  0  0
 45 43  1  0  0  0  0
 46 43  1  0  0  0  0
 47 48  1  0  0  0  0
 47 50  1  0  0  0  0
 49 47  1  0  0  0  0
M  END
