1,2,3
q = -1.0, confidence = 0.006

 64 68  0  0  0  0  0  0  0  0999 V2000
   -1.9020   -0.0179   -0.0127 P   0  0  0  0  0  0  0  0  0  0  0  0
    2.3981    0.0665    0.0235 N   0  0  0  0  0  2  0  0  0  0  0  0
    0.1464    2.0008    0.3206 N   0  0  0  0  0  2  0  0  0  0  0  0
    3.1272    1.1925   -0.0678 C   0  0  0  0  0  0  0  0  0  0  0  0
    4.5686    1.1338   -0.1614 C   0  0  0  0  0  0  0  0  0  0  0  0
    5.0421    0.1446   -0.1106 H   0  0  0  0  0  0  0  0  0  0  0  0
    5.3421    2.2646   -0.3362 C   0  0  0  0  0  0  0  0  0  0  0  0
    6.4351    2.1556   -0.4179 H   0  0  0  0  0  0  0  0  0  0  0  0
    4.7560    3.5595   -0.4145 C   0  0  0  0  0  0  0  0  0  0  0  0
    5.3818    4.4517   -0.5568 H   0  0  0  0  0  0  0  0  0  0  0  0
    3.3860    3.6661   -0.2906 C   0  0  0  0  0  3  0  0  0  0  0  0
    2.9068    4.6578   -0.3242 H   0  0  0  0  0  0  0  0  0  0  0  0
    2.5335    2.5270   -0.0984 C   0  0  0  0  0  0  0  0  0  0  0  0
    1.1647    2.8255    0.1038 C   0  0  0  0  0  0  0  0  0  0  0  0
    0.9266    3.9047    0.0774 H   0  0  0  0  0  0  0  0  0  0  0  0
   -1.1297    2.5310    0.6491 C   0  0  0  0  0  0  0  0  0  0  0  0
   -1.3283    3.8458    1.1362 C   0  0  0  0  0  0  0  0  0  0  0  0
   -0.4712    4.5107    1.3081 H   0  0  0  0  0  0  0  0  0  0  0  0
   -2.6135    4.3010    1.4556 C   0  0  0  0  0  0  0  0  0  0  0  0
   -2.7360    5.3242    1.8422 H   0  0  0  0  0  0  0  0  0  0  0  0
   -3.7336    3.4637    1.3226 C   0  0  0  0  0  0  0  0  0  0  0  0
   -4.7363    3.8231    1.5959 H   0  0  0  0  0  0  0  0  0  0  0  0
   -3.5499    2.1498    0.8687 C   0  0  0  0  0  0  0  0  0  0  0  0
   -4.4070    1.4627    0.7938 H   0  0  0  0  0  0  0  0  0  0  0  0
   -2.2674    1.6886    0.5310 C   0  0  0  0  0  0  0  0  0  0  0  0
    3.0777   -1.1842    0.0828 C   0  0  0  0  0  0  0  0  0  0  0  0
    3.3689   -1.8739   -1.1200 C   0  0  0  0  0  0  0  0  0  0  0  0
    4.0401   -3.1065   -1.0345 C   0  0  0  0  0  0  0  0  0  0  0  0
    4.2723   -3.6516   -1.9631 H   0  0  0  0  0  0  0  0  0  0  0  0
    4.4003   -3.6484    0.2070 C   0  0  0  0  0  0  0  0  0  0  0  0
    4.9230   -4.6158    0.2552 H   0  0  0  0  0  0  0  0  0  0  0  0
    4.0808   -2.9640    1.3876 C   0  0  0  0  0  0  0  0  0  0  0  0
    4.3469   -3.3950    2.3658 H   0  0  0  0  0  0  0  0  0  0  0  0
    3.4142   -1.7262    1.3470 C   0  0  0  0  0  0  0  0  0  0  0  0
    2.9226   -1.3039   -2.4378 C   0  0  0  0  0  0  0  0  0  0  0  0
    3.2574   -1.9351   -3.2830 H   0  0  0  0  0  0  0  0  0  0  0  0
    3.3046   -0.2744   -2.5970 H   0  0  0  0  0  0  0  0  0  0  0  0
    1.8129   -1.2445   -2.4602 H   0  0  0  0  0  0  0  0  0  0  0  0
    3.0312   -0.9912    2.6027 C   0  0  0  0  0  0  0  0  0  0  0  0
    3.4785    0.0240    2.6400 H   0  0  0  0  0  0  0  0  0  0  0  0
    3.3500   -1.5445    3.5066 H   0  0  0  0  0  0  0  0  0  0  0  0
    1.9293   -0.8502    2.6457 H   0  0  0  0  0  0  0  0  0  0  0  0
   -2.5954   -0.2119   -1.6971 C   0  0  0  0  0  0  0  0  0  0  0  0
   -3.3575    0.7968   -2.3193 C   0  0  0  0  0  0  0  0  0  0  0  0
   -3.5594    1.7414   -1.7932 H   0  0  0  0  0  0  0  0  0  0  0  0
   -3.8540    0.5956   -3.6172 C   0  0  0  0  0  0  0  0  0  0  0  0
   -4.4484    1.3857   -4.1007 H   0  0  0  0  0  0  0  0  0  0  0  0
   -3.5910   -0.6043   -4.2954 C   0  0  0  0  0  0  0  0  0  0  0  0
   -3.9811   -0.7580   -5.3131 H   0  0  0  0  0  0  0  0  0  0  0  0
   -2.8202   -1.6045   -3.6784 C   0  0  0  0  0  0  0  0  0  0  0  0
   -2.5999   -2.5409   -4.2132 H   0  0  0  0  0  0  0  0  0  0  0  0
   -2.3158   -1.4133   -2.3854 C   0  0  0  0  0  0  0  0  0  0  0  0
   -1.6802   -2.1745   -1.9032 H   0  0  0  0  0  0  0  0  0  0  0  0
   -2.8952   -1.1095    1.0630 C   0  0  0  0  0  0  0  0  0  0  0  0
   -2.3311   -1.5510    2.2766 C   0  0  0  0  0  0  0  0  0  0  0  0
   -1.2891   -1.2896    2.5156 H   0  0  0  0  0  0  0  0  0  0  0  0
   -3.0911   -2.3403    3.1498 C   0  0  0  0  0  0  0  0  0  0  0  0
   -2.6477   -2.6897    4.0943 H   0  0  0  0  0  0  0  0  0  0  0  0
   -4.4070   -2.6997    2.8129 C   0  0  0  0  0  0  0  0  0  0  0  0
   -4.9981   -3.3268    3.4976 H   0  0  0  0  0  0  0  0  0  0  0  0
   -4.9639   -2.2721    1.5975 C   0  0  0  0  0  0  0  0  0  0  0  0
   -5.9901   -2.5633    1.3263 H   0  0  0  0  0  0  0  0  0  0  0  0
   -4.2104   -1.4789    0.7183 C   0  0  0  0  0  0  0  0  0  0  0  0
   -4.6390   -1.1580   -0.2436 H   0  0  0  0  0  0  0  0  0  0  0  0
  1 25  1  0  0  0  0
  1 54  1  0  0  0  0
  2 26  1  0  0  0  0
  3 16  1  0  0  0  0
  4  2  1  0  0  0  0
  5  6  1  0  0  0  0
  5  4  2  0  0  0  0
  7  5  1  0  0  0  0
  8  7  1  0  0  0  0
  9  7  2  0  0  0  0
  9 11  1  0  0  0  0
 10  9  1  0  0  0  0
 11 13  1  0  0  0  0
 12 11  1  0  0  0  0
 13  4  1  0  0  0  0
 13 14  2  0  0  0  0
 14  3  1  0  0  0  0
 15 14  1  0  0  0  0
 16 17  1  0  0  0  0
 17 18  1  0  0  0  0
 17 19  2  0  0  0  0
 19 20  1  0  0  0  0
 21 19  1  0  0  0  0
 21 22  1  0  0  0  0
 23 21  2  0  0  0  0
 24 23  1  0  0  0  0
 25 16  2  0  0  0  0
 25 23  1  0  0  0  0
 26 34  1  0  0  0  0
 27 28  1  0  0  0  0
 27 26  2  0  0  0  0
 28 30  2  0  0  0  0
 29 28  1  0  0  0  0
 30 31  1  0  0  0  0
 30 32  1  0  0  0  0
 32 33  1  0  0  0  0
 34 32  2  0  0  0  0
 34 39  1  0  0  0  0
 35 27  1  0  0  0  0
 36 35  1  0  0  0  0
 37 35  1  0  0  0  0
 38 35  1  0  0  0  0
 39 40  1  0  0  0  0
 39 42  1  0  0  0  0
 39 41  1  0  0  0  0
 43  1  1  0  0  0  0
 44 45  1  0  0  0  0
 44 43  1  0  0  0  0
 46 44  2  0  0  0  0
 47 46  1  0  0  0  0
 48 50  2  0  0  0  0
 48 46  1  0  0  0  0
 49 48  1  0  0  0  0
 50 52  1  0  0  0  0
 51 50  1  0  0  0  0
 52 53  1  0  0  0  0
 52 43  2  0  0  0  0
 54 55  1  0  0  0  0
 55 56  1  0  0  0  0
 55 57  2  0  0  0  0
 57 58  1  0  0  0  0
 59 57  1  0  0  0  0
 59 60  1  0  0  0  0
 61 59  2  0  0  0  0
 62 61  1  0  0  0  0
 63 54  2  0  0  0  0
 63 61  1  0  0  0  0
 64 63  1  0  0  0  0
M  END
