1,2,3
q = -1.0, confidence = 0.016

 76 80  0  0  1  0  0  0  0  0999 V2000
    2.0788   -0.0033    0.0650 P   0  0  0  0  0  0  0  0  0  0  0  0
   -1.9792    0.3386   -0.0257 N   0  0  0  0  0  2  0  0  0  0  0  0
    0.2458    2.0997   -0.1961 N   0  0  0  0  0  2  0  0  0  0  0  0
   -2.7211    1.4649    0.0366 C   0  0  1  0  0  3  0  0  0  0  0  0
   -4.1639    1.4331    0.0342 C   0  0  0  0  0  0  0  0  0  0  0  0
   -4.6598    0.4603   -0.0750 H   0  0  0  0  0  0  0  0  0  0  0  0
   -4.9198    2.5818    0.1855 C   0  0  0  0  0  0  0  0  0  0  0  0
   -6.0182    2.5000    0.1889 H   0  0  0  0  0  0  0  0  0  0  0  0
   -4.3100    3.8584    0.3375 C   0  0  0  0  0  0  0  0  0  0  0  0
   -4.9244    4.7613    0.4627 H   0  0  0  0  0  0  0  0  0  0  0  0
   -2.9316    3.9370    0.3031 C   0  0  0  0  0  0  0  0  0  0  0  0
   -2.4295    4.9139    0.3914 H   0  0  0  0  0  0  0  0  0  0  0  0
   -2.1063    2.7785    0.1313 C   0  0  0  0  0  0  0  0  0  0  0  0
   -0.7174    2.9986    0.0143 C   0  0  0  0  0  0  0  0  0  0  0  0
   -0.4038    4.0544    0.0963 H   0  0  0  0  0  0  0  0  0  0  0  0
    1.5595    2.5940   -0.4542 C   0  0  0  0  0  0  0  0  0  0  0  0
    1.8463    3.9125   -0.8817 C   0  0  0  0  0  0  0  0  0  0  0  0
    1.0361    4.6244   -1.0892 H   0  0  0  0  0  0  0  0  0  0  0  0
    3.1727    4.3135   -1.0887 C   0  0  0  0  0  0  0  0  0  0  0  0
    3.3717    5.3418   -1.4272 H   0  0  0  0  0  0  0  0  0  0  0  0
    4.2415    3.4214   -0.8972 C   0  0  0  0  0  0  0  0  0  0  0  0
    5.2774    3.7457   -1.0737 H   0  0  0  0  0  0  0  0  0  0  0  0
    3.9668    2.1008   -0.5136 C   0  0  0  0  0  0  0  0  0  0  0  0
    4.7834    1.3721   -0.3962 H   0  0  0  0  0  0  0  0  0  0  0  0
    2.6417    1.6954   -0.2967 C   0  0  0  0  0  0  0  0  0  0  0  0
   -2.6962   -0.8959   -0.1049 C   0  0  0  0  0  0  0  0  0  0  0  0
   -2.9754   -1.4573   -1.3771 C   0  0  0  0  0  0  0  0  0  0  0  0
   -3.7342   -2.6397   -1.4359 C   0  0  0  0  0  0  0  0  0  0  0  0
   -3.9661   -3.0838   -2.4167 H   0  0  0  0  0  0  0  0  0  0  0  0
   -4.1914   -3.2630   -0.2677 C   0  0  0  0  0  0  0  0  0  0  0  0
   -4.7888   -4.1854   -0.3313 H   0  0  0  0  0  0  0  0  0  0  0  0
   -3.8670   -2.7205    0.9824 C   0  0  0  0  0  0  0  0  0  0  0  0
   -4.2030   -3.2290    1.8998 H   0  0  0  0  0  0  0  0  0  0  0  0
   -3.1103   -1.5400    1.0901 C   0  0  0  0  0  0  0  0  0  0  0  0
   -2.4396   -0.8127   -2.6481 C   0  0  0  0  0  0  0  0  0  0  0  0
   -1.7781    0.0187   -2.3275 H   0  0  0  0  0  0  0  0  0  0  0  0
   -3.5677   -0.2058   -3.4981 C   0  0  0  0  0  0  0  0  0  0  0  0
   -4.2771   -0.9887   -3.8403 H   0  0  0  0  0  0  0  0  0  0  0  0
   -3.1593    0.2959   -4.4001 H   0  0  0  0  0  0  0  0  0  0  0  0
   -4.1454    0.5435   -2.9204 H   0  0  0  0  0  0  0  0  0  0  0  0
   -1.5762   -1.7984   -3.4528 C   0  0  0  0  0  0  0  0  0  0  0  0
   -0.7899   -2.2384   -2.8076 H   0  0  0  0  0  0  0  0  0  0  0  0
   -1.0912   -1.2856   -4.3099 H   0  0  0  0  0  0  0  0  0  0  0  0
   -2.1814   -2.6320   -3.8664 H   0  0  0  0  0  0  0  0  0  0  0  0
   -2.7282   -0.9875    2.4571 C   0  0  0  0  0  0  0  0  0  0  0  0
   -2.0714   -0.1126    2.2763 H   0  0  0  0  0  0  0  0  0  0  0  0
   -1.9099   -2.0094    3.2644 C   0  0  0  0  0  0  0  0  0  0  0  0
   -1.5698   -1.5652    4.2230 H   0  0  0  0  0  0  0  0  0  0  0  0
   -1.0197   -2.3319    2.6896 H   0  0  0  0  0  0  0  0  0  0  0  0
   -2.5096   -2.9111    3.5094 H   0  0  0  0  0  0  0  0  0  0  0  0
   -3.9587   -0.4973    3.2387 C   0  0  0  0  0  0  0  0  0  0  0  0
   -4.5149    0.2761    2.6723 H   0  0  0  0  0  0  0  0  0  0  0  0
   -3.6570   -0.0583    4.2123 H   0  0  0  0  0  0  0  0  0  0  0  0
   -4.6591   -1.3326    3.4510 H   0  0  0  0  0  0  0  0  0  0  0  0
    2.7552   -0.4341    1.7084 C   0  0  0  0  0  0  0  0  0  0  0  0
    2.7449   -1.7803    2.1345 C   0  0  0  0  0  0  0  0  0  0  0  0
    2.3561   -2.5576    1.4607 H   0  0  0  0  0  0  0  0  0  0  0  0
    3.2025   -2.1087    3.4174 C   0  0  0  0  0  0  0  0  0  0  0  0
    3.1932   -3.1596    3.7441 H   0  0  0  0  0  0  0  0  0  0  0  0
    3.6615   -1.1042    4.2859 C   0  0  0  0  0  0  0  0  0  0  0  0
    4.0165   -1.3669    5.2941 H   0  0  0  0  0  0  0  0  0  0  0  0
    3.6624    0.2355    3.8677 C   0  0  0  0  0  0  0  0  0  0  0  0
    4.0174    1.0267    4.5454 H   0  0  0  0  0  0  0  0  0  0  0  0
    3.2103    0.5735    2.5832 C   0  0  0  0  0  0  0  0  0  0  0  0
    3.2124    1.6244    2.2572 H   0  0  0  0  0  0  0  0  0  0  0  0
    2.9691   -1.0368   -1.1532 C   0  0  0  0  0  0  0  0  0  0  0  0
    2.3402   -1.3043   -2.3854 C   0  0  0  0  0  0  0  0  0  0  0  0
    1.3064   -0.9658   -2.5497 H   0  0  0  0  0  0  0  0  0  0  0  0
    3.0212   -2.0243   -3.3751 C   0  0  0  0  0  0  0  0  0  0  0  0
    2.5231   -2.2368   -4.3331 H   0  0  0  0  0  0  0  0  0  0  0  0
    4.3267   -2.4874   -3.1384 C   0  0  0  0  0  0  0  0  0  0  0  0
    4.8570   -3.0599   -3.9146 H   0  0  0  0  0  0  0  0  0  0  0  0
    4.9503   -2.2304   -1.9076 C   0  0  0  0  0  0  0  0  0  0  0  0
    5.9689   -2.6007   -1.7158 H   0  0  0  0  0  0  0  0  0  0  0  0
    4.2749   -1.5059   -0.9124 C   0  0  0  0  0  0  0  0  0  0  0  0
    4.7592   -1.3180    0.0580 H   0  0  0  0  0  0  0  0  0  0  0  0
  1 55  1  0  0  0  0
  3 14  1  0  0  0  0
  4  2  1  1  0  0  0
  4 13  1  0  0  0  0
  5  4  1  0  0  0  0
  5  7  2  0  0  0  0
  6  5  1  0  0  0  0
  7  8  1  0  0  0  0
  7  9  1  0  0  0  0
  9 10  1  0  0  0  0
 11  9  2  0  0  0  0
 11 12  1  0  0  0  0
 13 11  1  0  0  0  0
 14 15  1  0  0  0  0
 14 13  2  0  0  0  0
 16 25  1  0  0  0  0
 16  3  1  0  0  0  0
 17 16  2  0  0  0  0
 18 17  1  0  0  0  0
 19 21  2  0  0  0  0
 19 17  1  0  0  0  0
 20 19  1  0  0  0  0
 21 23  1  0  0  0  0
 22 21  1  0  0  0  0
 23 24  1  0  0  0  0
 23 25  2  0  0  0  0
 25  1  1  0  0  0  0
 26  2  1  0  0  0  0
 26 34  1  0  0  0  0
 27 26  2  0  0  0  0
 28 27  1  0  0  0  0
 28 30  2  0  0  0  0
 29 28  1  0  0  0  0
 30 32  1  0  0  0  0
 31 30  1  0  0  0  0
 32 34  2  0  0  0  0
 32 33  1  0  0  0  0
 34 45  1  0  0  0  0
 35 36  1  0  0  0  0
 35 27  1  0  0  0  0
 37 40  1  0  0  0  0
 37 35  1  0  0  0  0
 38 37  1  0  0  0  0
 39 37  1  0  0  0  0
 41 42  1  0  0  0  0
 41 35  1  0  0  0  0
 43 41  1  0  0  0  0
 44 41  1  0  0  0  0
 45 51  1  0  0  0  0
 45 47  1  0  0  0  0
 46 45  1  0  0  0  0
 47 50  1  0  0  0  0
 47 48  1  0  0  0  0
 49 47  1  0  0  0  0
 51 54  1  0  0  0  0
 51 53  1  0  0  0  0
 52 51  1  0  0  0  0
 55 56  2  0  0  0  0
 55 64  1  0  0  0  0
 56 58  1  0  0  0  0
 57 56  1  0  0  0  0
 58 59  1  0  0  0  0
 58 60  2  0  0  0  0
 60 61  1  0  0  0  0
 62 60  1  0  0  0  0
 62 63  1  0  0  0  0
 64 62  2  0  0  0  0
 65 64  1  0  0  0  0
 66 75  1  0  0  0  0
 66  1  1  0  0  0  0
 67 66  2  0  0  0  0
 68 67  1  0  0  0  0
 69 71  2  0  0  0  0
 69 67  1  0  0  0  0
 70 69  1  0  0  0  0
 71 73  1  0  0  0  0
 72 71  1  0  0  0  0
 73 74  1  0  0  0  0
 73 75  2  0  0  0  0
 75 76  1  0  0  0  0
M  END
