1,2,3
q = 0.0, confidence = 0.988

 43 44  0  0  1  0  0  0  0  0999 V2000
   -1.8325    0.1691   -0.0416 P   0  0  0  0  0  0  0  0  0  0  0  0
    2.0642   -0.8971   -0.1644 N   0  0  0  0  0  2  0  0  0  0  0  0
    0.6966    1.1588    0.3371 N   0  0  0  0  0  2  0  0  0  0  0  0
    2.7084   -2.0748   -0.4118 C   0  0  0  0  0  3  0  0  0  0  0  0
    2.0629   -2.9606   -0.4936 H   0  0  0  0  0  0  0  0  0  0  0  0
    4.0838   -2.1706   -0.5573 C   0  0  0  0  0  0  0  0  0  0  0  0
    4.5357   -3.1513   -0.7625 H   0  0  0  0  0  0  0  0  0  0  0  0
    4.8787   -1.0030   -0.4339 C   0  0  0  0  0  0  0  0  0  0  0  0
    5.9721   -1.0505   -0.5395 H   0  0  0  0  0  0  0  0  0  0  0  0
    4.2420    0.2024   -0.1713 C   0  0  0  0  0  0  0  0  0  0  0  0
    4.8212    1.1298   -0.0599 H   0  0  0  0  0  0  0  0  0  0  0  0
    2.8331    0.2495   -0.0391 C   0  0  0  0  0  0  0  0  0  0  0  0
    2.0549    1.4268    0.2369 C   0  0  1  0  0  3  0  0  0  0  0  0
    2.5582    2.7389    0.3866 C   0  0  0  0  0  0  0  0  0  0  0  0
    3.6394    2.9144    0.2980 H   0  0  0  0  0  0  0  0  0  0  0  0
    1.6870    3.7928    0.6319 C   0  0  0  0  0  0  0  0  0  0  0  0
    2.0605    4.8211    0.7370 H   0  0  0  0  0  0  0  0  0  0  0  0
    0.3016    3.5117    0.7490 C   0  0  0  0  0  0  0  0  0  0  0  0
   -0.4207    4.3144    0.9561 H   0  0  0  0  0  0  0  0  0  0  0  0
   -0.1558    2.2069    0.6149 C   0  0  0  0  0  0  0  0  0  0  0  0
   -1.5973    1.8158    0.7920 C   0  0  0  0  0  0  0  0  0  0  0  0
   -2.2997    2.6036    0.4524 H   0  0  0  0  0  0  0  0  0  0  0  0
   -1.7922    1.6386    1.8718 H   0  0  0  0  0  0  0  0  0  0  0  0
   -2.3853    0.5878   -1.7941 C   0  0  0  0  0  0  0  0  0  0  0  0
   -2.4670   -0.4147   -2.2706 H   0  0  0  0  0  0  0  0  0  0  0  0
   -3.7325    1.3078   -1.8969 C   0  0  0  0  0  0  0  0  0  0  0  0
   -3.7277    2.2698   -1.3420 H   0  0  0  0  0  0  0  0  0  0  0  0
   -4.5762    0.6985   -1.5177 H   0  0  0  0  0  0  0  0  0  0  0  0
   -3.9544    1.5492   -2.9575 H   0  0  0  0  0  0  0  0  0  0  0  0
   -1.2631    1.3559   -2.5040 C   0  0  0  0  0  0  0  0  0  0  0  0
   -1.4787    1.4381   -3.5890 H   0  0  0  0  0  0  0  0  0  0  0  0
   -0.2899    0.8418   -2.3730 H   0  0  0  0  0  0  0  0  0  0  0  0
   -1.1602    2.3859   -2.1038 H   0  0  0  0  0  0  0  0  0  0  0  0
   -3.3522   -0.5999    0.7382 C   0  0  0  0  0  0  0  0  0  0  0  0
   -4.2074    0.0315    0.4131 H   0  0  0  0  0  0  0  0  0  0  0  0
   -3.3085   -0.6058    2.2702 C   0  0  0  0  0  0  0  0  0  0  0  0
   -4.2212   -1.1010    2.6620 H   0  0  0  0  0  0  0  0  0  0  0  0
   -3.2849    0.4155    2.6991 H   0  0  0  0  0  0  0  0  0  0  0  0
   -2.4340   -1.1640    2.6558 H   0  0  0  0  0  0  0  0  0  0  0  0
   -3.5313   -2.0169    0.1747 C   0  0  0  0  0  0  0  0  0  0  0  0
   -2.6946   -2.6719    0.4905 H   0  0  0  0  0  0  0  0  0  0  0  0
   -3.5695   -2.0359   -0.9327 H   0  0  0  0  0  0  0  0  0  0  0  0
   -4.4747   -2.4619    0.5525 H   0  0  0  0  0  0  0  0  0  0  0  0
  1 34  1  0  0  0  0
  1 21  1  0  0  0  0
  2 12  1  0  0  0  0
  3 20  1  0  0  0  0
  4  2  1  0  0  0  0
  5  4  1  0  0  0  0
  6  8  2  0  0  0  0
  6  4  1  0  0  0  0
  7  6  1  0  0  0  0
  8 10  1  0  0  0  0
  9  8  1  0  0  0  0
 10 11  1  0  0  0  0
 10 12  2  0  0  0  0
 13 12  1  6  0  0  0
 13  3  1  0  0  0  0
 13 14  1  0  0  0  0
 14 16  2  0  0  0  0
 15 14  1  0  0  0  0
 16 17  1  0  0  0  0
 16 18  1  0  0  0  0
 18 19  1  0  0  0  0
 20 18  2  0  0  0  0
 20 21  1  0  0  0  0
 21 23  1  0  0  0  0
 22 21  1  0  0  0  0
 24  1  1  0  0  0  0
 25 24  1  0  0  0  0
 26 24  1  0  0  0  0
 26 28  1  0  0  0  0
 26 27  1  0  0  0  0
 29 26  1  0  0  0  0
 30 32  1  0  0  0  0
 30 33  1  0  0  0  0
 30 24  1  0  0  0  0
 31 30  1  0  0  0  0
 34 36  1  0  0  0  0
 35 34  1  0  0  0  0
 36 39  1  0  0  0  0
 36 37  1  0  0  0  0
 36 38  1  0  0  0  0
 40 41  1  0  0  0  0
 40 43  1  0  0  0  0
 40 34  1  0  0  0  0
 42 40  1  0  0  0  0
M  END
