1,2,3
q = 0.0, confidence = 0.996

 52 56  0  0  1  0  0  0  0  0999 V2000
    1.2794    0.1302   -0.0037 P   0  0  0  0  0  0  0  0  0  0  0  0
   -2.6463   -1.0998   -0.4831 N   0  0  0  0  0  2  0  0  0  0  0  0
   -1.4177    1.2245   -0.5257 N   0  0  0  0  0  2  0  0  0  0  0  0
   -3.2007   -2.3096   -0.5857 C   0  0  0  0  0  0  0  0  0  0  0  0
   -2.5011   -3.1473   -0.7374 H   0  0  0  0  0  0  0  0  0  0  0  0
   -4.5981   -2.5106   -0.4738 C   0  0  0  0  0  0  0  0  0  0  0  0
   -4.9982   -3.5292   -0.5733 H   0  0  0  0  0  0  0  0  0  0  0  0
   -5.4312   -1.4307   -0.2208 C   0  0  0  0  0  0  0  0  0  0  0  0
   -6.5171   -1.5669   -0.1043 H   0  0  0  0  0  0  0  0  0  0  0  0
   -4.8699   -0.1273   -0.1046 C   0  0  0  0  0  0  0  0  0  0  0  0
   -5.6123    1.0530    0.1869 C   0  0  0  0  0  0  0  0  0  0  0  0
   -6.6994    0.9793    0.3377 H   0  0  0  0  0  0  0  0  0  0  0  0
   -4.9613    2.2747    0.3052 C   0  0  0  0  0  0  0  0  0  0  0  0
   -5.5337    3.1776    0.5627 H   0  0  0  0  0  0  0  0  0  0  0  0
   -3.5623    2.3866    0.1028 C   0  0  0  0  0  0  0  0  0  0  0  0
   -3.0817    3.3676    0.2229 H   0  0  0  0  0  0  0  0  0  0  0  0
   -2.8112    1.2564   -0.2219 C   0  0  0  0  0  0  0  0  0  0  0  0
   -3.4547   -0.0130   -0.2747 C   0  0  1  0  0  3  0  0  0  0  0  0
   -0.8526    2.3366   -0.9430 C   0  0  0  0  0  3  0  0  0  0  0  0
   -1.5156    3.2025   -1.1216 H   0  0  0  0  0  0  0  0  0  0  0  0
    0.5440    2.5774   -1.2352 C   0  0  0  0  0  0  0  0  0  0  0  0
    0.8512    3.8075   -1.8720 C   0  0  0  0  0  0  0  0  0  0  0  0
    0.0325    4.5061   -2.1046 H   0  0  0  0  0  0  0  0  0  0  0  0
    2.1652    4.1355   -2.2178 C   0  0  0  0  0  0  0  0  0  0  0  0
    2.3801    5.0893   -2.7210 H   0  0  0  0  0  0  0  0  0  0  0  0
    3.2037    3.2397   -1.9203 C   0  0  0  0  0  0  0  0  0  0  0  0
    4.2423    3.4859   -2.1867 H   0  0  0  0  0  0  0  0  0  0  0  0
    2.9228    2.0233   -1.2736 C   0  0  0  0  0  0  0  0  0  0  0  0
    3.7438    1.3322   -1.0340 H   0  0  0  0  0  0  0  0  0  0  0  0
    1.6059    1.6796   -0.9245 C   0  0  0  0  0  0  0  0  0  0  0  0
    2.7562   -0.8843   -0.3350 C   0  0  0  0  0  0  0  0  0  0  0  0
    2.9322   -1.4186   -1.6295 C   0  0  0  0  0  0  0  0  0  0  0  0
    2.1589   -1.2740   -2.3994 H   0  0  0  0  0  0  0  0  0  0  0  0
    4.0879   -2.1497   -1.9263 C   0  0  0  0  0  0  0  0  0  0  0  0
    4.2242   -2.5691   -2.9341 H   0  0  0  0  0  0  0  0  0  0  0  0
    5.0646   -2.3584   -0.9363 C   0  0  0  0  0  0  0  0  0  0  0  0
    5.9685   -2.9399   -1.1714 H   0  0  0  0  0  0  0  0  0  0  0  0
    4.8854   -1.8320    0.3512 C   0  0  0  0  0  0  0  0  0  0  0  0
    5.6466   -1.9975    1.1279 H   0  0  0  0  0  0  0  0  0  0  0  0
    3.7317   -1.0923    0.6581 C   0  0  0  0  0  0  0  0  0  0  0  0
    3.5932   -0.6797    1.6680 H   0  0  0  0  0  0  0  0  0  0  0  0
    1.3197    0.5860    1.7674 C   0  0  0  0  0  0  0  0  0  0  0  0
    0.9161   -0.3861    2.7098 C   0  0  0  0  0  0  0  0  0  0  0  0
    0.5851   -1.3798    2.3677 H   0  0  0  0  0  0  0  0  0  0  0  0
    0.9508   -0.0817    4.0772 C   0  0  0  0  0  0  0  0  0  0  0  0
    0.6443   -0.8418    4.8112 H   0  0  0  0  0  0  0  0  0  0  0  0
    1.3691    1.1884    4.5085 C   0  0  0  0  0  0  0  0  0  0  0  0
    1.3898    1.4248    5.5829 H   0  0  0  0  0  0  0  0  0  0  0  0
    1.7606    2.1566    3.5706 C   0  0  0  0  0  0  0  0  0  0  0  0
    2.0910    3.1505    3.9074 H   0  0  0  0  0  0  0  0  0  0  0  0
    1.7390    1.8606    2.1991 C   0  0  0  0  0  0  0  0  0  0  0  0
    2.0562    2.6197    1.4689 H   0  0  0  0  0  0  0  0  0  0  0  0
  1 42  1  0  0  0  0
  3 17  1  0  0  0  0
  4  2  1  0  0  0  0
  4  6  2  0  0  0  0
  5  4  1  0  0  0  0
  6  8  1  0  0  0  0
  7  6  1  0  0  0  0
  8 10  2  0  0  0  0
  8  9  1  0  0  0  0
 10 11  1  0  0  0  0
 11 13  2  0  0  0  0
 11 12  1  0  0  0  0
 13 14  1  0  0  0  0
 15 16  1  0  0  0  0
 15 13  1  0  0  0  0
 17 15  2  0  0  0  0
 18  2  1  1  0  0  0
 18 17  1  0  0  0  0
 18 10  1  0  0  0  0
 19  3  1  0  0  0  0
 20 19  1  0  0  0  0
 21 19  1  0  0  0  0
 21 30  1  0  0  0  0
 22 21  2  0  0  0  0
 23 22  1  0  0  0  0
 24 26  2  0  0  0  0
 24 22  1  0  0  0  0
 25 24  1  0  0  0  0
 26 28  1  0  0  0  0
 27 26  1  0  0  0  0
 28 29  1  0  0  0  0
 28 30  2  0  0  0  0
 30  1  1  0  0  0  0
 31  1  1  0  0  0  0
 31 40  1  0  0  0  0
 32 31  2  0  0  0  0
 33 32  1  0  0  0  0
 34 32  1  0  0  0  0
 34 36  2  0  0  0  0
 35 34  1  0  0  0  0
 36 38  1  0  0  0  0
 37 36  1  0  0  0  0
 38 40  2  0  0  0  0
 38 39  1  0  0  0  0
 40 41  1  0  0  0  0
 42 51  2  0  0  0  0
 42 43  1  0  0  0  0
 43 45  2  0  0  0  0
 44 43  1  0  0  0  0
 45 47  1  0  0  0  0
 45 46  1  0  0  0  0
 47 48  1  0  0  0  0
 49 50  1  0  0  0  0
 49 47  2  0  0  0  0
 51 49  1  0  0  0  0
 52 51  1  0  0  0  0
M  END
