1,2,3
q = -1.0

 73 75  0  0  0  0  0  0  0  0999 V2000
    2.3158   -1.0944    0.4593 P   0  0  0  0  0  0  0  0  0  0  0  0
    0.7071    1.2261   -0.1322 N   0  0  0  0  0  2  0  0  0  0  0  0
   -1.8043   -0.1160   -0.9563 N   0  0  0  0  0  0  0  0  0  0  0  0
   -1.5423   -0.8068   -1.6847 H   0  0  0  0  0  0  0  0  0  0  0  0
    2.0497    1.4494   -0.4870 C   0  0  0  0  0  0  0  0  0  0  0  0
    3.0009    0.3953   -0.3461 C   0  0  0  0  0  0  0  0  0  0  0  0
    4.3459    0.5981   -0.6993 C   0  0  0  0  0  0  0  0  0  0  0  0
    5.0710   -0.2176   -0.5685 H   0  0  0  0  0  0  0  0  0  0  0  0
    4.7971    1.8195   -1.2339 C   0  0  0  0  0  0  0  0  0  0  0  0
    3.8418    2.8447   -1.3998 C   0  0  0  0  0  0  0  0  0  0  0  0
    4.1557    3.8089   -1.8315 H   0  0  0  0  0  0  0  0  0  0  0  0
    2.5031    2.6721   -1.0396 C   0  0  0  0  0  0  0  0  0  0  0  0
    1.7865    3.4906   -1.1936 H   0  0  0  0  0  0  0  0  0  0  0  0
    6.2367    2.0218   -1.6329 C   0  0  0  0  0  0  0  0  0  0  0  0
    6.6757    2.9138   -1.1390 H   0  0  0  0  0  0  0  0  0  0  0  0
    6.3359    2.1814   -2.7277 H   0  0  0  0  0  0  0  0  0  0  0  0
    6.8603    1.1464   -1.3660 H   0  0  0  0  0  0  0  0  0  0  0  0
   -0.1718    2.3334   -0.0191 C   0  0  0  0  0  0  0  0  0  0  0  0
   -1.3898    2.3580   -0.7435 C   0  0  0  0  0  0  0  0  0  0  0  0
   -2.2880    3.4229   -0.5605 C   0  0  0  0  0  0  0  0  0  0  0  0
   -3.2347    3.4147   -1.1249 H   0  0  0  0  0  0  0  0  0  0  0  0
   -2.0209    4.4820    0.3257 C   0  0  0  0  0  0  0  0  0  0  0  0
   -0.8108    4.4345    1.0518 C   0  0  0  0  0  0  0  0  0  0  0  0
   -0.5800    5.2365    1.7713 H   0  0  0  0  0  0  0  0  0  0  0  0
    0.0961    3.3829    0.8885 C   0  0  0  0  0  0  0  0  0  0  0  0
    1.0277    3.3529    1.4726 H   0  0  0  0  0  0  0  0  0  0  0  0
   -2.9853    5.6279    0.4981 C   0  0  0  0  0  0  0  0  0  0  0  0
   -3.9652    5.4107    0.0304 H   0  0  0  0  0  0  0  0  0  0  0  0
   -2.5937    6.5585    0.0339 H   0  0  0  0  0  0  0  0  0  0  0  0
   -3.1604    5.8544    1.5698 H   0  0  0  0  0  0  0  0  0  0  0  0
   -3.1450   -0.4825   -0.5058 C   0  0  0  0  0  0  0  0  0  0  0  0
   -3.7136   -0.0042    0.6960 C   0  0  0  0  0  0  0  0  0  0  0  0
   -5.0415   -0.3862    0.9873 C   0  0  0  0  0  0  0  0  0  0  0  0
   -5.4924   -0.0121    1.9207 H   0  0  0  0  0  0  0  0  0  0  0  0
   -5.7947   -1.2254    0.1565 C   0  0  0  0  0  0  0  0  0  0  0  0
   -5.1818   -1.7067   -1.0164 C   0  0  0  0  0  0  0  0  0  0  0  0
   -5.7411   -2.3820   -1.6837 H   0  0  0  0  0  0  0  0  0  0  0  0
   -3.8716   -1.3540   -1.3638 C   0  0  0  0  0  0  0  0  0  0  0  0
   -2.9798    0.8119    1.7276 C   0  0  0  0  0  0  0  0  0  0  0  0
   -2.1706    1.4327    1.3123 H   0  0  0  0  0  0  0  0  0  0  0  0
   -2.5145    0.1425    2.4815 H   0  0  0  0  0  0  0  0  0  0  0  0
   -3.6810    1.4826    2.2604 H   0  0  0  0  0  0  0  0  0  0  0  0
   -3.2370   -1.9197   -2.6104 C   0  0  0  0  0  0  0  0  0  0  0  0
   -2.9046   -1.1318   -3.3200 H   0  0  0  0  0  0  0  0  0  0  0  0
   -3.9475   -2.5712   -3.1523 H   0  0  0  0  0  0  0  0  0  0  0  0
   -2.3451   -2.5320   -2.3537 H   0  0  0  0  0  0  0  0  0  0  0  0
   -7.2094   -1.6163    0.5011 C   0  0  0  0  0  0  0  0  0  0  0  0
   -7.3080   -2.7175    0.6006 H   0  0  0  0  0  0  0  0  0  0  0  0
   -7.9197   -1.3023   -0.2922 H   0  0  0  0  0  0  0  0  0  0  0  0
   -7.5399   -1.1591    1.4536 H   0  0  0  0  0  0  0  0  0  0  0  0
    2.9500   -0.9813    2.2314 C   0  0  0  0  0  0  0  0  0  0  0  0
    2.3414   -1.7396    2.7693 H   0  0  0  0  0  0  0  0  0  0  0  0
    2.6669    0.4048    2.8239 C   0  0  0  0  0  0  0  0  0  0  0  0
    3.2441    1.1876    2.2906 H   0  0  0  0  0  0  0  0  0  0  0  0
    2.9810    0.4176    3.8880 H   0  0  0  0  0  0  0  0  0  0  0  0
    1.5936    0.6661    2.7835 H   0  0  0  0  0  0  0  0  0  0  0  0
    4.4388   -1.3283    2.3523 C   0  0  0  0  0  0  0  0  0  0  0  0
    4.6749   -2.3542    2.0139 H   0  0  0  0  0  0  0  0  0  0  0  0
    4.7470   -1.2499    3.4158 H   0  0  0  0  0  0  0  0  0  0  0  0
    5.0654   -0.6158    1.7785 H   0  0  0  0  0  0  0  0  0  0  0  0
    2.8471   -2.7288   -0.2742 C   0  0  0  0  0  0  0  0  0  0  0  0
    2.1187   -2.7958   -1.1099 H   0  0  0  0  0  0  0  0  0  0  0  0
    4.2526   -2.7982   -0.8765 C   0  0  0  0  0  0  0  0  0  0  0  0
    4.3806   -2.0561   -1.6874 H   0  0  0  0  0  0  0  0  0  0  0  0
    4.3984   -3.8037   -1.3237 H   0  0  0  0  0  0  0  0  0  0  0  0
    5.0585   -2.6518   -0.1301 H   0  0  0  0  0  0  0  0  0  0  0  0
    2.5262   -3.8535    0.7188 C   0  0  0  0  0  0  0  0  0  0  0  0
    3.2021   -3.8610    1.5978 H   0  0  0  0  0  0  0  0  0  0  0  0
    2.6427   -4.8295    0.2043 H   0  0  0  0  0  0  0  0  0  0  0  0
    1.4740   -3.7892    1.0629 H   0  0  0  0  0  0  0  0  0  0  0  0
   -1.6974    1.2155   -1.6623 C   0  0  0  0  0  0  0  0  0  0  0  0
   -0.8640    1.0727   -2.3812 H   0  0  0  0  0  0  0  0  0  0  0  0
   -2.6363    1.3955   -2.2227 H   0  0  0  0  0  0  0  0  0  0  0  0
  1 51  1  0  0  0  0
  2 18  1  0  0  0  0
  3 31  1  0  0  0  0
  4  3  1  0  0  0  0
  5  6  1  0  0  0  0
  5  2  1  0  0  0  0
  6  1  1  0  0  0  0
  7  8  1  0  0  0  0
  7  6  2  0  0  0  0
  9  7  1  0  0  0  0
 10  9  2  0  0  0  0
 10 12  1  0  0  0  0
 11 10  1  0  0  0  0
 12  5  2  0  0  0  0
 13 12  1  0  0  0  0
 14 17  1  0  0  0  0
 14  9  1  0  0  0  0
 14 15  1  0  0  0  0
 16 14  1  0  0  0  0
 18 25  1  0  0  0  0
 19 20  1  0  0  0  0
 19 18  2  0  0  0  0
 20 22  2  0  0  0  0
 21 20  1  0  0  0  0
 22 27  1  0  0  0  0
 22 23  1  0  0  0  0
 23 24  1  0  0  0  0
 25 23  2  0  0  0  0
 25 26  1  0  0  0  0
 27 30  1  0  0  0  0
 28 27  1  0  0  0  0
 29 27  1  0  0  0  0
 31 32  1  0  0  0  0
 32 33  2  0  0  0  0
 32 39  1  0  0  0  0
 33 34  1  0  0  0  0
 35 47  1  0  0  0  0
 35 33  1  0  0  0  0
 36 35  2  0  0  0  0
 37 36  1  0  0  0  0
 38 36  1  0  0  0  0
 38 31  2  0  0  0  0
 39 42  1  0  0  0  0
 39 41  1  0  0  0  0
 40 39  1  0  0  0  0
 43 46  1  0  0  0  0
 43 38  1  0  0  0  0
 44 43  1  0  0  0  0
 45 43  1  0  0  0  0
 47 48  1  0  0  0  0
 47 50  1  0  0  0  0
 49 47  1  0  0  0  0
 51 57  1  0  0  0  0
 51 52  1  0  0  0  0
 51 53  1  0  0  0  0
 53 55  1  0  0  0  0
 54 53  1  0  0  0  0
 56 53  1  0  0  0  0
 57 59  1  0  0  0  0
 58 57  1  0  0  0  0
 60 57  1  0  0  0  0
 61  1  1  0  0  0  0
 61 67  1  0  0  0  0
 62 61  1  0  0  0  0
 63 61  1  0  0  0  0
 63 66  1  0  0  0  0
 64 63  1  0  0  0  0
 65 63  1  0  0  0  0
 67 70  1  0  0  0  0
 67 68  1  0  0  0  0
 69 67  1  0  0  0  0
 71  3  1  0  0  0  0
 71 19  1  0  0  0  0
 72 71  1  0  0  0  0
 73 71  1  0  0  0  0
M  END
