1,2,3
q = -1.0

 55 59  0  0  1  0  0  0  0  0999 V2000
    0.7171    0.7690    0.7744 P   0  0  0  0  0  0  0  0  0  0  0  0
   -0.2826   -1.5067   -0.5745 N   0  0  0  0  0  2  0  0  0  0  0  0
   -2.0306    0.5003   -0.9390 N   0  0  0  0  0  2  0  0  0  0  0  0
    1.7756   -0.6217    1.2900 C   0  0  0  0  0  0  0  0  0  0  0  0
    2.5749   -0.3781    2.0117 H   0  0  0  0  0  0  0  0  0  0  0  0
    1.7911   -1.8714    0.7629 C   0  0  0  0  0  0  0  0  0  0  0  0
    2.9636   -2.7182    1.1810 C   0  0  0  0  0  0  0  0  0  0  0  0
    3.6410   -2.5456    2.1781 O   0  0  0  0  0  0  0  0  0  0  0  0
    3.2164   -3.6933    0.2693 O   0  0  0  0  0  0  0  0  0  0  0  0
    4.3566   -4.5140    0.5521 C   0  0  0  0  0  0  0  0  0  0  0  0
    5.2755   -3.8977    0.6165 H   0  0  0  0  0  0  0  0  0  0  0  0
    4.4298   -5.2331   -0.2826 H   0  0  0  0  0  0  0  0  0  0  0  0
    4.2278   -5.0463    1.5160 H   0  0  0  0  0  0  0  0  0  0  0  0
    0.7811   -2.4510   -0.2416 C   0  0  1  0  0  0  0  0  0  0  0  0
    1.3845   -2.6434   -1.1609 H   0  0  0  0  0  0  0  0  0  0  0  0
    0.2465   -3.7867    0.2568 C   0  0  0  0  0  0  0  0  0  0  0  0
    0.9500   -4.6298    0.2552 H   0  0  0  0  0  0  0  0  0  0  0  0
   -1.0246   -3.9311    0.7002 C   0  0  0  0  0  0  0  0  0  0  0  0
   -1.3724   -4.9064    1.0776 H   0  0  0  0  0  0  0  0  0  0  0  0
   -1.9727   -2.8360    0.6292 C   0  0  0  0  0  0  0  0  0  0  0  0
   -1.5280   -1.6715   -0.0652 C   0  0  0  0  0  0  0  0  0  0  0  0
   -2.4739   -0.6012   -0.2551 C   0  0  1  0  0  3  0  0  0  0  0  0
   -3.8040   -0.6768    0.2894 C   0  0  0  0  0  0  0  0  0  0  0  0
   -4.6473    0.4491    0.0733 C   0  0  0  0  0  0  0  0  0  0  0  0
   -5.6733    0.4332    0.4725 H   0  0  0  0  0  0  0  0  0  0  0  0
   -4.1767    1.5473   -0.6332 C   0  0  0  0  0  0  0  0  0  0  0  0
   -4.8119    2.4261   -0.8133 H   0  0  0  0  0  0  0  0  0  0  0  0
   -2.8533    1.5442   -1.1257 C   0  0  0  0  0  0  0  0  0  0  0  0
   -2.4453    2.4004   -1.6810 H   0  0  0  0  0  0  0  0  0  0  0  0
   -3.2885   -2.8932    1.1427 C   0  0  0  0  0  0  0  0  0  0  0  0
   -3.5956   -3.8102    1.6712 H   0  0  0  0  0  0  0  0  0  0  0  0
   -4.1935   -1.8428    1.0005 C   0  0  0  0  0  0  0  0  0  0  0  0
   -5.2087   -1.9058    1.4174 H   0  0  0  0  0  0  0  0  0  0  0  0
    1.7477    2.2148    1.2578 C   0  0  0  0  0  0  0  0  0  0  0  0
    1.7984    2.6603    2.5953 C   0  0  0  0  0  0  0  0  0  0  0  0
    1.1804    2.1683    3.3619 H   0  0  0  0  0  0  0  0  0  0  0  0
    2.6282    3.7348    2.9451 C   0  0  0  0  0  0  0  0  0  0  0  0
    2.6624    4.0804    3.9896 H   0  0  0  0  0  0  0  0  0  0  0  0
    3.4117    4.3691    1.9665 C   0  0  0  0  0  0  0  0  0  0  0  0
    4.0598    5.2144    2.2436 H   0  0  0  0  0  0  0  0  0  0  0  0
    3.3656    3.9262    0.6358 C   0  0  0  0  0  0  0  0  0  0  0  0
    3.9758    4.4211   -0.1346 H   0  0  0  0  0  0  0  0  0  0  0  0
    2.5354    2.8524    0.2795 C   0  0  0  0  0  0  0  0  0  0  0  0
    2.4962    2.5058   -0.7634 H   0  0  0  0  0  0  0  0  0  0  0  0
   -0.6884    0.8125    1.9543 C   0  0  0  0  0  0  0  0  0  0  0  0
   -1.0295   -0.3028    2.7424 C   0  0  0  0  0  0  0  0  0  0  0  0
   -0.3954   -1.2013    2.7252 H   0  0  0  0  0  0  0  0  0  0  0  0
   -2.1889   -0.2725    3.5326 C   0  0  0  0  0  0  0  0  0  0  0  0
   -2.4564   -1.1519    4.1367 H   0  0  0  0  0  0  0  0  0  0  0  0
   -3.0073    0.8670    3.5411 C   0  0  0  0  0  0  0  0  0  0  0  0
   -3.9199    0.8846    4.1559 H   0  0  0  0  0  0  0  0  0  0  0  0
   -2.6653    1.9834    2.7599 C   0  0  0  0  0  0  0  0  0  0  0  0
   -3.3071    2.8773    2.7614 H   0  0  0  0  0  0  0  0  0  0  0  0
   -1.5117    1.9583    1.9646 C   0  0  0  0  0  0  0  0  0  0  0  0
   -1.2508    2.8289    1.3428 H   0  0  0  0  0  0  0  0  0  0  0  0
  1 34  1  0  0  0  0
  1  4  1  0  0  0  0
  1 45  1  0  0  0  0
  2 14  1  0  0  0  0
  2 21  1  0  0  0  0
  4  5  1  0  0  0  0
  6  7  1  0  0  0  0
  6  4  2  0  0  0  0
  7  8  2  0  0  0  0
  9 10  1  0  0  0  0
  9  7  1  0  0  0  0
 10 11  1  0  0  0  0
 10 13  1  0  0  0  0
 12 10  1  0  0  0  0
 14 15  1  6  0  0  0
 14 16  1  0  0  0  0
 14  6  1  0  0  0  0
 16 18  2  0  0  0  0
 17 16  1  0  0  0  0
 18 19  1  0  0  0  0
 20 18  1  0  0  0  0
 20 30  1  0  0  0  0
 21 20  2  0  0  0  0
 22  3  1  1  0  0  0
 22 21  1  0  0  0  0
 22 23  1  0  0  0  0
 23 32  1  0  0  0  0
 24 23  2  0  0  0  0
 24 25  1  0  0  0  0
 26 24  1  0  0  0  0
 27 26  1  0  0  0  0
 28  3  1  0  0  0  0
 28 26  2  0  0  0  0
 29 28  1  0  0  0  0
 30 31  1  0  0  0  0
 32 30  2  0  0  0  0
 32 33  1  0  0  0  0
 34 35  1  0  0  0  0
 35 37  2  0  0  0  0
 35 36  1  0  0  0  0
 37 38  1  0  0  0  0
 39 40  1  0  0  0  0
 39 37  1  0  0  0  0
 41 39  2  0  0  0  0
 42 41  1  0  0  0  0
 43 41  1  0  0  0  0
 43 34  2  0  0  0  0
 44 43  1  0  0  0  0
 45 54  2  0  0  0  0
 45 46  1  0  0  0  0
 46 48  2  0  0  0  0
 47 46  1  0  0  0  0
 48 50  1  0  0  0  0
 48 49  1  0  0  0  0
 50 51  1  0  0  0  0
 52 53  1  0  0  0  0
 52 50  2  0  0  0  0
 54 52  1  0  0  0  0
 55 54  1  0  0  0  0
M  END
