1,2,3
q = -1.0

 43 45  0  0  0  0  0  0  0  0999 V2000
    1.0230   -1.2257    1.5988 N   0  0  0  0  0  0  0  0  0  0  0  0
    1.3118    1.7005    0.2890 N   0  0  0  0  0  2  0  0  0  0  0  0
   -1.0827    0.1442    0.0960 P   0  0  1  0  0  0  0  0  0  0  0  0
    1.7058   -1.9921    1.4888 H   0  0  0  0  0  0  0  0  0  0  0  0
   -2.5283    0.2382   -1.0124 C   0  0  0  0  0  0  0  0  0  0  0  0
   -2.8701   -0.9131   -1.7575 C   0  0  0  0  0  0  0  0  0  0  0  0
   -2.2888   -1.8395   -1.6311 H   0  0  0  0  0  0  0  0  0  0  0  0
   -3.9324   -0.8621   -2.6696 C   0  0  0  0  0  0  0  0  0  0  0  0
   -4.1955   -1.7613   -3.2470 H   0  0  0  0  0  0  0  0  0  0  0  0
   -4.6485    0.3322   -2.8571 C   0  0  0  0  0  0  0  0  0  0  0  0
   -5.4794    0.3688   -3.5778 H   0  0  0  0  0  0  0  0  0  0  0  0
   -4.2953    1.4811   -2.1331 C   0  0  0  0  0  0  0  0  0  0  0  0
   -4.8461    2.4216   -2.2850 H   0  0  0  0  0  0  0  0  0  0  0  0
   -3.2360    1.4401   -1.2131 C   0  0  0  0  0  0  0  0  0  0  0  0
   -2.9550    2.3437   -0.6525 H   0  0  0  0  0  0  0  0  0  0  0  0
   -0.9828    1.6611    1.0824 C   0  0  0  0  0  0  0  0  0  0  0  0
   -2.0233    2.1823    1.8688 C   0  0  0  0  0  0  0  0  0  0  0  0
   -2.9854    1.6476    1.9141 H   0  0  0  0  0  0  0  0  0  0  0  0
   -1.8442    3.3744    2.5849 C   0  0  0  0  0  0  0  0  0  0  0  0
   -2.6585    3.7862    3.1980 H   0  0  0  0  0  0  0  0  0  0  0  0
   -0.6042    4.0335    2.4998 C   0  0  0  0  0  0  0  0  0  0  0  0
   -0.4499    4.9749    3.0501 H   0  0  0  0  0  0  0  0  0  0  0  0
    0.4497    3.5173    1.7368 C   0  0  0  0  0  0  0  0  0  0  0  0
    1.4061    4.0557    1.7094 H   0  0  0  0  0  0  0  0  0  0  0  0
    0.2998    2.2988    1.0154 C   0  0  0  0  0  0  0  0  0  0  0  0
    2.5401    2.4624    0.1016 C   0  0  0  0  0  0  0  0  0  0  0  0
    2.3471    3.4470   -0.3804 H   0  0  0  0  0  0  0  0  0  0  0  0
    3.2356    1.9111   -0.5655 H   0  0  0  0  0  0  0  0  0  0  0  0
    3.0877    2.6329    1.0572 H   0  0  0  0  0  0  0  0  0  0  0  0
   -1.4212   -1.2230    1.2637 C   0  0  0  0  0  0  0  0  0  0  0  0
   -0.2807   -1.8120    1.8516 C   0  0  0  0  0  0  0  0  0  0  0  0
   -0.4228   -2.9355    2.6803 C   0  0  0  0  0  0  0  0  0  0  0  0
    0.4713   -3.4006    3.1245 H   0  0  0  0  0  0  0  0  0  0  0  0
   -1.6971   -3.4661    2.9336 C   0  0  0  0  0  0  0  0  0  0  0  0
   -1.8002   -4.3528    3.5767 H   0  0  0  0  0  0  0  0  0  0  0  0
   -2.8341   -2.8696    2.3664 C   0  0  0  0  0  0  0  0  0  0  0  0
   -3.8332   -3.2846    2.5660 H   0  0  0  0  0  0  0  0  0  0  0  0
   -2.6963   -1.7532    1.5281 C   0  0  0  0  0  0  0  0  0  0  0  0
   -3.5804   -1.3041    1.0509 H   0  0  0  0  0  0  0  0  0  0  0  0
    1.4834   -0.3799    2.7305 C   0  0  0  0  0  0  0  0  0  0  0  0
    0.8030    0.4832    2.8456 H   0  0  0  0  0  0  0  0  0  0  0  0
    2.5012   -0.0122    2.5041 H   0  0  0  0  0  0  0  0  0  0  0  0
    1.4981   -0.9511    3.6832 H   0  0  0  0  0  0  0  0  0  0  0  0
  1 31  1  0  0  0  0
  1 40  1  0  0  0  0
  2 25  1  0  0  0  0
  3  5  1  6  0  0  0
  3 16  1  0  0  0  0
  3 30  1  0  0  0  0
  4  1  1  0  0  0  0
  6  7  1  0  0  0  0
  6  5  2  0  0  0  0
  8  6  1  0  0  0  0
  9  8  1  0  0  0  0
 10  8  2  0  0  0  0
 10 12  1  0  0  0  0
 11 10  1  0  0  0  0
 12 14  2  0  0  0  0
 13 12  1  0  0  0  0
 14  5  1  0  0  0  0
 14 15  1  0  0  0  0
 16 17  1  0  0  0  0
 17 18  1  0  0  0  0
 17 19  2  0  0  0  0
 19 20  1  0  0  0  0
 21 19  1  0  0  0  0
 21 22  1  0  0  0  0
 23 21  2  0  0  0  0
 24 23  1  0  0  0  0
 25 16  2  0  0  0  0
 25 23  1  0  0  0  0
 26  2  1  0  0  0  0
 26 29  1  0  0  0  0
 27 26  1  0  0  0  0
 28 26  1  0  0  0  0
 30 38  2  0  0  0  0
 30 31  1  0  0  0  0
 31 32  2  0  0  0  0
 32 34  1  0  0  0  0
 32 33  1  0  0  0  0
 34 35  1  0  0  0  0
 36 37  1  0  0  0  0
 36 34  2  0  0  0  0
 38 36  1  0  0  0  0
 39 38  1  0  0  0  0
 40 41  1  0  0  0  0
 40 43  1  0  0  0  0
 42 40  1  0  0  0  0
M  END
