1,14,20
q = -1.0

 54 57  0  0  0  0  0  0  0  0999 V2000
    1.5378    0.2111   -0.0742 P   0  0  0  0  0  0  0  0  0  0  0  0
    2.3659   -0.8343    1.2071 C   0  0  0  0  0  0  0  0  0  0  0  0
    3.5813   -0.3913    1.7630 C   0  0  0  0  0  0  0  0  0  0  0  0
    3.9744    0.5937    1.4697 H   0  0  0  0  0  0  0  0  0  0  0  0
    4.2984   -1.1744    2.6810 C   0  0  0  0  0  0  0  0  0  0  0  0
    5.2428   -0.7974    3.1013 H   0  0  0  0  0  0  0  0  0  0  0  0
    3.8089   -2.4355    3.0495 C   0  0  0  0  0  0  0  0  0  0  0  0
    4.3641   -3.0646    3.7609 H   0  0  0  0  0  0  0  0  0  0  0  0
    2.6009   -2.8883    2.5104 C   0  0  0  0  0  0  0  0  0  0  0  0
    2.2084   -3.8741    2.8054 H   0  0  0  0  0  0  0  0  0  0  0  0
    1.8438   -2.1037    1.6053 C   0  0  0  0  0  0  0  0  0  0  0  0
    0.5738   -2.6992    1.1765 C   0  0  0  0  0  3  0  0  0  0  0  0
    0.4575   -3.7758    1.4217 H   0  0  0  0  0  0  0  0  0  0  0  0
   -0.4143   -2.0998    0.5899 N   0  0  0  0  0  2  0  0  0  0  0  0
   -1.6012   -2.8610    0.2188 C   0  0  0  0  0  0  0  0  0  0  0  0
   -1.7844   -3.7209    0.8982 H   0  0  0  0  0  0  0  0  0  0  0  0
   -1.4470   -3.2762   -0.8020 H   0  0  0  0  0  0  0  0  0  0  0  0
   -2.8709   -2.0033    0.1687 C   0  0  0  0  0  0  0  0  0  0  0  0
   -3.9644   -2.6137    0.1049 O   0  0  0  0  0  0  0  0  0  0  0  0
   -2.6758   -0.6693    0.1836 N   0  0  0  0  0  2  0  0  0  0  0  0
   -3.7640    0.2474    0.2403 C   0  0  0  0  0  0  0  0  0  0  0  0
   -4.9288    0.1289   -0.5794 C   0  0  0  0  0  0  0  0  0  0  0  0
   -5.1311   -0.9139   -1.4068 O   0  0  0  0  0  0  0  0  0  0  0  0
   -4.7598   -1.7226   -0.9179 H   0  0  0  0  0  0  0  0  0  0  0  0
   -5.8938    1.1617   -0.5385 C   0  0  0  0  0  0  0  0  0  0  0  0
   -6.7735    1.0476   -1.1892 H   0  0  0  0  0  0  0  0  0  0  0  0
   -5.7415    2.2713    0.2980 C   0  0  0  0  0  0  0  0  0  0  0  0
   -6.5103    3.0594    0.3055 H   0  0  0  0  0  0  0  0  0  0  0  0
   -4.6187    2.3665    1.1396 C   0  0  0  0  0  0  0  0  0  0  0  0
   -4.4974    3.2231    1.8191 H   0  0  0  0  0  0  0  0  0  0  0  0
   -3.6480    1.3606    1.1000 C   0  0  0  0  0  0  0  0  0  0  0  0
   -2.7501    1.4195    1.7337 H   0  0  0  0  0  0  0  0  0  0  0  0
    2.3391   -0.3130   -1.6474 C   0  0  0  0  0  0  0  0  0  0  0  0
    1.5947   -0.1697   -2.8373 C   0  0  0  0  0  0  0  0  0  0  0  0
    0.5610    0.2062   -2.7836 H   0  0  0  0  0  0  0  0  0  0  0  0
    2.1660   -0.5207   -4.0693 C   0  0  0  0  0  0  0  0  0  0  0  0
    1.5798   -0.4064   -4.9935 H   0  0  0  0  0  0  0  0  0  0  0  0
    3.4750   -1.0261   -4.1211 C   0  0  0  0  0  0  0  0  0  0  0  0
    3.9189   -1.3081   -5.0879 H   0  0  0  0  0  0  0  0  0  0  0  0
    4.2145   -1.1813   -2.9373 C   0  0  0  0  0  0  0  0  0  0  0  0
    5.2373   -1.5862   -2.9741 H   0  0  0  0  0  0  0  0  0  0  0  0
    3.6510   -0.8263   -1.7023 C   0  0  0  0  0  0  0  0  0  0  0  0
    4.2329   -0.9572   -0.7776 H   0  0  0  0  0  0  0  0  0  0  0  0
    2.1884    1.8963    0.2496 C   0  0  0  0  0  0  0  0  0  0  0  0
    1.6632    2.5905    1.3602 C   0  0  0  0  0  0  0  0  0  0  0  0
    0.8916    2.1116    1.9835 H   0  0  0  0  0  0  0  0  0  0  0  0
    2.1133    3.8836    1.6551 C   0  0  0  0  0  0  0  0  0  0  0  0
    1.7011    4.4209    2.5224 H   0  0  0  0  0  0  0  0  0  0  0  0
    3.0768    4.4983    0.8366 C   0  0  0  0  0  0  0  0  0  0  0  0
    3.4222    5.5181    1.0642 H   0  0  0  0  0  0  0  0  0  0  0  0
    3.5898    3.8154   -0.2763 C   0  0  0  0  0  0  0  0  0  0  0  0
    4.3374    4.2977   -0.9242 H   0  0  0  0  0  0  0  0  0  0  0  0
    3.1496    2.5147   -0.5721 C   0  0  0  0  0  0  0  0  0  0  0  0
    3.5514    1.9817   -1.4466 H   0  0  0  0  0  0  0  0  0  0  0  0
  1 44  1  0  0  0  0
  1  2  1  0  0  0  0
  2 11  2  0  0  0  0
  2  3  1  0  0  0  0
  3  5  2  0  0  0  0
  4  3  1  0  0  0  0
  5  7  1  0  0  0  0
  5  6  1  0  0  0  0
  7  8  1  0  0  0  0
  9 10  1  0  0  0  0
  9  7  2  0  0  0  0
 11  9  1  0  0  0  0
 12 13  1  0  0  0  0
 12 11  1  0  0  0  0
 14 12  1  0  0  0  0
 15 14  1  0  0  0  0
 15 16  1  0  0  0  0
 17 15  1  0  0  0  0
 18 20  1  0  0  0  0
 18 15  1  0  0  0  0
 19 18  2  0  0  0  0
 20 21  1  0  0  0  0
 21 31  1  0  0  0  0
 22 25  1  0  0  0  0
 22 21  2  0  0  0  0
 23 24  1  0  0  0  0
 23 22  1  0  0  0  0
 25 27  2  0  0  0  0
 26 25  1  0  0  0  0
 27 28  1  0  0  0  0
 27 29  1  0  0  0  0
 29 30  1  0  0  0  0
 31 29  2  0  0  0  0
 31 32  1  0  0  0  0
 33  1  1  0  0  0  0
 34 35  1  0  0  0  0
 34 33  2  0  0  0  0
 36 34  1  0  0  0  0
 37 36  1  0  0  0  0
 38 36  2  0  0  0  0
 38 40  1  0  0  0  0
 39 38  1  0  0  0  0
 40 42  2  0  0  0  0
 41 40  1  0  0  0  0
 42 33  1  0  0  0  0
 42 43  1  0  0  0  0
 44 45  1  0  0  0  0
 45 47  2  0  0  0  0
 45 46  1  0  0  0  0
 47 48  1  0  0  0  0
 49 50  1  0  0  0  0
 49 47  1  0  0  0  0
 51 49  2  0  0  0  0
 52 51  1  0  0  0  0
 53 51  1  0  0  0  0
 53 44  2  0  0  0  0
 54 53  1  0  0  0  0
M  END
