1,4,5
q = -1.0, confidence = 0.026

 52 55  0  0  1  0  0  0  0  0999 V2000
    1.6283   -0.1774    0.1307 P   0  0  0  0  0  0  0  0  0  0  0  0
    1.5495    0.2005    1.7394 O   0  0  0  0  0  0  0  0  0  0  0  0
   -1.6434    3.7734    0.1148 O   0  0  0  0  0  0  0  0  0  0  0  0
   -0.9487    0.6247    0.5685 N   0  0  0  0  0  2  0  0  0  0  0  0
   -2.3719   -1.2577   -0.7789 N   0  0  0  0  0  2  0  0  0  0  0  0
    3.1380   -0.9810    0.0067 N   0  0  0  0  0  0  0  0  0  0  0  0
    2.1035    1.3771   -0.4798 N   0  0  0  0  0  0  0  0  0  0  0  0
    0.3983    0.1692    2.5183 C   0  0  0  0  0  0  0  0  0  0  0  0
    0.5685   -0.0577    3.8853 C   0  0  0  0  0  0  0  0  0  0  0  0
    1.5871   -0.2318    4.2604 H   0  0  0  0  0  0  0  0  0  0  0  0
   -0.5426   -0.0309    4.7426 C   0  0  0  0  0  0  0  0  0  0  0  0
   -0.4079   -0.1926    5.8217 H   0  0  0  0  0  0  0  0  0  0  0  0
   -1.8184    0.2028    4.2053 C   0  0  0  0  0  0  0  0  0  0  0  0
   -2.6987    0.2243    4.8655 H   0  0  0  0  0  0  0  0  0  0  0  0
   -1.9909    0.3963    2.8290 C   0  0  0  0  0  0  0  0  0  0  0  0
   -3.0028    0.5554    2.4319 H   0  0  0  0  0  0  0  0  0  0  0  0
   -0.8871    0.3934    1.9343 C   0  0  0  0  0  0  0  0  0  0  0  0
   -2.2251    1.0319   -0.0199 C   0  0  1  0  0  0  0  0  0  0  0  0
   -2.7563    1.7101    0.6828 H   0  0  0  0  0  0  0  0  0  0  0  0
   -1.9617    1.8499   -1.2955 C   0  0  0  0  0  0  0  0  0  0  0  0
   -1.2080    1.3341   -1.9302 H   0  0  0  0  0  0  0  0  0  0  0  0
   -2.8836    1.9208   -1.9159 H   0  0  0  0  0  0  0  0  0  0  0  0
   -1.5176    3.2829   -0.9959 C   0  0  0  0  0  0  0  0  0  0  0  0
   -0.9483    4.0447   -2.1717 C   0  0  0  0  0  0  0  0  0  0  0  0
   -0.8399    5.1139   -1.9151 H   0  0  0  0  0  0  0  0  0  0  0  0
   -1.5811    3.9227   -3.0747 H   0  0  0  0  0  0  0  0  0  0  0  0
    0.0525    3.6268   -2.4116 H   0  0  0  0  0  0  0  0  0  0  0  0
   -3.0780   -0.1747   -0.3551 C   0  0  1  0  0  3  0  0  0  0  0  0
   -4.4787   -0.2186   -0.3020 C   0  0  0  0  0  0  0  0  0  0  0  0
   -5.0366    0.6616    0.0494 H   0  0  0  0  0  0  0  0  0  0  0  0
   -5.1413   -1.3903   -0.6955 C   0  0  0  0  0  0  0  0  0  0  0  0
   -4.3910   -2.4886   -1.1419 C   0  0  0  0  0  0  0  0  0  0  0  0
   -4.8753   -3.4214   -1.4631 H   0  0  0  0  0  0  0  0  0  0  0  0
   -2.9955   -2.3852   -1.1682 C   0  0  0  0  0  0  0  0  0  0  0  0
   -2.3260   -3.1925   -1.5102 H   0  0  0  0  0  0  0  0  0  0  0  0
    3.2878   -2.3361   -0.3273 C   0  0  0  0  0  0  0  0  0  0  0  0
    2.4263   -2.9025   -0.7050 H   0  0  0  0  0  0  0  0  0  0  0  0
    4.6164   -2.6616   -0.1489 C   0  0  0  0  0  0  0  0  0  0  0  0
    5.0601   -3.6435   -0.3490 H   0  0  0  0  0  0  0  0  0  0  0  0
    5.3016   -1.4872    0.3188 C   0  0  0  0  0  0  0  0  0  0  0  0
    6.3682   -1.4006    0.5576 H   0  0  0  0  0  0  0  0  0  0  0  0
    4.3783   -0.4663    0.4108 C   0  0  0  0  0  0  0  0  0  0  0  0
    4.4720    0.5771    0.7276 H   0  0  0  0  0  0  0  0  0  0  0  0
    1.7383    2.6126    0.0515 C   0  0  0  0  0  0  0  0  0  0  0  0
    1.1765    2.6769    0.9874 H   0  0  0  0  0  0  0  0  0  0  0  0
    2.1984    3.5927   -0.8106 C   0  0  0  0  0  0  0  0  0  0  0  0
    2.0874    4.6720   -0.6559 H   0  0  0  0  0  0  0  0  0  0  0  0
    2.8398    2.9386   -1.9158 C   0  0  0  0  0  0  0  0  0  0  0  0
    3.3263    3.4171   -2.7736 H   0  0  0  0  0  0  0  0  0  0  0  0
    2.7620    1.5743   -1.6959 C   0  0  0  0  0  0  0  0  0  0  0  0
    3.1357    0.7225   -2.2739 H   0  0  0  0  0  0  0  0  0  0  0  0
   -6.2396   -1.4468   -0.6515 H   0  0  0  0  0  0  0  0  0  0  0  0
  1  2  1  0  0  0  0
  2  8  1  0  0  0  0
  4 17  1  0  0  0  0
  5 28  1  0  0  0  0
  6  1  1  0  0  0  0
  6 42  1  0  0  0  0
  7 44  1  0  0  0  0
  7  1  1  0  0  0  0
  8  9  1  0  0  0  0
  9 10  1  0  0  0  0
  9 11  2  0  0  0  0
 11 12  1  0  0  0  0
 13 11  1  0  0  0  0
 13 14  1  0  0  0  0
 15 13  2  0  0  0  0
 16 15  1  0  0  0  0
 17  8  2  0  0  0  0
 17 15  1  0  0  0  0
 18  4  1  0  0  0  0
 18 19  1  1  0  0  0
 20 23  1  0  0  0  0
 20 18  1  0  0  0  0
 21 20  1  0  0  0  0
 22 20  1  0  0  0  0
 23  3  2  0  0  0  0
 24 25  1  0  0  0  0
 24 23  1  0  0  0  0
 26 24  1  0  0  0  0
 27 24  1  0  0  0  0
 28 29  1  0  0  0  0
 28 18  1  6  0  0  0
 29 30  1  0  0  0  0
 31 52  1  0  0  0  0
 31 29  2  0  0  0  0
 32 31  1  0  0  0  0
 33 32  1  0  0  0  0
 34 32  2  0  0  0  0
 34  5  1  0  0  0  0
 35 34  1  0  0  0  0
 36 38  2  0  0  0  0
 36  6  1  0  0  0  0
 37 36  1  0  0  0  0
 38 40  1  0  0  0  0
 39 38  1  0  0  0  0
 40 42  2  0  0  0  0
 40 41  1  0  0  0  0
 42 43  1  0  0  0  0
 44 45  1  0  0  0  0
 46 47  1  0  0  0  0
 46 44  2  0  0  0  0
 48 50  2  0  0  0  0
 48 46  1  0  0  0  0
 49 48  1  0  0  0  0
 50  7  1  0  0  0  0
 51 50  1  0  0  0  0
M  END
