1,4,5
q = -2.0, confidence = 0.842

 60 62  0  0  0  0  0  0  0  0999 V2000
    1.4096   -1.4003    0.4296 P   0  0  0  0  0  0  0  0  0  0  0  0
    1.0858    1.2855    1.8242 Si  0  0  0  0  0  0  0  0  0  0  0  0
   -1.0318   -3.1529    0.3833 Si  0  0  0  0  0  0  0  0  0  0  0  0
    0.2361    1.5973    0.2825 N   0  0  0  0  0  2  0  0  0  0  0  0
   -1.4290   -1.4416    0.0528 N   0  0  0  0  0  2  0  0  0  0  0  0
    1.1309   -0.6109    2.0639 C   0  0  0  0  0  0  0  0  0  0  0  0
    0.8641   -3.1580    0.5986 C   0  0  0  0  0  0  0  0  0  0  0  0
    0.2084    2.0248    3.3287 C   0  0  0  0  0  0  0  0  0  0  0  0
    2.8296    2.0036    1.7304 C   0  0  0  0  0  0  0  0  0  0  0  0
   -1.8944   -3.6836    1.9724 C   0  0  0  0  0  0  0  0  0  0  0  0
   -1.5062   -4.2806   -1.0528 C   0  0  0  0  0  0  0  0  0  0  0  0
    3.2303   -1.5005    0.2084 C   0  0  0  0  0  0  0  0  0  0  0  0
    4.1682   -1.1664    1.2060 C   0  0  0  0  0  0  0  0  0  0  0  0
    5.5450   -1.2656    0.9503 C   0  0  0  0  0  0  0  0  0  0  0  0
    6.0025   -1.7046   -0.3013 C   0  0  0  0  0  0  0  0  0  0  0  0
    5.0758   -2.0408   -1.3021 C   0  0  0  0  0  0  0  0  0  0  0  0
    3.7015   -1.9321   -1.0522 C   0  0  0  0  0  0  0  0  0  0  0  0
    0.2383    2.9927   -0.0092 C   0  0  0  0  0  0  0  0  0  0  0  0
   -0.6654    3.8751    0.6308 C   0  0  0  0  0  0  0  0  0  0  0  0
   -0.6651    5.2459    0.3352 C   0  0  0  0  0  0  0  0  0  0  0  0
    0.2367    5.7707   -0.6037 C   0  0  0  0  0  0  0  0  0  0  0  0
    1.1405    4.9068   -1.2436 C   0  0  0  0  0  0  0  0  0  0  0  0
    1.1441    3.5358   -0.9506 C   0  0  0  0  0  0  0  0  0  0  0  0
   -2.7559   -1.0213    0.3911 C   0  0  0  0  0  0  0  0  0  0  0  0
   -2.9586   -0.0892    1.4352 C   0  0  0  0  0  0  0  0  0  0  0  0
   -4.2473    0.3530    1.7628 C   0  0  0  0  0  0  0  0  0  0  0  0
   -5.3626   -0.1402    1.0677 C   0  0  0  0  0  0  0  0  0  0  0  0
   -5.1759   -1.0759    0.0365 C   0  0  0  0  0  0  0  0  0  0  0  0
   -3.8877   -1.5090   -0.3044 C   0  0  0  0  0  0  0  0  0  0  0  0
    0.1151   -0.9293    2.3775 H   0  0  0  0  0  0  0  0  0  0  0  0
    1.8416   -0.9324    2.8537 H   0  0  0  0  0  0  0  0  0  0  0  0
    1.3440   -3.7349   -0.2188 H   0  0  0  0  0  0  0  0  0  0  0  0
    1.1910   -3.5990    1.5633 H   0  0  0  0  0  0  0  0  0  0  0  0
    0.7364    1.7189    4.2563 H   0  0  0  0  0  0  0  0  0  0  0  0
    0.2073    3.1319    3.2869 H   0  0  0  0  0  0  0  0  0  0  0  0
   -0.8432    1.6814    3.4056 H   0  0  0  0  0  0  0  0  0  0  0  0
    3.3907    1.5902    0.8692 H   0  0  0  0  0  0  0  0  0  0  0  0
    2.7717    3.1035    1.6035 H   0  0  0  0  0  0  0  0  0  0  0  0
    3.4039    1.7930    2.6562 H   0  0  0  0  0  0  0  0  0  0  0  0
   -1.6304   -4.7287    2.2343 H   0  0  0  0  0  0  0  0  0  0  0  0
   -1.6016   -3.0286    2.8181 H   0  0  0  0  0  0  0  0  0  0  0  0
   -2.9958   -3.6215    1.8638 H   0  0  0  0  0  0  0  0  0  0  0  0
   -1.1396   -5.3140   -0.8815 H   0  0  0  0  0  0  0  0  0  0  0  0
   -2.6063   -4.3279   -1.1821 H   0  0  0  0  0  0  0  0  0  0  0  0
   -1.0685   -3.9067   -2.0007 H   0  0  0  0  0  0  0  0  0  0  0  0
    3.8294   -0.8224    2.1934 H   0  0  0  0  0  0  0  0  0  0  0  0
    6.2651   -0.9982    1.7387 H   0  0  0  0  0  0  0  0  0  0  0  0
    7.0823   -1.7804   -0.4996 H   0  0  0  0  0  0  0  0  0  0  0  0
    5.4262   -2.3789   -2.2891 H   0  0  0  0  0  0  0  0  0  0  0  0
    2.9806   -2.1753   -1.8486 H   0  0  0  0  0  0  0  0  0  0  0  0
   -1.3829    3.4626    1.3547 H   0  0  0  0  0  0  0  0  0  0  0  0
   -1.3841    5.9094    0.8406 H   0  0  0  0  0  0  0  0  0  0  0  0
    0.2343    6.8461   -0.8367 H   0  0  0  0  0  0  0  0  0  0  0  0
    1.8549    5.3046   -1.9811 H   0  0  0  0  0  0  0  0  0  0  0  0
    1.8541    2.8608   -1.4479 H   0  0  0  0  0  0  0  0  0  0  0  0
   -2.0804    0.2958    1.9734 H   0  0  0  0  0  0  0  0  0  0  0  0
   -4.3803    1.0889    2.5706 H   0  0  0  0  0  0  0  0  0  0  0  0
   -6.3747    0.2058    1.3256 H   0  0  0  0  0  0  0  0  0  0  0  0
   -6.0436   -1.4632   -0.5194 H   0  0  0  0  0  0  0  0  0  0  0  0
   -3.7384   -2.2150   -1.1342 H   0  0  0  0  0  0  0  0  0  0  0  0
  1  7  1  0  0  0  0
  1  6  1  0  0  0  0
  2  6  1  0  0  0  0
  2  8  1  0  0  0  0
  3  7  1  0  0  0  0
  3 10  1  0  0  0  0
  4  2  1  0  0  0  0
  5  3  1  0  0  0  0
  5 24  1  0  0  0  0
  6 30  1  0  0  0  0
  6 31  1  0  0  0  0
  7 33  1  0  0  0  0
  8 36  1  0  0  0  0
  8 34  1  0  0  0  0
  9  2  1  0  0  0  0
  9 39  1  0  0  0  0
 10 40  1  0  0  0  0
 10 41  1  0  0  0  0
 11 43  1  0  0  0  0
 11  3  1  0  0  0  0
 12  1  1  0  0  0  0
 12 13  1  0  0  0  0
 13 46  1  0  0  0  0
 14 13  2  0  0  0  0
 14 47  1  0  0  0  0
 15 14  1  0  0  0  0
 16 17  1  0  0  0  0
 16 15  2  0  0  0  0
 17 12  2  0  0  0  0
 18  4  1  0  0  0  0
 18 19  1  0  0  0  0
 19 51  1  0  0  0  0
 20 19  2  0  0  0  0
 20 52  1  0  0  0  0
 21 20  1  0  0  0  0
 22 23  1  0  0  0  0
 22 21  2  0  0  0  0
 23 18  2  0  0  0  0
 24 25  1  0  0  0  0
 25 26  2  0  0  0  0
 25 56  1  0  0  0  0
 26 57  1  0  0  0  0
 27 58  1  0  0  0  0
 27 26  1  0  0  0  0
 28 27  2  0  0  0  0
 29 28  1  0  0  0  0
 29 24  2  0  0  0  0
 32  7  1  0  0  0  0
 35  8  1  0  0  0  0
 37  9  1  0  0  0  0
 38  9  1  0  0  0  0
 42 10  1  0  0  0  0
 44 11  1  0  0  0  0
 45 11  1  0  0  0  0
 48 15  1  0  0  0  0
 49 16  1  0  0  0  0
 50 17  1  0  0  0  0
 53 21  1  0  0  0  0
 54 22  1  0  0  0  0
 55 23  1  0  0  0  0
 59 28  1  0  0  0  0
 60 29  1  0  0  0  0
M  END
