1,5,10
q = -1.0, confidence = 0.016

 65 68  0  0  0  0  0  0  0  0999 V2000
   -1.1214    0.0371    0.2206 P   0  0  0  0  0  0  0  0  0  0  0  0
    4.8861    0.2100   -0.8418 C   0  0  0  0  0  0  0  0  0  0  0  0
    5.2930    0.6437   -1.7674 H   0  0  0  0  0  0  0  0  0  0  0  0
    2.9320   -0.5374    0.4642 C   0  0  0  0  0  0  0  0  0  0  0  0
    1.5492   -0.6795    0.4649 N   0  0  0  0  0  2  0  0  0  0  0  0
   -0.8572   -2.8467    3.2159 C   0  0  0  0  0  0  0  0  0  0  0  0
   -1.4914   -3.3688    3.9465 H   0  0  0  0  0  0  0  0  0  0  0  0
    3.8223   -0.8419    1.5309 C   0  0  0  0  0  0  0  0  0  0  0  0
    3.4229   -1.1915    2.4901 H   0  0  0  0  0  0  0  0  0  0  0  0
    2.5607    0.4659   -1.7435 N   0  0  0  0  0  0  0  0  0  0  0  0
   -3.8088   -0.9735   -0.0463 C   0  0  0  0  0  0  0  0  0  0  0  0
   -4.1761   -0.0730    0.4890 H   0  0  0  0  0  0  0  0  0  0  0  0
   -3.6191   -1.7524    0.7230 H   0  0  0  0  0  0  0  0  0  0  0  0
   -1.3916   -1.8414    2.3963 C   0  0  0  0  0  0  0  0  0  0  0  0
   -2.4557   -1.5745    2.4832 H   0  0  0  0  0  0  0  0  0  0  0  0
   -2.5024   -0.6724   -0.7970 C   0  0  0  0  0  0  0  0  0  0  0  0
   -2.6782    0.1401   -1.5382 H   0  0  0  0  0  0  0  0  0  0  0  0
   -0.5803   -1.1780    1.4618 C   0  0  0  0  0  0  0  0  0  0  0  0
   -1.7961    1.4932    1.1571 C   0  0  0  0  0  0  0  0  0  0  0  0
   -2.5579    1.0723    1.8549 H   0  0  0  0  0  0  0  0  0  0  0  0
   -4.3932   -2.7229   -1.7866 C   0  0  0  0  0  0  0  0  0  0  0  0
   -5.1715   -3.0680   -2.4992 H   0  0  0  0  0  0  0  0  0  0  0  0
   -4.2331   -3.5588   -1.0685 H   0  0  0  0  0  0  0  0  0  0  0  0
   -2.4648    2.5317    0.2406 C   0  0  0  0  0  0  0  0  0  0  0  0
   -3.3175    2.0773   -0.3051 H   0  0  0  0  0  0  0  0  0  0  0  0
   -1.7341    2.8414   -0.5377 H   0  0  0  0  0  0  0  0  0  0  0  0
    5.2024   -0.6502    1.3934 C   0  0  0  0  0  0  0  0  0  0  0  0
    5.8591   -0.8888    2.2444 H   0  0  0  0  0  0  0  0  0  0  0  0
   -1.1539    3.3386    2.7803 C   0  0  0  0  0  0  0  0  0  0  0  0
   -1.8940    3.0062    3.5430 H   0  0  0  0  0  0  0  0  0  0  0  0
   -0.3086    3.7889    3.3416 H   0  0  0  0  0  0  0  0  0  0  0  0
   -1.9983   -1.9010   -1.5750 C   0  0  0  0  0  0  0  0  0  0  0  0
   -1.0883   -1.6182   -2.1432 H   0  0  0  0  0  0  0  0  0  0  0  0
   -1.7004   -2.6944   -0.8536 H   0  0  0  0  0  0  0  0  0  0  0  0
    3.5052    0.0395   -0.7054 C   0  0  0  0  0  0  0  0  0  0  0  0
    0.8228   -1.4502    1.3629 C   0  0  0  0  0  0  0  0  0  0  0  0
    1.3279   -2.5195    2.1568 C   0  0  0  0  0  0  0  0  0  0  0  0
    2.3692   -2.8439    2.0426 H   0  0  0  0  0  0  0  0  0  0  0  0
    2.5368   -0.4772   -2.8867 C   0  0  0  0  0  0  0  0  0  0  0  0
    3.5121   -0.4764   -3.4236 H   0  0  0  0  0  0  0  0  0  0  0  0
    1.7249   -0.1730   -3.5755 H   0  0  0  0  0  0  0  0  0  0  0  0
    2.3332   -1.4970   -2.5101 H   0  0  0  0  0  0  0  0  0  0  0  0
   -1.8069    4.3763    1.8590 C   0  0  0  0  0  0  0  0  0  0  0  0
   -2.1815    5.2395    2.4480 H   0  0  0  0  0  0  0  0  0  0  0  0
   -1.0375    4.7798    1.1629 H   0  0  0  0  0  0  0  0  0  0  0  0
    2.8192    1.8469   -2.2066 C   0  0  0  0  0  0  0  0  0  0  0  0
    2.8734    2.5168   -1.3286 H   0  0  0  0  0  0  0  0  0  0  0  0
    1.9771    2.1619   -2.8513 H   0  0  0  0  0  0  0  0  0  0  0  0
    3.7731    1.9138   -2.7746 H   0  0  0  0  0  0  0  0  0  0  0  0
   -3.0799   -2.4331   -2.5241 C   0  0  0  0  0  0  0  0  0  0  0  0
   -2.7136   -3.3449   -3.0409 H   0  0  0  0  0  0  0  0  0  0  0  0
   -3.2636   -1.6749   -3.3179 H   0  0  0  0  0  0  0  0  0  0  0  0
   -2.9435    3.7514    1.0409 C   0  0  0  0  0  0  0  0  0  0  0  0
   -3.3857    4.5005    0.3512 H   0  0  0  0  0  0  0  0  0  0  0  0
   -3.7609    3.4405    1.7307 H   0  0  0  0  0  0  0  0  0  0  0  0
   -0.6619    2.1200    1.9899 C   0  0  0  0  0  0  0  0  0  0  0  0
    0.1520    2.4271    1.2955 H   0  0  0  0  0  0  0  0  0  0  0  0
   -0.2214    1.3590    2.6669 H   0  0  0  0  0  0  0  0  0  0  0  0
    5.7529   -0.1468    0.2041 C   0  0  0  0  0  0  0  0  0  0  0  0
    6.8381   -0.0057    0.0990 H   0  0  0  0  0  0  0  0  0  0  0  0
   -4.8826   -1.4898   -1.0169 C   0  0  0  0  0  0  0  0  0  0  0  0
   -5.8151   -1.7204   -0.4601 H   0  0  0  0  0  0  0  0  0  0  0  0
   -5.1377   -0.6819   -1.7387 H   0  0  0  0  0  0  0  0  0  0  0  0
    0.4969   -3.1944    3.0576 C   0  0  0  0  0  0  0  0  0  0  0  0
    0.9212   -4.0191    3.6516 H   0  0  0  0  0  0  0  0  0  0  0  0
  1 19  1  0  0  0  0
  1 18  1  0  0  0  0
  2 35  2  0  0  0  0
  2 59  1  0  0  0  0
  3  2  1  0  0  0  0
  4  5  1  0  0  0  0
  4  8  2  0  0  0  0
  5 36  1  0  0  0  0
  6  7  1  0  0  0  0
  8  9  1  0  0  0  0
 10 35  1  0  0  0  0
 11 12  1  0  0  0  0
 11 13  1  0  0  0  0
 14 15  1  0  0  0  0
 14  6  2  0  0  0  0
 16 11  1  0  0  0  0
 16  1  1  0  0  0  0
 17 16  1  0  0  0  0
 18 14  1  0  0  0  0
 19 20  1  0  0  0  0
 19 56  1  0  0  0  0
 21 23  1  0  0  0  0
 21 61  1  0  0  0  0
 22 21  1  0  0  0  0
 24 53  1  0  0  0  0
 24 19  1  0  0  0  0
 25 24  1  0  0  0  0
 26 24  1  0  0  0  0
 27  8  1  0  0  0  0
 27 28  1  0  0  0  0
 29 31  1  0  0  0  0
 29 30  1  0  0  0  0
 32 34  1  0  0  0  0
 32 16  1  0  0  0  0
 33 32  1  0  0  0  0
 35  4  1  0  0  0  0
 36 18  2  0  0  0  0
 36 37  1  0  0  0  0
 37 64  2  0  0  0  0
 38 37  1  0  0  0  0
 39 42  1  0  0  0  0
 39 10  1  0  0  0  0
 40 39  1  0  0  0  0
 41 39  1  0  0  0  0
 43 44  1  0  0  0  0
 43 29  1  0  0  0  0
 45 43  1  0  0  0  0
 46 10  1  0  0  0  0
 46 47  1  0  0  0  0
 48 46  1  0  0  0  0
 49 46  1  0  0  0  0
 50 21  1  0  0  0  0
 50 32  1  0  0  0  0
 51 50  1  0  0  0  0
 52 50  1  0  0  0  0
 53 55  1  0  0  0  0
 53 43  1  0  0  0  0
 54 53  1  0  0  0  0
 56 58  1  0  0  0  0
 56 29  1  0  0  0  0
 57 56  1  0  0  0  0
 59 27  2  0  0  0  0
 60 59  1  0  0  0  0
 61 62  1  0  0  0  0
 61 11  1  0  0  0  0
 63 61  1  0  0  0  0
 64  6  1  0  0  0  0
 64 65  1  0  0  0  0
M  END
