1,2,3
q = 0.0, confidence = 0.616

 62 63  0  0  0  0  0  0  0  0999 V2000
   -1.3312    0.0004    0.4193 P   0  0  0  0  0  0  0  0  0  0  0  0
    1.2145   -1.5805    0.8632 N   0  0  0  0  0  2  0  0  0  0  0  0
    1.2154    1.5799    0.8631 N   0  0  0  0  0  2  0  0  0  0  0  0
    0.4517    0.0000    2.6827 C   0  0  0  0  0  0  0  0  0  0  0  0
    0.4572    0.0001    3.7952 H   0  0  0  0  0  0  0  0  0  0  0  0
   -1.0366    0.0002    2.2684 C   0  0  0  0  0  0  0  0  0  0  0  0
   -1.5319    0.8920    2.7005 H   0  0  0  0  0  0  0  0  0  0  0  0
   -1.5319   -0.8918    2.7002 H   0  0  0  0  0  0  0  0  0  0  0  0
    1.1868   -1.2997    2.2959 C   0  0  0  0  0  0  0  0  0  0  0  0
    2.2180   -1.2467    2.7255 H   0  0  0  0  0  0  0  0  0  0  0  0
    0.6756   -2.1322    2.8316 H   0  0  0  0  0  0  0  0  0  0  0  0
    1.1871    1.2995    2.2958 C   0  0  0  0  0  0  0  0  0  0  0  0
    0.6758    2.1322    2.8312 H   0  0  0  0  0  0  0  0  0  0  0  0
    2.2181    1.2465    2.7258 H   0  0  0  0  0  0  0  0  0  0  0  0
   -2.4479    1.4341    0.0887 C   0  0  0  0  0  0  0  0  0  0  0  0
   -3.3241    1.9864    1.0436 C   0  0  0  0  0  0  0  0  0  0  0  0
   -3.3915    1.5567    2.0550 H   0  0  0  0  0  0  0  0  0  0  0  0
   -4.1246    3.0911    0.7155 C   0  0  0  0  0  0  0  0  0  0  0  0
   -4.8017    3.5183    1.4710 H   0  0  0  0  0  0  0  0  0  0  0  0
   -4.0651    3.6481   -0.5722 C   0  0  0  0  0  0  0  0  0  0  0  0
   -4.6908    4.5172   -0.8261 H   0  0  0  0  0  0  0  0  0  0  0  0
   -3.2075    3.0912   -1.5340 C   0  0  0  0  0  0  0  0  0  0  0  0
   -3.1578    3.5205   -2.5462 H   0  0  0  0  0  0  0  0  0  0  0  0
   -2.4007    1.9908   -1.2075 C   0  0  0  0  0  0  0  0  0  0  0  0
   -1.7205    1.5574   -1.9587 H   0  0  0  0  0  0  0  0  0  0  0  0
   -2.4487   -1.4327    0.0884 C   0  0  0  0  0  0  0  0  0  0  0  0
   -3.3247   -1.9853    1.0434 C   0  0  0  0  0  0  0  0  0  0  0  0
   -3.3916   -1.5561    2.0551 H   0  0  0  0  0  0  0  0  0  0  0  0
   -4.1256   -3.0896    0.7150 C   0  0  0  0  0  0  0  0  0  0  0  0
   -4.8025   -3.5170    1.4706 H   0  0  0  0  0  0  0  0  0  0  0  0
   -4.0667   -3.6460   -0.5729 C   0  0  0  0  0  0  0  0  0  0  0  0
   -4.6928   -4.5147   -0.8270 H   0  0  0  0  0  0  0  0  0  0  0  0
   -3.2093   -3.0888   -1.5348 C   0  0  0  0  0  0  0  0  0  0  0  0
   -3.1601   -3.5176   -2.5472 H   0  0  0  0  0  0  0  0  0  0  0  0
   -2.4021   -1.9888   -1.2080 C   0  0  0  0  0  0  0  0  0  0  0  0
   -1.7220   -1.5552   -1.9593 H   0  0  0  0  0  0  0  0  0  0  0  0
    1.4363   -2.9953    0.4705 C   0  0  0  0  0  0  0  0  0  0  0  0
    1.4741   -3.0444   -1.0670 C   0  0  0  0  0  0  0  0  0  0  0  0
    0.5123   -2.7081   -1.5060 H   0  0  0  0  0  0  0  0  0  0  0  0
    1.6531   -4.0779   -1.4226 H   0  0  0  0  0  0  0  0  0  0  0  0
    2.2984   -2.4176   -1.4713 H   0  0  0  0  0  0  0  0  0  0  0  0
    2.7891   -3.4889    1.0230 C   0  0  0  0  0  0  0  0  0  0  0  0
    3.6065   -2.8219    0.6828 H   0  0  0  0  0  0  0  0  0  0  0  0
    3.0029   -4.5175    0.6687 H   0  0  0  0  0  0  0  0  0  0  0  0
    2.7942   -3.5118    2.1312 H   0  0  0  0  0  0  0  0  0  0  0  0
    0.2898   -3.9034    0.9610 C   0  0  0  0  0  0  0  0  0  0  0  0
    0.2240   -3.9363    2.0671 H   0  0  0  0  0  0  0  0  0  0  0  0
    0.4546   -4.9440    0.6163 H   0  0  0  0  0  0  0  0  0  0  0  0
   -0.6839   -3.5554    0.5639 H   0  0  0  0  0  0  0  0  0  0  0  0
    1.4385    2.9946    0.4702 C   0  0  0  0  0  0  0  0  0  0  0  0
    0.2926    3.9036    0.9603 C   0  0  0  0  0  0  0  0  0  0  0  0
   -0.6813    3.5562    0.5631 H   0  0  0  0  0  0  0  0  0  0  0  0
    0.4582    4.9440    0.6153 H   0  0  0  0  0  0  0  0  0  0  0  0
    0.2267    3.9368    2.0664 H   0  0  0  0  0  0  0  0  0  0  0  0
    1.4767    3.0434   -1.0673 C   0  0  0  0  0  0  0  0  0  0  0  0
    2.3004    2.4159   -1.4714 H   0  0  0  0  0  0  0  0  0  0  0  0
    1.6566    4.0767   -1.4230 H   0  0  0  0  0  0  0  0  0  0  0  0
    0.5146    2.7080   -1.5065 H   0  0  0  0  0  0  0  0  0  0  0  0
    2.7915    3.4871    1.0229 C   0  0  0  0  0  0  0  0  0  0  0  0
    2.7964    3.5102    2.1311 H   0  0  0  0  0  0  0  0  0  0  0  0
    3.0063    4.5155    0.6685 H   0  0  0  0  0  0  0  0  0  0  0  0
    3.6084    2.8193    0.6830 H   0  0  0  0  0  0  0  0  0  0  0  0
  1  6  1  0  0  0  0
  2  9  1  0  0  0  0
  3 12  1  0  0  0  0
  4  5  1  0  0  0  0
  6  4  1  0  0  0  0
  6  8  1  0  0  0  0
  6  7  1  0  0  0  0
  9  4  1  0  0  0  0
  9 10  1  0  0  0  0
  9 11  1  0  0  0  0
 12  4  1  0  0  0  0
 12 14  1  0  0  0  0
 12 13  1  0  0  0  0
 15  1  1  0  0  0  0
 15 16  1  0  0  0  0
 16 17  1  0  0  0  0
 18 16  2  0  0  0  0
 18 19  1  0  0  0  0
 20 18  1  0  0  0  0
 21 20  1  0  0  0  0
 22 24  1  0  0  0  0
 22 20  2  0  0  0  0
 23 22  1  0  0  0  0
 24 15  2  0  0  0  0
 25 24  1  0  0  0  0
 26  1  1  0  0  0  0
 26 27  1  0  0  0  0
 27 28  1  0  0  0  0
 29 27  2  0  0  0  0
 29 30  1  0  0  0  0
 31 29  1  0  0  0  0
 32 31  1  0  0  0  0
 33 35  1  0  0  0  0
 33 31  2  0  0  0  0
 34 33  1  0  0  0  0
 35 26  2  0  0  0  0
 36 35  1  0  0  0  0
 37  2  1  0  0  0  0
 37 46  1  0  0  0  0
 37 42  1  0  0  0  0
 38 37  1  0  0  0  0
 39 38  1  0  0  0  0
 40 38  1  0  0  0  0
 41 38  1  0  0  0  0
 42 45  1  0  0  0  0
 43 42  1  0  0  0  0
 44 42  1  0  0  0  0
 46 47  1  0  0  0  0
 48 46  1  0  0  0  0
 49 46  1  0  0  0  0
 50  3  1  0  0  0  0
 50 51  1  0  0  0  0
 50 59  1  0  0  0  0
 51 54  1  0  0  0  0
 52 51  1  0  0  0  0
 53 51  1  0  0  0  0
 55 50  1  0  0  0  0
 56 55  1  0  0  0  0
 57 55  1  0  0  0  0
 58 55  1  0  0  0  0
 59 60  1  0  0  0  0
 61 59  1  0  0  0  0
 62 59  1  0  0  0  0
M  END
