1,4,5
q = 0.0, confidence = 1.0

 42 45  0  0  1  0  0  0  0  0999 V2000
   -0.8907   -0.5078    1.7649 P   0  0  1  0  0  0  0  0  0  0  0  0
   -2.5652   -0.3986    2.0616 O   0  0  0  0  0  0  0  0  0  0  0  0
   -0.4750    1.0451    2.3019 O   0  0  0  0  0  0  0  0  0  0  0  0
   -2.4080   -1.5613   -0.6339 N   0  0  0  0  0  2  0  0  0  0  0  0
   -1.1363    1.1135   -0.6487 N   0  0  0  0  0  2  0  0  0  0  0  0
   -3.5487   -0.2701    1.1255 C   0  0  0  0  0  0  0  0  0  0  0  0
   -4.6771    0.4520    1.5178 C   0  0  0  0  0  0  0  0  0  0  0  0
   -4.6346    0.9645    2.4893 H   0  0  0  0  0  0  0  0  0  0  0  0
   -5.8494    0.4727    0.7298 C   0  0  0  0  0  0  0  0  0  0  0  0
   -6.7200    1.0511    1.0730 H   0  0  0  0  0  0  0  0  0  0  0  0
   -5.9164   -0.2729   -0.4376 C   0  0  0  0  0  3  0  0  0  0  0  0
   -6.8434   -0.3252   -1.0278 H   0  0  0  0  0  0  0  0  0  0  0  0
   -4.7838   -1.0150   -0.8746 C   0  0  0  0  0  0  0  0  0  0  0  0
   -4.8400   -1.8818   -2.0042 C   0  0  0  0  0  0  0  0  0  0  0  0
   -5.7786   -1.9526   -2.5754 H   0  0  0  0  0  0  0  0  0  0  0  0
   -3.7354   -2.6447   -2.3378 C   0  0  0  0  0  0  0  0  0  0  0  0
   -3.7575   -3.3653   -3.1672 H   0  0  0  0  0  0  0  0  0  0  0  0
   -2.5221   -2.4401   -1.6406 C   0  0  0  0  0  0  0  0  0  0  0  0
   -1.5948   -2.9535   -1.9286 H   0  0  0  0  0  0  0  0  0  0  0  0
   -3.5412   -0.9480   -0.1430 C   0  0  0  0  0  0  0  0  0  0  0  0
   -0.5026    2.1667    1.5270 C   0  0  0  0  0  0  0  0  0  0  0  0
   -0.1535    3.3336    2.2154 C   0  0  0  0  0  0  0  0  0  0  0  0
    0.1450    3.2159    3.2669 H   0  0  0  0  0  0  0  0  0  0  0  0
   -0.2223    4.6046    1.6141 C   0  0  0  0  0  0  0  0  0  0  0  0
    0.0687    5.4959    2.1891 H   0  0  0  0  0  0  0  0  0  0  0  0
   -0.6995    4.7202    0.3191 C   0  0  0  0  0  0  0  0  0  0  0  0
   -0.8178    5.7028   -0.1604 H   0  0  0  0  0  0  0  0  0  0  0  0
   -1.0689    3.5608   -0.4148 C   0  0  0  0  0  0  0  0  0  0  0  0
   -1.6440    3.6860   -1.7102 C   0  0  0  0  0  0  0  0  0  0  0  0
   -1.7800    4.6909   -2.1373 H   0  0  0  0  0  0  0  0  0  0  0  0
   -2.0411    2.5503   -2.3879 C   0  0  0  0  0  0  0  0  0  0  0  0
   -2.5261    2.5973   -3.3729 H   0  0  0  0  0  0  0  0  0  0  0  0
   -1.7526    1.2870   -1.8329 C   0  0  0  0  0  0  0  0  0  0  0  0
   -1.9331    0.3719   -2.4123 H   0  0  0  0  0  0  0  0  0  0  0  0
   -0.9003    2.2346    0.1425 C   0  0  2  0  0  3  0  0  0  0  0  0
   -0.4449   -1.4080    3.2885 C   0  0  0  0  0  0  0  0  0  0  0  0
    0.6593   -1.5047    3.2571 H   0  0  0  0  0  0  0  0  0  0  0  0
   -0.7023   -0.7359    4.1329 H   0  0  0  0  0  0  0  0  0  0  0  0
   -1.1238   -2.7753    3.3890 C   0  0  0  0  0  0  0  0  0  0  0  0
   -0.7946   -3.2925    4.3122 H   0  0  0  0  0  0  0  0  0  0  0  0
   -0.8536   -3.4046    2.5180 H   0  0  0  0  0  0  0  0  0  0  0  0
   -2.2261   -2.6736    3.4249 H   0  0  0  0  0  0  0  0  0  0  0  0
  1  2  1  1  0  0  0
  1  3  1  0  0  0  0
  1 36  1  0  0  0  0
  4 20  1  0  0  0  0
  6  7  1  0  0  0  0
  6  2  1  0  0  0  0
  7  8  1  0  0  0  0
  9 10  1  0  0  0  0
  9  7  2  0  0  0  0
 11  9  1  0  0  0  0
 12 11  1  0  0  0  0
 13 11  1  0  0  0  0
 13 20  1  0  0  0  0
 14 13  2  0  0  0  0
 15 14  1  0  0  0  0
 16 14  1  0  0  0  0
 16 18  2  0  0  0  0
 17 16  1  0  0  0  0
 18  4  1  0  0  0  0
 19 18  1  0  0  0  0
 20  6  2  0  0  0  0
 21 22  2  0  0  0  0
 21  3  1  0  0  0  0
 22 23  1  0  0  0  0
 24 25  1  0  0  0  0
 24 22  1  0  0  0  0
 26 24  2  0  0  0  0
 27 26  1  0  0  0  0
 28 35  1  0  0  0  0
 28 26  1  0  0  0  0
 29 28  2  0  0  0  0
 30 29  1  0  0  0  0
 31 33  2  0  0  0  0
 31 29  1  0  0  0  0
 32 31  1  0  0  0  0
 33  5  1  0  0  0  0
 34 33  1  0  0  0  0
 35  5  1  1  0  0  0
 35 21  1  0  0  0  0
 36 39  1  0  0  0  0
 36 38  1  0  0  0  0
 37 36  1  0  0  0  0
 39 42  1  0  0  0  0
 39 40  1  0  0  0  0
 41 39  1  0  0  0  0
M  END
