1,2,3
q = -1.0

 44 47  0  0  0  0  0  0  0  0999 V2000
   -1.0571    0.9166    0.0436 P   0  0  0  0  0  0  0  0  0  0  0  0
   -0.6622   -2.6547   -1.3138 N   0  0  0  0  0  0  0  0  0  0  0  0
   -1.4530   -1.6279    1.0468 N   0  0  0  0  0  2  0  0  0  0  0  0
   -0.4537   -3.4069   -2.4147 C   0  0  0  0  0  0  0  0  0  0  0  0
    0.2714   -3.0958   -3.1807 H   0  0  0  0  0  0  0  0  0  0  0  0
   -1.2917   -4.5576   -2.4232 C   0  0  0  0  0  0  0  0  0  0  0  0
   -1.3284   -5.3297   -3.2021 H   0  0  0  0  0  0  0  0  0  0  0  0
   -2.0619   -4.4942   -1.2518 C   0  0  0  0  0  0  0  0  0  0  0  0
   -2.8182   -5.2101   -0.9061 H   0  0  0  0  0  0  0  0  0  0  0  0
   -1.6504   -3.3116   -0.5730 C   0  0  0  0  0  3  0  0  0  0  0  0
   -2.0933   -2.7023    0.6307 C   0  0  0  0  0  3  0  0  0  0  0  0
   -2.9992   -3.0825    1.1478 H   0  0  0  0  0  0  0  0  0  0  0  0
   -1.8181   -0.7631    2.0621 C   0  0  0  0  0  0  0  0  0  0  0  0
   -2.3115   -1.1362    3.3340 C   0  0  0  0  0  0  0  0  0  0  0  0
   -2.4722   -2.2015    3.5585 H   0  0  0  0  0  0  0  0  0  0  0  0
   -2.5544   -0.1551    4.3049 C   0  0  0  0  0  0  0  0  0  0  0  0
   -2.9273   -0.4566    5.2963 H   0  0  0  0  0  0  0  0  0  0  0  0
   -2.3167    1.2050    4.0335 C   0  0  0  0  0  0  0  0  0  0  0  0
   -2.5035    1.9646    4.8072 H   0  0  0  0  0  0  0  0  0  0  0  0
   -1.8412    1.5913    2.7684 C   0  0  0  0  0  0  0  0  0  0  0  0
   -1.6561    2.6540    2.5459 H   0  0  0  0  0  0  0  0  0  0  0  0
   -1.5940    0.6227    1.7850 C   0  0  0  0  0  0  0  0  0  0  0  0
   -2.6690    1.1104   -0.8289 C   0  0  0  0  0  0  0  0  0  0  0  0
   -2.9669    0.1558   -1.8218 C   0  0  0  0  0  0  0  0  0  0  0  0
   -2.2306   -0.6371   -2.0374 H   0  0  0  0  0  0  0  0  0  0  0  0
   -4.1960    0.2051   -2.4988 C   0  0  0  0  0  0  0  0  0  0  0  0
   -4.4252   -0.5490   -3.2670 H   0  0  0  0  0  0  0  0  0  0  0  0
   -5.1281    1.2079   -2.1911 C   0  0  0  0  0  0  0  0  0  0  0  0
   -6.0912    1.2478   -2.7230 H   0  0  0  0  0  0  0  0  0  0  0  0
   -4.8375    2.1577   -1.1956 C   0  0  0  0  0  0  0  0  0  0  0  0
   -5.5735    2.9377   -0.9461 H   0  0  0  0  0  0  0  0  0  0  0  0
   -3.6159    2.1059   -0.5096 C   0  0  0  0  0  0  0  0  0  0  0  0
   -3.3977    2.8373    0.2842 H   0  0  0  0  0  0  0  0  0  0  0  0
   -0.2938    2.5783    0.0847 C   0  0  0  0  0  0  0  0  0  0  0  0
    0.8055    2.7669    0.9576 C   0  0  0  0  0  0  0  0  0  0  0  0
    1.0853    1.9634    1.6571 H   0  0  0  0  0  0  0  0  0  0  0  0
    1.5410    3.9590    0.9299 C   0  0  0  0  0  0  0  0  0  0  0  0
    2.3887    4.0919    1.6199 H   0  0  0  0  0  0  0  0  0  0  0  0
    1.2047    4.9785    0.0216 C   0  0  0  0  0  0  0  0  0  0  0  0
    1.7849    5.9134   -0.0019 H   0  0  0  0  0  0  0  0  0  0  0  0
    0.1248    4.7939   -0.8568 C   0  0  0  0  0  0  0  0  0  0  0  0
   -0.1444    5.5859   -1.5728 H   0  0  0  0  0  0  0  0  0  0  0  0
   -0.6195    3.6043   -0.8287 C   0  0  0  0  0  0  0  0  0  0  0  0
   -1.4615    3.4688   -1.5241 H   0  0  0  0  0  0  0  0  0  0  0  0
  1 34  1  0  0  0  0
  1 22  1  0  0  0  0
  2 10  1  0  0  0  0
  3 13  1  0  0  0  0
  4  2  2  0  0  0  0
  5  4  1  0  0  0  0
  6  4  1  0  0  0  0
  6  8  2  0  0  0  0
  7  6  1  0  0  0  0
  8  9  1  0  0  0  0
  8 10  1  0  0  0  0
 10 11  1  0  0  0  0
 11  3  1  0  0  0  0
 11 12  1  0  0  0  0
 13 14  1  0  0  0  0
 14 15  1  0  0  0  0
 14 16  2  0  0  0  0
 16 17  1  0  0  0  0
 18 16  1  0  0  0  0
 18 19  1  0  0  0  0
 20 18  2  0  0  0  0
 21 20  1  0  0  0  0
 22 13  2  0  0  0  0
 22 20  1  0  0  0  0
 23 32  1  0  0  0  0
 23  1  1  0  0  0  0
 24 23  2  0  0  0  0
 25 24  1  0  0  0  0
 26 28  2  0  0  0  0
 26 24  1  0  0  0  0
 27 26  1  0  0  0  0
 28 30  1  0  0  0  0
 29 28  1  0  0  0  0
 30 31  1  0  0  0  0
 30 32  2  0  0  0  0
 32 33  1  0  0  0  0
 34 35  1  0  0  0  0
 35 36  1  0  0  0  0
 37 35  2  0  0  0  0
 37 38  1  0  0  0  0
 39 37  1  0  0  0  0
 40 39  1  0  0  0  0
 41 43  1  0  0  0  0
 41 39  2  0  0  0  0
 42 41  1  0  0  0  0
 43 34  2  0  0  0  0
 44 43  1  0  0  0  0
M  END
