1,55,56
q = -1.0

 57 62  0  0  0  0  0  0  0  0999 V2000
    1.7797   -0.1560    0.0126 P   0  0  0  0  0  0  0  0  0  0  0  0
   -3.4071   -1.6123   -0.0455 C   0  0  0  0  0  0  0  0  0  0  0  0
   -3.2266   -3.0055   -0.0368 C   0  0  0  0  0  0  0  0  0  0  0  0
   -2.2167   -3.4308   -0.1125 H   0  0  0  0  0  0  0  0  0  0  0  0
   -4.3850   -3.7921    0.0438 C   0  0  0  0  0  0  0  0  0  0  0  0
   -4.2853   -4.8878    0.0500 H   0  0  0  0  0  0  0  0  0  0  0  0
   -5.6771   -3.2225    0.1143 C   0  0  0  0  0  0  0  0  0  0  0  0
   -6.5556   -3.8820    0.1753 H   0  0  0  0  0  0  0  0  0  0  0  0
   -5.8671   -1.8298    0.1086 C   0  0  0  0  0  0  0  0  0  0  0  0
   -6.8621   -1.3682    0.1667 H   0  0  0  0  0  0  0  0  0  0  0  0
   -4.7056   -1.0643    0.0283 C   0  0  0  0  0  0  0  0  0  0  0  0
   -3.2467    0.5698   -0.0600 C   0  0  0  0  0  0  0  0  0  0  0  0
   -2.8229    1.9481   -0.1136 C   0  0  0  0  0  0  0  0  0  0  0  0
   -3.7902    2.9189   -0.4851 C   0  0  0  0  0  3  0  0  0  0  0  0
   -4.8103    2.5728   -0.7022 H   0  0  0  0  0  0  0  0  0  0  0  0
   -3.4678    4.2669   -0.6003 C   0  0  0  0  0  0  0  0  0  0  0  0
   -4.2299    4.9991   -0.9024 H   0  0  0  0  0  0  0  0  0  0  0  0
   -2.1352    4.6644   -0.3608 C   0  0  0  0  0  0  0  0  0  0  0  0
   -1.8399    5.7161   -0.4993 H   0  0  0  0  0  0  0  0  0  0  0  0
   -1.1731    3.7370    0.0260 C   0  0  0  0  0  0  0  0  0  0  0  0
   -0.1376    4.0675    0.1824 H   0  0  0  0  0  0  0  0  0  0  0  0
   -1.4747    2.3519    0.2059 C   0  0  0  0  0  0  0  0  0  0  0  0
    0.5934    1.8849    1.3748 C   0  0  0  0  0  0  0  0  0  0  0  0
    0.5414    2.9152    2.3530 C   0  0  0  0  0  0  0  0  0  0  0  0
   -0.4117    3.4278    2.5438 H   0  0  0  0  0  0  0  0  0  0  0  0
    1.6747    3.2523    3.0990 C   0  0  0  0  0  0  0  0  0  0  0  0
    1.5928    4.0414    3.8627 H   0  0  0  0  0  0  0  0  0  0  0  0
    2.9009    2.5840    2.9150 C   0  0  0  0  0  0  0  0  0  0  0  0
    3.7803    2.8489    3.5194 H   0  0  0  0  0  0  0  0  0  0  0  0
    2.9705    1.5491    1.9735 C   0  0  0  0  0  0  0  0  0  0  0  0
    3.9040    0.9809    1.8360 H   0  0  0  0  0  0  0  0  0  0  0  0
    1.8382    1.2079    1.2139 C   0  0  0  0  0  0  0  0  0  0  0  0
    2.6269    0.3697   -1.5198 C   0  0  0  0  0  0  0  0  0  0  0  0
    3.3314    1.5866   -1.5982 C   0  0  0  0  0  0  0  0  0  0  0  0
    3.3811    2.2495   -0.7211 H   0  0  0  0  0  0  0  0  0  0  0  0
    3.9631    1.9476   -2.7990 C   0  0  0  0  0  0  0  0  0  0  0  0
    4.5139    2.8986   -2.8606 H   0  0  0  0  0  0  0  0  0  0  0  0
    3.8898    1.1015   -3.9163 C   0  0  0  0  0  0  0  0  0  0  0  0
    4.3847    1.3887   -4.8566 H   0  0  0  0  0  0  0  0  0  0  0  0
    3.1769   -0.1077   -3.8384 C   0  0  0  0  0  0  0  0  0  0  0  0
    3.1085   -0.7659   -4.7179 H   0  0  0  0  0  0  0  0  0  0  0  0
    2.5400   -0.4770   -2.6464 C   0  0  0  0  0  0  0  0  0  0  0  0
    1.9562   -1.4099   -2.5783 H   0  0  0  0  0  0  0  0  0  0  0  0
    2.7988   -1.5057    0.7022 C   0  0  0  0  0  0  0  0  0  0  0  0
    4.1618   -1.6324    0.3703 C   0  0  0  0  0  0  0  0  0  0  0  0
    4.6146   -0.9531   -0.3679 H   0  0  0  0  0  0  0  0  0  0  0  0
    4.9361   -2.6355    0.9747 C   0  0  0  0  0  0  0  0  0  0  0  0
    6.0003   -2.7351    0.7125 H   0  0  0  0  0  0  0  0  0  0  0  0
    4.3532   -3.5112    1.9033 C   0  0  0  0  0  0  0  0  0  0  0  0
    4.9612   -4.3003    2.3716 H   0  0  0  0  0  0  0  0  0  0  0  0
    2.9913   -3.3886    2.2278 C   0  0  0  0  0  0  0  0  0  0  0  0
    2.5301   -4.0830    2.9461 H   0  0  0  0  0  0  0  0  0  0  0  0
    2.2114   -2.3919    1.6277 C   0  0  0  0  0  0  0  0  0  0  0  0
    1.1386   -2.3030    1.8566 H   0  0  0  0  0  0  0  0  0  0  0  0
   -2.5154   -0.5383   -0.1123 N   0  0  0  0  0  2  0  0  0  0  0  0
   -0.5171    1.4578    0.6395 N   0  0  0  0  0  2  0  0  0  0  0  0
   -4.5898    0.3060    0.0176 O   0  0  0  0  0  0  0  0  0  0  0  0
  1 44  1  0  0  0  0
  1 32  1  0  0  0  0
  2  3  2  0  0  0  0
  2 11  1  0  0  0  0
  3  5  1  0  0  0  0
  4  3  1  0  0  0  0
  5  6  1  0  0  0  0
  5  7  2  0  0  0  0
  7  8  1  0  0  0  0
  9  7  1  0  0  0  0
  9 10  1  0  0  0  0
 11  9  2  0  0  0  0
 12 57  1  0  0  0  0
 13 12  2  0  0  0  0
 13 22  1  0  0  0  0
 14 13  1  0  0  0  0
 15 14  1  0  0  0  0
 16 14  1  0  0  0  0
 16 18  2  0  0  0  0
 17 16  1  0  0  0  0
 18 20  1  0  0  0  0
 19 18  1  0  0  0  0
 20 21  1  0  0  0  0
 20 22  2  0  0  0  0
 22 56  1  0  0  0  0
 23 24  1  0  0  0  0
 24 25  1  0  0  0  0
 24 26  2  0  0  0  0
 26 27  1  0  0  0  0
 28 26  1  0  0  0  0
 28 29  1  0  0  0  0
 30 28  2  0  0  0  0
 31 30  1  0  0  0  0
 32 23  2  0  0  0  0
 32 30  1  0  0  0  0
 33  1  1  0  0  0  0
 34 33  1  0  0  0  0
 34 35  1  0  0  0  0
 36 34  2  0  0  0  0
 37 36  1  0  0  0  0
 38 40  2  0  0  0  0
 38 36  1  0  0  0  0
 39 38  1  0  0  0  0
 40 42  1  0  0  0  0
 41 40  1  0  0  0  0
 42 43  1  0  0  0  0
 42 33  2  0  0  0  0
 44 53  1  0  0  0  0
 45 44  2  0  0  0  0
 45 47  1  0  0  0  0
 46 45  1  0  0  0  0
 47 49  2  0  0  0  0
 48 47  1  0  0  0  0
 49 51  1  0  0  0  0
 49 50  1  0  0  0  0
 51 52  1  0  0  0  0
 53 54  1  0  0  0  0
 53 51  2  0  0  0  0
 55 12  1  0  0  0  0
 55  2  1  0  0  0  0
 56 23  1  0  0  0  0
 57 11  1  0  0  0  0
M  END
