1,2,4
q = 0.0, confidence = 0.994

 47 49  0  0  0  0  0  0  0  0999 V2000
    0.8521    0.0114    0.0009 P   0  0  0  0  0  0  0  0  0  0  0  0
   -1.3289   -2.2697   -0.3109 N   0  0  0  0  0  0  0  0  0  0  0  0
   -1.2656   -2.3165   -1.3458 H   0  0  0  0  0  0  0  0  0  0  0  0
   -3.5500   -0.5899   -0.0253 N   0  0  0  0  0  0  0  0  0  0  0  0
   -3.7796   -0.4804    0.9780 H   0  0  0  0  0  0  0  0  0  0  0  0
   -4.1308    0.0464   -0.5855 H   0  0  0  0  0  0  0  0  0  0  0  0
    1.6156   -1.4640   -0.8239 C   0  0  0  0  0  0  0  0  0  0  0  0
    1.0728   -2.7528   -0.5765 C   0  0  0  0  0  0  0  0  0  0  0  0
    1.6773   -3.8739   -1.1754 C   0  0  0  0  0  0  0  0  0  0  0  0
    2.8025   -3.7420   -2.0025 C   0  0  0  0  0  0  0  0  0  0  0  0
    3.3344   -2.4690   -2.2460 C   0  0  0  0  0  0  0  0  0  0  0  0
    2.7427   -1.3405   -1.6582 C   0  0  0  0  0  0  0  0  0  0  0  0
   -0.1543   -2.9542    0.2832 C   0  0  0  0  0  0  0  0  0  0  0  0
   -2.6219   -2.8384    0.1208 C   0  0  0  0  0  0  0  0  0  0  0  0
   -3.7431   -1.9889   -0.4607 C   0  0  0  0  0  0  0  0  0  0  0  0
    1.6954   -0.0212    1.6485 C   0  0  0  0  0  0  0  0  0  0  0  0
    2.7345   -0.9285    1.9386 C   0  0  0  0  0  0  0  0  0  0  0  0
    3.3355   -0.9335    3.2077 C   0  0  0  0  0  0  0  0  0  0  0  0
    2.9090   -0.0299    4.1924 C   0  0  0  0  0  0  0  0  0  0  0  0
    1.8769    0.8779    3.9042 C   0  0  0  0  0  0  0  0  0  0  0  0
    1.2623    0.8817    2.6442 C   0  0  0  0  0  0  0  0  0  0  0  0
    1.6539    1.4251   -0.8762 C   0  0  0  0  0  0  0  0  0  0  0  0
    2.5387    2.3080   -0.2301 C   0  0  0  0  0  0  0  0  0  0  0  0
    3.0941    3.3881   -0.9336 C   0  0  0  0  0  0  0  0  0  0  0  0
    2.7770    3.5917   -2.2852 C   0  0  0  0  0  0  0  0  0  0  0  0
    1.8947    2.7111   -2.9337 C   0  0  0  0  0  0  0  0  0  0  0  0
    1.3289    1.6345   -2.2347 C   0  0  0  0  0  0  0  0  0  0  0  0
    1.2525   -4.8726   -0.9853 H   0  0  0  0  0  0  0  0  0  0  0  0
    3.2579   -4.6341   -2.4583 H   0  0  0  0  0  0  0  0  0  0  0  0
    4.2166   -2.3488   -2.8930 H   0  0  0  0  0  0  0  0  0  0  0  0
    3.1682   -0.3439   -1.8439 H   0  0  0  0  0  0  0  0  0  0  0  0
   -0.3559   -4.0452    0.3653 H   0  0  0  0  0  0  0  0  0  0  0  0
   -0.0296   -2.5546    1.3124 H   0  0  0  0  0  0  0  0  0  0  0  0
   -2.6434   -2.8008    1.2299 H   0  0  0  0  0  0  0  0  0  0  0  0
   -2.7250   -3.8995   -0.2016 H   0  0  0  0  0  0  0  0  0  0  0  0
   -3.6854   -1.9975   -1.5688 H   0  0  0  0  0  0  0  0  0  0  0  0
   -4.7332   -2.3948   -0.1587 H   0  0  0  0  0  0  0  0  0  0  0  0
    3.0829   -1.6356    1.1717 H   0  0  0  0  0  0  0  0  0  0  0  0
    4.1449   -1.6479    3.4237 H   0  0  0  0  0  0  0  0  0  0  0  0
    3.3813   -0.0340    5.1869 H   0  0  0  0  0  0  0  0  0  0  0  0
    1.5359    1.5882    4.6729 H   0  0  0  0  0  0  0  0  0  0  0  0
    0.4555    1.5927    2.4095 H   0  0  0  0  0  0  0  0  0  0  0  0
    2.7875    2.1563    0.8298 H   0  0  0  0  0  0  0  0  0  0  0  0
    3.7793    4.0776   -0.4170 H   0  0  0  0  0  0  0  0  0  0  0  0
    3.2157    4.4392   -2.8341 H   0  0  0  0  0  0  0  0  0  0  0  0
    1.6385    2.8652   -3.9934 H   0  0  0  0  0  0  0  0  0  0  0  0
    0.6119    0.9604   -2.7316 H   0  0  0  0  0  0  0  0  0  0  0  0
  1 16  1  0  0  0  0
  2 14  1  0  0  0  0
  2 13  1  0  0  0  0
  3  2  1  0  0  0  0
  4  5  1  0  0  0  0
  6  4  1  0  0  0  0
  7  8  1  0  0  0  0
  7  1  1  0  0  0  0
  8 13  1  0  0  0  0
  9 28  1  0  0  0  0
  9  8  2  0  0  0  0
 10  9  1  0  0  0  0
 11 10  2  0  0  0  0
 11 12  1  0  0  0  0
 12  7  2  0  0  0  0
 13 32  1  0  0  0  0
 13 33  1  0  0  0  0
 14 34  1  0  0  0  0
 15 37  1  0  0  0  0
 15  4  1  0  0  0  0
 15 14  1  0  0  0  0
 16 17  2  0  0  0  0
 16 21  1  0  0  0  0
 17 18  1  0  0  0  0
 18 39  1  0  0  0  0
 18 19  2  0  0  0  0
 19 40  1  0  0  0  0
 20 19  1  0  0  0  0
 20 41  1  0  0  0  0
 21 20  2  0  0  0  0
 22 23  1  0  0  0  0
 22  1  1  0  0  0  0
 23 43  1  0  0  0  0
 24 44  1  0  0  0  0
 24 23  2  0  0  0  0
 25 24  1  0  0  0  0
 26 25  2  0  0  0  0
 26 27  1  0  0  0  0
 27 22  2  0  0  0  0
 29 10  1  0  0  0  0
 30 11  1  0  0  0  0
 31 12  1  0  0  0  0
 35 14  1  0  0  0  0
 36 15  1  0  0  0  0
 38 17  1  0  0  0  0
 42 21  1  0  0  0  0
 45 25  1  0  0  0  0
 46 26  1  0  0  0  0
 47 27  1  0  0  0  0
M  END
