1,2,3
q = -1.0

 48 49  0  0  0  0  0  0  0  0999 V2000
   -1.7253    0.2530    0.0027 P   0  0  0  0  0  0  0  0  0  0  0  0
    2.4385   -0.9345   -0.0026 N   0  0  0  0  0  2  0  0  0  0  0  0
    0.9891    1.2525    0.0264 N   0  0  0  0  0  2  0  0  0  0  0  0
    3.1107   -2.1083   -0.0176 C   0  0  0  0  0  0  0  0  0  0  0  0
    2.4913   -3.0165   -0.0197 H   0  0  0  0  0  0  0  0  0  0  0  0
    4.5057   -2.1809   -0.0294 C   0  0  0  0  0  0  0  0  0  0  0  0
    4.9993   -3.1627   -0.0412 H   0  0  0  0  0  0  0  0  0  0  0  0
    5.2422   -0.9852   -0.0263 C   0  0  0  0  0  0  0  0  0  0  0  0
    6.3419   -1.0004   -0.0359 H   0  0  0  0  0  0  0  0  0  0  0  0
    4.5526    0.2305   -0.0106 C   0  0  0  0  0  0  0  0  0  0  0  0
    5.1006    1.1817   -0.0081 H   0  0  0  0  0  0  0  0  0  0  0  0
    3.1456    0.2432    0.0020 C   0  0  0  0  0  0  0  0  0  0  0  0
    2.3322    1.4753    0.0222 C   0  0  0  0  0  0  0  0  0  0  0  0
    2.8707    2.7633    0.0392 C   0  0  0  0  0  0  0  0  0  0  0  0
    3.9544    2.9308    0.0373 H   0  0  0  0  0  0  0  0  0  0  0  0
    1.9626    3.8580    0.0612 C   0  0  0  0  0  0  0  0  0  0  0  0
    2.3538    4.8869    0.0723 H   0  0  0  0  0  0  0  0  0  0  0  0
    0.6000    3.6409    0.0691 C   0  0  0  0  0  0  0  0  0  0  0  0
   -0.1052    4.4841    0.0864 H   0  0  0  0  0  0  0  0  0  0  0  0
    0.0616    2.2980    0.0555 C   0  0  0  0  0  0  0  0  0  0  0  0
   -1.2970    1.9859    0.0697 C   0  0  0  0  0  3  0  0  0  0  0  0
   -2.0487    2.7871    0.0748 H   0  0  0  0  0  0  0  0  0  0  0  0
   -2.7933   -0.0937    1.5506 C   0  0  0  0  0  0  0  0  0  0  0  0
   -1.7875   -0.0670    2.7183 C   0  0  0  0  0  0  0  0  0  0  0  0
   -1.2473    0.9006    2.7558 H   0  0  0  0  0  0  0  0  0  0  0  0
   -1.0327   -0.8727    2.6213 H   0  0  0  0  0  0  0  0  0  0  0  0
   -2.3324   -0.1992    3.6778 H   0  0  0  0  0  0  0  0  0  0  0  0
   -3.8407    1.0093    1.7771 C   0  0  0  0  0  0  0  0  0  0  0  0
   -4.3668    0.8179    2.7370 H   0  0  0  0  0  0  0  0  0  0  0  0
   -4.6070    1.0439    0.9804 H   0  0  0  0  0  0  0  0  0  0  0  0
   -3.3642    2.0064    1.8498 H   0  0  0  0  0  0  0  0  0  0  0  0
   -3.4696   -1.4701    1.4812 C   0  0  0  0  0  0  0  0  0  0  0  0
   -3.9220   -1.7047    2.4686 H   0  0  0  0  0  0  0  0  0  0  0  0
   -2.7507   -2.2788    1.2434 H   0  0  0  0  0  0  0  0  0  0  0  0
   -4.2867   -1.4969    0.7338 H   0  0  0  0  0  0  0  0  0  0  0  0
   -2.6845   -0.0190   -1.6323 C   0  0  0  0  0  0  0  0  0  0  0  0
   -2.9098   -1.5137   -1.9102 C   0  0  0  0  0  0  0  0  0  0  0  0
   -3.4079   -1.6278   -2.8971 H   0  0  0  0  0  0  0  0  0  0  0  0
   -3.5539   -2.0016   -1.1557 H   0  0  0  0  0  0  0  0  0  0  0  0
   -1.9504   -2.0642   -1.9507 H   0  0  0  0  0  0  0  0  0  0  0  0
   -1.7533    0.5498   -2.7202 C   0  0  0  0  0  0  0  0  0  0  0  0
   -2.2035    0.3705   -3.7199 H   0  0  0  0  0  0  0  0  0  0  0  0
   -0.7604    0.0540   -2.6879 H   0  0  0  0  0  0  0  0  0  0  0  0
   -1.5942    1.6380   -2.5918 H   0  0  0  0  0  0  0  0  0  0  0  0
   -4.0205    0.7380   -1.6468 C   0  0  0  0  0  0  0  0  0  0  0  0
   -3.8946    1.8066   -1.3797 H   0  0  0  0  0  0  0  0  0  0  0  0
   -4.7637    0.2885   -0.9594 H   0  0  0  0  0  0  0  0  0  0  0  0
   -4.4539    0.6996   -2.6695 H   0  0  0  0  0  0  0  0  0  0  0  0
  1 21  1  0  0  0  0
  1 23  1  0  0  0  0
  2 12  1  0  0  0  0
  3 20  1  0  0  0  0
  4  2  1  0  0  0  0
  5  4  1  0  0  0  0
  6  8  1  0  0  0  0
  6  4  2  0  0  0  0
  7  6  1  0  0  0  0
  8 10  2  0  0  0  0
  9  8  1  0  0  0  0
 10 11  1  0  0  0  0
 10 12  1  0  0  0  0
 12 13  2  0  0  0  0
 13  3  1  0  0  0  0
 13 14  1  0  0  0  0
 14 16  2  0  0  0  0
 15 14  1  0  0  0  0
 16 18  1  0  0  0  0
 16 17  1  0  0  0  0
 18 19  1  0  0  0  0
 20 18  2  0  0  0  0
 20 21  1  0  0  0  0
 21 22  1  0  0  0  0
 23 28  1  0  0  0  0
 23 24  1  0  0  0  0
 24 25  1  0  0  0  0
 24 27  1  0  0  0  0
 26 24  1  0  0  0  0
 28 31  1  0  0  0  0
 28 29  1  0  0  0  0
 30 28  1  0  0  0  0
 32 23  1  0  0  0  0
 32 33  1  0  0  0  0
 34 32  1  0  0  0  0
 35 32  1  0  0  0  0
 36  1  1  0  0  0  0
 37 36  1  0  0  0  0
 37 39  1  0  0  0  0
 38 37  1  0  0  0  0
 40 37  1  0  0  0  0
 41 43  1  0  0  0  0
 41 44  1  0  0  0  0
 41 36  1  0  0  0  0
 42 41  1  0  0  0  0
 45 36  1  0  0  0  0
 45 46  1  0  0  0  0
 45 47  1  0  0  0  0
 48 45  1  0  0  0  0
M  END
