1,2,3
q = 0.0, confidence = 0.994

 65 66  0  0  1  0  0  0  0  0999 V2000
   -2.2588   -0.6040    0.1036 P   0  0  0  0  0  0  0  0  0  0  0  0
   -0.7885    1.7762   -0.2607 N   0  0  0  0  0  2  0  0  0  0  0  0
    1.5736    0.8688   -0.1834 N   0  0  0  0  0  2  0  0  0  0  0  0
   -3.0641    0.9764   -0.4941 C   0  0  0  0  0  0  0  0  0  0  0  0
   -3.2525    0.8292   -1.5806 H   0  0  0  0  0  0  0  0  0  0  0  0
   -4.0457    1.1809   -0.0229 H   0  0  0  0  0  0  0  0  0  0  0  0
   -2.1005    2.1160   -0.3161 C   0  0  2  0  0  3  0  0  0  0  0  0
   -2.4873    3.4635   -0.2269 C   0  0  0  0  0  0  0  0  0  0  0  0
   -3.5546    3.7231   -0.2636 H   0  0  0  0  0  0  0  0  0  0  0  0
   -1.5083    4.4599   -0.0971 C   0  0  0  0  0  0  0  0  0  0  0  0
   -1.8000    5.5179   -0.0293 H   0  0  0  0  0  0  0  0  0  0  0  0
   -0.1575    4.0945   -0.0542 C   0  0  0  0  0  0  0  0  0  0  0  0
    0.6314    4.8517    0.0476 H   0  0  0  0  0  0  0  0  0  0  0  0
    0.1787    2.7329   -0.1376 C   0  0  0  0  0  0  0  0  0  0  0  0
    1.5319    2.1785   -0.0732 C   0  0  1  0  0  3  0  0  0  0  0  0
    2.7275    3.0581    0.1095 C   0  0  0  0  0  0  0  0  0  0  0  0
    2.6825    3.5926    1.0813 H   0  0  0  0  0  0  0  0  0  0  0  0
    2.7610    3.8317   -0.6849 H   0  0  0  0  0  0  0  0  0  0  0  0
    3.6624    2.4711    0.0731 H   0  0  0  0  0  0  0  0  0  0  0  0
   -2.6402   -0.6524    1.9830 C   0  0  0  0  0  0  0  0  0  0  0  0
   -2.2765    0.7264    2.5693 C   0  0  0  0  0  0  0  0  0  0  0  0
   -2.9432    1.5342    2.2094 H   0  0  0  0  0  0  0  0  0  0  0  0
   -1.2267    1.0049    2.3538 H   0  0  0  0  0  0  0  0  0  0  0  0
   -2.3902    0.6785    3.6718 H   0  0  0  0  0  0  0  0  0  0  0  0
   -4.1247   -0.9274    2.2762 C   0  0  0  0  0  0  0  0  0  0  0  0
   -4.2906   -0.8284    3.3689 H   0  0  0  0  0  0  0  0  0  0  0  0
   -4.4358   -1.9498    1.9936 H   0  0  0  0  0  0  0  0  0  0  0  0
   -4.7997   -0.2014    1.7805 H   0  0  0  0  0  0  0  0  0  0  0  0
   -1.7582   -1.7205    2.6560 C   0  0  0  0  0  0  0  0  0  0  0  0
   -1.9454   -1.7001    3.7493 H   0  0  0  0  0  0  0  0  0  0  0  0
   -0.6811   -1.5168    2.4981 H   0  0  0  0  0  0  0  0  0  0  0  0
   -1.9722   -2.7446    2.3012 H   0  0  0  0  0  0  0  0  0  0  0  0
   -3.1830   -1.9950   -0.8303 C   0  0  0  0  0  0  0  0  0  0  0  0
   -2.9205   -3.3430   -0.1336 C   0  0  0  0  0  0  0  0  0  0  0  0
   -3.4151   -3.4186    0.8525 H   0  0  0  0  0  0  0  0  0  0  0  0
   -1.8387   -3.5441   -0.0043 H   0  0  0  0  0  0  0  0  0  0  0  0
   -3.3319   -4.1548   -0.7681 H   0  0  0  0  0  0  0  0  0  0  0  0
   -4.6954   -1.7160   -0.9292 C   0  0  0  0  0  0  0  0  0  0  0  0
   -5.1692   -2.5576   -1.4759 H   0  0  0  0  0  0  0  0  0  0  0  0
   -4.9159   -0.7974   -1.5074 H   0  0  0  0  0  0  0  0  0  0  0  0
   -5.1950   -1.6408    0.0515 H   0  0  0  0  0  0  0  0  0  0  0  0
   -2.6096   -2.0649   -2.2562 C   0  0  0  0  0  0  0  0  0  0  0  0
   -3.1786   -2.8296   -2.8240 H   0  0  0  0  0  0  0  0  0  0  0  0
   -1.5462   -2.3682   -2.2657 H   0  0  0  0  0  0  0  0  0  0  0  0
   -2.7089   -1.1113   -2.8104 H   0  0  0  0  0  0  0  0  0  0  0  0
    2.8007    0.1535    0.0169 C   0  0  0  0  0  0  0  0  0  0  0  0
    3.4988   -0.3775   -1.0943 C   0  0  0  0  0  0  0  0  0  0  0  0
    4.6655   -1.1183   -0.8412 C   0  0  0  0  0  0  0  0  0  0  0  0
    5.2279   -1.5161   -1.7011 H   0  0  0  0  0  0  0  0  0  0  0  0
    5.1361   -1.3656    0.4618 C   0  0  0  0  0  0  0  0  0  0  0  0
    4.4091   -0.8238    1.5368 C   0  0  0  0  0  0  0  0  0  0  0  0
    4.7590   -0.9985    2.5666 H   0  0  0  0  0  0  0  0  0  0  0  0
    3.2472   -0.0557    1.3473 C   0  0  0  0  0  0  0  0  0  0  0  0
    3.0241   -0.1701   -2.5083 C   0  0  0  0  0  0  0  0  0  0  0  0
    3.8670   -0.2451   -3.2210 H   0  0  0  0  0  0  0  0  0  0  0  0
    2.5359    0.8121   -2.6567 H   0  0  0  0  0  0  0  0  0  0  0  0
    2.2863   -0.9470   -2.7995 H   0  0  0  0  0  0  0  0  0  0  0  0
    6.3668   -2.2023    0.6931 C   0  0  0  0  0  0  0  0  0  0  0  0
    6.1271   -3.2841    0.6117 H   0  0  0  0  0  0  0  0  0  0  0  0
    6.7951   -2.0340    1.6996 H   0  0  0  0  0  0  0  0  0  0  0  0
    7.1513   -1.9892   -0.0596 H   0  0  0  0  0  0  0  0  0  0  0  0
    2.5027    0.5134    2.5268 C   0  0  0  0  0  0  0  0  0  0  0  0
    1.4082    0.3551    2.4269 H   0  0  0  0  0  0  0  0  0  0  0  0
    2.6618    1.6078    2.6318 H   0  0  0  0  0  0  0  0  0  0  0  0
    2.8387    0.0443    3.4700 H   0  0  0  0  0  0  0  0  0  0  0  0
  1 20  1  0  0  0  0
  2 14  1  0  0  0  0
  3 46  1  0  0  0  0
  4  6  1  0  0  0  0
  4  1  1  0  0  0  0
  5  4  1  0  0  0  0
  7  4  1  6  0  0  0
  7  2  1  0  0  0  0
  7  8  1  0  0  0  0
  8 10  2  0  0  0  0
  9  8  1  0  0  0  0
 10 12  1  0  0  0  0
 10 11  1  0  0  0  0
 12 13  1  0  0  0  0
 14 15  1  0  0  0  0
 14 12  2  0  0  0  0
 15  3  1  1  0  0  0
 15 16  1  0  0  0  0
 16 17  1  0  0  0  0
 18 16  1  0  0  0  0
 19 16  1  0  0  0  0
 20 25  1  0  0  0  0
 20 21  1  0  0  0  0
 20 29  1  0  0  0  0
 21 24  1  0  0  0  0
 22 21  1  0  0  0  0
 23 21  1  0  0  0  0
 25 26  1  0  0  0  0
 27 25  1  0  0  0  0
 28 25  1  0  0  0  0
 29 30  1  0  0  0  0
 31 29  1  0  0  0  0
 32 29  1  0  0  0  0
 33 34  1  0  0  0  0
 33  1  1  0  0  0  0
 34 36  1  0  0  0  0
 34 35  1  0  0  0  0
 37 34  1  0  0  0  0
 38 33  1  0  0  0  0
 38 41  1  0  0  0  0
 39 38  1  0  0  0  0
 40 38  1  0  0  0  0
 42 33  1  0  0  0  0
 43 42  1  0  0  0  0
 44 42  1  0  0  0  0
 45 42  1  0  0  0  0
 46 53  1  0  0  0  0
 47 48  1  0  0  0  0
 47 46  2  0  0  0  0
 48 50  2  0  0  0  0
 49 48  1  0  0  0  0
 50 58  1  0  0  0  0
 50 51  1  0  0  0  0
 51 52  1  0  0  0  0
 53 51  2  0  0  0  0
 53 62  1  0  0  0  0
 54 47  1  0  0  0  0
 55 54  1  0  0  0  0
 56 54  1  0  0  0  0
 57 54  1  0  0  0  0
 58 60  1  0  0  0  0
 59 58  1  0  0  0  0
 61 58  1  0  0  0  0
 62 64  1  0  0  0  0
 62 65  1  0  0  0  0
 63 62  1  0  0  0  0
M  END
