1,2,3
q = -1.0, confidence = 0.0

 49 51  0  0  0  0  0  0  0  0999 V2000
   -1.0334   -0.5327    0.0242 P   0  0  0  0  0  0  0  0  0  0  0  0
   -1.4876    2.1572   -0.4246 N   0  0  0  0  0  2  0  0  0  0  0  0
    0.9615    3.1270    0.1224 N   0  0  0  0  0  0  0  0  0  0  0  0
   -1.1462   -1.4024    1.6410 C   0  0  0  0  0  0  0  0  0  0  0  0
   -0.6682   -0.7441    2.7912 C   0  0  0  0  0  0  0  0  0  0  0  0
   -0.1822    0.2378    2.6753 H   0  0  0  0  0  0  0  0  0  0  0  0
   -0.8073   -1.3358    4.0551 C   0  0  0  0  0  0  0  0  0  0  0  0
   -0.4304   -0.8147    4.9485 H   0  0  0  0  0  0  0  0  0  0  0  0
   -1.4187   -2.5935    4.1790 C   0  0  0  0  0  0  0  0  0  0  0  0
   -1.5249   -3.0604    5.1701 H   0  0  0  0  0  0  0  0  0  0  0  0
   -1.8893   -3.2590    3.0347 C   0  0  0  0  0  0  0  0  0  0  0  0
   -2.3651   -4.2473    3.1279 H   0  0  0  0  0  0  0  0  0  0  0  0
   -1.7538   -2.6687    1.7698 C   0  0  0  0  0  0  0  0  0  0  0  0
   -2.1141   -3.1994    0.8752 H   0  0  0  0  0  0  0  0  0  0  0  0
   -0.6601   -1.8647   -1.1787 C   0  0  0  0  0  0  0  0  0  0  0  0
    0.2746   -2.8764   -0.8699 C   0  0  0  0  0  0  0  0  0  0  0  0
    0.7080   -2.9331    0.1401 H   0  0  0  0  0  0  0  0  0  0  0  0
    0.6514   -3.8114   -1.8449 C   0  0  0  0  0  0  0  0  0  0  0  0
    1.3802   -4.5971   -1.5936 H   0  0  0  0  0  0  0  0  0  0  0  0
    0.1028   -3.7451   -3.1359 C   0  0  0  0  0  0  0  0  0  0  0  0
    0.3988   -4.4803   -3.8996 H   0  0  0  0  0  0  0  0  0  0  0  0
   -0.8263   -2.7391   -3.4487 C   0  0  0  0  0  0  0  0  0  0  0  0
   -1.2620   -2.6849   -4.4582 H   0  0  0  0  0  0  0  0  0  0  0  0
   -1.2052   -1.8006   -2.4780 C   0  0  0  0  0  0  0  0  0  0  0  0
   -1.9340   -1.0111   -2.7184 H   0  0  0  0  0  0  0  0  0  0  0  0
   -2.6980    0.0937   -0.3534 C   0  0  0  0  0  0  0  0  0  0  0  0
   -3.8780   -0.6558   -0.4483 C   0  0  0  0  0  0  0  0  0  0  0  0
   -3.8377   -1.7515   -0.3397 H   0  0  0  0  0  0  0  0  0  0  0  0
   -5.1069   -0.0164   -0.6761 C   0  0  0  0  0  0  0  0  0  0  0  0
   -6.0358   -0.5994   -0.7525 H   0  0  0  0  0  0  0  0  0  0  0  0
   -5.1273    1.3896   -0.7847 C   0  0  0  0  0  0  0  0  0  0  0  0
   -6.0885    1.9045   -0.9446 H   0  0  0  0  0  0  0  0  0  0  0  0
   -3.9620    2.1561   -0.6891 C   0  0  0  0  0  0  0  0  0  0  0  0
   -4.0254    3.2508   -0.7689 H   0  0  0  0  0  0  0  0  0  0  0  0
   -2.6934    1.5271   -0.4889 C   0  0  0  0  0  0  0  0  0  0  0  0
   -1.4048    3.5935   -0.4828 C   0  0  0  0  0  0  0  0  0  0  0  0
   -1.7842    4.0911    0.4489 H   0  0  0  0  0  0  0  0  0  0  0  0
   -2.0064    4.0341   -1.3149 H   0  0  0  0  0  0  0  0  0  0  0  0
    0.0569    3.9525   -0.7256 C   0  0  0  0  0  0  0  0  0  0  0  0
    0.2535    5.0385   -0.5543 H   0  0  0  0  0  0  0  0  0  0  0  0
    0.3182    3.7181   -1.7771 H   0  0  0  0  0  0  0  0  0  0  0  0
    2.3547    3.3284   -0.2979 C   0  0  0  0  0  0  0  0  0  0  0  0
    2.4592    3.0818   -1.3706 H   0  0  0  0  0  0  0  0  0  0  0  0
    3.0251    2.6658    0.2805 H   0  0  0  0  0  0  0  0  0  0  0  0
    2.6701    4.3862   -0.1399 H   0  0  0  0  0  0  0  0  0  0  0  0
    0.8177    3.4557    1.5532 C   0  0  0  0  0  0  0  0  0  0  0  0
   -0.2224    3.2731    1.8800 H   0  0  0  0  0  0  0  0  0  0  0  0
    1.0850    4.5217    1.7505 H   0  0  0  0  0  0  0  0  0  0  0  0
    1.4888    2.8034    2.1436 H   0  0  0  0  0  0  0  0  0  0  0  0
  1  4  1  0  0  0  0
  3 46  1  0  0  0  0
  4 13  2  0  0  0  0
  4  5  1  0  0  0  0
  5  7  2  0  0  0  0
  6  5  1  0  0  0  0
  7  9  1  0  0  0  0
  7  8  1  0  0  0  0
  9 10  1  0  0  0  0
 11 12  1  0  0  0  0
 11  9  2  0  0  0  0
 13 11  1  0  0  0  0
 14 13  1  0  0  0  0
 15 16  1  0  0  0  0
 15  1  1  0  0  0  0
 16 17  1  0  0  0  0
 18 19  1  0  0  0  0
 18 16  2  0  0  0  0
 20 18  1  0  0  0  0
 21 20  1  0  0  0  0
 22 20  2  0  0  0  0
 22 24  1  0  0  0  0
 23 22  1  0  0  0  0
 24 15  2  0  0  0  0
 25 24  1  0  0  0  0
 26  1  1  0  0  0  0
 27 26  1  0  0  0  0
 27 28  1  0  0  0  0
 29 27  2  0  0  0  0
 30 29  1  0  0  0  0
 31 33  2  0  0  0  0
 31 29  1  0  0  0  0
 32 31  1  0  0  0  0
 33 35  1  0  0  0  0
 34 33  1  0  0  0  0
 35  2  1  0  0  0  0
 35 26  2  0  0  0  0
 36  2  1  0  0  0  0
 36 37  1  0  0  0  0
 38 36  1  0  0  0  0
 39 40  1  0  0  0  0
 39 36  1  0  0  0  0
 39  3  1  0  0  0  0
 41 39  1  0  0  0  0
 42 45  1  0  0  0  0
 42  3  1  0  0  0  0
 42 44  1  0  0  0  0
 43 42  1  0  0  0  0
 46 48  1  0  0  0  0
 46 47  1  0  0  0  0
 46 49  1  0  0  0  0
M  END
