6,7
q = 0.0, confidence = 0.99

 62 66  0  0  1  0  0  0  0  0999 V2000
    0.1556    0.5596    0.0537 P   0  0  1  0  0  0  0  0  0  0  0  0
    1.2654    2.9487    1.9993 N   0  0  2  0  0  0  0  0  0  0  0  0
   -0.4694    0.5712    1.6803 N   0  0  0  0  0  0  0  0  0  0  0  0
   -0.1140    2.1697   -0.5478 N   0  0  0  0  0  0  0  0  0  0  0  0
    1.8505    0.5396    0.2984 N   0  0  0  0  0  0  0  0  0  0  0  0
   -2.1699   -1.8396    0.5967 N   0  0  0  0  0  2  0  0  0  0  0  0
   -2.3193    0.3981   -1.4325 N   0  0  0  0  0  2  0  0  0  0  0  0
    4.9090   -0.8937    0.2153 N   0  0  0  0  0  0  0  0  0  0  0  0
    0.6402    2.2860    3.1169 C   0  0  0  0  0  0  0  0  0  0  0  0
   -0.3102    2.8149    3.3450 H   0  0  0  0  0  0  0  0  0  0  0  0
    1.2732    2.3658    4.0368 H   0  0  0  0  0  0  0  0  0  0  0  0
    0.3452    0.7920    2.8643 C   0  0  0  0  0  0  0  0  0  0  0  0
    1.3104    0.2528    2.7669 H   0  0  0  0  0  0  0  0  0  0  0  0
   -0.1601    0.3440    3.7476 H   0  0  0  0  0  0  0  0  0  0  0  0
    0.5090    3.8655    1.1831 C   0  0  0  0  0  0  0  0  0  0  0  0
    1.2220    4.3887    0.5108 H   0  0  0  0  0  0  0  0  0  0  0  0
    0.0336    4.6572    1.8153 H   0  0  0  0  0  0  0  0  0  0  0  0
   -0.6062    3.2334    0.3251 C   0  0  0  0  0  0  0  0  0  0  0  0
   -1.4190    2.8758    0.9991 H   0  0  0  0  0  0  0  0  0  0  0  0
   -1.0600    4.0248   -0.3100 H   0  0  0  0  0  0  0  0  0  0  0  0
    2.5982    2.5610    1.5953 C   0  0  0  0  0  0  0  0  0  0  0  0
    3.0479    1.9679    2.4193 H   0  0  0  0  0  0  0  0  0  0  0  0
    3.2530    3.4600    1.4707 H   0  0  0  0  0  0  0  0  0  0  0  0
    2.6620    1.7506    0.2849 C   0  0  0  0  0  0  0  0  0  0  0  0
    2.3286    2.3982   -0.5516 H   0  0  0  0  0  0  0  0  0  0  0  0
    3.7153    1.4660    0.0790 H   0  0  0  0  0  0  0  0  0  0  0  0
   -1.8975    0.2666    1.8485 C   0  0  0  0  0  0  0  0  0  0  0  0
   -2.4844    0.7772    1.0577 H   0  0  0  0  0  0  0  0  0  0  0  0
   -2.2299    0.6902    2.8194 H   0  0  0  0  0  0  0  0  0  0  0  0
   -2.2170   -1.2160    1.8186 C   0  0  2  0  0  3  0  0  0  0  0  0
   -2.4771   -1.9287    2.9976 C   0  0  0  0  0  0  0  0  0  0  0  0
   -2.4978   -1.3862    3.9551 H   0  0  0  0  0  0  0  0  0  0  0  0
   -2.7093   -3.3126    2.9508 C   0  0  0  0  0  0  0  0  0  0  0  0
   -2.9232   -3.8807    3.8681 H   0  0  0  0  0  0  0  0  0  0  0  0
   -2.6568   -3.9467    1.6986 C   0  0  0  0  0  0  0  0  0  0  0  0
   -2.8317   -5.0278    1.5957 H   0  0  0  0  0  0  0  0  0  0  0  0
   -2.3800   -3.1832    0.5637 C   0  0  0  0  0  0  0  0  0  0  0  0
   -2.2908   -3.6503   -0.4288 H   0  0  0  0  0  0  0  0  0  0  0  0
   -0.6211    2.1275   -1.9146 C   0  0  0  0  0  0  0  0  0  0  0  0
    0.0498    1.4700   -2.5105 H   0  0  0  0  0  0  0  0  0  0  0  0
   -0.5676    3.1418   -2.3621 H   0  0  0  0  0  0  0  0  0  0  0  0
   -2.0365    1.6004   -2.0423 C   0  0  1  0  0  3  0  0  0  0  0  0
   -3.0006    2.2847   -2.7898 C   0  0  0  0  0  0  0  0  0  0  0  0
   -2.7147    3.2367   -3.2629 H   0  0  0  0  0  0  0  0  0  0  0  0
   -4.2951    1.7639   -2.9481 C   0  0  0  0  0  0  0  0  0  0  0  0
   -5.0543    2.2974   -3.5375 H   0  0  0  0  0  0  0  0  0  0  0  0
   -4.5852    0.5453   -2.3116 C   0  0  0  0  0  0  0  0  0  0  0  0
   -5.5829    0.0869   -2.3751 H   0  0  0  0  0  0  0  0  0  0  0  0
   -3.5990   -0.0866   -1.5584 C   0  0  0  0  0  0  0  0  0  0  0  0
   -3.7954   -1.0222   -1.0158 H   0  0  0  0  0  0  0  0  0  0  0  0
    2.5107   -0.7216    0.6372 C   0  0  0  0  0  0  0  0  0  0  0  0
    1.7540   -1.5312    0.5653 H   0  0  0  0  0  0  0  0  0  0  0  0
    2.9192   -0.7040    1.6743 H   0  0  0  0  0  0  0  0  0  0  0  0
    3.6684   -1.0324   -0.2938 C   0  0  0  0  0  0  0  0  0  0  0  0
    3.4294   -1.4051   -1.6332 C   0  0  0  0  0  0  0  0  0  0  0  0
    2.3908   -1.5295   -1.9789 H   0  0  0  0  0  0  0  0  0  0  0  0
    4.5277   -1.6496   -2.4650 C   0  0  0  0  0  0  0  0  0  0  0  0
    4.3765   -1.9550   -3.5122 H   0  0  0  0  0  0  0  0  0  0  0  0
    5.8228   -1.5083   -1.9402 C   0  0  0  0  0  0  0  0  0  0  0  0
    6.7151   -1.6899   -2.5582 H   0  0  0  0  0  0  0  0  0  0  0  0
    5.9543   -1.1306   -0.5958 C   0  0  0  0  0  0  0  0  0  0  0  0
    6.9574   -1.0099   -0.1475 H   0  0  0  0  0  0  0  0  0  0  0  0
  1  4  1  6  0  0  0
  1  5  1  0  0  0  0
  1  3  1  0  0  0  0
  2 15  1  6  0  0  0
  2  9  1  0  0  0  0
  3 27  1  0  0  0  0
  3 12  1  0  0  0  0
  4 18  1  0  0  0  0
  5 51  1  0  0  0  0
  6 30  1  0  0  0  0
  9 10  1  0  0  0  0
  9 11  1  0  0  0  0
 12  9  1  0  0  0  0
 12 14  1  0  0  0  0
 13 12  1  0  0  0  0
 15 17  1  0  0  0  0
 16 15  1  0  0  0  0
 18 19  1  0  0  0  0
 18 15  1  0  0  0  0
 20 18  1  0  0  0  0
 21  2  1  0  0  0  0
 21 22  1  0  0  0  0
 23 21  1  0  0  0  0
 24  5  1  0  0  0  0
 24 21  1  0  0  0  0
 25 24  1  0  0  0  0
 26 24  1  0  0  0  0
 27 29  1  0  0  0  0
 28 27  1  0  0  0  0
 30 27  1  1  0  0  0
 30 31  1  0  0  0  0
 31 32  1  0  0  0  0
 33 31  2  0  0  0  0
 33 34  1  0  0  0  0
 35 33  1  0  0  0  0
 36 35  1  0  0  0  0
 37  6  1  0  0  0  0
 37 35  2  0  0  0  0
 38 37  1  0  0  0  0
 39  4  1  0  0  0  0
 40 39  1  0  0  0  0
 41 39  1  0  0  0  0
 42 39  1  6  0  0  0
 42  7  1  0  0  0  0
 43 42  1  0  0  0  0
 44 43  1  0  0  0  0
 45 43  2  0  0  0  0
 45 47  1  0  0  0  0
 46 45  1  0  0  0  0
 47 49  2  0  0  0  0
 48 47  1  0  0  0  0
 49  7  1  0  0  0  0
 49 50  1  0  0  0  0
 51 53  1  0  0  0  0
 52 51  1  0  0  0  0
 54  8  1  0  0  0  0
 54 51  1  0  0  0  0
 55 54  2  0  0  0  0
 56 55  1  0  0  0  0
 57 59  2  0  0  0  0
 57 55  1  0  0  0  0
 58 57  1  0  0  0  0
 59 61  1  0  0  0  0
 60 59  1  0  0  0  0
 61 62  1  0  0  0  0
 61  8  2  0  0  0  0
M  END
