1,45,46
q = -1.0, confidence = 0.008

 57 59  0  0  1  0  0  0  0  0999 V2000
    2.0436   -1.1831    0.0179 P   0  0  0  0  0  0  0  0  0  0  0  0
    2.3700   -1.6538    1.8373 C   0  0  0  0  0  0  0  0  0  0  0  0
    3.7446   -2.2936    2.0783 C   0  0  0  0  0  0  0  0  0  0  0  0
    4.5800   -1.6821    1.6810 H   0  0  0  0  0  0  0  0  0  0  0  0
    3.8139   -3.3072    1.6389 H   0  0  0  0  0  0  0  0  0  0  0  0
    3.9082   -2.3998    3.1718 H   0  0  0  0  0  0  0  0  0  0  0  0
    2.2657   -0.3266    2.6173 C   0  0  0  0  0  0  0  0  0  0  0  0
    1.2906    0.1706    2.4380 H   0  0  0  0  0  0  0  0  0  0  0  0
    3.0688    0.3903    2.3540 H   0  0  0  0  0  0  0  0  0  0  0  0
    2.3520   -0.5410    3.7033 H   0  0  0  0  0  0  0  0  0  0  0  0
    1.2526   -2.5960    2.3198 C   0  0  0  0  0  0  0  0  0  0  0  0
    1.3421   -2.7288    3.4187 H   0  0  0  0  0  0  0  0  0  0  0  0
    1.3165   -3.5983    1.8574 H   0  0  0  0  0  0  0  0  0  0  0  0
    0.2481   -2.1869    2.0995 H   0  0  0  0  0  0  0  0  0  0  0  0
    2.4734   -2.5722   -1.2128 C   0  0  0  0  0  0  0  0  0  0  0  0
    2.0169   -2.0341   -2.5844 C   0  0  0  0  0  0  0  0  0  0  0  0
    2.1778   -2.8167   -3.3555 H   0  0  0  0  0  0  0  0  0  0  0  0
    2.5900   -1.1380   -2.8979 H   0  0  0  0  0  0  0  0  0  0  0  0
    0.9448   -1.7594   -2.5799 H   0  0  0  0  0  0  0  0  0  0  0  0
    1.6592   -3.8287   -0.8590 C   0  0  0  0  0  0  0  0  0  0  0  0
    0.5861   -3.5987   -0.7071 H   0  0  0  0  0  0  0  0  0  0  0  0
    2.0456   -4.3263    0.0515 H   0  0  0  0  0  0  0  0  0  0  0  0
    1.7374   -4.5593   -1.6918 H   0  0  0  0  0  0  0  0  0  0  0  0
    3.9723   -2.9109   -1.2770 C   0  0  0  0  0  0  0  0  0  0  0  0
    4.3548   -3.3334   -0.3304 H   0  0  0  0  0  0  0  0  0  0  0  0
    4.5964   -2.0348   -1.5424 H   0  0  0  0  0  0  0  0  0  0  0  0
    4.1324   -3.6740   -2.0683 H   0  0  0  0  0  0  0  0  0  0  0  0
    3.3562    0.1211   -0.3525 C   0  0  0  0  0  0  0  0  0  0  0  0
    4.2581   -0.0192    0.2791 H   0  0  0  0  0  0  0  0  0  0  0  0
    3.6877   -0.0542   -1.3987 H   0  0  0  0  0  0  0  0  0  0  0  0
    2.8049    1.5202   -0.2358 C   0  0  0  0  0  0  0  0  0  0  0  0
    3.0309    3.9352   -0.1101 C   0  0  0  0  0  0  0  0  0  0  0  0
    3.6576    4.8387   -0.0463 H   0  0  0  0  0  0  0  0  0  0  0  0
    3.6219    2.6789   -0.1464 C   0  0  0  0  0  0  0  0  0  0  0  0
    4.7159    2.5702   -0.1158 H   0  0  0  0  0  0  0  0  0  0  0  0
    1.6125    4.0836   -0.1529 C   0  0  0  0  0  0  0  0  0  0  0  0
    0.9212    5.3211   -0.1193 C   0  0  0  0  0  0  0  0  0  0  0  0
    1.4851    6.2632   -0.0646 H   0  0  0  0  0  0  0  0  0  0  0  0
   -0.4773    5.3084   -0.1586 C   0  0  0  0  0  0  0  0  0  0  0  0
   -1.0207    6.2666   -0.1457 H   0  0  0  0  0  0  0  0  0  0  0  0
   -1.2312    4.1206   -0.2139 C   0  0  0  0  0  0  0  0  0  0  0  0
   -2.3279    4.1714   -0.2454 H   0  0  0  0  0  0  0  0  0  0  0  0
   -0.5985    2.8497   -0.2373 C   0  0  0  0  0  0  0  0  0  0  0  0
    0.8522    2.8661   -0.2218 C   0  0  2  0  0  3  0  0  0  0  0  0
    1.4705    1.6533   -0.2661 N   0  0  0  0  0  2  0  0  0  0  0  0
   -1.2048    1.6303   -0.3102 N   0  0  0  0  0  2  0  0  0  0  0  0
   -2.5937    1.4829   -0.1405 C   0  0  0  0  0  0  0  0  0  0  0  0
   -3.3493    0.7762   -1.1029 C   0  0  0  0  0  0  0  0  0  0  0  0
   -2.8360    0.4086   -2.0024 H   0  0  0  0  0  0  0  0  0  0  0  0
   -4.7101    0.5199   -0.8959 C   0  0  0  0  0  0  0  0  0  0  0  0
   -5.2753   -0.0485   -1.6504 H   0  0  0  0  0  0  0  0  0  0  0  0
   -5.3517    0.9755    0.2678 C   0  0  0  0  0  0  0  0  0  0  0  0
   -6.4200    0.7683    0.4313 H   0  0  0  0  0  0  0  0  0  0  0  0
   -4.6137    1.6922    1.2243 C   0  0  0  0  0  0  0  0  0  0  0  0
   -5.1030    2.0479    2.1447 H   0  0  0  0  0  0  0  0  0  0  0  0
   -3.2483    1.9404    1.0277 C   0  0  0  0  0  0  0  0  0  0  0  0
   -2.6628    2.4752    1.7909 H   0  0  0  0  0  0  0  0  0  0  0  0
  1  2  1  0  0  0  0
  2  3  1  0  0  0  0
  2 11  1  0  0  0  0
  2  7  1  0  0  0  0
  3  6  1  0  0  0  0
  4  3  1  0  0  0  0
  5  3  1  0  0  0  0
  7 10  1  0  0  0  0
  8  7  1  0  0  0  0
  9  7  1  0  0  0  0
 11 12  1  0  0  0  0
 13 11  1  0  0  0  0
 14 11  1  0  0  0  0
 15 20  1  0  0  0  0
 15  1  1  0  0  0  0
 16 19  1  0  0  0  0
 16 15  1  0  0  0  0
 17 16  1  0  0  0  0
 18 16  1  0  0  0  0
 20 21  1  0  0  0  0
 20 22  1  0  0  0  0
 23 20  1  0  0  0  0
 24 15  1  0  0  0  0
 24 25  1  0  0  0  0
 26 24  1  0  0  0  0
 27 24  1  0  0  0  0
 28 31  1  0  0  0  0
 28  1  1  0  0  0  0
 28 29  1  0  0  0  0
 30 28  1  0  0  0  0
 31 34  2  0  0  0  0
 32 33  1  0  0  0  0
 34 35  1  0  0  0  0
 34 32  1  0  0  0  0
 36 37  1  0  0  0  0
 36 32  2  0  0  0  0
 37 38  1  0  0  0  0
 39 40  1  0  0  0  0
 39 37  2  0  0  0  0
 41 39  1  0  0  0  0
 42 41  1  0  0  0  0
 43 44  1  0  0  0  0
 43 41  2  0  0  0  0
 44 45  1  1  0  0  0
 44 36  1  0  0  0  0
 45 31  1  0  0  0  0
 46 43  1  0  0  0  0
 46 47  1  0  0  0  0
 47 56  1  0  0  0  0
 48 50  1  0  0  0  0
 48 47  2  0  0  0  0
 49 48  1  0  0  0  0
 50 52  2  0  0  0  0
 51 50  1  0  0  0  0
 52 53  1  0  0  0  0
 52 54  1  0  0  0  0
 54 55  1  0  0  0  0
 56 54  2  0  0  0  0
 56 57  1  0  0  0  0
M  END
