1,2,11
q = -1.0

 34 36  0  0  1  0  0  0  0  0999 V2000
    0.8866    1.2175    1.5696 P   0  0  0  0  0  0  0  0  0  0  0  0
   -0.8114   -1.4317    0.2376 N   0  0  0  0  0  2  0  0  0  0  0  0
    2.4198    1.7717    2.4190 C   0  0  0  0  0  0  0  0  0  0  0  0
    3.1330    2.1363    1.6541 H   0  0  0  0  0  0  0  0  0  0  0  0
    2.8794    0.9039    2.9319 H   0  0  0  0  0  0  0  0  0  0  0  0
    2.2191    2.5742    3.1563 H   0  0  0  0  0  0  0  0  0  0  0  0
   -4.2281    0.8999   -0.3372 C   0  0  0  0  0  0  0  0  0  0  0  0
   -5.1085    1.5500   -0.4663 H   0  0  0  0  0  0  0  0  0  0  0  0
   -0.2637    2.4593   -0.6678 C   0  0  1  0  0  0  0  0  0  0  0  0
    0.6253    2.6827   -1.2934 H   0  0  0  0  0  0  0  0  0  0  0  0
   -0.5398    1.0261   -0.7881 N   0  0  0  0  0  2  0  0  0  0  0  0
   -0.8960   -2.6796    0.7232 C   0  0  0  0  0  0  0  0  0  0  0  0
    0.0537   -3.2008    0.9109 H   0  0  0  0  0  0  0  0  0  0  0  0
   -1.7962    0.6166   -0.4916 C   0  0  0  0  0  0  0  0  0  0  0  0
   -1.4379    3.2911   -1.1369 C   0  0  0  0  0  0  0  0  0  0  0  0
   -1.2405    4.3093   -1.5063 H   0  0  0  0  0  0  0  0  0  0  0  0
   -3.2698   -1.2571    0.2727 C   0  0  0  0  0  0  0  0  0  0  0  0
   -2.1411   -3.2964    0.9819 C   0  0  0  0  0  0  0  0  0  0  0  0
   -2.1565   -4.3257    1.3675 H   0  0  0  0  0  0  0  0  0  0  0  0
   -2.7067    2.8089   -1.0548 C   0  0  0  0  0  0  0  0  0  0  0  0
   -3.5657    3.4314   -1.3528 H   0  0  0  0  0  0  0  0  0  0  0  0
   -0.2574    0.7695    2.9404 C   0  0  0  0  0  0  0  0  0  0  0  0
   -1.2512    0.5422    2.5069 H   0  0  0  0  0  0  0  0  0  0  0  0
   -0.3561    1.5922    3.6766 H   0  0  0  0  0  0  0  0  0  0  0  0
    0.1187   -0.1411    3.4466 H   0  0  0  0  0  0  0  0  0  0  0  0
   -2.9499    1.4505   -0.6039 C   0  0  0  0  0  0  0  0  0  0  0  0
    0.1262    2.7597    0.8261 C   0  0  0  0  0  0  0  0  0  0  0  0
   -0.7866    3.0055    1.4065 H   0  0  0  0  0  0  0  0  0  0  0  0
    0.8273    3.6140    0.9181 H   0  0  0  0  0  0  0  0  0  0  0  0
   -1.9636   -0.7265   -0.0095 C   0  0  2  0  0  3  0  0  0  0  0  0
   -3.3192   -2.5932    0.7608 C   0  0  0  0  0  0  0  0  0  0  0  0
   -4.2971   -3.0540    0.9702 H   0  0  0  0  0  0  0  0  0  0  0  0
   -4.4041   -0.4194    0.0782 C   0  0  0  0  0  0  0  0  0  0  0  0
   -5.4083   -0.8199    0.2784 H   0  0  0  0  0  0  0  0  0  0  0  0
  1  3  1  0  0  0  0
  1 22  1  0  0  0  0
  2 12  1  0  0  0  0
  3  5  1  0  0  0  0
  3  6  1  0  0  0  0
  4  3  1  0  0  0  0
  7 33  2  0  0  0  0
  8  7  1  0  0  0  0
  9 10  1  6  0  0  0
  9 27  1  0  0  0  0
 11  9  1  0  0  0  0
 11 14  1  0  0  0  0
 12 13  1  0  0  0  0
 12 18  2  0  0  0  0
 15 20  2  0  0  0  0
 15  9  1  0  0  0  0
 16 15  1  0  0  0  0
 17 31  2  0  0  0  0
 18 19  1  0  0  0  0
 20 26  1  0  0  0  0
 21 20  1  0  0  0  0
 22 25  1  0  0  0  0
 22 24  1  0  0  0  0
 23 22  1  0  0  0  0
 26 14  2  0  0  0  0
 26  7  1  0  0  0  0
 27 29  1  0  0  0  0
 27 28  1  0  0  0  0
 27  1  1  0  0  0  0
 30 14  1  1  0  0  0
 30  2  1  0  0  0  0
 30 17  1  0  0  0  0
 31 32  1  0  0  0  0
 31 18  1  0  0  0  0
 33 17  1  0  0  0  0
 33 34  1  0  0  0  0
M  END
