1,2,3
q = -1.0, confidence = 0.008

 72 74  0  0  1  0  0  0  0  0999 V2000
   -1.9812   -0.1463   -0.4947 P   0  0  0  0  0  0  0  0  0  0  0  0
   -0.2003    1.8328   -1.6231 N   0  0  0  0  0  2  0  0  0  0  0  0
    1.9028    0.6080    0.1101 N   0  0  0  0  0  2  0  0  0  0  0  0
   -0.3183    4.2885   -1.4070 C   0  0  0  0  0  0  0  0  0  0  0  0
   -1.3043    4.3713   -0.9002 H   0  0  0  0  0  0  0  0  0  0  0  0
   -0.4975    4.4236   -2.4927 H   0  0  0  0  0  0  0  0  0  0  0  0
    0.3129    5.1213   -1.0486 H   0  0  0  0  0  0  0  0  0  0  0  0
    0.3227    2.9488   -1.1034 C   0  0  0  0  0  0  0  0  0  0  0  0
    1.4275    2.9704   -0.2131 C   0  0  0  0  0  0  0  0  0  0  0  0
    1.7435    3.9709    0.1106 H   0  0  0  0  0  0  0  0  0  0  0  0
    2.1342    1.8978    0.3855 C   0  0  2  0  0  3  0  0  0  0  0  0
    3.2115    2.2616    1.3882 C   0  0  0  0  0  0  0  0  0  0  0  0
    3.2055    1.5689    2.2521 H   0  0  0  0  0  0  0  0  0  0  0  0
    3.0879    3.2987    1.7496 H   0  0  0  0  0  0  0  0  0  0  0  0
    4.2179    2.1780    0.9285 H   0  0  0  0  0  0  0  0  0  0  0  0
    2.6605   -0.4320    0.7191 C   0  0  0  0  0  0  0  0  0  0  0  0
    2.0437   -1.2329    1.7235 C   0  0  0  0  0  0  0  0  0  0  0  0
    2.7704   -2.3028    2.2748 C   0  0  0  0  0  0  0  0  0  0  0  0
    2.3052   -2.9262    3.0526 H   0  0  0  0  0  0  0  0  0  0  0  0
    4.0719   -2.5920    1.8449 C   0  0  0  0  0  0  0  0  0  0  0  0
    4.6263   -3.4337    2.2871 H   0  0  0  0  0  0  0  0  0  0  0  0
    1.1346    1.0520    3.0383 H   0  0  0  0  0  0  0  0  0  0  0  0
    4.6573   -1.8152    0.8386 C   0  0  0  0  0  0  0  0  0  0  0  0
    5.6709   -2.0613    0.4861 H   0  0  0  0  0  0  0  0  0  0  0  0
    3.9718   -0.7329    0.2556 C   0  0  0  0  0  0  0  0  0  0  0  0
    0.6285   -0.9173    2.1899 C   0  0  0  0  0  0  0  0  0  0  0  0
    0.1153   -0.4444    1.3257 H   0  0  0  0  0  0  0  0  0  0  0  0
   -0.1911   -2.1584    2.5626 C   0  0  0  0  0  0  0  0  0  0  0  0
    0.1756   -2.6420    3.4921 H   0  0  0  0  0  0  0  0  0  0  0  0
   -0.1721   -2.9118    1.7506 H   0  0  0  0  0  0  0  0  0  0  0  0
   -1.2497   -1.8772    2.7377 H   0  0  0  0  0  0  0  0  0  0  0  0
    0.6316    0.1105    3.3352 C   0  0  0  0  0  0  0  0  0  0  0  0
   -0.4045    0.3641    3.6413 H   0  0  0  0  0  0  0  0  0  0  0  0
    1.1646   -0.2908    4.2225 H   0  0  0  0  0  0  0  0  0  0  0  0
    4.6032    0.0311   -0.9040 C   0  0  0  0  0  0  0  0  0  0  0  0
    4.0128    0.9558   -1.0599 H   0  0  0  0  0  0  0  0  0  0  0  0
    6.0564    0.4465   -0.6287 C   0  0  0  0  0  0  0  0  0  0  0  0
    6.1483    1.0182    0.3174 H   0  0  0  0  0  0  0  0  0  0  0  0
    6.4421    1.0810   -1.4527 H   0  0  0  0  0  0  0  0  0  0  0  0
    6.7294   -0.4324   -0.5518 H   0  0  0  0  0  0  0  0  0  0  0  0
    4.4932   -0.7890   -2.2023 C   0  0  0  0  0  0  0  0  0  0  0  0
    3.4359   -1.0310   -2.4262 H   0  0  0  0  0  0  0  0  0  0  0  0
    5.0475   -1.7466   -2.1152 H   0  0  0  0  0  0  0  0  0  0  0  0
    4.9116   -0.2274   -3.0633 H   0  0  0  0  0  0  0  0  0  0  0  0
   -1.4814    1.8894   -2.3248 C   0  0  0  0  0  0  0  0  0  0  0  0
   -1.3441    2.1505   -3.4012 H   0  0  0  0  0  0  0  0  0  0  0  0
   -2.1367    2.6761   -1.8928 H   0  0  0  0  0  0  0  0  0  0  0  0
   -2.2232    0.5480   -2.2220 C   0  0  0  0  0  0  0  0  0  0  0  0
   -1.7916   -0.1995   -2.9188 H   0  0  0  0  0  0  0  0  0  0  0  0
   -3.2988    0.6683   -2.4643 H   0  0  0  0  0  0  0  0  0  0  0  0
   -2.6995    1.2085    0.5286 C   0  0  0  0  0  0  0  0  0  0  0  0
   -1.8083    1.9896    1.2933 C   0  0  0  0  0  0  0  0  0  0  0  0
   -0.7349    1.7502    1.2898 H   0  0  0  0  0  0  0  0  0  0  0  0
   -2.2816    3.0818    2.0373 C   0  0  0  0  0  0  0  0  0  0  0  0
   -1.5738    3.6858    2.6253 H   0  0  0  0  0  0  0  0  0  0  0  0
   -3.6494    3.3973    2.0311 C   0  0  0  0  0  0  0  0  0  0  0  0
   -4.0222    4.2506    2.6182 H   0  0  0  0  0  0  0  0  0  0  0  0
   -4.5442    2.6204    1.2750 C   0  0  0  0  0  0  0  0  0  0  0  0
   -5.6175    2.8657    1.2684 H   0  0  0  0  0  0  0  0  0  0  0  0
   -4.0726    1.5339    0.5235 C   0  0  0  0  0  0  0  0  0  0  0  0
   -4.7766    0.9274   -0.0677 H   0  0  0  0  0  0  0  0  0  0  0  0
   -3.2100   -1.5040   -0.4043 C   0  0  0  0  0  0  0  0  0  0  0  0
   -3.3991   -2.3763   -1.4998 C   0  0  0  0  0  0  0  0  0  0  0  0
   -2.8839   -2.1873   -2.4535 H   0  0  0  0  0  0  0  0  0  0  0  0
   -4.2328   -3.4980   -1.3817 C   0  0  0  0  0  0  0  0  0  0  0  0
   -4.3703   -4.1649   -2.2466 H   0  0  0  0  0  0  0  0  0  0  0  0
   -4.8867   -3.7719   -0.1702 C   0  0  0  0  0  0  0  0  0  0  0  0
   -5.5403   -4.6526   -0.0800 H   0  0  0  0  0  0  0  0  0  0  0  0
   -4.6968   -2.9166    0.9274 C   0  0  0  0  0  0  0  0  0  0  0  0
   -5.2021   -3.1241    1.8831 H   0  0  0  0  0  0  0  0  0  0  0  0
   -3.8628   -1.7954    0.8151 C   0  0  0  0  0  0  0  0  0  0  0  0
   -3.7202   -1.1331    1.6830 H   0  0  0  0  0  0  0  0  0  0  0  0
  1 62  1  0  0  0  0
  1 51  1  0  0  0  0
  2  8  1  0  0  0  0
  3 11  1  0  0  0  0
  3 16  1  0  0  0  0
  4  8  1  0  0  0  0
  4  7  1  0  0  0  0
  4  5  1  0  0  0  0
  6  4  1  0  0  0  0
  8  9  2  0  0  0  0
  9 10  1  0  0  0  0
 11  9  1  6  0  0  0
 11 12  1  0  0  0  0
 12 14  1  0  0  0  0
 12 13  1  0  0  0  0
 15 12  1  0  0  0  0
 16 17  1  0  0  0  0
 17 26  1  0  0  0  0
 17 18  2  0  0  0  0
 18 19  1  0  0  0  0
 20 18  1  0  0  0  0
 20 21  1  0  0  0  0
 22 32  1  0  0  0  0
 23 20  2  0  0  0  0
 24 23  1  0  0  0  0
 25 16  2  0  0  0  0
 25 23  1  0  0  0  0
 26 28  1  0  0  0  0
 26 32  1  0  0  0  0
 27 26  1  0  0  0  0
 28 31  1  0  0  0  0
 28 29  1  0  0  0  0
 30 28  1  0  0  0  0
 32 33  1  0  0  0  0
 32 34  1  0  0  0  0
 35 37  1  0  0  0  0
 35 25  1  0  0  0  0
 36 35  1  0  0  0  0
 37 40  1  0  0  0  0
 37 38  1  0  0  0  0
 39 37  1  0  0  0  0
 41 43  1  0  0  0  0
 41 35  1  0  0  0  0
 42 41  1  0  0  0  0
 44 41  1  0  0  0  0
 45 48  1  0  0  0  0
 45 47  1  0  0  0  0
 45  2  1  0  0  0  0
 46 45  1  0  0  0  0
 48  1  1  0  0  0  0
 49 48  1  0  0  0  0
 50 48  1  0  0  0  0
 51 52  1  0  0  0  0
 52 54  2  0  0  0  0
 53 52  1  0  0  0  0
 54 55  1  0  0  0  0
 56 54  1  0  0  0  0
 56 57  1  0  0  0  0
 58 56  2  0  0  0  0
 59 58  1  0  0  0  0
 60 51  2  0  0  0  0
 60 58  1  0  0  0  0
 61 60  1  0  0  0  0
 62 71  1  0  0  0  0
 63 65  1  0  0  0  0
 63 62  2  0  0  0  0
 64 63  1  0  0  0  0
 65 67  2  0  0  0  0
 66 65  1  0  0  0  0
 67 68  1  0  0  0  0
 67 69  1  0  0  0  0
 69 70  1  0  0  0  0
 71 69  2  0  0  0  0
 71 72  1  0  0  0  0
M  END
