1,2,3
q = -1.0, confidence = 0.01

 75 77  0  0  1  0  0  0  0  0999 V2000
   -1.9381    0.0274   -0.6127 P   0  0  0  0  0  0  0  0  0  0  0  0
   -0.0255   -2.2543   -1.3551 N   0  0  0  0  0  2  0  0  0  0  0  0
    1.6538   -0.5520    0.4504 N   0  0  0  0  0  2  0  0  0  0  0  0
   -0.3569   -4.5538   -0.5015 C   0  0  0  0  0  0  0  0  0  0  0  0
   -1.4637   -4.5368   -0.5737 H   0  0  0  0  0  0  0  0  0  0  0  0
   -0.0812   -5.1600    0.3795 H   0  0  0  0  0  0  0  0  0  0  0  0
    0.0191   -5.0766   -1.4056 H   0  0  0  0  0  0  0  0  0  0  0  0
    0.2108   -3.1496   -0.3954 C   0  0  0  0  0  0  0  0  0  0  0  0
    0.9913   -2.8759    0.7625 C   0  0  0  0  0  0  0  0  0  0  0  0
    1.0950   -3.7165    1.4614 H   0  0  0  0  0  0  0  0  0  0  0  0
    1.7046   -1.7070    1.1283 C   0  0  1  0  0  3  0  0  0  0  0  0
    2.5801   -1.8037    2.3639 C   0  0  0  0  0  0  0  0  0  0  0  0
    3.6356   -2.0019    2.0836 H   0  0  0  0  0  0  0  0  0  0  0  0
    2.2472   -2.6290    3.0203 H   0  0  0  0  0  0  0  0  0  0  0  0
    2.5801   -0.8556    2.9357 H   0  0  0  0  0  0  0  0  0  0  0  0
    2.5263    0.5260    0.7623 C   0  0  0  0  0  0  0  0  0  0  0  0
    1.9864    1.7133    1.3343 C   0  0  0  0  0  0  0  0  0  0  0  0
    2.8492    2.7957    1.5819 C   0  0  0  0  0  0  0  0  0  0  0  0
    2.4450    3.7168    2.0265 H   0  0  0  0  0  0  0  0  0  0  0  0
    4.2112    2.7240    1.2644 C   0  0  0  0  0  0  0  0  0  0  0  0
    4.8721    3.5806    1.4668 H   0  0  0  0  0  0  0  0  0  0  0  0
    4.7243    1.5653    0.6689 C   0  0  0  0  0  0  0  0  0  0  0  0
    5.7888    1.5264    0.3922 H   0  0  0  0  0  0  0  0  0  0  0  0
    3.9022    0.4555    0.4002 C   0  0  0  0  0  0  0  0  0  0  0  0
    0.5023    1.7930    1.6701 C   0  0  0  0  0  0  0  0  0  0  0  0
   -0.0169    1.1489    0.9266 H   0  0  0  0  0  0  0  0  0  0  0  0
    0.2061    1.2010    3.0591 C   0  0  0  0  0  0  0  0  0  0  0  0
    0.5657    0.1569    3.1445 H   0  0  0  0  0  0  0  0  0  0  0  0
   -0.8848    1.2001    3.2636 H   0  0  0  0  0  0  0  0  0  0  0  0
    0.7059    1.7952    3.8525 H   0  0  0  0  0  0  0  0  0  0  0  0
   -0.0851    3.2034    1.5403 C   0  0  0  0  0  0  0  0  0  0  0  0
    0.2992    3.8881    2.3250 H   0  0  0  0  0  0  0  0  0  0  0  0
   -1.1880    3.1715    1.6432 H   0  0  0  0  0  0  0  0  0  0  0  0
    0.1475    3.6492    0.5529 H   0  0  0  0  0  0  0  0  0  0  0  0
    4.4543   -0.7412   -0.3689 C   0  0  0  0  0  0  0  0  0  0  0  0
    3.7871   -1.6057   -0.1821 H   0  0  0  0  0  0  0  0  0  0  0  0
    5.8678   -1.1503    0.0673 C   0  0  0  0  0  0  0  0  0  0  0  0
    6.6224   -0.3781   -0.1889 H   0  0  0  0  0  0  0  0  0  0  0  0
    6.1750   -2.0846   -0.4451 H   0  0  0  0  0  0  0  0  0  0  0  0
    5.9250   -1.3232    1.1615 H   0  0  0  0  0  0  0  0  0  0  0  0
    4.3913   -0.4589   -1.8817 C   0  0  0  0  0  0  0  0  0  0  0  0
    3.3548   -0.2293   -2.1981 H   0  0  0  0  0  0  0  0  0  0  0  0
    4.7454   -1.3346   -2.4645 H   0  0  0  0  0  0  0  0  0  0  0  0
    5.0254    0.4124   -2.1473 H   0  0  0  0  0  0  0  0  0  0  0  0
   -0.8447   -2.5762   -2.5151 C   0  0  0  0  0  0  0  0  0  0  0  0
   -0.7772   -3.6509   -2.7916 H   0  0  0  0  0  0  0  0  0  0  0  0
   -0.4409   -2.0071   -3.3815 H   0  0  0  0  0  0  0  0  0  0  0  0
   -2.3342   -2.2144   -2.3493 C   0  0  0  0  0  0  0  0  0  0  0  0
   -2.7586   -2.7810   -1.4923 H   0  0  0  0  0  0  0  0  0  0  0  0
   -2.8720   -2.5742   -3.2535 H   0  0  0  0  0  0  0  0  0  0  0  0
   -2.6475   -0.7209   -2.1765 C   0  0  0  0  0  0  0  0  0  0  0  0
   -3.7441   -0.5505   -2.1901 H   0  0  0  0  0  0  0  0  0  0  0  0
   -2.2186   -0.1324   -3.0155 H   0  0  0  0  0  0  0  0  0  0  0  0
   -2.7748   -0.9501    0.7014 C   0  0  0  0  0  0  0  0  0  0  0  0
   -1.9802   -1.4705    1.7419 C   0  0  0  0  0  0  0  0  0  0  0  0
   -0.8978   -1.2821    1.7401 H   0  0  0  0  0  0  0  0  0  0  0  0
   -2.5604   -2.2477    2.7571 C   0  0  0  0  0  0  0  0  0  0  0  0
   -1.9262   -2.6525    3.5604 H   0  0  0  0  0  0  0  0  0  0  0  0
   -3.9378   -2.5119    2.7409 C   0  0  0  0  0  0  0  0  0  0  0  0
   -4.3931   -3.1221    3.5360 H   0  0  0  0  0  0  0  0  0  0  0  0
   -4.7380   -1.9987    1.7048 C   0  0  0  0  0  0  0  0  0  0  0  0
   -5.8191   -2.2058    1.6883 H   0  0  0  0  0  0  0  0  0  0  0  0
   -4.1604   -1.2232    0.6894 C   0  0  0  0  0  0  0  0  0  0  0  0
   -4.7952   -0.8221   -0.1162 H   0  0  0  0  0  0  0  0  0  0  0  0
   -2.7377    1.6813   -0.5519 C   0  0  0  0  0  0  0  0  0  0  0  0
   -3.5846    2.0942    0.4977 C   0  0  0  0  0  0  0  0  0  0  0  0
   -3.8675    1.3823    1.2872 H   0  0  0  0  0  0  0  0  0  0  0  0
   -4.0607    3.4142    0.5468 C   0  0  0  0  0  0  0  0  0  0  0  0
   -4.7194    3.7234    1.3730 H   0  0  0  0  0  0  0  0  0  0  0  0
   -3.6992    4.3360   -0.4474 C   0  0  0  0  0  0  0  0  0  0  0  0
   -4.0719    5.3706   -0.4049 H   0  0  0  0  0  0  0  0  0  0  0  0
   -2.8511    3.9334   -1.4927 C   0  0  0  0  0  0  0  0  0  0  0  0
   -2.5524    4.6523   -2.2708 H   0  0  0  0  0  0  0  0  0  0  0  0
   -2.3659    2.6198   -1.5416 C   0  0  0  0  0  0  0  0  0  0  0  0
   -1.6733    2.3243   -2.3450 H   0  0  0  0  0  0  0  0  0  0  0  0
  1 65  1  0  0  0  0
  1 54  1  0  0  0  0
  2  8  1  0  0  0  0
  3 16  1  0  0  0  0
  4  8  1  0  0  0  0
  4  6  1  0  0  0  0
  5  4  1  0  0  0  0
  7  4  1  0  0  0  0
  8  9  2  0  0  0  0
  9 11  1  0  0  0  0
  9 10  1  0  0  0  0
 11  3  1  6  0  0  0
 11 12  1  0  0  0  0
 12 15  1  0  0  0  0
 12 14  1  0  0  0  0
 13 12  1  0  0  0  0
 16 17  1  0  0  0  0
 17 18  2  0  0  0  0
 17 25  1  0  0  0  0
 18 19  1  0  0  0  0
 20 21  1  0  0  0  0
 20 18  1  0  0  0  0
 22 20  2  0  0  0  0
 23 22  1  0  0  0  0
 24 22  1  0  0  0  0
 24 16  2  0  0  0  0
 25 27  1  0  0  0  0
 26 25  1  0  0  0  0
 27 28  1  0  0  0  0
 27 29  1  0  0  0  0
 27 30  1  0  0  0  0
 31 33  1  0  0  0  0
 31 25  1  0  0  0  0
 31 32  1  0  0  0  0
 34 31  1  0  0  0  0
 35 36  1  0  0  0  0
 35 37  1  0  0  0  0
 35 24  1  0  0  0  0
 37 40  1  0  0  0  0
 38 37  1  0  0  0  0
 39 37  1  0  0  0  0
 41 35  1  0  0  0  0
 42 41  1  0  0  0  0
 43 41  1  0  0  0  0
 44 41  1  0  0  0  0
 45 48  1  0  0  0  0
 45  2  1  0  0  0  0
 46 45  1  0  0  0  0
 47 45  1  0  0  0  0
 48 51  1  0  0  0  0
 48 49  1  0  0  0  0
 50 48  1  0  0  0  0
 51  1  1  0  0  0  0
 52 51  1  0  0  0  0
 53 51  1  0  0  0  0
 54 55  1  0  0  0  0
 55 57  2  0  0  0  0
 56 55  1  0  0  0  0
 57 58  1  0  0  0  0
 59 57  1  0  0  0  0
 59 60  1  0  0  0  0
 61 59  2  0  0  0  0
 62 61  1  0  0  0  0
 63 54  2  0  0  0  0
 63 61  1  0  0  0  0
 64 63  1  0  0  0  0
 65 66  1  0  0  0  0
 66 68  2  0  0  0  0
 66 67  1  0  0  0  0
 68 69  1  0  0  0  0
 70 71  1  0  0  0  0
 70 68  1  0  0  0  0
 72 70  2  0  0  0  0
 73 72  1  0  0  0  0
 74 72  1  0  0  0  0
 74 65  2  0  0  0  0
 75 74  1  0  0  0  0
M  END
