1,2,3
q = 0.0, confidence = 0.916

 55 55  0  0  0  0  0  0  0  0999 V2000
   -1.6700   -0.0074   -0.0657 P   0  0  0  0  0  0  0  0  0  0  0  0
    0.6471    1.5598   -0.3645 N   0  0  0  0  0  2  0  0  0  0  0  0
    2.5320   -0.2168    0.0639 N   0  0  0  0  0  2  0  0  0  0  0  0
    2.9193    1.1076   -0.0025 C   0  0  0  0  0  0  0  0  0  0  0  0
    3.9744    1.3996    0.1226 H   0  0  0  0  0  0  0  0  0  0  0  0
    1.9492    2.0816   -0.2031 C   0  0  0  0  0  0  0  0  0  0  0  0
    2.1382    3.5041   -0.2187 C   0  0  0  0  0  0  0  0  0  0  0  0
    3.1602    3.8974   -0.0949 H   0  0  0  0  0  0  0  0  0  0  0  0
    1.0604    4.3527   -0.3659 C   0  0  0  0  0  0  0  0  0  0  0  0
    1.2024    5.4453   -0.3645 H   0  0  0  0  0  0  0  0  0  0  0  0
   -0.2581    3.7977   -0.5193 C   0  0  0  0  0  0  0  0  0  0  0  0
   -1.1384    4.4436   -0.6513 H   0  0  0  0  0  0  0  0  0  0  0  0
   -0.4064    2.4159   -0.5292 C   0  0  0  0  0  0  0  0  0  0  0  0
   -1.7385    1.7403   -0.7478 C   0  0  0  0  0  0  0  0  0  0  0  0
   -1.8964    1.6045   -1.8405 H   0  0  0  0  0  0  0  0  0  0  0  0
   -2.5838    2.3503   -0.3666 H   0  0  0  0  0  0  0  0  0  0  0  0
    3.6620   -1.1738    0.1867 C   0  0  0  0  0  0  0  0  0  0  0  0
    4.5691   -1.0776   -1.0630 C   0  0  0  0  0  0  0  0  0  0  0  0
    3.9654   -1.2915   -1.9677 H   0  0  0  0  0  0  0  0  0  0  0  0
    5.4066   -1.8058   -1.0118 H   0  0  0  0  0  0  0  0  0  0  0  0
    4.9984   -0.0621   -1.1757 H   0  0  0  0  0  0  0  0  0  0  0  0
    4.4818   -0.8713    1.4644 C   0  0  0  0  0  0  0  0  0  0  0  0
    4.9219    0.1450    1.4486 H   0  0  0  0  0  0  0  0  0  0  0  0
    5.3114   -1.5999    1.5827 H   0  0  0  0  0  0  0  0  0  0  0  0
    3.8218   -0.9403    2.3528 H   0  0  0  0  0  0  0  0  0  0  0  0
    3.1621   -2.6181    0.2940 C   0  0  0  0  0  0  0  0  0  0  0  0
    2.4790   -2.7354    1.1567 H   0  0  0  0  0  0  0  0  0  0  0  0
    4.0244   -3.3059    0.4231 H   0  0  0  0  0  0  0  0  0  0  0  0
    2.6061   -2.9113   -0.6154 H   0  0  0  0  0  0  0  0  0  0  0  0
   -3.0759   -0.8857   -1.0661 C   0  0  0  0  0  0  0  0  0  0  0  0
   -3.4604   -2.1993   -0.3636 C   0  0  0  0  0  0  0  0  0  0  0  0
   -4.1279   -2.7919   -1.0286 H   0  0  0  0  0  0  0  0  0  0  0  0
   -4.0108   -2.0252    0.5817 H   0  0  0  0  0  0  0  0  0  0  0  0
   -2.5670   -2.8169   -0.1434 H   0  0  0  0  0  0  0  0  0  0  0  0
   -2.4732   -1.2379   -2.4381 C   0  0  0  0  0  0  0  0  0  0  0  0
   -1.6020   -1.9103   -2.3320 H   0  0  0  0  0  0  0  0  0  0  0  0
   -2.1222   -0.3380   -2.9825 H   0  0  0  0  0  0  0  0  0  0  0  0
   -3.2508   -1.7358   -3.0605 H   0  0  0  0  0  0  0  0  0  0  0  0
   -4.3249   -0.0166   -1.2956 C   0  0  0  0  0  0  0  0  0  0  0  0
   -4.0860    0.9077   -1.8586 H   0  0  0  0  0  0  0  0  0  0  0  0
   -4.8277    0.2766   -0.3566 H   0  0  0  0  0  0  0  0  0  0  0  0
   -5.0632   -0.5868   -1.9037 H   0  0  0  0  0  0  0  0  0  0  0  0
   -2.2882    0.2055    1.7733 C   0  0  0  0  0  0  0  0  0  0  0  0
   -1.3905    1.3072    2.3673 C   0  0  0  0  0  0  0  0  0  0  0  0
   -1.5960    2.3054    1.9327 H   0  0  0  0  0  0  0  0  0  0  0  0
   -0.3199    1.0788    2.1865 H   0  0  0  0  0  0  0  0  0  0  0  0
   -1.5617    1.3690    3.4648 H   0  0  0  0  0  0  0  0  0  0  0  0
   -3.7561    0.6091    1.9530 C   0  0  0  0  0  0  0  0  0  0  0  0
   -3.9571    0.8197    3.0282 H   0  0  0  0  0  0  0  0  0  0  0  0
   -4.4587   -0.1902    1.6443 H   0  0  0  0  0  0  0  0  0  0  0  0
   -4.0074    1.5317    1.3896 H   0  0  0  0  0  0  0  0  0  0  0  0
   -1.9862   -1.1021    2.5234 C   0  0  0  0  0  0  0  0  0  0  0  0
   -2.1219   -0.9491    3.6172 H   0  0  0  0  0  0  0  0  0  0  0  0
   -0.9366   -1.4116    2.3336 H   0  0  0  0  0  0  0  0  0  0  0  0
   -2.6437   -1.9365    2.2133 H   0  0  0  0  0  0  0  0  0  0  0  0
  1 43  1  0  0  0  0
  2  6  1  0  0  0  0
  3 17  1  0  0  0  0
  4  3  1  0  0  0  0
  4  5  1  0  0  0  0
  6  4  2  0  0  0  0
  7  6  1  0  0  0  0
  7  8  1  0  0  0  0
  9 10  1  0  0  0  0
  9  7  2  0  0  0  0
 11  9  1  0  0  0  0
 12 11  1  0  0  0  0
 13 11  2  0  0  0  0
 13  2  1  0  0  0  0
 14 13  1  0  0  0  0
 14 16  1  0  0  0  0
 14  1  1  0  0  0  0
 15 14  1  0  0  0  0
 17 26  1  0  0  0  0
 17 22  1  0  0  0  0
 18 20  1  0  0  0  0
 18 17  1  0  0  0  0
 19 18  1  0  0  0  0
 21 18  1  0  0  0  0
 22 24  1  0  0  0  0
 22 25  1  0  0  0  0
 23 22  1  0  0  0  0
 26 28  1  0  0  0  0
 26 27  1  0  0  0  0
 29 26  1  0  0  0  0
 30 31  1  0  0  0  0
 30  1  1  0  0  0  0
 31 34  1  0  0  0  0
 31 33  1  0  0  0  0
 32 31  1  0  0  0  0
 35 36  1  0  0  0  0
 35 30  1  0  0  0  0
 37 35  1  0  0  0  0
 38 35  1  0  0  0  0
 39 30  1  0  0  0  0
 39 41  1  0  0  0  0
 40 39  1  0  0  0  0
 42 39  1  0  0  0  0
 43 48  1  0  0  0  0
 43 44  1  0  0  0  0
 43 52  1  0  0  0  0
 44 47  1  0  0  0  0
 45 44  1  0  0  0  0
 46 44  1  0  0  0  0
 48 49  1  0  0  0  0
 50 48  1  0  0  0  0
 51 48  1  0  0  0  0
 52 53  1  0  0  0  0
 54 52  1  0  0  0  0
 55 52  1  0  0  0  0
M  END
