1,2,3
q = 0.0, confidence = 1.0

 58 59  0  0  1  0  0  0  0  0999 V2000
    1.7431   -0.9133    0.0139 P   0  0  0  0  0  0  0  0  0  0  0  0
    0.9832    1.8776   -0.0756 N   0  0  0  0  0  2  0  0  0  0  0  0
   -1.6967    1.8140    0.2387 N   0  0  0  0  0  0  0  0  0  0  0  0
   -1.8093    1.8713   -0.7974 H   0  0  0  0  0  0  0  0  0  0  0  0
   -0.9855    3.0173    0.7161 C   0  0  0  0  0  0  0  0  0  0  0  0
   -0.9253    2.9408    1.8249 H   0  0  0  0  0  0  0  0  0  0  0  0
   -1.5427    3.9532    0.4814 H   0  0  0  0  0  0  0  0  0  0  0  0
    0.4187    3.0819    0.1717 C   0  0  1  0  0  3  0  0  0  0  0  0
    1.1309    4.2709   -0.0289 C   0  0  0  0  0  0  0  0  0  0  0  0
    0.6528    5.2407    0.1702 H   0  0  0  0  0  0  0  0  0  0  0  0
    2.4561    4.1919   -0.4819 C   0  0  0  0  0  0  0  0  0  0  0  0
    3.0445    5.1081   -0.6389 H   0  0  0  0  0  0  0  0  0  0  0  0
    3.0176    2.9367   -0.7548 C   0  0  0  0  0  0  0  0  0  0  0  0
    4.0443    2.8483   -1.1374 H   0  0  0  0  0  0  0  0  0  0  0  0
    2.2470    1.7784   -0.5634 C   0  0  0  0  0  0  0  0  0  0  0  0
    2.7132    0.3964   -0.9289 C   0  0  0  0  0  0  0  0  0  0  0  0
    3.8152    0.2973   -0.8634 H   0  0  0  0  0  0  0  0  0  0  0  0
    2.4147    0.2253   -1.9873 H   0  0  0  0  0  0  0  0  0  0  0  0
   -2.9995    1.6627    0.9119 C   0  0  0  0  0  0  0  0  0  0  0  0
   -3.5911    2.6029    0.7782 H   0  0  0  0  0  0  0  0  0  0  0  0
   -2.7986    1.5675    1.9988 H   0  0  0  0  0  0  0  0  0  0  0  0
   -3.8237    0.4818    0.4526 C   0  0  0  0  0  0  0  0  0  0  0  0
   -4.6619   -0.1596    1.3852 C   0  0  0  0  0  0  0  0  0  0  0  0
   -4.6712    0.1844    2.4321 H   0  0  0  0  0  0  0  0  0  0  0  0
   -5.4688   -1.2401    1.0027 C   0  0  0  0  0  0  0  0  0  0  0  0
   -6.1098   -1.7350    1.7482 H   0  0  0  0  0  0  0  0  0  0  0  0
   -5.4412   -1.7005   -0.3226 C   0  0  0  0  0  0  0  0  0  0  0  0
   -6.0618   -2.5582   -0.6236 H   0  0  0  0  0  0  0  0  0  0  0  0
   -4.6043   -1.0710   -1.2557 C   0  0  0  0  0  0  0  0  0  0  0  0
   -4.5573   -1.4369   -2.2927 H   0  0  0  0  0  0  0  0  0  0  0  0
   -3.8034    0.0167   -0.8772 C   0  0  0  0  0  0  0  0  0  0  0  0
   -3.1154    0.4523   -1.6199 H   0  0  0  0  0  0  0  0  0  0  0  0
    2.7273   -1.1209    1.6554 C   0  0  0  0  0  0  0  0  0  0  0  0
    2.9299    0.2957    2.2287 C   0  0  0  0  0  0  0  0  0  0  0  0
    3.3679    0.2117    3.2458 H   0  0  0  0  0  0  0  0  0  0  0  0
    1.9667    0.8363    2.3104 H   0  0  0  0  0  0  0  0  0  0  0  0
    3.6279    0.9034    1.6191 H   0  0  0  0  0  0  0  0  0  0  0  0
    1.8611   -1.9226    2.6443 C   0  0  0  0  0  0  0  0  0  0  0  0
    1.7172   -2.9730    2.3310 H   0  0  0  0  0  0  0  0  0  0  0  0
    0.8629   -1.4557    2.7544 H   0  0  0  0  0  0  0  0  0  0  0  0
    2.3558   -1.9329    3.6389 H   0  0  0  0  0  0  0  0  0  0  0  0
    4.1036   -1.7819    1.4881 C   0  0  0  0  0  0  0  0  0  0  0  0
    4.7461   -1.2425    0.7626 H   0  0  0  0  0  0  0  0  0  0  0  0
    4.0330   -2.8400    1.1727 H   0  0  0  0  0  0  0  0  0  0  0  0
    4.6330   -1.7669    2.4650 H   0  0  0  0  0  0  0  0  0  0  0  0
    1.9448   -2.4790   -1.0767 C   0  0  0  0  0  0  0  0  0  0  0  0
    0.9176   -2.3645   -2.2172 C   0  0  0  0  0  0  0  0  0  0  0  0
    1.0368   -3.2429   -2.8872 H   0  0  0  0  0  0  0  0  0  0  0  0
    1.0387   -1.4444   -2.8204 H   0  0  0  0  0  0  0  0  0  0  0  0
   -0.1197   -2.3492   -1.8356 H   0  0  0  0  0  0  0  0  0  0  0  0
    3.3502   -2.6073   -1.6915 C   0  0  0  0  0  0  0  0  0  0  0  0
    4.1556   -2.6756   -0.9388 H   0  0  0  0  0  0  0  0  0  0  0  0
    3.5806   -1.7657   -2.3741 H   0  0  0  0  0  0  0  0  0  0  0  0
    3.3878   -3.5345   -2.3026 H   0  0  0  0  0  0  0  0  0  0  0  0
    1.6009   -3.7279   -0.2449 C   0  0  0  0  0  0  0  0  0  0  0  0
    1.5517   -4.6055   -0.9240 H   0  0  0  0  0  0  0  0  0  0  0  0
    0.6114   -3.6337    0.2447 H   0  0  0  0  0  0  0  0  0  0  0  0
    2.3603   -3.9539    0.5281 H   0  0  0  0  0  0  0  0  0  0  0  0
  1 33  1  0  0  0  0
  2  8  1  0  0  0  0
  3  5  1  0  0  0  0
  3 19  1  0  0  0  0
  4  3  1  0  0  0  0
  5  6  1  0  0  0  0
  7  5  1  0  0  0  0
  8  5  1  1  0  0  0
  9 10  1  0  0  0  0
  9  8  1  0  0  0  0
 11  9  2  0  0  0  0
 12 11  1  0  0  0  0
 13 15  2  0  0  0  0
 13 11  1  0  0  0  0
 14 13  1  0  0  0  0
 15  2  1  0  0  0  0
 16 17  1  0  0  0  0
 16 15  1  0  0  0  0
 16  1  1  0  0  0  0
 18 16  1  0  0  0  0
 19 21  1  0  0  0  0
 20 19  1  0  0  0  0
 22 19  1  0  0  0  0
 22 23  1  0  0  0  0
 23 24  1  0  0  0  0
 25 23  2  0  0  0  0
 25 26  1  0  0  0  0
 27 25  1  0  0  0  0
 28 27  1  0  0  0  0
 29 31  1  0  0  0  0
 29 27  2  0  0  0  0
 30 29  1  0  0  0  0
 31 22  2  0  0  0  0
 32 31  1  0  0  0  0
 33 34  1  0  0  0  0
 33 38  1  0  0  0  0
 34 36  1  0  0  0  0
 34 35  1  0  0  0  0
 37 34  1  0  0  0  0
 38 40  1  0  0  0  0
 38 41  1  0  0  0  0
 39 38  1  0  0  0  0
 42 33  1  0  0  0  0
 42 45  1  0  0  0  0
 43 42  1  0  0  0  0
 44 42  1  0  0  0  0
 46 55  1  0  0  0  0
 46  1  1  0  0  0  0
 47 50  1  0  0  0  0
 47 46  1  0  0  0  0
 48 47  1  0  0  0  0
 49 47  1  0  0  0  0
 51 46  1  0  0  0  0
 51 52  1  0  0  0  0
 53 51  1  0  0  0  0
 54 51  1  0  0  0  0
 55 57  1  0  0  0  0
 55 58  1  0  0  0  0
 56 55  1  0  0  0  0
M  END
