1,2,38
q = -2.0, confidence = 0.744

 70 74  0  0  0  0  0  0  0  0999 V2000
   -0.0012    1.8129    0.3481 P   0  0  2  0  0  0  0  0  0  0  0  0
    1.8677   -0.5145    0.3625 N   0  0  0  0  0  2  0  0  0  0  0  0
    1.4683    1.6920    1.3604 C   0  0  0  0  0  0  0  0  0  0  0  0
    2.9240   -1.4332    0.0253 C   0  0  0  0  0  0  0  0  0  0  0  0
    3.0870   -2.6366    0.7609 C   0  0  0  0  0  0  0  0  0  0  0  0
    3.3759    0.5226    2.1705 C   0  0  0  0  0  0  0  0  0  0  0  0
    4.3044    0.1485    1.6944 H   0  0  0  0  0  0  0  0  0  0  0  0
    3.1628   -0.1688    3.0179 H   0  0  0  0  0  0  0  0  0  0  0  0
   -0.0026    3.4586   -0.4460 C   0  0  0  0  0  0  0  0  0  0  0  0
    2.1940    0.5292    1.2190 C   0  0  0  0  0  0  0  0  0  0  0  0
    3.8033   -1.0939   -1.0385 C   0  0  0  0  0  0  0  0  0  0  0  0
    4.1259   -3.5097    0.3880 C   0  0  0  0  0  0  0  0  0  0  0  0
    4.2610   -4.4471    0.9499 H   0  0  0  0  0  0  0  0  0  0  0  0
    2.0256    2.5619    2.4633 C   0  0  0  0  0  0  0  0  0  0  0  0
    1.4311    2.4495    3.4006 H   0  0  0  0  0  0  0  0  0  0  0  0
    2.0160    3.6441    2.2165 H   0  0  0  0  0  0  0  0  0  0  0  0
   -1.2218    4.0775   -0.7887 C   0  0  0  0  0  0  0  0  0  0  0  0
   -2.1715    3.5824   -0.5297 H   0  0  0  0  0  0  0  0  0  0  0  0
   -1.2200    5.3117   -1.4545 C   0  0  0  0  0  0  0  0  0  0  0  0
   -2.1749    5.7923   -1.7169 H   0  0  0  0  0  0  0  0  0  0  0  0
   -0.0048    5.9325   -1.7875 C   0  0  0  0  0  0  0  0  0  0  0  0
   -0.0056    6.9008   -2.3106 H   0  0  0  0  0  0  0  0  0  0  0  0
    4.8245   -2.0004   -1.3786 C   0  0  0  0  0  0  0  0  0  0  0  0
    5.5065   -1.7499   -2.2061 H   0  0  0  0  0  0  0  0  0  0  0  0
    4.9828   -3.2026   -0.6766 C   0  0  0  0  0  0  0  0  0  0  0  0
    5.7863   -3.9011   -0.9553 H   0  0  0  0  0  0  0  0  0  0  0  0
    3.4589    1.9957    2.6301 C   0  0  0  0  0  0  0  0  0  0  0  0
    4.1435    2.5455    1.9509 H   0  0  0  0  0  0  0  0  0  0  0  0
    3.8567    2.1068    3.6579 H   0  0  0  0  0  0  0  0  0  0  0  0
    2.1672   -2.9934    1.8991 C   0  0  0  0  0  0  0  0  0  0  0  0
    1.2291   -3.4442    1.5103 H   0  0  0  0  0  0  0  0  0  0  0  0
    1.8747   -2.1086    2.4974 H   0  0  0  0  0  0  0  0  0  0  0  0
    2.6389   -3.7338    2.5732 H   0  0  0  0  0  0  0  0  0  0  0  0
    3.6484    0.2127   -1.7737 C   0  0  0  0  0  0  0  0  0  0  0  0
    3.6517    1.0770   -1.0770 H   0  0  0  0  0  0  0  0  0  0  0  0
    2.6843    0.2641   -2.3223 H   0  0  0  0  0  0  0  0  0  0  0  0
    4.4657    0.3539   -2.5059 H   0  0  0  0  0  0  0  0  0  0  0  0
   -1.8668   -0.5171    0.3627 N   0  0  0  0  0  2  0  0  0  0  0  0
   -1.4701    1.6897    1.3610 C   0  0  0  0  0  0  0  0  0  0  0  0
   -2.9221   -1.4369    0.0253 C   0  0  0  0  0  0  0  0  0  0  0  0
   -3.0837   -2.6408    0.7604 C   0  0  0  0  0  0  0  0  0  0  0  0
   -3.3756    0.5174    2.1717 C   0  0  0  0  0  0  0  0  0  0  0  0
   -4.3038    0.1421    1.6959 H   0  0  0  0  0  0  0  0  0  0  0  0
   -3.1611   -0.1739    3.0188 H   0  0  0  0  0  0  0  0  0  0  0  0
   -2.1942    0.5259    1.2196 C   0  0  0  0  0  0  0  0  0  0  0  0
   -3.8019   -1.0981   -1.0382 C   0  0  0  0  0  0  0  0  0  0  0  0
   -4.1217   -3.5148    0.3872 C   0  0  0  0  0  0  0  0  0  0  0  0
   -4.2557   -4.4526    0.9488 H   0  0  0  0  0  0  0  0  0  0  0  0
   -2.0281    2.5585    2.4644 C   0  0  0  0  0  0  0  0  0  0  0  0
   -1.4330    2.4467    3.4014 H   0  0  0  0  0  0  0  0  0  0  0  0
   -2.0201    3.6408    2.2179 H   0  0  0  0  0  0  0  0  0  0  0  0
    1.2155    4.0792   -0.7895 C   0  0  0  0  0  0  0  0  0  0  0  0
    2.1661    3.5854   -0.5311 H   0  0  0  0  0  0  0  0  0  0  0  0
    1.2115    5.3134   -1.4553 C   0  0  0  0  0  0  0  0  0  0  0  0
    2.1655    5.7953   -1.7184 H   0  0  0  0  0  0  0  0  0  0  0  0
   -4.8221   -2.0056   -1.3786 C   0  0  0  0  0  0  0  0  0  0  0  0
   -5.5045   -1.7554   -2.2059 H   0  0  0  0  0  0  0  0  0  0  0  0
   -4.9791   -3.2082   -0.6772 C   0  0  0  0  0  0  0  0  0  0  0  0
   -5.7819   -3.9075   -0.9560 H   0  0  0  0  0  0  0  0  0  0  0  0
   -3.4605    1.9902    2.6317 C   0  0  0  0  0  0  0  0  0  0  0  0
   -4.1462    2.5392    1.9530 H   0  0  0  0  0  0  0  0  0  0  0  0
   -3.8580    2.1005    3.6598 H   0  0  0  0  0  0  0  0  0  0  0  0
   -2.1634   -2.9971    1.8984 C   0  0  0  0  0  0  0  0  0  0  0  0
   -1.2256   -3.4483    1.5094 H   0  0  0  0  0  0  0  0  0  0  0  0
   -1.8705   -2.1122    2.4961 H   0  0  0  0  0  0  0  0  0  0  0  0
   -2.6350   -3.7372    2.5730 H   0  0  0  0  0  0  0  0  0  0  0  0
   -3.6486    0.2090   -1.7729 C   0  0  0  0  0  0  0  0  0  0  0  0
   -3.6529    1.0730   -1.0758 H   0  0  0  0  0  0  0  0  0  0  0  0
   -2.6846    0.2618   -2.3215 H   0  0  0  0  0  0  0  0  0  0  0  0
   -4.4660    0.3495   -2.5050 H   0  0  0  0  0  0  0  0  0  0  0  0
  1  9  1  1  0  0  0
  1  3  1  0  0  0  0
  1 39  1  0  0  0  0
  2 10  1  0  0  0  0
  3 14  1  0  0  0  0
  4  2  1  0  0  0  0
  4  5  1  0  0  0  0
  5 30  1  0  0  0  0
  6 27  1  0  0  0  0
  6  8  1  0  0  0  0
  7  6  1  0  0  0  0
 10  3  2  0  0  0  0
 10  6  1  0  0  0  0
 11  4  2  0  0  0  0
 12  5  2  0  0  0  0
 12 13  1  0  0  0  0
 14 27  1  0  0  0  0
 14 15  1  0  0  0  0
 16 14  1  0  0  0  0
 17 18  1  0  0  0  0
 17  9  1  0  0  0  0
 19 17  2  0  0  0  0
 20 19  1  0  0  0  0
 21 54  2  0  0  0  0
 21 19  1  0  0  0  0
 22 21  1  0  0  0  0
 23 11  1  0  0  0  0
 23 25  2  0  0  0  0
 24 23  1  0  0  0  0
 25 12  1  0  0  0  0
 26 25  1  0  0  0  0
 27 29  1  0  0  0  0
 28 27  1  0  0  0  0
 30 32  1  0  0  0  0
 30 33  1  0  0  0  0
 31 30  1  0  0  0  0
 34 35  1  0  0  0  0
 34 11  1  0  0  0  0
 36 34  1  0  0  0  0
 37 34  1  0  0  0  0
 38 45  1  0  0  0  0
 39 49  1  0  0  0  0
 40 38  1  0  0  0  0
 40 41  1  0  0  0  0
 41 63  1  0  0  0  0
 42 60  1  0  0  0  0
 42 44  1  0  0  0  0
 43 42  1  0  0  0  0
 45 39  2  0  0  0  0
 45 42  1  0  0  0  0
 46 40  2  0  0  0  0
 47 41  2  0  0  0  0
 47 48  1  0  0  0  0
 49 60  1  0  0  0  0
 49 50  1  0  0  0  0
 51 49  1  0  0  0  0
 52 53  1  0  0  0  0
 52  9  2  0  0  0  0
 54 52  1  0  0  0  0
 55 54  1  0  0  0  0
 56 46  1  0  0  0  0
 56 58  2  0  0  0  0
 57 56  1  0  0  0  0
 58 47  1  0  0  0  0
 59 58  1  0  0  0  0
 60 62  1  0  0  0  0
 61 60  1  0  0  0  0
 63 65  1  0  0  0  0
 63 66  1  0  0  0  0
 64 63  1  0  0  0  0
 67 68  1  0  0  0  0
 67 46  1  0  0  0  0
 69 67  1  0  0  0  0
 70 67  1  0  0  0  0
M  END
