1,14,19
q = -1.0, confidence = 0.014

 52 55  0  0  0  0  0  0  0  0999 V2000
    1.6241    0.2330   -0.0206 P   0  0  0  0  0  0  0  0  0  0  0  0
    2.4629   -1.1217   -0.9507 C   0  0  0  0  0  0  0  0  0  0  0  0
    3.8143   -0.9192   -1.2947 C   0  0  0  0  0  0  0  0  0  0  0  0
    4.2825    0.0441   -1.0414 H   0  0  0  0  0  0  0  0  0  0  0  0
    4.5714   -1.8952   -1.9560 C   0  0  0  0  0  0  0  0  0  0  0  0
    5.6214   -1.6962   -2.2164 H   0  0  0  0  0  0  0  0  0  0  0  0
    3.9701   -3.1198   -2.2826 C   0  0  0  0  0  0  0  0  0  0  0  0
    4.5418   -3.9040   -2.8007 H   0  0  0  0  0  0  0  0  0  0  0  0
    2.6324   -3.3405   -1.9528 C   0  0  0  0  0  0  0  0  0  0  0  0
    2.1671   -4.3022   -2.2191 H   0  0  0  0  0  0  0  0  0  0  0  0
    1.8318   -2.3637   -1.2943 C   0  0  0  0  0  0  0  0  0  0  0  0
    0.4622   -2.8123   -1.0576 C   0  0  0  0  0  3  0  0  0  0  0  0
    0.2780   -3.8736   -1.3163 H   0  0  0  0  0  0  0  0  0  0  0  0
   -0.5705   -2.1452   -0.6003 N   0  0  0  0  0  2  0  0  0  0  0  0
   -1.7355   -2.7710   -0.3529 N   0  0  0  0  0  0  0  0  0  0  0  0
   -1.8225   -3.7813   -0.5164 H   0  0  0  0  0  0  0  0  0  0  0  0
   -2.9764   -2.0472   -0.2641 C   0  0  0  0  0  0  0  0  0  0  0  0
   -4.0062   -2.7098   -0.2148 O   0  0  0  0  0  0  0  0  0  0  0  0
   -2.7908   -0.6875   -0.2493 N   0  0  0  0  0  2  0  0  0  0  0  0
   -3.9352    0.1535   -0.1765 C   0  0  0  0  0  0  0  0  0  0  0  0
   -4.9890   -0.0969    0.7280 C   0  0  0  0  0  0  0  0  0  0  0  0
   -4.9455   -0.9810    1.3770 H   0  0  0  0  0  0  0  0  0  0  0  0
   -6.0848    0.7741    0.7856 C   0  0  0  0  0  0  0  0  0  0  0  0
   -6.9004    0.5694    1.4965 H   0  0  0  0  0  0  0  0  0  0  0  0
   -6.1468    1.9016   -0.0494 C   0  0  0  0  0  0  0  0  0  0  0  0
   -7.0091    2.5836    0.0023 H   0  0  0  0  0  0  0  0  0  0  0  0
   -5.0992    2.1514   -0.9496 C   0  0  0  0  0  0  0  0  0  0  0  0
   -5.1344    3.0317   -1.6096 H   0  0  0  0  0  0  0  0  0  0  0  0
   -4.0010    1.2844   -1.0162 C   0  0  0  0  0  0  0  0  0  0  0  0
   -3.1787    1.4719   -1.7208 H   0  0  0  0  0  0  0  0  0  0  0  0
    2.3768    1.7738   -0.6835 C   0  0  0  0  0  0  0  0  0  0  0  0
    3.4141    2.4520   -0.0123 C   0  0  0  0  0  0  0  0  0  0  0  0
    3.7969    2.0660    0.9444 H   0  0  0  0  0  0  0  0  0  0  0  0
    3.9528    3.6265   -0.5606 C   0  0  0  0  0  0  0  0  0  0  0  0
    4.7610    4.1538   -0.0313 H   0  0  0  0  0  0  0  0  0  0  0  0
    3.4598    4.1280   -1.7750 C   0  0  0  0  0  0  0  0  0  0  0  0
    3.8807    5.0516   -2.2007 H   0  0  0  0  0  0  0  0  0  0  0  0
    2.4224    3.4551   -2.4415 C   0  0  0  0  0  0  0  0  0  0  0  0
    2.0258    3.8516   -3.3884 H   0  0  0  0  0  0  0  0  0  0  0  0
    1.8761    2.2836   -1.9001 C   0  0  0  0  0  0  0  0  0  0  0  0
    1.0524    1.7620   -2.4107 H   0  0  0  0  0  0  0  0  0  0  0  0
    2.2489    0.1205    1.6959 C   0  0  0  0  0  0  0  0  0  0  0  0
    1.6942    1.0301    2.6239 C   0  0  0  0  0  0  0  0  0  0  0  0
    0.9352    1.7564    2.2882 H   0  0  0  0  0  0  0  0  0  0  0  0
    2.0928    0.9805    3.9660 C   0  0  0  0  0  0  0  0  0  0  0  0
    1.6587    1.6886    4.6879 H   0  0  0  0  0  0  0  0  0  0  0  0
    3.0305    0.0228    4.3922 C   0  0  0  0  0  0  0  0  0  0  0  0
    3.3351   -0.0169    5.4491 H   0  0  0  0  0  0  0  0  0  0  0  0
    3.5739   -0.8853    3.4710 C   0  0  0  0  0  0  0  0  0  0  0  0
    4.3055   -1.6379    3.8023 H   0  0  0  0  0  0  0  0  0  0  0  0
    3.1865   -0.8382    2.1214 C   0  0  0  0  0  0  0  0  0  0  0  0
    3.6125   -1.5517    1.4004 H   0  0  0  0  0  0  0  0  0  0  0  0
  1 42  1  0  0  0  0
  2  1  1  0  0  0  0
  3  4  1  0  0  0  0
  3  2  2  0  0  0  0
  5  3  1  0  0  0  0
  6  5  1  0  0  0  0
  7  5  2  0  0  0  0
  7  9  1  0  0  0  0
  8  7  1  0  0  0  0
  9 11  2  0  0  0  0
 10  9  1  0  0  0  0
 11 12  1  0  0  0  0
 11  2  1  0  0  0  0
 12 14  1  0  0  0  0
 13 12  1  0  0  0  0
 14 15  1  0  0  0  0
 15 17  1  0  0  0  0
 16 15  1  0  0  0  0
 17 19  1  0  0  0  0
 17 18  2  0  0  0  0
 19 20  1  0  0  0  0
 20 21  1  0  0  0  0
 21 23  2  0  0  0  0
 21 22  1  0  0  0  0
 23 24  1  0  0  0  0
 25 26  1  0  0  0  0
 25 23  1  0  0  0  0
 27 25  2  0  0  0  0
 28 27  1  0  0  0  0
 29 27  1  0  0  0  0
 29 20  2  0  0  0  0
 30 29  1  0  0  0  0
 31  1  1  0  0  0  0
 31 32  1  0  0  0  0
 32 33  1  0  0  0  0
 34 35  1  0  0  0  0
 34 32  2  0  0  0  0
 36 34  1  0  0  0  0
 37 36  1  0  0  0  0
 38 40  1  0  0  0  0
 38 36  2  0  0  0  0
 39 38  1  0  0  0  0
 40 31  2  0  0  0  0
 41 40  1  0  0  0  0
 42 51  2  0  0  0  0
 42 43  1  0  0  0  0
 43 45  2  0  0  0  0
 44 43  1  0  0  0  0
 45 47  1  0  0  0  0
 45 46  1  0  0  0  0
 47 48  1  0  0  0  0
 49 50  1  0  0  0  0
 49 47  2  0  0  0  0
 51 49  1  0  0  0  0
 52 51  1  0  0  0  0
M  END
