2,3,4
q = -1.0, confidence = 0.016

 72 77  0  0  1  0  0  0  0  0999 V2000
   -2.5732    0.2303   -0.0624 P   0  0  0  0  0  4  0  0  0  0  0  0
    2.8527   -0.5153   -0.1055 P   0  0  0  0  0  0  0  0  0  0  0  0
   -1.4155   -0.7950   -0.5452 N   0  0  0  0  0  2  0  0  0  0  0  0
    0.7171   -2.3713   -0.5613 N   0  0  0  0  0  2  0  0  0  0  0  0
   -0.4520   -3.0236   -0.7760 C   0  0  2  0  0  3  0  0  0  0  0  0
   -0.5145   -4.4164   -0.8015 C   0  0  0  0  0  0  0  0  0  0  0  0
   -1.4710   -4.9261   -0.9789 H   0  0  0  0  0  0  0  0  0  0  0  0
    0.6926   -5.1350   -0.6087 C   0  0  0  0  0  0  0  0  0  0  0  0
    0.6785   -6.2363   -0.6163 H   0  0  0  0  0  0  0  0  0  0  0  0
    1.8897   -4.4685   -0.4079 C   0  0  0  0  0  0  0  0  0  0  0  0
    2.8272   -5.0217   -0.2562 H   0  0  0  0  0  0  0  0  0  0  0  0
    1.9338   -3.0321   -0.3849 C   0  0  0  0  0  0  0  0  0  0  0  0
   -1.6456   -2.1355   -1.0681 C   0  0  0  0  0  0  0  0  0  0  0  0
   -1.7817   -2.1245   -2.1787 H   0  0  0  0  0  0  0  0  0  0  0  0
   -2.5651   -2.6054   -0.6519 H   0  0  0  0  0  0  0  0  0  0  0  0
    3.0951   -2.2579   -0.2128 C   0  0  0  0  0  3  0  0  0  0  0  0
    4.0801   -2.7339   -0.1126 H   0  0  0  0  0  0  0  0  0  0  0  0
   -4.0744   -0.6772    0.4549 C   0  0  0  0  0  0  0  0  0  0  0  0
   -4.9602   -1.1666   -0.5296 C   0  0  0  0  0  0  0  0  0  0  0  0
   -4.7942   -0.9197   -1.5897 H   0  0  0  0  0  0  0  0  0  0  0  0
   -6.0564   -1.9575   -0.1571 C   0  0  0  0  0  0  0  0  0  0  0  0
   -6.7440   -2.3364   -0.9283 H   0  0  0  0  0  0  0  0  0  0  0  0
   -6.2760   -2.2632    1.1960 C   0  0  0  0  0  0  0  0  0  0  0  0
   -7.1387   -2.8815    1.4869 H   0  0  0  0  0  0  0  0  0  0  0  0
   -5.3963   -1.7791    2.1774 C   0  0  0  0  0  0  0  0  0  0  0  0
   -5.5687   -2.0147    3.2384 H   0  0  0  0  0  0  0  0  0  0  0  0
   -4.2956   -0.9904    1.8111 C   0  0  0  0  0  0  0  0  0  0  0  0
   -3.6068   -0.6102    2.5804 H   0  0  0  0  0  0  0  0  0  0  0  0
   -1.9639    1.1612    1.3769 C   0  0  0  0  0  0  0  0  0  0  0  0
   -1.1048    0.4939    2.2739 C   0  0  0  0  0  0  0  0  0  0  0  0
   -0.7965   -0.5412    2.0622 H   0  0  0  0  0  0  0  0  0  0  0  0
   -0.6098    1.1720    3.3958 C   0  0  0  0  0  0  0  0  0  0  0  0
    0.0798    0.6586    4.0817 H   0  0  0  0  0  0  0  0  0  0  0  0
   -0.9677    2.5111    3.6212 C   0  0  0  0  0  0  0  0  0  0  0  0
   -0.5670    3.0463    4.4958 H   0  0  0  0  0  0  0  0  0  0  0  0
   -1.8230    3.1737    2.7260 C   0  0  0  0  0  0  0  0  0  0  0  0
   -2.0896    4.2279    2.8944 H   0  0  0  0  0  0  0  0  0  0  0  0
   -2.3223    2.5025    1.6007 C   0  0  0  0  0  0  0  0  0  0  0  0
   -2.9639    3.0317    0.8812 H   0  0  0  0  0  0  0  0  0  0  0  0
   -3.1474    1.4200   -1.3261 C   0  0  0  0  0  0  0  0  0  0  0  0
   -2.2938    1.6941   -2.4125 C   0  0  0  0  0  0  0  0  0  0  0  0
   -1.3122    1.2005   -2.4675 H   0  0  0  0  0  0  0  0  0  0  0  0
   -2.6966    2.6130   -3.3931 C   0  0  0  0  0  0  0  0  0  0  0  0
   -2.0278    2.8311   -4.2391 H   0  0  0  0  0  0  0  0  0  0  0  0
   -3.9400    3.2568   -3.2918 C   0  0  0  0  0  0  0  0  0  0  0  0
   -4.2504    3.9776   -4.0636 H   0  0  0  0  0  0  0  0  0  0  0  0
   -4.7918    2.9822   -2.2085 C   0  0  0  0  0  0  0  0  0  0  0  0
   -5.7684    3.4838   -2.1315 H   0  0  0  0  0  0  0  0  0  0  0  0
   -4.3995    2.0629   -1.2247 C   0  0  0  0  0  0  0  0  0  0  0  0
   -5.0716    1.8378   -0.3820 H   0  0  0  0  0  0  0  0  0  0  0  0
    3.2729    0.1214    1.5799 C   0  0  0  0  0  0  0  0  0  0  0  0
    2.6799    1.2972    2.0846 C   0  0  0  0  0  0  0  0  0  0  0  0
    1.9448    1.8413    1.4680 H   0  0  0  0  0  0  0  0  0  0  0  0
    3.0089    1.7487    3.3728 C   0  0  0  0  0  0  0  0  0  0  0  0
    2.5375    2.6655    3.7604 H   0  0  0  0  0  0  0  0  0  0  0  0
    3.9194    1.0331    4.1663 C   0  0  0  0  0  0  0  0  0  0  0  0
    4.1717    1.3883    5.1775 H   0  0  0  0  0  0  0  0  0  0  0  0
    4.5012   -0.1452    3.6693 C   0  0  0  0  0  0  0  0  0  0  0  0
    5.2089   -0.7164    4.2899 H   0  0  0  0  0  0  0  0  0  0  0  0
    4.1772   -0.6024    2.3835 C   0  0  0  0  0  0  0  0  0  0  0  0
    4.6147   -1.5381    2.0029 H   0  0  0  0  0  0  0  0  0  0  0  0
    4.0133    0.3628   -1.2212 C   0  0  0  0  0  0  0  0  0  0  0  0
    4.5272   -0.3257   -2.3380 C   0  0  0  0  0  0  0  0  0  0  0  0
    4.2573   -1.3844   -2.4805 H   0  0  0  0  0  0  0  0  0  0  0  0
    5.3678    0.3348   -3.2459 C   0  0  0  0  0  0  0  0  0  0  0  0
    5.7723   -0.2103   -4.1128 H   0  0  0  0  0  0  0  0  0  0  0  0
    5.6901    1.6876   -3.0509 C   0  0  0  0  0  0  0  0  0  0  0  0
    6.3483    2.2065   -3.7646 H   0  0  0  0  0  0  0  0  0  0  0  0
    5.1687    2.3788   -1.9444 C   0  0  0  0  0  0  0  0  0  0  0  0
    5.4149    3.4408   -1.7918 H   0  0  0  0  0  0  0  0  0  0  0  0
    4.3325    1.7227   -1.0304 C   0  0  0  0  0  0  0  0  0  0  0  0
    3.9227    2.2688   -0.1688 H   0  0  0  0  0  0  0  0  0  0  0  0
  1 18  1  0  0  0  0
  1 29  1  0  0  0  0
  2 51  1  0  0  0  0
  3  1  1  0  0  0  0
  4 12  1  0  0  0  0
  5 13  1  6  0  0  0
  5  4  1  0  0  0  0
  6  5  1  0  0  0  0
  6  8  2  0  0  0  0
  7  6  1  0  0  0  0
  8 10  1  0  0  0  0
  9  8  1  0  0  0  0
 10 12  2  0  0  0  0
 10 11  1  0  0  0  0
 12 16  1  0  0  0  0
 13 15  1  0  0  0  0
 13  3  1  0  0  0  0
 14 13  1  0  0  0  0
 16 17  1  0  0  0  0
 16  2  1  0  0  0  0
 18 27  1  0  0  0  0
 19 21  1  0  0  0  0
 19 18  2  0  0  0  0
 20 19  1  0  0  0  0
 21 23  2  0  0  0  0
 22 21  1  0  0  0  0
 23 24  1  0  0  0  0
 23 25  1  0  0  0  0
 25 26  1  0  0  0  0
 27 25  2  0  0  0  0
 27 28  1  0  0  0  0
 29 38  2  0  0  0  0
 29 30  1  0  0  0  0
 30 32  2  0  0  0  0
 31 30  1  0  0  0  0
 32 34  1  0  0  0  0
 32 33  1  0  0  0  0
 34 35  1  0  0  0  0
 36 37  1  0  0  0  0
 36 34  2  0  0  0  0
 38 36  1  0  0  0  0
 39 38  1  0  0  0  0
 40 49  1  0  0  0  0
 40  1  1  0  0  0  0
 41 40  2  0  0  0  0
 42 41  1  0  0  0  0
 43 45  2  0  0  0  0
 43 41  1  0  0  0  0
 44 43  1  0  0  0  0
 45 47  1  0  0  0  0
 46 45  1  0  0  0  0
 47 48  1  0  0  0  0
 47 49  2  0  0  0  0
 49 50  1  0  0  0  0
 51 52  2  0  0  0  0
 51 60  1  0  0  0  0
 52 54  1  0  0  0  0
 53 52  1  0  0  0  0
 54 55  1  0  0  0  0
 54 56  2  0  0  0  0
 56 57  1  0  0  0  0
 58 56  1  0  0  0  0
 58 59  1  0  0  0  0
 60 58  2  0  0  0  0
 61 60  1  0  0  0  0
 62 71  1  0  0  0  0
 62  2  1  0  0  0  0
 63 62  2  0  0  0  0
 64 63  1  0  0  0  0
 65 67  2  0  0  0  0
 65 63  1  0  0  0  0
 66 65  1  0  0  0  0
 67 69  1  0  0  0  0
 68 67  1  0  0  0  0
 69 70  1  0  0  0  0
 69 71  2  0  0  0  0
 71 72  1  0  0  0  0
M  END
