1,2,3
q = -1.0

 56 56  0  0  1  0  0  0  0  0999 V2000
   -1.6873    0.1807    0.0372 P   0  0  0  0  0  0  0  0  0  0  0  0
    0.8050    1.4897   -0.0926 N   0  0  0  0  0  2  0  0  0  0  0  0
    2.5787   -0.5104    0.0299 N   0  0  0  0  0  0  0  0  0  0  0  0
    3.0363    0.7782   -0.5581 C   0  0  0  0  0  0  0  0  0  0  0  0
    3.0168    0.6503   -1.6618 H   0  0  0  0  0  0  0  0  0  0  0  0
    4.0819    1.0186   -0.2631 H   0  0  0  0  0  0  0  0  0  0  0  0
    2.1007    1.8964   -0.1915 C   0  0  1  0  0  3  0  0  0  0  0  0
    2.4985    3.2177   -0.0582 C   0  0  0  0  0  0  0  0  0  0  0  0
    3.5584    3.4956   -0.1304 H   0  0  0  0  0  0  0  0  0  0  0  0
    1.4752    4.1945    0.1363 C   0  0  0  0  0  0  0  0  0  0  0  0
    1.7471    5.2567    0.2378 H   0  0  0  0  0  0  0  0  0  0  0  0
    0.1511    3.8174    0.1857 C   0  0  0  0  0  0  0  0  0  0  0  0
   -0.6457    4.5633    0.3179 H   0  0  0  0  0  0  0  0  0  0  0  0
   -0.2314    2.4277    0.0654 C   0  0  0  0  0  0  0  0  0  0  0  0
   -1.5409    1.9562    0.1009 C   0  0  0  0  0  3  0  0  0  0  0  0
   -2.3850    2.6517    0.2049 H   0  0  0  0  0  0  0  0  0  0  0  0
    3.2133   -1.6640   -0.6725 C   0  0  0  0  0  0  0  0  0  0  0  0
    2.8946   -1.5926   -1.7310 H   0  0  0  0  0  0  0  0  0  0  0  0
    2.7468   -2.5858   -0.2785 H   0  0  0  0  0  0  0  0  0  0  0  0
    4.7366   -1.7515   -0.5807 C   0  0  0  0  0  0  0  0  0  0  0  0
    5.2420   -0.8696   -1.0223 H   0  0  0  0  0  0  0  0  0  0  0  0
    5.0808   -2.6409   -1.1448 H   0  0  0  0  0  0  0  0  0  0  0  0
    5.0962   -1.8665    0.4617 H   0  0  0  0  0  0  0  0  0  0  0  0
    2.8561   -0.4973    1.4997 C   0  0  0  0  0  0  0  0  0  0  0  0
    2.2303    0.3130    1.9270 H   0  0  0  0  0  0  0  0  0  0  0  0
    3.9132   -0.1836    1.6639 H   0  0  0  0  0  0  0  0  0  0  0  0
    2.5964   -1.8099    2.2279 C   0  0  0  0  0  0  0  0  0  0  0  0
    1.5841   -2.2095    2.0274 H   0  0  0  0  0  0  0  0  0  0  0  0
    2.6848   -1.6399    3.3189 H   0  0  0  0  0  0  0  0  0  0  0  0
    3.3268   -2.5963    1.9553 H   0  0  0  0  0  0  0  0  0  0  0  0
   -3.0575   -0.2596   -1.2099 C   0  0  0  0  0  0  0  0  0  0  0  0
   -2.7910    0.5894   -2.4677 C   0  0  0  0  0  0  0  0  0  0  0  0
   -1.7918    0.3938   -2.8988 H   0  0  0  0  0  0  0  0  0  0  0  0
   -2.8661    1.6727   -2.2521 H   0  0  0  0  0  0  0  0  0  0  0  0
   -3.5470    0.3313   -3.2401 H   0  0  0  0  0  0  0  0  0  0  0  0
   -4.4570    0.0781   -0.6714 C   0  0  0  0  0  0  0  0  0  0  0  0
   -5.2048   -0.0833   -1.4774 H   0  0  0  0  0  0  0  0  0  0  0  0
   -4.5355    1.1377   -0.3553 H   0  0  0  0  0  0  0  0  0  0  0  0
   -4.7494   -0.5648    0.1809 H   0  0  0  0  0  0  0  0  0  0  0  0
   -2.9643   -1.7521   -1.5726 C   0  0  0  0  0  0  0  0  0  0  0  0
   -3.0747   -2.4145   -0.6939 H   0  0  0  0  0  0  0  0  0  0  0  0
   -1.9988   -1.9911   -2.0571 H   0  0  0  0  0  0  0  0  0  0  0  0
   -3.7742   -2.0050   -2.2901 H   0  0  0  0  0  0  0  0  0  0  0  0
   -2.1802   -0.3185    1.8342 C   0  0  0  0  0  0  0  0  0  0  0  0
   -3.2236    0.6263    2.4483 C   0  0  0  0  0  0  0  0  0  0  0  0
   -4.2134    0.5416    1.9634 H   0  0  0  0  0  0  0  0  0  0  0  0
   -2.8924    1.6814    2.3847 H   0  0  0  0  0  0  0  0  0  0  0  0
   -3.3580    0.3741    3.5229 H   0  0  0  0  0  0  0  0  0  0  0  0
   -2.6490   -1.7765    1.9363 C   0  0  0  0  0  0  0  0  0  0  0  0
   -2.7722   -2.0475    3.0076 H   0  0  0  0  0  0  0  0  0  0  0  0
   -1.9256   -2.4864    1.4923 H   0  0  0  0  0  0  0  0  0  0  0  0
   -3.6310   -1.9321    1.4482 H   0  0  0  0  0  0  0  0  0  0  0  0
   -0.8557   -0.1432    2.6050 C   0  0  0  0  0  0  0  0  0  0  0  0
   -1.0056   -0.3572    3.6856 H   0  0  0  0  0  0  0  0  0  0  0  0
   -0.4696    0.8924    2.5126 H   0  0  0  0  0  0  0  0  0  0  0  0
   -0.0842   -0.8545    2.2385 H   0  0  0  0  0  0  0  0  0  0  0  0
  1 15  1  0  0  0  0
  1 44  1  0  0  0  0
  2 14  1  0  0  0  0
  3 24  1  0  0  0  0
  4  6  1  0  0  0  0
  4  3  1  0  0  0  0
  5  4  1  0  0  0  0
  7  4  1  6  0  0  0
  7  2  1  0  0  0  0
  7  8  1  0  0  0  0
  8 10  2  0  0  0  0
  9  8  1  0  0  0  0
 10 12  1  0  0  0  0
 10 11  1  0  0  0  0
 12 13  1  0  0  0  0
 14 15  1  0  0  0  0
 14 12  2  0  0  0  0
 15 16  1  0  0  0  0
 17 20  1  0  0  0  0
 17 19  1  0  0  0  0
 17  3  1  0  0  0  0
 18 17  1  0  0  0  0
 20 23  1  0  0  0  0
 21 20  1  0  0  0  0
 22 20  1  0  0  0  0
 24 26  1  0  0  0  0
 24 25  1  0  0  0  0
 24 27  1  0  0  0  0
 27 29  1  0  0  0  0
 28 27  1  0  0  0  0
 30 27  1  0  0  0  0
 31 36  1  0  0  0  0
 31  1  1  0  0  0  0
 32 34  1  0  0  0  0
 32 31  1  0  0  0  0
 33 32  1  0  0  0  0
 35 32  1  0  0  0  0
 36 38  1  0  0  0  0
 36 39  1  0  0  0  0
 37 36  1  0  0  0  0
 40 31  1  0  0  0  0
 40 41  1  0  0  0  0
 42 40  1  0  0  0  0
 43 40  1  0  0  0  0
 44 49  1  0  0  0  0
 44 45  1  0  0  0  0
 44 53  1  0  0  0  0
 45 48  1  0  0  0  0
 46 45  1  0  0  0  0
 47 45  1  0  0  0  0
 49 50  1  0  0  0  0
 51 49  1  0  0  0  0
 52 49  1  0  0  0  0
 53 54  1  0  0  0  0
 55 53  1  0  0  0  0
 56 53  1  0  0  0  0
M  END
