1,5,6
q = -1.0, confidence = 0.032

 75 81  0  0  1  0  0  0  0  0999 V2000
    0.9872    1.6173    0.1933 P   0  0  0  0  0  0  0  0  0  0  0  0
   -3.1156   -2.8019   -0.9247 O   0  0  0  0  0  0  0  0  0  0  0  0
   -4.5775   -2.0407   -3.0302 O   0  0  0  0  0  0  0  0  0  0  0  0
   -4.0753   -2.4914   -2.2999 H   0  0  0  0  0  0  0  0  0  0  0  0
   -2.4295   -0.5888   -1.2028 N   0  0  0  0  0  2  0  0  0  0  0  0
    0.0460   -1.2414   -0.3651 N   0  0  0  0  0  2  0  0  0  0  0  0
    1.3660    3.3814   -0.0793 C   0  0  0  0  0  0  0  0  0  0  0  0
    1.1567    3.9232   -1.3643 C   0  0  0  0  0  0  0  0  0  0  0  0
    0.7102    3.2993   -2.1524 H   0  0  0  0  0  0  0  0  0  0  0  0
    1.4966    5.2585   -1.6180 C   0  0  0  0  0  0  0  0  0  0  0  0
    1.3293    5.6820   -2.6196 H   0  0  0  0  0  0  0  0  0  0  0  0
    2.0292    6.0588   -0.5931 C   0  0  0  0  0  0  0  0  0  0  0  0
    2.2849    7.1103   -0.7938 H   0  0  0  0  0  0  0  0  0  0  0  0
    2.2249    5.5227    0.6894 C   0  0  0  0  0  0  0  0  0  0  0  0
    2.6340    6.1507    1.4952 H   0  0  0  0  0  0  0  0  0  0  0  0
    1.8953    4.1836    0.9502 C   0  0  0  0  0  0  0  0  0  0  0  0
    2.0453    3.7616    1.9554 H   0  0  0  0  0  0  0  0  0  0  0  0
    0.8772    1.3891    2.0067 C   0  0  0  0  0  0  0  0  0  0  0  0
    1.9134    0.8034    2.7588 C   0  0  0  0  0  0  0  0  0  0  0  0
    2.8457    0.4932    2.2631 H   0  0  0  0  0  0  0  0  0  0  0  0
    1.7491    0.6107    4.1396 C   0  0  0  0  0  0  0  0  0  0  0  0
    2.5562    0.1450    4.7252 H   0  0  0  0  0  0  0  0  0  0  0  0
    0.5588    1.0068    4.7690 C   0  0  0  0  0  0  0  0  0  0  0  0
    0.4310    0.8502    5.8508 H   0  0  0  0  0  0  0  0  0  0  0  0
   -0.4735    1.5960    4.0185 C   0  0  0  0  0  0  0  0  0  0  0  0
   -1.4101    1.9001    4.5094 H   0  0  0  0  0  0  0  0  0  0  0  0
   -0.3231    1.7825    2.6381 C   0  0  0  0  0  0  0  0  0  0  0  0
   -1.1348    2.2218    2.0356 H   0  0  0  0  0  0  0  0  0  0  0  0
    2.4878    0.7183   -0.3607 C   0  0  0  0  0  0  0  0  0  0  0  0
    3.6377    1.4499   -0.7718 C   0  0  0  0  0  0  0  0  0  0  0  0
    3.6567    2.5399   -0.6329 H   0  0  0  0  0  0  0  0  0  0  0  0
    4.7228    0.8015   -1.3323 C   0  0  0  0  0  0  0  0  0  0  0  0
    5.6187    1.3710   -1.6238 H   0  0  0  0  0  0  0  0  0  0  0  0
    4.6870   -0.5989   -1.5777 C   0  0  0  0  0  0  0  0  0  0  0  0
    5.7660   -1.2590   -2.2367 C   0  0  0  0  0  0  0  0  0  0  0  0
    6.6485   -0.6646   -2.5190 H   0  0  0  0  0  0  0  0  0  0  0  0
    5.6990   -2.6096   -2.5352 C   0  0  0  0  0  0  0  0  0  0  0  0
    6.5344   -3.1069   -3.0502 H   0  0  0  0  0  0  0  0  0  0  0  0
    4.5345   -3.3479   -2.1964 C   0  0  0  0  0  0  0  0  0  0  0  0
    4.4638   -4.4117   -2.4681 H   0  0  0  0  0  0  0  0  0  0  0  0
    3.4784   -2.7408   -1.5347 C   0  0  0  0  0  0  0  0  0  0  0  0
    2.5843   -3.3322   -1.2990 H   0  0  0  0  0  0  0  0  0  0  0  0
    3.5234   -1.3567   -1.1789 C   0  0  0  0  0  0  0  0  0  0  0  0
    2.4423   -0.6807   -0.4954 C   0  0  0  0  0  0  0  0  0  0  0  0
    1.3101   -1.5060    0.0209 C   0  0  0  0  0  0  0  0  0  0  0  0
    1.5713   -2.6239    0.8910 C   0  0  0  0  0  0  0  0  0  0  0  0
    2.8257   -2.8120    1.5442 C   0  0  0  0  0  0  0  0  0  0  0  0
    3.6318   -2.0836    1.3820 H   0  0  0  0  0  0  0  0  0  0  0  0
    3.0241   -3.8920    2.3909 C   0  0  0  0  0  0  0  0  0  0  0  0
    3.9912   -4.0146    2.9007 H   0  0  0  0  0  0  0  0  0  0  0  0
    1.9886   -4.8411    2.6081 C   0  0  0  0  0  0  0  0  0  0  0  0
    2.1668   -5.6992    3.2734 H   0  0  0  0  0  0  0  0  0  0  0  0
    0.7550   -4.6816    1.9963 C   0  0  0  0  0  0  0  0  0  0  0  0
   -0.0594   -5.4008    2.1693 H   0  0  0  0  0  0  0  0  0  0  0  0
    0.5110   -3.5687    1.1402 C   0  0  2  0  0  3  0  0  0  0  0  0
   -0.7403   -3.3446    0.5117 C   0  0  0  0  0  0  0  0  0  0  0  0
   -1.5797   -4.0519    0.5816 H   0  0  0  0  0  0  0  0  0  0  0  0
   -0.9520   -2.1692   -0.1830 C   0  0  0  0  0  0  0  0  0  0  0  0
   -2.2867   -1.8693   -0.8125 C   0  0  0  0  0  0  0  0  0  0  0  0
   -3.7485   -0.0996   -1.6557 C   0  0  2  0  0  0  0  0  0  0  0  0
   -3.5789    0.9789   -1.8579 H   0  0  0  0  0  0  0  0  0  0  0  0
   -4.7717   -0.1697   -0.5179 C   0  0  0  0  0  0  0  0  0  0  0  0
   -4.5954    0.6861    0.5916 C   0  0  0  0  0  0  0  0  0  0  0  0
   -3.7523    1.3944    0.5872 H   0  0  0  0  0  0  0  0  0  0  0  0
   -5.4916    0.6605    1.6690 C   0  0  0  0  0  0  0  0  0  0  0  0
   -5.3406    1.3419    2.5213 H   0  0  0  0  0  0  0  0  0  0  0  0
   -6.5864   -0.2196    1.6561 C   0  0  0  0  0  0  0  0  0  0  0  0
   -7.2928   -0.2407    2.5006 H   0  0  0  0  0  0  0  0  0  0  0  0
   -6.7747   -1.0662    0.5537 C   0  0  0  0  0  0  0  0  0  0  0  0
   -7.6316   -1.7576    0.5302 H   0  0  0  0  0  0  0  0  0  0  0  0
   -5.8738   -1.0482   -0.5235 C   0  0  0  0  0  0  0  0  0  0  0  0
   -6.0119   -1.7183   -1.3833 H   0  0  0  0  0  0  0  0  0  0  0  0
   -4.1870   -0.6893   -3.0135 C   0  0  0  0  0  0  0  0  0  0  0  0
   -5.0478   -0.0769   -3.3685 H   0  0  0  0  0  0  0  0  0  0  0  0
   -3.3429   -0.4928   -3.7240 H   0  0  0  0  0  0  0  0  0  0  0  0
  1 18  1  0  0  0  0
  2 59  2  0  0  0  0
  3 73  1  0  0  0  0
  3  4  1  0  0  0  0
  5 59  1  0  0  0  0
  6 58  1  0  0  0  0
  6 45  1  0  0  0  0
  7  1  1  0  0  0  0
  7 16  1  0  0  0  0
  8  7  2  0  0  0  0
  9  8  1  0  0  0  0
 10  8  1  0  0  0  0
 10 12  2  0  0  0  0
 11 10  1  0  0  0  0
 12 14  1  0  0  0  0
 13 12  1  0  0  0  0
 14 16  2  0  0  0  0
 14 15  1  0  0  0  0
 16 17  1  0  0  0  0
 18 27  2  0  0  0  0
 18 19  1  0  0  0  0
 19 21  2  0  0  0  0
 20 19  1  0  0  0  0
 21 22  1  0  0  0  0
 21 23  1  0  0  0  0
 23 24  1  0  0  0  0
 25 26  1  0  0  0  0
 25 23  2  0  0  0  0
 27 25  1  0  0  0  0
 28 27  1  0  0  0  0
 29  1  1  0  0  0  0
 30 31  1  0  0  0  0
 30 29  2  0  0  0  0
 32 30  1  0  0  0  0
 33 32  1  0  0  0  0
 34 32  2  0  0  0  0
 34 43  1  0  0  0  0
 35 34  1  0  0  0  0
 36 35  1  0  0  0  0
 37 35  2  0  0  0  0
 37 39  1  0  0  0  0
 38 37  1  0  0  0  0
 39 41  2  0  0  0  0
 40 39  1  0  0  0  0
 41 42  1  0  0  0  0
 41 43  1  0  0  0  0
 43 44  2  0  0  0  0
 44 29  1  0  0  0  0
 44 45  1  0  0  0  0
 45 46  2  0  0  0  0
 46 55  1  0  0  0  0
 46 47  1  0  0  0  0
 47 49  2  0  0  0  0
 48 47  1  0  0  0  0
 49 51  1  0  0  0  0
 49 50  1  0  0  0  0
 51 52  1  0  0  0  0
 53 54  1  0  0  0  0
 53 51  2  0  0  0  0
 55 56  1  6  0  0  0
 55 53  1  0  0  0  0
 56 57  1  0  0  0  0
 58 56  2  0  0  0  0
 59 58  1  0  0  0  0
 60 61  1  6  0  0  0
 60  5  1  0  0  0  0
 60 62  1  0  0  0  0
 62 63  1  0  0  0  0
 63 65  2  0  0  0  0
 64 63  1  0  0  0  0
 65 66  1  0  0  0  0
 67 65  1  0  0  0  0
 67 68  1  0  0  0  0
 69 67  2  0  0  0  0
 70 69  1  0  0  0  0
 71 62  2  0  0  0  0
 71 69  1  0  0  0  0
 72 71  1  0  0  0  0
 73 60  1  0  0  0  0
 74 73  1  0  0  0  0
 75 73  1  0  0  0  0
M  END
