1,2,4
q = -1.0, confidence = 0.004

 47 50  0  0  0  0  0  0  0  0999 V2000
   -1.1589    0.0174    0.0174 P   0  0  0  0  0  0  0  0  0  0  0  0
    3.1455   -0.3034    0.0342 N   0  0  0  0  0  2  0  0  0  0  0  0
    2.8274    2.0413    0.0317 N   0  0  0  0  0  0  0  0  0  0  0  0
    1.5251    1.7261    0.1322 N   0  0  0  0  0  2  0  0  0  0  0  0
    3.9581   -1.3816    0.0088 C   0  0  0  0  0  0  0  0  0  0  0  0
    5.3434   -1.2559   -0.0597 C   0  0  0  0  0  0  0  0  0  0  0  0
    5.8983    0.0455   -0.1011 C   0  0  0  0  0  0  0  0  0  0  0  0
    5.0690    1.1583   -0.0729 C   0  0  0  0  0  0  0  0  0  0  0  0
    3.6560    0.9809   -0.0038 C   0  0  0  0  0  0  0  0  0  0  0  0
    0.6949    2.7580    0.2580 C   0  0  0  0  0  3  0  0  0  0  0  0
   -0.7350    2.7964    0.4597 C   0  0  0  0  0  0  0  0  0  0  0  0
   -1.2671    4.0974    0.7111 C   0  0  0  0  0  0  0  0  0  0  0  0
   -2.6168    4.3120    0.9838 C   0  0  0  0  0  0  0  0  0  0  0  0
   -3.5108    3.2265    1.0214 C   0  0  0  0  0  0  0  0  0  0  0  0
   -3.0248    1.9398    0.7602 C   0  0  0  0  0  0  0  0  0  0  0  0
   -1.6659    1.7090    0.4665 C   0  0  0  0  0  0  0  0  0  0  0  0
   -1.8246   -0.2585   -1.6753 C   0  0  0  0  0  0  0  0  0  0  0  0
   -2.5494    0.7317   -2.3664 C   0  0  0  0  0  0  0  0  0  0  0  0
   -3.0261    0.4727   -3.6616 C   0  0  0  0  0  0  0  0  0  0  0  0
   -2.7855   -0.7694   -4.2675 C   0  0  0  0  0  0  0  0  0  0  0  0
   -2.0566   -1.7547   -3.5799 C   0  0  0  0  0  0  0  0  0  0  0  0
   -1.5682   -1.5035   -2.2910 C   0  0  0  0  0  0  0  0  0  0  0  0
   -2.1389   -1.0801    1.1097 C   0  0  0  0  0  0  0  0  0  0  0  0
   -3.3590   -1.6487    0.6974 C   0  0  0  0  0  0  0  0  0  0  0  0
   -4.0944   -2.4454    1.5896 C   0  0  0  0  0  0  0  0  0  0  0  0
   -3.6157   -2.6751    2.8883 C   0  0  0  0  0  0  0  0  0  0  0  0
   -2.3949   -2.1116    3.2973 C   0  0  0  0  0  0  0  0  0  0  0  0
   -1.6538   -1.3198    2.4112 C   0  0  0  0  0  0  0  0  0  0  0  0
    3.4380   -2.3529    0.0393 H   0  0  0  0  0  0  0  0  0  0  0  0
    5.9750   -2.1539   -0.0837 H   0  0  0  0  0  0  0  0  0  0  0  0
    6.9897    0.1788   -0.1550 H   0  0  0  0  0  0  0  0  0  0  0  0
    5.4559    2.1854   -0.0986 H   0  0  0  0  0  0  0  0  0  0  0  0
    1.2155    3.7299    0.2619 H   0  0  0  0  0  0  0  0  0  0  0  0
   -0.5728    4.9516    0.7016 H   0  0  0  0  0  0  0  0  0  0  0  0
   -2.9761    5.3336    1.1797 H   0  0  0  0  0  0  0  0  0  0  0  0
   -4.5751    3.3803    1.2518 H   0  0  0  0  0  0  0  0  0  0  0  0
   -3.7169    1.0842    0.7832 H   0  0  0  0  0  0  0  0  0  0  0  0
   -2.7408    1.7066   -1.8952 H   0  0  0  0  0  0  0  0  0  0  0  0
   -3.5890    1.2510   -4.1989 H   0  0  0  0  0  0  0  0  0  0  0  0
   -3.1612   -0.9691   -5.2827 H   0  0  0  0  0  0  0  0  0  0  0  0
   -1.8565   -2.7270   -4.0553 H   0  0  0  0  0  0  0  0  0  0  0  0
   -0.9727   -2.2612   -1.7554 H   0  0  0  0  0  0  0  0  0  0  0  0
   -3.7286   -1.4781   -0.3250 H   0  0  0  0  0  0  0  0  0  0  0  0
   -5.0455   -2.8931    1.2634 H   0  0  0  0  0  0  0  0  0  0  0  0
   -4.1920   -3.3037    3.5840 H   0  0  0  0  0  0  0  0  0  0  0  0
   -2.0114   -2.3008    4.3112 H   0  0  0  0  0  0  0  0  0  0  0  0
   -0.6856   -0.8935    2.7161 H   0  0  0  0  0  0  0  0  0  0  0  0
  1 16  1  0  0  0  0
  1 23  1  0  0  0  0
  3  4  1  0  0  0  0
  4 10  1  0  0  0  0
  5  2  1  0  0  0  0
  5 29  1  0  0  0  0
  6  5  2  0  0  0  0
  7  8  2  0  0  0  0
  7  6  1  0  0  0  0
  8  9  1  0  0  0  0
  9  3  2  0  0  0  0
  9  2  1  0  0  0  0
 10 33  1  0  0  0  0
 10 11  1  0  0  0  0
 11 16  2  0  0  0  0
 11 12  1  0  0  0  0
 12 13  2  0  0  0  0
 13 14  1  0  0  0  0
 13 35  1  0  0  0  0
 14 36  1  0  0  0  0
 15 37  1  0  0  0  0
 15 14  2  0  0  0  0
 16 15  1  0  0  0  0
 17  1  1  0  0  0  0
 18 38  1  0  0  0  0
 18 17  2  0  0  0  0
 19 18  1  0  0  0  0
 20 19  2  0  0  0  0
 20 21  1  0  0  0  0
 21 22  2  0  0  0  0
 22 42  1  0  0  0  0
 22 17  1  0  0  0  0
 23 28  1  0  0  0  0
 24 23  2  0  0  0  0
 24 25  1  0  0  0  0
 25 26  2  0  0  0  0
 26 27  1  0  0  0  0
 26 45  1  0  0  0  0
 27 46  1  0  0  0  0
 28 47  1  0  0  0  0
 28 27  2  0  0  0  0
 30  6  1  0  0  0  0
 31  7  1  0  0  0  0
 32  8  1  0  0  0  0
 34 12  1  0  0  0  0
 39 19  1  0  0  0  0
 40 20  1  0  0  0  0
 41 21  1  0  0  0  0
 43 24  1  0  0  0  0
 44 25  1  0  0  0  0
M  END
