1,2,3
q = -1.0

 48 49  0  0  1  0  0  0  0  0999 V2000
    1.7742    0.2781   -0.0556 P   0  0  0  0  0  0  0  0  0  0  0  0
   -2.4697   -0.8385   -0.2321 N   0  0  0  0  0  2  0  0  0  0  0  0
   -0.9659    1.2909    0.1389 N   0  0  0  0  0  2  0  0  0  0  0  0
   -3.1636   -1.9768   -0.4492 C   0  0  0  0  0  3  0  0  0  0  0  0
   -2.5706   -2.9018   -0.4776 H   0  0  0  0  0  0  0  0  0  0  0  0
   -4.5480   -1.9914   -0.6298 C   0  0  0  0  0  0  0  0  0  0  0  0
   -5.0638   -2.9457   -0.8050 H   0  0  0  0  0  0  0  0  0  0  0  0
   -5.2450   -0.7728   -0.5821 C   0  0  0  0  0  0  0  0  0  0  0  0
   -6.3358   -0.7423   -0.7203 H   0  0  0  0  0  0  0  0  0  0  0  0
   -4.5296    0.4048   -0.3581 C   0  0  0  0  0  0  0  0  0  0  0  0
   -5.0460    1.3726   -0.3203 H   0  0  0  0  0  0  0  0  0  0  0  0
   -3.1318    0.3603   -0.1833 C   0  0  0  0  0  0  0  0  0  0  0  0
   -2.2953    1.5524    0.0486 C   0  0  1  0  0  3  0  0  0  0  0  0
   -2.8064    2.8495    0.1710 C   0  0  0  0  0  0  0  0  0  0  0  0
   -3.8822    3.0494    0.1038 H   0  0  0  0  0  0  0  0  0  0  0  0
   -1.8802    3.9000    0.3985 C   0  0  0  0  0  0  0  0  0  0  0  0
   -2.2453    4.9328    0.5058 H   0  0  0  0  0  0  0  0  0  0  0  0
   -0.5260    3.6374    0.4803 C   0  0  0  0  0  0  0  0  0  0  0  0
    0.1958    4.4494    0.6480 H   0  0  0  0  0  0  0  0  0  0  0  0
   -0.0182    2.2925    0.3382 C   0  0  0  0  0  0  0  0  0  0  0  0
    1.3367    1.9488    0.3781 C   0  0  0  0  0  3  0  0  0  0  0  0
    2.0912    2.7407    0.4854 H   0  0  0  0  0  0  0  0  0  0  0  0
    2.5053    0.3386   -1.8513 C   0  0  0  0  0  0  0  0  0  0  0  0
    3.9048    0.9736   -1.8923 C   0  0  0  0  0  0  0  0  0  0  0  0
    3.9190    1.9727   -1.4118 H   0  0  0  0  0  0  0  0  0  0  0  0
    4.2021    1.1162   -2.9534 H   0  0  0  0  0  0  0  0  0  0  0  0
    4.6808    0.3413   -1.4205 H   0  0  0  0  0  0  0  0  0  0  0  0
    1.5578    1.2345   -2.6694 C   0  0  0  0  0  0  0  0  0  0  0  0
    0.5165    0.8574   -2.6370 H   0  0  0  0  0  0  0  0  0  0  0  0
    1.8927    1.2391   -3.7285 H   0  0  0  0  0  0  0  0  0  0  0  0
    1.5584    2.2762   -2.2943 H   0  0  0  0  0  0  0  0  0  0  0  0
    2.5338   -1.0644   -2.4781 C   0  0  0  0  0  0  0  0  0  0  0  0
    3.1829   -1.7712   -1.9286 H   0  0  0  0  0  0  0  0  0  0  0  0
    2.9221   -0.9926   -3.5169 H   0  0  0  0  0  0  0  0  0  0  0  0
    1.5161   -1.4962   -2.5274 H   0  0  0  0  0  0  0  0  0  0  0  0
    3.1460   -0.2795    1.1698 C   0  0  0  0  0  0  0  0  0  0  0  0
    4.1604    0.8527    1.4198 C   0  0  0  0  0  0  0  0  0  0  0  0
    4.7137    1.1561    0.5144 H   0  0  0  0  0  0  0  0  0  0  0  0
    4.9070    0.5054    2.1657 H   0  0  0  0  0  0  0  0  0  0  0  0
    3.6610    1.7467    1.8417 H   0  0  0  0  0  0  0  0  0  0  0  0
    3.8506   -1.5518    0.6724 C   0  0  0  0  0  0  0  0  0  0  0  0
    3.1262   -2.3582    0.4399 H   0  0  0  0  0  0  0  0  0  0  0  0
    4.5252   -1.9302    1.4699 H   0  0  0  0  0  0  0  0  0  0  0  0
    4.4729   -1.3734   -0.2250 H   0  0  0  0  0  0  0  0  0  0  0  0
    2.4610   -0.5887    2.5102 C   0  0  0  0  0  0  0  0  0  0  0  0
    1.8188    0.2504    2.8434 H   0  0  0  0  0  0  0  0  0  0  0  0
    3.2406   -0.7518    3.2844 H   0  0  0  0  0  0  0  0  0  0  0  0
    1.8471   -1.5059    2.4544 H   0  0  0  0  0  0  0  0  0  0  0  0
  1 21  1  0  0  0  0
  1 36  1  0  0  0  0
  2 12  1  0  0  0  0
  3 20  1  0  0  0  0
  4  2  1  0  0  0  0
  5  4  1  0  0  0  0
  6  8  2  0  0  0  0
  6  4  1  0  0  0  0
  7  6  1  0  0  0  0
  8 10  1  0  0  0  0
  9  8  1  0  0  0  0
 10 11  1  0  0  0  0
 10 12  2  0  0  0  0
 13 12  1  1  0  0  0
 13  3  1  0  0  0  0
 13 14  1  0  0  0  0
 14 16  2  0  0  0  0
 15 14  1  0  0  0  0
 16 18  1  0  0  0  0
 16 17  1  0  0  0  0
 18 19  1  0  0  0  0
 20 21  1  0  0  0  0
 20 18  2  0  0  0  0
 21 22  1  0  0  0  0
 23  1  1  0  0  0  0
 24 23  1  0  0  0  0
 24 27  1  0  0  0  0
 24 25  1  0  0  0  0
 26 24  1  0  0  0  0
 28 29  1  0  0  0  0
 28 31  1  0  0  0  0
 28 23  1  0  0  0  0
 30 28  1  0  0  0  0
 32 33  1  0  0  0  0
 32 23  1  0  0  0  0
 34 32  1  0  0  0  0
 35 32  1  0  0  0  0
 36 37  1  0  0  0  0
 36 45  1  0  0  0  0
 37 40  1  0  0  0  0
 37 39  1  0  0  0  0
 38 37  1  0  0  0  0
 41 36  1  0  0  0  0
 41 43  1  0  0  0  0
 42 41  1  0  0  0  0
 44 41  1  0  0  0  0
 45 46  1  0  0  0  0
 45 47  1  0  0  0  0
 48 45  1  0  0  0  0
M  END
