1,2,3
q = -1.0

 48 49  0  0  1  0  0  0  0  0999 V2000
    1.6883    0.2621    0.0215 P   0  0  0  0  0  0  0  0  0  0  0  0
   -0.9481    1.2321   -0.1234 N   0  0  0  0  0  2  0  0  0  0  0  0
   -2.3401   -0.9044    0.1503 N   0  0  0  0  0  2  0  0  0  0  0  0
    1.3257    1.9919   -0.2358 C   0  0  0  0  0  0  0  0  0  0  0  0
    2.0777    2.7869   -0.3335 H   0  0  0  0  0  0  0  0  0  0  0  0
   -0.0331    2.2901   -0.2454 C   0  0  0  0  0  0  0  0  0  0  0  0
   -0.5764    3.6277   -0.3550 C   0  0  0  0  0  0  0  0  0  0  0  0
    0.1277    4.4645   -0.4689 H   0  0  0  0  0  0  0  0  0  0  0  0
   -1.9361    3.8460   -0.3124 C   0  0  0  0  0  0  0  0  0  0  0  0
   -2.3337    4.8691   -0.3943 H   0  0  0  0  0  0  0  0  0  0  0  0
   -2.8341    2.7510   -0.1576 C   0  0  0  0  0  0  0  0  0  0  0  0
   -3.9179    2.9136   -0.1089 H   0  0  0  0  0  0  0  0  0  0  0  0
   -2.2909    1.4709   -0.0730 C   0  0  0  0  0  0  0  0  0  0  0  0
   -3.0882    0.2449    0.0854 C   0  0  1  0  0  3  0  0  0  0  0  0
   -4.4913    0.2031    0.1651 C   0  0  0  0  0  0  0  0  0  0  0  0
   -5.0647    1.1379    0.1081 H   0  0  0  0  0  0  0  0  0  0  0  0
   -5.1431   -1.0248    0.3128 C   0  0  0  0  0  0  0  0  0  0  0  0
   -6.2402   -1.0697    0.3749 H   0  0  0  0  0  0  0  0  0  0  0  0
   -4.3682   -2.1960    0.3778 C   0  0  0  0  0  0  0  0  0  0  0  0
   -4.8309   -3.1862    0.4933 H   0  0  0  0  0  0  0  0  0  0  0  0
   -2.9790   -2.0912    0.2942 C   0  0  0  0  0  0  0  0  0  0  0  0
   -2.3332   -2.9798    0.3396 H   0  0  0  0  0  0  0  0  0  0  0  0
    2.1534    0.1231    1.8861 C   0  0  0  0  0  0  0  0  0  0  0  0
    0.7741    0.2178    2.5766 C   0  0  0  0  0  0  0  0  0  0  0  0
    0.2683    1.1770    2.3502 H   0  0  0  0  0  0  0  0  0  0  0  0
    0.8913    0.1468    3.6802 H   0  0  0  0  0  0  0  0  0  0  0  0
    0.1052   -0.6251    2.2775 H   0  0  0  0  0  0  0  0  0  0  0  0
    3.0270    1.2870    2.3729 C   0  0  0  0  0  0  0  0  0  0  0  0
    4.0432    1.2640    1.9366 H   0  0  0  0  0  0  0  0  0  0  0  0
    3.1384    1.2277    3.4776 H   0  0  0  0  0  0  0  0  0  0  0  0
    2.5640    2.2627    2.1260 H   0  0  0  0  0  0  0  0  0  0  0  0
    2.8093   -1.2222    2.2271 C   0  0  0  0  0  0  0  0  0  0  0  0
    2.2103   -2.0864    1.8819 H   0  0  0  0  0  0  0  0  0  0  0  0
    2.9141   -1.3059    3.3308 H   0  0  0  0  0  0  0  0  0  0  0  0
    3.8262   -1.3101    1.7972 H   0  0  0  0  0  0  0  0  0  0  0  0
    3.1343   -0.2045   -1.1181 C   0  0  0  0  0  0  0  0  0  0  0  0
    4.4619    0.3954   -0.6275 C   0  0  0  0  0  0  0  0  0  0  0  0
    4.3984    1.4948   -0.4989 H   0  0  0  0  0  0  0  0  0  0  0  0
    5.2535    0.1949   -1.3812 H   0  0  0  0  0  0  0  0  0  0  0  0
    4.7983   -0.0489    0.3291 H   0  0  0  0  0  0  0  0  0  0  0  0
    3.2338   -1.7367   -1.2198 C   0  0  0  0  0  0  0  0  0  0  0  0
    3.4064   -2.2219   -0.2411 H   0  0  0  0  0  0  0  0  0  0  0  0
    4.0838   -2.0037   -1.8836 H   0  0  0  0  0  0  0  0  0  0  0  0
    2.3151   -2.1731   -1.6558 H   0  0  0  0  0  0  0  0  0  0  0  0
    2.8022    0.3748   -2.5071 C   0  0  0  0  0  0  0  0  0  0  0  0
    1.8429   -0.0105   -2.9005 H   0  0  0  0  0  0  0  0  0  0  0  0
    3.6024    0.0775   -3.2185 H   0  0  0  0  0  0  0  0  0  0  0  0
    2.7460    1.4801   -2.4880 H   0  0  0  0  0  0  0  0  0  0  0  0
  1 23  1  0  0  0  0
  2 13  1  0  0  0  0
  3 21  1  0  0  0  0
  4  1  1  0  0  0  0
  5  4  1  0  0  0  0
  6  4  2  0  0  0  0
  6  2  1  0  0  0  0
  7  9  2  0  0  0  0
  7  6  1  0  0  0  0
  8  7  1  0  0  0  0
  9 11  1  0  0  0  0
 10  9  1  0  0  0  0
 11 12  1  0  0  0  0
 11 13  2  0  0  0  0
 14 13  1  6  0  0  0
 14  3  1  0  0  0  0
 14 15  1  0  0  0  0
 15 17  2  0  0  0  0
 16 15  1  0  0  0  0
 17 18  1  0  0  0  0
 17 19  1  0  0  0  0
 19 20  1  0  0  0  0
 21 22  1  0  0  0  0
 21 19  2  0  0  0  0
 23 32  1  0  0  0  0
 23 28  1  0  0  0  0
 23 24  1  0  0  0  0
 24 26  1  0  0  0  0
 25 24  1  0  0  0  0
 27 24  1  0  0  0  0
 28 30  1  0  0  0  0
 29 28  1  0  0  0  0
 31 28  1  0  0  0  0
 32 34  1  0  0  0  0
 33 32  1  0  0  0  0
 35 32  1  0  0  0  0
 36 37  1  0  0  0  0
 36  1  1  0  0  0  0
 37 38  1  0  0  0  0
 37 40  1  0  0  0  0
 39 37  1  0  0  0  0
 41 36  1  0  0  0  0
 41 42  1  0  0  0  0
 43 41  1  0  0  0  0
 44 41  1  0  0  0  0
 45 48  1  0  0  0  0
 45 36  1  0  0  0  0
 46 45  1  0  0  0  0
 47 45  1  0  0  0  0
M  END
