1,5,8
q = -1.0

 40 39  0  0  1  0  0  0  0  0999 V2000
    0.2041   -1.6867   -0.5028 P   0  0  1  0  0  4  0  0  0  0  0  0
   -0.7314   -2.0481    0.8428 O   0  0  0  0  0  0  0  0  0  0  0  0
    1.6462   -2.0903    0.2501 O   0  0  0  0  0  0  0  0  0  0  0  0
   -0.1202   -2.5497   -1.7020 O   0  0  0  0  0  0  0  0  0  0  0  0
   -1.9305    0.5077   -0.2881 N   0  0  0  0  0  0  0  0  0  0  0  0
   -2.0648    1.5235   -0.1408 H   0  0  0  0  0  0  0  0  0  0  0  0
   -2.4279    0.2650   -1.1586 H   0  0  0  0  0  0  0  0  0  0  0  0
    2.1629    0.6653   -1.0625 N   0  0  0  0  0  0  0  0  0  0  0  0
    2.3396    0.4329   -2.0505 H   0  0  0  0  0  0  0  0  0  0  0  0
    2.2983    1.6858   -0.9640 H   0  0  0  0  0  0  0  0  0  0  0  0
   -2.4619   -0.2867    0.8489 C   0  0  2  0  0  0  0  0  0  0  0  0
   -1.9141    0.0680    1.7473 H   0  0  0  0  0  0  0  0  0  0  0  0
   -2.1166   -1.7773    0.6833 C   0  0  0  0  0  0  0  0  0  0  0  0
   -2.6459   -2.3457    1.4754 H   0  0  0  0  0  0  0  0  0  0  0  0
   -2.4754   -2.1594   -0.3008 H   0  0  0  0  0  0  0  0  0  0  0  0
   -3.9762   -0.0492    1.0760 C   0  0  0  0  0  0  0  0  0  0  0  0
   -4.2358   -0.6710    1.9619 H   0  0  0  0  0  0  0  0  0  0  0  0
   -4.2666    1.4137    1.4367 C   0  0  0  0  0  0  0  0  0  0  0  0
   -4.0773    2.0958    0.5806 H   0  0  0  0  0  0  0  0  0  0  0  0
   -3.6423    1.7577    2.2861 H   0  0  0  0  0  0  0  0  0  0  0  0
   -5.3296    1.5460    1.7206 H   0  0  0  0  0  0  0  0  0  0  0  0
   -4.8496   -0.5177   -0.0973 C   0  0  0  0  0  0  0  0  0  0  0  0
   -5.9226   -0.3658    0.1337 H   0  0  0  0  0  0  0  0  0  0  0  0
   -4.7085   -1.5913   -0.3312 H   0  0  0  0  0  0  0  0  0  0  0  0
   -4.6415    0.0613   -1.0227 H   0  0  0  0  0  0  0  0  0  0  0  0
    3.0699   -0.1066   -0.1727 C   0  0  2  0  0  0  0  0  0  0  0  0
    4.1226    0.0929   -0.4876 H   0  0  0  0  0  0  0  0  0  0  0  0
    2.8283   -1.6139   -0.3792 C   0  0  0  0  0  0  0  0  0  0  0  0
    2.8219   -1.8493   -1.4703 H   0  0  0  0  0  0  0  0  0  0  0  0
    3.6711   -2.1772    0.0660 H   0  0  0  0  0  0  0  0  0  0  0  0
    2.9028    0.3553    1.2904 C   0  0  0  0  0  0  0  0  0  0  0  0
    1.8440    0.1385    1.5590 H   0  0  0  0  0  0  0  0  0  0  0  0
    3.8075   -0.4515    2.2287 C   0  0  0  0  0  0  0  0  0  0  0  0
    3.5304   -1.5234    2.2479 H   0  0  0  0  0  0  0  0  0  0  0  0
    3.7196   -0.0699    3.2651 H   0  0  0  0  0  0  0  0  0  0  0  0
    4.8765   -0.3692    1.9360 H   0  0  0  0  0  0  0  0  0  0  0  0
    3.1345    1.8653    1.4387 C   0  0  0  0  0  0  0  0  0  0  0  0
    4.1414    2.1608    1.0719 H   0  0  0  0  0  0  0  0  0  0  0  0
    3.0753    2.1568    2.5063 H   0  0  0  0  0  0  0  0  0  0  0  0
    2.3652    2.4653    0.9085 H   0  0  0  0  0  0  0  0  0  0  0  0
  1  4  2  6  0  0  0
  1  3  1  0  0  0  0
  1  2  1  0  0  0  0
  5  6  1  0  0  0  0
  5 11  1  0  0  0  0
  7  5  1  0  0  0  0
  8 10  1  0  0  0  0
  8 26  1  0  0  0  0
  9  8  1  0  0  0  0
 11 16  1  0  0  0  0
 11 12  1  1  0  0  0
 13  2  1  0  0  0  0
 13 11  1  0  0  0  0
 13 14  1  0  0  0  0
 15 13  1  0  0  0  0
 16 18  1  0  0  0  0
 16 17  1  0  0  0  0
 18 21  1  0  0  0  0
 18 20  1  0  0  0  0
 19 18  1  0  0  0  0
 22 23  1  0  0  0  0
 22 16  1  0  0  0  0
 24 22  1  0  0  0  0
 25 22  1  0  0  0  0
 26 27  1  6  0  0  0
 26 31  1  0  0  0  0
 28 26  1  0  0  0  0
 28 30  1  0  0  0  0
 28  3  1  0  0  0  0
 29 28  1  0  0  0  0
 31 37  1  0  0  0  0
 31 32  1  0  0  0  0
 31 33  1  0  0  0  0
 33 34  1  0  0  0  0
 33 35  1  0  0  0  0
 36 33  1  0  0  0  0
 37 39  1  0  0  0  0
 38 37  1  0  0  0  0
 40 37  1  0  0  0  0
M  END
