1,2,3
q = -1.0

 71 73  0  0  1  0  0  0  0  0999 V2000
    1.6517   -1.6014    0.6058 P   0  0  0  0  0  0  0  0  0  0  0  0
    1.0294    1.0579   -0.3258 N   0  0  0  0  0  2  0  0  0  0  0  0
   -1.8868    0.7743   -0.1288 N   0  0  0  0  0  2  0  0  0  0  0  0
    2.3182   -1.5730    2.3492 C   0  0  0  0  0  0  0  0  0  0  0  0
    1.5971   -2.2133    2.9036 H   0  0  0  0  0  0  0  0  0  0  0  0
    2.2278   -0.1413    2.8913 C   0  0  0  0  0  0  0  0  0  0  0  0
    2.5644   -0.1113    3.9479 H   0  0  0  0  0  0  0  0  0  0  0  0
    1.1908    0.2460    2.8405 H   0  0  0  0  0  0  0  0  0  0  0  0
    2.8737    0.5482    2.3089 H   0  0  0  0  0  0  0  0  0  0  0  0
    3.7312   -2.1529    2.4624 C   0  0  0  0  0  0  0  0  0  0  0  0
    4.4598   -1.5348    1.8993 H   0  0  0  0  0  0  0  0  0  0  0  0
    3.7978   -3.1933    2.0863 H   0  0  0  0  0  0  0  0  0  0  0  0
    4.0526   -2.1621    3.5247 H   0  0  0  0  0  0  0  0  0  0  0  0
    2.7912   -0.6227   -0.4338 C   0  0  0  0  0  0  0  0  0  0  0  0
    2.2896    0.6616   -0.7904 C   0  0  0  0  0  0  0  0  0  0  0  0
    3.0785    1.4390   -1.6806 C   0  0  0  0  0  0  0  0  0  0  0  0
    2.6975    2.4085   -2.0305 H   0  0  0  0  0  0  0  0  0  0  0  0
    4.3097    0.9723   -2.1443 C   0  0  0  0  0  0  0  0  0  0  0  0
    4.8820    1.5984   -2.8481 H   0  0  0  0  0  0  0  0  0  0  0  0
    4.8306   -0.2850   -1.7613 C   0  0  0  0  0  0  0  0  0  0  0  0
    6.1648   -0.7652   -2.2727 C   0  0  0  0  0  0  0  0  0  0  0  0
    6.9924   -0.1081   -1.9305 H   0  0  0  0  0  0  0  0  0  0  0  0
    6.1996   -0.7697   -3.3825 H   0  0  0  0  0  0  0  0  0  0  0  0
    6.3884   -1.7926   -1.9249 H   0  0  0  0  0  0  0  0  0  0  0  0
    4.0382   -1.0702   -0.9057 C   0  0  0  0  0  0  0  0  0  0  0  0
    4.4008   -2.0701   -0.6174 H   0  0  0  0  0  0  0  0  0  0  0  0
    0.7416    2.3731   -0.0524 C   0  0  2  0  0  3  0  0  0  0  0  0
    1.7690    3.3221    0.2507 C   0  0  0  0  0  0  0  0  0  0  0  0
    2.8055    2.9654    0.3195 H   0  0  0  0  0  0  0  0  0  0  0  0
    1.4967    4.6619    0.4923 C   0  0  0  0  0  0  0  0  0  0  0  0
    2.3323    5.3357    0.7438 H   0  0  0  0  0  0  0  0  0  0  0  0
    0.1767    5.1827    0.4417 C   0  0  0  0  0  0  0  0  0  0  0  0
   -0.0924    6.6462    0.6775 C   0  0  0  0  0  0  0  0  0  0  0  0
    0.4081    7.2804   -0.0849 H   0  0  0  0  0  0  0  0  0  0  0  0
    0.2893    6.9767    1.6668 H   0  0  0  0  0  0  0  0  0  0  0  0
   -1.1759    6.8720    0.6425 H   0  0  0  0  0  0  0  0  0  0  0  0
   -0.8409    4.2670    0.1846 C   0  0  0  0  0  0  0  0  0  0  0  0
   -1.8858    4.6182    0.1627 H   0  0  0  0  0  0  0  0  0  0  0  0
   -0.6111    2.8780   -0.0258 C   0  0  0  0  0  0  0  0  0  0  0  0
   -1.7887    2.0721   -0.2249 C   0  0  0  0  0  0  0  0  0  0  0  0
   -2.7185    2.6303   -0.4602 H   0  0  0  0  0  0  0  0  0  0  0  0
   -3.1550    0.1650   -0.3802 C   0  0  0  0  0  0  0  0  0  0  0  0
   -3.3791   -0.4464   -1.6353 C   0  0  0  0  0  0  0  0  0  0  0  0
   -4.6245   -1.0554   -1.8603 C   0  0  0  0  0  0  0  0  0  0  0  0
   -4.8087   -1.5338   -2.8363 H   0  0  0  0  0  0  0  0  0  0  0  0
   -5.6316   -1.0808   -0.8772 C   0  0  0  0  0  0  0  0  0  0  0  0
   -6.9709   -1.7155   -1.1586 C   0  0  0  0  0  0  0  0  0  0  0  0
   -7.6538   -1.0034   -1.6712 H   0  0  0  0  0  0  0  0  0  0  0  0
   -7.4744   -2.0369   -0.2256 H   0  0  0  0  0  0  0  0  0  0  0  0
   -6.8722   -2.6004   -1.8187 H   0  0  0  0  0  0  0  0  0  0  0  0
   -5.3569   -0.4876    0.3679 C   0  0  0  0  0  0  0  0  0  0  0  0
   -6.1190   -0.5240    1.1633 H   0  0  0  0  0  0  0  0  0  0  0  0
   -4.1270    0.1344    0.6452 C   0  0  0  0  0  0  0  0  0  0  0  0
   -3.8153    0.6916    2.0090 C   0  0  0  0  0  0  0  0  0  0  0  0
   -4.6616    0.5369    2.7046 H   0  0  0  0  0  0  0  0  0  0  0  0
   -3.5868    1.7772    1.9854 H   0  0  0  0  0  0  0  0  0  0  0  0
   -2.9203    0.1803    2.4226 H   0  0  0  0  0  0  0  0  0  0  0  0
   -2.2909   -0.4651   -2.6753 C   0  0  0  0  0  0  0  0  0  0  0  0
   -2.6233   -0.9804   -3.5962 H   0  0  0  0  0  0  0  0  0  0  0  0
   -1.3898   -0.9870   -2.2834 H   0  0  0  0  0  0  0  0  0  0  0  0
   -1.9572    0.5574   -2.9487 H   0  0  0  0  0  0  0  0  0  0  0  0
    1.7548   -3.3520   -0.0297 C   0  0  0  0  0  0  0  0  0  0  0  0
    2.8418   -3.5312   -0.1892 H   0  0  0  0  0  0  0  0  0  0  0  0
    1.2116   -4.3786    0.9705 C   0  0  0  0  0  0  0  0  0  0  0  0
    0.1516   -4.1591    1.2072 H   0  0  0  0  0  0  0  0  0  0  0  0
    1.7882   -4.3966    1.9165 H   0  0  0  0  0  0  0  0  0  0  0  0
    1.2715   -5.3933    0.5251 H   0  0  0  0  0  0  0  0  0  0  0  0
    1.0299   -3.4168   -1.3806 C   0  0  0  0  0  0  0  0  0  0  0  0
    1.1688   -4.4175   -1.8391 H   0  0  0  0  0  0  0  0  0  0  0  0
    1.4126   -2.6566   -2.0914 H   0  0  0  0  0  0  0  0  0  0  0  0
   -0.0552   -3.2436   -1.2328 H   0  0  0  0  0  0  0  0  0  0  0  0
  1  4  1  0  0  0  0
  4 10  1  0  0  0  0
  4  6  1  0  0  0  0
  4  5  1  0  0  0  0
  6  7  1  0  0  0  0
  8  6  1  0  0  0  0
  9  6  1  0  0  0  0
 10 13  1  0  0  0  0
 11 10  1  0  0  0  0
 12 10  1  0  0  0  0
 14  1  1  0  0  0  0
 15 14  1  0  0  0  0
 15  2  1  0  0  0  0
 16 15  2  0  0  0  0
 17 16  1  0  0  0  0
 18 20  2  0  0  0  0
 18 16  1  0  0  0  0
 19 18  1  0  0  0  0
 20 25  1  0  0  0  0
 21 22  1  0  0  0  0
 21 24  1  0  0  0  0
 21 20  1  0  0  0  0
 23 21  1  0  0  0  0
 25 26  1  0  0  0  0
 25 14  2  0  0  0  0
 27  2  1  1  0  0  0
 27 39  1  0  0  0  0
 27 28  1  0  0  0  0
 28 29  1  0  0  0  0
 28 30  2  0  0  0  0
 30 31  1  0  0  0  0
 32 30  1  0  0  0  0
 32 33  1  0  0  0  0
 33 35  1  0  0  0  0
 34 33  1  0  0  0  0
 36 33  1  0  0  0  0
 37 32  2  0  0  0  0
 38 37  1  0  0  0  0
 39 37  1  0  0  0  0
 40  3  1  0  0  0  0
 40 39  2  0  0  0  0
 41 40  1  0  0  0  0
 42  3  1  0  0  0  0
 42 53  1  0  0  0  0
 43 42  2  0  0  0  0
 44 43  1  0  0  0  0
 44 46  2  0  0  0  0
 45 44  1  0  0  0  0
 46 51  1  0  0  0  0
 47 46  1  0  0  0  0
 47 49  1  0  0  0  0
 48 47  1  0  0  0  0
 50 47  1  0  0  0  0
 51 53  2  0  0  0  0
 51 52  1  0  0  0  0
 53 54  1  0  0  0  0
 54 57  1  0  0  0  0
 54 55  1  0  0  0  0
 56 54  1  0  0  0  0
 58 60  1  0  0  0  0
 58 43  1  0  0  0  0
 59 58  1  0  0  0  0
 61 58  1  0  0  0  0
 62  1  1  0  0  0  0
 62 64  1  0  0  0  0
 63 62  1  0  0  0  0
 64 65  1  0  0  0  0
 64 66  1  0  0  0  0
 67 64  1  0  0  0  0
 68 71  1  0  0  0  0
 68 62  1  0  0  0  0
 69 68  1  0  0  0  0
 70 68  1  0  0  0  0
M  END
