1,2,4
q = 0.0, confidence = 1.0

 47 47  0  0  1  0  0  0  0  0999 V2000
    1.7559    0.1670   -0.3586 P   0  0  0  0  0  0  0  0  0  0  0  0
   -0.7103    1.4339   -0.3260 N   0  0  0  0  0  2  0  0  0  0  0  0
    1.4669    1.7843   -1.0156 N   0  0  0  0  0  0  0  0  0  0  0  0
   -2.3185   -0.5188    0.3478 N   0  0  0  0  0  0  0  0  0  0  0  0
    0.1986    2.2943   -0.8942 C   0  0  1  0  0  3  0  0  0  0  0  0
   -0.1875    3.5824   -1.3164 C   0  0  0  0  0  0  0  0  0  0  0  0
   -1.5167    3.9874   -1.1510 C   0  0  0  0  0  0  0  0  0  0  0  0
   -2.4391    3.1096   -0.5521 C   0  0  0  0  0  0  0  0  0  0  0  0
   -1.9974    1.8524   -0.1377 C   0  0  0  0  0  0  0  0  0  0  0  0
   -2.8288    0.8486    0.6090 C   0  0  0  0  0  0  0  0  0  0  0  0
    2.4632   -0.6804   -1.8808 C   0  0  0  0  0  0  0  0  0  0  0  0
    1.3573   -0.8370   -2.9307 C   0  0  0  0  0  0  0  0  0  0  0  0
    3.1177   -2.0246   -1.5401 C   0  0  0  0  0  0  0  0  0  0  0  0
    3.2569    0.4812    0.7356 C   0  0  0  0  0  0  0  0  0  0  0  0
    2.9567    1.5903    1.7516 C   0  0  0  0  0  0  0  0  0  0  0  0
    4.5455    0.7941   -0.0367 C   0  0  0  0  0  0  0  0  0  0  0  0
   -2.9692   -1.2551   -0.7797 C   0  0  0  0  0  0  0  0  0  0  0  0
   -2.6848   -0.5678   -2.1137 C   0  0  0  0  0  0  0  0  0  0  0  0
   -4.4623   -1.5000   -0.5459 C   0  0  0  0  0  0  0  0  0  0  0  0
    0.5598    4.2488   -1.7704 H   0  0  0  0  0  0  0  0  0  0  0  0
   -1.8318    4.9871   -1.4836 H   0  0  0  0  0  0  0  0  0  0  0  0
   -3.4875    3.3988   -0.3945 H   0  0  0  0  0  0  0  0  0  0  0  0
   -2.6761    1.0318    1.6942 H   0  0  0  0  0  0  0  0  0  0  0  0
   -3.9100    0.9627    0.3858 H   0  0  0  0  0  0  0  0  0  0  0  0
    3.3705   -0.4834    1.2790 H   0  0  0  0  0  0  0  0  0  0  0  0
    2.0365    1.3825    2.3303 H   0  0  0  0  0  0  0  0  0  0  0  0
    3.8068    1.6889    2.4581 H   0  0  0  0  0  0  0  0  0  0  0  0
    2.8282    2.5673    1.2413 H   0  0  0  0  0  0  0  0  0  0  0  0
    4.8748   -0.0245   -0.7036 H   0  0  0  0  0  0  0  0  0  0  0  0
    4.4398    1.7153   -0.6495 H   0  0  0  0  0  0  0  0  0  0  0  0
    5.3689    0.9885    0.6818 H   0  0  0  0  0  0  0  0  0  0  0  0
    3.2335    0.0204   -2.2740 H   0  0  0  0  0  0  0  0  0  0  0  0
    0.5857   -1.5487   -2.5721 H   0  0  0  0  0  0  0  0  0  0  0  0
    0.8679    0.1308   -3.1622 H   0  0  0  0  0  0  0  0  0  0  0  0
    1.7775   -1.2395   -3.8759 H   0  0  0  0  0  0  0  0  0  0  0  0
    3.9439   -1.9266   -0.8085 H   0  0  0  0  0  0  0  0  0  0  0  0
    2.3687   -2.7228   -1.1153 H   0  0  0  0  0  0  0  0  0  0  0  0
    3.5386   -2.4823   -2.4598 H   0  0  0  0  0  0  0  0  0  0  0  0
   -2.4478   -2.2360   -0.7802 H   0  0  0  0  0  0  0  0  0  0  0  0
   -3.0746   -1.1844   -2.9471 H   0  0  0  0  0  0  0  0  0  0  0  0
   -3.1589    0.4329   -2.1807 H   0  0  0  0  0  0  0  0  0  0  0  0
   -1.5948   -0.4368   -2.2687 H   0  0  0  0  0  0  0  0  0  0  0  0
   -4.8593   -2.1752   -1.3300 H   0  0  0  0  0  0  0  0  0  0  0  0
   -4.6418   -1.9856    0.4351 H   0  0  0  0  0  0  0  0  0  0  0  0
   -5.0603   -0.5658   -0.5857 H   0  0  0  0  0  0  0  0  0  0  0  0
   -2.4169   -1.0801    1.2071 H   0  0  0  0  0  0  0  0  0  0  0  0
    2.1922    2.3893   -1.4052 H   0  0  0  0  0  0  0  0  0  0  0  0
  1 14  1  0  0  0  0
  2  9  1  0  0  0  0
  3  1  1  0  0  0  0
  4 10  1  0  0  0  0
  4 46  1  0  0  0  0
  5  3  1  6  0  0  0
  5  2  1  0  0  0  0
  6  7  2  0  0  0  0
  6  5  1  0  0  0  0
  7  8  1  0  0  0  0
  8 22  1  0  0  0  0
  8  9  2  0  0  0  0
  9 10  1  0  0  0  0
 10 23  1  0  0  0  0
 11 13  1  0  0  0  0
 11  1  1  0  0  0  0
 12 33  1  0  0  0  0
 12 11  1  0  0  0  0
 13 37  1  0  0  0  0
 13 36  1  0  0  0  0
 14 25  1  0  0  0  0
 14 15  1  0  0  0  0
 15 26  1  0  0  0  0
 15 27  1  0  0  0  0
 16 31  1  0  0  0  0
 16 14  1  0  0  0  0
 17 19  1  0  0  0  0
 17  4  1  0  0  0  0
 18 17  1  0  0  0  0
 19 44  1  0  0  0  0
 20  6  1  0  0  0  0
 21  7  1  0  0  0  0
 24 10  1  0  0  0  0
 28 15  1  0  0  0  0
 29 16  1  0  0  0  0
 30 16  1  0  0  0  0
 32 11  1  0  0  0  0
 34 12  1  0  0  0  0
 35 12  1  0  0  0  0
 38 13  1  0  0  0  0
 39 17  1  0  0  0  0
 40 18  1  0  0  0  0
 41 18  1  0  0  0  0
 42 18  1  0  0  0  0
 43 19  1  0  0  0  0
 45 19  1  0  0  0  0
 47  3  1  0  0  0  0
M  END
