1,2,3
q = -1.0

 60 62  0  0  0  0  0  0  0  0999 V2000
   -0.7450    2.2022    0.2571 P   0  0  0  0  0  0  0  0  0  0  0  0
    1.8634    1.0294   -0.1795 N   0  0  0  0  0  2  0  0  0  0  0  0
    1.3388   -1.6385   -0.7733 N   0  0  0  0  0  0  0  0  0  0  0  0
    1.9759    2.3693    0.1279 C   0  0  0  0  0  0  0  0  0  0  0  0
    3.3194    2.9195    0.1991 C   0  0  0  0  0  0  0  0  0  0  0  0
    3.4316    3.9889    0.4299 H   0  0  0  0  0  0  0  0  0  0  0  0
    4.4210    2.1279   -0.0056 C   0  0  0  0  0  0  0  0  0  0  0  0
    5.4335    2.5570    0.0588 H   0  0  0  0  0  0  0  0  0  0  0  0
    4.2833    0.7232   -0.2995 C   0  0  0  0  0  0  0  0  0  0  0  0
    5.3600   -0.1697   -0.4913 C   0  0  0  0  0  3  0  0  0  0  0  0
    6.3887    0.2185   -0.4244 H   0  0  0  0  0  0  0  0  0  0  0  0
    5.1333   -1.5264   -0.7493 C   0  0  0  0  0  0  0  0  0  0  0  0
    5.9791   -2.2157   -0.8850 H   0  0  0  0  0  0  0  0  0  0  0  0
    3.8115   -2.0150   -0.8306 C   0  0  0  0  0  0  0  0  0  0  0  0
    3.6270   -3.0842   -1.0162 H   0  0  0  0  0  0  0  0  0  0  0  0
    2.7271   -1.1535   -0.6606 C   0  0  0  0  0  0  0  0  0  0  0  0
    0.9899   -2.6072    0.2470 C   0  0  0  0  0  0  0  0  0  0  0  0
    1.3851   -2.3533    1.5794 C   0  0  0  0  0  0  0  0  0  0  0  0
    1.9818   -1.4571    1.8027 H   0  0  0  0  0  0  0  0  0  0  0  0
    1.0081   -3.2267    2.6039 C   0  0  0  0  0  0  0  0  0  0  0  0
    1.3203   -3.0105    3.6368 H   0  0  0  0  0  0  0  0  0  0  0  0
    0.2369   -4.3692    2.3220 C   0  0  0  0  0  0  0  0  0  0  0  0
   -0.0599   -5.0537    3.1302 H   0  0  0  0  0  0  0  0  0  0  0  0
   -0.1483   -4.6224    1.0004 C   0  0  0  0  0  0  0  0  0  0  0  0
   -0.7571   -5.5072    0.7608 H   0  0  0  0  0  0  0  0  0  0  0  0
    0.2248   -3.7516   -0.0376 C   0  0  0  0  0  0  0  0  0  0  0  0
   -0.1128   -3.9641   -1.0590 H   0  0  0  0  0  0  0  0  0  0  0  0
    1.0314   -2.0336   -2.1659 C   0  0  0  0  0  0  0  0  0  0  0  0
    1.5753   -2.9588   -2.4575 H   0  0  0  0  0  0  0  0  0  0  0  0
    1.3437   -1.2074   -2.8295 H   0  0  0  0  0  0  0  0  0  0  0  0
   -0.0571   -2.1896   -2.2819 H   0  0  0  0  0  0  0  0  0  0  0  0
    2.9379    0.2267   -0.3818 C   0  0  0  0  0  0  0  0  0  0  0  0
    0.8067    3.0976    0.3549 C   0  0  0  0  0  3  0  0  0  0  0  0
    0.8554    4.1661    0.6048 H   0  0  0  0  0  0  0  0  0  0  0  0
   -1.5177    2.2635    2.0040 C   0  0  0  0  0  0  0  0  0  0  0  0
   -2.9145    1.6262    2.0423 C   0  0  0  0  0  0  0  0  0  0  0  0
   -3.2092    1.4637    3.1012 H   0  0  0  0  0  0  0  0  0  0  0  0
   -2.9382    0.6460    1.5284 H   0  0  0  0  0  0  0  0  0  0  0  0
   -3.6831    2.2768    1.5855 H   0  0  0  0  0  0  0  0  0  0  0  0
   -0.5475    1.4306    2.8661 C   0  0  0  0  0  0  0  0  0  0  0  0
    0.4813    1.8416    2.8267 H   0  0  0  0  0  0  0  0  0  0  0  0
   -0.5067    0.3760    2.5257 H   0  0  0  0  0  0  0  0  0  0  0  0
   -0.8912    1.4460    3.9223 H   0  0  0  0  0  0  0  0  0  0  0  0
   -1.5669    3.7012    2.5452 C   0  0  0  0  0  0  0  0  0  0  0  0
   -2.2891    4.3334    1.9935 H   0  0  0  0  0  0  0  0  0  0  0  0
   -0.5721    4.1880    2.5111 H   0  0  0  0  0  0  0  0  0  0  0  0
   -1.8934    3.6792    3.6070 H   0  0  0  0  0  0  0  0  0  0  0  0
   -1.7857    3.0783   -1.0810 C   0  0  0  0  0  0  0  0  0  0  0  0
   -1.0369    2.7660   -2.3920 C   0  0  0  0  0  0  0  0  0  0  0  0
   -1.0182    1.6769   -2.5966 H   0  0  0  0  0  0  0  0  0  0  0  0
    0.0125    3.1210   -2.3492 H   0  0  0  0  0  0  0  0  0  0  0  0
   -1.5460    3.2758   -3.2374 H   0  0  0  0  0  0  0  0  0  0  0  0
   -3.2168    2.5256   -1.1539 C   0  0  0  0  0  0  0  0  0  0  0  0
   -3.6935    2.8753   -2.0945 H   0  0  0  0  0  0  0  0  0  0  0  0
   -3.8435    2.8863   -0.3168 H   0  0  0  0  0  0  0  0  0  0  0  0
   -3.2370    1.4188   -1.1525 H   0  0  0  0  0  0  0  0  0  0  0  0
   -1.8090    4.6008   -0.8688 C   0  0  0  0  0  0  0  0  0  0  0  0
   -2.3225    5.0789   -1.7304 H   0  0  0  0  0  0  0  0  0  0  0  0
   -0.7864    5.0229   -0.8128 H   0  0  0  0  0  0  0  0  0  0  0  0
   -2.3612    4.8913    0.0455 H   0  0  0  0  0  0  0  0  0  0  0  0
  1 33  1  0  0  0  0
  1 35  1  0  0  0  0
  2  4  1  0  0  0  0
  3 16  1  0  0  0  0
  3 17  1  0  0  0  0
  4  5  2  0  0  0  0
  4 33  1  0  0  0  0
  5  6  1  0  0  0  0
  7  8  1  0  0  0  0
  7  5  1  0  0  0  0
  9  7  2  0  0  0  0
 10 11  1  0  0  0  0
 10  9  1  0  0  0  0
 12 10  1  0  0  0  0
 13 12  1  0  0  0  0
 14 12  2  0  0  0  0
 14 16  1  0  0  0  0
 15 14  1  0  0  0  0
 16 32  2  0  0  0  0
 17 18  1  0  0  0  0
 18 19  1  0  0  0  0
 18 20  2  0  0  0  0
 20 21  1  0  0  0  0
 22 20  1  0  0  0  0
 22 23  1  0  0  0  0
 24 22  2  0  0  0  0
 25 24  1  0  0  0  0
 26 17  2  0  0  0  0
 26 24  1  0  0  0  0
 27 26  1  0  0  0  0
 28  3  1  0  0  0  0
 29 28  1  0  0  0  0
 30 28  1  0  0  0  0
 31 28  1  0  0  0  0
 32  9  1  0  0  0  0
 32  2  1  0  0  0  0
 33 34  1  0  0  0  0
 35 36  1  0  0  0  0
 35 44  1  0  0  0  0
 35 40  1  0  0  0  0
 36 37  1  0  0  0  0
 38 36  1  0  0  0  0
 39 36  1  0  0  0  0
 40 43  1  0  0  0  0
 41 40  1  0  0  0  0
 42 40  1  0  0  0  0
 44 47  1  0  0  0  0
 45 44  1  0  0  0  0
 46 44  1  0  0  0  0
 48 57  1  0  0  0  0
 48  1  1  0  0  0  0
 49 51  1  0  0  0  0
 49 48  1  0  0  0  0
 50 49  1  0  0  0  0
 52 49  1  0  0  0  0
 53 56  1  0  0  0  0
 53 48  1  0  0  0  0
 53 55  1  0  0  0  0
 54 53  1  0  0  0  0
 57 59  1  0  0  0  0
 57 60  1  0  0  0  0
 58 57  1  0  0  0  0
M  END
