2,3,4,22
q = 0.0, confidence = 0.994

 54 56  0  0  1  0  0  0  0  0999 V2000
    3.0240    2.9595    0.2627 O   0  0  0  0  0  0  0  0  0  0  0  0
   -1.2041   -1.7367    1.1129 N   0  0  0  0  0  0  0  0  0  0  0  0
    0.9396   -0.8819   -1.2199 N   0  0  0  0  0  2  0  0  0  0  0  0
   -1.7739    1.0202   -0.5032 N   0  0  0  0  0  2  0  0  0  0  0  0
    2.0203   -0.2368   -1.7195 C   0  0  0  0  0  3  0  0  0  0  0  0
    2.9341   -0.8424   -2.5868 C   0  0  0  0  0  0  0  0  0  0  0  0
    2.7287   -2.1808   -2.9466 C   0  0  0  0  0  0  0  0  0  0  0  0
    1.6081   -2.8488   -2.4356 C   0  0  0  0  0  0  0  0  0  0  0  0
    0.7185   -2.1755   -1.5802 C   0  0  0  0  0  0  0  0  0  0  0  0
   -0.5245   -2.8594   -1.0617 C   0  0  0  0  0  0  0  0  0  0  0  0
   -0.6629   -2.9542    0.4692 C   0  0  0  0  0  0  0  0  0  0  0  0
   -1.5793    1.8761   -1.5319 C   0  0  0  0  0  3  0  0  0  0  0  0
   -2.6284    2.5027   -2.2090 C   0  0  0  0  0  0  0  0  0  0  0  0
   -3.9425    2.2207   -1.8075 C   0  0  0  0  0  0  0  0  0  0  0  0
   -4.1462    1.3310   -0.7453 C   0  0  0  0  0  0  0  0  0  0  0  0
   -3.0422    0.7443   -0.0997 C   0  0  0  0  0  0  0  0  0  0  0  0
   -3.2275   -0.1970    1.0664 C   0  0  0  0  0  0  0  0  0  0  0  0
   -2.6606   -1.6167    0.8785 C   0  0  0  0  0  0  0  0  0  0  0  0
   -0.9140   -1.7262    2.5654 C   0  0  0  0  0  0  0  0  0  0  0  0
    0.5591   -1.4736    2.9062 C   0  0  0  0  0  0  0  0  0  0  0  0
    1.1690   -0.2800    2.2008 C   0  0  1  0  0  3  0  0  0  0  0  0
    0.4350    0.9241    2.0002 C   0  0  0  0  0  3  0  0  0  0  0  0
    1.0320    2.0372    1.3464 C   0  0  0  0  0  0  0  0  0  0  0  0
    2.3775    1.9746    0.9360 C   0  0  0  0  0  0  0  0  0  0  0  0
    3.1298    0.8029    1.1943 C   0  0  0  0  0  0  0  0  0  0  0  0
    2.5259   -0.3012    1.7921 C   0  0  0  0  0  0  0  0  0  0  0  0
    2.3461    4.1862    0.0365 C   0  0  0  0  0  0  0  0  0  0  0  0
    2.1554    0.8091   -1.4076 H   0  0  0  0  0  0  0  0  0  0  0  0
    3.7898   -0.2675   -2.9680 H   0  0  0  0  0  0  0  0  0  0  0  0
    3.4272   -2.6978   -3.6211 H   0  0  0  0  0  0  0  0  0  0  0  0
    1.4100   -3.8966   -2.7044 H   0  0  0  0  0  0  0  0  0  0  0  0
   -1.4149   -2.3473   -1.4882 H   0  0  0  0  0  0  0  0  0  0  0  0
   -0.5483   -3.8880   -1.4704 H   0  0  0  0  0  0  0  0  0  0  0  0
    0.3325   -3.1602    0.9079 H   0  0  0  0  0  0  0  0  0  0  0  0
   -1.3072   -3.8296    0.7245 H   0  0  0  0  0  0  0  0  0  0  0  0
   -0.5300    2.0612   -1.8142 H   0  0  0  0  0  0  0  0  0  0  0  0
   -2.4154    3.1960   -3.0349 H   0  0  0  0  0  0  0  0  0  0  0  0
   -4.7989    2.6894   -2.3145 H   0  0  0  0  0  0  0  0  0  0  0  0
   -5.1634    1.0909   -0.4030 H   0  0  0  0  0  0  0  0  0  0  0  0
   -2.7906    0.2652    1.9780 H   0  0  0  0  0  0  0  0  0  0  0  0
   -4.3118   -0.2880    1.2707 H   0  0  0  0  0  0  0  0  0  0  0  0
   -2.8778   -1.9515   -0.1551 H   0  0  0  0  0  0  0  0  0  0  0  0
   -3.2048   -2.3200    1.5530 H   0  0  0  0  0  0  0  0  0  0  0  0
   -1.5342   -0.9279    3.0187 H   0  0  0  0  0  0  0  0  0  0  0  0
   -1.2553   -2.6799    3.0344 H   0  0  0  0  0  0  0  0  0  0  0  0
    1.1735   -2.3711    2.6883 H   0  0  0  0  0  0  0  0  0  0  0  0
    0.6225   -1.3422    4.0089 H   0  0  0  0  0  0  0  0  0  0  0  0
   -0.5416    1.0701    2.4877 H   0  0  0  0  0  0  0  0  0  0  0  0
    0.4387    2.9509    1.2110 H   0  0  0  0  0  0  0  0  0  0  0  0
    4.1847    0.7821    0.8860 H   0  0  0  0  0  0  0  0  0  0  0  0
    3.1175   -1.2156    1.9545 H   0  0  0  0  0  0  0  0  0  0  0  0
    1.4355    4.0444   -0.5888 H   0  0  0  0  0  0  0  0  0  0  0  0
    2.0539    4.6751    0.9913 H   0  0  0  0  0  0  0  0  0  0  0  0
    3.0551    4.8399   -0.5026 H   0  0  0  0  0  0  0  0  0  0  0  0
  1 24  1  0  0  0  0
  2 19  1  0  0  0  0
  4 16  1  0  0  0  0
  5 28  1  0  0  0  0
  5  3  1  0  0  0  0
  6  5  1  0  0  0  0
  7  6  2  0  0  0  0
  7  8  1  0  0  0  0
  8  9  2  0  0  0  0
  9  3  1  0  0  0  0
  9 10  1  0  0  0  0
 10 11  1  0  0  0  0
 11 35  1  0  0  0  0
 11 34  1  0  0  0  0
 11  2  1  0  0  0  0
 12  4  1  0  0  0  0
 13 14  2  0  0  0  0
 13 12  1  0  0  0  0
 14 15  1  0  0  0  0
 15 39  1  0  0  0  0
 15 16  2  0  0  0  0
 16 17  1  0  0  0  0
 17 41  1  0  0  0  0
 17 40  1  0  0  0  0
 18 17  1  0  0  0  0
 18  2  1  0  0  0  0
 18 43  1  0  0  0  0
 19 20  1  0  0  0  0
 19 44  1  0  0  0  0
 19 45  1  0  0  0  0
 20 47  1  0  0  0  0
 21 20  1  1  0  0  0
 22 21  1  0  0  0  0
 22 48  1  0  0  0  0
 23 22  1  0  0  0  0
 24 25  1  0  0  0  0
 24 23  2  0  0  0  0
 25 26  2  0  0  0  0
 26 51  1  0  0  0  0
 26 21  1  0  0  0  0
 27  1  1  0  0  0  0
 27 53  1  0  0  0  0
 29  6  1  0  0  0  0
 30  7  1  0  0  0  0
 31  8  1  0  0  0  0
 32 10  1  0  0  0  0
 33 10  1  0  0  0  0
 36 12  1  0  0  0  0
 37 13  1  0  0  0  0
 38 14  1  0  0  0  0
 42 18  1  0  0  0  0
 46 20  1  0  0  0  0
 49 23  1  0  0  0  0
 50 25  1  0  0  0  0
 52 27  1  0  0  0  0
 54 27  1  0  0  0  0
M  END
