1,2,3,21
q = 0.0, confidence = 0.996

 60 63  0  0  1  0  0  0  0  0999 V2000
    0.0678   -0.5762   -1.6674 N   0  0  0  0  0  0  0  0  0  0  0  0
   -1.5416    1.7875   -0.1239 N   0  0  0  0  0  2  0  0  0  0  0  0
   -2.2497   -1.4379    0.3850 N   0  0  0  0  0  2  0  0  0  0  0  0
   -1.7563    2.6574    0.8902 C   0  0  0  0  0  3  0  0  0  0  0  0
   -2.1924    3.9691    0.6851 C   0  0  0  0  0  0  0  0  0  0  0  0
   -2.4035    4.4044   -0.6306 C   0  0  0  0  0  0  0  0  0  0  0  0
   -2.1773    3.5061   -1.6813 C   0  0  0  0  0  0  0  0  0  0  0  0
   -1.7538    2.1939   -1.4039 C   0  0  0  0  0  0  0  0  0  0  0  0
   -1.5355    1.1947   -2.5150 C   0  0  0  0  0  0  0  0  0  0  0  0
   -0.1302    0.5674   -2.5852 C   0  0  0  0  0  0  0  0  0  0  0  0
   -3.3568   -1.1760    1.1151 C   0  0  0  0  0  3  0  0  0  0  0  0
   -4.4527   -2.0412    1.1687 C   0  0  0  0  0  0  0  0  0  0  0  0
   -4.4009   -3.2282    0.4236 C   0  0  0  0  0  0  0  0  0  0  0  0
   -3.2570   -3.4968   -0.3386 C   0  0  0  0  0  0  0  0  0  0  0  0
   -2.1846   -2.5860   -0.3399 C   0  0  0  0  0  0  0  0  0  0  0  0
   -0.9327   -2.8545   -1.1415 C   0  0  0  0  0  0  0  0  0  0  0  0
   -0.5859   -1.7925   -2.2002 C   0  0  0  0  0  0  0  0  0  0  0  0
    1.5036   -0.8190   -1.4021 C   0  0  0  0  0  0  0  0  0  0  0  0
    2.1353    0.2089   -0.4438 C   0  0  1  0  0  0  0  0  0  0  0  0
    1.3775    0.3500    0.8705 C   0  0  1  0  0  3  0  0  0  0  0  0
    0.7503   -0.7615    1.5173 C   0  0  0  0  0  3  0  0  0  0  0  0
    0.1705   -0.5933    2.8059 C   0  0  0  0  0  0  0  0  0  0  0  0
    0.2600    0.6306    3.4749 C   0  0  0  0  0  0  0  0  0  0  0  0
    0.9229    1.7159    2.8619 C   0  0  0  0  0  0  0  0  0  0  0  0
    1.4553    1.5797    1.5781 C   0  0  0  0  0  0  0  0  0  0  0  0
    3.6169   -0.1186   -0.2583 C   0  0  0  0  0  0  0  0  0  0  0  0
    4.0755   -0.9365    0.7921 C   0  0  0  0  0  0  0  0  0  0  0  0
    5.4362   -1.2633    0.8986 C   0  0  0  0  0  0  0  0  0  0  0  0
    6.3563   -0.7775   -0.0428 C   0  0  0  0  0  0  0  0  0  0  0  0
    5.9096    0.0418   -1.0914 C   0  0  0  0  0  0  0  0  0  0  0  0
    4.5499    0.3683   -1.1957 C   0  0  0  0  0  0  0  0  0  0  0  0
   -1.5572    2.2775    1.9040 H   0  0  0  0  0  0  0  0  0  0  0  0
   -2.3602    4.6327    1.5451 H   0  0  0  0  0  0  0  0  0  0  0  0
   -2.7417    5.4307   -0.8375 H   0  0  0  0  0  0  0  0  0  0  0  0
   -2.3337    3.8141   -2.7254 H   0  0  0  0  0  0  0  0  0  0  0  0
   -2.2989    0.3904   -2.4289 H   0  0  0  0  0  0  0  0  0  0  0  0
   -1.7385    1.6986   -3.4795 H   0  0  0  0  0  0  0  0  0  0  0  0
    0.6228    1.3418   -2.3420 H   0  0  0  0  0  0  0  0  0  0  0  0
    0.0774    0.2466   -3.6337 H   0  0  0  0  0  0  0  0  0  0  0  0
   -3.3509   -0.2303    1.6805 H   0  0  0  0  0  0  0  0  0  0  0  0
   -5.3268   -1.7854    1.7840 H   0  0  0  0  0  0  0  0  0  0  0  0
   -5.2416   -3.9376    0.4360 H   0  0  0  0  0  0  0  0  0  0  0  0
   -3.1840   -4.4189   -0.9335 H   0  0  0  0  0  0  0  0  0  0  0  0
   -1.0535   -3.8251   -1.6600 H   0  0  0  0  0  0  0  0  0  0  0  0
   -0.0729   -2.9921   -0.4510 H   0  0  0  0  0  0  0  0  0  0  0  0
   -1.5197   -1.4901   -2.7146 H   0  0  0  0  0  0  0  0  0  0  0  0
    0.0641   -2.2514   -2.9821 H   0  0  0  0  0  0  0  0  0  0  0  0
    1.6098   -1.8303   -0.9615 H   0  0  0  0  0  0  0  0  0  0  0  0
    2.0829   -0.8425   -2.3546 H   0  0  0  0  0  0  0  0  0  0  0  0
    2.0977    1.2038   -0.9367 H   0  0  0  0  0  0  0  0  0  0  0  0
    0.8627   -1.7803    1.1170 H   0  0  0  0  0  0  0  0  0  0  0  0
   -0.3115   -1.4554    3.2911 H   0  0  0  0  0  0  0  0  0  0  0  0
   -0.1684    0.7400    4.4822 H   0  0  0  0  0  0  0  0  0  0  0  0
    1.0198    2.6738    3.3944 H   0  0  0  0  0  0  0  0  0  0  0  0
    1.9650    2.4309    1.1006 H   0  0  0  0  0  0  0  0  0  0  0  0
    3.3694   -1.3106    1.5484 H   0  0  0  0  0  0  0  0  0  0  0  0
    5.7804   -1.8976    1.7292 H   0  0  0  0  0  0  0  0  0  0  0  0
    7.4233   -1.0309    0.0447 H   0  0  0  0  0  0  0  0  0  0  0  0
    6.6250    0.4351   -1.8291 H   0  0  0  0  0  0  0  0  0  0  0  0
    4.2068    1.0190   -2.0168 H   0  0  0  0  0  0  0  0  0  0  0  0
  1 18  1  0  0  0  0
  2  4  1  0  0  0  0
  3 11  1  0  0  0  0
  4 32  1  0  0  0  0
  5  4  1  0  0  0  0
  5 33  1  0  0  0  0
  6  5  2  0  0  0  0
  7  8  2  0  0  0  0
  7  6  1  0  0  0  0
  8  2  1  0  0  0  0
  9 36  1  0  0  0  0
  9  8  1  0  0  0  0
 10  9  1  0  0  0  0
 10 38  1  0  0  0  0
 10  1  1  0  0  0  0
 11 12  1  0  0  0  0
 11 40  1  0  0  0  0
 12 41  1  0  0  0  0
 13 42  1  0  0  0  0
 13 12  2  0  0  0  0
 14 13  1  0  0  0  0
 15 14  2  0  0  0  0
 15  3  1  0  0  0  0
 16 45  1  0  0  0  0
 16 15  1  0  0  0  0
 17  1  1  0  0  0  0
 17 16  1  0  0  0  0
 18 48  1  0  0  0  0
 18 19  1  0  0  0  0
 19 50  1  6  0  0  0
 19 26  1  0  0  0  0
 20 19  1  1  0  0  0
 20 21  1  0  0  0  0
 20 25  1  0  0  0  0
 21 22  1  0  0  0  0
 22 52  1  0  0  0  0
 22 23  2  0  0  0  0
 23 53  1  0  0  0  0
 24 54  1  0  0  0  0
 24 23  1  0  0  0  0
 25 24  2  0  0  0  0
 26 27  1  0  0  0  0
 27 28  2  0  0  0  0
 27 56  1  0  0  0  0
 28 57  1  0  0  0  0
 29 58  1  0  0  0  0
 29 28  1  0  0  0  0
 30 29  2  0  0  0  0
 31 30  1  0  0  0  0
 31 26  2  0  0  0  0
 34  6  1  0  0  0  0
 35  7  1  0  0  0  0
 37  9  1  0  0  0  0
 39 10  1  0  0  0  0
 43 14  1  0  0  0  0
 44 16  1  0  0  0  0
 46 17  1  0  0  0  0
 47 17  1  0  0  0  0
 49 18  1  0  0  0  0
 51 21  1  0  0  0  0
 55 25  1  0  0  0  0
 59 30  1  0  0  0  0
 60 31  1  0  0  0  0
M  END
