2,3,4,22
q = 0.0, confidence = 0.986

 50 52  0  0  1  0  0  0  0  0999 V2000
   -3.6072   -2.6102    0.3592 Cl  0  0  0  0  0  0  0  0  0  0  0  0
    1.1113    1.9506    0.7066 N   0  0  0  0  0  0  0  0  0  0  0  0
   -1.0958    0.4930   -1.1721 N   0  0  0  0  0  2  0  0  0  0  0  0
    2.0675   -0.9463   -0.4930 N   0  0  0  0  0  2  0  0  0  0  0  0
   -1.6290   -0.4764   -1.9524 C   0  0  0  0  0  3  0  0  0  0  0  0
   -2.6540   -0.2385   -2.8702 C   0  0  0  0  0  0  0  0  0  0  0  0
   -3.1376    1.0705   -3.0023 C   0  0  0  0  0  0  0  0  0  0  0  0
   -2.5827    2.0763   -2.2021 C   0  0  0  0  0  0  0  0  0  0  0  0
   -1.5664    1.7630   -1.2801 C   0  0  0  0  0  0  0  0  0  0  0  0
   -1.0281    2.8275   -0.3513 C   0  0  0  0  0  0  0  0  0  0  0  0
    0.4952    2.9509   -0.1984 C   0  0  0  0  0  0  0  0  0  0  0  0
    2.1315   -2.2980   -0.5364 C   0  0  0  0  0  3  0  0  0  0  0  0
    3.3002   -2.9984   -0.8424 C   0  0  0  0  0  0  0  0  0  0  0  0
    4.4666   -2.2665   -1.1079 C   0  0  0  0  0  0  0  0  0  0  0  0
    4.4045   -0.8683   -1.0655 C   0  0  0  0  0  0  0  0  0  0  0  0
    3.1896   -0.2260   -0.7655 C   0  0  0  0  0  0  0  0  0  0  0  0
    3.0870    1.2791   -0.7608 C   0  0  0  0  0  0  0  0  0  0  0  0
    2.5836    1.9247    0.5436 C   0  0  0  0  0  0  0  0  0  0  0  0
    0.7605    2.2247    2.1268 C   0  0  0  0  0  0  0  0  0  0  0  0
    0.6033    0.9403    2.9485 C   0  0  0  0  0  0  0  0  0  0  0  0
   -0.4528    0.0302    2.3535 C   0  0  1  0  0  3  0  0  0  0  0  0
   -0.1086   -1.2511    1.8400 C   0  0  0  0  0  3  0  0  0  0  0  0
   -1.0937   -2.0809    1.2526 C   0  0  0  0  0  0  0  0  0  0  0  0
   -2.4174   -1.6302    1.1638 C   0  0  0  0  0  0  0  0  0  0  0  0
   -2.7899   -0.3880    1.7142 C   0  0  0  0  0  0  0  0  0  0  0  0
   -1.8130    0.4242    2.2980 C   0  0  0  0  0  0  0  0  0  0  0  0
   -1.2162   -1.4879   -1.8193 H   0  0  0  0  0  0  0  0  0  0  0  0
   -3.0600   -1.0674   -3.4665 H   0  0  0  0  0  0  0  0  0  0  0  0
   -3.9387    1.3061   -3.7186 H   0  0  0  0  0  0  0  0  0  0  0  0
   -2.9407    3.1133   -2.2788 H   0  0  0  0  0  0  0  0  0  0  0  0
   -1.4105    3.8069   -0.6984 H   0  0  0  0  0  0  0  0  0  0  0  0
   -1.4927    2.6701    0.6470 H   0  0  0  0  0  0  0  0  0  0  0  0
    0.7392    3.9785    0.1637 H   0  0  0  0  0  0  0  0  0  0  0  0
    0.9673    2.8557   -1.1962 H   0  0  0  0  0  0  0  0  0  0  0  0
    1.1952   -2.8348   -0.3184 H   0  0  0  0  0  0  0  0  0  0  0  0
    3.2903   -4.0971   -0.8714 H   0  0  0  0  0  0  0  0  0  0  0  0
    5.4110   -2.7771   -1.3473 H   0  0  0  0  0  0  0  0  0  0  0  0
    5.2980   -0.2615   -1.2723 H   0  0  0  0  0  0  0  0  0  0  0  0
    4.0897    1.6944   -0.9789 H   0  0  0  0  0  0  0  0  0  0  0  0
    2.4447    1.5953   -1.6119 H   0  0  0  0  0  0  0  0  0  0  0  0
    2.9802    2.9668    0.6046 H   0  0  0  0  0  0  0  0  0  0  0  0
    3.0101    1.3756    1.4070 H   0  0  0  0  0  0  0  0  0  0  0  0
    1.5115    2.9081    2.5854 H   0  0  0  0  0  0  0  0  0  0  0  0
   -0.1997    2.7752    2.1460 H   0  0  0  0  0  0  0  0  0  0  0  0
    1.5701    0.4001    3.0145 H   0  0  0  0  0  0  0  0  0  0  0  0
    0.3335    1.2230    3.9882 H   0  0  0  0  0  0  0  0  0  0  0  0
    0.8984   -1.6571    2.0241 H   0  0  0  0  0  0  0  0  0  0  0  0
   -0.8382   -3.0856    0.8861 H   0  0  0  0  0  0  0  0  0  0  0  0
   -3.8405   -0.0689    1.6740 H   0  0  0  0  0  0  0  0  0  0  0  0
   -2.1166    1.3874    2.7377 H   0  0  0  0  0  0  0  0  0  0  0  0
  1 24  1  0  0  0  0
  2 19  1  0  0  0  0
  5 27  1  0  0  0  0
  5  3  1  0  0  0  0
  6  5  1  0  0  0  0
  7  6  2  0  0  0  0
  7  8  1  0  0  0  0
  8  9  2  0  0  0  0
  9  3  1  0  0  0  0
  9 10  1  0  0  0  0
 10 11  1  0  0  0  0
 10 32  1  0  0  0  0
 11 33  1  0  0  0  0
 11  2  1  0  0  0  0
 12  4  1  0  0  0  0
 12 35  1  0  0  0  0
 13 12  1  0  0  0  0
 14 15  1  0  0  0  0
 14 13  2  0  0  0  0
 15 16  2  0  0  0  0
 16 17  1  0  0  0  0
 16  4  1  0  0  0  0
 17 18  1  0  0  0  0
 18 41  1  0  0  0  0
 18  2  1  0  0  0  0
 18 42  1  0  0  0  0
 19 44  1  0  0  0  0
 19 43  1  0  0  0  0
 19 20  1  0  0  0  0
 20 45  1  0  0  0  0
 20 46  1  0  0  0  0
 21 20  1  1  0  0  0
 22 47  1  0  0  0  0
 22 21  1  0  0  0  0
 23 22  1  0  0  0  0
 24 23  2  0  0  0  0
 24 25  1  0  0  0  0
 25 26  2  0  0  0  0
 26 21  1  0  0  0  0
 26 50  1  0  0  0  0
 28  6  1  0  0  0  0
 29  7  1  0  0  0  0
 30  8  1  0  0  0  0
 31 10  1  0  0  0  0
 34 11  1  0  0  0  0
 36 13  1  0  0  0  0
 37 14  1  0  0  0  0
 38 15  1  0  0  0  0
 39 17  1  0  0  0  0
 40 17  1  0  0  0  0
 48 23  1  0  0  0  0
 49 25  1  0  0  0  0
M  END
