1,2,3,21
q = 0.0, confidence = 0.994

 50 52  0  0  1  0  0  0  0  0999 V2000
   -0.3955   -0.7079    1.9370 N   0  0  0  0  0  0  0  0  0  0  0  0
    1.3234    1.1838   -0.0788 N   0  0  0  0  0  2  0  0  0  0  0  0
   -1.8787    0.4084   -0.7043 N   0  0  0  0  0  2  0  0  0  0  0  0
    2.1150    1.4334   -1.1478 C   0  0  0  0  0  3  0  0  0  0  0  0
    3.1585    2.3627   -1.1200 C   0  0  0  0  0  0  0  0  0  0  0  0
    3.4025    3.0571    0.0728 C   0  0  0  0  0  0  0  0  0  0  0  0
    2.5852    2.7986    1.1807 C   0  0  0  0  0  0  0  0  0  0  0  0
    1.5413    1.8617    1.0797 C   0  0  0  0  0  0  0  0  0  0  0  0
    0.6191    1.5972    2.2460 C   0  0  0  0  0  0  0  0  0  0  0  0
    0.5336    0.1351    2.7220 C   0  0  0  0  0  0  0  0  0  0  0  0
   -1.9832    1.2551   -1.7531 C   0  0  0  0  0  3  0  0  0  0  0  0
   -3.1799    1.8851   -2.1038 C   0  0  0  0  0  0  0  0  0  0  0  0
   -4.3186    1.6325   -1.3249 C   0  0  0  0  0  0  0  0  0  0  0  0
   -4.2100    0.7601   -0.2346 C   0  0  0  0  0  0  0  0  0  0  0  0
   -2.9755    0.1512    0.0562 C   0  0  0  0  0  0  0  0  0  0  0  0
   -2.8307   -0.8094    1.2128 C   0  0  0  0  0  0  0  0  0  0  0  0
   -1.8023   -0.4078    2.2861 C   0  0  0  0  0  0  0  0  0  0  0  0
   -0.1053   -2.1485    2.1236 C   0  0  0  0  0  0  0  0  0  0  0  0
    1.1590   -2.6126    1.3961 C   0  0  0  0  0  0  0  0  0  0  0  0
    1.2146   -2.2462   -0.0759 C   0  0  2  0  0  3  0  0  0  0  0  0
    0.0454   -2.2756   -0.8988 C   0  0  0  0  0  3  0  0  0  0  0  0
    0.1565   -2.0146   -2.2922 C   0  0  0  0  0  0  0  0  0  0  0  0
    1.4067   -1.7903   -2.8796 C   0  0  0  0  0  0  0  0  0  0  0  0
    2.5671   -1.8057   -2.0786 C   0  0  0  0  0  0  0  0  0  0  0  0
    2.4669   -2.0076   -0.6984 C   0  0  0  0  0  0  0  0  0  0  0  0
    1.8980    0.8523   -2.0566 H   0  0  0  0  0  0  0  0  0  0  0  0
    3.7654    2.5334   -2.0203 H   0  0  0  0  0  0  0  0  0  0  0  0
    4.2171    3.7934    0.1403 H   0  0  0  0  0  0  0  0  0  0  0  0
    2.7462    3.3277    2.1313 H   0  0  0  0  0  0  0  0  0  0  0  0
    0.9536    2.2176    3.0996 H   0  0  0  0  0  0  0  0  0  0  0  0
   -0.3975    1.9671    1.9874 H   0  0  0  0  0  0  0  0  0  0  0  0
    0.2362    0.1168    3.7977 H   0  0  0  0  0  0  0  0  0  0  0  0
    1.5413   -0.3206    2.6691 H   0  0  0  0  0  0  0  0  0  0  0  0
   -1.0612    1.4240   -2.3324 H   0  0  0  0  0  0  0  0  0  0  0  0
   -3.2139    2.5592   -2.9712 H   0  0  0  0  0  0  0  0  0  0  0  0
   -5.2811    2.1084   -1.5643 H   0  0  0  0  0  0  0  0  0  0  0  0
   -5.0840    0.5390    0.3952 H   0  0  0  0  0  0  0  0  0  0  0  0
   -3.8164   -0.9102    1.7067 H   0  0  0  0  0  0  0  0  0  0  0  0
   -2.5901   -1.8209    0.8200 H   0  0  0  0  0  0  0  0  0  0  0  0
   -2.0613   -0.9088    3.2490 H   0  0  0  0  0  0  0  0  0  0  0  0
   -1.8921    0.6807    2.4718 H   0  0  0  0  0  0  0  0  0  0  0  0
   -0.0364   -2.3949    3.2098 H   0  0  0  0  0  0  0  0  0  0  0  0
   -0.9775   -2.7144    1.7404 H   0  0  0  0  0  0  0  0  0  0  0  0
    2.0680   -2.2203    1.8967 H   0  0  0  0  0  0  0  0  0  0  0  0
    1.2227   -3.7174    1.5067 H   0  0  0  0  0  0  0  0  0  0  0  0
   -0.9044   -2.6720   -0.5078 H   0  0  0  0  0  0  0  0  0  0  0  0
   -0.7507   -2.0412   -2.9145 H   0  0  0  0  0  0  0  0  0  0  0  0
    1.4829   -1.6204   -3.9638 H   0  0  0  0  0  0  0  0  0  0  0  0
    3.5553   -1.6511   -2.5368 H   0  0  0  0  0  0  0  0  0  0  0  0
    3.3750   -1.9972   -0.0758 H   0  0  0  0  0  0  0  0  0  0  0  0
  1 18  1  0  0  0  0
  1 17  1  0  0  0  0
  1 10  1  0  0  0  0
  2  8  1  0  0  0  0
  3 15  1  0  0  0  0
  4  5  1  0  0  0  0
  4  2  1  0  0  0  0
  5  6  2  0  0  0  0
  6 28  1  0  0  0  0
  6  7  1  0  0  0  0
  7 29  1  0  0  0  0
  8  7  2  0  0  0  0
  8  9  1  0  0  0  0
  9 10  1  0  0  0  0
  9 30  1  0  0  0  0
 10 32  1  0  0  0  0
 11  3  1  0  0  0  0
 12 11  1  0  0  0  0
 12 13  2  0  0  0  0
 13 14  1  0  0  0  0
 14 15  2  0  0  0  0
 14 37  1  0  0  0  0
 15 16  1  0  0  0  0
 16 38  1  0  0  0  0
 16 17  1  0  0  0  0
 17 41  1  0  0  0  0
 17 40  1  0  0  0  0
 18 42  1  0  0  0  0
 19 45  1  0  0  0  0
 19 44  1  0  0  0  0
 19 18  1  0  0  0  0
 20 19  1  6  0  0  0
 21 46  1  0  0  0  0
 21 20  1  0  0  0  0
 22 21  1  0  0  0  0
 23 22  2  0  0  0  0
 23 24  1  0  0  0  0
 24 25  2  0  0  0  0
 25 20  1  0  0  0  0
 25 50  1  0  0  0  0
 26  4  1  0  0  0  0
 27  5  1  0  0  0  0
 31  9  1  0  0  0  0
 33 10  1  0  0  0  0
 34 11  1  0  0  0  0
 35 12  1  0  0  0  0
 36 13  1  0  0  0  0
 39 16  1  0  0  0  0
 43 18  1  0  0  0  0
 47 22  1  0  0  0  0
 48 23  1  0  0  0  0
 49 24  1  0  0  0  0
M  END
