3,4,5,25
q = -1.0

 34 36  0  0  1  0  0  0  0  0999 V2000
   -0.0009   -1.7123    2.1350 S   0  0  0  0  0  0  0  0  0  0  0  0
   -1.4839    0.8593    2.1339 S   0  0  0  0  0  0  0  0  0  0  0  0
   -0.0011   -2.0642   -0.5529 N   0  0  0  0  0  2  0  0  0  0  0  0
   -1.7884    1.0331   -0.5543 N   0  0  0  0  0  2  0  0  0  0  0  0
   -0.0000    0.0014    1.5816 C   0  0  1  0  0  3  0  0  0  0  0  0
   -0.0014   -2.6740    0.6423 C   0  0  2  0  0  3  0  0  0  0  0  0
   -0.0022   -4.0861    0.7352 C   0  0  0  0  0  0  0  0  0  0  0  0
   -0.0025   -4.5718    1.7222 H   0  0  0  0  0  0  0  0  0  0  0  0
   -0.0026   -4.8295   -0.4455 C   0  0  0  0  0  0  0  0  0  0  0  0
   -0.0032   -5.9296   -0.3979 H   0  0  0  0  0  0  0  0  0  0  0  0
   -0.0022   -4.1709   -1.6929 C   0  0  0  0  0  0  0  0  0  0  0  0
   -0.0026   -4.7321   -2.6376 H   0  0  0  0  0  0  0  0  0  0  0  0
   -0.0015   -2.7758   -1.7013 C   0  0  0  0  0  0  0  0  0  0  0  0
   -0.0011   -2.1401   -2.6057 H   0  0  0  0  0  0  0  0  0  0  0  0
   -2.3166    1.3387    0.6407 C   0  0  1  0  0  3  0  0  0  0  0  0
   -3.5398    2.0443    0.7332 C   0  0  0  0  0  0  0  0  0  0  0  0
   -3.9604    2.2877    1.7200 H   0  0  0  0  0  0  0  0  0  0  0  0
   -4.1840    2.4147   -0.4478 C   0  0  0  0  0  0  0  0  0  0  0  0
   -5.1369    2.9643   -0.4005 H   0  0  0  0  0  0  0  0  0  0  0  0
   -3.6136    2.0846   -1.6949 C   0  0  0  0  0  0  0  0  0  0  0  0
   -4.0999    2.3641   -2.6398 H   0  0  0  0  0  0  0  0  0  0  0  0
   -2.4051    1.3877   -1.7029 C   0  0  0  0  0  0  0  0  0  0  0  0
   -1.8548    1.0695   -2.6073 H   0  0  0  0  0  0  0  0  0  0  0  0
    1.4847    0.8578    2.1339 S   0  0  0  0  0  0  0  0  0  0  0  0
    1.7895    1.0312   -0.5543 N   0  0  0  0  0  2  0  0  0  0  0  0
    2.3180    1.3363    0.6407 C   0  0  2  0  0  3  0  0  0  0  0  0
    3.5420    2.0405    0.7332 C   0  0  0  0  0  0  0  0  0  0  0  0
    3.9629    2.2835    1.7200 H   0  0  0  0  0  0  0  0  0  0  0  0
    4.1866    2.4102   -0.4477 C   0  0  0  0  0  0  0  0  0  0  0  0
    5.1401    2.9587   -0.4004 H   0  0  0  0  0  0  0  0  0  0  0  0
    3.6158    2.0807   -1.6949 C   0  0  0  0  0  0  0  0  0  0  0  0
    4.1024    2.3596   -2.6398 H   0  0  0  0  0  0  0  0  0  0  0  0
    2.4065    1.3851   -1.7028 C   0  0  0  0  0  0  0  0  0  0  0  0
    1.8559    1.0675   -2.6073 H   0  0  0  0  0  0  0  0  0  0  0  0
  3  6  1  0  0  0  0
  4 15  1  0  0  0  0
  5  2  1  1  0  0  0
  5 24  1  0  0  0  0
  5  1  1  0  0  0  0
  6  7  1  0  0  0  0
  6  1  1  1  0  0  0
  7  8  1  0  0  0  0
  9 10  1  0  0  0  0
  9  7  2  0  0  0  0
 11  9  1  0  0  0  0
 12 11  1  0  0  0  0
 13 11  2  0  0  0  0
 13  3  1  0  0  0  0
 14 13  1  0  0  0  0
 15 16  1  0  0  0  0
 15  2  1  1  0  0  0
 16 17  1  0  0  0  0
 18 19  1  0  0  0  0
 18 16  2  0  0  0  0
 20 18  1  0  0  0  0
 21 20  1  0  0  0  0
 22 20  2  0  0  0  0
 22  4  1  0  0  0  0
 23 22  1  0  0  0  0
 25 26  1  0  0  0  0
 26 27  1  0  0  0  0
 26 24  1  1  0  0  0
 27 28  1  0  0  0  0
 29 30  1  0  0  0  0
 29 27  2  0  0  0  0
 31 29  1  0  0  0  0
 32 31  1  0  0  0  0
 33 31  2  0  0  0  0
 33 25  1  0  0  0  0
 34 33  1  0  0  0  0
M  END
