1,3,4,7
q = -1.0

 39 40  0  0  0  0  0  0  0  0999 V2000
   -0.0920   -2.0509   -1.0296 N   0  0  0  0  0  0  0  0  0  0  0  0
   -0.2350   -2.0834   -2.0510 H   0  0  0  0  0  0  0  0  0  0  0  0
   -1.6434   -0.0003   -0.3362 C   0  0  0  0  0  3  0  0  0  0  0  0
    2.2428   -0.0007   -1.0719 N   0  0  0  0  0  0  0  0  0  0  0  0
    2.2423   -0.0010   -2.1057 H   0  0  0  0  0  0  0  0  0  0  0  0
   -2.2870   -1.2368   -0.4416 C   0  0  0  0  0  0  0  0  0  0  0  0
   -0.0922    2.0498   -1.0316 N   0  0  0  0  0  0  0  0  0  0  0  0
   -0.2351    2.0822   -2.0530 H   0  0  0  0  0  0  0  0  0  0  0  0
   -3.6838   -1.2250   -0.6168 C   0  0  0  0  0  0  0  0  0  0  0  0
   -4.2314   -2.1757   -0.7104 H   0  0  0  0  0  0  0  0  0  0  0  0
   -4.3709   -0.0005   -0.6882 C   0  0  0  0  0  0  0  0  0  0  0  0
   -5.4617   -0.0006   -0.8273 H   0  0  0  0  0  0  0  0  0  0  0  0
   -3.6839    1.2241   -0.6179 C   0  0  0  0  0  0  0  0  0  0  0  0
   -4.2315    2.1747   -0.7123 H   0  0  0  0  0  0  0  0  0  0  0  0
   -2.2871    1.2361   -0.4428 C   0  0  0  0  0  0  0  0  0  0  0  0
   -1.3788   -2.4240   -0.3622 C   0  0  0  0  0  0  0  0  0  0  0  0
   -1.8076   -3.3542   -0.7919 H   0  0  0  0  0  0  0  0  0  0  0  0
   -1.1315   -2.6239    0.7036 H   0  0  0  0  0  0  0  0  0  0  0  0
    1.0224   -2.9435   -0.6544 C   0  0  0  0  0  0  0  0  0  0  0  0
    1.0724   -2.9388    0.4547 H   0  0  0  0  0  0  0  0  0  0  0  0
    0.7923   -3.9868   -0.9675 H   0  0  0  0  0  0  0  0  0  0  0  0
    2.3669   -2.5081   -1.2300 C   0  0  0  0  0  0  0  0  0  0  0  0
    3.0911   -3.3248   -1.0362 H   0  0  0  0  0  0  0  0  0  0  0  0
    2.3123   -2.4276   -2.3405 H   0  0  0  0  0  0  0  0  0  0  0  0
    2.9497   -1.2295   -0.6326 C   0  0  0  0  0  0  0  0  0  0  0  0
    4.0235   -1.1453   -0.9125 H   0  0  0  0  0  0  0  0  0  0  0  0
    2.8978   -1.2565    0.4764 H   0  0  0  0  0  0  0  0  0  0  0  0
    2.9498    1.2284   -0.6335 C   0  0  0  0  0  0  0  0  0  0  0  0
    4.0235    1.1440   -0.9133 H   0  0  0  0  0  0  0  0  0  0  0  0
    2.8979    1.2562    0.4754 H   0  0  0  0  0  0  0  0  0  0  0  0
    2.3669    2.5066   -1.2319 C   0  0  0  0  0  0  0  0  0  0  0  0
    2.3124    2.4254   -2.3423 H   0  0  0  0  0  0  0  0  0  0  0  0
    3.0911    3.3235   -1.0385 H   0  0  0  0  0  0  0  0  0  0  0  0
    1.0224    2.9423   -0.6565 C   0  0  0  0  0  0  0  0  0  0  0  0
    1.0723    2.9379    0.4526 H   0  0  0  0  0  0  0  0  0  0  0  0
    0.7924    3.9855   -0.9700 H   0  0  0  0  0  0  0  0  0  0  0  0
   -1.3789    2.4233   -0.3644 C   0  0  0  0  0  0  0  0  0  0  0  0
   -1.8078    3.3532   -0.7949 H   0  0  0  0  0  0  0  0  0  0  0  0
   -1.1316    2.6242    0.7012 H   0  0  0  0  0  0  0  0  0  0  0  0
  1 19  1  0  0  0  0
  1 16  1  0  0  0  0
  2  1  1  0  0  0  0
  4 28  1  0  0  0  0
  4 25  1  0  0  0  0
  5  4  1  0  0  0  0
  6 16  1  0  0  0  0
  6  3  1  0  0  0  0
  7 34  1  0  0  0  0
  7 37  1  0  0  0  0
  8  7  1  0  0  0  0
  9  6  2  0  0  0  0
 10  9  1  0  0  0  0
 11 13  2  0  0  0  0
 11  9  1  0  0  0  0
 12 11  1  0  0  0  0
 13 15  1  0  0  0  0
 14 13  1  0  0  0  0
 15 37  1  0  0  0  0
 15  3  2  0  0  0  0
 16 18  1  0  0  0  0
 17 16  1  0  0  0  0
 19 20  1  0  0  0  0
 21 19  1  0  0  0  0
 22 23  1  0  0  0  0
 22 19  1  0  0  0  0
 22 25  1  0  0  0  0
 24 22  1  0  0  0  0
 25 27  1  0  0  0  0
 26 25  1  0  0  0  0
 28 30  1  0  0  0  0
 29 28  1  0  0  0  0
 31 33  1  0  0  0  0
 31 34  1  0  0  0  0
 31 28  1  0  0  0  0
 32 31  1  0  0  0  0
 34 35  1  0  0  0  0
 36 34  1  0  0  0  0
 37 39  1  0  0  0  0
 38 37  1  0  0  0  0
M  END
