1,2,3,6
q = 0.0, confidence = 0.998

 47 49  0  0  0  0  0  0  0  0999 V2000
   -0.3765   -1.2025    1.4271 N   0  0  0  0  0  0  0  0  0  0  0  0
    1.5101   -0.3854   -1.1049 N   0  0  0  0  0  2  0  0  0  0  0  0
   -2.1822    0.2619   -0.7700 N   0  0  0  0  0  2  0  0  0  0  0  0
   -0.2015   -0.1399    2.4596 C   0  0  0  0  0  0  0  0  0  0  0  0
    0.6363    0.9901    1.8997 C   0  0  0  0  0  0  0  0  0  0  0  0
    0.0050    1.9817    1.1055 C   0  0  0  0  0  3  0  0  0  0  0  0
    0.7653    2.9883    0.4823 C   0  0  0  0  0  3  0  0  0  0  0  0
    2.1613    3.0067    0.6303 C   0  0  0  0  0  0  0  0  0  0  0  0
    2.7919    2.0380    1.4277 C   0  0  0  0  0  0  0  0  0  0  0  0
    2.0332    1.0419    2.0638 C   0  0  0  0  0  0  0  0  0  0  0  0
    2.2612    0.5494   -1.7351 C   0  0  0  0  0  3  0  0  0  0  0  0
    3.6050    0.3473   -2.0573 C   0  0  0  0  0  0  0  0  0  0  0  0
    4.2013   -0.8731   -1.7112 C   0  0  0  0  0  0  0  0  0  0  0  0
    3.4270   -1.8384   -1.0543 C   0  0  0  0  0  0  0  0  0  0  0  0
    2.0780   -1.5766   -0.7622 C   0  0  0  0  0  0  0  0  0  0  0  0
    1.2182   -2.5781   -0.0344 C   0  0  0  0  0  0  0  0  0  0  0  0
    0.7814   -2.1216    1.3771 C   0  0  0  0  0  0  0  0  0  0  0  0
   -2.6953    1.4317   -1.2264 C   0  0  0  0  0  3  0  0  0  0  0  0
   -4.0669    1.6806   -1.2933 C   0  0  0  0  0  0  0  0  0  0  0  0
   -4.9519    0.6785   -0.8668 C   0  0  0  0  0  0  0  0  0  0  0  0
   -4.4239   -0.5305   -0.3972 C   0  0  0  0  0  0  0  0  0  0  0  0
   -3.0319   -0.7244   -0.3629 C   0  0  0  0  0  0  0  0  0  0  0  0
   -2.4218   -2.0102    0.1300 C   0  0  0  0  0  0  0  0  0  0  0  0
   -1.6770   -1.9061    1.4827 C   0  0  0  0  0  0  0  0  0  0  0  0
    0.2425   -0.5520    3.3942 H   0  0  0  0  0  0  0  0  0  0  0  0
   -1.2067    0.2454    2.7165 H   0  0  0  0  0  0  0  0  0  0  0  0
   -1.0948    2.0224    1.0651 H   0  0  0  0  0  0  0  0  0  0  0  0
    0.2613    3.7755   -0.0990 H   0  0  0  0  0  0  0  0  0  0  0  0
    2.7571    3.7945    0.1457 H   0  0  0  0  0  0  0  0  0  0  0  0
    3.8828    2.0662    1.5676 H   0  0  0  0  0  0  0  0  0  0  0  0
    2.5353    0.3030    2.7079 H   0  0  0  0  0  0  0  0  0  0  0  0
    1.7512    1.4895   -1.9907 H   0  0  0  0  0  0  0  0  0  0  0  0
    4.1668    1.1352   -2.5783 H   0  0  0  0  0  0  0  0  0  0  0  0
    5.2556   -1.0737   -1.9529 H   0  0  0  0  0  0  0  0  0  0  0  0
    3.8615   -2.8076   -0.7697 H   0  0  0  0  0  0  0  0  0  0  0  0
    0.3282   -2.8293   -0.6492 H   0  0  0  0  0  0  0  0  0  0  0  0
    1.7919   -3.5190    0.0753 H   0  0  0  0  0  0  0  0  0  0  0  0
    1.6460   -1.6189    1.8508 H   0  0  0  0  0  0  0  0  0  0  0  0
    0.5653   -3.0233    1.9947 H   0  0  0  0  0  0  0  0  0  0  0  0
   -1.9638    2.1869   -1.5533 H   0  0  0  0  0  0  0  0  0  0  0  0
   -4.4309    2.6423   -1.6813 H   0  0  0  0  0  0  0  0  0  0  0  0
   -6.0400    0.8348   -0.9059 H   0  0  0  0  0  0  0  0  0  0  0  0
   -5.0883   -1.3399   -0.0613 H   0  0  0  0  0  0  0  0  0  0  0  0
   -3.2260   -2.7631    0.2464 H   0  0  0  0  0  0  0  0  0  0  0  0
   -1.7311   -2.4041   -0.6455 H   0  0  0  0  0  0  0  0  0  0  0  0
   -1.5333   -2.9357    1.8792 H   0  0  0  0  0  0  0  0  0  0  0  0
   -2.3348   -1.3849    2.2064 H   0  0  0  0  0  0  0  0  0  0  0  0
  1 24  1  0  0  0  0
  1  4  1  0  0  0  0
  2 15  1  0  0  0  0
  3 22  1  0  0  0  0
  4 26  1  0  0  0  0
  4 25  1  0  0  0  0
  5 10  2  0  0  0  0
  5  4  1  0  0  0  0
  6  5  1  0  0  0  0
  7  8  1  0  0  0  0
  7  6  1  0  0  0  0
  8  9  2  0  0  0  0
  9 30  1  0  0  0  0
  9 10  1  0  0  0  0
 10 31  1  0  0  0  0
 11  2  1  0  0  0  0
 12 11  1  0  0  0  0
 12 13  2  0  0  0  0
 13 14  1  0  0  0  0
 14 35  1  0  0  0  0
 14 15  2  0  0  0  0
 15 16  1  0  0  0  0
 16 37  1  0  0  0  0
 16 17  1  0  0  0  0
 17  1  1  0  0  0  0
 17 38  1  0  0  0  0
 17 39  1  0  0  0  0
 18  3  1  0  0  0  0
 19 18  1  0  0  0  0
 19 20  2  0  0  0  0
 20 21  1  0  0  0  0
 21 22  2  0  0  0  0
 21 43  1  0  0  0  0
 22 23  1  0  0  0  0
 23 44  1  0  0  0  0
 23 24  1  0  0  0  0
 24 46  1  0  0  0  0
 24 47  1  0  0  0  0
 27  6  1  0  0  0  0
 28  7  1  0  0  0  0
 29  8  1  0  0  0  0
 32 11  1  0  0  0  0
 33 12  1  0  0  0  0
 34 13  1  0  0  0  0
 36 16  1  0  0  0  0
 40 18  1  0  0  0  0
 41 19  1  0  0  0  0
 42 20  1  0  0  0  0
 45 23  1  0  0  0  0
M  END
