9,10,14,76
q = -2.0, confidence = 0.65

 79 87  0  0  1  0  0  0  0  0999 V2000
   -2.6794   -1.5157    0.2492 C   0  0  0  0  0  0  0  0  0  0  0  0
    1.1821   -1.4967    2.5877 O   0  0  0  0  0  0  0  0  0  0  0  0
    2.6047    1.6074    0.1426 C   0  0  0  0  0  0  0  0  0  0  0  0
   -4.0778   -1.2876    0.5490 C   0  0  0  0  0  3  0  0  0  0  0  0
   -4.8040   -2.0738    0.7793 H   0  0  0  0  0  0  0  0  0  0  0  0
   -0.7125   -2.9607   -0.1084 C   0  0  1  0  0  3  0  0  0  0  0  0
   -6.2142    3.5241   -1.0597 C   0  0  0  0  0  0  0  0  0  0  0  0
   -6.9934    3.3445   -1.8161 H   0  0  0  0  0  0  0  0  0  0  0  0
    1.9989    0.3663    0.0470 N   0  0  0  0  0  0  0  0  0  0  0  0
   -2.0413   -0.2971    0.0706 N   0  0  0  0  0  0  0  0  0  0  0  0
    6.3748   -4.4372   -0.4408 C   0  0  0  0  0  0  0  0  0  0  0  0
    7.2684   -5.0700   -0.5525 H   0  0  0  0  0  0  0  0  0  0  0  0
    2.8665    4.0692   -0.1052 C   0  0  0  0  0  0  0  0  0  0  0  0
   -0.3608    2.0851   -0.0877 N   0  0  0  0  0  2  0  0  0  0  0  0
   -6.3598    4.5686   -0.1328 C   0  0  0  0  0  0  0  0  0  0  0  0
   -7.2566    5.2063   -0.1547 H   0  0  0  0  0  0  0  0  0  0  0  0
    1.5979   -2.5778   -0.1236 C   0  0  2  0  0  3  0  0  0  0  0  0
    1.3236   -3.8565   -0.7032 C   0  0  0  0  0  0  0  0  0  0  0  0
    2.0849   -4.5169   -1.1379 H   0  0  0  0  0  0  0  0  0  0  0  0
   -4.8928   -5.0929   -1.1831 C   0  0  0  0  0  0  0  0  0  0  0  0
   -5.7220   -5.0713   -1.9067 H   0  0  0  0  0  0  0  0  0  0  0  0
   -4.6531   -6.2484   -0.4218 C   0  0  0  0  0  0  0  0  0  0  0  0
   -5.2994   -7.1316   -0.5386 H   0  0  0  0  0  0  0  0  0  0  0  0
   -0.0492   -4.0861   -0.6929 C   0  0  0  0  0  0  0  0  0  0  0  0
   -0.5619   -4.9577   -1.1194 H   0  0  0  0  0  0  0  0  0  0  0  0
   -1.5851    2.6938   -0.2404 C   0  0  0  0  0  0  0  0  0  0  0  0
    5.3796   -4.7795    0.4890 C   0  0  0  0  0  0  0  0  0  0  0  0
    5.4949   -5.6772    1.1154 H   0  0  0  0  0  0  0  0  0  0  0  0
   -2.8382    2.0670   -0.0470 C   0  0  0  0  0  0  0  0  0  0  0  0
   -1.3898    4.0915   -0.5726 C   0  0  0  0  0  0  0  0  0  0  0  0
   -2.1910    4.8054   -0.7889 H   0  0  0  0  0  0  0  0  0  0  0  0
   -5.3557    4.7956    0.8220 C   0  0  0  0  0  0  0  0  0  0  0  0
   -5.4660    5.6077    1.5567 H   0  0  0  0  0  0  0  0  0  0  0  0
    2.6845    5.1180    0.8232 C   0  0  0  0  0  0  0  0  0  0  0  0
    1.8969    5.0257    1.5860 H   0  0  0  0  0  0  0  0  0  0  0  0
   -4.2860    0.0675    0.4977 C   0  0  0  0  0  0  0  0  0  0  0  0
   -5.2161    0.6143    0.6824 H   0  0  0  0  0  0  0  0  0  0  0  0
   -5.0731    2.7097   -1.0308 C   0  0  0  0  0  0  0  0  0  0  0  0
   -4.9523    1.8971   -1.7628 H   0  0  0  0  0  0  0  0  0  0  0  0
   -4.0723   -3.9664   -1.0332 C   0  0  0  0  0  0  0  0  0  0  0  0
   -4.2494   -3.0679   -1.6429 H   0  0  0  0  0  0  0  0  0  0  0  0
    4.2506    0.0849    0.4976 C   0  0  0  0  0  0  0  0  0  0  0  0
    5.1920   -0.4281    0.7186 H   0  0  0  0  0  0  0  0  0  0  0  0
    4.0121    1.4344    0.4525 C   0  0  0  0  0  3  0  0  0  0  0  0
    4.7174    2.2514    0.6342 H   0  0  0  0  0  0  0  0  0  0  0  0
    1.9921    2.8609   -0.0684 C   0  0  0  0  0  0  0  0  0  0  0  0
    2.8581   -1.9764    0.0024 C   0  0  1  0  0  3  0  0  0  0  0  0
    3.8903    4.1901   -1.0707 C   0  0  0  0  0  0  0  0  0  0  0  0
    4.0301    3.3826   -1.8048 H   0  0  0  0  0  0  0  0  0  0  0  0
    4.7080    5.3287   -1.1071 C   0  0  0  0  0  0  0  0  0  0  0  0
    5.4955    5.4104   -1.8717 H   0  0  0  0  0  0  0  0  0  0  0  0
   -3.5831   -6.2721    0.4872 C   0  0  0  0  0  0  0  0  0  0  0  0
   -3.3919   -7.1720    1.0914 H   0  0  0  0  0  0  0  0  0  0  0  0
    0.6020    3.0531   -0.2503 C   0  0  0  0  0  0  0  0  0  0  0  0
   -4.0552    2.9293   -0.0763 C   0  0  0  0  0  0  0  0  0  0  0  0
    4.0796   -2.8089   -0.1529 C   0  0  0  0  0  0  0  0  0  0  0  0
   -0.0334    4.3141   -0.5791 C   0  0  0  0  0  0  0  0  0  0  0  0
    0.4953    5.2468   -0.8005 H   0  0  0  0  0  0  0  0  0  0  0  0
    3.5065    6.2535    0.7892 C   0  0  0  0  0  0  0  0  0  0  0  0
    3.3577    7.0567    1.5269 H   0  0  0  0  0  0  0  0  0  0  0  0
    6.2247   -3.2839   -1.2280 C   0  0  0  0  0  0  0  0  0  0  0  0
    6.9961   -3.0154   -1.9659 H   0  0  0  0  0  0  0  0  0  0  0  0
   -2.9929   -3.9755   -0.1200 C   0  0  0  0  0  0  0  0  0  0  0  0
   -4.2117    3.9853    0.8488 C   0  0  0  0  0  0  0  0  0  0  0  0
   -3.4287    4.1555    1.6027 H   0  0  0  0  0  0  0  0  0  0  0  0
    2.9955   -0.5792    0.2131 C   0  0  0  0  0  0  0  0  0  0  0  0
    5.0890   -2.4749   -1.0843 C   0  0  0  0  0  0  0  0  0  0  0  0
    4.9633   -1.5799   -1.7119 H   0  0  0  0  0  0  0  0  0  0  0  0
   -2.7585   -5.1482    0.6341 C   0  0  0  0  0  0  0  0  0  0  0  0
   -1.9259   -5.1613    1.3533 H   0  0  0  0  0  0  0  0  0  0  0  0
    4.5197    6.3632   -0.1767 C   0  0  0  0  0  0  0  0  0  0  0  0
    5.1633    7.2556   -0.2041 H   0  0  0  0  0  0  0  0  0  0  0  0
    4.2403   -3.9753    0.6296 C   0  0  0  0  0  0  0  0  0  0  0  0
    3.4653   -4.2279    1.3685 H   0  0  0  0  0  0  0  0  0  0  0  0
   -2.1001   -2.7958    0.0343 C   0  0  2  0  0  3  0  0  0  0  0  0
    0.3210   -1.9960    0.3350 C   0  0  2  0  0  3  0  0  0  0  0  0
   -3.0139    0.6832    0.1716 C   0  0  0  0  0  0  0  0  0  0  0  0
    0.2368   -1.6755    1.8369 C   0  0  0  0  0  0  0  0  0  0  0  0
   -0.8241   -1.6951    2.2195 H   0  0  0  0  0  0  0  0  0  0  0  0
  1  4  1  0  0  0  0
  3 44  1  0  0  0  0
  4  5  1  0  0  0  0
  6 24  1  1  0  0  0
  6 75  1  0  0  0  0
  6 76  1  0  0  0  0
  7 38  2  0  0  0  0
  7 15  1  0  0  0  0
  8  7  1  0  0  0  0
  9  3  2  0  0  0  0
  9 66  1  0  0  0  0
 10 77  1  0  0  0  0
 10  1  2  0  0  0  0
 11 27  1  0  0  0  0
 12 11  1  0  0  0  0
 13 46  1  0  0  0  0
 13 34  1  0  0  0  0
 15 32  2  0  0  0  0
 16 15  1  0  0  0  0
 17 18  1  1  0  0  0
 17 47  1  0  0  0  0
 17 76  1  0  0  0  0
 18 24  2  0  0  0  0
 19 18  1  0  0  0  0
 20 40  2  0  0  0  0
 20 22  1  0  0  0  0
 21 20  1  0  0  0  0
 22 52  2  0  0  0  0
 23 22  1  0  0  0  0
 25 24  1  0  0  0  0
 26 14  1  0  0  0  0
 26 29  2  0  0  0  0
 27 73  2  0  0  0  0
 27 28  1  0  0  0  0
 29 77  1  0  0  0  0
 30 26  1  0  0  0  0
 31 30  1  0  0  0  0
 32 64  1  0  0  0  0
 32 33  1  0  0  0  0
 34 35  1  0  0  0  0
 36  4  1  0  0  0  0
 36 37  1  0  0  0  0
 38 55  1  0  0  0  0
 39 38  1  0  0  0  0
 40 63  1  0  0  0  0
 41 40  1  0  0  0  0
 42 43  1  0  0  0  0
 44 42  1  0  0  0  0
 44 45  1  0  0  0  0
 46  3  1  0  0  0  0
 47 56  1  6  0  0  0
 47 66  1  0  0  0  0
 48 13  2  0  0  0  0
 49 48  1  0  0  0  0
 50 48  1  0  0  0  0
 50 71  2  0  0  0  0
 51 50  1  0  0  0  0
 52 69  1  0  0  0  0
 52 53  1  0  0  0  0
 54 14  1  0  0  0  0
 54 46  2  0  0  0  0
 55 29  1  0  0  0  0
 55 64  2  0  0  0  0
 56 73  1  0  0  0  0
 57 30  2  0  0  0  0
 57 54  1  0  0  0  0
 58 57  1  0  0  0  0
 59 34  2  0  0  0  0
 59 60  1  0  0  0  0
 61 67  1  0  0  0  0
 61 11  2  0  0  0  0
 62 61  1  0  0  0  0
 63 69  2  0  0  0  0
 64 65  1  0  0  0  0
 66 42  2  0  0  0  0
 67 56  2  0  0  0  0
 68 67  1  0  0  0  0
 69 70  1  0  0  0  0
 71 59  1  0  0  0  0
 72 71  1  0  0  0  0
 73 74  1  0  0  0  0
 75 63  1  6  0  0  0
 75  1  1  0  0  0  0
 76 78  1  1  0  0  0
 77 36  2  0  0  0  0
 78 79  1  0  0  0  0
 78  2  2  0  0  0  0
M  END
