1,2,3,82
q = -2.0, confidence = 0.692

 82 89  0  0  1  0  0  0  0  0999 V2000
    1.0188   -1.9671    0.0518 N   0  0  0  0  0  0  0  0  0  0  0  0
    1.0681    1.9393   -0.1931 N   0  0  0  0  0  0  0  0  0  0  0  0
   -0.9571    0.0091   -0.0908 N   0  0  0  0  0  2  0  0  0  0  0  0
    3.8362    1.0506   -0.3657 C   0  0  0  0  0  0  0  0  0  0  0  0
    5.2129    0.6306   -0.2677 C   0  0  0  0  0  0  0  0  0  0  0  0
    6.3337    1.4346   -0.5287 C   0  0  0  0  0  0  0  0  0  0  0  0
    6.1195    2.4651   -0.8547 H   0  0  0  0  0  0  0  0  0  0  0  0
    7.6966    1.1063   -0.4363 C   0  0  0  0  0  0  0  0  0  0  0  0
    8.3974    1.9148   -0.7016 H   0  0  0  0  0  0  0  0  0  0  0  0
    8.2895   -0.1075   -0.0472 C   0  0  0  0  0  0  0  0  0  0  0  0
    9.3916   -0.1221   -0.0448 H   0  0  0  0  0  0  0  0  0  0  0  0
    5.1934   -0.7639    0.1586 C   0  0  2  0  0  3  0  0  0  0  0  0
    6.2913   -1.5971    0.4254 C   0  0  0  0  0  0  0  0  0  0  0  0
    6.0485   -2.6216    0.7499 H   0  0  0  0  0  0  0  0  0  0  0  0
    7.6629   -1.3050    0.3392 C   0  0  0  0  0  0  0  0  0  0  0  0
    8.3407   -2.1318    0.6076 H   0  0  0  0  0  0  0  0  0  0  0  0
    3.8057   -1.1478    0.2489 C   0  0  0  0  0  0  0  0  0  0  0  0
    3.3847   -2.4596    0.5112 C   0  0  0  0  0  0  0  0  0  0  0  0
    4.1149   -3.2437    0.7541 H   0  0  0  0  0  0  0  0  0  0  0  0
    2.0633   -2.8353    0.3674 C   0  0  0  0  0  3  0  0  0  0  0  0
    1.6076   -4.2165    0.4130 C   0  0  0  0  0  0  0  0  0  0  0  0
    2.4703   -5.3912    0.7489 C   0  0  0  0  0  0  0  0  0  0  0  0
    2.8810   -5.3174    1.7782 H   0  0  0  0  0  0  0  0  0  0  0  0
    3.3388   -5.4760    0.0618 H   0  0  0  0  0  0  0  0  0  0  0  0
    1.9023   -6.3391    0.6861 H   0  0  0  0  0  0  0  0  0  0  0  0
    0.2751   -4.1953    0.0670 C   0  0  0  0  0  0  0  0  0  0  0  0
   -0.6885   -5.3429   -0.0150 C   0  0  0  0  0  0  0  0  0  0  0  0
   -0.1258   -6.2723   -0.2441 H   0  0  0  0  0  0  0  0  0  0  0  0
   -1.3784   -5.1932   -0.8731 H   0  0  0  0  0  0  0  0  0  0  0  0
   -1.5082   -5.5468    1.2710 C   0  0  0  0  0  0  0  0  0  0  0  0
   -2.2075   -6.4016    1.1701 H   0  0  0  0  0  0  0  0  0  0  0  0
   -2.1046   -4.6444    1.5132 H   0  0  0  0  0  0  0  0  0  0  0  0
   -0.8430   -5.7451    2.1356 H   0  0  0  0  0  0  0  0  0  0  0  0
   -0.0757   -2.7908   -0.1252 C   0  0  0  0  0  0  0  0  0  0  0  0
   -1.3853   -2.3811   -0.3684 C   0  0  0  0  0  0  0  0  0  0  0  0
   -2.1519   -3.1541   -0.5015 H   0  0  0  0  0  0  0  0  0  0  0  0
   -1.8023   -1.0573   -0.3044 C   0  0  0  0  0  0  0  0  0  0  0  0
   -3.2006   -0.6406   -0.2685 C   0  0  0  0  0  0  0  0  0  0  0  0
   -4.3618   -1.5273   -0.4521 C   0  0  0  0  0  0  0  0  0  0  0  0
   -4.4379   -2.4091   -1.5563 C   0  0  0  0  0  0  0  0  0  0  0  0
   -3.6252   -2.4105   -2.2983 H   0  0  0  0  0  0  0  0  0  0  0  0
   -5.5454   -3.2524   -1.7270 C   0  0  0  0  0  0  0  0  0  0  0  0
   -5.5878   -3.9271   -2.5959 H   0  0  0  0  0  0  0  0  0  0  0  0
   -6.6004   -3.2298   -0.8014 C   0  0  0  0  0  0  0  0  0  0  0  0
   -7.4699   -3.8910   -0.9360 H   0  0  0  0  0  0  0  0  0  0  0  0
   -6.5398   -2.3556    0.2969 C   0  0  0  0  0  0  0  0  0  0  0  0
   -7.3615   -2.3330    1.0291 H   0  0  0  0  0  0  0  0  0  0  0  0
   -5.4340   -1.5141    0.4712 C   0  0  0  0  0  0  0  0  0  0  0  0
   -5.3843   -0.8374    1.3366 H   0  0  0  0  0  0  0  0  0  0  0  0
   -3.1874    0.7109    0.0518 C   0  0  0  0  0  0  0  0  0  0  0  0
   -4.3307    1.6207    0.2323 C   0  0  0  0  0  0  0  0  0  0  0  0
   -5.4064    1.6224   -0.6870 C   0  0  0  0  0  0  0  0  0  0  0  0
   -5.3723    0.9406   -1.5492 H   0  0  0  0  0  0  0  0  0  0  0  0
   -6.4958    2.4851   -0.5136 C   0  0  0  0  0  0  0  0  0  0  0  0
   -7.3203    2.4736   -1.2428 H   0  0  0  0  0  0  0  0  0  0  0  0
   -6.5363    3.3666    0.5799 C   0  0  0  0  0  0  0  0  0  0  0  0
   -7.3928    4.0446    0.7136 H   0  0  0  0  0  0  0  0  0  0  0  0
   -5.4778    3.3747    1.5018 C   0  0  0  0  0  0  0  0  0  0  0  0
   -5.5043    4.0549    2.3669 H   0  0  0  0  0  0  0  0  0  0  0  0
   -4.3870    2.5098    1.3322 C   0  0  0  0  0  0  0  0  0  0  0  0
   -3.5727    2.4998    2.0723 H   0  0  0  0  0  0  0  0  0  0  0  0
   -1.7804    1.0955    0.1063 C   0  0  0  0  0  0  0  0  0  0  0  0
   -1.3339    2.4092    0.1760 C   0  0  0  0  0  0  0  0  0  0  0  0
   -2.0863    3.1999    0.2824 H   0  0  0  0  0  0  0  0  0  0  0  0
   -0.0085    2.7888   -0.0267 C   0  0  0  0  0  3  0  0  0  0  0  0
    0.3811    4.1862   -0.1982 C   0  0  0  0  0  0  0  0  0  0  0  0
   -0.5344    5.3617   -0.0211 C   0  0  0  0  0  0  0  0  0  0  0  0
   -0.0919    6.2449   -0.5271 H   0  0  0  0  0  0  0  0  0  0  0  0
   -1.4971    5.1700   -0.5426 H   0  0  0  0  0  0  0  0  0  0  0  0
   -0.8124    5.7044    1.4525 C   0  0  0  0  0  0  0  0  0  0  0  0
   -1.4918    6.5765    1.5404 H   0  0  0  0  0  0  0  0  0  0  0  0
    0.1285    5.9442    1.9876 H   0  0  0  0  0  0  0  0  0  0  0  0
   -1.2833    4.8510    1.9810 H   0  0  0  0  0  0  0  0  0  0  0  0
    1.7213    4.1774   -0.5136 C   0  0  0  0  0  0  0  0  0  0  0  0
    2.6274    5.3325   -0.7992 C   0  0  0  0  0  0  0  0  0  0  0  0
    3.1536    5.2124   -1.7694 H   0  0  0  0  0  0  0  0  0  0  0  0
    3.4109    5.4438   -0.0195 H   0  0  0  0  0  0  0  0  0  0  0  0
    2.0652    6.2852   -0.8396 H   0  0  0  0  0  0  0  0  0  0  0  0
    2.1389    2.7835   -0.4836 C   0  0  0  0  0  0  0  0  0  0  0  0
    3.4512    2.3751   -0.6203 C   0  0  0  0  0  0  0  0  0  0  0  0
    4.2038    3.1425   -0.8477 H   0  0  0  0  0  0  0  0  0  0  0  0
    2.9424   -0.0377   -0.0633 C   0  0  0  0  0  2  0  0  0  0  0  0
  1 20  1  0  0  0  0
  2 65  1  0  0  0  0
  3 62  1  0  0  0  0
  4  5  1  0  0  0  0
  4 82  1  0  0  0  0
  6  8  1  0  0  0  0
  6  5  2  0  0  0  0
  7  6  1  0  0  0  0
  8 10  2  0  0  0  0
  9  8  1  0  0  0  0
 10 11  1  0  0  0  0
 10 15  1  0  0  0  0
 12  5  1  6  0  0  0
 12 17  1  0  0  0  0
 12 13  1  0  0  0  0
 13 14  1  0  0  0  0
 15 13  2  0  0  0  0
 15 16  1  0  0  0  0
 17 18  2  0  0  0  0
 18 19  1  0  0  0  0
 20 21  1  0  0  0  0
 20 18  1  0  0  0  0
 21 22  1  0  0  0  0
 22 23  1  0  0  0  0
 24 22  1  0  0  0  0
 25 22  1  0  0  0  0
 26 21  2  0  0  0  0
 27 26  1  0  0  0  0
 27 30  1  0  0  0  0
 28 27  1  0  0  0  0
 29 27  1  0  0  0  0
 30 32  1  0  0  0  0
 30 33  1  0  0  0  0
 31 30  1  0  0  0  0
 34  1  2  0  0  0  0
 34 26  1  0  0  0  0
 35 37  2  0  0  0  0
 35 34  1  0  0  0  0
 36 35  1  0  0  0  0
 37 38  1  0  0  0  0
 37  3  1  0  0  0  0
 38 50  2  0  0  0  0
 39 38  1  0  0  0  0
 39 48  1  0  0  0  0
 40 39  2  0  0  0  0
 41 40  1  0  0  0  0
 42 40  1  0  0  0  0
 42 44  2  0  0  0  0
 43 42  1  0  0  0  0
 44 46  1  0  0  0  0
 45 44  1  0  0  0  0
 46 48  2  0  0  0  0
 46 47  1  0  0  0  0
 48 49  1  0  0  0  0
 50 62  1  0  0  0  0
 50 51  1  0  0  0  0
 51 60  1  0  0  0  0
 52 54  1  0  0  0  0
 52 51  2  0  0  0  0
 53 52  1  0  0  0  0
 54 56  2  0  0  0  0
 55 54  1  0  0  0  0
 56 57  1  0  0  0  0
 56 58  1  0  0  0  0
 58 59  1  0  0  0  0
 60 58  2  0  0  0  0
 60 61  1  0  0  0  0
 62 63  2  0  0  0  0
 63 64  1  0  0  0  0
 65 63  1  0  0  0  0
 66 65  1  0  0  0  0
 66 67  1  0  0  0  0
 67 70  1  0  0  0  0
 68 67  1  0  0  0  0
 69 67  1  0  0  0  0
 70 71  1  0  0  0  0
 70 73  1  0  0  0  0
 70 72  1  0  0  0  0
 74 79  1  0  0  0  0
 74 66  2  0  0  0  0
 75 74  1  0  0  0  0
 75 77  1  0  0  0  0
 76 75  1  0  0  0  0
 78 75  1  0  0  0  0
 79  2  2  0  0  0  0
 80 79  1  0  0  0  0
 80  4  2  0  0  0  0
 81 80  1  0  0  0  0
 82 17  1  0  0  0  0
M  END
