1,2,3,31
q = 0.0, confidence = 0.994

 56 60  0  0  0  0  0  0  0  0999 V2000
    1.3892    0.1224   -0.8741 N   0  0  0  0  0  2  0  0  0  0  0  0
   -2.0524   -0.1673   -0.2096 N   0  0  0  0  0  2  0  0  0  0  0  0
   -0.2340   -2.1853   -0.8113 N   0  0  0  0  0  0  0  0  0  0  0  0
    2.3774    1.0651   -0.7123 C   0  0  0  0  0  0  0  0  0  0  0  0
    2.2840    2.0029    0.3502 C   0  0  0  0  0  0  0  0  0  0  0  0
    3.2685    2.9642    0.5238 C   0  0  0  0  0  0  0  0  0  0  0  0
    4.3868    3.0233   -0.3519 C   0  0  0  0  0  0  0  0  0  0  0  0
    4.4997    2.1250   -1.4017 C   0  0  0  0  0  3  0  0  0  0  0  0
    3.4993    1.1325   -1.6139 C   0  0  0  0  0  0  0  0  0  0  0  0
    3.5459    0.1985   -2.6835 C   0  0  0  0  0  0  0  0  0  0  0  0
    2.5210   -0.7228   -2.8348 C   0  0  0  0  0  0  0  0  0  0  0  0
    1.4477   -0.7291   -1.9093 C   0  0  0  0  0  0  0  0  0  0  0  0
    0.2636   -1.6624   -2.0893 C   0  0  0  0  0  0  0  0  0  0  0  0
   -2.8360    0.9559   -0.0923 C   0  0  0  0  0  0  0  0  0  0  0  0
   -2.2900    2.1255    0.5016 C   0  0  0  0  0  0  0  0  0  0  0  0
   -3.0679    3.2660    0.6398 C   0  0  0  0  0  0  0  0  0  0  0  0
   -4.4158    3.2819    0.1886 C   0  0  0  0  0  0  0  0  0  0  0  0
   -4.9701    2.1561   -0.4022 C   0  0  0  0  0  3  0  0  0  0  0  0
   -4.1975    0.9698   -0.5593 C   0  0  0  0  0  0  0  0  0  0  0  0
   -4.6962   -0.2150   -1.1681 C   0  0  0  0  0  0  0  0  0  0  0  0
   -3.8746   -1.3238   -1.2897 C   0  0  0  0  0  0  0  0  0  0  0  0
   -2.5481   -1.2683   -0.7855 C   0  0  0  0  0  0  0  0  0  0  0  0
   -1.6599   -2.5030   -0.8342 C   0  0  0  0  0  0  0  0  0  0  0  0
    0.6246   -3.2455   -0.2607 C   0  0  0  0  0  0  0  0  0  0  0  0
    0.5102   -3.3873    1.2692 C   0  0  0  0  0  0  0  0  0  0  0  0
    0.8100   -2.0923    1.9872 C   0  0  0  0  0  0  0  0  0  0  0  0
    2.1327   -1.7239    2.3071 C   0  0  0  0  0  0  0  0  0  0  0  0
    2.4132   -0.5014    2.9384 C   0  0  0  0  0  0  0  0  0  0  0  0
    1.3754    0.4013    3.2170 C   0  0  0  0  0  0  0  0  0  0  0  0
    0.0459    0.0675    2.8960 C   0  0  0  0  0  3  0  0  0  0  0  0
   -0.2521   -1.1944    2.3123 C   0  0  0  0  0  3  0  0  0  0  0  0
    1.4147    1.9380    1.0200 H   0  0  0  0  0  0  0  0  0  0  0  0
    3.1849    3.6901    1.3463 H   0  0  0  0  0  0  0  0  0  0  0  0
    5.1599    3.7901   -0.1965 H   0  0  0  0  0  0  0  0  0  0  0  0
    5.3573    2.1689   -2.0899 H   0  0  0  0  0  0  0  0  0  0  0  0
    4.3947    0.2176   -3.3841 H   0  0  0  0  0  0  0  0  0  0  0  0
    2.5272   -1.4498   -3.6597 H   0  0  0  0  0  0  0  0  0  0  0  0
    0.5202   -2.4761   -2.8074 H   0  0  0  0  0  0  0  0  0  0  0  0
   -0.5543   -1.0732   -2.5590 H   0  0  0  0  0  0  0  0  0  0  0  0
   -1.2418    2.0934    0.8388 H   0  0  0  0  0  0  0  0  0  0  0  0
   -2.6395    4.1689    1.0999 H   0  0  0  0  0  0  0  0  0  0  0  0
   -5.0176    4.1948    0.3071 H   0  0  0  0  0  0  0  0  0  0  0  0
   -6.0112    2.1637   -0.7591 H   0  0  0  0  0  0  0  0  0  0  0  0
   -5.7305   -0.2370   -1.5443 H   0  0  0  0  0  0  0  0  0  0  0  0
   -4.2346   -2.2472   -1.7665 H   0  0  0  0  0  0  0  0  0  0  0  0
   -1.9444   -3.1334   -1.7107 H   0  0  0  0  0  0  0  0  0  0  0  0
   -1.8912   -3.1157    0.0633 H   0  0  0  0  0  0  0  0  0  0  0  0
    0.4247   -4.2259   -0.7560 H   0  0  0  0  0  0  0  0  0  0  0  0
    1.6706   -2.9700   -0.5080 H   0  0  0  0  0  0  0  0  0  0  0  0
   -0.5010   -3.7503    1.5493 H   0  0  0  0  0  0  0  0  0  0  0  0
    1.2186   -4.1796    1.5844 H   0  0  0  0  0  0  0  0  0  0  0  0
    2.9547   -2.4181    2.0718 H   0  0  0  0  0  0  0  0  0  0  0  0
    3.4498   -0.2477    3.2042 H   0  0  0  0  0  0  0  0  0  0  0  0
    1.5954    1.3629    3.7040 H   0  0  0  0  0  0  0  0  0  0  0  0
   -0.7780    0.7406    3.1780 H   0  0  0  0  0  0  0  0  0  0  0  0
   -1.2966   -1.5422    2.2676 H   0  0  0  0  0  0  0  0  0  0  0  0
  1  4  1  0  0  0  0
  2 14  1  0  0  0  0
  3 24  1  0  0  0  0
  4  5  2  0  0  0  0
  5  6  1  0  0  0  0
  5 32  1  0  0  0  0
  6 33  1  0  0  0  0
  7 34  1  0  0  0  0
  7  6  2  0  0  0  0
  8  7  1  0  0  0  0
  9  8  1  0  0  0  0
  9  4  1  0  0  0  0
 10  9  2  0  0  0  0
 11 10  1  0  0  0  0
 11 12  2  0  0  0  0
 12  1  1  0  0  0  0
 13 12  1  0  0  0  0
 13  3  1  0  0  0  0
 14 15  2  0  0  0  0
 15 16  1  0  0  0  0
 15 40  1  0  0  0  0
 16 41  1  0  0  0  0
 17 42  1  0  0  0  0
 17 16  2  0  0  0  0
 18 17  1  0  0  0  0
 19 18  1  0  0  0  0
 19 14  1  0  0  0  0
 20 19  2  0  0  0  0
 21 20  1  0  0  0  0
 21 22  2  0  0  0  0
 22  2  1  0  0  0  0
 23  3  1  0  0  0  0
 23 22  1  0  0  0  0
 23 47  1  0  0  0  0
 24 25  1  0  0  0  0
 25 50  1  0  0  0  0
 25 51  1  0  0  0  0
 25 26  1  0  0  0  0
 26 27  2  0  0  0  0
 26 31  1  0  0  0  0
 27 28  1  0  0  0  0
 28 53  1  0  0  0  0
 28 29  2  0  0  0  0
 29 54  1  0  0  0  0
 30 55  1  0  0  0  0
 30 29  1  0  0  0  0
 31 30  1  0  0  0  0
 35  8  1  0  0  0  0
 36 10  1  0  0  0  0
 37 11  1  0  0  0  0
 38 13  1  0  0  0  0
 39 13  1  0  0  0  0
 43 18  1  0  0  0  0
 44 20  1  0  0  0  0
 45 21  1  0  0  0  0
 46 23  1  0  0  0  0
 48 24  1  0  0  0  0
 49 24  1  0  0  0  0
 52 27  1  0  0  0  0
 56 31  1  0  0  0  0
M  END
