1,2,3,27
q = 0.0, confidence = 0.984

 64 69  0  0  1  0  0  0  0  0999 V2000
    0.8422    1.6173    0.9767 N   0  0  0  0  0  2  0  0  0  0  0  0
    1.7258   -1.7392    0.1894 N   0  0  0  0  0  2  0  0  0  0  0  0
   -0.5164   -0.8069    1.5619 N   0  0  0  0  0  0  0  0  0  0  0  0
    1.2129    2.8648    0.5426 C   0  0  2  0  0  3  0  0  0  0  0  0
    1.9064    2.9999   -0.6899 C   0  0  0  0  0  0  0  0  0  0  0  0
    2.2854    4.2534   -1.1453 C   0  0  0  0  0  0  0  0  0  0  0  0
    1.9822    5.4200   -0.3907 C   0  0  0  0  0  0  0  0  0  0  0  0
    1.3229    5.3159    0.8243 C   0  0  0  0  0  0  0  0  0  0  0  0
    0.9328    4.0405    1.3269 C   0  0  0  0  0  0  0  0  0  0  0  0
    0.2846    3.8594    2.5784 C   0  0  0  0  0  0  0  0  0  0  0  0
   -0.0337    2.5799    3.0095 C   0  0  0  0  0  0  0  0  0  0  0  0
    0.2645    1.4726    2.1766 C   0  0  0  0  0  0  0  0  0  0  0  0
    0.0134    0.0458    2.6338 C   0  0  0  0  0  0  0  0  0  0  0  0
    2.9451   -2.0151   -0.3836 C   0  0  0  0  0  0  0  0  0  0  0  0
    3.4006   -1.2172   -1.4665 C   0  0  0  0  0  0  0  0  0  0  0  0
    4.6296   -1.4765   -2.0554 C   0  0  0  0  0  0  0  0  0  0  0  0
    5.4471   -2.5399   -1.5843 C   0  0  0  0  0  0  0  0  0  0  0  0
    5.0214   -3.3388   -0.5335 C   0  0  0  0  0  3  0  0  0  0  0  0
    3.7623   -3.1010    0.0891 C   0  0  0  0  0  0  0  0  0  0  0  0
    3.2608   -3.8818    1.1669 C   0  0  0  0  0  0  0  0  0  0  0  0
    2.0220   -3.5859    1.7136 C   0  0  0  0  0  0  0  0  0  0  0  0
    1.2698   -2.5014    1.1926 C   0  0  0  0  0  0  0  0  0  0  0  0
   -0.1305   -2.2116    1.7094 C   0  0  0  0  0  0  0  0  0  0  0  0
   -1.9544   -0.5918    1.3292 C   0  0  0  0  0  0  0  0  0  0  0  0
   -2.4374   -1.0376   -0.0716 C   0  0  2  0  0  0  0  0  0  0  0  0
   -1.9845   -0.1384   -1.2015 C   0  0  0  0  0  0  0  0  0  0  0  0
   -0.6890    0.3478   -1.5497 C   0  0  0  0  0  3  0  0  0  0  0  0
   -0.3273    1.1016   -2.6757 C   0  0  0  0  0  0  0  0  0  0  0  0
   -1.2775    1.4941   -3.6352 C   0  0  0  0  0  0  0  0  0  0  0  0
   -2.6080    1.0956   -3.3623 C   0  0  0  0  0  0  0  0  0  0  0  0
   -2.7363    0.3567   -2.2212 C   0  0  0  0  0  3  0  0  0  0  0  0
   -3.9506   -1.1888   -0.0736 C   0  0  0  0  0  0  0  0  0  0  0  0
   -4.7852   -0.0517   -0.0285 C   0  0  0  0  0  0  0  0  0  0  0  0
   -6.1813   -0.1935   -0.0080 C   0  0  0  0  0  0  0  0  0  0  0  0
   -6.7600   -1.4718   -0.0301 C   0  0  0  0  0  0  0  0  0  0  0  0
   -5.9370   -2.6082   -0.0714 C   0  0  0  0  0  0  0  0  0  0  0  0
   -4.5412   -2.4653   -0.0915 C   0  0  0  0  0  0  0  0  0  0  0  0
    2.1501    2.0829   -1.2459 H   0  0  0  0  0  0  0  0  0  0  0  0
    2.8308    4.3494   -2.0959 H   0  0  0  0  0  0  0  0  0  0  0  0
    2.2850    6.4066   -0.7708 H   0  0  0  0  0  0  0  0  0  0  0  0
    1.0999    6.2128    1.4218 H   0  0  0  0  0  0  0  0  0  0  0  0
    0.0467    4.7377    3.1979 H   0  0  0  0  0  0  0  0  0  0  0  0
   -0.5180    2.4113    3.9822 H   0  0  0  0  0  0  0  0  0  0  0  0
   -0.6398    0.0383    3.5377 H   0  0  0  0  0  0  0  0  0  0  0  0
    0.9945   -0.3738    2.9471 H   0  0  0  0  0  0  0  0  0  0  0  0
    2.7406   -0.4113   -1.8265 H   0  0  0  0  0  0  0  0  0  0  0  0
    4.9750   -0.8591   -2.8978 H   0  0  0  0  0  0  0  0  0  0  0  0
    6.4192   -2.7301   -2.0621 H   0  0  0  0  0  0  0  0  0  0  0  0
    5.6470   -4.1670   -0.1678 H   0  0  0  0  0  0  0  0  0  0  0  0
    3.8640   -4.7151    1.5586 H   0  0  0  0  0  0  0  0  0  0  0  0
    1.6133   -4.1773    2.5459 H   0  0  0  0  0  0  0  0  0  0  0  0
   -0.2355   -2.5760    2.7583 H   0  0  0  0  0  0  0  0  0  0  0  0
   -0.8315   -2.8281    1.1064 H   0  0  0  0  0  0  0  0  0  0  0  0
   -2.5634   -1.1196    2.1009 H   0  0  0  0  0  0  0  0  0  0  0  0
   -2.1551    0.4922    1.4502 H   0  0  0  0  0  0  0  0  0  0  0  0
   -2.0051   -2.0429   -0.2751 H   0  0  0  0  0  0  0  0  0  0  0  0
    0.7242    1.3913   -2.8195 H   0  0  0  0  0  0  0  0  0  0  0  0
   -1.0185    2.0731   -4.5373 H   0  0  0  0  0  0  0  0  0  0  0  0
   -3.4555    1.3530   -4.0152 H   0  0  0  0  0  0  0  0  0  0  0  0
   -4.3419    0.9561   -0.0040 H   0  0  0  0  0  0  0  0  0  0  0  0
   -6.8208    0.7012    0.0262 H   0  0  0  0  0  0  0  0  0  0  0  0
   -7.8544   -1.5831   -0.0166 H   0  0  0  0  0  0  0  0  0  0  0  0
   -6.3843   -3.6132   -0.0951 H   0  0  0  0  0  0  0  0  0  0  0  0
   -3.9005   -3.3608   -0.1346 H   0  0  0  0  0  0  0  0  0  0  0  0
  1 12  1  0  0  0  0
  2 22  1  0  0  0  0
  3 23  1  0  0  0  0
  3 13  1  0  0  0  0
  4  5  1  1  0  0  0
  4  1  1  0  0  0  0
  4  9  1  0  0  0  0
  6  5  2  0  0  0  0
  6  7  1  0  0  0  0
  7  8  2  0  0  0  0
  8  9  1  0  0  0  0
  8 41  1  0  0  0  0
  9 10  2  0  0  0  0
 10 11  1  0  0  0  0
 10 42  1  0  0  0  0
 11 43  1  0  0  0  0
 12 13  1  0  0  0  0
 12 11  2  0  0  0  0
 13 45  1  0  0  0  0
 13 44  1  0  0  0  0
 14 19  1  0  0  0  0
 14  2  1  0  0  0  0
 15 14  2  0  0  0  0
 16 17  2  0  0  0  0
 16 15  1  0  0  0  0
 17 18  1  0  0  0  0
 18 49  1  0  0  0  0
 18 19  1  0  0  0  0
 19 20  2  0  0  0  0
 20 50  1  0  0  0  0
 20 21  1  0  0  0  0
 21 51  1  0  0  0  0
 22 23  1  0  0  0  0
 22 21  2  0  0  0  0
 23 52  1  0  0  0  0
 24 55  1  0  0  0  0
 24  3  1  0  0  0  0
 24 54  1  0  0  0  0
 25 56  1  6  0  0  0
 25 24  1  0  0  0  0
 26 25  1  0  0  0  0
 27 26  1  0  0  0  0
 28 27  2  0  0  0  0
 29 30  2  0  0  0  0
 29 28  1  0  0  0  0
 30 31  1  0  0  0  0
 31 26  2  0  0  0  0
 32 25  1  0  0  0  0
 32 33  1  0  0  0  0
 33 34  2  0  0  0  0
 33 60  1  0  0  0  0
 34 61  1  0  0  0  0
 35 62  1  0  0  0  0
 35 34  1  0  0  0  0
 36 35  2  0  0  0  0
 37 32  2  0  0  0  0
 37 36  1  0  0  0  0
 38  5  1  0  0  0  0
 39  6  1  0  0  0  0
 40  7  1  0  0  0  0
 46 15  1  0  0  0  0
 47 16  1  0  0  0  0
 48 17  1  0  0  0  0
 53 23  1  0  0  0  0
 57 28  1  0  0  0  0
 58 29  1  0  0  0  0
 59 30  1  0  0  0  0
 63 36  1  0  0  0  0
 64 37  1  0  0  0  0
M  END
