1,2,7,20
q = 0.0, confidence = 0.964

 82 88  0  0  0  0  0  0  0  0999 V2000
   -1.0263   -1.4823   -2.0853 N   0  0  0  0  0  0  0  0  0  0  0  0
    1.8313   -1.7995   -1.1520 N   0  0  0  0  0  0  0  0  0  0  0  0
    1.4081   -3.4087    0.7662 C   0  0  0  0  0  0  0  0  0  0  0  0
    0.7300   -4.0179    0.1342 H   0  0  0  0  0  0  0  0  0  0  0  0
    1.9729   -4.1428    1.3897 H   0  0  0  0  0  0  0  0  0  0  0  0
   -2.2685   -2.0702    0.6393 N   0  0  0  0  0  0  0  0  0  0  0  0
    0.5896   -2.5060    1.5755 N   0  0  0  0  0  0  0  0  0  0  0  0
   -0.5884   -3.1129    2.2049 C   0  0  0  0  0  0  0  0  0  0  0  0
   -0.8961   -2.4587    3.0466 H   0  0  0  0  0  0  0  0  0  0  0  0
   -0.3567   -4.1046    2.6626 H   0  0  0  0  0  0  0  0  0  0  0  0
    3.2839    0.2949   -0.9248 C   0  0  0  0  0  0  0  0  0  0  0  0
    2.4165   -2.6552   -0.1022 C   0  0  0  0  0  0  0  0  0  0  0  0
    3.0281   -2.0031    0.5535 H   0  0  0  0  0  0  0  0  0  0  0  0
    3.1211   -3.3996   -0.5498 H   0  0  0  0  0  0  0  0  0  0  0  0
   -4.5532    0.5823    0.5529 C   0  0  0  0  0  0  0  0  0  0  0  0
    0.0858   -1.8561   -2.9681 C   0  0  0  0  0  0  0  0  0  0  0  0
    0.4869   -0.9328   -3.4324 H   0  0  0  0  0  0  0  0  0  0  0  0
   -0.2507   -2.5028   -3.8128 H   0  0  0  0  0  0  0  0  0  0  0  0
    2.5300    1.4999   -1.0449 C   0  0  0  0  0  0  0  0  0  0  0  0
   -0.9762    0.6100    1.8504 C   0  0  0  0  0  3  0  0  0  0  0  0
   -0.9344   -0.3299    2.4157 H   0  0  0  0  0  0  0  0  0  0  0  0
   -3.1391   -1.3108    1.5643 C   0  0  0  0  0  0  0  0  0  0  0  0
   -2.6648   -1.3310    2.5653 H   0  0  0  0  0  0  0  0  0  0  0  0
   -4.1143   -1.8332    1.6949 H   0  0  0  0  0  0  0  0  0  0  0  0
   -3.3327    0.1261    1.1298 C   0  0  0  0  0  0  0  0  0  0  0  0
   -1.9491   -2.5874   -1.7988 C   0  0  0  0  0  0  0  0  0  0  0  0
   -1.3424   -3.4819   -1.5486 H   0  0  0  0  0  0  0  0  0  0  0  0
   -2.5447   -2.8705   -2.6988 H   0  0  0  0  0  0  0  0  0  0  0  0
   -2.2276    1.0118    1.2448 C   0  0  0  0  0  0  0  0  0  0  0  0
    4.8690    1.4724    0.5923 C   0  0  0  0  0  0  0  0  0  0  0  0
   -4.6434    1.9522    0.0645 C   0  0  0  0  0  0  0  0  0  0  0  0
   -2.9166   -2.2776   -0.6588 C   0  0  0  0  0  0  0  0  0  0  0  0
   -3.4708   -1.3500   -0.9087 H   0  0  0  0  0  0  0  0  0  0  0  0
   -3.6826   -3.0924   -0.6130 H   0  0  0  0  0  0  0  0  0  0  0  0
    2.8692   -0.9075   -1.7443 C   0  0  0  0  0  0  0  0  0  0  0  0
    2.4675   -0.5447   -2.7085 H   0  0  0  0  0  0  0  0  0  0  0  0
    3.7604   -1.5196   -2.0146 H   0  0  0  0  0  0  0  0  0  0  0  0
    4.4660    0.2719   -0.1272 C   0  0  0  0  0  0  0  0  0  0  0  0
    4.1379    2.6600    0.4209 C   0  0  0  0  0  0  0  0  0  0  0  0
    4.4811    3.5772    0.9252 H   0  0  0  0  0  0  0  0  0  0  0  0
   -1.2028    3.2540    0.8936 C   0  0  0  0  0  0  0  0  0  0  0  0
   -1.3051    4.2886    0.5323 H   0  0  0  0  0  0  0  0  0  0  0  0
   -1.7696   -3.3078    1.2413 C   0  0  0  0  0  0  0  0  0  0  0  0
   -1.4534   -3.9887    0.4257 H   0  0  0  0  0  0  0  0  0  0  0  0
   -2.5778   -3.8543    1.7889 H   0  0  0  0  0  0  0  0  0  0  0  0
    3.0016    2.7153   -0.4044 C   0  0  0  0  0  0  0  0  0  0  0  0
   -2.3246    2.3734    0.7540 C   0  0  0  0  0  0  0  0  0  0  0  0
   -5.7182   -0.2447    0.4067 C   0  0  0  0  0  0  0  0  0  0  0  0
   -5.6984   -1.2825    0.7662 H   0  0  0  0  0  0  0  0  0  0  0  0
    5.3181   -0.8785    0.0003 C   0  0  0  0  0  0  0  0  0  0  0  0
    5.0893   -1.7922   -0.5637 H   0  0  0  0  0  0  0  0  0  0  0  0
   -3.5292    2.8033    0.1702 C   0  0  0  0  0  0  0  0  0  0  0  0
   -3.6054    3.8353   -0.2067 H   0  0  0  0  0  0  0  0  0  0  0  0
    1.3262    1.5993   -1.8239 C   0  0  0  0  0  0  0  0  0  0  0  0
    0.9172    0.7017   -2.3039 H   0  0  0  0  0  0  0  0  0  0  0  0
    0.0944    1.5017    1.9576 C   0  0  0  0  0  3  0  0  0  0  0  0
    1.0129    1.1925    2.4793 H   0  0  0  0  0  0  0  0  0  0  0  0
    1.2007   -2.5960   -2.2191 C   0  0  0  0  0  0  0  0  0  0  0  0
    0.7742   -3.5135   -1.7693 H   0  0  0  0  0  0  0  0  0  0  0  0
    1.9607   -2.9482   -2.9573 H   0  0  0  0  0  0  0  0  0  0  0  0
   -5.8661    2.4127   -0.5251 C   0  0  0  0  0  0  0  0  0  0  0  0
   -5.9133    3.4532   -0.8815 H   0  0  0  0  0  0  0  0  0  0  0  0
   -0.0212    2.8327    1.4697 C   0  0  0  0  0  0  0  0  0  0  0  0
    0.8269    3.5222    1.5689 H   0  0  0  0  0  0  0  0  0  0  0  0
    2.3231    3.9545   -0.6498 C   0  0  0  0  0  0  0  0  0  0  0  0
    2.7273    4.8689   -0.1883 H   0  0  0  0  0  0  0  0  0  0  0  0
    0.6816    2.8084   -2.0176 C   0  0  0  0  0  0  0  0  0  0  0  0
   -0.2313    2.8475   -2.6308 H   0  0  0  0  0  0  0  0  0  0  0  0
    6.0330    1.4420    1.4288 C   0  0  0  0  0  0  0  0  0  0  0  0
    6.3097    2.3604    1.9689 H   0  0  0  0  0  0  0  0  0  0  0  0
   -6.9594    1.5795   -0.6420 C   0  0  0  0  0  0  0  0  0  0  0  0
   -7.8933    1.9457   -1.0932 H   0  0  0  0  0  0  0  0  0  0  0  0
   -6.8790    0.2361   -0.1695 C   0  0  0  0  0  0  0  0  0  0  0  0
   -7.7553   -0.4233   -0.2592 H   0  0  0  0  0  0  0  0  0  0  0  0
    6.7989    0.3008    1.5448 C   0  0  0  0  0  0  0  0  0  0  0  0
    7.6929    0.2912    2.1853 H   0  0  0  0  0  0  0  0  0  0  0  0
    6.4398   -0.8665    0.8081 C   0  0  0  0  0  0  0  0  0  0  0  0
    7.0702   -1.7659    0.8762 H   0  0  0  0  0  0  0  0  0  0  0  0
    1.1988    4.0081   -1.4479 C   0  0  0  0  0  0  0  0  0  0  0  0
    0.6947    4.9671   -1.6381 H   0  0  0  0  0  0  0  0  0  0  0  0
    1.1790   -2.0745    2.2970 H   0  0  0  0  0  0  0  0  0  0  0  0
   -1.5515   -0.7022   -2.4977 H   0  0  0  0  0  0  0  0  0  0  0  0
  1 26  1  0  0  0  0
  2 12  1  0  0  0  0
  3  5  1  0  0  0  0
  3  7  1  0  0  0  0
  4  3  1  0  0  0  0
  6 43  1  0  0  0  0
  6 22  1  0  0  0  0
  7  8  1  0  0  0  0
  7 81  1  0  0  0  0
  8 10  1  0  0  0  0
  8  9  1  0  0  0  0
 11 38  1  0  0  0  0
 12 13  1  0  0  0  0
 12  3  1  0  0  0  0
 14 12  1  0  0  0  0
 15 25  2  0  0  0  0
 16 58  1  0  0  0  0
 16  1  1  0  0  0  0
 17 16  1  0  0  0  0
 18 16  1  0  0  0  0
 19 11  2  0  0  0  0
 19 46  1  0  0  0  0
 20 56  1  0  0  0  0
 20 21  1  0  0  0  0
 22 24  1  0  0  0  0
 22 23  1  0  0  0  0
 25 29  1  0  0  0  0
 25 22  1  0  0  0  0
 26 27  1  0  0  0  0
 26 32  1  0  0  0  0
 28 26  1  0  0  0  0
 29 20  1  0  0  0  0
 30 69  1  0  0  0  0
 31 52  2  0  0  0  0
 31 15  1  0  0  0  0
 32 34  1  0  0  0  0
 32  6  1  0  0  0  0
 33 32  1  0  0  0  0
 35  2  1  0  0  0  0
 35 11  1  0  0  0  0
 36 35  1  0  0  0  0
 37 35  1  0  0  0  0
 38 50  1  0  0  0  0
 38 30  2  0  0  0  0
 39 30  1  0  0  0  0
 39 40  1  0  0  0  0
 41 63  2  0  0  0  0
 42 41  1  0  0  0  0
 43 45  1  0  0  0  0
 43  8  1  0  0  0  0
 44 43  1  0  0  0  0
 46 39  2  0  0  0  0
 47 41  1  0  0  0  0
 47 29  2  0  0  0  0
 48 15  1  0  0  0  0
 48 49  1  0  0  0  0
 50 77  2  0  0  0  0
 51 50  1  0  0  0  0
 52 47  1  0  0  0  0
 53 52  1  0  0  0  0
 54 19  1  0  0  0  0
 55 54  1  0  0  0  0
 56 57  1  0  0  0  0
 58 59  1  0  0  0  0
 58  2  1  0  0  0  0
 60 58  1  0  0  0  0
 61 31  1  0  0  0  0
 62 61  1  0  0  0  0
 63 64  1  0  0  0  0
 63 56  1  0  0  0  0
 65 46  1  0  0  0  0
 65 66  1  0  0  0  0
 67 54  2  0  0  0  0
 67 79  1  0  0  0  0
 68 67  1  0  0  0  0
 69 75  2  0  0  0  0
 69 70  1  0  0  0  0
 71 61  2  0  0  0  0
 71 73  1  0  0  0  0
 72 71  1  0  0  0  0
 73 48  2  0  0  0  0
 74 73  1  0  0  0  0
 75 76  1  0  0  0  0
 77 78  1  0  0  0  0
 77 75  1  0  0  0  0
 79 65  2  0  0  0  0
 80 79  1  0  0  0  0
 82  1  1  0  0  0  0
M  END
