1,3,4,18
q = -2.0, confidence = 0.662

 38 37  0  0  0  0  0  0  0  0999 V2000
    1.3372    0.3472   -1.4467 N   0  0  0  0  0  2  0  0  0  0  0  0
    1.2208   -1.7311    0.0953 N   0  0  0  0  0  0  0  0  0  0  0  0
   -1.5339   -0.9750    0.6738 N   0  0  0  0  0  2  0  0  0  0  0  0
   -1.4731    0.3988   -1.4061 N   0  0  0  0  0  2  0  0  0  0  0  0
    1.1783    1.3072   -2.3408 O   0  0  0  0  0  0  0  0  0  0  0  0
   -1.2680    1.1772   -2.4134 O   0  0  0  0  0  1  0  0  0  0  0  0
    2.5339   -0.1520   -1.2222 C   0  0  0  0  0  0  0  0  0  0  0  0
    3.7615    0.3349   -1.9189 C   0  0  0  0  0  0  0  0  0  0  0  0
    2.5477   -1.2291   -0.2208 C   0  0  0  0  0  0  0  0  0  0  0  0
    3.6738   -1.6930    0.3699 C   0  0  0  0  0  3  0  0  0  0  0  0
    1.0891   -2.5343    1.3317 C   0  0  0  0  0  0  0  0  0  0  0  0
   -0.3453   -2.8780    1.7330 C   0  0  0  0  0  0  0  0  0  0  0  0
   -1.2942   -1.6855    1.9132 C   0  0  0  0  0  0  0  0  0  0  0  0
   -2.7324   -0.6916    0.1935 C   0  0  0  0  0  0  0  0  0  0  0  0
   -4.0176   -1.1008    0.8548 C   0  0  0  0  0  0  0  0  0  0  0  0
   -2.7230    0.0949   -1.0185 C   0  0  0  0  0  0  0  0  0  0  0  0
   -3.9238    0.5784   -1.7669 C   0  0  0  0  0  0  0  0  0  0  0  0
    0.3608   -2.0365   -1.0279 C   0  0  0  0  0  3  0  0  0  0  0  0
    0.0942    1.3359   -2.4776 H   0  0  0  0  0  0  0  0  0  0  0  0
    3.4782    0.9386   -2.7993 H   0  0  0  0  0  0  0  0  0  0  0  0
    4.3705    0.9771   -1.2475 H   0  0  0  0  0  0  0  0  0  0  0  0
    4.3982   -0.5121   -2.2399 H   0  0  0  0  0  0  0  0  0  0  0  0
    4.6436   -1.2432    0.1208 H   0  0  0  0  0  0  0  0  0  0  0  0
    3.6766   -2.5151    1.0959 H   0  0  0  0  0  0  0  0  0  0  0  0
    1.5851   -1.9592    2.1406 H   0  0  0  0  0  0  0  0  0  0  0  0
    1.6644   -3.4774    1.2078 H   0  0  0  0  0  0  0  0  0  0  0  0
   -0.2767   -3.4160    2.7005 H   0  0  0  0  0  0  0  0  0  0  0  0
   -0.7923   -3.6025    1.0218 H   0  0  0  0  0  0  0  0  0  0  0  0
   -2.2442   -2.0461    2.3567 H   0  0  0  0  0  0  0  0  0  0  0  0
   -0.8568   -0.9720    2.6494 H   0  0  0  0  0  0  0  0  0  0  0  0
   -4.0404   -2.1896    1.0620 H   0  0  0  0  0  0  0  0  0  0  0  0
   -4.1526   -0.5775    1.8244 H   0  0  0  0  0  0  0  0  0  0  0  0
   -4.8875   -0.8589    0.2205 H   0  0  0  0  0  0  0  0  0  0  0  0
   -3.5957    1.1343   -2.6629 H   0  0  0  0  0  0  0  0  0  0  0  0
   -4.5668   -0.2646   -2.0937 H   0  0  0  0  0  0  0  0  0  0  0  0
   -4.5503    1.2545   -1.1486 H   0  0  0  0  0  0  0  0  0  0  0  0
    0.8756   -2.0913   -2.0018 H   0  0  0  0  0  0  0  0  0  0  0  0
   -0.3410   -2.8651   -0.8488 H   0  0  0  0  0  0  0  0  0  0  0  0
  1  7  1  0  0  0  0
  2 11  1  0  0  0  0
  3 13  1  0  0  0  0
  4 16  1  0  0  0  0
  5  1  1  0  0  0  0
  6  4  1  0  0  0  0
  7  9  2  0  0  0  0
  8 21  1  0  0  0  0
  8  7  1  0  0  0  0
  9  2  1  0  0  0  0
  9 10  1  0  0  0  0
 10 24  1  0  0  0  0
 11 12  1  0  0  0  0
 11 25  1  0  0  0  0
 12 13  1  0  0  0  0
 12 27  1  0  0  0  0
 13 29  1  0  0  0  0
 13 30  1  0  0  0  0
 14  3  1  0  0  0  0
 14 15  1  0  0  0  0
 15 31  1  0  0  0  0
 15 32  1  0  0  0  0
 16 14  2  0  0  0  0
 17 36  1  0  0  0  0
 17 16  1  0  0  0  0
 18 38  1  0  0  0  0
 18  2  1  0  0  0  0
 19  5  1  0  0  0  0
 20  8  1  0  0  0  0
 22  8  1  0  0  0  0
 23 10  1  0  0  0  0
 26 11  1  0  0  0  0
 28 12  1  0  0  0  0
 33 15  1  0  0  0  0
 34 17  1  0  0  0  0
 35 17  1  0  0  0  0
 37 18  1  0  0  0  0
M  END
