1,12,20,30
q = -1.0

 55 59  0  0  1  0  0  0  0  0999 V2000
    1.6956   -1.1697    0.3777 N   0  0  0  0  0  2  0  0  0  0  0  0
    3.0248   -1.1939    0.0527 C   0  0  2  0  0  3  0  0  0  0  0  0
    3.4303   -1.0200   -1.3013 C   0  0  0  0  0  0  0  0  0  0  0  0
    4.7751   -1.0451   -1.6358 C   0  0  0  0  0  0  0  0  0  0  0  0
    5.7729   -1.2419   -0.6417 C   0  0  0  0  0  0  0  0  0  0  0  0
    5.4106   -1.4252    0.6837 C   0  0  0  0  0  0  0  0  0  0  0  0
    4.0389   -1.4137    1.0642 C   0  0  0  0  0  0  0  0  0  0  0  0
    3.6140   -1.6277    2.4029 C   0  0  0  0  0  0  0  0  0  0  0  0
    2.2622   -1.6364    2.6967 C   0  0  0  0  0  0  0  0  0  0  0  0
    1.3264   -1.4013    1.6513 C   0  0  0  0  0  0  0  0  0  0  0  0
   -0.1087   -1.4295    1.9412 C   0  0  0  0  0  3  0  0  0  0  0  0
   -0.9805   -1.1284    1.0336 N   0  0  0  0  0  2  0  0  0  0  0  0
   -2.4000   -1.2880    1.3220 C   0  0  2  0  0  0  0  0  0  0  0  0
   -2.8943   -2.6834    0.8861 C   0  0  0  0  0  0  0  0  0  0  0  0
   -4.3679   -2.8778    1.2651 C   0  0  0  0  0  0  0  0  0  0  0  0
   -5.2572   -1.7692    0.6893 C   0  0  0  0  0  0  0  0  0  0  0  0
   -4.7368   -0.3789    1.0787 C   0  0  0  0  0  0  0  0  0  0  0  0
   -3.2691   -0.1662    0.6664 C   0  0  2  0  0  0  0  0  0  0  0  0
   -3.1588   -0.0871   -0.7808 N   0  0  0  0  0  0  0  0  0  0  0  0
   -2.0066    0.4463   -1.3953 C   0  0  0  0  0  3  0  0  0  0  0  0
   -1.6028    1.7992   -0.8423 C   0  0  0  0  0  0  0  0  0  0  0  0
   -2.3333    3.0105   -0.8264 C   0  0  0  0  0  0  0  0  0  0  0  0
   -1.7375    4.1214   -0.2421 C   0  0  0  0  0  0  0  0  0  0  0  0
   -0.4344    4.0288    0.3276 C   0  0  0  0  0  0  0  0  0  0  0  0
    0.2338    5.1292    0.9380 C   0  0  0  0  0  0  0  0  0  0  0  0
    1.5039    4.9700    1.4724 C   0  0  0  0  0  0  0  0  0  0  0  0
    2.1587    3.7083    1.4187 C   0  0  0  0  0  0  0  0  0  0  0  0
    1.5413    2.6124    0.8335 C   0  0  0  0  0  0  0  0  0  0  0  0
    0.2399    2.7541    0.2816 C   0  0  2  0  0  3  0  0  0  0  0  0
   -0.3858    1.6891   -0.2982 N   0  0  0  0  0  2  0  0  0  0  0  0
    2.6577   -0.8700   -2.0631 H   0  0  0  0  0  0  0  0  0  0  0  0
    5.0754   -0.9140   -2.6860 H   0  0  0  0  0  0  0  0  0  0  0  0
    6.8342   -1.2555   -0.9304 H   0  0  0  0  0  0  0  0  0  0  0  0
    6.1742   -1.5897    1.4589 H   0  0  0  0  0  0  0  0  0  0  0  0
    4.3649   -1.7968    3.1896 H   0  0  0  0  0  0  0  0  0  0  0  0
    1.8989   -1.8176    3.7184 H   0  0  0  0  0  0  0  0  0  0  0  0
   -0.4268   -1.7395    2.9573 H   0  0  0  0  0  0  0  0  0  0  0  0
   -2.5473   -1.2053    2.4239 H   0  0  0  0  0  0  0  0  0  0  0  0
   -2.2572   -3.4578    1.3605 H   0  0  0  0  0  0  0  0  0  0  0  0
   -2.7543   -2.7947   -0.2099 H   0  0  0  0  0  0  0  0  0  0  0  0
   -4.7113   -3.8743    0.9211 H   0  0  0  0  0  0  0  0  0  0  0  0
   -4.4603   -2.8817    2.3736 H   0  0  0  0  0  0  0  0  0  0  0  0
   -6.3021   -1.8906    1.0389 H   0  0  0  0  0  0  0  0  0  0  0  0
   -5.3064   -1.8648   -0.4192 H   0  0  0  0  0  0  0  0  0  0  0  0
   -4.8136   -0.2536    2.1798 H   0  0  0  0  0  0  0  0  0  0  0  0
   -5.3514    0.4211    0.6202 H   0  0  0  0  0  0  0  0  0  0  0  0
   -2.9210    0.8065    1.0731 H   0  0  0  0  0  0  0  0  0  0  0  0
   -3.5738   -0.8757   -1.2820 H   0  0  0  0  0  0  0  0  0  0  0  0
   -2.1301    0.4492   -2.4962 H   0  0  0  0  0  0  0  0  0  0  0  0
   -3.3371    3.0517   -1.2713 H   0  0  0  0  0  0  0  0  0  0  0  0
   -2.2629    5.0888   -0.2155 H   0  0  0  0  0  0  0  0  0  0  0  0
   -0.2732    6.1053    0.9761 H   0  0  0  0  0  0  0  0  0  0  0  0
    2.0136    5.8250    1.9402 H   0  0  0  0  0  0  0  0  0  0  0  0
    3.1682    3.6051    1.8438 H   0  0  0  0  0  0  0  0  0  0  0  0
    2.0317    1.6302    0.7744 H   0  0  0  0  0  0  0  0  0  0  0  0
  1 10  1  0  0  0  0
  2  3  1  6  0  0  0
  2  1  1  0  0  0  0
  2  7  1  0  0  0  0
  4  3  2  0  0  0  0
  4  5  1  0  0  0  0
  5  6  2  0  0  0  0
  6  7  1  0  0  0  0
  6 34  1  0  0  0  0
  7  8  2  0  0  0  0
  8  9  1  0  0  0  0
  8 35  1  0  0  0  0
  9 36  1  0  0  0  0
 10 11  1  0  0  0  0
 10  9  2  0  0  0  0
 11 37  1  0  0  0  0
 12 13  1  0  0  0  0
 12 11  1  0  0  0  0
 13 38  1  1  0  0  0
 14 15  1  0  0  0  0
 14 13  1  0  0  0  0
 14 39  1  0  0  0  0
 15 42  1  0  0  0  0
 16 43  1  0  0  0  0
 16 17  1  0  0  0  0
 16 15  1  0  0  0  0
 17 45  1  0  0  0  0
 18 47  1  1  0  0  0
 18 17  1  0  0  0  0
 18 13  1  0  0  0  0
 19 18  1  0  0  0  0
 20 21  1  0  0  0  0
 20 19  1  0  0  0  0
 21 22  2  0  0  0  0
 21 30  1  0  0  0  0
 22 23  1  0  0  0  0
 23 51  1  0  0  0  0
 23 24  2  0  0  0  0
 24 25  1  0  0  0  0
 25 52  1  0  0  0  0
 25 26  2  0  0  0  0
 26 53  1  0  0  0  0
 27 26  1  0  0  0  0
 27 54  1  0  0  0  0
 28 27  2  0  0  0  0
 29 30  1  6  0  0  0
 29 24  1  0  0  0  0
 29 28  1  0  0  0  0
 31  3  1  0  0  0  0
 32  4  1  0  0  0  0
 33  5  1  0  0  0  0
 40 14  1  0  0  0  0
 41 15  1  0  0  0  0
 44 16  1  0  0  0  0
 46 17  1  0  0  0  0
 48 19  1  0  0  0  0
 49 20  1  0  0  0  0
 50 22  1  0  0  0  0
 55 28  1  0  0  0  0
M  END
