1,8,30
q = -2.0, confidence = 0.738

 34 33  0  0  1  0  0  0  0  0999 V2000
   -1.0839    1.0607   -1.1476 C   0  0  0  0  0  3  0  0  0  0  0  0
   -1.6288    0.9914   -2.1115 H   0  0  0  0  0  0  0  0  0  0  0  0
    0.3669    1.4973   -1.3703 C   0  0  0  0  0  0  0  0  0  0  0  0
    0.8396    0.8256   -2.1153 H   0  0  0  0  0  0  0  0  0  0  0  0
    0.4604    2.5287   -1.7754 H   0  0  0  0  0  0  0  0  0  0  0  0
    1.1171    1.3563   -0.0460 C   0  0  1  0  0  0  0  0  0  0  0  0
    0.6651    2.0593    0.6916 H   0  0  0  0  0  0  0  0  0  0  0  0
    0.9370   -0.0623    0.5213 C   0  0  0  0  0  3  0  0  0  0  0  0
    0.9526   -0.0835    1.6269 H   0  0  0  0  0  0  0  0  0  0  0  0
   -2.0072    1.8088    0.9788 C   0  0  2  0  0  3  0  0  0  0  0  0
   -2.5432    2.8712    1.9015 C   0  0  0  0  0  0  0  0  0  0  0  0
   -1.9027    3.7756    1.8924 H   0  0  0  0  0  0  0  0  0  0  0  0
   -2.5835    2.4594    2.9243 H   0  0  0  0  0  0  0  0  0  0  0  0
   -3.5644    3.1813    1.5997 H   0  0  0  0  0  0  0  0  0  0  0  0
   -2.0505    3.3851   -0.9018 C   0  0  0  0  0  0  0  0  0  0  0  0
   -2.1668    3.2695   -1.9957 H   0  0  0  0  0  0  0  0  0  0  0  0
   -1.2089    4.0873   -0.7184 H   0  0  0  0  0  0  0  0  0  0  0  0
   -2.9799    3.8330   -0.5026 H   0  0  0  0  0  0  0  0  0  0  0  0
    2.5649    1.8220   -0.1693 C   0  0  0  0  0  0  0  0  0  0  0  0
    4.6999    1.7157    0.8166 C   0  0  0  0  0  0  0  0  0  0  0  0
    5.1473    1.3532    1.7596 H   0  0  0  0  0  0  0  0  0  0  0  0
    4.8498    2.8090    0.7087 H   0  0  0  0  0  0  0  0  0  0  0  0
    5.1728    1.2121   -0.0512 H   0  0  0  0  0  0  0  0  0  0  0  0
    1.9479   -1.0127   -0.0150 C   0  0  0  0  0  0  0  0  0  0  0  0
    2.9323   -3.1428    0.2347 C   0  0  0  0  0  0  0  0  0  0  0  0
    2.9041   -3.9776    0.9582 H   0  0  0  0  0  0  0  0  0  0  0  0
    3.9654   -2.7512    0.1364 H   0  0  0  0  0  0  0  0  0  0  0  0
    2.6029   -3.4906   -0.7665 H   0  0  0  0  0  0  0  0  0  0  0  0
   -1.8075    2.0679   -0.3232 N   0  0  0  0  0  0  0  0  0  0  0  0
   -1.7561    0.6594    1.4622 O   0  0  0  0  0  1  0  0  0  0  0  0
    3.0040    2.5374   -1.0495 O   0  0  0  0  0  0  0  0  0  0  0  0
    3.3094    1.3889    0.8820 O   0  0  0  0  0  0  0  0  0  0  0  0
    2.6096   -0.8568   -1.0347 O   0  0  0  0  0  0  0  0  0  0  0  0
    2.0488   -2.1434    0.7458 O   0  0  0  0  0  0  0  0  0  0  0  0
  1 29  1  0  0  0  0
  2  1  1  0  0  0  0
  3  1  1  0  0  0  0
  3  6  1  0  0  0  0
  4  3  1  0  0  0  0
  5  3  1  0  0  0  0
  6  8  1  0  0  0  0
  6  7  1  1  0  0  0
  8  9  1  0  0  0  0
 10 30  1  6  0  0  0
 10 11  1  0  0  0  0
 11 13  1  0  0  0  0
 12 11  1  0  0  0  0
 14 11  1  0  0  0  0
 15 17  1  0  0  0  0
 15 18  1  0  0  0  0
 15 29  1  0  0  0  0
 16 15  1  0  0  0  0
 19  6  1  0  0  0  0
 19 32  1  0  0  0  0
 20 32  1  0  0  0  0
 20 21  1  0  0  0  0
 22 20  1  0  0  0  0
 23 20  1  0  0  0  0
 24  8  1  0  0  0  0
 24 34  1  0  0  0  0
 25 34  1  0  0  0  0
 25 26  1  0  0  0  0
 27 25  1  0  0  0  0
 28 25  1  0  0  0  0
 29 10  1  0  0  0  0
 31 19  2  0  0  0  0
 33 24  2  0  0  0  0
M  END
