2,3,9
q = -2.0, confidence = 0.52

 30 29  0  0  1  0  0  0  0  0999 V2000
    1.8058    2.4563    0.3162 O   0  0  0  0  0  0  0  0  0  0  0  0
    2.0535   -1.0547   -0.9823 O   0  0  0  0  0  1  0  0  0  0  0  0
    1.8521    1.1366    0.3584 C   0  0  0  0  0  2  0  0  0  0  0  0
    3.2290    0.5246    0.4446 C   0  0  1  0  0  0  0  0  0  0  0  0
    4.0430    1.2805    0.4456 H   0  0  0  0  0  0  0  0  0  0  0  0
    3.1601   -0.3077    1.7513 C   0  0  0  0  0  0  0  0  0  0  0  0
    3.1877    0.3951    2.6120 H   0  0  0  0  0  0  0  0  0  0  0  0
    4.0637   -0.9470    1.8501 H   0  0  0  0  0  0  0  0  0  0  0  0
    1.8393   -1.1130    1.7372 C   0  0  0  0  0  3  0  0  0  0  0  0
    1.3645   -1.1555    2.7396 H   0  0  0  0  0  0  0  0  0  0  0  0
    2.0287   -2.1566    1.4243 H   0  0  0  0  0  0  0  0  0  0  0  0
    3.2810   -0.3854   -0.8327 C   0  0  1  0  0  0  0  0  0  0  0  0
    3.4539    0.3234   -1.6939 H   0  0  0  0  0  0  0  0  0  0  0  0
    4.4425   -1.3873   -0.8501 C   0  0  0  0  0  0  0  0  0  0  0  0
    4.3143   -1.9896   -1.7747 H   0  0  0  0  0  0  0  0  0  0  0  0
    4.3153   -2.1000   -0.0077 H   0  0  0  0  0  0  0  0  0  0  0  0
    5.8318   -0.7510   -0.8199 C   0  0  0  0  0  0  0  0  0  0  0  0
    6.6306   -1.5094   -0.9460 H   0  0  0  0  0  0  0  0  0  0  0  0
    6.0245   -0.2263    0.1390 H   0  0  0  0  0  0  0  0  0  0  0  0
    5.9514   -0.0040   -1.6332 H   0  0  0  0  0  0  0  0  0  0  0  0
    0.5167    3.1256    0.2094 C   0  0  0  0  0  0  0  0  0  0  0  0
    0.2894    3.5419    1.2133 H   0  0  0  0  0  0  0  0  0  0  0  0
   -0.2513    2.3700   -0.0415 H   0  0  0  0  0  0  0  0  0  0  0  0
    0.5950    4.2234   -0.8376 C   0  0  0  0  0  0  0  0  0  0  0  0
    0.9338    3.7779   -1.7959 H   0  0  0  0  0  0  0  0  0  0  0  0
    1.3661    4.9662   -0.5421 H   0  0  0  0  0  0  0  0  0  0  0  0
   -0.7651    4.8961   -1.0317 C   0  0  0  0  0  0  0  0  0  0  0  0
   -0.7057    5.7107   -1.7799 H   0  0  0  0  0  0  0  0  0  0  0  0
   -1.1421    5.3378   -0.0857 H   0  0  0  0  0  0  0  0  0  0  0  0
   -1.5213    4.1660   -1.3880 H   0  0  0  0  0  0  0  0  0  0  0  0
  1  3  1  0  0  0  0
  2 12  1  0  0  0  0
  3  4  1  0  0  0  0
  4  5  1  1  0  0  0
  4  6  1  0  0  0  0
  6  8  1  0  0  0  0
  6  7  1  0  0  0  0
  9  6  1  0  0  0  0
  9 10  1  0  0  0  0
 11  9  1  0  0  0  0
 12 13  1  6  0  0  0
 12  4  1  0  0  0  0
 14 12  1  0  0  0  0
 14 17  1  0  0  0  0
 14 16  1  0  0  0  0
 15 14  1  0  0  0  0
 17 19  1  0  0  0  0
 18 17  1  0  0  0  0
 20 17  1  0  0  0  0
 21  1  1  0  0  0  0
 21 22  1  0  0  0  0
 23 21  1  0  0  0  0
 24 26  1  0  0  0  0
 24 21  1  0  0  0  0
 25 24  1  0  0  0  0
 27 24  1  0  0  0  0
 27 29  1  0  0  0  0
 28 27  1  0  0  0  0
 30 27  1  0  0  0  0
M  END
