3,7,10
q = -2.0, confidence = 0.574

 38 38  0  0  1  0  0  0  0  0999 V2000
    2.9727    1.9519   -0.7198 O   0  0  0  0  0  0  0  0  0  0  0  0
    1.3555    3.5291   -0.9551 O   0  0  0  0  0  0  0  0  0  0  0  0
   -1.1745    0.5648    1.5256 O   0  0  0  0  0  1  0  0  0  0  0  0
   -1.4845    2.7981    1.4485 O   0  0  0  0  0  0  0  0  0  0  0  0
   -3.5292   -0.4923   -1.8641 O   0  0  0  0  0  0  0  0  0  0  0  0
   -3.5603    1.0572   -0.2061 O   0  0  0  0  0  0  0  0  0  0  0  0
    0.9370   -0.0345   -0.1570 C   0  0  0  0  0  3  0  0  0  0  0  0
    0.7160    1.2678   -0.5164 C   0  0  0  0  0  0  0  0  0  0  0  0
   -0.7686    1.6129   -0.5564 C   0  0  1  0  0  0  0  0  0  0  0  0
   -1.4423    0.3488   -1.1074 C   0  0  0  0  0  3  0  0  0  0  0  0
    2.2485   -0.6921   -0.0505 C   0  0  0  0  0  0  0  0  0  0  0  0
    2.8947   -1.2115   -1.1954 C   0  0  0  0  0  0  0  0  0  0  0  0
    4.1332   -1.8590   -1.0873 C   0  0  0  0  0  0  0  0  0  0  0  0
    4.7557   -1.9953    0.1641 C   0  0  0  0  0  0  0  0  0  0  0  0
    4.1257   -1.4782    1.3084 C   0  0  0  0  0  0  0  0  0  0  0  0
    2.8826   -0.8395    1.2043 C   0  0  0  0  0  0  0  0  0  0  0  0
    1.6759    2.3641   -0.7495 C   0  0  0  0  0  0  0  0  0  0  0  0
    3.9429    2.9734   -0.9428 C   0  0  0  0  0  0  0  0  0  0  0  0
   -1.1926    1.6435    0.8864 C   0  0  1  0  0  3  0  0  0  0  0  0
   -1.8978    2.7550    2.8257 C   0  0  0  0  0  0  0  0  0  0  0  0
   -2.9187    0.3687   -0.9957 C   0  0  0  0  0  0  0  0  0  0  0  0
   -4.9533   -0.5553   -1.7551 C   0  0  0  0  0  0  0  0  0  0  0  0
   -0.9833    2.5699   -1.0703 H   0  0  0  0  0  0  0  0  0  0  0  0
   -1.0789    0.0673   -2.1111 H   0  0  0  0  0  0  0  0  0  0  0  0
    2.4143   -1.0885   -2.1782 H   0  0  0  0  0  0  0  0  0  0  0  0
    4.6210   -2.2555   -1.9913 H   0  0  0  0  0  0  0  0  0  0  0  0
    5.7289   -2.5024    0.2477 H   0  0  0  0  0  0  0  0  0  0  0  0
    4.6087   -1.5733    2.2934 H   0  0  0  0  0  0  0  0  0  0  0  0
    2.3866   -0.4359    2.1004 H   0  0  0  0  0  0  0  0  0  0  0  0
    3.8705    3.7697   -0.1733 H   0  0  0  0  0  0  0  0  0  0  0  0
    4.9277    2.4752   -0.8890 H   0  0  0  0  0  0  0  0  0  0  0  0
    3.8038    3.4486   -1.9357 H   0  0  0  0  0  0  0  0  0  0  0  0
   -2.8359    2.1728    2.9155 H   0  0  0  0  0  0  0  0  0  0  0  0
   -1.1149    2.2864    3.4540 H   0  0  0  0  0  0  0  0  0  0  0  0
   -2.0616    3.8047    3.1242 H   0  0  0  0  0  0  0  0  0  0  0  0
   -5.4100    0.4421   -1.9161 H   0  0  0  0  0  0  0  0  0  0  0  0
   -5.2913   -1.2639   -2.5326 H   0  0  0  0  0  0  0  0  0  0  0  0
   -5.2632   -0.9121   -0.7507 H   0  0  0  0  0  0  0  0  0  0  0  0
  2 17  2  0  0  0  0
  4 20  1  0  0  0  0
  5 22  1  0  0  0  0
  5 21  1  0  0  0  0
  7 11  1  0  0  0  0
  8  7  2  0  0  0  0
  9 23  1  6  0  0  0
  9  8  1  0  0  0  0
  9 19  1  0  0  0  0
 10 21  1  0  0  0  0
 10  9  1  0  0  0  0
 11 16  1  0  0  0  0
 12 13  1  0  0  0  0
 12 11  2  0  0  0  0
 13 14  2  0  0  0  0
 14 27  1  0  0  0  0
 14 15  1  0  0  0  0
 15 28  1  0  0  0  0
 16 15  2  0  0  0  0
 16 29  1  0  0  0  0
 17  1  1  0  0  0  0
 17  8  1  0  0  0  0
 18 31  1  0  0  0  0
 18  1  1  0  0  0  0
 18 30  1  0  0  0  0
 19  4  1  0  0  0  0
 19  3  1  1  0  0  0
 20 33  1  0  0  0  0
 20 35  1  0  0  0  0
 20 34  1  0  0  0  0
 21  6  2  0  0  0  0
 22 38  1  0  0  0  0
 24 10  1  0  0  0  0
 25 12  1  0  0  0  0
 26 13  1  0  0  0  0
 32 18  1  0  0  0  0
 36 22  1  0  0  0  0
 37 22  1  0  0  0  0
M  END
