1,15,18
q = -1.0

 32 34  0  0  1  0  0  0  0  0999 V2000
    0.9052   -0.7800    0.4995 O   0  5  0  0  0  0  0  0  0  0  0  0
    1.6024   -1.9150    0.5418 C   0  0  0  0  0  0  0  0  0  0  0  0
    2.9492   -1.9750    1.0184 C   0  0  0  0  0  0  0  0  0  0  0  0
    3.6482   -3.1930    0.8859 C   0  0  0  0  0  0  0  0  0  0  0  0
    3.0601   -4.3394    0.3289 C   0  0  0  0  0  0  0  0  0  0  0  0
    1.7295   -4.2847   -0.1203 C   0  0  0  0  0  0  0  0  0  0  0  0
    1.0101   -3.0897   -0.0031 C   0  0  0  0  0  0  0  0  0  0  0  0
    3.6319   -0.7623    1.5327 C   0  0  0  0  0  0  0  0  0  0  0  0
    4.8598   -0.3378    0.9751 C   0  0  0  0  0  0  0  0  0  0  0  0
    5.4939    0.8289    1.4285 C   0  0  0  0  0  0  0  0  0  0  0  0
    4.9155    1.5938    2.4538 C   0  0  0  0  0  0  0  0  0  0  0  0
    3.7041    1.1743    3.0296 C   0  0  0  0  0  0  0  0  0  0  0  0
    3.0712    0.0100    2.5733 C   0  0  0  0  0  0  0  0  0  0  0  0
   -0.3867   -2.8532   -0.4523 C   0  0  1  0  0  3  0  0  0  0  0  0
   -1.3492   -2.4312    0.5689 C   0  0  0  0  0  3  0  0  0  0  0  0
   -2.6550   -1.9831    0.1845 C   0  0  0  0  0  0  0  0  0  0  0  0
   -2.8968   -1.7518   -1.1799 C   0  0  0  0  0  0  0  0  0  0  0  0
   -1.8721   -1.9852   -2.1857 C   0  0  0  0  0  3  0  0  0  0  0  0
   -0.6622   -2.6598   -1.8327 C   0  0  0  0  0  3  0  0  0  0  0  0
    4.6900   -3.2321    1.2412 H   0  0  0  0  0  0  0  0  0  0  0  0
    3.6351   -5.2737    0.2531 H   0  0  0  0  0  0  0  0  0  0  0  0
    1.2445   -5.1727   -0.5552 H   0  0  0  0  0  0  0  0  0  0  0  0
    5.3057   -0.9249    0.1574 H   0  0  0  0  0  0  0  0  0  0  0  0
    6.4430    1.1475    0.9710 H   0  0  0  0  0  0  0  0  0  0  0  0
    5.4104    2.5110    2.8078 H   0  0  0  0  0  0  0  0  0  0  0  0
    3.2493    1.7585    3.8447 H   0  0  0  0  0  0  0  0  0  0  0  0
    2.1310   -0.3240    3.0307 H   0  0  0  0  0  0  0  0  0  0  0  0
   -1.0940   -2.5659    1.6284 H   0  0  0  0  0  0  0  0  0  0  0  0
   -3.4243   -1.7715    0.9384 H   0  0  0  0  0  0  0  0  0  0  0  0
   -3.8258   -1.2476   -1.4819 H   0  0  0  0  0  0  0  0  0  0  0  0
   -2.0725   -1.7145   -3.2306 H   0  0  0  0  0  0  0  0  0  0  0  0
    0.0756   -2.9557   -2.5905 H   0  0  0  0  0  0  0  0  0  0  0  0
  1  2  1  0  0  0  0
  2  3  1  0  0  0  0
  3  8  1  0  0  0  0
  4  3  2  0  0  0  0
  4 20  1  0  0  0  0
  5  4  1  0  0  0  0
  6  7  1  0  0  0  0
  6  5  2  0  0  0  0
  7  2  2  0  0  0  0
  8 13  1  0  0  0  0
  9 10  1  0  0  0  0
  9  8  2  0  0  0  0
 10 11  2  0  0  0  0
 11 25  1  0  0  0  0
 11 12  1  0  0  0  0
 12 26  1  0  0  0  0
 13 12  2  0  0  0  0
 13 27  1  0  0  0  0
 14  7  1  1  0  0  0
 14 15  1  0  0  0  0
 15 28  1  0  0  0  0
 16 15  1  0  0  0  0
 16 29  1  0  0  0  0
 17 16  2  0  0  0  0
 18 19  1  0  0  0  0
 18 17  1  0  0  0  0
 19 14  1  0  0  0  0
 21  5  1  0  0  0  0
 22  6  1  0  0  0  0
 23  9  1  0  0  0  0
 24 10  1  0  0  0  0
 30 17  1  0  0  0  0
 31 18  1  0  0  0  0
 32 19  1  0  0  0  0
M  CHG  1   1  -1
M  END
