1,11,19
q = -2.0, confidence = 0.624

 34 33  0  0  1  0  0  0  0  0999 V2000
   -0.3347    1.7269   -1.5959 O   0  0  0  0  0  1  0  0  0  0  0  0
   -0.8528    3.8847   -1.8955 O   0  0  0  0  0  0  0  0  0  0  0  0
   -3.0149    1.4920    1.8607 O   0  0  0  0  0  0  0  0  0  0  0  0
   -1.3682    0.6163    3.1359 O   0  0  0  0  0  0  0  0  0  0  0  0
    4.6374    1.3520    0.9189 O   0  0  0  0  0  0  0  0  0  0  0  0
    5.0162   -0.7521    0.1602 O   0  0  0  0  0  0  0  0  0  0  0  0
   -0.7729    2.8054   -1.1318 C   0  0  1  0  0  3  0  0  0  0  0  0
   -1.2561    2.9164    0.2670 C   0  0  0  0  0  0  0  0  0  0  0  0
   -2.3669    2.8162    0.2454 H   0  0  0  0  0  0  0  0  0  0  0  0
   -1.0548    3.9381    0.6554 H   0  0  0  0  0  0  0  0  0  0  0  0
   -0.7062    1.7846    1.1663 C   0  0  2  0  0  3  0  0  0  0  0  0
   -1.8154    1.3194    2.0604 C   0  0  0  0  0  0  0  0  0  0  0  0
    0.5887    2.2246    1.8763 C   0  0  0  0  0  0  0  0  0  0  0  0
    0.4812    3.2486    2.3024 H   0  0  0  0  0  0  0  0  0  0  0  0
    0.7850    1.5517    2.7340 H   0  0  0  0  0  0  0  0  0  0  0  0
    1.7578    2.1446    0.8903 C   0  0  0  0  0  0  0  0  0  0  0  0
    1.6332    2.9202    0.0962 H   0  0  0  0  0  0  0  0  0  0  0  0
    2.7425    2.3461    1.3547 H   0  0  0  0  0  0  0  0  0  0  0  0
    1.7055    0.7726    0.2503 C   0  0  0  0  0  3  0  0  0  0  0  0
    2.8055   -0.0256    0.0822 C   0  0  0  0  0  0  0  0  0  0  0  0
    2.6896   -1.0360   -0.3382 H   0  0  0  0  0  0  0  0  0  0  0  0
    4.1904    0.3137    0.4404 C   0  0  0  0  0  0  0  0  0  0  0  0
   -0.4051    3.7502   -3.2589 C   0  0  0  0  0  0  0  0  0  0  0  0
    0.6617    3.4535   -3.2853 H   0  0  0  0  0  0  0  0  0  0  0  0
   -0.5456    4.7434   -3.7187 H   0  0  0  0  0  0  0  0  0  0  0  0
   -1.0034    2.9837   -3.7892 H   0  0  0  0  0  0  0  0  0  0  0  0
   -2.3820   -0.0129    3.9207 C   0  0  0  0  0  0  0  0  0  0  0  0
   -3.0832    0.7350    4.3431 H   0  0  0  0  0  0  0  0  0  0  0  0
   -1.8539   -0.5506    4.7289 H   0  0  0  0  0  0  0  0  0  0  0  0
   -2.9673   -0.7273    3.3062 H   0  0  0  0  0  0  0  0  0  0  0  0
    6.3898   -0.5439    0.4716 C   0  0  0  0  0  0  0  0  0  0  0  0
    6.8051    0.3212   -0.0868 H   0  0  0  0  0  0  0  0  0  0  0  0
    6.9179   -1.4722    0.1854 H   0  0  0  0  0  0  0  0  0  0  0  0
    6.5333   -0.3408    1.5537 H   0  0  0  0  0  0  0  0  0  0  0  0
  2  7  1  0  0  0  0
  3 12  2  0  0  0  0
  4 27  1  0  0  0  0
  6 22  1  0  0  0  0
  6 31  1  0  0  0  0
  7  1  1  6  0  0  0
  7  8  1  0  0  0  0
  8 10  1  0  0  0  0
  8 11  1  0  0  0  0
  9  8  1  0  0  0  0
 11 13  1  0  0  0  0
 11 12  1  1  0  0  0
 12  4  1  0  0  0  0
 13 14  1  0  0  0  0
 13 15  1  0  0  0  0
 16 18  1  0  0  0  0
 16 13  1  0  0  0  0
 17 16  1  0  0  0  0
 19 16  1  0  0  0  0
 20 19  2  0  0  0  0
 20 22  1  0  0  0  0
 21 20  1  0  0  0  0
 22  5  2  0  0  0  0
 23  2  1  0  0  0  0
 24 23  1  0  0  0  0
 25 23  1  0  0  0  0
 26 23  1  0  0  0  0
 27 28  1  0  0  0  0
 27 29  1  0  0  0  0
 30 27  1  0  0  0  0
 31 34  1  0  0  0  0
 32 31  1  0  0  0  0
 33 31  1  0  0  0  0
M  END
