1,5,15
q = -1.0

 35 35  0  0  1  0  0  0  0  0999 V2000
   -2.2951    0.1583   -1.4132 C   0  0  0  0  0  3  0  0  0  0  0  0
   -1.9798   -0.1429   -2.4200 H   0  0  0  0  0  0  0  0  0  0  0  0
   -2.7781    1.4482   -1.0533 C   0  0  0  0  0  3  0  0  0  0  0  0
   -2.9017    2.2991   -1.7317 H   0  0  0  0  0  0  0  0  0  0  0  0
   -3.0619    1.4378    0.3384 C   0  0  0  0  0  3  0  0  0  0  0  0
   -3.4110    2.2858    0.9404 H   0  0  0  0  0  0  0  0  0  0  0  0
   -2.8231    0.1153    0.8231 C   0  0  0  0  0  0  0  0  0  0  0  0
   -2.9399   -0.2021    1.8632 H   0  0  0  0  0  0  0  0  0  0  0  0
   -2.3631   -0.6879   -0.2528 C   0  0  0  0  0  0  0  0  0  0  0  0
   -2.0791   -2.1802   -0.2134 C   0  0  0  0  0  0  0  0  0  0  0  0
   -0.7171   -2.4845   -0.9038 C   0  0  0  0  0  0  0  0  0  0  0  0
   -0.5653   -3.5800   -0.9663 H   0  0  0  0  0  0  0  0  0  0  0  0
   -0.7173   -2.0984   -1.9449 H   0  0  0  0  0  0  0  0  0  0  0  0
    0.4116   -1.8273   -0.1719 C   0  0  1  0  0  3  0  0  0  0  0  0
    0.3925   -0.5919    0.0977 O   0  0  0  0  0  1  0  0  0  0  0  0
    1.4487   -2.5540    0.2643 N   0  0  0  0  0  0  0  0  0  0  0  0
    1.5070   -3.5346   -0.0155 H   0  0  0  0  0  0  0  0  0  0  0  0
    2.5896   -1.9241    0.8988 C   0  0  0  0  0  0  0  0  0  0  0  0
    3.2498   -2.6975    1.3350 H   0  0  0  0  0  0  0  0  0  0  0  0
    2.2503   -1.2707    1.7281 H   0  0  0  0  0  0  0  0  0  0  0  0
    3.3761   -1.0667   -0.1045 C   0  0  0  0  0  0  0  0  0  0  0  0
    3.0981   -0.9617   -1.2836 O   0  0  0  0  0  0  0  0  0  0  0  0
    4.3821   -0.4489    0.5216 O   0  0  0  0  0  0  0  0  0  0  0  0
    5.2290    0.3871   -0.2970 C   0  0  0  0  0  0  0  0  0  0  0  0
    6.0463    0.7244    0.3624 H   0  0  0  0  0  0  0  0  0  0  0  0
    4.6564    1.2553   -0.6792 H   0  0  0  0  0  0  0  0  0  0  0  0
    5.6267   -0.1881   -1.1550 H   0  0  0  0  0  0  0  0  0  0  0  0
   -3.1927   -2.8990   -1.0070 C   0  0  0  0  0  0  0  0  0  0  0  0
   -3.0386   -3.9968   -0.9840 H   0  0  0  0  0  0  0  0  0  0  0  0
   -3.2146   -2.5739   -2.0659 H   0  0  0  0  0  0  0  0  0  0  0  0
   -4.1836   -2.6822   -0.5629 H   0  0  0  0  0  0  0  0  0  0  0  0
   -2.0488   -2.6980    1.2355 C   0  0  0  0  0  0  0  0  0  0  0  0
   -1.7803   -3.7729    1.2581 H   0  0  0  0  0  0  0  0  0  0  0  0
   -3.0441   -2.6000    1.7099 H   0  0  0  0  0  0  0  0  0  0  0  0
   -1.3227   -2.1405    1.8612 H   0  0  0  0  0  0  0  0  0  0  0  0
  1  3  1  0  0  0  0
  1  9  1  0  0  0  0
  2  1  1  0  0  0  0
  3  5  1  0  0  0  0
  4  3  1  0  0  0  0
  5  7  1  0  0  0  0
  5  6  1  0  0  0  0
  7  8  1  0  0  0  0
  9 10  1  0  0  0  0
  9  7  2  0  0  0  0
 10 32  1  0  0  0  0
 11 10  1  0  0  0  0
 11 14  1  0  0  0  0
 12 11  1  0  0  0  0
 13 11  1  0  0  0  0
 14 15  1  1  0  0  0
 14 16  1  0  0  0  0
 16 18  1  0  0  0  0
 17 16  1  0  0  0  0
 18 19  1  0  0  0  0
 18 20  1  0  0  0  0
 21 23  1  0  0  0  0
 21 18  1  0  0  0  0
 22 21  2  0  0  0  0
 24 25  1  0  0  0  0
 24 23  1  0  0  0  0
 26 24  1  0  0  0  0
 27 24  1  0  0  0  0
 28 29  1  0  0  0  0
 28 31  1  0  0  0  0
 28 10  1  0  0  0  0
 30 28  1  0  0  0  0
 32 33  1  0  0  0  0
 32 34  1  0  0  0  0
 32 35  1  0  0  0  0
M  END
