2,3,7
q = -1.0

 32 33  0  0  1  0  0  0  0  0999 V2000
    0.0161   -2.9092    0.4873 O   0  0  0  0  0  0  0  0  0  0  0  0
   -0.6715   -1.8476    1.1970 O   0  0  0  0  0  1  0  0  0  0  0  0
    1.0848   -0.0056    0.0635 C   0  0  0  0  0  3  0  0  0  0  0  0
    1.6889   -1.2059   -0.1876 C   0  0  0  0  0  0  0  0  0  0  0  0
    0.8348   -2.4080   -0.5923 C   0  0  2  0  0  0  0  0  0  0  0  0
   -0.0308   -2.0946   -1.7972 C   0  0  0  0  0  0  0  0  0  0  0  0
   -0.9278   -1.0964   -1.7081 C   0  0  0  0  0  3  0  0  0  0  0  0
    1.8651    1.2308    0.2981 C   0  0  0  0  0  0  0  0  0  0  0  0
    1.7017    2.0462    1.4425 C   0  0  0  0  0  0  0  0  0  0  0  0
    2.4440    3.2245    1.6112 C   0  0  0  0  0  0  0  0  0  0  0  0
    3.3664    3.6314    0.6334 C   0  0  0  0  0  0  0  0  0  0  0  0
    3.5513    2.8317   -0.5061 C   0  0  0  0  0  0  0  0  0  0  0  0
    2.8183    1.6483   -0.6669 C   0  0  0  0  0  0  0  0  0  0  0  0
    3.1555   -1.4315   -0.0828 C   0  0  0  0  0  0  0  0  0  0  0  0
    3.8910   -0.9864    1.0398 C   0  0  0  0  0  0  0  0  0  0  0  0
    5.2733   -1.1964    1.1267 C   0  0  0  0  0  0  0  0  0  0  0  0
    5.9576   -1.8593    0.0947 C   0  0  0  0  0  0  0  0  0  0  0  0
    5.2415   -2.3176   -1.0226 C   0  0  0  0  0  0  0  0  0  0  0  0
    3.8572   -2.1109   -1.1064 C   0  0  0  0  0  0  0  0  0  0  0  0
    1.4882   -3.2794   -0.7952 H   0  0  0  0  0  0  0  0  0  0  0  0
    0.0703   -2.7394   -2.6893 H   0  0  0  0  0  0  0  0  0  0  0  0
   -1.6132   -0.8975   -2.5553 H   0  0  0  0  0  0  0  0  0  0  0  0
    0.9985    1.7358    2.2265 H   0  0  0  0  0  0  0  0  0  0  0  0
    2.3020    3.8287    2.5208 H   0  0  0  0  0  0  0  0  0  0  0  0
    3.9427    4.5600    0.7628 H   0  0  0  0  0  0  0  0  0  0  0  0
    4.2798    3.1285   -1.2767 H   0  0  0  0  0  0  0  0  0  0  0  0
    2.9830    1.0136   -1.5506 H   0  0  0  0  0  0  0  0  0  0  0  0
    3.3572   -0.4783    1.8554 H   0  0  0  0  0  0  0  0  0  0  0  0
    5.8218   -0.8445    2.0142 H   0  0  0  0  0  0  0  0  0  0  0  0
    7.0438   -2.0239    0.1638 H   0  0  0  0  0  0  0  0  0  0  0  0
    5.7659   -2.8385   -1.8388 H   0  0  0  0  0  0  0  0  0  0  0  0
    3.3096   -2.4606   -1.9961 H   0  0  0  0  0  0  0  0  0  0  0  0
  1  2  1  0  0  0  0
  3  8  1  0  0  0  0
  4 14  1  0  0  0  0
  4  3  2  0  0  0  0
  5 20  1  6  0  0  0
  5  4  1  0  0  0  0
  5  1  1  0  0  0  0
  6  7  2  0  0  0  0
  6  5  1  0  0  0  0
  8  9  1  0  0  0  0
  9 10  2  0  0  0  0
  9 23  1  0  0  0  0
 10 24  1  0  0  0  0
 11 25  1  0  0  0  0
 11 10  1  0  0  0  0
 12 11  2  0  0  0  0
 13 12  1  0  0  0  0
 13  8  2  0  0  0  0
 14 15  1  0  0  0  0
 15 16  2  0  0  0  0
 15 28  1  0  0  0  0
 16 29  1  0  0  0  0
 17 30  1  0  0  0  0
 17 16  1  0  0  0  0
 18 17  2  0  0  0  0
 19 18  1  0  0  0  0
 19 14  2  0  0  0  0
 21  6  1  0  0  0  0
 22  7  1  0  0  0  0
 26 12  1  0  0  0  0
 27 13  1  0  0  0  0
 31 18  1  0  0  0  0
 32 19  1  0  0  0  0
M  END
