5,6,10
q = -2.0, confidence = 0.502

 27 27  0  0  1  0  0  0  0  0999 V2000
   -0.2860    2.1744    1.6981 F   0  0  0  0  0  0  0  0  0  0  0  0
    1.5584    0.9878    1.9447 F   0  0  0  0  0  0  0  0  0  0  0  0
    2.1220    3.6269    1.5986 F   0  0  0  0  0  0  0  0  0  0  0  0
    0.8709    3.7249   -0.2059 F   0  0  0  0  0  0  0  0  0  0  0  0
    1.2255   -0.5929   -1.9874 O   0  0  0  0  0  1  0  0  0  0  0  0
    0.8028    1.6831    0.9957 C   0  0  0  0  0  3  0  0  0  0  0  0
    1.6711    2.8819    0.5410 C   0  0  0  0  0  0  0  0  0  0  0  0
    2.8216    2.3461   -0.3222 C   0  0  1  0  0  0  0  0  0  0  0  0
    3.4343    1.7349    0.3714 H   0  0  0  0  0  0  0  0  0  0  0  0
    2.1255    1.4397   -1.3127 C   0  0  0  0  0  3  0  0  0  0  0  0
    1.5679    1.9407   -2.1261 H   0  0  0  0  0  0  0  0  0  0  0  0
    2.2493    0.0107   -1.4301 C   0  0  1  0  0  3  0  0  0  0  0  0
    3.6624    3.4677   -0.9310 C   0  0  0  0  0  0  0  0  0  0  0  0
    3.0497    4.0868   -1.6155 H   0  0  0  0  0  0  0  0  0  0  0  0
    4.5130    3.0559   -1.5090 H   0  0  0  0  0  0  0  0  0  0  0  0
    4.0640    4.1280   -0.1375 H   0  0  0  0  0  0  0  0  0  0  0  0
    3.3539   -0.8066   -0.8553 C   0  0  0  0  0  0  0  0  0  0  0  0
    4.6772   -0.3231   -0.7906 C   0  0  0  0  0  0  0  0  0  0  0  0
    4.9100    0.6766   -1.1863 H   0  0  0  0  0  0  0  0  0  0  0  0
    5.6983   -1.1217   -0.2565 C   0  0  0  0  0  0  0  0  0  0  0  0
    6.7291   -0.7384   -0.2159 H   0  0  0  0  0  0  0  0  0  0  0  0
    5.4082   -2.4115    0.2168 C   0  0  0  0  0  0  0  0  0  0  0  0
    6.2098   -3.0362    0.6396 H   0  0  0  0  0  0  0  0  0  0  0  0
    4.0949   -2.9066    0.1402 C   0  0  0  0  0  0  0  0  0  0  0  0
    3.8664   -3.9202    0.5035 H   0  0  0  0  0  0  0  0  0  0  0  0
    3.0762   -2.1127   -0.3993 C   0  0  0  0  0  0  0  0  0  0  0  0
    2.0444   -2.4855   -0.4700 H   0  0  0  0  0  0  0  0  0  0  0  0
  4  7  1  0  0  0  0
  6  1  1  0  0  0  0
  6  2  1  0  0  0  0
  7  6  1  0  0  0  0
  7  3  1  0  0  0  0
  8  9  1  1  0  0  0
  8  7  1  0  0  0  0
 10  8  1  0  0  0  0
 11 10  1  0  0  0  0
 12  5  1  1  0  0  0
 12 10  1  0  0  0  0
 12 17  1  0  0  0  0
 13  8  1  0  0  0  0
 13 16  1  0  0  0  0
 14 13  1  0  0  0  0
 15 13  1  0  0  0  0
 17 18  2  0  0  0  0
 17 26  1  0  0  0  0
 18 20  1  0  0  0  0
 19 18  1  0  0  0  0
 20 21  1  0  0  0  0
 20 22  2  0  0  0  0
 22 23  1  0  0  0  0
 24 22  1  0  0  0  0
 24 25  1  0  0  0  0
 26 24  2  0  0  0  0
 27 26  1  0  0  0  0
M  END
