1,42,43
q = -1.0

 44 45  0  0  1  0  0  0  0  0999 V2000
    2.4576   -1.1018    0.1545 C   0  0  1  0  0  3  0  0  0  0  0  0
    1.8576   -1.0577    1.4422 C   0  0  0  0  0  0  0  0  0  0  0  0
    1.7414   -1.9218    2.1048 H   0  0  0  0  0  0  0  0  0  0  0  0
    1.4652    0.2733    1.7830 C   0  0  0  0  0  0  0  0  0  0  0  0
    1.9013    1.1222    0.6943 C   0  0  0  0  0  0  0  0  0  0  0  0
    1.8860    2.5500    0.5098 C   0  0  0  0  0  0  0  0  0  0  0  0
    2.3440    3.0381   -0.7130 C   0  0  0  0  0  0  0  0  0  0  0  0
    2.3573    4.1280   -0.8729 H   0  0  0  0  0  0  0  0  0  0  0  0
    2.8142    2.1921   -1.7493 C   0  0  0  0  0  0  0  0  0  0  0  0
    3.1424    2.6456   -2.6977 H   0  0  0  0  0  0  0  0  0  0  0  0
    2.9046    0.8092   -1.6049 C   0  0  0  0  0  0  0  0  0  0  0  0
    2.4846    0.2565   -0.3426 C   0  0  0  0  0  0  0  0  0  0  0  0
    2.9544   -2.3721   -0.4970 C   0  0  2  0  0  0  0  0  0  0  0  0
    3.0290   -2.1842   -1.5813 H   0  0  0  0  0  0  0  0  0  0  0  0
    1.9506   -3.5324   -0.3366 C   0  0  0  0  0  0  0  0  0  0  0  0
    1.9817   -3.9537    0.6928 H   0  0  0  0  0  0  0  0  0  0  0  0
    2.2546   -4.3560   -1.0154 H   0  0  0  0  0  0  0  0  0  0  0  0
    0.5037   -3.0935   -0.6467 C   0  0  1  0  0  0  0  0  0  0  0  0
   -0.0734   -3.9655   -1.0403 H   0  0  0  0  0  0  0  0  0  0  0  0
    4.3491   -2.7589    0.0204 C   0  0  0  0  0  0  0  0  0  0  0  0
    5.0842   -1.9505   -0.1684 H   0  0  0  0  0  0  0  0  0  0  0  0
    4.7155   -3.6821   -0.4743 H   0  0  0  0  0  0  0  0  0  0  0  0
    4.3294   -2.9439    1.1143 H   0  0  0  0  0  0  0  0  0  0  0  0
    0.9679    0.6565    3.1639 C   0  0  0  0  0  0  0  0  0  0  0  0
    0.2634    1.5070    3.0621 H   0  0  0  0  0  0  0  0  0  0  0  0
    2.1463    1.0928    4.0582 C   0  0  0  0  0  0  0  0  0  0  0  0
    2.8412    0.2417    4.2139 H   0  0  0  0  0  0  0  0  0  0  0  0
    1.7855    1.4243    5.0539 H   0  0  0  0  0  0  0  0  0  0  0  0
    2.7340    1.9179    3.6127 H   0  0  0  0  0  0  0  0  0  0  0  0
    0.2101   -0.4929    3.8441 C   0  0  0  0  0  0  0  0  0  0  0  0
   -0.5479   -0.9426    3.1785 H   0  0  0  0  0  0  0  0  0  0  0  0
   -0.2988   -0.1339    4.7608 H   0  0  0  0  0  0  0  0  0  0  0  0
    0.9018   -1.3043    4.1512 H   0  0  0  0  0  0  0  0  0  0  0  0
    1.4804    3.5058    1.5977 C   0  0  0  0  0  0  0  0  0  0  0  0
    1.5012    4.5495    1.2319 H   0  0  0  0  0  0  0  0  0  0  0  0
    2.1679    3.4403    2.4650 H   0  0  0  0  0  0  0  0  0  0  0  0
    0.4636    3.2927    1.9791 H   0  0  0  0  0  0  0  0  0  0  0  0
    3.4555   -0.0341   -2.7251 C   0  0  0  0  0  0  0  0  0  0  0  0
    3.7251    0.6006   -3.5909 H   0  0  0  0  0  0  0  0  0  0  0  0
    2.7194   -0.7887   -3.0710 H   0  0  0  0  0  0  0  0  0  0  0  0
    4.3658   -0.5878   -2.4139 H   0  0  0  0  0  0  0  0  0  0  0  0
   -0.2628   -2.5334    0.5723 C   0  0  0  0  0  3  0  0  0  0  0  0
    0.4433   -2.0033   -1.5879 O   0  0  0  0  0  1  0  0  0  0  0  0
   -0.7458   -3.2073    1.4703 O   0  0  0  0  0  0  0  0  0  0  0  0
  1 13  1  1  0  0  0
  1  2  1  0  0  0  0
  2  4  2  0  0  0  0
  2  3  1  0  0  0  0
  4 24  1  0  0  0  0
  5  4  1  0  0  0  0
  6  5  1  0  0  0  0
  6 34  1  0  0  0  0
  7  6  2  0  0  0  0
  8  7  1  0  0  0  0
  9 11  2  0  0  0  0
  9  7  1  0  0  0  0
 10  9  1  0  0  0  0
 11 12  1  0  0  0  0
 12  1  1  0  0  0  0
 12  5  2  0  0  0  0
 13 14  1  6  0  0  0
 13 15  1  0  0  0  0
 13 20  1  0  0  0  0
 15 16  1  0  0  0  0
 17 15  1  0  0  0  0
 18 19  1  6  0  0  0
 18 15  1  0  0  0  0
 18 42  1  0  0  0  0
 20 23  1  0  0  0  0
 21 20  1  0  0  0  0
 22 20  1  0  0  0  0
 24 30  1  0  0  0  0
 24 26  1  0  0  0  0
 25 24  1  0  0  0  0
 26 27  1  0  0  0  0
 26 28  1  0  0  0  0
 29 26  1  0  0  0  0
 30 33  1  0  0  0  0
 30 32  1  0  0  0  0
 31 30  1  0  0  0  0
 34 37  1  0  0  0  0
 34 36  1  0  0  0  0
 35 34  1  0  0  0  0
 38 41  1  0  0  0  0
 38 11  1  0  0  0  0
 39 38  1  0  0  0  0
 40 38  1  0  0  0  0
 42 44  2  0  0  0  0
 43 18  1  0  0  0  0
M  END
