1,2,3,4
 OpenBabel05122313063D

 47 48  0  0  0  0  0  0  0  0999 V2000
   -0.8507    2.0026    1.7063 S   0  0  0  0  0  1  0  0  0  0  0  0
    0.8380    2.5286   -0.9567 S   0  0  0  0  0  1  0  0  0  0  0  0
   -1.3304   -0.7778    0.6626 P   0  0  1  0  0  0  0  0  0  0  0  0
    1.3354   -0.4126   -1.0167 P   0  0  2  0  0  0  0  0  0  0  0  0
   -1.9980    0.8937    2.6534 C   0  0  0  0  0  0  0  0  0  0  0  0
   -1.6407   -0.5812    2.4807 C   0  0  0  0  0  0  0  0  0  0  0  0
   -0.9607   -2.5830    0.3492 C   0  0  0  0  0  0  0  0  0  0  0  0
    0.4889   -2.8938   -0.0562 C   0  0  0  0  0  0  0  0  0  0  0  0
    0.9461   -2.1903   -1.3486 C   0  0  0  0  0  0  0  0  0  0  0  0
    1.7346    0.4340   -2.6114 C   0  0  0  0  0  0  0  0  0  0  0  0
    2.0550    1.8699   -2.1944 C   0  0  0  0  0  0  0  0  0  0  0  0
   -3.0070   -0.5504   -0.0750 C   0  0  0  0  0  0  0  0  0  0  0  0
   -3.2967    0.6775   -0.7039 C   0  0  0  0  0  0  0  0  0  0  0  0
   -4.5692    0.9027   -1.2508 C   0  0  0  0  0  0  0  0  0  0  0  0
   -5.5562   -0.0926   -1.1786 C   0  0  0  0  0  0  0  0  0  0  0  0
   -5.2731   -1.3164   -0.5494 C   0  0  0  0  0  0  0  0  0  0  0  0
   -4.0039   -1.5454    0.0027 C   0  0  0  0  0  0  0  0  0  0  0  0
    2.9542   -0.4918   -0.1303 C   0  0  0  0  0  0  0  0  0  0  0  0
    4.0020   -1.3379   -0.5484 C   0  0  0  0  0  0  0  0  0  0  0  0
    5.2226   -1.3446    0.1427 C   0  0  0  0  0  0  0  0  0  0  0  0
    5.4057   -0.5053    1.2544 C   0  0  0  0  0  0  0  0  0  0  0  0
    4.3675    0.3425    1.6705 C   0  0  0  0  0  0  0  0  0  0  0  0
    3.1435    0.3509    0.9844 C   0  0  0  0  0  0  0  0  0  0  0  0
   -1.9390    1.1995    3.7182 H   0  0  0  0  0  0  0  0  0  0  0  0
   -3.0422    1.0661    2.3151 H   0  0  0  0  0  0  0  0  0  0  0  0
   -0.6801   -0.8179    2.9856 H   0  0  0  0  0  0  0  0  0  0  0  0
   -2.4309   -1.2740    2.8452 H   0  0  0  0  0  0  0  0  0  0  0  0
   -1.2334   -3.1549    1.2603 H   0  0  0  0  0  0  0  0  0  0  0  0
   -1.6478   -2.9142   -0.4569 H   0  0  0  0  0  0  0  0  0  0  0  0
    1.1858   -2.6335    0.7706 H   0  0  0  0  0  0  0  0  0  0  0  0
    0.5786   -3.9923   -0.1918 H   0  0  0  0  0  0  0  0  0  0  0  0
    1.8384   -2.6930   -1.7742 H   0  0  0  0  0  0  0  0  0  0  0  0
    0.1516   -2.2242   -2.1244 H   0  0  0  0  0  0  0  0  0  0  0  0
    0.8091    0.3971   -3.2241 H   0  0  0  0  0  0  0  0  0  0  0  0
    2.5628   -0.0620   -3.1632 H   0  0  0  0  0  0  0  0  0  0  0  0
    2.0345    2.5553   -3.0663 H   0  0  0  0  0  0  0  0  0  0  0  0
    3.0773    1.9123   -1.7612 H   0  0  0  0  0  0  0  0  0  0  0  0
   -2.5154    1.4556   -0.7356 H   0  0  0  0  0  0  0  0  0  0  0  0
   -4.7886    1.8652   -1.7376 H   0  0  0  0  0  0  0  0  0  0  0  0
   -6.5525    0.0849   -1.6117 H   0  0  0  0  0  0  0  0  0  0  0  0
   -6.0471   -2.0965   -0.4844 H   0  0  0  0  0  0  0  0  0  0  0  0
   -3.7988   -2.5052    0.5030 H   0  0  0  0  0  0  0  0  0  0  0  0
    3.8765   -1.9939   -1.4246 H   0  0  0  0  0  0  0  0  0  0  0  0
    6.0370   -2.0062   -0.1905 H   0  0  0  0  0  0  0  0  0  0  0  0
    6.3643   -0.5117    1.7955 H   0  0  0  0  0  0  0  0  0  0  0  0
    4.5090    1.0064    2.5369 H   0  0  0  0  0  0  0  0  0  0  0  0
    2.3240    1.0240    1.2894 H   0  0  0  0  0  0  0  0  0  0  0  0
  1  5  1  0  0  0  0
  3  7  1  1  0  0  0
  3  6  1  0  0  0  0
  4 10  1  6  0  0  0
  4 18  1  0  0  0  0
  5 24  1  0  0  0  0
  6  5  1  0  0  0  0
  6 27  1  0  0  0  0
  6 26  1  0  0  0  0
  7 28  1  0  0  0  0
  8  7  1  0  0  0  0
  8 30  1  0  0  0  0
  9  4  1  0  0  0  0
  9  8  1  0  0  0  0
 10 11  1  0  0  0  0
 11 37  1  0  0  0  0
 11  2  1  0  0  0  0
 12 17  1  0  0  0  0
 12  3  1  0  0  0  0
 13 12  2  0  0  0  0
 14 15  2  0  0  0  0
 14 13  1  0  0  0  0
 15 16  1  0  0  0  0
 16 41  1  0  0  0  0
 16 17  2  0  0  0  0
 17 42  1  0  0  0  0
 18 23  1  0  0  0  0
 19 18  2  0  0  0  0
 19 20  1  0  0  0  0
 20 21  2  0  0  0  0
 21 22  1  0  0  0  0
 21 45  1  0  0  0  0
 22 46  1  0  0  0  0
 23 47  1  0  0  0  0
 23 22  2  0  0  0  0
 25  5  1  0  0  0  0
 29  7  1  0  0  0  0
 31  8  1  0  0  0  0
 32  9  1  0  0  0  0
 33  9  1  0  0  0  0
 34 10  1  0  0  0  0
 35 10  1  0  0  0  0
 36 11  1  0  0  0  0
 38 13  1  0  0  0  0
 39 14  1  0  0  0  0
 40 15  1  0  0  0  0
 43 19  1  0  0  0  0
 44 20  1  0  0  0  0
M  END
