1,2,3,4
q = 0.0, confidence = 0.99

 66 69  0  0  0  0  0  0  0  0999 V2000
    0.2787   -1.5884   -1.6106 S   0  0  0  0  0  0  0  0  0  0  0  0
   -0.2786   -1.5883    1.6106 S   0  0  0  0  0  0  0  0  0  0  0  0
   -2.2397    0.0702   -0.6066 P   0  0  0  0  0  0  0  0  0  0  0  0
    2.2397    0.0702    0.6066 P   0  0  0  0  0  0  0  0  0  0  0  0
   -2.2661   -0.6417   -2.3281 C   0  0  0  0  0  0  0  0  0  0  0  0
   -1.4084   -1.8962   -2.3920 C   0  0  0  0  0  0  0  0  0  0  0  0
    0.4301   -3.1581   -0.6250 C   0  0  0  0  0  0  0  0  0  0  0  0
   -0.4301   -3.1581    0.6252 C   0  0  0  0  0  0  0  0  0  0  0  0
    1.4085   -1.8961    2.3920 C   0  0  0  0  0  0  0  0  0  0  0  0
    2.2661   -0.6416    2.3281 C   0  0  0  0  0  0  0  0  0  0  0  0
   -3.2116    1.6245   -0.7535 C   0  0  0  0  0  0  0  0  0  0  0  0
   -4.6064    1.5657   -0.9575 C   0  0  0  0  0  0  0  0  0  0  0  0
   -5.3472    2.7484   -1.0930 C   0  0  0  0  0  0  0  0  0  0  0  0
   -4.7004    3.9930   -1.0149 C   0  0  0  0  0  0  0  0  0  0  0  0
   -3.3145    4.0505   -0.8013 C   0  0  0  0  0  0  0  0  0  0  0  0
   -2.5641    2.8719   -0.6689 C   0  0  0  0  0  0  0  0  0  0  0  0
   -3.3634   -0.9935    0.3912 C   0  0  0  0  0  0  0  0  0  0  0  0
   -4.1262   -2.0601   -0.1259 C   0  0  0  0  0  0  0  0  0  0  0  0
   -4.9122   -2.8506    0.7301 C   0  0  0  0  0  0  0  0  0  0  0  0
   -4.9478   -2.5763    2.1058 C   0  0  0  0  0  0  0  0  0  0  0  0
   -4.1942   -1.5099    2.6258 C   0  0  0  0  0  0  0  0  0  0  0  0
   -3.4002   -0.7254    1.7788 C   0  0  0  0  0  0  0  0  0  0  0  0
    3.2116    1.6246    0.7535 C   0  0  0  0  0  0  0  0  0  0  0  0
    2.5640    2.8720    0.6682 C   0  0  0  0  0  0  0  0  0  0  0  0
    3.3144    4.0505    0.8006 C   0  0  0  0  0  0  0  0  0  0  0  0
    4.7001    3.9932    1.0150 C   0  0  0  0  0  0  0  0  0  0  0  0
    5.3469    2.7485    1.0939 C   0  0  0  0  0  0  0  0  0  0  0  0
    4.6062    1.5659    0.9584 C   0  0  0  0  0  0  0  0  0  0  0  0
    3.3634   -0.9935   -0.3911 C   0  0  0  0  0  0  0  0  0  0  0  0
    3.4001   -0.7256   -1.7788 C   0  0  0  0  0  0  0  0  0  0  0  0
    4.1940   -1.5101   -2.6258 C   0  0  0  0  0  0  0  0  0  0  0  0
    4.9478   -2.5763   -2.1057 C   0  0  0  0  0  0  0  0  0  0  0  0
    4.9124   -2.8504   -0.7300 C   0  0  0  0  0  0  0  0  0  0  0  0
    4.1264   -2.0599    0.1260 C   0  0  0  0  0  0  0  0  0  0  0  0
   -1.8278    0.1687   -2.9476 H   0  0  0  0  0  0  0  0  0  0  0  0
   -3.2989   -0.8326   -2.6862 H   0  0  0  0  0  0  0  0  0  0  0  0
   -1.8799   -2.7421   -1.8532 H   0  0  0  0  0  0  0  0  0  0  0  0
   -1.2070   -2.2121   -3.4347 H   0  0  0  0  0  0  0  0  0  0  0  0
    0.1882   -4.0083   -1.2953 H   0  0  0  0  0  0  0  0  0  0  0  0
    1.5128   -3.2117   -0.3884 H   0  0  0  0  0  0  0  0  0  0  0  0
   -0.1882   -4.0082    1.2955 H   0  0  0  0  0  0  0  0  0  0  0  0
   -1.5128   -3.2117    0.3885 H   0  0  0  0  0  0  0  0  0  0  0  0
    1.8800   -2.7419    1.8532 H   0  0  0  0  0  0  0  0  0  0  0  0
    1.2070   -2.2120    3.4347 H   0  0  0  0  0  0  0  0  0  0  0  0
    3.2989   -0.8324    2.6863 H   0  0  0  0  0  0  0  0  0  0  0  0
    1.8277    0.1688    2.9476 H   0  0  0  0  0  0  0  0  0  0  0  0
   -5.1194    0.5918   -0.9967 H   0  0  0  0  0  0  0  0  0  0  0  0
   -6.4353    2.6978   -1.2522 H   0  0  0  0  0  0  0  0  0  0  0  0
   -5.2827    4.9221   -1.1153 H   0  0  0  0  0  0  0  0  0  0  0  0
   -2.8065    5.0245   -0.7325 H   0  0  0  0  0  0  0  0  0  0  0  0
   -1.4780    2.9024   -0.5053 H   0  0  0  0  0  0  0  0  0  0  0  0
   -4.1227   -2.2778   -1.2049 H   0  0  0  0  0  0  0  0  0  0  0  0
   -5.5054   -3.6805    0.3162 H   0  0  0  0  0  0  0  0  0  0  0  0
   -5.5659   -3.1943    2.7748 H   0  0  0  0  0  0  0  0  0  0  0  0
   -4.2192   -1.2907    3.7041 H   0  0  0  0  0  0  0  0  0  0  0  0
   -2.7898    0.1005    2.1821 H   0  0  0  0  0  0  0  0  0  0  0  0
    1.4781    2.9023    0.5039 H   0  0  0  0  0  0  0  0  0  0  0  0
    2.8065    5.0245    0.7311 H   0  0  0  0  0  0  0  0  0  0  0  0
    5.2824    4.9223    1.1155 H   0  0  0  0  0  0  0  0  0  0  0  0
    6.4350    2.6980    1.2538 H   0  0  0  0  0  0  0  0  0  0  0  0
    5.1192    0.5919    0.9982 H   0  0  0  0  0  0  0  0  0  0  0  0
    2.7894    0.1001   -2.1822 H   0  0  0  0  0  0  0  0  0  0  0  0
    4.2188   -1.2912   -3.7041 H   0  0  0  0  0  0  0  0  0  0  0  0
    5.5659   -3.1944   -2.7747 H   0  0  0  0  0  0  0  0  0  0  0  0
    5.5058   -3.6802   -0.3160 H   0  0  0  0  0  0  0  0  0  0  0  0
    4.1231   -2.2774    1.2050 H   0  0  0  0  0  0  0  0  0  0  0  0
  1  7  1  0  0  0  0
  2  9  1  0  0  0  0
  3 17  1  0  0  0  0
  4 23  1  0  0  0  0
  4 10  1  0  0  0  0
  5  3  1  0  0  0  0
  6  5  1  0  0  0  0
  6 37  1  0  0  0  0
  6  1  1  0  0  0  0
  7 40  1  0  0  0  0
  7  8  1  0  0  0  0
  8 41  1  0  0  0  0
  8  2  1  0  0  0  0
  9 44  1  0  0  0  0
 10  9  1  0  0  0  0
 10 45  1  0  0  0  0
 10 46  1  0  0  0  0
 11 16  1  0  0  0  0
 11  3  1  0  0  0  0
 12 11  2  0  0  0  0
 13 14  2  0  0  0  0
 13 12  1  0  0  0  0
 14 15  1  0  0  0  0
 15 50  1  0  0  0  0
 15 16  2  0  0  0  0
 16 51  1  0  0  0  0
 17 22  1  0  0  0  0
 18 17  2  0  0  0  0
 18 19  1  0  0  0  0
 19 20  2  0  0  0  0
 20 21  1  0  0  0  0
 20 54  1  0  0  0  0
 21 55  1  0  0  0  0
 22 56  1  0  0  0  0
 22 21  2  0  0  0  0
 23 28  1  0  0  0  0
 24 23  2  0  0  0  0
 24 25  1  0  0  0  0
 25 26  2  0  0  0  0
 26 27  1  0  0  0  0
 26 59  1  0  0  0  0
 27 60  1  0  0  0  0
 28 61  1  0  0  0  0
 28 27  2  0  0  0  0
 29 34  1  0  0  0  0
 29  4  1  0  0  0  0
 30 29  2  0  0  0  0
 31 32  2  0  0  0  0
 31 30  1  0  0  0  0
 32 33  1  0  0  0  0
 33 65  1  0  0  0  0
 33 34  2  0  0  0  0
 34 66  1  0  0  0  0
 35  5  1  0  0  0  0
 36  5  1  0  0  0  0
 38  6  1  0  0  0  0
 39  7  1  0  0  0  0
 42  8  1  0  0  0  0
 43  9  1  0  0  0  0
 47 12  1  0  0  0  0
 48 13  1  0  0  0  0
 49 14  1  0  0  0  0
 52 18  1  0  0  0  0
 53 19  1  0  0  0  0
 57 24  1  0  0  0  0
 58 25  1  0  0  0  0
 62 30  1  0  0  0  0
 63 31  1  0  0  0  0
 64 32  1  0  0  0  0
M  END
