1,2
q = 0.0, confidence = 0.92

  3  2  0  0  0  0  0  0  0  0999 V2000
   -0.7828    0.7182    3.0983 Se  0  0  0  0  0  0  0  0  0  0  0  0
    0.9834    0.6547    2.5467 C   0  0  0  0  0  0  0  0  0  0  0  0
    2.4987    0.7096    3.1237 S   0  0  0  0  0  0  0  0  0  0  0  0
  2  1  1  0  0  0  0
  2  3  2  0  0  0  0
M  END
