1,3,45
q = -1.0, confidence = 0.04

 75 80  0  0  1  0  0  0  0  0999 V2000
    2.4726    0.7087    0.8058 P   0  0  0  0  0  0  0  0  0  0  0  0
   -1.9191    0.3100    0.3981 P   0  0  0  0  0  4  0  0  0  0  0  0
   -0.7286   -2.0049   -0.3140 C   0  0  0  0  0  3  0  0  0  0  0  0
   -0.7330   -3.3802   -0.6490 C   0  0  0  0  0  0  0  0  0  0  0  0
    0.2279   -3.9149   -0.6995 H   0  0  0  0  0  0  0  0  0  0  0  0
   -1.9281   -4.0564   -0.9248 C   0  0  0  0  0  0  0  0  0  0  0  0
   -1.9030   -5.1322   -1.1613 H   0  0  0  0  0  0  0  0  0  0  0  0
   -3.1592   -3.3779   -0.9359 C   0  0  0  0  0  0  0  0  0  0  0  0
   -4.0875   -3.9042   -1.2056 H   0  0  0  0  0  0  0  0  0  0  0  0
   -3.2156   -2.0036   -0.6447 C   0  0  0  0  0  0  0  0  0  0  0  0
   -1.9987   -1.3548   -0.2933 C   0  0  0  0  0  0  0  0  0  0  0  0
   -4.5113   -1.2809   -0.7462 C   0  0  0  0  0  0  0  0  0  0  0  0
   -5.6195   -1.6671    0.0385 C   0  0  0  0  0  0  0  0  0  0  0  0
   -5.5039   -2.4944    0.7549 H   0  0  0  0  0  0  0  0  0  0  0  0
   -6.8405   -0.9873   -0.0663 C   0  0  0  0  0  0  0  0  0  0  0  0
   -7.6895   -1.2903    0.5655 H   0  0  0  0  0  0  0  0  0  0  0  0
   -6.9812    0.0801   -0.9688 C   0  0  0  0  0  0  0  0  0  0  0  0
   -7.9423    0.6100   -1.0534 H   0  0  0  0  0  0  0  0  0  0  0  0
   -5.8916    0.4612   -1.7677 C   0  0  0  0  0  0  0  0  0  0  0  0
   -5.9958    1.2863   -2.4891 H   0  0  0  0  0  0  0  0  0  0  0  0
   -4.6658   -0.2118   -1.6562 C   0  0  0  0  0  0  0  0  0  0  0  0
   -3.8178    0.0802   -2.2926 H   0  0  0  0  0  0  0  0  0  0  0  0
   -1.8322    1.6130   -0.8756 C   0  0  0  0  0  0  0  0  0  0  0  0
   -2.1431    2.9591   -0.5928 C   0  0  0  0  0  0  0  0  0  0  0  0
   -2.5651    3.2433    0.3816 H   0  0  0  0  0  0  0  0  0  0  0  0
   -1.8973    3.9472   -1.5577 C   0  0  0  0  0  0  0  0  0  0  0  0
   -2.1494    4.9959   -1.3383 H   0  0  0  0  0  0  0  0  0  0  0  0
   -1.3176    3.6038   -2.7893 C   0  0  0  0  0  0  0  0  0  0  0  0
   -1.1117    4.3844   -3.5370 H   0  0  0  0  0  0  0  0  0  0  0  0
   -0.9842    2.2675   -3.0601 C   0  0  0  0  0  0  0  0  0  0  0  0
   -0.5072    1.9972   -4.0136 H   0  0  0  0  0  0  0  0  0  0  0  0
   -1.2412    1.2699   -2.1097 C   0  0  0  0  0  0  0  0  0  0  0  0
   -0.9595    0.2243   -2.3085 H   0  0  0  0  0  0  0  0  0  0  0  0
   -3.3402    0.5582    1.5171 C   0  0  0  0  0  0  0  0  0  0  0  0
   -4.4421    1.3888    1.2389 C   0  0  0  0  0  0  0  0  0  0  0  0
   -4.4895    1.9516    0.2974 H   0  0  0  0  0  0  0  0  0  0  0  0
   -5.5077    1.4588    2.1478 C   0  0  0  0  0  0  0  0  0  0  0  0
   -6.3729    2.0987    1.9190 H   0  0  0  0  0  0  0  0  0  0  0  0
   -5.4809    0.7024    3.3295 C   0  0  0  0  0  0  0  0  0  0  0  0
   -6.3216    0.7576    4.0376 H   0  0  0  0  0  0  0  0  0  0  0  0
   -4.3839   -0.1311    3.6058 C   0  0  0  0  0  0  0  0  0  0  0  0
   -4.3619   -0.7289    4.5293 H   0  0  0  0  0  0  0  0  0  0  0  0
   -3.3135   -0.2044    2.7053 C   0  0  0  0  0  0  0  0  0  0  0  0
   -2.4502   -0.8547    2.9175 H   0  0  0  0  0  0  0  0  0  0  0  0
   -0.2898    0.3661    1.1640 C   0  0  0  0  0  2  0  0  0  0  0  0
    0.1257    1.3410    2.0354 C   0  0  2  0  0  3  0  0  0  0  0  0
   -0.7199    2.3861    2.7111 C   0  0  0  0  0  0  0  0  0  0  0  0
   -1.8035    2.2357    2.5562 H   0  0  0  0  0  0  0  0  0  0  0  0
   -0.4576    3.4035    2.3418 H   0  0  0  0  0  0  0  0  0  0  0  0
   -0.5350    2.3987    3.8072 H   0  0  0  0  0  0  0  0  0  0  0  0
    1.6179    1.4170    2.3047 C   0  0  0  0  0  0  0  0  0  0  0  0
    1.9159    0.7584    3.1505 H   0  0  0  0  0  0  0  0  0  0  0  0
    1.9627    2.4415    2.5609 H   0  0  0  0  0  0  0  0  0  0  0  0
    4.2113    0.4523    1.3149 C   0  0  0  0  0  0  0  0  0  0  0  0
    5.1260    1.5237    1.3767 C   0  0  0  0  0  0  0  0  0  0  0  0
    4.8121    2.5320    1.0642 H   0  0  0  0  0  0  0  0  0  0  0  0
    6.4362    1.2999    1.8236 C   0  0  0  0  0  0  0  0  0  0  0  0
    7.1499    2.1368    1.8689 H   0  0  0  0  0  0  0  0  0  0  0  0
    6.8379    0.0090    2.2067 C   0  0  0  0  0  0  0  0  0  0  0  0
    7.8686   -0.1654    2.5518 H   0  0  0  0  0  0  0  0  0  0  0  0
    5.9303   -1.0599    2.1380 C   0  0  0  0  0  0  0  0  0  0  0  0
    6.2482   -2.0745    2.4217 H   0  0  0  0  0  0  0  0  0  0  0  0
    4.6186   -0.8439    1.6888 C   0  0  0  0  0  0  0  0  0  0  0  0
    3.9088   -1.6806    1.5949 H   0  0  0  0  0  0  0  0  0  0  0  0
    2.5268    2.0635   -0.4294 C   0  0  0  0  0  0  0  0  0  0  0  0
    1.8650    3.2943   -0.2572 C   0  0  0  0  0  0  0  0  0  0  0  0
    1.3377    3.5178    0.6811 H   0  0  0  0  0  0  0  0  0  0  0  0
    1.8599    4.2435   -1.2919 C   0  0  0  0  0  0  0  0  0  0  0  0
    1.3336    5.1996   -1.1498 H   0  0  0  0  0  0  0  0  0  0  0  0
    2.5152    3.9721   -2.5019 C   0  0  0  0  0  0  0  0  0  0  0  0
    2.5104    4.7179   -3.3116 H   0  0  0  0  0  0  0  0  0  0  0  0
    3.1707    2.7414   -2.6806 C   0  0  0  0  0  0  0  0  0  0  0  0
    3.6775    2.5178   -3.6318 H   0  0  0  0  0  0  0  0  0  0  0  0
    3.1716    1.7866   -1.6555 C   0  0  0  0  0  0  0  0  0  0  0  0
    3.6506    0.8053   -1.8078 H   0  0  0  0  0  0  0  0  0  0  0  0
  1 54  1  0  0  0  0
  1 51  1  0  0  0  0
  2 45  1  0  0  0  0
  2 34  1  0  0  0  0
  3 11  1  0  0  0  0
  4  3  2  0  0  0  0
  5  4  1  0  0  0  0
  6  4  1  0  0  0  0
  7  6  1  0  0  0  0
  8  6  2  0  0  0  0
  8 10  1  0  0  0  0
  9  8  1  0  0  0  0
 10 11  2  0  0  0  0
 11  2  1  0  0  0  0
 12 10  1  0  0  0  0
 12 13  1  0  0  0  0
 13 14  1  0  0  0  0
 15 13  2  0  0  0  0
 15 16  1  0  0  0  0
 17 15  1  0  0  0  0
 18 17  1  0  0  0  0
 19 21  1  0  0  0  0
 19 17  2  0  0  0  0
 20 19  1  0  0  0  0
 21 12  2  0  0  0  0
 22 21  1  0  0  0  0
 23 24  1  0  0  0  0
 23  2  1  0  0  0  0
 24 25  1  0  0  0  0
 26 27  1  0  0  0  0
 26 24  2  0  0  0  0
 28 26  1  0  0  0  0
 29 28  1  0  0  0  0
 30 28  2  0  0  0  0
 30 32  1  0  0  0  0
 31 30  1  0  0  0  0
 32 23  2  0  0  0  0
 33 32  1  0  0  0  0
 34 43  1  0  0  0  0
 35 34  2  0  0  0  0
 35 37  1  0  0  0  0
 36 35  1  0  0  0  0
 37 39  2  0  0  0  0
 38 37  1  0  0  0  0
 39 41  1  0  0  0  0
 39 40  1  0  0  0  0
 41 42  1  0  0  0  0
 43 44  1  0  0  0  0
 43 41  2  0  0  0  0
 46 45  1  6  0  0  0
 46 51  1  0  0  0  0
 46 47  1  0  0  0  0
 47 50  1  0  0  0  0
 48 47  1  0  0  0  0
 49 47  1  0  0  0  0
 51 53  1  0  0  0  0
 51 52  1  0  0  0  0
 54 55  2  0  0  0  0
 54 63  1  0  0  0  0
 55 57  1  0  0  0  0
 56 55  1  0  0  0  0
 57 58  1  0  0  0  0
 57 59  2  0  0  0  0
 59 60  1  0  0  0  0
 61 59  1  0  0  0  0
 61 62  1  0  0  0  0
 63 61  2  0  0  0  0
 64 63  1  0  0  0  0
 65 66  1  0  0  0  0
 65  1  1  0  0  0  0
 66 67  1  0  0  0  0
 68 69  1  0  0  0  0
 68 66  2  0  0  0  0
 70 68  1  0  0  0  0
 71 70  1  0  0  0  0
 72 70  2  0  0  0  0
 72 74  1  0  0  0  0
 73 72  1  0  0  0  0
 74 65  2  0  0  0  0
 75 74  1  0  0  0  0
M  END
