1,28,53
q = 0.0, confidence = 0.616

 55 57  0  0  1  0  0  0  0  0999 V2000
   -1.8387   -0.4815    0.0054 P   0  0  0  0  0  0  0  0  0  0  0  0
   -2.6298   -1.3754   -1.5132 C   0  0  0  0  0  0  0  0  0  0  0  0
   -4.0336   -1.9736   -1.3314 C   0  0  0  0  0  0  0  0  0  0  0  0
   -4.8142   -1.2173   -1.1381 H   0  0  0  0  0  0  0  0  0  0  0  0
   -4.0664   -2.7273   -0.5209 H   0  0  0  0  0  0  0  0  0  0  0  0
   -4.3185   -2.4944   -2.2706 H   0  0  0  0  0  0  0  0  0  0  0  0
   -2.6160   -0.3450   -2.6566 C   0  0  0  0  0  0  0  0  0  0  0  0
   -2.8722   -0.8535   -3.6104 H   0  0  0  0  0  0  0  0  0  0  0  0
   -1.6115    0.1110   -2.7720 H   0  0  0  0  0  0  0  0  0  0  0  0
   -3.3429    0.4730   -2.4963 H   0  0  0  0  0  0  0  0  0  0  0  0
   -1.6720   -2.5260   -1.8835 C   0  0  0  0  0  0  0  0  0  0  0  0
   -2.0616   -3.0410   -2.7875 H   0  0  0  0  0  0  0  0  0  0  0  0
   -1.5882   -3.2772   -1.0742 H   0  0  0  0  0  0  0  0  0  0  0  0
   -0.6550   -2.1488   -2.1038 H   0  0  0  0  0  0  0  0  0  0  0  0
   -2.4604   -1.1314    1.6993 C   0  0  0  0  0  0  0  0  0  0  0  0
   -3.9400   -0.8931    2.0268 C   0  0  0  0  0  0  0  0  0  0  0  0
   -4.6271   -1.3921    1.3178 H   0  0  0  0  0  0  0  0  0  0  0  0
   -4.1802    0.1857    2.0619 H   0  0  0  0  0  0  0  0  0  0  0  0
   -4.1502   -1.3094    3.0355 H   0  0  0  0  0  0  0  0  0  0  0  0
   -1.6008   -0.3771    2.7343 C   0  0  0  0  0  0  0  0  0  0  0  0
   -1.8604   -0.7345    3.7536 H   0  0  0  0  0  0  0  0  0  0  0  0
   -1.7837    0.7154    2.6954 H   0  0  0  0  0  0  0  0  0  0  0  0
   -0.5177   -0.5416    2.5610 H   0  0  0  0  0  0  0  0  0  0  0  0
   -2.1413   -2.6352    1.7664 C   0  0  0  0  0  0  0  0  0  0  0  0
   -1.0759   -2.8331    1.5426 H   0  0  0  0  0  0  0  0  0  0  0  0
   -2.7630   -3.2297    1.0679 H   0  0  0  0  0  0  0  0  0  0  0  0
   -2.3505   -3.0058    2.7926 H   0  0  0  0  0  0  0  0  0  0  0  0
    0.2995    1.4852   -0.0177 C   0  0  0  0  0  3  0  0  0  0  0  0
    1.4755    2.2640    0.0113 C   0  0  0  0  0  0  0  0  0  0  0  0
    1.3962    3.6829    0.0559 C   0  0  0  0  0  0  0  0  0  0  0  0
    2.3184    4.2832    0.0839 H   0  0  0  0  0  0  0  0  0  0  0  0
    0.1655    4.3194    0.0604 C   0  0  0  0  0  0  0  0  0  0  0  0
    0.1022    5.4183    0.0883 H   0  0  0  0  0  0  0  0  0  0  0  0
   -1.0426    3.5663    0.0199 C   0  0  0  0  0  0  0  0  0  0  0  0
   -2.3190    4.1891   -0.0055 C   0  0  0  0  0  0  0  0  0  0  0  0
   -2.3769    5.2889    0.0217 H   0  0  0  0  0  0  0  0  0  0  0  0
   -3.4713    3.4300   -0.0786 C   0  0  0  0  0  0  0  0  0  0  0  0
   -4.4524    3.9297   -0.1165 H   0  0  0  0  0  0  0  0  0  0  0  0
   -3.4432    2.0013   -0.1127 C   0  0  0  0  0  0  0  0  0  0  0  0
   -2.2012    1.3480   -0.0520 C   0  0  1  0  0  3  0  0  0  0  0  0
   -0.9809    2.1230   -0.0107 C   0  0  0  0  0  0  0  0  0  0  0  0
   -4.7819    1.3295   -0.2734 C   0  0  0  0  0  0  0  0  0  0  0  0
   -5.1818    1.5012   -1.2962 H   0  0  0  0  0  0  0  0  0  0  0  0
   -5.5261    1.7527    0.4318 H   0  0  0  0  0  0  0  0  0  0  0  0
   -4.7407    0.2448   -0.1067 H   0  0  0  0  0  0  0  0  0  0  0  0
    2.7246    1.4850   -0.0105 C   0  0  0  0  0  0  0  0  0  0  0  0
    4.0059    2.0693   -0.0011 C   0  0  0  0  0  3  0  0  0  0  0  0
    4.1538    3.1577    0.0296 H   0  0  0  0  0  0  0  0  0  0  0  0
    5.1275    1.2365   -0.0351 C   0  0  0  0  0  0  0  0  0  0  0  0
    5.0036   -0.1533   -0.0804 C   0  0  0  0  0  0  0  0  0  0  0  0
    5.8883   -0.8032   -0.1128 H   0  0  0  0  0  0  0  0  0  0  0  0
    3.7068   -0.6972   -0.0863 C   0  0  0  0  0  0  0  0  0  0  0  0
    2.5331    0.0646   -0.0490 C   0  0  0  0  0  3  0  0  0  0  0  0
    6.3619    1.7850   -0.0272 F   0  0  0  0  0  0  0  0  0  0  0  0
    3.6556   -2.0604   -0.1381 F   0  0  0  0  0  0  0  0  0  0  0  0
  1 15  1  0  0  0  0
  2  3  1  0  0  0  0
  2  1  1  0  0  0  0
  3  4  1  0  0  0  0
  3  5  1  0  0  0  0
  6  3  1  0  0  0  0
  7 10  1  0  0  0  0
  7  2  1  0  0  0  0
  8  7  1  0  0  0  0
  9  7  1  0  0  0  0
 11  2  1  0  0  0  0
 11 13  1  0  0  0  0
 12 11  1  0  0  0  0
 14 11  1  0  0  0  0
 15 24  1  0  0  0  0
 15 16  1  0  0  0  0
 15 20  1  0  0  0  0
 16 18  1  0  0  0  0
 16 19  1  0  0  0  0
 17 16  1  0  0  0  0
 20 21  1  0  0  0  0
 22 20  1  0  0  0  0
 23 20  1  0  0  0  0
 24 27  1  0  0  0  0
 25 24  1  0  0  0  0
 26 24  1  0  0  0  0
 28 41  2  0  0  0  0
 28 29  1  0  0  0  0
 29 30  1  0  0  0  0
 30 32  2  0  0  0  0
 30 31  1  0  0  0  0
 32 33  1  0  0  0  0
 34 32  1  0  0  0  0
 35 34  2  0  0  0  0
 35 36  1  0  0  0  0
 37 35  1  0  0  0  0
 38 37  1  0  0  0  0
 39 37  2  0  0  0  0
 39 40  1  0  0  0  0
 40 41  1  0  0  0  0
 40  1  1  1  0  0  0
 41 34  1  0  0  0  0
 42 39  1  0  0  0  0
 42 45  1  0  0  0  0
 42 44  1  0  0  0  0
 43 42  1  0  0  0  0
 46 47  1  0  0  0  0
 46 29  2  0  0  0  0
 47 48  1  0  0  0  0
 49 54  1  0  0  0  0
 49 47  1  0  0  0  0
 50 49  2  0  0  0  0
 51 50  1  0  0  0  0
 52 50  1  0  0  0  0
 52 53  2  0  0  0  0
 53 46  1  0  0  0  0
 55 52  1  0  0  0  0
M  END
