1,5,15
 OpenBabel05122313063D

 35 37  0  0  0  0  0  0  0  0999 V2000
   -0.5861    0.2170    1.6983 P   0  0  0  0  0  0  0  0  0  0  0  0
   -1.0138    1.7838    2.0355 O   0  0  0  0  0  0  0  0  0  0  0  0
   -1.7586   -0.7152    2.3810 O   0  0  0  0  0  0  0  0  0  0  0  0
    0.5956   -0.0506    2.8180 O   0  0  0  0  0  0  0  0  0  0  0  0
   -1.5854    1.7085   -0.3364 C   0  0  0  0  0  3  0  0  0  0  0  0
   -2.2070    2.3667   -1.4187 C   0  0  0  0  0  0  0  0  0  0  0  0
   -2.2160    1.8614   -2.3964 H   0  0  0  0  0  0  0  0  0  0  0  0
   -2.7907    3.6375   -1.2653 C   0  0  0  0  0  0  0  0  0  0  0  0
   -3.2649    4.1243   -2.1317 H   0  0  0  0  0  0  0  0  0  0  0  0
   -2.7793    4.2825   -0.0184 C   0  0  0  0  0  0  0  0  0  0  0  0
   -3.2393    5.2751    0.1025 H   0  0  0  0  0  0  0  0  0  0  0  0
   -2.1858    3.6522    1.0875 C   0  0  0  0  0  0  0  0  0  0  0  0
   -2.1700    4.1177    2.0836 H   0  0  0  0  0  0  0  0  0  0  0  0
   -1.6090    2.3902    0.9094 C   0  0  0  0  0  0  0  0  0  0  0  0
   -2.2303   -1.1671    0.0302 C   0  0  0  0  0  3  0  0  0  0  0  0
   -3.0670   -1.8258   -0.8958 C   0  0  0  0  0  0  0  0  0  0  0  0
   -2.8556   -1.6980   -1.9683 H   0  0  0  0  0  0  0  0  0  0  0  0
   -4.1457   -2.6226   -0.4707 C   0  0  0  0  0  0  0  0  0  0  0  0
   -4.7787   -3.1223   -1.2204 H   0  0  0  0  0  0  0  0  0  0  0  0
   -4.4242   -2.7761    0.8965 C   0  0  0  0  0  0  0  0  0  0  0  0
   -5.2704   -3.3962    1.2294 H   0  0  0  0  0  0  0  0  0  0  0  0
   -3.6208   -2.1283    1.8489 C   0  0  0  0  0  0  0  0  0  0  0  0
   -3.8102   -2.2173    2.9283 H   0  0  0  0  0  0  0  0  0  0  0  0
   -2.5521   -1.3444    1.4015 C   0  0  0  0  0  0  0  0  0  0  0  0
    2.3426    1.4923    2.1221 C   0  0  0  0  0  0  0  0  0  0  0  0
    1.6246    2.3231    2.1769 H   0  0  0  0  0  0  0  0  0  0  0  0
    3.6775    1.6950    1.7419 C   0  0  0  0  0  0  0  0  0  0  0  0
    4.0180    2.7098    1.4869 H   0  0  0  0  0  0  0  0  0  0  0  0
    4.5735    0.6148    1.6840 C   0  0  0  0  0  0  0  0  0  0  0  0
    5.6197    0.7816    1.3874 H   0  0  0  0  0  0  0  0  0  0  0  0
    4.1306   -0.6775    2.0112 C   0  0  0  0  0  0  0  0  0  0  0  0
    4.8273   -1.5286    1.9699 H   0  0  0  0  0  0  0  0  0  0  0  0
    2.7964   -0.8954    2.3853 C   0  0  0  0  0  0  0  0  0  0  0  0
    2.4201   -1.8982    2.6329 H   0  0  0  0  0  0  0  0  0  0  0  0
    1.9125    0.1933    2.4389 C   0  0  0  0  0  0  0  0  0  0  0  0
  1  2  1  0  0  0  0
  1  3  1  0  0  0  0
  1  4  1  0  0  0  0
  5 14  1  0  0  0  0
  6  8  1  0  0  0  0
  6  5  2  0  0  0  0
  7  6  1  0  0  0  0
  8 10  2  0  0  0  0
  9  8  1  0  0  0  0
 10 11  1  0  0  0  0
 10 12  1  0  0  0  0
 12 13  1  0  0  0  0
 14 12  2  0  0  0  0
 14  2  1  0  0  0  0
 15 24  1  0  0  0  0
 16 18  1  0  0  0  0
 16 15  2  0  0  0  0
 17 16  1  0  0  0  0
 18 20  2  0  0  0  0
 19 18  1  0  0  0  0
 20 21  1  0  0  0  0
 20 22  1  0  0  0  0
 22 23  1  0  0  0  0
 24 22  2  0  0  0  0
 24  3  1  0  0  0  0
 25 26  1  0  0  0  0
 25 35  1  0  0  0  0
 27 25  2  0  0  0  0
 28 27  1  0  0  0  0
 29 27  1  0  0  0  0
 29 31  2  0  0  0  0
 30 29  1  0  0  0  0
 31 33  1  0  0  0  0
 32 31  1  0  0  0  0
 33 35  2  0  0  0  0
 33 34  1  0  0  0  0
 35  4  1  0  0  0  0
M  END
