1,40,54
 OpenBabel05122313063D

 59 61  0  0  1  0  0  0  0  0999 V2000
   -1.8833   -0.6368    0.0071 P   0  0  0  0  0  0  0  0  0  0  0  0
   -2.4276   -1.3484    1.7020 C   0  0  0  0  0  0  0  0  0  0  0  0
   -3.9243   -1.2850    2.0340 C   0  0  0  0  0  0  0  0  0  0  0  0
   -4.5511   -1.8570    1.3243 H   0  0  0  0  0  0  0  0  0  0  0  0
   -4.2885   -0.2415    2.0740 H   0  0  0  0  0  0  0  0  0  0  0  0
   -4.0829   -1.7264    3.0416 H   0  0  0  0  0  0  0  0  0  0  0  0
   -1.9344   -2.8047    1.7709 C   0  0  0  0  0  0  0  0  0  0  0  0
   -2.0948   -3.1959    2.7984 H   0  0  0  0  0  0  0  0  0  0  0  0
   -0.8534   -2.8756    1.5430 H   0  0  0  0  0  0  0  0  0  0  0  0
   -2.4845   -3.4693    1.0752 H   0  0  0  0  0  0  0  0  0  0  0  0
   -1.6599   -0.4979    2.7346 C   0  0  0  0  0  0  0  0  0  0  0  0
   -1.8762   -0.8797    3.7553 H   0  0  0  0  0  0  0  0  0  0  0  0
   -1.9667    0.5663    2.6919 H   0  0  0  0  0  0  0  0  0  0  0  0
   -0.5653   -0.5377    2.5604 H   0  0  0  0  0  0  0  0  0  0  0  0
   -2.5794   -1.6146   -1.5055 C   0  0  0  0  0  0  0  0  0  0  0  0
   -1.5033   -2.6582   -1.8707 C   0  0  0  0  0  0  0  0  0  0  0  0
   -1.8362   -3.2210   -2.7691 H   0  0  0  0  0  0  0  0  0  0  0  0
   -1.3357   -3.3883   -1.0548 H   0  0  0  0  0  0  0  0  0  0  0  0
   -0.5342   -2.1733   -2.0967 H   0  0  0  0  0  0  0  0  0  0  0  0
   -3.9117   -2.3576   -1.3219 C   0  0  0  0  0  0  0  0  0  0  0  0
   -4.7664   -1.6869   -1.1257 H   0  0  0  0  0  0  0  0  0  0  0  0
   -3.8636   -3.1107   -0.5113 H   0  0  0  0  0  0  0  0  0  0  0  0
   -4.1432   -2.9058   -2.2605 H   0  0  0  0  0  0  0  0  0  0  0  0
   -2.6746   -0.5935   -2.6532 C   0  0  0  0  0  0  0  0  0  0  0  0
   -2.8739   -1.1295   -3.6058 H   0  0  0  0  0  0  0  0  0  0  0  0
   -1.7246   -0.0326   -2.7685 H   0  0  0  0  0  0  0  0  0  0  0  0
   -3.4848    0.1425   -2.4954 H   0  0  0  0  0  0  0  0  0  0  0  0
   -2.4313    1.1457   -0.0527 C   0  0  1  0  0  3  0  0  0  0  0  0
   -3.7340    1.6673   -0.1143 C   0  0  0  0  0  0  0  0  0  0  0  0
   -3.9111    3.0854   -0.0903 C   0  0  0  0  0  0  0  0  0  0  0  0
   -4.9388    3.4805   -0.1298 H   0  0  0  0  0  0  0  0  0  0  0  0
   -2.8425    3.9601   -0.0251 C   0  0  0  0  0  0  0  0  0  0  0  0
   -3.0141    5.0483   -0.0061 H   0  0  0  0  0  0  0  0  0  0  0  0
   -1.5087    3.4739    0.0036 C   0  0  0  0  0  0  0  0  0  0  0  0
   -0.3841    4.3474    0.0371 C   0  0  0  0  0  0  0  0  0  0  0  0
   -0.5614    5.4341    0.0566 H   0  0  0  0  0  0  0  0  0  0  0  0
    0.9072    3.8432    0.0365 C   0  0  0  0  0  0  0  0  0  0  0  0
    1.7621    4.5369    0.0589 H   0  0  0  0  0  0  0  0  0  0  0  0
    1.1374    2.4399    0.0034 C   0  0  0  0  0  0  0  0  0  0  0  0
    0.0427    1.5452   -0.0187 C   0  0  0  0  0  3  0  0  0  0  0  0
   -1.2959    2.0437   -0.0167 C   0  0  0  0  0  0  0  0  0  0  0  0
   -4.9955    0.8573   -0.2650 C   0  0  0  0  0  0  0  0  0  0  0  0
   -4.8400   -0.2157   -0.0894 H   0  0  0  0  0  0  0  0  0  0  0  0
   -5.4150    0.9768   -1.2875 H   0  0  0  0  0  0  0  0  0  0  0  0
   -5.7781    1.2057    0.4397 H   0  0  0  0  0  0  0  0  0  0  0  0
    2.4545    1.7898   -0.0098 C   0  0  0  0  0  0  0  0  0  0  0  0
    3.6945    2.4471   -0.0018 C   0  0  0  0  0  3  0  0  0  0  0  0
    3.7381    3.5478    0.0177 H   0  0  0  0  0  0  0  0  0  0  0  0
    4.9030    1.7275   -0.0185 C   0  0  0  0  0  0  0  0  0  0  0  0
    5.8572    2.2708   -0.0125 H   0  0  0  0  0  0  0  0  0  0  0  0
    4.8597    0.3210   -0.0432 C   0  0  0  0  0  0  0  0  0  0  0  0
    3.6125   -0.3495   -0.0496 C   0  0  0  0  0  0  0  0  0  0  0  0
    3.6454   -1.4497   -0.0692 H   0  0  0  0  0  0  0  0  0  0  0  0
    2.4066    0.3558   -0.0340 C   0  0  0  0  0  3  0  0  0  0  0  0
    5.9662   -0.4863   -0.0627 O   0  0  0  0  0  0  0  0  0  0  0  0
    7.2365    0.1279   -0.0607 C   0  0  0  0  0  0  0  0  0  0  0  0
    7.3898    0.7768   -0.9536 H   0  0  0  0  0  0  0  0  0  0  0  0
    7.9843   -0.6877   -0.0796 H   0  0  0  0  0  0  0  0  0  0  0  0
    7.4020    0.7462    0.8515 H   0  0  0  0  0  0  0  0  0  0  0  0
  1  2  1  0  0  0  0
  2  7  1  0  0  0  0
  2  3  1  0  0  0  0
  2 11  1  0  0  0  0
  3  5  1  0  0  0  0
  3  6  1  0  0  0  0
  4  3  1  0  0  0  0
  7  8  1  0  0  0  0
  9  7  1  0  0  0  0
 10  7  1  0  0  0  0
 11 12  1  0  0  0  0
 13 11  1  0  0  0  0
 14 11  1  0  0  0  0
 15 20  1  0  0  0  0
 15  1  1  0  0  0  0
 16 15  1  0  0  0  0
 16 18  1  0  0  0  0
 17 16  1  0  0  0  0
 19 16  1  0  0  0  0
 20 21  1  0  0  0  0
 20 22  1  0  0  0  0
 23 20  1  0  0  0  0
 24 27  1  0  0  0  0
 24 15  1  0  0  0  0
 25 24  1  0  0  0  0
 26 24  1  0  0  0  0
 28 41  1  0  0  0  0
 28  1  1  1  0  0  0
 29 30  2  0  0  0  0
 29 28  1  0  0  0  0
 30 32  1  0  0  0  0
 31 30  1  0  0  0  0
 32 33  1  0  0  0  0
 32 34  2  0  0  0  0
 34 35  1  0  0  0  0
 35 36  1  0  0  0  0
 37 35  2  0  0  0  0
 37 38  1  0  0  0  0
 39 37  1  0  0  0  0
 40 41  2  0  0  0  0
 40 39  1  0  0  0  0
 41 34  1  0  0  0  0
 42 29  1  0  0  0  0
 42 43  1  0  0  0  0
 42 45  1  0  0  0  0
 44 42  1  0  0  0  0
 46 47  1  0  0  0  0
 46 39  2  0  0  0  0
 47 48  1  0  0  0  0
 49 50  1  0  0  0  0
 49 47  1  0  0  0  0
 51 49  2  0  0  0  0
 52 51  1  0  0  0  0
 52 54  2  0  0  0  0
 53 52  1  0  0  0  0
 54 46  1  0  0  0  0
 55 56  1  0  0  0  0
 55 51  1  0  0  0  0
 56 59  1  0  0  0  0
 57 56  1  0  0  0  0
 58 56  1  0  0  0  0
M  END
