1,2,5
 OpenBabel05122313063D

 42 42  0  0  1  0  0  0  0  0999 V2000
    0.7125    0.0241   -0.1877 P   0  0  0  0  0  0  0  0  0  0  0  0
   -1.9996    0.4689   -1.2728 C   0  0  2  0  0  3  0  0  0  0  0  0
   -2.6524    1.2513   -0.2556 C   0  0  0  0  0  3  0  0  0  0  0  0
   -2.5914    2.3407   -0.1453 H   0  0  0  0  0  0  0  0  0  0  0  0
   -3.3101    0.3391    0.6172 C   0  0  0  0  0  3  0  0  0  0  0  0
   -3.8709    0.5999    1.5233 H   0  0  0  0  0  0  0  0  0  0  0  0
   -3.1769   -1.0024    0.0710 C   0  0  0  0  0  0  0  0  0  0  0  0
   -3.6152   -1.9116    0.5000 H   0  0  0  0  0  0  0  0  0  0  0  0
   -2.3949   -0.9169   -1.1059 C   0  0  0  0  0  0  0  0  0  0  0  0
   -2.1047   -1.7498   -1.7582 H   0  0  0  0  0  0  0  0  0  0  0  0
   -0.9737    0.9699   -2.2619 C   0  0  0  0  0  0  0  0  0  0  0  0
   -0.8890    2.0694   -2.1648 H   0  0  0  0  0  0  0  0  0  0  0  0
   -1.3011    0.7718   -3.3064 H   0  0  0  0  0  0  0  0  0  0  0  0
    0.3969    0.2996   -2.0281 C   0  0  0  0  0  0  0  0  0  0  0  0
    1.2311    0.8386   -2.5257 H   0  0  0  0  0  0  0  0  0  0  0  0
    0.3816   -0.7219   -2.4600 H   0  0  0  0  0  0  0  0  0  0  0  0
    1.7067    1.5584    0.3833 C   0  0  0  0  0  0  0  0  0  0  0  0
    0.8904    2.7834   -0.0702 C   0  0  0  0  0  0  0  0  0  0  0  0
    0.9116    2.9185   -1.1695 H   0  0  0  0  0  0  0  0  0  0  0  0
    1.3238    3.6990    0.3852 H   0  0  0  0  0  0  0  0  0  0  0  0
   -0.1656    2.7007    0.2575 H   0  0  0  0  0  0  0  0  0  0  0  0
    3.1209    1.6481   -0.2066 C   0  0  0  0  0  0  0  0  0  0  0  0
    3.1187    1.5997   -1.3145 H   0  0  0  0  0  0  0  0  0  0  0  0
    3.7899    0.8538    0.1761 H   0  0  0  0  0  0  0  0  0  0  0  0
    3.5746    2.6221    0.0777 H   0  0  0  0  0  0  0  0  0  0  0  0
    1.7565    1.5643    1.9215 C   0  0  0  0  0  0  0  0  0  0  0  0
    0.7357    1.5190    2.3461 H   0  0  0  0  0  0  0  0  0  0  0  0
    2.2392    2.5028    2.2684 H   0  0  0  0  0  0  0  0  0  0  0  0
    2.3342    0.7172    2.3350 H   0  0  0  0  0  0  0  0  0  0  0  0
    1.8280   -1.5408   -0.1923 C   0  0  0  0  0  0  0  0  0  0  0  0
    2.8638   -1.5602   -1.3301 C   0  0  0  0  0  0  0  0  0  0  0  0
    2.3929   -1.5079   -2.3309 H   0  0  0  0  0  0  0  0  0  0  0  0
    3.4270   -2.5174   -1.2872 H   0  0  0  0  0  0  0  0  0  0  0  0
    3.6015   -0.7410   -1.2538 H   0  0  0  0  0  0  0  0  0  0  0  0
    2.5414   -1.6985    1.1610 C   0  0  0  0  0  0  0  0  0  0  0  0
    1.8299   -1.6624    2.0085 H   0  0  0  0  0  0  0  0  0  0  0  0
    3.3179   -0.9260    1.3217 H   0  0  0  0  0  0  0  0  0  0  0  0
    3.0492   -2.6862    1.1909 H   0  0  0  0  0  0  0  0  0  0  0  0
    0.8530   -2.7202   -0.3744 C   0  0  0  0  0  0  0  0  0  0  0  0
    0.3305   -2.6809   -1.3516 H   0  0  0  0  0  0  0  0  0  0  0  0
    0.0765   -2.7219    0.4154 H   0  0  0  0  0  0  0  0  0  0  0  0
    1.4180   -3.6762   -0.3354 H   0  0  0  0  0  0  0  0  0  0  0  0
  1 17  1  0  0  0  0
  2 11  1  1  0  0  0
  2  9  1  0  0  0  0
  2  3  1  0  0  0  0
  3  4  1  0  0  0  0
  3  5  1  0  0  0  0
  5  6  1  0  0  0  0
  7  8  1  0  0  0  0
  7  5  1  0  0  0  0
  9  7  2  0  0  0  0
 10  9  1  0  0  0  0
 11 12  1  0  0  0  0
 11 14  1  0  0  0  0
 13 11  1  0  0  0  0
 14  1  1  0  0  0  0
 15 14  1  0  0  0  0
 16 14  1  0  0  0  0
 17 26  1  0  0  0  0
 18 21  1  0  0  0  0
 18 17  1  0  0  0  0
 18 20  1  0  0  0  0
 19 18  1  0  0  0  0
 22 25  1  0  0  0  0
 22 24  1  0  0  0  0
 22 17  1  0  0  0  0
 23 22  1  0  0  0  0
 26 28  1  0  0  0  0
 26 29  1  0  0  0  0
 26 27  1  0  0  0  0
 30  1  1  0  0  0  0
 30 35  1  0  0  0  0
 31 33  1  0  0  0  0
 31 34  1  0  0  0  0
 31 30  1  0  0  0  0
 32 31  1  0  0  0  0
 35 38  1  0  0  0  0
 35 37  1  0  0  0  0
 35 36  1  0  0  0  0
 39 42  1  0  0  0  0
 39 30  1  0  0  0  0
 39 41  1  0  0  0  0
 40 39  1  0  0  0  0
M  END
