1,3,45
 OpenBabel05122313063D

 53 53  0  0  0  0  0  0  0  0999 V2000
    2.0059    0.2773   -0.0249 P   0  0  0  0  0  0  0  0  0  0  0  0
   -3.4611   -0.4012   -0.0306 N   0  0  0  0  0  0  0  0  0  0  0  0
   -2.2674    0.1432    0.0368 C   0  0  0  0  0  2  0  0  0  0  0  0
   -3.5942   -1.8683    0.0942 C   0  0  0  0  0  0  0  0  0  0  0  0
   -4.5188   -2.0727    0.6739 H   0  0  0  0  0  0  0  0  0  0  0  0
   -2.7171   -2.2302    0.6675 H   0  0  0  0  0  0  0  0  0  0  0  0
   -3.6178   -2.5576   -1.2662 C   0  0  0  0  0  0  0  0  0  0  0  0
   -4.4485   -2.2033   -1.9112 H   0  0  0  0  0  0  0  0  0  0  0  0
   -3.7353   -3.6498   -1.1249 H   0  0  0  0  0  0  0  0  0  0  0  0
   -2.6544   -2.3889   -1.7859 H   0  0  0  0  0  0  0  0  0  0  0  0
   -4.7008    0.3697   -0.2499 C   0  0  0  0  0  0  0  0  0  0  0  0
   -4.4640    1.2091   -0.9332 H   0  0  0  0  0  0  0  0  0  0  0  0
   -5.4131   -0.2890   -0.7867 H   0  0  0  0  0  0  0  0  0  0  0  0
   -5.3063    0.8753    1.0577 C   0  0  0  0  0  0  0  0  0  0  0  0
   -5.5534    0.0356    1.7376 H   0  0  0  0  0  0  0  0  0  0  0  0
   -6.2398    1.4379    0.8578 H   0  0  0  0  0  0  0  0  0  0  0  0
   -4.6026    1.5476    1.5877 H   0  0  0  0  0  0  0  0  0  0  0  0
    1.8741    2.1414   -0.1486 C   0  0  0  0  0  2  0  0  0  0  0  0
    3.0441    0.0225    1.5431 C   0  0  0  0  0  0  0  0  0  0  0  0
    2.8547   -0.2102   -1.6560 C   0  0  0  0  0  0  0  0  0  0  0  0
    2.1826    0.6793    2.6422 C   0  0  0  0  0  0  0  0  0  0  0  0
    1.1734    0.2209    2.6954 H   0  0  0  0  0  0  0  0  0  0  0  0
    2.0622    1.7682    2.4629 H   0  0  0  0  0  0  0  0  0  0  0  0
    2.6795    0.5443    3.6263 H   0  0  0  0  0  0  0  0  0  0  0  0
    4.4129    0.7140    1.4819 C   0  0  0  0  0  0  0  0  0  0  0  0
    4.3165    1.7669    1.1518 H   0  0  0  0  0  0  0  0  0  0  0  0
    5.1103    0.1914    0.7997 H   0  0  0  0  0  0  0  0  0  0  0  0
    4.8718    0.7012    2.4941 H   0  0  0  0  0  0  0  0  0  0  0  0
    3.1759   -1.4835    1.8200 C   0  0  0  0  0  0  0  0  0  0  0  0
    3.5662   -1.6305    2.8502 H   0  0  0  0  0  0  0  0  0  0  0  0
    3.8867   -1.9695    1.1240 H   0  0  0  0  0  0  0  0  0  0  0  0
    2.2018   -2.0080    1.7345 H   0  0  0  0  0  0  0  0  0  0  0  0
    4.1685    0.5474   -1.8977 C   0  0  0  0  0  0  0  0  0  0  0  0
    4.9711    0.2185   -1.2117 H   0  0  0  0  0  0  0  0  0  0  0  0
    4.0320    1.6396   -1.7744 H   0  0  0  0  0  0  0  0  0  0  0  0
    4.5160    0.3466   -2.9342 H   0  0  0  0  0  0  0  0  0  0  0  0
    1.8325    0.1727   -2.7456 C   0  0  0  0  0  0  0  0  0  0  0  0
    2.2301   -0.1293   -3.7377 H   0  0  0  0  0  0  0  0  0  0  0  0
    1.6486    1.2664   -2.7679 H   0  0  0  0  0  0  0  0  0  0  0  0
    0.8608   -0.3388   -2.5878 H   0  0  0  0  0  0  0  0  0  0  0  0
    3.0652   -1.7327   -1.6591 C   0  0  0  0  0  0  0  0  0  0  0  0
    2.1460   -2.2772   -1.3587 H   0  0  0  0  0  0  0  0  0  0  0  0
    3.8830   -2.0353   -0.9768 H   0  0  0  0  0  0  0  0  0  0  0  0
    3.3486   -2.0585   -2.6832 H   0  0  0  0  0  0  0  0  0  0  0  0
   -0.4836    1.4066   -0.0787 C   0  0  0  0  0  3  0  0  0  0  0  0
   -1.9033    1.5783   -0.0956 C   0  0  0  0  0  0  0  0  0  0  0  0
   -2.4074    2.8794   -0.2012 C   0  0  0  0  0  0  0  0  0  0  0  0
   -3.4849    3.1097   -0.1994 H   0  0  0  0  0  0  0  0  0  0  0  0
   -1.4738    3.9631   -0.3080 C   0  0  0  0  0  0  0  0  0  0  0  0
   -1.8765    4.9840   -0.3939 H   0  0  0  0  0  0  0  0  0  0  0  0
   -0.0904    3.7778   -0.3074 C   0  0  0  0  0  0  0  0  0  0  0  0
    0.5869    4.6418   -0.3955 H   0  0  0  0  0  0  0  0  0  0  0  0
    0.4905    2.4594   -0.1894 C   0  0  0  0  0  0  0  0  0  0  0  0
  1 19  1  0  0  0  0
  2  3  1  0  0  0  0
  2  4  1  0  0  0  0
  4  6  1  0  0  0  0
  4  5  1  0  0  0  0
  7  9  1  0  0  0  0
  7  4  1  0  0  0  0
  8  7  1  0  0  0  0
 10  7  1  0  0  0  0
 11  2  1  0  0  0  0
 11 14  1  0  0  0  0
 12 11  1  0  0  0  0
 13 11  1  0  0  0  0
 14 17  1  0  0  0  0
 14 15  1  0  0  0  0
 16 14  1  0  0  0  0
 18  1  1  0  0  0  0
 19 29  1  0  0  0  0
 19 21  1  0  0  0  0
 20  1  1  0  0  0  0
 21 22  1  0  0  0  0
 21 24  1  0  0  0  0
 23 21  1  0  0  0  0
 25 19  1  0  0  0  0
 25 28  1  0  0  0  0
 26 25  1  0  0  0  0
 27 25  1  0  0  0  0
 29 30  1  0  0  0  0
 31 29  1  0  0  0  0
 32 29  1  0  0  0  0
 33 35  1  0  0  0  0
 33 20  1  0  0  0  0
 33 34  1  0  0  0  0
 36 33  1  0  0  0  0
 37 40  1  0  0  0  0
 37 20  1  0  0  0  0
 38 37  1  0  0  0  0
 39 37  1  0  0  0  0
 41 20  1  0  0  0  0
 41 42  1  0  0  0  0
 41 43  1  0  0  0  0
 44 41  1  0  0  0  0
 46 45  1  0  0  0  0
 46  3  1  0  0  0  0
 47 48  1  0  0  0  0
 47 46  2  0  0  0  0
 49 51  2  0  0  0  0
 49 47  1  0  0  0  0
 50 49  1  0  0  0  0
 51 53  1  0  0  0  0
 52 51  1  0  0  0  0
 53 18  1  0  0  0  0
 53 45  2  0  0  0  0
M  END
