1
q = -1.0

 15 15  0  0  0  0  0  0  0  0999 V2000
   -0.2289   -0.5626   -2.0607 S   0  0  0  0  0  1  0  0  0  0  0  0
   -1.9210   -0.2579   -1.6602 C   0  0  0  0  0  0  0  0  0  0  0  0
   -2.8437   -1.3282   -1.5857 C   0  0  0  0  0  0  0  0  0  0  0  0
   -2.4920   -2.3475   -1.8042 H   0  0  0  0  0  0  0  0  0  0  0  0
   -4.1798   -1.1003   -1.2329 C   0  0  0  0  0  0  0  0  0  0  0  0
   -4.8769   -1.9521   -1.1851 H   0  0  0  0  0  0  0  0  0  0  0  0
   -4.6524    0.1954   -0.9337 C   0  0  0  0  0  0  0  0  0  0  0  0
   -3.7280    1.2619   -1.0077 C   0  0  0  0  0  0  0  0  0  0  0  0
   -4.0680    2.2861   -0.7853 H   0  0  0  0  0  0  0  0  0  0  0  0
   -2.3936    1.0467   -1.3712 C   0  0  0  0  0  0  0  0  0  0  0  0
   -1.6986    1.8976   -1.4298 H   0  0  0  0  0  0  0  0  0  0  0  0
   -6.0975    0.4406   -0.5885 C   0  0  0  0  0  0  0  0  0  0  0  0
   -6.2169    1.3007    0.0995 H   0  0  0  0  0  0  0  0  0  0  0  0
   -6.5660   -0.4484   -0.1228 H   0  0  0  0  0  0  0  0  0  0  0  0
   -6.6856    0.6745   -1.5023 H   0  0  0  0  0  0  0  0  0  0  0  0
  1  2  1  0  0  0  0
  2  3  2  0  0  0  0
  2 10  1  0  0  0  0
  3  5  1  0  0  0  0
  4  3  1  0  0  0  0
  5  6  1  0  0  0  0
  5  7  2  0  0  0  0
  7 12  1  0  0  0  0
  8  7  1  0  0  0  0
  8  9  1  0  0  0  0
 10  8  2  0  0  0  0
 11 10  1  0  0  0  0
 12 14  1  0  0  0  0
 12 13  1  0  0  0  0
 15 12  1  0  0  0  0
M  END
