1
q = -1.0

 12 12  0  0  0  0  0  0  0  0999 V2000
    0.1157    1.8423    1.5136 S   0  0  0  0  0  1  0  0  0  0  0  0
    0.3012    3.2065    0.4105 C   0  0  0  0  0  0  0  0  0  0  0  0
    0.4672    4.5079    0.9506 C   0  0  0  0  0  0  0  0  0  0  0  0
    0.4789    4.6330    2.0441 H   0  0  0  0  0  0  0  0  0  0  0  0
    0.6056    5.4732   -1.2878 C   0  0  0  0  0  0  0  0  0  0  0  0
    0.7240    6.3499   -1.9417 H   0  0  0  0  0  0  0  0  0  0  0  0
    0.2907    3.0746   -1.0008 C   0  0  0  0  0  0  0  0  0  0  0  0
    0.1636    2.0689   -1.4303 H   0  0  0  0  0  0  0  0  0  0  0  0
    0.4412    4.1913   -1.8351 C   0  0  0  0  0  0  0  0  0  0  0  0
    0.4296    4.0522   -2.9278 H   0  0  0  0  0  0  0  0  0  0  0  0
    0.6165    5.6185    0.1116 C   0  0  0  0  0  0  0  0  0  0  0  0
    0.7447    6.6167    0.5592 H   0  0  0  0  0  0  0  0  0  0  0  0
  2  3  1  0  0  0  0
  2  1  1  0  0  0  0
  3  4  1  0  0  0  0
  5 11  1  0  0  0  0
  6  5  1  0  0  0  0
  7  2  2  0  0  0  0
  8  7  1  0  0  0  0
  9  5  2  0  0  0  0
  9  7  1  0  0  0  0
 10  9  1  0  0  0  0
 11 12  1  0  0  0  0
 11  3  2  0  0  0  0
M  END
