1
q = -1.0

 16 16  0  0  0  0  0  0  0  0999 V2000
   -1.5074    1.8210    0.0262 S   0  0  0  0  0  1  0  0  0  0  0  0
   -0.1853    3.0211   -0.1235 C   0  0  0  0  0  0  0  0  0  0  0  0
    0.1704    3.5330   -1.3890 C   0  0  0  0  0  0  0  0  0  0  0  0
   -0.3544    3.1704   -2.2854 H   0  0  0  0  0  0  0  0  0  0  0  0
    1.1892    4.4789   -1.5080 C   0  0  0  0  0  0  0  0  0  0  0  0
    1.4835    4.8842   -2.4871 H   0  0  0  0  0  0  0  0  0  0  0  0
    1.8786    4.9318   -0.3613 C   0  0  0  0  0  0  0  0  0  0  0  0
    1.5260    4.4251    0.9067 C   0  0  0  0  0  0  0  0  0  0  0  0
    2.0491    4.7543    1.8143 H   0  0  0  0  0  0  0  0  0  0  0  0
    0.4979    3.4770    1.0167 C   0  0  0  0  0  0  0  0  0  0  0  0
    2.8608    5.8499   -0.5796 O   0  0  0  0  0  0  0  0  0  0  0  0
    3.5960    6.3221    0.5319 C   0  0  0  0  0  0  0  0  0  0  0  0
    2.9458    6.8432    1.2707 H   0  0  0  0  0  0  0  0  0  0  0  0
    4.3363    7.0420    0.1360 H   0  0  0  0  0  0  0  0  0  0  0  0
    4.1354    5.4996    1.0538 H   0  0  0  0  0  0  0  0  0  0  0  0
    0.2313    3.0704    2.0035 H   0  0  0  0  0  0  0  0  0  0  0  0
  2  1  1  0  0  0  0
  2 10  1  0  0  0  0
  3  2  2  0  0  0  0
  4  3  1  0  0  0  0
  5  3  1  0  0  0  0
  5  7  2  0  0  0  0
  6  5  1  0  0  0  0
  7  8  1  0  0  0  0
  8 10  2  0  0  0  0
  8  9  1  0  0  0  0
 10 16  1  0  0  0  0
 11  7  1  0  0  0  0
 11 12  1  0  0  0  0
 12 15  1  0  0  0  0
 12 13  1  0  0  0  0
 14 12  1  0  0  0  0
M  END
