1
q = 0.0, confidence = 0.962

 32 34  0  0  1  0  0  0  0  0999 V2000
    2.1732   -2.5985   -0.9148 S   0  0  0  0  0  1  0  0  0  0  0  0
    2.2778    2.3447   -1.8549 C   0  0  0  0  0  0  0  0  0  0  0  0
    2.8638    1.7424   -2.5634 H   0  0  0  0  0  0  0  0  0  0  0  0
    2.1853    1.8778   -0.5173 C   0  0  0  0  0  0  0  0  0  0  0  0
    1.6533    3.5231   -2.2448 C   0  0  0  0  0  0  0  0  0  0  0  0
    1.7469    3.8834   -3.2794 H   0  0  0  0  0  0  0  0  0  0  0  0
    0.8954    4.2631   -1.3036 C   0  0  0  0  0  0  0  0  0  0  0  0
    0.3951    5.1927   -1.6126 H   0  0  0  0  0  0  0  0  0  0  0  0
    0.7817    3.8319    0.0132 C   0  0  0  0  0  0  0  0  0  0  0  0
    0.2008    4.4092    0.7472 H   0  0  0  0  0  0  0  0  0  0  0  0
    1.4352    2.6434    0.4254 C   0  0  0  0  0  0  0  0  0  0  0  0
    1.9401    0.7839    3.5838 C   0  0  0  0  0  0  0  0  0  0  0  0
    1.3643    1.4324    4.2591 H   0  0  0  0  0  0  0  0  0  0  0  0
    2.0044    1.1050    2.2054 C   0  0  0  0  0  0  0  0  0  0  0  0
    2.6180   -0.3275    4.0696 C   0  0  0  0  0  0  0  0  0  0  0  0
    2.5710   -0.5652    5.1427 H   0  0  0  0  0  0  0  0  0  0  0  0
    3.3853   -1.1397    3.2001 C   0  0  0  0  0  0  0  0  0  0  0  0
    3.9358   -2.0039    3.5977 H   0  0  0  0  0  0  0  0  0  0  0  0
    3.4520   -0.8335    1.8475 C   0  0  0  0  0  3  0  0  0  0  0  0
    4.0601   -1.4560    1.1794 H   0  0  0  0  0  0  0  0  0  0  0  0
    2.7544    0.2807    1.3086 C   0  0  0  0  0  0  0  0  0  0  0  0
    2.7930    0.6193   -0.1091 C   0  0  0  0  0  0  0  0  0  0  0  0
    3.3822   -0.1217   -1.0306 N   0  0  0  0  0  2  0  0  0  0  0  0
    1.3485    2.2124    1.7256 N   0  0  0  0  0  0  0  0  0  0  0  0
    0.7327    2.7233    2.3657 H   0  0  0  0  0  0  0  0  0  0  0  0
    4.5797   -1.9506   -1.7621 N   0  0  0  0  0  0  0  0  0  0  0  0
    4.5465   -2.9439   -2.0008 H   0  0  0  0  0  0  0  0  0  0  0  0
    3.4606   -1.4294   -1.2119 C   0  0  2  0  0  3  0  0  0  0  0  0
    5.7946   -1.1972   -2.0095 C   0  0  0  0  0  0  0  0  0  0  0  0
    6.3044   -1.5974   -2.9059 H   0  0  0  0  0  0  0  0  0  0  0  0
    6.4984   -1.2437   -1.1505 H   0  0  0  0  0  0  0  0  0  0  0  0
    5.5291   -0.1363   -2.1828 H   0  0  0  0  0  0  0  0  0  0  0  0
  2  4  1  0  0  0  0
  3  2  1  0  0  0  0
  4 22  1  0  0  0  0
  4 11  2  0  0  0  0
  5  2  2  0  0  0  0
  5  7  1  0  0  0  0
  6  5  1  0  0  0  0
  7  9  2  0  0  0  0
  8  7  1  0  0  0  0
  9 11  1  0  0  0  0
  9 10  1  0  0  0  0
 11 24  1  0  0  0  0
 12 15  1  0  0  0  0
 12 13  1  0  0  0  0
 14 12  2  0  0  0  0
 15 16  1  0  0  0  0
 17 18  1  0  0  0  0
 17 15  2  0  0  0  0
 19 17  1  0  0  0  0
 20 19  1  0  0  0  0
 21 19  1  0  0  0  0
 21 14  1  0  0  0  0
 22 21  2  0  0  0  0
 23 22  1  0  0  0  0
 24 14  1  0  0  0  0
 24 25  1  0  0  0  0
 26 28  1  0  0  0  0
 27 26  1  0  0  0  0
 28 23  1  0  0  0  0
 28  1  1  6  0  0  0
 29 26  1  0  0  0  0
 29 31  1  0  0  0  0
 30 29  1  0  0  0  0
 32 29  1  0  0  0  0
M  END
