1
q = 0.0, confidence = 0.984

 10  9  0  0  0  0  0  0  0  0999 V2000
   -1.1217    2.9028   -0.1354 S   0  0  0  0  0  3  0  0  0  0  0  0
   -1.8117    3.4694   -1.3418 O   0  0  0  0  0  1  0  0  0  0  0  0
   -2.1300    3.2787    1.3330 C   0  0  0  0  0  0  0  0  0  0  0  0
   -2.3598    4.3615    1.3160 H   0  0  0  0  0  0  0  0  0  0  0  0
   -1.5805    2.9767    2.2445 H   0  0  0  0  0  0  0  0  0  0  0  0
   -3.0472    2.6705    1.2224 H   0  0  0  0  0  0  0  0  0  0  0  0
    0.3467    3.9210    0.2114 C   0  0  0  0  0  0  0  0  0  0  0  0
    1.0270    3.7713   -0.6456 H   0  0  0  0  0  0  0  0  0  0  0  0
    0.8297    3.5786    1.1442 H   0  0  0  0  0  0  0  0  0  0  0  0
    0.0007    4.9703    0.2639 H   0  0  0  0  0  0  0  0  0  0  0  0
  1  7  1  0  0  0  0
  1  3  1  0  0  0  0
  2  1  1  0  0  0  0
  3  5  1  0  0  0  0
  4  3  1  0  0  0  0
  6  3  1  0  0  0  0
  7 10  1  0  0  0  0
  7  9  1  0  0  0  0
  8  7  1  0  0  0  0
M  END
