2
q = 0.0, confidence = 0.998

 35 37  0  0  0  0  0  0  0  0999 V2000
    1.3668   -0.0253   -0.2012 P   0  0  0  0  0  4  0  0  0  0  0  0
    0.2689   -0.0367   -1.9239 S   0  0  0  0  0  1  0  0  0  0  0  0
    0.9488   -1.4006    0.9219 C   0  0  0  0  0  0  0  0  0  0  0  0
    1.1661   -1.2819    2.3095 C   0  0  0  0  0  0  0  0  0  0  0  0
    1.5460   -0.3402    2.7335 H   0  0  0  0  0  0  0  0  0  0  0  0
    0.8748   -2.3673    3.1495 C   0  0  0  0  0  0  0  0  0  0  0  0
    1.0334   -2.2745    4.2343 H   0  0  0  0  0  0  0  0  0  0  0  0
    0.3688   -3.5600    2.6093 C   0  0  0  0  0  0  0  0  0  0  0  0
    0.1303   -4.4047    3.2731 H   0  0  0  0  0  0  0  0  0  0  0  0
    0.1527   -3.6734    1.2258 C   0  0  0  0  0  0  0  0  0  0  0  0
   -0.2568   -4.6034    0.8042 H   0  0  0  0  0  0  0  0  0  0  0  0
    0.4407   -2.5962    0.3780 C   0  0  0  0  0  0  0  0  0  0  0  0
    0.2528   -2.6608   -0.7048 H   0  0  0  0  0  0  0  0  0  0  0  0
    1.2563    1.5081    0.7883 C   0  0  0  0  0  0  0  0  0  0  0  0
    0.0385    1.8386    1.4208 C   0  0  0  0  0  0  0  0  0  0  0  0
   -0.8405    1.1795    1.3166 H   0  0  0  0  0  0  0  0  0  0  0  0
   -0.0589    3.0226    2.1625 C   0  0  0  0  0  0  0  0  0  0  0  0
   -1.0127    3.2772    2.6479 H   0  0  0  0  0  0  0  0  0  0  0  0
    1.0492    3.8792    2.2770 C   0  0  0  0  0  0  0  0  0  0  0  0
    0.9667    4.8105    2.8576 H   0  0  0  0  0  0  0  0  0  0  0  0
    2.2602    3.5496    1.6494 C   0  0  0  0  0  0  0  0  0  0  0  0
    3.1298    4.2181    1.7373 H   0  0  0  0  0  0  0  0  0  0  0  0
    2.3694    2.3653    0.9044 C   0  0  0  0  0  0  0  0  0  0  0  0
    3.3208    2.1084    0.4162 H   0  0  0  0  0  0  0  0  0  0  0  0
    3.1229   -0.2156   -0.6697 C   0  0  0  0  0  0  0  0  0  0  0  0
    4.0142   -0.9328    0.1528 C   0  0  0  0  0  0  0  0  0  0  0  0
    3.6512   -1.4165    1.0719 H   0  0  0  0  0  0  0  0  0  0  0  0
    5.3652   -1.0366   -0.2110 C   0  0  0  0  0  0  0  0  0  0  0  0
    6.0592   -1.6015    0.4292 H   0  0  0  0  0  0  0  0  0  0  0  0
    5.8275   -0.4293   -1.3892 C   0  0  0  0  0  0  0  0  0  0  0  0
    6.8875   -0.5153   -1.6724 H   0  0  0  0  0  0  0  0  0  0  0  0
    4.9373    0.2818   -2.2108 C   0  0  0  0  0  0  0  0  0  0  0  0
    5.2963    0.7528   -3.1381 H   0  0  0  0  0  0  0  0  0  0  0  0
    3.5854    0.3901   -1.8564 C   0  0  0  0  0  0  0  0  0  0  0  0
    2.8792    0.9358   -2.5009 H   0  0  0  0  0  0  0  0  0  0  0  0
  1 14  1  0  0  0  0
  1  3  1  0  0  0  0
  2  1  1  0  0  0  0
  3  4  1  0  0  0  0
  4  5  1  0  0  0  0
  4  6  2  0  0  0  0
  6  7  1  0  0  0  0
  8  6  1  0  0  0  0
  8  9  1  0  0  0  0
 10  8  2  0  0  0  0
 11 10  1  0  0  0  0
 12  3  2  0  0  0  0
 12 10  1  0  0  0  0
 13 12  1  0  0  0  0
 14 23  2  0  0  0  0
 14 15  1  0  0  0  0
 15 17  2  0  0  0  0
 16 15  1  0  0  0  0
 17 19  1  0  0  0  0
 17 18  1  0  0  0  0
 19 20  1  0  0  0  0
 21 22  1  0  0  0  0
 21 19  2  0  0  0  0
 23 21  1  0  0  0  0
 24 23  1  0  0  0  0
 25  1  1  0  0  0  0
 25 26  1  0  0  0  0
 26 27  1  0  0  0  0
 28 26  2  0  0  0  0
 28 29  1  0  0  0  0
 30 28  1  0  0  0  0
 31 30  1  0  0  0  0
 32 34  1  0  0  0  0
 32 30  2  0  0  0  0
 33 32  1  0  0  0  0
 34 25  2  0  0  0  0
 35 34  1  0  0  0  0
M  END
