1
q = -1.0, confidence = 0.0

 11 11  0  0  0  0  0  0  0  0999 V2000
    0.2944    1.8792   -1.4230 S   0  0  0  0  0  1  0  0  0  0  0  0
    1.6515    4.2172   -0.9708 C   0  0  0  0  0  0  0  0  0  0  0  0
    1.2445    4.5339   -1.9420 H   0  0  0  0  0  0  0  0  0  0  0  0
    1.3301    2.9275   -0.4605 C   0  0  0  0  0  0  0  0  0  0  0  0
    1.8158    2.4983    0.7279 N   0  0  0  0  0  0  0  0  0  0  0  0
    2.6110    3.3225    1.4329 C   0  0  0  0  0  0  0  0  0  0  0  0
    2.9774    2.9264    2.3981 H   0  0  0  0  0  0  0  0  0  0  0  0
    2.9783    4.6072    1.0148 C   0  0  0  0  0  0  0  0  0  0  0  0
    3.6291    5.2376    1.6374 H   0  0  0  0  0  0  0  0  0  0  0  0
    2.4803    5.0538   -0.2252 C   0  0  0  0  0  0  0  0  0  0  0  0
    2.7388    6.0545   -0.6055 H   0  0  0  0  0  0  0  0  0  0  0  0
  1  4  1  0  0  0  0
  2  4  2  0  0  0  0
  2 10  1  0  0  0  0
  3  2  1  0  0  0  0
  4  5  1  0  0  0  0
  5  6  2  0  0  0  0
  6  7  1  0  0  0  0
  8  6  1  0  0  0  0
  8  9  1  0  0  0  0
 10  8  2  0  0  0  0
 11 10  1  0  0  0  0
M  END
