1
q = 0.0, confidence = 0.992

 34 35  0  0  1  0  0  0  0  0999 V2000
    0.6430    1.5856   -1.9611 S   0  0  0  0  0  1  0  0  0  0  0  0
   -0.2272   -0.8426   -2.6695 N   0  0  0  0  0  4  0  0  0  0  0  0
   -0.9651   -1.5541   -2.6964 H   0  0  0  0  0  0  0  0  0  0  0  0
    0.6912   -0.9777   -3.0842 H   0  0  0  0  0  0  0  0  0  0  0  0
   -1.7438    0.4347   -1.5109 N   0  0  0  0  0  0  0  0  0  0  0  0
   -2.0182    1.3508   -1.0785 H   0  0  0  0  0  0  0  0  0  0  0  0
   -2.5373   -0.6823   -1.4543 N   0  0  0  0  0  0  0  0  0  0  0  0
   -0.5138    0.3234   -2.0569 C   0  0  0  0  0  0  0  0  0  0  0  0
   -3.5201   -0.6621   -0.6177 C   0  0  0  0  0  0  0  0  0  0  0  0
   -4.4344   -1.8544   -0.4198 C   0  0  1  0  0  0  0  0  0  0  0  0
   -4.5981   -1.7901    1.1533 C   0  0  0  0  0  0  0  0  0  0  0  0
   -5.0668   -0.2986    1.1327 C   0  0  1  0  0  0  0  0  0  0  0  0
   -5.2810    0.1389    2.1271 H   0  0  0  0  0  0  0  0  0  0  0  0
   -3.9181    0.4060    0.3810 C   0  0  0  0  0  0  0  0  0  0  0  0
   -4.2202    1.3605   -0.0980 H   0  0  0  0  0  0  0  0  0  0  0  0
   -3.0488    0.6633    1.0237 H   0  0  0  0  0  0  0  0  0  0  0  0
   -6.2769   -0.3290    0.1716 C   0  0  0  0  0  0  0  0  0  0  0  0
   -6.4781    0.6738   -0.2536 H   0  0  0  0  0  0  0  0  0  0  0  0
   -7.2013   -0.6497    0.6906 H   0  0  0  0  0  0  0  0  0  0  0  0
   -5.8368   -1.3616   -0.9064 C   0  0  0  0  0  0  0  0  0  0  0  0
   -6.5303   -2.2248   -0.9657 H   0  0  0  0  0  0  0  0  0  0  0  0
   -5.7726   -0.9321   -1.9258 H   0  0  0  0  0  0  0  0  0  0  0  0
   -3.9586   -3.1506   -1.0459 C   0  0  0  0  0  0  0  0  0  0  0  0
   -4.6622   -3.9788   -0.8274 H   0  0  0  0  0  0  0  0  0  0  0  0
   -2.9547   -3.4322   -0.6703 H   0  0  0  0  0  0  0  0  0  0  0  0
   -3.8823   -3.0481   -2.1471 H   0  0  0  0  0  0  0  0  0  0  0  0
   -3.2805   -2.0196    1.9103 C   0  0  0  0  0  0  0  0  0  0  0  0
   -2.4397   -1.3933    1.5539 H   0  0  0  0  0  0  0  0  0  0  0  0
   -2.9659   -3.0801    1.8248 H   0  0  0  0  0  0  0  0  0  0  0  0
   -3.4171   -1.8042    2.9899 H   0  0  0  0  0  0  0  0  0  0  0  0
   -5.6424   -2.7667    1.7084 C   0  0  0  0  0  0  0  0  0  0  0  0
   -5.8134   -2.5642    2.7858 H   0  0  0  0  0  0  0  0  0  0  0  0
   -5.2825   -3.8126    1.6254 H   0  0  0  0  0  0  0  0  0  0  0  0
   -6.6233   -2.7107    1.2002 H   0  0  0  0  0  0  0  0  0  0  0  0
  2  8  2  0  0  0  0
  3  2  1  0  0  0  0
  4  2  1  0  0  0  0
  5  7  1  0  0  0  0
  5  6  1  0  0  0  0
  7  9  2  0  0  0  0
  8  1  1  0  0  0  0
  8  5  1  0  0  0  0
  9 10  1  0  0  0  0
  9 14  1  0  0  0  0
 10 23  1  6  0  0  0
 10 11  1  0  0  0  0
 11 31  1  0  0  0  0
 11 27  1  0  0  0  0
 12 11  1  0  0  0  0
 12 13  1  1  0  0  0
 14 16  1  0  0  0  0
 14 12  1  0  0  0  0
 15 14  1  0  0  0  0
 17 19  1  0  0  0  0
 17 12  1  0  0  0  0
 18 17  1  0  0  0  0
 20 10  1  0  0  0  0
 20 17  1  0  0  0  0
 21 20  1  0  0  0  0
 22 20  1  0  0  0  0
 23 24  1  0  0  0  0
 23 25  1  0  0  0  0
 26 23  1  0  0  0  0
 27 30  1  0  0  0  0
 28 27  1  0  0  0  0
 29 27  1  0  0  0  0
 31 32  1  0  0  0  0
 33 31  1  0  0  0  0
 34 31  1  0  0  0  0
M  END
