1
q = -1.0

 18 18  0  0  0  0  0  0  0  0999 V2000
    0.4078   -1.0009    1.4111 S   0  0  0  0  0  1  0  0  0  0  0  0
    2.1435   -0.8640    1.0302 C   0  0  0  0  0  0  0  0  0  0  0  0
    2.8447    0.3156    1.4131 C   0  0  0  0  0  0  0  0  0  0  0  0
    2.1827    1.3920    2.2346 C   0  0  0  0  0  0  0  0  0  0  0  0
    1.2160    1.7097    1.7987 H   0  0  0  0  0  0  0  0  0  0  0  0
    2.8411    2.2765    2.3377 H   0  0  0  0  0  0  0  0  0  0  0  0
    1.9442    1.0161    3.2521 H   0  0  0  0  0  0  0  0  0  0  0  0
    4.1929    0.4541    1.0293 C   0  0  0  0  0  0  0  0  0  0  0  0
    4.7343    1.3728    1.3074 H   0  0  0  0  0  0  0  0  0  0  0  0
    4.8489   -0.5568    0.3129 C   0  0  0  0  0  0  0  0  0  0  0  0
    5.9010   -0.4300    0.0141 H   0  0  0  0  0  0  0  0  0  0  0  0
    4.1716   -1.7479    0.0175 C   0  0  0  0  0  0  0  0  0  0  0  0
    4.6977   -2.5642   -0.5026 H   0  0  0  0  0  0  0  0  0  0  0  0
    2.8230   -1.9341    0.3804 C   0  0  0  0  0  0  0  0  0  0  0  0
    2.1357   -3.2382    0.0759 C   0  0  0  0  0  0  0  0  0  0  0  0
    1.5163   -3.1583   -0.8403 H   0  0  0  0  0  0  0  0  0  0  0  0
    1.4534   -3.5245    0.9003 H   0  0  0  0  0  0  0  0  0  0  0  0
    2.8778   -4.0437   -0.0887 H   0  0  0  0  0  0  0  0  0  0  0  0
  2  1  1  0  0  0  0
  2  3  1  0  0  0  0
  3  4  1  0  0  0  0
  4  6  1  0  0  0  0
  4  7  1  0  0  0  0
  5  4  1  0  0  0  0
  8  9  1  0  0  0  0
  8  3  2  0  0  0  0
 10  8  1  0  0  0  0
 11 10  1  0  0  0  0
 12 10  2  0  0  0  0
 12 14  1  0  0  0  0
 13 12  1  0  0  0  0
 14  2  2  0  0  0  0
 15 14  1  0  0  0  0
 15 17  1  0  0  0  0
 16 15  1  0  0  0  0
 18 15  1  0  0  0  0
M  END
