18
q = -1.0

 19 19  0  0  0  0  0  0  0  0999 V2000
   -3.1493    0.9670    1.4929 C   0  0  0  0  0  0  0  0  0  0  0  0
   -4.6814   -0.5396    0.8431 C   0  0  0  0  0  0  0  0  0  0  0  0
   -5.0726   -1.3838    0.2636 H   0  0  0  0  0  0  0  0  0  0  0  0
    0.3096    2.3167    1.0903 C   0  0  0  0  0  0  0  0  0  0  0  0
    1.1123    1.6813    1.5297 H   0  0  0  0  0  0  0  0  0  0  0  0
    0.0902    3.1275    1.8293 H   0  0  0  0  0  0  0  0  0  0  0  0
    0.8448    2.9674   -0.1901 C   0  0  0  0  0  0  0  0  0  0  0  0
    1.6716    3.6586    0.0721 H   0  0  0  0  0  0  0  0  0  0  0  0
    0.0449    3.5662   -0.6719 H   0  0  0  0  0  0  0  0  0  0  0  0
   -5.2862    0.2465    1.8329 C   0  0  0  0  0  0  0  0  0  0  0  0
   -6.3103    0.1362    2.2060 H   0  0  0  0  0  0  0  0  0  0  0  0
   -4.3211    1.1949    2.2453 C   0  0  0  0  0  0  0  0  0  0  0  0
   -4.4385    1.9771    3.0046 H   0  0  0  0  0  0  0  0  0  0  0  0
   -1.9096    1.6924    1.5703 C   0  0  0  0  0  0  0  0  0  0  0  0
   -1.9091    2.4907    2.3514 H   0  0  0  0  0  0  0  0  0  0  0  0
   -0.8549    1.4935    0.8462 N   0  0  0  0  0  0  0  0  0  0  0  0
   -3.4068   -0.0983    0.6488 N   0  0  0  0  0  0  0  0  0  0  0  0
    1.5684    1.8233   -1.4488 S   0  0  0  0  0  1  0  0  0  0  0  0
   -2.7447   -0.5384   -0.0276 H   0  0  0  0  0  0  0  0  0  0  0  0
  1 14  1  0  0  0  0
  1 12  2  0  0  0  0
  2 10  2  0  0  0  0
  3  2  1  0  0  0  0
  4  5  1  0  0  0  0
  4  6  1  0  0  0  0
  7  8  1  0  0  0  0
  7  4  1  0  0  0  0
  9  7  1  0  0  0  0
 10 11  1  0  0  0  0
 10 12  1  0  0  0  0
 12 13  1  0  0  0  0
 14 15  1  0  0  0  0
 16  4  1  0  0  0  0
 16 14  2  0  0  0  0
 17  2  1  0  0  0  0
 17  1  1  0  0  0  0
 18  7  1  0  0  0  0
 19 17  1  0  0  0  0
M  END
