1
q = -1.0, confidence = 0.0

 28 28  0  0  0  0  0  0  0  0999 V2000
    1.2804   -2.2446   -1.3850 S   0  0  0  0  0  1  0  0  0  0  0  0
   -4.4465   -0.6675   -0.3842 N   0  0  0  0  0  0  0  0  0  0  0  0
   -5.0923   -1.4391   -0.2158 H   0  0  0  0  0  0  0  0  0  0  0  0
   -4.2051    1.6067   -0.1563 O   0  0  0  0  0  0  0  0  0  0  0  0
   -0.9166   -0.5569   -1.6149 C   0  0  0  0  0  0  0  0  0  0  0  0
   -0.2286    0.1296   -2.1313 H   0  0  0  0  0  0  0  0  0  0  0  0
   -2.2345   -0.1604   -1.3715 C   0  0  0  0  0  0  0  0  0  0  0  0
   -2.5806    0.8393   -1.6586 H   0  0  0  0  0  0  0  0  0  0  0  0
   -3.1218   -1.0363   -0.7098 C   0  0  0  0  0  0  0  0  0  0  0  0
   -2.6699   -2.3275   -0.3603 C   0  0  0  0  0  0  0  0  0  0  0  0
   -3.3590   -3.0273    0.1410 H   0  0  0  0  0  0  0  0  0  0  0  0
   -1.3464   -2.7132   -0.6021 C   0  0  0  0  0  0  0  0  0  0  0  0
   -0.9996   -3.7117   -0.2950 H   0  0  0  0  0  0  0  0  0  0  0  0
   -0.4215   -1.8175   -1.1931 C   0  0  0  0  0  0  0  0  0  0  0  0
   -4.9095    0.5968   -0.1002 C   0  0  0  0  0  0  0  0  0  0  0  0
   -6.4075    0.7061    0.2966 C   0  0  0  0  0  0  0  0  0  0  0  0
   -7.1492   -0.6386    0.3585 C   0  0  0  0  0  0  0  0  0  0  0  0
   -8.2071   -0.4740    0.6466 H   0  0  0  0  0  0  0  0  0  0  0  0
   -6.7142   -1.3215    1.1191 H   0  0  0  0  0  0  0  0  0  0  0  0
   -7.1608   -1.1550   -0.6243 H   0  0  0  0  0  0  0  0  0  0  0  0
   -6.4471    1.3913    1.6775 C   0  0  0  0  0  0  0  0  0  0  0  0
   -7.4934    1.6138    1.9707 H   0  0  0  0  0  0  0  0  0  0  0  0
   -5.8744    2.3377    1.6456 H   0  0  0  0  0  0  0  0  0  0  0  0
   -5.9997    0.7442    2.4600 H   0  0  0  0  0  0  0  0  0  0  0  0
   -7.0708    1.6198   -0.7550 C   0  0  0  0  0  0  0  0  0  0  0  0
   -8.1224    1.8343   -0.4747 H   0  0  0  0  0  0  0  0  0  0  0  0
   -7.0706    1.1439   -1.7571 H   0  0  0  0  0  0  0  0  0  0  0  0
   -6.5176    2.5756   -0.8283 H   0  0  0  0  0  0  0  0  0  0  0  0
  1 14  1  0  0  0  0
  2  3  1  0  0  0  0
  2 15  1  0  0  0  0
  4 15  2  0  0  0  0
  5  7  2  0  0  0  0
  5 14  1  0  0  0  0
  6  5  1  0  0  0  0
  7  9  1  0  0  0  0
  8  7  1  0  0  0  0
  9  2  1  0  0  0  0
  9 10  2  0  0  0  0
 10 11  1  0  0  0  0
 12 10  1  0  0  0  0
 12 13  1  0  0  0  0
 14 12  2  0  0  0  0
 15 16  1  0  0  0  0
 16 17  1  0  0  0  0
 16 21  1  0  0  0  0
 17 18  1  0  0  0  0
 17 19  1  0  0  0  0
 20 17  1  0  0  0  0
 21 22  1  0  0  0  0
 21 24  1  0  0  0  0
 23 21  1  0  0  0  0
 25 26  1  0  0  0  0
 25 16  1  0  0  0  0
 27 25  1  0  0  0  0
 28 25  1  0  0  0  0
M  END
