1
q = -1.0

 28 28  0  0  0  0  0  0  0  0999 V2000
   -0.6095   -1.7493    0.9150 S   0  0  0  0  0  1  0  0  0  0  0  0
   -2.8391    0.1611    0.3850 N   0  0  0  0  0  0  0  0  0  0  0  0
   -1.8948    0.1854    0.8008 H   0  0  0  0  0  0  0  0  0  0  0  0
   -4.6572    1.4247   -0.2515 O   0  0  0  0  0  0  0  0  0  0  0  0
   -3.1374   -1.1166   -0.1044 C   0  0  0  0  0  0  0  0  0  0  0  0
   -4.3551   -1.4441   -0.7366 C   0  0  0  0  0  0  0  0  0  0  0  0
   -5.1167   -0.6605   -0.8297 H   0  0  0  0  0  0  0  0  0  0  0  0
   -4.5574   -2.7387   -1.2337 C   0  0  0  0  0  0  0  0  0  0  0  0
   -5.5114   -2.9811   -1.7265 H   0  0  0  0  0  0  0  0  0  0  0  0
   -3.5586   -3.7178   -1.1104 C   0  0  0  0  0  0  0  0  0  0  0  0
   -3.7199   -4.7328   -1.5043 H   0  0  0  0  0  0  0  0  0  0  0  0
   -2.3480   -3.3963   -0.4793 C   0  0  0  0  0  0  0  0  0  0  0  0
   -1.5519   -4.1480   -0.3699 H   0  0  0  0  0  0  0  0  0  0  0  0
   -2.1177   -2.1075    0.0365 C   0  0  0  0  0  0  0  0  0  0  0  0
   -3.5283    1.3382    0.2343 C   0  0  0  0  0  0  0  0  0  0  0  0
   -2.7636    2.6213    0.6694 C   0  0  0  0  0  0  0  0  0  0  0  0
   -3.6994    3.4257    1.5897 C   0  0  0  0  0  0  0  0  0  0  0  0
   -3.8647    2.8975    2.5511 H   0  0  0  0  0  0  0  0  0  0  0  0
   -4.6827    3.5614    1.1001 H   0  0  0  0  0  0  0  0  0  0  0  0
   -3.2661    4.4223    1.8129 H   0  0  0  0  0  0  0  0  0  0  0  0
   -1.4293    2.3459    1.3780 C   0  0  0  0  0  0  0  0  0  0  0  0
   -1.5636    1.7566    2.3085 H   0  0  0  0  0  0  0  0  0  0  0  0
   -0.9453    3.3042    1.6593 H   0  0  0  0  0  0  0  0  0  0  0  0
   -0.7185    1.7924    0.7251 H   0  0  0  0  0  0  0  0  0  0  0  0
   -2.5020    3.4113   -0.6313 C   0  0  0  0  0  0  0  0  0  0  0  0
   -2.0289    4.3894   -0.4037 H   0  0  0  0  0  0  0  0  0  0  0  0
   -3.4541    3.5913   -1.1669 H   0  0  0  0  0  0  0  0  0  0  0  0
   -1.8263    2.8484   -1.3081 H   0  0  0  0  0  0  0  0  0  0  0  0
  2  3  1  0  0  0  0
  4 15  2  0  0  0  0
  5 14  1  0  0  0  0
  5  2  1  0  0  0  0
  6  5  2  0  0  0  0
  7  6  1  0  0  0  0
  8 10  2  0  0  0  0
  8  6  1  0  0  0  0
  9  8  1  0  0  0  0
 10 12  1  0  0  0  0
 11 10  1  0  0  0  0
 12 13  1  0  0  0  0
 12 14  2  0  0  0  0
 14  1  1  0  0  0  0
 15  2  1  0  0  0  0
 15 16  1  0  0  0  0
 16 21  1  0  0  0  0
 16 17  1  0  0  0  0
 17 20  1  0  0  0  0
 17 18  1  0  0  0  0
 19 17  1  0  0  0  0
 21 23  1  0  0  0  0
 21 22  1  0  0  0  0
 24 21  1  0  0  0  0
 25 26  1  0  0  0  0
 25 16  1  0  0  0  0
 27 25  1  0  0  0  0
 28 25  1  0  0  0  0
M  END
