1
q = -1.0

 18 17  0  0  0  0  0  0  0  0999 V2000
    2.9446   -0.9785   -0.4563 S   0  0  0  0  0  1  0  0  0  0  0  0
    2.6578    1.5920    0.1175 O   0  0  0  0  0  0  0  0  0  0  0  0
    4.8411    1.0026   -0.2743 N   0  0  0  0  0  0  0  0  0  0  0  0
    3.6124    0.6603   -0.1933 C   0  0  0  0  0  0  0  0  0  0  0  0
    5.8596    0.0235   -0.5834 C   0  0  0  0  0  0  0  0  0  0  0  0
    6.6910    0.5383   -1.1157 H   0  0  0  0  0  0  0  0  0  0  0  0
    5.4763   -0.7699   -1.2719 H   0  0  0  0  0  0  0  0  0  0  0  0
    6.4207   -0.6470    0.6802 C   0  0  0  0  0  0  0  0  0  0  0  0
    5.5860   -1.1728    1.1921 H   0  0  0  0  0  0  0  0  0  0  0  0
    6.7642    0.1480    1.3770 H   0  0  0  0  0  0  0  0  0  0  0  0
    7.5550   -1.6252    0.3803 C   0  0  0  0  0  0  0  0  0  0  0  0
    7.9463   -2.0940    1.3058 H   0  0  0  0  0  0  0  0  0  0  0  0
    8.4060   -1.1186   -0.1225 H   0  0  0  0  0  0  0  0  0  0  0  0
    7.2158   -2.4429   -0.2898 H   0  0  0  0  0  0  0  0  0  0  0  0
    3.1359    2.9249    0.3020 C   0  0  0  0  0  0  0  0  0  0  0  0
    3.8535    2.9802    1.1465 H   0  0  0  0  0  0  0  0  0  0  0  0
    2.2383    3.5388    0.5084 H   0  0  0  0  0  0  0  0  0  0  0  0
    3.6574    3.2919   -0.6058 H   0  0  0  0  0  0  0  0  0  0  0  0
  1  4  1  0  0  0  0
  2 15  1  0  0  0  0
  3  4  2  0  0  0  0
  4  2  1  0  0  0  0
  5  3  1  0  0  0  0
  5  8  1  0  0  0  0
  6  5  1  0  0  0  0
  7  5  1  0  0  0  0
  8  9  1  0  0  0  0
  8 10  1  0  0  0  0
 11  8  1  0  0  0  0
 11 12  1  0  0  0  0
 13 11  1  0  0  0  0
 14 11  1  0  0  0  0
 15 17  1  0  0  0  0
 15 16  1  0  0  0  0
 18 15  1  0  0  0  0
M  END
