1
q = -1.0, confidence = 0.002

 11 10  0  0  0  0  0  0  0  0999 V2000
    1.6327   -0.7193    0.1507 S   0  0  0  0  0  1  0  0  0  0  0  0
    5.0752    0.6101    0.8578 O   0  0  0  0  0  0  0  0  0  0  0  0
    4.3870   -0.2850   -1.1101 O   0  0  0  0  0  0  0  0  0  0  0  0
    2.7376    0.7677    0.2251 C   0  0  0  0  0  0  0  0  0  0  0  0
    2.4528    1.4611   -0.5936 H   0  0  0  0  0  0  0  0  0  0  0  0
    2.6218    1.2781    1.1977 H   0  0  0  0  0  0  0  0  0  0  0  0
    4.1896    0.3696    0.0603 C   0  0  0  0  0  0  0  0  0  0  0  0
    5.7295   -0.7221   -1.3453 C   0  0  0  0  0  0  0  0  0  0  0  0
    6.4268    0.1397   -1.3808 H   0  0  0  0  0  0  0  0  0  0  0  0
    5.7154   -1.2471   -2.3169 H   0  0  0  0  0  0  0  0  0  0  0  0
    6.0685   -1.4063   -0.5413 H   0  0  0  0  0  0  0  0  0  0  0  0
  1  4  1  0  0  0  0
  3  7  1  0  0  0  0
  4  6  1  0  0  0  0
  5  4  1  0  0  0  0
  7  4  1  0  0  0  0
  7  2  2  0  0  0  0
  8  3  1  0  0  0  0
  8 11  1  0  0  0  0
  9  8  1  0  0  0  0
 10  8  1  0  0  0  0
M  END
