1
q = -1.0, confidence = 0.008

 24 25  0  0  0  0  0  0  0  0999 V2000
   -0.5270   -1.4443    0.6756 S   0  0  0  0  0  1  0  0  0  0  0  0
    3.4437    0.6464    1.9871 O   0  0  0  0  0  0  0  0  0  0  0  0
    3.6027   -2.6063   -1.2816 O   0  0  0  0  0  0  0  0  0  0  0  0
    3.5315   -1.0119    0.3965 N   0  0  0  0  0  0  0  0  0  0  0  0
    5.3616   -1.1588   -1.0796 N   0  0  0  0  0  0  0  0  0  0  0  0
    5.7810   -1.6431   -1.8753 H   0  0  0  0  0  0  0  0  0  0  0  0
    1.0872   -0.7736    0.0896 C   0  0  0  0  0  0  0  0  0  0  0  0
    1.1641   -0.9355   -1.0039 H   0  0  0  0  0  0  0  0  0  0  0  0
    1.1344    0.3132    0.3025 H   0  0  0  0  0  0  0  0  0  0  0  0
    2.2157   -1.5009    0.8239 C   0  0  0  0  0  0  0  0  0  0  0  0
    2.1380   -1.3196    1.9120 H   0  0  0  0  0  0  0  0  0  0  0  0
    2.1795   -2.5856    0.6141 H   0  0  0  0  0  0  0  0  0  0  0  0
    4.1232   -1.6644   -0.7000 C   0  0  0  0  0  0  0  0  0  0  0  0
    4.0609    0.1122    1.0706 C   0  0  0  0  0  0  0  0  0  0  0  0
    6.0123   -0.0872   -0.4939 C   0  0  0  0  0  0  0  0  0  0  0  0
    5.3830    0.5694    0.5902 C   0  0  0  0  0  0  0  0  0  0  0  0
    6.0163    1.6654    1.2066 C   0  0  0  0  0  0  0  0  0  0  0  0
    5.4898    2.1467    2.0438 H   0  0  0  0  0  0  0  0  0  0  0  0
    7.2626    2.1071    0.7570 C   0  0  0  0  0  0  0  0  0  0  0  0
    7.7571    2.9619    1.2405 H   0  0  0  0  0  0  0  0  0  0  0  0
    7.8840    1.4487   -0.3241 C   0  0  0  0  0  0  0  0  0  0  0  0
    8.8657    1.7918   -0.6845 H   0  0  0  0  0  0  0  0  0  0  0  0
    7.2707    0.3603   -0.9508 C   0  0  0  0  0  0  0  0  0  0  0  0
    7.7586   -0.1505   -1.7950 H   0  0  0  0  0  0  0  0  0  0  0  0
  3 13  2  0  0  0  0
  4 10  1  0  0  0  0
  4 14  1  0  0  0  0
  5 13  1  0  0  0  0
  5 15  1  0  0  0  0
  6  5  1  0  0  0  0
  7  9  1  0  0  0  0
  7  1  1  0  0  0  0
  7 10  1  0  0  0  0
  8  7  1  0  0  0  0
 10 11  1  0  0  0  0
 12 10  1  0  0  0  0
 13  4  1  0  0  0  0
 14  2  2  0  0  0  0
 15 16  1  0  0  0  0
 16 14  1  0  0  0  0
 16 17  2  0  0  0  0
 17 18  1  0  0  0  0
 19 17  1  0  0  0  0
 19 20  1  0  0  0  0
 21 19  2  0  0  0  0
 22 21  1  0  0  0  0
 23 15  2  0  0  0  0
 23 21  1  0  0  0  0
 24 23  1  0  0  0  0
M  END
