1
q = -1.0

 23 23  0  0  0  0  0  0  0  0999 V2000
   -0.1849   -1.4136   -0.9804 S   0  0  0  0  0  1  0  0  0  0  0  0
    7.0053    2.6459   -1.5737 F   0  0  0  0  0  0  0  0  0  0  0  0
    3.7551   -1.0473    2.3853 O   0  0  0  0  0  0  0  0  0  0  0  0
    1.1760   -1.6285    0.2474 C   0  0  0  0  0  0  0  0  0  0  0  0
    1.4385   -0.6386    0.6739 H   0  0  0  0  0  0  0  0  0  0  0  0
    0.8081   -2.2579    1.0832 H   0  0  0  0  0  0  0  0  0  0  0  0
    2.3777   -2.2685   -0.4463 C   0  0  0  0  0  0  0  0  0  0  0  0
    2.7027   -1.6145   -1.2834 H   0  0  0  0  0  0  0  0  0  0  0  0
    2.0713   -3.2314   -0.9074 H   0  0  0  0  0  0  0  0  0  0  0  0
    3.5550   -2.5326    0.5168 C   0  0  0  0  0  0  0  0  0  0  0  0
    3.2389   -3.2262    1.3205 H   0  0  0  0  0  0  0  0  0  0  0  0
    4.3842   -3.0153   -0.0418 H   0  0  0  0  0  0  0  0  0  0  0  0
    4.0421   -1.2662    1.2114 C   0  0  0  0  0  0  0  0  0  0  0  0
    4.8332   -0.2613    0.4226 C   0  0  0  0  0  0  0  0  0  0  0  0
    5.3049   -0.4920   -0.8884 C   0  0  0  0  0  0  0  0  0  0  0  0
    5.1054   -1.4483   -1.3925 H   0  0  0  0  0  0  0  0  0  0  0  0
    6.0414    0.4857   -1.5685 C   0  0  0  0  0  0  0  0  0  0  0  0
    6.4186    0.3231   -2.5881 H   0  0  0  0  0  0  0  0  0  0  0  0
    6.3021    1.7029   -0.9259 C   0  0  0  0  0  0  0  0  0  0  0  0
    5.8498    1.9631    0.3766 C   0  0  0  0  0  0  0  0  0  0  0  0
    6.0792    2.9324    0.8421 H   0  0  0  0  0  0  0  0  0  0  0  0
    5.1198    0.9761    1.0415 C   0  0  0  0  0  0  0  0  0  0  0  0
    4.7464    1.1296    2.0649 H   0  0  0  0  0  0  0  0  0  0  0  0
  1  4  1  0  0  0  0
  2 19  1  0  0  0  0
  4  5  1  0  0  0  0
  4  6  1  0  0  0  0
  7  4  1  0  0  0  0
  7 10  1  0  0  0  0
  8  7  1  0  0  0  0
  9  7  1  0  0  0  0
 10 13  1  0  0  0  0
 10 11  1  0  0  0  0
 12 10  1  0  0  0  0
 13  3  2  0  0  0  0
 14 22  1  0  0  0  0
 14 13  1  0  0  0  0
 15 14  2  0  0  0  0
 16 15  1  0  0  0  0
 17 19  2  0  0  0  0
 17 15  1  0  0  0  0
 18 17  1  0  0  0  0
 19 20  1  0  0  0  0
 20 21  1  0  0  0  0
 20 22  2  0  0  0  0
 22 23  1  0  0  0  0
M  END
