1
q = -1.0

 16 17  0  0  0  0  0  0  0  0999 V2000
   -1.0902   -1.9718   -0.7835 S   0  0  0  0  0  1  0  0  0  0  0  0
   -3.9128    0.5036    1.0807 S   0  0  0  0  0  0  0  0  0  0  0  0
   -4.1640    1.7873    0.3820 O   0  0  0  0  0  0  0  0  0  0  0  0
   -4.1003    0.4326    2.5418 O   0  0  0  0  0  0  0  0  0  0  0  0
   -2.3551   -0.0677    0.6482 N   0  0  0  0  0  0  0  0  0  0  0  0
   -2.4442   -1.1536   -0.0937 C   0  0  0  0  0  0  0  0  0  0  0  0
   -3.8292   -1.6687   -0.3411 C   0  0  0  0  0  0  0  0  0  0  0  0
   -4.2382   -2.8016   -1.0588 C   0  0  0  0  0  0  0  0  0  0  0  0
   -3.4834   -3.4497   -1.5286 H   0  0  0  0  0  0  0  0  0  0  0  0
   -5.6131   -3.0755   -1.1570 C   0  0  0  0  0  0  0  0  0  0  0  0
   -5.9520   -3.9616   -1.7145 H   0  0  0  0  0  0  0  0  0  0  0  0
   -6.5648   -2.2314   -0.5530 C   0  0  0  0  0  0  0  0  0  0  0  0
   -7.6364   -2.4654   -0.6439 H   0  0  0  0  0  0  0  0  0  0  0  0
   -6.1617   -1.0905    0.1658 C   0  0  0  0  0  0  0  0  0  0  0  0
   -6.8943   -0.4226    0.6422 H   0  0  0  0  0  0  0  0  0  0  0  0
   -4.7936   -0.8400    0.2518 C   0  0  0  0  0  0  0  0  0  0  0  0
  1  6  1  0  0  0  0
  2  4  2  0  0  0  0
  3  2  2  0  0  0  0
  5  2  1  0  0  0  0
  6  5  2  0  0  0  0
  7  6  1  0  0  0  0
  7 16  1  0  0  0  0
  8  7  2  0  0  0  0
  9  8  1  0  0  0  0
 10  8  1  0  0  0  0
 10 12  2  0  0  0  0
 11 10  1  0  0  0  0
 12 14  1  0  0  0  0
 13 12  1  0  0  0  0
 14 16  2  0  0  0  0
 14 15  1  0  0  0  0
 16  2  1  0  0  0  0
M  END
