1
q = -1.0

 12 12  0  0  0  0  0  0  0  0999 V2000
   -0.7082   -0.2163   -1.9278 S   0  0  0  0  0  0  0  0  0  0  0  0
    0.0437   -2.8050   -0.5250 F   0  0  0  0  0  0  0  0  0  0  0  0
    1.9301    1.1913   -2.3118 F   0  0  0  0  0  0  0  0  0  0  0  0
    4.7204   -2.1042   -0.3915 F   0  0  0  0  0  0  0  0  0  0  0  0
    4.3948    0.3251   -1.6230 F   0  0  0  0  0  0  0  0  0  0  0  0
    2.3735   -2.4764   -0.4487 C   0  0  0  0  0  0  0  0  0  0  0  0
    0.8983   -0.7866   -1.4648 C   0  0  0  0  0  0  0  0  0  0  0  0
    2.5268   -3.6488    0.1747 F   0  0  0  0  0  0  0  0  0  0  0  0
    3.3321   -0.4549   -1.3899 C   0  0  0  0  0  0  0  0  0  0  0  0
    2.0473   -0.0179   -1.7459 C   0  0  0  0  0  0  0  0  0  0  0  0
    1.0994   -2.0308   -0.8258 C   0  0  0  0  0  0  0  0  0  0  0  0
    3.5012   -1.6920   -0.7472 C   0  0  0  0  0  0  0  0  0  0  0  0
  1  7  1  0  0  0  0
  3 10  1  0  0  0  0
  5  9  1  0  0  0  0
  6  8  1  0  0  0  0
  7 11  1  0  0  0  0
  9 12  2  0  0  0  0
 10  7  2  0  0  0  0
 10  9  1  0  0  0  0
 11  2  1  0  0  0  0
 11  6  2  0  0  0  0
 12  6  1  0  0  0  0
 12  4  1  0  0  0  0
M  END
