1
q = -1.0, confidence = 0.0

 12 12  0  0  0  0  0  0  0  0999 V2000
   -2.3009   -1.8779    1.3291 S   0  0  0  0  0  1  0  0  0  0  0  0
   -2.0950    1.1977    1.6448 F   0  0  0  0  0  0  0  0  0  0  0  0
   -3.5643    3.0555    0.3887 F   0  0  0  0  0  0  0  0  0  0  0  0
   -6.1981   -0.3488   -1.6274 F   0  0  0  0  0  0  0  0  0  0  0  0
   -4.6569   -2.2365   -0.4739 F   0  0  0  0  0  0  0  0  0  0  0  0
   -3.3026   -0.5994    0.6098 C   0  0  0  0  0  0  0  0  0  0  0  0
   -3.0938    0.7797    0.8408 C   0  0  0  0  0  0  0  0  0  0  0  0
   -3.8639    1.7551    0.1935 C   0  0  0  0  0  0  0  0  0  0  0  0
   -4.9308    1.3960   -0.6357 C   0  0  0  0  0  0  0  0  0  0  0  0
   -5.1867    0.0347   -0.8316 C   0  0  0  0  0  0  0  0  0  0  0  0
   -4.3921   -0.9500   -0.2206 C   0  0  0  0  0  0  0  0  0  0  0  0
   -5.5463    2.1600   -1.1276 H   0  0  0  0  0  0  0  0  0  0  0  0
  4 10  1  0  0  0  0
  5 11  1  0  0  0  0
  6  7  1  0  0  0  0
  6  1  1  0  0  0  0
  7  2  1  0  0  0  0
  8  3  1  0  0  0  0
  8  7  2  0  0  0  0
  9  8  1  0  0  0  0
 10  9  2  0  0  0  0
 10 11  1  0  0  0  0
 11  6  2  0  0  0  0
 12  9  1  0  0  0  0
M  END
