1
q = -1.0

 10 10  0  0  0  0  0  0  0  0999 V2000
   -1.6433    0.5475   -1.5700 S   0  0  0  0  0  1  0  0  0  0  0  0
   -2.4354   -0.1886    0.8847 N   0  0  0  0  0  0  0  0  0  0  0  0
   -4.1447    0.1943   -0.7754 N   0  0  0  0  0  0  0  0  0  0  0  0
   -2.8404    0.1438   -0.3796 C   0  0  0  0  0  0  0  0  0  0  0  0
   -5.0581   -0.2189    0.1022 C   0  0  0  0  0  0  0  0  0  0  0  0
   -6.1145   -0.1739   -0.2302 H   0  0  0  0  0  0  0  0  0  0  0  0
   -4.7374   -0.6882    1.3902 C   0  0  0  0  0  0  0  0  0  0  0  0
   -5.5012   -1.0494    2.0937 H   0  0  0  0  0  0  0  0  0  0  0  0
   -3.3766   -0.6109    1.7313 C   0  0  0  0  0  0  0  0  0  0  0  0
   -3.0311   -0.8880    2.7461 H   0  0  0  0  0  0  0  0  0  0  0  0
  1  4  1  0  0  0  0
  2  9  1  0  0  0  0
  3  4  1  0  0  0  0
  3  5  2  0  0  0  0
  4  2  2  0  0  0  0
  5  7  1  0  0  0  0
  6  5  1  0  0  0  0
  7  9  2  0  0  0  0
  7  8  1  0  0  0  0
  9 10  1  0  0  0  0
M  END
