1
q = -1.0

 31 34  0  0  1  0  0  0  0  0999 V2000
   -0.8466   -2.5203   -0.1500 S   0  0  0  0  0  1  0  0  0  0  0  0
   -3.2513   -1.3356   -0.0739 O   0  0  0  0  0  0  0  0  0  0  0  0
   -2.8150    0.8361    0.0892 N   0  0  0  0  0  0  0  0  0  0  0  0
   -3.7608   -0.0604    0.0141 C   0  0  0  0  0  0  0  0  0  0  0  0
   -1.6067    0.1520    0.0531 N   0  0  0  0  0  0  0  0  0  0  0  0
   -5.2433    0.1230    0.0203 C   0  0  1  0  0  0  0  0  0  0  0  0
   -1.8919   -1.1332   -0.0468 C   0  0  0  0  0  0  0  0  0  0  0  0
   -5.8675   -0.5844    1.2567 C   0  0  0  0  0  0  0  0  0  0  0  0
   -5.6151   -1.6652    1.2295 H   0  0  0  0  0  0  0  0  0  0  0  0
   -5.4162   -0.1665    2.1816 H   0  0  0  0  0  0  0  0  0  0  0  0
   -7.3973   -0.2871   -1.2517 C   0  0  2  0  0  0  0  0  0  0  0  0
   -7.8273   -0.7253   -2.1776 H   0  0  0  0  0  0  0  0  0  0  0  0
   -7.7163    1.2193   -1.1923 C   0  0  0  0  0  0  0  0  0  0  0  0
   -7.3043    1.7321   -2.0880 H   0  0  0  0  0  0  0  0  0  0  0  0
   -8.8164    1.3771   -1.2064 H   0  0  0  0  0  0  0  0  0  0  0  0
   -7.3941   -0.3838    1.2639 C   0  0  2  0  0  0  0  0  0  0  0  0
   -7.8215   -0.8922    2.1545 H   0  0  0  0  0  0  0  0  0  0  0  0
   -7.9973   -0.9895   -0.0183 C   0  0  0  0  0  0  0  0  0  0  0  0
   -9.1024   -0.8720   -0.0124 H   0  0  0  0  0  0  0  0  0  0  0  0
   -7.7877   -2.0801   -0.0604 H   0  0  0  0  0  0  0  0  0  0  0  0
   -5.5828    1.6300    0.0799 C   0  0  0  0  0  0  0  0  0  0  0  0
   -5.1236    2.1445   -0.7894 H   0  0  0  0  0  0  0  0  0  0  0  0
   -5.1206    2.0754    0.9849 H   0  0  0  0  0  0  0  0  0  0  0  0
   -7.7129    1.1226    1.3220 C   0  0  0  0  0  0  0  0  0  0  0  0
   -7.2979    1.5647    2.2534 H   0  0  0  0  0  0  0  0  0  0  0  0
   -8.8129    1.2789    1.3515 H   0  0  0  0  0  0  0  0  0  0  0  0
   -7.1100    1.8242    0.0892 C   0  0  2  0  0  0  0  0  0  0  0  0
   -7.3355    2.9110    0.1313 H   0  0  0  0  0  0  0  0  0  0  0  0
   -5.8706   -0.4869   -1.2646 C   0  0  0  0  0  0  0  0  0  0  0  0
   -5.4227    0.0011   -2.1564 H   0  0  0  0  0  0  0  0  0  0  0  0
   -5.6177   -1.5662   -1.3222 H   0  0  0  0  0  0  0  0  0  0  0  0
  1  7  1  0  0  0  0
  2  7  1  0  0  0  0
  2  4  1  0  0  0  0
  4  3  2  0  0  0  0
  5  3  1  0  0  0  0
  6  4  1  6  0  0  0
  6 21  1  0  0  0  0
  6  8  1  0  0  0  0
  7  5  2  0  0  0  0
  8 16  1  0  0  0  0
  8 10  1  0  0  0  0
  9  8  1  0  0  0  0
 11 12  1  6  0  0  0
 11 13  1  0  0  0  0
 11 18  1  0  0  0  0
 13 27  1  0  0  0  0
 14 13  1  0  0  0  0
 15 13  1  0  0  0  0
 16 24  1  0  0  0  0
 16 17  1  1  0  0  0
 18 19  1  0  0  0  0
 18 16  1  0  0  0  0
 20 18  1  0  0  0  0
 21 27  1  0  0  0  0
 21 23  1  0  0  0  0
 22 21  1  0  0  0  0
 24 26  1  0  0  0  0
 24 25  1  0  0  0  0
 27 28  1  1  0  0  0
 27 24  1  0  0  0  0
 29 11  1  0  0  0  0
 29  6  1  0  0  0  0
 30 29  1  0  0  0  0
 31 29  1  0  0  0  0
M  END
