1
q = -1.0

  7  6  0  0  0  0  0  0  0  0999 V2000
    0.1004   -2.1471   -0.9948 S   0  0  0  0  0  1  0  0  0  0  0  0
    0.9416   -3.1111    0.2293 C   0  0  0  0  0  0  0  0  0  0  0  0
    1.2000   -2.7249    1.3709 O   0  0  0  0  0  0  0  0  0  0  0  0
    1.3637   -4.4864   -0.2531 C   0  0  0  0  0  0  0  0  0  0  0  0
    1.2949   -5.2043    0.5873 H   0  0  0  0  0  0  0  0  0  0  0  0
    0.7687   -4.8373   -1.1167 H   0  0  0  0  0  0  0  0  0  0  0  0
    2.4279   -4.4235   -0.5642 H   0  0  0  0  0  0  0  0  0  0  0  0
  1  2  1  0  0  0  0
  2  3  2  0  0  0  0
  4  2  1  0  0  0  0
  4  5  1  0  0  0  0
  6  4  1  0  0  0  0
  7  4  1  0  0  0  0
M  END
