1
q = -1.0

 11 10  0  0  1  0  0  0  0  0999 V2000
    3.2390   -1.3554   -1.0348 S   0  0  0  0  0  1  0  0  0  0  0  0
    4.9916    1.4872   -0.6191 O   0  0  0  0  0  0  0  0  0  0  0  0
    3.1537    1.6670    0.6746 O   0  0  0  0  0  0  0  0  0  0  0  0
    3.7382   -0.9890    1.7421 C   0  0  0  0  0  0  0  0  0  0  0  0
    4.1676   -0.5297    0.3537 C   0  0  2  0  0  0  0  0  0  0  0  0
    4.0269    0.9693    0.1773 C   0  0  0  0  0  0  0  0  0  0  0  0
    4.3877   -0.5476    2.5279 H   0  0  0  0  0  0  0  0  0  0  0  0
    2.6935   -0.6760    1.9389 H   0  0  0  0  0  0  0  0  0  0  0  0
    3.7928   -2.0920    1.8088 H   0  0  0  0  0  0  0  0  0  0  0  0
    5.2241   -0.7989    0.1511 H   0  0  0  0  0  0  0  0  0  0  0  0
    4.7627    2.4373   -0.7158 H   0  0  0  0  0  0  0  0  0  0  0  0
  1  5  1  0  0  0  0
  2  6  1  0  0  0  0
  4  9  1  0  0  0  0
  4  8  1  0  0  0  0
  4  7  1  0  0  0  0
  5 10  1  6  0  0  0
  5  4  1  0  0  0  0
  6  5  1  0  0  0  0
  6  3  2  0  0  0  0
 11  2  1  0  0  0  0
M  END
