1
q = -1.0

 14 14  0  0  0  0  0  0  0  0999 V2000
   -2.0084   -2.4595   -0.0805 S   0  0  0  0  0  1  0  0  0  0  0  0
   -7.9222    0.5472    0.1296 O   0  0  0  0  0  0  0  0  0  0  0  0
   -6.7240    2.4619   -0.0044 O   0  0  0  0  0  0  0  0  0  0  0  0
   -4.5568   -1.8436    0.0251 N   0  0  0  0  0  0  0  0  0  0  0  0
   -5.6283   -1.0473    0.0520 C   0  0  0  0  0  0  0  0  0  0  0  0
   -5.5617    0.3617   -0.0019 C   0  0  0  0  0  0  0  0  0  0  0  0
   -6.7521    1.2399    0.0380 C   0  0  0  0  0  0  0  0  0  0  0  0
   -4.2789    0.9450   -0.1028 C   0  0  0  0  0  0  0  0  0  0  0  0
   -3.1566    0.1274   -0.1379 C   0  0  0  0  0  0  0  0  0  0  0  0
   -3.3318   -1.2845   -0.0619 C   0  0  0  0  0  0  0  0  0  0  0  0
   -6.6119   -1.5433    0.1223 H   0  0  0  0  0  0  0  0  0  0  0  0
   -8.6193    1.2371    0.1470 H   0  0  0  0  0  0  0  0  0  0  0  0
   -4.1989    2.0416   -0.1551 H   0  0  0  0  0  0  0  0  0  0  0  0
   -2.1467    0.5549   -0.2260 H   0  0  0  0  0  0  0  0  0  0  0  0
  1 10  1  0  0  0  0
  2 12  1  0  0  0  0
  3  7  2  0  0  0  0
  4  5  1  0  0  0  0
  5 11  1  0  0  0  0
  6  7  1  0  0  0  0
  6  5  2  0  0  0  0
  7  2  1  0  0  0  0
  8  6  1  0  0  0  0
  9  8  2  0  0  0  0
  9 10  1  0  0  0  0
 10  4  2  0  0  0  0
 13  8  1  0  0  0  0
 14  9  1  0  0  0  0
M  END
