1
q = -1.0, confidence = 0.0

 16 15  0  0  0  0  0  0  0  0999 V2000
   -0.2660   -0.4535   -1.7723 S   0  0  0  0  0  1  0  0  0  0  0  0
   -4.1651   -2.0418   -0.2167 P   0  0  0  0  0  0  0  0  0  0  0  0
   -1.4512   -1.5217   -0.8507 C   0  0  0  0  0  0  0  0  0  0  0  0
   -2.8714   -1.3580   -1.3867 C   0  0  0  0  0  0  0  0  0  0  0  0
   -3.9238   -3.8707   -0.4875 C   0  0  0  0  0  0  0  0  0  0  0  0
   -5.6688   -1.7553   -1.2764 C   0  0  0  0  0  0  0  0  0  0  0  0
   -1.0815   -2.5651   -0.9366 H   0  0  0  0  0  0  0  0  0  0  0  0
   -1.3853   -1.2362    0.2201 H   0  0  0  0  0  0  0  0  0  0  0  0
   -2.9755   -1.8076   -2.3989 H   0  0  0  0  0  0  0  0  0  0  0  0
   -3.1216   -0.2788   -1.4801 H   0  0  0  0  0  0  0  0  0  0  0  0
   -4.7346   -4.4318    0.0196 H   0  0  0  0  0  0  0  0  0  0  0  0
   -3.9193   -4.1394   -1.5653 H   0  0  0  0  0  0  0  0  0  0  0  0
   -2.9624   -4.1883   -0.0363 H   0  0  0  0  0  0  0  0  0  0  0  0
   -5.8338   -0.6614   -1.3543 H   0  0  0  0  0  0  0  0  0  0  0  0
   -5.5574   -2.1788   -2.2971 H   0  0  0  0  0  0  0  0  0  0  0  0
   -6.5582   -2.2073   -0.7933 H   0  0  0  0  0  0  0  0  0  0  0  0
  1  3  1  0  0  0  0
  3  8  1  0  0  0  0
  4  3  1  0  0  0  0
  4  2  1  0  0  0  0
  5  2  1  0  0  0  0
  5 13  1  0  0  0  0
  5 11  1  0  0  0  0
  6 16  1  0  0  0  0
  6  2  1  0  0  0  0
  7  3  1  0  0  0  0
  9  4  1  0  0  0  0
 10  4  1  0  0  0  0
 12  5  1  0  0  0  0
 14  6  1  0  0  0  0
 15  6  1  0  0  0  0
M  END
