1
q = -1.0

 17 18  0  0  0  0  0  0  0  0999 V2000
    2.2183   -0.1434   -0.8371 S   0  0  0  0  0  1  0  0  0  0  0  0
    3.0000    0.9101    0.2969 C   0  0  0  0  0  0  0  0  0  0  0  0
    2.3987    1.7951    1.1141 N   0  0  0  0  0  0  0  0  0  0  0  0
    3.3770    2.3864    1.8418 N   0  0  0  0  0  0  0  0  0  0  0  0
    4.5451    1.9306    1.5348 N   0  0  0  0  0  0  0  0  0  0  0  0
    4.3523    0.9876    0.5534 N   0  0  0  0  0  0  0  0  0  0  0  0
    5.4529    0.2555    0.0361 C   0  0  0  0  0  0  0  0  0  0  0  0
    6.5724    0.0423    0.8649 C   0  0  0  0  0  0  0  0  0  0  0  0
    6.5661    0.4530    1.8831 H   0  0  0  0  0  0  0  0  0  0  0  0
    7.6662   -0.6778    0.3703 C   0  0  0  0  0  0  0  0  0  0  0  0
    8.5400   -0.8437    1.0182 H   0  0  0  0  0  0  0  0  0  0  0  0
    7.6497   -1.1920   -0.9372 C   0  0  0  0  0  0  0  0  0  0  0  0
    8.5096   -1.7629   -1.3179 H   0  0  0  0  0  0  0  0  0  0  0  0
    6.5328   -0.9690   -1.7564 C   0  0  0  0  0  0  0  0  0  0  0  0
    6.5150   -1.3575   -2.7857 H   0  0  0  0  0  0  0  0  0  0  0  0
    5.4334   -0.2397   -1.2808 C   0  0  0  0  0  0  0  0  0  0  0  0
    4.5671   -0.0466   -1.9283 H   0  0  0  0  0  0  0  0  0  0  0  0
  1  2  1  0  0  0  0
  2  6  1  0  0  0  0
  2  3  2  0  0  0  0
  3  4  1  0  0  0  0
  5  4  2  0  0  0  0
  6  5  1  0  0  0  0
  7  6  1  0  0  0  0
  7  8  1  0  0  0  0
  8  9  1  0  0  0  0
 10  8  2  0  0  0  0
 10 11  1  0  0  0  0
 12 10  1  0  0  0  0
 13 12  1  0  0  0  0
 14 16  1  0  0  0  0
 14 12  2  0  0  0  0
 15 14  1  0  0  0  0
 16  7  2  0  0  0  0
 17 16  1  0  0  0  0
M  END
