1
q = -1.0

 29 30  0  0  0  0  0  0  0  0999 V2000
   -2.3862   -2.0084   -0.2935 S   0  0  0  0  0  1  0  0  0  0  0  0
   -0.8555    0.4262   -1.3539 N   0  0  0  0  0  0  0  0  0  0  0  0
   -2.1119    0.6188   -1.3021 N   0  0  0  0  0  0  0  0  0  0  0  0
   -4.1954   -0.0286   -0.7718 N   0  0  0  0  0  0  0  0  0  0  0  0
   -5.0554   -0.8812   -0.2679 N   0  0  0  0  0  0  0  0  0  0  0  0
   -4.7016   -1.7853    0.0993 H   0  0  0  0  0  0  0  0  0  0  0  0
   -0.0565    1.5365   -1.6864 C   0  0  0  0  0  0  0  0  0  0  0  0
    1.3232    1.3014   -1.8773 C   0  0  0  0  0  0  0  0  0  0  0  0
    1.7049    0.2707   -1.8126 H   0  0  0  0  0  0  0  0  0  0  0  0
    2.1883    2.3729   -2.1264 C   0  0  0  0  0  0  0  0  0  0  0  0
    3.2642    2.1843   -2.2580 H   0  0  0  0  0  0  0  0  0  0  0  0
    1.6854    3.6831   -2.1911 C   0  0  0  0  0  0  0  0  0  0  0  0
    2.3675    4.5265   -2.3771 H   0  0  0  0  0  0  0  0  0  0  0  0
    0.3088    3.9172   -2.0074 C   0  0  0  0  0  0  0  0  0  0  0  0
   -0.0826    4.9453   -2.0480 H   0  0  0  0  0  0  0  0  0  0  0  0
   -0.5633    2.8560   -1.7545 C   0  0  0  0  0  0  0  0  0  0  0  0
   -1.6366    3.0115   -1.5794 H   0  0  0  0  0  0  0  0  0  0  0  0
   -2.9161   -0.3886   -0.8278 C   0  0  0  0  0  0  0  0  0  0  0  0
   -6.4149   -0.5846   -0.1407 C   0  0  0  0  0  0  0  0  0  0  0  0
   -6.9410    0.6454   -0.5927 C   0  0  0  0  0  0  0  0  0  0  0  0
   -6.2588    1.3755   -1.0482 H   0  0  0  0  0  0  0  0  0  0  0  0
   -8.3094    0.8976   -0.4492 C   0  0  0  0  0  0  0  0  0  0  0  0
   -8.7184    1.8563   -0.8028 H   0  0  0  0  0  0  0  0  0  0  0  0
   -9.1618   -0.0546    0.1378 C   0  0  0  0  0  0  0  0  0  0  0  0
  -10.2362    0.1543    0.2456 H   0  0  0  0  0  0  0  0  0  0  0  0
   -8.6303   -1.2756    0.5852 C   0  0  0  0  0  0  0  0  0  0  0  0
   -9.2868   -2.0288    1.0462 H   0  0  0  0  0  0  0  0  0  0  0  0
   -7.2637   -1.5461    0.4495 C   0  0  0  0  0  0  0  0  0  0  0  0
   -6.8457   -2.5031    0.7996 H   0  0  0  0  0  0  0  0  0  0  0  0
  2  3  2  0  0  0  0
  3 18  1  0  0  0  0
  4  5  1  0  0  0  0
  5 19  1  0  0  0  0
  5  6  1  0  0  0  0
  7  2  1  0  0  0  0
  8  9  1  0  0  0  0
  8  7  2  0  0  0  0
 10  8  1  0  0  0  0
 11 10  1  0  0  0  0
 12 10  2  0  0  0  0
 12 14  1  0  0  0  0
 13 12  1  0  0  0  0
 14 16  2  0  0  0  0
 15 14  1  0  0  0  0
 16  7  1  0  0  0  0
 16 17  1  0  0  0  0
 18  4  2  0  0  0  0
 18  1  1  0  0  0  0
 19 28  1  0  0  0  0
 20 22  1  0  0  0  0
 20 19  2  0  0  0  0
 21 20  1  0  0  0  0
 22 24  2  0  0  0  0
 23 22  1  0  0  0  0
 24 25  1  0  0  0  0
 24 26  1  0  0  0  0
 26 27  1  0  0  0  0
 28 26  2  0  0  0  0
 28 29  1  0  0  0  0
M  END
