2
q = 0.0, confidence = 0.974

 11 11  0  0  1  0  0  0  0  0999 V2000
    6.5538    0.1107    0.0007 O   0  0  0  0  0  0  0  0  0  0  0  0
    1.9062   -1.8085   -0.0009 S   0  0  0  0  0  1  0  0  0  0  0  0
    3.0728    0.6689    0.0013 N   0  0  0  0  0  0  0  0  0  0  0  0
    2.1450    1.1502    0.0011 H   0  0  0  0  0  0  0  0  0  0  0  0
    3.1543   -0.6716    0.0001 C   0  0  1  0  0  3  0  0  0  0  0  0
    4.5011   -1.0107   -0.0002 N   0  0  0  0  0  0  0  0  0  0  0  0
    4.8280   -1.9787   -0.0009 H   0  0  0  0  0  0  0  0  0  0  0  0
    5.3420    0.1083    0.0007 C   0  0  0  0  0  0  0  0  0  0  0  0
    4.3726    1.3022    0.0016 C   0  0  0  0  0  0  0  0  0  0  0  0
    4.5464    1.9351    0.8992 H   0  0  0  0  0  0  0  0  0  0  0  0
    4.5462    1.9362   -0.8952 H   0  0  0  0  0  0  0  0  0  0  0  0
  1  8  2  0  0  0  0
  3  9  1  0  0  0  0
  4  3  1  0  0  0  0
  5  2  1  1  0  0  0
  5  3  1  0  0  0  0
  6  5  1  0  0  0  0
  6  8  1  0  0  0  0
  7  6  1  0  0  0  0
  8  9  1  0  0  0  0
  9 10  1  0  0  0  0
 11  9  1  0  0  0  0
M  END
