1
q = -1.0

  8  7  0  0  0  0  0  0  0  0999 V2000
    0.5057   -0.7614   -2.0658 S   0  0  0  0  0  1  0  0  0  0  0  0
    2.9787   -0.9779   -3.7000 S   0  0  0  0  0  0  0  0  0  0  0  0
    2.8050   -1.5455   -1.0972 O   0  0  0  0  0  0  0  0  0  0  0  0
    2.2109   -1.1148   -2.2375 C   0  0  0  0  0  0  0  0  0  0  0  0
    4.1865   -1.9167   -1.1635 C   0  0  0  0  0  0  0  0  0  0  0  0
    4.8157   -1.0492   -1.4504 H   0  0  0  0  0  0  0  0  0  0  0  0
    4.3414   -2.7166   -1.9151 H   0  0  0  0  0  0  0  0  0  0  0  0
    4.4469   -2.2701   -0.1484 H   0  0  0  0  0  0  0  0  0  0  0  0
  2  4  2  0  0  0  0
  4  1  1  0  0  0  0
  4  3  1  0  0  0  0
  5  3  1  0  0  0  0
  5  8  1  0  0  0  0
  6  5  1  0  0  0  0
  7  5  1  0  0  0  0
M  END
