1
q = -1.0

 17 16  0  0  0  0  0  0  0  0999 V2000
    2.1646   -0.9722   -0.9628 S   0  0  0  0  0  1  0  0  0  0  0  0
    3.0586    0.2971    0.0494 C   0  0  0  0  0  0  0  0  0  0  0  0
    2.5481    1.2777   -0.0415 H   0  0  0  0  0  0  0  0  0  0  0  0
    3.0445    0.0022    1.1186 H   0  0  0  0  0  0  0  0  0  0  0  0
    4.4988    0.4013   -0.4525 C   0  0  0  0  0  0  0  0  0  0  0  0
    4.4900    0.6644   -1.5331 H   0  0  0  0  0  0  0  0  0  0  0  0
    4.9815   -0.5983   -0.3841 H   0  0  0  0  0  0  0  0  0  0  0  0
    5.3248    1.4311    0.3260 C   0  0  0  0  0  0  0  0  0  0  0  0
    4.8321    2.4277    0.2599 H   0  0  0  0  0  0  0  0  0  0  0  0
    5.3226    1.1663    1.4077 H   0  0  0  0  0  0  0  0  0  0  0  0
    6.7718    1.5483   -0.1637 C   0  0  0  0  0  0  0  0  0  0  0  0
    7.2587    0.5499   -0.0990 H   0  0  0  0  0  0  0  0  0  0  0  0
    6.7689    1.8092   -1.2454 H   0  0  0  0  0  0  0  0  0  0  0  0
    7.5949    2.5759    0.6135 C   0  0  0  0  0  0  0  0  0  0  0  0
    8.6357    2.6379    0.2371 H   0  0  0  0  0  0  0  0  0  0  0  0
    7.6446    2.3202    1.6927 H   0  0  0  0  0  0  0  0  0  0  0  0
    7.1507    3.5904    0.5365 H   0  0  0  0  0  0  0  0  0  0  0  0
  1  2  1  0  0  0  0
  2  4  1  0  0  0  0
  3  2  1  0  0  0  0
  5  7  1  0  0  0  0
  5  2  1  0  0  0  0
  5  8  1  0  0  0  0
  6  5  1  0  0  0  0
  8 10  1  0  0  0  0
  9  8  1  0  0  0  0
 11 12  1  0  0  0  0
 11  8  1  0  0  0  0
 11 14  1  0  0  0  0
 13 11  1  0  0  0  0
 14 16  1  0  0  0  0
 15 14  1  0  0  0  0
 17 14  1  0  0  0  0
M  END
