1
q = 0.0, confidence = 0.996

 38 39  0  0  1  0  0  0  0  0999 V2000
    1.0058   -1.3274   -1.8001 S   0  0  0  0  0  1  0  0  0  0  0  0
    4.8477    4.1635   -0.8661 O   0  0  0  0  0  0  0  0  0  0  0  0
    5.0647    1.7051   -1.6971 O   0  0  0  0  0  0  0  0  0  0  0  0
   -1.5014   -0.3600   -1.6858 N   0  0  0  0  0  0  0  0  0  0  0  0
   -1.7098   -1.3727   -1.7206 H   0  0  0  0  0  0  0  0  0  0  0  0
   -2.3457    1.7803   -1.6334 O   0  0  0  0  0  0  0  0  0  0  0  0
   -6.3023    0.5780   -1.2424 C   0  0  0  0  0  0  0  0  0  0  0  0
   -7.1024    1.3328   -1.2363 H   0  0  0  0  0  0  0  0  0  0  0  0
   -4.9737    0.9797   -1.4098 C   0  0  0  0  0  0  0  0  0  0  0  0
   -4.7115    2.0397   -1.5306 H   0  0  0  0  0  0  0  0  0  0  0  0
    0.1595    1.2545   -1.7337 N   0  0  0  0  0  0  0  0  0  0  0  0
   -0.7248    1.8315   -1.7138 H   0  0  0  0  0  0  0  0  0  0  0  0
   -6.6089   -0.7820   -1.0669 C   0  0  0  0  0  0  0  0  0  0  0  0
   -7.6550   -1.0993   -0.9368 H   0  0  0  0  0  0  0  0  0  0  0  0
    4.7844    5.5100   -0.4384 C   0  0  0  0  0  0  0  0  0  0  0  0
    4.2097    5.6164    0.5094 H   0  0  0  0  0  0  0  0  0  0  0  0
    4.3248    6.1690   -1.2094 H   0  0  0  0  0  0  0  0  0  0  0  0
    5.8276    5.8334   -0.2663 H   0  0  0  0  0  0  0  0  0  0  0  0
    3.6796    3.5241   -1.1303 C   0  0  0  0  0  0  0  0  0  0  0  0
   -0.1329   -0.0578   -1.7351 C   0  0  2  0  0  3  0  0  0  0  0  0
   -5.5777   -1.7350   -1.0496 C   0  0  0  0  0  0  0  0  0  0  0  0
   -5.8060   -2.8012   -0.9030 H   0  0  0  0  0  0  0  0  0  0  0  0
   -2.5484    0.5533   -1.5774 C   0  0  0  0  0  0  0  0  0  0  0  0
    2.6518    1.3958   -1.7794 C   0  0  0  0  0  0  0  0  0  0  0  0
    2.7329    0.3454   -2.0744 H   0  0  0  0  0  0  0  0  0  0  0  0
    1.2525    3.3232   -1.2661 C   0  0  0  0  0  0  0  0  0  0  0  0
    0.2560    3.7765   -1.1671 H   0  0  0  0  0  0  0  0  0  0  0  0
    3.7990    2.1649   -1.5524 C   0  0  0  0  0  0  0  0  0  0  0  0
    2.4004    4.0907   -1.0222 C   0  0  0  0  0  0  0  0  0  0  0  0
    2.2858    5.1427   -0.7305 H   0  0  0  0  0  0  0  0  0  0  0  0
    1.3686    1.9621   -1.6044 C   0  0  0  0  0  0  0  0  0  0  0  0
   -3.9323    0.0247   -1.4026 C   0  0  0  0  0  0  0  0  0  0  0  0
   -4.2430   -1.3383   -1.2105 C   0  0  0  0  0  0  0  0  0  0  0  0
   -3.4610   -2.1129   -1.1719 H   0  0  0  0  0  0  0  0  0  0  0  0
    5.2353    0.3629   -2.1241 C   0  0  0  0  0  0  0  0  0  0  0  0
    4.7746   -0.3559   -1.4132 H   0  0  0  0  0  0  0  0  0  0  0  0
    6.3253    0.1852   -2.1586 H   0  0  0  0  0  0  0  0  0  0  0  0
    4.8021    0.1995   -3.1358 H   0  0  0  0  0  0  0  0  0  0  0  0
  2 15  1  0  0  0  0
  3 28  1  0  0  0  0
  4 23  1  0  0  0  0
  5  4  1  0  0  0  0
  6 23  2  0  0  0  0
  7  8  1  0  0  0  0
  7 13  1  0  0  0  0
  9 32  1  0  0  0  0
  9  7  2  0  0  0  0
 10  9  1  0  0  0  0
 11 12  1  0  0  0  0
 11 31  1  0  0  0  0
 13 21  2  0  0  0  0
 13 14  1  0  0  0  0
 15 18  1  0  0  0  0
 15 16  1  0  0  0  0
 17 15  1  0  0  0  0
 19 29  1  0  0  0  0
 19  2  1  0  0  0  0
 20  1  1  6  0  0  0
 20 11  1  0  0  0  0
 20  4  1  0  0  0  0
 21 22  1  0  0  0  0
 23 32  1  0  0  0  0
 24 31  2  0  0  0  0
 24 28  1  0  0  0  0
 25 24  1  0  0  0  0
 26 27  1  0  0  0  0
 26 29  2  0  0  0  0
 28 19  2  0  0  0  0
 29 30  1  0  0  0  0
 31 26  1  0  0  0  0
 32 33  2  0  0  0  0
 33 34  1  0  0  0  0
 33 21  1  0  0  0  0
 35  3  1  0  0  0  0
 35 36  1  0  0  0  0
 37 35  1  0  0  0  0
 38 35  1  0  0  0  0
M  END
