1
q = -1.0

 12 12  0  0  0  0  0  0  0  0999 V2000
    1.7369    0.1478   -1.2011 S   0  0  0  0  0  1  0  0  0  0  0  0
    2.4402    1.2301    1.1447 O   0  0  0  0  0  0  0  0  0  0  0  0
    2.7740    0.9281    0.0070 C   0  0  0  0  0  0  0  0  0  0  0  0
    5.0575    1.7974    0.3756 C   0  0  0  0  0  0  0  0  0  0  0  0
    6.2272    1.9054   -0.3512 C   0  0  0  0  0  0  0  0  0  0  0  0
    4.6665    0.9215   -1.6816 C   0  0  0  0  0  0  0  0  0  0  0  0
    5.9798    1.3504   -1.6548 C   0  0  0  0  0  0  0  0  0  0  0  0
    4.1019    1.1946   -0.4382 N   0  0  0  0  0  0  0  0  0  0  0  0
    4.7854    2.0850    1.3949 H   0  0  0  0  0  0  0  0  0  0  0  0
    7.1669    2.3392    0.0100 H   0  0  0  0  0  0  0  0  0  0  0  0
    4.0712    0.4473   -2.4680 H   0  0  0  0  0  0  0  0  0  0  0  0
    6.6922    1.2767   -2.4848 H   0  0  0  0  0  0  0  0  0  0  0  0
  1  3  1  0  0  0  0
  3  2  2  0  0  0  0
  4  9  1  0  0  0  0
  5 10  1  0  0  0  0
  5  4  2  0  0  0  0
  6  7  2  0  0  0  0
  6  8  1  0  0  0  0
  7  5  1  0  0  0  0
  8  3  1  0  0  0  0
  8  4  1  0  0  0  0
 11  6  1  0  0  0  0
 12  7  1  0  0  0  0
M  END
