1
q = -1.0

 41 40  0  0  0  0  0  0  0  0999 V2000
    1.1895   -0.0019   -1.5420 S   0  0  0  0  0  1  0  0  0  0  0  0
    2.6318    1.8421    0.4265 Si  0  0  0  0  0  0  0  0  0  0  0  0
    4.0368   -0.6464   -1.0168 Si  0  0  0  0  0  0  0  0  0  0  0  0
    1.9342   -1.1586    1.3075 Si  0  0  0  0  0  0  0  0  0  0  0  0
    2.4471    0.0109   -0.1310 C   0  0  0  0  0  0  0  0  0  0  0  0
    0.9655    2.6875    0.7661 C   0  0  0  0  0  0  0  0  0  0  0  0
    0.3721    2.1764    1.5471 H   0  0  0  0  0  0  0  0  0  0  0  0
    1.1603    3.7265    1.1059 H   0  0  0  0  0  0  0  0  0  0  0  0
    0.3597    2.7301   -0.1604 H   0  0  0  0  0  0  0  0  0  0  0  0
    3.4636    2.9064   -0.9051 C   0  0  0  0  0  0  0  0  0  0  0  0
    4.5316    2.6553   -1.0585 H   0  0  0  0  0  0  0  0  0  0  0  0
    2.9319    2.7921   -1.8708 H   0  0  0  0  0  0  0  0  0  0  0  0
    3.4068    3.9730   -0.6035 H   0  0  0  0  0  0  0  0  0  0  0  0
    3.6590    2.0039    2.0233 C   0  0  0  0  0  0  0  0  0  0  0  0
    4.6611    1.5429    1.9293 H   0  0  0  0  0  0  0  0  0  0  0  0
    3.8028    3.0805    2.2530 H   0  0  0  0  0  0  0  0  0  0  0  0
    3.1520    1.5441    2.8953 H   0  0  0  0  0  0  0  0  0  0  0  0
    4.2399    0.0561   -2.7673 C   0  0  0  0  0  0  0  0  0  0  0  0
    4.3577    1.1552   -2.7861 H   0  0  0  0  0  0  0  0  0  0  0  0
    5.1501   -0.3957   -3.2157 H   0  0  0  0  0  0  0  0  0  0  0  0
    3.3715   -0.2079   -3.4020 H   0  0  0  0  0  0  0  0  0  0  0  0
    5.6237   -0.2144   -0.0610 C   0  0  0  0  0  0  0  0  0  0  0  0
    5.8099    0.8782   -0.0468 H   0  0  0  0  0  0  0  0  0  0  0  0
    5.6128   -0.5759    0.9850 H   0  0  0  0  0  0  0  0  0  0  0  0
    6.4847   -0.6907   -0.5752 H   0  0  0  0  0  0  0  0  0  0  0  0
    3.9790   -2.5299   -1.2491 C   0  0  0  0  0  0  0  0  0  0  0  0
    4.0535   -3.0973   -0.3008 H   0  0  0  0  0  0  0  0  0  0  0  0
    3.0408   -2.8206   -1.7625 H   0  0  0  0  0  0  0  0  0  0  0  0
    4.8303   -2.8352   -1.8926 H   0  0  0  0  0  0  0  0  0  0  0  0
    3.4188   -1.6398    2.3970 C   0  0  0  0  0  0  0  0  0  0  0  0
    3.9459   -0.7543    2.8023 H   0  0  0  0  0  0  0  0  0  0  0  0
    3.0504   -2.2370    3.2573 H   0  0  0  0  0  0  0  0  0  0  0  0
    4.1574   -2.2608    1.8529 H   0  0  0  0  0  0  0  0  0  0  0  0
    1.1270   -2.7691    0.7124 C   0  0  0  0  0  0  0  0  0  0  0  0
    1.8413   -3.4325    0.1906 H   0  0  0  0  0  0  0  0  0  0  0  0
    0.7266   -3.3164    1.5916 H   0  0  0  0  0  0  0  0  0  0  0  0
    0.2919   -2.5579    0.0150 H   0  0  0  0  0  0  0  0  0  0  0  0
    0.6803   -0.3559    2.4998 C   0  0  0  0  0  0  0  0  0  0  0  0
    1.1118    0.4972    3.0596 H   0  0  0  0  0  0  0  0  0  0  0  0
   -0.2218    0.0046    1.9632 H   0  0  0  0  0  0  0  0  0  0  0  0
    0.3575   -1.1199    3.2381 H   0  0  0  0  0  0  0  0  0  0  0  0
  1  5  1  0  0  0  0
  2  6  1  0  0  0  0
  2 14  1  0  0  0  0
  3  5  1  0  0  0  0
  3 22  1  0  0  0  0
  4 30  1  0  0  0  0
  4 38  1  0  0  0  0
  5  2  1  0  0  0  0
  5  4  1  0  0  0  0
  6  8  1  0  0  0  0
  6  7  1  0  0  0  0
  9  6  1  0  0  0  0
 10 13  1  0  0  0  0
 10  2  1  0  0  0  0
 11 10  1  0  0  0  0
 12 10  1  0  0  0  0
 14 16  1  0  0  0  0
 14 17  1  0  0  0  0
 15 14  1  0  0  0  0
 18  3  1  0  0  0  0
 19 18  1  0  0  0  0
 20 18  1  0  0  0  0
 21 18  1  0  0  0  0
 22 23  1  0  0  0  0
 22 24  1  0  0  0  0
 25 22  1  0  0  0  0
 26  3  1  0  0  0  0
 26 27  1  0  0  0  0
 28 26  1  0  0  0  0
 29 26  1  0  0  0  0
 30 31  1  0  0  0  0
 30 32  1  0  0  0  0
 33 30  1  0  0  0  0
 34  4  1  0  0  0  0
 34 36  1  0  0  0  0
 35 34  1  0  0  0  0
 37 34  1  0  0  0  0
 38 39  1  0  0  0  0
 38 41  1  0  0  0  0
 40 38  1  0  0  0  0
M  END
