1
q = 0.0, confidence = 0.998

 17 16  0  0  0  0  0  0  0  0999 V2000
    2.0044    0.7437   -0.6172 S   0  0  0  0  0  0  0  0  0  0  0  0
    0.4007    1.7060    2.0700 O   0  0  0  0  0  0  0  0  0  0  0  0
    5.7986   -0.6940   -0.3626 O   0  0  0  0  0  0  0  0  0  0  0  0
    1.7825    1.9504    1.9618 C   0  0  0  0  0  0  0  0  0  0  0  0
    2.2825    2.1574    0.5335 C   0  0  0  0  0  0  0  0  0  0  0  0
    3.4087   -0.3244   -0.1162 C   0  0  0  0  0  0  0  0  0  0  0  0
    4.7122    0.0940   -0.8034 C   0  0  0  0  0  0  0  0  0  0  0  0
   -0.0642    2.2169    1.3675 H   0  0  0  0  0  0  0  0  0  0  0  0
    2.0874    2.8624    2.5353 H   0  0  0  0  0  0  0  0  0  0  0  0
    2.3033    1.0897    2.4353 H   0  0  0  0  0  0  0  0  0  0  0  0
    1.7498    2.9989    0.0468 H   0  0  0  0  0  0  0  0  0  0  0  0
    3.3685    2.3813    0.5203 H   0  0  0  0  0  0  0  0  0  0  0  0
    3.1051   -1.3501   -0.4069 H   0  0  0  0  0  0  0  0  0  0  0  0
    3.5110   -0.3251    0.9872 H   0  0  0  0  0  0  0  0  0  0  0  0
    4.5729    0.0669   -1.9116 H   0  0  0  0  0  0  0  0  0  0  0  0
    4.9688    1.1434   -0.5445 H   0  0  0  0  0  0  0  0  0  0  0  0
    5.6249   -1.6122   -0.6414 H   0  0  0  0  0  0  0  0  0  0  0  0
  1  6  1  0  0  0  0
  1  5  1  0  0  0  0
  4  2  1  0  0  0  0
  4 10  1  0  0  0  0
  4  9  1  0  0  0  0
  5  4  1  0  0  0  0
  6 14  1  0  0  0  0
  7 16  1  0  0  0  0
  7  3  1  0  0  0  0
  7  6  1  0  0  0  0
  8  2  1  0  0  0  0
 11  5  1  0  0  0  0
 12  5  1  0  0  0  0
 13  6  1  0  0  0  0
 15  7  1  0  0  0  0
 17  3  1  0  0  0  0
M  END
