2
q = -1.0

 14 14  0  0  0  0  0  0  0  0999 V2000
    0.7989    0.0002    1.4575 S   0  0  0  0  0  0  0  0  0  0  0  0
    0.9035   -0.0002   -1.4491 S   0  0  0  0  0  1  0  0  0  0  0  0
    1.7413    0.0000    0.0590 C   0  0  0  0  0  0  0  0  0  0  0  0
    3.2214    0.0000    0.0828 C   0  0  0  0  0  0  0  0  0  0  0  0
    3.9778   -0.0004   -1.1147 C   0  0  0  0  0  0  0  0  0  0  0  0
    5.3776   -0.0004   -1.0824 C   0  0  0  0  0  0  0  0  0  0  0  0
    6.0599    0.0000    0.1460 C   0  0  0  0  0  0  0  0  0  0  0  0
    5.3221    0.0004    1.3432 C   0  0  0  0  0  0  0  0  0  0  0  0
    3.9235    0.0004    1.3125 C   0  0  0  0  0  0  0  0  0  0  0  0
    3.4413   -0.0007   -2.0758 H   0  0  0  0  0  0  0  0  0  0  0  0
    5.9430   -0.0007   -2.0276 H   0  0  0  0  0  0  0  0  0  0  0  0
    7.1609    0.0000    0.1707 H   0  0  0  0  0  0  0  0  0  0  0  0
    5.8447    0.0007    2.3129 H   0  0  0  0  0  0  0  0  0  0  0  0
    3.3336    0.0007    2.2421 H   0  0  0  0  0  0  0  0  0  0  0  0
  2  3  1  0  0  0  0
  3  4  1  0  0  0  0
  3  1  2  0  0  0  0
  4  9  1  0  0  0  0
  5  6  1  0  0  0  0
  5  4  2  0  0  0  0
  6  7  2  0  0  0  0
  7 12  1  0  0  0  0
  7  8  1  0  0  0  0
  8 13  1  0  0  0  0
  9  8  2  0  0  0  0
  9 14  1  0  0  0  0
 10  5  1  0  0  0  0
 11  6  1  0  0  0  0
M  END
