1
q = -1.0, confidence = 0.056

 53 56  0  0  1  0  0  0  0  0999 V2000
   -3.0373    1.8096   -1.1665 S   0  0  0  0  0  1  0  0  0  0  0  0
   -1.0397    2.7903    0.8899 O   0  0  0  0  0  0  0  0  0  0  0  0
    9.3277   -2.3852   -1.3657 O   0  0  0  0  0  0  0  0  0  0  0  0
    5.7346   -2.1124   -0.8812 C   0  0  0  0  0  0  0  0  0  0  0  0
    5.6691   -1.6162   -1.8744 H   0  0  0  0  0  0  0  0  0  0  0  0
    4.8648   -2.7964   -0.8145 H   0  0  0  0  0  0  0  0  0  0  0  0
    7.0323   -2.9173   -0.8251 C   0  0  0  0  0  0  0  0  0  0  0  0
    7.0967   -3.4993    0.1220 H   0  0  0  0  0  0  0  0  0  0  0  0
    7.1040   -3.6556   -1.6478 H   0  0  0  0  0  0  0  0  0  0  0  0
    8.2604   -2.0190   -0.8791 C   0  0  0  0  0  0  0  0  0  0  0  0
    8.0989   -0.6974   -0.2444 C   0  0  0  0  0  0  0  0  0  0  0  0
    9.0205   -0.0954   -0.1768 H   0  0  0  0  0  0  0  0  0  0  0  0
    6.9374   -0.2409    0.3016 C   0  0  0  0  0  0  0  0  0  0  0  0
    6.9112    1.0510    1.0742 C   0  0  0  0  0  0  0  0  0  0  0  0
    7.8965    1.5531    1.0020 H   0  0  0  0  0  0  0  0  0  0  0  0
    6.7629    0.8067    2.1515 H   0  0  0  0  0  0  0  0  0  0  0  0
    5.7750    1.9796    0.6321 C   0  0  0  0  0  0  0  0  0  0  0  0
    5.9680    2.3332   -0.4055 H   0  0  0  0  0  0  0  0  0  0  0  0
    5.7548    2.8819    1.2769 H   0  0  0  0  0  0  0  0  0  0  0  0
    4.4220    1.2633    0.6695 C   0  0  2  0  0  0  0  0  0  0  0  0
    4.2120    0.9818    1.7266 H   0  0  0  0  0  0  0  0  0  0  0  0
    4.4712   -0.0214   -0.1980 C   0  0  1  0  0  0  0  0  0  0  0  0
    4.7385    0.3285   -1.2241 H   0  0  0  0  0  0  0  0  0  0  0  0
    5.6204   -1.0163    0.2084 C   0  0  1  0  0  0  0  0  0  0  0  0
    3.0913   -0.7032   -0.3070 C   0  0  0  0  0  0  0  0  0  0  0  0
    3.1430   -1.5426   -1.0285 H   0  0  0  0  0  0  0  0  0  0  0  0
    2.8230   -1.1579    0.6693 H   0  0  0  0  0  0  0  0  0  0  0  0
    1.9668    0.2520   -0.7395 C   0  0  0  0  0  0  0  0  0  0  0  0
    1.0007   -0.2955   -0.7508 H   0  0  0  0  0  0  0  0  0  0  0  0
    2.1584    0.5990   -1.7796 H   0  0  0  0  0  0  0  0  0  0  0  0
    1.8957    1.4765    0.1834 C   0  0  1  0  0  0  0  0  0  0  0  0
    3.2873    2.1630    0.1734 C   0  0  1  0  0  0  0  0  0  0  0  0
    3.5075    2.3712   -0.9013 H   0  0  0  0  0  0  0  0  0  0  0  0
    3.0418    3.5202    0.8490 C   0  0  0  0  0  0  0  0  0  0  0  0
    3.1067    3.4202    1.9528 H   0  0  0  0  0  0  0  0  0  0  0  0
    3.7918    4.2795    0.5532 H   0  0  0  0  0  0  0  0  0  0  0  0
    1.6032    3.9061    0.4053 C   0  0  0  0  0  0  0  0  0  0  0  0
    1.5945    4.7968   -0.2531 H   0  0  0  0  0  0  0  0  0  0  0  0
    0.9504    4.1375    1.2694 H   0  0  0  0  0  0  0  0  0  0  0  0
    1.0274    2.6729   -0.3425 C   0  0  2  0  0  0  0  0  0  0  0  0
    1.2387    2.7519   -1.4306 H   0  0  0  0  0  0  0  0  0  0  0  0
    1.4460    1.0691    1.5998 C   0  0  0  0  0  0  0  0  0  0  0  0
    0.4733    0.5405    1.5539 H   0  0  0  0  0  0  0  0  0  0  0  0
    1.3035    1.9436    2.2619 H   0  0  0  0  0  0  0  0  0  0  0  0
    2.1765    0.3935    2.0847 H   0  0  0  0  0  0  0  0  0  0  0  0
    5.3491   -1.6689    1.5867 C   0  0  0  0  0  0  0  0  0  0  0  0
    5.2105   -0.9150    2.3857 H   0  0  0  0  0  0  0  0  0  0  0  0
    6.1955   -2.3167    1.8886 H   0  0  0  0  0  0  0  0  0  0  0  0
    4.4378   -2.2979    1.5545 H   0  0  0  0  0  0  0  0  0  0  0  0
   -0.4778    2.4972   -0.1519 C   0  0  0  0  0  0  0  0  0  0  0  0
   -1.2199    1.9324   -1.3641 C   0  0  0  0  0  0  0  0  0  0  0  0
   -0.7682    0.9630   -1.6642 H   0  0  0  0  0  0  0  0  0  0  0  0
   -1.0499    2.6221   -2.2205 H   0  0  0  0  0  0  0  0  0  0  0  0
  3 10  2  0  0  0  0
  4  7  1  0  0  0  0
  4  6  1  0  0  0  0
  4 24  1  0  0  0  0
  5  4  1  0  0  0  0
  7  8  1  0  0  0  0
  9  7  1  0  0  0  0
 10  7  1  0  0  0  0
 10 11  1  0  0  0  0
 11 12  1  0  0  0  0
 11 13  2  0  0  0  0
 13 14  1  0  0  0  0
 14 16  1  0  0  0  0
 15 14  1  0  0  0  0
 17 20  1  0  0  0  0
 17 14  1  0  0  0  0
 17 19  1  0  0  0  0
 18 17  1  0  0  0  0
 20 21  1  1  0  0  0
 22 23  1  6  0  0  0
 22 24  1  0  0  0  0
 22 20  1  0  0  0  0
 24 13  1  0  0  0  0
 24 46  1  1  0  0  0
 25 22  1  0  0  0  0
 25 27  1  0  0  0  0
 26 25  1  0  0  0  0
 28 25  1  0  0  0  0
 28 31  1  0  0  0  0
 29 28  1  0  0  0  0
 30 28  1  0  0  0  0
 31 42  1  1  0  0  0
 32 33  1  6  0  0  0
 32 31  1  0  0  0  0
 32 20  1  0  0  0  0
 32 34  1  0  0  0  0
 34 35  1  0  0  0  0
 36 34  1  0  0  0  0
 37 34  1  0  0  0  0
 37 39  1  0  0  0  0
 38 37  1  0  0  0  0
 40 41  1  6  0  0  0
 40 50  1  0  0  0  0
 40 31  1  0  0  0  0
 40 37  1  0  0  0  0
 42 45  1  0  0  0  0
 42 44  1  0  0  0  0
 43 42  1  0  0  0  0
 46 48  1  0  0  0  0
 46 47  1  0  0  0  0
 49 46  1  0  0  0  0
 50  2  2  0  0  0  0
 51  1  1  0  0  0  0
 51 50  1  0  0  0  0
 52 51  1  0  0  0  0
 53 51  1  0  0  0  0
M  END
