1
q = 0.0, confidence = 0.986

 19 18  0  0  1  0  0  0  0  0999 V2000
   -1.9100   -0.1035   -1.8781 S   0  0  0  0  0  1  0  0  0  0  0  0
   -3.8283    1.7480   -1.5388 N   0  0  0  0  0  0  0  0  0  0  0  0
   -4.0163    2.7560   -1.4108 H   0  0  0  0  0  0  0  0  0  0  0  0
   -1.6742    2.5264   -1.3462 N   0  0  0  0  0  0  0  0  0  0  0  0
   -0.6633    2.3925   -1.5876 H   0  0  0  0  0  0  0  0  0  0  0  0
   -2.2066    3.8118   -1.1717 N   0  0  0  0  0  0  0  0  0  0  0  0
   -2.5171    1.4871   -1.5651 C   0  0  2  0  0  3  0  0  0  0  0  0
   -1.8484    4.6854   -2.2937 C   0  0  0  0  0  0  0  0  0  0  0  0
   -0.7474    4.8535   -2.3688 H   0  0  0  0  0  0  0  0  0  0  0  0
   -2.3463    5.6650   -2.1596 H   0  0  0  0  0  0  0  0  0  0  0  0
   -2.2040    4.2360   -3.2404 H   0  0  0  0  0  0  0  0  0  0  0  0
   -1.8327    4.3568    0.1346 C   0  0  0  0  0  0  0  0  0  0  0  0
   -2.3458    5.3272    0.2805 H   0  0  0  0  0  0  0  0  0  0  0  0
   -0.7319    4.5231    0.2309 H   0  0  0  0  0  0  0  0  0  0  0  0
   -2.1628    3.6590    0.9281 H   0  0  0  0  0  0  0  0  0  0  0  0
   -4.9042    0.7885   -1.6649 C   0  0  0  0  0  0  0  0  0  0  0  0
   -5.2882    0.7325   -2.7052 H   0  0  0  0  0  0  0  0  0  0  0  0
   -5.7352    1.0760   -0.9925 H   0  0  0  0  0  0  0  0  0  0  0  0
   -4.5335   -0.2124   -1.3720 H   0  0  0  0  0  0  0  0  0  0  0  0
  2  3  1  0  0  0  0
  4  6  1  0  0  0  0
  5  4  1  0  0  0  0
  6 12  1  0  0  0  0
  7  1  1  6  0  0  0
  7  2  1  0  0  0  0
  7  4  1  0  0  0  0
  8 10  1  0  0  0  0
  8  6  1  0  0  0  0
  9  8  1  0  0  0  0
 11  8  1  0  0  0  0
 12 14  1  0  0  0  0
 12 13  1  0  0  0  0
 12 15  1  0  0  0  0
 16  2  1  0  0  0  0
 16 19  1  0  0  0  0
 16 18  1  0  0  0  0
 17 16  1  0  0  0  0
M  END
