1
q = 0.0, confidence = 0.952

 12 12  0  0  0  0  0  0  0  0999 V2000
   -0.6708   -0.5890   -1.8375 S   0  0  0  0  0  1  0  0  0  0  0  0
   -3.0157   -1.5219   -0.8583 N   0  0  0  0  0  0  0  0  0  0  0  0
   -3.4928   -1.1066   -1.6573 H   0  0  0  0  0  0  0  0  0  0  0  0
   -1.6468   -1.5552   -0.8334 C   0  0  0  0  0  3  0  0  0  0  0  0
   -1.2517   -2.4472    0.0941 N   0  0  0  0  0  0  0  0  0  0  0  0
   -0.2528   -2.4781    0.4330 H   0  0  0  0  0  0  0  0  0  0  0  0
   -3.5747   -2.5895   -0.0346 C   0  0  0  0  0  0  0  0  0  0  0  0
   -3.8336   -3.4867   -0.6448 H   0  0  0  0  0  0  0  0  0  0  0  0
   -4.4838   -2.2630    0.5083 H   0  0  0  0  0  0  0  0  0  0  0  0
   -2.3854   -2.8682    0.9094 C   0  0  0  0  0  0  0  0  0  0  0  0
   -2.4421   -2.2380    1.8275 H   0  0  0  0  0  0  0  0  0  0  0  0
   -2.3099   -3.9308    1.2102 H   0  0  0  0  0  0  0  0  0  0  0  0
  1  4  1  0  0  0  0
  2  4  1  0  0  0  0
  2  7  1  0  0  0  0
  3  2  1  0  0  0  0
  4  5  1  0  0  0  0
  5  6  1  0  0  0  0
  5 10  1  0  0  0  0
  7  9  1  0  0  0  0
  7 10  1  0  0  0  0
  8  7  1  0  0  0  0
 10 12  1  0  0  0  0
 10 11  1  0  0  0  0
M  END
