1
q = 0.0, confidence = 0.998

 53 55  0  0  0  0  0  0  0  0999 V2000
   -0.5721   -1.0489   -0.4111 S   0  0  0  0  0  1  0  0  0  0  0  0
    0.2124    0.7159    0.2910 P   0  0  0  0  0  4  0  0  0  0  0  0
    2.3532   -2.8443    0.5019 C   0  0  0  0  0  0  0  0  0  0  0  0
    2.6893   -3.7962    0.9597 H   0  0  0  0  0  0  0  0  0  0  0  0
    1.4438   -3.0608   -0.0921 H   0  0  0  0  0  0  0  0  0  0  0  0
    1.9230   -1.8560    1.6846 C   0  0  0  0  0  0  0  0  0  0  0  0
    0.8192   -1.8475    1.7225 H   0  0  0  0  0  0  0  0  0  0  0  0
    2.2868   -2.2753    2.6435 H   0  0  0  0  0  0  0  0  0  0  0  0
    2.5075   -0.4669    1.5287 C   0  0  0  0  0  0  0  0  0  0  0  0
    1.9983    0.5647    0.6817 C   0  0  0  0  0  0  0  0  0  0  0  0
    2.8948    1.5152    0.1433 C   0  0  0  0  0  0  0  0  0  0  0  0
    2.5457    2.2294   -0.6149 H   0  0  0  0  0  0  0  0  0  0  0  0
    4.2721    1.4997    0.4360 C   0  0  0  0  0  0  0  0  0  0  0  0
    4.6731    0.7020    1.5227 C   0  0  0  0  0  0  0  0  0  0  0  0
    5.7188    0.7286    1.8671 H   0  0  0  0  0  0  0  0  0  0  0  0
    3.8032   -0.2588    2.0463 C   0  0  0  0  0  0  0  0  0  0  0  0
    4.1893   -0.9797    2.7839 H   0  0  0  0  0  0  0  0  0  0  0  0
    5.2850    2.0941   -0.5168 C   0  0  0  0  0  0  0  0  0  0  0  0
    6.1022    2.5916    0.0441 H   0  0  0  0  0  0  0  0  0  0  0  0
    4.7965    2.8774   -1.1303 H   0  0  0  0  0  0  0  0  0  0  0  0
    5.9383    1.0045   -1.4925 C   0  0  0  0  0  0  0  0  0  0  0  0
    5.9154    1.4137   -2.5229 H   0  0  0  0  0  0  0  0  0  0  0  0
    7.0054    0.8792   -1.2211 H   0  0  0  0  0  0  0  0  0  0  0  0
    5.2340   -0.3318   -1.4222 C   0  0  0  0  0  0  0  0  0  0  0  0
    5.6796   -1.3436   -0.5472 C   0  0  0  0  0  0  0  0  0  0  0  0
    6.7059   -1.2989   -0.1476 H   0  0  0  0  0  0  0  0  0  0  0  0
    4.7884   -2.3041   -0.0454 C   0  0  0  0  0  0  0  0  0  0  0  0
    5.1309   -3.0019    0.7360 H   0  0  0  0  0  0  0  0  0  0  0  0
    3.4235   -2.2691   -0.3966 C   0  0  0  0  0  0  0  0  0  0  0  0
    3.0600   -1.4437   -1.4822 C   0  0  0  0  0  0  0  0  0  0  0  0
    2.0164   -1.4533   -1.8361 H   0  0  0  0  0  0  0  0  0  0  0  0
    3.9542   -0.4943   -1.9909 C   0  0  0  0  0  0  0  0  0  0  0  0
    3.6046    0.2237   -2.7512 H   0  0  0  0  0  0  0  0  0  0  0  0
   -0.6092    1.3142    1.8564 C   0  0  0  0  0  0  0  0  0  0  0  0
   -1.6473    1.5187    1.5114 H   0  0  0  0  0  0  0  0  0  0  0  0
   -0.6679    0.2303    2.9332 C   0  0  0  0  0  0  0  0  0  0  0  0
    0.3432   -0.0231    3.3105 H   0  0  0  0  0  0  0  0  0  0  0  0
   -1.1561   -0.6883    2.5539 H   0  0  0  0  0  0  0  0  0  0  0  0
   -1.2654    0.6029    3.7896 H   0  0  0  0  0  0  0  0  0  0  0  0
    0.0576    2.6030    2.3513 C   0  0  0  0  0  0  0  0  0  0  0  0
   -0.4874    2.9775    3.2415 H   0  0  0  0  0  0  0  0  0  0  0  0
    0.0486    3.4124    1.5948 H   0  0  0  0  0  0  0  0  0  0  0  0
    1.1100    2.4216    2.6502 H   0  0  0  0  0  0  0  0  0  0  0  0
    0.0151    2.0821   -0.9748 C   0  0  0  0  0  0  0  0  0  0  0  0
    0.7106    2.8753   -0.6255 H   0  0  0  0  0  0  0  0  0  0  0  0
   -1.4036    2.6625   -1.0005 C   0  0  0  0  0  0  0  0  0  0  0  0
   -1.4678    3.4172   -1.8102 H   0  0  0  0  0  0  0  0  0  0  0  0
   -1.6806    3.1645   -0.0538 H   0  0  0  0  0  0  0  0  0  0  0  0
   -2.1636    1.8781   -1.2053 H   0  0  0  0  0  0  0  0  0  0  0  0
    0.4497    1.5762   -2.3554 C   0  0  0  0  0  0  0  0  0  0  0  0
   -0.2400    0.7839   -2.7072 H   0  0  0  0  0  0  0  0  0  0  0  0
    1.4729    1.1525   -2.3518 H   0  0  0  0  0  0  0  0  0  0  0  0
    0.4229    2.4125   -3.0828 H   0  0  0  0  0  0  0  0  0  0  0  0
  1  2  1  0  0  0  0
  2 10  1  0  0  0  0
  2 34  1  0  0  0  0
  3  4  1  0  0  0  0
  3  6  1  0  0  0  0
  5  3  1  0  0  0  0
  6  7  1  0  0  0  0
  6  8  1  0  0  0  0
  9  6  1  0  0  0  0
  9 16  1  0  0  0  0
 10  9  2  0  0  0  0
 11 13  2  0  0  0  0
 11 10  1  0  0  0  0
 12 11  1  0  0  0  0
 13 14  1  0  0  0  0
 14 15  1  0  0  0  0
 14 16  2  0  0  0  0
 16 17  1  0  0  0  0
 18 19  1  0  0  0  0
 18 13  1  0  0  0  0
 20 18  1  0  0  0  0
 21 24  1  0  0  0  0
 21 23  1  0  0  0  0
 21 18  1  0  0  0  0
 22 21  1  0  0  0  0
 24 25  1  0  0  0  0
 25 26  1  0  0  0  0
 25 27  2  0  0  0  0
 27 28  1  0  0  0  0
 29 27  1  0  0  0  0
 29  3  1  0  0  0  0
 30 29  2  0  0  0  0
 31 30  1  0  0  0  0
 32 30  1  0  0  0  0
 32 24  2  0  0  0  0
 33 32  1  0  0  0  0
 34 40  1  0  0  0  0
 34 36  1  0  0  0  0
 35 34  1  0  0  0  0
 36 37  1  0  0  0  0
 36 39  1  0  0  0  0
 38 36  1  0  0  0  0
 40 43  1  0  0  0  0
 40 41  1  0  0  0  0
 42 40  1  0  0  0  0
 44 45  1  0  0  0  0
 44  2  1  0  0  0  0
 46 44  1  0  0  0  0
 46 48  1  0  0  0  0
 47 46  1  0  0  0  0
 49 46  1  0  0  0  0
 50 52  1  0  0  0  0
 50 44  1  0  0  0  0
 51 50  1  0  0  0  0
 53 50  1  0  0  0  0
M  END
