1
q = -1.0

  5  4  0  0  0  0  0  0  0  0999 V2000
    2.4501    0.9025    2.0062 S   0  0  0  0  0  0  0  0  0  0  0  0
    3.0608    2.3207   -0.1752 F   0  0  0  0  0  0  0  0  0  0  0  0
    4.4155    0.6666    0.2215 F   0  0  0  0  0  0  0  0  0  0  0  0
    4.4885    2.4446    1.4713 F   0  0  0  0  0  0  0  0  0  0  0  0
    3.6228    1.6017    0.8591 C   0  0  0  0  0  0  0  0  0  0  0  0
  2  5  1  0  0  0  0
  3  5  1  0  0  0  0
  5  4  1  0  0  0  0
  5  1  1  0  0  0  0
M  END
