1
q = -1.0, confidence = 0.0

 12 12  0  0  0  0  0  0  0  0999 V2000
   -1.7010   -1.6644   -2.1230 S   0  0  0  0  0  1  0  0  0  0  0  0
   -3.1101   -1.1988   -1.1306 C   0  0  0  0  0  0  0  0  0  0  0  0
   -3.5006    0.1517   -0.9673 C   0  0  0  0  0  0  0  0  0  0  0  0
   -2.9270    0.9414   -1.4754 H   0  0  0  0  0  0  0  0  0  0  0  0
   -4.5857    0.5030   -0.1550 C   0  0  0  0  0  0  0  0  0  0  0  0
   -4.8697    1.5567   -0.0225 H   0  0  0  0  0  0  0  0  0  0  0  0
   -5.3173   -0.5033    0.4967 C   0  0  0  0  0  0  0  0  0  0  0  0
   -4.9716   -1.8542    0.3293 C   0  0  0  0  0  0  0  0  0  0  0  0
   -5.5565   -2.6337    0.8384 H   0  0  0  0  0  0  0  0  0  0  0  0
   -3.8764   -2.1926   -0.4784 C   0  0  0  0  0  0  0  0  0  0  0  0
   -3.5886   -3.2477   -0.5988 H   0  0  0  0  0  0  0  0  0  0  0  0
   -6.6678   -0.0714    1.5225 Cl  0  0  0  0  0  0  0  0  0  0  0  0
  1  2  1  0  0  0  0
  2  3  2  0  0  0  0
  2 10  1  0  0  0  0
  3  5  1  0  0  0  0
  4  3  1  0  0  0  0
  5  6  1  0  0  0  0
  5  7  2  0  0  0  0
  7 12  1  0  0  0  0
  8  7  1  0  0  0  0
  8  9  1  0  0  0  0
 10  8  2  0  0  0  0
 11 10  1  0  0  0  0
M  END
