1
q = 0.0, confidence = 0.994

 16 16  0  0  1  0  0  0  0  0999 V2000
   -0.0784   -0.4753    1.9156 S   0  0  0  0  0  1  0  0  0  0  0  0
    1.3837   -0.1064    1.1100 C   0  0  2  0  0  3  0  0  0  0  0  0
    2.5080   -0.8390    1.3637 N   0  0  0  0  0  0  0  0  0  0  0  0
    2.4017   -1.6260    2.0116 H   0  0  0  0  0  0  0  0  0  0  0  0
    3.7076   -0.7187    0.7882 N   0  0  0  0  0  0  0  0  0  0  0  0
    3.8449    0.1988   -0.1396 C   0  0  0  0  0  0  0  0  0  0  0  0
    2.7613    1.1114   -0.5199 C   0  0  0  0  0  0  0  0  0  0  0  0
    2.8126    2.0101   -1.3496 O   0  0  0  0  0  0  0  0  0  0  0  0
    1.5542    0.9231    0.2306 N   0  0  0  0  0  0  0  0  0  0  0  0
    0.4953    1.7079   -0.1496 N   0  0  0  0  0  0  0  0  0  0  0  0
    0.8776    2.4217   -0.7917 H   0  0  0  0  0  0  0  0  0  0  0  0
   -0.0228    2.0934    0.6555 H   0  0  0  0  0  0  0  0  0  0  0  0
    5.1458    0.3364   -0.8548 C   0  0  0  0  0  0  0  0  0  0  0  0
    5.8947   -0.3462   -0.4163 H   0  0  0  0  0  0  0  0  0  0  0  0
    5.5084    1.3833   -0.8146 H   0  0  0  0  0  0  0  0  0  0  0  0
    5.0054    0.0912   -1.9282 H   0  0  0  0  0  0  0  0  0  0  0  0
  2  3  1  0  0  0  0
  2  1  1  1  0  0  0
  3  4  1  0  0  0  0
  5  3  1  0  0  0  0
  6  5  2  0  0  0  0
  7  6  1  0  0  0  0
  7  9  1  0  0  0  0
  8  7  2  0  0  0  0
  9  2  1  0  0  0  0
 10  9  1  0  0  0  0
 10 12  1  0  0  0  0
 11 10  1  0  0  0  0
 13 15  1  0  0  0  0
 13 14  1  0  0  0  0
 13  6  1  0  0  0  0
 16 13  1  0  0  0  0
M  END
