1
q = 0.0, confidence = 0.962

 20 19  0  0  0  0  0  0  0  0999 V2000
    2.0466    0.4257   -1.6244 S   0  0  0  0  0  1  0  0  0  0  0  0
    2.0932    2.3375    0.2577 N   0  0  0  0  0  0  0  0  0  0  0  0
    1.2539    1.8360    0.6273 H   0  0  0  0  0  0  0  0  0  0  0  0
    3.9984    2.1688   -1.0650 N   0  0  0  0  0  0  0  0  0  0  0  0
    4.4327    2.8403   -0.4302 H   0  0  0  0  0  0  0  0  0  0  0  0
    2.7495    1.7254   -0.7466 C   0  0  0  0  0  3  0  0  0  0  0  0
    2.6399    3.3522    1.1443 C   0  0  0  0  0  0  0  0  0  0  0  0
    1.7728    3.8904    1.5771 H   0  0  0  0  0  0  0  0  0  0  0  0
    3.1958    4.1072    0.5438 H   0  0  0  0  0  0  0  0  0  0  0  0
    3.5030    2.7777    2.2738 C   0  0  0  0  0  0  0  0  0  0  0  0
    2.8961    2.0772    2.8809 H   0  0  0  0  0  0  0  0  0  0  0  0
    3.8776    3.5857    2.9342 H   0  0  0  0  0  0  0  0  0  0  0  0
    4.3774    2.2186    1.8810 H   0  0  0  0  0  0  0  0  0  0  0  0
    4.8452    1.5879   -2.0971 C   0  0  0  0  0  0  0  0  0  0  0  0
    4.1812    1.2890   -2.9336 H   0  0  0  0  0  0  0  0  0  0  0  0
    5.5160    2.3904   -2.4694 H   0  0  0  0  0  0  0  0  0  0  0  0
    5.6522    0.3818   -1.6126 C   0  0  0  0  0  0  0  0  0  0  0  0
    6.3185    0.6511   -0.7673 H   0  0  0  0  0  0  0  0  0  0  0  0
    6.2824   -0.0198   -2.4317 H   0  0  0  0  0  0  0  0  0  0  0  0
    4.9643   -0.4205   -1.2793 H   0  0  0  0  0  0  0  0  0  0  0  0
  1  6  1  0  0  0  0
  2  3  1  0  0  0  0
  2  7  1  0  0  0  0
  4  6  1  0  0  0  0
  4  5  1  0  0  0  0
  6  2  1  0  0  0  0
  7  8  1  0  0  0  0
  7 10  1  0  0  0  0
  9  7  1  0  0  0  0
 10 11  1  0  0  0  0
 10 12  1  0  0  0  0
 13 10  1  0  0  0  0
 14 17  1  0  0  0  0
 14  4  1  0  0  0  0
 15 14  1  0  0  0  0
 16 14  1  0  0  0  0
 17 20  1  0  0  0  0
 17 18  1  0  0  0  0
 19 17  1  0  0  0  0
M  END
