1
q = -1.0

 21 22  0  0  0  0  0  0  0  0999 V2000
    2.3875   -2.2490   -0.0219 S   0  0  0  0  0  1  0  0  0  0  0  0
   -1.2955    0.7992    2.3066 S   0  0  0  0  0  0  0  0  0  0  0  0
    1.0345    0.2663    1.2592 N   0  0  0  0  0  0  0  0  0  0  0  0
    0.3333    1.2613    1.7919 C   0  0  0  0  0  0  0  0  0  0  0  0
    0.8764    2.5716    1.9586 C   0  0  0  0  0  0  0  0  0  0  0  0
    2.1868    2.7839    1.5724 C   0  0  0  0  0  0  0  0  0  0  0  0
    2.9705    1.7281    1.0227 C   0  0  0  0  0  0  0  0  0  0  0  0
    4.3215    1.9069    0.6198 C   0  0  0  0  0  0  0  0  0  0  0  0
    5.0137    0.8379    0.0656 C   0  0  0  0  0  0  0  0  0  0  0  0
    4.3840   -0.4153   -0.1178 C   0  0  0  0  0  0  0  0  0  0  0  0
    3.0544   -0.6454    0.2647 C   0  0  0  0  0  0  0  0  0  0  0  0
    2.3237    0.4460    0.8707 C   0  0  0  0  0  0  0  0  0  0  0  0
   -2.1446    2.3953    2.4784 C   0  0  0  0  0  0  0  0  0  0  0  0
    0.2810    3.3817    2.3987 H   0  0  0  0  0  0  0  0  0  0  0  0
    2.6464    3.7779    1.6945 H   0  0  0  0  0  0  0  0  0  0  0  0
    4.7972    2.8907    0.7516 H   0  0  0  0  0  0  0  0  0  0  0  0
    6.0611    0.9599   -0.2498 H   0  0  0  0  0  0  0  0  0  0  0  0
    4.9415   -1.2390   -0.5881 H   0  0  0  0  0  0  0  0  0  0  0  0
   -3.2116    2.1392    2.6206 H   0  0  0  0  0  0  0  0  0  0  0  0
   -2.0519    2.9932    1.5509 H   0  0  0  0  0  0  0  0  0  0  0  0
   -1.7918    2.9716    3.3562 H   0  0  0  0  0  0  0  0  0  0  0  0
  1 11  1  0  0  0  0
  2 13  1  0  0  0  0
  3  4  1  0  0  0  0
  4  5  2  0  0  0  0
  4  2  1  0  0  0  0
  5 14  1  0  0  0  0
  6 15  1  0  0  0  0
  6  5  1  0  0  0  0
  7  6  2  0  0  0  0
  8 16  1  0  0  0  0
  8  7  1  0  0  0  0
  9  8  2  0  0  0  0
 10  9  1  0  0  0  0
 10 11  2  0  0  0  0
 11 12  1  0  0  0  0
 12  7  1  0  0  0  0
 12  3  2  0  0  0  0
 13 19  1  0  0  0  0
 13 21  1  0  0  0  0
 17  9  1  0  0  0  0
 18 10  1  0  0  0  0
 20 13  1  0  0  0  0
M  END
