1
q = -1.0

 15 15  0  0  0  0  0  0  0  0999 V2000
   -0.4142   -1.5226   -0.6436 S   0  0  0  0  0  1  0  0  0  0  0  0
    0.8037   -1.5817    0.7311 C   0  0  0  0  0  0  0  0  0  0  0  0
    0.9477   -0.5348    1.0794 H   0  0  0  0  0  0  0  0  0  0  0  0
    0.3709   -2.1499    1.5831 H   0  0  0  0  0  0  0  0  0  0  0  0
    2.1238   -2.1964    0.3259 C   0  0  0  0  0  0  0  0  0  0  0  0
    2.1925   -3.3437   -0.4902 C   0  0  0  0  0  0  0  0  0  0  0  0
    1.2575   -3.7796   -0.8754 H   0  0  0  0  0  0  0  0  0  0  0  0
    3.4299   -3.9119   -0.8254 C   0  0  0  0  0  0  0  0  0  0  0  0
    3.4637   -4.8064   -1.4665 H   0  0  0  0  0  0  0  0  0  0  0  0
    4.6230   -3.3421   -0.3514 C   0  0  0  0  0  0  0  0  0  0  0  0
    5.5941   -3.7860   -0.6187 H   0  0  0  0  0  0  0  0  0  0  0  0
    4.5674   -2.1996    0.4617 C   0  0  0  0  0  0  0  0  0  0  0  0
    5.4958   -1.7417    0.8370 H   0  0  0  0  0  0  0  0  0  0  0  0
    3.3279   -1.6317    0.7953 C   0  0  0  0  0  0  0  0  0  0  0  0
    3.2902   -0.7302    1.4268 H   0  0  0  0  0  0  0  0  0  0  0  0
  1  2  1  0  0  0  0
  2  3  1  0  0  0  0
  2  4  1  0  0  0  0
  5  2  1  0  0  0  0
  5 14  1  0  0  0  0
  6  5  2  0  0  0  0
  7  6  1  0  0  0  0
  8  6  1  0  0  0  0
  8 10  2  0  0  0  0
  9  8  1  0  0  0  0
 10 12  1  0  0  0  0
 11 10  1  0  0  0  0
 12 14  2  0  0  0  0
 12 13  1  0  0  0  0
 14 15  1  0  0  0  0
M  END
