1
q = -1.0

 65 67  0  0  1  0  0  0  0  0999 V2000
    1.3544   -2.4289    0.8902 S   0  0  0  0  0  1  0  0  0  0  0  0
   -3.1883    0.8372    1.1185 S   0  0  0  0  0  0  0  0  0  0  0  0
    2.1368    1.3618   -0.0135 S   0  0  0  0  0  0  0  0  0  0  0  0
   -0.6811   -0.1531   -0.5518 B   0  0  0  0  0  0  0  0  0  0  0  0
   -0.5520   -0.2659    0.6564 H   0  0  0  0  0  0  0  0  0  0  0  0
    0.3929   -1.0123   -1.2929 N   0  0  0  0  0  0  0  0  0  0  0  0
    2.1964   -2.2124   -1.7463 N   0  0  0  0  0  0  0  0  0  0  0  0
   -2.0963   -0.6220   -0.9152 N   0  0  0  0  0  0  0  0  0  0  0  0
   -4.2806   -0.9633   -0.7194 N   0  0  0  0  0  0  0  0  0  0  0  0
   -0.4442    1.3250   -0.9641 N   0  0  0  0  0  0  0  0  0  0  0  0
    0.5139    3.3075   -1.1855 N   0  0  0  0  0  0  0  0  0  0  0  0
    1.3139   -1.8582   -0.7461 C   0  0  2  0  0  3  0  0  0  0  0  0
    0.7053   -0.8209   -2.6251 C   0  0  0  0  0  0  0  0  0  0  0  0
    0.1265   -0.1403   -3.2558 H   0  0  0  0  0  0  0  0  0  0  0  0
    1.8130   -1.5685   -2.9173 C   0  0  0  0  0  0  0  0  0  0  0  0
    2.3503   -1.6860   -3.8581 H   0  0  0  0  0  0  0  0  0  0  0  0
    3.4446   -3.0392   -1.6001 C   0  0  0  0  0  0  0  0  0  0  0  0
    4.3837   -2.3317   -0.6070 C   0  0  0  0  0  0  0  0  0  0  0  0
    4.5980   -1.3000   -0.9495 H   0  0  0  0  0  0  0  0  0  0  0  0
    5.3370   -2.8914   -0.5359 H   0  0  0  0  0  0  0  0  0  0  0  0
    3.9262   -2.2766    0.3981 H   0  0  0  0  0  0  0  0  0  0  0  0
    3.0650   -4.4554   -1.1349 C   0  0  0  0  0  0  0  0  0  0  0  0
    2.3963   -4.9421   -1.8729 H   0  0  0  0  0  0  0  0  0  0  0  0
    2.5549   -4.4335   -0.1539 H   0  0  0  0  0  0  0  0  0  0  0  0
    3.9823   -5.0689   -1.0385 H   0  0  0  0  0  0  0  0  0  0  0  0
    4.1455   -3.1410   -2.9635 C   0  0  0  0  0  0  0  0  0  0  0  0
    4.4749   -2.1526   -3.3398 H   0  0  0  0  0  0  0  0  0  0  0  0
    3.5080   -3.6293   -3.7272 H   0  0  0  0  0  0  0  0  0  0  0  0
    5.0502   -3.7657   -2.8382 H   0  0  0  0  0  0  0  0  0  0  0  0
   -3.2088   -0.2585   -0.1693 C   0  0  0  0  0  0  0  0  0  0  0  0
   -2.4719   -1.5335   -1.8907 C   0  0  0  0  0  0  0  0  0  0  0  0
   -1.7516   -1.9792   -2.5820 H   0  0  0  0  0  0  0  0  0  0  0  0
   -3.8174   -1.7461   -1.7758 C   0  0  0  0  0  0  0  0  0  0  0  0
   -4.4703   -2.3940   -2.3615 H   0  0  0  0  0  0  0  0  0  0  0  0
   -5.7006   -0.8998   -0.2528 C   0  0  0  0  0  0  0  0  0  0  0  0
   -6.2085    0.5461   -0.4013 C   0  0  0  0  0  0  0  0  0  0  0  0
   -5.5724    1.2357    0.1872 H   0  0  0  0  0  0  0  0  0  0  0  0
   -7.2528    0.6158   -0.0371 H   0  0  0  0  0  0  0  0  0  0  0  0
   -6.1878    0.8556   -1.4662 H   0  0  0  0  0  0  0  0  0  0  0  0
   -5.7646   -1.3720    1.2110 C   0  0  0  0  0  0  0  0  0  0  0  0
   -5.4261   -2.4246    1.2923 H   0  0  0  0  0  0  0  0  0  0  0  0
   -6.8078   -1.3086    1.5795 H   0  0  0  0  0  0  0  0  0  0  0  0
   -5.1155   -0.7370    1.8449 H   0  0  0  0  0  0  0  0  0  0  0  0
   -6.5681   -1.8267   -1.1172 C   0  0  0  0  0  0  0  0  0  0  0  0
   -6.2532   -2.8865   -1.0397 H   0  0  0  0  0  0  0  0  0  0  0  0
   -6.5683   -1.5260   -2.1841 H   0  0  0  0  0  0  0  0  0  0  0  0
   -7.6116   -1.7626   -0.7536 H   0  0  0  0  0  0  0  0  0  0  0  0
    0.7169    2.0166   -0.7198 C   0  0  0  0  0  0  0  0  0  0  0  0
   -1.3616    2.1664   -1.5638 C   0  0  0  0  0  0  0  0  0  0  0  0
   -2.3742    1.8334   -1.8037 H   0  0  0  0  0  0  0  0  0  0  0  0
   -0.7749    3.3935   -1.7113 C   0  0  0  0  0  0  0  0  0  0  0  0
   -1.1826    4.3156   -2.1256 H   0  0  0  0  0  0  0  0  0  0  0  0
    1.4991    4.4351   -1.1360 C   0  0  0  0  0  0  0  0  0  0  0  0
    0.8638    5.6966   -1.7399 C   0  0  0  0  0  0  0  0  0  0  0  0
    1.6075    6.5148   -1.6918 H   0  0  0  0  0  0  0  0  0  0  0  0
   -0.0304    6.0252   -1.1741 H   0  0  0  0  0  0  0  0  0  0  0  0
    0.5887    5.5587   -2.8045 H   0  0  0  0  0  0  0  0  0  0  0  0
    1.8644    4.7143    0.3330 C   0  0  0  0  0  0  0  0  0  0  0  0
    2.3112    3.8155    0.7993 H   0  0  0  0  0  0  0  0  0  0  0  0
    0.9609    5.0019    0.9070 H   0  0  0  0  0  0  0  0  0  0  0  0
    2.5930    5.5476    0.3833 H   0  0  0  0  0  0  0  0  0  0  0  0
    2.7366    4.0518   -1.9675 C   0  0  0  0  0  0  0  0  0  0  0  0
    3.2003    3.1277   -1.5719 H   0  0  0  0  0  0  0  0  0  0  0  0
    3.4810    4.8716   -1.9291 H   0  0  0  0  0  0  0  0  0  0  0  0
    2.4539    3.8852   -3.0267 H   0  0  0  0  0  0  0  0  0  0  0  0
  4  5  1  0  0  0  0
  6 12  1  0  0  0  0
  6  4  1  0  0  0  0
  7 17  1  0  0  0  0
  7 12  1  0  0  0  0
  8  4  1  0  0  0  0
  8 30  1  0  0  0  0
  9 35  1  0  0  0  0
  9 30  1  0  0  0  0
 10 48  1  0  0  0  0
 10  4  1  0  0  0  0
 11 53  1  0  0  0  0
 11 48  1  0  0  0  0
 12  1  1  6  0  0  0
 13  6  1  0  0  0  0
 14 13  1  0  0  0  0
 15 13  2  0  0  0  0
 15  7  1  0  0  0  0
 16 15  1  0  0  0  0
 17 22  1  0  0  0  0
 17 18  1  0  0  0  0
 18 20  1  0  0  0  0
 18 21  1  0  0  0  0
 19 18  1  0  0  0  0
 22 25  1  0  0  0  0
 22 24  1  0  0  0  0
 23 22  1  0  0  0  0
 26 29  1  0  0  0  0
 26 17  1  0  0  0  0
 27 26  1  0  0  0  0
 28 26  1  0  0  0  0
 30  2  2  0  0  0  0
 31 33  2  0  0  0  0
 31  8  1  0  0  0  0
 32 31  1  0  0  0  0
 33  9  1  0  0  0  0
 34 33  1  0  0  0  0
 35 40  1  0  0  0  0
 36 35  1  0  0  0  0
 36 38  1  0  0  0  0
 36 37  1  0  0  0  0
 39 36  1  0  0  0  0
 40 41  1  0  0  0  0
 40 42  1  0  0  0  0
 40 43  1  0  0  0  0
 44 45  1  0  0  0  0
 44 47  1  0  0  0  0
 44 35  1  0  0  0  0
 46 44  1  0  0  0  0
 48  3  2  0  0  0  0
 49 10  1  0  0  0  0
 50 49  1  0  0  0  0
 51 49  2  0  0  0  0
 51 11  1  0  0  0  0
 52 51  1  0  0  0  0
 53 58  1  0  0  0  0
 54 55  1  0  0  0  0
 54 56  1  0  0  0  0
 54 53  1  0  0  0  0
 57 54  1  0  0  0  0
 58 61  1  0  0  0  0
 58 59  1  0  0  0  0
 58 60  1  0  0  0  0
 62 64  1  0  0  0  0
 62 63  1  0  0  0  0
 62 53  1  0  0  0  0
 65 62  1  0  0  0  0
M  END
