1
q = -1.0, confidence = 0.0

 21 21  0  0  0  0  0  0  0  0999 V2000
    0.5219   -1.2420   -0.0068 S   0  0  0  0  0  1  0  0  0  0  0  0
    0.6180    1.4793    0.0003 N   0  0  0  0  0  0  0  0  0  0  0  0
    2.6750    0.5810    0.0069 N   0  0  0  0  0  0  0  0  0  0  0  0
    1.3140    0.3370    0.0005 C   0  0  0  0  0  0  0  0  0  0  0  0
    1.5447    2.4945    0.0066 C   0  0  0  0  0  0  0  0  0  0  0  0
    1.2478    3.5502    0.0078 H   0  0  0  0  0  0  0  0  0  0  0  0
    2.8207    1.9687    0.0108 C   0  0  0  0  0  0  0  0  0  0  0  0
    3.7987    2.4536    0.0163 H   0  0  0  0  0  0  0  0  0  0  0  0
    3.7786   -0.4261    0.0088 C   0  0  0  0  0  0  0  0  0  0  0  0
    3.6709   -1.2819   -1.2665 C   0  0  0  0  0  0  0  0  0  0  0  0
    3.7755   -0.6458   -2.1679 H   0  0  0  0  0  0  0  0  0  0  0  0
    2.6948   -1.8024   -1.3201 H   0  0  0  0  0  0  0  0  0  0  0  0
    4.4751   -2.0440   -1.2790 H   0  0  0  0  0  0  0  0  0  0  0  0
    3.6605   -1.2884    1.2788 C   0  0  0  0  0  0  0  0  0  0  0  0
    3.7579   -0.6570    2.1843 H   0  0  0  0  0  0  0  0  0  0  0  0
    4.4645   -2.0507    1.2939 H   0  0  0  0  0  0  0  0  0  0  0  0
    2.6840   -1.8091    1.3218 H   0  0  0  0  0  0  0  0  0  0  0  0
    5.1347    0.2943    0.0162 C   0  0  0  0  0  0  0  0  0  0  0  0
    5.2727    0.9259   -0.8834 H   0  0  0  0  0  0  0  0  0  0  0  0
    5.9379   -0.4676    0.0176 H   0  0  0  0  0  0  0  0  0  0  0  0
    5.2653    0.9212    0.9202 H   0  0  0  0  0  0  0  0  0  0  0  0
  1  4  1  0  0  0  0
  2  4  2  0  0  0  0
  2  5  1  0  0  0  0
  3  9  1  0  0  0  0
  3  7  1  0  0  0  0
  4  3  1  0  0  0  0
  5  6  1  0  0  0  0
  5  7  2  0  0  0  0
  7  8  1  0  0  0  0
  9 18  1  0  0  0  0
  9 14  1  0  0  0  0
 10  9  1  0  0  0  0
 11 10  1  0  0  0  0
 12 10  1  0  0  0  0
 13 10  1  0  0  0  0
 14 16  1  0  0  0  0
 14 17  1  0  0  0  0
 14 15  1  0  0  0  0
 18 20  1  0  0  0  0
 18 21  1  0  0  0  0
 19 18  1  0  0  0  0
M  END
