1
q = 0.0, confidence = 0.992

 15 14  0  0  0  0  0  0  0  0999 V2000
    1.6360    0.0007   -1.2524 S   0  0  0  0  0  0  0  0  0  0  0  0
    2.7584   -1.4031   -0.8442 C   0  0  0  0  0  0  0  0  0  0  0  0
    3.6059   -1.3254   -1.5563 H   0  0  0  0  0  0  0  0  0  0  0  0
    3.1082   -1.2162    0.1916 H   0  0  0  0  0  0  0  0  0  0  0  0
    2.7612    1.4010   -0.8398 C   0  0  0  0  0  0  0  0  0  0  0  0
    3.1124    1.2091    0.1945 H   0  0  0  0  0  0  0  0  0  0  0  0
    3.6074    1.3251   -1.5537 H   0  0  0  0  0  0  0  0  0  0  0  0
    2.0249   -2.7305   -0.9540 C   0  0  0  0  0  0  0  0  0  0  0  0
    1.2159   -2.7828   -0.1983 H   0  0  0  0  0  0  0  0  0  0  0  0
    2.7302   -3.5635   -0.7612 H   0  0  0  0  0  0  0  0  0  0  0  0
    1.5801   -2.8821   -1.9584 H   0  0  0  0  0  0  0  0  0  0  0  0
    2.0298    2.7301   -0.9425 C   0  0  0  0  0  0  0  0  0  0  0  0
    1.5828    2.8867   -1.9452 H   0  0  0  0  0  0  0  0  0  0  0  0
    2.7370    3.5610   -0.7479 H   0  0  0  0  0  0  0  0  0  0  0  0
    1.2228    2.7807   -0.1845 H   0  0  0  0  0  0  0  0  0  0  0  0
  1  2  1  0  0  0  0
  1  5  1  0  0  0  0
  2  4  1  0  0  0  0
  3  2  1  0  0  0  0
  5  6  1  0  0  0  0
  7  5  1  0  0  0  0
  8  2  1  0  0  0  0
  8 10  1  0  0  0  0
  8  9  1  0  0  0  0
 11  8  1  0  0  0  0
 12  5  1  0  0  0  0
 12 14  1  0  0  0  0
 12 15  1  0  0  0  0
 13 12  1  0  0  0  0
M  END
