14
q = 0.0, confidence = 0.99

 14 13  0  0  0  0  0  0  0  0999 V2000
   -4.0433   -1.0535   -0.2943 C   0  0  0  0  0  0  0  0  0  0  0  0
   -2.6200    1.3486   -1.1329 C   0  0  0  0  0  0  0  0  0  0  0  0
   -2.5782    0.5185    1.6772 C   0  0  0  0  0  0  0  0  0  0  0  0
   -4.0433   -1.9257    0.3870 H   0  0  0  0  0  0  0  0  0  0  0  0
   -4.0661   -1.4183   -1.3390 H   0  0  0  0  0  0  0  0  0  0  0  0
   -4.9303   -0.4199   -0.0965 H   0  0  0  0  0  0  0  0  0  0  0  0
   -2.5467    1.0023   -2.1814 H   0  0  0  0  0  0  0  0  0  0  0  0
   -1.7863    2.0429   -0.9223 H   0  0  0  0  0  0  0  0  0  0  0  0
   -3.5841    1.8701   -0.9686 H   0  0  0  0  0  0  0  0  0  0  0  0
   -2.4722   -0.3393    2.3682 H   0  0  0  0  0  0  0  0  0  0  0  0
   -3.5447    1.0328    1.8497 H   0  0  0  0  0  0  0  0  0  0  0  0
   -1.7482    1.2269    1.8526 H   0  0  0  0  0  0  0  0  0  0  0  0
   -2.4991   -0.1091   -0.0373 P   0  0  0  0  0  4  0  0  0  0  0  0
   -0.9488   -1.3325   -0.4244 S   0  0  0  0  0  1  0  0  0  0  0  0
  1  6  1  0  0  0  0
  1 13  1  0  0  0  0
  1  4  1  0  0  0  0
  2  9  1  0  0  0  0
  2  8  1  0  0  0  0
  2 13  1  0  0  0  0
  3 11  1  0  0  0  0
  3 12  1  0  0  0  0
  3 10  1  0  0  0  0
  5  1  1  0  0  0  0
  7  2  1  0  0  0  0
 13  3  1  0  0  0  0
 14 13  1  0  0  0  0
M  END
