1
q = -1.0, confidence = 0.0

 22 22  0  0  0  0  0  0  0  0999 V2000
    2.8441   -2.1260    0.9638 S   0  0  0  0  0  1  0  0  0  0  0  0
    5.1859   -2.1641   -0.0658 O   0  0  0  0  0  0  0  0  0  0  0  0
    4.1912   -0.1549   -0.5022 N   0  0  0  0  0  0  0  0  0  0  0  0
    4.1288   -1.3219    0.0304 C   0  0  0  0  0  0  0  0  0  0  0  0
    3.2646    0.8706   -0.4106 C   0  0  0  0  0  0  0  0  0  0  0  0
    3.1901    1.6811    0.7658 C   0  0  0  0  0  0  0  0  0  0  0  0
    4.0317    1.3349    1.9625 C   0  0  0  0  0  0  0  0  0  0  0  0
    3.9369    2.0982    2.7588 H   0  0  0  0  0  0  0  0  0  0  0  0
    5.1023    1.2469    1.6806 H   0  0  0  0  0  0  0  0  0  0  0  0
    3.7386    0.3489    2.3822 H   0  0  0  0  0  0  0  0  0  0  0  0
    2.3388    2.7996    0.7550 C   0  0  0  0  0  0  0  0  0  0  0  0
    2.2967    3.4339    1.6562 H   0  0  0  0  0  0  0  0  0  0  0  0
    1.5545    3.1292   -0.3645 C   0  0  0  0  0  0  0  0  0  0  0  0
    0.8945    4.0093   -0.3388 H   0  0  0  0  0  0  0  0  0  0  0  0
    1.6198    2.3231   -1.5093 C   0  0  0  0  0  0  0  0  0  0  0  0
    1.0063    2.5596   -2.3914 H   0  0  0  0  0  0  0  0  0  0  0  0
    2.4681    1.2074   -1.5326 C   0  0  0  0  0  0  0  0  0  0  0  0
    2.5471    0.5775   -2.4309 H   0  0  0  0  0  0  0  0  0  0  0  0
    6.3455   -1.6449   -0.7146 C   0  0  0  0  0  0  0  0  0  0  0  0
    7.0952   -2.4573   -0.6898 H   0  0  0  0  0  0  0  0  0  0  0  0
    6.7298   -0.7449   -0.1902 H   0  0  0  0  0  0  0  0  0  0  0  0
    6.1202   -1.3533   -1.7614 H   0  0  0  0  0  0  0  0  0  0  0  0
  2  4  1  0  0  0  0
  3  5  1  0  0  0  0
  3  4  2  0  0  0  0
  4  1  1  0  0  0  0
  5  6  1  0  0  0  0
  6  7  1  0  0  0  0
  7 10  1  0  0  0  0
  7  8  1  0  0  0  0
  9  7  1  0  0  0  0
 11  6  2  0  0  0  0
 11 12  1  0  0  0  0
 13 14  1  0  0  0  0
 13 11  1  0  0  0  0
 15 13  2  0  0  0  0
 16 15  1  0  0  0  0
 17 15  1  0  0  0  0
 17  5  2  0  0  0  0
 18 17  1  0  0  0  0
 19 20  1  0  0  0  0
 19 21  1  0  0  0  0
 19  2  1  0  0  0  0
 22 19  1  0  0  0  0
M  END
