1
q = -1.0

 11 10  0  0  0  0  0  0  0  0999 V2000
   -1.4561    1.8874    0.6490 S   0  0  0  0  0  1  0  0  0  0  0  0
   -1.0019    3.2180   -0.5797 C   0  0  0  0  0  0  0  0  0  0  0  0
   -1.7870    3.0123   -1.8709 C   0  0  0  0  0  0  0  0  0  0  0  0
   -1.2603    4.5771    0.0698 C   0  0  0  0  0  0  0  0  0  0  0  0
    0.0791    3.1104   -0.8005 H   0  0  0  0  0  0  0  0  0  0  0  0
   -1.5708    2.0146   -2.3046 H   0  0  0  0  0  0  0  0  0  0  0  0
   -2.8779    3.0948   -1.6901 H   0  0  0  0  0  0  0  0  0  0  0  0
   -1.4995    3.7787   -2.6223 H   0  0  0  0  0  0  0  0  0  0  0  0
   -0.6486    4.7186    0.9836 H   0  0  0  0  0  0  0  0  0  0  0  0
   -1.0230    5.3975   -0.6406 H   0  0  0  0  0  0  0  0  0  0  0  0
   -2.3264    4.6770    0.3611 H   0  0  0  0  0  0  0  0  0  0  0  0
  2  4  1  0  0  0  0
  2  1  1  0  0  0  0
  3  7  1  0  0  0  0
  3  2  1  0  0  0  0
  4 11  1  0  0  0  0
  4  9  1  0  0  0  0
  5  2  1  0  0  0  0
  6  3  1  0  0  0  0
  8  3  1  0  0  0  0
 10  4  1  0  0  0  0
M  END
