1
q = 0.0, confidence = 0.994

 14 14  0  0  0  0  0  0  0  0999 V2000
    1.7915    0.8536   -1.2306 S   0  0  0  0  0  0  0  0  0  0  0  0
    3.8787    0.0026    0.9574 N   0  0  0  0  0  0  0  0  0  0  0  0
    4.5603   -1.8599   -0.1577 O   0  0  0  0  0  0  0  0  0  0  0  0
    2.7239    1.9291   -0.0800 C   0  0  0  0  0  0  0  0  0  0  0  0
    3.0747    1.1913    1.1998 C   0  0  0  0  0  0  0  0  0  0  0  0
    3.8700   -0.8481   -0.1166 C   0  0  0  0  0  0  0  0  0  0  0  0
    3.0415   -0.4840   -1.3515 C   0  0  0  0  0  0  0  0  0  0  0  0
    2.0415    2.7768    0.1209 H   0  0  0  0  0  0  0  0  0  0  0  0
    3.6240    2.2806   -0.6253 H   0  0  0  0  0  0  0  0  0  0  0  0
    2.1263    0.9443    1.7342 H   0  0  0  0  0  0  0  0  0  0  0  0
    3.6537    1.8779    1.8542 H   0  0  0  0  0  0  0  0  0  0  0  0
    2.4881   -1.3960   -1.6447 H   0  0  0  0  0  0  0  0  0  0  0  0
    3.7357   -0.2046   -2.1710 H   0  0  0  0  0  0  0  0  0  0  0  0
    4.4299   -0.3631    1.7385 H   0  0  0  0  0  0  0  0  0  0  0  0
  1  4  1  0  0  0  0
  2  5  1  0  0  0  0
  2 14  1  0  0  0  0
  3  6  2  0  0  0  0
  4  8  1  0  0  0  0
  4  5  1  0  0  0  0
  5 10  1  0  0  0  0
  5 11  1  0  0  0  0
  6  2  1  0  0  0  0
  7  1  1  0  0  0  0
  7  6  1  0  0  0  0
  9  4  1  0  0  0  0
 12  7  1  0  0  0  0
 13  7  1  0  0  0  0
M  END
