1
q = 0.0, confidence = 0.986

 51 54  0  0  0  0  0  0  0  0999 V2000
    0.9925    1.2595   -0.5434 S   0  0  0  0  0  0  0  0  0  0  0  0
   -1.6463    1.4066   -0.6933 N   0  0  0  0  0  0  0  0  0  0  0  0
   -1.8170   -1.2179    0.5184 N   0  0  0  0  0  0  0  0  0  0  0  0
   -0.5558    0.5885   -0.6066 C   0  0  0  0  0  0  0  0  0  0  0  0
   -0.8008   -0.9057   -0.4754 C   0  0  0  0  0  0  0  0  0  0  0  0
   -1.6027    2.7908   -0.3001 C   0  0  0  0  0  0  0  0  0  0  0  0
   -1.3025    3.1195    1.0348 C   0  0  0  0  0  0  0  0  0  0  0  0
   -1.2997    4.4641    1.4239 C   0  0  0  0  0  0  0  0  0  0  0  0
   -1.6012    5.4750    0.4948 C   0  0  0  0  0  0  0  0  0  0  0  0
   -1.9118    5.1362   -0.8311 C   0  0  0  0  0  0  0  0  0  0  0  0
   -1.9144    3.7927   -1.2339 C   0  0  0  0  0  0  0  0  0  0  0  0
   -2.8526    0.9568   -1.3267 C   0  0  0  0  0  0  0  0  0  0  0  0
   -4.0775    1.0183   -0.6397 C   0  0  0  0  0  0  0  0  0  0  0  0
   -5.2502    0.6091   -1.2867 C   0  0  0  0  0  0  0  0  0  0  0  0
   -5.2087    0.1588   -2.6177 C   0  0  0  0  0  0  0  0  0  0  0  0
   -3.9862    0.1194   -3.3061 C   0  0  0  0  0  0  0  0  0  0  0  0
   -2.8042    0.5188   -2.6635 C   0  0  0  0  0  0  0  0  0  0  0  0
   -1.7121   -0.6010    1.7879 C   0  0  0  0  0  0  0  0  0  0  0  0
   -2.8824   -0.2734    2.5147 C   0  0  0  0  0  0  0  0  0  0  0  0
   -2.7926    0.3953    3.7405 C   0  0  0  0  0  0  0  0  0  0  0  0
   -1.5415    0.7653    4.2670 C   0  0  0  0  0  0  0  0  0  0  0  0
   -0.3784    0.4398    3.5538 C   0  0  0  0  0  0  0  0  0  0  0  0
   -0.4577   -0.2425    2.3300 C   0  0  0  0  0  0  0  0  0  0  0  0
   -2.6939   -2.3123    0.3160 C   0  0  0  0  0  0  0  0  0  0  0  0
   -3.2698   -2.5666   -0.9482 C   0  0  0  0  0  0  0  0  0  0  0  0
   -4.1253   -3.6603   -1.1348 C   0  0  0  0  0  0  0  0  0  0  0  0
   -4.4362   -4.5184   -0.0691 C   0  0  0  0  0  0  0  0  0  0  0  0
   -3.8648   -4.2717    1.1900 C   0  0  0  0  0  0  0  0  0  0  0  0
   -2.9966   -3.1906    1.3834 C   0  0  0  0  0  0  0  0  0  0  0  0
   -1.0986   -1.3458   -1.4458 H   0  0  0  0  0  0  0  0  0  0  0  0
    0.1842   -1.3639   -0.2339 H   0  0  0  0  0  0  0  0  0  0  0  0
   -1.0786    2.3201    1.7552 H   0  0  0  0  0  0  0  0  0  0  0  0
   -1.0686    4.7221    2.4682 H   0  0  0  0  0  0  0  0  0  0  0  0
   -1.5991    6.5298    0.8077 H   0  0  0  0  0  0  0  0  0  0  0  0
   -2.1507    5.9230   -1.5621 H   0  0  0  0  0  0  0  0  0  0  0  0
   -2.1558    3.5145   -2.2699 H   0  0  0  0  0  0  0  0  0  0  0  0
   -4.0917    1.3766    0.3992 H   0  0  0  0  0  0  0  0  0  0  0  0
   -6.2075    0.6390   -0.7456 H   0  0  0  0  0  0  0  0  0  0  0  0
   -6.1345   -0.1580   -3.1203 H   0  0  0  0  0  0  0  0  0  0  0  0
   -3.9497   -0.2181   -4.3527 H   0  0  0  0  0  0  0  0  0  0  0  0
   -1.8399    0.5100   -3.1938 H   0  0  0  0  0  0  0  0  0  0  0  0
   -3.8631   -0.5523    2.1032 H   0  0  0  0  0  0  0  0  0  0  0  0
   -3.7154    0.6437    4.2868 H   0  0  0  0  0  0  0  0  0  0  0  0
   -1.4768    1.2986    5.2268 H   0  0  0  0  0  0  0  0  0  0  0  0
    0.6135    0.7128    3.9451 H   0  0  0  0  0  0  0  0  0  0  0  0
    0.4690   -0.4888    1.7963 H   0  0  0  0  0  0  0  0  0  0  0  0
   -3.0736   -1.8884   -1.7889 H   0  0  0  0  0  0  0  0  0  0  0  0
   -4.5653   -3.8305   -2.1294 H   0  0  0  0  0  0  0  0  0  0  0  0
   -5.1126   -5.3728   -0.2180 H   0  0  0  0  0  0  0  0  0  0  0  0
   -4.0812   -4.9427    2.0354 H   0  0  0  0  0  0  0  0  0  0  0  0
   -2.5366   -3.0230    2.3674 H   0  0  0  0  0  0  0  0  0  0  0  0
  2  4  1  0  0  0  0
  2  6  1  0  0  0  0
  3 18  1  0  0  0  0
  4  1  2  0  0  0  0
  4  5  1  0  0  0  0
  5 31  1  0  0  0  0
  5  3  1  0  0  0  0
  6  7  1  0  0  0  0
  7  8  2  0  0  0  0
  7 32  1  0  0  0  0
  8 33  1  0  0  0  0
  9 34  1  0  0  0  0
  9  8  1  0  0  0  0
 10  9  2  0  0  0  0
 11 10  1  0  0  0  0
 11  6  2  0  0  0  0
 12  2  1  0  0  0  0
 12 13  1  0  0  0  0
 13 37  1  0  0  0  0
 14 38  1  0  0  0  0
 14 13  2  0  0  0  0
 15 14  1  0  0  0  0
 16 17  1  0  0  0  0
 16 15  2  0  0  0  0
 17 12  2  0  0  0  0
 18 23  2  0  0  0  0
 18 19  1  0  0  0  0
 19 20  2  0  0  0  0
 20 21  1  0  0  0  0
 20 43  1  0  0  0  0
 21 44  1  0  0  0  0
 22 45  1  0  0  0  0
 22 21  2  0  0  0  0
 23 22  1  0  0  0  0
 24  3  1  0  0  0  0
 24 29  1  0  0  0  0
 25 24  2  0  0  0  0
 26 25  1  0  0  0  0
 26 27  2  0  0  0  0
 27 28  1  0  0  0  0
 28 29  2  0  0  0  0
 28 50  1  0  0  0  0
 29 51  1  0  0  0  0
 30  5  1  0  0  0  0
 35 10  1  0  0  0  0
 36 11  1  0  0  0  0
 39 15  1  0  0  0  0
 40 16  1  0  0  0  0
 41 17  1  0  0  0  0
 42 19  1  0  0  0  0
 46 23  1  0  0  0  0
 47 25  1  0  0  0  0
 48 26  1  0  0  0  0
 49 27  1  0  0  0  0
M  END
