1
q = 0.0, confidence = 0.994

 16 16  0  0  1  0  0  0  0  0999 V2000
    0.9497   -1.5997    0.7521 S   0  0  0  0  0  1  0  0  0  0  0  0
    2.1526   -1.4448   -1.6331 N   0  0  0  0  0  0  0  0  0  0  0  0
    2.2728   -1.6511   -0.3189 C   0  0  2  0  0  3  0  0  0  0  0  0
    3.6307   -1.9415    0.2003 C   0  0  0  0  0  0  0  0  0  0  0  0
    4.5552   -2.6835   -0.5709 C   0  0  0  0  0  0  0  0  0  0  0  0
    5.8425   -2.9343   -0.0797 C   0  0  0  0  0  0  0  0  0  0  0  0
    6.2246   -2.4350    1.1763 C   0  0  0  0  0  0  0  0  0  0  0  0
    5.3121   -1.6928    1.9446 C   0  0  0  0  0  0  0  0  0  0  0  0
    4.0183   -1.4532    1.4677 C   0  0  0  0  0  0  0  0  0  0  0  0
    1.2426   -1.1481   -2.0436 H   0  0  0  0  0  0  0  0  0  0  0  0
    2.9930   -1.2942   -2.1971 H   0  0  0  0  0  0  0  0  0  0  0  0
    4.2503   -3.1012   -1.5431 H   0  0  0  0  0  0  0  0  0  0  0  0
    6.5491   -3.5298   -0.6768 H   0  0  0  0  0  0  0  0  0  0  0  0
    7.2383   -2.6280    1.5589 H   0  0  0  0  0  0  0  0  0  0  0  0
    5.6126   -1.2922    2.9241 H   0  0  0  0  0  0  0  0  0  0  0  0
    3.2949   -0.8640    2.0501 H   0  0  0  0  0  0  0  0  0  0  0  0
  2  3  1  0  0  0  0
  3  4  1  0  0  0  0
  3  1  1  6  0  0  0
  4  9  1  0  0  0  0
  5  6  1  0  0  0  0
  5  4  2  0  0  0  0
  6  7  2  0  0  0  0
  7 14  1  0  0  0  0
  7  8  1  0  0  0  0
  8 15  1  0  0  0  0
  9  8  2  0  0  0  0
  9 16  1  0  0  0  0
 10  2  1  0  0  0  0
 11  2  1  0  0  0  0
 12  5  1  0  0  0  0
 13  6  1  0  0  0  0
M  END
