1
q = -1.0, confidence = 0.006

 26 28  0  0  1  0  0  0  0  0999 V2000
   -1.8449    1.3671   -0.7649 S   0  0  0  0  0  1  0  0  0  0  0  0
   -1.1755    3.0021   -0.2122 C   0  0  2  0  0  0  0  0  0  0  0  0
   -0.4402    2.8746    1.1387 C   0  0  0  0  0  0  0  0  0  0  0  0
   -2.3633    3.9724   -0.0338 C   0  0  0  0  0  0  0  0  0  0  0  0
   -0.2155    3.5948   -1.2647 C   0  0  0  0  0  0  0  0  0  0  0  0
    0.0750    4.2531    1.5998 C   0  0  2  0  0  0  0  0  0  0  0  0
   -1.1170    5.2141    1.7721 C   0  0  0  0  0  0  0  0  0  0  0  0
   -1.8593    5.3570    0.4285 C   0  0  1  0  0  0  0  0  0  0  0  0
   -0.8909    5.9319   -0.6242 C   0  0  0  0  0  0  0  0  0  0  0  0
    0.3017    4.9726   -0.8025 C   0  0  1  0  0  0  0  0  0  0  0  0
    1.0447    4.8107    0.5387 C   0  0  0  0  0  0  0  0  0  0  0  0
   -1.1380    2.4423    1.8877 H   0  0  0  0  0  0  0  0  0  0  0  0
    0.4079    2.1668    1.0217 H   0  0  0  0  0  0  0  0  0  0  0  0
   -2.9139    4.0592   -0.9956 H   0  0  0  0  0  0  0  0  0  0  0  0
   -3.0732    3.5469    0.7079 H   0  0  0  0  0  0  0  0  0  0  0  0
    0.6344    2.8996   -1.4226 H   0  0  0  0  0  0  0  0  0  0  0  0
   -0.7524    3.6789   -2.2338 H   0  0  0  0  0  0  0  0  0  0  0  0
    0.6092    4.1406    2.5689 H   0  0  0  0  0  0  0  0  0  0  0  0
   -1.8102    4.8233    2.5491 H   0  0  0  0  0  0  0  0  0  0  0  0
   -0.7649    6.2113    2.1205 H   0  0  0  0  0  0  0  0  0  0  0  0
   -2.7274    6.0423    0.5520 H   0  0  0  0  0  0  0  0  0  0  0  0
   -1.4192    6.0652   -1.5938 H   0  0  0  0  0  0  0  0  0  0  0  0
   -0.5351    6.9376   -0.3056 H   0  0  0  0  0  0  0  0  0  0  0  0
    0.9991    5.3793   -1.5675 H   0  0  0  0  0  0  0  0  0  0  0  0
    1.4561    5.7906    0.8705 H   0  0  0  0  0  0  0  0  0  0  0  0
    1.8982    4.1116    0.4098 H   0  0  0  0  0  0  0  0  0  0  0  0
  2  1  1  6  0  0  0
  2  4  1  0  0  0  0
  2  3  1  0  0  0  0
  3  6  1  0  0  0  0
  3 12  1  0  0  0  0
  4  8  1  0  0  0  0
  4 15  1  0  0  0  0
  5 10  1  0  0  0  0
  5  2  1  0  0  0  0
  6  7  1  0  0  0  0
  6 18  1  1  0  0  0
  7 20  1  0  0  0  0
  7 19  1  0  0  0  0
  8 21  1  1  0  0  0
  8  7  1  0  0  0  0
  9 23  1  0  0  0  0
  9  8  1  0  0  0  0
 10 24  1  6  0  0  0
 10  9  1  0  0  0  0
 10 11  1  0  0  0  0
 11 25  1  0  0  0  0
 11  6  1  0  0  0  0
 13  3  1  0  0  0  0
 14  4  1  0  0  0  0
 16  5  1  0  0  0  0
 17  5  1  0  0  0  0
 22  9  1  0  0  0  0
 26 11  1  0  0  0  0
M  END
