1
q = -1.0, confidence = 0.0

 15 15  0  0  0  0  0  0  0  0999 V2000
    2.6067   -1.5098    1.3097 S   0  0  0  0  0  1  0  0  0  0  0  0
    2.1381    1.6513    0.8274 O   0  0  0  0  0  0  0  0  0  0  0  0
    3.9997    2.8636    0.5166 O   0  0  0  0  0  0  0  0  0  0  0  0
    3.3147    1.6832    0.4833 C   0  0  0  0  0  0  0  0  0  0  0  0
    4.1478    0.5573   -0.0111 C   0  0  0  0  0  0  0  0  0  0  0  0
    3.8714   -0.8208    0.2665 C   0  0  0  0  0  0  0  0  0  0  0  0
    4.7835   -1.7826   -0.2431 C   0  0  0  0  0  0  0  0  0  0  0  0
    5.8978   -1.4273   -1.0049 C   0  0  0  0  0  0  0  0  0  0  0  0
    6.1535   -0.0745   -1.2900 C   0  0  0  0  0  0  0  0  0  0  0  0
    5.2888    0.8953   -0.7837 C   0  0  0  0  0  0  0  0  0  0  0  0
    3.3391    3.5172    0.8304 H   0  0  0  0  0  0  0  0  0  0  0  0
    4.5758   -2.8403   -0.0236 H   0  0  0  0  0  0  0  0  0  0  0  0
    6.5678   -2.2136   -1.3863 H   0  0  0  0  0  0  0  0  0  0  0  0
    7.0223    0.2200   -1.8970 H   0  0  0  0  0  0  0  0  0  0  0  0
    5.4811    1.9582   -0.9820 H   0  0  0  0  0  0  0  0  0  0  0  0
  3 11  1  0  0  0  0
  4  3  1  0  0  0  0
  4  2  2  0  0  0  0
  5  6  1  0  0  0  0
  5  4  1  0  0  0  0
  6  1  1  0  0  0  0
  7 12  1  0  0  0  0
  7  6  2  0  0  0  0
  8  7  1  0  0  0  0
  9  8  2  0  0  0  0
  9 10  1  0  0  0  0
 10  5  2  0  0  0  0
 13  8  1  0  0  0  0
 14  9  1  0  0  0  0
 15 10  1  0  0  0  0
M  END
