1
q = -1.0, confidence = 0.004

 14 13  0  0  0  0  0  0  0  0999 V2000
    0.4683    1.6713   -0.7931 S   0  0  0  0  0  1  0  0  0  0  0  0
    2.0432    1.4355    0.1542 C   0  0  0  0  0  0  0  0  0  0  0  0
    2.5401    2.4301    0.1481 H   0  0  0  0  0  0  0  0  0  0  0  0
    1.7729    1.2009    1.2052 H   0  0  0  0  0  0  0  0  0  0  0  0
    2.9595    0.3636   -0.4280 C   0  0  0  0  0  0  0  0  0  0  0  0
    2.3870   -0.5880   -0.4980 H   0  0  0  0  0  0  0  0  0  0  0  0
    3.2352    0.6401   -1.4699 H   0  0  0  0  0  0  0  0  0  0  0  0
    4.2249    0.1410    0.4078 C   0  0  0  0  0  0  0  0  0  0  0  0
    3.9273   -0.1338    1.4442 H   0  0  0  0  0  0  0  0  0  0  0  0
    4.7918    1.0963    0.4999 H   0  0  0  0  0  0  0  0  0  0  0  0
    5.1350   -0.9461   -0.1668 C   0  0  0  0  0  0  0  0  0  0  0  0
    4.5970   -1.9143   -0.2369 H   0  0  0  0  0  0  0  0  0  0  0  0
    6.0400   -1.1058    0.4559 H   0  0  0  0  0  0  0  0  0  0  0  0
    5.4741   -0.6863   -1.1923 H   0  0  0  0  0  0  0  0  0  0  0  0
  1  2  1  0  0  0  0
  2  4  1  0  0  0  0
  3  2  1  0  0  0  0
  5  2  1  0  0  0  0
  5  8  1  0  0  0  0
  6  5  1  0  0  0  0
  7  5  1  0  0  0  0
  8 10  1  0  0  0  0
  8  9  1  0  0  0  0
 11  8  1  0  0  0  0
 11 13  1  0  0  0  0
 12 11  1  0  0  0  0
 14 11  1  0  0  0  0
M  END
