4
q = -1.0

  7  7  0  0  0  0  0  0  0  0999 V2000
   -3.4321   -3.5941   -1.9638 S   0  0  0  0  0  0  0  0  0  0  0  0
   -3.2608   -2.0557   -2.6165 N   0  0  0  0  0  0  0  0  0  0  0  0
   -2.2731   -1.4334   -1.9679 C   0  0  0  0  0  0  0  0  0  0  0  0
   -1.8511    0.2167   -2.3811 S   0  0  0  0  0  0  0  0  0  0  0  0
   -1.6157   -2.1109   -0.9447 N   0  0  0  0  0  0  0  0  0  0  0  0
   -2.1425   -3.2946   -0.8195 C   0  0  0  0  0  0  0  0  0  0  0  0
   -1.6449   -4.4606    0.3482 Cl  0  0  0  0  0  0  0  0  0  0  0  0
  1  6  1  0  0  0  0
  2  3  2  0  0  0  0
  2  1  1  0  0  0  0
  3  5  1  0  0  0  0
  4  3  1  0  0  0  0
  5  6  2  0  0  0  0
  6  7  1  0  0  0  0
M  END
