1
q = -1.0

 27 29  0  0  0  0  0  0  0  0999 V2000
   -2.3456   -2.3793   -0.1690 S   0  0  0  0  0  1  0  0  0  0  0  0
   -1.1138    0.2911   -1.2842 N   0  0  0  0  0  0  0  0  0  0  0  0
   -0.4661    1.3765   -1.7167 C   0  0  0  0  0  0  0  0  0  0  0  0
   -1.1643    2.5896   -2.0044 C   0  0  0  0  0  0  0  0  0  0  0  0
   -2.5385    2.6230   -1.8729 C   0  0  0  0  0  0  0  0  0  0  0  0
   -3.2485    1.4695   -1.4378 C   0  0  0  0  0  0  0  0  0  0  0  0
   -4.6622    1.4543   -1.3071 C   0  0  0  0  0  0  0  0  0  0  0  0
   -5.2931    0.3001   -0.8630 C   0  0  0  0  0  0  0  0  0  0  0  0
   -4.5419   -0.8450   -0.5194 C   0  0  0  0  0  0  0  0  0  0  0  0
   -3.1430   -0.8820   -0.6280 C   0  0  0  0  0  0  0  0  0  0  0  0
   -2.4642    0.2963   -1.1230 C   0  0  0  0  0  0  0  0  0  0  0  0
    0.9989    1.2869   -1.9285 C   0  0  0  0  0  0  0  0  0  0  0  0
    1.8428    2.3853   -1.6523 C   0  0  0  0  0  0  0  0  0  0  0  0
    3.2270    2.2838   -1.8420 C   0  0  0  0  0  0  0  0  0  0  0  0
    3.7878    1.0892   -2.3216 C   0  0  0  0  0  0  0  0  0  0  0  0
    2.9563   -0.0023   -2.6150 C   0  0  0  0  0  0  0  0  0  0  0  0
    1.5729    0.0958   -2.4235 C   0  0  0  0  0  0  0  0  0  0  0  0
   -0.6078    3.4631   -2.3713 H   0  0  0  0  0  0  0  0  0  0  0  0
   -3.1046    3.5369   -2.1131 H   0  0  0  0  0  0  0  0  0  0  0  0
   -5.2346    2.3594   -1.5606 H   0  0  0  0  0  0  0  0  0  0  0  0
   -6.3885    0.2712   -0.7594 H   0  0  0  0  0  0  0  0  0  0  0  0
   -5.0591   -1.7410   -0.1446 H   0  0  0  0  0  0  0  0  0  0  0  0
    1.4149    3.3123   -1.2423 H   0  0  0  0  0  0  0  0  0  0  0  0
    3.8767    3.1367   -1.5952 H   0  0  0  0  0  0  0  0  0  0  0  0
    4.8763    1.0069   -2.4566 H   0  0  0  0  0  0  0  0  0  0  0  0
    3.3869   -0.9451   -2.9831 H   0  0  0  0  0  0  0  0  0  0  0  0
    0.9169   -0.7506   -2.6732 H   0  0  0  0  0  0  0  0  0  0  0  0
  2 11  1  0  0  0  0
  3  2  2  0  0  0  0
  4  5  2  0  0  0  0
  4  3  1  0  0  0  0
  5  6  1  0  0  0  0
  6  7  2  0  0  0  0
  6 11  1  0  0  0  0
  7  8  1  0  0  0  0
  8 21  1  0  0  0  0
  8  9  2  0  0  0  0
  9 22  1  0  0  0  0
 10  9  1  0  0  0  0
 10  1  1  0  0  0  0
 11 10  2  0  0  0  0
 12  3  1  0  0  0  0
 12 13  1  0  0  0  0
 13 23  1  0  0  0  0
 14 13  2  0  0  0  0
 14 24  1  0  0  0  0
 15 14  1  0  0  0  0
 16 17  1  0  0  0  0
 16 15  2  0  0  0  0
 17 12  2  0  0  0  0
 18  4  1  0  0  0  0
 19  5  1  0  0  0  0
 20  7  1  0  0  0  0
 25 15  1  0  0  0  0
 26 16  1  0  0  0  0
 27 17  1  0  0  0  0
M  END
