1
q = -1.0, confidence = 0.004

 11 10  0  0  0  0  0  0  0  0999 V2000
   -0.0701    2.8164   -0.2166 S   0  0  0  0  0  1  0  0  0  0  0  0
    2.4495    4.0878    0.8045 S   0  0  0  0  0  0  0  0  0  0  0  0
    1.4530    2.7689    0.6263 C   0  0  0  0  0  0  0  0  0  0  0  0
    1.7390    1.5340    1.1459 O   0  0  0  0  0  0  0  0  0  0  0  0
    2.9232    1.4042    1.9544 C   0  0  0  0  0  0  0  0  0  0  0  0
    3.7917    1.8036    1.3876 H   0  0  0  0  0  0  0  0  0  0  0  0
    2.8139    2.0584    2.8466 H   0  0  0  0  0  0  0  0  0  0  0  0
    3.0959   -0.0540    2.3306 C   0  0  0  0  0  0  0  0  0  0  0  0
    3.9475   -0.1571    3.0323 H   0  0  0  0  0  0  0  0  0  0  0  0
    3.3121   -0.6822    1.4443 H   0  0  0  0  0  0  0  0  0  0  0  0
    2.1901   -0.4540    2.8293 H   0  0  0  0  0  0  0  0  0  0  0  0
  1  3  1  0  0  0  0
  3  2  2  0  0  0  0
  3  4  1  0  0  0  0
  4  5  1  0  0  0  0
  5  8  1  0  0  0  0
  5  7  1  0  0  0  0
  6  5  1  0  0  0  0
  8 11  1  0  0  0  0
  8  9  1  0  0  0  0
 10  8  1  0  0  0  0
M  END
