1
q = -1.0

 39 39  0  0  0  0  0  0  0  0999 V2000
    0.4806    0.1450   -1.8756 S   0  0  0  0  0  1  0  0  0  0  0  0
   -1.2433    0.1890   -1.3307 C   0  0  0  0  0  0  0  0  0  0  0  0
   -1.8571    1.4384   -1.0422 C   0  0  0  0  0  0  0  0  0  0  0  0
   -3.1880    1.4377   -0.5871 C   0  0  0  0  0  0  0  0  0  0  0  0
   -3.6708    2.3970   -0.3424 H   0  0  0  0  0  0  0  0  0  0  0  0
   -3.9241    0.2547   -0.4171 C   0  0  0  0  0  0  0  0  0  0  0  0
   -3.3009   -0.9620   -0.7433 C   0  0  0  0  0  0  0  0  0  0  0  0
   -3.8615   -1.9018   -0.6242 H   0  0  0  0  0  0  0  0  0  0  0  0
   -1.9751   -1.0250   -1.2063 C   0  0  0  0  0  0  0  0  0  0  0  0
   -1.1050    2.7473   -1.2442 C   0  0  0  0  0  0  0  0  0  0  0  0
   -0.0467    2.5342   -0.9849 H   0  0  0  0  0  0  0  0  0  0  0  0
   -1.5753    3.8880   -0.3368 C   0  0  0  0  0  0  0  0  0  0  0  0
   -0.9055    4.7644   -0.4555 H   0  0  0  0  0  0  0  0  0  0  0  0
   -1.5433    3.5821    0.7279 H   0  0  0  0  0  0  0  0  0  0  0  0
   -2.6050    4.2293   -0.5796 H   0  0  0  0  0  0  0  0  0  0  0  0
   -1.1446    3.1575   -2.7278 C   0  0  0  0  0  0  0  0  0  0  0  0
   -0.5473    4.0782   -2.8982 H   0  0  0  0  0  0  0  0  0  0  0  0
   -2.1869    3.3557   -3.0580 H   0  0  0  0  0  0  0  0  0  0  0  0
   -0.7247    2.3560   -3.3677 H   0  0  0  0  0  0  0  0  0  0  0  0
   -1.3510   -2.3579   -1.5984 C   0  0  0  0  0  0  0  0  0  0  0  0
   -0.2789   -2.2875   -1.3192 H   0  0  0  0  0  0  0  0  0  0  0  0
   -1.9351   -3.5670   -0.8621 C   0  0  0  0  0  0  0  0  0  0  0  0
   -1.3534   -4.4778   -1.1125 H   0  0  0  0  0  0  0  0  0  0  0  0
   -2.9918   -3.7676   -1.1431 H   0  0  0  0  0  0  0  0  0  0  0  0
   -1.8802   -3.4253    0.2355 H   0  0  0  0  0  0  0  0  0  0  0  0
   -1.4220   -2.5453   -3.1252 C   0  0  0  0  0  0  0  0  0  0  0  0
   -0.9238   -1.7045   -3.6476 H   0  0  0  0  0  0  0  0  0  0  0  0
   -2.4769   -2.5934   -3.4710 H   0  0  0  0  0  0  0  0  0  0  0  0
   -0.9150   -3.4850   -3.4307 H   0  0  0  0  0  0  0  0  0  0  0  0
   -5.3386    0.2936    0.1446 C   0  0  0  0  0  0  0  0  0  0  0  0
   -5.6183    1.3671    0.2327 H   0  0  0  0  0  0  0  0  0  0  0  0
   -6.3597   -0.3764   -0.7891 C   0  0  0  0  0  0  0  0  0  0  0  0
   -6.3399    0.0808   -1.7989 H   0  0  0  0  0  0  0  0  0  0  0  0
   -7.3909   -0.2873   -0.3862 H   0  0  0  0  0  0  0  0  0  0  0  0
   -6.1422   -1.4582   -0.9093 H   0  0  0  0  0  0  0  0  0  0  0  0
   -5.3922   -0.3152    1.5572 C   0  0  0  0  0  0  0  0  0  0  0  0
   -4.6737    0.1869    2.2350 H   0  0  0  0  0  0  0  0  0  0  0  0
   -5.1228   -1.3918    1.5338 H   0  0  0  0  0  0  0  0  0  0  0  0
   -6.4092   -0.2294    1.9961 H   0  0  0  0  0  0  0  0  0  0  0  0
  1  2  1  0  0  0  0
  2  9  2  0  0  0  0
  2  3  1  0  0  0  0
  3  4  2  0  0  0  0
  4  6  1  0  0  0  0
  4  5  1  0  0  0  0
  6 30  1  0  0  0  0
  7  8  1  0  0  0  0
  7  6  2  0  0  0  0
  9  7  1  0  0  0  0
 10  3  1  0  0  0  0
 10 11  1  0  0  0  0
 10 12  1  0  0  0  0
 12 14  1  0  0  0  0
 13 12  1  0  0  0  0
 15 12  1  0  0  0  0
 16 10  1  0  0  0  0
 17 16  1  0  0  0  0
 18 16  1  0  0  0  0
 19 16  1  0  0  0  0
 20 21  1  0  0  0  0
 20  9  1  0  0  0  0
 20 22  1  0  0  0  0
 22 25  1  0  0  0  0
 23 22  1  0  0  0  0
 24 22  1  0  0  0  0
 26 20  1  0  0  0  0
 27 26  1  0  0  0  0
 28 26  1  0  0  0  0
 29 26  1  0  0  0  0
 30 31  1  0  0  0  0
 30 36  1  0  0  0  0
 32 34  1  0  0  0  0
 32 30  1  0  0  0  0
 33 32  1  0  0  0  0
 35 32  1  0  0  0  0
 36 39  1  0  0  0  0
 36 37  1  0  0  0  0
 38 36  1  0  0  0  0
M  END
