1
q = -1.0

 30 29  0  0  0  0  0  0  0  0999 V2000
   -1.3830   -0.3002   -0.4665 S   0  0  0  0  0  1  0  0  0  0  0  0
   -9.1182    1.7757    0.8666 C   0  0  0  0  0  0  0  0  0  0  0  0
   -7.1608   -0.5547   -0.1319 C   0  0  0  0  0  0  0  0  0  0  0  0
   -3.7890   -2.2662   -1.2537 C   0  0  0  0  0  0  0  0  0  0  0  0
   -6.0871   -1.1349   -1.0561 C   0  0  0  0  0  0  0  0  0  0  0  0
  -10.2789    2.3081    1.7080 C   0  0  0  0  0  0  0  0  0  0  0  0
   -4.8718   -1.6980   -0.3164 C   0  0  0  0  0  0  0  0  0  0  0  0
   -2.5834   -2.7942   -0.5269 C   0  0  0  0  0  0  0  0  0  0  0  0
   -9.4934    0.5514    0.0233 C   0  0  0  0  0  0  0  0  0  0  0  0
   -8.3713    0.0179   -0.8772 C   0  0  0  0  0  0  0  0  0  0  0  0
   -1.5145   -2.0441   -0.1595 C   0  0  0  0  0  0  0  0  0  0  0  0
   -0.6791   -2.5153    0.3833 H   0  0  0  0  0  0  0  0  0  0  0  0
   -2.5827   -3.8573   -0.2254 H   0  0  0  0  0  0  0  0  0  0  0  0
   -3.4648   -1.4552   -1.9442 H   0  0  0  0  0  0  0  0  0  0  0  0
   -4.2377   -3.0656   -1.8843 H   0  0  0  0  0  0  0  0  0  0  0  0
   -4.4100   -0.9003    0.3056 H   0  0  0  0  0  0  0  0  0  0  0  0
   -5.2002   -2.4889    0.3950 H   0  0  0  0  0  0  0  0  0  0  0  0
   -5.7480   -0.3459   -1.7652 H   0  0  0  0  0  0  0  0  0  0  0  0
   -6.5385   -1.9315   -1.6914 H   0  0  0  0  0  0  0  0  0  0  0  0
   -6.6983    0.2316    0.5045 H   0  0  0  0  0  0  0  0  0  0  0  0
   -7.5069   -1.3447    0.5738 H   0  0  0  0  0  0  0  0  0  0  0  0
   -8.0296    0.8306   -1.5583 H   0  0  0  0  0  0  0  0  0  0  0  0
   -8.7866   -0.7721   -1.5415 H   0  0  0  0  0  0  0  0  0  0  0  0
  -10.3730    0.8107   -0.6074 H   0  0  0  0  0  0  0  0  0  0  0  0
   -9.8405   -0.2636    0.6994 H   0  0  0  0  0  0  0  0  0  0  0  0
   -8.7441    2.5782    0.1917 H   0  0  0  0  0  0  0  0  0  0  0  0
   -8.2648    1.5249    1.5332 H   0  0  0  0  0  0  0  0  0  0  0  0
  -11.1373    2.6062    1.0696 H   0  0  0  0  0  0  0  0  0  0  0  0
   -9.9837    3.1940    2.3061 H   0  0  0  0  0  0  0  0  0  0  0  0
  -10.6501    1.5367    2.4151 H   0  0  0  0  0  0  0  0  0  0  0  0
  1 11  1  0  0  0  0
  2 27  1  0  0  0  0
  2  6  1  0  0  0  0
  3 20  1  0  0  0  0
  3 21  1  0  0  0  0
  4  8  1  0  0  0  0
  4  7  1  0  0  0  0
  5  7  1  0  0  0  0
  5  3  1  0  0  0  0
  6 29  1  0  0  0  0
  6 30  1  0  0  0  0
  7 16  1  0  0  0  0
  7 17  1  0  0  0  0
  8 13  1  0  0  0  0
  8 11  2  0  0  0  0
  9 25  1  0  0  0  0
  9  2  1  0  0  0  0
 10  3  1  0  0  0  0
 10  9  1  0  0  0  0
 11 12  1  0  0  0  0
 14  4  1  0  0  0  0
 15  4  1  0  0  0  0
 18  5  1  0  0  0  0
 19  5  1  0  0  0  0
 22 10  1  0  0  0  0
 23 10  1  0  0  0  0
 24  9  1  0  0  0  0
 26  2  1  0  0  0  0
 28  6  1  0  0  0  0
M  END
