2
q = -1.0

 17 17  0  0  0  0  0  0  0  0999 V2000
   -0.2863    1.9040    1.5178 S   0  0  0  0  0  0  0  0  0  0  0  0
   -0.1388    1.8039   -1.4194 S   0  0  0  0  0  1  0  0  0  0  0  0
   -2.9093    5.8890   -0.2064 O   0  0  0  0  0  0  0  0  0  0  0  0
   -0.7768    4.0403   -0.0495 N   0  0  0  0  0  0  0  0  0  0  0  0
   -0.4324    2.7253    0.0044 C   0  0  0  0  0  0  0  0  0  0  0  0
   -1.1756    4.8074    1.1273 C   0  0  0  0  0  0  0  0  0  0  0  0
   -0.5537    5.7281    1.1821 H   0  0  0  0  0  0  0  0  0  0  0  0
   -0.9926    4.1988    2.0339 H   0  0  0  0  0  0  0  0  0  0  0  0
   -2.6551    5.1855    0.9989 C   0  0  0  0  0  0  0  0  0  0  0  0
   -3.2663    4.2502    1.0478 H   0  0  0  0  0  0  0  0  0  0  0  0
   -2.9602    5.8504    1.8318 H   0  0  0  0  0  0  0  0  0  0  0  0
   -2.5414    5.1179   -1.3396 C   0  0  0  0  0  0  0  0  0  0  0  0
   -2.7616    5.7339   -2.2345 H   0  0  0  0  0  0  0  0  0  0  0  0
   -3.1498    4.1812   -1.3942 H   0  0  0  0  0  0  0  0  0  0  0  0
   -1.0582    4.7354   -1.3029 C   0  0  0  0  0  0  0  0  0  0  0  0
   -0.7916    4.0724   -2.1485 H   0  0  0  0  0  0  0  0  0  0  0  0
   -0.4299    5.6521   -1.3520 H   0  0  0  0  0  0  0  0  0  0  0  0
  2  5  1  0  0  0  0
  3  9  1  0  0  0  0
  4  5  1  0  0  0  0
  4  6  1  0  0  0  0
  5  1  2  0  0  0  0
  6  7  1  0  0  0  0
  6  8  1  0  0  0  0
  9 10  1  0  0  0  0
  9  6  1  0  0  0  0
  9 11  1  0  0  0  0
 12 15  1  0  0  0  0
 12  3  1  0  0  0  0
 13 12  1  0  0  0  0
 14 12  1  0  0  0  0
 15  4  1  0  0  0  0
 16 15  1  0  0  0  0
 17 15  1  0  0  0  0
M  END
