1
q = 0.0, confidence = 0.972

 16 16  0  0  0  0  0  0  0  0999 V2000
    2.4471   -1.3673   -0.9081 S   0  0  0  0  0  0  0  0  0  0  0  0
    3.3304   -2.5090    0.1902 C   0  0  0  0  0  0  0  0  0  0  0  0
    4.3503   -2.6636   -0.2087 H   0  0  0  0  0  0  0  0  0  0  0  0
    2.7311   -3.4364    0.1363 H   0  0  0  0  0  0  0  0  0  0  0  0
    3.3162   -2.1362    1.2315 H   0  0  0  0  0  0  0  0  0  0  0  0
    3.4645    0.1070   -0.8460 C   0  0  0  0  0  0  0  0  0  0  0  0
    3.1738    1.0856   -1.8193 C   0  0  0  0  0  0  0  0  0  0  0  0
    2.3543    0.9071   -2.5329 H   0  0  0  0  0  0  0  0  0  0  0  0
    3.9097    2.2774   -1.8410 C   0  0  0  0  0  0  0  0  0  0  0  0
    3.6787    3.0417   -2.5981 H   0  0  0  0  0  0  0  0  0  0  0  0
    4.9335    2.4970   -0.9045 C   0  0  0  0  0  0  0  0  0  0  0  0
    5.5133    3.4318   -0.9288 H   0  0  0  0  0  0  0  0  0  0  0  0
    5.2162    1.5193    0.0625 C   0  0  0  0  0  0  0  0  0  0  0  0
    6.0160    1.6860    0.8000 H   0  0  0  0  0  0  0  0  0  0  0  0
    4.4819    0.3231    0.1016 C   0  0  0  0  0  0  0  0  0  0  0  0
    4.6998   -0.4283    0.8720 H   0  0  0  0  0  0  0  0  0  0  0  0
  1  6  1  0  0  0  0
  1  2  1  0  0  0  0
  2  5  1  0  0  0  0
  3  2  1  0  0  0  0
  4  2  1  0  0  0  0
  6 15  1  0  0  0  0
  7  6  2  0  0  0  0
  8  7  1  0  0  0  0
  9  7  1  0  0  0  0
  9 11  2  0  0  0  0
 10  9  1  0  0  0  0
 11 13  1  0  0  0  0
 12 11  1  0  0  0  0
 13 15  2  0  0  0  0
 13 14  1  0  0  0  0
 15 16  1  0  0  0  0
M  END
