1
q = -1.0

 24 24  0  0  0  0  0  0  0  0999 V2000
    1.9862   -0.7346    0.3002 S   0  0  0  0  0  1  0  0  0  0  0  0
    1.3232    1.7590   -0.2136 O   0  0  0  0  0  0  0  0  0  0  0  0
    8.7729   -2.1155   -0.7049 O   0  0  0  0  0  0  0  0  0  0  0  0
    9.4569   -0.6954    0.8105 O   0  0  0  0  0  0  0  0  0  0  0  0
    3.5850    1.4687   -0.0704 N   0  0  0  0  0  0  0  0  0  0  0  0
    8.6021   -1.1473    0.0423 N   0  0  0  0  0  0  0  0  0  0  0  0
    2.4025    0.9580   -0.0336 C   0  0  0  0  0  0  0  0  0  0  0  0
    4.7792    0.7745   -0.0341 C   0  0  0  0  0  0  0  0  0  0  0  0
    5.0455   -0.3455   -0.8691 C   0  0  0  0  0  0  0  0  0  0  0  0
    4.2545   -0.7138   -1.5373 H   0  0  0  0  0  0  0  0  0  0  0  0
    6.2921   -0.9695   -0.8472 C   0  0  0  0  0  0  0  0  0  0  0  0
    6.5202   -1.8338   -1.4851 H   0  0  0  0  0  0  0  0  0  0  0  0
    7.2893   -0.4861    0.0155 C   0  0  0  0  0  0  0  0  0  0  0  0
    7.0590    0.6207    0.8489 C   0  0  0  0  0  0  0  0  0  0  0  0
    7.8695    0.9658    1.5044 H   0  0  0  0  0  0  0  0  0  0  0  0
    5.8153    1.2488    0.8142 C   0  0  0  0  0  0  0  0  0  0  0  0
    5.6080    2.1245    1.4458 H   0  0  0  0  0  0  0  0  0  0  0  0
    1.5646    3.1536   -0.4872 C   0  0  0  0  0  0  0  0  0  0  0  0
    2.1523    3.2412   -1.4262 H   0  0  0  0  0  0  0  0  0  0  0  0
    2.1980    3.5740    0.3226 H   0  0  0  0  0  0  0  0  0  0  0  0
    0.2139    3.8355   -0.5861 C   0  0  0  0  0  0  0  0  0  0  0  0
    0.3486    4.9144   -0.7997 H   0  0  0  0  0  0  0  0  0  0  0  0
   -0.3505    3.7381    0.3629 H   0  0  0  0  0  0  0  0  0  0  0  0
   -0.4020    3.3937   -1.3945 H   0  0  0  0  0  0  0  0  0  0  0  0
  2  7  1  0  0  0  0
  3  6  2  0  0  0  0
  5  8  1  0  0  0  0
  5  7  2  0  0  0  0
  6  4  2  0  0  0  0
  7  1  1  0  0  0  0
  8 16  1  0  0  0  0
  9 11  1  0  0  0  0
  9  8  2  0  0  0  0
 10  9  1  0  0  0  0
 11 13  2  0  0  0  0
 12 11  1  0  0  0  0
 13  6  1  0  0  0  0
 13 14  1  0  0  0  0
 14 15  1  0  0  0  0
 16 14  2  0  0  0  0
 16 17  1  0  0  0  0
 18  2  1  0  0  0  0
 18 20  1  0  0  0  0
 19 18  1  0  0  0  0
 21 18  1  0  0  0  0
 21 23  1  0  0  0  0
 22 21  1  0  0  0  0
 24 21  1  0  0  0  0
M  END
