1
q = -1.0, confidence = 0.0

 25 25  0  0  0  0  0  0  0  0999 V2000
    2.2919   -1.2051    0.1087 S   0  0  0  0  0  1  0  0  0  0  0  0
    1.9874    1.2783   -0.7300 O   0  0  0  0  0  0  0  0  0  0  0  0
    4.1908    0.6943   -0.4576 N   0  0  0  0  0  0  0  0  0  0  0  0
    2.9508    0.3679   -0.4002 C   0  0  0  0  0  0  0  0  0  0  0  0
    5.2688   -0.1665   -0.2492 C   0  0  0  0  0  0  0  0  0  0  0  0
    6.2972    0.2494    0.6441 C   0  0  0  0  0  0  0  0  0  0  0  0
    7.4219   -0.5772    0.8092 C   0  0  0  0  0  0  0  0  0  0  0  0
    8.2147   -0.2567    1.5046 H   0  0  0  0  0  0  0  0  0  0  0  0
    7.5553   -1.7880    0.1112 C   0  0  0  0  0  0  0  0  0  0  0  0
    8.4487   -2.4139    0.2567 H   0  0  0  0  0  0  0  0  0  0  0  0
    6.5433   -2.1871   -0.7753 C   0  0  0  0  0  0  0  0  0  0  0  0
    6.6354   -3.1310   -1.3349 H   0  0  0  0  0  0  0  0  0  0  0  0
    5.4094   -1.3846   -0.9533 C   0  0  0  0  0  0  0  0  0  0  0  0
    4.6139   -1.6880   -1.6492 H   0  0  0  0  0  0  0  0  0  0  0  0
    6.1522    1.5497    1.3875 C   0  0  0  0  0  0  0  0  0  0  0  0
    7.0559    1.7784    1.9852 H   0  0  0  0  0  0  0  0  0  0  0  0
    5.2801    1.5283    2.0751 H   0  0  0  0  0  0  0  0  0  0  0  0
    5.9681    2.3881    0.6833 H   0  0  0  0  0  0  0  0  0  0  0  0
    2.4211    2.5934   -1.1342 C   0  0  0  0  0  0  0  0  0  0  0  0
    1.5915    2.9706   -1.7662 H   0  0  0  0  0  0  0  0  0  0  0  0
    3.3387    2.4960   -1.7488 H   0  0  0  0  0  0  0  0  0  0  0  0
    2.6646    3.5003    0.0618 C   0  0  0  0  0  0  0  0  0  0  0  0
    2.9407    4.5186   -0.2811 H   0  0  0  0  0  0  0  0  0  0  0  0
    3.4936    3.1080    0.6812 H   0  0  0  0  0  0  0  0  0  0  0  0
    1.7584    3.5833    0.6962 H   0  0  0  0  0  0  0  0  0  0  0  0
  2  4  1  0  0  0  0
  3  4  2  0  0  0  0
  3  5  1  0  0  0  0
  4  1  1  0  0  0  0
  5  6  1  0  0  0  0
  6  7  2  0  0  0  0
  6 15  1  0  0  0  0
  7  8  1  0  0  0  0
  9 10  1  0  0  0  0
  9  7  1  0  0  0  0
 11  9  2  0  0  0  0
 12 11  1  0  0  0  0
 13 11  1  0  0  0  0
 13  5  2  0  0  0  0
 14 13  1  0  0  0  0
 15 16  1  0  0  0  0
 15 17  1  0  0  0  0
 18 15  1  0  0  0  0
 19  2  1  0  0  0  0
 19 22  1  0  0  0  0
 20 19  1  0  0  0  0
 21 19  1  0  0  0  0
 22 24  1  0  0  0  0
 22 25  1  0  0  0  0
 23 22  1  0  0  0  0
M  END
