1
q = 0.0, confidence = 0.996

 20 19  0  0  0  0  0  0  0  0999 V2000
   -1.7724   -1.5237   -1.3461 S   0  0  0  0  0  1  0  0  0  0  0  0
   -1.4990    1.8722    1.4437 S   0  0  0  0  0  1  0  0  0  0  0  0
   -2.8490   -1.1344    0.3365 P   0  0  0  0  0  4  0  0  0  0  0  0
   -3.1149    1.1087    0.6362 P   0  0  0  0  0  4  0  0  0  0  0  0
   -2.0724   -1.6811    1.8859 C   0  0  0  0  0  0  0  0  0  0  0  0
   -2.7656   -1.5235    2.7361 H   0  0  0  0  0  0  0  0  0  0  0  0
   -1.1493   -1.0867    2.0343 H   0  0  0  0  0  0  0  0  0  0  0  0
   -1.8126   -2.7535    1.7916 H   0  0  0  0  0  0  0  0  0  0  0  0
   -4.4731   -1.9599    0.1947 C   0  0  0  0  0  0  0  0  0  0  0  0
   -4.3021   -3.0482    0.0723 H   0  0  0  0  0  0  0  0  0  0  0  0
   -5.0044   -1.5810   -0.6991 H   0  0  0  0  0  0  0  0  0  0  0  0
   -5.0778   -1.7836    1.1055 H   0  0  0  0  0  0  0  0  0  0  0  0
   -3.5521    1.6819   -1.0401 C   0  0  0  0  0  0  0  0  0  0  0  0
   -4.4774    1.1931   -1.4044 H   0  0  0  0  0  0  0  0  0  0  0  0
   -2.7085    1.4545   -1.7204 H   0  0  0  0  0  0  0  0  0  0  0  0
   -3.6967    2.7793   -0.9907 H   0  0  0  0  0  0  0  0  0  0  0  0
   -4.6337    1.2442    1.6535 C   0  0  0  0  0  0  0  0  0  0  0  0
   -4.8331    2.3242    1.8038 H   0  0  0  0  0  0  0  0  0  0  0  0
   -4.4534    0.7861    2.6447 H   0  0  0  0  0  0  0  0  0  0  0  0
   -5.5051    0.7740    1.1568 H   0  0  0  0  0  0  0  0  0  0  0  0
  1  3  1  0  0  0  0
  3  4  1  0  0  0  0
  3  5  1  0  0  0  0
  4  2  1  0  0  0  0
  4 17  1  0  0  0  0
  5  7  1  0  0  0  0
  5  6  1  0  0  0  0
  8  5  1  0  0  0  0
  9  3  1  0  0  0  0
  9 12  1  0  0  0  0
 10  9  1  0  0  0  0
 11  9  1  0  0  0  0
 13 16  1  0  0  0  0
 13  4  1  0  0  0  0
 14 13  1  0  0  0  0
 15 13  1  0  0  0  0
 17 18  1  0  0  0  0
 17 19  1  0  0  0  0
 20 17  1  0  0  0  0
M  END
