1
q = -1.0

 21 21  0  0  0  0  0  0  0  0999 V2000
    0.3448   -1.9986   -0.3569 S   0  0  0  0  0  1  0  0  0  0  0  0
    0.6984    0.6590    1.0723 S   0  0  0  0  0  0  0  0  0  0  0  0
    6.2877    1.9767   -1.2416 N   0  0  0  0  0  0  0  0  0  0  0  0
    2.6687   -1.1019    0.5721 N   0  0  0  0  0  0  0  0  0  0  0  0
    5.9304    0.4243    0.5820 C   0  0  0  0  0  0  0  0  0  0  0  0
    6.3741   -0.2245    1.3542 H   0  0  0  0  0  0  0  0  0  0  0  0
    4.9521    2.0656   -1.3719 C   0  0  0  0  0  0  0  0  0  0  0  0
    4.5824    2.7384   -2.1666 H   0  0  0  0  0  0  0  0  0  0  0  0
    4.0389    1.3680   -0.5685 C   0  0  0  0  0  0  0  0  0  0  0  0
    2.9528    1.4861   -0.7079 H   0  0  0  0  0  0  0  0  0  0  0  0
    6.7551    1.1697   -0.2782 C   0  0  0  0  0  0  0  0  0  0  0  0
    7.8542    1.1032   -0.1819 H   0  0  0  0  0  0  0  0  0  0  0  0
    3.5885   -0.2505    1.3330 C   0  0  0  0  0  0  0  0  0  0  0  0
    4.1571   -0.8920    2.0390 H   0  0  0  0  0  0  0  0  0  0  0  0
    2.9596    0.4515    1.9205 H   0  0  0  0  0  0  0  0  0  0  0  0
    4.5356    0.5206    0.4417 C   0  0  0  0  0  0  0  0  0  0  0  0
    1.3482   -0.7959    0.4585 C   0  0  0  0  0  0  0  0  0  0  0  0
    3.2572   -2.3045   -0.0059 C   0  0  0  0  0  0  0  0  0  0  0  0
    4.3183   -2.1011   -0.2487 H   0  0  0  0  0  0  0  0  0  0  0  0
    2.7273   -2.5814   -0.9362 H   0  0  0  0  0  0  0  0  0  0  0  0
    3.2043   -3.1625    0.6992 H   0  0  0  0  0  0  0  0  0  0  0  0
  1 17  1  0  0  0  0
  3 11  1  0  0  0  0
  4 13  1  0  0  0  0
  5  6  1  0  0  0  0
  7  3  2  0  0  0  0
  7  9  1  0  0  0  0
  8  7  1  0  0  0  0
  9 16  2  0  0  0  0
 10  9  1  0  0  0  0
 11 12  1  0  0  0  0
 11  5  2  0  0  0  0
 13 15  1  0  0  0  0
 13 14  1  0  0  0  0
 16  5  1  0  0  0  0
 16 13  1  0  0  0  0
 17  4  1  0  0  0  0
 17  2  2  0  0  0  0
 18  4  1  0  0  0  0
 18 21  1  0  0  0  0
 19 18  1  0  0  0  0
 20 18  1  0  0  0  0
M  END
