1
q = -1

 43 43  0  0  1  0  0  0  0  0999 V2000
    0.8904   -1.4991   -2.4286 S   0  0  0  0  0  1  0  0  0  0  0  0
   -0.8306   -1.3391   -1.8764 C   0  0  2  0  0  0  0  0  0  0  0  0
   -1.2799    0.0218   -1.9553 O   0  0  0  0  0  0  0  0  0  0  0  0
   -1.0778   -1.8449   -0.4400 C   0  0  2  0  0  0  0  0  0  0  0  0
   -0.7342   -3.2306   -0.3613 O   0  0  0  0  0  0  0  0  0  0  0  0
    0.3605   -3.5703    0.3803 C   0  0  0  0  0  0  0  0  0  0  0  0
    0.9491   -2.8114    1.1255 O   0  0  0  0  0  0  0  0  0  0  0  0
    0.7322   -5.0055    0.1126 C   0  0  0  0  0  0  0  0  0  0  0  0
   -2.5477   -1.6946   -0.0517 C   0  0  1  0  0  0  0  0  0  0  0  0
   -2.6860   -1.9660    1.3512 O   0  0  0  0  0  0  0  0  0  0  0  0
   -3.5225   -2.9798    1.7276 C   0  0  0  0  0  0  0  0  0  0  0  0
   -4.1625   -3.6617    0.9544 O   0  0  0  0  0  0  0  0  0  0  0  0
   -3.5190   -3.1032    3.2316 C   0  0  0  0  0  0  0  0  0  0  0  0
   -3.0237   -0.2697   -0.3198 C   0  0  2  0  0  0  0  0  0  0  0  0
   -4.4454   -0.2006   -0.1234 O   0  0  0  0  0  0  0  0  0  0  0  0
   -4.9003    0.5464    0.9269 C   0  0  0  0  0  0  0  0  0  0  0  0
   -4.1712    1.1190    1.7164 O   0  0  0  0  0  0  0  0  0  0  0  0
   -6.4030    0.6049    0.9211 C   0  0  0  0  0  0  0  0  0  0  0  0
   -2.6834    0.1380   -1.7624 C   0  0  1  0  0  0  0  0  0  0  0  0
   -3.1321    1.5458   -2.1310 C   0  0  0  0  0  0  0  0  0  0  0  0
   -2.7964    2.5116   -1.1158 O   0  0  0  0  0  0  0  0  0  0  0  0
   -3.8351    3.1967   -0.5488 C   0  0  0  0  0  0  0  0  0  0  0  0
   -4.9972    3.0632   -0.8849 O   0  0  0  0  0  0  0  0  0  0  0  0
   -3.3530    4.0861    0.5654 C   0  0  0  0  0  0  0  0  0  0  0  0
   -1.4348   -1.9656   -2.5778 H   0  0  0  0  0  0  0  0  0  0  0  0
   -0.4407   -1.2718    0.2652 H   0  0  0  0  0  0  0  0  0  0  0  0
    1.4385   -5.3633    0.8815 H   0  0  0  0  0  0  0  0  0  0  0  0
    1.2182   -5.0451   -0.8841 H   0  0  0  0  0  0  0  0  0  0  0  0
   -0.1675   -5.6480    0.0679 H   0  0  0  0  0  0  0  0  0  0  0  0
   -3.1736   -2.4205   -0.6128 H   0  0  0  0  0  0  0  0  0  0  0  0
   -4.2082   -3.9067    3.5427 H   0  0  0  0  0  0  0  0  0  0  0  0
   -3.8189   -2.1385    3.6869 H   0  0  0  0  0  0  0  0  0  0  0  0
   -2.4919   -3.3202    3.5867 H   0  0  0  0  0  0  0  0  0  0  0  0
   -4.2274    1.5716   -2.2879 H   0  0  0  0  0  0  0  0  0  0  0  0
   -2.6074    1.8426   -3.0604 H   0  0  0  0  0  0  0  0  0  0  0  0
   -4.0767    4.9047    0.7243 H   0  0  0  0  0  0  0  0  0  0  0  0
   -2.3421    4.4855    0.3644 H   0  0  0  0  0  0  0  0  0  0  0  0
   -3.3166    3.4632    1.4832 H   0  0  0  0  0  0  0  0  0  0  0  0
   -2.5301    0.4231    0.3889 H   0  0  0  0  0  0  0  0  0  0  0  0
   -6.6880    1.4533    0.2644 H   0  0  0  0  0  0  0  0  0  0  0  0
   -6.7725    0.8091    1.9415 H   0  0  0  0  0  0  0  0  0  0  0  0
   -6.8453   -0.3211    0.5111 H   0  0  0  0  0  0  0  0  0  0  0  0
   -3.2190   -0.5546   -2.4611 H   0  0  0  0  0  0  0  0  0  0  0  0
  1  2  1  0  0  0  0
  2 25  1  6  0  0  0
  2  4  1  0  0  0  0
  3  2  1  0  0  0  0
  3 19  1  0  0  0  0
  4  5  1  0  0  0  0
  4  9  1  0  0  0  0
  4 26  1  1  0  0  0
  5  6  1  0  0  0  0
  6  7  2  0  0  0  0
  8  6  1  0  0  0  0
  8 27  1  0  0  0  0
  9 30  1  6  0  0  0
  9 10  1  0  0  0  0
 10 11  1  0  0  0  0
 11 13  1  0  0  0  0
 12 11  2  0  0  0  0
 13 31  1  0  0  0  0
 13 33  1  0  0  0  0
 13 32  1  0  0  0  0
 14 15  1  0  0  0  0
 14  9  1  0  0  0  0
 14 39  1  1  0  0  0
 15 16  1  0  0  0  0
 16 17  2  0  0  0  0
 18 16  1  0  0  0  0
 18 41  1  0  0  0  0
 19 43  1  6  0  0  0
 19 14  1  0  0  0  0
 20 19  1  0  0  0  0
 20 21  1  0  0  0  0
 21 22  1  0  0  0  0
 22 24  1  0  0  0  0
 23 22  2  0  0  0  0
 24 36  1  0  0  0  0
 24 38  1  0  0  0  0
 28  8  1  0  0  0  0
 29  8  1  0  0  0  0
 34 20  1  0  0  0  0
 35 20  1  0  0  0  0
 37 24  1  0  0  0  0
 40 18  1  0  0  0  0
 42 18  1  0  0  0  0
M  END
