1
q = -1.0, confidence = 0.002

 27 28  0  0  0  0  0  0  0  0999 V2000
    0.0123   -2.3134   -0.6402 S   0  0  0  0  0  1  0  0  0  0  0  0
    1.4722   -2.0772   -1.7510 C   0  0  0  0  0  0  0  0  0  0  0  0
    2.7794   -2.1724   -0.9393 C   0  0  0  0  0  0  0  0  0  0  0  0
    2.9630    0.1102    0.0015 C   0  0  0  0  0  0  0  0  0  0  0  0
    2.6256    1.0115    1.0598 C   0  0  0  0  0  0  0  0  0  0  0  0
    2.1790    0.4371    2.3803 C   0  0  0  0  0  0  0  0  0  0  0  0
    3.3789    0.6631   -1.2379 C   0  0  0  0  0  0  0  0  0  0  0  0
    2.6363   -1.8503    1.5109 C   0  0  0  0  0  0  0  0  0  0  0  0
    2.7099    2.3940    0.8428 C   0  0  0  0  0  0  0  0  0  0  0  0
    3.4347    2.0476   -1.4319 C   0  0  0  0  0  0  0  0  0  0  0  0
    3.0957    2.9329   -0.3971 C   0  0  0  0  0  0  0  0  0  0  0  0
    2.9245   -0.8731    2.6438 C   0  0  0  0  0  0  0  0  0  0  0  0
    2.8716   -1.2633    0.1895 N   0  0  0  0  0  0  0  0  0  0  0  0
    1.4480   -2.8800   -2.5176 H   0  0  0  0  0  0  0  0  0  0  0  0
    1.3932   -1.1051   -2.2756 H   0  0  0  0  0  0  0  0  0  0  0  0
    3.6382   -2.0304   -1.6353 H   0  0  0  0  0  0  0  0  0  0  0  0
    2.8844   -3.2006   -0.5375 H   0  0  0  0  0  0  0  0  0  0  0  0
    2.3386    1.1726    3.1955 H   0  0  0  0  0  0  0  0  0  0  0  0
    1.0867    0.2114    2.3469 H   0  0  0  0  0  0  0  0  0  0  0  0
    3.6442    0.0011   -2.0727 H   0  0  0  0  0  0  0  0  0  0  0  0
    1.5820   -2.2040    1.5829 H   0  0  0  0  0  0  0  0  0  0  0  0
    3.2841   -2.7503    1.6095 H   0  0  0  0  0  0  0  0  0  0  0  0
    2.4630    3.0676    1.6810 H   0  0  0  0  0  0  0  0  0  0  0  0
    3.7510    2.4367   -2.4121 H   0  0  0  0  0  0  0  0  0  0  0  0
    4.0152   -0.6730    2.7157 H   0  0  0  0  0  0  0  0  0  0  0  0
    2.6083   -1.3364    3.6000 H   0  0  0  0  0  0  0  0  0  0  0  0
    3.1509    4.0218   -0.5434 H   0  0  0  0  0  0  0  0  0  0  0  0
  2  3  1  0  0  0  0
  2  1  1  0  0  0  0
  3 17  1  0  0  0  0
  3 13  1  0  0  0  0
  4 13  1  0  0  0  0
  4  5  1  0  0  0  0
  5  6  1  0  0  0  0
  6 12  1  0  0  0  0
  6 18  1  0  0  0  0
  7  4  2  0  0  0  0
  8 21  1  0  0  0  0
  8 22  1  0  0  0  0
  8 12  1  0  0  0  0
  9  5  2  0  0  0  0
  9 23  1  0  0  0  0
 10  7  1  0  0  0  0
 10 11  2  0  0  0  0
 11  9  1  0  0  0  0
 12 25  1  0  0  0  0
 12 26  1  0  0  0  0
 13  8  1  0  0  0  0
 14  2  1  0  0  0  0
 15  2  1  0  0  0  0
 16  3  1  0  0  0  0
 19  6  1  0  0  0  0
 20  7  1  0  0  0  0
 24 10  1  0  0  0  0
 27 11  1  0  0  0  0
M  END
