1
q = 0.0, confidence = 0.998

 29 29  0  0  0  0  0  0  0  0999 V2000
   -4.4535    1.8954   -0.9815 S   0  0  0  0  0  1  0  0  0  0  0  0
   -2.6175    3.5816    0.0064 N   0  0  0  0  0  4  0  0  0  0  0  0
   -1.6374    3.7957    0.2219 H   0  0  0  0  0  0  0  0  0  0  0  0
   -3.3807    3.9792    0.5506 H   0  0  0  0  0  0  0  0  0  0  0  0
   -2.8474    2.4418   -0.6684 C   0  0  0  0  0  0  0  0  0  0  0  0
   -1.7774    1.7761   -1.1466 N   0  0  0  0  0  0  0  0  0  0  0  0
   -1.9276    0.8298   -1.5907 H   0  0  0  0  0  0  0  0  0  0  0  0
   -0.5210    2.1429   -0.7618 N   0  0  0  0  0  0  0  0  0  0  0  0
    0.4490    1.5019   -1.3521 C   0  0  0  0  0  0  0  0  0  0  0  0
    0.2207    0.7620   -2.1488 H   0  0  0  0  0  0  0  0  0  0  0  0
    1.8443    1.6742   -0.9990 C   0  0  0  0  0  0  0  0  0  0  0  0
    2.8464    1.1133   -1.8252 C   0  0  0  0  0  0  0  0  0  0  0  0
    2.5479    0.5659   -2.7330 H   0  0  0  0  0  0  0  0  0  0  0  0
    4.1992    1.2269   -1.5191 C   0  0  0  0  0  0  0  0  0  0  0  0
    4.9336    0.7581   -2.1847 H   0  0  0  0  0  0  0  0  0  0  0  0
    4.6213    1.8924   -0.3338 C   0  0  0  0  0  0  0  0  0  0  0  0
    3.6091    2.4441    0.5100 C   0  0  0  0  0  0  0  0  0  0  0  0
    3.8856    2.9516    1.4430 H   0  0  0  0  0  0  0  0  0  0  0  0
    2.2624    2.3409    0.1777 C   0  0  0  0  0  0  0  0  0  0  0  0
    1.4952    2.7506    0.8512 H   0  0  0  0  0  0  0  0  0  0  0  0
    5.9572    1.9835   -0.0030 N   0  0  0  0  0  0  0  0  0  0  0  0
    6.9656    1.4641   -0.9080 C   0  0  0  0  0  0  0  0  0  0  0  0
    6.8786    1.9175   -1.9199 H   0  0  0  0  0  0  0  0  0  0  0  0
    6.9026    0.3582   -1.0202 H   0  0  0  0  0  0  0  0  0  0  0  0
    7.9684    1.7116   -0.5152 H   0  0  0  0  0  0  0  0  0  0  0  0
    6.3547    2.5702    1.2601 C   0  0  0  0  0  0  0  0  0  0  0  0
    5.9072    2.0327    2.1269 H   0  0  0  0  0  0  0  0  0  0  0  0
    6.0597    3.6409    1.3418 H   0  0  0  0  0  0  0  0  0  0  0  0
    7.4539    2.5162    1.3591 H   0  0  0  0  0  0  0  0  0  0  0  0
  1  5  1  0  0  0  0
  2  3  1  0  0  0  0
  2  4  1  0  0  0  0
  5  2  2  0  0  0  0
  6  8  1  0  0  0  0
  6  5  1  0  0  0  0
  7  6  1  0  0  0  0
  9 11  1  0  0  0  0
  9  8  2  0  0  0  0
 10  9  1  0  0  0  0
 11 19  1  0  0  0  0
 12 14  1  0  0  0  0
 12 11  2  0  0  0  0
 13 12  1  0  0  0  0
 14 16  2  0  0  0  0
 15 14  1  0  0  0  0
 16 21  1  0  0  0  0
 16 17  1  0  0  0  0
 17 18  1  0  0  0  0
 19 17  2  0  0  0  0
 19 20  1  0  0  0  0
 21 26  1  0  0  0  0
 22 25  1  0  0  0  0
 22 21  1  0  0  0  0
 23 22  1  0  0  0  0
 24 22  1  0  0  0  0
 26 28  1  0  0  0  0
 26 29  1  0  0  0  0
 26 27  1  0  0  0  0
M  END
