2
q = 0.0, confidence = 1.0

 19 19  0  0  1  0  0  0  0  0999 V2000
   -1.9780   -1.1343   -0.4675 S   0  0  0  0  0  0  0  0  0  0  0  0
   -0.6485    1.4691   -0.0623 S   0  0  0  0  0  1  0  0  0  0  0  0
   -3.2909    1.2611   -0.2089 N   0  0  0  0  0  0  0  0  0  0  0  0
   -4.6802   -0.7409    0.0545 N   0  0  0  0  0  0  0  0  0  0  0  0
   -2.1013    0.6049   -0.2577 C   0  0  2  0  0  3  0  0  0  0  0  0
   -4.6002    0.5945   -0.4522 C   0  0  0  0  0  0  0  0  0  0  0  0
   -5.3675    1.2275    0.0350 H   0  0  0  0  0  0  0  0  0  0  0  0
   -4.8078    0.5803   -1.5459 H   0  0  0  0  0  0  0  0  0  0  0  0
   -3.8029   -1.6134   -0.6529 C   0  0  0  0  0  0  0  0  0  0  0  0
   -4.0342   -1.6118   -1.7359 H   0  0  0  0  0  0  0  0  0  0  0  0
   -3.8573   -2.6498   -0.2678 H   0  0  0  0  0  0  0  0  0  0  0  0
   -3.2979    2.7090   -0.0330 C   0  0  0  0  0  0  0  0  0  0  0  0
   -2.7382    2.9916    0.8823 H   0  0  0  0  0  0  0  0  0  0  0  0
   -4.3466    3.0502    0.0518 H   0  0  0  0  0  0  0  0  0  0  0  0
   -2.8121    3.2238   -0.8886 H   0  0  0  0  0  0  0  0  0  0  0  0
   -4.6396   -0.8571    1.5101 C   0  0  0  0  0  0  0  0  0  0  0  0
   -4.8755   -1.8997    1.7994 H   0  0  0  0  0  0  0  0  0  0  0  0
   -5.4101   -0.1952    1.9509 H   0  0  0  0  0  0  0  0  0  0  0  0
   -3.6486   -0.5919    1.9476 H   0  0  0  0  0  0  0  0  0  0  0  0
  1  5  1  0  0  0  0
  3 12  1  0  0  0  0
  4 16  1  0  0  0  0
  5  3  1  0  0  0  0
  5  2  1  1  0  0  0
  6  3  1  0  0  0  0
  6  7  1  0  0  0  0
  6  4  1  0  0  0  0
  8  6  1  0  0  0  0
  9  1  1  0  0  0  0
  9 11  1  0  0  0  0
  9  4  1  0  0  0  0
 10  9  1  0  0  0  0
 12 14  1  0  0  0  0
 12 13  1  0  0  0  0
 15 12  1  0  0  0  0
 16 17  1  0  0  0  0
 16 19  1  0  0  0  0
 16 18  1  0  0  0  0
M  END
