1
q = -1.0

 28 28  0  0  1  0  0  0  0  0999 V2000
    1.1377    0.2936    0.0875 S   0  0  0  0  0  1  0  0  0  0  0  0
    7.2906   -0.2838    0.2118 N   0  0  0  0  0  0  0  0  0  0  0  0
    3.7676   -0.6318   -0.3498 N   0  0  0  0  0  0  0  0  0  0  0  0
    2.9271   -1.3921   -1.0875 N   0  0  0  0  0  2  0  0  0  0  0  0
    0.7163   -1.7737   -1.6339 N   0  0  0  0  0  0  0  0  0  0  0  0
   -0.2594   -1.5606   -1.4043 H   0  0  0  0  0  0  0  0  0  0  0  0
    5.9622   -0.0621    0.3420 C   0  0  0  0  0  0  0  0  0  0  0  0
    5.4514    0.9260    1.2246 C   0  0  0  0  0  0  0  0  0  0  0  0
    4.3618    1.0543    1.2890 H   0  0  0  0  0  0  0  0  0  0  0  0
    6.3459    1.6891    1.9743 C   0  0  0  0  0  0  0  0  0  0  0  0
    5.9741    2.4605    2.6671 H   0  0  0  0  0  0  0  0  0  0  0  0
    7.7272    1.4574    1.8353 C   0  0  0  0  0  0  0  0  0  0  0  0
    8.4688    2.0346    2.4077 H   0  0  0  0  0  0  0  0  0  0  0  0
    8.1362    0.4581    0.9398 C   0  0  0  0  0  0  0  0  0  0  0  0
    9.2126    0.2444    0.8033 H   0  0  0  0  0  0  0  0  0  0  0  0
    5.0446   -0.8914   -0.4726 C   0  0  0  0  0  0  0  0  0  0  0  0
    5.5948   -1.9617   -1.3724 C   0  0  0  0  0  0  0  0  0  0  0  0
    5.2134   -1.8241   -2.4048 H   0  0  0  0  0  0  0  0  0  0  0  0
    5.2319   -2.9588   -1.0464 H   0  0  0  0  0  0  0  0  0  0  0  0
    6.6984   -1.9414   -1.3575 H   0  0  0  0  0  0  0  0  0  0  0  0
    1.6545   -1.0718   -0.9440 C   0  0  2  0  0  3  0  0  0  0  0  0
    1.0208   -3.0121   -2.3355 C   0  0  0  0  0  0  0  0  0  0  0  0
    1.9652   -2.8565   -2.8942 H   0  0  0  0  0  0  0  0  0  0  0  0
    0.2116   -3.1779   -3.0772 H   0  0  0  0  0  0  0  0  0  0  0  0
    1.1587   -4.2178   -1.4022 C   0  0  0  0  0  0  0  0  0  0  0  0
    1.3604   -5.1430   -1.9799 H   0  0  0  0  0  0  0  0  0  0  0  0
    0.2341   -4.3689   -0.8085 H   0  0  0  0  0  0  0  0  0  0  0  0
    2.0012   -4.0550   -0.7014 H   0  0  0  0  0  0  0  0  0  0  0  0
  2  7  2  0  0  0  0
  2 14  1  0  0  0  0
  4 21  1  0  0  0  0
  4  3  1  0  0  0  0
  5  6  1  0  0  0  0
  5 21  1  0  0  0  0
  7  8  1  0  0  0  0
  8  9  1  0  0  0  0
  8 10  2  0  0  0  0
 10 11  1  0  0  0  0
 12 10  1  0  0  0  0
 12 13  1  0  0  0  0
 14 12  2  0  0  0  0
 15 14  1  0  0  0  0
 16  3  2  0  0  0  0
 16  7  1  0  0  0  0
 17 20  1  0  0  0  0
 17 19  1  0  0  0  0
 17 16  1  0  0  0  0
 18 17  1  0  0  0  0
 21  1  1  6  0  0  0
 22  5  1  0  0  0  0
 22 25  1  0  0  0  0
 23 22  1  0  0  0  0
 24 22  1  0  0  0  0
 25 27  1  0  0  0  0
 25 28  1  0  0  0  0
 26 25  1  0  0  0  0
M  END
