1
q = -1.0, confidence = 0.222

 48 49  0  0  0  0  0  0  0  0999 V2000
    3.4062   -1.3029    0.6476 S   0  0  0  0  0  1  0  0  0  0  0  0
    1.8502   -0.5717   -0.0357 C   0  0  0  0  0  0  0  0  0  0  0  0
    1.8283    0.5099    0.2171 H   0  0  0  0  0  0  0  0  0  0  0  0
    1.8943   -0.6525   -1.1419 H   0  0  0  0  0  0  0  0  0  0  0  0
    0.6269   -1.2917    0.5261 C   0  0  0  0  0  0  0  0  0  0  0  0
    0.6380   -1.2197    1.6362 H   0  0  0  0  0  0  0  0  0  0  0  0
    0.6995   -2.3770    0.2926 H   0  0  0  0  0  0  0  0  0  0  0  0
   -9.5219    1.8036    1.1355 O   0  0  0  0  0  0  0  0  0  0  0  0
   -8.4866   -0.3861   -0.1457 N   0  0  0  0  0  0  0  0  0  0  0  0
   -9.8088    0.0143   -0.4043 C   0  0  0  0  0  0  0  0  0  0  0  0
  -10.6628   -0.7078   -1.2647 C   0  0  0  0  0  0  0  0  0  0  0  0
  -10.2647   -1.5809   -1.7992 H   0  0  0  0  0  0  0  0  0  0  0  0
   -0.6939   -0.7348   -0.0149 C   0  0  0  0  0  0  0  0  0  0  0  0
   -0.6962   -0.8011   -1.1262 H   0  0  0  0  0  0  0  0  0  0  0  0
   -0.7599    0.3518    0.2195 H   0  0  0  0  0  0  0  0  0  0  0  0
  -12.0016   -0.3329   -1.4687 C   0  0  0  0  0  0  0  0  0  0  0  0
  -12.6344   -0.9247   -2.1469 H   0  0  0  0  0  0  0  0  0  0  0  0
  -10.3583    1.1561    0.2671 C   0  0  0  0  0  0  0  0  0  0  0  0
  -10.0254    2.9044    1.8634 C   0  0  0  0  0  0  0  0  0  0  0  0
   -9.1997    3.2555    2.5103 H   0  0  0  0  0  0  0  0  0  0  0  0
  -10.8897    2.6171    2.5039 H   0  0  0  0  0  0  0  0  0  0  0  0
  -10.3419    3.7386    1.1968 H   0  0  0  0  0  0  0  0  0  0  0  0
   -4.4744   -1.6147    0.5744 C   0  0  0  0  0  0  0  0  0  0  0  0
   -4.3628   -2.7047    0.3856 H   0  0  0  0  0  0  0  0  0  0  0  0
   -4.4845   -1.4985    1.6944 H   0  0  0  0  0  0  0  0  0  0  0  0
   -8.0951   -1.7438   -0.4868 C   0  0  0  0  0  0  0  0  0  0  0  0
   -7.9118   -1.8641   -1.5863 H   0  0  0  0  0  0  0  0  0  0  0  0
   -8.9105   -2.4377   -0.2009 H   0  0  0  0  0  0  0  0  0  0  0  0
   -3.2517   -0.8968   -0.0014 C   0  0  0  0  0  0  0  0  0  0  0  0
   -3.2847   -0.9865   -1.1090 H   0  0  0  0  0  0  0  0  0  0  0  0
   -3.3027    0.1915    0.2210 H   0  0  0  0  0  0  0  0  0  0  0  0
   -1.9301   -1.4493    0.5377 C   0  0  0  0  0  0  0  0  0  0  0  0
   -1.8598   -2.5359    0.3045 H   0  0  0  0  0  0  0  0  0  0  0  0
   -1.9255   -1.3825    1.6492 H   0  0  0  0  0  0  0  0  0  0  0  0
   -7.4046    0.5651   -0.4054 C   0  0  0  0  0  0  0  0  0  0  0  0
   -7.7177    1.5705   -0.0753 H   0  0  0  0  0  0  0  0  0  0  0  0
   -7.1823    0.6058   -1.5020 H   0  0  0  0  0  0  0  0  0  0  0  0
  -12.5148    0.7958   -0.8239 C   0  0  0  0  0  0  0  0  0  0  0  0
  -13.5585    1.1069   -0.9790 H   0  0  0  0  0  0  0  0  0  0  0  0
  -11.6895    1.5393    0.0402 C   0  0  0  0  0  0  0  0  0  0  0  0
  -12.1039    2.4136    0.5596 H   0  0  0  0  0  0  0  0  0  0  0  0
   -5.7385   -1.2002   -0.0194 N   0  0  0  0  0  0  0  0  0  0  0  0
   -6.1389    0.1549    0.3394 C   0  0  0  0  0  0  0  0  0  0  0  0
   -5.3271    0.8624    0.0769 H   0  0  0  0  0  0  0  0  0  0  0  0
   -6.3251    0.2491    1.4445 H   0  0  0  0  0  0  0  0  0  0  0  0
   -6.8218   -2.1294    0.2662 C   0  0  0  0  0  0  0  0  0  0  0  0
   -7.0566   -2.1720    1.3654 H   0  0  0  0  0  0  0  0  0  0  0  0
   -6.5121   -3.1492   -0.0455 H   0  0  0  0  0  0  0  0  0  0  0  0
  2  3  1  0  0  0  0
  2  5  1  0  0  0  0
  2  1  1  0  0  0  0
  4  2  1  0  0  0  0
  5  6  1  0  0  0  0
  7  5  1  0  0  0  0
  8 19  1  0  0  0  0
 10  9  1  0  0  0  0
 10 18  1  0  0  0  0
 11 10  2  0  0  0  0
 12 11  1  0  0  0  0
 13 15  1  0  0  0  0
 13  5  1  0  0  0  0
 13 32  1  0  0  0  0
 14 13  1  0  0  0  0
 16 11  1  0  0  0  0
 16 38  2  0  0  0  0
 17 16  1  0  0  0  0
 18  8  1  0  0  0  0
 19 21  1  0  0  0  0
 19 20  1  0  0  0  0
 22 19  1  0  0  0  0
 23 25  1  0  0  0  0
 24 23  1  0  0  0  0
 26 28  1  0  0  0  0
 26  9  1  0  0  0  0
 26 46  1  0  0  0  0
 27 26  1  0  0  0  0
 29 31  1  0  0  0  0
 29 32  1  0  0  0  0
 29 23  1  0  0  0  0
 30 29  1  0  0  0  0
 32 34  1  0  0  0  0
 33 32  1  0  0  0  0
 35  9  1  0  0  0  0
 35 36  1  0  0  0  0
 35 43  1  0  0  0  0
 37 35  1  0  0  0  0
 38 40  1  0  0  0  0
 39 38  1  0  0  0  0
 40 18  2  0  0  0  0
 40 41  1  0  0  0  0
 42 46  1  0  0  0  0
 42 43  1  0  0  0  0
 42 23  1  0  0  0  0
 43 45  1  0  0  0  0
 44 43  1  0  0  0  0
 46 47  1  0  0  0  0
 48 46  1  0  0  0  0
M  END
