1
q = -1.0, confidence = 0.0

 16 17  0  0  0  0  0  0  0  0999 V2000
   -0.5431   -2.6065   -1.1145 S   0  0  0  0  0  1  0  0  0  0  0  0
   -1.7717   -0.2804    0.5349 S   0  0  0  0  0  0  0  0  0  0  0  0
   -3.1757   -1.9233   -0.9599 N   0  0  0  0  0  0  0  0  0  0  0  0
   -6.4525    2.0312    1.3061 N   0  0  0  0  0  0  0  0  0  0  0  0
   -6.0660    2.5570    2.0901 H   0  0  0  0  0  0  0  0  0  0  0  0
   -7.4483    1.8329    1.4017 H   0  0  0  0  0  0  0  0  0  0  0  0
   -1.9545   -1.6809   -0.5968 C   0  0  0  0  0  0  0  0  0  0  0  0
   -3.5012   -0.0054    0.4249 C   0  0  0  0  0  0  0  0  0  0  0  0
   -4.2655    1.0052    1.0151 C   0  0  0  0  0  0  0  0  0  0  0  0
   -3.7897    1.7932    1.6187 H   0  0  0  0  0  0  0  0  0  0  0  0
   -5.6627    1.0134    0.7902 C   0  0  0  0  0  0  0  0  0  0  0  0
   -6.2417   -0.0043   -0.0203 C   0  0  0  0  0  0  0  0  0  0  0  0
   -7.3296    0.0093   -0.1916 H   0  0  0  0  0  0  0  0  0  0  0  0
   -5.4644   -1.0004   -0.6124 C   0  0  0  0  0  0  0  0  0  0  0  0
   -5.9210   -1.7747   -1.2454 H   0  0  0  0  0  0  0  0  0  0  0  0
   -4.0697   -1.0210   -0.4087 C   0  0  0  0  0  0  0  0  0  0  0  0
  1  7  1  0  0  0  0
  3  7  2  0  0  0  0
  3 16  1  0  0  0  0
  4  6  1  0  0  0  0
  4  5  1  0  0  0  0
  7  2  1  0  0  0  0
  8  2  1  0  0  0  0
  8  9  1  0  0  0  0
  9 10  1  0  0  0  0
 11  9  2  0  0  0  0
 11  4  1  0  0  0  0
 12 11  1  0  0  0  0
 13 12  1  0  0  0  0
 14 16  1  0  0  0  0
 14 12  2  0  0  0  0
 15 14  1  0  0  0  0
 16  8  2  0  0  0  0
M  END
