1
q = -1.0

 13 12  0  0  0  0  0  0  0  0999 V2000
   -0.1542    2.4542   -0.1568 S   0  0  0  0  0  1  0  0  0  0  0  0
    1.5793    2.7978   -0.3198 C   0  0  0  0  0  0  0  0  0  0  0  0
    2.1784    4.2323    0.3056 S   0  0  0  0  0  0  0  0  0  0  0  0
    2.3298    1.8839   -0.9856 N   0  0  0  0  0  0  0  0  0  0  0  0
    3.7601    1.9727   -1.2074 C   0  0  0  0  0  0  0  0  0  0  0  0
    4.5025    0.7032   -0.7957 C   0  0  0  0  0  0  0  0  0  0  0  0
    4.3143   -0.4152   -1.6652 O   0  0  0  0  0  0  0  0  0  0  0  0
    1.8394    1.0475   -1.3370 H   0  0  0  0  0  0  0  0  0  0  0  0
    4.1133    2.8393   -0.6070 H   0  0  0  0  0  0  0  0  0  0  0  0
    3.9800    2.1983   -2.2768 H   0  0  0  0  0  0  0  0  0  0  0  0
    5.5929    0.9122   -0.7938 H   0  0  0  0  0  0  0  0  0  0  0  0
    4.2096    0.4544    0.2542 H   0  0  0  0  0  0  0  0  0  0  0  0
    3.3566   -0.4622   -1.9214 H   0  0  0  0  0  0  0  0  0  0  0  0
  2  1  1  0  0  0  0
  2  3  2  0  0  0  0
  4  2  1  0  0  0  0
  5  4  1  0  0  0  0
  5  6  1  0  0  0  0
  5  9  1  0  0  0  0
  6 11  1  0  0  0  0
  6 12  1  0  0  0  0
  7  6  1  0  0  0  0
  8  4  1  0  0  0  0
 10  5  1  0  0  0  0
 13  7  1  0  0  0  0
M  END
