1
q = -1.0

 32 31  0  0  0  0  0  0  0  0999 V2000
    0.1790   -2.4486   -0.4915 S   0  0  0  0  0  1  0  0  0  0  0  0
    2.1748   -2.1063    0.2311 Si  0  0  0  0  0  0  0  0  0  0  0  0
    2.9870   -0.6737   -0.7703 C   0  0  0  0  0  0  0  0  0  0  0  0
    2.3418    0.1896   -0.4821 H   0  0  0  0  0  0  0  0  0  0  0  0
    2.8675   -0.8334   -2.2908 C   0  0  0  0  0  0  0  0  0  0  0  0
    3.1418    0.1077   -2.8182 H   0  0  0  0  0  0  0  0  0  0  0  0
    1.8331   -1.1101   -2.5800 H   0  0  0  0  0  0  0  0  0  0  0  0
    3.5419   -1.6273   -2.6729 H   0  0  0  0  0  0  0  0  0  0  0  0
    4.4239   -0.3467   -0.3425 C   0  0  0  0  0  0  0  0  0  0  0  0
    5.1235   -1.1665   -0.6093 H   0  0  0  0  0  0  0  0  0  0  0  0
    4.5135   -0.1787    0.7510 H   0  0  0  0  0  0  0  0  0  0  0  0
    4.7957    0.5708   -0.8507 H   0  0  0  0  0  0  0  0  0  0  0  0
    3.0811   -3.8004    0.0984 C   0  0  0  0  0  0  0  0  0  0  0  0
    2.3652   -4.4861    0.6087 H   0  0  0  0  0  0  0  0  0  0  0  0
    3.2192   -4.2840   -1.3527 C   0  0  0  0  0  0  0  0  0  0  0  0
    3.9711   -3.6846   -1.9083 H   0  0  0  0  0  0  0  0  0  0  0  0
    2.2581   -4.2068   -1.9005 H   0  0  0  0  0  0  0  0  0  0  0  0
    3.5547   -5.3437   -1.3958 H   0  0  0  0  0  0  0  0  0  0  0  0
    4.4189   -3.8710    0.8498 C   0  0  0  0  0  0  0  0  0  0  0  0
    4.8491   -4.8961    0.8061 H   0  0  0  0  0  0  0  0  0  0  0  0
    4.3170   -3.6033    1.9213 H   0  0  0  0  0  0  0  0  0  0  0  0
    5.1745   -3.1869    0.4098 H   0  0  0  0  0  0  0  0  0  0  0  0
    2.1706   -1.5841    2.0894 C   0  0  0  0  0  0  0  0  0  0  0  0
    3.2411   -1.6004    2.4010 H   0  0  0  0  0  0  0  0  0  0  0  0
    1.3979   -2.6024    2.9396 C   0  0  0  0  0  0  0  0  0  0  0  0
    1.4007   -2.3208    4.0160 H   0  0  0  0  0  0  0  0  0  0  0  0
    1.8243   -3.6236    2.8603 H   0  0  0  0  0  0  0  0  0  0  0  0
    0.3422   -2.6632    2.6012 H   0  0  0  0  0  0  0  0  0  0  0  0
    1.6394   -0.1631    2.3036 C   0  0  0  0  0  0  0  0  0  0  0  0
    0.6121   -0.0552    1.8758 H   0  0  0  0  0  0  0  0  0  0  0  0
    2.2712    0.6072    1.8175 H   0  0  0  0  0  0  0  0  0  0  0  0
    1.5677    0.0908    3.3848 H   0  0  0  0  0  0  0  0  0  0  0  0
  1  2  1  0  0  0  0
  2 23  1  0  0  0  0
  3  4  1  0  0  0  0
  3  9  1  0  0  0  0
  3  2  1  0  0  0  0
  5  3  1  0  0  0  0
  6  5  1  0  0  0  0
  7  5  1  0  0  0  0
  8  5  1  0  0  0  0
  9 11  1  0  0  0  0
 10  9  1  0  0  0  0
 12  9  1  0  0  0  0
 13  2  1  0  0  0  0
 13 14  1  0  0  0  0
 13 19  1  0  0  0  0
 15 13  1  0  0  0  0
 16 15  1  0  0  0  0
 17 15  1  0  0  0  0
 18 15  1  0  0  0  0
 19 21  1  0  0  0  0
 20 19  1  0  0  0  0
 22 19  1  0  0  0  0
 23 29  1  0  0  0  0
 23 24  1  0  0  0  0
 23 25  1  0  0  0  0
 25 26  1  0  0  0  0
 27 25  1  0  0  0  0
 28 25  1  0  0  0  0
 29 32  1  0  0  0  0
 30 29  1  0  0  0  0
 31 29  1  0  0  0  0
M  END
