1
q = -1.0, confidence = 0.006

 19 19  0  0  1  0  0  0  0  0999 V2000
    0.5320    1.7197    0.9015 S   0  0  0  0  0  1  0  0  0  0  0  0
   -0.8619   -0.5452    1.2425 O   0  0  0  0  0  0  0  0  0  0  0  0
   -2.0355    2.2881   -0.7921 O   0  0  0  0  0  0  0  0  0  0  0  0
   -1.1642    2.7380   -0.7165 H   0  0  0  0  0  0  0  0  0  0  0  0
   -3.7992    0.1977   -1.6113 O   0  0  0  0  0  0  0  0  0  0  0  0
   -3.8442    1.1283   -1.9046 H   0  0  0  0  0  0  0  0  0  0  0  0
   -4.1142   -1.9128    0.2568 O   0  0  0  0  0  0  0  0  0  0  0  0
   -4.6631   -1.6823   -0.5187 H   0  0  0  0  0  0  0  0  0  0  0  0
   -1.0661    0.8260    0.9172 C   0  0  2  0  0  0  0  0  0  0  0  0
   -1.6889    1.3258    1.6986 H   0  0  0  0  0  0  0  0  0  0  0  0
   -1.7845    0.9480   -0.4389 C   0  0  1  0  0  0  0  0  0  0  0  0
   -1.1442    0.4321   -1.2016 H   0  0  0  0  0  0  0  0  0  0  0  0
   -3.1187    0.2136   -0.3684 C   0  0  2  0  0  0  0  0  0  0  0  0
   -3.7415    0.7100    0.4195 H   0  0  0  0  0  0  0  0  0  0  0  0
   -2.8922   -1.2351    0.0578 C   0  0  1  0  0  0  0  0  0  0  0  0
   -2.2777   -1.7234   -0.7410 H   0  0  0  0  0  0  0  0  0  0  0  0
   -2.0935   -1.2606    1.3651 C   0  0  0  0  0  0  0  0  0  0  0  0
   -2.7202   -0.8283    2.1809 H   0  0  0  0  0  0  0  0  0  0  0  0
   -1.8336   -2.2998    1.6430 H   0  0  0  0  0  0  0  0  0  0  0  0
  1  9  1  0  0  0  0
  2 17  1  0  0  0  0
  3  4  1  0  0  0  0
  3 11  1  0  0  0  0
  5 13  1  0  0  0  0
  6  5  1  0  0  0  0
  8  7  1  0  0  0  0
  9  2  1  0  0  0  0
  9 10  1  1  0  0  0
 11 12  1  6  0  0  0
 11 13  1  0  0  0  0
 11  9  1  0  0  0  0
 13 15  1  0  0  0  0
 13 14  1  1  0  0  0
 15 16  1  6  0  0  0
 15  7  1  0  0  0  0
 15 17  1  0  0  0  0
 17 19  1  0  0  0  0
 17 18  1  0  0  0  0
M  END
