1
q = 0.0, confidence = 0.814

 27 28  0  0  1  0  0  0  0  0999 V2000
   -1.4897   -0.9629    0.0450 S   0  0  0  0  0  1  0  0  0  0  0  0
   -1.1542    1.9833    0.8730 S   0  0  0  0  0  0  0  0  0  0  0  0
   -2.0499    0.6115    0.5724 C   0  0  0  0  0  0  0  0  0  0  0  0
   -3.5359    0.5656    0.6284 C   0  0  1  0  0  0  0  0  0  0  0  0
   -4.3557    1.2199   -0.5160 C   0  0  1  0  0  0  0  0  0  0  0  0
   -5.3943    0.2025   -0.8549 C   0  0  0  0  0  0  0  0  0  0  0  0
   -5.2672   -0.9315   -0.0404 C   0  0  0  0  0  0  0  0  0  0  0  0
   -4.1755   -0.7661    0.8554 C   0  0  2  0  0  3  0  0  0  0  0  0
   -4.4053    1.7817    0.9046 C   0  0  0  0  0  0  0  0  0  0  0  0
   -3.7250    2.0381   -1.6196 C   0  0  0  0  0  0  0  0  0  0  0  0
   -6.4009    0.4497   -1.9221 C   0  0  0  0  0  0  0  0  0  0  0  0
   -6.1787   -2.1234   -0.0127 C   0  0  0  0  0  0  0  0  0  0  0  0
   -3.9423   -1.6019    2.0676 C   0  0  0  0  0  0  0  0  0  0  0  0
   -3.8399    2.7113    1.0839 H   0  0  0  0  0  0  0  0  0  0  0  0
   -5.3198    1.6315    1.4994 H   0  0  0  0  0  0  0  0  0  0  0  0
   -2.8590    2.6084   -1.2309 H   0  0  0  0  0  0  0  0  0  0  0  0
   -4.4539    2.7603   -2.0414 H   0  0  0  0  0  0  0  0  0  0  0  0
   -3.3633    1.3837   -2.4385 H   0  0  0  0  0  0  0  0  0  0  0  0
   -7.1069   -0.3926   -2.0471 H   0  0  0  0  0  0  0  0  0  0  0  0
   -6.9914    1.3699   -1.7127 H   0  0  0  0  0  0  0  0  0  0  0  0
   -5.9054    0.6295   -2.9022 H   0  0  0  0  0  0  0  0  0  0  0  0
   -5.6036   -3.0632   -0.1455 H   0  0  0  0  0  0  0  0  0  0  0  0
   -6.7069   -2.2082    0.9608 H   0  0  0  0  0  0  0  0  0  0  0  0
   -6.9468   -2.0839   -0.8078 H   0  0  0  0  0  0  0  0  0  0  0  0
   -2.9563   -1.4004    2.5244 H   0  0  0  0  0  0  0  0  0  0  0  0
   -4.0031   -2.6849    1.8366 H   0  0  0  0  0  0  0  0  0  0  0  0
   -4.7279   -1.3991    2.8349 H   0  0  0  0  0  0  0  0  0  0  0  0
  1  3  1  0  0  0  0
  3  2  2  0  0  0  0
  4  3  1  1  0  0  0
  4  8  1  0  0  0  0
  4  9  1  0  0  0  0
  5 10  1  6  0  0  0
  5  4  1  0  0  0  0
  5  9  1  0  0  0  0
  6  5  1  0  0  0  0
  6  7  2  0  0  0  0
  7 12  1  0  0  0  0
  7  8  1  0  0  0  0
  8 13  1  1  0  0  0
  9 14  1  0  0  0  0
  9 15  1  0  0  0  0
 10 16  1  0  0  0  0
 11 20  1  0  0  0  0
 11  6  1  0  0  0  0
 12 23  1  0  0  0  0
 13 25  1  0  0  0  0
 13 27  1  0  0  0  0
 17 10  1  0  0  0  0
 18 10  1  0  0  0  0
 19 11  1  0  0  0  0
 21 11  1  0  0  0  0
 22 12  1  0  0  0  0
 24 12  1  0  0  0  0
 26 13  1  0  0  0  0
M  END
