1
q = -1.0

 18 18  0  0  0  0  0  0  0  0999 V2000
   -0.2006    0.1605   -2.1242 S   0  0  0  0  0  1  0  0  0  0  0  0
    1.6033   -0.1696   -1.9770 C   0  0  0  0  0  0  0  0  0  0  0  0
    1.9885   -0.1829   -3.0177 H   0  0  0  0  0  0  0  0  0  0  0  0
    2.1059    0.6769   -1.4676 H   0  0  0  0  0  0  0  0  0  0  0  0
    1.9360   -1.4766   -1.2583 C   0  0  0  0  0  0  0  0  0  0  0  0
    1.5697   -2.3292   -1.8740 H   0  0  0  0  0  0  0  0  0  0  0  0
    1.3376   -1.5177   -0.3222 H   0  0  0  0  0  0  0  0  0  0  0  0
    3.3955   -1.6867   -0.9049 C   0  0  0  0  0  0  0  0  0  0  0  0
    3.7361   -2.5808    0.1332 C   0  0  0  0  0  0  0  0  0  0  0  0
    2.9309   -3.1073    0.6715 H   0  0  0  0  0  0  0  0  0  0  0  0
    5.0727   -2.8027    0.4927 C   0  0  0  0  0  0  0  0  0  0  0  0
    5.3112   -3.5036    1.3079 H   0  0  0  0  0  0  0  0  0  0  0  0
    6.1036   -2.1268   -0.1801 C   0  0  0  0  0  0  0  0  0  0  0  0
    7.1542   -2.2927    0.1033 H   0  0  0  0  0  0  0  0  0  0  0  0
    5.7803   -1.2294   -1.2079 C   0  0  0  0  0  0  0  0  0  0  0  0
    6.5771   -0.6786   -1.7303 H   0  0  0  0  0  0  0  0  0  0  0  0
    4.4408   -1.0115   -1.5656 C   0  0  0  0  0  0  0  0  0  0  0  0
    4.2104   -0.2912   -2.3637 H   0  0  0  0  0  0  0  0  0  0  0  0
  1  2  1  0  0  0  0
  2  4  1  0  0  0  0
  2  5  1  0  0  0  0
  3  2  1  0  0  0  0
  5  8  1  0  0  0  0
  5  7  1  0  0  0  0
  6  5  1  0  0  0  0
  8  9  1  0  0  0  0
  9 11  2  0  0  0  0
  9 10  1  0  0  0  0
 11 12  1  0  0  0  0
 13 14  1  0  0  0  0
 13 11  1  0  0  0  0
 15 13  2  0  0  0  0
 16 15  1  0  0  0  0
 17 15  1  0  0  0  0
 17  8  2  0  0  0  0
 18 17  1  0  0  0  0
M  END
