1
q = 0.0, confidence = 0.998

 19 19  0  0  0  0  0  0  0  0999 V2000
    1.8142   -0.1882   -1.4600 S   0  0  0  0  0  0  0  0  0  0  0  0
    3.2269    0.1539   -0.3853 C   0  0  0  0  0  0  0  0  0  0  0  0
    3.4287    1.4376    0.1492 C   0  0  0  0  0  0  0  0  0  0  0  0
    2.6900    2.2310   -0.0400 H   0  0  0  0  0  0  0  0  0  0  0  0
    4.5393    1.6753    0.9688 C   0  0  0  0  0  0  0  0  0  0  0  0
    4.7007    2.6783    1.3912 H   0  0  0  0  0  0  0  0  0  0  0  0
    5.4246    0.6261    1.2616 C   0  0  0  0  0  0  0  0  0  0  0  0
    6.2976    0.8036    1.9078 H   0  0  0  0  0  0  0  0  0  0  0  0
    5.1916   -0.6558    0.7448 C   0  0  0  0  0  0  0  0  0  0  0  0
    5.8809   -1.4786    0.9909 H   0  0  0  0  0  0  0  0  0  0  0  0
    4.0885   -0.9308   -0.0899 C   0  0  0  0  0  0  0  0  0  0  0  0
    3.8352   -2.3204   -0.6133 C   0  0  0  0  0  0  0  0  0  0  0  0
    2.8404   -2.6925   -0.2876 H   0  0  0  0  0  0  0  0  0  0  0  0
    3.8286   -2.3427   -1.7226 H   0  0  0  0  0  0  0  0  0  0  0  0
    4.6113   -3.0235   -0.2562 H   0  0  0  0  0  0  0  0  0  0  0  0
    1.8234    1.2555   -2.5727 C   0  0  0  0  0  0  0  0  0  0  0  0
    1.0847    1.0223   -3.3624 H   0  0  0  0  0  0  0  0  0  0  0  0
    1.5058    2.1650   -2.0290 H   0  0  0  0  0  0  0  0  0  0  0  0
    2.8374    1.3454   -3.0044 H   0  0  0  0  0  0  0  0  0  0  0  0
  1  2  1  0  0  0  0
  2 11  2  0  0  0  0
  2  3  1  0  0  0  0
  3  5  2  0  0  0  0
  4  3  1  0  0  0  0
  5  7  1  0  0  0  0
  5  6  1  0  0  0  0
  7  8  1  0  0  0  0
  9 10  1  0  0  0  0
  9  7  2  0  0  0  0
 11  9  1  0  0  0  0
 12 13  1  0  0  0  0
 12 15  1  0  0  0  0
 12 11  1  0  0  0  0
 14 12  1  0  0  0  0
 16 18  1  0  0  0  0
 16  1  1  0  0  0  0
 17 16  1  0  0  0  0
 19 16  1  0  0  0  0
M  END
