1
q = -1.0

 25 25  0  0  0  0  0  0  0  0999 V2000
    2.4187   -1.3599    0.0137 S   0  0  0  0  0  1  0  0  0  0  0  0
    1.9385    1.2297    0.0545 O   0  0  0  0  0  0  0  0  0  0  0  0
    4.1797    0.7579   -0.0703 N   0  0  0  0  0  0  0  0  0  0  0  0
    2.9697    0.3368    0.0090 C   0  0  0  0  0  0  0  0  0  0  0  0
    5.3256   -0.0350   -0.0643 C   0  0  0  0  0  0  0  0  0  0  0  0
    5.5524   -1.0554    0.8921 C   0  0  0  0  0  0  0  0  0  0  0  0
    4.7762   -1.2696    1.6407 H   0  0  0  0  0  0  0  0  0  0  0  0
    6.7531   -1.7772    0.8885 C   0  0  0  0  0  0  0  0  0  0  0  0
    6.9111   -2.5643    1.6426 H   0  0  0  0  0  0  0  0  0  0  0  0
    7.7495   -1.5079   -0.0641 C   0  0  0  0  0  0  0  0  0  0  0  0
    8.6891   -2.0807   -0.0641 H   0  0  0  0  0  0  0  0  0  0  0  0
    7.5353   -0.4932   -1.0122 C   0  0  0  0  0  0  0  0  0  0  0  0
    8.3096   -0.2673   -1.7621 H   0  0  0  0  0  0  0  0  0  0  0  0
    6.3439    0.2422   -1.0077 C   0  0  0  0  0  0  0  0  0  0  0  0
    6.1703    1.0473   -1.7371 H   0  0  0  0  0  0  0  0  0  0  0  0
    2.2403    2.6504   -0.0242 C   0  0  0  0  0  0  0  0  0  0  0  0
    3.1088    2.7613   -0.7073 H   0  0  0  0  0  0  0  0  0  0  0  0
    2.6214    3.1752    1.3553 C   0  0  0  0  0  0  0  0  0  0  0  0
    1.7905    3.0256    2.0759 H   0  0  0  0  0  0  0  0  0  0  0  0
    2.8465    4.2599    1.3073 H   0  0  0  0  0  0  0  0  0  0  0  0
    3.5216    2.6507    1.7280 H   0  0  0  0  0  0  0  0  0  0  0  0
    0.9962    3.3058   -0.6096 C   0  0  0  0  0  0  0  0  0  0  0  0
    0.7421    2.8677   -1.5946 H   0  0  0  0  0  0  0  0  0  0  0  0
    1.1621    4.3938   -0.7399 H   0  0  0  0  0  0  0  0  0  0  0  0
    0.1208    3.1693    0.0585 H   0  0  0  0  0  0  0  0  0  0  0  0
  3  5  1  0  0  0  0
  3  4  2  0  0  0  0
  4  1  1  0  0  0  0
  4  2  1  0  0  0  0
  5  6  1  0  0  0  0
  6  7  1  0  0  0  0
  8  6  2  0  0  0  0
  8  9  1  0  0  0  0
 10 11  1  0  0  0  0
 10  8  1  0  0  0  0
 12 14  1  0  0  0  0
 12 10  2  0  0  0  0
 13 12  1  0  0  0  0
 14  5  2  0  0  0  0
 15 14  1  0  0  0  0
 16  2  1  0  0  0  0
 16 18  1  0  0  0  0
 17 16  1  0  0  0  0
 18 21  1  0  0  0  0
 18 19  1  0  0  0  0
 20 18  1  0  0  0  0
 22 16  1  0  0  0  0
 22 25  1  0  0  0  0
 23 22  1  0  0  0  0
 24 22  1  0  0  0  0
M  END
