1
q = -1.0

 10 10  0  0  1  0  0  0  0  0999 V2000
    1.0579    1.4614   -2.0002 S   0  0  0  0  0  1  0  0  0  0  0  0
    3.9356    0.7835   -2.6786 S   0  0  0  0  0  0  0  0  0  0  0  0
    2.3094   -0.8652   -1.3866 N   0  0  0  0  0  2  0  0  0  0  0  0
    2.3477    0.2972   -1.9561 C   0  0  1  0  0  3  0  0  0  0  0  0
    3.6106   -1.5114   -1.3513 C   0  0  0  0  0  0  0  0  0  0  0  0
    4.5103   -0.9486   -2.4746 C   0  0  0  0  0  0  0  0  0  0  0  0
    3.5059   -2.6137   -1.4433 H   0  0  0  0  0  0  0  0  0  0  0  0
    4.0759   -1.3162   -0.3539 H   0  0  0  0  0  0  0  0  0  0  0  0
    4.3620   -1.4895   -3.4327 H   0  0  0  0  0  0  0  0  0  0  0  0
    5.5871   -0.9683   -2.2176 H   0  0  0  0  0  0  0  0  0  0  0  0
  2  6  1  0  0  0  0
  2  4  1  0  0  0  0
  3  5  1  0  0  0  0
  4  1  1  1  0  0  0
  4  3  1  0  0  0  0
  5  8  1  0  0  0  0
  6 10  1  0  0  0  0
  6  5  1  0  0  0  0
  7  5  1  0  0  0  0
  9  6  1  0  0  0  0
M  END
