4
q = -1.0

  7  6  0  0  0  0  0  0  0  0999 V2000
   -5.4164   -0.4998    1.6478 Cl  0  0  0  0  0  0  0  0  0  0  0  0
   -5.7193    1.6616   -0.2986 Cl  0  0  0  0  0  0  0  0  0  0  0  0
   -5.5828   -1.1037   -1.2272 Cl  0  0  0  0  0  0  0  0  0  0  0  0
   -2.6007   -1.3908    0.0360 S   0  0  0  0  0  0  0  0  0  0  0  0
   -2.8927    1.2754   -0.2052 O   0  0  0  0  0  0  0  0  0  0  0  0
   -3.4047    0.1772   -0.0889 C   0  0  0  0  0  0  0  0  0  0  0  0
   -4.9827    0.0658   -0.0049 C   0  0  0  0  0  0  0  0  0  0  0  0
  2  7  1  0  0  0  0
  3  7  1  0  0  0  0
  5  6  2  0  0  0  0
  6  7  1  0  0  0  0
  6  4  1  0  0  0  0
  7  1  1  0  0  0  0
M  END
