1
q = 0.0, confidence = 0.956

 26 28  0  0  0  0  0  0  0  0999 V2000
   -1.8166   -0.1709   -1.4852 S   0  0  0  0  0  0  0  0  0  0  0  0
   -3.6213   -0.2180    0.9597 N   0  0  0  0  0  0  0  0  0  0  0  0
   -3.0354    1.0478   -1.0523 C   0  0  0  0  0  0  0  0  0  0  0  0
   -3.7395    0.9319    0.1710 C   0  0  0  0  0  0  0  0  0  0  0  0
   -4.5668    2.0124    0.5554 C   0  0  0  0  0  0  0  0  0  0  0  0
   -5.1302    1.9620    1.4960 H   0  0  0  0  0  0  0  0  0  0  0  0
   -4.6839    3.1458   -0.2572 C   0  0  0  0  0  0  0  0  0  0  0  0
   -5.3346    3.9713    0.0686 H   0  0  0  0  0  0  0  0  0  0  0  0
   -3.9927    3.2369   -1.4763 C   0  0  0  0  0  0  0  0  0  0  0  0
   -4.0903    4.1290   -2.1113 H   0  0  0  0  0  0  0  0  0  0  0  0
   -3.1636    2.1793   -1.8700 C   0  0  0  0  0  0  0  0  0  0  0  0
   -2.5855    2.2306   -2.8051 H   0  0  0  0  0  0  0  0  0  0  0  0
   -2.6429   -1.6042   -0.8163 C   0  0  0  0  0  0  0  0  0  0  0  0
   -3.3949   -1.4727    0.3793 C   0  0  0  0  0  0  0  0  0  0  0  0
   -3.9112   -2.6567    0.9572 C   0  0  0  0  0  0  0  0  0  0  0  0
   -4.5178   -2.5968    1.8706 H   0  0  0  0  0  0  0  0  0  0  0  0
   -3.6768   -3.9040    0.3651 C   0  0  0  0  0  0  0  0  0  0  0  0
   -4.0907   -4.8065    0.8398 H   0  0  0  0  0  0  0  0  0  0  0  0
   -2.9380   -4.0110   -0.8239 C   0  0  0  0  0  0  0  0  0  0  0  0
   -2.7528   -4.9927   -1.2829 H   0  0  0  0  0  0  0  0  0  0  0  0
   -2.4204   -2.8519   -1.4158 C   0  0  0  0  0  0  0  0  0  0  0  0
   -1.7946   -2.9027   -2.3176 H   0  0  0  0  0  0  0  0  0  0  0  0
   -3.9420   -0.1273    2.3739 C   0  0  0  0  0  0  0  0  0  0  0  0
   -5.0332   -0.1883    2.5863 H   0  0  0  0  0  0  0  0  0  0  0  0
   -3.5394    0.8284    2.7603 H   0  0  0  0  0  0  0  0  0  0  0  0
   -3.4291   -0.9452    2.9118 H   0  0  0  0  0  0  0  0  0  0  0  0
  1  3  1  0  0  0  0
  1 13  1  0  0  0  0
  2 23  1  0  0  0  0
  3  4  1  0  0  0  0
  4  5  2  0  0  0  0
  4  2  1  0  0  0  0
  5  6  1  0  0  0  0
  7  8  1  0  0  0  0
  7  5  1  0  0  0  0
  9  7  2  0  0  0  0
 10  9  1  0  0  0  0
 11  9  1  0  0  0  0
 11  3  2  0  0  0  0
 12 11  1  0  0  0  0
 13 14  1  0  0  0  0
 14 15  2  0  0  0  0
 14  2  1  0  0  0  0
 15 16  1  0  0  0  0
 17 18  1  0  0  0  0
 17 15  1  0  0  0  0
 19 17  2  0  0  0  0
 20 19  1  0  0  0  0
 21 19  1  0  0  0  0
 21 13  2  0  0  0  0
 22 21  1  0  0  0  0
 23 24  1  0  0  0  0
 23 25  1  0  0  0  0
 23 26  1  0  0  0  0
M  END
