1
q = 0.0, confidence = 0.996

 25 24  0  0  0  0  0  0  0  0999 V2000
   -1.8687    0.5619   -0.9753 S   0  0  0  0  0  1  0  0  0  0  0  0
   -2.2219   -0.2779    1.9629 S   0  0  0  0  0  0  0  0  0  0  0  0
   -4.4966    0.7024    0.4100 P   0  0  0  0  0  4  0  0  0  0  0  0
   -2.7117    0.2756    0.4768 C   0  0  0  0  0  0  0  0  0  0  0  0
   -5.0398    1.2308   -1.2584 C   0  0  0  0  0  0  0  0  0  0  0  0
   -6.5224    1.5996   -1.3558 C   0  0  0  0  0  0  0  0  0  0  0  0
   -4.7805    2.0525    1.6094 C   0  0  0  0  0  0  0  0  0  0  0  0
   -3.9990    3.3290    1.2860 C   0  0  0  0  0  0  0  0  0  0  0  0
   -5.4375   -0.7779    0.9238 C   0  0  0  0  0  0  0  0  0  0  0  0
   -5.1893   -1.9857    0.0168 C   0  0  0  0  0  0  0  0  0  0  0  0
   -4.7667    0.4013   -1.9432 H   0  0  0  0  0  0  0  0  0  0  0  0
   -4.3773    2.0758   -1.5383 H   0  0  0  0  0  0  0  0  0  0  0  0
   -6.7659    1.9067   -2.3919 H   0  0  0  0  0  0  0  0  0  0  0  0
   -6.7850    2.4466   -0.6910 H   0  0  0  0  0  0  0  0  0  0  0  0
   -7.1821    0.7459   -1.1019 H   0  0  0  0  0  0  0  0  0  0  0  0
   -4.4619    1.6175    2.5803 H   0  0  0  0  0  0  0  0  0  0  0  0
   -5.8771    2.2238    1.6585 H   0  0  0  0  0  0  0  0  0  0  0  0
   -4.2081    4.0962    2.0567 H   0  0  0  0  0  0  0  0  0  0  0  0
   -4.2875    3.7586    0.3059 H   0  0  0  0  0  0  0  0  0  0  0  0
   -2.9061    3.1484    1.2827 H   0  0  0  0  0  0  0  0  0  0  0  0
   -6.5097   -0.4924    0.9733 H   0  0  0  0  0  0  0  0  0  0  0  0
   -5.0873   -0.9731    1.9591 H   0  0  0  0  0  0  0  0  0  0  0  0
   -5.7430   -2.8643    0.4009 H   0  0  0  0  0  0  0  0  0  0  0  0
   -4.1135   -2.2506   -0.0082 H   0  0  0  0  0  0  0  0  0  0  0  0
   -5.5279   -1.8072   -1.0232 H   0  0  0  0  0  0  0  0  0  0  0  0
  1  4  1  0  0  0  0
  3  4  1  0  0  0  0
  3  9  1  0  0  0  0
  3  7  1  0  0  0  0
  4  2  2  0  0  0  0
  5  3  1  0  0  0  0
  6  5  1  0  0  0  0
  6 15  1  0  0  0  0
  6 14  1  0  0  0  0
  7 17  1  0  0  0  0
  7 16  1  0  0  0  0
  8  7  1  0  0  0  0
  8 18  1  0  0  0  0
  9 21  1  0  0  0  0
  9 22  1  0  0  0  0
 10 23  1  0  0  0  0
 10  9  1  0  0  0  0
 11  5  1  0  0  0  0
 12  5  1  0  0  0  0
 13  6  1  0  0  0  0
 19  8  1  0  0  0  0
 20  8  1  0  0  0  0
 24 10  1  0  0  0  0
 25 10  1  0  0  0  0
M  END
