1
q = -1.0, confidence = 0.03

  7  6  0  0  0  0  0  0  0  0999 V2000
    1.5045   -1.6240   -0.2340 S   0  0  0  0  0  5  0  0  0  0  0  0
    2.4963   -1.2110   -1.2856 O   0  0  0  0  0  0  0  0  0  0  0  0
    0.8596   -2.9798   -0.4484 O   0  0  0  0  0  0  0  0  0  0  0  0
    2.4495   -1.8224    1.3073 C   0  0  0  0  0  0  0  0  0  0  0  0
    2.9242   -0.8499    1.5292 H   0  0  0  0  0  0  0  0  0  0  0  0
    3.1784   -2.6244    1.0844 H   0  0  0  0  0  0  0  0  0  0  0  0
    1.7484   -2.1265    2.1063 H   0  0  0  0  0  0  0  0  0  0  0  0
  1  4  1  0  0  0  0
  2  1  2  0  0  0  0
  3  1  2  0  0  0  0
  4  5  1  0  0  0  0
  4  7  1  0  0  0  0
  6  4  1  0  0  0  0
M  END
