1
q = -1.0

 16 15  0  0  0  0  0  0  0  0999 V2000
    0.6205   -0.0377   -1.3249 S   0  0  0  0  0  1  0  0  0  0  0  0
    5.6849   -0.0769    0.1563 C   0  0  0  0  0  0  0  0  0  0  0  0
    4.3591   -0.1001    0.4662 C   0  0  0  0  0  0  0  0  0  0  0  0
    3.3172   -0.0461   -0.5742 C   0  0  0  0  0  0  0  0  0  0  0  0
    1.9895   -0.0827   -0.2254 C   0  0  0  0  0  0  0  0  0  0  0  0
    3.9384   -0.1840    1.9175 C   0  0  0  0  0  0  0  0  0  0  0  0
    4.8209   -0.2117    2.5844 H   0  0  0  0  0  0  0  0  0  0  0  0
    3.3322   -1.0930    2.1173 H   0  0  0  0  0  0  0  0  0  0  0  0
    3.3133    0.6843    2.2151 H   0  0  0  0  0  0  0  0  0  0  0  0
    3.7326    0.0476   -2.0196 C   0  0  0  0  0  0  0  0  0  0  0  0
    4.3313   -0.8356   -2.3296 H   0  0  0  0  0  0  0  0  0  0  0  0
    4.3655    0.9418   -2.2033 H   0  0  0  0  0  0  0  0  0  0  0  0
    2.8467    0.1099   -2.6804 H   0  0  0  0  0  0  0  0  0  0  0  0
    6.0472   -0.0193   -0.8799 H   0  0  0  0  0  0  0  0  0  0  0  0
    6.4491   -0.1168    0.9476 H   0  0  0  0  0  0  0  0  0  0  0  0
    1.7084   -0.1479    0.8369 H   0  0  0  0  0  0  0  0  0  0  0  0
  1  5  1  0  0  0  0
  2  3  2  0  0  0  0
  2 15  1  0  0  0  0
  3  6  1  0  0  0  0
  4  5  2  0  0  0  0
  4  3  1  0  0  0  0
  5 16  1  0  0  0  0
  6  8  1  0  0  0  0
  6  9  1  0  0  0  0
  6  7  1  0  0  0  0
 10  4  1  0  0  0  0
 11 10  1  0  0  0  0
 12 10  1  0  0  0  0
 13 10  1  0  0  0  0
 14  2  1  0  0  0  0
M  END
