1
q = -1.0

 24 24  0  0  0  0  0  0  0  0999 V2000
   -1.4907   -2.1122    1.4219 S   0  0  0  0  0  1  0  0  0  0  0  0
   -2.9084   -1.1241    0.9277 C   0  0  0  0  0  0  0  0  0  0  0  0
   -3.6282   -1.4516   -0.2593 C   0  0  0  0  0  0  0  0  0  0  0  0
   -4.7196   -0.6403   -0.6584 C   0  0  0  0  0  0  0  0  0  0  0  0
   -5.0764    0.4721    0.1208 C   0  0  0  0  0  0  0  0  0  0  0  0
   -4.3827    0.8068    1.2954 C   0  0  0  0  0  0  0  0  0  0  0  0
   -3.2973   -0.0010    1.7194 C   0  0  0  0  0  0  0  0  0  0  0  0
   -3.2525   -2.6392   -1.1067 C   0  0  0  0  0  0  0  0  0  0  0  0
   -5.4858   -0.9552   -1.9191 C   0  0  0  0  0  0  0  0  0  0  0  0
   -4.7908    2.0240    2.0893 C   0  0  0  0  0  0  0  0  0  0  0  0
   -2.5586    0.3642    2.9805 C   0  0  0  0  0  0  0  0  0  0  0  0
   -2.3049   -3.0782   -0.7426 H   0  0  0  0  0  0  0  0  0  0  0  0
   -5.6220    2.5662    1.5969 H   0  0  0  0  0  0  0  0  0  0  0  0
   -6.3194   -0.2418   -2.0745 H   0  0  0  0  0  0  0  0  0  0  0  0
   -1.9182   -0.4754    3.3087 H   0  0  0  0  0  0  0  0  0  0  0  0
   -5.9296    1.0970   -0.1939 H   0  0  0  0  0  0  0  0  0  0  0  0
   -3.1356   -2.3590   -2.1745 H   0  0  0  0  0  0  0  0  0  0  0  0
   -4.0371   -3.4264   -1.0688 H   0  0  0  0  0  0  0  0  0  0  0  0
   -5.9168   -1.9785   -1.9000 H   0  0  0  0  0  0  0  0  0  0  0  0
   -4.8306   -0.9181   -2.8177 H   0  0  0  0  0  0  0  0  0  0  0  0
   -3.9474    2.7352    2.2234 H   0  0  0  0  0  0  0  0  0  0  0  0
   -5.1256    1.7563    3.1144 H   0  0  0  0  0  0  0  0  0  0  0  0
   -3.2562    0.6366    3.7984 H   0  0  0  0  0  0  0  0  0  0  0  0
   -1.8898    1.2413    2.8258 H   0  0  0  0  0  0  0  0  0  0  0  0
  2  1  1  0  0  0  0
  2  7  1  0  0  0  0
  3  2  2  0  0  0  0
  4  3  1  0  0  0  0
  4  5  2  0  0  0  0
  5  6  1  0  0  0  0
  6  7  2  0  0  0  0
  6 10  1  0  0  0  0
  7 11  1  0  0  0  0
  8 18  1  0  0  0  0
  8 12  1  0  0  0  0
  8  3  1  0  0  0  0
  9 19  1  0  0  0  0
  9  4  1  0  0  0  0
 10 21  1  0  0  0  0
 10 22  1  0  0  0  0
 11 15  1  0  0  0  0
 11 23  1  0  0  0  0
 13 10  1  0  0  0  0
 14  9  1  0  0  0  0
 16  5  1  0  0  0  0
 17  8  1  0  0  0  0
 20  9  1  0  0  0  0
 24 11  1  0  0  0  0
M  END
