1
q = 0.0, confidence = 1.0

 41 43  0  0  1  0  0  0  0  0999 V2000
   -0.3131   -0.3568    1.7035 S   0  0  0  0  0  0  0  0  0  0  0  0
    3.0372    1.3877   -1.4344 O   0  0  0  0  0  0  0  0  0  0  0  0
    1.0991    0.8927    1.6459 C   0  0  1  0  0  0  0  0  0  0  0  0
    2.1026    0.3582    0.6394 C   0  0  0  0  0  0  0  0  0  0  0  0
    2.2461    1.3071   -0.3569 C   0  0  0  0  0  0  0  0  0  0  0  0
    1.3797    2.4651   -0.0927 C   0  0  0  0  0  0  0  0  0  0  0  0
    1.2097    3.6469   -0.8241 C   0  0  0  0  0  0  0  0  0  0  0  0
    0.3557    4.6322   -0.2982 C   0  0  0  0  0  0  0  0  0  0  0  0
   -0.2795    4.4460    0.9421 C   0  0  0  0  0  0  0  0  0  0  0  0
   -0.0974    3.2572    1.6761 C   0  0  0  0  0  0  0  0  0  0  0  0
    0.7123    2.2536    1.1361 C   0  0  0  0  0  0  0  0  0  0  0  0
    2.6265   -1.0137    0.7790 C   0  0  0  0  0  0  0  0  0  0  0  0
    2.4837   -1.9688   -0.2557 C   0  0  0  0  0  0  0  0  0  0  0  0
    2.9185   -3.2903   -0.0834 C   0  0  0  0  0  0  0  0  0  0  0  0
    3.4988   -3.6910    1.1294 C   0  0  0  0  0  0  0  0  0  0  0  0
    3.6332   -2.7604    2.1734 C   0  0  0  0  0  0  0  0  0  0  0  0
    3.1966   -1.4409    2.0025 C   0  0  0  0  0  0  0  0  0  0  0  0
    4.1169    0.4615   -1.6278 C   0  0  0  0  0  0  0  0  0  0  0  0
    5.0559    1.0581   -2.6563 C   0  0  0  0  0  0  0  0  0  0  0  0
   -1.4570    0.4009    2.9295 C   0  0  0  0  0  0  0  0  0  0  0  0
   -0.8351    0.6170    4.3022 C   0  0  0  0  0  0  0  0  0  0  0  0
    1.4870    0.9004    2.6865 H   0  0  0  0  0  0  0  0  0  0  0  0
    1.7394    3.7900   -1.7767 H   0  0  0  0  0  0  0  0  0  0  0  0
    0.1922    5.5664   -0.8562 H   0  0  0  0  0  0  0  0  0  0  0  0
   -0.9294    5.2367    1.3450 H   0  0  0  0  0  0  0  0  0  0  0  0
   -0.5846    3.1383    2.6545 H   0  0  0  0  0  0  0  0  0  0  0  0
    1.9863   -1.6754   -1.1907 H   0  0  0  0  0  0  0  0  0  0  0  0
    2.7795   -4.0171   -0.8978 H   0  0  0  0  0  0  0  0  0  0  0  0
    3.8348   -4.7298    1.2667 H   0  0  0  0  0  0  0  0  0  0  0  0
    4.0826   -3.0668    3.1304 H   0  0  0  0  0  0  0  0  0  0  0  0
    3.3108   -0.7176    2.8247 H   0  0  0  0  0  0  0  0  0  0  0  0
    4.6232    0.2844   -0.6540 H   0  0  0  0  0  0  0  0  0  0  0  0
    3.7124   -0.5140   -1.9704 H   0  0  0  0  0  0  0  0  0  0  0  0
    5.8934    0.3607   -2.8548 H   0  0  0  0  0  0  0  0  0  0  0  0
    5.4763    2.0198   -2.3015 H   0  0  0  0  0  0  0  0  0  0  0  0
    4.5230    1.2417   -3.6101 H   0  0  0  0  0  0  0  0  0  0  0  0
   -2.2836   -0.3354    2.9776 H   0  0  0  0  0  0  0  0  0  0  0  0
   -1.8750    1.3291    2.4917 H   0  0  0  0  0  0  0  0  0  0  0  0
   -1.6171    0.9330    5.0224 H   0  0  0  0  0  0  0  0  0  0  0  0
   -0.0590    1.4083    4.2941 H   0  0  0  0  0  0  0  0  0  0  0  0
   -0.3726   -0.3144    4.6856 H   0  0  0  0  0  0  0  0  0  0  0  0
  1 20  1  0  0  0  0
  2  5  1  0  0  0  0
  3  1  1  0  0  0  0
  3 22  1  1  0  0  0
  4 12  1  0  0  0  0
  4  3  1  0  0  0  0
  5  6  1  0  0  0  0
  5  4  2  0  0  0  0
  6 11  1  0  0  0  0
  7  8  1  0  0  0  0
  7  6  2  0  0  0  0
  8  9  2  0  0  0  0
  9 25  1  0  0  0  0
  9 10  1  0  0  0  0
 10 26  1  0  0  0  0
 11  3  1  0  0  0  0
 11 10  2  0  0  0  0
 12 17  1  0  0  0  0
 13 14  1  0  0  0  0
 13 12  2  0  0  0  0
 14 15  2  0  0  0  0
 15 29  1  0  0  0  0
 15 16  1  0  0  0  0
 16 30  1  0  0  0  0
 17 16  2  0  0  0  0
 17 31  1  0  0  0  0
 18  2  1  0  0  0  0
 18 32  1  0  0  0  0
 19 35  1  0  0  0  0
 19 18  1  0  0  0  0
 20 37  1  0  0  0  0
 20 21  1  0  0  0  0
 21 41  1  0  0  0  0
 21 39  1  0  0  0  0
 23  7  1  0  0  0  0
 24  8  1  0  0  0  0
 27 13  1  0  0  0  0
 28 14  1  0  0  0  0
 33 18  1  0  0  0  0
 34 19  1  0  0  0  0
 36 19  1  0  0  0  0
 38 20  1  0  0  0  0
 40 21  1  0  0  0  0
M  END
