1
q = -1.0

 38 40  0  0  0  0  0  0  0  0999 V2000
    0.0040   -0.2210   -0.8817 S   0  0  0  0  0  1  0  0  0  0  0  0
    0.0547   -1.9815   -0.5866 C   0  0  0  0  0  0  0  0  0  0  0  0
    1.2989   -2.6577   -0.4416 C   0  0  0  0  0  0  0  0  0  0  0  0
    1.3034   -4.0266   -0.1068 C   0  0  0  0  0  0  0  0  0  0  0  0
    2.2704   -4.5400    0.0060 H   0  0  0  0  0  0  0  0  0  0  0  0
    0.1048   -4.7269    0.0761 C   0  0  0  0  0  0  0  0  0  0  0  0
    0.1238   -5.7959    0.3365 H   0  0  0  0  0  0  0  0  0  0  0  0
   -1.1183   -4.0628   -0.0789 C   0  0  0  0  0  0  0  0  0  0  0  0
   -2.0665   -4.6056    0.0542 H   0  0  0  0  0  0  0  0  0  0  0  0
   -1.1650   -2.6947   -0.4159 C   0  0  0  0  0  0  0  0  0  0  0  0
   -2.4883   -2.0221   -0.5385 C   0  0  0  0  0  0  0  0  0  0  0  0
   -2.8853   -1.3865   -1.7359 C   0  0  0  0  0  0  0  0  0  0  0  0
   -2.2013   -1.3884   -2.5968 H   0  0  0  0  0  0  0  0  0  0  0  0
   -4.1297   -0.7530   -1.8322 C   0  0  0  0  0  0  0  0  0  0  0  0
   -4.4180   -0.2672   -2.7786 H   0  0  0  0  0  0  0  0  0  0  0  0
   -5.0214   -0.7199   -0.7368 C   0  0  0  0  0  0  0  0  0  0  0  0
   -4.6210   -1.3551    0.4540 C   0  0  0  0  0  0  0  0  0  0  0  0
   -5.2832   -1.3263    1.3334 H   0  0  0  0  0  0  0  0  0  0  0  0
   -3.3809   -2.0029    0.5501 C   0  0  0  0  0  0  0  0  0  0  0  0
   -3.0741   -2.4570    1.5036 H   0  0  0  0  0  0  0  0  0  0  0  0
   -6.3659   -0.0461   -0.8517 C   0  0  0  0  0  0  0  0  0  0  0  0
   -6.3139    0.8693   -1.4754 H   0  0  0  0  0  0  0  0  0  0  0  0
   -6.7681    0.2345    0.1415 H   0  0  0  0  0  0  0  0  0  0  0  0
   -7.1113   -0.7181   -1.3297 H   0  0  0  0  0  0  0  0  0  0  0  0
    2.5939   -1.9353   -0.5718 C   0  0  0  0  0  0  0  0  0  0  0  0
    3.4896   -1.8742    0.5151 C   0  0  0  0  0  0  0  0  0  0  0  0
    3.2143   -2.3632    1.4615 H   0  0  0  0  0  0  0  0  0  0  0  0
    4.6945   -1.1645    0.4151 C   0  0  0  0  0  0  0  0  0  0  0  0
    5.3670   -1.1169    1.2864 H   0  0  0  0  0  0  0  0  0  0  0  0
    5.0545   -0.4992   -0.7728 C   0  0  0  0  0  0  0  0  0  0  0  0
    4.1702   -0.5867   -1.8687 C   0  0  0  0  0  0  0  0  0  0  0  0
    4.4387   -0.0977   -2.8193 H   0  0  0  0  0  0  0  0  0  0  0  0
    2.9592   -1.2845   -1.7713 C   0  0  0  0  0  0  0  0  0  0  0  0
    2.2810   -1.3347   -2.6356 H   0  0  0  0  0  0  0  0  0  0  0  0
    6.3256    0.3073   -0.8573 C   0  0  0  0  0  0  0  0  0  0  0  0
    7.1466   -0.1594   -0.2773 H   0  0  0  0  0  0  0  0  0  0  0  0
    6.1756    1.3266   -0.4393 H   0  0  0  0  0  0  0  0  0  0  0  0
    6.6670    0.4276   -1.9044 H   0  0  0  0  0  0  0  0  0  0  0  0
  1  2  1  0  0  0  0
  2  3  2  0  0  0  0
  2 10  1  0  0  0  0
  3  4  1  0  0  0  0
  4  5  1  0  0  0  0
  4  6  2  0  0  0  0
  6  7  1  0  0  0  0
  8  9  1  0  0  0  0
  8  6  1  0  0  0  0
 10  8  2  0  0  0  0
 11 10  1  0  0  0  0
 11 19  1  0  0  0  0
 12 11  2  0  0  0  0
 13 12  1  0  0  0  0
 14 12  1  0  0  0  0
 14 16  2  0  0  0  0
 15 14  1  0  0  0  0
 16 17  1  0  0  0  0
 17 19  2  0  0  0  0
 17 18  1  0  0  0  0
 19 20  1  0  0  0  0
 21 16  1  0  0  0  0
 21 23  1  0  0  0  0
 22 21  1  0  0  0  0
 24 21  1  0  0  0  0
 25  3  1  0  0  0  0
 25 26  1  0  0  0  0
 26 27  1  0  0  0  0
 28 26  2  0  0  0  0
 28 29  1  0  0  0  0
 30 28  1  0  0  0  0
 31 33  1  0  0  0  0
 31 30  2  0  0  0  0
 32 31  1  0  0  0  0
 33 25  2  0  0  0  0
 34 33  1  0  0  0  0
 35 30  1  0  0  0  0
 35 37  1  0  0  0  0
 35 36  1  0  0  0  0
 38 35  1  0  0  0  0
M  END
