1
q = -1.0, confidence = 0.0

 25 26  0  0  0  0  0  0  0  0999 V2000
   -1.9924   -1.0714   -1.0261 S   0  0  0  0  0  1  0  0  0  0  0  0
   -3.3401    0.2505   -0.1398 P   0  0  0  0  0  0  0  0  0  0  0  0
   -5.9360    0.2783   -1.1152 C   0  0  0  0  0  0  0  0  0  0  0  0
   -7.2008   -0.2615   -1.3944 C   0  0  0  0  0  0  0  0  0  0  0  0
   -7.4893   -1.5913   -1.0489 C   0  0  0  0  0  0  0  0  0  0  0  0
   -6.5129   -2.3865   -0.4241 C   0  0  0  0  0  0  0  0  0  0  0  0
   -5.2469   -1.8546   -0.1435 C   0  0  0  0  0  0  0  0  0  0  0  0
   -4.9609   -0.5192   -0.4883 C   0  0  0  0  0  0  0  0  0  0  0  0
   -3.5527    1.2459    2.4475 C   0  0  0  0  0  0  0  0  0  0  0  0
   -3.3409    1.2631    3.8336 C   0  0  0  0  0  0  0  0  0  0  0  0
   -2.6527    0.2073    4.4549 C   0  0  0  0  0  0  0  0  0  0  0  0
   -2.1837   -0.8720    3.6896 C   0  0  0  0  0  0  0  0  0  0  0  0
   -2.4034   -0.9009    2.3045 C   0  0  0  0  0  0  0  0  0  0  0  0
   -3.0836    0.1609    1.6782 C   0  0  0  0  0  0  0  0  0  0  0  0
   -3.3295    1.7164   -0.6045 O   0  0  0  0  0  0  0  0  0  0  0  0
   -5.6794    1.3166   -1.3754 H   0  0  0  0  0  0  0  0  0  0  0  0
   -7.9654    0.3591   -1.8864 H   0  0  0  0  0  0  0  0  0  0  0  0
   -8.4818   -2.0137   -1.2691 H   0  0  0  0  0  0  0  0  0  0  0  0
   -6.7398   -3.4297   -0.1564 H   0  0  0  0  0  0  0  0  0  0  0  0
   -4.4753   -2.4756    0.3368 H   0  0  0  0  0  0  0  0  0  0  0  0
   -4.0641    2.0811    1.9450 H   0  0  0  0  0  0  0  0  0  0  0  0
   -3.7047    2.1123    4.4322 H   0  0  0  0  0  0  0  0  0  0  0  0
   -2.4744    0.2309    5.5408 H   0  0  0  0  0  0  0  0  0  0  0  0
   -1.6285   -1.6944    4.1650 H   0  0  0  0  0  0  0  0  0  0  0  0
   -2.0169   -1.7370    1.7034 H   0  0  0  0  0  0  0  0  0  0  0  0
  1  2  1  0  0  0  0
  2 14  1  0  0  0  0
  3  8  1  0  0  0  0
  4  3  2  0  0  0  0
  4  5  1  0  0  0  0
  5  6  2  0  0  0  0
  6 19  1  0  0  0  0
  6  7  1  0  0  0  0
  7 20  1  0  0  0  0
  8  7  2  0  0  0  0
  8  2  1  0  0  0  0
  9 10  1  0  0  0  0
 10 22  1  0  0  0  0
 10 11  2  0  0  0  0
 11 23  1  0  0  0  0
 12 24  1  0  0  0  0
 12 11  1  0  0  0  0
 13 12  2  0  0  0  0
 14 13  1  0  0  0  0
 14  9  2  0  0  0  0
 15  2  2  0  0  0  0
 16  3  1  0  0  0  0
 17  4  1  0  0  0  0
 18  5  1  0  0  0  0
 21  9  1  0  0  0  0
 25 13  1  0  0  0  0
M  END
