1
q = -1.0

 27 28  0  0  0  0  0  0  0  0999 V2000
   -2.2757    0.2796   -1.4208 S   0  0  0  0  0  1  0  0  0  0  0  0
   -2.8644    1.1443    0.0459 C   0  0  0  0  0  0  0  0  0  0  0  0
   -4.3244    0.9780    0.2908 C   0  0  0  0  0  0  0  0  0  0  0  0
   -4.9657    1.8807    1.1708 C   0  0  0  0  0  0  0  0  0  0  0  0
   -4.3653    2.6785    1.6310 H   0  0  0  0  0  0  0  0  0  0  0  0
   -6.3299    1.7503    1.4463 C   0  0  0  0  0  0  0  0  0  0  0  0
   -6.8194    2.4606    2.1296 H   0  0  0  0  0  0  0  0  0  0  0  0
   -7.0737    0.7125    0.8563 C   0  0  0  0  0  0  0  0  0  0  0  0
   -8.1455    0.6053    1.0822 H   0  0  0  0  0  0  0  0  0  0  0  0
   -6.4445   -0.1901   -0.0135 C   0  0  0  0  0  0  0  0  0  0  0  0
   -7.0103   -1.0197   -0.4619 H   0  0  0  0  0  0  0  0  0  0  0  0
   -5.0801   -0.0568   -0.3009 C   0  0  0  0  0  0  0  0  0  0  0  0
   -4.5947   -0.7820   -0.9698 H   0  0  0  0  0  0  0  0  0  0  0  0
   -0.8658    2.2788    0.7457 C   0  0  0  0  0  0  0  0  0  0  0  0
    0.0848    1.8653    1.7223 C   0  0  0  0  0  0  0  0  0  0  0  0
   -0.2603    1.2246    2.5452 H   0  0  0  0  0  0  0  0  0  0  0  0
    1.4233    2.2466    1.6219 C   0  0  0  0  0  0  0  0  0  0  0  0
    2.1815    1.8998    2.3363 H   0  0  0  0  0  0  0  0  0  0  0  0
    1.8209    3.0769    0.5631 C   0  0  0  0  0  0  0  0  0  0  0  0
    0.8982    3.5557   -0.3804 C   0  0  0  0  0  0  0  0  0  0  0  0
    1.2560    4.2145   -1.1830 H   0  0  0  0  0  0  0  0  0  0  0  0
   -0.4349    3.1506   -0.2991 C   0  0  0  0  0  0  0  0  0  0  0  0
   -1.1697    3.4896   -1.0430 H   0  0  0  0  0  0  0  0  0  0  0  0
   -2.1727    1.8754    0.8537 N   0  0  0  0  0  0  0  0  0  0  0  0
    3.2441    3.4130    0.4047 N   0  0  0  0  0  0  0  0  0  0  0  0
    3.5486    4.2137   -0.4796 O   0  0  0  0  0  0  0  0  0  0  0  0
    4.0481    2.8569    1.1613 O   0  0  0  0  0  0  0  0  0  0  0  0
  1  2  1  0  0  0  0
  2  3  1  0  0  0  0
  2 24  2  0  0  0  0
  3  4  1  0  0  0  0
  4  6  2  0  0  0  0
  4  5  1  0  0  0  0
  6  7  1  0  0  0  0
  8  9  1  0  0  0  0
  8  6  1  0  0  0  0
 10  8  2  0  0  0  0
 11 10  1  0  0  0  0
 12 10  1  0  0  0  0
 12  3  2  0  0  0  0
 13 12  1  0  0  0  0
 14 24  1  0  0  0  0
 14 15  1  0  0  0  0
 15 16  1  0  0  0  0
 17 15  2  0  0  0  0
 17 18  1  0  0  0  0
 19 17  1  0  0  0  0
 20 22  1  0  0  0  0
 20 19  2  0  0  0  0
 21 20  1  0  0  0  0
 22 14  2  0  0  0  0
 23 22  1  0  0  0  0
 25 19  1  0  0  0  0
 25 27  2  0  0  0  0
 26 25  2  0  0  0  0
M  END
