1
q = -1.0

 19 19  0  0  0  0  0  0  0  0999 V2000
   -2.0856    0.9302    0.1034 S   0  0  0  0  0  1  0  0  0  0  0  0
   -7.2597   -1.6906   -0.0955 Cl  0  0  0  0  0  0  0  0  0  0  0  0
   -1.0611   -2.0262    0.0393 O   0  0  0  0  0  0  0  0  0  0  0  0
   -3.0915   -2.9636   -0.0079 O   0  0  0  0  0  0  0  0  0  0  0  0
   -2.4770   -3.7270   -0.0202 H   0  0  0  0  0  0  0  0  0  0  0  0
   -2.2796   -1.8742    0.0258 C   0  0  0  0  0  0  0  0  0  0  0  0
   -3.0108   -0.5670    0.0420 C   0  0  0  0  0  0  0  0  0  0  0  0
   -4.3925   -0.6347    0.0117 C   0  0  0  0  0  0  0  0  0  0  0  0
   -4.7926   -1.6566   -0.0214 H   0  0  0  0  0  0  0  0  0  0  0  0
   -5.4222    0.3867    0.0126 C   0  0  0  0  0  0  0  0  0  0  0  0
   -6.8002    0.0015   -0.0358 C   0  0  0  0  0  0  0  0  0  0  0  0
   -7.8399    0.9389   -0.0386 C   0  0  0  0  0  0  0  0  0  0  0  0
   -8.8786    0.5822   -0.0770 H   0  0  0  0  0  0  0  0  0  0  0  0
   -7.5461    2.3096    0.0070 C   0  0  0  0  0  0  0  0  0  0  0  0
   -8.3664    3.0432    0.0047 H   0  0  0  0  0  0  0  0  0  0  0  0
   -6.2075    2.7281    0.0554 C   0  0  0  0  0  0  0  0  0  0  0  0
   -5.9631    3.8004    0.0918 H   0  0  0  0  0  0  0  0  0  0  0  0
   -5.1737    1.7876    0.0584 C   0  0  0  0  0  0  0  0  0  0  0  0
   -4.1294    2.1240    0.0970 H   0  0  0  0  0  0  0  0  0  0  0  0
  2 11  1  0  0  0  0
  4  6  1  0  0  0  0
  5  4  1  0  0  0  0
  6  3  2  0  0  0  0
  6  7  1  0  0  0  0
  7  1  1  0  0  0  0
  8 10  1  0  0  0  0
  8  7  2  0  0  0  0
  9  8  1  0  0  0  0
 10 18  1  0  0  0  0
 11 10  2  0  0  0  0
 12 11  1  0  0  0  0
 12 14  2  0  0  0  0
 13 12  1  0  0  0  0
 14 16  1  0  0  0  0
 15 14  1  0  0  0  0
 16 18  2  0  0  0  0
 16 17  1  0  0  0  0
 18 19  1  0  0  0  0
M  END
