1
q = -1.0

 10 10  0  0  0  0  0  0  0  0999 V2000
    0.1677   -1.7312   -1.4594 S   0  0  0  0  0  1  0  0  0  0  0  0
    1.8499   -2.0289   -1.9171 C   0  0  0  0  0  0  0  0  0  0  0  0
    2.5408   -1.3219   -2.8558 N   0  0  0  0  0  0  0  0  0  0  0  0
    3.8217   -1.7497   -2.8481 N   0  0  0  0  0  0  0  0  0  0  0  0
    3.8966   -2.6897   -1.9451 N   0  0  0  0  0  0  0  0  0  0  0  0
    2.6972   -2.8933   -1.3498 N   0  0  0  0  0  0  0  0  0  0  0  0
    2.1181   -0.1992   -3.6751 C   0  0  0  0  0  0  0  0  0  0  0  0
    2.6875   -0.2288   -4.6208 H   0  0  0  0  0  0  0  0  0  0  0  0
    2.3124    0.7623   -3.1500 H   0  0  0  0  0  0  0  0  0  0  0  0
    1.0361   -0.2952   -3.8772 H   0  0  0  0  0  0  0  0  0  0  0  0
  2  1  1  0  0  0  0
  2  6  2  0  0  0  0
  3  4  1  0  0  0  0
  3  2  1  0  0  0  0
  4  5  2  0  0  0  0
  5  6  1  0  0  0  0
  7  9  1  0  0  0  0
  7  3  1  0  0  0  0
  8  7  1  0  0  0  0
 10  7  1  0  0  0  0
M  END
