1
q = 0.0, confidence = 1.0

 28 28  0  0  1  0  0  0  0  0999 V2000
    1.8966   -0.5253   -0.0014 S   0  0  0  0  0  1  0  0  0  0  0  0
    7.4174   -4.6107   -0.0025 O   0  0  0  0  0  0  0  0  0  0  0  0
    5.1639    2.7501    0.0015 O   0  0  0  0  0  0  0  0  0  0  0  0
    3.3481    4.1207    0.0017 O   0  0  0  0  0  0  0  0  0  0  0  0
    4.5286    0.1864   -0.0013 N   0  0  0  0  0  0  0  0  0  0  0  0
    5.1543    1.0239   -0.0001 H   0  0  0  0  0  0  0  0  0  0  0  0
    2.9904    1.9158   -0.0002 N   0  0  0  0  0  0  0  0  0  0  0  0
    1.9806    2.2163   -0.0003 H   0  0  0  0  0  0  0  0  0  0  0  0
    5.1936   -1.0538   -0.0016 C   0  0  0  0  0  0  0  0  0  0  0  0
    6.6045   -0.9946    0.0037 C   0  0  0  0  0  0  0  0  0  0  0  0
    7.1025   -0.0120    0.0081 H   0  0  0  0  0  0  0  0  0  0  0  0
    7.3853   -2.1558    0.0036 C   0  0  0  0  0  0  0  0  0  0  0  0
    8.4791   -2.0617    0.0078 H   0  0  0  0  0  0  0  0  0  0  0  0
    6.7588   -3.4197   -0.0019 C   0  0  0  0  0  0  0  0  0  0  0  0
    5.3496   -3.4827   -0.0074 C   0  0  0  0  0  0  0  0  0  0  0  0
    4.8734   -4.4737   -0.0118 H   0  0  0  0  0  0  0  0  0  0  0  0
    4.5717   -2.3242   -0.0073 C   0  0  0  0  0  0  0  0  0  0  0  0
    3.4779   -2.3948   -0.0117 H   0  0  0  0  0  0  0  0  0  0  0  0
    8.8314   -4.5952    0.0029 C   0  0  0  0  0  0  0  0  0  0  0  0
    9.1573   -5.6518    0.0015 H   0  0  0  0  0  0  0  0  0  0  0  0
    9.2386   -4.0935    0.9100 H   0  0  0  0  0  0  0  0  0  0  0  0
    9.2455   -4.0890   -0.8985 H   0  0  0  0  0  0  0  0  0  0  0  0
    3.2274    0.5461   -0.0011 C   0  0  2  0  0  3  0  0  0  0  0  0
    3.9409    2.9168    0.0011 C   0  0  0  0  0  0  0  0  0  0  0  0
    4.2335    5.2448    0.0030 C   0  0  0  0  0  0  0  0  0  0  0  0
    3.5825    6.1364    0.0039 H   0  0  0  0  0  0  0  0  0  0  0  0
    4.8811    5.2400   -0.8967 H   0  0  0  0  0  0  0  0  0  0  0  0
    4.8808    5.2381    0.9029 H   0  0  0  0  0  0  0  0  0  0  0  0
  2 14  1  0  0  0  0
  2 19  1  0  0  0  0
  4 25  1  0  0  0  0
  5 23  1  0  0  0  0
  5  6  1  0  0  0  0
  7 24  1  0  0  0  0
  8  7  1  0  0  0  0
  9  5  1  0  0  0  0
  9 10  1  0  0  0  0
 10 11  1  0  0  0  0
 12 10  2  0  0  0  0
 12 13  1  0  0  0  0
 14 12  1  0  0  0  0
 15 17  1  0  0  0  0
 15 14  2  0  0  0  0
 16 15  1  0  0  0  0
 17  9  2  0  0  0  0
 18 17  1  0  0  0  0
 19 21  1  0  0  0  0
 20 19  1  0  0  0  0
 22 19  1  0  0  0  0
 23  1  1  1  0  0  0
 23  7  1  0  0  0  0
 24  3  2  0  0  0  0
 24  4  1  0  0  0  0
 25 26  1  0  0  0  0
 25 28  1  0  0  0  0
 27 25  1  0  0  0  0
M  END
