6
q = -1.0, confidence = 0.0

 12 12  0  0  0  0  0  0  0  0999 V2000
   -5.2137   -0.1444   -0.1117 N   0  0  0  0  0  0  0  0  0  0  0  0
   -3.8387   -0.0820   -0.2459 C   0  0  0  0  0  0  0  0  0  0  0  0
   -3.2530   -1.1149    0.3666 N   0  0  0  0  0  0  0  0  0  0  0  0
   -4.2760   -1.8636    0.9052 C   0  0  0  0  0  0  0  0  0  0  0  0
   -5.5018   -1.2904    0.6201 C   0  0  0  0  0  0  0  0  0  0  0  0
   -3.0728    1.2304   -1.1386 S   0  0  0  0  0  1  0  0  0  0  0  0
   -6.1681    0.7892   -0.6708 C   0  0  0  0  0  0  0  0  0  0  0  0
   -4.0771   -2.7797    1.4764 H   0  0  0  0  0  0  0  0  0  0  0  0
   -6.5315   -1.5744    0.8615 H   0  0  0  0  0  0  0  0  0  0  0  0
   -7.0947    0.7831   -0.0657 H   0  0  0  0  0  0  0  0  0  0  0  0
   -5.7316    1.8072   -0.6566 H   0  0  0  0  0  0  0  0  0  0  0  0
   -6.4221    0.5372   -1.7225 H   0  0  0  0  0  0  0  0  0  0  0  0
  1  5  1  0  0  0  0
  2  1  1  0  0  0  0
  2  3  2  0  0  0  0
  3  4  1  0  0  0  0
  4  8  1  0  0  0  0
  5  9  1  0  0  0  0
  5  4  2  0  0  0  0
  6  2  1  0  0  0  0
  7 11  1  0  0  0  0
  7  1  1  0  0  0  0
  7 10  1  0  0  0  0
 12  7  1  0  0  0  0
M  END
