1
q = 0.0, confidence = 0.996

 27 27  0  0  1  0  0  0  0  0999 V2000
   -2.2675    0.8561   -1.7081 S   0  0  0  0  0  1  0  0  0  0  0  0
   -5.0840   -0.1371   -1.2724 C   0  0  0  0  0  0  0  0  0  0  0  0
   -4.6890    0.8199   -0.8864 H   0  0  0  0  0  0  0  0  0  0  0  0
   -5.8763   -0.5127   -0.5958 H   0  0  0  0  0  0  0  0  0  0  0  0
   -5.5221    0.0406   -2.2768 H   0  0  0  0  0  0  0  0  0  0  0  0
   -4.4226   -2.5285   -1.4002 C   0  0  0  0  0  0  0  0  0  0  0  0
   -3.7161   -3.1149   -2.0181 H   0  0  0  0  0  0  0  0  0  0  0  0
   -5.4183   -2.5844   -1.8777 H   0  0  0  0  0  0  0  0  0  0  0  0
   -4.4951   -2.9818   -0.3871 H   0  0  0  0  0  0  0  0  0  0  0  0
   -2.7072   -0.7648   -1.3578 C   0  0  1  0  0  3  0  0  0  0  0  0
    0.3063   -2.5618   -0.9458 C   0  0  0  0  0  0  0  0  0  0  0  0
   -0.1020   -3.4761   -0.4586 H   0  0  0  0  0  0  0  0  0  0  0  0
    1.7573   -2.4688   -1.0761 C   0  0  0  0  0  0  0  0  0  0  0  0
    2.3727   -1.4714   -1.8701 C   0  0  0  0  0  0  0  0  0  0  0  0
    1.7410   -0.7779   -2.4428 H   0  0  0  0  0  0  0  0  0  0  0  0
    3.7670   -1.3854   -1.9319 C   0  0  0  0  0  0  0  0  0  0  0  0
    4.2356   -0.6175   -2.5655 H   0  0  0  0  0  0  0  0  0  0  0  0
    4.5689   -2.2829   -1.2023 C   0  0  0  0  0  0  0  0  0  0  0  0
    5.6658   -2.2200   -1.2667 H   0  0  0  0  0  0  0  0  0  0  0  0
    3.9676   -3.2810   -0.4154 C   0  0  0  0  0  0  0  0  0  0  0  0
    4.5911   -4.0009    0.1361 H   0  0  0  0  0  0  0  0  0  0  0  0
    2.5699   -3.3794   -0.3595 C   0  0  0  0  0  0  0  0  0  0  0  0
    2.0977   -4.1738    0.2406 H   0  0  0  0  0  0  0  0  0  0  0  0
   -4.0099   -1.1271   -1.3358 N   0  0  0  0  0  0  0  0  0  0  0  0
   -1.7993   -1.7681   -1.1253 N   0  0  0  0  0  0  0  0  0  0  0  0
   -2.1200   -2.5919   -0.5898 H   0  0  0  0  0  0  0  0  0  0  0  0
   -0.4778   -1.6032   -1.3300 N   0  0  0  0  0  0  0  0  0  0  0  0
  2  3  1  0  0  0  0
  2  4  1  0  0  0  0
  5  2  1  0  0  0  0
  6 24  1  0  0  0  0
  6  9  1  0  0  0  0
  7  6  1  0  0  0  0
  8  6  1  0  0  0  0
 10  1  1  6  0  0  0
 10 24  1  0  0  0  0
 10 25  1  0  0  0  0
 11 12  1  0  0  0  0
 13 11  1  0  0  0  0
 13 22  1  0  0  0  0
 14 13  2  0  0  0  0
 15 14  1  0  0  0  0
 16 14  1  0  0  0  0
 16 18  2  0  0  0  0
 17 16  1  0  0  0  0
 18 20  1  0  0  0  0
 19 18  1  0  0  0  0
 20 22  2  0  0  0  0
 20 21  1  0  0  0  0
 22 23  1  0  0  0  0
 24  2  1  0  0  0  0
 25 26  1  0  0  0  0
 27 25  1  0  0  0  0
 27 11  2  0  0  0  0
M  END
