2
q = 0.0, confidence = 0.996

 36 37  0  0  0  0  0  0  0  0999 V2000
    0.6680   -1.4307   -1.8441 S   0  0  0  0  0  0  0  0  0  0  0  0
   -0.8458   -0.1157   -1.2821 S   0  0  0  0  0  0  0  0  0  0  0  0
    1.8307   -1.5032   -0.4027 C   0  0  0  0  0  0  0  0  0  0  0  0
    3.2383   -1.7520   -0.9631 C   0  0  0  0  0  0  0  0  0  0  0  0
    4.2653   -1.8049    0.1792 C   0  0  0  0  0  0  0  0  0  0  0  0
    3.8841   -2.8423    1.2425 C   0  0  0  0  0  0  0  0  0  0  0  0
    2.4687   -2.5945    1.7783 C   0  0  0  0  0  0  0  0  0  0  0  0
    1.4360   -2.5519    0.6412 C   0  0  0  0  0  0  0  0  0  0  0  0
   -1.9597   -1.0842   -0.1448 C   0  0  0  0  0  0  0  0  0  0  0  0
   -2.3917   -2.4068   -0.7780 C   0  0  0  0  0  0  0  0  0  0  0  0
   -3.3334   -3.1677    0.1670 C   0  0  0  0  0  0  0  0  0  0  0  0
   -4.5468   -2.3141    0.5562 C   0  0  0  0  0  0  0  0  0  0  0  0
   -4.1096   -0.9732    1.1566 C   0  0  0  0  0  0  0  0  0  0  0  0
   -3.1620   -0.2047    0.2209 C   0  0  0  0  0  0  0  0  0  0  0  0
    1.8056   -0.4929    0.0523 H   0  0  0  0  0  0  0  0  0  0  0  0
    3.4962   -0.9532   -1.6876 H   0  0  0  0  0  0  0  0  0  0  0  0
    3.2506   -2.7158   -1.5212 H   0  0  0  0  0  0  0  0  0  0  0  0
    4.3240   -0.7987    0.6512 H   0  0  0  0  0  0  0  0  0  0  0  0
    5.2735   -2.0165   -0.2337 H   0  0  0  0  0  0  0  0  0  0  0  0
    4.6204   -2.8309    2.0730 H   0  0  0  0  0  0  0  0  0  0  0  0
    3.9327   -3.8606    0.7948 H   0  0  0  0  0  0  0  0  0  0  0  0
    2.4416   -1.6235    2.3215 H   0  0  0  0  0  0  0  0  0  0  0  0
    2.1857   -3.3739    2.5161 H   0  0  0  0  0  0  0  0  0  0  0  0
    1.3705   -3.5467    0.1474 H   0  0  0  0  0  0  0  0  0  0  0  0
    0.4290   -2.3265    1.0450 H   0  0  0  0  0  0  0  0  0  0  0  0
   -1.3628   -1.2685    0.7736 H   0  0  0  0  0  0  0  0  0  0  0  0
   -1.4984   -3.0149   -1.0269 H   0  0  0  0  0  0  0  0  0  0  0  0
   -2.9115   -2.1920   -1.7379 H   0  0  0  0  0  0  0  0  0  0  0  0
   -2.7743   -3.4556    1.0857 H   0  0  0  0  0  0  0  0  0  0  0  0
   -3.6557   -4.1157   -0.3115 H   0  0  0  0  0  0  0  0  0  0  0  0
   -5.1963   -2.8635    1.2692 H   0  0  0  0  0  0  0  0  0  0  0  0
   -5.1651   -2.1252   -0.3499 H   0  0  0  0  0  0  0  0  0  0  0  0
   -3.5899   -1.1528    2.1242 H   0  0  0  0  0  0  0  0  0  0  0  0
   -4.9903   -0.3393    1.3891 H   0  0  0  0  0  0  0  0  0  0  0  0
   -3.6991    0.0873   -0.7086 H   0  0  0  0  0  0  0  0  0  0  0  0
   -2.8246    0.7323    0.7048 H   0  0  0  0  0  0  0  0  0  0  0  0
  1  2  1  0  0  0  0
  1  3  1  0  0  0  0
  2  9  1  0  0  0  0
  3 15  1  0  0  0  0
  3  8  1  0  0  0  0
  4  3  1  0  0  0  0
  4  5  1  0  0  0  0
  5 18  1  0  0  0  0
  5  6  1  0  0  0  0
  6  7  1  0  0  0  0
  6 20  1  0  0  0  0
  7 22  1  0  0  0  0
  7 23  1  0  0  0  0
  8 25  1  0  0  0  0
  8  7  1  0  0  0  0
  9 14  1  0  0  0  0
  9 26  1  0  0  0  0
 10  9  1  0  0  0  0
 10 11  1  0  0  0  0
 11 12  1  0  0  0  0
 11 29  1  0  0  0  0
 12 13  1  0  0  0  0
 12 31  1  0  0  0  0
 13 34  1  0  0  0  0
 13 33  1  0  0  0  0
 14 36  1  0  0  0  0
 14 13  1  0  0  0  0
 16  4  1  0  0  0  0
 17  4  1  0  0  0  0
 19  5  1  0  0  0  0
 21  6  1  0  0  0  0
 24  8  1  0  0  0  0
 27 10  1  0  0  0  0
 28 10  1  0  0  0  0
 30 11  1  0  0  0  0
 32 12  1  0  0  0  0
 35 14  1  0  0  0  0
M  END
