1
q = -1.0

 10  9  0  0  0  0  0  0  0  0999 V2000
    2.1814    0.7684   -0.9187 S   0  0  0  0  0  1  0  0  0  0  0  0
    3.1525   -0.3438    0.1797 C   0  0  0  0  0  0  0  0  0  0  0  0
    4.1576   -0.4082   -0.2858 H   0  0  0  0  0  0  0  0  0  0  0  0
    3.2925    0.1283    1.1770 H   0  0  0  0  0  0  0  0  0  0  0  0
    2.5924   -1.7587    0.3438 C   0  0  0  0  0  0  0  0  0  0  0  0
    2.4400   -2.1956   -0.6653 H   0  0  0  0  0  0  0  0  0  0  0  0
    3.3636   -2.3824    0.8606 H   0  0  0  0  0  0  0  0  0  0  0  0
    1.3040   -1.7563    1.0393 N   0  0  0  0  0  0  0  0  0  0  0  0
    1.4191   -1.5529    2.0405 H   0  0  0  0  0  0  0  0  0  0  0  0
    0.8315   -2.6644    0.9748 H   0  0  0  0  0  0  0  0  0  0  0  0
  1  2  1  0  0  0  0
  2  5  1  0  0  0  0
  2  4  1  0  0  0  0
  3  2  1  0  0  0  0
  5  7  1  0  0  0  0
  5  8  1  0  0  0  0
  6  5  1  0  0  0  0
  8  9  1  0  0  0  0
 10  8  1  0  0  0  0
M  END
