1
q = -1.0

 20 21  0  0  0  0  0  0  0  0999 V2000
   -0.1019   -2.4879    0.3730 S   0  0  0  0  0  1  0  0  0  0  0  0
   -3.6894    0.4318   -1.8120 O   0  0  0  0  0  0  0  0  0  0  0  0
   -5.0730    1.9345   -2.7443 O   0  0  0  0  0  0  0  0  0  0  0  0
   -1.7872   -1.9919    0.1145 C   0  0  0  0  0  0  0  0  0  0  0  0
   -2.7946   -2.5766    0.9194 C   0  0  0  0  0  0  0  0  0  0  0  0
   -2.5248   -3.3320    1.6711 H   0  0  0  0  0  0  0  0  0  0  0  0
   -4.1224   -2.1735    0.7658 C   0  0  0  0  0  0  0  0  0  0  0  0
   -4.8978   -2.6381    1.3911 H   0  0  0  0  0  0  0  0  0  0  0  0
   -4.4860   -1.1528   -0.1452 C   0  0  0  0  0  0  0  0  0  0  0  0
   -5.8412   -0.6485   -0.3176 C   0  0  0  0  0  0  0  0  0  0  0  0
   -6.0430    0.3744   -1.2095 C   0  0  0  0  0  0  0  0  0  0  0  0
   -7.0436    0.7976   -1.3769 H   0  0  0  0  0  0  0  0  0  0  0  0
   -4.9781    0.9989   -1.9849 C   0  0  0  0  0  0  0  0  0  0  0  0
   -3.4536   -0.5781   -0.9383 C   0  0  0  0  0  0  0  0  0  0  0  0
   -2.1306   -1.0252   -0.8424 C   0  0  0  0  0  0  0  0  0  0  0  0
   -1.3796   -0.5707   -1.4992 H   0  0  0  0  0  0  0  0  0  0  0  0
   -6.9734   -1.2409    0.4684 C   0  0  0  0  0  0  0  0  0  0  0  0
   -7.0708   -2.3282    0.2682 H   0  0  0  0  0  0  0  0  0  0  0  0
   -7.9342   -0.7552    0.2185 H   0  0  0  0  0  0  0  0  0  0  0  0
   -6.8024   -1.1307    1.5596 H   0  0  0  0  0  0  0  0  0  0  0  0
  2 14  1  0  0  0  0
  3 13  2  0  0  0  0
  4  1  1  0  0  0  0
  4  5  1  0  0  0  0
  5  6  1  0  0  0  0
  7  5  2  0  0  0  0
  7  8  1  0  0  0  0
  9  7  1  0  0  0  0
 10  9  1  0  0  0  0
 10 17  1  0  0  0  0
 11 10  2  0  0  0  0
 12 11  1  0  0  0  0
 13  2  1  0  0  0  0
 13 11  1  0  0  0  0
 14 15  1  0  0  0  0
 14  9  2  0  0  0  0
 15  4  2  0  0  0  0
 16 15  1  0  0  0  0
 17 20  1  0  0  0  0
 18 17  1  0  0  0  0
 19 17  1  0  0  0  0
M  END
