1
q = 0.0, confidence = 0.99

 14 13  0  0  0  0  0  0  0  0999 V2000
   -1.3236   -0.0396   -2.0780 S   0  0  0  0  0  1  0  0  0  0  0  0
   -2.8435    1.8079   -0.9177 N   0  0  0  0  0  0  0  0  0  0  0  0
   -2.1012    2.3775   -1.3297 H   0  0  0  0  0  0  0  0  0  0  0  0
   -3.5024   -0.3927   -0.5388 N   0  0  0  0  0  4  0  0  0  0  0  0
   -4.1680   -0.0653    0.1656 H   0  0  0  0  0  0  0  0  0  0  0  0
   -3.1671   -1.3726   -0.4157 H   0  0  0  0  0  0  0  0  0  0  0  0
   -2.6561    0.4853   -1.1048 C   0  0  0  0  0  0  0  0  0  0  0  0
   -3.6580    2.4066    0.1347 C   0  0  0  0  0  0  0  0  0  0  0  0
   -3.6389    1.7291    1.0175 H   0  0  0  0  0  0  0  0  0  0  0  0
   -4.7163    2.5063   -0.1987 H   0  0  0  0  0  0  0  0  0  0  0  0
   -3.0828    3.7569    0.5438 C   0  0  0  0  0  0  0  0  0  0  0  0
   -3.7025    4.2176    1.3369 H   0  0  0  0  0  0  0  0  0  0  0  0
   -3.0530    4.4612   -0.3133 H   0  0  0  0  0  0  0  0  0  0  0  0
   -2.0567    3.6159    0.9390 H   0  0  0  0  0  0  0  0  0  0  0  0
  1  7  1  0  0  0  0
  2  8  1  0  0  0  0
  3  2  1  0  0  0  0
  4  6  1  0  0  0  0
  4  5  1  0  0  0  0
  7  2  1  0  0  0  0
  7  4  2  0  0  0  0
  8 11  1  0  0  0  0
  8  9  1  0  0  0  0
 10  8  1  0  0  0  0
 11 14  1  0  0  0  0
 11 12  1  0  0  0  0
 13 11  1  0  0  0  0
M  END
