1
q = -1.0

 18 19  0  0  0  0  0  0  0  0999 V2000
    0.5500   -2.0201   -2.3418 S   0  0  0  0  0  1  0  0  0  0  0  0
    4.2502    3.7067   -1.9395 O   0  0  0  0  0  0  0  0  0  0  0  0
    5.0209    3.9582   -1.3974 H   0  0  0  0  0  0  0  0  0  0  0  0
    3.1617   -1.7602   -1.3377 N   0  0  0  0  0  0  0  0  0  0  0  0
    4.0658   -2.5510   -0.6810 N   0  0  0  0  0  0  0  0  0  0  0  0
    3.5120   -3.7162   -0.5466 N   0  0  0  0  0  0  0  0  0  0  0  0
    2.2718   -3.7456   -1.0817 N   0  0  0  0  0  0  0  0  0  0  0  0
    4.0470    2.3613   -1.8180 C   0  0  0  0  0  0  0  0  0  0  0  0
    2.9285    1.8036   -2.4633 C   0  0  0  0  0  0  0  0  0  0  0  0
    2.2687    2.4518   -3.0571 H   0  0  0  0  0  0  0  0  0  0  0  0
    2.6466    0.4408   -2.3449 C   0  0  0  0  0  0  0  0  0  0  0  0
    1.7619    0.0116   -2.8341 H   0  0  0  0  0  0  0  0  0  0  0  0
    3.4713   -0.3890   -1.5581 C   0  0  0  0  0  0  0  0  0  0  0  0
    4.6175    0.1569   -0.9447 C   0  0  0  0  0  0  0  0  0  0  0  0
    5.2676   -0.5010   -0.3547 H   0  0  0  0  0  0  0  0  0  0  0  0
    4.9017    1.5207   -1.0774 C   0  0  0  0  0  0  0  0  0  0  0  0
    5.7944    1.9415   -0.5855 H   0  0  0  0  0  0  0  0  0  0  0  0
    2.0237   -2.5214   -1.5829 C   0  0  0  0  0  0  0  0  0  0  0  0
  1 18  1  0  0  0  0
  2  8  1  0  0  0  0
  2  3  1  0  0  0  0
  4  5  1  0  0  0  0
  5  6  2  0  0  0  0
  7  6  1  0  0  0  0
  8 16  1  0  0  0  0
  9 11  1  0  0  0  0
  9  8  2  0  0  0  0
 10  9  1  0  0  0  0
 11 13  2  0  0  0  0
 12 11  1  0  0  0  0
 13  4  1  0  0  0  0
 13 14  1  0  0  0  0
 14 15  1  0  0  0  0
 16 14  2  0  0  0  0
 16 17  1  0  0  0  0
 18  4  1  0  0  0  0
 18  7  2  0  0  0  0
M  END
