1
q = -1.0, confidence = 0.0

 19 19  0  0  0  0  0  0  0  0999 V2000
    0.4944   -0.1275    3.1072 S   0  0  0  0  0  1  0  0  0  0  0  0
    2.7027    2.6810    1.4191 O   0  0  0  0  0  0  0  0  0  0  0  0
    3.2487    0.5308    2.0843 N   0  0  0  0  0  0  0  0  0  0  0  0
    2.7903   -0.2496    2.5878 H   0  0  0  0  0  0  0  0  0  0  0  0
    1.2408    1.5519    2.9861 C   0  0  0  0  0  0  0  0  0  0  0  0
    0.5072    2.3036    2.6403 H   0  0  0  0  0  0  0  0  0  0  0  0
    1.5619    1.8552    4.0067 H   0  0  0  0  0  0  0  0  0  0  0  0
    2.4612    1.6578    2.0629 C   0  0  0  0  0  0  0  0  0  0  0  0
    4.4334    0.2596    1.3960 C   0  0  0  0  0  0  0  0  0  0  0  0
    5.0991   -0.9572    1.6761 C   0  0  0  0  0  0  0  0  0  0  0  0
    4.6771   -1.6377    2.4322 H   0  0  0  0  0  0  0  0  0  0  0  0
    6.2822   -1.2920    1.0073 C   0  0  0  0  0  0  0  0  0  0  0  0
    6.7854   -2.2428    1.2424 H   0  0  0  0  0  0  0  0  0  0  0  0
    6.8279   -0.4210    0.0491 C   0  0  0  0  0  0  0  0  0  0  0  0
    7.7590   -0.6823   -0.4755 H   0  0  0  0  0  0  0  0  0  0  0  0
    6.1713    0.7904   -0.2231 C   0  0  0  0  0  0  0  0  0  0  0  0
    6.5891    1.4838   -0.9695 H   0  0  0  0  0  0  0  0  0  0  0  0
    4.9861    1.1413    0.4376 C   0  0  0  0  0  0  0  0  0  0  0  0
    4.4659    2.0848    0.2346 H   0  0  0  0  0  0  0  0  0  0  0  0
  2  8  2  0  0  0  0
  3  4  1  0  0  0  0
  5  1  1  0  0  0  0
  5  7  1  0  0  0  0
  6  5  1  0  0  0  0
  8  3  1  0  0  0  0
  8  5  1  0  0  0  0
  9 10  1  0  0  0  0
  9  3  1  0  0  0  0
 10 11  1  0  0  0  0
 12 13  1  0  0  0  0
 12 10  2  0  0  0  0
 14 12  1  0  0  0  0
 15 14  1  0  0  0  0
 16 14  2  0  0  0  0
 16 18  1  0  0  0  0
 17 16  1  0  0  0  0
 18  9  2  0  0  0  0
 19 18  1  0  0  0  0
M  END
