1
q = 0.0, confidence = 0.99

 10  9  0  0  0  0  0  0  0  0999 V2000
    0.3405    2.6247    1.1025 S   0  0  0  0  0  1  0  0  0  0  0  0
    2.5924    4.0577    1.3077 N   0  0  0  0  0  4  0  0  0  0  0  0
    3.4150    4.4843    0.8679 H   0  0  0  0  0  0  0  0  0  0  0  0
    2.3802    4.1298    2.2987 H   0  0  0  0  0  0  0  0  0  0  0  0
    2.0986    3.2912   -0.8019 N   0  0  0  0  0  0  0  0  0  0  0  0
    1.5077    2.7026   -1.4466 H   0  0  0  0  0  0  0  0  0  0  0  0
    3.3087    3.8541   -1.2269 N   0  0  0  0  0  0  0  0  0  0  0  0
    3.9472    3.0887   -1.5046 H   0  0  0  0  0  0  0  0  0  0  0  0
    3.1294    4.4249   -2.0641 H   0  0  0  0  0  0  0  0  0  0  0  0
    1.7660    3.3628    0.5015 C   0  0  0  0  0  0  0  0  0  0  0  0
  2  4  1  0  0  0  0
  3  2  1  0  0  0  0
  5 10  1  0  0  0  0
  6  5  1  0  0  0  0
  7  5  1  0  0  0  0
  8  7  1  0  0  0  0
  9  7  1  0  0  0  0
 10  1  1  0  0  0  0
 10  2  2  0  0  0  0
M  END
