1
q = 0.0, confidence = 1.0

 35 36  0  0  1  0  0  0  0  0999 V2000
   -1.6491   -1.2977   -0.7610 S   0  0  0  0  0  1  0  0  0  0  0  0
    2.2687    1.2609   -0.7910 N   0  0  0  0  0  0  0  0  0  0  0  0
   -0.4585    1.4559   -0.6177 N   0  0  0  0  0  2  0  0  0  0  0  0
   -1.7162    1.3213   -0.1433 N   0  0  0  0  0  0  0  0  0  0  0  0
   -2.1080    2.0660    0.4489 H   0  0  0  0  0  0  0  0  0  0  0  0
   -3.7456    0.2120    0.0007 N   0  0  0  0  0  0  0  0  0  0  0  0
   -0.1562    3.2450    0.9192 N   0  0  0  0  0  4  0  0  0  0  0  0
    0.5922    3.8496    1.2706 H   0  0  0  0  0  0  0  0  0  0  0  0
   -0.4843    2.6615    1.7127 H   0  0  0  0  0  0  0  0  0  0  0  0
    3.5344    1.2105   -1.2213 C   0  0  0  0  0  0  0  0  0  0  0  0
    3.9473    0.1938   -1.3529 H   0  0  0  0  0  0  0  0  0  0  0  0
    4.2922    2.3674   -1.4735 C   0  0  0  0  0  0  0  0  0  0  0  0
    5.3314    2.2844   -1.8235 H   0  0  0  0  0  0  0  0  0  0  0  0
    3.6935    3.6168   -1.2586 C   0  0  0  0  0  0  0  0  0  0  0  0
    4.2528    4.5461   -1.4453 H   0  0  0  0  0  0  0  0  0  0  0  0
    2.3655    3.6702   -0.8104 C   0  0  0  0  0  0  0  0  0  0  0  0
    1.8598    4.6358   -0.6570 H   0  0  0  0  0  0  0  0  0  0  0  0
    1.6807    2.4583   -0.5967 C   0  0  0  0  0  0  0  0  0  0  0  0
    0.2775    2.3963   -0.1015 C   0  0  0  0  0  0  0  0  0  0  0  0
   -2.4093    0.1437   -0.2803 C   0  0  2  0  0  3  0  0  0  0  0  0
   -4.5504    1.4329   -0.1203 C   0  0  0  0  0  0  0  0  0  0  0  0
   -3.8958    2.3079   -0.2850 H   0  0  0  0  0  0  0  0  0  0  0  0
   -5.0941    1.5967    0.8378 H   0  0  0  0  0  0  0  0  0  0  0  0
   -5.5492    1.3072   -1.2830 C   0  0  0  0  0  0  0  0  0  0  0  0
   -4.9744    1.2792   -2.2339 H   0  0  0  0  0  0  0  0  0  0  0  0
   -6.1819    2.2186   -1.3134 H   0  0  0  0  0  0  0  0  0  0  0  0
   -6.4074    0.0429   -1.1578 C   0  0  0  0  0  0  0  0  0  0  0  0
   -7.0804    0.1429   -0.2763 H   0  0  0  0  0  0  0  0  0  0  0  0
   -7.0661   -0.0641   -2.0439 H   0  0  0  0  0  0  0  0  0  0  0  0
   -5.5236   -1.1981   -0.9796 C   0  0  0  0  0  0  0  0  0  0  0  0
   -4.9324   -1.3902   -1.9008 H   0  0  0  0  0  0  0  0  0  0  0  0
   -6.1397   -2.1018   -0.7940 H   0  0  0  0  0  0  0  0  0  0  0  0
   -4.5503   -0.9991    0.1848 C   0  0  0  0  0  0  0  0  0  0  0  0
   -5.1154   -0.8802    1.1379 H   0  0  0  0  0  0  0  0  0  0  0  0
   -3.8544   -1.8518    0.2900 H   0  0  0  0  0  0  0  0  0  0  0  0
  2 18  1  0  0  0  0
  3  4  1  0  0  0  0
  3 19  1  0  0  0  0
  4  5  1  0  0  0  0
  6 33  1  0  0  0  0
  7  8  1  0  0  0  0
  7  9  1  0  0  0  0
 10  2  2  0  0  0  0
 11 10  1  0  0  0  0
 12 14  2  0  0  0  0
 12 10  1  0  0  0  0
 13 12  1  0  0  0  0
 14 16  1  0  0  0  0
 15 14  1  0  0  0  0
 16 17  1  0  0  0  0
 16 18  2  0  0  0  0
 18 19  1  0  0  0  0
 19  7  2  0  0  0  0
 20  1  1  1  0  0  0
 20  4  1  0  0  0  0
 20  6  1  0  0  0  0
 21  6  1  0  0  0  0
 21 23  1  0  0  0  0
 22 21  1  0  0  0  0
 24 27  1  0  0  0  0
 24 21  1  0  0  0  0
 25 24  1  0  0  0  0
 26 24  1  0  0  0  0
 27 30  1  0  0  0  0
 27 28  1  0  0  0  0
 29 27  1  0  0  0  0
 30 32  1  0  0  0  0
 30 33  1  0  0  0  0
 31 30  1  0  0  0  0
 33 35  1  0  0  0  0
 33 34  1  0  0  0  0
M  END
