3
q = 0.0, confidence = 0.888

  3  2  0  0  0  0  0  0  0  0999 V2000
   -2.4956    0.9893    3.1978 O   0  0  0  0  0  0  0  0  0  0  0  0
   -2.1375   -1.5142    3.3140 O   0  0  0  0  0  0  0  0  0  0  0  0
   -1.6994   -0.1984    2.7509 S   0  0  0  0  0  0  0  0  0  0  0  0
  3  1  1  0  0  0  0
  3  2  2  0  0  0  0
M  END
