1
q = -1.0

 16 16  0  0  0  0  0  0  0  0999 V2000
    2.1523   -1.3338   -0.6660 S   0  0  0  0  0  1  0  0  0  0  0  0
    1.9309    0.3904    1.5038 N   0  0  0  0  0  0  0  0  0  0  0  0
    2.7075    1.3444    2.0766 N   0  0  0  0  0  0  0  0  0  0  0  0
    3.8462    1.4590    1.4628 N   0  0  0  0  0  0  0  0  0  0  0  0
    3.8241    0.5616    0.4430 N   0  0  0  0  0  0  0  0  0  0  0  0
    2.6299   -0.1088    0.4647 C   0  0  0  0  0  0  0  0  0  0  0  0
    4.9551    0.4052   -0.4753 C   0  0  0  0  0  0  0  0  0  0  0  0
    4.5674   -0.2815   -1.2586 H   0  0  0  0  0  0  0  0  0  0  0  0
    5.3120    1.7531   -1.1051 C   0  0  0  0  0  0  0  0  0  0  0  0
    4.4408    2.1856   -1.6363 H   0  0  0  0  0  0  0  0  0  0  0  0
    6.1363    1.6259   -1.8341 H   0  0  0  0  0  0  0  0  0  0  0  0
    5.6330    2.4725   -0.3267 H   0  0  0  0  0  0  0  0  0  0  0  0
    6.1319   -0.2576    0.2450 C   0  0  0  0  0  0  0  0  0  0  0  0
    5.8353   -1.2405    0.6609 H   0  0  0  0  0  0  0  0  0  0  0  0
    6.4839    0.3837    1.0775 H   0  0  0  0  0  0  0  0  0  0  0  0
    6.9729   -0.4170   -0.4583 H   0  0  0  0  0  0  0  0  0  0  0  0
  1  6  1  0  0  0  0
  2  3  1  0  0  0  0
  4  3  2  0  0  0  0
  5  6  1  0  0  0  0
  5  4  1  0  0  0  0
  6  2  2  0  0  0  0
  7 13  1  0  0  0  0
  7  5  1  0  0  0  0
  8  7  1  0  0  0  0
  9  7  1  0  0  0  0
  9 12  1  0  0  0  0
 10  9  1  0  0  0  0
 11  9  1  0  0  0  0
 13 14  1  0  0  0  0
 13 15  1  0  0  0  0
 16 13  1  0  0  0  0
M  END
