1
q = 0.0, confidence = 0.994

 60 61  0  0  1  0  0  0  0  0999 V2000
   -1.3929    1.1327   -0.6475 S   0  0  0  0  0  1  0  0  0  0  0  0
    0.1541   -1.3254   -1.5767 S   0  0  0  0  0  0  0  0  0  0  0  0
    1.4663    1.2907   -1.8592 P   0  0  2  0  0  0  0  0  0  0  0  0
    4.3467   -1.3554   -0.7212 N   0  0  0  0  0  0  0  0  0  0  0  0
    2.1827    0.2284    1.9638 N   0  0  0  0  0  0  0  0  0  0  0  0
    2.5328    0.5113   -0.5930 C   0  0  2  0  0  3  0  0  0  0  0  0
    3.4511   -0.4849   -0.2828 C   0  0  0  0  0  0  0  0  0  0  0  0
    2.6498    0.1014    0.7364 C   0  0  0  0  0  0  0  0  0  0  0  0
    4.6760   -1.3967   -2.1789 C   0  0  0  0  0  0  0  0  0  0  0  0
    5.5815   -2.0348   -2.2352 H   0  0  0  0  0  0  0  0  0  0  0  0
    3.5549   -2.0538   -2.9864 C   0  0  0  0  0  0  0  0  0  0  0  0
    2.5967   -1.5049   -2.8719 H   0  0  0  0  0  0  0  0  0  0  0  0
    3.3774   -3.0959   -2.6577 H   0  0  0  0  0  0  0  0  0  0  0  0
    3.8266   -2.0716   -4.0604 H   0  0  0  0  0  0  0  0  0  0  0  0
    5.0496   -0.0084   -2.7045 C   0  0  0  0  0  0  0  0  0  0  0  0
    5.8251    0.4692   -2.0732 H   0  0  0  0  0  0  0  0  0  0  0  0
    4.1662    0.6595   -2.7558 H   0  0  0  0  0  0  0  0  0  0  0  0
    5.4495   -0.0999   -3.7332 H   0  0  0  0  0  0  0  0  0  0  0  0
    5.0427   -2.2778    0.2046 C   0  0  0  0  0  0  0  0  0  0  0  0
    4.5787   -2.0887    1.1909 H   0  0  0  0  0  0  0  0  0  0  0  0
    6.5328   -1.9397    0.3145 C   0  0  0  0  0  0  0  0  0  0  0  0
    7.0676   -2.1103   -0.6417 H   0  0  0  0  0  0  0  0  0  0  0  0
    7.0114   -2.5821    1.0799 H   0  0  0  0  0  0  0  0  0  0  0  0
    6.6809   -0.8816    0.6086 H   0  0  0  0  0  0  0  0  0  0  0  0
    4.7811   -3.7426   -0.1547 C   0  0  0  0  0  0  0  0  0  0  0  0
    3.6944   -3.9520   -0.2014 H   0  0  0  0  0  0  0  0  0  0  0  0
    5.2302   -4.4022    0.6138 H   0  0  0  0  0  0  0  0  0  0  0  0
    5.2302   -4.0168   -1.1304 H   0  0  0  0  0  0  0  0  0  0  0  0
    1.1616    1.2906    2.2293 C   0  0  0  0  0  0  0  0  0  0  0  0
    0.9228    1.7123    1.2334 H   0  0  0  0  0  0  0  0  0  0  0  0
    1.7620    2.3964    3.0998 C   0  0  0  0  0  0  0  0  0  0  0  0
    2.6841    2.8108    2.6477 H   0  0  0  0  0  0  0  0  0  0  0  0
    1.9963    2.0371    4.1235 H   0  0  0  0  0  0  0  0  0  0  0  0
    1.0326    3.2241    3.1959 H   0  0  0  0  0  0  0  0  0  0  0  0
   -0.1258    0.7097    2.8045 C   0  0  0  0  0  0  0  0  0  0  0  0
   -0.8820    1.5126    2.8915 H   0  0  0  0  0  0  0  0  0  0  0  0
    0.0140    0.2774    3.8166 H   0  0  0  0  0  0  0  0  0  0  0  0
   -0.5460   -0.0617    2.1354 H   0  0  0  0  0  0  0  0  0  0  0  0
    2.6216   -0.6460    3.0791 C   0  0  0  0  0  0  0  0  0  0  0  0
    2.0325   -0.2976    3.9497 H   0  0  0  0  0  0  0  0  0  0  0  0
    4.1004   -0.4304    3.4143 C   0  0  0  0  0  0  0  0  0  0  0  0
    4.7617   -0.6852    2.5625 H   0  0  0  0  0  0  0  0  0  0  0  0
    4.3970   -1.0668    4.2713 H   0  0  0  0  0  0  0  0  0  0  0  0
    4.2931    0.6262    3.6844 H   0  0  0  0  0  0  0  0  0  0  0  0
    2.2277   -2.1023    2.8128 C   0  0  0  0  0  0  0  0  0  0  0  0
    2.4816   -2.7363    3.6851 H   0  0  0  0  0  0  0  0  0  0  0  0
    2.7546   -2.5158    1.9296 H   0  0  0  0  0  0  0  0  0  0  0  0
    1.1418   -2.1913    2.6151 H   0  0  0  0  0  0  0  0  0  0  0  0
    1.3659    2.9903   -1.1306 C   0  0  0  0  0  0  0  0  0  0  0  0
    0.2964    3.8260   -1.5221 C   0  0  0  0  0  0  0  0  0  0  0  0
   -0.4909    3.4352   -2.1837 H   0  0  0  0  0  0  0  0  0  0  0  0
    0.2177    5.1447   -1.0531 C   0  0  0  0  0  0  0  0  0  0  0  0
   -0.6313    5.7769   -1.3541 H   0  0  0  0  0  0  0  0  0  0  0  0
    1.2131    5.6582   -0.2058 C   0  0  0  0  0  0  0  0  0  0  0  0
    1.1486    6.6943    0.1596 H   0  0  0  0  0  0  0  0  0  0  0  0
    2.2956    4.8454    0.1644 C   0  0  0  0  0  0  0  0  0  0  0  0
    3.0874    5.2425    0.8186 H   0  0  0  0  0  0  0  0  0  0  0  0
    2.3723    3.5219   -0.2961 C   0  0  0  0  0  0  0  0  0  0  0  0
    3.2292    2.8954   -0.0012 H   0  0  0  0  0  0  0  0  0  0  0  0
   -0.0535    0.3144   -1.2970 C   0  0  0  0  0  0  0  0  0  0  0  0
  2 60  2  0  0  0  0
  3 60  1  1  0  0  0
  3 49  1  0  0  0  0
  4  7  1  0  0  0  0
  4 19  1  0  0  0  0
  5 29  1  0  0  0  0
  5 39  1  0  0  0  0
  6  3  1  6  0  0  0
  6  7  1  0  0  0  0
  6  8  1  0  0  0  0
  7  8  2  0  0  0  0
  8  5  1  0  0  0  0
  9  4  1  0  0  0  0
 10  9  1  0  0  0  0
 11 12  1  0  0  0  0
 11 13  1  0  0  0  0
 11  9  1  0  0  0  0
 14 11  1  0  0  0  0
 15  9  1  0  0  0  0
 15 16  1  0  0  0  0
 17 15  1  0  0  0  0
 18 15  1  0  0  0  0
 19 21  1  0  0  0  0
 19 20  1  0  0  0  0
 21 24  1  0  0  0  0
 21 23  1  0  0  0  0
 22 21  1  0  0  0  0
 25 19  1  0  0  0  0
 25 27  1  0  0  0  0
 26 25  1  0  0  0  0
 28 25  1  0  0  0  0
 29 35  1  0  0  0  0
 29 31  1  0  0  0  0
 30 29  1  0  0  0  0
 31 34  1  0  0  0  0
 31 33  1  0  0  0  0
 32 31  1  0  0  0  0
 35 36  1  0  0  0  0
 35 37  1  0  0  0  0
 38 35  1  0  0  0  0
 39 41  1  0  0  0  0
 39 40  1  0  0  0  0
 41 44  1  0  0  0  0
 41 43  1  0  0  0  0
 42 41  1  0  0  0  0
 45 39  1  0  0  0  0
 45 46  1  0  0  0  0
 47 45  1  0  0  0  0
 48 45  1  0  0  0  0
 49 58  1  0  0  0  0
 50 49  2  0  0  0  0
 50 52  1  0  0  0  0
 51 50  1  0  0  0  0
 52 54  2  0  0  0  0
 53 52  1  0  0  0  0
 54 55  1  0  0  0  0
 54 56  1  0  0  0  0
 56 57  1  0  0  0  0
 58 59  1  0  0  0  0
 58 56  2  0  0  0  0
 60  1  1  0  0  0  0
M  END
