1
q = -1.0

 17 17  0  0  0  0  0  0  0  0999 V2000
    0.1830   -1.3730   -0.0713 S   0  0  0  0  0  1  0  0  0  0  0  0
    0.4940    1.6295    0.0569 S   0  0  0  0  0  0  0  0  0  0  0  0
    3.4659    2.1187   -0.0369 N   0  0  0  0  0  0  0  0  0  0  0  0
    2.4858    2.4737   -0.0031 H   0  0  0  0  0  0  0  0  0  0  0  0
    4.2730    2.7400   -0.0530 H   0  0  0  0  0  0  0  0  0  0  0  0
    1.1998    0.0663   -0.0076 C   0  0  0  0  0  0  0  0  0  0  0  0
    2.6044   -0.1815   -0.0180 C   0  0  0  0  0  0  0  0  0  0  0  0
    3.6209    0.7895   -0.0423 C   0  0  0  0  0  0  0  0  0  0  0  0
    4.9823    0.1412   -0.1346 C   0  0  0  0  0  0  0  0  0  0  0  0
    5.7478    0.6661    0.4750 H   0  0  0  0  0  0  0  0  0  0  0  0
    5.3276    0.1903   -1.1934 H   0  0  0  0  0  0  0  0  0  0  0  0
    4.7123   -1.3093    0.3058 C   0  0  0  0  0  0  0  0  0  0  0  0
    5.4151   -2.0354   -0.1469 H   0  0  0  0  0  0  0  0  0  0  0  0
    4.8247   -1.3802    1.4074 H   0  0  0  0  0  0  0  0  0  0  0  0
    3.2388   -1.5635   -0.0755 C   0  0  0  0  0  0  0  0  0  0  0  0
    2.7390   -2.2850    0.6024 H   0  0  0  0  0  0  0  0  0  0  0  0
    3.1492   -1.9921   -1.1004 H   0  0  0  0  0  0  0  0  0  0  0  0
  1  6  1  0  0  0  0
  3  4  1  0  0  0  0
  5  3  1  0  0  0  0
  6  2  2  0  0  0  0
  7  6  1  0  0  0  0
  8  3  1  0  0  0  0
  8  7  2  0  0  0  0
  9  8  1  0  0  0  0
  9 12  1  0  0  0  0
  9 10  1  0  0  0  0
 11  9  1  0  0  0  0
 12 14  1  0  0  0  0
 13 12  1  0  0  0  0
 15  7  1  0  0  0  0
 15 12  1  0  0  0  0
 15 16  1  0  0  0  0
 17 15  1  0  0  0  0
M  END
