1
q = -1.0

 23 24  0  0  0  0  0  0  0  0999 V2000
   -0.4552   -1.1776    1.4678 S   0  0  0  0  0  0  0  0  0  0  0  0
    2.3926   -0.3495   -0.0832 S   0  0  0  0  0  0  0  0  0  0  0  0
    0.8431   -0.2028    2.2221 C   0  0  0  0  0  0  0  0  0  0  0  0
    2.0868    0.0850    1.6119 C   0  0  0  0  0  0  0  0  0  0  0  0
    3.0407    0.8410    2.3118 C   0  0  0  0  0  0  0  0  0  0  0  0
    4.2175    1.1457    1.7551 F   0  0  0  0  0  0  0  0  0  0  0  0
    2.7849    1.2991    3.6163 C   0  0  0  0  0  0  0  0  0  0  0  0
    3.6958    2.0200    4.2698 F   0  0  0  0  0  0  0  0  0  0  0  0
    1.5460    1.0257    4.2177 C   0  0  0  0  0  0  0  0  0  0  0  0
    1.2860    1.4800    5.4445 F   0  0  0  0  0  0  0  0  0  0  0  0
    0.5910    0.2674    3.5225 C   0  0  0  0  0  0  0  0  0  0  0  0
   -0.5880    0.0450    4.1201 F   0  0  0  0  0  0  0  0  0  0  0  0
    3.7981   -1.4290    0.1322 C   0  0  0  0  0  0  0  0  0  0  0  0
    3.7043   -2.6204    0.8783 C   0  0  0  0  0  0  0  0  0  0  0  0
    2.5666   -2.9330    1.5067 F   0  0  0  0  0  0  0  0  0  0  0  0
    4.7976   -3.4917    0.9968 C   0  0  0  0  0  0  0  0  0  0  0  0
    4.7023   -4.6141    1.7159 F   0  0  0  0  0  0  0  0  0  0  0  0
    5.9957   -3.1940    0.3222 C   0  0  0  0  0  0  0  0  0  0  0  0
    7.0333   -4.0261    0.4147 F   0  0  0  0  0  0  0  0  0  0  0  0
    6.1059   -2.0175   -0.4388 C   0  0  0  0  0  0  0  0  0  0  0  0
    7.2508   -1.7377   -1.0660 F   0  0  0  0  0  0  0  0  0  0  0  0
    5.0086   -1.1458   -0.5283 C   0  0  0  0  0  0  0  0  0  0  0  0
    5.1437   -0.0288   -1.2484 F   0  0  0  0  0  0  0  0  0  0  0  0
  1  3  1  0  0  0  0
  2 13  1  0  0  0  0
  2  4  1  0  0  0  0
  3 11  1  0  0  0  0
  4  3  2  0  0  0  0
  4  5  1  0  0  0  0
  5  7  2  0  0  0  0
  6  5  1  0  0  0  0
  7  9  1  0  0  0  0
  7  8  1  0  0  0  0
  9 10  1  0  0  0  0
 11 12  1  0  0  0  0
 11  9  2  0  0  0  0
 13 14  1  0  0  0  0
 14 16  2  0  0  0  0
 14 15  1  0  0  0  0
 16 17  1  0  0  0  0
 18 19  1  0  0  0  0
 18 16  1  0  0  0  0
 20 18  2  0  0  0  0
 21 20  1  0  0  0  0
 22 20  1  0  0  0  0
 22 13  2  0  0  0  0
 23 22  1  0  0  0  0
M  END
