1
q = -2.0, confidence = 0.872

 18 18  0  0  0  0  0  0  0  0999 V2000
    2.0088   -2.1067   -0.6612 S   0  0  0  0  0  1  0  0  0  0  0  0
    3.1735    1.4338   -1.4479 O   0  5  0  0  0  0  0  0  0  0  0  0
    1.5709    0.9760    0.0753 O   0  0  0  0  0  0  0  0  0  0  0  0
    2.5970    0.6851   -0.6300 C   0  0  0  0  0  0  0  0  0  0  0  0
    3.1455   -0.7451   -0.4393 C   0  0  0  0  0  0  0  0  0  0  0  0
    4.4347   -1.1001   -0.1140 C   0  0  0  0  0  0  0  0  0  0  0  0
    4.5776   -2.1814    0.0701 H   0  0  0  0  0  0  0  0  0  0  0  0
    5.6575   -0.3281    0.0971 C   0  0  0  0  0  0  0  0  0  0  0  0
    6.7586   -0.9969    0.7050 C   0  0  0  0  0  0  0  0  0  0  0  0
    6.6363   -2.0552    0.9900 H   0  0  0  0  0  0  0  0  0  0  0  0
    7.9740   -0.3497    0.9547 C   0  0  0  0  0  0  0  0  0  0  0  0
    8.7989   -0.9035    1.4331 H   0  0  0  0  0  0  0  0  0  0  0  0
    8.1432    0.9993    0.5971 C   0  0  0  0  0  0  0  0  0  0  0  0
    9.0976    1.5150    0.7903 H   0  0  0  0  0  0  0  0  0  0  0  0
    7.0736    1.6732   -0.0206 C   0  0  0  0  0  0  0  0  0  0  0  0
    7.1945    2.7269   -0.3229 H   0  0  0  0  0  0  0  0  0  0  0  0
    5.8544    1.0326   -0.2728 C   0  0  0  0  0  0  0  0  0  0  0  0
    5.0287    1.5493   -0.7874 H   0  0  0  0  0  0  0  0  0  0  0  0
  1  5  1  0  0  0  0
  2  4  1  0  0  0  0
  4  5  1  0  0  0  0
  4  3  2  0  0  0  0
  5  6  2  0  0  0  0
  6  7  1  0  0  0  0
  6  8  1  0  0  0  0
  8  9  1  0  0  0  0
  9 11  2  0  0  0  0
  9 10  1  0  0  0  0
 11 12  1  0  0  0  0
 13 14  1  0  0  0  0
 13 11  1  0  0  0  0
 15 13  2  0  0  0  0
 16 15  1  0  0  0  0
 17 15  1  0  0  0  0
 17  8  2  0  0  0  0
 18 17  1  0  0  0  0
M  CHG  1   2  -1
M  END
