1
q = 0.0, confidence = 0.998

 20 21  0  0  1  0  0  0  0  0999 V2000
   -0.4116    0.3347    2.7558 S   0  0  0  0  0  1  0  0  0  0  0  0
   -0.5731   -2.4019    2.4955 N   0  0  0  0  0  0  0  0  0  0  0  0
    0.4254   -2.5080    2.6888 H   0  0  0  0  0  0  0  0  0  0  0  0
   -2.4929   -1.4257    2.1856 N   0  0  0  0  0  0  0  0  0  0  0  0
   -1.1753   -1.1781    2.4913 C   0  0  2  0  0  3  0  0  0  0  0  0
   -1.4699   -3.4030    2.1686 C   0  0  0  0  0  0  0  0  0  0  0  0
   -1.1890   -4.4570    2.1110 H   0  0  0  0  0  0  0  0  0  0  0  0
   -2.6793   -2.7898    1.9736 C   0  0  0  0  0  0  0  0  0  0  0  0
   -3.6568   -3.2041    1.7158 H   0  0  0  0  0  0  0  0  0  0  0  0
   -3.4972   -0.4233    1.9869 C   0  0  0  0  0  0  0  0  0  0  0  0
   -4.2328   -0.4293    0.7899 C   0  0  0  0  0  0  0  0  0  0  0  0
   -4.0118   -1.1832    0.0217 H   0  0  0  0  0  0  0  0  0  0  0  0
   -5.2107    0.5540    0.5830 C   0  0  0  0  0  0  0  0  0  0  0  0
   -5.7852    0.5596   -0.3549 H   0  0  0  0  0  0  0  0  0  0  0  0
   -5.4457    1.5334    1.5605 C   0  0  0  0  0  0  0  0  0  0  0  0
   -6.2099    2.3064    1.3921 H   0  0  0  0  0  0  0  0  0  0  0  0
   -4.7072    1.5247    2.7550 C   0  0  0  0  0  0  0  0  0  0  0  0
   -4.8993    2.2820    3.5296 H   0  0  0  0  0  0  0  0  0  0  0  0
   -3.7287    0.5458    2.9769 C   0  0  0  0  0  0  0  0  0  0  0  0
   -3.1498    0.5288    3.9100 H   0  0  0  0  0  0  0  0  0  0  0  0
  2  3  1  0  0  0  0
  4  5  1  0  0  0  0
  5  2  1  0  0  0  0
  5  1  1  6  0  0  0
  6  2  1  0  0  0  0
  7  6  1  0  0  0  0
  8  6  2  0  0  0  0
  8  4  1  0  0  0  0
  9  8  1  0  0  0  0
 10  4  1  0  0  0  0
 10 19  1  0  0  0  0
 11 10  2  0  0  0  0
 12 11  1  0  0  0  0
 13 11  1  0  0  0  0
 13 15  2  0  0  0  0
 14 13  1  0  0  0  0
 15 17  1  0  0  0  0
 16 15  1  0  0  0  0
 17 19  2  0  0  0  0
 17 18  1  0  0  0  0
 19 20  1  0  0  0  0
M  END
