1
q = -1.0

 14 14  0  0  0  0  0  0  0  0999 V2000
    0.9168    1.2275   -2.4063 S   0  0  0  0  0  1  0  0  0  0  0  0
   -1.3396    5.7867    0.1023 F   0  0  0  0  0  0  0  0  0  0  0  0
   -2.4062    5.7941   -1.7963 F   0  0  0  0  0  0  0  0  0  0  0  0
   -3.3822    5.0121    0.0012 F   0  0  0  0  0  0  0  0  0  0  0  0
   -1.5081    1.5713   -1.1393 N   0  0  0  0  0  0  0  0  0  0  0  0
   -2.3005    2.5722   -0.6655 N   0  0  0  0  0  0  0  0  0  0  0  0
   -0.5153    3.4698   -1.6426 N   0  0  0  0  0  0  0  0  0  0  0  0
   -0.4080    2.0887   -1.7251 C   0  0  0  0  0  0  0  0  0  0  0  0
   -1.6957    3.7042   -0.9693 C   0  0  0  0  0  0  0  0  0  0  0  0
   -2.2200    5.0729   -0.6567 C   0  0  0  0  0  0  0  0  0  0  0  0
    0.4507    4.4352   -2.1281 C   0  0  0  0  0  0  0  0  0  0  0  0
    1.3627    3.8708   -2.4039 H   0  0  0  0  0  0  0  0  0  0  0  0
    0.6808    5.1682   -1.3326 H   0  0  0  0  0  0  0  0  0  0  0  0
    0.0618    4.9687   -3.0177 H   0  0  0  0  0  0  0  0  0  0  0  0
  1  8  1  0  0  0  0
  3 10  1  0  0  0  0
  5  6  1  0  0  0  0
  7  9  1  0  0  0  0
  8  7  1  0  0  0  0
  8  5  2  0  0  0  0
  9  6  2  0  0  0  0
  9 10  1  0  0  0  0
 10  4  1  0  0  0  0
 10  2  1  0  0  0  0
 11  7  1  0  0  0  0
 11 13  1  0  0  0  0
 12 11  1  0  0  0  0
 14 11  1  0  0  0  0
M  END
