1
q = 0.0, confidence = 1.0

 24 25  0  0  1  0  0  0  0  0999 V2000
    0.8537   -1.8378   -2.3120 S   0  0  0  0  0  1  0  0  0  0  0  0
   -3.6804   -1.3964    0.0608 S   0  0  0  0  0  0  0  0  0  0  0  0
   -0.9594    2.7647   -1.2620 O   0  0  0  0  0  0  0  0  0  0  0  0
   -0.1221    0.6609   -1.7574 N   0  0  0  0  0  0  0  0  0  0  0  0
   -1.2199    0.0268   -1.2087 N   0  0  0  0  0  0  0  0  0  0  0  0
    2.2947    1.8494   -2.4161 N   0  0  0  0  0  0  0  0  0  0  0  0
    2.0604    0.5321   -2.5011 N   0  0  0  0  0  0  0  0  0  0  0  0
    2.8541   -0.0417   -2.8071 H   0  0  0  0  0  0  0  0  0  0  0  0
    0.9213   -0.1431   -2.1724 C   0  0  2  0  0  3  0  0  0  0  0  0
   -0.0109    2.0930   -1.6386 C   0  0  0  0  0  0  0  0  0  0  0  0
    1.3237    2.6174   -1.9889 C   0  0  0  0  0  0  0  0  0  0  0  0
    1.5512    4.0806   -1.8243 C   0  0  0  0  0  0  0  0  0  0  0  0
    2.5657    4.3489   -2.1669 H   0  0  0  0  0  0  0  0  0  0  0  0
    1.4327    4.3459   -0.7529 H   0  0  0  0  0  0  0  0  0  0  0  0
    0.7924    4.6616   -2.3861 H   0  0  0  0  0  0  0  0  0  0  0  0
   -2.3872    0.4065   -1.6565 C   0  0  0  0  0  0  0  0  0  0  0  0
   -2.4825    1.1415   -2.4775 H   0  0  0  0  0  0  0  0  0  0  0  0
   -3.6137   -0.1320   -1.1527 C   0  0  0  0  0  0  0  0  0  0  0  0
   -4.8995    0.2280   -1.5727 C   0  0  0  0  0  0  0  0  0  0  0  0
   -5.0789    1.0000   -2.3342 H   0  0  0  0  0  0  0  0  0  0  0  0
   -5.9192   -0.5044   -0.9167 C   0  0  0  0  0  0  0  0  0  0  0  0
   -6.9940   -0.3763   -1.1009 H   0  0  0  0  0  0  0  0  0  0  0  0
   -5.4048   -1.4191   -0.0087 C   0  0  0  0  0  0  0  0  0  0  0  0
   -5.9607   -2.1223    0.6255 H   0  0  0  0  0  0  0  0  0  0  0  0
  4 10  1  0  0  0  0
  4  5  1  0  0  0  0
  6 11  2  0  0  0  0
  7  6  1  0  0  0  0
  7  9  1  0  0  0  0
  8  7  1  0  0  0  0
  9  1  1  6  0  0  0
  9  4  1  0  0  0  0
 10  3  2  0  0  0  0
 11 12  1  0  0  0  0
 11 10  1  0  0  0  0
 12 14  1  0  0  0  0
 13 12  1  0  0  0  0
 15 12  1  0  0  0  0
 16  5  2  0  0  0  0
 16 18  1  0  0  0  0
 17 16  1  0  0  0  0
 18  2  1  0  0  0  0
 19 18  2  0  0  0  0
 19 21  1  0  0  0  0
 20 19  1  0  0  0  0
 21 23  2  0  0  0  0
 22 21  1  0  0  0  0
 23  2  1  0  0  0  0
 23 24  1  0  0  0  0
M  END
