1
q = 0.0, confidence = 0.998

 18 18  0  0  0  0  0  0  0  0999 V2000
   -1.2394    0.2375   -1.9741 S   0  0  0  0  0  1  0  0  0  0  0  0
   -2.4499   -0.9846   -1.8542 C   0  0  0  0  0  0  0  0  0  0  0  0
   -2.5479   -1.7483   -0.7454 N   0  0  0  0  0  0  0  0  0  0  0  0
   -3.4633   -2.7855   -0.4453 C   0  0  0  0  0  0  0  0  0  0  0  0
   -3.8597   -3.7467   -1.3999 C   0  0  0  0  0  0  0  0  0  0  0  0
   -3.4268   -3.7409   -2.4107 H   0  0  0  0  0  0  0  0  0  0  0  0
   -4.7635   -4.7562   -1.0350 C   0  0  0  0  0  0  0  0  0  0  0  0
   -5.0660   -5.5040   -1.7832 H   0  0  0  0  0  0  0  0  0  0  0  0
   -5.2577   -4.8321    0.2756 C   0  0  0  0  0  0  0  0  0  0  0  0
   -5.9619   -5.6288    0.5557 H   0  0  0  0  0  0  0  0  0  0  0  0
   -4.8331   -3.8944    1.2318 C   0  0  0  0  0  0  0  0  0  0  0  0
   -5.2020   -3.9572    2.2665 H   0  0  0  0  0  0  0  0  0  0  0  0
   -3.9438   -2.8730    0.8784 C   0  0  0  0  0  0  0  0  0  0  0  0
   -3.5988   -2.1359    1.6198 H   0  0  0  0  0  0  0  0  0  0  0  0
   -1.9465   -1.4162    0.0370 H   0  0  0  0  0  0  0  0  0  0  0  0
   -3.3098   -1.1579   -2.8791 N   0  0  0  0  0  4  0  0  0  0  0  0
   -3.2268   -0.5412   -3.6861 H   0  0  0  0  0  0  0  0  0  0  0  0
   -4.1134   -1.7853   -2.8022 H   0  0  0  0  0  0  0  0  0  0  0  0
  1  2  1  0  0  0  0
  2  3  1  0  0  0  0
  3  4  1  0  0  0  0
  3 15  1  0  0  0  0
  4 13  1  0  0  0  0
  5  7  1  0  0  0  0
  5  4  2  0  0  0  0
  6  5  1  0  0  0  0
  7  9  2  0  0  0  0
  8  7  1  0  0  0  0
  9 10  1  0  0  0  0
  9 11  1  0  0  0  0
 11 12  1  0  0  0  0
 13 11  2  0  0  0  0
 13 14  1  0  0  0  0
 16 18  1  0  0  0  0
 16  2  2  0  0  0  0
 17 16  1  0  0  0  0
M  END
