1
q = -1.0, confidence = 0.024

  7  7  0  0  0  0  0  0  0  0999 V2000
   -2.1478   -1.0115   -1.0739 S   0  0  0  0  0  0  0  0  0  0  0  0
   -2.0593    1.0995    0.6677 N   0  0  0  0  0  0  0  0  0  0  0  0
   -2.8442    0.3967   -0.2920 C   0  0  0  0  0  0  0  0  0  0  0  0
   -4.1555    0.8527   -0.5846 C   0  0  0  0  0  0  0  0  0  0  0  0
   -4.3862    1.9028    0.1433 C   0  0  0  0  0  0  0  0  0  0  0  0
   -3.8634    2.7373    1.0723 C   0  0  0  0  0  0  0  0  0  0  0  0
   -2.7395    2.0728    1.1077 C   0  0  0  0  0  0  0  0  0  0  0  0
  1  3  1  0  0  0  0
  2  7  1  0  0  0  0
  3  2  2  0  0  0  0
  4  3  1  0  0  0  0
  4  5  2  0  0  0  0
  5  6  1  0  0  0  0
  6  7  2  0  0  0  0
M  END
