1
q = -1.0, confidence = 0.03

 40 42  0  0  1  0  0  0  0  0999 V2000
   -0.6785    2.0272   -1.2296 S   0  0  0  0  0  1  0  0  0  0  0  0
    5.5776    0.4593    0.3201 O   0  0  0  0  0  0  0  0  0  0  0  0
    3.4941   -0.3873    0.6636 O   0  0  0  0  0  0  0  0  0  0  0  0
    2.3079   -3.8388   -0.4067 N   0  0  0  0  0  0  0  0  0  0  0  0
    0.1013    3.2844   -0.0998 C   0  0  0  0  0  0  0  0  0  0  0  0
   -0.2535    4.2719   -0.4568 H   0  0  0  0  0  0  0  0  0  0  0  0
   -0.3028    3.1340    0.9229 H   0  0  0  0  0  0  0  0  0  0  0  0
    1.6059    3.2120   -0.1080 C   0  0  0  0  0  0  0  0  0  0  0  0
    2.3919    4.3446   -0.3985 C   0  0  0  0  0  0  0  0  0  0  0  0
    1.8958    5.2993   -0.6355 H   0  0  0  0  0  0  0  0  0  0  0  0
    3.7956    4.2691   -0.3915 C   0  0  0  0  0  0  0  0  0  0  0  0
    4.3919    5.1653   -0.6205 H   0  0  0  0  0  0  0  0  0  0  0  0
    4.4336    3.0562   -0.1111 C   0  0  0  0  0  0  0  0  0  0  0  0
    5.5291    2.9601   -0.1197 H   0  0  0  0  0  0  0  0  0  0  0  0
    3.6599    1.9116    0.1716 C   0  0  0  0  0  0  0  0  0  0  0  0
    2.2563    1.9978    0.1793 C   0  0  0  0  0  0  0  0  0  0  0  0
    1.6553    1.1029    0.3895 H   0  0  0  0  0  0  0  0  0  0  0  0
    4.3690    0.6151    0.3959 C   0  0  0  0  0  0  0  0  0  0  0  0
    4.0176   -1.7432    0.6997 C   0  0  1  0  0  0  0  0  0  0  0  0
    5.0175   -1.6922    1.1759 H   0  0  0  0  0  0  0  0  0  0  0  0
    3.0399   -2.5729    1.5386 C   0  0  0  0  0  0  0  0  0  0  0  0
    2.7347   -1.9802    2.4253 H   0  0  0  0  0  0  0  0  0  0  0  0
    3.5703   -3.4776    1.8987 H   0  0  0  0  0  0  0  0  0  0  0  0
    1.8139   -3.0359    0.7303 C   0  0  1  0  0  0  0  0  0  0  0  0
    1.1729   -3.6677    1.3812 H   0  0  0  0  0  0  0  0  0  0  0  0
    1.0288   -1.8596    0.0789 C   0  0  0  0  0  0  0  0  0  0  0  0
   -0.0365   -2.1274   -0.0601 H   0  0  0  0  0  0  0  0  0  0  0  0
    1.0369   -0.9435    0.6967 H   0  0  0  0  0  0  0  0  0  0  0  0
    1.7054   -1.6807   -1.3028 C   0  0  0  0  0  0  0  0  0  0  0  0
    2.1092   -0.6624   -1.4510 H   0  0  0  0  0  0  0  0  0  0  0  0
    0.9729   -1.8510   -2.1163 H   0  0  0  0  0  0  0  0  0  0  0  0
    2.8132   -2.7779   -1.3071 C   0  0  1  0  0  0  0  0  0  0  0  0
    2.9859   -3.1993   -2.3182 H   0  0  0  0  0  0  0  0  0  0  0  0
    4.1543   -2.2928   -0.7300 C   0  0  0  0  0  0  0  0  0  0  0  0
    4.6230   -1.5222   -1.3742 H   0  0  0  0  0  0  0  0  0  0  0  0
    4.8462   -3.1593   -0.6999 H   0  0  0  0  0  0  0  0  0  0  0  0
    1.2932   -4.6859   -1.0066 C   0  0  0  0  0  0  0  0  0  0  0  0
    0.9591   -5.4462   -0.2707 H   0  0  0  0  0  0  0  0  0  0  0  0
    1.7241   -5.2289   -1.8722 H   0  0  0  0  0  0  0  0  0  0  0  0
    0.3786   -4.1475   -1.3756 H   0  0  0  0  0  0  0  0  0  0  0  0
  1  5  1  0  0  0  0
  2 18  2  0  0  0  0
  3 19  1  0  0  0  0
  4 24  1  0  0  0  0
  5  7  1  0  0  0  0
  6  5  1  0  0  0  0
  8  5  1  0  0  0  0
  8 16  1  0  0  0  0
  9 11  1  0  0  0  0
  9  8  2  0  0  0  0
 10  9  1  0  0  0  0
 11 13  2  0  0  0  0
 12 11  1  0  0  0  0
 13 15  1  0  0  0  0
 14 13  1  0  0  0  0
 15 16  2  0  0  0  0
 15 18  1  0  0  0  0
 16 17  1  0  0  0  0
 18  3  1  0  0  0  0
 19 20  1  1  0  0  0
 19 21  1  0  0  0  0
 21 23  1  0  0  0  0
 21 22  1  0  0  0  0
 24 25  1  1  0  0  0
 24 21  1  0  0  0  0
 26 28  1  0  0  0  0
 26 24  1  0  0  0  0
 27 26  1  0  0  0  0
 29 26  1  0  0  0  0
 30 29  1  0  0  0  0
 31 29  1  0  0  0  0
 32 33  1  6  0  0  0
 32 29  1  0  0  0  0
 32 34  1  0  0  0  0
 32  4  1  0  0  0  0
 34 36  1  0  0  0  0
 34 19  1  0  0  0  0
 35 34  1  0  0  0  0
 37  4  1  0  0  0  0
 37 38  1  0  0  0  0
 39 37  1  0  0  0  0
 40 37  1  0  0  0  0
M  END
