1
q = -1.0

 23 23  0  0  0  0  0  0  0  0999 V2000
    2.3835    1.1854   -0.4376 S   0  0  0  0  0  1  0  0  0  0  0  0
    5.5403   -0.0882   -0.3219 Si  0  0  0  0  0  0  0  0  0  0  0  0
    1.6136   -0.9286    0.9823 N   0  0  0  0  0  0  0  0  0  0  0  0
    2.6911   -0.3426    0.4126 C   0  0  0  0  0  0  0  0  0  0  0  0
    4.0050   -0.8983    0.4748 C   0  0  0  0  0  0  0  0  0  0  0  0
    4.1167   -2.1165    1.1737 C   0  0  0  0  0  0  0  0  0  0  0  0
    2.9988   -2.7316    1.7618 C   0  0  0  0  0  0  0  0  0  0  0  0
    1.7614   -2.0906    1.6351 C   0  0  0  0  0  0  0  0  0  0  0  0
    5.2975    0.0315   -2.1935 C   0  0  0  0  0  0  0  0  0  0  0  0
    7.0374   -1.1923    0.0382 C   0  0  0  0  0  0  0  0  0  0  0  0
    5.8320    1.6162    0.4435 C   0  0  0  0  0  0  0  0  0  0  0  0
    5.1023   -2.6008    1.2608 H   0  0  0  0  0  0  0  0  0  0  0  0
    3.0857   -3.6835    2.3051 H   0  0  0  0  0  0  0  0  0  0  0  0
    0.8434   -2.5196    2.0724 H   0  0  0  0  0  0  0  0  0  0  0  0
    5.1975   -0.9786   -2.6405 H   0  0  0  0  0  0  0  0  0  0  0  0
    6.1683    0.5327   -2.6645 H   0  0  0  0  0  0  0  0  0  0  0  0
    4.3854    0.6096   -2.4414 H   0  0  0  0  0  0  0  0  0  0  0  0
    6.9191   -2.2072   -0.3938 H   0  0  0  0  0  0  0  0  0  0  0  0
    7.2250   -1.2969    1.1265 H   0  0  0  0  0  0  0  0  0  0  0  0
    7.9455   -0.7427   -0.4139 H   0  0  0  0  0  0  0  0  0  0  0  0
    6.0387    1.5274    1.5296 H   0  0  0  0  0  0  0  0  0  0  0  0
    4.9467    2.2699    0.3143 H   0  0  0  0  0  0  0  0  0  0  0  0
    6.7035    2.1095   -0.0346 H   0  0  0  0  0  0  0  0  0  0  0  0
  1  4  1  0  0  0  0
  2 10  1  0  0  0  0
  2 11  1  0  0  0  0
  2  5  1  0  0  0  0
  3  8  1  0  0  0  0
  4  5  1  0  0  0  0
  4  3  2  0  0  0  0
  5  6  2  0  0  0  0
  6 12  1  0  0  0  0
  6  7  1  0  0  0  0
  7 13  1  0  0  0  0
  8  7  2  0  0  0  0
  8 14  1  0  0  0  0
  9  2  1  0  0  0  0
 10 19  1  0  0  0  0
 11 21  1  0  0  0  0
 15  9  1  0  0  0  0
 16  9  1  0  0  0  0
 17  9  1  0  0  0  0
 18 10  1  0  0  0  0
 20 10  1  0  0  0  0
 22 11  1  0  0  0  0
 23 11  1  0  0  0  0
M  END
