1
q = 0.0, confidence = 1.0

 17 17  0  0  0  0  0  0  0  0999 V2000
   -1.0632    0.6132   -1.1716 S   0  0  2  0  0  3  0  0  0  0  0  0
   -0.2535    1.8436   -1.4724 O   0  0  0  0  0  1  0  0  0  0  0  0
   -1.7384    0.0196   -2.7458 C   0  0  0  0  0  0  0  0  0  0  0  0
   -2.5656    1.0868   -0.2795 C   0  0  0  0  0  0  0  0  0  0  0  0
   -3.4640    0.1007    0.1567 C   0  0  0  0  0  0  0  0  0  0  0  0
   -4.6027    0.5155    0.8618 C   0  0  0  0  0  0  0  0  0  0  0  0
   -4.8111    1.8797    1.1324 C   0  0  0  0  0  0  0  0  0  0  0  0
   -3.8823    2.8412    0.7028 C   0  0  0  0  0  0  0  0  0  0  0  0
   -2.7398    2.4482   -0.0113 C   0  0  0  0  0  0  0  0  0  0  0  0
   -0.8560   -0.1929   -3.3770 H   0  0  0  0  0  0  0  0  0  0  0  0
   -2.3377    0.8565   -3.1487 H   0  0  0  0  0  0  0  0  0  0  0  0
   -2.3135   -0.9071   -2.5671 H   0  0  0  0  0  0  0  0  0  0  0  0
   -3.2630   -0.9651   -0.0410 H   0  0  0  0  0  0  0  0  0  0  0  0
   -5.3267   -0.2352    1.2125 H   0  0  0  0  0  0  0  0  0  0  0  0
   -5.7032    2.1942    1.6948 H   0  0  0  0  0  0  0  0  0  0  0  0
   -4.0424    3.9056    0.9314 H   0  0  0  0  0  0  0  0  0  0  0  0
   -1.9759    3.1638   -0.3486 H   0  0  0  0  0  0  0  0  0  0  0  0
  1  2  1  6  0  0  0
  1  4  1  0  0  0  0
  3 12  1  0  0  0  0
  3  1  1  0  0  0  0
  4  9  2  0  0  0  0
  4  5  1  0  0  0  0
  5  6  2  0  0  0  0
  6  7  1  0  0  0  0
  6 14  1  0  0  0  0
  7 15  1  0  0  0  0
  8 16  1  0  0  0  0
  8  7  2  0  0  0  0
  9  8  1  0  0  0  0
 10  3  1  0  0  0  0
 11  3  1  0  0  0  0
 13  5  1  0  0  0  0
 17  9  1  0  0  0  0
M  END
