3
q = -1.0

 11 11  0  0  0  0  0  0  0  0999 V2000
   -2.2032    0.8880    0.1310 N   0  0  0  0  0  0  0  0  0  0  0  0
   -2.7057   -0.3251   -0.0745 C   0  0  0  0  0  0  0  0  0  0  0  0
   -1.7033   -1.7536   -0.2745 S   0  0  0  0  0  1  0  0  0  0  0  0
   -4.0581   -0.5338   -0.1435 N   0  0  0  0  0  0  0  0  0  0  0  0
   -5.0644    0.4724   -0.0098 C   0  0  0  0  0  0  0  0  0  0  0  0
   -6.2507    0.1684   -0.0896 O   0  0  0  0  0  0  0  0  0  0  0  0
   -4.4724    1.7786    0.2140 C   0  0  0  0  0  0  0  0  0  0  0  0
   -3.1010    1.9078    0.2700 C   0  0  0  0  0  0  0  0  0  0  0  0
   -4.4107   -1.4833   -0.3035 H   0  0  0  0  0  0  0  0  0  0  0  0
   -5.1477    2.6358    0.3330 H   0  0  0  0  0  0  0  0  0  0  0  0
   -2.6509    2.9030    0.4391 H   0  0  0  0  0  0  0  0  0  0  0  0
  1  8  1  0  0  0  0
  2  1  2  0  0  0  0
  3  2  1  0  0  0  0
  4  2  1  0  0  0  0
  4  5  1  0  0  0  0
  5  7  1  0  0  0  0
  6  5  2  0  0  0  0
  7  8  2  0  0  0  0
  7 10  1  0  0  0  0
  8 11  1  0  0  0  0
  9  4  1  0  0  0  0
M  END
