1
q = 0.0, confidence = 0.972

 16 16  0  0  0  0  0  0  0  0999 V2000
   -1.4446    1.2193   -0.0012 S   0  0  0  0  0  0  0  0  0  0  0  0
   -2.5525    0.2527   -1.1429 C   0  0  0  0  0  0  0  0  0  0  0  0
   -3.5802    0.0015    0.0000 C   0  0  0  0  0  0  0  0  0  0  0  0
   -2.5526    0.2551    1.1425 C   0  0  0  0  0  0  0  0  0  0  0  0
   -4.1660   -1.4098    0.0015 C   0  0  0  0  0  0  0  0  0  0  0  0
   -4.6757    1.0739   -0.0012 C   0  0  0  0  0  0  0  0  0  0  0  0
   -2.8894    0.8391   -2.0192 H   0  0  0  0  0  0  0  0  0  0  0  0
   -2.0216   -0.6734   -1.4387 H   0  0  0  0  0  0  0  0  0  0  0  0
   -2.0217   -0.6704    1.4403 H   0  0  0  0  0  0  0  0  0  0  0  0
   -2.8896    0.8434    2.0175 H   0  0  0  0  0  0  0  0  0  0  0  0
   -4.8016   -1.5692    0.8970 H   0  0  0  0  0  0  0  0  0  0  0  0
   -4.8015   -1.5711   -0.8938 H   0  0  0  0  0  0  0  0  0  0  0  0
   -3.3594   -2.1694    0.0023 H   0  0  0  0  0  0  0  0  0  0  0  0
   -5.3209    0.9756    0.8956 H   0  0  0  0  0  0  0  0  0  0  0  0
   -4.2425    2.0953   -0.0023 H   0  0  0  0  0  0  0  0  0  0  0  0
   -5.3208    0.9737   -0.8978 H   0  0  0  0  0  0  0  0  0  0  0  0
  1  4  1  0  0  0  0
  2  1  1  0  0  0  0
  2  3  1  0  0  0  0
  3  5  1  0  0  0  0
  3  4  1  0  0  0  0
  4  9  1  0  0  0  0
  4 10  1  0  0  0  0
  5 13  1  0  0  0  0
  5 11  1  0  0  0  0
  6  3  1  0  0  0  0
  6 14  1  0  0  0  0
  7  2  1  0  0  0  0
  8  2  1  0  0  0  0
 12  5  1  0  0  0  0
 15  6  1  0  0  0  0
 16  6  1  0  0  0  0
M  END
