1
q = 0.0, confidence = 0.984

 49 48  0  0  0  0  0  0  0  0999 V2000
   -0.2873   -0.0550    1.2804 S   0  0  0  0  0  1  0  0  0  0  0  0
    1.2464    0.2439   -0.1618 P   0  0  1  0  0  0  0  0  0  0  0  0
    4.1632   -0.2156   -0.9061 Si  0  0  0  0  0  0  0  0  0  0  0  0
    2.4040   -2.4942    0.5944 Si  0  0  0  0  0  0  0  0  0  0  0  0
    0.8407    2.9511   -0.4569 N   0  0  0  0  0  0  0  0  0  0  0  0
    2.1409    2.4882    1.4203 N   0  0  0  0  0  0  0  0  0  0  0  0
    1.4624    2.0375    0.3283 C   0  0  0  0  0  3  0  0  0  0  0  0
    0.2523    4.1751    0.0876 C   0  0  0  0  0  0  0  0  0  0  0  0
    0.8107    5.0870   -0.2119 H   0  0  0  0  0  0  0  0  0  0  0  0
    0.2074    4.1121    1.1883 H   0  0  0  0  0  0  0  0  0  0  0  0
   -0.7867    4.2489   -0.2905 H   0  0  0  0  0  0  0  0  0  0  0  0
    0.5331    2.7176   -1.8679 C   0  0  0  0  0  0  0  0  0  0  0  0
   -0.5630    2.6877   -2.0240 H   0  0  0  0  0  0  0  0  0  0  0  0
    0.9592    1.7530   -2.1941 H   0  0  0  0  0  0  0  0  0  0  0  0
    0.9572    3.5456   -2.4748 H   0  0  0  0  0  0  0  0  0  0  0  0
    2.8042    3.7875    1.4481 C   0  0  0  0  0  0  0  0  0  0  0  0
    2.2762    4.5342    2.0801 H   0  0  0  0  0  0  0  0  0  0  0  0
    2.9067    4.1861    0.4237 H   0  0  0  0  0  0  0  0  0  0  0  0
    3.8225    3.6472    1.8669 H   0  0  0  0  0  0  0  0  0  0  0  0
    2.2904    1.7028    2.6385 C   0  0  0  0  0  0  0  0  0  0  0  0
    1.5902    0.8466    2.6230 H   0  0  0  0  0  0  0  0  0  0  0  0
    2.0241    2.3428    3.5064 H   0  0  0  0  0  0  0  0  0  0  0  0
    3.3366    1.3548    2.7758 H   0  0  0  0  0  0  0  0  0  0  0  0
    2.8032   -0.6075    0.3899 C   0  0  0  0  0  0  0  0  0  0  0  0
    3.1703   -0.2779    1.3844 H   0  0  0  0  0  0  0  0  0  0  0  0
    4.2598    1.6498   -1.2722 C   0  0  0  0  0  0  0  0  0  0  0  0
    4.4554    2.2356   -0.3515 H   0  0  0  0  0  0  0  0  0  0  0  0
    3.3437    2.0471   -1.7519 H   0  0  0  0  0  0  0  0  0  0  0  0
    5.1034    1.8341   -1.9700 H   0  0  0  0  0  0  0  0  0  0  0  0
    5.8656   -0.6805   -0.2172 C   0  0  0  0  0  0  0  0  0  0  0  0
    5.9808   -1.7677   -0.0506 H   0  0  0  0  0  0  0  0  0  0  0  0
    6.0514   -0.1652    0.7481 H   0  0  0  0  0  0  0  0  0  0  0  0
    6.6560   -0.3572   -0.9262 H   0  0  0  0  0  0  0  0  0  0  0  0
    3.7947   -1.0981   -2.5371 C   0  0  0  0  0  0  0  0  0  0  0  0
    2.7689   -0.8533   -2.8820 H   0  0  0  0  0  0  0  0  0  0  0  0
    3.8649   -2.1998   -2.4434 H   0  0  0  0  0  0  0  0  0  0  0  0
    4.5086   -0.7777   -3.3234 H   0  0  0  0  0  0  0  0  0  0  0  0
    1.7650   -2.7943    2.3465 C   0  0  0  0  0  0  0  0  0  0  0  0
    0.8240   -2.2342    2.5147 H   0  0  0  0  0  0  0  0  0  0  0  0
    2.5088   -2.4730    3.1053 H   0  0  0  0  0  0  0  0  0  0  0  0
    1.5691   -3.8759    2.5001 H   0  0  0  0  0  0  0  0  0  0  0  0
    3.9592   -3.5633    0.3883 C   0  0  0  0  0  0  0  0  0  0  0  0
    4.7353   -3.3145    1.1402 H   0  0  0  0  0  0  0  0  0  0  0  0
    4.4145   -3.4950   -0.6193 H   0  0  0  0  0  0  0  0  0  0  0  0
    3.6686   -4.6226    0.5501 H   0  0  0  0  0  0  0  0  0  0  0  0
    1.1293   -3.0228   -0.6955 C   0  0  0  0  0  0  0  0  0  0  0  0
    0.1995   -2.4277   -0.6034 H   0  0  0  0  0  0  0  0  0  0  0  0
    0.8588   -4.0877   -0.5414 H   0  0  0  0  0  0  0  0  0  0  0  0
    1.5104   -2.9081   -1.7294 H   0  0  0  0  0  0  0  0  0  0  0  0
  2  7  1  0  0  0  0
  2 24  1  0  0  0  0
  2  1  1  1  0  0  0
  3 30  1  0  0  0  0
  3 24  1  0  0  0  0
  4 38  1  0  0  0  0
  5  8  1  0  0  0  0
  5  7  1  0  0  0  0
  6 16  1  0  0  0  0
  6 20  1  0  0  0  0
  7  6  1  0  0  0  0
  8 10  1  0  0  0  0
  9  8  1  0  0  0  0
 11  8  1  0  0  0  0
 12  5  1  0  0  0  0
 13 12  1  0  0  0  0
 14 12  1  0  0  0  0
 15 12  1  0  0  0  0
 16 19  1  0  0  0  0
 16 17  1  0  0  0  0
 18 16  1  0  0  0  0
 20 23  1  0  0  0  0
 20 22  1  0  0  0  0
 21 20  1  0  0  0  0
 24  4  1  0  0  0  0
 24 25  1  0  0  0  0
 26  3  1  0  0  0  0
 26 27  1  0  0  0  0
 28 26  1  0  0  0  0
 29 26  1  0  0  0  0
 30 31  1  0  0  0  0
 30 32  1  0  0  0  0
 33 30  1  0  0  0  0
 34 36  1  0  0  0  0
 34  3  1  0  0  0  0
 35 34  1  0  0  0  0
 37 34  1  0  0  0  0
 38 41  1  0  0  0  0
 38 39  1  0  0  0  0
 38 40  1  0  0  0  0
 42 45  1  0  0  0  0
 42  4  1  0  0  0  0
 42 43  1  0  0  0  0
 44 42  1  0  0  0  0
 46 47  1  0  0  0  0
 46 48  1  0  0  0  0
 46  4  1  0  0  0  0
 49 46  1  0  0  0  0
M  END
