1
q = -1.0

 26 27  0  0  0  0  0  0  0  0999 V2000
    0.5077   -1.8887   -1.2387 S   0  0  0  0  0  1  0  0  0  0  0  0
    5.4102   -0.7164    0.0743 O   0  0  0  0  0  0  0  0  0  0  0  0
    3.3841   -1.3409   -0.8381 N   0  0  0  0  0  0  0  0  0  0  0  0
    2.6388   -1.0877   -1.5106 H   0  0  0  0  0  0  0  0  0  0  0  0
    1.5632   -2.6963   -0.0464 C   0  0  0  0  0  0  0  0  0  0  0  0
    1.0725   -3.6684    0.8469 C   0  0  0  0  0  0  0  0  0  0  0  0
    0.0042   -3.9267    0.8041 H   0  0  0  0  0  0  0  0  0  0  0  0
    1.9145   -4.2939    1.7802 C   0  0  0  0  0  0  0  0  0  0  0  0
    1.5020   -5.0458    2.4700 H   0  0  0  0  0  0  0  0  0  0  0  0
    3.2815   -3.9723    1.8130 C   0  0  0  0  0  0  0  0  0  0  0  0
    3.9531   -4.4764    2.5248 H   0  0  0  0  0  0  0  0  0  0  0  0
    3.8053   -3.0180    0.9287 C   0  0  0  0  0  0  0  0  0  0  0  0
    4.8679   -2.7475    0.9351 H   0  0  0  0  0  0  0  0  0  0  0  0
    2.9551   -2.3623    0.0134 C   0  0  0  0  0  0  0  0  0  0  0  0
    4.4759   -0.5157   -0.7148 C   0  0  0  0  0  0  0  0  0  0  0  0
    4.4448    0.6989   -1.6033 C   0  0  0  0  0  0  0  0  0  0  0  0
    5.6574    1.3869   -1.8078 C   0  0  0  0  0  0  0  0  0  0  0  0
    6.5671    0.9763   -1.3452 H   0  0  0  0  0  0  0  0  0  0  0  0
    5.6860    2.5608   -2.5711 C   0  0  0  0  0  0  0  0  0  0  0  0
    6.6396    3.0858   -2.7352 H   0  0  0  0  0  0  0  0  0  0  0  0
    4.4978    3.0729   -3.1206 C   0  0  0  0  0  0  0  0  0  0  0  0
    4.5184    4.0017   -3.7112 H   0  0  0  0  0  0  0  0  0  0  0  0
    3.2817    2.4043   -2.9053 C   0  0  0  0  0  0  0  0  0  0  0  0
    2.3392    2.8100   -3.3026 H   0  0  0  0  0  0  0  0  0  0  0  0
    3.2553    1.2205   -2.1555 C   0  0  0  0  0  0  0  0  0  0  0  0
    2.2831    0.7375   -1.9693 H   0  0  0  0  0  0  0  0  0  0  0  0
  1  5  1  0  0  0  0
  3 15  1  0  0  0  0
  3 14  1  0  0  0  0
  4  3  1  0  0  0  0
  5 14  2  0  0  0  0
  5  6  1  0  0  0  0
  6  8  2  0  0  0  0
  7  6  1  0  0  0  0
  8 10  1  0  0  0  0
  8  9  1  0  0  0  0
 10 11  1  0  0  0  0
 12 13  1  0  0  0  0
 12 10  2  0  0  0  0
 14 12  1  0  0  0  0
 15  2  2  0  0  0  0
 16 15  1  0  0  0  0
 17 16  1  0  0  0  0
 17 18  1  0  0  0  0
 19 17  2  0  0  0  0
 20 19  1  0  0  0  0
 21 23  2  0  0  0  0
 21 19  1  0  0  0  0
 22 21  1  0  0  0  0
 23 25  1  0  0  0  0
 24 23  1  0  0  0  0
 25 26  1  0  0  0  0
 25 16  2  0  0  0  0
M  END
