1
q = -1.0

 10 10  0  0  0  0  0  0  0  0999 V2000
   -0.6730   -0.7002   -1.4287 S   0  0  0  0  0  1  0  0  0  0  0  0
   -2.2927   -0.6246   -0.6715 C   0  0  0  0  0  0  0  0  0  0  0  0
   -3.3835   -0.2525   -1.5252 C   0  0  0  0  0  0  0  0  0  0  0  0
   -4.5731   -0.2394   -0.8137 C   0  0  0  0  0  3  0  0  0  0  0  0
   -4.7494   -0.5117    0.4114 C   0  0  0  0  0  3  0  0  0  0  0  0
   -3.7632   -0.8769    1.3248 C   0  0  0  0  0  0  0  0  0  0  0  0
   -2.4891   -0.9272    0.7043 C   0  0  0  0  0  0  0  0  0  0  0  0
   -3.2212   -0.0229   -2.5883 H   0  0  0  0  0  0  0  0  0  0  0  0
   -3.8991   -1.1139    2.3907 H   0  0  0  0  0  0  0  0  0  0  0  0
   -1.6067   -1.1948    1.3092 H   0  0  0  0  0  0  0  0  0  0  0  0
  1  2  1  0  0  0  0
  2  7  1  0  0  0  0
  3  4  1  0  0  0  0
  3  2  2  0  0  0  0
  4  5  2  0  0  0  0
  5  6  1  0  0  0  0
  6  9  1  0  0  0  0
  7 10  1  0  0  0  0
  7  6  2  0  0  0  0
  8  3  1  0  0  0  0
M  END
