1
q = -1.0

 14 14  0  0  0  0  0  0  0  0999 V2000
    2.3557   -2.5373   -0.3703 S   0  0  0  0  0  1  0  0  0  0  0  0
    3.3933   -1.1297    0.0047 C   0  0  0  0  0  0  0  0  0  0  0  0
    4.3004   -0.6300   -0.9579 C   0  0  0  0  0  0  0  0  0  0  0  0
    4.3594   -1.1307   -1.9361 H   0  0  0  0  0  0  0  0  0  0  0  0
    5.0997    0.4914   -0.6999 C   0  0  0  0  0  0  0  0  0  0  0  0
    5.7912    0.8572   -1.4766 H   0  0  0  0  0  0  0  0  0  0  0  0
    5.0247    1.1719    0.5386 C   0  0  0  0  0  0  0  0  0  0  0  0
    4.1266    0.6674    1.5099 C   0  0  0  0  0  0  0  0  0  0  0  0
    4.0459    1.1712    2.4870 H   0  0  0  0  0  0  0  0  0  0  0  0
    3.3424   -0.4645    1.2540 C   0  0  0  0  0  0  0  0  0  0  0  0
    2.6466   -0.8242    2.0277 H   0  0  0  0  0  0  0  0  0  0  0  0
    5.7649    2.3339    0.7723 N   0  0  0  0  0  0  0  0  0  0  0  0
    6.6234    2.4131    0.2238 H   0  0  0  0  0  0  0  0  0  0  0  0
    5.9322    2.5435    1.7584 H   0  0  0  0  0  0  0  0  0  0  0  0
  1  2  1  0  0  0  0
  2 10  1  0  0  0  0
  3  5  1  0  0  0  0
  3  2  2  0  0  0  0
  4  3  1  0  0  0  0
  5  7  2  0  0  0  0
  6  5  1  0  0  0  0
  7 12  1  0  0  0  0
  7  8  1  0  0  0  0
  8  9  1  0  0  0  0
 10  8  2  0  0  0  0
 10 11  1  0  0  0  0
 12 14  1  0  0  0  0
 13 12  1  0  0  0  0
M  END
