1
q = -1.0, confidence = 0.0

 13 13  0  0  0  0  0  0  0  0999 V2000
   -0.7096   -2.0294   -0.7791 S   0  0  0  0  0  1  0  0  0  0  0  0
    5.0727   -1.5799    0.7056 O   0  0  0  0  0  0  0  0  0  0  0  0
    5.1521   -1.1270    1.5650 H   0  0  0  0  0  0  0  0  0  0  0  0
    0.9955   -1.9608   -0.2469 C   0  0  0  0  0  0  0  0  0  0  0  0
    2.0075   -2.4120   -1.1232 C   0  0  0  0  0  0  0  0  0  0  0  0
    1.7194   -2.8271   -2.1008 H   0  0  0  0  0  0  0  0  0  0  0  0
    3.3620   -2.3008   -0.7883 C   0  0  0  0  0  0  0  0  0  0  0  0
    4.1483   -2.6273   -1.4845 H   0  0  0  0  0  0  0  0  0  0  0  0
    3.7400   -1.7253    0.4395 C   0  0  0  0  0  0  0  0  0  0  0  0
    2.7403   -1.3147    1.3395 C   0  0  0  0  0  0  0  0  0  0  0  0
    3.0228   -0.8589    2.3031 H   0  0  0  0  0  0  0  0  0  0  0  0
    1.3874   -1.4391    1.0032 C   0  0  0  0  0  0  0  0  0  0  0  0
    0.6251   -1.0702    1.7064 H   0  0  0  0  0  0  0  0  0  0  0  0
  1  4  1  0  0  0  0
  2  3  1  0  0  0  0
  4 12  1  0  0  0  0
  5  7  1  0  0  0  0
  5  4  2  0  0  0  0
  6  5  1  0  0  0  0
  7  9  2  0  0  0  0
  8  7  1  0  0  0  0
  9  2  1  0  0  0  0
  9 10  1  0  0  0  0
 10 11  1  0  0  0  0
 12 10  2  0  0  0  0
 12 13  1  0  0  0  0
M  END
