1
q = 0.0, confidence = 0.996

 35 36  0  0  0  0  0  0  0  0999 V2000
   -0.3404    1.3569   -0.0447 S   0  0  0  0  0  1  0  0  0  0  0  0
    4.5129   -0.1509   -0.5153 O   0  0  0  0  0  0  0  0  0  0  0  0
    0.9070    0.2645   -0.2942 C   0  0  0  0  0  3  0  0  0  0  0  0
    2.2992    0.5710   -0.2648 C   0  0  0  0  0  0  0  0  0  0  0  0
    3.2230   -0.4815   -0.3163 C   0  0  0  0  0  0  0  0  0  0  0  0
    5.5796   -0.9773    0.0038 C   0  0  0  0  0  0  0  0  0  0  0  0
    5.7224   -0.8120    1.5068 C   0  0  0  0  0  0  0  0  0  0  0  0
    2.8402   -1.9101   -0.2315 C   0  0  0  0  0  0  0  0  0  0  0  0
    2.0507   -2.3827    0.8415 C   0  0  0  0  0  0  0  0  0  0  0  0
    1.6525   -3.7253    0.8932 C   0  0  0  0  0  0  0  0  0  0  0  0
    2.0478   -4.6149   -0.1178 C   0  0  0  0  0  0  0  0  0  0  0  0
    2.8415   -4.1578   -1.1840 C   0  0  0  0  0  0  0  0  0  0  0  0
    3.2385   -2.8163   -1.2425 C   0  0  0  0  0  0  0  0  0  0  0  0
    2.7730    1.9827   -0.1901 C   0  0  0  0  0  0  0  0  0  0  0  0
    3.5485    2.4223    0.9027 C   0  0  0  0  0  0  0  0  0  0  0  0
    3.9795    3.7534    0.9819 C   0  0  0  0  0  0  0  0  0  0  0  0
    3.6438    4.6636   -0.0331 C   0  0  0  0  0  0  0  0  0  0  0  0
    2.8702    4.2363   -1.1235 C   0  0  0  0  0  0  0  0  0  0  0  0
    2.4335    2.9063   -1.1998 C   0  0  0  0  0  0  0  0  0  0  0  0
    0.6339   -0.7863   -0.4830 H   0  0  0  0  0  0  0  0  0  0  0  0
    6.4789   -0.6172   -0.5318 H   0  0  0  0  0  0  0  0  0  0  0  0
    5.4157   -2.0393   -0.2701 H   0  0  0  0  0  0  0  0  0  0  0  0
    6.5867   -1.4027    1.8710 H   0  0  0  0  0  0  0  0  0  0  0  0
    5.8875    0.2498    1.7755 H   0  0  0  0  0  0  0  0  0  0  0  0
    4.8167   -1.1742    2.0342 H   0  0  0  0  0  0  0  0  0  0  0  0
    1.7416   -1.6874    1.6354 H   0  0  0  0  0  0  0  0  0  0  0  0
    1.0200   -4.0688    1.7248 H   0  0  0  0  0  0  0  0  0  0  0  0
    1.7308   -5.6680   -0.0803 H   0  0  0  0  0  0  0  0  0  0  0  0
    3.1397   -4.8501   -1.9855 H   0  0  0  0  0  0  0  0  0  0  0  0
    3.8313   -2.4509   -2.0950 H   0  0  0  0  0  0  0  0  0  0  0  0
    3.8005    1.7116    1.7042 H   0  0  0  0  0  0  0  0  0  0  0  0
    4.5769    4.0845    1.8451 H   0  0  0  0  0  0  0  0  0  0  0  0
    3.9819    5.7092    0.0286 H   0  0  0  0  0  0  0  0  0  0  0  0
    2.6007    4.9451   -1.9210 H   0  0  0  0  0  0  0  0  0  0  0  0
    1.8232    2.5735   -2.0525 H   0  0  0  0  0  0  0  0  0  0  0  0
  2  5  1  0  0  0  0
  2  6  1  0  0  0  0
  3  4  1  0  0  0  0
  3  1  1  0  0  0  0
  4 14  1  0  0  0  0
  5  4  2  0  0  0  0
  5  8  1  0  0  0  0
  6  7  1  0  0  0  0
  7 24  1  0  0  0  0
  7 23  1  0  0  0  0
  7 25  1  0  0  0  0
  8  9  1  0  0  0  0
  9 10  2  0  0  0  0
  9 26  1  0  0  0  0
 10 27  1  0  0  0  0
 11 28  1  0  0  0  0
 11 10  1  0  0  0  0
 12 11  2  0  0  0  0
 13 12  1  0  0  0  0
 13  8  2  0  0  0  0
 14 15  1  0  0  0  0
 15 16  2  0  0  0  0
 15 31  1  0  0  0  0
 16 32  1  0  0  0  0
 17 33  1  0  0  0  0
 17 16  1  0  0  0  0
 18 17  2  0  0  0  0
 19 18  1  0  0  0  0
 19 14  2  0  0  0  0
 20  3  1  0  0  0  0
 21  6  1  0  0  0  0
 22  6  1  0  0  0  0
 29 12  1  0  0  0  0
 30 13  1  0  0  0  0
 34 18  1  0  0  0  0
 35 19  1  0  0  0  0
M  END
