2
q = -1.0

 14 13  0  0  0  0  0  0  0  0999 V2000
   -2.4412    3.8771   -0.7265 S   0  0  0  0  0  0  0  0  0  0  0  0
   -0.5173    1.6549   -1.2760 S   0  0  0  0  0  1  0  0  0  0  0  0
   -1.8789    1.8322    0.9150 O   0  0  0  0  0  0  0  0  0  0  0  0
   -1.6920    2.4653   -0.2601 C   0  0  0  0  0  0  0  0  0  0  0  0
   -2.7695    2.3867    1.9283 C   0  0  0  0  0  0  0  0  0  0  0  0
   -4.1832    1.8722    1.6893 C   0  0  0  0  0  0  0  0  0  0  0  0
   -2.1727    1.9773    3.2663 C   0  0  0  0  0  0  0  0  0  0  0  0
   -2.7484    3.4903    1.7947 H   0  0  0  0  0  0  0  0  0  0  0  0
   -4.2119    0.7661    1.7535 H   0  0  0  0  0  0  0  0  0  0  0  0
   -4.5403    2.1964    0.6925 H   0  0  0  0  0  0  0  0  0  0  0  0
   -4.8724    2.2871    2.4522 H   0  0  0  0  0  0  0  0  0  0  0  0
   -1.1304    2.3410    3.3561 H   0  0  0  0  0  0  0  0  0  0  0  0
   -2.1709    0.8736    3.3739 H   0  0  0  0  0  0  0  0  0  0  0  0
   -2.7691    2.4062    4.0959 H   0  0  0  0  0  0  0  0  0  0  0  0
  1  4  2  0  0  0  0
  2  4  1  0  0  0  0
  3  5  1  0  0  0  0
  4  3  1  0  0  0  0
  5  7  1  0  0  0  0
  6  9  1  0  0  0  0
  6  5  1  0  0  0  0
  6 11  1  0  0  0  0
  7 12  1  0  0  0  0
  7 13  1  0  0  0  0
  7 14  1  0  0  0  0
  8  5  1  0  0  0  0
 10  6  1  0  0  0  0
M  END
