1
q = -1.0

 17 17  0  0  0  0  0  0  0  0999 V2000
    2.2962    0.5374    0.2162 S   0  0  0  0  0  5  0  0  0  0  0  0
    2.7351    0.5600    1.6475 O   0  0  0  0  0  0  0  0  0  0  0  0
    2.7141    1.6590   -0.6843 O   0  0  0  0  0  0  0  0  0  0  0  0
    3.1158   -0.9912   -0.5166 C   0  0  0  0  0  0  0  0  0  0  0  0
    2.7176   -1.8514    0.0508 H   0  0  0  0  0  0  0  0  0  0  0  0
    2.7667   -1.0388   -1.5637 H   0  0  0  0  0  0  0  0  0  0  0  0
    4.5919   -0.8246   -0.3891 C   0  0  0  0  0  0  0  0  0  0  0  0
    5.3216   -0.1366   -1.3806 C   0  0  0  0  0  0  0  0  0  0  0  0
    4.7921    0.2507   -2.2639 H   0  0  0  0  0  0  0  0  0  0  0  0
    6.7001    0.0673   -1.2349 C   0  0  0  0  0  0  0  0  0  0  0  0
    7.2600    0.6018   -2.0176 H   0  0  0  0  0  0  0  0  0  0  0  0
    7.3650   -0.4030   -0.0907 C   0  0  0  0  0  0  0  0  0  0  0  0
    8.4481   -0.2427    0.0235 H   0  0  0  0  0  0  0  0  0  0  0  0
    6.6426   -1.0718    0.9109 C   0  0  0  0  0  0  0  0  0  0  0  0
    7.1571   -1.4327    1.8145 H   0  0  0  0  0  0  0  0  0  0  0  0
    5.2639   -1.2752    0.7658 C   0  0  0  0  0  0  0  0  0  0  0  0
    4.6899   -1.7795    1.5576 H   0  0  0  0  0  0  0  0  0  0  0  0
  1  2  2  0  0  0  0
  3  1  2  0  0  0  0
  4  7  1  0  0  0  0
  4  5  1  0  0  0  0
  4  1  1  0  0  0  0
  6  4  1  0  0  0  0
  7 16  1  0  0  0  0
  8 10  1  0  0  0  0
  8  7  2  0  0  0  0
  9  8  1  0  0  0  0
 10 12  2  0  0  0  0
 11 10  1  0  0  0  0
 12 13  1  0  0  0  0
 12 14  1  0  0  0  0
 14 15  1  0  0  0  0
 16 14  2  0  0  0  0
 16 17  1  0  0  0  0
M  END
