2
q = -1.0

 34 36  0  0  0  0  0  0  0  0999 V2000
   -1.7822   -0.0055   -0.0937 As  0  0  0  0  0  0  0  0  0  0  0  0
   -1.6416   -3.2501   -0.0211 S   0  0  0  0  0  1  0  0  0  0  0  0
   -3.2176   -2.4555   -0.0870 C   0  0  0  0  0  0  0  0  0  0  0  0
   -3.4085   -1.0508   -0.1170 C   0  0  0  0  0  0  0  0  0  0  0  0
   -4.6904   -0.4764   -0.1681 C   0  0  0  0  0  0  0  0  0  0  0  0
   -4.7990    0.6197   -0.1911 H   0  0  0  0  0  0  0  0  0  0  0  0
   -5.8253   -1.2969   -0.1882 C   0  0  0  0  0  0  0  0  0  0  0  0
   -6.8313   -0.8545   -0.2282 H   0  0  0  0  0  0  0  0  0  0  0  0
   -5.6563   -2.6956   -0.1581 C   0  0  0  0  0  0  0  0  0  0  0  0
   -6.5393   -3.3533   -0.1741 H   0  0  0  0  0  0  0  0  0  0  0  0
   -4.3824   -3.2688   -0.1085 C   0  0  0  0  0  0  0  0  0  0  0  0
   -4.2656   -4.3628   -0.0854 H   0  0  0  0  0  0  0  0  0  0  0  0
   -1.8204    1.1192   -1.6846 C   0  0  0  0  0  0  0  0  0  0  0  0
   -1.0804    0.6799   -2.7992 C   0  0  0  0  0  0  0  0  0  0  0  0
   -0.4918   -0.2491   -2.7304 H   0  0  0  0  0  0  0  0  0  0  0  0
   -1.0850    1.4320   -3.9824 C   0  0  0  0  0  0  0  0  0  0  0  0
   -0.4981    1.0893   -4.8473 H   0  0  0  0  0  0  0  0  0  0  0  0
   -1.8210    2.6255   -4.0538 C   0  0  0  0  0  0  0  0  0  0  0  0
   -1.8174    3.2199   -4.9802 H   0  0  0  0  0  0  0  0  0  0  0  0
   -2.5608    3.0634   -2.9433 C   0  0  0  0  0  0  0  0  0  0  0  0
   -3.1420    3.9966   -2.9997 H   0  0  0  0  0  0  0  0  0  0  0  0
   -2.5655    2.3115   -1.7575 C   0  0  0  0  0  0  0  0  0  0  0  0
   -3.1452    2.6605   -0.8893 H   0  0  0  0  0  0  0  0  0  0  0  0
   -2.0191    1.2308    1.3945 C   0  0  0  0  0  0  0  0  0  0  0  0
   -2.6753    0.7678    2.5515 C   0  0  0  0  0  0  0  0  0  0  0  0
   -3.1293   -0.2356    2.5601 H   0  0  0  0  0  0  0  0  0  0  0  0
   -2.7509    1.5879    3.6877 C   0  0  0  0  0  0  0  0  0  0  0  0
   -3.2675    1.2232    4.5887 H   0  0  0  0  0  0  0  0  0  0  0  0
   -2.1721    2.8676    3.6759 C   0  0  0  0  0  0  0  0  0  0  0  0
   -2.2304    3.5071    4.5697 H   0  0  0  0  0  0  0  0  0  0  0  0
   -1.5162    3.3289    2.5239 C   0  0  0  0  0  0  0  0  0  0  0  0
   -1.0534    4.3271    2.5119 H   0  0  0  0  0  0  0  0  0  0  0  0
   -1.4363    2.5125    1.3863 C   0  0  0  0  0  0  0  0  0  0  0  0
   -0.9189    2.8782    0.4873 H   0  0  0  0  0  0  0  0  0  0  0  0
  1 24  1  0  0  0  0
  3  2  1  0  0  0  0
  4  1  1  0  0  0  0
  4  3  2  0  0  0  0
  5  4  1  0  0  0  0
  6  5  1  0  0  0  0
  7  5  2  0  0  0  0
  7  9  1  0  0  0  0
  8  7  1  0  0  0  0
  9 11  2  0  0  0  0
 10  9  1  0  0  0  0
 11  3  1  0  0  0  0
 11 12  1  0  0  0  0
 13  1  1  0  0  0  0
 14 15  1  0  0  0  0
 14 13  2  0  0  0  0
 16 14  1  0  0  0  0
 17 16  1  0  0  0  0
 18 16  2  0  0  0  0
 18 20  1  0  0  0  0
 19 18  1  0  0  0  0
 20 22  2  0  0  0  0
 21 20  1  0  0  0  0
 22 13  1  0  0  0  0
 22 23  1  0  0  0  0
 24 25  1  0  0  0  0
 25 26  1  0  0  0  0
 25 27  2  0  0  0  0
 27 28  1  0  0  0  0
 29 27  1  0  0  0  0
 29 30  1  0  0  0  0
 31 29  2  0  0  0  0
 32 31  1  0  0  0  0
 33 24  2  0  0  0  0
 33 31  1  0  0  0  0
 34 33  1  0  0  0  0
M  END
