1
q = 0.0, confidence = 0.988

 14 13  0  0  0  0  0  0  0  0999 V2000
    0.9195   -1.0358   -0.0000 S   0  0  0  0  0  0  0  0  0  0  0  0
    3.5215   -0.4891    0.0000 N   0  0  0  0  0  0  0  0  0  0  0  0
    1.8826    2.6409    0.0001 C   0  0  0  0  0  0  0  0  0  0  0  0
    1.6700    3.7016    0.0001 H   0  0  0  0  0  0  0  0  0  0  0  0
    2.0855    1.4317   -0.0000 C   0  0  0  0  0  0  0  0  0  0  0  0
    2.2580    0.0196   -0.0001 C   0  0  0  0  0  0  0  0  0  0  0  0
    3.7078   -1.9312    0.0001 C   0  0  0  0  0  0  0  0  0  0  0  0
    3.2295   -2.3887    0.8923 H   0  0  0  0  0  0  0  0  0  0  0  0
    4.7894   -2.1553   -0.0000 H   0  0  0  0  0  0  0  0  0  0  0  0
    3.2292   -2.3888   -0.8919 H   0  0  0  0  0  0  0  0  0  0  0  0
    4.7119    0.3475   -0.0000 C   0  0  0  0  0  0  0  0  0  0  0  0
    5.3287    0.1451   -0.9012 H   0  0  0  0  0  0  0  0  0  0  0  0
    5.3291    0.1447    0.9008 H   0  0  0  0  0  0  0  0  0  0  0  0
    4.4210    1.4123    0.0002 H   0  0  0  0  0  0  0  0  0  0  0  0
  2  7  1  0  0  0  0
  3  4  1  0  0  0  0
  5  3  3  0  0  0  0
  6  5  1  0  0  0  0
  6  1  2  0  0  0  0
  6  2  1  0  0  0  0
  7  8  1  0  0  0  0
  9  7  1  0  0  0  0
 10  7  1  0  0  0  0
 11  2  1  0  0  0  0
 11 14  1  0  0  0  0
 11 13  1  0  0  0  0
 12 11  1  0  0  0  0
M  END
