1
q = -1.0

  8  7  0  0  0  0  0  0  0  0999 V2000
    3.0472   -1.6983   -1.6953 S   0  0  0  0  0  1  0  0  0  0  0  0
    5.5100    0.1422   -0.8792 F   0  0  0  0  0  0  0  0  0  0  0  0
    5.7137   -0.6363    1.1503 F   0  0  0  0  0  0  0  0  0  0  0  0
    3.9257    0.4777    0.5819 F   0  0  0  0  0  0  0  0  0  0  0  0
    4.1940   -1.7556   -0.2643 C   0  0  0  0  0  0  0  0  0  0  0  0
    3.7147   -2.1778    0.6402 H   0  0  0  0  0  0  0  0  0  0  0  0
    5.0238   -2.4339   -0.5484 H   0  0  0  0  0  0  0  0  0  0  0  0
    4.8338   -0.4361    0.1305 C   0  0  0  0  0  0  0  0  0  0  0  0
  1  5  1  0  0  0  0
  2  8  1  0  0  0  0
  5  8  1  0  0  0  0
  5  6  1  0  0  0  0
  7  5  1  0  0  0  0
  8  4  1  0  0  0  0
  8  3  1  0  0  0  0
M  END
