1
q = -1.0, confidence = 0.0

 30 30  0  0  0  0  0  0  0  0999 V2000
   -0.1743    0.2981    0.1260 S   0  0  0  0  0  1  0  0  0  0  0  0
   -4.4705   -1.4125    0.2697 Si  0  0  0  0  0  0  0  0  0  0  0  0
   -3.3248    3.1995    0.7624 O   0  0  0  0  0  0  0  0  0  0  0  0
   -0.0974    1.9846   -0.4238 C   0  0  0  0  0  0  0  0  0  0  0  0
   -1.2387    2.8432   -0.3257 C   0  0  0  0  0  0  0  0  0  0  0  0
    1.1155    2.5422   -0.8963 C   0  0  0  0  0  0  0  0  0  0  0  0
    1.9932    1.8817   -0.9558 H   0  0  0  0  0  0  0  0  0  0  0  0
   -6.2274   -1.7504    0.8845 C   0  0  0  0  0  0  0  0  0  0  0  0
   -6.3293   -1.4832    1.9565 H   0  0  0  0  0  0  0  0  0  0  0  0
   -6.4910   -2.8227    0.7758 H   0  0  0  0  0  0  0  0  0  0  0  0
   -6.9717   -1.1564    0.3155 H   0  0  0  0  0  0  0  0  0  0  0  0
   -2.5960    2.4109    0.1572 C   0  0  0  0  0  0  0  0  0  0  0  0
   -3.0527    1.0244   -0.1652 C   0  0  0  0  0  0  0  0  0  0  0  0
   -2.5374    0.5176   -0.9985 H   0  0  0  0  0  0  0  0  0  0  0  0
   -1.1014    4.2129   -0.6426 C   0  0  0  0  0  0  0  0  0  0  0  0
   -1.9914    4.8456   -0.5051 H   0  0  0  0  0  0  0  0  0  0  0  0
    1.2137    3.8921   -1.2458 C   0  0  0  0  0  0  0  0  0  0  0  0
    2.1746    4.2858   -1.6131 H   0  0  0  0  0  0  0  0  0  0  0  0
   -4.0255    0.3972    0.5398 C   0  0  0  0  0  0  0  0  0  0  0  0
   -4.4602    0.9810    1.3752 H   0  0  0  0  0  0  0  0  0  0  0  0
    0.1018    4.7440   -1.1139 C   0  0  0  0  0  0  0  0  0  0  0  0
    0.1774    5.8102   -1.3744 H   0  0  0  0  0  0  0  0  0  0  0  0
   -3.2188   -2.4457    1.2538 C   0  0  0  0  0  0  0  0  0  0  0  0
   -3.2916   -2.2298    2.3394 H   0  0  0  0  0  0  0  0  0  0  0  0
   -2.1855   -2.2000    0.9318 H   0  0  0  0  0  0  0  0  0  0  0  0
   -3.3850   -3.5333    1.1078 H   0  0  0  0  0  0  0  0  0  0  0  0
   -4.3260   -1.8430   -1.5701 C   0  0  0  0  0  0  0  0  0  0  0  0
   -4.5561   -2.9150   -1.7412 H   0  0  0  0  0  0  0  0  0  0  0  0
   -3.3010   -1.6558   -1.9504 H   0  0  0  0  0  0  0  0  0  0  0  0
   -5.0287   -1.2382   -2.1784 H   0  0  0  0  0  0  0  0  0  0  0  0
  2 19  1  0  0  0  0
  2  8  1  0  0  0  0
  2 23  1  0  0  0  0
  4  5  1  0  0  0  0
  4  1  1  0  0  0  0
  5 12  1  0  0  0  0
  6  4  2  0  0  0  0
  7  6  1  0  0  0  0
  8  9  1  0  0  0  0
 10  8  1  0  0  0  0
 11  8  1  0  0  0  0
 12  3  2  0  0  0  0
 13 12  1  0  0  0  0
 13 19  2  0  0  0  0
 14 13  1  0  0  0  0
 15 16  1  0  0  0  0
 15  5  2  0  0  0  0
 17 21  2  0  0  0  0
 17  6  1  0  0  0  0
 18 17  1  0  0  0  0
 19 20  1  0  0  0  0
 21 15  1  0  0  0  0
 22 21  1  0  0  0  0
 23 24  1  0  0  0  0
 25 23  1  0  0  0  0
 26 23  1  0  0  0  0
 27  2  1  0  0  0  0
 28 27  1  0  0  0  0
 29 27  1  0  0  0  0
 30 27  1  0  0  0  0
M  END
