1
q = 0.0, confidence = 1.0

 32 32  0  0  1  0  0  0  0  0999 V2000
    1.2352   -1.7801   -0.2232 S   0  0  0  0  0  1  0  0  0  0  0  0
    1.6553    2.6518   -0.7559 O   0  0  0  0  0  0  0  0  0  0  0  0
    0.8541    0.8091    0.3963 N   0  0  0  0  0  0  0  0  0  0  0  0
    3.0997    0.1227    0.0304 N   0  0  0  0  0  0  0  0  0  0  0  0
   -0.6203    2.7228   -0.0115 C   0  0  0  0  0  0  0  0  0  0  0  0
   -1.7968    1.9940    0.2638 C   0  0  0  0  0  0  0  0  0  0  0  0
   -3.0300    2.6521    0.3566 C   0  0  0  0  0  0  0  0  0  0  0  0
   -3.0982    4.0437    0.1890 C   0  0  0  0  0  0  0  0  0  0  0  0
   -1.9306    4.7763   -0.0914 C   0  0  0  0  0  0  0  0  0  0  0  0
   -0.7007    4.1198   -0.2033 C   0  0  0  0  0  0  0  0  0  0  0  0
    0.7293    2.0980   -0.1794 C   0  0  0  0  0  0  0  0  0  0  0  0
    1.7864   -0.1673    0.0762 C   0  0  1  0  0  3  0  0  0  0  0  0
    4.0530   -0.8879   -0.4595 C   0  0  0  0  0  0  0  0  0  0  0  0
    4.5713   -1.8254    0.6314 C   0  0  0  0  0  0  0  0  0  0  0  0
    3.6999    1.2763    0.7321 C   0  0  0  0  0  0  0  0  0  0  0  0
    4.5716    2.1672   -0.1460 C   0  0  0  0  0  0  0  0  0  0  0  0
   -0.0366    0.3814    0.6933 H   0  0  0  0  0  0  0  0  0  0  0  0
   -1.8047    0.8949    0.3615 H   0  0  0  0  0  0  0  0  0  0  0  0
   -3.9346    2.0556    0.5463 H   0  0  0  0  0  0  0  0  0  0  0  0
   -4.0667    4.5609    0.2668 H   0  0  0  0  0  0  0  0  0  0  0  0
   -1.9838    5.8666   -0.2303 H   0  0  0  0  0  0  0  0  0  0  0  0
    0.2224    4.6677   -0.4420 H   0  0  0  0  0  0  0  0  0  0  0  0
    3.5448   -1.4633   -1.2579 H   0  0  0  0  0  0  0  0  0  0  0  0
    4.8883   -0.3362   -0.9333 H   0  0  0  0  0  0  0  0  0  0  0  0
    5.2777   -2.5541    0.1875 H   0  0  0  0  0  0  0  0  0  0  0  0
    3.7402   -2.3926    1.0934 H   0  0  0  0  0  0  0  0  0  0  0  0
    5.1132   -1.2758    1.4270 H   0  0  0  0  0  0  0  0  0  0  0  0
    2.8827    1.8599    1.1861 H   0  0  0  0  0  0  0  0  0  0  0  0
    4.3002    0.8544    1.5694 H   0  0  0  0  0  0  0  0  0  0  0  0
    4.9280    3.0257    0.4567 H   0  0  0  0  0  0  0  0  0  0  0  0
    3.9821    2.5582   -0.9941 H   0  0  0  0  0  0  0  0  0  0  0  0
    5.4702    1.6410   -0.5250 H   0  0  0  0  0  0  0  0  0  0  0  0
  2 11  2  0  0  0  0
  3 17  1  0  0  0  0
  4 12  1  0  0  0  0
  4 15  1  0  0  0  0
  5  6  1  0  0  0  0
  6  7  2  0  0  0  0
  6 18  1  0  0  0  0
  7 19  1  0  0  0  0
  8 20  1  0  0  0  0
  8  7  1  0  0  0  0
  9  8  2  0  0  0  0
 10  9  1  0  0  0  0
 10  5  2  0  0  0  0
 11  5  1  0  0  0  0
 11  3  1  0  0  0  0
 12  1  1  1  0  0  0
 12  3  1  0  0  0  0
 13  4  1  0  0  0  0
 13 14  1  0  0  0  0
 14 26  1  0  0  0  0
 14 27  1  0  0  0  0
 15 28  1  0  0  0  0
 15 29  1  0  0  0  0
 16 30  1  0  0  0  0
 16 15  1  0  0  0  0
 21  9  1  0  0  0  0
 22 10  1  0  0  0  0
 23 13  1  0  0  0  0
 24 13  1  0  0  0  0
 25 14  1  0  0  0  0
 31 16  1  0  0  0  0
 32 16  1  0  0  0  0
M  END
