1
q = -1.0, confidence = 0.0

 16 15  0  0  0  0  0  0  0  0999 V2000
    1.7628    2.6660   -0.4400 S   0  0  0  0  0  1  0  0  0  0  0  0
   -1.2431    2.4529   -0.7029 S   0  0  0  0  0  0  0  0  0  0  0  0
   -1.1513    6.9050    0.6531 O   0  0  0  0  0  0  0  0  0  0  0  0
   -1.4903    6.9913    1.5604 H   0  0  0  0  0  0  0  0  0  0  0  0
    0.1405    4.7371   -0.8971 N   0  0  0  0  0  0  0  0  0  0  0  0
    0.1898    3.3878   -0.6942 C   0  0  0  0  0  0  0  0  0  0  0  0
    1.3164    5.5964   -0.8206 C   0  0  0  0  0  0  0  0  0  0  0  0
    1.7594    5.7698   -1.8271 H   0  0  0  0  0  0  0  0  0  0  0  0
    2.0838    5.1162   -0.1861 H   0  0  0  0  0  0  0  0  0  0  0  0
    1.0148    6.5619   -0.3741 H   0  0  0  0  0  0  0  0  0  0  0  0
   -1.1223    5.4011   -1.2182 C   0  0  0  0  0  0  0  0  0  0  0  0
   -1.7567    4.6829   -1.7758 H   0  0  0  0  0  0  0  0  0  0  0  0
   -0.8980    6.2705   -1.8716 H   0  0  0  0  0  0  0  0  0  0  0  0
   -1.8869    5.8708    0.0125 C   0  0  0  0  0  0  0  0  0  0  0  0
   -2.8963    6.2232   -0.3190 H   0  0  0  0  0  0  0  0  0  0  0  0
   -2.0433    4.9849    0.6708 H   0  0  0  0  0  0  0  0  0  0  0  0
  2  6  2  0  0  0  0
  3  4  1  0  0  0  0
  5  7  1  0  0  0  0
  5  6  1  0  0  0  0
  6  1  1  0  0  0  0
  7 10  1  0  0  0  0
  7  9  1  0  0  0  0
  8  7  1  0  0  0  0
 11  5  1  0  0  0  0
 11 14  1  0  0  0  0
 12 11  1  0  0  0  0
 13 11  1  0  0  0  0
 14  3  1  0  0  0  0
 14 16  1  0  0  0  0
 15 14  1  0  0  0  0
M  END
