1
q = 0.0, confidence = 0.986

 10 10  0  0  1  0  0  0  0  0999 V2000
   -1.7915   -0.9924    1.7205 S   0  0  0  0  0  1  0  0  0  0  0  0
   -3.6158    0.3393    0.0815 N   0  0  0  0  0  0  0  0  0  0  0  0
   -2.8960    0.9390   -0.4060 H   0  0  0  0  0  0  0  0  0  0  0  0
   -4.4967   -1.1492    1.3891 N   0  0  0  0  0  0  0  0  0  0  0  0
   -4.5595   -1.8922    2.0855 H   0  0  0  0  0  0  0  0  0  0  0  0
   -3.2987   -0.5803    1.0345 C   0  0  2  0  0  3  0  0  0  0  0  0
   -4.9771    0.3434   -0.1629 C   0  0  0  0  0  0  0  0  0  0  0  0
   -5.4292    1.0099   -0.9026 H   0  0  0  0  0  0  0  0  0  0  0  0
   -5.5424   -0.5930    0.6645 C   0  0  0  0  0  0  0  0  0  0  0  0
   -6.5815   -0.9060    0.7955 H   0  0  0  0  0  0  0  0  0  0  0  0
  2  6  1  0  0  0  0
  3  2  1  0  0  0  0
  4  5  1  0  0  0  0
  6  4  1  0  0  0  0
  6  1  1  1  0  0  0
  7  2  1  0  0  0  0
  7  9  2  0  0  0  0
  8  7  1  0  0  0  0
  9 10  1  0  0  0  0
  9  4  1  0  0  0  0
M  END
