1
q = 0.0, confidence = 1.0

 31 32  0  0  1  0  0  0  0  0999 V2000
   -0.7594   -1.7787   -0.7537 S   0  0  0  0  0  1  0  0  0  0  0  0
    0.8829   -1.3764   -0.6201 C   0  0  2  0  0  3  0  0  0  0  0  0
    1.3332    0.0692    0.2358 S   0  0  0  0  0  0  0  0  0  0  0  0
    3.1870    0.1647    0.0623 C   0  0  1  0  0  0  0  0  0  0  0  0
    3.6561   -0.5704   -1.1929 C   0  0  0  0  0  0  0  0  0  0  0  0
    3.2574   -2.0426   -1.1540 C   0  0  2  0  0  0  0  0  0  0  0  0
    1.8047   -2.1834   -1.2066 N   0  0  0  0  0  0  0  0  0  0  0  0
    3.5812    1.6256    0.0948 C   0  0  0  0  0  0  0  0  0  0  0  0
    2.9529    2.5783   -0.7342 C   0  0  0  0  0  0  0  0  0  0  0  0
    3.3744    3.9151   -0.7209 C   0  0  0  0  0  0  0  0  0  0  0  0
    4.4270    4.3168    0.1174 C   0  0  0  0  0  0  0  0  0  0  0  0
    5.0531    3.3759    0.9493 C   0  0  0  0  0  0  0  0  0  0  0  0
    4.6291    2.0387    0.9405 C   0  0  0  0  0  0  0  0  0  0  0  0
    3.8275   -2.5963    0.0075 O   0  0  0  0  0  0  0  0  0  0  0  0
    3.6541   -4.0042    0.1575 C   0  0  0  0  0  0  0  0  0  0  0  0
    4.3975   -4.4505    1.4011 C   0  0  0  0  0  0  0  0  0  0  0  0
    2.1062    2.2794   -1.3719 H   0  0  0  0  0  0  0  0  0  0  0  0
    2.8682    4.6503   -1.3644 H   0  0  0  0  0  0  0  0  0  0  0  0
    4.7529    5.3679    0.1296 H   0  0  0  0  0  0  0  0  0  0  0  0
    5.8716    3.6854    1.6166 H   0  0  0  0  0  0  0  0  0  0  0  0
    5.1149    1.3016    1.5995 H   0  0  0  0  0  0  0  0  0  0  0  0
    4.0424   -4.5281   -0.7513 H   0  0  0  0  0  0  0  0  0  0  0  0
    2.5693   -4.2497    0.2412 H   0  0  0  0  0  0  0  0  0  0  0  0
    4.2847   -5.5428    1.5464 H   0  0  0  0  0  0  0  0  0  0  0  0
    5.4772   -4.2163    1.3195 H   0  0  0  0  0  0  0  0  0  0  0  0
    3.9971   -3.9375    2.2977 H   0  0  0  0  0  0  0  0  0  0  0  0
    3.6047   -0.3589    0.9442 H   0  0  0  0  0  0  0  0  0  0  0  0
    4.7614   -0.5068   -1.2383 H   0  0  0  0  0  0  0  0  0  0  0  0
    3.2483   -0.0944   -2.1072 H   0  0  0  0  0  0  0  0  0  0  0  0
    3.6371   -2.5731   -2.0603 H   0  0  0  0  0  0  0  0  0  0  0  0
    1.4059   -2.9837   -1.7057 H   0  0  0  0  0  0  0  0  0  0  0  0
  2  1  1  6  0  0  0
  2  3  1  0  0  0  0
  4  8  1  0  0  0  0
  4  3  1  0  0  0  0
  4 27  1  1  0  0  0
  5  6  1  0  0  0  0
  5  4  1  0  0  0  0
  6 30  1  6  0  0  0
  6 14  1  0  0  0  0
  7  6  1  0  0  0  0
  7  2  1  0  0  0  0
  8 13  1  0  0  0  0
  9 10  1  0  0  0  0
  9  8  2  0  0  0  0
 10 11  2  0  0  0  0
 11 19  1  0  0  0  0
 11 12  1  0  0  0  0
 12 20  1  0  0  0  0
 13 12  2  0  0  0  0
 13 21  1  0  0  0  0
 14 15  1  0  0  0  0
 15 23  1  0  0  0  0
 15 16  1  0  0  0  0
 16 24  1  0  0  0  0
 16 26  1  0  0  0  0
 17  9  1  0  0  0  0
 18 10  1  0  0  0  0
 22 15  1  0  0  0  0
 25 16  1  0  0  0  0
 28  5  1  0  0  0  0
 29  5  1  0  0  0  0
 31  7  1  0  0  0  0
M  END
