1
q = 0.0, confidence = 0.998

 34 36  0  0  1  0  0  0  0  0999 V2000
    0.0107   -1.6731   -0.2572 S   0  0  0  0  0  1  0  0  0  0  0  0
    5.2517    1.9145    0.5837 O   0  0  0  0  0  0  0  0  0  0  0  0
    4.2600    1.7839    0.4581 H   0  0  0  0  0  0  0  0  0  0  0  0
    7.8518    1.8943    0.7213 O   0  0  0  0  0  0  0  0  0  0  0  0
    1.7154    0.4907   -0.0645 N   0  0  0  0  0  0  0  0  0  0  0  0
    0.9223    1.2184   -0.0830 H   0  0  0  0  0  0  0  0  0  0  0  0
    3.0341    0.7791   -0.0080 N   0  0  0  0  0  0  0  0  0  0  0  0
    2.7550   -1.4139   -0.1650 N   0  0  0  0  0  0  0  0  0  0  0  0
    1.4891   -0.8309   -0.1641 C   0  0  1  0  0  3  0  0  0  0  0  0
    3.6883   -0.3774   -0.0718 C   0  0  0  0  0  0  0  0  0  0  0  0
    5.1443   -0.4478   -0.0418 C   0  0  0  0  0  0  0  0  0  0  0  0
    5.8727   -1.6271   -0.3581 C   0  0  0  0  0  0  0  0  0  0  0  0
    5.3392   -2.5355   -0.6600 H   0  0  0  0  0  0  0  0  0  0  0  0
    7.2621   -1.6284   -0.3048 C   0  0  0  0  0  0  0  0  0  0  0  0
    7.8197   -2.5419   -0.5565 H   0  0  0  0  0  0  0  0  0  0  0  0
    7.9669   -0.4635    0.0641 C   0  0  0  0  0  0  0  0  0  0  0  0
    9.0640   -0.4847    0.1038 H   0  0  0  0  0  0  0  0  0  0  0  0
    7.2765    0.7166    0.3671 C   0  0  0  0  0  0  0  0  0  0  0  0
    5.8474    0.7486    0.3026 C   0  0  0  0  0  0  0  0  0  0  0  0
    2.9654   -2.8312   -0.1465 C   0  0  0  0  0  0  0  0  0  0  0  0
    2.7200   -3.5799   -1.3083 C   0  0  0  0  0  0  0  0  0  0  0  0
    2.3747   -3.0714   -2.2194 H   0  0  0  0  0  0  0  0  0  0  0  0
    2.9202   -4.9674   -1.2815 C   0  0  0  0  0  0  0  0  0  0  0  0
    2.7304   -5.5616   -2.1876 H   0  0  0  0  0  0  0  0  0  0  0  0
    3.3597   -5.5943   -0.1045 C   0  0  0  0  0  0  0  0  0  0  0  0
    3.5179   -6.6830   -0.0889 H   0  0  0  0  0  0  0  0  0  0  0  0
    3.5908   -4.8362    1.0550 C   0  0  0  0  0  0  0  0  0  0  0  0
    3.9272   -5.3276    1.9798 H   0  0  0  0  0  0  0  0  0  0  0  0
    3.3860   -3.4501    1.0418 C   0  0  0  0  0  0  0  0  0  0  0  0
    3.5587   -2.8402    1.9399 H   0  0  0  0  0  0  0  0  0  0  0  0
    9.2617    1.9468    0.8002 C   0  0  0  0  0  0  0  0  0  0  0  0
    9.7416    1.7255   -0.1803 H   0  0  0  0  0  0  0  0  0  0  0  0
    9.6627    1.2366    1.5589 H   0  0  0  0  0  0  0  0  0  0  0  0
    9.5201    2.9786    1.1021 H   0  0  0  0  0  0  0  0  0  0  0  0
  3  2  1  0  0  0  0
  4 31  1  0  0  0  0
  5  7  1  0  0  0  0
  6  5  1  0  0  0  0
  8  9  1  0  0  0  0
  8 20  1  0  0  0  0
  8 10  1  0  0  0  0
  9  1  1  1  0  0  0
  9  5  1  0  0  0  0
 10 11  1  0  0  0  0
 10  7  2  0  0  0  0
 11 19  1  0  0  0  0
 12 14  1  0  0  0  0
 12 11  2  0  0  0  0
 13 12  1  0  0  0  0
 14 16  2  0  0  0  0
 15 14  1  0  0  0  0
 16 17  1  0  0  0  0
 16 18  1  0  0  0  0
 18  4  1  0  0  0  0
 19 18  2  0  0  0  0
 19  2  1  0  0  0  0
 20 29  1  0  0  0  0
 21 23  1  0  0  0  0
 21 20  2  0  0  0  0
 22 21  1  0  0  0  0
 23 25  2  0  0  0  0
 24 23  1  0  0  0  0
 25 26  1  0  0  0  0
 25 27  1  0  0  0  0
 27 28  1  0  0  0  0
 29 27  2  0  0  0  0
 29 30  1  0  0  0  0
 31 34  1  0  0  0  0
 31 33  1  0  0  0  0
 32 31  1  0  0  0  0
M  END
