1
q = -1.0, confidence = 0.0

 26 26  0  0  0  0  0  0  0  0999 V2000
   -2.3286    2.0382   -0.5161 S   0  0  0  0  0  1  0  0  0  0  0  0
    2.1091   -2.6117   -1.4261 N   0  0  0  0  0  0  0  0  0  0  0  0
   -0.7027   -0.3836   -1.5282 N   0  0  0  0  0  2  0  0  0  0  0  0
   -2.0398   -0.5786   -1.4407 N   0  0  0  0  0  0  0  0  0  0  0  0
   -4.1780    0.2281   -1.1673 N   0  0  0  0  0  0  0  0  0  0  0  0
   -0.5876   -2.7484   -1.6101 N   0  0  0  0  0  4  0  0  0  0  0  0
   -1.5385   -2.7841   -1.2345 H   0  0  0  0  0  0  0  0  0  0  0  0
    0.0626   -3.5169   -1.4328 H   0  0  0  0  0  0  0  0  0  0  0  0
    3.5008   -0.2805   -2.1733 N   0  0  0  0  0  0  0  0  0  0  0  0
    3.4467   -2.5792   -1.4831 C   0  0  0  0  0  0  0  0  0  0  0  0
    3.9869   -3.5127   -1.2448 H   0  0  0  0  0  0  0  0  0  0  0  0
    4.1436   -1.4122   -1.8331 C   0  0  0  0  0  0  0  0  0  0  0  0
    5.2476   -1.3952   -1.8516 H   0  0  0  0  0  0  0  0  0  0  0  0
    2.1660   -0.3097   -2.1319 C   0  0  0  0  0  0  0  0  0  0  0  0
    1.6213    0.5966   -2.4409 H   0  0  0  0  0  0  0  0  0  0  0  0
    1.4531   -1.4655   -1.7230 C   0  0  0  0  0  0  0  0  0  0  0  0
   -0.0156   -1.5127   -1.6201 C   0  0  0  0  0  0  0  0  0  0  0  0
   -2.8198    0.4273   -1.0831 C   0  0  0  0  0  0  0  0  0  0  0  0
   -5.1395    1.1109   -0.5305 C   0  0  0  0  0  0  0  0  0  0  0  0
   -4.6985    1.5585    0.3809 H   0  0  0  0  0  0  0  0  0  0  0  0
   -6.0269    0.5172   -0.2314 H   0  0  0  0  0  0  0  0  0  0  0  0
   -5.4790    1.9295   -1.2044 H   0  0  0  0  0  0  0  0  0  0  0  0
   -4.6990   -0.9465   -1.8429 C   0  0  0  0  0  0  0  0  0  0  0  0
   -3.9334   -1.3401   -2.5347 H   0  0  0  0  0  0  0  0  0  0  0  0
   -5.6147   -0.6766   -2.4080 H   0  0  0  0  0  0  0  0  0  0  0  0
   -4.9572   -1.7559   -1.1206 H   0  0  0  0  0  0  0  0  0  0  0  0
  3  4  1  0  0  0  0
  4 18  2  0  0  0  0
  5 18  1  0  0  0  0
  5 19  1  0  0  0  0
  6  8  1  0  0  0  0
  6  7  1  0  0  0  0
  9 14  2  0  0  0  0
  9 12  1  0  0  0  0
 10  2  1  0  0  0  0
 10 11  1  0  0  0  0
 12 10  2  0  0  0  0
 13 12  1  0  0  0  0
 14 16  1  0  0  0  0
 15 14  1  0  0  0  0
 16 17  1  0  0  0  0
 16  2  2  0  0  0  0
 17  6  2  0  0  0  0
 17  3  1  0  0  0  0
 18  1  1  0  0  0  0
 19 21  1  0  0  0  0
 19 20  1  0  0  0  0
 22 19  1  0  0  0  0
 23  5  1  0  0  0  0
 23 26  1  0  0  0  0
 24 23  1  0  0  0  0
 25 23  1  0  0  0  0
M  END
