1
q = -1.0

 27 27  0  0  0  0  0  0  0  0999 V2000
   -2.3277    2.0649   -0.5281 S   0  0  0  0  0  1  0  0  0  0  0  0
    2.0767   -2.6028   -1.4191 N   0  0  0  0  0  0  0  0  0  0  0  0
   -0.7308   -0.3760   -1.5135 N   0  0  0  0  0  2  0  0  0  0  0  0
   -2.0720   -0.5587   -1.4270 N   0  0  0  0  0  0  0  0  0  0  0  0
   -4.2058    0.2640   -1.2122 N   0  0  0  0  0  0  0  0  0  0  0  0
   -0.6176   -2.7412   -1.5837 N   0  0  0  0  0  4  0  0  0  0  0  0
   -1.5513   -2.7837   -1.1670 H   0  0  0  0  0  0  0  0  0  0  0  0
    0.0485   -3.4991   -1.4134 H   0  0  0  0  0  0  0  0  0  0  0  0
    3.4139   -2.6146   -1.4991 C   0  0  0  0  0  0  0  0  0  0  0  0
    3.9119   -3.5644   -1.2335 H   0  0  0  0  0  0  0  0  0  0  0  0
    4.1754   -1.5032   -1.8935 C   0  0  0  0  0  0  0  0  0  0  0  0
    5.2728   -1.5674   -1.9350 H   0  0  0  0  0  0  0  0  0  0  0  0
    3.4960   -0.3254   -2.2447 C   0  0  0  0  0  0  0  0  0  0  0  0
    4.0482    0.5691   -2.5692 H   0  0  0  0  0  0  0  0  0  0  0  0
    2.1006   -0.3023   -2.1803 C   0  0  0  0  0  0  0  0  0  0  0  0
    1.5240    0.5853   -2.4711 H   0  0  0  0  0  0  0  0  0  0  0  0
    1.4251   -1.4588   -1.7366 C   0  0  0  0  0  0  0  0  0  0  0  0
   -0.0481   -1.5059   -1.6063 C   0  0  0  0  0  0  0  0  0  0  0  0
   -2.8441    0.4544   -1.0894 C   0  0  0  0  0  0  0  0  0  0  0  0
   -4.7055   -0.9581   -1.8133 C   0  0  0  0  0  0  0  0  0  0  0  0
   -4.8947   -1.7466   -1.0475 H   0  0  0  0  0  0  0  0  0  0  0  0
   -3.9588   -1.3511   -2.5259 H   0  0  0  0  0  0  0  0  0  0  0  0
   -5.6588   -0.7440   -2.3392 H   0  0  0  0  0  0  0  0  0  0  0  0
   -5.2000    1.1196   -0.6024 C   0  0  0  0  0  0  0  0  0  0  0  0
   -4.7039    1.9326   -0.0413 H   0  0  0  0  0  0  0  0  0  0  0  0
   -5.8359    0.5381    0.1038 H   0  0  0  0  0  0  0  0  0  0  0  0
   -5.8675    1.5746   -1.3678 H   0  0  0  0  0  0  0  0  0  0  0  0
  3  4  1  0  0  0  0
  4 19  2  0  0  0  0
  5 19  1  0  0  0  0
  5 24  1  0  0  0  0
  6  8  1  0  0  0  0
  6  7  1  0  0  0  0
  9  2  1  0  0  0  0
  9 10  1  0  0  0  0
 11  9  2  0  0  0  0
 12 11  1  0  0  0  0
 13 15  2  0  0  0  0
 13 11  1  0  0  0  0
 14 13  1  0  0  0  0
 15 17  1  0  0  0  0
 16 15  1  0  0  0  0
 17 18  1  0  0  0  0
 17  2  2  0  0  0  0
 18  6  2  0  0  0  0
 18  3  1  0  0  0  0
 19  1  1  0  0  0  0
 20  5  1  0  0  0  0
 20 21  1  0  0  0  0
 22 20  1  0  0  0  0
 23 20  1  0  0  0  0
 24 25  1  0  0  0  0
 24 26  1  0  0  0  0
 27 24  1  0  0  0  0
M  END
