1
q = -1.0, confidence = 0.0

 17 16  0  0  0  0  0  0  0  0999 V2000
    1.7635   -1.5295   -0.0005 S   0  0  0  0  0  1  0  0  0  0  0  0
    1.2244    1.8936    0.0008 S   0  0  0  0  0  1  0  0  0  0  0  0
    2.5737    0.4195    0.0001 P   0  0  0  0  0  4  0  0  0  0  0  0
    3.7010    0.4898   -1.4612 C   0  0  0  0  0  0  0  0  0  0  0  0
    2.9564    0.4213   -2.7912 C   0  0  0  0  0  0  0  0  0  0  0  0
    3.7015    0.4888    1.4610 C   0  0  0  0  0  0  0  0  0  0  0  0
    2.9574    0.4193    2.7912 C   0  0  0  0  0  0  0  0  0  0  0  0
    4.4290   -0.3416   -1.3452 H   0  0  0  0  0  0  0  0  0  0  0  0
    4.2565    1.4464   -1.3521 H   0  0  0  0  0  0  0  0  0  0  0  0
    3.6607    0.5159   -3.6413 H   0  0  0  0  0  0  0  0  0  0  0  0
    2.4190   -0.5430   -2.8887 H   0  0  0  0  0  0  0  0  0  0  0  0
    2.2104    1.2382   -2.8575 H   0  0  0  0  0  0  0  0  0  0  0  0
    4.2569    1.4454    1.3523 H   0  0  0  0  0  0  0  0  0  0  0  0
    4.4295   -0.3425    1.3441 H   0  0  0  0  0  0  0  0  0  0  0  0
    3.6619    0.5133    3.6411 H   0  0  0  0  0  0  0  0  0  0  0  0
    2.2114    1.2362    2.8583 H   0  0  0  0  0  0  0  0  0  0  0  0
    2.4200   -0.5451    2.8882 H   0  0  0  0  0  0  0  0  0  0  0  0
  1  3  1  0  0  0  0
  3  2  1  0  0  0  0
  3  6  1  0  0  0  0
  4  9  1  0  0  0  0
  4  8  1  0  0  0  0
  4  3  1  0  0  0  0
  5  4  1  0  0  0  0
  6  7  1  0  0  0  0
  7 16  1  0  0  0  0
  7 17  1  0  0  0  0
  7 15  1  0  0  0  0
 10  5  1  0  0  0  0
 11  5  1  0  0  0  0
 12  5  1  0  0  0  0
 13  6  1  0  0  0  0
 14  6  1  0  0  0  0
M  END
