1
q = -1.0

 12 11  0  0  0  0  0  0  0  0999 V2000
    1.7091    1.1024    0.3882 S   0  0  0  0  0  1  0  0  0  0  0  0
    3.8539    3.2159    0.0443 N   0  0  0  0  0  0  0  0  0  0  0  0
    5.4349    1.6806   -0.5988 O   0  0  0  0  0  0  0  0  0  0  0  0
    3.1255    1.0326   -0.7863 C   0  0  0  0  0  0  0  0  0  0  0  0
    4.2572    1.9953   -0.4249 C   0  0  0  0  0  0  0  0  0  0  0  0
    4.7929    4.2386    0.4470 C   0  0  0  0  0  0  0  0  0  0  0  0
    2.8611    3.3165    0.2762 H   0  0  0  0  0  0  0  0  0  0  0  0
    2.7718    1.2658   -1.8107 H   0  0  0  0  0  0  0  0  0  0  0  0
    3.5435    0.0094   -0.8104 H   0  0  0  0  0  0  0  0  0  0  0  0
    4.6159    5.1926   -0.0931 H   0  0  0  0  0  0  0  0  0  0  0  0
    4.7436    4.4393    1.5389 H   0  0  0  0  0  0  0  0  0  0  0  0
    5.8061    3.8681    0.1992 H   0  0  0  0  0  0  0  0  0  0  0  0
  2  7  1  0  0  0  0
  2  6  1  0  0  0  0
  3  5  2  0  0  0  0
  4  5  1  0  0  0  0
  4  1  1  0  0  0  0
  5  2  1  0  0  0  0
  6 11  1  0  0  0  0
  8  4  1  0  0  0  0
  9  4  1  0  0  0  0
 10  6  1  0  0  0  0
 12  6  1  0  0  0  0
M  END
