1
q = 0.0, confidence = 0.99

 23 22  0  0  0  0  0  0  0  0999 V2000
    1.3413    0.6764   -1.3094 S   0  0  0  0  0  0  0  0  0  0  0  0
    2.4145    1.6211   -0.4956 O   0  0  0  0  0  0  0  0  0  0  0  0
   -0.0802    1.5652   -1.2123 O   0  0  0  0  0  0  0  0  0  0  0  0
    2.4227    1.6103    0.9804 C   0  0  0  0  0  0  0  0  0  0  0  0
    3.7959    1.1260    1.4101 C   0  0  0  0  0  0  0  0  0  0  0  0
    2.0416    3.0060    1.4461 C   0  0  0  0  0  0  0  0  0  0  0  0
   -0.3785    2.4089   -2.3664 C   0  0  0  0  0  0  0  0  0  0  0  0
   -1.4156    3.4024   -1.8643 C   0  0  0  0  0  0  0  0  0  0  0  0
   -0.8683    1.5449   -3.5216 C   0  0  0  0  0  0  0  0  0  0  0  0
    1.6456    0.8825    1.3066 H   0  0  0  0  0  0  0  0  0  0  0  0
    3.8553    1.0834    2.5164 H   0  0  0  0  0  0  0  0  0  0  0  0
    4.5874    1.8095    1.0418 H   0  0  0  0  0  0  0  0  0  0  0  0
    3.9773    0.1122    1.0021 H   0  0  0  0  0  0  0  0  0  0  0  0
    2.0342    3.0478    2.5542 H   0  0  0  0  0  0  0  0  0  0  0  0
    1.0311    3.2676    1.0777 H   0  0  0  0  0  0  0  0  0  0  0  0
    2.7666    3.7589    1.0760 H   0  0  0  0  0  0  0  0  0  0  0  0
    0.5526    2.9486   -2.6545 H   0  0  0  0  0  0  0  0  0  0  0  0
   -1.7229    4.0863   -2.6801 H   0  0  0  0  0  0  0  0  0  0  0  0
   -1.0092    4.0073   -1.0305 H   0  0  0  0  0  0  0  0  0  0  0  0
   -2.3108    2.8583   -1.5012 H   0  0  0  0  0  0  0  0  0  0  0  0
   -1.1249    2.1697   -4.4003 H   0  0  0  0  0  0  0  0  0  0  0  0
   -1.7657    0.9732   -3.2105 H   0  0  0  0  0  0  0  0  0  0  0  0
   -0.0869    0.8229   -3.8336 H   0  0  0  0  0  0  0  0  0  0  0  0
  1  3  1  0  0  0  0
  1  2  1  0  0  0  0
  2  4  1  0  0  0  0
  4 10  1  0  0  0  0
  4  5  1  0  0  0  0
  4  6  1  0  0  0  0
  5 11  1  0  0  0  0
  6 14  1  0  0  0  0
  7  8  1  0  0  0  0
  7  3  1  0  0  0  0
  8 20  1  0  0  0  0
  8 19  1  0  0  0  0
  9 22  1  0  0  0  0
  9  7  1  0  0  0  0
 12  5  1  0  0  0  0
 13  5  1  0  0  0  0
 15  6  1  0  0  0  0
 16  6  1  0  0  0  0
 17  7  1  0  0  0  0
 18  8  1  0  0  0  0
 21  9  1  0  0  0  0
 23  9  1  0  0  0  0
M  END
