1
q = -1.0

 23 24  0  0  0  0  0  0  0  0999 V2000
    0.2621   -2.5167   -0.0247 S   0  0  0  0  0  1  0  0  0  0  0  0
    2.2637    4.2577    0.3022 O   0  0  0  0  0  0  0  0  0  0  0  0
    1.4559    4.7863    0.4133 H   0  0  0  0  0  0  0  0  0  0  0  0
    5.5219    1.8227   -0.0073 N   0  0  0  0  0  0  0  0  0  0  0  0
    4.1642   -0.1448   -0.0564 C   0  0  0  0  0  0  0  0  0  0  0  0
    4.3949    2.5573    0.0978 C   0  0  0  0  0  0  0  0  0  0  0  0
    4.5187    3.6499    0.1587 H   0  0  0  0  0  0  0  0  0  0  0  0
    2.9729    0.6047    0.0517 C   0  0  0  0  0  0  0  0  0  0  0  0
    5.4294    0.4877   -0.0845 C   0  0  0  0  0  0  0  0  0  0  0  0
    1.8826    2.8988    0.2510 C   0  0  0  0  0  0  0  0  0  0  0  0
    1.2055    2.6896   -0.6184 H   0  0  0  0  0  0  0  0  0  0  0  0
    1.3079    2.5913    1.1639 H   0  0  0  0  0  0  0  0  0  0  0  0
    4.1299   -1.5069   -0.1364 O   0  0  0  0  0  0  0  0  0  0  0  0
    6.6878   -0.3263   -0.2011 C   0  0  0  0  0  0  0  0  0  0  0  0
    7.5567    0.3559   -0.2052 H   0  0  0  0  0  0  0  0  0  0  0  0
    6.6895   -0.9344   -1.1292 H   0  0  0  0  0  0  0  0  0  0  0  0
    6.7831   -1.0432    0.6404 H   0  0  0  0  0  0  0  0  0  0  0  0
    2.9523   -2.2607   -0.1216 C   0  0  0  0  0  0  0  0  0  0  0  0
    3.0509   -3.4649   -0.1913 O   0  0  0  0  0  0  0  0  0  0  0  0
    1.7285   -0.1122    0.0709 C   0  0  0  0  0  0  0  0  0  0  0  0
    0.7820    0.4420    0.1592 H   0  0  0  0  0  0  0  0  0  0  0  0
    1.6837   -1.4892   -0.0198 C   0  0  0  0  0  0  0  0  0  0  0  0
    3.1039    2.0206    0.1327 C   0  0  0  0  0  0  0  0  0  0  0  0
  1 22  1  0  0  0  0
  2  3  1  0  0  0  0
  4  6  1  0  0  0  0
  5  8  2  0  0  0  0
  6 23  2  0  0  0  0
  6  7  1  0  0  0  0
  8 20  1  0  0  0  0
  8 23  1  0  0  0  0
  9  5  1  0  0  0  0
  9  4  2  0  0  0  0
 10  2  1  0  0  0  0
 10 12  1  0  0  0  0
 11 10  1  0  0  0  0
 13 18  1  0  0  0  0
 13  5  1  0  0  0  0
 14  9  1  0  0  0  0
 14 17  1  0  0  0  0
 15 14  1  0  0  0  0
 16 14  1  0  0  0  0
 18 22  1  0  0  0  0
 19 18  2  0  0  0  0
 20 21  1  0  0  0  0
 22 20  2  0  0  0  0
 23 10  1  0  0  0  0
M  END
