1
q = -1.0

 12 12  0  0  1  0  0  0  0  0999 V2000
   -0.9606    1.6782   -1.3969 S   0  0  0  0  0  1  0  0  0  0  0  0
   -4.4800    1.1717    2.0527 O   0  0  0  0  0  0  0  0  0  0  0  0
   -5.2786    1.5915    2.4246 H   0  0  0  0  0  0  0  0  0  0  0  0
   -4.4401    5.0559   -0.8182 O   0  0  0  0  0  0  0  0  0  0  0  0
   -5.2276    5.2991   -0.2961 H   0  0  0  0  0  0  0  0  0  0  0  0
   -2.8884    1.5041    0.4800 N   0  0  0  0  0  0  0  0  0  0  0  0
   -2.8827    3.4204   -0.9684 N   0  0  0  0  0  0  0  0  0  0  0  0
   -2.3751    2.2509   -0.5282 C   0  0  2  0  0  3  0  0  0  0  0  0
   -3.9803    1.9763    1.0779 C   0  0  0  0  0  0  0  0  0  0  0  0
   -4.5876    3.1952    0.7221 C   0  0  0  0  0  3  0  0  0  0  0  0
   -5.4836    3.5814    1.2329 H   0  0  0  0  0  0  0  0  0  0  0  0
   -3.9663    3.8789   -0.3504 C   0  0  0  0  0  0  0  0  0  0  0  0
  2  3  1  0  0  0  0
  4 12  1  0  0  0  0
  4  5  1  0  0  0  0
  6  9  2  0  0  0  0
  7  8  1  0  0  0  0
  7 12  2  0  0  0  0
  8  1  1  6  0  0  0
  8  6  1  0  0  0  0
  9  2  1  0  0  0  0
 10  9  1  0  0  0  0
 10 11  1  0  0  0  0
 12 10  1  0  0  0  0
M  END
