1
q = -1.0

 17 18  0  0  0  0  0  0  0  0999 V2000
   -1.9975   -1.8743   -0.0216 S   0  0  0  0  0  1  0  0  0  0  0  0
   -2.3428    1.1555    0.0422 S   0  0  0  0  0  0  0  0  0  0  0  0
   -4.3390   -0.6493    0.0052 N   0  0  0  0  0  0  0  0  0  0  0  0
   -4.7734   -1.9534   -0.0094 N   0  0  0  0  0  0  0  0  0  0  0  0
   -2.9500   -0.4073    0.0076 C   0  0  0  0  0  0  0  0  0  0  0  0
   -5.4272    0.2418    0.0124 C   0  0  0  0  0  0  0  0  0  0  0  0
   -5.5325    1.6464    0.0268 C   0  0  0  0  0  0  0  0  0  0  0  0
   -4.6310    2.2694    0.0367 H   0  0  0  0  0  0  0  0  0  0  0  0
   -6.8212    2.1941    0.0290 C   0  0  0  0  0  0  0  0  0  0  0  0
   -6.9282    3.2895    0.0404 H   0  0  0  0  0  0  0  0  0  0  0  0
   -7.9838    1.3874    0.0178 C   0  0  0  0  0  0  0  0  0  0  0  0
   -8.9752    1.8649    0.0205 H   0  0  0  0  0  0  0  0  0  0  0  0
   -7.8807   -0.0054    0.0036 C   0  0  0  0  0  0  0  0  0  0  0  0
   -8.7767   -0.6438   -0.0053 H   0  0  0  0  0  0  0  0  0  0  0  0
   -6.5940   -0.5796    0.0007 C   0  0  0  0  0  0  0  0  0  0  0  0
   -6.0898   -1.9255   -0.0122 C   0  0  0  0  0  0  0  0  0  0  0  0
   -6.6550   -2.8672   -0.0230 H   0  0  0  0  0  0  0  0  0  0  0  0
  1  5  1  0  0  0  0
  3  5  1  0  0  0  0
  3  6  1  0  0  0  0
  4  3  1  0  0  0  0
  5  2  2  0  0  0  0
  6  7  1  0  0  0  0
  7  9  2  0  0  0  0
  7  8  1  0  0  0  0
  9 10  1  0  0  0  0
 11 12  1  0  0  0  0
 11  9  1  0  0  0  0
 13 11  2  0  0  0  0
 14 13  1  0  0  0  0
 15 13  1  0  0  0  0
 15  6  2  0  0  0  0
 16  4  2  0  0  0  0
 16 15  1  0  0  0  0
 17 16  1  0  0  0  0
M  END
