1
q = -1.0, confidence = 0.018

 49 52  0  0  0  0  0  0  0  0999 V2000
   -0.8103   -1.4876   -1.8137 S   0  0  0  0  0  1  0  0  0  0  0  0
    0.2537   -1.2568   -0.0115 P   0  0  0  0  0  4  0  0  0  0  0  0
    1.2778    1.5097   -0.1187 P   0  0  0  0  0  0  0  0  0  0  0  0
    0.6564    2.2005   -1.3572 O   0  0  0  0  0  0  0  0  0  0  0  0
    0.4559    0.2408    0.5516 N   0  0  0  0  0  2  0  0  0  0  0  0
   -0.7245   -2.1068    1.2829 C   0  0  0  0  0  0  0  0  0  0  0  0
   -1.1383   -1.3932    2.4247 C   0  0  0  0  0  0  0  0  0  0  0  0
   -1.9582   -2.0195    3.3792 C   0  0  0  0  0  0  0  0  0  0  0  0
   -2.3557   -3.3556    3.2003 C   0  0  0  0  0  0  0  0  0  0  0  0
   -1.9301   -4.0718    2.0663 C   0  0  0  0  0  0  0  0  0  0  0  0
   -1.1181   -3.4501    1.1049 C   0  0  0  0  0  0  0  0  0  0  0  0
    1.7712   -2.2360   -0.2499 C   0  0  0  0  0  0  0  0  0  0  0  0
    2.4315   -2.2282   -1.4952 C   0  0  0  0  0  0  0  0  0  0  0  0
    3.6643   -2.8795   -1.6307 C   0  0  0  0  0  0  0  0  0  0  0  0
    4.2384   -3.5392   -0.5320 C   0  0  0  0  0  0  0  0  0  0  0  0
    3.5818   -3.5461    0.7091 C   0  0  0  0  0  0  0  0  0  0  0  0
    2.3503   -2.8924    0.8561 C   0  0  0  0  0  0  0  0  0  0  0  0
    2.9725    0.9864   -0.5448 C   0  0  0  0  0  0  0  0  0  0  0  0
    3.4291    1.1872   -1.8610 C   0  0  0  0  0  0  0  0  0  0  0  0
    4.7121    0.7530   -2.2289 C   0  0  0  0  0  0  0  0  0  0  0  0
    5.5376    0.1223   -1.2852 C   0  0  0  0  0  0  0  0  0  0  0  0
    5.0831   -0.0754    0.0304 C   0  0  0  0  0  0  0  0  0  0  0  0
    3.8037    0.3557    0.4030 C   0  0  0  0  0  0  0  0  0  0  0  0
    1.3915    2.7004    1.2516 C   0  0  0  0  0  0  0  0  0  0  0  0
    1.4199    2.2862    2.5982 C   0  0  0  0  0  0  0  0  0  0  0  0
    1.5393    3.2397    3.6201 C   0  0  0  0  0  0  0  0  0  0  0  0
    1.6264    4.6053    3.3016 C   0  0  0  0  0  0  0  0  0  0  0  0
    1.5908    5.0201    1.9600 C   0  0  0  0  0  0  0  0  0  0  0  0
    1.4737    4.0709    0.9339 C   0  0  0  0  0  0  0  0  0  0  0  0
   -0.8109   -0.3477    2.5347 H   0  0  0  0  0  0  0  0  0  0  0  0
   -2.2790   -1.4650    4.2743 H   0  0  0  0  0  0  0  0  0  0  0  0
   -2.9922   -3.8463    3.9520 H   0  0  0  0  0  0  0  0  0  0  0  0
   -2.2317   -5.1214    1.9315 H   0  0  0  0  0  0  0  0  0  0  0  0
   -0.7969   -3.9999    0.2065 H   0  0  0  0  0  0  0  0  0  0  0  0
    1.9832   -1.7035   -2.3521 H   0  0  0  0  0  0  0  0  0  0  0  0
    4.1828   -2.8661   -2.6005 H   0  0  0  0  0  0  0  0  0  0  0  0
    5.2063   -4.0506   -0.6433 H   0  0  0  0  0  0  0  0  0  0  0  0
    4.0310   -4.0646    1.5694 H   0  0  0  0  0  0  0  0  0  0  0  0
    1.8397   -2.8929    1.8314 H   0  0  0  0  0  0  0  0  0  0  0  0
    2.7637    1.6868   -2.5810 H   0  0  0  0  0  0  0  0  0  0  0  0
    5.0712    0.9125   -3.2570 H   0  0  0  0  0  0  0  0  0  0  0  0
    6.5444   -0.2156   -1.5738 H   0  0  0  0  0  0  0  0  0  0  0  0
    5.7306   -0.5716    0.7686 H   0  0  0  0  0  0  0  0  0  0  0  0
    3.4477    0.1961    1.4322 H   0  0  0  0  0  0  0  0  0  0  0  0
    1.3407    1.2143    2.8356 H   0  0  0  0  0  0  0  0  0  0  0  0
    1.5649    2.9173    4.6722 H   0  0  0  0  0  0  0  0  0  0  0  0
    1.7231    5.3513    4.1049 H   0  0  0  0  0  0  0  0  0  0  0  0
    1.6569    6.0904    1.7124 H   0  0  0  0  0  0  0  0  0  0  0  0
    1.4389    4.3783   -0.1224 H   0  0  0  0  0  0  0  0  0  0  0  0
  1  2  1  0  0  0  0
  2  5  1  0  0  0  0
  2  6  1  0  0  0  0
  3  5  1  0  0  0  0
  3 24  1  0  0  0  0
  4  3  2  0  0  0  0
  6  7  1  0  0  0  0
  7 30  1  0  0  0  0
  7  8  2  0  0  0  0
  8 31  1  0  0  0  0
  9  8  1  0  0  0  0
  9 32  1  0  0  0  0
 10  9  2  0  0  0  0
 11  6  2  0  0  0  0
 11 10  1  0  0  0  0
 12  2  1  0  0  0  0
 12 17  1  0  0  0  0
 13 12  2  0  0  0  0
 14 13  1  0  0  0  0
 14 15  2  0  0  0  0
 15 16  1  0  0  0  0
 16 17  2  0  0  0  0
 16 38  1  0  0  0  0
 17 39  1  0  0  0  0
 18  3  1  0  0  0  0
 18 23  1  0  0  0  0
 19 18  2  0  0  0  0
 20 19  1  0  0  0  0
 20 21  2  0  0  0  0
 21 22  1  0  0  0  0
 22 23  2  0  0  0  0
 22 43  1  0  0  0  0
 23 44  1  0  0  0  0
 24 25  1  0  0  0  0
 25 45  1  0  0  0  0
 25 26  2  0  0  0  0
 26 46  1  0  0  0  0
 27 26  1  0  0  0  0
 27 47  1  0  0  0  0
 28 27  2  0  0  0  0
 29 24  2  0  0  0  0
 29 28  1  0  0  0  0
 33 10  1  0  0  0  0
 34 11  1  0  0  0  0
 35 13  1  0  0  0  0
 36 14  1  0  0  0  0
 37 15  1  0  0  0  0
 40 19  1  0  0  0  0
 41 20  1  0  0  0  0
 42 21  1  0  0  0  0
 48 28  1  0  0  0  0
 49 29  1  0  0  0  0
M  END
