1
q = -1.0

 29 30  0  0  0  0  0  0  0  0999 V2000
    0.7796   -2.4289    0.1834 S   0  0  0  0  0  1  0  0  0  0  0  0
   -7.0342    0.2102    0.6628 O   0  0  0  0  0  0  0  0  0  0  0  0
   -5.5605    1.3993   -0.6462 O   0  0  0  0  0  0  0  0  0  0  0  0
   -3.1476   -1.1789   -0.1225 N   0  0  0  0  0  0  0  0  0  0  0  0
   -0.9802   -2.1132    0.6373 C   0  0  0  0  0  0  0  0  0  0  0  0
   -1.4137   -3.0928    0.9234 H   0  0  0  0  0  0  0  0  0  0  0  0
   -0.9949   -1.4654    1.5385 H   0  0  0  0  0  0  0  0  0  0  0  0
   -1.7786   -1.4930   -0.5118 C   0  0  0  0  0  0  0  0  0  0  0  0
   -1.2322   -0.5926   -0.8974 H   0  0  0  0  0  0  0  0  0  0  0  0
   -1.8077   -2.2180   -1.3516 H   0  0  0  0  0  0  0  0  0  0  0  0
   -4.0819   -1.1633   -1.2429 C   0  0  0  0  0  0  0  0  0  0  0  0
   -3.9570   -2.1026   -1.8205 H   0  0  0  0  0  0  0  0  0  0  0  0
   -3.8728   -0.3139   -1.9481 H   0  0  0  0  0  0  0  0  0  0  0  0
   -5.5256   -1.0437   -0.7502 C   0  0  0  0  0  0  0  0  0  0  0  0
   -6.2296   -0.9837   -1.6051 H   0  0  0  0  0  0  0  0  0  0  0  0
   -5.7970   -1.9336   -0.1467 H   0  0  0  0  0  0  0  0  0  0  0  0
   -5.7024    0.1984    0.1296 C   0  0  0  0  0  0  0  0  0  0  0  0
   -4.6514    0.2167    1.2398 C   0  0  0  0  0  0  0  0  0  0  0  0
   -4.8753   -0.6194    1.9323 H   0  0  0  0  0  0  0  0  0  0  0  0
   -4.7378    1.1705    1.7976 H   0  0  0  0  0  0  0  0  0  0  0  0
   -3.2453    0.0498    0.6621 C   0  0  0  0  0  0  0  0  0  0  0  0
   -2.9945    0.9500    0.0388 H   0  0  0  0  0  0  0  0  0  0  0  0
   -2.4993    0.0205    1.4810 H   0  0  0  0  0  0  0  0  0  0  0  0
   -7.6229    1.4636    0.3493 C   0  0  0  0  0  0  0  0  0  0  0  0
   -7.4664    2.2084    1.1670 H   0  0  0  0  0  0  0  0  0  0  0  0
   -8.7130    1.3233    0.2001 H   0  0  0  0  0  0  0  0  0  0  0  0
   -6.8700    1.8746   -0.9149 C   0  0  0  0  0  0  0  0  0  0  0  0
   -7.3113    1.3895   -1.8195 H   0  0  0  0  0  0  0  0  0  0  0  0
   -6.8237    2.9690   -1.0840 H   0  0  0  0  0  0  0  0  0  0  0  0
  1  5  1  0  0  0  0
  3 17  1  0  0  0  0
  4 21  1  0  0  0  0
  5  6  1  0  0  0  0
  5  7  1  0  0  0  0
  8  4  1  0  0  0  0
  8  5  1  0  0  0  0
  9  8  1  0  0  0  0
 10  8  1  0  0  0  0
 11 14  1  0  0  0  0
 11  4  1  0  0  0  0
 12 11  1  0  0  0  0
 13 11  1  0  0  0  0
 14 16  1  0  0  0  0
 14 17  1  0  0  0  0
 15 14  1  0  0  0  0
 17  2  1  0  0  0  0
 17 18  1  0  0  0  0
 18 20  1  0  0  0  0
 18 19  1  0  0  0  0
 21 18  1  0  0  0  0
 21 23  1  0  0  0  0
 22 21  1  0  0  0  0
 24  2  1  0  0  0  0
 24 25  1  0  0  0  0
 26 24  1  0  0  0  0
 27  3  1  0  0  0  0
 27 24  1  0  0  0  0
 28 27  1  0  0  0  0
 29 27  1  0  0  0  0
M  END
