1
q = 0.0, confidence = 0.838

  3  2  0  0  0  0  0  0  0  0999 V2000
    0.7611    0.0000    2.2842 S   0  0  0  0  0  0  0  0  0  0  0  0
    0.0582    1.2695    2.6962 O   0  0  0  0  0  0  0  0  0  0  0  0
    0.0581   -1.2694    2.6962 O   0  0  0  0  0  0  0  0  0  0  0  0
  1  3  1  0  0  0  0
  1  2  1  0  0  0  0
M  END
