1
q = -1.0

 35 37  0  0  0  0  0  0  0  0999 V2000
   -1.1241   -0.9279   -1.1209 S   0  0  0  0  0  1  0  0  0  0  0  0
   -2.8800    0.0133   -0.3517 Si  0  0  0  0  0  0  0  0  0  0  0  0
   -3.5620   -0.6356    1.3069 C   0  0  0  0  0  0  0  0  0  0  0  0
   -4.5988   -1.5972    1.3104 C   0  0  0  0  0  0  0  0  0  0  0  0
   -5.1637   -2.0572    2.5123 C   0  0  0  0  0  0  0  0  0  0  0  0
   -4.7024   -1.5607    3.7428 C   0  0  0  0  0  0  0  0  0  0  0  0
   -3.6654   -0.6131    3.7618 C   0  0  0  0  0  0  0  0  0  0  0  0
   -3.1051   -0.1588    2.5573 C   0  0  0  0  0  0  0  0  0  0  0  0
   -2.6785    1.8996   -0.2030 C   0  0  0  0  0  0  0  0  0  0  0  0
   -3.4815    2.6781    0.6613 C   0  0  0  0  0  0  0  0  0  0  0  0
   -3.3779    4.0808    0.6819 C   0  0  0  0  0  0  0  0  0  0  0  0
   -2.4695    4.7307   -0.1692 C   0  0  0  0  0  0  0  0  0  0  0  0
   -1.6637    3.9711   -1.0350 C   0  0  0  0  0  0  0  0  0  0  0  0
   -1.7653    2.5717   -1.0466 C   0  0  0  0  0  0  0  0  0  0  0  0
   -4.2392   -0.3069   -1.6419 C   0  0  0  0  0  0  0  0  0  0  0  0
   -5.3703    0.5369   -1.7145 C   0  0  0  0  0  0  0  0  0  0  0  0
   -6.4072    0.2803   -2.6247 C   0  0  0  0  0  0  0  0  0  0  0  0
   -6.3297   -0.8282   -3.4837 C   0  0  0  0  0  0  0  0  0  0  0  0
   -5.2102   -1.6738   -3.4297 C   0  0  0  0  0  0  0  0  0  0  0  0
   -4.1749   -1.4134   -2.5175 C   0  0  0  0  0  0  0  0  0  0  0  0
   -4.9844   -1.9789    0.3514 H   0  0  0  0  0  0  0  0  0  0  0  0
   -5.9789   -2.7973    2.4867 H   0  0  0  0  0  0  0  0  0  0  0  0
   -5.1516   -1.9100    4.6854 H   0  0  0  0  0  0  0  0  0  0  0  0
   -3.2962   -0.2187    4.7216 H   0  0  0  0  0  0  0  0  0  0  0  0
   -2.2963    0.5859    2.5911 H   0  0  0  0  0  0  0  0  0  0  0  0
   -4.2004    2.1823    1.3336 H   0  0  0  0  0  0  0  0  0  0  0  0
   -4.0131    4.6688    1.3629 H   0  0  0  0  0  0  0  0  0  0  0  0
   -2.3900    5.8287   -0.1591 H   0  0  0  0  0  0  0  0  0  0  0  0
   -0.9576    4.4764   -1.7128 H   0  0  0  0  0  0  0  0  0  0  0  0
   -1.1267    1.9733   -1.7179 H   0  0  0  0  0  0  0  0  0  0  0  0
   -5.4405    1.4163   -1.0537 H   0  0  0  0  0  0  0  0  0  0  0  0
   -7.2793    0.9515   -2.6679 H   0  0  0  0  0  0  0  0  0  0  0  0
   -7.1414   -1.0298   -4.1999 H   0  0  0  0  0  0  0  0  0  0  0  0
   -5.1412   -2.5403   -4.1060 H   0  0  0  0  0  0  0  0  0  0  0  0
   -3.2892   -2.0687   -2.4829 H   0  0  0  0  0  0  0  0  0  0  0  0
  1  2  1  0  0  0  0
  2  9  1  0  0  0  0
  2  3  1  0  0  0  0
  3  4  2  0  0  0  0
  3  8  1  0  0  0  0
  4  5  1  0  0  0  0
  5  6  2  0  0  0  0
  6  7  1  0  0  0  0
  6 23  1  0  0  0  0
  7 24  1  0  0  0  0
  8 25  1  0  0  0  0
  8  7  2  0  0  0  0
  9 10  1  0  0  0  0
 10 11  2  0  0  0  0
 10 26  1  0  0  0  0
 11 27  1  0  0  0  0
 12 28  1  0  0  0  0
 12 11  1  0  0  0  0
 13 12  2  0  0  0  0
 14 13  1  0  0  0  0
 14  9  2  0  0  0  0
 15  2  1  0  0  0  0
 16 15  1  0  0  0  0
 16 31  1  0  0  0  0
 17 16  2  0  0  0  0
 18 19  2  0  0  0  0
 18 17  1  0  0  0  0
 19 20  1  0  0  0  0
 20 35  1  0  0  0  0
 20 15  2  0  0  0  0
 21  4  1  0  0  0  0
 22  5  1  0  0  0  0
 29 13  1  0  0  0  0
 30 14  1  0  0  0  0
 32 17  1  0  0  0  0
 33 18  1  0  0  0  0
 34 19  1  0  0  0  0
M  END
