1
q = -1.0, confidence = 0.0

 19 18  0  0  1  0  0  0  0  0999 V2000
    1.7973   -0.8362   -1.2285 S   0  0  0  0  0  1  0  0  0  0  0  0
    4.5984    0.0909    1.7229 N   0  0  0  0  0  0  0  0  0  0  0  0
    4.6300   -0.8666    2.0896 H   0  0  0  0  0  0  0  0  0  0  0  0
    4.5123    0.7184    2.5320 H   0  0  0  0  0  0  0  0  0  0  0  0
    5.5275    0.8975    0.4783 H   0  0  0  0  0  0  0  0  0  0  0  0
    5.2158    1.5534   -0.2337 O   0  0  0  0  0  0  0  0  0  0  0  0
    3.1270    2.2017   -0.7121 O   0  0  0  0  0  0  0  0  0  0  0  0
    3.1736   -1.0538    0.0107 C   0  0  0  0  0  0  0  0  0  0  0  0
    3.4681    0.2757    0.7874 C   0  0  2  0  0  0  0  0  0  0  0  0
    2.5172    0.5658    1.2886 H   0  0  0  0  0  0  0  0  0  0  0  0
    3.8937    1.4407   -0.1367 C   0  0  0  0  0  0  0  0  0  0  0  0
    2.7856   -2.1405    1.0300 C   0  0  0  0  0  0  0  0  0  0  0  0
    2.4840   -3.0579    0.4879 H   0  0  0  0  0  0  0  0  0  0  0  0
    1.9402   -1.8046    1.6635 H   0  0  0  0  0  0  0  0  0  0  0  0
    3.6260   -2.4321    1.7006 H   0  0  0  0  0  0  0  0  0  0  0  0
    4.3918   -1.5139   -0.8071 C   0  0  0  0  0  0  0  0  0  0  0  0
    5.2741   -1.6917   -0.1562 H   0  0  0  0  0  0  0  0  0  0  0  0
    4.6694   -0.7679   -1.5761 H   0  0  0  0  0  0  0  0  0  0  0  0
    4.1528   -2.4620   -1.3273 H   0  0  0  0  0  0  0  0  0  0  0  0
  1  8  1  0  0  0  0
  2  3  1  0  0  0  0
  2  4  1  0  0  0  0
  6 11  1  0  0  0  0
  6  5  1  0  0  0  0
  7 11  2  0  0  0  0
  8  9  1  0  0  0  0
  8 12  1  0  0  0  0
  9 10  1  1  0  0  0
  9  2  1  0  0  0  0
 11  9  1  0  0  0  0
 12 14  1  0  0  0  0
 12 15  1  0  0  0  0
 13 12  1  0  0  0  0
 16 17  1  0  0  0  0
 16  8  1  0  0  0  0
 18 16  1  0  0  0  0
 19 16  1  0  0  0  0
M  END
