1
q = -1.0

 17 16  0  0  0  0  0  0  0  0999 V2000
   -0.6968   -1.2219   -0.1544 S   0  0  0  0  0  1  0  0  0  0  0  0
   -7.1618    1.4945   -0.0023 O   0  0  0  0  0  0  0  0  0  0  0  0
   -8.3336   -0.4152   -0.3007 O   0  0  0  0  0  0  0  0  0  0  0  0
   -2.1086   -0.0402   -0.0072 C   0  0  0  0  0  0  0  0  0  0  0  0
   -3.4264   -0.7919   -0.1854 C   0  0  0  0  0  0  0  0  0  0  0  0
   -4.6435    0.1318   -0.0824 C   0  0  0  0  0  0  0  0  0  0  0  0
   -5.9651   -0.6117   -0.2533 C   0  0  0  0  0  0  0  0  0  0  0  0
   -7.1786    0.2894   -0.1673 C   0  0  0  0  0  0  0  0  0  0  0  0
   -9.0515    0.2514   -0.2334 H   0  0  0  0  0  0  0  0  0  0  0  0
   -2.0566    0.4521    0.9852 H   0  0  0  0  0  0  0  0  0  0  0  0
   -1.9965    0.7502   -0.7783 H   0  0  0  0  0  0  0  0  0  0  0  0
   -3.4961   -1.5980    0.5780 H   0  0  0  0  0  0  0  0  0  0  0  0
   -3.4244   -1.3073   -1.1714 H   0  0  0  0  0  0  0  0  0  0  0  0
   -4.5780    0.9376   -0.8441 H   0  0  0  0  0  0  0  0  0  0  0  0
   -4.6441    0.6551    0.8974 H   0  0  0  0  0  0  0  0  0  0  0  0
   -6.0101   -1.1427   -1.2298 H   0  0  0  0  0  0  0  0  0  0  0  0
   -6.0844   -1.4136    0.5079 H   0  0  0  0  0  0  0  0  0  0  0  0
  1  4  1  0  0  0  0
  3  9  1  0  0  0  0
  3  8  1  0  0  0  0
  4 10  1  0  0  0  0
  5  6  1  0  0  0  0
  5  4  1  0  0  0  0
  5 12  1  0  0  0  0
  6 15  1  0  0  0  0
  7  8  1  0  0  0  0
  7  6  1  0  0  0  0
  7 17  1  0  0  0  0
  8  2  2  0  0  0  0
 11  4  1  0  0  0  0
 13  5  1  0  0  0  0
 14  6  1  0  0  0  0
 16  7  1  0  0  0  0
M  END
