2
q = -1.0, confidence = 0.0

 12 12  0  0  0  0  0  0  0  0999 V2000
    5.6718    3.7994    0.3115 Br  0  0  0  0  0  0  0  0  0  0  0  0
    2.5264   -1.7690   -0.8490 S   0  0  0  0  0  1  0  0  0  0  0  0
    3.3480   -0.2152   -0.5075 C   0  0  0  0  0  0  0  0  0  0  0  0
    4.6182   -0.2388    0.1039 C   0  0  0  0  0  0  0  0  0  0  0  0
    5.3140    0.9521    0.3508 C   0  0  0  0  0  0  0  0  0  0  0  0
    4.7347    2.1753   -0.0241 C   0  0  0  0  0  0  0  0  0  0  0  0
    3.4756    2.2185   -0.6451 C   0  0  0  0  0  0  0  0  0  0  0  0
    2.7873    1.0228   -0.8850 C   0  0  0  0  0  0  0  0  0  0  0  0
    5.0603   -1.2037    0.3954 H   0  0  0  0  0  0  0  0  0  0  0  0
    6.2998    0.9338    0.8366 H   0  0  0  0  0  0  0  0  0  0  0  0
    3.0388    3.1829   -0.9407 H   0  0  0  0  0  0  0  0  0  0  0  0
    1.8007    1.0441   -1.3725 H   0  0  0  0  0  0  0  0  0  0  0  0
  2  3  1  0  0  0  0
  3  4  1  0  0  0  0
  4  5  2  0  0  0  0
  4  9  1  0  0  0  0
  5 10  1  0  0  0  0
  6  1  1  0  0  0  0
  6  5  1  0  0  0  0
  7  6  2  0  0  0  0
  8  7  1  0  0  0  0
  8  3  2  0  0  0  0
 11  7  1  0  0  0  0
 12  8  1  0  0  0  0
M  END
