2
q = -1.0

 15 15  0  0  0  0  0  0  0  0999 V2000
    8.7689    1.0902    0.6477 Cl  0  0  0  0  0  0  0  0  0  0  0  0
    2.3457   -1.5220    0.4251 S   0  0  0  0  0  1  0  0  0  0  0  0
    3.5322   -1.4803   -1.0237 C   0  0  0  0  0  0  0  0  0  0  0  0
    4.8374   -0.8491   -0.6334 C   0  0  0  0  0  0  0  0  0  0  0  0
    4.9542    0.5545   -0.5356 C   0  0  0  0  0  0  0  0  0  0  0  0
    6.1565    1.1557   -0.1466 C   0  0  0  0  0  0  0  0  0  0  0  0
    7.2635    0.3464    0.1604 C   0  0  0  0  0  0  0  0  0  0  0  0
    7.1731   -1.0514    0.0809 C   0  0  0  0  0  0  0  0  0  0  0  0
    5.9614   -1.6364   -0.3136 C   0  0  0  0  0  0  0  0  0  0  0  0
    3.6697   -2.5371   -1.3284 H   0  0  0  0  0  0  0  0  0  0  0  0
    3.0412   -0.9395   -1.8566 H   0  0  0  0  0  0  0  0  0  0  0  0
    4.0785    1.1820   -0.7663 H   0  0  0  0  0  0  0  0  0  0  0  0
    6.2459    2.2490   -0.0765 H   0  0  0  0  0  0  0  0  0  0  0  0
    8.0477   -1.6700    0.3263 H   0  0  0  0  0  0  0  0  0  0  0  0
    5.8892   -2.7337   -0.3760 H   0  0  0  0  0  0  0  0  0  0  0  0
  3  4  1  0  0  0  0
  3  2  1  0  0  0  0
  4  5  2  0  0  0  0
  4  9  1  0  0  0  0
  5  6  1  0  0  0  0
  6 13  1  0  0  0  0
  6  7  2  0  0  0  0
  7  1  1  0  0  0  0
  8  7  1  0  0  0  0
  8 14  1  0  0  0  0
  9  8  2  0  0  0  0
 10  3  1  0  0  0  0
 11  3  1  0  0  0  0
 12  5  1  0  0  0  0
 15  9  1  0  0  0  0
M  END
