1
q = -1.0, confidence = 0.0

 15 15  0  0  0  0  0  0  0  0999 V2000
    0.2988    2.1142    0.0429 S   0  0  0  0  0  1  0  0  0  0  0  0
    1.9265    1.4360    0.1288 C   0  0  0  0  0  0  0  0  0  0  0  0
    2.2026    0.0507    0.1996 C   0  0  0  0  0  0  0  0  0  0  0  0
    1.3763   -0.6733    0.2448 H   0  0  0  0  0  0  0  0  0  0  0  0
    3.5153   -0.4209    0.1905 C   0  0  0  0  0  0  0  0  0  0  0  0
    3.7058   -1.5028    0.2305 H   0  0  0  0  0  0  0  0  0  0  0  0
    4.5948    0.4775    0.1187 C   0  0  0  0  0  0  0  0  0  0  0  0
    4.3372    1.8602    0.0858 C   0  0  0  0  0  0  0  0  0  0  0  0
    5.1769    2.5693    0.0444 H   0  0  0  0  0  0  0  0  0  0  0  0
    3.0221    2.3325    0.0966 C   0  0  0  0  0  0  0  0  0  0  0  0
    2.8245    3.4144    0.0601 H   0  0  0  0  0  0  0  0  0  0  0  0
    5.9920   -0.0458   -0.0304 C   0  0  0  0  0  0  0  0  0  0  0  0
    6.1864   -1.2006    0.6574 F   0  0  0  0  0  0  0  0  0  0  0  0
    6.9272    0.8414    0.3910 F   0  0  0  0  0  0  0  0  0  0  0  0
    6.2902   -0.3272   -1.3371 F   0  0  0  0  0  0  0  0  0  0  0  0
  1  2  1  0  0  0  0
  2  3  1  0  0  0  0
  3  4  1  0  0  0  0
  5  3  2  0  0  0  0
  5  6  1  0  0  0  0
  7  5  1  0  0  0  0
  8 10  1  0  0  0  0
  8  7  2  0  0  0  0
  9  8  1  0  0  0  0
 10  2  2  0  0  0  0
 11 10  1  0  0  0  0
 12  7  1  0  0  0  0
 12 14  1  0  0  0  0
 12 13  1  0  0  0  0
 15 12  1  0  0  0  0
M  END
