1
q = 0.0, confidence = 1.0

 23 24  0  0  1  0  0  0  0  0999 V2000
    1.8645    0.3038   -1.4254 S   0  0  0  0  0  1  0  0  0  0  0  0
    4.1131    1.1328   -0.0298 N   0  0  0  0  0  0  0  0  0  0  0  0
    2.5727    2.6780   -0.2059 N   0  0  0  0  0  0  0  0  0  0  0  0
    2.8503    1.3740   -0.5187 C   0  0  1  0  0  3  0  0  0  0  0  0
    4.6046    2.2749    0.5900 C   0  0  0  0  0  0  0  0  0  0  0  0
    5.5872    2.2905    1.0683 H   0  0  0  0  0  0  0  0  0  0  0  0
    3.6302    3.2344    0.4906 C   0  0  0  0  0  0  0  0  0  0  0  0
    3.6020    4.2617    0.8645 H   0  0  0  0  0  0  0  0  0  0  0  0
    1.2775    3.2902   -0.4386 C   0  0  0  0  0  0  0  0  0  0  0  0
    0.9156    2.9918   -1.4408 H   0  0  0  0  0  0  0  0  0  0  0  0
    0.5587    2.9055    0.3161 H   0  0  0  0  0  0  0  0  0  0  0  0
    1.3767    4.3883   -0.3663 H   0  0  0  0  0  0  0  0  0  0  0  0
    4.7580   -0.1467   -0.0200 C   0  0  0  0  0  0  0  0  0  0  0  0
    4.1111   -1.2250    0.6075 C   0  0  0  0  0  0  0  0  0  0  0  0
    3.1260   -1.0573    1.0730 H   0  0  0  0  0  0  0  0  0  0  0  0
    4.7563   -2.4681    0.6392 C   0  0  0  0  0  0  0  0  0  0  0  0
    4.2615   -3.3198    1.1298 H   0  0  0  0  0  0  0  0  0  0  0  0
    6.0274   -2.6285    0.0611 C   0  0  0  0  0  0  0  0  0  0  0  0
    6.5267   -3.6087    0.0925 H   0  0  0  0  0  0  0  0  0  0  0  0
    6.6633   -1.5394   -0.5544 C   0  0  0  0  0  0  0  0  0  0  0  0
    7.6575   -1.6621   -1.0094 H   0  0  0  0  0  0  0  0  0  0  0  0
    6.0262   -0.2897   -0.6026 C   0  0  0  0  0  0  0  0  0  0  0  0
    6.5005    0.5695   -1.0998 H   0  0  0  0  0  0  0  0  0  0  0  0
  2 13  1  0  0  0  0
  2  5  1  0  0  0  0
  3  7  1  0  0  0  0
  4  1  1  6  0  0  0
  4  3  1  0  0  0  0
  4  2  1  0  0  0  0
  5  6  1  0  0  0  0
  7  5  2  0  0  0  0
  7  8  1  0  0  0  0
  9 12  1  0  0  0  0
  9  3  1  0  0  0  0
  9 11  1  0  0  0  0
 10  9  1  0  0  0  0
 13 14  1  0  0  0  0
 14 16  2  0  0  0  0
 14 15  1  0  0  0  0
 16 17  1  0  0  0  0
 18 19  1  0  0  0  0
 18 16  1  0  0  0  0
 20 18  2  0  0  0  0
 21 20  1  0  0  0  0
 22 20  1  0  0  0  0
 22 13  2  0  0  0  0
 23 22  1  0  0  0  0
M  END
