1
q = -1.0, confidence = 0.0

  7  6  0  0  0  0  0  0  0  0999 V2000
    1.7089    0.4370   -1.7653 S   0  0  0  0  0  0  0  0  0  0  0  0
    2.8234   -0.1932   -0.7020 C   0  0  0  0  0  0  0  0  0  0  0  0
    3.6971   -0.6697    0.0366 C   0  0  0  0  0  0  0  0  0  0  0  0
    4.6489   -1.2039    0.9627 C   0  0  0  0  0  0  0  0  0  0  0  0
    6.8992   -1.9646   -0.1139 C   0  0  0  0  0  0  0  0  0  0  0  0
    5.8600   -1.6100    0.3534 N   0  0  0  0  0  4  0  0  0  0  0  0
    4.4718   -1.3131    2.1627 O   0  0  0  0  0  0  0  0  0  0  0  0
  1  2  1  0  0  0  0
  2  3  3  0  0  0  0
  3  4  1  0  0  0  0
  4  7  2  0  0  0  0
  5  6  3  0  0  0  0
  6  4  1  0  0  0  0
M  END
