1
q = 0.0, confidence = 0.996

 17 18  0  0  0  0  0  0  0  0999 V2000
   -0.6199    1.8070    0.0009 S   0  0  0  0  0  1  0  0  0  0  0  0
    1.4015    0.1379    0.0003 O   0  0  0  0  0  0  0  0  0  0  0  0
    1.0207    1.4418    0.0006 C   0  0  0  0  0  0  0  0  0  0  0  0
    2.0386    2.4513    0.0005 C   0  0  0  0  0  0  0  0  0  0  0  0
    1.7071    3.4983    0.0007 H   0  0  0  0  0  0  0  0  0  0  0  0
    3.3681    2.1059    0.0003 C   0  0  0  0  0  0  0  0  0  0  0  0
    4.1487    2.8816    0.0002 H   0  0  0  0  0  0  0  0  0  0  0  0
    3.7555    0.7186    0.0001 C   0  0  0  0  0  0  0  0  0  0  0  0
    2.7164   -0.2480    0.0002 C   0  0  0  0  0  0  0  0  0  0  0  0
    2.9778   -1.6238    0.0001 C   0  0  0  0  0  0  0  0  0  0  0  0
    2.1349   -2.3283    0.0003 H   0  0  0  0  0  0  0  0  0  0  0  0
    4.3112   -2.0498   -0.0001 C   0  0  0  0  0  0  0  0  0  0  0  0
    4.5329   -3.1272   -0.0001 H   0  0  0  0  0  0  0  0  0  0  0  0
    5.3674   -1.1144   -0.0002 C   0  0  0  0  0  0  0  0  0  0  0  0
    6.4095   -1.4655   -0.0003 H   0  0  0  0  0  0  0  0  0  0  0  0
    5.0930    0.2549   -0.0001 C   0  0  0  0  0  3  0  0  0  0  0  0
    5.9100    0.9924   -0.0001 H   0  0  0  0  0  0  0  0  0  0  0  0
  2  3  1  0  0  0  0
  3  1  1  0  0  0  0
  4  3  2  0  0  0  0
  4  5  1  0  0  0  0
  6  4  1  0  0  0  0
  7  6  1  0  0  0  0
  8  9  1  0  0  0  0
  8  6  2  0  0  0  0
  9  2  1  0  0  0  0
 10  9  2  0  0  0  0
 10 11  1  0  0  0  0
 12 10  1  0  0  0  0
 13 12  1  0  0  0  0
 14 16  1  0  0  0  0
 14 12  2  0  0  0  0
 15 14  1  0  0  0  0
 16  8  1  0  0  0  0
 17 16  1  0  0  0  0
M  END
