1
q = -1.0

 18 18  0  0  0  0  0  0  0  0999 V2000
   -0.4816    1.3296   -0.2812 S   0  0  0  0  0  1  0  0  0  0  0  0
   -0.1695   -1.6778    0.2192 S   0  0  0  0  0  0  0  0  0  0  0  0
    1.7560    0.1283   -0.1448 O   0  0  0  0  0  0  0  0  0  0  0  0
    0.4488   -0.1425   -0.0594 C   0  0  0  0  0  0  0  0  0  0  0  0
    2.7093   -0.9340    0.0307 C   0  0  0  0  0  0  0  0  0  0  0  0
    2.5625   -1.6906   -0.7700 H   0  0  0  0  0  0  0  0  0  0  0  0
    2.4826   -1.4498    0.9916 H   0  0  0  0  0  0  0  0  0  0  0  0
    4.1023   -0.3599    0.0148 C   0  0  0  0  0  0  0  0  0  0  0  0
    4.3520    0.9818    0.3584 C   0  0  0  0  0  0  0  0  0  0  0  0
    3.5054    1.6419    0.5954 H   0  0  0  0  0  0  0  0  0  0  0  0
    5.6662    1.4729    0.3807 C   0  0  0  0  0  0  0  0  0  0  0  0
    5.8488    2.5257    0.6451 H   0  0  0  0  0  0  0  0  0  0  0  0
    6.7436    0.6301    0.0668 C   0  0  0  0  0  0  0  0  0  0  0  0
    7.7736    1.0175    0.0853 H   0  0  0  0  0  0  0  0  0  0  0  0
    6.4998   -0.7088   -0.2782 C   0  0  0  0  0  0  0  0  0  0  0  0
    7.3375   -1.3751   -0.5342 H   0  0  0  0  0  0  0  0  0  0  0  0
    5.1863   -1.1987   -0.3093 C   0  0  0  0  0  0  0  0  0  0  0  0
    4.9989   -2.2472   -0.5918 H   0  0  0  0  0  0  0  0  0  0  0  0
  1  4  1  0  0  0  0
  3  4  1  0  0  0  0
  3  5  1  0  0  0  0
  4  2  2  0  0  0  0
  5  7  1  0  0  0  0
  6  5  1  0  0  0  0
  8  5  1  0  0  0  0
  8  9  1  0  0  0  0
  9 11  2  0  0  0  0
  9 10  1  0  0  0  0
 11 12  1  0  0  0  0
 13 14  1  0  0  0  0
 13 11  1  0  0  0  0
 15 13  2  0  0  0  0
 16 15  1  0  0  0  0
 17 15  1  0  0  0  0
 17  8  2  0  0  0  0
 18 17  1  0  0  0  0
M  END
