1
q = -1.0, confidence = 0.0

 30 29  0  0  0  0  0  0  0  0999 V2000
   -0.3584   -0.3169   -1.4889 S   0  0  0  0  0  1  0  0  0  0  0  0
   -1.7700   -2.0341    0.5728 S   0  0  0  0  0  0  0  0  0  0  0  0
   -2.8572    0.0916   -0.6566 N   0  0  0  0  0  0  0  0  0  0  0  0
   -1.7705   -0.7101   -0.5116 C   0  0  0  0  0  0  0  0  0  0  0  0
   -2.8398    1.2747   -1.5227 C   0  0  0  0  0  0  0  0  0  0  0  0
   -3.8822    1.4694   -1.8505 H   0  0  0  0  0  0  0  0  0  0  0  0
   -2.2541    1.0370   -2.4344 H   0  0  0  0  0  0  0  0  0  0  0  0
   -2.2473    2.5016   -0.8211 C   0  0  0  0  0  0  0  0  0  0  0  0
   -2.8494    2.7359    0.0848 H   0  0  0  0  0  0  0  0  0  0  0  0
   -1.2313    2.2320   -0.4625 H   0  0  0  0  0  0  0  0  0  0  0  0
   -2.1616    3.7311   -1.7271 C   0  0  0  0  0  0  0  0  0  0  0  0
   -3.1789    4.0033   -2.0875 H   0  0  0  0  0  0  0  0  0  0  0  0
   -1.5789    3.4676   -2.6375 H   0  0  0  0  0  0  0  0  0  0  0  0
   -1.5152    4.9330   -1.0371 C   0  0  0  0  0  0  0  0  0  0  0  0
   -1.4690    5.8156   -1.7062 H   0  0  0  0  0  0  0  0  0  0  0  0
   -0.4786    4.6974   -0.7176 H   0  0  0  0  0  0  0  0  0  0  0  0
   -2.0823    5.2302   -0.1298 H   0  0  0  0  0  0  0  0  0  0  0  0
   -4.0792   -0.1415    0.1178 C   0  0  0  0  0  0  0  0  0  0  0  0
   -4.5558    0.8462    0.2848 H   0  0  0  0  0  0  0  0  0  0  0  0
   -3.7816   -0.5535    1.1045 H   0  0  0  0  0  0  0  0  0  0  0  0
   -5.0409   -1.1144   -0.5733 C   0  0  0  0  0  0  0  0  0  0  0  0
   -4.4856   -2.0593   -0.7473 H   0  0  0  0  0  0  0  0  0  0  0  0
   -5.3172   -0.7117   -1.5737 H   0  0  0  0  0  0  0  0  0  0  0  0
   -6.3078   -1.4031    0.2414 C   0  0  0  0  0  0  0  0  0  0  0  0
   -6.8752   -2.2095   -0.2698 H   0  0  0  0  0  0  0  0  0  0  0  0
   -6.0131   -1.8250    1.2278 H   0  0  0  0  0  0  0  0  0  0  0  0
   -7.2256   -0.1948    0.4478 C   0  0  0  0  0  0  0  0  0  0  0  0
   -8.1520   -0.4782    0.9866 H   0  0  0  0  0  0  0  0  0  0  0  0
   -7.5289    0.2506   -0.5234 H   0  0  0  0  0  0  0  0  0  0  0  0
   -6.7391    0.6067    1.0416 H   0  0  0  0  0  0  0  0  0  0  0  0
  1  4  1  0  0  0  0
  3  4  1  0  0  0  0
  3 18  1  0  0  0  0
  4  2  2  0  0  0  0
  5  8  1  0  0  0  0
  5  3  1  0  0  0  0
  6  5  1  0  0  0  0
  7  5  1  0  0  0  0
  8 10  1  0  0  0  0
  8  9  1  0  0  0  0
 11 14  1  0  0  0  0
 11  8  1  0  0  0  0
 12 11  1  0  0  0  0
 13 11  1  0  0  0  0
 14 16  1  0  0  0  0
 14 17  1  0  0  0  0
 15 14  1  0  0  0  0
 18 19  1  0  0  0  0
 18 20  1  0  0  0  0
 21 18  1  0  0  0  0
 21 24  1  0  0  0  0
 22 21  1  0  0  0  0
 23 21  1  0  0  0  0
 24 27  1  0  0  0  0
 24 26  1  0  0  0  0
 25 24  1  0  0  0  0
 27 28  1  0  0  0  0
 27 30  1  0  0  0  0
 29 27  1  0  0  0  0
M  END
