1
q = -1.0, confidence = 0.0

 19 20  0  0  0  0  0  0  0  0999 V2000
   -3.9757    0.9946   -0.5380 S   0  0  0  0  0  1  0  0  0  0  0  0
   -1.5394   -0.5490    0.9078 N   0  0  0  0  0  0  0  0  0  0  0  0
   -1.6527   -0.9073    1.8656 H   0  0  0  0  0  0  0  0  0  0  0  0
   -0.5254   -0.4835    0.6241 H   0  0  0  0  0  0  0  0  0  0  0  0
   -2.3470   -1.2291    0.0157 N   0  0  0  0  0  0  0  0  0  0  0  0
   -4.0690   -1.6208   -1.3355 N   0  0  0  0  0  0  0  0  0  0  0  0
   -3.3939   -2.7977   -1.1394 N   0  0  0  0  0  0  0  0  0  0  0  0
    0.4045   -5.6671    0.8077 N   0  0  0  0  0  0  0  0  0  0  0  0
   -3.4477   -0.6795   -0.6373 C   0  0  0  0  0  0  0  0  0  0  0  0
   -2.3521   -2.5740   -0.3479 C   0  0  0  0  0  0  0  0  0  0  0  0
   -1.3799   -3.5893    0.0637 C   0  0  0  0  0  0  0  0  0  0  0  0
   -0.0344   -3.3147    0.3961 C   0  0  0  0  0  0  0  0  0  0  0  0
    0.4032   -2.3088    0.3366 H   0  0  0  0  0  0  0  0  0  0  0  0
    0.7975   -4.3854    0.7603 C   0  0  0  0  0  0  0  0  0  0  0  0
    1.8521   -4.1821    1.0217 H   0  0  0  0  0  0  0  0  0  0  0  0
   -0.8714   -5.9239    0.4669 C   0  0  0  0  0  0  0  0  0  0  0  0
   -1.1825   -6.9836    0.4966 H   0  0  0  0  0  0  0  0  0  0  0  0
   -1.7948   -4.9402    0.0943 C   0  0  0  0  0  0  0  0  0  0  0  0
   -2.8295   -5.1935   -0.1769 H   0  0  0  0  0  0  0  0  0  0  0  0
  2  3  1  0  0  0  0
  4  2  1  0  0  0  0
  5  2  1  0  0  0  0
  6  7  1  0  0  0  0
  6  9  2  0  0  0  0
  7 10  2  0  0  0  0
  9  1  1  0  0  0  0
  9  5  1  0  0  0  0
 10  5  1  0  0  0  0
 10 11  1  0  0  0  0
 11 18  2  0  0  0  0
 11 12  1  0  0  0  0
 12 14  2  0  0  0  0
 13 12  1  0  0  0  0
 14  8  1  0  0  0  0
 14 15  1  0  0  0  0
 16 17  1  0  0  0  0
 16  8  2  0  0  0  0
 18 16  1  0  0  0  0
 19 18  1  0  0  0  0
M  END
