1
q = -1.0

 29 30  0  0  0  0  0  0  0  0999 V2000
   -2.3555   -0.4429    1.9384 S   0  0  0  0  0  1  0  0  0  0  0  0
   -1.8259   -1.7120   -0.5034 N   0  0  0  0  0  0  0  0  0  0  0  0
   -0.5370   -2.1460   -0.2105 C   0  0  0  0  0  0  0  0  0  0  0  0
   -0.2413   -2.9915    0.8944 C   0  0  0  0  0  0  0  0  0  0  0  0
   -1.0547   -3.2941    1.5695 H   0  0  0  0  0  0  0  0  0  0  0  0
    1.0696   -3.4457    1.1027 C   0  0  0  0  0  0  0  0  0  0  0  0
    1.2808   -4.1093    1.9548 H   0  0  0  0  0  0  0  0  0  0  0  0
    2.1100   -3.0553    0.2424 C   0  0  0  0  0  0  0  0  0  0  0  0
    3.1402   -3.3991    0.4202 H   0  0  0  0  0  0  0  0  0  0  0  0
    1.8223   -2.2244   -0.8535 C   0  0  0  0  0  0  0  0  0  0  0  0
    2.6258   -1.9200   -1.5408 H   0  0  0  0  0  0  0  0  0  0  0  0
    0.5142   -1.7847   -1.0910 C   0  0  0  0  0  0  0  0  0  0  0  0
    0.2761   -1.1592   -1.9621 H   0  0  0  0  0  0  0  0  0  0  0  0
   -2.6227   -1.0566    0.2662 C   0  0  0  0  0  0  0  0  0  0  0  0
   -3.9797   -0.7261   -0.2718 C   0  0  0  0  0  0  0  0  0  0  0  0
   -4.5306   -1.5299   -1.2911 C   0  0  0  0  0  0  0  0  0  0  0  0
   -3.9917   -2.4135   -1.6573 H   0  0  0  0  0  0  0  0  0  0  0  0
   -5.7682   -1.1836   -1.8400 C   0  0  0  0  0  0  0  0  0  0  0  0
   -6.4846   -0.0514   -1.4369 C   0  0  0  0  0  0  0  0  0  0  0  0
   -7.4507    0.2067   -1.8879 H   0  0  0  0  0  0  0  0  0  0  0  0
   -5.9040    0.7369   -0.4401 C   0  0  0  0  0  0  0  0  0  0  0  0
   -4.6825    0.4147    0.1593 C   0  0  0  0  0  0  0  0  0  0  0  0
   -4.2698    1.0700    0.9374 H   0  0  0  0  0  0  0  0  0  0  0  0
   -6.3501   -2.0499   -2.9065 N   0  0  0  0  0  0  0  0  0  0  0  0
   -5.7043   -3.0413   -3.2354 O   0  0  0  0  0  0  0  0  0  0  0  0
   -7.4317   -1.7056   -3.3758 O   0  0  0  0  0  0  0  0  0  0  0  0
   -6.5971    1.9843   -0.0153 N   0  0  0  0  0  0  0  0  0  0  0  0
   -5.9843    2.7358    0.7432 O   0  0  0  0  0  0  0  0  0  0  0  0
   -7.7256    2.1770   -0.4573 O   0  0  0  0  0  0  0  0  0  0  0  0
  2  3  1  0  0  0  0
  2 14  2  0  0  0  0
  3  4  1  0  0  0  0
  4  6  2  0  0  0  0
  4  5  1  0  0  0  0
  6  7  1  0  0  0  0
  8  9  1  0  0  0  0
  8  6  1  0  0  0  0
 10  8  2  0  0  0  0
 11 10  1  0  0  0  0
 12 10  1  0  0  0  0
 12  3  2  0  0  0  0
 13 12  1  0  0  0  0
 14  1  1  0  0  0  0
 15 22  1  0  0  0  0
 15 14  1  0  0  0  0
 16 15  2  0  0  0  0
 17 16  1  0  0  0  0
 18 19  2  0  0  0  0
 18 16  1  0  0  0  0
 19 21  1  0  0  0  0
 20 19  1  0  0  0  0
 21 27  1  0  0  0  0
 21 22  2  0  0  0  0
 22 23  1  0  0  0  0
 24 18  1  0  0  0  0
 25 24  2  0  0  0  0
 26 24  2  0  0  0  0
 27 28  2  0  0  0  0
 29 27  2  0  0  0  0
M  END
