1
q = 0.0, confidence = 0.958

 19 19  0  0  1  0  0  0  0  0999 V2000
   -2.2969   -1.7698    0.6240 S   0  0  0  0  0  1  0  0  0  0  0  0
   -2.5893    0.3065   -1.0489 N   0  0  0  0  0  0  0  0  0  0  0  0
   -1.6845   -0.0007   -1.5062 H   0  0  0  0  0  0  0  0  0  0  0  0
   -3.0851   -0.4037   -0.0552 C   0  0  2  0  0  3  0  0  0  0  0  0
   -4.3883    0.0112    0.5830 C   0  0  0  0  0  0  0  0  0  0  0  0
   -4.7102   -0.8065    1.2540 H   0  0  0  0  0  0  0  0  0  0  0  0
   -5.1663    0.1206   -0.2056 H   0  0  0  0  0  0  0  0  0  0  0  0
   -4.2592    1.3316    1.3765 C   0  0  0  0  0  0  0  0  0  0  0  0
   -5.1062    1.3801    2.0913 H   0  0  0  0  0  0  0  0  0  0  0  0
   -3.3339    1.2888    1.9900 H   0  0  0  0  0  0  0  0  0  0  0  0
   -4.2710    2.5958    0.5083 C   0  0  0  0  0  0  0  0  0  0  0  0
   -5.2495    2.6548   -0.0211 H   0  0  0  0  0  0  0  0  0  0  0  0
   -4.2316    3.4849    1.1718 H   0  0  0  0  0  0  0  0  0  0  0  0
   -3.1422    2.6961   -0.5247 C   0  0  0  0  0  0  0  0  0  0  0  0
   -2.1511    2.7140   -0.0211 H   0  0  0  0  0  0  0  0  0  0  0  0
   -3.2423    3.6552   -1.0746 H   0  0  0  0  0  0  0  0  0  0  0  0
   -3.1248    1.5668   -1.5621 C   0  0  0  0  0  0  0  0  0  0  0  0
   -4.1434    1.4008   -1.9802 H   0  0  0  0  0  0  0  0  0  0  0  0
   -2.4652    1.8332   -2.4105 H   0  0  0  0  0  0  0  0  0  0  0  0
  2  4  1  0  0  0  0
  3  2  1  0  0  0  0
  4  5  1  0  0  0  0
  4  1  1  1  0  0  0
  5  6  1  0  0  0  0
  5  8  1  0  0  0  0
  7  5  1  0  0  0  0
  8 10  1  0  0  0  0
  8  9  1  0  0  0  0
 11 13  1  0  0  0  0
 11  8  1  0  0  0  0
 12 11  1  0  0  0  0
 14 15  1  0  0  0  0
 14 11  1  0  0  0  0
 16 14  1  0  0  0  0
 17  2  1  0  0  0  0
 17 14  1  0  0  0  0
 18 17  1  0  0  0  0
 19 17  1  0  0  0  0
M  END
