1
q = -1.0

 19 19  0  0  0  0  0  0  0  0999 V2000
    1.6177   -0.3850   -1.7806 S   0  0  0  0  0  1  0  0  0  0  0  0
    1.8914    1.2273    1.1394 O   0  0  0  0  0  0  0  0  0  0  0  0
    3.8528    2.2989    0.6853 N   0  0  0  0  0  0  0  0  0  0  0  0
    4.7606    2.2153    0.2268 H   0  0  0  0  0  0  0  0  0  0  0  0
    3.1048   -0.8275   -0.8984 C   0  0  0  0  0  0  0  0  0  0  0  0
    3.7955   -1.9768   -1.3455 C   0  0  0  0  0  0  0  0  0  0  0  0
    3.3360   -2.5761   -2.1455 H   0  0  0  0  0  0  0  0  0  0  0  0
    5.0251   -2.3541   -0.7910 C   0  0  0  0  0  0  0  0  0  0  0  0
    5.5330   -3.2587   -1.1593 H   0  0  0  0  0  0  0  0  0  0  0  0
    5.5963   -1.5907    0.2384 C   0  0  0  0  0  0  0  0  0  0  0  0
    6.5534   -1.8874    0.6925 H   0  0  0  0  0  0  0  0  0  0  0  0
    4.9297   -0.4430    0.6879 C   0  0  0  0  0  0  0  0  0  0  0  0
    5.3647    0.1587    1.5015 H   0  0  0  0  0  0  0  0  0  0  0  0
    3.6946   -0.0448    0.1337 C   0  0  0  0  0  0  0  0  0  0  0  0
    3.0437    1.1971    0.6824 C   0  0  0  0  0  0  0  0  0  0  0  0
    3.4232    3.5851    1.1906 C   0  0  0  0  0  0  0  0  0  0  0  0
    2.3990    3.4552    1.5880 H   0  0  0  0  0  0  0  0  0  0  0  0
    3.4012    4.3518    0.3877 H   0  0  0  0  0  0  0  0  0  0  0  0
    4.0850    3.9451    2.0063 H   0  0  0  0  0  0  0  0  0  0  0  0
  1  5  1  0  0  0  0
  3 16  1  0  0  0  0
  4  3  1  0  0  0  0
  5 14  1  0  0  0  0
  6  5  2  0  0  0  0
  6  8  1  0  0  0  0
  7  6  1  0  0  0  0
  8 10  2  0  0  0  0
  9  8  1  0  0  0  0
 10 12  1  0  0  0  0
 10 11  1  0  0  0  0
 12 13  1  0  0  0  0
 14 15  1  0  0  0  0
 14 12  2  0  0  0  0
 15  3  1  0  0  0  0
 15  2  2  0  0  0  0
 16 17  1  0  0  0  0
 16 19  1  0  0  0  0
 18 16  1  0  0  0  0
M  END
