1
q = -1.0

 28 28  0  0  0  0  0  0  0  0999 V2000
   -2.4041   -0.0622   -2.0037 S   0  0  0  0  0  1  0  0  0  0  0  0
   -0.2175    0.9013    0.4920 O   0  0  0  0  0  0  0  0  0  0  0  0
   -1.3922    2.8402    0.7670 N   0  0  0  0  0  0  0  0  0  0  0  0
   -2.3359    3.2299    0.8154 H   0  0  0  0  0  0  0  0  0  0  0  0
   -3.0869   -0.0514   -0.3544 C   0  0  0  0  0  0  0  0  0  0  0  0
   -4.2698   -0.7974   -0.1544 C   0  0  0  0  0  0  0  0  0  0  0  0
   -4.6374   -1.4226   -0.9815 H   0  0  0  0  0  0  0  0  0  0  0  0
   -4.9649   -0.7479    1.0615 C   0  0  0  0  0  0  0  0  0  0  0  0
   -5.8803   -1.3458    1.1873 H   0  0  0  0  0  0  0  0  0  0  0  0
   -4.4933    0.0526    2.1126 C   0  0  0  0  0  0  0  0  0  0  0  0
   -5.0305    0.0921    3.0716 H   0  0  0  0  0  0  0  0  0  0  0  0
   -3.3205    0.7988    1.9314 C   0  0  0  0  0  0  0  0  0  0  0  0
   -2.9293    1.4199    2.7526 H   0  0  0  0  0  0  0  0  0  0  0  0
   -2.6080    0.7516    0.7164 C   0  0  0  0  0  0  0  0  0  0  0  0
   -1.3063    1.4988    0.6320 C   0  0  0  0  0  0  0  0  0  0  0  0
   -0.2537    3.7954    0.7430 C   0  0  0  0  0  0  0  0  0  0  0  0
    0.4881    3.6854   -0.6019 C   0  0  0  0  0  0  0  0  0  0  0  0
    1.2949    4.4434   -0.6486 H   0  0  0  0  0  0  0  0  0  0  0  0
   -0.2069    3.8580   -1.4480 H   0  0  0  0  0  0  0  0  0  0  0  0
    0.9497    2.6869   -0.7136 H   0  0  0  0  0  0  0  0  0  0  0  0
    0.6963    3.4930    1.9154 C   0  0  0  0  0  0  0  0  0  0  0  0
    0.1612    3.5686    2.8835 H   0  0  0  0  0  0  0  0  0  0  0  0
    1.5305    4.2221    1.9206 H   0  0  0  0  0  0  0  0  0  0  0  0
    1.1286    2.4800    1.8189 H   0  0  0  0  0  0  0  0  0  0  0  0
   -0.8663    5.1945    0.8999 C   0  0  0  0  0  0  0  0  0  0  0  0
   -1.4203    5.2858    1.8572 H   0  0  0  0  0  0  0  0  0  0  0  0
   -1.5585    5.4266    0.0640 H   0  0  0  0  0  0  0  0  0  0  0  0
   -0.0667    5.9597    0.8978 H   0  0  0  0  0  0  0  0  0  0  0  0
  1  5  1  0  0  0  0
  2 15  2  0  0  0  0
  3  4  1  0  0  0  0
  5  6  2  0  0  0  0
  5 14  1  0  0  0  0
  6  8  1  0  0  0  0
  7  6  1  0  0  0  0
  8  9  1  0  0  0  0
  8 10  2  0  0  0  0
 10 11  1  0  0  0  0
 12 10  1  0  0  0  0
 12 13  1  0  0  0  0
 14 12  2  0  0  0  0
 15 14  1  0  0  0  0
 15  3  1  0  0  0  0
 16  3  1  0  0  0  0
 16 25  1  0  0  0  0
 16 21  1  0  0  0  0
 17 16  1  0  0  0  0
 18 17  1  0  0  0  0
 19 17  1  0  0  0  0
 20 17  1  0  0  0  0
 21 23  1  0  0  0  0
 21 22  1  0  0  0  0
 24 21  1  0  0  0  0
 25 26  1  0  0  0  0
 27 25  1  0  0  0  0
 28 25  1  0  0  0  0
M  END
