1
q = -1.0

 28 29  0  0  0  0  0  0  0  0999 V2000
    2.4955   -1.2077   -0.7766 S   0  0  0  0  0  1  0  0  0  0  0  0
    7.5663   -0.8707    0.1150 O   0  0  0  0  0  0  0  0  0  0  0  0
    4.7860   -0.3796    0.3481 N   0  0  0  0  0  0  0  0  0  0  0  0
    3.1307    1.2131    0.4728 N   0  0  0  0  0  0  0  0  0  0  0  0
    3.4893    0.0255    0.0899 C   0  0  0  0  0  0  0  0  0  0  0  0
    5.2899   -1.7409    0.2564 C   0  0  0  0  0  0  0  0  0  0  0  0
    4.5445   -2.3771   -0.2568 H   0  0  0  0  0  0  0  0  0  0  0  0
    5.4471   -2.1512    1.2833 H   0  0  0  0  0  0  0  0  0  0  0  0
    6.6246   -1.7426   -0.4910 C   0  0  0  0  0  0  0  0  0  0  0  0
    7.0732   -2.7565   -0.4817 H   0  0  0  0  0  0  0  0  0  0  0  0
    6.4423   -1.4439   -1.5539 H   0  0  0  0  0  0  0  0  0  0  0  0
    7.0687    0.4585    0.1596 C   0  0  0  0  0  0  0  0  0  0  0  0
    6.9133    0.8496   -0.8773 H   0  0  0  0  0  0  0  0  0  0  0  0
    7.8470    1.0753    0.6529 H   0  0  0  0  0  0  0  0  0  0  0  0
    5.7491    0.5490    0.9274 C   0  0  0  0  0  0  0  0  0  0  0  0
    5.9236    0.2894    1.9987 H   0  0  0  0  0  0  0  0  0  0  0  0
    5.3136    1.5649    0.8861 H   0  0  0  0  0  0  0  0  0  0  0  0
    2.0164    1.9255    0.0902 C   0  0  0  0  0  0  0  0  0  0  0  0
    1.2475    2.5922    1.0820 C   0  0  0  0  0  0  0  0  0  0  0  0
    1.5552    2.4732    2.1320 H   0  0  0  0  0  0  0  0  0  0  0  0
    0.1484    3.3893    0.7320 C   0  0  0  0  0  0  0  0  0  0  0  0
   -0.4338    3.8873    1.5237 H   0  0  0  0  0  0  0  0  0  0  0  0
   -0.2117    3.5606   -0.6144 C   0  0  0  0  0  0  0  0  0  0  0  0
   -1.0771    4.1818   -0.8881 H   0  0  0  0  0  0  0  0  0  0  0  0
    0.5483    2.9208   -1.6088 C   0  0  0  0  0  0  0  0  0  0  0  0
    0.2824    3.0528   -2.6694 H   0  0  0  0  0  0  0  0  0  0  0  0
    1.6387    2.1100   -1.2713 C   0  0  0  0  0  0  0  0  0  0  0  0
    2.2303    1.6135   -2.0537 H   0  0  0  0  0  0  0  0  0  0  0  0
  1  5  1  0  0  0  0
  2 12  1  0  0  0  0
  3 15  1  0  0  0  0
  5  3  1  0  0  0  0
  5  4  2  0  0  0  0
  6  3  1  0  0  0  0
  6  8  1  0  0  0  0
  7  6  1  0  0  0  0
  9 10  1  0  0  0  0
  9  2  1  0  0  0  0
  9  6  1  0  0  0  0
 11  9  1  0  0  0  0
 12 14  1  0  0  0  0
 12 15  1  0  0  0  0
 13 12  1  0  0  0  0
 15 16  1  0  0  0  0
 17 15  1  0  0  0  0
 18  4  1  0  0  0  0
 18 19  1  0  0  0  0
 19 20  1  0  0  0  0
 21 19  2  0  0  0  0
 21 22  1  0  0  0  0
 23 21  1  0  0  0  0
 24 23  1  0  0  0  0
 25 27  1  0  0  0  0
 25 23  2  0  0  0  0
 26 25  1  0  0  0  0
 27 18  2  0  0  0  0
 28 27  1  0  0  0  0
M  END
