9
q = -1.0, confidence = 0.0

 26 27  0  0  0  0  0  0  0  0999 V2000
   -0.0349    1.1068    1.0980 S   0  0  0  0  0  0  0  0  0  0  0  0
   -4.7526   -1.8157    0.6024 O   0  0  0  0  0  0  0  0  0  0  0  0
   -2.3228    0.1986    0.0113 N   0  0  0  0  0  0  0  0  0  0  0  0
   -3.1356   -0.6888   -0.8401 C   0  0  0  0  0  0  0  0  0  0  0  0
   -4.0138   -0.1034   -1.1816 H   0  0  0  0  0  0  0  0  0  0  0  0
   -2.5363   -0.9630   -1.7276 H   0  0  0  0  0  0  0  0  0  0  0  0
   -3.5972   -1.9208   -0.1371 C   0  0  0  0  0  0  0  0  0  0  0  0
   -0.9643    0.1456    0.0416 C   0  0  0  0  0  0  0  0  0  0  0  0
   -0.1985   -0.9909   -1.0822 S   0  0  0  0  0  1  0  0  0  0  0  0
   -3.6387    3.0007   -0.3561 O   0  0  0  0  0  0  0  0  0  0  0  0
   -3.0806    1.0256    0.9707 C   0  0  0  0  0  0  0  0  0  0  0  0
   -3.5997    0.3570    1.6884 H   0  0  0  0  0  0  0  0  0  0  0  0
   -2.3280    1.6217    1.5269 H   0  0  0  0  0  0  0  0  0  0  0  0
   -4.0932    1.8995    0.3214 C   0  0  0  0  0  0  0  0  0  0  0  0
   -5.4690    1.8352    0.2322 C   0  0  0  0  0  0  0  0  0  0  0  0
   -6.0991    1.0505    0.6653 H   0  0  0  0  0  0  0  0  0  0  0  0
   -4.7247    3.6400   -0.8724 C   0  0  0  0  0  0  0  0  0  0  0  0
   -4.5160    4.5506   -1.4430 H   0  0  0  0  0  0  0  0  0  0  0  0
   -5.8806    2.9716   -0.5418 C   0  0  0  0  0  0  0  0  0  0  0  0
   -6.9016    3.2566   -0.8180 H   0  0  0  0  0  0  0  0  0  0  0  0
   -3.0764   -3.1895   -0.0028 C   0  0  0  0  0  0  0  0  0  0  0  0
   -2.1518   -3.5484   -0.4674 H   0  0  0  0  0  0  0  0  0  0  0  0
   -3.9677   -3.9070    0.8635 C   0  0  0  0  0  0  0  0  0  0  0  0
   -3.8811   -4.9482    1.1927 H   0  0  0  0  0  0  0  0  0  0  0  0
   -4.9654   -3.0233    1.2010 C   0  0  0  0  0  0  0  0  0  0  0  0
   -5.8631   -3.0972    1.8230 H   0  0  0  0  0  0  0  0  0  0  0  0
  2 25  1  0  0  0  0
  3  8  1  0  0  0  0
  3 11  1  0  0  0  0
  4  7  1  0  0  0  0
  4  3  1  0  0  0  0
  5  4  1  0  0  0  0
  6  4  1  0  0  0  0
  7 21  2  0  0  0  0
  7  2  1  0  0  0  0
  8  1  2  0  0  0  0
  9  8  1  0  0  0  0
 10 14  1  0  0  0  0
 11 13  1  0  0  0  0
 11 12  1  0  0  0  0
 14 11  1  0  0  0  0
 15 14  2  0  0  0  0
 15 16  1  0  0  0  0
 17 19  2  0  0  0  0
 17 10  1  0  0  0  0
 18 17  1  0  0  0  0
 19 15  1  0  0  0  0
 20 19  1  0  0  0  0
 21 23  1  0  0  0  0
 22 21  1  0  0  0  0
 23 24  1  0  0  0  0
 23 25  2  0  0  0  0
 25 26  1  0  0  0  0
M  END
