1
q = -1.0

 15 15  0  0  0  0  0  0  0  0999 V2000
   -2.1584   -2.6545   -0.1273 S   0  0  0  0  0  1  0  0  0  0  0  0
   -5.4677    2.8956   -0.0096 O   0  0  0  0  0  0  0  0  0  0  0  0
   -3.2209    2.7230   -0.0919 O   0  0  0  0  0  0  0  0  0  0  0  0
   -4.5413    0.7058    0.0029 C   0  0  0  0  0  0  0  0  0  0  0  0
   -4.3159    2.1757   -0.0393 C   0  0  0  0  0  0  0  0  0  0  0  0
   -3.4113   -0.1259   -0.0887 C   0  0  0  0  0  0  0  0  0  0  0  0
   -3.5269   -1.5305   -0.0315 C   0  0  0  0  0  0  0  0  0  0  0  0
   -4.8281   -2.0780    0.1043 C   0  0  0  0  0  0  0  0  0  0  0  0
   -5.9561   -1.2491    0.1830 C   0  0  0  0  0  0  0  0  0  0  0  0
   -5.8300    0.1463    0.1366 C   0  0  0  0  0  0  0  0  0  0  0  0
   -5.1808    3.8333   -0.0327 H   0  0  0  0  0  0  0  0  0  0  0  0
   -2.4247    0.3422   -0.2108 H   0  0  0  0  0  0  0  0  0  0  0  0
   -4.9434   -3.1718    0.1512 H   0  0  0  0  0  0  0  0  0  0  0  0
   -6.9525   -1.7053    0.2881 H   0  0  0  0  0  0  0  0  0  0  0  0
   -6.7087    0.8010    0.2058 H   0  0  0  0  0  0  0  0  0  0  0  0
  1  7  1  0  0  0  0
  3  5  2  0  0  0  0
  4 10  1  0  0  0  0
  5  2  1  0  0  0  0
  5  4  1  0  0  0  0
  6  7  1  0  0  0  0
  6  4  2  0  0  0  0
  7  8  2  0  0  0  0
  8 13  1  0  0  0  0
  8  9  1  0  0  0  0
  9 14  1  0  0  0  0
 10  9  2  0  0  0  0
 10 15  1  0  0  0  0
 11  2  1  0  0  0  0
 12  6  1  0  0  0  0
M  END
