1
q = -1.0, confidence = 0.006

 26 28  0  0  1  0  0  0  0  0999 V2000
    1.0928    0.0403    1.4934 S   0  0  0  0  0  1  0  0  0  0  0  0
    2.5000    0.6650    0.4659 C   0  0  1  0  0  0  0  0  0  0  0  0
    2.2072    1.6969    0.1686 H   0  0  0  0  0  0  0  0  0  0  0  0
    3.7822    0.7103    1.3293 C   0  0  2  0  0  0  0  0  0  0  0  0
    3.5666    1.2774    2.2600 H   0  0  0  0  0  0  0  0  0  0  0  0
    5.1819    0.6289   -0.7678 C   0  0  1  0  0  0  0  0  0  0  0  0
    5.9880    1.1369   -1.3429 H   0  0  0  0  0  0  0  0  0  0  0  0
    4.8970    1.4145    0.5279 C   0  0  0  0  0  0  0  0  0  0  0  0
    5.8214    1.4837    1.1447 H   0  0  0  0  0  0  0  0  0  0  0  0
    4.5899    2.4542    0.2818 H   0  0  0  0  0  0  0  0  0  0  0  0
    3.2265   -1.5714   -0.4543 C   0  0  0  0  0  0  0  0  0  0  0  0
    2.4076   -2.0714    0.1044 H   0  0  0  0  0  0  0  0  0  0  0  0
    3.3986   -2.1592   -1.3827 H   0  0  0  0  0  0  0  0  0  0  0  0
    5.6263   -0.8048   -0.4103 C   0  0  0  0  0  0  0  0  0  0  0  0
    6.5672   -0.7746    0.1842 H   0  0  0  0  0  0  0  0  0  0  0  0
    5.8483   -1.3745   -1.3400 H   0  0  0  0  0  0  0  0  0  0  0  0
    2.7824   -0.1449   -0.8153 C   0  0  2  0  0  0  0  0  0  0  0  0
    1.8613   -0.1847   -1.4296 H   0  0  0  0  0  0  0  0  0  0  0  0
    4.2355   -0.7203    1.6844 C   0  0  0  0  0  0  0  0  0  0  0  0
    5.1509   -0.6818    2.3169 H   0  0  0  0  0  0  0  0  0  0  0  0
    3.4396   -1.2200    2.2745 H   0  0  0  0  0  0  0  0  0  0  0  0
    3.8944    0.5660   -1.6120 C   0  0  0  0  0  0  0  0  0  0  0  0
    4.0867    0.0197   -2.5621 H   0  0  0  0  0  0  0  0  0  0  0  0
    3.5599    1.5895   -1.8882 H   0  0  0  0  0  0  0  0  0  0  0  0
    4.5140   -1.5124    0.3916 C   0  0  1  0  0  0  0  0  0  0  0  0
    4.8424   -2.5433    0.6508 H   0  0  0  0  0  0  0  0  0  0  0  0
  2  3  1  6  0  0  0
  2  4  1  0  0  0  0
  2  1  1  0  0  0  0
  4 19  1  0  0  0  0
  4  5  1  1  0  0  0
  6  7  1  6  0  0  0
  6 14  1  0  0  0  0
  6  8  1  0  0  0  0
  8  9  1  0  0  0  0
  8  4  1  0  0  0  0
 10  8  1  0  0  0  0
 11 12  1  0  0  0  0
 11 25  1  0  0  0  0
 13 11  1  0  0  0  0
 14 15  1  0  0  0  0
 14 25  1  0  0  0  0
 16 14  1  0  0  0  0
 17 18  1  6  0  0  0
 17 11  1  0  0  0  0
 17  2  1  0  0  0  0
 19 21  1  0  0  0  0
 19 20  1  0  0  0  0
 22 17  1  0  0  0  0
 22  6  1  0  0  0  0
 23 22  1  0  0  0  0
 24 22  1  0  0  0  0
 25 26  1  1  0  0  0
 25 19  1  0  0  0  0
M  END
