2
q = -1.0, confidence = 0.0

 25 24  0  0  0  0  0  0  0  0999 V2000
    2.5147   -0.0575   -1.9250 S   0  0  0  0  0  1  0  0  0  0  0  0
    1.2603    1.0991    1.1028 S   0  0  0  0  0  1  0  0  0  0  0  0
    2.7303    0.1235    0.0183 P   0  0  0  0  0  4  0  0  0  0  0  0
    3.0568   -1.3433    0.6785 O   0  0  0  0  0  0  0  0  0  0  0  0
    4.1019    0.9287    0.4883 O   0  0  0  0  0  0  0  0  0  0  0  0
    3.3361   -1.4576    2.1083 C   0  0  0  0  0  0  0  0  0  0  0  0
    2.9523   -0.5370    2.6031 H   0  0  0  0  0  0  0  0  0  0  0  0
    2.5637   -2.6592    2.6288 C   0  0  0  0  0  0  0  0  0  0  0  0
    1.4823   -2.5357    2.4255 H   0  0  0  0  0  0  0  0  0  0  0  0
    2.7140   -2.7662    3.7219 H   0  0  0  0  0  0  0  0  0  0  0  0
    2.9130   -3.5893    2.1367 H   0  0  0  0  0  0  0  0  0  0  0  0
    4.8433   -1.5677    2.3040 C   0  0  0  0  0  0  0  0  0  0  0  0
    5.3490   -0.6726    1.8970 H   0  0  0  0  0  0  0  0  0  0  0  0
    5.2339   -2.4649    1.7817 H   0  0  0  0  0  0  0  0  0  0  0  0
    5.0864   -1.6589    3.3822 H   0  0  0  0  0  0  0  0  0  0  0  0
    4.3049    2.2909    0.0276 C   0  0  0  0  0  0  0  0  0  0  0  0
    3.3776    2.6259   -0.4910 H   0  0  0  0  0  0  0  0  0  0  0  0
    5.4594    2.2861   -0.9658 C   0  0  0  0  0  0  0  0  0  0  0  0
    5.2145    1.6226   -1.8178 H   0  0  0  0  0  0  0  0  0  0  0  0
    6.3856    1.9144   -0.4818 H   0  0  0  0  0  0  0  0  0  0  0  0
    5.6504    3.3085   -1.3507 H   0  0  0  0  0  0  0  0  0  0  0  0
    4.5288    3.1640    1.2543 C   0  0  0  0  0  0  0  0  0  0  0  0
    3.6449    3.1139    1.9199 H   0  0  0  0  0  0  0  0  0  0  0  0
    4.6923    4.2202    0.9590 H   0  0  0  0  0  0  0  0  0  0  0  0
    5.4178    2.8179    1.8202 H   0  0  0  0  0  0  0  0  0  0  0  0
  1  3  1  0  0  0  0
  3  5  1  0  0  0  0
  3  4  1  0  0  0  0
  3  2  1  0  0  0  0
  4  6  1  0  0  0  0
  6 12  1  0  0  0  0
  6  7  1  0  0  0  0
  6  8  1  0  0  0  0
  8 10  1  0  0  0  0
  9  8  1  0  0  0  0
 11  8  1  0  0  0  0
 12 15  1  0  0  0  0
 13 12  1  0  0  0  0
 14 12  1  0  0  0  0
 16  5  1  0  0  0  0
 16 22  1  0  0  0  0
 17 16  1  0  0  0  0
 18 20  1  0  0  0  0
 18 16  1  0  0  0  0
 19 18  1  0  0  0  0
 21 18  1  0  0  0  0
 22 25  1  0  0  0  0
 22 23  1  0  0  0  0
 24 22  1  0  0  0  0
M  END
