1
q = -1.0

 26 26  0  0  0  0  0  0  0  0999 V2000
   -0.0756    2.7804    0.0151 S   0  0  0  0  0  1  0  0  0  0  0  0
   -1.9886    0.7240   -0.0177 N   0  0  0  0  0  0  0  0  0  0  0  0
   -1.6809    2.0192   -0.0301 C   0  0  0  0  0  0  0  0  0  0  0  0
   -2.7399    2.8839   -0.0778 N   0  0  0  0  0  0  0  0  0  0  0  0
   -0.9724   -0.1459    0.0240 N   0  0  0  0  0  0  0  0  0  0  0  0
   -2.4392   -2.2042    0.0881 C   0  0  0  0  0  0  0  0  0  0  0  0
   -4.0867    2.3267   -0.1013 C   0  0  0  0  0  0  0  0  0  0  0  0
   -4.2321    1.6672   -0.9821 H   0  0  0  0  0  0  0  0  0  0  0  0
   -4.8153    3.1564   -0.1432 H   0  0  0  0  0  0  0  0  0  0  0  0
   -4.2834    1.7123    0.8024 H   0  0  0  0  0  0  0  0  0  0  0  0
   -1.1963   -1.4375    0.0721 C   0  0  0  0  0  0  0  0  0  0  0  0
   -0.2694   -2.0381    0.1115 H   0  0  0  0  0  0  0  0  0  0  0  0
   -3.7413   -1.6394    0.0411 C   0  0  0  0  0  0  0  0  0  0  0  0
   -3.8279   -0.5481   -0.0090 H   0  0  0  0  0  0  0  0  0  0  0  0
   -2.5422    4.3249   -0.0833 C   0  0  0  0  0  0  0  0  0  0  0  0
   -2.0314    4.6741    0.8398 H   0  0  0  0  0  0  0  0  0  0  0  0
   -3.5291    4.8174   -0.1501 H   0  0  0  0  0  0  0  0  0  0  0  0
   -1.9233    4.6483   -0.9468 H   0  0  0  0  0  0  0  0  0  0  0  0
   -3.4558   -4.4373    0.1717 C   0  0  0  0  0  0  0  0  0  0  0  0
   -3.3413   -5.5309    0.2234 H   0  0  0  0  0  0  0  0  0  0  0  0
   -2.3232   -3.6182    0.1536 C   0  0  0  0  0  0  0  0  0  0  0  0
   -1.3188   -4.0696    0.1913 H   0  0  0  0  0  0  0  0  0  0  0  0
   -4.8713   -2.4666    0.0590 C   0  0  0  0  0  0  0  0  0  0  0  0
   -5.8740   -2.0133    0.0217 H   0  0  0  0  0  0  0  0  0  0  0  0
   -4.7384   -3.8635    0.1242 C   0  0  0  0  0  0  0  0  0  0  0  0
   -5.6323   -4.5056    0.1383 H   0  0  0  0  0  0  0  0  0  0  0  0
  2  5  1  0  0  0  0
  3  2  2  0  0  0  0
  3  1  1  0  0  0  0
  4  3  1  0  0  0  0
  5 11  2  0  0  0  0
  6 21  1  0  0  0  0
  7  4  1  0  0  0  0
  7 10  1  0  0  0  0
  8  7  1  0  0  0  0
  9  7  1  0  0  0  0
 11  6  1  0  0  0  0
 11 12  1  0  0  0  0
 13 23  1  0  0  0  0
 13  6  2  0  0  0  0
 14 13  1  0  0  0  0
 15  4  1  0  0  0  0
 15 16  1  0  0  0  0
 17 15  1  0  0  0  0
 18 15  1  0  0  0  0
 19 20  1  0  0  0  0
 21 19  2  0  0  0  0
 21 22  1  0  0  0  0
 23 25  2  0  0  0  0
 24 23  1  0  0  0  0
 25 26  1  0  0  0  0
 25 19  1  0  0  0  0
M  END
