1
q = -1.0

 26 26  0  0  0  0  0  0  0  0999 V2000
   -2.3863   -0.7781    0.4124 S   0  0  0  0  0  1  0  0  0  0  0  0
   -1.3610    1.7714   -0.0864 N   0  0  0  0  0  0  0  0  0  0  0  0
   -0.1332    1.2619    0.0857 N   0  0  0  0  0  0  0  0  0  0  0  0
    2.2606    1.6769    0.0193 C   0  0  0  0  0  0  0  0  0  0  0  0
    3.9810    0.3436    1.1398 C   0  0  0  0  0  0  0  0  0  0  0  0
    4.2531   -0.4284    1.8759 H   0  0  0  0  0  0  0  0  0  0  0  0
   -3.6494    1.5462   -0.0067 N   0  0  0  0  0  0  0  0  0  0  0  0
    3.2854    2.3429   -0.6976 C   0  0  0  0  0  0  0  0  0  0  0  0
    3.0100    3.1292   -1.4181 H   0  0  0  0  0  0  0  0  0  0  0  0
    2.6363    0.6849    0.9601 C   0  0  0  0  0  0  0  0  0  0  0  0
    1.8547    0.2054    1.5673 H   0  0  0  0  0  0  0  0  0  0  0  0
    0.8691    2.0479   -0.2122 C   0  0  0  0  0  0  0  0  0  0  0  0
    0.6553    3.0418   -0.6580 H   0  0  0  0  0  0  0  0  0  0  0  0
   -4.8820    0.7981    0.1349 C   0  0  0  0  0  0  0  0  0  0  0  0
   -5.6579    1.2532   -0.5146 H   0  0  0  0  0  0  0  0  0  0  0  0
   -5.2607    0.8061    1.1828 H   0  0  0  0  0  0  0  0  0  0  0  0
   -4.7291   -0.2542   -0.1692 H   0  0  0  0  0  0  0  0  0  0  0  0
   -3.7935    2.9915   -0.0867 C   0  0  0  0  0  0  0  0  0  0  0  0
   -2.7949    3.4393   -0.2247 H   0  0  0  0  0  0  0  0  0  0  0  0
   -4.2546    3.3939    0.8432 H   0  0  0  0  0  0  0  0  0  0  0  0
   -4.4488    3.2625   -0.9421 H   0  0  0  0  0  0  0  0  0  0  0  0
    4.6304    1.9999   -0.5143 C   0  0  0  0  0  0  0  0  0  0  0  0
    5.4107    2.5218   -1.0890 H   0  0  0  0  0  0  0  0  0  0  0  0
    4.9847    0.9932    0.3997 C   0  0  0  0  0  0  0  0  0  0  0  0
    6.0420    0.7255    0.5464 H   0  0  0  0  0  0  0  0  0  0  0  0
   -2.4044    0.9690    0.0797 C   0  0  0  0  0  0  0  0  0  0  0  0
  2 26  2  0  0  0  0
  2  3  1  0  0  0  0
  4 10  1  0  0  0  0
  5  6  1  0  0  0  0
  7 26  1  0  0  0  0
  7 14  1  0  0  0  0
  8 22  1  0  0  0  0
  8  4  2  0  0  0  0
  9  8  1  0  0  0  0
 10  5  2  0  0  0  0
 10 11  1  0  0  0  0
 12  4  1  0  0  0  0
 12  3  2  0  0  0  0
 13 12  1  0  0  0  0
 14 16  1  0  0  0  0
 15 14  1  0  0  0  0
 17 14  1  0  0  0  0
 18  7  1  0  0  0  0
 18 20  1  0  0  0  0
 19 18  1  0  0  0  0
 21 18  1  0  0  0  0
 22 24  2  0  0  0  0
 23 22  1  0  0  0  0
 24 25  1  0  0  0  0
 24  5  1  0  0  0  0
 26  1  1  0  0  0  0
M  END
