1
q = -1.0

 35 37  0  0  0  0  0  0  0  0999 V2000
    2.5209    0.8692   -0.7046 S   0  0  0  0  0  1  0  0  0  0  0  0
    3.0672   -2.6683    0.9575 O   0  0  0  0  0  0  0  0  0  0  0  0
    4.3334   -2.1652    1.0422 N   0  0  0  0  0  2  0  0  0  0  0  0
    4.2349   -0.9538    0.4813 N   0  0  0  0  0  0  0  0  0  0  0  0
    2.9864   -0.6370    0.0133 C   0  0  0  0  0  0  0  0  0  0  0  0
    2.2054   -1.7945    0.3160 C   0  0  0  0  0  0  0  0  0  0  0  0
    0.9549   -2.0349    0.0192 N   0  0  0  0  0  2  0  0  0  0  0  0
    0.1671   -2.9764    0.6499 C   0  0  0  0  0  0  0  0  0  0  0  0
    0.3840   -3.4653    1.7675 O   0  0  0  0  0  0  0  0  0  0  0  0
   -1.0871   -3.3146   -0.1153 C   0  0  0  0  0  0  0  0  0  0  0  0
   -1.3183   -2.8439   -1.4241 C   0  0  0  0  0  0  0  0  0  0  0  0
   -0.5642   -2.1918   -1.8879 H   0  0  0  0  0  0  0  0  0  0  0  0
   -2.4852   -3.2085   -2.1089 C   0  0  0  0  0  0  0  0  0  0  0  0
   -2.6613   -2.8359   -3.1291 H   0  0  0  0  0  0  0  0  0  0  0  0
   -3.4381   -4.0324   -1.4876 C   0  0  0  0  0  0  0  0  0  0  0  0
   -4.3577   -4.3115   -2.0252 H   0  0  0  0  0  0  0  0  0  0  0  0
   -3.2184   -4.4965   -0.1789 C   0  0  0  0  0  0  0  0  0  0  0  0
   -3.9647   -5.1426    0.3091 H   0  0  0  0  0  0  0  0  0  0  0  0
   -2.0455   -4.1436    0.5007 C   0  0  0  0  0  0  0  0  0  0  0  0
   -1.8334   -4.4990    1.5201 H   0  0  0  0  0  0  0  0  0  0  0  0
    5.3930   -0.1195    0.4886 C   0  0  0  0  0  0  0  0  0  0  0  0
    6.0255    0.1700    1.7034 C   0  0  0  0  0  0  0  0  0  0  0  0
    5.6151   -0.2674    2.6241 H   0  0  0  0  0  0  0  0  0  0  0  0
    7.1459    1.0118    1.7227 C   0  0  0  0  0  0  0  0  0  0  0  0
    7.6416    1.2461    2.6753 H   0  0  0  0  0  0  0  0  0  0  0  0
    7.6137    1.5619    0.5198 C   0  0  0  0  0  0  0  0  0  0  0  0
    8.4843    2.2351    0.5257 H   0  0  0  0  0  0  0  0  0  0  0  0
    6.9917    1.2656   -0.7025 C   0  0  0  0  0  0  0  0  0  0  0  0
    7.3830    1.6963   -1.6335 H   0  0  0  0  0  0  0  0  0  0  0  0
    5.8811    0.3986   -0.7387 C   0  0  0  0  0  0  0  0  0  0  0  0
    5.2435   -0.0058   -1.8562 O   0  0  0  0  0  0  0  0  0  0  0  0
    5.5232    0.6489   -3.0822 C   0  0  0  0  0  0  0  0  0  0  0  0
    5.3540    1.7444   -3.0008 H   0  0  0  0  0  0  0  0  0  0  0  0
    4.8183    0.2279   -3.8214 H   0  0  0  0  0  0  0  0  0  0  0  0
    6.5657    0.4600   -3.4211 H   0  0  0  0  0  0  0  0  0  0  0  0
  1  5  1  0  0  0  0
  2  3  1  0  0  0  0
  4 21  1  0  0  0  0
  4  3  1  0  0  0  0
  5  6  2  0  0  0  0
  5  4  1  0  0  0  0
  6  2  1  0  0  0  0
  7  6  1  0  0  0  0
  7  8  1  0  0  0  0
  8  9  2  0  0  0  0
 10 19  1  0  0  0  0
 10  8  1  0  0  0  0
 11 10  2  0  0  0  0
 12 11  1  0  0  0  0
 13 15  2  0  0  0  0
 13 11  1  0  0  0  0
 14 13  1  0  0  0  0
 15 17  1  0  0  0  0
 16 15  1  0  0  0  0
 17 18  1  0  0  0  0
 17 19  2  0  0  0  0
 19 20  1  0  0  0  0
 21 22  1  0  0  0  0
 22 24  2  0  0  0  0
 22 23  1  0  0  0  0
 24 25  1  0  0  0  0
 26 27  1  0  0  0  0
 26 24  1  0  0  0  0
 28 26  2  0  0  0  0
 29 28  1  0  0  0  0
 30 28  1  0  0  0  0
 30 21  2  0  0  0  0
 31 30  1  0  0  0  0
 32 33  1  0  0  0  0
 32 31  1  0  0  0  0
 34 32  1  0  0  0  0
 35 32  1  0  0  0  0
M  END
