2
q = -1.0

 17 18  0  0  0  0  0  0  0  0999 V2000
    2.0572   -1.9821   -0.2064 N   0  0  0  0  0  0  0  0  0  0  0  0
    2.3151    0.7345   -0.0211 S   0  0  0  0  0  1  0  0  0  0  0  0
    9.4296    1.3613    0.1344 Cl  0  0  0  0  0  0  0  0  0  0  0  0
    4.1534   -1.3815   -0.1668 N   0  0  0  0  0  0  0  0  0  0  0  0
    2.8689   -0.9144   -0.1497 C   0  0  0  0  0  0  0  0  0  0  0  0
    5.4050   -0.7114   -0.1039 C   0  0  0  0  0  0  0  0  0  0  0  0
    2.8467   -3.0763   -0.2509 N   0  0  0  0  0  0  0  0  0  0  0  0
    6.5067   -1.3865    0.4548 C   0  0  0  0  0  0  0  0  0  0  0  0
    6.3768   -2.4114    0.8264 H   0  0  0  0  0  0  0  0  0  0  0  0
    4.0964   -2.7571   -0.2306 N   0  0  0  0  0  0  0  0  0  0  0  0
    6.7893    1.2371   -0.5251 C   0  0  0  0  0  0  0  0  0  0  0  0
    6.9131    2.2584   -0.9103 H   0  0  0  0  0  0  0  0  0  0  0  0
    5.5476    0.5950   -0.6036 C   0  0  0  0  0  0  0  0  0  0  0  0
    4.6946    1.1117   -1.0663 H   0  0  0  0  0  0  0  0  0  0  0  0
    7.7489   -0.7489    0.5223 C   0  0  0  0  0  0  0  0  0  0  0  0
    8.6170   -1.2631    0.9573 H   0  0  0  0  0  0  0  0  0  0  0  0
    7.8858    0.5640    0.0380 C   0  0  0  0  0  0  0  0  0  0  0  0
  1  5  2  0  0  0  0
  4  5  1  0  0  0  0
  4  6  1  0  0  0  0
  5  2  1  0  0  0  0
  6  8  1  0  0  0  0
  7 10  2  0  0  0  0
  7  1  1  0  0  0  0
  8 15  2  0  0  0  0
  8  9  1  0  0  0  0
 10  4  1  0  0  0  0
 11 17  2  0  0  0  0
 12 11  1  0  0  0  0
 13 11  1  0  0  0  0
 13  6  2  0  0  0  0
 14 13  1  0  0  0  0
 15 16  1  0  0  0  0
 17  3  1  0  0  0  0
 17 15  1  0  0  0  0
M  END
