1
q = 0.0, confidence = 0.998

 12 12  0  0  1  0  0  0  0  0999 V2000
    1.1946   -1.8932    1.2178 S   0  0  0  0  0  1  0  0  0  0  0  0
    6.1037   -2.6792    1.2644 O   0  0  0  0  0  0  0  0  0  0  0  0
    3.8323   -2.3690    1.0934 N   0  0  0  0  0  0  0  0  0  0  0  0
    3.8282   -2.0940    2.0808 H   0  0  0  0  0  0  0  0  0  0  0  0
    2.6904   -2.6086   -0.8982 N   0  0  0  0  0  0  0  0  0  0  0  0
    1.8331   -2.3683   -1.4855 H   0  0  0  0  0  0  0  0  0  0  0  0
    5.1091   -2.7133    0.5530 C   0  0  0  0  0  0  0  0  0  0  0  0
    5.0391   -3.0712   -0.8596 C   0  0  0  0  0  0  0  0  0  0  0  0
    5.9661   -3.3689   -1.3632 H   0  0  0  0  0  0  0  0  0  0  0  0
    3.8491   -2.9764   -1.5255 C   0  0  0  0  0  0  0  0  0  0  0  0
    3.7435   -3.1751   -2.6028 H   0  0  0  0  0  0  0  0  0  0  0  0
    2.6395   -2.2968    0.4290 C   0  0  1  0  0  3  0  0  0  0  0  0
  3  4  1  0  0  0  0
  5 12  1  0  0  0  0
  6  5  1  0  0  0  0
  7  3  1  0  0  0  0
  7  2  2  0  0  0  0
  8  7  1  0  0  0  0
  9  8  1  0  0  0  0
 10  5  1  0  0  0  0
 10  8  2  0  0  0  0
 11 10  1  0  0  0  0
 12  3  1  0  0  0  0
 12  1  1  1  0  0  0
M  END
