2
q = 0.0, confidence = 1.0

 23 25  0  0  1  0  0  0  0  0999 V2000
    3.1859    0.6317   -0.3409 P   0  0  2  0  0  4  0  0  0  0  0  0
    2.2633    2.0972   -1.3863 S   0  0  0  0  0  1  0  0  0  0  0  0
    4.0845   -0.4374    1.9909 N   0  0  1  0  0  0  0  0  0  0  0  0
    5.6074   -0.5774    0.0592 N   0  0  2  0  0  0  0  0  0  0  0  0
    3.6062   -2.0092    0.1655 N   0  0  2  0  0  0  0  0  0  0  0  0
    3.2575    0.6764    1.5300 C   0  0  0  0  0  0  0  0  0  0  0  0
    3.6772    1.6531    1.8504 H   0  0  0  0  0  0  0  0  0  0  0  0
    2.2114    0.5772    1.8893 H   0  0  0  0  0  0  0  0  0  0  0  0
    5.0129    0.5091   -0.7191 C   0  0  0  0  0  0  0  0  0  0  0  0
    5.1414    0.3331   -1.8084 H   0  0  0  0  0  0  0  0  0  0  0  0
    5.4932    1.4806   -0.4747 H   0  0  0  0  0  0  0  0  0  0  0  0
    2.6891   -1.1565   -0.5873 C   0  0  0  0  0  0  0  0  0  0  0  0
    1.6559   -1.2863   -0.1963 H   0  0  0  0  0  0  0  0  0  0  0  0
    2.7197   -1.3868   -1.6738 H   0  0  0  0  0  0  0  0  0  0  0  0
    3.5131   -1.7423    1.6122 C   0  0  0  0  0  0  0  0  0  0  0  0
    4.0776   -2.5337    2.1466 H   0  0  0  0  0  0  0  0  0  0  0  0
    2.4461   -1.7889    1.9076 H   0  0  0  0  0  0  0  0  0  0  0  0
    4.9984   -1.8780   -0.2699 C   0  0  0  0  0  0  0  0  0  0  0  0
    5.5933   -2.6674    0.2345 H   0  0  0  0  0  0  0  0  0  0  0  0
    5.0609   -2.0424   -1.3658 H   0  0  0  0  0  0  0  0  0  0  0  0
    5.4658   -0.3527    1.5089 C   0  0  0  0  0  0  0  0  0  0  0  0
    5.8868    0.6415    1.7659 H   0  0  0  0  0  0  0  0  0  0  0  0
    6.0630   -1.1287    2.0309 H   0  0  0  0  0  0  0  0  0  0  0  0
  1  2  1  6  0  0  0
  1  6  1  0  0  0  0
  3 21  1  6  0  0  0
  4  9  1  6  0  0  0
  4 21  1  0  0  0  0
  5 12  1  6  0  0  0
  5 15  1  0  0  0  0
  6  7  1  0  0  0  0
  6  8  1  0  0  0  0
  6  3  1  0  0  0  0
  9 11  1  0  0  0  0
  9  1  1  0  0  0  0
 10  9  1  0  0  0  0
 12  1  1  0  0  0  0
 12 13  1  0  0  0  0
 14 12  1  0  0  0  0
 15 17  1  0  0  0  0
 15  3  1  0  0  0  0
 15 16  1  0  0  0  0
 18  4  1  0  0  0  0
 18  5  1  0  0  0  0
 18 19  1  0  0  0  0
 20 18  1  0  0  0  0
 21 22  1  0  0  0  0
 21 23  1  0  0  0  0
M  END
