1
q = -1.0

 18 18  0  0  0  0  0  0  0  0999 V2000
    1.1856    2.3510    0.1267 S   0  0  0  0  0  1  0  0  0  0  0  0
    3.7891    1.3281    0.0266 N   0  0  0  0  0  0  0  0  0  0  0  0
    2.9827    2.3229    0.0848 C   0  0  0  0  0  0  0  0  0  0  0  0
    3.5379    3.7271    0.1280 C   0  0  0  0  0  0  0  0  0  0  0  0
    3.3685   -0.7776    1.1815 C   0  0  0  0  0  0  0  0  0  0  0  0
    3.1384   -2.1601    1.1277 C   0  0  0  0  0  0  0  0  0  0  0  0
    3.0098   -2.8188   -0.1065 C   0  0  0  0  0  0  0  0  0  0  0  0
    3.1121   -2.0771   -1.2951 C   0  0  0  0  0  0  0  0  0  0  0  0
    3.3423   -0.6941   -1.2592 C   0  0  0  0  0  0  0  0  0  0  0  0
    3.4798   -0.0213   -0.0158 C   0  0  0  0  0  0  0  0  0  0  0  0
    4.6423    3.6799    0.1018 H   0  0  0  0  0  0  0  0  0  0  0  0
    3.1676    4.3188   -0.7335 H   0  0  0  0  0  0  0  0  0  0  0  0
    3.2070    4.2483    1.0490 H   0  0  0  0  0  0  0  0  0  0  0  0
    3.4795   -0.2594    2.1452 H   0  0  0  0  0  0  0  0  0  0  0  0
    3.0519   -2.7284    2.0662 H   0  0  0  0  0  0  0  0  0  0  0  0
    2.8228   -3.9015   -0.1416 H   0  0  0  0  0  0  0  0  0  0  0  0
    3.0038   -2.5798   -2.2681 H   0  0  0  0  0  0  0  0  0  0  0  0
    3.4326   -0.1109   -2.1872 H   0  0  0  0  0  0  0  0  0  0  0  0
  2  3  2  0  0  0  0
  3  1  1  0  0  0  0
  3  4  1  0  0  0  0
  4 13  1  0  0  0  0
  5 14  1  0  0  0  0
  6  5  1  0  0  0  0
  6 15  1  0  0  0  0
  7  6  2  0  0  0  0
  8  9  2  0  0  0  0
  8  7  1  0  0  0  0
  9 10  1  0  0  0  0
 10  2  1  0  0  0  0
 10  5  2  0  0  0  0
 11  4  1  0  0  0  0
 12  4  1  0  0  0  0
 16  7  1  0  0  0  0
 17  8  1  0  0  0  0
 18  9  1  0  0  0  0
M  END
