1
q = -1.0

 37 38  0  0  0  0  0  0  0  0999 V2000
   -1.2214   -1.1078   -0.4377 S   0  0  0  0  0  1  0  0  0  0  0  0
   -1.5881    0.6269   -0.1982 C   0  0  0  0  0  0  0  0  0  0  0  0
   -5.1402    0.4942    0.0600 C   0  0  0  0  0  0  0  0  0  0  0  0
   -5.5781    1.8238    0.1932 C   0  0  0  0  0  0  0  0  0  0  0  0
   -4.8193    2.6178    0.1889 H   0  0  0  0  0  0  0  0  0  0  0  0
   -6.9458    2.0989    0.3257 C   0  0  0  0  0  0  0  0  0  0  0  0
   -7.2823    3.1409    0.4292 H   0  0  0  0  0  0  0  0  0  0  0  0
   -7.8800    1.0521    0.3258 C   0  0  0  0  0  0  0  0  0  0  0  0
   -8.9540    1.2662    0.4292 H   0  0  0  0  0  0  0  0  0  0  0  0
   -7.4541   -0.2825    0.1931 C   0  0  0  0  0  0  0  0  0  0  0  0
   -8.1930   -1.0947    0.1944 H   0  0  0  0  0  0  0  0  0  0  0  0
   -6.0877   -0.5707    0.0597 C   0  0  0  0  0  0  0  0  0  0  0  0
   -6.4173   -2.9351   -0.0852 C   0  0  0  0  0  0  0  0  0  0  0  0
   -6.9883   -3.0188    0.8662 H   0  0  0  0  0  0  0  0  0  0  0  0
   -5.7762   -3.8277   -0.2030 H   0  0  0  0  0  0  0  0  0  0  0  0
   -7.1366   -2.8879   -0.9329 H   0  0  0  0  0  0  0  0  0  0  0  0
    1.4691    2.4083   -0.1123 C   0  0  0  0  0  0  0  0  0  0  0  0
    1.1481    3.6131    0.5507 C   0  0  0  0  0  0  0  0  0  0  0  0
    0.1186    3.7210    0.9207 H   0  0  0  0  0  0  0  0  0  0  0  0
    2.1128    4.6064    0.7413 C   0  0  0  0  0  0  0  0  0  0  0  0
    1.8529    5.5333    1.2737 H   0  0  0  0  0  0  0  0  0  0  0  0
    3.4189    4.4060    0.2625 C   0  0  0  0  0  0  0  0  0  0  0  0
    4.1888    5.1772    0.4165 H   0  0  0  0  0  0  0  0  0  0  0  0
    3.7594    3.2262   -0.4176 C   0  0  0  0  0  0  0  0  0  0  0  0
    4.7807    3.0937   -0.7974 H   0  0  0  0  0  0  0  0  0  0  0  0
    2.7922    2.2235   -0.6255 C   0  0  0  0  0  0  0  0  0  0  0  0
    4.3318    0.8019   -1.7736 C   0  0  0  0  0  0  0  0  0  0  0  0
    4.6667    1.5515   -2.5239 H   0  0  0  0  0  0  0  0  0  0  0  0
    4.2879   -0.1969   -2.2435 H   0  0  0  0  0  0  0  0  0  0  0  0
    5.0566    0.7646   -0.9320 H   0  0  0  0  0  0  0  0  0  0  0  0
   -0.6742    1.6476   -0.1455 N   0  0  0  0  0  0  0  0  0  0  0  0
    0.5626    1.3494   -0.2531 N   0  0  0  0  0  0  0  0  0  0  0  0
   -3.7981    0.1519   -0.0780 N   0  0  0  0  0  0  0  0  0  0  0  0
   -3.5637   -0.8555   -0.1595 H   0  0  0  0  0  0  0  0  0  0  0  0
   -2.8418    1.0505   -0.0643 N   0  0  0  0  0  0  0  0  0  0  0  0
   -5.5490   -1.8169   -0.0756 O   0  0  0  0  0  0  0  0  0  0  0  0
    3.0176    1.0804   -1.3167 O   0  0  0  0  0  0  0  0  0  0  0  0
  1  2  1  0  0  0  0
  2 31  1  0  0  0  0
  2 35  2  0  0  0  0
  3  4  1  0  0  0  0
  4  6  2  0  0  0  0
  5  4  1  0  0  0  0
  6  8  1  0  0  0  0
  6  7  1  0  0  0  0
  8  9  1  0  0  0  0
 10 11  1  0  0  0  0
 10  8  2  0  0  0  0
 12  3  2  0  0  0  0
 12 10  1  0  0  0  0
 13 36  1  0  0  0  0
 13 14  1  0  0  0  0
 15 13  1  0  0  0  0
 16 13  1  0  0  0  0
 17 18  1  0  0  0  0
 18 20  2  0  0  0  0
 18 19  1  0  0  0  0
 20 21  1  0  0  0  0
 22 23  1  0  0  0  0
 22 20  1  0  0  0  0
 24 22  2  0  0  0  0
 25 24  1  0  0  0  0
 26 24  1  0  0  0  0
 26 17  2  0  0  0  0
 27 37  1  0  0  0  0
 27 30  1  0  0  0  0
 28 27  1  0  0  0  0
 29 27  1  0  0  0  0
 32 31  2  0  0  0  0
 32 17  1  0  0  0  0
 33 35  1  0  0  0  0
 33  3  1  0  0  0  0
 34 33  1  0  0  0  0
 36 12  1  0  0  0  0
 37 26  1  0  0  0  0
M  END
