3
q = -1.0

 14 15  0  0  0  0  0  0  0  0999 V2000
    2.3877    0.2972   -0.1355 S   0  0  0  0  0  0  0  0  0  0  0  0
    2.7273   -1.4748   -0.0662 C   0  0  0  0  0  0  0  0  0  0  0  0
    1.4355   -2.6548   -0.0899 S   0  0  0  0  0  1  0  0  0  0  0  0
    3.9926   -1.7868   -0.0075 N   0  0  0  0  0  0  0  0  0  0  0  0
    4.7977   -0.6673   -0.0081 C   0  0  0  0  0  0  0  0  0  0  0  0
    6.2069   -0.6840    0.0496 C   0  0  0  0  0  0  0  0  0  0  0  0
    6.7400   -1.6423    0.0976 H   0  0  0  0  0  0  0  0  0  0  0  0
    6.8933    0.5356    0.0443 C   0  0  0  0  0  0  0  0  0  0  0  0
    8.6424    0.5320    0.1157 Cl  0  0  0  0  0  0  0  0  0  0  0  0
    6.2191    1.7736   -0.0171 C   0  0  0  0  0  0  0  0  0  0  0  0
    6.8008    2.7055   -0.0200 H   0  0  0  0  0  0  0  0  0  0  0  0
    4.8184    1.8036   -0.0749 C   0  0  0  0  0  0  0  0  0  0  0  0
    4.2903    2.7671   -0.1245 H   0  0  0  0  0  0  0  0  0  0  0  0
    4.1144    0.5917   -0.0702 C   0  0  0  0  0  0  0  0  0  0  0  0
  1 14  1  0  0  0  0
  1  2  1  0  0  0  0
  2  4  2  0  0  0  0
  3  2  1  0  0  0  0
  5  4  1  0  0  0  0
  5  6  1  0  0  0  0
  6  7  1  0  0  0  0
  8  6  2  0  0  0  0
  8  9  1  0  0  0  0
 10  8  1  0  0  0  0
 11 10  1  0  0  0  0
 12 14  1  0  0  0  0
 12 10  2  0  0  0  0
 13 12  1  0  0  0  0
 14  5  2  0  0  0  0
M  END
