2
q = 0.0, confidence = 0.998

 36 38  0  0  1  0  0  0  0  0999 V2000
    2.3465   -0.3509   -1.9109 F   0  0  0  0  0  0  0  0  0  0  0  0
   -0.6762   -0.5151   -1.3726 S   0  0  0  0  0  0  0  0  0  0  0  0
    0.7831   -0.9569   -0.2498 C   0  0  1  0  0  0  0  0  0  0  0  0
    0.4441   -0.7517    0.7811 H   0  0  0  0  0  0  0  0  0  0  0  0
    1.0399   -2.4573   -0.4496 C   0  0  0  0  0  0  0  0  0  0  0  0
    1.5018   -2.8856    0.4615 H   0  0  0  0  0  0  0  0  0  0  0  0
    1.7598   -2.5897   -1.2827 H   0  0  0  0  0  0  0  0  0  0  0  0
   -0.2921   -3.1244   -0.8028 C   0  0  0  0  0  0  0  0  0  0  0  0
   -0.1555   -4.1741   -1.1353 H   0  0  0  0  0  0  0  0  0  0  0  0
   -0.9715   -3.1316    0.0759 H   0  0  0  0  0  0  0  0  0  0  0  0
   -0.9053   -2.2731   -1.9100 C   0  0  0  0  0  0  0  0  0  0  0  0
   -1.9847   -2.4394   -2.0809 H   0  0  0  0  0  0  0  0  0  0  0  0
   -0.3584   -2.3780   -2.8689 H   0  0  0  0  0  0  0  0  0  0  0  0
    1.9786   -0.0479   -0.5861 C   0  0  0  0  0  0  0  0  0  0  0  0
    1.6423    1.4405   -0.5256 C   0  0  0  0  0  0  0  0  0  0  0  0
    2.3328    2.3207   -1.3812 C   0  0  0  0  0  0  0  0  0  0  0  0
    3.0704    1.9133   -2.0865 H   0  0  0  0  0  0  0  0  0  0  0  0
    2.0711    3.6964   -1.3447 C   0  0  0  0  0  0  0  0  0  0  0  0
    2.6144    4.3715   -2.0233 H   0  0  0  0  0  0  0  0  0  0  0  0
    1.1172    4.2127   -0.4526 C   0  0  0  0  0  0  0  0  0  0  0  0
    0.9082    5.2928   -0.4290 H   0  0  0  0  0  0  0  0  0  0  0  0
    0.4270    3.3429    0.4031 C   0  0  0  0  0  0  0  0  0  0  0  0
   -0.3325    3.7302    1.0983 H   0  0  0  0  0  0  0  0  0  0  0  0
    0.6893    1.9642    0.3703 C   0  0  0  0  0  0  0  0  0  0  0  0
    0.1177    1.3075    1.0438 H   0  0  0  0  0  0  0  0  0  0  0  0
    3.1538   -0.4012    0.3296 C   0  0  0  0  0  0  0  0  0  0  0  0
    4.2862   -1.0558   -0.1870 C   0  0  0  0  0  0  0  0  0  0  0  0
    4.3338   -1.2787   -1.2614 H   0  0  0  0  0  0  0  0  0  0  0  0
    5.3463   -1.4097    0.6628 C   0  0  0  0  0  0  0  0  0  0  0  0
    6.2301   -1.9166    0.2462 H   0  0  0  0  0  0  0  0  0  0  0  0
    5.2825   -1.1197    2.0334 C   0  0  0  0  0  0  0  0  0  0  0  0
    6.1138   -1.3988    2.6982 H   0  0  0  0  0  0  0  0  0  0  0  0
    4.1539   -0.4640    2.5521 C   0  0  0  0  0  0  0  0  0  0  0  0
    4.0979   -0.2238    3.6245 H   0  0  0  0  0  0  0  0  0  0  0  0
    3.0973   -0.1027    1.7052 C   0  0  0  0  0  0  0  0  0  0  0  0
    2.2290    0.4324    2.1185 H   0  0  0  0  0  0  0  0  0  0  0  0
  1 14  1  0  0  0  0
  2  3  1  0  0  0  0
  3  4  1  1  0  0  0
  5  3  1  0  0  0  0
  5  6  1  0  0  0  0
  7  5  1  0  0  0  0
  8  5  1  0  0  0  0
  8 10  1  0  0  0  0
  9  8  1  0  0  0  0
 11  2  1  0  0  0  0
 11  8  1  0  0  0  0
 12 11  1  0  0  0  0
 13 11  1  0  0  0  0
 14 15  1  0  0  0  0
 14  3  1  0  0  0  0
 14 26  1  0  0  0  0
 15 24  1  0  0  0  0
 16 18  1  0  0  0  0
 16 15  2  0  0  0  0
 17 16  1  0  0  0  0
 18 20  2  0  0  0  0
 19 18  1  0  0  0  0
 20 21  1  0  0  0  0
 20 22  1  0  0  0  0
 22 23  1  0  0  0  0
 24 22  2  0  0  0  0
 24 25  1  0  0  0  0
 26 35  1  0  0  0  0
 27 26  2  0  0  0  0
 27 29  1  0  0  0  0
 28 27  1  0  0  0  0
 29 31  2  0  0  0  0
 30 29  1  0  0  0  0
 31 33  1  0  0  0  0
 31 32  1  0  0  0  0
 33 34  1  0  0  0  0
 35 36  1  0  0  0  0
 35 33  2  0  0  0  0
M  END
