1
q = 0.0, confidence = 1.0

 39 41  0  0  1  0  0  0  0  0999 V2000
   -2.3000   -1.4404   -2.8400 S   0  0  0  0  0  1  0  0  0  0  0  0
   -4.3983   -0.9402   -1.2529 N   0  0  0  0  0  0  0  0  0  0  0  0
    0.3879    2.6860    1.0517 O   0  0  0  0  0  0  0  0  0  0  0  0
   -5.3477   -1.2714   -0.3314 N   0  0  0  0  0  2  0  0  0  0  0  0
   -3.7257   -3.1535   -1.2975 N   0  0  0  0  0  0  0  0  0  0  0  0
   -4.2924   -3.2388   -0.4462 H   0  0  0  0  0  0  0  0  0  0  0  0
   -2.8913   -3.7447   -1.3286 H   0  0  0  0  0  0  0  0  0  0  0  0
   -7.1321   -0.2341    0.9423 C   0  0  0  0  0  0  0  0  0  0  0  0
   -3.0221    1.0682   -0.7685 C   0  0  0  0  0  0  0  0  0  0  0  0
   -6.0356   -0.2032   -0.0212 C   0  0  2  0  0  3  0  0  0  0  0  0
   -7.4728   -1.4325    1.6187 C   0  0  0  0  0  0  0  0  0  0  0  0
   -6.8904   -2.3404    1.4071 H   0  0  0  0  0  0  0  0  0  0  0  0
   -5.5906    1.0155   -0.8076 C   0  0  0  0  0  0  0  0  0  0  0  0
   -5.4299    1.9061   -0.1705 H   0  0  0  0  0  0  0  0  0  0  0  0
   -6.3588    1.2798   -1.5666 H   0  0  0  0  0  0  0  0  0  0  0  0
   -8.9362    0.9071    2.1384 C   0  0  0  0  0  0  0  0  0  0  0  0
   -9.5076    1.8257    2.3403 H   0  0  0  0  0  0  0  0  0  0  0  0
   -7.8798    0.9352    1.2178 C   0  0  0  0  0  0  0  0  0  0  0  0
   -7.6330    1.8771    0.7059 H   0  0  0  0  0  0  0  0  0  0  0  0
   -4.2663    0.5258   -1.4493 C   0  0  2  0  0  0  0  0  0  0  0  0
   -4.2112    0.7388   -2.5336 H   0  0  0  0  0  0  0  0  0  0  0  0
   -2.3949    2.2308   -1.2565 C   0  0  0  0  0  0  0  0  0  0  0  0
   -2.7863    2.7218   -2.1616 H   0  0  0  0  0  0  0  0  0  0  0  0
   -9.2638   -0.2855    2.8011 C   0  0  0  0  0  0  0  0  0  0  0  0
  -10.0921   -0.3066    3.5253 H   0  0  0  0  0  0  0  0  0  0  0  0
   -8.5259   -1.4545    2.5359 C   0  0  0  0  0  0  0  0  0  0  0  0
   -8.7773   -2.3924    3.0541 H   0  0  0  0  0  0  0  0  0  0  0  0
   -2.4788    0.4373    0.3655 C   0  0  0  0  0  0  0  0  0  0  0  0
   -2.9345   -0.4762    0.7751 H   0  0  0  0  0  0  0  0  0  0  0  0
   -0.7214    2.1161    0.5094 C   0  0  0  0  0  0  0  0  0  0  0  0
   -3.5137   -1.8818   -1.7182 C   0  0  1  0  0  3  0  0  0  0  0  0
   -1.2678    2.7593   -0.6229 C   0  0  0  0  0  0  0  0  0  0  0  0
   -0.7667    3.6582   -1.0096 H   0  0  0  0  0  0  0  0  0  0  0  0
   -1.3285    0.9423    0.9963 C   0  0  0  0  0  0  0  0  0  0  0  0
   -0.9098    0.3815    1.8413 H   0  0  0  0  0  0  0  0  0  0  0  0
    1.0583    1.9868    2.0878 C   0  0  0  0  0  0  0  0  0  0  0  0
    1.9681    2.5712    2.3148 H   0  0  0  0  0  0  0  0  0  0  0  0
    1.3545    0.9646    1.7657 H   0  0  0  0  0  0  0  0  0  0  0  0
    0.4298    1.9086    3.0032 H   0  0  0  0  0  0  0  0  0  0  0  0
  2  4  1  0  0  0  0
  3 36  1  0  0  0  0
  4 10  1  0  0  0  0
  5  6  1  0  0  0  0
  7  5  1  0  0  0  0
  8 18  2  0  0  0  0
  8 11  1  0  0  0  0
  9 28  1  0  0  0  0
 10  8  1  6  0  0  0
 11 26  2  0  0  0  0
 12 11  1  0  0  0  0
 13 14  1  0  0  0  0
 13 10  1  0  0  0  0
 15 13  1  0  0  0  0
 16 17  1  0  0  0  0
 16 24  2  0  0  0  0
 18 16  1  0  0  0  0
 19 18  1  0  0  0  0
 20 21  1  6  0  0  0
 20  2  1  0  0  0  0
 20 13  1  0  0  0  0
 20  9  1  0  0  0  0
 22  9  2  0  0  0  0
 22 32  1  0  0  0  0
 23 22  1  0  0  0  0
 24 25  1  0  0  0  0
 26 24  1  0  0  0  0
 26 27  1  0  0  0  0
 28 29  1  0  0  0  0
 28 34  2  0  0  0  0
 30 34  1  0  0  0  0
 30  3  1  0  0  0  0
 31  1  1  6  0  0  0
 31  5  1  0  0  0  0
 31  2  1  0  0  0  0
 32 30  2  0  0  0  0
 33 32  1  0  0  0  0
 34 35  1  0  0  0  0
 36 37  1  0  0  0  0
 36 39  1  0  0  0  0
 38 36  1  0  0  0  0
M  END
