1
q = -1.0

 20 20  0  0  0  0  0  0  0  0999 V2000
    1.8674   -2.3206   -0.0062 S   0  0  0  0  0  1  0  0  0  0  0  0
    4.3459   -1.4186    0.0363 N   0  0  0  0  0  4  0  0  0  0  0  0
    2.8555    0.3123   -0.0255 N   0  0  0  0  0  2  0  0  0  0  0  0
    1.5691    0.7470   -0.0234 N   0  0  0  0  0  0  0  0  0  0  0  0
    3.0497   -0.9876   -0.0093 C   0  0  0  0  0  0  0  0  0  0  0  0
    1.3893    2.0318    0.0077 C   0  0  0  0  0  0  0  0  0  0  0  0
    0.0269    2.6872    0.0070 C   0  0  0  0  0  0  0  0  0  0  0  0
    0.3198    4.1126    0.5121 C   0  0  0  0  0  0  0  0  0  0  0  0
    1.7178    4.4183   -0.0601 C   0  0  0  0  0  0  0  0  0  0  0  0
    2.4756    3.0834    0.0748 C   0  0  0  0  0  0  0  0  0  0  0  0
    5.0706   -0.7154   -0.1140 H   0  0  0  0  0  0  0  0  0  0  0  0
    4.5495   -2.3950   -0.1675 H   0  0  0  0  0  0  0  0  0  0  0  0
   -0.7256    2.1272    0.5959 H   0  0  0  0  0  0  0  0  0  0  0  0
   -0.3621    2.7256   -1.0371 H   0  0  0  0  0  0  0  0  0  0  0  0
   -0.4506    4.8494    0.2115 H   0  0  0  0  0  0  0  0  0  0  0  0
    0.3606    4.1126    1.6229 H   0  0  0  0  0  0  0  0  0  0  0  0
    2.2238    5.2627    0.4481 H   0  0  0  0  0  0  0  0  0  0  0  0
    1.6279    4.6909   -1.1338 H   0  0  0  0  0  0  0  0  0  0  0  0
    3.2597    2.9034   -0.6882 H   0  0  0  0  0  0  0  0  0  0  0  0
    2.9932    2.9924    1.0564 H   0  0  0  0  0  0  0  0  0  0  0  0
  3  4  1  0  0  0  0
  3  5  1  0  0  0  0
  4  6  2  0  0  0  0
  5  1  1  0  0  0  0
  5  2  2  0  0  0  0
  6 10  1  0  0  0  0
  7  6  1  0  0  0  0
  7  8  1  0  0  0  0
  7 13  1  0  0  0  0
  8 16  1  0  0  0  0
  9 10  1  0  0  0  0
  9 17  1  0  0  0  0
  9  8  1  0  0  0  0
 10 20  1  0  0  0  0
 11  2  1  0  0  0  0
 12  2  1  0  0  0  0
 14  7  1  0  0  0  0
 15  8  1  0  0  0  0
 18  9  1  0  0  0  0
 19 10  1  0  0  0  0
M  END
