2
q = -2.0, confidence = 0.85

 18 18  0  0  0  0  0  0  0  0999 V2000
   -5.7304    3.1940   -0.1893 Cl  0  0  0  0  0  0  0  0  0  0  0  0
   -2.4166   -1.5977   -0.3023 S   0  0  0  0  0  1  0  0  0  0  0  0
   -0.3173    0.3889   -1.3354 O   0  5  0  0  0  0  0  0  0  0  0  0
   -1.2525    0.9708   -0.7205 C   0  0  0  0  0  0  0  0  0  0  0  0
   -1.2087    2.1658   -0.2798 O   0  0  0  0  0  0  0  0  0  0  0  0
   -2.5383    0.1670   -0.4280 C   0  0  0  0  0  0  0  0  0  0  0  0
   -3.7017    0.8901   -0.3222 C   0  0  0  0  0  0  0  0  0  0  0  0
   -3.5267    1.9736   -0.4048 H   0  0  0  0  0  0  0  0  0  0  0  0
   -5.0830    0.4992   -0.1048 C   0  0  0  0  0  0  0  0  0  0  0  0
   -6.1133    1.4873   -0.0223 C   0  0  0  0  0  0  0  0  0  0  0  0
   -7.4586    1.1606    0.1935 C   0  0  0  0  0  0  0  0  0  0  0  0
   -8.1983    1.9724    0.2466 H   0  0  0  0  0  0  0  0  0  0  0  0
   -7.8423   -0.1809    0.3382 C   0  0  0  0  0  0  0  0  0  0  0  0
   -8.9002   -0.4343    0.5067 H   0  0  0  0  0  0  0  0  0  0  0  0
   -6.8616   -1.1829    0.2625 C   0  0  0  0  0  0  0  0  0  0  0  0
   -7.1416   -2.2421    0.3730 H   0  0  0  0  0  0  0  0  0  0  0  0
   -5.5224   -0.8471    0.0432 C   0  0  0  0  0  0  0  0  0  0  0  0
   -4.7643   -1.6416   -0.0117 H   0  0  0  0  0  0  0  0  0  0  0  0
  1 10  1  0  0  0  0
  3  4  1  0  0  0  0
  4  6  1  0  0  0  0
  4  5  2  0  0  0  0
  6  7  2  0  0  0  0
  6  2  1  0  0  0  0
  7  9  1  0  0  0  0
  8  7  1  0  0  0  0
  9 10  2  0  0  0  0
  9 17  1  0  0  0  0
 10 11  1  0  0  0  0
 11 12  1  0  0  0  0
 11 13  2  0  0  0  0
 13 14  1  0  0  0  0
 15 13  1  0  0  0  0
 15 16  1  0  0  0  0
 17 15  2  0  0  0  0
 18 17  1  0  0  0  0
M  CHG  1   3  -1
M  END
