1
q = -1.0, confidence = 0.0

 16 16  0  0  0  0  0  0  0  0999 V2000
   -1.4411   -1.5657   -0.2859 S   0  0  0  0  0  1  0  0  0  0  0  0
   -3.7247   -0.0074   -1.5523 S   0  0  0  0  0  0  0  0  0  0  0  0
   -3.3443    0.3784    0.1467 C   0  0  0  0  0  0  0  0  0  0  0  0
   -4.0367    1.3234    0.9265 C   0  0  0  0  0  0  0  0  0  0  0  0
   -4.8982    1.8659    0.5110 H   0  0  0  0  0  0  0  0  0  0  0  0
   -3.6248    1.6025    2.2418 C   0  0  0  0  0  0  0  0  0  0  0  0
   -4.1717    2.3513    2.8363 H   0  0  0  0  0  0  0  0  0  0  0  0
   -2.5133    0.9316    2.7796 C   0  0  0  0  0  0  0  0  0  0  0  0
   -2.1747    1.1508    3.8049 H   0  0  0  0  0  0  0  0  0  0  0  0
   -1.8319   -0.0220    2.0135 C   0  0  0  0  0  0  0  0  0  0  0  0
   -0.9577   -0.5556    2.4170 H   0  0  0  0  0  0  0  0  0  0  0  0
   -2.2297   -0.3341    0.6917 C   0  0  0  0  0  0  0  0  0  0  0  0
   -5.0855    1.1612   -1.8905 C   0  0  0  0  0  0  0  0  0  0  0  0
   -5.3526    1.0094   -2.9545 H   0  0  0  0  0  0  0  0  0  0  0  0
   -4.7741    2.2165   -1.7464 H   0  0  0  0  0  0  0  0  0  0  0  0
   -5.9810    0.9570   -1.2676 H   0  0  0  0  0  0  0  0  0  0  0  0
  1 12  1  0  0  0  0
  2  3  1  0  0  0  0
  3 12  2  0  0  0  0
  3  4  1  0  0  0  0
  4  6  2  0  0  0  0
  5  4  1  0  0  0  0
  6  8  1  0  0  0  0
  6  7  1  0  0  0  0
  8  9  1  0  0  0  0
 10 11  1  0  0  0  0
 10  8  2  0  0  0  0
 12 10  1  0  0  0  0
 13 15  1  0  0  0  0
 13  2  1  0  0  0  0
 13 16  1  0  0  0  0
 14 13  1  0  0  0  0
M  END
