1
q = -1.0

 22 22  0  0  0  0  0  0  0  0999 V2000
    2.5244   -1.1345    0.1991 S   0  0  0  0  0  1  0  0  0  0  0  0
    2.0662    1.4256   -0.2133 O   0  0  0  0  0  0  0  0  0  0  0  0
    4.3008    0.9573   -0.0786 N   0  0  0  0  0  0  0  0  0  0  0  0
    3.0881    0.5375   -0.0606 C   0  0  0  0  0  0  0  0  0  0  0  0
    2.4141    2.8069   -0.4144 C   0  0  0  0  0  0  0  0  0  0  0  0
    3.0743    3.1393    0.4150 H   0  0  0  0  0  0  0  0  0  0  0  0
    3.0121    2.8996   -1.3468 H   0  0  0  0  0  0  0  0  0  0  0  0
    1.1189    3.5940   -0.4796 C   0  0  0  0  0  0  0  0  0  0  0  0
    1.3337    4.6689   -0.6425 H   0  0  0  0  0  0  0  0  0  0  0  0
    0.5459    3.4949    0.4645 H   0  0  0  0  0  0  0  0  0  0  0  0
    0.4726    3.2377   -1.3065 H   0  0  0  0  0  0  0  0  0  0  0  0
    5.4411    0.1585   -0.0148 C   0  0  0  0  0  0  0  0  0  0  0  0
    5.6361   -0.9741   -0.8433 C   0  0  0  0  0  0  0  0  0  0  0  0
    4.8383   -1.2714   -1.5390 H   0  0  0  0  0  0  0  0  0  0  0  0
    6.8316   -1.7017   -0.7809 C   0  0  0  0  0  0  0  0  0  0  0  0
    6.9650   -2.5770   -1.4359 H   0  0  0  0  0  0  0  0  0  0  0  0
    7.8541   -1.3270    0.1064 C   0  0  0  0  0  0  0  0  0  0  0  0
    8.7897   -1.9046    0.1534 H   0  0  0  0  0  0  0  0  0  0  0  0
    7.6712   -0.2017    0.9276 C   0  0  0  0  0  0  0  0  0  0  0  0
    8.4660    0.1070    1.6246 H   0  0  0  0  0  0  0  0  0  0  0  0
    6.4849    0.5392    0.8622 C   0  0  0  0  0  0  0  0  0  0  0  0
    6.3349    1.4296    1.4907 H   0  0  0  0  0  0  0  0  0  0  0  0
  2  4  1  0  0  0  0
  3  4  2  0  0  0  0
  3 12  1  0  0  0  0
  4  1  1  0  0  0  0
  5  2  1  0  0  0  0
  5  6  1  0  0  0  0
  7  5  1  0  0  0  0
  8  5  1  0  0  0  0
  8 10  1  0  0  0  0
  9  8  1  0  0  0  0
 11  8  1  0  0  0  0
 12 21  1  0  0  0  0
 13 15  1  0  0  0  0
 13 12  2  0  0  0  0
 14 13  1  0  0  0  0
 15 17  2  0  0  0  0
 16 15  1  0  0  0  0
 17 18  1  0  0  0  0
 17 19  1  0  0  0  0
 19 20  1  0  0  0  0
 21 19  2  0  0  0  0
 21 22  1  0  0  0  0
M  END
