1
q = 0.0, confidence = 0.994

 40 42  0  0  0  0  0  0  0  0999 V2000
   -0.9236   -0.0319   -0.8791 S   0  0  0  0  0  1  0  0  0  0  0  0
    0.1670   -0.8570    1.8995 S   0  0  0  0  0  0  0  0  0  0  0  0
    1.8199    1.7815    0.6226 N   0  0  0  0  0  0  0  0  0  0  0  0
    2.4474    0.1138   -0.6973 N   0  0  0  0  0  0  0  0  0  0  0  0
    0.2125   -0.1222    0.4009 C   0  0  0  0  0  0  0  0  0  0  0  0
    1.4819    0.5899    0.1058 C   0  0  0  0  0  3  0  0  0  0  0  0
    3.1120    2.2327    0.0920 C   0  0  0  0  0  0  0  0  0  0  0  0
    3.7814    2.5459    0.9190 H   0  0  0  0  0  0  0  0  0  0  0  0
    2.9534    3.1093   -0.5722 H   0  0  0  0  0  0  0  0  0  0  0  0
    3.6278    0.9889   -0.6634 C   0  0  0  0  0  0  0  0  0  0  0  0
    3.9691    1.2158   -1.6935 H   0  0  0  0  0  0  0  0  0  0  0  0
    4.4554    0.4722   -0.1319 H   0  0  0  0  0  0  0  0  0  0  0  0
    0.9645    2.6522    1.4221 C   0  0  0  0  0  0  0  0  0  0  0  0
    1.5278    2.9443    2.3335 H   0  0  0  0  0  0  0  0  0  0  0  0
    0.1024    2.0400    1.7514 H   0  0  0  0  0  0  0  0  0  0  0  0
    0.5244    3.8836    0.6547 C   0  0  0  0  0  0  0  0  0  0  0  0
   -0.3519    3.7534   -0.4424 C   0  0  0  0  0  0  0  0  0  0  0  0
   -0.7320    2.7564   -0.7213 H   0  0  0  0  0  0  0  0  0  0  0  0
   -0.7427    4.8853   -1.1705 C   0  0  0  0  0  0  0  0  0  0  0  0
   -1.4336    4.7742   -2.0198 H   0  0  0  0  0  0  0  0  0  0  0  0
   -0.2648    6.1572   -0.8116 C   0  0  0  0  0  0  0  0  0  0  0  0
   -0.5774    7.0450   -1.3820 H   0  0  0  0  0  0  0  0  0  0  0  0
    0.6072    6.2936    0.2788 C   0  0  0  0  0  0  0  0  0  0  0  0
    0.9821    7.2875    0.5667 H   0  0  0  0  0  0  0  0  0  0  0  0
    1.0019    5.1594    1.0066 C   0  0  0  0  0  0  0  0  0  0  0  0
    1.6839    5.2671    1.8656 H   0  0  0  0  0  0  0  0  0  0  0  0
    2.4919   -1.2151   -1.2998 C   0  0  0  0  0  0  0  0  0  0  0  0
    2.6802   -1.0990   -2.3879 H   0  0  0  0  0  0  0  0  0  0  0  0
    1.4807   -1.6536   -1.1872 H   0  0  0  0  0  0  0  0  0  0  0  0
    3.5571   -2.0920   -0.6704 C   0  0  0  0  0  0  0  0  0  0  0  0
    4.6283   -2.5844   -1.4375 C   0  0  0  0  0  0  0  0  0  0  0  0
    4.6865   -2.3406   -2.5107 H   0  0  0  0  0  0  0  0  0  0  0  0
    5.6160   -3.3893   -0.8473 C   0  0  0  0  0  0  0  0  0  0  0  0
    6.4464   -3.7743   -1.4584 H   0  0  0  0  0  0  0  0  0  0  0  0
    5.5428   -3.6993    0.5188 C   0  0  0  0  0  0  0  0  0  0  0  0
    6.3157   -4.3301    0.9834 H   0  0  0  0  0  0  0  0  0  0  0  0
    4.4780   -3.2053    1.2919 C   0  0  0  0  0  0  0  0  0  0  0  0
    4.4129   -3.4516    2.3625 H   0  0  0  0  0  0  0  0  0  0  0  0
    3.4881   -2.4069    0.7028 C   0  0  0  0  0  0  0  0  0  0  0  0
    2.6467   -2.0267    1.3076 H   0  0  0  0  0  0  0  0  0  0  0  0
  1  5  1  0  0  0  0
  3 13  1  0  0  0  0
  4 10  1  0  0  0  0
  4  6  1  0  0  0  0
  5  2  2  0  0  0  0
  6  5  1  0  0  0  0
  6  3  1  0  0  0  0
  7  3  1  0  0  0  0
  7  8  1  0  0  0  0
  9  7  1  0  0  0  0
 10 12  1  0  0  0  0
 10  7  1  0  0  0  0
 11 10  1  0  0  0  0
 13 15  1  0  0  0  0
 13 14  1  0  0  0  0
 16 25  1  0  0  0  0
 16 13  1  0  0  0  0
 17 16  2  0  0  0  0
 18 17  1  0  0  0  0
 19 21  2  0  0  0  0
 19 17  1  0  0  0  0
 20 19  1  0  0  0  0
 21 23  1  0  0  0  0
 22 21  1  0  0  0  0
 23 24  1  0  0  0  0
 23 25  2  0  0  0  0
 25 26  1  0  0  0  0
 27 29  1  0  0  0  0
 27  4  1  0  0  0  0
 27 30  1  0  0  0  0
 28 27  1  0  0  0  0
 30 39  1  0  0  0  0
 31 33  1  0  0  0  0
 31 30  2  0  0  0  0
 32 31  1  0  0  0  0
 33 35  2  0  0  0  0
 34 33  1  0  0  0  0
 35 36  1  0  0  0  0
 35 37  1  0  0  0  0
 37 38  1  0  0  0  0
 39 37  2  0  0  0  0
 39 40  1  0  0  0  0
M  END
