2
q = -1.0, confidence = 0.0

 12 12  0  0  0  0  0  0  0  0999 V2000
   -1.4881   -4.3852    1.2698 Br  0  0  0  0  0  0  0  0  0  0  0  0
   -0.1130   -1.5300    0.5994 S   0  0  0  0  0  1  0  0  0  0  0  0
   -1.1297   -2.2569   -0.6452 C   0  0  0  0  0  0  0  0  0  0  0  0
   -1.7685   -3.4999   -0.3964 C   0  0  0  0  0  0  0  0  0  0  0  0
   -2.6001   -4.1068   -1.3457 C   0  0  0  0  0  0  0  0  0  0  0  0
   -2.8126   -3.4917   -2.5899 C   0  0  0  0  0  0  0  0  0  0  0  0
   -2.1716   -2.2763   -2.8747 C   0  0  0  0  0  0  0  0  0  0  0  0
   -1.3419   -1.6756   -1.9212 C   0  0  0  0  0  0  0  0  0  0  0  0
   -3.0819   -5.0641   -1.1003 H   0  0  0  0  0  0  0  0  0  0  0  0
   -3.4693   -3.9703   -3.3313 H   0  0  0  0  0  0  0  0  0  0  0  0
   -2.3184   -1.7834   -3.8480 H   0  0  0  0  0  0  0  0  0  0  0  0
   -0.8359   -0.7216   -2.1381 H   0  0  0  0  0  0  0  0  0  0  0  0
  3  4  1  0  0  0  0
  3  2  1  0  0  0  0
  4  1  1  0  0  0  0
  5  9  1  0  0  0  0
  5  4  2  0  0  0  0
  6  5  1  0  0  0  0
  7  6  2  0  0  0  0
  7  8  1  0  0  0  0
  8  3  2  0  0  0  0
 10  6  1  0  0  0  0
 11  7  1  0  0  0  0
 12  8  1  0  0  0  0
M  END
