7
q = -1.0, confidence = 0.0

 22 23  0  0  0  0  0  0  0  0999 V2000
   -2.4825    4.0171    0.0999 N   0  0  0  0  0  0  0  0  0  0  0  0
   -3.5460    3.1260    0.1117 N   0  0  0  0  0  0  0  0  0  0  0  0
   -1.6681    1.9545   -0.1016 O   0  0  0  0  0  0  0  0  0  0  0  0
   -5.2510   -3.2928   -0.1858 O   0  0  0  0  0  0  0  0  0  0  0  0
   -5.8351    1.4878    0.4008 O   0  0  0  0  0  0  0  0  0  0  0  0
   -6.7542    1.1865    0.5261 H   0  0  0  0  0  0  0  0  0  0  0  0
    0.2685    3.8532   -0.1123 S   0  0  0  0  0  1  0  0  0  0  0  0
   -1.3859    3.3034   -0.0270 C   0  0  0  0  0  0  0  0  0  0  0  0
   -3.0445    1.9171   -0.0062 C   0  0  0  0  0  0  0  0  0  0  0  0
   -3.6660    0.6021   -0.0488 C   0  0  0  0  0  0  0  0  0  0  0  0
   -2.8735   -0.5467   -0.3007 C   0  0  0  0  0  0  0  0  0  0  0  0
   -1.7982   -0.4105   -0.4800 H   0  0  0  0  0  0  0  0  0  0  0  0
   -3.4100   -1.8306   -0.3416 C   0  0  0  0  0  0  0  0  0  0  0  0
   -2.7802   -2.7070   -0.5433 H   0  0  0  0  0  0  0  0  0  0  0  0
   -4.7938   -2.0115   -0.1300 C   0  0  0  0  0  0  0  0  0  0  0  0
   -5.6095   -0.8921    0.1182 C   0  0  0  0  0  0  0  0  0  0  0  0
   -6.6909   -1.0027    0.2855 H   0  0  0  0  0  0  0  0  0  0  0  0
   -5.0592    0.4067    0.1596 C   0  0  0  0  0  0  0  0  0  0  0  0
   -6.6309   -3.5252    0.0146 C   0  0  0  0  0  0  0  0  0  0  0  0
   -6.9662   -3.1960    1.0243 H   0  0  0  0  0  0  0  0  0  0  0  0
   -6.7829   -4.6170   -0.0737 H   0  0  0  0  0  0  0  0  0  0  0  0
   -7.2549   -3.0118   -0.7518 H   0  0  0  0  0  0  0  0  0  0  0  0
  1  2  1  0  0  0  0
  3  8  1  0  0  0  0
  3  9  1  0  0  0  0
  4 15  1  0  0  0  0
  4 19  1  0  0  0  0
  5  6  1  0  0  0  0
  7  8  1  0  0  0  0
  8  1  2  0  0  0  0
  9  2  2  0  0  0  0
 10  9  1  0  0  0  0
 10 18  1  0  0  0  0
 11 10  2  0  0  0  0
 12 11  1  0  0  0  0
 13 11  1  0  0  0  0
 13 15  2  0  0  0  0
 14 13  1  0  0  0  0
 15 16  1  0  0  0  0
 16 18  2  0  0  0  0
 16 17  1  0  0  0  0
 18  5  1  0  0  0  0
 19 20  1  0  0  0  0
 21 19  1  0  0  0  0
 22 19  1  0  0  0  0
M  END
