1
q = -1.0

 27 27  0  0  0  0  0  0  0  0999 V2000
    1.9974    0.7985   -0.4924 S   0  0  0  0  0  1  0  0  0  0  0  0
    1.4572   -1.7664   -0.2373 O   0  0  0  0  0  0  0  0  0  0  0  0
    8.6714    2.4415    0.8098 O   0  0  0  0  0  0  0  0  0  0  0  0
    9.4529    1.2425   -0.8434 O   0  0  0  0  0  0  0  0  0  0  0  0
    3.7059   -1.3323   -0.3095 N   0  0  0  0  0  0  0  0  0  0  0  0
    8.5645    1.5561   -0.0446 N   0  0  0  0  0  0  0  0  0  0  0  0
    2.4934   -0.8916   -0.3146 C   0  0  0  0  0  0  0  0  0  0  0  0
    4.8570   -0.5715   -0.2522 C   0  0  0  0  0  0  0  0  0  0  0  0
    5.0499    0.4604    0.7080 C   0  0  0  0  0  0  0  0  0  0  0  0
    4.2309    0.7074    1.3978 H   0  0  0  0  0  0  0  0  0  0  0  0
    6.2588    1.1506    0.7785 C   0  0  0  0  0  0  0  0  0  0  0  0
    6.4302    1.9482    1.5136 H   0  0  0  0  0  0  0  0  0  0  0  0
    7.2919    0.8246   -0.1156 C   0  0  0  0  0  0  0  0  0  0  0  0
    7.1339   -0.1913   -1.0725 C   0  0  0  0  0  0  0  0  0  0  0  0
    7.9698   -0.4140   -1.7488 H   0  0  0  0  0  0  0  0  0  0  0  0
    5.9279   -0.8874   -1.1306 C   0  0  0  0  0  0  0  0  0  0  0  0
    5.7785   -1.6953   -1.8612 H   0  0  0  0  0  0  0  0  0  0  0  0
    1.7591   -3.1802   -0.0588 C   0  0  0  0  0  0  0  0  0  0  0  0
    2.6919   -3.3866   -0.6243 H   0  0  0  0  0  0  0  0  0  0  0  0
    1.9931   -3.4702    1.4193 C   0  0  0  0  0  0  0  0  0  0  0  0
    2.8534   -2.8845    1.7958 H   0  0  0  0  0  0  0  0  0  0  0  0
    2.2171   -4.5454    1.5708 H   0  0  0  0  0  0  0  0  0  0  0  0
    1.0940   -3.2145    2.0178 H   0  0  0  0  0  0  0  0  0  0  0  0
    0.5833   -3.9391   -0.6566 C   0  0  0  0  0  0  0  0  0  0  0  0
    0.4361   -3.6617   -1.7187 H   0  0  0  0  0  0  0  0  0  0  0  0
   -0.3532   -3.7166   -0.1059 H   0  0  0  0  0  0  0  0  0  0  0  0
    0.7654   -5.0306   -0.6010 H   0  0  0  0  0  0  0  0  0  0  0  0
  1  7  1  0  0  0  0
  2 18  1  0  0  0  0
  4  6  2  0  0  0  0
  5  8  1  0  0  0  0
  6  3  2  0  0  0  0
  7  5  2  0  0  0  0
  7  2  1  0  0  0  0
  8  9  1  0  0  0  0
  9 11  2  0  0  0  0
  9 10  1  0  0  0  0
 11 12  1  0  0  0  0
 13  6  1  0  0  0  0
 13 11  1  0  0  0  0
 14 13  2  0  0  0  0
 15 14  1  0  0  0  0
 16 14  1  0  0  0  0
 16  8  2  0  0  0  0
 17 16  1  0  0  0  0
 18 20  1  0  0  0  0
 19 18  1  0  0  0  0
 20 22  1  0  0  0  0
 20 21  1  0  0  0  0
 20 23  1  0  0  0  0
 24 27  1  0  0  0  0
 24 26  1  0  0  0  0
 24 18  1  0  0  0  0
 25 24  1  0  0  0  0
M  END
