1
q = -1.0

 16 15  0  0  0  0  0  0  0  0999 V2000
   -2.3359    0.3730   -1.2155 S   0  0  0  0  0  1  0  0  0  0  0  0
   -1.7814   -1.0873    0.8990 O   0  0  0  0  0  0  0  0  0  0  0  0
   -2.6278   -0.8535    0.0200 C   0  0  0  0  0  0  0  0  0  0  0  0
   -3.9594   -1.6324   -0.0306 C   0  0  0  0  0  0  0  0  0  0  0  0
   -3.9965   -2.4457   -1.3426 C   0  0  0  0  0  0  0  0  0  0  0  0
   -4.0318   -2.5783    1.1779 C   0  0  0  0  0  0  0  0  0  0  0  0
   -5.1368   -0.6372    0.0001 C   0  0  0  0  0  0  0  0  0  0  0  0
   -3.1477   -3.1572   -1.3934 H   0  0  0  0  0  0  0  0  0  0  0  0
   -3.9365   -1.7780   -2.2240 H   0  0  0  0  0  0  0  0  0  0  0  0
   -4.9397   -3.0278   -1.3994 H   0  0  0  0  0  0  0  0  0  0  0  0
   -3.9983   -2.0145    2.1310 H   0  0  0  0  0  0  0  0  0  0  0  0
   -3.1793   -3.2843    1.1826 H   0  0  0  0  0  0  0  0  0  0  0  0
   -4.9752   -3.1603    1.1487 H   0  0  0  0  0  0  0  0  0  0  0  0
   -5.1259   -0.0316    0.9297 H   0  0  0  0  0  0  0  0  0  0  0  0
   -6.0993   -1.1883   -0.0378 H   0  0  0  0  0  0  0  0  0  0  0  0
   -5.0931    0.0575   -0.8613 H   0  0  0  0  0  0  0  0  0  0  0  0
  1  3  1  0  0  0  0
  3  2  2  0  0  0  0
  4  7  1  0  0  0  0
  4  3  1  0  0  0  0
  4  6  1  0  0  0  0
  5  4  1  0  0  0  0
  6 12  1  0  0  0  0
  6 11  1  0  0  0  0
  7 14  1  0  0  0  0
  8  5  1  0  0  0  0
  9  5  1  0  0  0  0
 10  5  1  0  0  0  0
 13  6  1  0  0  0  0
 15  7  1  0  0  0  0
 16  7  1  0  0  0  0
M  END
