1
q = -1.0

 40 41  0  0  0  0  0  0  0  0999 V2000
    0.7463    0.4252   -2.0861 S   0  0  0  0  0  1  0  0  0  0  0  0
    4.3933    1.3659   -0.5775 N   0  0  0  0  0  0  0  0  0  0  0  0
    3.1546    1.1620   -0.0753 N   0  0  0  0  0  0  0  0  0  0  0  0
    4.4151   -1.8325   -0.0140 N   0  0  0  0  0  0  0  0  0  0  0  0
    3.4721   -1.1044    0.6295 N   0  0  0  0  0  0  0  0  0  0  0  0
    2.1263   -0.7020   -1.4867 C   0  0  0  0  0  0  0  0  0  0  0  0
    1.5948   -2.1343   -1.3355 C   0  0  0  0  0  0  0  0  0  0  0  0
    0.8186   -2.2048   -0.5435 H   0  0  0  0  0  0  0  0  0  0  0  0
    2.4231   -2.8246   -1.0791 H   0  0  0  0  0  0  0  0  0  0  0  0
    1.1425   -2.4602   -2.2920 H   0  0  0  0  0  0  0  0  0  0  0  0
    3.2065   -0.6317   -2.5733 C   0  0  0  0  0  0  0  0  0  0  0  0
    3.5557    0.4056   -2.7225 H   0  0  0  0  0  0  0  0  0  0  0  0
    2.7810   -1.0087   -3.5249 H   0  0  0  0  0  0  0  0  0  0  0  0
    4.0737   -1.2475   -2.2716 H   0  0  0  0  0  0  0  0  0  0  0  0
    2.5851   -0.1845   -0.0830 C   0  0  0  0  0  0  0  0  0  0  0  0
    1.6652   -0.1188    0.5295 H   0  0  0  0  0  0  0  0  0  0  0  0
    3.5450   -1.2439    2.0005 C   0  0  0  0  0  0  0  0  0  0  0  0
    2.6587   -0.5236    2.9611 C   0  0  0  0  0  0  0  0  0  0  0  0
    1.5795   -0.6606    2.7320 H   0  0  0  0  0  0  0  0  0  0  0  0
    2.8634    0.5681    2.9647 H   0  0  0  0  0  0  0  0  0  0  0  0
    2.8382   -0.9016    3.9847 H   0  0  0  0  0  0  0  0  0  0  0  0
    4.5914   -2.1331    2.2311 C   0  0  0  0  0  0  0  0  0  0  0  0
    4.9356   -2.4893    3.2085 H   0  0  0  0  0  0  0  0  0  0  0  0
    5.0982   -2.4706    0.9439 C   0  0  0  0  0  0  0  0  0  0  0  0
    6.2220   -3.3956    0.5915 C   0  0  0  0  0  0  0  0  0  0  0  0
    6.3622   -3.4133   -0.5057 H   0  0  0  0  0  0  0  0  0  0  0  0
    6.0236   -4.4322    0.9359 H   0  0  0  0  0  0  0  0  0  0  0  0
    7.1754   -3.0728    1.0590 H   0  0  0  0  0  0  0  0  0  0  0  0
    2.6056    2.3042    0.4701 C   0  0  0  0  0  0  0  0  0  0  0  0
    1.2521    2.3784    1.0944 C   0  0  0  0  0  0  0  0  0  0  0  0
    0.4672    2.0720    0.3758 H   0  0  0  0  0  0  0  0  0  0  0  0
    1.0480    3.4164    1.4176 H   0  0  0  0  0  0  0  0  0  0  0  0
    1.1391    1.7150    1.9757 H   0  0  0  0  0  0  0  0  0  0  0  0
    3.5634    3.2994    0.2827 C   0  0  0  0  0  0  0  0  0  0  0  0
    3.4746    4.3484    0.5876 H   0  0  0  0  0  0  0  0  0  0  0  0
    4.6563    2.6631   -0.3725 C   0  0  0  0  0  0  0  0  0  0  0  0
    5.9592    3.2535   -0.8161 C   0  0  0  0  0  0  0  0  0  0  0  0
    6.5949    2.4608   -1.2535 H   0  0  0  0  0  0  0  0  0  0  0  0
    6.5082    3.7166    0.0302 H   0  0  0  0  0  0  0  0  0  0  0  0
    5.8113    4.0440   -1.5816 H   0  0  0  0  0  0  0  0  0  0  0  0
  1  6  1  0  0  0  0
  2 36  2  0  0  0  0
  2  3  1  0  0  0  0
  3 29  1  0  0  0  0
  4  5  1  0  0  0  0
  4 24  2  0  0  0  0
  5 17  1  0  0  0  0
  6  7  1  0  0  0  0
  6 15  1  0  0  0  0
  7  9  1  0  0  0  0
  7  8  1  0  0  0  0
 10  7  1  0  0  0  0
 11 14  1  0  0  0  0
 11  6  1  0  0  0  0
 12 11  1  0  0  0  0
 13 11  1  0  0  0  0
 15  3  1  0  0  0  0
 15 16  1  0  0  0  0
 15  5  1  0  0  0  0
 17 22  2  0  0  0  0
 17 18  1  0  0  0  0
 18 20  1  0  0  0  0
 18 21  1  0  0  0  0
 19 18  1  0  0  0  0
 22 23  1  0  0  0  0
 24 22  1  0  0  0  0
 25 27  1  0  0  0  0
 25 24  1  0  0  0  0
 25 28  1  0  0  0  0
 26 25  1  0  0  0  0
 29 30  1  0  0  0  0
 30 32  1  0  0  0  0
 30 33  1  0  0  0  0
 31 30  1  0  0  0  0
 34 29  2  0  0  0  0
 34 35  1  0  0  0  0
 36 34  1  0  0  0  0
 37 36  1  0  0  0  0
 37 39  1  0  0  0  0
 38 37  1  0  0  0  0
 40 37  1  0  0  0  0
M  END
