1
q = 0.0, confidence = 1.0

 34 34  0  0  1  0  0  0  0  0999 V2000
    0.2814   -0.0000    1.6446 S   0  0  0  0  0  1  0  0  0  0  0  0
   -1.8718    1.0985    0.2904 N   0  0  0  0  0  0  0  0  0  0  0  0
   -1.8718   -1.0985    0.2904 N   0  0  0  0  0  0  0  0  0  0  0  0
   -1.1741    0.0000    0.7216 C   0  0  2  0  0  3  0  0  0  0  0  0
   -3.0072    0.6918   -0.4126 C   0  0  0  0  0  0  0  0  0  0  0  0
   -3.0072   -0.6917   -0.4126 C   0  0  0  0  0  0  0  0  0  0  0  0
   -3.9779    1.6155   -1.0682 C   0  0  0  0  0  0  0  0  0  0  0  0
   -4.8900    1.0598   -1.3543 H   0  0  0  0  0  0  0  0  0  0  0  0
   -4.2865    2.4442   -0.4023 H   0  0  0  0  0  0  0  0  0  0  0  0
   -3.5613    2.0663   -1.9925 H   0  0  0  0  0  0  0  0  0  0  0  0
   -3.9779   -1.6153   -1.0682 C   0  0  0  0  0  0  0  0  0  0  0  0
   -4.8901   -1.0596   -1.3543 H   0  0  0  0  0  0  0  0  0  0  0  0
   -3.5614   -2.0662   -1.9925 H   0  0  0  0  0  0  0  0  0  0  0  0
   -4.2867   -2.4441   -0.4023 H   0  0  0  0  0  0  0  0  0  0  0  0
   -1.4132    2.4756    0.5718 C   0  0  0  0  0  0  0  0  0  0  0  0
   -0.4176    2.3018    1.0298 H   0  0  0  0  0  0  0  0  0  0  0  0
   -1.2180    3.2988   -0.7029 C   0  0  0  0  0  0  0  0  0  0  0  0
   -0.6932    2.7088   -1.4785 H   0  0  0  0  0  0  0  0  0  0  0  0
   -2.1716    3.6727   -1.1236 H   0  0  0  0  0  0  0  0  0  0  0  0
   -0.5847    4.1759   -0.4686 H   0  0  0  0  0  0  0  0  0  0  0  0
   -2.2903    3.1517    1.6279 C   0  0  0  0  0  0  0  0  0  0  0  0
   -2.3444    2.5338    2.5455 H   0  0  0  0  0  0  0  0  0  0  0  0
   -1.8474    4.1299    1.9003 H   0  0  0  0  0  0  0  0  0  0  0  0
   -3.3219    3.3406    1.2685 H   0  0  0  0  0  0  0  0  0  0  0  0
   -1.4132   -2.4756    0.5718 C   0  0  0  0  0  0  0  0  0  0  0  0
   -0.4177   -2.3017    1.0299 H   0  0  0  0  0  0  0  0  0  0  0  0
   -1.2180   -3.2987   -0.7029 C   0  0  0  0  0  0  0  0  0  0  0  0
   -0.6932   -2.7087   -1.4785 H   0  0  0  0  0  0  0  0  0  0  0  0
   -0.5847   -4.1759   -0.4686 H   0  0  0  0  0  0  0  0  0  0  0  0
   -2.1715   -3.6727   -1.1236 H   0  0  0  0  0  0  0  0  0  0  0  0
   -2.2904   -3.1517    1.6278 C   0  0  0  0  0  0  0  0  0  0  0  0
   -2.3446   -2.5338    2.5455 H   0  0  0  0  0  0  0  0  0  0  0  0
   -3.3220   -3.3406    1.2684 H   0  0  0  0  0  0  0  0  0  0  0  0
   -1.8475   -4.1299    1.9002 H   0  0  0  0  0  0  0  0  0  0  0  0
  2 15  1  0  0  0  0
  2  4  1  0  0  0  0
  3 25  1  0  0  0  0
  3  4  1  0  0  0  0
  4  1  1  1  0  0  0
  5  2  1  0  0  0  0
  6  5  2  0  0  0  0
  6  3  1  0  0  0  0
  7  5  1  0  0  0  0
  7  9  1  0  0  0  0
  8  7  1  0  0  0  0
 10  7  1  0  0  0  0
 11  6  1  0  0  0  0
 11 14  1  0  0  0  0
 12 11  1  0  0  0  0
 13 11  1  0  0  0  0
 15 16  1  0  0  0  0
 15 21  1  0  0  0  0
 17 20  1  0  0  0  0
 17 15  1  0  0  0  0
 18 17  1  0  0  0  0
 19 17  1  0  0  0  0
 21 23  1  0  0  0  0
 21 22  1  0  0  0  0
 24 21  1  0  0  0  0
 25 26  1  0  0  0  0
 25 31  1  0  0  0  0
 27 29  1  0  0  0  0
 27 25  1  0  0  0  0
 28 27  1  0  0  0  0
 30 27  1  0  0  0  0
 31 34  1  0  0  0  0
 31 32  1  0  0  0  0
 33 31  1  0  0  0  0
M  END
