1
q = -1.0

 39 41  0  0  0  0  0  0  0  0999 V2000
   -1.7300   -2.0600    0.0900 S   0  0  0  0  0  1  0  0  0  0  0  0
   -4.8483   -1.7863   -1.0590 S   0  0  0  0  0  0  0  0  0  0  0  0
   -1.9969    0.9727    0.5418 S   0  0  0  0  0  0  0  0  0  0  0  0
   -2.6351   -0.5715    0.0498 C   0  0  0  0  0  0  0  0  0  0  0  0
   -3.9772   -0.4282   -0.3414 C   0  0  0  0  0  0  0  0  0  0  0  0
   -4.4716    0.9243   -0.2697 C   0  0  0  0  0  0  0  0  0  0  0  0
   -5.8360    1.3139   -0.6988 C   0  0  0  0  0  0  0  0  0  0  0  0
   -6.0246    2.2644   -1.7258 C   0  0  0  0  0  0  0  0  0  0  0  0
   -5.1411    2.7100   -2.2065 H   0  0  0  0  0  0  0  0  0  0  0  0
   -7.3150    2.6377   -2.1255 C   0  0  0  0  0  0  0  0  0  0  0  0
   -7.4441    3.3806   -2.9280 H   0  0  0  0  0  0  0  0  0  0  0  0
   -8.4395    2.0646   -1.5086 C   0  0  0  0  0  0  0  0  0  0  0  0
   -9.4533    2.3579   -1.8231 H   0  0  0  0  0  0  0  0  0  0  0  0
   -8.2621    1.1146   -0.4896 C   0  0  0  0  0  0  0  0  0  0  0  0
   -9.1384    0.6626    0.0012 H   0  0  0  0  0  0  0  0  0  0  0  0
   -6.9720    0.7392   -0.0866 C   0  0  0  0  0  0  0  0  0  0  0  0
   -6.8247    0.0099    0.7240 H   0  0  0  0  0  0  0  0  0  0  0  0
   -3.4998    1.8175    0.1893 C   0  0  0  0  0  0  0  0  0  0  0  0
   -3.5604    3.2623    0.4359 C   0  0  0  0  0  0  0  0  0  0  0  0
   -2.3942    4.0606    0.3099 C   0  0  0  0  0  0  0  0  0  0  0  0
   -1.4469    3.5872    0.0056 H   0  0  0  0  0  0  0  0  0  0  0  0
   -2.4332    5.4385    0.5565 C   0  0  0  0  0  0  0  0  0  0  0  0
   -1.5118    6.0317    0.4495 H   0  0  0  0  0  0  0  0  0  0  0  0
   -3.6357    6.0613    0.9289 C   0  0  0  0  0  0  0  0  0  0  0  0
   -3.6665    7.1454    1.1179 H   0  0  0  0  0  0  0  0  0  0  0  0
   -4.7969    5.2820    1.0670 C   0  0  0  0  0  0  0  0  0  0  0  0
   -5.7438    5.7528    1.3750 H   0  0  0  0  0  0  0  0  0  0  0  0
   -4.7623    3.9021    0.8330 C   0  0  0  0  0  0  0  0  0  0  0  0
   -5.6715    3.3015    0.9720 H   0  0  0  0  0  0  0  0  0  0  0  0
   -5.7383   -2.0000    1.4953 O   0  0  0  0  0  0  0  0  0  0  0  0
   -6.2344   -3.6529    0.0060 O   0  0  0  0  0  0  0  0  0  0  0  0
   -5.6651   -2.4800    0.3833 C   0  0  0  0  0  0  0  0  0  0  0  0
   -6.9775   -4.3333    1.0368 C   0  0  0  0  0  0  0  0  0  0  0  0
   -6.3067   -4.5208    1.9022 H   0  0  0  0  0  0  0  0  0  0  0  0
   -7.7891   -3.6662    1.4004 H   0  0  0  0  0  0  0  0  0  0  0  0
   -7.5176   -5.6184    0.4432 C   0  0  0  0  0  0  0  0  0  0  0  0
   -8.0976   -6.1762    1.2055 H   0  0  0  0  0  0  0  0  0  0  0  0
   -6.6918   -6.2671    0.0895 H   0  0  0  0  0  0  0  0  0  0  0  0
   -8.1833   -5.4086   -0.4176 H   0  0  0  0  0  0  0  0  0  0  0  0
  2  5  1  0  0  0  0
  2 32  1  0  0  0  0
  4  1  1  0  0  0  0
  4  3  1  0  0  0  0
  5  6  1  0  0  0  0
  5  4  2  0  0  0  0
  6 18  2  0  0  0  0
  7  6  1  0  0  0  0
  7 16  1  0  0  0  0
  8  7  2  0  0  0  0
  9  8  1  0  0  0  0
 10  8  1  0  0  0  0
 10 12  2  0  0  0  0
 11 10  1  0  0  0  0
 12 14  1  0  0  0  0
 13 12  1  0  0  0  0
 14 16  2  0  0  0  0
 14 15  1  0  0  0  0
 16 17  1  0  0  0  0
 18 19  1  0  0  0  0
 18  3  1  0  0  0  0
 19 28  1  0  0  0  0
 20 19  2  0  0  0  0
 20 22  1  0  0  0  0
 21 20  1  0  0  0  0
 22 24  2  0  0  0  0
 23 22  1  0  0  0  0
 24 26  1  0  0  0  0
 24 25  1  0  0  0  0
 26 27  1  0  0  0  0
 28 29  1  0  0  0  0
 28 26  2  0  0  0  0
 31 32  1  0  0  0  0
 31 33  1  0  0  0  0
 32 30  2  0  0  0  0
 33 35  1  0  0  0  0
 33 34  1  0  0  0  0
 36 33  1  0  0  0  0
 36 37  1  0  0  0  0
 38 36  1  0  0  0  0
 39 36  1  0  0  0  0
M  END
