1
q = 0.0, confidence = 0.998

 25 25  0  0  1  0  0  0  0  0999 V2000
   -0.3717    0.7962   -1.9035 S   0  0  0  0  0  1  0  0  0  0  0  0
    5.7108    0.6977    0.0677 N   0  0  0  0  0  0  0  0  0  0  0  0
    5.1129    0.0121   -0.4043 H   0  0  0  0  0  0  0  0  0  0  0  0
    3.2559    1.6238   -0.6915 N   0  0  0  0  0  0  0  0  0  0  0  0
    1.9019    1.7432   -0.8375 N   0  0  0  0  0  0  0  0  0  0  0  0
    1.2966    1.8295    0.0091 H   0  0  0  0  0  0  0  0  0  0  0  0
    2.1578    0.6980   -2.8648 N   0  0  0  0  0  0  0  0  0  0  0  0
    3.1467    0.8059   -2.5866 H   0  0  0  0  0  0  0  0  0  0  0  0
    7.0134    0.5431    0.4450 C   0  0  0  0  0  0  0  0  0  0  0  0
    7.5792   -0.3571    0.1813 H   0  0  0  0  0  0  0  0  0  0  0  0
    7.3858    1.6675    1.1901 C   0  0  0  0  0  0  0  0  0  0  0  0
    8.3738    1.8475    1.6278 H   0  0  0  0  0  0  0  0  0  0  0  0
    6.2487    2.5120    1.2732 C   0  0  0  0  0  0  0  0  0  0  0  0
    6.1905    3.4853    1.7728 H   0  0  0  0  0  0  0  0  0  0  0  0
    5.2090    1.8891    0.5590 C   0  0  0  0  0  0  0  0  0  0  0  0
    3.8332    2.2614    0.2973 C   0  0  0  0  0  0  0  0  0  0  0  0
    1.3284    1.0972   -1.8947 C   0  0  1  0  0  3  0  0  0  0  0  0
    1.8084   -0.1773   -3.9627 C   0  0  0  0  0  0  0  0  0  0  0  0
    0.7372   -0.0468   -4.2034 H   0  0  0  0  0  0  0  0  0  0  0  0
    1.9797   -1.2406   -3.6860 H   0  0  0  0  0  0  0  0  0  0  0  0
    2.4216    0.0749   -4.8494 H   0  0  0  0  0  0  0  0  0  0  0  0
    3.1402    3.2678    1.1746 C   0  0  0  0  0  0  0  0  0  0  0  0
    2.4879    3.9304    0.5702 H   0  0  0  0  0  0  0  0  0  0  0  0
    3.8692    3.8847    1.7298 H   0  0  0  0  0  0  0  0  0  0  0  0
    2.4911    2.7595    1.9202 H   0  0  0  0  0  0  0  0  0  0  0  0
  2  9  1  0  0  0  0
  2 15  1  0  0  0  0
  3  2  1  0  0  0  0
  4 16  2  0  0  0  0
  5  4  1  0  0  0  0
  5  6  1  0  0  0  0
  7  8  1  0  0  0  0
  7 17  1  0  0  0  0
  9 11  2  0  0  0  0
 10  9  1  0  0  0  0
 11 13  1  0  0  0  0
 11 12  1  0  0  0  0
 13 14  1  0  0  0  0
 15 13  2  0  0  0  0
 16 15  1  0  0  0  0
 16 22  1  0  0  0  0
 17  1  1  1  0  0  0
 17  5  1  0  0  0  0
 18 20  1  0  0  0  0
 18  7  1  0  0  0  0
 19 18  1  0  0  0  0
 21 18  1  0  0  0  0
 22 24  1  0  0  0  0
 22 25  1  0  0  0  0
 23 22  1  0  0  0  0
M  END
