12
q = 0.0, confidence = 0.998

 26 27  0  0  1  0  0  0  0  0999 V2000
    3.2457    0.3914   -0.0041 C   0  0  2  0  0  3  0  0  0  0  0  0
    4.0608   -1.9855    0.0140 C   0  0  0  0  0  0  0  0  0  0  0  0
    4.4716   -4.2286    0.0298 C   0  0  0  0  0  0  0  0  0  0  0  0
    5.8624   -3.9996    0.0317 C   0  0  0  0  0  0  0  0  0  0  0  0
    6.2603   -2.6602    0.0239 C   0  0  0  0  0  0  0  0  0  0  0  0
    5.0783    2.1434   -0.0168 C   0  0  0  0  0  0  0  0  0  0  0  0
    4.3579    3.3574   -0.0604 C   0  0  0  0  0  0  0  0  0  0  0  0
    5.0531    4.5756   -0.0672 C   0  0  0  0  0  0  0  0  0  0  0  0
    6.4544    4.6165   -0.0318 C   0  0  0  0  0  0  0  0  0  0  0  0
    7.1724    3.4094    0.0105 C   0  0  0  0  0  0  0  0  0  0  0  0
    6.4946    2.1876    0.0180 C   0  0  0  0  0  0  0  0  0  0  0  0
    1.8395    1.3624   -0.0060 S   0  0  0  0  0  1  0  0  0  0  0  0
    3.1058   -0.9866    0.0051 N   0  0  0  0  0  0  0  0  0  0  0  0
    4.5172    0.8557   -0.0079 N   0  0  0  0  0  0  0  0  0  0  0  0
    3.5749   -3.2446    0.0211 N   0  0  0  0  0  0  0  0  0  0  0  0
    5.3746   -1.6520    0.0151 N   0  0  0  0  0  0  0  0  0  0  0  0
    2.1150   -1.3396    0.0055 H   0  0  0  0  0  0  0  0  0  0  0  0
    5.2126    0.0652    0.0016 H   0  0  0  0  0  0  0  0  0  0  0  0
    4.0676   -5.2573    0.0357 H   0  0  0  0  0  0  0  0  0  0  0  0
    6.5900   -4.8222    0.0388 H   0  0  0  0  0  0  0  0  0  0  0  0
    7.3263   -2.3742    0.0245 H   0  0  0  0  0  0  0  0  0  0  0  0
    3.2626    3.3378   -0.0888 H   0  0  0  0  0  0  0  0  0  0  0  0
    4.4765    5.5127   -0.1014 H   0  0  0  0  0  0  0  0  0  0  0  0
    6.9852    5.5800   -0.0372 H   0  0  0  0  0  0  0  0  0  0  0  0
    8.2725    3.4181    0.0385 H   0  0  0  0  0  0  0  0  0  0  0  0
    7.0595    1.2426    0.0519 H   0  0  0  0  0  0  0  0  0  0  0  0
  1 12  1  1  0  0  0
  1 13  1  0  0  0  0
  2 16  2  0  0  0  0
  2 15  1  0  0  0  0
  3  4  1  0  0  0  0
  3 19  1  0  0  0  0
  4 20  1  0  0  0  0
  5 21  1  0  0  0  0
  5  4  2  0  0  0  0
  6 14  1  0  0  0  0
  6 11  1  0  0  0  0
  7  6  2  0  0  0  0
  8  7  1  0  0  0  0
  8  9  2  0  0  0  0
  9 10  1  0  0  0  0
 10 11  2  0  0  0  0
 10 25  1  0  0  0  0
 11 26  1  0  0  0  0
 13 17  1  0  0  0  0
 13  2  1  0  0  0  0
 14  1  1  0  0  0  0
 14 18  1  0  0  0  0
 15  3  2  0  0  0  0
 16  5  1  0  0  0  0
 22  7  1  0  0  0  0
 23  8  1  0  0  0  0
 24  9  1  0  0  0  0
M  END
