1
q = 0.0, confidence = 0.996

 19 19  0  0  1  0  0  0  0  0999 V2000
    1.9076   -2.3165   -0.0026 S   0  0  0  0  0  1  0  0  0  0  0  0
    4.4902   -1.6694   -0.0008 N   0  0  0  0  0  0  0  0  0  0  0  0
    3.0158    0.1438   -0.0008 N   0  0  0  0  0  0  0  0  0  0  0  0
    3.4203    2.4138   -0.0005 N   0  0  0  0  0  0  0  0  0  0  0  0
    5.2663    0.8709    0.0015 N   0  0  0  0  0  0  0  0  0  0  0  0
    4.8349   -3.0726   -0.0007 C   0  0  0  0  0  0  0  0  0  0  0  0
    4.4206   -3.5897    0.8910 H   0  0  0  0  0  0  0  0  0  0  0  0
    5.9369   -3.1667    0.0002 H   0  0  0  0  0  0  0  0  0  0  0  0
    4.4222   -3.5893   -0.8934 H   0  0  0  0  0  0  0  0  0  0  0  0
    3.2235   -1.2213   -0.0013 C   0  0  1  0  0  3  0  0  0  0  0  0
    3.9420    1.1672    0.0001 C   0  0  0  0  0  0  0  0  0  0  0  0
    6.1197    1.9064    0.0024 C   0  0  0  0  0  0  0  0  0  0  0  0
    5.6847    3.2347    0.0019 C   0  0  0  0  0  0  0  0  0  0  0  0
    4.2882    3.4231    0.0004 C   0  0  0  0  0  0  0  0  0  0  0  0
    5.2126   -0.9152    0.0006 H   0  0  0  0  0  0  0  0  0  0  0  0
    2.0099    0.4610   -0.0011 H   0  0  0  0  0  0  0  0  0  0  0  0
    7.1942    1.6534    0.0035 H   0  0  0  0  0  0  0  0  0  0  0  0
    6.3887    4.0777    0.0027 H   0  0  0  0  0  0  0  0  0  0  0  0
    3.8549    4.4399   -0.0001 H   0  0  0  0  0  0  0  0  0  0  0  0
  2  6  1  0  0  0  0
  2 15  1  0  0  0  0
  3 11  1  0  0  0  0
  4 11  2  0  0  0  0
  4 14  1  0  0  0  0
  5 12  2  0  0  0  0
  6  8  1  0  0  0  0
  6  7  1  0  0  0  0
  9  6  1  0  0  0  0
 10  1  1  6  0  0  0
 10  3  1  0  0  0  0
 10  2  1  0  0  0  0
 11  5  1  0  0  0  0
 12 17  1  0  0  0  0
 13 12  1  0  0  0  0
 13 18  1  0  0  0  0
 14 13  2  0  0  0  0
 16  3  1  0  0  0  0
 19 14  1  0  0  0  0
M  END
