1
q = -1.0

 29 29  0  0  0  0  0  0  0  0999 V2000
    0.1416   -1.3385   -1.8186 S   0  0  0  0  0  1  0  0  0  0  0  0
   -0.7713    2.9233   -0.6065 P   0  0  0  0  0  0  0  0  0  0  0  0
    0.0337    0.4994   -1.8432 C   0  0  0  0  0  0  0  0  0  0  0  0
   -0.7270    1.0396   -0.6400 C   0  0  0  0  0  0  0  0  0  0  0  0
    0.9495    3.2244    0.0380 C   0  0  0  0  0  0  0  0  0  0  0  0
    1.3314    3.0025    1.3938 C   0  0  0  0  0  0  0  0  0  0  0  0
    2.6816    3.1681    1.7577 C   0  0  0  0  0  0  0  0  0  0  0  0
    3.6730    3.5310    0.8295 C   0  0  0  0  0  0  0  0  0  0  0  0
    3.2725    3.7688   -0.4954 C   0  0  0  0  0  0  0  0  0  0  0  0
    1.9326    3.6336   -0.9064 C   0  0  0  0  0  0  0  0  0  0  0  0
    0.3562    2.5606    2.4578 C   0  0  0  0  0  0  0  0  0  0  0  0
    5.1205    3.6260    1.2388 C   0  0  0  0  0  0  0  0  0  0  0  0
    5.6965    4.2863    0.5611 H   0  0  0  0  0  0  0  0  0  0  0  0
    5.6020    2.6244    1.2100 H   0  0  0  0  0  0  0  0  0  0  0  0
    5.2298    4.0085    2.2732 H   0  0  0  0  0  0  0  0  0  0  0  0
    1.5798    3.9239   -2.3483 C   0  0  0  0  0  0  0  0  0  0  0  0
    2.4424    4.3647   -2.8847 H   0  0  0  0  0  0  0  0  0  0  0  0
    0.7210    4.6207   -2.4238 H   0  0  0  0  0  0  0  0  0  0  0  0
    1.2776    3.0069   -2.8961 H   0  0  0  0  0  0  0  0  0  0  0  0
   -0.4859    0.7584   -2.7898 H   0  0  0  0  0  0  0  0  0  0  0  0
    1.0533    0.9316   -1.9000 H   0  0  0  0  0  0  0  0  0  0  0  0
    4.0271    4.0742   -1.2387 H   0  0  0  0  0  0  0  0  0  0  0  0
   -0.2674    0.6501    0.2918 H   0  0  0  0  0  0  0  0  0  0  0  0
    2.9693    2.9923    2.8074 H   0  0  0  0  0  0  0  0  0  0  0  0
    0.0079    1.5216    2.2734 H   0  0  0  0  0  0  0  0  0  0  0  0
    0.8364    2.5690    3.4550 H   0  0  0  0  0  0  0  0  0  0  0  0
   -0.5400    3.2116    2.5042 H   0  0  0  0  0  0  0  0  0  0  0  0
   -1.7784    0.6964   -0.6721 H   0  0  0  0  0  0  0  0  0  0  0  0
   -1.4703    3.0312    0.6411 H   0  0  0  0  0  0  0  0  0  0  0  0
  2  5  1  0  0  0  0
  2 29  1  0  0  0  0
  3  1  1  0  0  0  0
  3  4  1  0  0  0  0
  4  2  1  0  0  0  0
  4 23  1  0  0  0  0
  5  6  1  0  0  0  0
  6  7  2  0  0  0  0
  6 11  1  0  0  0  0
  7 24  1  0  0  0  0
  8 12  1  0  0  0  0
  8  7  1  0  0  0  0
  9  8  2  0  0  0  0
 10  9  1  0  0  0  0
 10  5  2  0  0  0  0
 11 27  1  0  0  0  0
 11 26  1  0  0  0  0
 12 15  1  0  0  0  0
 13 12  1  0  0  0  0
 14 12  1  0  0  0  0
 16 10  1  0  0  0  0
 17 16  1  0  0  0  0
 18 16  1  0  0  0  0
 19 16  1  0  0  0  0
 20  3  1  0  0  0  0
 21  3  1  0  0  0  0
 22  9  1  0  0  0  0
 25 11  1  0  0  0  0
 28  4  1  0  0  0  0
M  END
