1
q = 0.0, confidence = 0.998

 34 36  0  0  0  0  0  0  0  0999 V2000
   -0.0177   -0.2586   -1.9029 S   0  0  0  0  0  1  0  0  0  0  0  0
   -1.0862    0.0244   -0.1862 P   0  0  0  0  0  4  0  0  0  0  0  0
   -1.6325   -2.3442    1.0178 N   0  0  0  0  0  0  0  0  0  0  0  0
   -2.8583   -0.0166   -0.5921 C   0  0  0  0  0  0  0  0  0  0  0  0
   -3.7082    1.0594   -0.2688 C   0  0  0  0  0  0  0  0  0  0  0  0
   -3.3120    1.9410    0.2557 H   0  0  0  0  0  0  0  0  0  0  0  0
   -5.0642    1.0042   -0.6253 C   0  0  0  0  0  0  0  0  0  0  0  0
   -5.7268    1.8465   -0.3758 H   0  0  0  0  0  0  0  0  0  0  0  0
   -5.5698   -0.1163   -1.3016 C   0  0  0  0  0  0  0  0  0  0  0  0
   -6.6336   -0.1556   -1.5809 H   0  0  0  0  0  0  0  0  0  0  0  0
   -4.7189   -1.1854   -1.6288 C   0  0  0  0  0  0  0  0  0  0  0  0
   -5.1141   -2.0624   -2.1631 H   0  0  0  0  0  0  0  0  0  0  0  0
   -3.3632   -1.1410   -1.2800 C   0  0  0  0  0  0  0  0  0  0  0  0
   -2.6924   -1.9723   -1.5359 H   0  0  0  0  0  0  0  0  0  0  0  0
   -0.7325    1.6009    0.6584 C   0  0  0  0  0  0  0  0  0  0  0  0
   -0.0526    2.6268   -0.0229 C   0  0  0  0  0  0  0  0  0  0  0  0
    0.2965    2.4517   -1.0523 H   0  0  0  0  0  0  0  0  0  0  0  0
    0.1906    3.8454    0.6266 C   0  0  0  0  0  0  0  0  0  0  0  0
    0.7327    4.6440    0.0990 H   0  0  0  0  0  0  0  0  0  0  0  0
   -0.2437    4.0394    1.9475 C   0  0  0  0  0  0  0  0  0  0  0  0
   -0.0433    4.9942    2.4568 H   0  0  0  0  0  0  0  0  0  0  0  0
   -0.9260    3.0154    2.6254 C   0  0  0  0  0  0  0  0  0  0  0  0
   -1.2621    3.1663    3.6622 H   0  0  0  0  0  0  0  0  0  0  0  0
   -1.1729    1.7928    1.9849 C   0  0  0  0  0  0  0  0  0  0  0  0
   -1.7016    0.9878    2.5184 H   0  0  0  0  0  0  0  0  0  0  0  0
   -0.7805   -1.3120    1.0594 C   0  0  0  0  0  0  0  0  0  0  0  0
    0.3395   -1.2476    1.9109 C   0  0  0  0  0  0  0  0  0  0  0  0
    1.0264   -0.3881    1.8877 H   0  0  0  0  0  0  0  0  0  0  0  0
    0.5675   -2.3349    2.7653 C   0  0  0  0  0  0  0  0  0  0  0  0
    1.4365   -2.3322    3.4400 H   0  0  0  0  0  0  0  0  0  0  0  0
   -0.3181   -3.4223    2.7314 C   0  0  0  0  0  0  0  0  0  0  0  0
   -0.1701   -4.2968    3.3822 H   0  0  0  0  0  0  0  0  0  0  0  0
   -1.4031   -3.3792    1.8400 C   0  0  0  0  0  0  0  0  0  0  0  0
   -2.1191   -4.2177    1.7838 H   0  0  0  0  0  0  0  0  0  0  0  0
  1  2  1  0  0  0  0
  2 15  1  0  0  0  0
  2 26  1  0  0  0  0
  3 26  2  0  0  0  0
  3 33  1  0  0  0  0
  4  5  1  0  0  0  0
  4  2  1  0  0  0  0
  5  6  1  0  0  0  0
  7  8  1  0  0  0  0
  7  5  2  0  0  0  0
  9  7  1  0  0  0  0
 10  9  1  0  0  0  0
 11  9  2  0  0  0  0
 11 13  1  0  0  0  0
 12 11  1  0  0  0  0
 13  4  2  0  0  0  0
 14 13  1  0  0  0  0
 15 24  1  0  0  0  0
 16 18  1  0  0  0  0
 16 15  2  0  0  0  0
 17 16  1  0  0  0  0
 18 20  2  0  0  0  0
 19 18  1  0  0  0  0
 20 21  1  0  0  0  0
 20 22  1  0  0  0  0
 22 23  1  0  0  0  0
 24 25  1  0  0  0  0
 24 22  2  0  0  0  0
 26 27  1  0  0  0  0
 27 29  2  0  0  0  0
 28 27  1  0  0  0  0
 29 30  1  0  0  0  0
 31 29  1  0  0  0  0
 31 32  1  0  0  0  0
 33 31  2  0  0  0  0
 34 33  1  0  0  0  0
M  END
