1
q = -1.0

 12 12  0  0  0  0  0  0  0  0999 V2000
    1.7643   -1.1380   -0.7989 S   0  0  0  0  0  1  0  0  0  0  0  0
    2.7851    0.1984    1.7562 F   0  0  0  0  0  0  0  0  0  0  0  0
    3.4305   -0.7660   -0.3326 C   0  0  0  0  0  0  0  0  0  0  0  0
    3.7704   -0.1820    0.9063 C   0  0  0  0  0  0  0  0  0  0  0  0
    5.0926    0.0332    1.2960 C   0  0  0  0  0  0  0  0  0  0  0  0
    5.2878    0.5039    2.2706 H   0  0  0  0  0  0  0  0  0  0  0  0
    6.1339   -0.3567    0.4382 C   0  0  0  0  0  0  0  0  0  0  0  0
    7.1793   -0.1903    0.7382 H   0  0  0  0  0  0  0  0  0  0  0  0
    5.8317   -0.9477   -0.7988 C   0  0  0  0  0  0  0  0  0  0  0  0
    6.6412   -1.2476   -1.4810 H   0  0  0  0  0  0  0  0  0  0  0  0
    4.4965   -1.1374   -1.1812 C   0  0  0  0  0  0  0  0  0  0  0  0
    4.2483   -1.5747   -2.1596 H   0  0  0  0  0  0  0  0  0  0  0  0
  1  3  1  0  0  0  0
  3  4  1  0  0  0  0
  4  5  2  0  0  0  0
  4  2  1  0  0  0  0
  5  6  1  0  0  0  0
  7  8  1  0  0  0  0
  7  5  1  0  0  0  0
  9  7  2  0  0  0  0
 10  9  1  0  0  0  0
 11  9  1  0  0  0  0
 11  3  2  0  0  0  0
 12 11  1  0  0  0  0
M  END
