2
q = 0.0, confidence = 0.98

 32 32  0  0  1  0  0  0  0  0999 V2000
   -3.8565    4.0141   -0.7607 Br  0  0  0  0  0  0  0  0  0  0  0  0
    3.7030   -1.2065   -1.1321 S   0  0  0  0  0  1  0  0  0  0  0  0
    2.9399    2.9338   -0.1368 O   0  0  0  0  0  0  0  0  0  0  0  0
    2.3855    1.1224   -1.4790 N   0  0  0  0  0  0  0  0  0  0  0  0
    4.7231    1.2109   -1.6756 N   0  0  0  0  0  0  0  0  0  0  0  0
    3.6111    0.4802   -1.4268 C   0  0  2  0  0  3  0  0  0  0  0  0
    2.0991    2.3090   -0.7771 C   0  0  0  0  0  0  0  0  0  0  0  0
    0.6665    2.7346   -0.8506 C   0  0  0  0  0  0  0  0  0  0  0  0
    0.1814    3.5668    0.1787 C   0  0  0  0  0  0  0  0  0  0  0  0
    0.8810    3.8824    0.9656 H   0  0  0  0  0  0  0  0  0  0  0  0
   -1.1588    3.9637    0.2078 C   0  0  0  0  0  0  0  0  0  0  0  0
   -1.5439    4.5926    1.0226 H   0  0  0  0  0  0  0  0  0  0  0  0
   -2.0187    3.5423   -0.8226 C   0  0  0  0  0  0  0  0  0  0  0  0
   -1.5426    2.7617   -1.8887 C   0  0  0  0  0  0  0  0  0  0  0  0
   -2.2185    2.4610   -2.7011 H   0  0  0  0  0  0  0  0  0  0  0  0
   -0.2020    2.3558   -1.8942 C   0  0  0  0  0  0  0  0  0  0  0  0
    0.1611    1.7371   -2.7262 H   0  0  0  0  0  0  0  0  0  0  0  0
    4.6640    2.4998   -2.3851 C   0  0  0  0  0  0  0  0  0  0  0  0
    4.7437    3.3251   -1.6479 H   0  0  0  0  0  0  0  0  0  0  0  0
    3.6545    2.5757   -2.8288 H   0  0  0  0  0  0  0  0  0  0  0  0
    5.7109    2.6255   -3.4899 C   0  0  0  0  0  0  0  0  0  0  0  0
    5.6491    1.7823   -4.2066 H   0  0  0  0  0  0  0  0  0  0  0  0
    6.7461    2.6779   -3.1001 H   0  0  0  0  0  0  0  0  0  0  0  0
    5.5257    3.5626   -4.0510 H   0  0  0  0  0  0  0  0  0  0  0  0
    6.0422    0.7683   -1.2023 C   0  0  0  0  0  0  0  0  0  0  0  0
    6.7128    0.6121   -2.0724 H   0  0  0  0  0  0  0  0  0  0  0  0
    5.8965   -0.2225   -0.7346 H   0  0  0  0  0  0  0  0  0  0  0  0
    6.6424    1.7541   -0.2002 C   0  0  0  0  0  0  0  0  0  0  0  0
    5.9332    1.9335    0.6319 H   0  0  0  0  0  0  0  0  0  0  0  0
    6.8898    2.7328   -0.6574 H   0  0  0  0  0  0  0  0  0  0  0  0
    7.5783    1.3338    0.2175 H   0  0  0  0  0  0  0  0  0  0  0  0
    1.5741    0.4713   -1.6199 H   0  0  0  0  0  0  0  0  0  0  0  0
  4  6  1  0  0  0  0
  4  7  1  0  0  0  0
  5  6  1  0  0  0  0
  5 25  1  0  0  0  0
  6  2  1  6  0  0  0
  7  3  2  0  0  0  0
  8  7  1  0  0  0  0
  8  9  1  0  0  0  0
  9 11  2  0  0  0  0
  9 10  1  0  0  0  0
 11 12  1  0  0  0  0
 13  1  1  0  0  0  0
 13 11  1  0  0  0  0
 14 13  2  0  0  0  0
 15 14  1  0  0  0  0
 16 14  1  0  0  0  0
 16  8  2  0  0  0  0
 17 16  1  0  0  0  0
 18  5  1  0  0  0  0
 18 19  1  0  0  0  0
 20 18  1  0  0  0  0
 21 23  1  0  0  0  0
 21 18  1  0  0  0  0
 22 21  1  0  0  0  0
 24 21  1  0  0  0  0
 25 27  1  0  0  0  0
 25 28  1  0  0  0  0
 26 25  1  0  0  0  0
 28 31  1  0  0  0  0
 28 29  1  0  0  0  0
 30 28  1  0  0  0  0
 32  4  1  0  0  0  0
M  END
