3
q = -1.0, confidence = 0.0

 17 18  0  0  0  0  0  0  0  0999 V2000
   -1.6270   -1.0232   -0.0003 S   0  0  0  0  0  0  0  0  0  0  0  0
   -4.8408   -1.1153   -0.0017 S   0  0  0  0  0  0  0  0  0  0  0  0
    1.3044   -1.7778    0.0005 S   0  0  0  0  0  1  0  0  0  0  0  0
   -0.8234    2.7629    0.0032 O   0  0  0  0  0  0  0  0  0  0  0  0
    0.3559    0.7485    0.0021 N   0  0  0  0  0  0  0  0  0  0  0  0
    0.1009   -0.5338    0.0009 C   0  0  0  0  0  0  0  0  0  0  0  0
   -0.8083    1.5411    0.0022 C   0  0  0  0  0  0  0  0  0  0  0  0
   -2.0544    0.6827    0.0010 C   0  0  0  0  0  0  0  0  0  0  0  0
   -3.3016    1.2415    0.0010 C   0  0  0  0  0  0  0  0  0  0  0  0
   -4.5944    0.6249   -0.0001 C   0  0  0  0  0  0  0  0  0  0  0  0
   -6.5586   -0.9302   -0.0022 C   0  0  0  0  0  0  0  0  0  0  0  0
   -6.9401    0.4029   -0.0011 C   0  0  0  0  0  0  0  0  0  0  0  0
   -5.8297    1.2850   -0.0001 C   0  0  0  0  0  0  0  0  0  0  0  0
   -3.2870    2.3463    0.0020 H   0  0  0  0  0  0  0  0  0  0  0  0
   -7.1999   -1.8202   -0.0032 H   0  0  0  0  0  0  0  0  0  0  0  0
   -7.9894    0.7275   -0.0012 H   0  0  0  0  0  0  0  0  0  0  0  0
   -5.9027    2.3813    0.0008 H   0  0  0  0  0  0  0  0  0  0  0  0
  1  6  1  0  0  0  0
  1  8  1  0  0  0  0
  2 10  1  0  0  0  0
  3  6  1  0  0  0  0
  5  7  1  0  0  0  0
  6  5  2  0  0  0  0
  7  4  2  0  0  0  0
  8  7  1  0  0  0  0
  9  8  2  0  0  0  0
  9 14  1  0  0  0  0
 10 13  2  0  0  0  0
 10  9  1  0  0  0  0
 11  2  1  0  0  0  0
 11 12  2  0  0  0  0
 12 13  1  0  0  0  0
 13 17  1  0  0  0  0
 15 11  1  0  0  0  0
 16 12  1  0  0  0  0
M  END
