1
q = -1.0

 38 41  0  0  0  0  0  0  0  0999 V2000
   -1.3437   -2.1497   -0.0733 S   0  0  0  0  0  1  0  0  0  0  0  0
   -0.4119    3.1799    0.1060 S   0  0  0  0  0  0  0  0  0  0  0  0
   -0.9840    0.5164    0.0357 N   0  0  0  0  0  0  0  0  0  0  0  0
   -3.2390   -0.2212   -0.0618 N   0  0  0  0  0  0  0  0  0  0  0  0
   -5.0390    1.2440   -0.1046 O   0  0  0  0  0  0  0  0  0  0  0  0
   -6.8797   -4.4788   -0.3290 O   0  0  0  0  0  0  0  0  0  0  0  0
   -1.8724   -0.4677   -0.0245 C   0  0  0  0  0  0  0  0  0  0  0  0
   -1.4650    1.7750    0.0371 C   0  0  0  0  0  0  0  0  0  0  0  0
   -1.8005    4.2631    0.0707 C   0  0  0  0  0  0  0  0  0  0  0  0
   -1.6520    5.7570    0.1132 C   0  0  0  0  0  0  0  0  0  0  0  0
   -1.3794    6.0832    1.1440 H   0  0  0  0  0  0  0  0  0  0  0  0
   -0.8143    6.0881   -0.5380 H   0  0  0  0  0  0  0  0  0  0  0  0
   -2.9670    6.4312   -0.3154 C   0  0  0  0  0  0  0  0  0  0  0  0
   -2.9228    7.5157   -0.0854 H   0  0  0  0  0  0  0  0  0  0  0  0
   -3.0787    6.3433   -1.4186 H   0  0  0  0  0  0  0  0  0  0  0  0
   -4.1777    5.7781    0.3649 C   0  0  0  0  0  0  0  0  0  0  0  0
   -5.1059    6.3337    0.1195 H   0  0  0  0  0  0  0  0  0  0  0  0
   -4.0521    5.8466    1.4685 H   0  0  0  0  0  0  0  0  0  0  0  0
   -4.3260    4.3046   -0.0398 C   0  0  0  0  0  0  0  0  0  0  0  0
   -5.0619    3.7730    0.5961 H   0  0  0  0  0  0  0  0  0  0  0  0
   -4.7401    4.2263   -1.0706 H   0  0  0  0  0  0  0  0  0  0  0  0
   -3.0039    3.5830    0.0085 C   0  0  0  0  0  0  0  0  0  0  0  0
   -2.8163    2.1556   -0.0142 C   0  0  0  0  0  0  0  0  0  0  0  0
   -3.8191    1.1093   -0.0649 C   0  0  0  0  0  0  0  0  0  0  0  0
   -4.1688   -1.3188   -0.1053 C   0  0  0  0  0  0  0  0  0  0  0  0
   -4.5645   -1.9499    1.0803 C   0  0  0  0  0  0  0  0  0  0  0  0
   -4.1507   -1.6040    2.0382 H   0  0  0  0  0  0  0  0  0  0  0  0
   -5.4720   -3.0184    1.0493 C   0  0  0  0  0  0  0  0  0  0  0  0
   -5.7637   -3.5014    1.9910 H   0  0  0  0  0  0  0  0  0  0  0  0
   -5.9952   -3.4536   -0.1859 C   0  0  0  0  0  0  0  0  0  0  0  0
   -5.6010   -2.8071   -1.3783 C   0  0  0  0  0  0  0  0  0  0  0  0
   -6.0251   -3.1615   -2.3285 H   0  0  0  0  0  0  0  0  0  0  0  0
   -4.6962   -1.7473   -1.3364 C   0  0  0  0  0  0  0  0  0  0  0  0
   -4.3855   -1.2410   -2.2612 H   0  0  0  0  0  0  0  0  0  0  0  0
   -7.3112   -5.1597    0.8324 C   0  0  0  0  0  0  0  0  0  0  0  0
   -8.0150   -5.9428    0.4941 H   0  0  0  0  0  0  0  0  0  0  0  0
   -7.8392   -4.4816    1.5405 H   0  0  0  0  0  0  0  0  0  0  0  0
   -6.4644   -5.6434    1.3701 H   0  0  0  0  0  0  0  0  0  0  0  0
  1  7  1  0  0  0  0
  3  8  1  0  0  0  0
  4  7  1  0  0  0  0
  5 24  2  0  0  0  0
  6 30  1  0  0  0  0
  6 35  1  0  0  0  0
  7  3  2  0  0  0  0
  8  2  1  0  0  0  0
  9  2  1  0  0  0  0
  9 10  1  0  0  0  0
 10 11  1  0  0  0  0
 12 10  1  0  0  0  0
 13 14  1  0  0  0  0
 13 10  1  0  0  0  0
 13 16  1  0  0  0  0
 15 13  1  0  0  0  0
 16 18  1  0  0  0  0
 17 16  1  0  0  0  0
 19 22  1  0  0  0  0
 19 16  1  0  0  0  0
 19 20  1  0  0  0  0
 21 19  1  0  0  0  0
 22  9  2  0  0  0  0
 23 22  1  0  0  0  0
 23  8  2  0  0  0  0
 24  4  1  0  0  0  0
 24 23  1  0  0  0  0
 25  4  1  0  0  0  0
 25 26  1  0  0  0  0
 26 27  1  0  0  0  0
 28 26  2  0  0  0  0
 28 29  1  0  0  0  0
 30 28  1  0  0  0  0
 31 33  1  0  0  0  0
 31 30  2  0  0  0  0
 32 31  1  0  0  0  0
 33 25  2  0  0  0  0
 34 33  1  0  0  0  0
 35 38  1  0  0  0  0
 35 37  1  0  0  0  0
 36 35  1  0  0  0  0
M  END
