1
q = -1.0

 35 37  0  0  0  0  0  0  0  0999 V2000
    0.5249   -0.2820   -1.1198 S   0  0  0  0  0  1  0  0  0  0  0  0
    2.0966    0.0755   -0.0956 C   0  0  0  0  0  0  0  0  0  0  0  0
    3.2435    0.1324   -1.1291 C   0  0  0  0  0  0  0  0  0  0  0  0
    3.3427   -0.8510   -2.1354 C   0  0  0  0  0  0  0  0  0  0  0  0
    4.4312   -0.8741   -3.0162 C   0  0  0  0  0  0  0  0  0  0  0  0
    5.4542    0.0816   -2.9032 C   0  0  0  0  0  0  0  0  0  0  0  0
    5.3764    1.0526   -1.8953 C   0  0  0  0  0  0  0  0  0  0  0  0
    4.2821    1.0783   -1.0157 C   0  0  0  0  0  0  0  0  0  0  0  0
    2.4508   -1.0815    0.8536 C   0  0  0  0  0  0  0  0  0  0  0  0
    1.7690   -2.3095    0.8738 C   0  0  0  0  0  0  0  0  0  0  0  0
    2.1844   -3.3515    1.7181 C   0  0  0  0  0  0  0  0  0  0  0  0
    3.2922   -3.1836    2.5591 C   0  0  0  0  0  0  0  0  0  0  0  0
    3.9893   -1.9643    2.5408 C   0  0  0  0  0  0  0  0  0  0  0  0
    3.5766   -0.9287    1.6932 C   0  0  0  0  0  0  0  0  0  0  0  0
    1.8551    1.4125    0.6111 C   0  0  0  0  0  0  0  0  0  0  0  0
    1.7589    2.5939   -0.1589 C   0  0  0  0  0  0  0  0  0  0  0  0
    1.5013    3.8285    0.4465 C   0  0  0  0  0  0  0  0  0  0  0  0
    1.3183    3.9089    1.8375 C   0  0  0  0  0  0  0  0  0  0  0  0
    1.3859    2.7413    2.6076 C   0  0  0  0  0  0  0  0  0  0  0  0
    1.6517    1.5028    2.0009 C   0  0  0  0  0  0  0  0  0  0  0  0
    2.5520   -1.6107   -2.2230 H   0  0  0  0  0  0  0  0  0  0  0  0
    4.4824   -1.6489   -3.7965 H   0  0  0  0  0  0  0  0  0  0  0  0
    6.3095    0.0654   -3.5955 H   0  0  0  0  0  0  0  0  0  0  0  0
    6.1739    1.8037   -1.7875 H   0  0  0  0  0  0  0  0  0  0  0  0
    4.2381    1.8455   -0.2301 H   0  0  0  0  0  0  0  0  0  0  0  0
    0.8961   -2.4441    0.2219 H   0  0  0  0  0  0  0  0  0  0  0  0
    1.6273   -4.3008    1.7187 H   0  0  0  0  0  0  0  0  0  0  0  0
    3.6159   -3.9987    3.2241 H   0  0  0  0  0  0  0  0  0  0  0  0
    4.8672   -1.8183    3.1885 H   0  0  0  0  0  0  0  0  0  0  0  0
    4.1412    0.0153    1.6782 H   0  0  0  0  0  0  0  0  0  0  0  0
    1.8745    2.5337   -1.2512 H   0  0  0  0  0  0  0  0  0  0  0  0
    1.4287    4.7343   -0.1746 H   0  0  0  0  0  0  0  0  0  0  0  0
    1.1069    4.8780    2.3142 H   0  0  0  0  0  0  0  0  0  0  0  0
    1.2204    2.7838    3.6946 H   0  0  0  0  0  0  0  0  0  0  0  0
    1.6828    0.5941    2.6161 H   0  0  0  0  0  0  0  0  0  0  0  0
  1  2  1  0  0  0  0
  2 15  1  0  0  0  0
  2  9  1  0  0  0  0
  3  8  1  0  0  0  0
  3  2  1  0  0  0  0
  4  3  2  0  0  0  0
  5  6  2  0  0  0  0
  5  4  1  0  0  0  0
  6  7  1  0  0  0  0
  7 24  1  0  0  0  0
  7  8  2  0  0  0  0
  8 25  1  0  0  0  0
  9 10  2  0  0  0  0
  9 14  1  0  0  0  0
 10 11  1  0  0  0  0
 11 27  1  0  0  0  0
 11 12  2  0  0  0  0
 12 28  1  0  0  0  0
 13 12  1  0  0  0  0
 13 29  1  0  0  0  0
 14 13  2  0  0  0  0
 15 20  1  0  0  0  0
 16 17  1  0  0  0  0
 16 15  2  0  0  0  0
 17 18  2  0  0  0  0
 18 33  1  0  0  0  0
 18 19  1  0  0  0  0
 19 34  1  0  0  0  0
 20 19  2  0  0  0  0
 20 35  1  0  0  0  0
 21  4  1  0  0  0  0
 22  5  1  0  0  0  0
 23  6  1  0  0  0  0
 26 10  1  0  0  0  0
 30 14  1  0  0  0  0
 31 16  1  0  0  0  0
 32 17  1  0  0  0  0
M  END
