1
q = -1.0, confidence = 0.0

 23 23  0  0  0  0  0  0  0  0999 V2000
   -0.9845    1.4073   -1.4655 S   0  0  0  0  0  1  0  0  0  0  0  0
   -2.1395    2.3514   -0.0262 P   0  0  0  0  0  4  0  0  0  0  0  0
   -1.3894    2.5313    1.8042 S   0  0  0  0  0  1  0  0  0  0  0  0
   -2.5473    3.8109   -0.7113 O   0  0  0  0  0  0  0  0  0  0  0  0
   -1.5132    4.7873   -0.8341 C   0  0  0  0  0  0  0  0  0  0  0  0
   -1.9778    5.6964   -1.2618 H   0  0  0  0  0  0  0  0  0  0  0  0
   -1.0716    5.0235    0.1587 H   0  0  0  0  0  0  0  0  0  0  0  0
   -0.7040    4.4294   -1.5078 H   0  0  0  0  0  0  0  0  0  0  0  0
   -3.7945    1.5752   -0.0017 C   0  0  0  0  0  0  0  0  0  0  0  0
   -4.2800    0.8862   -1.1244 C   0  0  0  0  0  0  0  0  0  0  0  0
   -5.5210    0.2344   -1.0872 C   0  0  0  0  0  0  0  0  0  0  0  0
   -6.2833    0.2579    0.0978 C   0  0  0  0  0  0  0  0  0  0  0  0
   -7.4693   -0.4013    0.2617 O   0  0  0  0  0  0  0  0  0  0  0  0
   -8.0311   -1.0519   -0.8618 C   0  0  0  0  0  0  0  0  0  0  0  0
   -8.2093   -0.3476   -1.7044 H   0  0  0  0  0  0  0  0  0  0  0  0
   -7.3816   -1.8801   -1.2267 H   0  0  0  0  0  0  0  0  0  0  0  0
   -8.9995   -1.4720   -0.5316 H   0  0  0  0  0  0  0  0  0  0  0  0
   -5.8147    0.9771    1.2194 C   0  0  0  0  0  0  0  0  0  0  0  0
   -4.5830    1.6303    1.1667 C   0  0  0  0  0  0  0  0  0  0  0  0
   -4.1905    2.1647    2.0461 H   0  0  0  0  0  0  0  0  0  0  0  0
   -6.4356    0.9940    2.1271 H   0  0  0  0  0  0  0  0  0  0  0  0
   -5.8651   -0.3132   -1.9746 H   0  0  0  0  0  0  0  0  0  0  0  0
   -3.6522    0.8284   -2.0271 H   0  0  0  0  0  0  0  0  0  0  0  0
  1  2  1  0  0  0  0
  2  9  1  0  0  0  0
  2  3  1  0  0  0  0
  4  2  1  0  0  0  0
  5  4  1  0  0  0  0
  5  7  1  0  0  0  0
  6  5  1  0  0  0  0
  8  5  1  0  0  0  0
  9 19  1  0  0  0  0
 10 11  1  0  0  0  0
 10  9  2  0  0  0  0
 11 12  2  0  0  0  0
 12 13  1  0  0  0  0
 12 18  1  0  0  0  0
 14 17  1  0  0  0  0
 14 13  1  0  0  0  0
 15 14  1  0  0  0  0
 16 14  1  0  0  0  0
 18 21  1  0  0  0  0
 19 18  2  0  0  0  0
 19 20  1  0  0  0  0
 22 11  1  0  0  0  0
 23 10  1  0  0  0  0
M  END
