1
q = -1.0

 24 23  0  0  0  0  0  0  0  0999 V2000
    2.6364   -1.6278   -0.6628 S   0  0  0  0  0  1  0  0  0  0  0  0
    2.7819    0.7659    0.4391 O   0  0  0  0  0  0  0  0  0  0  0  0
    4.8394   -0.0514   -0.1970 N   0  0  0  0  0  0  0  0  0  0  0  0
    3.5722   -0.2046   -0.1180 C   0  0  0  0  0  0  0  0  0  0  0  0
    5.6893   -1.0874   -0.7619 C   0  0  0  0  0  0  0  0  0  0  0  0
    5.1193   -1.6758   -1.5235 H   0  0  0  0  0  0  0  0  0  0  0  0
    6.1326   -2.0597    0.3409 C   0  0  0  0  0  0  0  0  0  0  0  0
    5.2517   -2.5580    0.7924 H   0  0  0  0  0  0  0  0  0  0  0  0
    6.6740   -1.5132    1.1410 H   0  0  0  0  0  0  0  0  0  0  0  0
    6.8050   -2.8431   -0.0653 H   0  0  0  0  0  0  0  0  0  0  0  0
    6.8858   -0.4274   -1.4541 C   0  0  0  0  0  0  0  0  0  0  0  0
    6.5454    0.2599   -2.2543 H   0  0  0  0  0  0  0  0  0  0  0  0
    7.5549   -1.1870   -1.9076 H   0  0  0  0  0  0  0  0  0  0  0  0
    7.4721    0.1677   -0.7235 H   0  0  0  0  0  0  0  0  0  0  0  0
    3.4314    1.9672    0.9275 C   0  0  0  0  0  0  0  0  0  0  0  0
    4.4112    1.6619    1.3521 H   0  0  0  0  0  0  0  0  0  0  0  0
    3.6726    2.9363   -0.2252 C   0  0  0  0  0  0  0  0  0  0  0  0
    4.3384    2.4685   -0.9750 H   0  0  0  0  0  0  0  0  0  0  0  0
    4.1585    3.8636    0.1412 H   0  0  0  0  0  0  0  0  0  0  0  0
    2.7151    3.2136   -0.7127 H   0  0  0  0  0  0  0  0  0  0  0  0
    2.5178    2.5209    2.0126 C   0  0  0  0  0  0  0  0  0  0  0  0
    2.3616    1.7727    2.8142 H   0  0  0  0  0  0  0  0  0  0  0  0
    1.5258    2.7872    1.5913 H   0  0  0  0  0  0  0  0  0  0  0  0
    2.9573    3.4336    2.4620 H   0  0  0  0  0  0  0  0  0  0  0  0
  1  4  1  0  0  0  0
  2 15  1  0  0  0  0
  3  4  2  0  0  0  0
  4  2  1  0  0  0  0
  5  3  1  0  0  0  0
  5  7  1  0  0  0  0
  6  5  1  0  0  0  0
  7  8  1  0  0  0  0
  7  9  1  0  0  0  0
 10  7  1  0  0  0  0
 11  5  1  0  0  0  0
 11 14  1  0  0  0  0
 12 11  1  0  0  0  0
 13 11  1  0  0  0  0
 15 16  1  0  0  0  0
 15 21  1  0  0  0  0
 17 19  1  0  0  0  0
 17 15  1  0  0  0  0
 18 17  1  0  0  0  0
 20 17  1  0  0  0  0
 21 24  1  0  0  0  0
 21 22  1  0  0  0  0
 23 21  1  0  0  0  0
M  END
