1
q = -1.0

 21 20  0  0  0  0  0  0  0  0999 V2000
   -2.8591   -1.3005    0.4375 S   0  0  0  0  0  1  0  0  0  0  0  0
   -2.4487    1.2851    0.0784 O   0  0  0  0  0  0  0  0  0  0  0  0
   -4.6662    0.7818    0.4024 N   0  0  0  0  0  0  0  0  0  0  0  0
   -3.4546    0.3870    0.3058 C   0  0  0  0  0  0  0  0  0  0  0  0
   -5.7333   -0.1712    0.6153 C   0  0  0  0  0  0  0  0  0  0  0  0
   -5.3962   -1.0407    1.2323 H   0  0  0  0  0  0  0  0  0  0  0  0
   -6.5453    0.3330    1.1861 H   0  0  0  0  0  0  0  0  0  0  0  0
   -6.3109   -0.6979   -0.7074 C   0  0  0  0  0  0  0  0  0  0  0  0
   -5.4959   -1.2155   -1.2581 H   0  0  0  0  0  0  0  0  0  0  0  0
   -6.6079    0.1721   -1.3323 H   0  0  0  0  0  0  0  0  0  0  0  0
   -7.4938   -1.6431   -0.5054 C   0  0  0  0  0  0  0  0  0  0  0  0
   -7.8956   -2.0084   -1.4721 H   0  0  0  0  0  0  0  0  0  0  0  0
   -8.3259   -1.1429    0.0341 H   0  0  0  0  0  0  0  0  0  0  0  0
   -7.2017   -2.5325    0.0916 H   0  0  0  0  0  0  0  0  0  0  0  0
   -2.8280    2.6621   -0.0737 C   0  0  0  0  0  0  0  0  0  0  0  0
   -3.3693    2.9964    0.8378 H   0  0  0  0  0  0  0  0  0  0  0  0
   -3.5517    2.7503   -0.9129 H   0  0  0  0  0  0  0  0  0  0  0  0
   -1.5589    3.4571   -0.3205 C   0  0  0  0  0  0  0  0  0  0  0  0
   -1.7998    4.5309   -0.4518 H   0  0  0  0  0  0  0  0  0  0  0  0
   -1.0340    3.1032   -1.2306 H   0  0  0  0  0  0  0  0  0  0  0  0
   -0.8556    3.3638    0.5320 H   0  0  0  0  0  0  0  0  0  0  0  0
  2  4  1  0  0  0  0
  3  5  1  0  0  0  0
  4  3  2  0  0  0  0
  4  1  1  0  0  0  0
  5  7  1  0  0  0  0
  5  6  1  0  0  0  0
  8 11  1  0  0  0  0
  8  5  1  0  0  0  0
  9  8  1  0  0  0  0
 10  8  1  0  0  0  0
 11 13  1  0  0  0  0
 11 14  1  0  0  0  0
 12 11  1  0  0  0  0
 15  2  1  0  0  0  0
 15 16  1  0  0  0  0
 17 15  1  0  0  0  0
 18 15  1  0  0  0  0
 18 21  1  0  0  0  0
 19 18  1  0  0  0  0
 20 18  1  0  0  0  0
M  END
