1
q = 0.0, confidence = 1.0

 46 46  0  0  0  0  0  0  0  0999 V2000
   -0.0564   -0.5136    1.5431 S   0  0  0  0  0  0  0  0  0  0  0  0
   -1.5719   -0.5229    0.7703 C   0  0  0  0  0  0  0  0  0  0  0  0
   -1.7068   -0.2789   -0.7006 C   0  0  0  0  0  0  0  0  0  0  0  0
   -1.7442    0.9950   -1.2182 C   0  0  0  0  0  0  0  0  0  0  0  0
   -1.8554   -1.4325   -1.4678 N   0  0  0  0  0  0  0  0  0  0  0  0
   -1.3263   -2.7240   -1.0246 C   0  0  0  0  0  0  0  0  0  0  0  0
   -2.3966   -3.7973   -0.8287 C   0  0  0  0  0  0  0  0  0  0  0  0
   -2.2522   -1.3309   -2.8708 C   0  0  0  0  0  0  0  0  0  0  0  0
   -3.7264   -0.9718   -3.0668 C   0  0  0  0  0  0  0  0  0  0  0  0
   -2.7066   -0.7610    1.4645 N   0  0  0  0  0  0  0  0  0  0  0  0
   -2.6697   -1.0325    2.9073 C   0  0  0  0  0  0  0  0  0  0  0  0
   -2.4395   -2.5121    3.2135 C   0  0  0  0  0  0  0  0  0  0  0  0
   -4.0389   -0.7491    0.8377 C   0  0  0  0  0  0  0  0  0  0  0  0
   -4.7555    0.5939    0.9603 C   0  0  0  0  0  0  0  0  0  0  0  0
   -1.6354    2.3004   -0.5722 C   0  0  0  0  0  0  0  0  0  0  0  0
   -1.7032    2.5603    0.8227 C   0  0  0  0  0  0  0  0  0  0  0  0
   -1.5417    3.8561    1.3275 C   0  0  0  0  0  0  0  0  0  0  0  0
   -1.3152    4.9416    0.4671 C   0  0  0  0  0  0  0  0  0  0  0  0
   -1.2633    4.7125   -0.9173 C   0  0  0  0  0  0  0  0  0  0  0  0
   -1.4269    3.4199   -1.4235 C   0  0  0  0  0  0  0  0  0  0  0  0
   -1.8051    1.0602   -2.3142 H   0  0  0  0  0  0  0  0  0  0  0  0
   -0.5690   -3.0685   -1.7649 H   0  0  0  0  0  0  0  0  0  0  0  0
   -0.7636   -2.5698   -0.0851 H   0  0  0  0  0  0  0  0  0  0  0  0
   -1.9268   -4.7601   -0.5435 H   0  0  0  0  0  0  0  0  0  0  0  0
   -2.9801   -3.9723   -1.7559 H   0  0  0  0  0  0  0  0  0  0  0  0
   -3.1078   -3.5130   -0.0271 H   0  0  0  0  0  0  0  0  0  0  0  0
   -1.5938   -0.6073   -3.3998 H   0  0  0  0  0  0  0  0  0  0  0  0
   -2.0403   -2.3132   -3.3374 H   0  0  0  0  0  0  0  0  0  0  0  0
   -3.9590   -0.8597   -4.1447 H   0  0  0  0  0  0  0  0  0  0  0  0
   -3.9773   -0.0141   -2.5683 H   0  0  0  0  0  0  0  0  0  0  0  0
   -4.3865   -1.7604   -2.6529 H   0  0  0  0  0  0  0  0  0  0  0  0
   -1.8603   -0.4163    3.3494 H   0  0  0  0  0  0  0  0  0  0  0  0
   -3.6313   -0.6811    3.3321 H   0  0  0  0  0  0  0  0  0  0  0  0
   -2.4355   -2.6781    4.3087 H   0  0  0  0  0  0  0  0  0  0  0  0
   -1.4615   -2.8439    2.8135 H   0  0  0  0  0  0  0  0  0  0  0  0
   -3.2364   -3.1457    2.7741 H   0  0  0  0  0  0  0  0  0  0  0  0
   -3.9238   -1.0351   -0.2227 H   0  0  0  0  0  0  0  0  0  0  0  0
   -4.6260   -1.5559    1.3251 H   0  0  0  0  0  0  0  0  0  0  0  0
   -5.7680    0.5170    0.5162 H   0  0  0  0  0  0  0  0  0  0  0  0
   -4.1996    1.3878    0.4258 H   0  0  0  0  0  0  0  0  0  0  0  0
   -4.8741    0.9053    2.0178 H   0  0  0  0  0  0  0  0  0  0  0  0
   -1.8779    1.7446    1.5335 H   0  0  0  0  0  0  0  0  0  0  0  0
   -1.5907    4.0180    2.4153 H   0  0  0  0  0  0  0  0  0  0  0  0
   -1.1813    5.9559    0.8715 H   0  0  0  0  0  0  0  0  0  0  0  0
   -1.0882    5.5496   -1.6102 H   0  0  0  0  0  0  0  0  0  0  0  0
   -1.3733    3.2517   -2.5109 H   0  0  0  0  0  0  0  0  0  0  0  0
  2 10  1  0  0  0  0
  2  1  2  0  0  0  0
  3  2  1  0  0  0  0
  4  3  2  0  0  0  0
  4 15  1  0  0  0  0
  5  6  1  0  0  0  0
  5  3  1  0  0  0  0
  6  7  1  0  0  0  0
  6 23  1  0  0  0  0
  7 24  1  0  0  0  0
  7 26  1  0  0  0  0
  8  5  1  0  0  0  0
  9  8  1  0  0  0  0
  9 31  1  0  0  0  0
  9 30  1  0  0  0  0
 10 11  1  0  0  0  0
 11 12  1  0  0  0  0
 11 33  1  0  0  0  0
 11 32  1  0  0  0  0
 12 34  1  0  0  0  0
 13 14  1  0  0  0  0
 13 38  1  0  0  0  0
 13 10  1  0  0  0  0
 14 41  1  0  0  0  0
 15 16  1  0  0  0  0
 16 17  2  0  0  0  0
 16 42  1  0  0  0  0
 17 43  1  0  0  0  0
 18 44  1  0  0  0  0
 18 17  1  0  0  0  0
 19 18  2  0  0  0  0
 20 19  1  0  0  0  0
 20 15  2  0  0  0  0
 21  4  1  0  0  0  0
 22  6  1  0  0  0  0
 25  7  1  0  0  0  0
 27  8  1  0  0  0  0
 28  8  1  0  0  0  0
 29  9  1  0  0  0  0
 35 12  1  0  0  0  0
 36 12  1  0  0  0  0
 37 13  1  0  0  0  0
 39 14  1  0  0  0  0
 40 14  1  0  0  0  0
 45 19  1  0  0  0  0
 46 20  1  0  0  0  0
M  END
