1
q = -1.0

 13 12  0  0  0  0  0  0  0  0999 V2000
   -0.6093   -2.0908   -1.2784 S   0  0  0  0  0  1  0  0  0  0  0  0
   -0.7401   -2.8303    0.6454 P   0  0  0  0  0  0  0  0  0  0  0  0
    0.1210   -2.1641    1.6895 O   0  0  0  0  0  0  0  0  0  0  0  0
   -0.5403   -4.4665    0.5129 O   0  0  0  0  0  0  0  0  0  0  0  0
   -2.3111   -2.8387    1.1318 O   0  0  0  0  0  0  0  0  0  0  0  0
   -3.2442   -3.7330    0.5329 C   0  0  0  0  0  0  0  0  0  0  0  0
   -3.0855   -3.8185   -0.5650 H   0  0  0  0  0  0  0  0  0  0  0  0
   -4.2580   -3.3274    0.7209 H   0  0  0  0  0  0  0  0  0  0  0  0
   -3.1584   -4.7467    0.9765 H   0  0  0  0  0  0  0  0  0  0  0  0
    0.7077   -4.9891    0.0722 C   0  0  0  0  0  0  0  0  0  0  0  0
    1.0433   -4.5029   -0.8697 H   0  0  0  0  0  0  0  0  0  0  0  0
    0.5651   -6.0728   -0.1069 H   0  0  0  0  0  0  0  0  0  0  0  0
    1.4954   -4.8507    0.8438 H   0  0  0  0  0  0  0  0  0  0  0  0
  1  2  1  0  0  0  0
  2  5  1  0  0  0  0
  2  3  2  0  0  0  0
  4  2  1  0  0  0  0
  6  8  1  0  0  0  0
  6  9  1  0  0  0  0
  6  5  1  0  0  0  0
  7  6  1  0  0  0  0
 10  4  1  0  0  0  0
 10 13  1  0  0  0  0
 11 10  1  0  0  0  0
 12 10  1  0  0  0  0
M  END
