1
q = -1.0

 36 37  0  0  1  0  0  0  0  0999 V2000
    1.3623    2.3814    0.0909 S   0  0  0  0  0  1  0  0  0  0  0  0
   -0.3274    2.1366    0.1417 C   0  0  1  0  0  3  0  0  0  0  0  0
   -0.6168    5.2208   -1.0226 C   0  0  0  0  0  0  0  0  0  0  0  0
    0.1932    4.7215   -1.5895 H   0  0  0  0  0  0  0  0  0  0  0  0
   -0.3363    6.2848   -0.8964 H   0  0  0  0  0  0  0  0  0  0  0  0
   -1.5466    5.1814   -1.6246 H   0  0  0  0  0  0  0  0  0  0  0  0
   -0.8685    0.8660    0.0457 N   0  0  0  0  0  0  0  0  0  0  0  0
   -0.2852   -0.0426    0.1077 H   0  0  0  0  0  0  0  0  0  0  0  0
   -1.1833    3.1592    0.2758 N   0  0  0  0  0  0  0  0  0  0  0  0
   -0.8070    4.5715    0.3478 C   0  0  0  0  0  0  0  0  0  0  0  0
   -1.5992    5.0849    0.9284 H   0  0  0  0  0  0  0  0  0  0  0  0
    0.1274    4.6376    0.9435 H   0  0  0  0  0  0  0  0  0  0  0  0
   -2.1795    0.7036    0.0364 N   0  0  0  0  0  0  0  0  0  0  0  0
   -2.6996   -0.5222   -0.0044 C   0  0  0  0  0  0  0  0  0  0  0  0
   -0.6013   -1.6926    0.1376 N   0  0  0  0  0  0  0  0  0  0  0  0
   -4.1637   -0.5122    0.0757 C   0  0  2  0  0  3  0  0  0  0  0  0
   -1.9292   -1.7815   -0.1333 C   0  0  0  0  0  0  0  0  0  0  0  0
    0.1773   -2.7795    0.0344 C   0  0  0  0  0  0  0  0  0  0  0  0
    1.2536   -2.6327    0.2425 H   0  0  0  0  0  0  0  0  0  0  0  0
   -4.7944    0.6304   -0.3447 N   0  0  0  0  0  0  0  0  0  0  0  0
   -4.1554    1.3657   -0.6826 H   0  0  0  0  0  0  0  0  0  0  0  0
   -6.1315    0.8423   -0.2852 C   0  0  0  0  0  0  0  0  0  0  0  0
   -6.4938    1.8107   -0.6582 H   0  0  0  0  0  0  0  0  0  0  0  0
   -2.4997   -2.9912   -0.5920 C   0  0  0  0  0  0  0  0  0  0  0  0
   -3.5515   -3.0436   -0.9032 H   0  0  0  0  0  0  0  0  0  0  0  0
   -4.9863   -1.5249    0.6169 C   0  0  0  0  0  0  0  0  0  0  0  0
   -4.5213   -2.4331    1.0199 H   0  0  0  0  0  0  0  0  0  0  0  0
   -1.6855   -4.1267   -0.6956 C   0  0  0  0  0  0  0  0  0  0  0  0
   -2.1089   -5.0768   -1.0541 H   0  0  0  0  0  0  0  0  0  0  0  0
   -6.3690   -1.3420    0.6890 C   0  0  0  0  0  0  0  0  0  0  0  0
   -6.9981   -2.1294    1.1302 H   0  0  0  0  0  0  0  0  0  0  0  0
   -6.9610   -0.1468    0.2229 C   0  0  0  0  0  0  0  0  0  0  0  0
   -8.0459    0.0165    0.2669 H   0  0  0  0  0  0  0  0  0  0  0  0
   -0.3299   -4.0298   -0.3565 C   0  0  0  0  0  0  0  0  0  0  0  0
    0.3427   -4.8967   -0.4226 H   0  0  0  0  0  0  0  0  0  0  0  0
   -2.1714    2.8911    0.3084 H   0  0  0  0  0  0  0  0  0  0  0  0
  2  1  1  1  0  0  0
  2  9  1  0  0  0  0
  3  5  1  0  0  0  0
  3 10  1  0  0  0  0
  4  3  1  0  0  0  0
  6  3  1  0  0  0  0
  7  8  1  0  0  0  0
  7  2  1  0  0  0  0
  9 36  1  0  0  0  0
  9 10  1  0  0  0  0
 10 11  1  0  0  0  0
 10 12  1  0  0  0  0
 13  7  1  0  0  0  0
 14 13  2  0  0  0  0
 16 14  1  1  0  0  0
 16 26  1  0  0  0  0
 17 14  1  0  0  0  0
 17 15  2  0  0  0  0
 18 15  1  0  0  0  0
 18 19  1  0  0  0  0
 20 22  1  0  0  0  0
 20 16  1  0  0  0  0
 21 20  1  0  0  0  0
 22 32  2  0  0  0  0
 23 22  1  0  0  0  0
 24 17  1  0  0  0  0
 25 24  1  0  0  0  0
 26 30  2  0  0  0  0
 26 27  1  0  0  0  0
 28 24  2  0  0  0  0
 28 34  1  0  0  0  0
 29 28  1  0  0  0  0
 30 31  1  0  0  0  0
 32 33  1  0  0  0  0
 32 30  1  0  0  0  0
 34 18  2  0  0  0  0
 35 34  1  0  0  0  0
M  END
