1
q = 0.0, confidence = 1.0

 28 27  0  0  0  0  0  0  0  0999 V2000
   -0.0000   -1.4112   -0.8585 S   0  0  0  0  0  3  0  0  0  0  0  0
   -0.0000   -0.8449   -2.2703 O   0  0  0  0  0  1  0  0  0  0  0  0
   -1.4161   -2.5661   -0.7250 C   0  0  0  0  0  0  0  0  0  0  0  0
   -1.2660   -3.2891   -1.5534 H   0  0  0  0  0  0  0  0  0  0  0  0
   -1.2853   -3.0552    0.2620 H   0  0  0  0  0  0  0  0  0  0  0  0
   -2.7301   -1.8059   -0.8304 C   0  0  0  0  0  0  0  0  0  0  0  0
   -2.7424   -1.2231   -1.7766 H   0  0  0  0  0  0  0  0  0  0  0  0
   -2.7799   -1.0727    0.0042 H   0  0  0  0  0  0  0  0  0  0  0  0
   -3.9508   -2.7318   -0.7755 C   0  0  0  0  0  0  0  0  0  0  0  0
   -3.8902   -3.4708   -1.6047 H   0  0  0  0  0  0  0  0  0  0  0  0
   -3.9155   -3.3240    0.1647 H   0  0  0  0  0  0  0  0  0  0  0  0
   -5.2710   -1.9652   -0.8567 C   0  0  0  0  0  0  0  0  0  0  0  0
   -6.1418   -2.6493   -0.8183 H   0  0  0  0  0  0  0  0  0  0  0  0
   -5.3432   -1.3822   -1.7985 H   0  0  0  0  0  0  0  0  0  0  0  0
   -5.3707   -1.2480   -0.0160 H   0  0  0  0  0  0  0  0  0  0  0  0
    1.4160   -2.5662   -0.7251 C   0  0  0  0  0  0  0  0  0  0  0  0
    1.2853   -3.0553    0.2619 H   0  0  0  0  0  0  0  0  0  0  0  0
    1.2659   -3.2891   -1.5536 H   0  0  0  0  0  0  0  0  0  0  0  0
    2.7301   -1.8060   -0.8304 C   0  0  0  0  0  0  0  0  0  0  0  0
    2.7425   -1.2231   -1.7767 H   0  0  0  0  0  0  0  0  0  0  0  0
    2.7798   -1.0727    0.0041 H   0  0  0  0  0  0  0  0  0  0  0  0
    3.9507   -2.7318   -0.7754 C   0  0  0  0  0  0  0  0  0  0  0  0
    3.9155   -3.3240    0.1648 H   0  0  0  0  0  0  0  0  0  0  0  0
    3.8902   -3.4708   -1.6046 H   0  0  0  0  0  0  0  0  0  0  0  0
    5.2710   -1.9652   -0.8566 C   0  0  0  0  0  0  0  0  0  0  0  0
    6.1417   -2.6493   -0.8181 H   0  0  0  0  0  0  0  0  0  0  0  0
    5.3706   -1.2479   -0.0160 H   0  0  0  0  0  0  0  0  0  0  0  0
    5.3432   -1.3823   -1.7985 H   0  0  0  0  0  0  0  0  0  0  0  0
  1 16  1  0  0  0  0
  1  3  1  0  0  0  0
  2  1  1  0  0  0  0
  3  5  1  0  0  0  0
  4  3  1  0  0  0  0
  6  9  1  0  0  0  0
  6  3  1  0  0  0  0
  6  8  1  0  0  0  0
  7  6  1  0  0  0  0
  9 11  1  0  0  0  0
 10  9  1  0  0  0  0
 12 13  1  0  0  0  0
 12  9  1  0  0  0  0
 12 15  1  0  0  0  0
 14 12  1  0  0  0  0
 16 17  1  0  0  0  0
 18 16  1  0  0  0  0
 19 22  1  0  0  0  0
 19 16  1  0  0  0  0
 19 21  1  0  0  0  0
 20 19  1  0  0  0  0
 22 23  1  0  0  0  0
 24 22  1  0  0  0  0
 25 26  1  0  0  0  0
 25 22  1  0  0  0  0
 25 27  1  0  0  0  0
 28 25  1  0  0  0  0
M  END
