1
q = 0.0, confidence = 0.994

 20 19  0  0  0  0  0  0  0  0999 V2000
   -1.9364   -0.7488   -0.0009 S   0  0  0  0  0  1  0  0  0  0  0  0
   -3.1674    0.4312    0.0000 C   0  0  0  0  0  0  0  0  0  0  0  0
   -2.9999    1.7493    0.0009 N   0  0  0  0  0  4  0  0  0  0  0  0
   -4.4722   -0.0387   -0.0001 N   0  0  0  0  0  0  0  0  0  0  0  0
   -2.0361    2.1513    0.0006 H   0  0  0  0  0  0  0  0  0  0  0  0
   -3.8429    2.3312    0.0012 H   0  0  0  0  0  0  0  0  0  0  0  0
   -5.4858    0.8216    0.0005 N   0  0  0  0  0  0  0  0  0  0  0  0
   -4.6603   -1.0618   -0.0007 H   0  0  0  0  0  0  0  0  0  0  0  0
   -6.7314    0.4083    0.0005 C   0  0  0  0  0  0  0  0  0  0  0  0
   -7.0812   -1.0348   -0.0001 C   0  0  0  0  0  0  0  0  0  0  0  0
   -7.8207    1.4416    0.0011 C   0  0  0  0  0  0  0  0  0  0  0  0
   -6.2694   -1.9626   -0.0007 O   0  0  0  0  0  0  0  0  0  0  0  0
   -8.4182   -1.2341   -0.0000 O   0  0  0  0  0  0  0  0  0  0  0  0
   -7.3715    2.4515    0.0016 H   0  0  0  0  0  0  0  0  0  0  0  0
   -8.4766    1.3346   -0.8873 H   0  0  0  0  0  0  0  0  0  0  0  0
   -8.4765    1.3337    0.8896 H   0  0  0  0  0  0  0  0  0  0  0  0
   -8.8374   -2.6056   -0.0007 C   0  0  0  0  0  0  0  0  0  0  0  0
   -9.9412   -2.5865   -0.0007 H   0  0  0  0  0  0  0  0  0  0  0  0
   -8.4566   -3.1319   -0.8989 H   0  0  0  0  0  0  0  0  0  0  0  0
   -8.4568   -3.1327    0.8972 H   0  0  0  0  0  0  0  0  0  0  0  0
  1  2  1  0  0  0  0
  2  3  2  0  0  0  0
  3  6  1  0  0  0  0
  4  2  1  0  0  0  0
  4  7  1  0  0  0  0
  5  3  1  0  0  0  0
  8  4  1  0  0  0  0
  9  7  2  0  0  0  0
  9 11  1  0  0  0  0
 10 13  1  0  0  0  0
 10  9  1  0  0  0  0
 11 14  1  0  0  0  0
 11 16  1  0  0  0  0
 12 10  2  0  0  0  0
 15 11  1  0  0  0  0
 17 13  1  0  0  0  0
 17 20  1  0  0  0  0
 18 17  1  0  0  0  0
 19 17  1  0  0  0  0
M  END
