1
q = 0.0, confidence = 1.0

 22 22  0  0  1  0  0  0  0  0999 V2000
    1.5606    0.4394   -1.3365 S   0  0  0  0  0  1  0  0  0  0  0  0
    3.2224   -1.5055   -0.2470 N   0  0  0  0  0  0  0  0  0  0  0  0
    4.1908    0.4432   -0.5042 N   0  0  0  0  0  0  0  0  0  0  0  0
    3.0049   -0.2213   -0.6713 C   0  0  1  0  0  3  0  0  0  0  0  0
    4.5205   -1.6275    0.2144 C   0  0  0  0  0  0  0  0  0  0  0  0
    4.9013   -2.5691    0.6193 H   0  0  0  0  0  0  0  0  0  0  0  0
    5.1305   -0.4099    0.0499 C   0  0  0  0  0  0  0  0  0  0  0  0
    6.1476   -0.0816    0.2809 H   0  0  0  0  0  0  0  0  0  0  0  0
    4.3534    1.8896   -0.6669 C   0  0  0  0  0  0  0  0  0  0  0  0
    5.3431    2.0654   -1.1362 H   0  0  0  0  0  0  0  0  0  0  0  0
    3.5714    2.2051   -1.3848 H   0  0  0  0  0  0  0  0  0  0  0  0
    4.1969    2.6286    0.6596 C   0  0  0  0  0  0  0  0  0  0  0  0
    5.0050    2.3601    1.3697 H   0  0  0  0  0  0  0  0  0  0  0  0
    3.2277    2.3594    1.1282 H   0  0  0  0  0  0  0  0  0  0  0  0
    4.2372    3.7227    0.4887 H   0  0  0  0  0  0  0  0  0  0  0  0
    2.1951   -2.5463   -0.1840 C   0  0  0  0  0  0  0  0  0  0  0  0
    1.3017   -2.0777    0.2938 H   0  0  0  0  0  0  0  0  0  0  0  0
    2.5737   -3.3212    0.5103 H   0  0  0  0  0  0  0  0  0  0  0  0
    1.8404   -3.1238   -1.5488 C   0  0  0  0  0  0  0  0  0  0  0  0
    1.0414   -3.8819   -1.4308 H   0  0  0  0  0  0  0  0  0  0  0  0
    2.7142   -3.6055   -2.0320 H   0  0  0  0  0  0  0  0  0  0  0  0
    1.4570   -2.3241   -2.2128 H   0  0  0  0  0  0  0  0  0  0  0  0
  2 16  1  0  0  0  0
  2  5  1  0  0  0  0
  3  7  1  0  0  0  0
  4  1  1  6  0  0  0
  4  3  1  0  0  0  0
  4  2  1  0  0  0  0
  5  6  1  0  0  0  0
  7  5  2  0  0  0  0
  7  8  1  0  0  0  0
  9  3  1  0  0  0  0
  9 12  1  0  0  0  0
 10  9  1  0  0  0  0
 11  9  1  0  0  0  0
 12 14  1  0  0  0  0
 12 13  1  0  0  0  0
 15 12  1  0  0  0  0
 16 17  1  0  0  0  0
 16 18  1  0  0  0  0
 19 20  1  0  0  0  0
 19 16  1  0  0  0  0
 21 19  1  0  0  0  0
 22 19  1  0  0  0  0
M  END
