1
q = 0.0, confidence = 0.862

 10  9  0  0  0  0  0  0  0  0999 V2000
   -1.3880   -1.0666    0.0699 S   0  0  0  0  0  0  0  0  0  0  0  0
   -2.7805   -0.1635    0.0415 C   0  0  0  0  0  0  0  0  0  0  0  0
   -4.0879   -0.8987    0.0266 C   0  0  0  0  0  0  0  0  0  0  0  0
   -2.8368    1.3300   -0.0021 C   0  0  0  0  0  0  0  0  0  0  0  0
   -4.6911   -0.5816   -0.8528 H   0  0  0  0  0  0  0  0  0  0  0  0
   -4.6857   -0.6258    0.9242 H   0  0  0  0  0  0  0  0  0  0  0  0
   -3.9549   -1.9956   -0.0004 H   0  0  0  0  0  0  0  0  0  0  0  0
   -2.7617    1.6749   -1.0570 H   0  0  0  0  0  0  0  0  0  0  0  0
   -3.7983    1.7073    0.3988 H   0  0  0  0  0  0  0  0  0  0  0  0
   -1.9973    1.7964    0.5440 H   0  0  0  0  0  0  0  0  0  0  0  0
  2  1  2  0  0  0  0
  3  2  1  0  0  0  0
  3  6  1  0  0  0  0
  4  2  1  0  0  0  0
  4  9  1  0  0  0  0
  4 10  1  0  0  0  0
  5  3  1  0  0  0  0
  7  3  1  0  0  0  0
  8  4  1  0  0  0  0
M  END
