1
q = -1.0

 20 22  0  0  0  0  0  0  0  0999 V2000
   -1.9955    0.6672   -1.6919 S   0  0  0  0  0  1  0  0  0  0  0  0
   -1.3338    3.6133   -0.9329 B   0  0  2  0  0  0  0  0  0  0  0  0
   -2.2493    2.6194   -2.0705 B   0  0  2  0  0  0  0  0  0  0  0  0
   -0.5436    2.1310   -1.4414 B   0  0  1  0  0  0  0  0  0  0  0  0
   -0.4564    2.6423    0.2809 B   0  0  2  0  0  0  0  0  0  0  0  0
   -2.0042    3.4096    0.7181 B   0  0  0  0  0  0  0  0  0  0  0  0
   -3.0869    3.3424   -0.6948 B   0  0  2  0  0  0  0  0  0  0  0  0
   -1.6540    1.7689    1.3019 B   0  0  0  0  0  2  0  0  0  0  0  0
   -3.3320    2.2191    0.6447 B   0  0  0  0  0  0  0  0  0  0  0  0
   -3.5130    1.7016   -1.0968 B   0  0  2  0  0  0  0  0  0  0  0  0
   -2.7288    1.0734    0.7856 H   0  0  0  0  0  0  0  0  0  0  0  0
   -0.8832    4.6637   -1.3367 H   0  0  0  0  0  0  0  0  0  0  0  0
   -2.3825    2.8536   -3.2491 H   0  0  0  0  0  0  0  0  0  0  0  0
    0.3036    2.1668   -2.3008 H   0  0  0  0  0  0  0  0  0  0  0  0
    0.5410    3.1621    0.7392 H   0  0  0  0  0  0  0  0  0  0  0  0
   -2.0306    4.3391    1.4967 H   0  0  0  0  0  0  0  0  0  0  0  0
   -3.9338    4.1917   -0.8740 H   0  0  0  0  0  0  0  0  0  0  0  0
   -1.5887    1.6202    2.5039 H   0  0  0  0  0  0  0  0  0  0  0  0
   -4.2811    2.2848    1.3968 H   0  0  0  0  0  0  0  0  0  0  0  0
   -4.5393    1.3239   -1.6159 H   0  0  0  0  0  0  0  0  0  0  0  0
  1  4  1  0  0  0  0
  2 12  1  6  0  0  0
  2  5  1  0  0  0  0
  3 13  1  6  0  0  0
  3 10  1  0  0  0  0
  3  2  1  0  0  0  0
  3  7  1  0  0  0  0
  4 14  1  6  0  0  0
  4  2  1  0  0  0  0
  4  5  1  0  0  0  0
  5  6  1  0  0  0  0
  5 15  1  1  0  0  0
  6  8  1  0  0  0  0
  6 16  1  0  0  0  0
  7 17  1  6  0  0  0
  7  9  1  0  0  0  0
  8 18  1  0  0  0  0
  9 11  1  0  0  0  0
  9 19  1  0  0  0  0
 10 20  1  6  0  0  0
 10  7  1  0  0  0  0
 10  9  1  0  0  0  0
M  END
