1
q = -1.0, confidence = 0.0

 26 27  0  0  0  0  0  0  0  0999 V2000
   -1.1956   -1.5061    2.2764 S   0  0  0  0  0  1  0  0  0  0  0  0
    2.6660   -1.0578   -0.5413 N   0  0  0  0  0  0  0  0  0  0  0  0
    0.4559   -2.7431    0.1423 N   0  0  0  0  0  0  0  0  0  0  0  0
    0.6141   -2.4487    1.1185 H   0  0  0  0  0  0  0  0  0  0  0  0
    2.7998   -2.3933   -0.4059 C   0  0  0  0  0  0  0  0  0  0  0  0
    4.0257   -2.9826   -0.0516 C   0  0  0  0  0  0  0  0  0  0  0  0
    4.0971   -4.0749    0.0598 H   0  0  0  0  0  0  0  0  0  0  0  0
    5.1392   -2.1579    0.1676 C   0  0  0  0  0  0  0  0  0  0  0  0
    6.1085   -2.5948    0.4525 H   0  0  0  0  0  0  0  0  0  0  0  0
    4.9912   -0.7717    0.0333 C   0  0  0  0  0  0  0  0  0  0  0  0
    5.8315   -0.0842    0.2065 H   0  0  0  0  0  0  0  0  0  0  0  0
    3.7299   -0.2677   -0.3230 C   0  0  0  0  0  0  0  0  0  0  0  0
    3.5624    0.8167   -0.4354 H   0  0  0  0  0  0  0  0  0  0  0  0
    1.5516   -3.2234   -0.6488 C   0  0  0  0  0  0  0  0  0  0  0  0
    1.2878   -3.1295   -1.7258 H   0  0  0  0  0  0  0  0  0  0  0  0
    1.7865   -4.3026   -0.4795 H   0  0  0  0  0  0  0  0  0  0  0  0
   -0.8722   -2.7225   -0.2144 C   0  0  0  0  0  0  0  0  0  0  0  0
   -1.7991   -2.1161    0.7039 C   0  0  0  0  0  0  0  0  0  0  0  0
   -3.1511   -2.0174    0.3389 C   0  0  0  0  0  0  0  0  0  0  0  0
   -3.8434   -1.5492    1.0549 H   0  0  0  0  0  0  0  0  0  0  0  0
   -3.6173   -2.4800   -0.9052 C   0  0  0  0  0  0  0  0  0  0  0  0
   -4.6811   -2.3811   -1.1674 H   0  0  0  0  0  0  0  0  0  0  0  0
   -2.7142   -3.0817   -1.7934 C   0  0  0  0  0  0  0  0  0  0  0  0
   -3.0628   -3.4680   -2.7637 H   0  0  0  0  0  0  0  0  0  0  0  0
   -1.3588   -3.2151   -1.4501 C   0  0  0  0  0  0  0  0  0  0  0  0
   -0.6714   -3.7131   -2.1499 H   0  0  0  0  0  0  0  0  0  0  0  0
  2  5  2  0  0  0  0
  2 12  1  0  0  0  0
  3  4  1  0  0  0  0
  5  6  1  0  0  0  0
  6  7  1  0  0  0  0
  6  8  2  0  0  0  0
  8  9  1  0  0  0  0
 10  8  1  0  0  0  0
 10 11  1  0  0  0  0
 12 10  2  0  0  0  0
 13 12  1  0  0  0  0
 14 16  1  0  0  0  0
 14  5  1  0  0  0  0
 14  3  1  0  0  0  0
 15 14  1  0  0  0  0
 17  3  1  0  0  0  0
 17 18  1  0  0  0  0
 18  1  1  0  0  0  0
 19 18  2  0  0  0  0
 19 20  1  0  0  0  0
 21 19  1  0  0  0  0
 22 21  1  0  0  0  0
 23 25  1  0  0  0  0
 23 21  2  0  0  0  0
 24 23  1  0  0  0  0
 25 17  2  0  0  0  0
 26 25  1  0  0  0  0
M  END
