1
q = 0.0, confidence = 0.988

 69 70  0  0  1  0  0  0  0  0999 V2000
   -0.7761   -2.5328    0.1637 S   0  0  0  0  0  1  0  0  0  0  0  0
   -0.8125   -0.4676    0.0623 Si  0  0  1  0  0  0  0  0  0  0  0  0
   -2.6695    2.0376   -0.0813 Si  0  0  0  0  0  0  0  0  0  0  0  0
   -3.8224   -0.8608    0.0306 Si  0  0  0  0  0  0  0  0  0  0  0  0
    0.4523    0.3987    1.1133 N   0  0  0  0  0  0  0  0  0  0  0  0
    0.4602    0.3187   -1.0508 N   0  0  0  0  0  0  0  0  0  0  0  0
   -2.3862    0.2652    0.0417 N   0  0  0  0  0  0  0  0  0  0  0  0
    1.1782    0.7170    0.0208 C   0  0  1  0  0  3  0  0  0  0  0  0
    0.7810    0.3567    2.5540 C   0  0  0  0  0  0  0  0  0  0  0  0
    0.6818    1.7275   -3.0762 C   0  0  0  0  0  0  0  0  0  0  0  0
   -0.3305    2.1570   -2.9396 H   0  0  0  0  0  0  0  0  0  0  0  0
    0.9014    1.7079   -4.1622 H   0  0  0  0  0  0  0  0  0  0  0  0
    1.4205    2.3972   -2.5936 H   0  0  0  0  0  0  0  0  0  0  0  0
    2.1544   -0.3042   -2.7736 C   0  0  0  0  0  0  0  0  0  0  0  0
    2.9684    0.3821   -2.4738 H   0  0  0  0  0  0  0  0  0  0  0  0
    2.2616   -0.5014   -3.8588 H   0  0  0  0  0  0  0  0  0  0  0  0
    2.2940   -1.2573   -2.2227 H   0  0  0  0  0  0  0  0  0  0  0  0
   -0.3170   -0.5873   -3.1350 C   0  0  0  0  0  0  0  0  0  0  0  0
   -0.2526   -1.6180   -2.7337 H   0  0  0  0  0  0  0  0  0  0  0  0
   -0.1859   -0.6234   -4.2335 H   0  0  0  0  0  0  0  0  0  0  0  0
   -1.3314   -0.1943   -2.9179 H   0  0  0  0  0  0  0  0  0  0  0  0
   -0.5688    0.2051    3.2788 C   0  0  0  0  0  0  0  0  0  0  0  0
   -1.2310    1.0709    3.0780 H   0  0  0  0  0  0  0  0  0  0  0  0
   -0.4080    0.1323    4.3717 H   0  0  0  0  0  0  0  0  0  0  0  0
   -1.0881   -0.7177    2.9479 H   0  0  0  0  0  0  0  0  0  0  0  0
    2.5078    1.3849    0.0100 C   0  0  0  0  0  0  0  0  0  0  0  0
    0.7660    0.3020   -2.5000 C   0  0  0  0  0  0  0  0  0  0  0  0
    1.6656   -0.8713    2.8440 C   0  0  0  0  0  0  0  0  0  0  0  0
    1.1645   -1.7984    2.5000 H   0  0  0  0  0  0  0  0  0  0  0  0
    1.8613   -0.9532    3.9323 H   0  0  0  0  0  0  0  0  0  0  0  0
    2.6375   -0.8065    2.3182 H   0  0  0  0  0  0  0  0  0  0  0  0
   -3.8513   -1.9009    1.6046 C   0  0  0  0  0  0  0  0  0  0  0  0
   -2.9778   -2.5746    1.6844 H   0  0  0  0  0  0  0  0  0  0  0  0
   -4.7754   -2.5153    1.6264 H   0  0  0  0  0  0  0  0  0  0  0  0
   -3.8661   -1.2339    2.4916 H   0  0  0  0  0  0  0  0  0  0  0  0
    1.4771    1.6466    3.0186 C   0  0  0  0  0  0  0  0  0  0  0  0
    2.4871    1.7544    2.5823 H   0  0  0  0  0  0  0  0  0  0  0  0
    1.5853    1.6219    4.1209 H   0  0  0  0  0  0  0  0  0  0  0  0
    0.8825    2.5437    2.7527 H   0  0  0  0  0  0  0  0  0  0  0  0
    3.6856    0.6163    0.1066 C   0  0  0  0  0  0  0  0  0  0  0  0
    3.6328   -0.4875    0.1343 H   0  0  0  0  0  0  0  0  0  0  0  0
   -3.3955    2.4391   -1.7821 C   0  0  0  0  0  0  0  0  0  0  0  0
   -2.6677    2.1675   -2.5745 H   0  0  0  0  0  0  0  0  0  0  0  0
   -3.6010    3.5261   -1.8697 H   0  0  0  0  0  0  0  0  0  0  0  0
   -4.3369    1.8978   -1.9960 H   0  0  0  0  0  0  0  0  0  0  0  0
   -3.8051   -1.8780   -1.5582 C   0  0  0  0  0  0  0  0  0  0  0  0
   -3.9008   -1.2097   -2.4391 H   0  0  0  0  0  0  0  0  0  0  0  0
   -4.6619   -2.5832   -1.5698 H   0  0  0  0  0  0  0  0  0  0  0  0
   -2.8707   -2.4630   -1.6559 H   0  0  0  0  0  0  0  0  0  0  0  0
   -3.7715    2.6475    1.3313 C   0  0  0  0  0  0  0  0  0  0  0  0
   -4.8421    2.4057    1.2046 H   0  0  0  0  0  0  0  0  0  0  0  0
   -3.6812    3.7510    1.4063 H   0  0  0  0  0  0  0  0  0  0  0  0
   -3.4331    2.2161    2.2960 H   0  0  0  0  0  0  0  0  0  0  0  0
   -1.0872    3.0592    0.0673 C   0  0  0  0  0  0  0  0  0  0  0  0
   -0.5731    2.9105    1.0350 H   0  0  0  0  0  0  0  0  0  0  0  0
   -1.3869    4.1255   -0.0024 H   0  0  0  0  0  0  0  0  0  0  0  0
   -0.3757    2.8551   -0.7521 H   0  0  0  0  0  0  0  0  0  0  0  0
    3.8340    3.4247   -0.0541 C   0  0  0  0  0  0  0  0  0  0  0  0
    3.8877    4.5220   -0.1162 H   0  0  0  0  0  0  0  0  0  0  0  0
    2.5836    2.7909   -0.0732 C   0  0  0  0  0  0  0  0  0  0  0  0
    1.6629    3.3875   -0.1353 H   0  0  0  0  0  0  0  0  0  0  0  0
    4.9295    1.2640    0.1249 C   0  0  0  0  0  0  0  0  0  0  0  0
    5.8448    0.6572    0.1948 H   0  0  0  0  0  0  0  0  0  0  0  0
    5.0092    2.6632    0.0477 C   0  0  0  0  0  0  0  0  0  0  0  0
    5.9895    3.1633    0.0637 H   0  0  0  0  0  0  0  0  0  0  0  0
   -5.4747    0.0714    0.0463 C   0  0  0  0  0  0  0  0  0  0  0  0
   -5.7040    0.5129    1.0351 H   0  0  0  0  0  0  0  0  0  0  0  0
   -6.2458   -0.7032   -0.1518 H   0  0  0  0  0  0  0  0  0  0  0  0
   -5.5930    0.8527   -0.7279 H   0  0  0  0  0  0  0  0  0  0  0  0
  2  1  1  1  0  0  0
  2  5  1  0  0  0  0
  3  7  1  0  0  0  0
  3 54  1  0  0  0  0
  3 50  1  0  0  0  0
  4  7  1  0  0  0  0
  4 66  1  0  0  0  0
  4 32  1  0  0  0  0
  5  9  1  0  0  0  0
  6  8  1  0  0  0  0
  6  2  1  0  0  0  0
  7  2  1  0  0  0  0
  8 26  1  6  0  0  0
  8  5  1  0  0  0  0
  9 28  1  0  0  0  0
  9 36  1  0  0  0  0
  9 22  1  0  0  0  0
 10 11  1  0  0  0  0
 10 13  1  0  0  0  0
 10 27  1  0  0  0  0
 12 10  1  0  0  0  0
 14 27  1  0  0  0  0
 14 15  1  0  0  0  0
 14 17  1  0  0  0  0
 16 14  1  0  0  0  0
 18 21  1  0  0  0  0
 18 19  1  0  0  0  0
 18 27  1  0  0  0  0
 20 18  1  0  0  0  0
 22 24  1  0  0  0  0
 23 22  1  0  0  0  0
 25 22  1  0  0  0  0
 26 40  1  0  0  0  0
 27  6  1  0  0  0  0
 28 30  1  0  0  0  0
 29 28  1  0  0  0  0
 31 28  1  0  0  0  0
 32 34  1  0  0  0  0
 32 33  1  0  0  0  0
 32 35  1  0  0  0  0
 36 38  1  0  0  0  0
 37 36  1  0  0  0  0
 39 36  1  0  0  0  0
 40 62  2  0  0  0  0
 40 41  1  0  0  0  0
 42  3  1  0  0  0  0
 43 42  1  0  0  0  0
 44 42  1  0  0  0  0
 45 42  1  0  0  0  0
 46  4  1  0  0  0  0
 47 46  1  0  0  0  0
 48 46  1  0  0  0  0
 49 46  1  0  0  0  0
 50 52  1  0  0  0  0
 50 53  1  0  0  0  0
 51 50  1  0  0  0  0
 54 55  1  0  0  0  0
 56 54  1  0  0  0  0
 57 54  1  0  0  0  0
 58 64  2  0  0  0  0
 59 58  1  0  0  0  0
 60 58  1  0  0  0  0
 60 26  2  0  0  0  0
 61 60  1  0  0  0  0
 62 63  1  0  0  0  0
 64 65  1  0  0  0  0
 64 62  1  0  0  0  0
 66 67  1  0  0  0  0
 68 66  1  0  0  0  0
 69 66  1  0  0  0  0
M  END
