1
q = -1.0

 14 14  0  0  0  0  0  0  0  0999 V2000
   -1.1764   -1.1662   -1.3932 S   0  0  0  0  0  1  0  0  0  0  0  0
   -3.7431    0.3659   -1.5337 N   0  0  0  0  0  0  0  0  0  0  0  0
   -4.7300    0.4041   -1.7926 H   0  0  0  0  0  0  0  0  0  0  0  0
   -3.1346   -0.0750   -2.2377 H   0  0  0  0  0  0  0  0  0  0  0  0
   -2.2410   -0.8087   -0.0156 C   0  0  0  0  0  0  0  0  0  0  0  0
   -1.9373   -1.2150    1.3007 C   0  0  0  0  0  0  0  0  0  0  0  0
   -0.9911   -1.7566    1.4604 H   0  0  0  0  0  0  0  0  0  0  0  0
   -2.8119   -0.9570    2.3679 C   0  0  0  0  0  0  0  0  0  0  0  0
   -2.5466   -1.2865    3.3848 H   0  0  0  0  0  0  0  0  0  0  0  0
   -4.0250   -0.2900    2.1294 C   0  0  0  0  0  0  0  0  0  0  0  0
   -4.7239   -0.0856    2.9564 H   0  0  0  0  0  0  0  0  0  0  0  0
   -4.3470    0.1289    0.8290 C   0  0  0  0  0  0  0  0  0  0  0  0
   -5.2875    0.6741    0.6392 H   0  0  0  0  0  0  0  0  0  0  0  0
   -3.4723   -0.1157   -0.2514 C   0  0  0  0  0  0  0  0  0  0  0  0
  1  5  1  0  0  0  0
  2 14  1  0  0  0  0
  3  2  1  0  0  0  0
  4  2  1  0  0  0  0
  5  6  1  0  0  0  0
  6  7  1  0  0  0  0
  6  8  2  0  0  0  0
  8  9  1  0  0  0  0
 10  8  1  0  0  0  0
 10 11  1  0  0  0  0
 12 10  2  0  0  0  0
 13 12  1  0  0  0  0
 14  5  2  0  0  0  0
 14 12  1  0  0  0  0
M  END
