1
q = -1.0

  8  7  0  0  0  0  0  0  0  0999 V2000
    2.3196    0.9697   -0.2648 S   0  0  0  0  0  1  0  0  0  0  0  0
    2.4734   -1.1035    0.1772 S   0  0  0  0  0  0  0  0  0  0  0  0
    3.9161   -1.4616    0.1416 O   0  0  0  0  0  0  0  0  0  0  0  0
    1.6780   -1.5024    1.3770 O   0  0  0  0  0  0  0  0  0  0  0  0
    1.6895   -1.9248   -1.2423 C   0  0  0  0  0  0  0  0  0  0  0  0
    1.8521   -3.0062   -1.0653 H   0  0  0  0  0  0  0  0  0  0  0  0
    2.2125   -1.5876   -2.1546 H   0  0  0  0  0  0  0  0  0  0  0  0
    0.6082   -1.6811   -1.2732 H   0  0  0  0  0  0  0  0  0  0  0  0
  1  2  1  0  0  0  0
  2  4  2  0  0  0  0
  3  2  2  0  0  0  0
  5  6  1  0  0  0  0
  5  2  1  0  0  0  0
  7  5  1  0  0  0  0
  8  5  1  0  0  0  0
M  END
