1
q = -1.0

 37 37  0  0  0  0  0  0  0  0999 V2000
    1.0388   -1.7825   -2.7042 S   0  0  0  0  0  1  0  0  0  0  0  0
    2.1338   -0.8433   -1.6218 C   0  0  0  0  0  0  0  0  0  0  0  0
    1.9988    0.5530   -1.4769 C   0  0  0  0  0  0  0  0  0  0  0  0
    1.2490    1.0579   -2.0976 H   0  0  0  0  0  0  0  0  0  0  0  0
    2.7496    1.2931   -0.5486 C   0  0  0  0  0  0  0  0  0  0  0  0
    3.7151    0.5858    0.2239 C   0  0  0  0  0  0  0  0  0  0  0  0
    3.9187   -0.8161    0.0716 C   0  0  0  0  0  0  0  0  0  0  0  0
    3.1070   -1.5014   -0.8537 C   0  0  0  0  0  0  0  0  0  0  0  0
    3.1969   -2.5878   -0.9720 H   0  0  0  0  0  0  0  0  0  0  0  0
    4.4377    1.3203    1.1370 O   0  0  0  0  0  0  0  0  0  0  0  0
    5.1089    0.7395    1.5362 H   0  0  0  0  0  0  0  0  0  0  0  0
    2.5114    2.8090   -0.3692 C   0  0  0  0  0  0  0  0  0  0  0  0
    3.8063    3.5901   -0.6945 C   0  0  0  0  0  0  0  0  0  0  0  0
    4.6383    3.2937   -0.0305 H   0  0  0  0  0  0  0  0  0  0  0  0
    3.6339    4.6801   -0.5738 H   0  0  0  0  0  0  0  0  0  0  0  0
    4.1151    3.4078   -1.7439 H   0  0  0  0  0  0  0  0  0  0  0  0
    1.4041    3.3264   -1.3077 C   0  0  0  0  0  0  0  0  0  0  0  0
    1.6629    3.1852   -2.3762 H   0  0  0  0  0  0  0  0  0  0  0  0
    1.2620    4.4131   -1.1394 H   0  0  0  0  0  0  0  0  0  0  0  0
    0.4297    2.8336   -1.1187 H   0  0  0  0  0  0  0  0  0  0  0  0
    2.0552    3.1033    1.0805 C   0  0  0  0  0  0  0  0  0  0  0  0
    1.0981    2.5877    1.2992 H   0  0  0  0  0  0  0  0  0  0  0  0
    1.8890    4.1932    1.2109 H   0  0  0  0  0  0  0  0  0  0  0  0
    2.8060    2.7753    1.8220 H   0  0  0  0  0  0  0  0  0  0  0  0
    4.9719   -1.5800    0.9103 C   0  0  0  0  0  0  0  0  0  0  0  0
    6.3954   -1.0371    0.6191 C   0  0  0  0  0  0  0  0  0  0  0  0
    7.1493   -1.5873    1.2190 H   0  0  0  0  0  0  0  0  0  0  0  0
    6.5352    0.0432    0.8327 H   0  0  0  0  0  0  0  0  0  0  0  0
    6.6406   -1.1724   -0.4530 H   0  0  0  0  0  0  0  0  0  0  0  0
    5.0014   -3.0810    0.5623 C   0  0  0  0  0  0  0  0  0  0  0  0
    4.0308   -3.5718    0.7713 H   0  0  0  0  0  0  0  0  0  0  0  0
    5.7734   -3.5872    1.1764 H   0  0  0  0  0  0  0  0  0  0  0  0
    5.2524   -3.2519   -0.5029 H   0  0  0  0  0  0  0  0  0  0  0  0
    4.6360   -1.4876    2.4217 C   0  0  0  0  0  0  0  0  0  0  0  0
    3.6452   -1.9443    2.6175 H   0  0  0  0  0  0  0  0  0  0  0  0
    4.5920   -0.4517    2.8155 H   0  0  0  0  0  0  0  0  0  0  0  0
    5.3918   -2.0362    3.0208 H   0  0  0  0  0  0  0  0  0  0  0  0
  1  2  1  0  0  0  0
  2  3  2  0  0  0  0
  2  8  1  0  0  0  0
  3  5  1  0  0  0  0
  4  3  1  0  0  0  0
  5 12  1  0  0  0  0
  5  6  2  0  0  0  0
  6 10  1  0  0  0  0
  7  6  1  0  0  0  0
  7 25  1  0  0  0  0
  8  7  2  0  0  0  0
  9  8  1  0  0  0  0
 10 11  1  0  0  0  0
 12 21  1  0  0  0  0
 13 15  1  0  0  0  0
 13 12  1  0  0  0  0
 13 14  1  0  0  0  0
 16 13  1  0  0  0  0
 17 19  1  0  0  0  0
 17 20  1  0  0  0  0
 17 12  1  0  0  0  0
 18 17  1  0  0  0  0
 21 23  1  0  0  0  0
 21 22  1  0  0  0  0
 21 24  1  0  0  0  0
 25 34  1  0  0  0  0
 26 28  1  0  0  0  0
 26 25  1  0  0  0  0
 26 27  1  0  0  0  0
 29 26  1  0  0  0  0
 30 31  1  0  0  0  0
 30 25  1  0  0  0  0
 30 32  1  0  0  0  0
 33 30  1  0  0  0  0
 34 35  1  0  0  0  0
 34 36  1  0  0  0  0
 34 37  1  0  0  0  0
M  END
