1
q = 0.0, confidence = 0.986

 11 11  0  0  0  0  0  0  0  0999 V2000
    0.4831   -2.3009    0.4452 S   0  0  0  0  0  0  0  0  0  0  0  0
   -0.5990   -3.6181   -0.1008 C   0  0  0  0  0  0  0  0  0  0  0  0
   -0.0030   -4.4949   -0.9293 C   0  0  0  0  0  0  0  0  0  0  0  0
    1.4320   -4.1806   -1.2731 C   0  0  0  0  0  0  0  0  0  0  0  0
    1.9541   -3.2495   -0.1734 C   0  0  0  0  0  0  0  0  0  0  0  0
   -1.6492   -3.5861    0.2179 H   0  0  0  0  0  0  0  0  0  0  0  0
   -0.5486   -5.3313   -1.3919 H   0  0  0  0  0  0  0  0  0  0  0  0
    1.4686   -3.6759   -2.2657 H   0  0  0  0  0  0  0  0  0  0  0  0
    2.0660   -5.0882   -1.3510 H   0  0  0  0  0  0  0  0  0  0  0  0
    2.3350   -3.8161    0.7001 H   0  0  0  0  0  0  0  0  0  0  0  0
    2.7210   -2.5260   -0.5022 H   0  0  0  0  0  0  0  0  0  0  0  0
  2  6  1  0  0  0  0
  2  1  1  0  0  0  0
  3  2  2  0  0  0  0
  4  3  1  0  0  0  0
  4  5  1  0  0  0  0
  5  1  1  0  0  0  0
  5 10  1  0  0  0  0
  7  3  1  0  0  0  0
  8  4  1  0  0  0  0
  9  4  1  0  0  0  0
 11  5  1  0  0  0  0
M  END
