1
q = -2.0, confidence = 0.506

  4  3  0  0  0  0  0  0  0  0999 V2000
    1.2429   -0.8291   -1.6156 S   0  0  0  0  0  0  0  0  0  0  0  0
    3.3162   -1.3775   -0.9494 S   0  0  0  0  0  0  0  0  0  0  0  0
    3.4405   -0.1708    0.7236 S   0  0  0  0  0  0  0  0  0  0  0  0
    1.5944   -0.5920    1.6791 S   0  0  0  0  0  0  0  0  0  0  0  0
  1  2  1  0  0  0  0
  2  3  1  0  0  0  0
  3  4  1  0  0  0  0
M  END
