1
q = -1.0, confidence = 0.0

 22 22  0  0  0  0  0  0  0  0999 V2000
   -1.6355   -1.0204   -2.4530 S   0  0  0  0  0  1  0  0  0  0  0  0
   -1.2962   -3.0735   -0.3528 S   0  0  0  0  0  0  0  0  0  0  0  0
   -4.1250   -2.0224    1.1034 S   0  0  0  0  0  0  0  0  0  0  0  0
   -4.3864    0.0426   -1.0574 S   0  0  0  0  0  0  0  0  0  0  0  0
   -3.0716    1.1663    1.0253 O   0  0  0  0  0  0  0  0  0  0  0  0
   -4.5753    2.4249   -0.1345 O   0  0  0  0  0  0  0  0  0  0  0  0
   -2.2955   -1.7351   -0.9649 C   0  0  0  0  0  0  0  0  0  0  0  0
   -1.6477   -3.2303    1.4611 C   0  0  0  0  0  0  0  0  0  0  0  0
   -2.1089   -4.2248    1.6205 H   0  0  0  0  0  0  0  0  0  0  0  0
   -0.6544   -3.2136    1.9608 H   0  0  0  0  0  0  0  0  0  0  0  0
   -2.5388   -2.1340    2.0137 C   0  0  0  0  0  0  0  0  0  0  0  0
   -2.0651   -1.1334    1.9591 H   0  0  0  0  0  0  0  0  0  0  0  0
   -2.7967   -2.3484    3.0712 H   0  0  0  0  0  0  0  0  0  0  0  0
   -3.4767   -1.3277   -0.3912 C   0  0  0  0  0  0  0  0  0  0  0  0
   -3.8907    1.2945    0.1338 C   0  0  0  0  0  0  0  0  0  0  0  0
   -4.2600    3.5638    0.6988 C   0  0  0  0  0  0  0  0  0  0  0  0
   -4.4873    3.3071    1.7556 H   0  0  0  0  0  0  0  0  0  0  0  0
   -3.1681    3.7599    0.6392 H   0  0  0  0  0  0  0  0  0  0  0  0
   -5.0808    4.7369    0.2064 C   0  0  0  0  0  0  0  0  0  0  0  0
   -4.8686    5.6326    0.8233 H   0  0  0  0  0  0  0  0  0  0  0  0
   -6.1649    4.5182    0.2717 H   0  0  0  0  0  0  0  0  0  0  0  0
   -4.8385    4.9750   -0.8481 H   0  0  0  0  0  0  0  0  0  0  0  0
  1  7  1  0  0  0  0
  2  8  1  0  0  0  0
  3 11  1  0  0  0  0
  4 14  1  0  0  0  0
  4 15  1  0  0  0  0
  6 15  1  0  0  0  0
  6 16  1  0  0  0  0
  7 14  2  0  0  0  0
  7  2  1  0  0  0  0
  8  9  1  0  0  0  0
  8 10  1  0  0  0  0
  8 11  1  0  0  0  0
 11 13  1  0  0  0  0
 12 11  1  0  0  0  0
 14  3  1  0  0  0  0
 15  5  2  0  0  0  0
 16 17  1  0  0  0  0
 18 16  1  0  0  0  0
 19 21  1  0  0  0  0
 19 16  1  0  0  0  0
 19 20  1  0  0  0  0
 22 19  1  0  0  0  0
M  END
