2
q = -1.0

 22 22  0  0  0  0  0  0  0  0999 V2000
    4.4636    0.7866    0.0453 S   0  0  0  0  0  0  0  0  0  0  0  0
    1.2532   -2.1667   -0.0824 S   0  0  0  0  0  0  0  0  0  0  0  0
    2.7283    1.5129    0.0240 C   0  0  0  0  0  0  0  0  0  0  0  0
    1.7681    0.4740   -0.0062 N   0  0  0  0  0  0  0  0  0  0  0  0
    2.2317   -0.7354   -0.0271 C   0  0  0  0  0  0  0  0  0  0  0  0
    3.7756   -0.9180    0.0014 C   0  0  0  0  0  0  0  0  0  0  0  0
    4.2964   -1.6159   -1.2909 C   0  0  0  0  0  0  0  0  0  0  0  0
    3.9659   -2.9186   -1.3424 F   0  0  0  0  0  0  0  0  0  0  0  0
    3.7836   -1.0126   -2.3777 F   0  0  0  0  0  0  0  0  0  0  0  0
    5.6425   -1.5338   -1.3587 F   0  0  0  0  0  0  0  0  0  0  0  0
    4.2386   -1.6587    1.2920 C   0  0  0  0  0  0  0  0  0  0  0  0
    3.9064   -2.9618    1.2866 F   0  0  0  0  0  0  0  0  0  0  0  0
    3.6774   -1.0902    2.3738 F   0  0  0  0  0  0  0  0  0  0  0  0
    5.5803   -1.5804    1.4226 F   0  0  0  0  0  0  0  0  0  0  0  0
    2.5986    2.3838   -1.2632 C   0  0  0  0  0  0  0  0  0  0  0  0
    2.6953    1.6113   -2.3541 F   0  0  0  0  0  0  0  0  0  0  0  0
    1.4072    3.0205   -1.3139 F   0  0  0  0  0  0  0  0  0  0  0  0
    3.5676    3.3210   -1.3131 F   0  0  0  0  0  0  0  0  0  0  0  0
    2.5495    2.3531    1.3244 C   0  0  0  0  0  0  0  0  0  0  0  0
    2.6219    1.5604    2.4019 F   0  0  0  0  0  0  0  0  0  0  0  0
    3.5001    3.3036    1.4240 F   0  0  0  0  0  0  0  0  0  0  0  0
    1.3447    2.9736    1.3529 F   0  0  0  0  0  0  0  0  0  0  0  0
  2  5  1  0  0  0  0
  3  1  1  0  0  0  0
  3 19  1  0  0  0  0
  4  3  1  0  0  0  0
  5  4  2  0  0  0  0
  5  6  1  0  0  0  0
  6  1  1  0  0  0  0
  6 11  1  0  0  0  0
  7  6  1  0  0  0  0
  8  7  1  0  0  0  0
  9  7  1  0  0  0  0
 10  7  1  0  0  0  0
 11 14  1  0  0  0  0
 11 13  1  0  0  0  0
 12 11  1  0  0  0  0
 15  3  1  0  0  0  0
 16 15  1  0  0  0  0
 17 15  1  0  0  0  0
 18 15  1  0  0  0  0
 19 22  1  0  0  0  0
 19 21  1  0  0  0  0
 19 20  1  0  0  0  0
M  END
