1
q = 0.0, confidence = 0.99

 20 21  0  0  0  0  0  0  0  0999 V2000
   -1.8240    0.7504   -1.2713 S   0  0  0  0  0  0  0  0  0  0  0  0
   -2.0958    2.4741   -0.6524 C   0  0  0  0  0  0  0  0  0  0  0  0
   -3.3383    0.2150   -0.4780 C   0  0  0  0  0  0  0  0  0  0  0  0
   -2.8869    2.3306    0.6487 C   0  0  0  0  0  0  0  0  0  0  0  0
   -2.6826    2.9867   -1.4417 H   0  0  0  0  0  0  0  0  0  0  0  0
   -1.0944    2.9335   -0.5636 H   0  0  0  0  0  0  0  0  0  0  0  0
   -3.8102    1.1502    0.4642 C   0  0  0  0  0  0  0  0  0  0  0  0
   -3.9826   -1.0049   -0.7550 C   0  0  0  0  0  0  0  0  0  0  0  0
   -3.4272    3.2658    0.8993 H   0  0  0  0  0  0  0  0  0  0  0  0
   -2.1845    2.1108    1.4859 H   0  0  0  0  0  0  0  0  0  0  0  0
   -5.0052    0.8789    1.1430 C   0  0  0  0  0  0  0  0  0  0  0  0
   -5.1854   -1.2403   -0.0596 C   0  0  0  0  0  0  0  0  0  0  0  0
   -3.3821   -2.0034   -1.7023 C   0  0  0  0  0  0  0  0  0  0  0  0
   -5.6910   -0.3164    0.8689 C   0  0  0  0  0  0  0  0  0  0  0  0
   -5.3981    1.5937    1.8818 H   0  0  0  0  0  0  0  0  0  0  0  0
   -5.7320   -2.1765   -0.2519 H   0  0  0  0  0  0  0  0  0  0  0  0
   -4.0814   -2.8318   -1.9228 H   0  0  0  0  0  0  0  0  0  0  0  0
   -2.4638   -2.4274   -1.2407 H   0  0  0  0  0  0  0  0  0  0  0  0
   -3.0822   -1.5281   -2.6595 H   0  0  0  0  0  0  0  0  0  0  0  0
   -6.6349   -0.5347    1.3908 H   0  0  0  0  0  0  0  0  0  0  0  0
  1  2  1  0  0  0  0
  1  3  1  0  0  0  0
  2  6  1  0  0  0  0
  2  4  1  0  0  0  0
  3  7  1  0  0  0  0
  4  9  1  0  0  0  0
  4 10  1  0  0  0  0
  5  2  1  0  0  0  0
  7  4  1  0  0  0  0
  7 11  2  0  0  0  0
  8  3  2  0  0  0  0
  8 12  1  0  0  0  0
 11 15  1  0  0  0  0
 12 14  2  0  0  0  0
 13 18  1  0  0  0  0
 13  8  1  0  0  0  0
 14 11  1  0  0  0  0
 14 20  1  0  0  0  0
 16 12  1  0  0  0  0
 17 13  1  0  0  0  0
 19 13  1  0  0  0  0
M  END
