1
q = 0.0, confidence = 0.99

 20 21  0  0  0  0  0  0  0  0999 V2000
   -1.8675    0.4433   -1.3472 S   0  0  0  0  0  0  0  0  0  0  0  0
   -2.6187    2.0832   -0.9257 C   0  0  0  0  0  0  0  0  0  0  0  0
   -4.1146    1.8429   -0.6693 C   0  0  0  0  0  0  0  0  0  0  0  0
   -4.2880    0.4108   -0.2225 C   0  0  0  0  0  0  0  0  0  0  0  0
   -5.4380   -0.1325    0.3908 C   0  0  0  0  0  0  0  0  0  0  0  0
   -6.6213    0.7444    0.7073 C   0  0  0  0  0  0  0  0  0  0  0  0
   -5.4375   -1.5097    0.6917 C   0  0  0  0  0  0  0  0  0  0  0  0
   -4.3384   -2.3304    0.3876 C   0  0  0  0  0  0  0  0  0  0  0  0
   -3.1956   -1.8006   -0.2282 C   0  0  0  0  0  0  0  0  0  0  0  0
   -3.1980   -0.4296   -0.5142 C   0  0  0  0  0  0  0  0  0  0  0  0
   -2.0776    2.4439   -0.0263 H   0  0  0  0  0  0  0  0  0  0  0  0
   -2.4103    2.7595   -1.7753 H   0  0  0  0  0  0  0  0  0  0  0  0
   -4.4934    2.5622    0.0858 H   0  0  0  0  0  0  0  0  0  0  0  0
   -4.7111    2.0167   -1.5935 H   0  0  0  0  0  0  0  0  0  0  0  0
   -7.0259    1.2283   -0.2068 H   0  0  0  0  0  0  0  0  0  0  0  0
   -7.4403    0.1663    1.1758 H   0  0  0  0  0  0  0  0  0  0  0  0
   -6.3441    1.5649    1.4030 H   0  0  0  0  0  0  0  0  0  0  0  0
   -6.3235   -1.9465    1.1786 H   0  0  0  0  0  0  0  0  0  0  0  0
   -4.3702   -3.4010    0.6397 H   0  0  0  0  0  0  0  0  0  0  0  0
   -2.3136   -2.4135   -0.4674 H   0  0  0  0  0  0  0  0  0  0  0  0
  1  2  1  0  0  0  0
  1 10  1  0  0  0  0
  2  3  1  0  0  0  0
  2 11  1  0  0  0  0
  3  4  1  0  0  0  0
  3 13  1  0  0  0  0
  4  5  1  0  0  0  0
  5  7  2  0  0  0  0
  5  6  1  0  0  0  0
  6 16  1  0  0  0  0
  6 17  1  0  0  0  0
  7 18  1  0  0  0  0
  8 19  1  0  0  0  0
  8  7  1  0  0  0  0
  9  8  2  0  0  0  0
 10  9  1  0  0  0  0
 10  4  2  0  0  0  0
 12  2  1  0  0  0  0
 14  3  1  0  0  0  0
 15  6  1  0  0  0  0
 20  9  1  0  0  0  0
M  END
