1
q = -1.0

 39 41  0  0  1  0  0  0  0  0999 V2000
   -0.4737   -0.6766   -0.6124 S   0  0  0  0  0  1  0  0  0  0  0  0
   -1.2504    2.3634   -0.0533 S   0  0  0  0  0  1  0  0  0  0  0  0
    2.3855   -0.0097   -0.0245 P   0  0  0  0  0  4  0  0  0  0  0  0
    0.7459    0.5688   -0.3876 C   0  0  2  0  0  3  0  0  0  0  0  0
    0.4022    1.8874   -0.1504 C   0  0  0  0  0  3  0  0  0  0  0  0
    2.4389   -0.6358    1.6831 C   0  0  0  0  0  0  0  0  0  0  0  0
    1.3919   -0.3014    2.5652 C   0  0  0  0  0  0  0  0  0  0  0  0
    1.4307   -0.7702    3.8865 C   0  0  0  0  0  0  0  0  0  0  0  0
    2.5049   -1.5616    4.3240 C   0  0  0  0  0  0  0  0  0  0  0  0
    3.5441   -1.8987    3.4400 C   0  0  0  0  0  0  0  0  0  0  0  0
    3.5123   -1.4435    2.1144 C   0  0  0  0  0  0  0  0  0  0  0  0
    3.5702    1.3564   -0.2106 C   0  0  0  0  0  0  0  0  0  0  0  0
    4.5157    1.6483    0.7917 C   0  0  0  0  0  0  0  0  0  0  0  0
    5.4183    2.7064    0.6068 C   0  0  0  0  0  0  0  0  0  0  0  0
    5.3799    3.4701   -0.5702 C   0  0  0  0  0  0  0  0  0  0  0  0
    4.4334    3.1821   -1.5677 C   0  0  0  0  0  0  0  0  0  0  0  0
    3.5255    2.1288   -1.3933 C   0  0  0  0  0  0  0  0  0  0  0  0
    2.9039   -1.3886   -1.0940 C   0  0  0  0  0  0  0  0  0  0  0  0
    3.8869   -1.2182   -2.0891 C   0  0  0  0  0  0  0  0  0  0  0  0
    4.2320   -2.2976   -2.9158 C   0  0  0  0  0  0  0  0  0  0  0  0
    3.6000   -3.5402   -2.7537 C   0  0  0  0  0  0  0  0  0  0  0  0
    2.6253   -3.7109   -1.7570 C   0  0  0  0  0  0  0  0  0  0  0  0
    2.2760   -2.6420   -0.9213 C   0  0  0  0  0  0  0  0  0  0  0  0
    1.1596    2.6709    0.0167 H   0  0  0  0  0  0  0  0  0  0  0  0
    0.5424    0.3025    2.2102 H   0  0  0  0  0  0  0  0  0  0  0  0
    0.6082   -0.5219    4.5733 H   0  0  0  0  0  0  0  0  0  0  0  0
    2.5279   -1.9296    5.3608 H   0  0  0  0  0  0  0  0  0  0  0  0
    4.3788   -2.5287    3.7819 H   0  0  0  0  0  0  0  0  0  0  0  0
    4.3122   -1.7255    1.4123 H   0  0  0  0  0  0  0  0  0  0  0  0
    4.5387    1.0569    1.7188 H   0  0  0  0  0  0  0  0  0  0  0  0
    6.1526    2.9382    1.3926 H   0  0  0  0  0  0  0  0  0  0  0  0
    6.0878    4.3009   -0.7092 H   0  0  0  0  0  0  0  0  0  0  0  0
    4.3959    3.7863   -2.4863 H   0  0  0  0  0  0  0  0  0  0  0  0
    2.7697    1.9141   -2.1640 H   0  0  0  0  0  0  0  0  0  0  0  0
    4.3882   -0.2477   -2.2159 H   0  0  0  0  0  0  0  0  0  0  0  0
    5.0016   -2.1646   -3.6906 H   0  0  0  0  0  0  0  0  0  0  0  0
    3.8717   -4.3837   -3.4061 H   0  0  0  0  0  0  0  0  0  0  0  0
    2.1305   -4.6848   -1.6271 H   0  0  0  0  0  0  0  0  0  0  0  0
    1.5122   -2.7751   -0.1412 H   0  0  0  0  0  0  0  0  0  0  0  0
  3  6  1  0  0  0  0
  4  1  1  1  0  0  0
  4  5  1  0  0  0  0
  4  3  1  0  0  0  0
  5  2  1  0  0  0  0
  5 24  1  0  0  0  0
  6 11  2  0  0  0  0
  6  7  1  0  0  0  0
  7  8  2  0  0  0  0
  8  9  1  0  0  0  0
  8 26  1  0  0  0  0
  9 27  1  0  0  0  0
 10 28  1  0  0  0  0
 10  9  2  0  0  0  0
 11 10  1  0  0  0  0
 12  3  1  0  0  0  0
 12 13  1  0  0  0  0
 13 30  1  0  0  0  0
 14 13  2  0  0  0  0
 14 31  1  0  0  0  0
 15 14  1  0  0  0  0
 16 17  1  0  0  0  0
 16 15  2  0  0  0  0
 17 12  2  0  0  0  0
 18 23  1  0  0  0  0
 18  3  1  0  0  0  0
 19 18  2  0  0  0  0
 20 21  2  0  0  0  0
 20 19  1  0  0  0  0
 21 22  1  0  0  0  0
 22 38  1  0  0  0  0
 22 23  2  0  0  0  0
 23 39  1  0  0  0  0
 25  7  1  0  0  0  0
 29 11  1  0  0  0  0
 32 15  1  0  0  0  0
 33 16  1  0  0  0  0
 34 17  1  0  0  0  0
 35 19  1  0  0  0  0
 36 20  1  0  0  0  0
 37 21  1  0  0  0  0
M  END
