1
q = 0.0, confidence = 0.972

 40 41  0  0  0  0  0  0  0  0999 V2000
   -2.3526   -1.9816    0.1600 S   0  0  0  0  0  1  0  0  0  0  0  0
   -2.1123    0.3368   -1.1574 N   0  0  0  0  0  0  0  0  0  0  0  0
   -4.1924   -0.0580   -0.1985 N   0  0  0  0  0  0  0  0  0  0  0  0
   -2.9193   -0.4691   -0.4258 C   0  0  0  0  0  3  0  0  0  0  0  0
   -2.3096    1.7581   -1.4257 C   0  0  0  0  0  0  0  0  0  0  0  0
   -3.3381    1.9039   -1.8397 H   0  0  0  0  0  0  0  0  0  0  0  0
   -2.1573    2.6252   -0.1588 C   0  0  0  0  0  0  0  0  0  0  0  0
   -1.1534    2.4118    0.2695 H   0  0  0  0  0  0  0  0  0  0  0  0
   -2.9018    2.3123    0.6024 H   0  0  0  0  0  0  0  0  0  0  0  0
   -2.2907    4.1186   -0.4791 C   0  0  0  0  0  0  0  0  0  0  0  0
   -3.3259    4.3327   -0.8314 H   0  0  0  0  0  0  0  0  0  0  0  0
   -2.1495    4.7178    0.4445 H   0  0  0  0  0  0  0  0  0  0  0  0
   -1.2912    4.5491   -1.5604 C   0  0  0  0  0  0  0  0  0  0  0  0
   -0.2582    4.4407   -1.1620 H   0  0  0  0  0  0  0  0  0  0  0  0
   -1.4220    5.6238   -1.8054 H   0  0  0  0  0  0  0  0  0  0  0  0
   -1.4361    3.6912   -2.8240 C   0  0  0  0  0  0  0  0  0  0  0  0
   -0.6775    3.9792   -3.5810 H   0  0  0  0  0  0  0  0  0  0  0  0
   -2.4283    3.8895   -3.2891 H   0  0  0  0  0  0  0  0  0  0  0  0
   -1.3143    2.1959   -2.5104 C   0  0  0  0  0  0  0  0  0  0  0  0
   -1.4668    1.5804   -3.4209 H   0  0  0  0  0  0  0  0  0  0  0  0
   -0.2912    1.9672   -2.1347 H   0  0  0  0  0  0  0  0  0  0  0  0
   -5.2043   -0.8207    0.5236 C   0  0  0  0  0  0  0  0  0  0  0  0
   -4.6531   -1.3942    1.3009 H   0  0  0  0  0  0  0  0  0  0  0  0
   -5.9338   -1.8303   -0.3802 C   0  0  0  0  0  0  0  0  0  0  0  0
   -5.1836   -2.5210   -0.8163 H   0  0  0  0  0  0  0  0  0  0  0  0
   -6.4054   -1.2766   -1.2238 H   0  0  0  0  0  0  0  0  0  0  0  0
   -7.0049   -2.5985    0.4033 C   0  0  0  0  0  0  0  0  0  0  0  0
   -7.5382   -3.3018   -0.2692 H   0  0  0  0  0  0  0  0  0  0  0  0
   -6.5068   -3.2255    1.1761 H   0  0  0  0  0  0  0  0  0  0  0  0
   -7.9951   -1.6449    1.0846 C   0  0  0  0  0  0  0  0  0  0  0  0
   -8.7403   -2.2157    1.6770 H   0  0  0  0  0  0  0  0  0  0  0  0
   -8.5700   -1.0957    0.3048 H   0  0  0  0  0  0  0  0  0  0  0  0
   -7.2680   -0.6329    1.9803 C   0  0  0  0  0  0  0  0  0  0  0  0
   -6.7871   -1.1726    2.8262 H   0  0  0  0  0  0  0  0  0  0  0  0
   -7.9889    0.0782    2.4345 H   0  0  0  0  0  0  0  0  0  0  0  0
   -6.1896    0.1365    1.2065 C   0  0  0  0  0  0  0  0  0  0  0  0
   -6.6778    0.7681    0.4271 H   0  0  0  0  0  0  0  0  0  0  0  0
   -5.6350    0.8256    1.8776 H   0  0  0  0  0  0  0  0  0  0  0  0
   -1.1342   -0.0013   -1.1787 H   0  0  0  0  0  0  0  0  0  0  0  0
   -4.5162    0.7749   -0.6967 H   0  0  0  0  0  0  0  0  0  0  0  0
  2  4  1  0  0  0  0
  3 22  1  0  0  0  0
  4  3  1  0  0  0  0
  4  1  1  0  0  0  0
  5  2  1  0  0  0  0
  5  7  1  0  0  0  0
  6  5  1  0  0  0  0
  7  8  1  0  0  0  0
  7  9  1  0  0  0  0
 10  7  1  0  0  0  0
 10 12  1  0  0  0  0
 11 10  1  0  0  0  0
 13 14  1  0  0  0  0
 13 10  1  0  0  0  0
 15 13  1  0  0  0  0
 16 19  1  0  0  0  0
 16 13  1  0  0  0  0
 17 16  1  0  0  0  0
 18 16  1  0  0  0  0
 19 21  1  0  0  0  0
 19  5  1  0  0  0  0
 20 19  1  0  0  0  0
 22 36  1  0  0  0  0
 22 23  1  0  0  0  0
 24 27  1  0  0  0  0
 24 22  1  0  0  0  0
 25 24  1  0  0  0  0
 26 24  1  0  0  0  0
 27 30  1  0  0  0  0
 27 29  1  0  0  0  0
 28 27  1  0  0  0  0
 30 31  1  0  0  0  0
 30 33  1  0  0  0  0
 32 30  1  0  0  0  0
 33 35  1  0  0  0  0
 33 34  1  0  0  0  0
 36 38  1  0  0  0  0
 36 33  1  0  0  0  0
 37 36  1  0  0  0  0
 39  2  1  0  0  0  0
 40  3  1  0  0  0  0
M  END
