1
q = 0.0, confidence = 1.0

 29 30  0  0  1  0  0  0  0  0999 V2000
   -1.9030   -1.4117   -0.1413 S   0  0  0  0  0  1  0  0  0  0  0  0
   -4.3980   -3.0088   -0.2946 O   0  0  0  0  0  0  0  0  0  0  0  0
   -4.5284   -0.7066   -0.0452 N   0  0  0  0  0  0  0  0  0  0  0  0
   -2.9888    1.0263   -0.0879 N   0  0  0  0  0  0  0  0  0  0  0  0
   -5.2042    1.8552   -0.0004 N   0  0  0  0  0  0  0  0  0  0  0  0
   -7.3198   -0.9898    0.6233 C   0  0  0  0  0  0  0  0  0  0  0  0
   -8.7055   -1.1291    0.7874 C   0  0  0  0  0  0  0  0  0  0  0  0
   -9.3426   -2.3251    0.4206 C   0  0  0  0  0  0  0  0  0  0  0  0
   -8.5876   -3.3894   -0.1012 C   0  0  0  0  0  0  0  0  0  0  0  0
   -7.2035   -3.2558   -0.2577 C   0  0  0  0  0  0  0  0  0  0  0  0
   -6.5577   -2.0515    0.0909 C   0  0  0  0  0  0  0  0  0  0  0  0
   -5.0651   -2.0056   -0.0992 C   0  0  0  0  0  0  0  0  0  0  0  0
   -3.2133   -0.3283   -0.0927 C   0  0  1  0  0  3  0  0  0  0  0  0
   -3.8782    2.0965   -0.0489 C   0  0  0  0  0  0  0  0  0  0  0  0
   -3.3485    3.4128   -0.0651 C   0  0  0  0  0  0  0  0  0  0  0  0
   -4.2441    4.4788   -0.0320 C   0  0  0  0  0  0  0  0  0  0  0  0
   -5.6305    4.2285    0.0145 C   0  0  0  0  0  0  0  0  0  0  0  0
   -6.0541    2.8973    0.0284 C   0  0  0  0  0  0  0  0  0  0  0  0
   -6.8356   -0.0520    0.9358 H   0  0  0  0  0  0  0  0  0  0  0  0
   -9.2912   -0.2998    1.2124 H   0  0  0  0  0  0  0  0  0  0  0  0
  -10.4308   -2.4306    0.5480 H   0  0  0  0  0  0  0  0  0  0  0  0
   -9.0834   -4.3303   -0.3842 H   0  0  0  0  0  0  0  0  0  0  0  0
   -6.5840   -4.0753   -0.6510 H   0  0  0  0  0  0  0  0  0  0  0  0
   -5.1760    0.1243   -0.0254 H   0  0  0  0  0  0  0  0  0  0  0  0
   -1.9762    1.2874   -0.1177 H   0  0  0  0  0  0  0  0  0  0  0  0
   -2.2572    3.5516   -0.1030 H   0  0  0  0  0  0  0  0  0  0  0  0
   -3.8640    5.5116   -0.0437 H   0  0  0  0  0  0  0  0  0  0  0  0
   -6.3628    5.0475    0.0389 H   0  0  0  0  0  0  0  0  0  0  0  0
   -7.1268    2.6414    0.0629 H   0  0  0  0  0  0  0  0  0  0  0  0
  2 12  2  0  0  0  0
  3 24  1  0  0  0  0
  4 14  1  0  0  0  0
  5 18  1  0  0  0  0
  6  7  1  0  0  0  0
  6 19  1  0  0  0  0
  7 20  1  0  0  0  0
  8 21  1  0  0  0  0
  8  7  2  0  0  0  0
  9  8  1  0  0  0  0
 10  9  2  0  0  0  0
 10 11  1  0  0  0  0
 11  6  2  0  0  0  0
 12  3  1  0  0  0  0
 12 11  1  0  0  0  0
 13  1  1  1  0  0  0
 13  4  1  0  0  0  0
 13  3  1  0  0  0  0
 14  5  2  0  0  0  0
 15 14  1  0  0  0  0
 15 16  2  0  0  0  0
 16 17  1  0  0  0  0
 17 18  2  0  0  0  0
 17 28  1  0  0  0  0
 18 29  1  0  0  0  0
 22  9  1  0  0  0  0
 23 10  1  0  0  0  0
 25  4  1  0  0  0  0
 26 15  1  0  0  0  0
 27 16  1  0  0  0  0
M  END
