2
q = -1.0, confidence = 0.0

 36 37  0  0  0  0  0  0  0  0999 V2000
    4.8229   -1.1630    0.4198 S   0  0  0  0  0  0  0  0  0  0  0  0
    2.3896   -2.5191   -0.4152 S   0  0  0  0  0  1  0  0  0  0  0  0
    2.4698   -0.2286    1.2052 N   0  0  0  0  0  0  0  0  0  0  0  0
    1.1266   -0.2696    1.3035 N   0  0  0  0  0  0  0  0  0  0  0  0
    7.2948    1.5846    0.4819 C   0  0  0  0  0  0  0  0  0  0  0  0
    8.6860    1.7660    0.4547 C   0  0  0  0  0  0  0  0  0  0  0  0
    9.5181    0.9537    1.2404 C   0  0  0  0  0  0  0  0  0  0  0  0
    8.9516   -0.0392    2.0569 C   0  0  0  0  0  0  0  0  0  0  0  0
    7.5616   -0.2175    2.0865 C   0  0  0  0  0  0  0  0  0  0  0  0
    6.7164    0.5942    1.3009 C   0  0  0  0  0  0  0  0  0  0  0  0
   -2.9880    2.0563    2.6349 C   0  0  0  0  0  0  0  0  0  0  0  0
   -3.8914    0.9979    2.3547 C   0  0  0  0  0  0  0  0  0  0  0  0
   -5.2693    1.1778    2.4996 C   0  0  0  0  0  0  0  0  0  0  0  0
   -5.7851    2.4139    2.9323 C   0  0  0  0  0  0  0  0  0  0  0  0
   -4.9063    3.4713    3.2191 C   0  0  0  0  0  0  0  0  0  0  0  0
   -3.5251    3.2935    3.0724 C   0  0  0  0  0  0  0  0  0  0  0  0
    5.2244    0.3967    1.3249 C   0  0  0  0  0  0  0  0  0  0  0  0
   -1.5450    1.9202    2.4796 C   0  0  0  0  0  0  0  0  0  0  0  0
    3.0614   -1.1791    0.5162 C   0  0  0  0  0  0  0  0  0  0  0  0
   -0.8815    0.8234    2.0000 C   0  0  0  0  0  0  0  0  0  0  0  0
    0.5409    0.7716    1.8476 C   0  0  0  0  0  0  0  0  0  0  0  0
    6.6425    2.2186   -0.1380 H   0  0  0  0  0  0  0  0  0  0  0  0
    9.1223    2.5481   -0.1855 H   0  0  0  0  0  0  0  0  0  0  0  0
   10.6095    1.0945    1.2185 H   0  0  0  0  0  0  0  0  0  0  0  0
    9.5983   -0.6786    2.6768 H   0  0  0  0  0  0  0  0  0  0  0  0
    7.1193   -0.9993    2.7241 H   0  0  0  0  0  0  0  0  0  0  0  0
   -3.5157    0.0201    2.0199 H   0  0  0  0  0  0  0  0  0  0  0  0
   -5.9476    0.3453    2.2598 H   0  0  0  0  0  0  0  0  0  0  0  0
   -6.8717    2.5489    3.0453 H   0  0  0  0  0  0  0  0  0  0  0  0
   -5.3005    4.4408    3.5597 H   0  0  0  0  0  0  0  0  0  0  0  0
   -2.8374    4.1247    3.2947 H   0  0  0  0  0  0  0  0  0  0  0  0
    4.6826    1.2203    0.8225 H   0  0  0  0  0  0  0  0  0  0  0  0
    4.8220    0.2957    2.3513 H   0  0  0  0  0  0  0  0  0  0  0  0
   -0.9462    2.8032    2.7667 H   0  0  0  0  0  0  0  0  0  0  0  0
   -1.4418   -0.0750    1.6926 H   0  0  0  0  0  0  0  0  0  0  0  0
    1.1688    1.6261    2.1747 H   0  0  0  0  0  0  0  0  0  0  0  0
  1 19  1  0  0  0  0
  1 17  1  0  0  0  0
  2 19  1  0  0  0  0
  3  4  1  0  0  0  0
  4 21  2  0  0  0  0
  5 10  1  0  0  0  0
  6  5  2  0  0  0  0
  6  7  1  0  0  0  0
  7  8  2  0  0  0  0
  8  9  1  0  0  0  0
  8 25  1  0  0  0  0
  9 26  1  0  0  0  0
 10 17  1  0  0  0  0
 10  9  2  0  0  0  0
 11 16  1  0  0  0  0
 12 13  1  0  0  0  0
 12 11  2  0  0  0  0
 13 14  2  0  0  0  0
 14 29  1  0  0  0  0
 14 15  1  0  0  0  0
 15 30  1  0  0  0  0
 16 15  2  0  0  0  0
 16 31  1  0  0  0  0
 17 33  1  0  0  0  0
 18 11  1  0  0  0  0
 18 34  1  0  0  0  0
 19  3  2  0  0  0  0
 20 18  2  0  0  0  0
 21 20  1  0  0  0  0
 21 36  1  0  0  0  0
 22  5  1  0  0  0  0
 23  6  1  0  0  0  0
 24  7  1  0  0  0  0
 27 12  1  0  0  0  0
 28 13  1  0  0  0  0
 32 17  1  0  0  0  0
 35 20  1  0  0  0  0
M  END
