1
q = 0.0, confidence = 0.998

 14 14  0  0  1  0  0  0  0  0999 V2000
   -1.8477   -1.8381   -0.0019 S   0  0  0  0  0  1  0  0  0  0  0  0
   -4.5586   -1.4843    0.0013 N   0  0  0  0  0  0  0  0  0  0  0  0
   -4.7913   -2.4806    0.0015 H   0  0  0  0  0  0  0  0  0  0  0  0
   -5.5490   -0.5496    0.0025 N   0  0  0  0  0  0  0  0  0  0  0  0
   -3.5411    0.3964    0.0003 N   0  0  0  0  0  0  0  0  0  0  0  0
   -2.5355    1.3468   -0.0006 N   0  0  0  0  0  0  0  0  0  0  0  0
   -2.5988    1.9394    0.8390 H   0  0  0  0  0  0  0  0  0  0  0  0
   -2.5995    1.9385   -0.8408 H   0  0  0  0  0  0  0  0  0  0  0  0
   -3.3019   -0.9734   -0.0001 C   0  0  2  0  0  3  0  0  0  0  0  0
   -4.9267    0.6043    0.0018 C   0  0  0  0  0  0  0  0  0  0  0  0
   -5.5616    1.9454    0.0026 C   0  0  0  0  0  0  0  0  0  0  0  0
   -6.6586    1.8157    0.0039 H   0  0  0  0  0  0  0  0  0  0  0  0
   -5.2795    2.5323   -0.8959 H   0  0  0  0  0  0  0  0  0  0  0  0
   -5.2773    2.5324    0.9003 H   0  0  0  0  0  0  0  0  0  0  0  0
  2  3  1  0  0  0  0
  2  4  1  0  0  0  0
  5 10  1  0  0  0  0
  6  5  1  0  0  0  0
  6  7  1  0  0  0  0
  8  6  1  0  0  0  0
  9  1  1  6  0  0  0
  9  5  1  0  0  0  0
  9  2  1  0  0  0  0
 10  4  2  0  0  0  0
 10 11  1  0  0  0  0
 11 12  1  0  0  0  0
 11 14  1  0  0  0  0
 13 11  1  0  0  0  0
M  END
