1
q = -1.0

 26 25  0  0  1  0  0  0  0  0999 V2000
   -0.9770   -2.0034   -0.4606 S   0  0  0  0  0  1  0  0  0  0  0  0
    0.4672    0.2158   -0.6265 O   0  0  0  0  0  0  0  0  0  0  0  0
    3.5194   -2.5905    0.9957 O   0  0  0  0  0  0  0  0  0  0  0  0
    2.8046   -2.5369    1.6701 H   0  0  0  0  0  0  0  0  0  0  0  0
    4.1049   -1.2088   -2.1713 O   0  0  0  0  0  0  0  0  0  0  0  0
   -0.2171   -0.0441    1.9669 O   0  0  0  0  0  0  0  0  0  0  0  0
    1.2001   -1.7808    2.2388 O   0  0  0  0  0  0  0  0  0  0  0  0
    3.2742    2.5165   -1.0676 O   0  0  0  0  0  0  0  0  0  0  0  0
    3.1812    2.9110   -0.1619 H   0  0  0  0  0  0  0  0  0  0  0  0
    0.5819   -1.0277    1.4978 C   0  0  0  0  0  0  0  0  0  0  0  0
    0.5826   -1.0948   -0.0371 C   0  0  1  0  0  0  0  0  0  0  0  0
    1.7646   -1.8921   -0.6044 C   0  0  0  0  0  0  0  0  0  0  0  0
    1.5631   -2.9768   -0.5006 H   0  0  0  0  0  0  0  0  0  0  0  0
    1.7947   -1.6608   -1.6883 H   0  0  0  0  0  0  0  0  0  0  0  0
    3.1521   -1.6448    0.0221 C   0  0  2  0  0  0  0  0  0  0  0  0
    3.1773   -0.5962    0.4309 H   0  0  0  0  0  0  0  0  0  0  0  0
    4.2498   -1.6093   -1.0334 C   0  0  0  0  0  0  0  0  0  0  0  0
    5.2474   -1.9646   -0.6356 H   0  0  0  0  0  0  0  0  0  0  0  0
    1.4523    1.1403   -0.2946 C   0  0  0  0  0  0  0  0  0  0  0  0
    1.4036    1.5634    0.7259 H   0  0  0  0  0  0  0  0  0  0  0  0
    2.3422    1.5529   -1.2285 C   0  0  0  0  0  0  0  0  0  0  0  0
    2.3645    1.0865   -2.2268 H   0  0  0  0  0  0  0  0  0  0  0  0
   -0.3574    0.0128    3.3940 C   0  0  0  0  0  0  0  0  0  0  0  0
   -0.9813    0.8995    3.6025 H   0  0  0  0  0  0  0  0  0  0  0  0
    0.6330    0.1067    3.8814 H   0  0  0  0  0  0  0  0  0  0  0  0
   -0.8506   -0.9056    3.7707 H   0  0  0  0  0  0  0  0  0  0  0  0
  2 19  1  0  0  0  0
  2 11  1  0  0  0  0
  3  4  1  0  0  0  0
  5 17  2  0  0  0  0
  6 23  1  0  0  0  0
  8  9  1  0  0  0  0
 10  6  1  0  0  0  0
 10  7  2  0  0  0  0
 11  1  1  6  0  0  0
 11 10  1  0  0  0  0
 12 13  1  0  0  0  0
 12 11  1  0  0  0  0
 12 15  1  0  0  0  0
 14 12  1  0  0  0  0
 15 16  1  1  0  0  0
 15  3  1  0  0  0  0
 17 18  1  0  0  0  0
 17 15  1  0  0  0  0
 19 20  1  0  0  0  0
 21  8  1  0  0  0  0
 21 19  2  0  0  0  0
 22 21  1  0  0  0  0
 23 24  1  0  0  0  0
 23 26  1  0  0  0  0
 23 25  1  0  0  0  0
M  END
