1
q = -1.0

 18 18  0  0  0  0  0  0  0  0999 V2000
    0.1415   -1.8814   -0.5563 S   0  0  0  0  0  1  0  0  0  0  0  0
    5.0336    0.2994    1.5386 O   0  0  0  0  0  0  0  0  0  0  0  0
    5.8673    0.5924   -0.5554 O   0  0  0  0  0  0  0  0  0  0  0  0
    2.3105   -1.0335   -2.0148 N   0  0  0  0  0  0  0  0  0  0  0  0
    2.5736   -0.7719    0.2108 N   0  0  0  0  0  0  0  0  0  0  0  0
    1.7417   -1.1766   -0.8112 C   0  0  0  0  0  0  0  0  0  0  0  0
    3.5346   -0.5015   -1.7718 C   0  0  0  0  0  0  0  0  0  0  0  0
    4.2464   -0.2655   -2.5724 H   0  0  0  0  0  0  0  0  0  0  0  0
    3.7379   -0.3169   -0.3962 C   0  0  0  0  0  0  0  0  0  0  0  0
    2.2544   -0.7798    1.6309 C   0  0  0  0  0  0  0  0  0  0  0  0
    3.1944   -0.7863    2.2069 H   0  0  0  0  0  0  0  0  0  0  0  0
    1.6370   -1.6692    1.8535 H   0  0  0  0  0  0  0  0  0  0  0  0
    1.6723    0.1259    1.8966 H   0  0  0  0  0  0  0  0  0  0  0  0
    4.9013    0.2067    0.3239 C   0  0  0  0  0  0  0  0  0  0  0  0
    7.0589    1.1050    0.0436 C   0  0  0  0  0  0  0  0  0  0  0  0
    7.7326    1.3670   -0.7917 H   0  0  0  0  0  0  0  0  0  0  0  0
    7.5345    0.3468    0.6990 H   0  0  0  0  0  0  0  0  0  0  0  0
    6.8422    2.0015    0.6599 H   0  0  0  0  0  0  0  0  0  0  0  0
  3 15  1  0  0  0  0
  3 14  1  0  0  0  0
  4  7  1  0  0  0  0
  4  6  2  0  0  0  0
  5 10  1  0  0  0  0
  6  1  1  0  0  0  0
  6  5  1  0  0  0  0
  7  9  2  0  0  0  0
  8  7  1  0  0  0  0
  9  5  1  0  0  0  0
  9 14  1  0  0  0  0
 10 12  1  0  0  0  0
 10 13  1  0  0  0  0
 10 11  1  0  0  0  0
 14  2  2  0  0  0  0
 15 18  1  0  0  0  0
 15 17  1  0  0  0  0
 16 15  1  0  0  0  0
M  END
