1
q = -1.0, confidence = 0.0

 15 14  0  0  0  0  0  0  0  0999 V2000
    0.7100   -0.0750   -1.7026 S   0  0  0  0  0  1  0  0  0  0  0  0
    3.3178   -0.2761   -0.8294 N   0  0  0  0  0  0  0  0  0  0  0  0
    2.1620   -0.8108   -0.9810 C   0  0  0  0  0  0  0  0  0  0  0  0
    1.9556   -2.1027   -0.5904 O   0  0  0  0  0  0  0  0  0  0  0  0
    3.0966   -2.8036   -0.1029 C   0  0  0  0  0  0  0  0  0  0  0  0
    3.8964   -2.8428   -0.8707 H   0  0  0  0  0  0  0  0  0  0  0  0
    2.7394   -3.8213    0.1431 H   0  0  0  0  0  0  0  0  0  0  0  0
    3.5243   -2.3065    0.7937 H   0  0  0  0  0  0  0  0  0  0  0  0
    3.5567    1.0973   -1.2136 C   0  0  0  0  0  0  0  0  0  0  0  0
    2.6363    1.7189   -1.0817 H   0  0  0  0  0  0  0  0  0  0  0  0
    4.3405    1.5101   -0.5390 H   0  0  0  0  0  0  0  0  0  0  0  0
    4.0278    1.2158   -2.6661 C   0  0  0  0  0  0  0  0  0  0  0  0
    4.9174    0.5780   -2.8431 H   0  0  0  0  0  0  0  0  0  0  0  0
    4.2920    2.2637   -2.9165 H   0  0  0  0  0  0  0  0  0  0  0  0
    3.2254    0.8860   -3.3568 H   0  0  0  0  0  0  0  0  0  0  0  0
  1  3  1  0  0  0  0
  3  2  2  0  0  0  0
  3  4  1  0  0  0  0
  4  5  1  0  0  0  0
  5  7  1  0  0  0  0
  5  8  1  0  0  0  0
  6  5  1  0  0  0  0
  9 10  1  0  0  0  0
  9  2  1  0  0  0  0
  9 11  1  0  0  0  0
 12  9  1  0  0  0  0
 13 12  1  0  0  0  0
 14 12  1  0  0  0  0
 15 12  1  0  0  0  0
M  END
