1
q = -1.0

 45 47  0  0  0  0  0  0  0  0999 V2000
   -1.0749    0.7569   -0.7629 S   0  0  0  0  0  1  0  0  0  0  0  0
   -0.0085   -0.7078   -1.1193 C   0  0  0  0  0  0  0  0  0  0  0  0
    0.4552   -1.4762    0.1164 C   0  0  0  0  0  0  0  0  0  0  0  0
    1.0852   -0.5984    1.2031 C   0  0  0  0  0  0  0  0  0  0  0  0
    2.0007    0.3558    0.6857 O   0  0  0  0  0  0  0  0  0  0  0  0
    4.7597    0.1798    1.5851 C   0  0  0  0  0  0  0  0  0  0  0  0
    4.3567    0.7889    2.7948 C   0  0  0  0  0  0  0  0  0  0  0  0
    5.2339    0.8719    3.8870 C   0  0  0  0  0  0  0  0  0  0  0  0
    6.5334    0.3491    3.7857 C   0  0  0  0  0  0  0  0  0  0  0  0
    6.9511   -0.2603    2.5914 C   0  0  0  0  0  0  0  0  0  0  0  0
    6.0690   -0.3467    1.5030 C   0  0  0  0  0  0  0  0  0  0  0  0
    3.7810   -1.5033   -0.7995 C   0  0  0  0  0  0  0  0  0  0  0  0
    3.6319   -2.7991   -2.8751 C   0  0  0  0  0  0  0  0  0  0  0  0
    3.5723    0.1340    0.1217 Si  0  0  0  0  0  0  0  0  0  0  0  0
    3.5835   -1.5710   -2.1975 C   0  0  0  0  0  0  0  0  0  0  0  0
    3.8838   -3.9836   -2.1638 C   0  0  0  0  0  0  0  0  0  0  0  0
    4.0949   -3.9351   -0.7759 C   0  0  0  0  0  0  0  0  0  0  0  0
    4.0464   -2.7048   -0.1024 C   0  0  0  0  0  0  0  0  0  0  0  0
    3.8074    1.5747   -1.0634 C   0  0  0  0  0  0  0  0  0  0  0  0
    2.7104    2.3888   -1.4248 C   0  0  0  0  0  0  0  0  0  0  0  0
    2.8720    3.4403   -2.3412 C   0  0  0  0  0  0  0  0  0  0  0  0
    4.1312    3.6941   -2.9076 C   0  0  0  0  0  0  0  0  0  0  0  0
    5.2320    2.8955   -2.5543 C   0  0  0  0  0  0  0  0  0  0  0  0
    5.0690    1.8452   -1.6387 C   0  0  0  0  0  0  0  0  0  0  0  0
   -0.5369   -1.3787   -1.8266 H   0  0  0  0  0  0  0  0  0  0  0  0
    0.8564   -0.2698   -1.6581 H   0  0  0  0  0  0  0  0  0  0  0  0
   -0.4066   -2.0145    0.5656 H   0  0  0  0  0  0  0  0  0  0  0  0
    1.1753   -2.2522   -0.2214 H   0  0  0  0  0  0  0  0  0  0  0  0
    0.2866   -0.0210    1.7157 H   0  0  0  0  0  0  0  0  0  0  0  0
    1.5679   -1.2467    1.9716 H   0  0  0  0  0  0  0  0  0  0  0  0
    3.3379    1.2012    2.8747 H   0  0  0  0  0  0  0  0  0  0  0  0
    4.9028    1.3474    4.8234 H   0  0  0  0  0  0  0  0  0  0  0  0
    7.2228    0.4145    4.6417 H   0  0  0  0  0  0  0  0  0  0  0  0
    7.9680   -0.6748    2.5103 H   0  0  0  0  0  0  0  0  0  0  0  0
    6.4030   -0.8421    0.5763 H   0  0  0  0  0  0  0  0  0  0  0  0
    3.4742   -2.8333   -3.9643 H   0  0  0  0  0  0  0  0  0  0  0  0
    3.3896   -0.6450   -2.7631 H   0  0  0  0  0  0  0  0  0  0  0  0
    3.9213   -4.9479   -2.6938 H   0  0  0  0  0  0  0  0  0  0  0  0
    4.2996   -4.8613   -0.2169 H   0  0  0  0  0  0  0  0  0  0  0  0
    4.2168   -2.6772    0.9864 H   0  0  0  0  0  0  0  0  0  0  0  0
    1.7238    2.1930   -0.9749 H   0  0  0  0  0  0  0  0  0  0  0  0
    2.0074    4.0654   -2.6134 H   0  0  0  0  0  0  0  0  0  0  0  0
    4.2576    4.5189   -3.6261 H   0  0  0  0  0  0  0  0  0  0  0  0
    6.2218    3.0949   -2.9936 H   0  0  0  0  0  0  0  0  0  0  0  0
    5.9419    1.2287   -1.3662 H   0  0  0  0  0  0  0  0  0  0  0  0
  2  1  1  0  0  0  0
  2  3  1  0  0  0  0
  3 27  1  0  0  0  0
  3  4  1  0  0  0  0
  4 29  1  0  0  0  0
  4 30  1  0  0  0  0
  5  4  1  0  0  0  0
  6  7  1  0  0  0  0
  7 31  1  0  0  0  0
  7  8  2  0  0  0  0
  8 32  1  0  0  0  0
  9  8  1  0  0  0  0
  9 33  1  0  0  0  0
 10  9  2  0  0  0  0
 11  6  2  0  0  0  0
 11 10  1  0  0  0  0
 12 18  1  0  0  0  0
 12 14  1  0  0  0  0
 13 15  1  0  0  0  0
 13 16  2  0  0  0  0
 14  5  1  0  0  0  0
 14  6  1  0  0  0  0
 15 12  2  0  0  0  0
 16 17  1  0  0  0  0
 17 39  1  0  0  0  0
 17 18  2  0  0  0  0
 18 40  1  0  0  0  0
 19 14  1  0  0  0  0
 20 19  1  0  0  0  0
 20 41  1  0  0  0  0
 21 20  2  0  0  0  0
 22 23  2  0  0  0  0
 22 21  1  0  0  0  0
 23 24  1  0  0  0  0
 24 45  1  0  0  0  0
 24 19  2  0  0  0  0
 25  2  1  0  0  0  0
 26  2  1  0  0  0  0
 28  3  1  0  0  0  0
 34 10  1  0  0  0  0
 35 11  1  0  0  0  0
 36 13  1  0  0  0  0
 37 15  1  0  0  0  0
 38 16  1  0  0  0  0
 42 21  1  0  0  0  0
 43 22  1  0  0  0  0
 44 23  1  0  0  0  0
M  END
