1
q = -1.0

 14 14  0  0  0  0  0  0  0  0999 V2000
    0.3467   -1.9048    0.8873 S   0  0  0  0  0  1  0  0  0  0  0  0
    1.7608   -1.7058   -1.3561 N   0  0  0  0  0  0  0  0  0  0  0  0
    2.6270   -2.1048   -2.2910 C   0  0  0  0  0  0  0  0  0  0  0  0
    2.8219   -1.3808   -3.1033 H   0  0  0  0  0  0  0  0  0  0  0  0
    3.2649   -3.3569   -2.2834 C   0  0  0  0  0  0  0  0  0  0  0  0
    3.9732   -3.6379   -3.0755 H   0  0  0  0  0  0  0  0  0  0  0  0
    2.9489   -4.2284   -1.2372 C   0  0  0  0  0  0  0  0  0  0  0  0
    3.4006   -5.2284   -1.1753 H   0  0  0  0  0  0  0  0  0  0  0  0
    2.0403   -3.8399   -0.2339 C   0  0  0  0  0  0  0  0  0  0  0  0
    1.4588   -2.5259   -0.3140 C   0  0  0  0  0  0  0  0  0  0  0  0
    1.7073   -4.7704    0.8711 C   0  0  0  0  0  0  0  0  0  0  0  0
    2.3884   -5.9532    0.7877 O   0  0  0  0  0  0  0  0  0  0  0  0
    2.0758   -6.4690    1.5609 H   0  0  0  0  0  0  0  0  0  0  0  0
    0.9200   -4.5515    1.7782 O   0  0  0  0  0  0  0  0  0  0  0  0
  2 10  1  0  0  0  0
  3  5  1  0  0  0  0
  3  2  2  0  0  0  0
  4  3  1  0  0  0  0
  5  7  2  0  0  0  0
  6  5  1  0  0  0  0
  7  8  1  0  0  0  0
  7  9  1  0  0  0  0
  9 11  1  0  0  0  0
 10  9  2  0  0  0  0
 10  1  1  0  0  0  0
 11 14  2  0  0  0  0
 12 11  1  0  0  0  0
 12 13  1  0  0  0  0
M  END
