1
q = 0.0, confidence = 0.998

 28 27  0  0  0  0  0  0  0  0999 V2000
    1.7060   -1.9623    0.6147 S   0  0  0  0  0  0  0  0  0  0  0  0
    2.4573    0.5651   -1.5498 S   0  0  0  0  0  0  0  0  0  0  0  0
    3.8021   -2.0880    2.4737 C   0  0  0  0  0  0  0  0  0  0  0  0
    4.1983   -1.7373    3.4485 H   0  0  0  0  0  0  0  0  0  0  0  0
    4.5952   -1.9141    1.7207 H   0  0  0  0  0  0  0  0  0  0  0  0
    3.6260   -3.1796    2.5555 H   0  0  0  0  0  0  0  0  0  0  0  0
    1.4634   -1.4922    3.2746 C   0  0  0  0  0  0  0  0  0  0  0  0
    1.2541   -2.5615    3.4779 H   0  0  0  0  0  0  0  0  0  0  0  0
    0.5093   -0.9965    3.0161 H   0  0  0  0  0  0  0  0  0  0  0  0
    1.8497   -1.0334    4.2068 H   0  0  0  0  0  0  0  0  0  0  0  0
    2.5096   -1.3368    2.1691 C   0  0  0  0  0  0  0  0  0  0  0  0
    2.7028   -0.2581    1.9961 H   0  0  0  0  0  0  0  0  0  0  0  0
    3.0472   -1.9799   -0.6215 C   0  0  0  0  0  0  0  0  0  0  0  0
    3.8085   -2.7169   -0.2966 H   0  0  0  0  0  0  0  0  0  0  0  0
    2.5613   -2.3854   -1.5316 H   0  0  0  0  0  0  0  0  0  0  0  0
    3.6797   -0.6216   -0.8703 C   0  0  0  0  0  0  0  0  0  0  0  0
    4.5035   -0.7180   -1.6063 H   0  0  0  0  0  0  0  0  0  0  0  0
    4.1008   -0.1933    0.0614 H   0  0  0  0  0  0  0  0  0  0  0  0
    3.0863    2.1593   -0.8145 C   0  0  0  0  0  0  0  0  0  0  0  0
    3.0724    1.9880    0.2825 H   0  0  0  0  0  0  0  0  0  0  0  0
    4.5051    2.4283   -1.3134 C   0  0  0  0  0  0  0  0  0  0  0  0
    4.5263    2.5422   -2.4158 H   0  0  0  0  0  0  0  0  0  0  0  0
    5.2246    1.6366   -1.0280 H   0  0  0  0  0  0  0  0  0  0  0  0
    4.8682    3.3763   -0.8665 H   0  0  0  0  0  0  0  0  0  0  0  0
    2.1216    3.2870   -1.1732 C   0  0  0  0  0  0  0  0  0  0  0  0
    2.5274    4.2356   -0.7679 H   0  0  0  0  0  0  0  0  0  0  0  0
    1.1150    3.1366   -0.7446 H   0  0  0  0  0  0  0  0  0  0  0  0
    2.0241    3.4029   -2.2713 H   0  0  0  0  0  0  0  0  0  0  0  0
  1 11  1  0  0  0  0
  2 16  1  0  0  0  0
  2 19  1  0  0  0  0
  3  6  1  0  0  0  0
  3  4  1  0  0  0  0
  5  3  1  0  0  0  0
  7  8  1  0  0  0  0
  7 10  1  0  0  0  0
  9  7  1  0  0  0  0
 11  3  1  0  0  0  0
 11  7  1  0  0  0  0
 12 11  1  0  0  0  0
 13 14  1  0  0  0  0
 13  1  1  0  0  0  0
 15 13  1  0  0  0  0
 16 13  1  0  0  0  0
 16 18  1  0  0  0  0
 17 16  1  0  0  0  0
 19 20  1  0  0  0  0
 21 23  1  0  0  0  0
 21 24  1  0  0  0  0
 21 19  1  0  0  0  0
 22 21  1  0  0  0  0
 25 19  1  0  0  0  0
 25 26  1  0  0  0  0
 25 27  1  0  0  0  0
 28 25  1  0  0  0  0
M  END
