1
q = -1.0, confidence = 0.0

 26 29  0  0  0  0  0  0  0  0999 V2000
    0.1828   -3.3052    0.0169 S   0  0  0  0  0  1  0  0  0  0  0  0
   -1.2448   -2.3238    0.0203 C   0  0  0  0  0  0  0  0  0  0  0  0
   -2.4488   -3.0225   -0.0069 O   0  0  0  0  0  0  0  0  0  0  0  0
   -1.3728   -1.0126    0.0460 N   0  0  0  0  0  0  0  0  0  0  0  0
   -3.4169   -2.0475    0.0016 C   0  0  0  0  0  0  0  0  0  0  0  0
   -2.7423   -0.7781    0.0368 C   0  0  0  0  0  0  0  0  0  0  0  0
   -4.7812   -2.1956   -0.0192 C   0  0  0  0  0  0  0  0  0  0  0  0
   -3.4770    0.3963    0.0577 C   0  0  0  0  0  0  0  0  0  0  0  0
   -5.5678   -0.9934   -0.0028 C   0  0  0  0  0  0  0  0  0  0  0  0
   -5.2636   -3.1825   -0.0466 H   0  0  0  0  0  0  0  0  0  0  0  0
   -4.9066    0.3134    0.0372 C   0  0  0  0  0  0  0  0  0  0  0  0
   -2.9811    1.3772    0.0972 H   0  0  0  0  0  0  0  0  0  0  0  0
   -6.9757   -1.0426   -0.0230 C   0  0  0  0  0  0  0  0  0  0  0  0
   -5.7097    1.4738    0.0561 C   0  0  0  0  0  0  0  0  0  0  0  0
   -7.7693    0.1205   -0.0051 C   0  0  0  0  0  0  0  0  0  0  0  0
   -7.4720   -2.0258   -0.0534 H   0  0  0  0  0  0  0  0  0  0  0  0
   -7.1156    1.4183    0.0362 C   0  0  0  0  0  0  0  0  0  0  0  0
   -5.2159    2.4584    0.0879 H   0  0  0  0  0  0  0  0  0  0  0  0
   -9.2013    0.0728   -0.0255 C   0  0  0  0  0  0  0  0  0  0  0  0
   -7.9317    2.5968    0.0553 C   0  0  0  0  0  0  0  0  0  0  0  0
   -9.9526    1.2323   -0.0062 C   0  0  0  0  0  0  0  0  0  0  0  0
   -9.6932   -0.9122   -0.0568 H   0  0  0  0  0  0  0  0  0  0  0  0
   -9.3102    2.5086    0.0348 C   0  0  0  0  0  0  0  0  0  0  0  0
   -7.4342    3.5790    0.0871 H   0  0  0  0  0  0  0  0  0  0  0  0
  -11.0518    1.1783   -0.0221 H   0  0  0  0  0  0  0  0  0  0  0  0
   -9.9221    3.4234    0.0501 H   0  0  0  0  0  0  0  0  0  0  0  0
  1  2  1  0  0  0  0
  2  4  2  0  0  0  0
  3  5  1  0  0  0  0
  3  2  1  0  0  0  0
  5  6  1  0  0  0  0
  6  4  1  0  0  0  0
  6  8  2  0  0  0  0
  7  9  1  0  0  0  0
  7  5  2  0  0  0  0
  8 12  1  0  0  0  0
  9 11  1  0  0  0  0
 10  7  1  0  0  0  0
 11 14  2  0  0  0  0
 11  8  1  0  0  0  0
 13 15  1  0  0  0  0
 13  9  2  0  0  0  0
 14 18  1  0  0  0  0
 15 17  1  0  0  0  0
 16 13  1  0  0  0  0
 17 20  2  0  0  0  0
 17 14  1  0  0  0  0
 19 21  1  0  0  0  0
 19 15  2  0  0  0  0
 20 24  1  0  0  0  0
 21 23  2  0  0  0  0
 22 19  1  0  0  0  0
 23 26  1  0  0  0  0
 23 20  1  0  0  0  0
 25 21  1  0  0  0  0
M  END
