1
q = -1.0, confidence = 0.0

 19 20  0  0  0  0  0  0  0  0999 V2000
    0.8738   -2.5501   -0.0647 S   0  0  0  0  0  1  0  0  0  0  0  0
    3.3055   -1.4368   -0.0271 O   0  0  0  0  0  0  0  0  0  0  0  0
    1.9541   -1.2006   -0.0120 C   0  0  0  0  0  0  0  0  0  0  0  0
    2.9136    0.7500    0.0591 N   0  0  0  0  0  0  0  0  0  0  0  0
    1.7041    0.1050    0.0415 N   0  0  0  0  0  0  0  0  0  0  0  0
    5.2882   -0.0031    0.0192 C   0  0  0  0  0  0  0  0  0  0  0  0
    6.1576   -1.1191   -0.0304 C   0  0  0  0  0  0  0  0  0  0  0  0
    5.7347   -2.1327   -0.0695 H   0  0  0  0  0  0  0  0  0  0  0  0
    3.8471   -0.1748    0.0191 C   0  0  0  0  0  0  0  0  0  0  0  0
    5.8280    1.3062    0.0700 C   0  0  0  0  0  0  0  0  0  0  0  0
    5.1370    2.1601    0.1088 H   0  0  0  0  0  0  0  0  0  0  0  0
    7.2089    1.4966    0.0709 C   0  0  0  0  0  0  0  0  0  0  0  0
    7.6613    2.4962    0.1096 H   0  0  0  0  0  0  0  0  0  0  0  0
    8.0504    0.3735    0.0209 C   0  0  0  0  0  0  0  0  0  0  0  0
    7.5416   -0.9320   -0.0296 C   0  0  0  0  0  0  0  0  0  0  0  0
    8.2450   -1.7741   -0.0672 H   0  0  0  0  0  0  0  0  0  0  0  0
   10.2270   -0.4321   -0.0226 O   0  0  0  0  0  0  0  0  0  0  0  0
    9.9306    1.7330    0.0664 O   0  0  0  0  0  0  0  0  0  0  0  0
    9.5161    0.5734    0.0217 N   0  0  0  0  0  0  0  0  0  0  0  0
  1  3  1  0  0  0  0
  2  3  1  0  0  0  0
  2  9  1  0  0  0  0
  3  5  2  0  0  0  0
  5  4  1  0  0  0  0
  6 10  1  0  0  0  0
  7 15  1  0  0  0  0
  7  6  2  0  0  0  0
  8  7  1  0  0  0  0
  9  6  1  0  0  0  0
  9  4  2  0  0  0  0
 10 12  2  0  0  0  0
 10 11  1  0  0  0  0
 12 13  1  0  0  0  0
 14 19  1  0  0  0  0
 14 12  1  0  0  0  0
 15 14  2  0  0  0  0
 16 15  1  0  0  0  0
 17 19  2  0  0  0  0
 19 18  2  0  0  0  0
M  END
