1
q = -1.0

 21 22  0  0  0  0  0  0  0  0999 V2000
   -0.0163   -3.8075    0.1554 S   0  0  0  0  0  1  0  0  0  0  0  0
    2.7214   -4.0677   -0.0357 N   0  0  0  0  0  0  0  0  0  0  0  0
    1.9821   -1.9672    0.0904 O   0  0  0  0  0  0  0  0  0  0  0  0
    4.0838   -0.7314   -0.0054 C   0  0  0  0  0  0  0  0  0  0  0  0
    3.8126   -3.2159   -0.0722 N   0  0  0  0  0  0  0  0  0  0  0  0
    3.3532   -1.9886    0.0015 C   0  0  0  0  0  0  0  0  0  0  0  0
    1.6508   -3.3087    0.0605 C   0  0  0  0  0  0  0  0  0  0  0  0
    3.4217    0.5073    0.1143 C   0  0  0  0  0  0  0  0  0  0  0  0
    2.3274    0.5320    0.2153 H   0  0  0  0  0  0  0  0  0  0  0  0
    4.1375    1.7125    0.1017 C   0  0  0  0  0  0  0  0  0  0  0  0
    3.5865    2.6573    0.1944 H   0  0  0  0  0  0  0  0  0  0  0  0
    5.4951   -0.7400   -0.1370 C   0  0  0  0  0  0  0  0  0  0  0  0
    6.0079   -1.7083   -0.2294 H   0  0  0  0  0  0  0  0  0  0  0  0
    6.2117    0.4528   -0.1511 C   0  0  0  0  0  0  0  0  0  0  0  0
    7.3064    0.4614   -0.2547 H   0  0  0  0  0  0  0  0  0  0  0  0
    5.5406    1.6926   -0.0334 C   0  0  0  0  0  0  0  0  0  0  0  0
    6.3274    2.8039   -0.0628 O   0  0  0  0  0  0  0  0  0  0  0  0
    5.7045    4.0674    0.0464 C   0  0  0  0  0  0  0  0  0  0  0  0
    6.5110    4.8222   -0.0062 H   0  0  0  0  0  0  0  0  0  0  0  0
    5.1632    4.1833    1.0127 H   0  0  0  0  0  0  0  0  0  0  0  0
    4.9845    4.2497   -0.7844 H   0  0  0  0  0  0  0  0  0  0  0  0
  2  7  2  0  0  0  0
  4  6  1  0  0  0  0
  4  8  1  0  0  0  0
  5  2  1  0  0  0  0
  5  6  2  0  0  0  0
  6  3  1  0  0  0  0
  7  3  1  0  0  0  0
  7  1  1  0  0  0  0
  8  9  1  0  0  0  0
 10  8  2  0  0  0  0
 10 11  1  0  0  0  0
 12  4  2  0  0  0  0
 13 12  1  0  0  0  0
 14 12  1  0  0  0  0
 14 16  2  0  0  0  0
 15 14  1  0  0  0  0
 16 10  1  0  0  0  0
 17 16  1  0  0  0  0
 17 18  1  0  0  0  0
 18 20  1  0  0  0  0
 19 18  1  0  0  0  0
 21 18  1  0  0  0  0
M  END
