1
q = -1.0

 17 18  0  0  0  0  0  0  0  0999 V2000
    1.3788   -2.4964   -0.0753 S   0  0  0  0  0  1  0  0  0  0  0  0
    4.2914   -0.0403    0.0266 C   0  0  0  0  0  0  0  0  0  0  0  0
    3.7812   -1.3154   -0.0298 O   0  0  0  0  0  0  0  0  0  0  0  0
    9.8239    0.7999    0.0314 F   0  0  0  0  0  0  0  0  0  0  0  0
    2.1397    0.1809    0.0540 N   0  0  0  0  0  0  0  0  0  0  0  0
    3.3384    0.8607    0.0757 N   0  0  0  0  0  0  0  0  0  0  0  0
    2.4231   -1.1119   -0.0110 C   0  0  0  0  0  0  0  0  0  0  0  0
    6.2500    1.4746    0.0898 C   0  0  0  0  0  0  0  0  0  0  0  0
    5.5448    2.3166    0.1379 H   0  0  0  0  0  0  0  0  0  0  0  0
    5.7325    0.1594    0.0267 C   0  0  0  0  0  0  0  0  0  0  0  0
    6.6252   -0.9342   -0.0346 C   0  0  0  0  0  0  0  0  0  0  0  0
    6.2250   -1.9567   -0.0834 H   0  0  0  0  0  0  0  0  0  0  0  0
    7.6297    1.6934    0.0914 C   0  0  0  0  0  0  0  0  0  0  0  0
    8.0527    2.7069    0.1401 H   0  0  0  0  0  0  0  0  0  0  0  0
    8.4946    0.5908    0.0298 C   0  0  0  0  0  0  0  0  0  0  0  0
    8.0086   -0.7211   -0.0332 C   0  0  0  0  0  0  0  0  0  0  0  0
    8.7201   -1.5577   -0.0802 H   0  0  0  0  0  0  0  0  0  0  0  0
  1  7  1  0  0  0  0
  2 10  1  0  0  0  0
  2  6  2  0  0  0  0
  3  7  1  0  0  0  0
  3  2  1  0  0  0  0
  5  6  1  0  0  0  0
  7  5  2  0  0  0  0
  8 13  1  0  0  0  0
  8  9  1  0  0  0  0
 10  8  2  0  0  0  0
 11 16  2  0  0  0  0
 11 10  1  0  0  0  0
 12 11  1  0  0  0  0
 13 14  1  0  0  0  0
 15  4  1  0  0  0  0
 15 13  2  0  0  0  0
 16 15  1  0  0  0  0
 17 16  1  0  0  0  0
M  END
