1
q = 0.0, confidence = 0.974

 14 14  0  0  0  0  0  0  0  0999 V2000
    0.9842    0.8594    0.0006 S   0  0  0  0  0  1  0  0  0  0  0  0
    2.1441   -0.3328    0.0001 C   0  0  0  0  0  3  0  0  0  0  0  0
    3.5754   -0.1125    0.0001 C   0  0  0  0  0  0  0  0  0  0  0  0
    4.1590    1.1833    0.0004 C   0  0  0  0  0  0  0  0  0  0  0  0
    5.5459    1.3319    0.0005 C   0  0  0  0  0  0  0  0  0  0  0  0
    6.3824    0.1978    0.0002 C   0  0  0  0  0  0  0  0  0  0  0  0
    5.8216   -1.0903   -0.0001 C   0  0  0  0  0  0  0  0  0  0  0  0
    4.4319   -1.2460   -0.0001 C   0  0  0  0  0  0  0  0  0  0  0  0
    1.8169   -1.3884   -0.0003 H   0  0  0  0  0  0  0  0  0  0  0  0
    3.4989    2.0638    0.0006 H   0  0  0  0  0  0  0  0  0  0  0  0
    5.9877    2.3395    0.0007 H   0  0  0  0  0  0  0  0  0  0  0  0
    7.4759    0.3219    0.0002 H   0  0  0  0  0  0  0  0  0  0  0  0
    6.4733   -1.9766   -0.0003 H   0  0  0  0  0  0  0  0  0  0  0  0
    3.9869   -2.2533   -0.0004 H   0  0  0  0  0  0  0  0  0  0  0  0
  2  3  1  0  0  0  0
  2  1  1  0  0  0  0
  3  4  1  0  0  0  0
  4  5  2  0  0  0  0
  4 10  1  0  0  0  0
  5 11  1  0  0  0  0
  6 12  1  0  0  0  0
  6  5  1  0  0  0  0
  7  6  2  0  0  0  0
  8  7  1  0  0  0  0
  8  3  2  0  0  0  0
  9  2  1  0  0  0  0
 13  7  1  0  0  0  0
 14  8  1  0  0  0  0
M  END
