1
q = -1.0, confidence = 0.0

 21 21  0  0  0  0  0  0  0  0999 V2000
    1.4657   -2.3302   -0.2315 S   0  0  0  0  0  1  0  0  0  0  0  0
    4.3463   -1.5432   -0.0661 S   0  0  0  0  0  0  0  0  0  0  0  0
    2.7376   -1.1533    0.0521 C   0  0  0  0  0  0  0  0  0  0  0  0
    2.2501    0.0677    0.3766 O   0  0  0  0  0  0  0  0  0  0  0  0
    3.1444    1.2057    0.5192 C   0  0  0  0  0  0  0  0  0  0  0  0
    2.4314    2.1771    1.4605 C   0  0  0  0  0  0  0  0  0  0  0  0
    1.1386    2.7256    0.8399 C   0  0  0  0  0  0  0  0  0  0  0  0
    1.3941    3.3528   -0.5380 C   0  0  0  0  0  0  0  0  0  0  0  0
    2.0991    2.3667   -1.4809 C   0  0  0  0  0  0  0  0  0  0  0  0
    3.3930    1.8225   -0.8614 C   0  0  0  0  0  0  0  0  0  0  0  0
    4.0961    0.8277    0.9492 H   0  0  0  0  0  0  0  0  0  0  0  0
    3.1330    3.0121    1.6761 H   0  0  0  0  0  0  0  0  0  0  0  0
    2.2250    1.6704    2.4256 H   0  0  0  0  0  0  0  0  0  0  0  0
    0.6657    3.4607    1.5255 H   0  0  0  0  0  0  0  0  0  0  0  0
    0.4236    1.8805    0.7307 H   0  0  0  0  0  0  0  0  0  0  0  0
    0.4397    3.7028   -0.9876 H   0  0  0  0  0  0  0  0  0  0  0  0
    2.0278    4.2604   -0.4147 H   0  0  0  0  0  0  0  0  0  0  0  0
    1.4191    1.5123   -1.6922 H   0  0  0  0  0  0  0  0  0  0  0  0
    2.3150    2.8473   -2.4576 H   0  0  0  0  0  0  0  0  0  0  0  0
    4.1323    2.6440   -0.7355 H   0  0  0  0  0  0  0  0  0  0  0  0
    3.8709    1.0613   -1.5103 H   0  0  0  0  0  0  0  0  0  0  0  0
  1  3  1  0  0  0  0
  2  3  2  0  0  0  0
  3  4  1  0  0  0  0
  4  5  1  0  0  0  0
  5 11  1  0  0  0  0
  5  6  1  0  0  0  0
  6 12  1  0  0  0  0
  6 13  1  0  0  0  0
  7  6  1  0  0  0  0
  7 14  1  0  0  0  0
  8 17  1  0  0  0  0
  8  7  1  0  0  0  0
  9 10  1  0  0  0  0
  9  8  1  0  0  0  0
 10 20  1  0  0  0  0
 10  5  1  0  0  0  0
 15  7  1  0  0  0  0
 16  8  1  0  0  0  0
 18  9  1  0  0  0  0
 19  9  1  0  0  0  0
 21 10  1  0  0  0  0
M  END
