1
q = -1.0

 22 21  0  0  0  0  0  0  0  0999 V2000
    1.3556   -1.2117   -0.3229 S   0  0  0  0  0  1  0  0  0  0  0  0
    1.2145    1.7822    0.1596 S   0  0  0  0  0  0  0  0  0  0  0  0
    5.1405   -2.9587    0.3188 O   0  0  0  0  0  0  0  0  0  0  0  0
    4.4618   -3.4665   -0.1636 H   0  0  0  0  0  0  0  0  0  0  0  0
    3.4944    0.3757   -0.1444 N   0  0  0  0  0  0  0  0  0  0  0  0
    2.1275    0.3661   -0.0910 C   0  0  0  0  0  0  0  0  0  0  0  0
    4.2520   -0.8311   -0.4692 C   0  0  0  0  0  0  0  0  0  0  0  0
    5.2137   -0.5381   -0.9358 H   0  0  0  0  0  0  0  0  0  0  0  0
    3.6838   -1.4083   -1.2300 H   0  0  0  0  0  0  0  0  0  0  0  0
    4.5259   -1.7538    0.7334 C   0  0  0  0  0  0  0  0  0  0  0  0
    5.2281   -1.2627    1.4373 H   0  0  0  0  0  0  0  0  0  0  0  0
    3.5679   -1.9225    1.2778 H   0  0  0  0  0  0  0  0  0  0  0  0
    4.2414    1.6485   -0.0224 C   0  0  0  0  0  0  0  0  0  0  0  0
    3.5079    2.3445    0.4367 H   0  0  0  0  0  0  0  0  0  0  0  0
    4.5992    2.1940   -1.4083 C   0  0  0  0  0  0  0  0  0  0  0  0
    3.6783    2.3386   -2.0067 H   0  0  0  0  0  0  0  0  0  0  0  0
    5.2801    1.5116   -1.9594 H   0  0  0  0  0  0  0  0  0  0  0  0
    5.1088    3.1743   -1.3163 H   0  0  0  0  0  0  0  0  0  0  0  0
    5.4479    1.5241    0.9084 C   0  0  0  0  0  0  0  0  0  0  0  0
    5.1471    1.1525    1.9079 H   0  0  0  0  0  0  0  0  0  0  0  0
    5.9098    2.5225    1.0427 H   0  0  0  0  0  0  0  0  0  0  0  0
    6.2339    0.8515    0.5060 H   0  0  0  0  0  0  0  0  0  0  0  0
  1  6  1  0  0  0  0
  3 10  1  0  0  0  0
  4  3  1  0  0  0  0
  5  6  1  0  0  0  0
  5 13  1  0  0  0  0
  6  2  2  0  0  0  0
  7  5  1  0  0  0  0
  7 10  1  0  0  0  0
  8  7  1  0  0  0  0
  9  7  1  0  0  0  0
 10 12  1  0  0  0  0
 10 11  1  0  0  0  0
 13 14  1  0  0  0  0
 13 19  1  0  0  0  0
 15 18  1  0  0  0  0
 15 13  1  0  0  0  0
 16 15  1  0  0  0  0
 17 15  1  0  0  0  0
 19 21  1  0  0  0  0
 19 20  1  0  0  0  0
 22 19  1  0  0  0  0
M  END
