2
q = -1.0, confidence = 0.018

 32 33  0  0  0  0  0  0  0  0999 V2000
    0.1572    0.9073    1.1420 S   0  0  0  0  0  0  0  0  0  0  0  0
    0.0617   -0.9576   -1.2425 S   0  0  0  0  0  1  0  0  0  0  0  0
   -2.1013   -0.0745    0.0649 N   0  0  0  0  0  0  0  0  0  0  0  0
   -0.7449   -0.0174    0.0243 C   0  0  0  0  0  0  0  0  0  0  0  0
   -2.8715    0.6666    1.0722 C   0  0  0  0  0  0  0  0  0  0  0  0
   -2.1517    0.9894    1.8517 H   0  0  0  0  0  0  0  0  0  0  0  0
   -3.6081   -0.0309    1.5198 H   0  0  0  0  0  0  0  0  0  0  0  0
   -3.5827    1.8602    0.4755 C   0  0  0  0  0  0  0  0  0  0  0  0
   -2.8579    2.9002   -0.1389 C   0  0  0  0  0  0  0  0  0  0  0  0
   -1.7576    2.8646   -0.1751 H   0  0  0  0  0  0  0  0  0  0  0  0
   -3.5640    3.9816   -0.6862 C   0  0  0  0  0  0  0  0  0  0  0  0
   -3.0137    4.8096   -1.1686 H   0  0  0  0  0  0  0  0  0  0  0  0
   -4.9038    4.0911   -0.6636 N   0  0  0  0  0  0  0  0  0  0  0  0
   -5.5885    3.0976   -0.0770 C   0  0  0  0  0  0  0  0  0  0  0  0
   -6.6892    3.1982   -0.0673 H   0  0  0  0  0  0  0  0  0  0  0  0
   -4.9838    1.9680    0.5000 C   0  0  0  0  0  0  0  0  0  0  0  0
   -5.5961    1.1747    0.9567 H   0  0  0  0  0  0  0  0  0  0  0  0
   -2.9209   -0.8108   -0.9223 C   0  0  0  0  0  0  0  0  0  0  0  0
   -3.4821   -0.0745   -1.5352 H   0  0  0  0  0  0  0  0  0  0  0  0
   -2.2205   -1.3338   -1.6044 H   0  0  0  0  0  0  0  0  0  0  0  0
   -3.9049   -1.7394   -0.2924 C   0  0  0  0  0  0  0  0  0  0  0  0
   -3.5248   -2.8177    0.4943 N   0  0  0  0  0  0  0  0  0  0  0  0
   -4.6548   -3.4699    0.9398 C   0  0  0  0  0  0  0  0  0  0  0  0
   -4.5686   -4.3518    1.5846 H   0  0  0  0  0  0  0  0  0  0  0  0
   -5.7744   -2.8187    0.4319 C   0  0  0  0  0  0  0  0  0  0  0  0
   -6.8171   -3.1114    0.5965 H   0  0  0  0  0  0  0  0  0  0  0  0
   -5.3004   -1.7208   -0.3426 C   0  0  0  0  0  0  0  0  0  0  0  0
   -5.8988   -0.9898   -0.8989 H   0  0  0  0  0  0  0  0  0  0  0  0
   -2.1646   -3.1542    0.8761 C   0  0  0  0  0  0  0  0  0  0  0  0
   -1.8136   -2.5406    1.7330 H   0  0  0  0  0  0  0  0  0  0  0  0
   -1.4659   -2.9876    0.0326 H   0  0  0  0  0  0  0  0  0  0  0  0
   -2.1205   -4.2215    1.1625 H   0  0  0  0  0  0  0  0  0  0  0  0
  2  4  1  0  0  0  0
  3  5  1  0  0  0  0
  4  3  1  0  0  0  0
  4  1  2  0  0  0  0
  5  7  1  0  0  0  0
  5  6  1  0  0  0  0
  8 16  1  0  0  0  0
  8  5  1  0  0  0  0
  9  8  2  0  0  0  0
 10  9  1  0  0  0  0
 11 13  2  0  0  0  0
 11  9  1  0  0  0  0
 12 11  1  0  0  0  0
 13 14  1  0  0  0  0
 14 15  1  0  0  0  0
 14 16  2  0  0  0  0
 16 17  1  0  0  0  0
 18 21  1  0  0  0  0
 18  3  1  0  0  0  0
 19 18  1  0  0  0  0
 20 18  1  0  0  0  0
 21 22  1  0  0  0  0
 22 29  1  0  0  0  0
 22 23  1  0  0  0  0
 23 24  1  0  0  0  0
 25 26  1  0  0  0  0
 25 23  2  0  0  0  0
 27 21  2  0  0  0  0
 27 25  1  0  0  0  0
 28 27  1  0  0  0  0
 29 32  1  0  0  0  0
 29 30  1  0  0  0  0
 31 29  1  0  0  0  0
M  END
