1
q = 0.0, confidence = 0.94

 17 18  0  0  1  0  0  0  0  0999 V2000
    2.1206    0.0013   -0.9502 S   0  0  0  0  0  0  0  0  0  0  0  0
    3.2068    1.2032   -0.0126 C   0  0  1  0  0  0  0  0  0  0  0  0
    3.2071   -1.2034   -0.0164 C   0  0  2  0  0  0  0  0  0  0  0  0
    3.0215    0.7767    1.4495 C   0  0  0  0  0  0  0  0  0  0  0  0
    4.5969    0.7827   -0.5182 C   0  0  0  0  0  0  0  0  0  0  0  0
    2.8952    2.2386   -0.2357 H   0  0  0  0  0  0  0  0  0  0  0  0
    3.0219   -0.7814    1.4471 C   0  0  0  0  0  0  0  0  0  0  0  0
    4.5971   -0.7809   -0.5209 C   0  0  0  0  0  0  0  0  0  0  0  0
    2.8959   -2.2382   -0.2426 H   0  0  0  0  0  0  0  0  0  0  0  0
    2.0650    1.1813    1.8335 H   0  0  0  0  0  0  0  0  0  0  0  0
    3.8425    1.1995    2.0652 H   0  0  0  0  0  0  0  0  0  0  0  0
    5.3752    1.2018    0.1520 H   0  0  0  0  0  0  0  0  0  0  0  0
    4.7857    1.1846   -1.5327 H   0  0  0  0  0  0  0  0  0  0  0  0
    2.0658   -1.1878    1.8302 H   0  0  0  0  0  0  0  0  0  0  0  0
    3.8435   -1.2056    2.0613 H   0  0  0  0  0  0  0  0  0  0  0  0
    4.7856   -1.1793   -1.5368 H   0  0  0  0  0  0  0  0  0  0  0  0
    5.3756   -1.2022    0.1477 H   0  0  0  0  0  0  0  0  0  0  0  0
  1  3  1  0  0  0  0
  1  2  1  0  0  0  0
  2  6  1  6  0  0  0
  2  4  1  0  0  0  0
  3  9  1  6  0  0  0
  3  7  1  0  0  0  0
  4 10  1  0  0  0  0
  4 11  1  0  0  0  0
  5  2  1  0  0  0  0
  5 12  1  0  0  0  0
  7  4  1  0  0  0  0
  7 14  1  0  0  0  0
  7 15  1  0  0  0  0
  8  5  1  0  0  0  0
  8  3  1  0  0  0  0
  8 17  1  0  0  0  0
 13  5  1  0  0  0  0
 16  8  1  0  0  0  0
M  END
