1
q = 0.0, confidence = 0.998

 24 24  0  0  1  0  0  0  0  0999 V2000
    1.9089   -3.2444   -0.0013 S   0  0  0  0  0  1  0  0  0  0  0  0
    3.9972    0.0907   -0.0002 N   0  0  0  0  0  0  0  0  0  0  0  0
    2.9711   -0.7819   -0.0006 N   0  0  0  0  0  0  0  0  0  0  0  0
    1.9686   -0.4606   -0.0007 H   0  0  0  0  0  0  0  0  0  0  0  0
    4.4922   -2.5141   -0.0003 N   0  0  0  0  0  0  0  0  0  0  0  0
    5.1654   -1.7386   -0.0003 H   0  0  0  0  0  0  0  0  0  0  0  0
    6.1024    2.1050    0.0006 C   0  0  0  0  0  0  0  0  0  0  0  0
    6.4190    1.0520    0.0004 H   0  0  0  0  0  0  0  0  0  0  0  0
    7.0458    3.1358    0.0009 C   0  0  0  0  0  0  0  0  0  0  0  0
    8.1197    2.8937    0.0011 H   0  0  0  0  0  0  0  0  0  0  0  0
    6.6303    4.4808    0.0011 C   0  0  0  0  0  0  0  0  0  0  0  0
    7.3768    5.2894    0.0014 H   0  0  0  0  0  0  0  0  0  0  0  0
    5.2600    4.7856    0.0009 C   0  0  0  0  0  0  0  0  0  0  0  0
    4.9279    5.8348    0.0011 H   0  0  0  0  0  0  0  0  0  0  0  0
    4.3113    3.7547    0.0006 C   0  0  0  0  0  0  0  0  0  0  0  0
    3.2358    3.9925    0.0004 H   0  0  0  0  0  0  0  0  0  0  0  0
    4.7169    2.3994    0.0004 C   0  0  0  0  0  0  0  0  0  0  0  0
    3.6957    1.3565   -0.0000 C   0  0  0  0  0  0  0  0  0  0  0  0
    2.6314    1.6759   -0.0001 H   0  0  0  0  0  0  0  0  0  0  0  0
    3.2033   -2.1267   -0.0007 C   0  0  1  0  0  3  0  0  0  0  0  0
    4.9248   -3.8934   -0.0006 C   0  0  0  0  0  0  0  0  0  0  0  0
    4.5469   -4.4345    0.8926 H   0  0  0  0  0  0  0  0  0  0  0  0
    4.5498   -4.4335   -0.8957 H   0  0  0  0  0  0  0  0  0  0  0  0
    6.0300   -3.9205    0.0011 H   0  0  0  0  0  0  0  0  0  0  0  0
  2 18  2  0  0  0  0
  3  2  1  0  0  0  0
  4  3  1  0  0  0  0
  5  6  1  0  0  0  0
  7  9  1  0  0  0  0
  8  7  1  0  0  0  0
  9 10  1  0  0  0  0
  9 11  2  0  0  0  0
 11 12  1  0  0  0  0
 13 14  1  0  0  0  0
 13 11  1  0  0  0  0
 15 13  2  0  0  0  0
 16 15  1  0  0  0  0
 17  7  2  0  0  0  0
 17 15  1  0  0  0  0
 18 17  1  0  0  0  0
 19 18  1  0  0  0  0
 20  1  1  1  0  0  0
 20  3  1  0  0  0  0
 20  5  1  0  0  0  0
 21  5  1  0  0  0  0
 21 24  1  0  0  0  0
 21 22  1  0  0  0  0
 23 21  1  0  0  0  0
M  END
