5
q = -2.0, confidence = 0.77

 12 11  0  0  0  0  0  0  0  0999 V2000
   -0.2596    0.8274    1.6466 S   0  0  0  0  0  1  0  0  0  0  0  0
    0.8594    2.4727    0.9776 S   0  0  0  0  0  0  0  0  0  0  0  0
    2.0122    1.8416   -0.6663 S   0  0  0  0  0  0  0  0  0  0  0  0
    3.8238    0.9942   -0.0214 S   0  0  0  0  0  0  0  0  0  0  0  0
   -0.0929   -0.7420   -1.5451 S   0  0  0  0  0  1  0  0  0  0  0  0
    1.1131   -2.2510   -0.6311 S   0  0  0  0  0  0  0  0  0  0  0  0
    3.1033   -1.7578   -0.8623 S   0  0  0  0  0  0  0  0  0  0  0  0
    3.5597   -0.6504    0.3993 N   0  0  0  0  0  0  0  0  0  0  0  0
    3.0372   -0.9208    1.7372 C   0  0  0  0  0  0  0  0  0  0  0  0
    3.2397   -1.9804    1.9924 H   0  0  0  0  0  0  0  0  0  0  0  0
    1.9391   -0.7277    1.7992 H   0  0  0  0  0  0  0  0  0  0  0  0
    3.5538   -0.2580    2.4574 H   0  0  0  0  0  0  0  0  0  0  0  0
  2  1  1  0  0  0  0
  3  4  1  0  0  0  0
  3  2  1  0  0  0  0
  4  8  1  0  0  0  0
  5  6  1  0  0  0  0
  7  6  1  0  0  0  0
  7  8  1  0  0  0  0
  8  9  1  0  0  0  0
  9 11  1  0  0  0  0
  9 10  1  0  0  0  0
  9 12  1  0  0  0  0
M  END
