1
q = -1.0

 32 32  0  0  0  0  0  0  0  0999 V2000
    0.0875   -3.0835    0.2506 S   0  0  0  0  0  1  0  0  0  0  0  0
    1.4997   -2.4861   -0.6320 C   0  0  0  0  0  0  0  0  0  0  0  0
    2.0031   -1.2803   -0.2868 N   0  0  0  0  0  0  0  0  0  0  0  0
    2.0679   -3.2660   -1.6678 C   0  0  0  0  0  0  0  0  0  0  0  0
    3.0911   -0.7836   -0.9269 C   0  0  0  0  0  0  0  0  0  0  0  0
    3.1835   -2.7591   -2.3377 C   0  0  0  0  0  0  0  0  0  0  0  0
    1.6355   -4.2424   -1.9281 H   0  0  0  0  0  0  0  0  0  0  0  0
    3.7167    0.9373   -0.3665 Si  0  0  0  0  0  0  0  0  0  0  0  0
    3.7075   -1.5090   -1.9669 C   0  0  0  0  0  0  0  0  0  0  0  0
    3.6478   -3.3421   -3.1486 H   0  0  0  0  0  0  0  0  0  0  0  0
    3.6212    1.0385    1.5158 C   0  0  0  0  0  0  0  0  0  0  0  0
    5.5154    1.1150   -0.9381 C   0  0  0  0  0  0  0  0  0  0  0  0
    2.6179    2.2892   -1.1990 C   0  0  0  0  0  0  0  0  0  0  0  0
    4.5900   -1.0988   -2.4791 H   0  0  0  0  0  0  0  0  0  0  0  0
    2.5763    0.9715    1.8810 H   0  0  0  0  0  0  0  0  0  0  0  0
    4.2012    0.2137    1.9777 H   0  0  0  0  0  0  0  0  0  0  0  0
    4.0460    1.9972    1.8778 H   0  0  0  0  0  0  0  0  0  0  0  0
    5.6040    1.1462   -2.0431 H   0  0  0  0  0  0  0  0  0  0  0  0
    5.9565    2.0521   -0.5418 H   0  0  0  0  0  0  0  0  0  0  0  0
    6.1328    0.2708   -0.5689 H   0  0  0  0  0  0  0  0  0  0  0  0
    2.5506    2.0336   -2.7154 C   0  0  0  0  0  0  0  0  0  0  0  0
    1.2047    2.2190   -0.5989 C   0  0  0  0  0  0  0  0  0  0  0  0
    3.2317    3.6755   -0.9294 C   0  0  0  0  0  0  0  0  0  0  0  0
    2.0967    1.0478   -2.9469 H   0  0  0  0  0  0  0  0  0  0  0  0
    1.9297    2.8124   -3.2124 H   0  0  0  0  0  0  0  0  0  0  0  0
    3.5532    2.0615   -3.1918 H   0  0  0  0  0  0  0  0  0  0  0  0
    0.7515    1.2156   -0.7197 H   0  0  0  0  0  0  0  0  0  0  0  0
    1.2010    2.4492    0.4852 H   0  0  0  0  0  0  0  0  0  0  0  0
    0.5272    2.9502   -1.0951 H   0  0  0  0  0  0  0  0  0  0  0  0
    4.2417    3.7806   -1.3768 H   0  0  0  0  0  0  0  0  0  0  0  0
    2.5914    4.4732   -1.3687 H   0  0  0  0  0  0  0  0  0  0  0  0
    3.3174    3.8873    0.1569 H   0  0  0  0  0  0  0  0  0  0  0  0
  2  3  1  0  0  0  0
  2  1  1  0  0  0  0
  4  2  2  0  0  0  0
  5  8  1  0  0  0  0
  5  3  2  0  0  0  0
  6  9  2  0  0  0  0
  6  4  1  0  0  0  0
  7  4  1  0  0  0  0
  8 11  1  0  0  0  0
  9  5  1  0  0  0  0
 10  6  1  0  0  0  0
 11 17  1  0  0  0  0
 11 15  1  0  0  0  0
 11 16  1  0  0  0  0
 12 20  1  0  0  0  0
 12 19  1  0  0  0  0
 12  8  1  0  0  0  0
 13 23  1  0  0  0  0
 13 22  1  0  0  0  0
 13  8  1  0  0  0  0
 14  9  1  0  0  0  0
 18 12  1  0  0  0  0
 21 13  1  0  0  0  0
 22 28  1  0  0  0  0
 23 32  1  0  0  0  0
 24 21  1  0  0  0  0
 25 21  1  0  0  0  0
 26 21  1  0  0  0  0
 27 22  1  0  0  0  0
 29 22  1  0  0  0  0
 30 23  1  0  0  0  0
 31 23  1  0  0  0  0
M  END
