1
q = -1.0

 12 12  0  0  0  0  0  0  0  0999 V2000
   -2.3716    1.7753   -0.2832 S   0  0  0  0  0  1  0  0  0  0  0  0
   -4.7606   -2.7948    0.2460 F   0  0  0  0  0  0  0  0  0  0  0  0
   -3.7765    0.7113   -0.0853 C   0  0  0  0  0  0  0  0  0  0  0  0
   -6.2106    0.5389    0.1233 C   0  0  0  0  0  0  0  0  0  0  0  0
   -7.1938    1.0327    0.1680 H   0  0  0  0  0  0  0  0  0  0  0  0
   -3.7007   -0.6976    0.0076 C   0  0  0  0  0  0  0  0  0  0  0  0
   -2.7322   -1.2149   -0.0412 H   0  0  0  0  0  0  0  0  0  0  0  0
   -5.0566    1.3183   -0.0257 C   0  0  0  0  0  0  0  0  0  0  0  0
   -5.1321    2.4135   -0.0961 H   0  0  0  0  0  0  0  0  0  0  0  0
   -6.1382   -0.8613    0.2196 C   0  0  0  0  0  0  0  0  0  0  0  0
   -7.0300   -1.4917    0.3385 H   0  0  0  0  0  0  0  0  0  0  0  0
   -4.8690   -1.4481    0.1583 C   0  0  0  0  0  0  0  0  0  0  0  0
  1  3  1  0  0  0  0
  3  8  2  0  0  0  0
  3  6  1  0  0  0  0
  4  5  1  0  0  0  0
  4 10  2  0  0  0  0
  6 12  2  0  0  0  0
  7  6  1  0  0  0  0
  8  4  1  0  0  0  0
  9  8  1  0  0  0  0
 10 11  1  0  0  0  0
 12 10  1  0  0  0  0
 12  2  1  0  0  0  0
M  END
