2
q = 0.0, confidence = 0.908

 46 49  0  0  0  0  0  0  0  0999 V2000
   -2.4527   -0.7414    0.6539 P   0  0  0  0  0  4  0  0  0  0  0  0
    0.9724   -0.8178   -2.2382 S   0  0  0  0  0  1  0  0  0  0  0  0
   -1.6121    0.8375   -0.5558 S   0  0  0  0  0  0  0  0  0  0  0  0
   -0.6867   -0.6269   -2.7917 C   0  0  0  0  0  0  0  0  0  0  0  0
   -1.7871   -0.0059   -2.1301 C   0  0  0  0  0  0  0  0  0  0  0  0
   -3.0787   -0.0272   -2.6986 C   0  0  0  0  0  0  0  0  0  0  0  0
   -3.3310   -0.7041   -3.8962 C   0  0  0  0  0  0  0  0  0  0  0  0
   -2.2610   -1.3372   -4.5547 C   0  0  0  0  0  0  0  0  0  0  0  0
   -0.9710   -1.2794   -4.0241 C   0  0  0  0  0  0  0  0  0  0  0  0
   -1.5755   -2.2938    0.3587 C   0  0  0  0  0  0  0  0  0  0  0  0
   -0.5910   -2.7190    1.2741 C   0  0  0  0  0  0  0  0  0  0  0  0
    0.2183   -3.8189    0.9609 C   0  0  0  0  0  0  0  0  0  0  0  0
    0.0455   -4.4947   -0.2572 C   0  0  0  0  0  0  0  0  0  0  0  0
   -0.9493   -4.0830   -1.1593 C   0  0  0  0  0  0  0  0  0  0  0  0
   -1.7642   -2.9837   -0.8611 C   0  0  0  0  0  0  0  0  0  0  0  0
   -4.2429   -1.0015    0.4765 C   0  0  0  0  0  0  0  0  0  0  0  0
   -5.0676    0.1431    0.4103 C   0  0  0  0  0  0  0  0  0  0  0  0
   -6.4543   -0.0061    0.2893 C   0  0  0  0  0  0  0  0  0  0  0  0
   -7.0221   -1.2909    0.2248 C   0  0  0  0  0  0  0  0  0  0  0  0
   -6.2018   -2.4279    0.2884 C   0  0  0  0  0  0  0  0  0  0  0  0
   -4.8109   -2.2902    0.4163 C   0  0  0  0  0  0  0  0  0  0  0  0
   -2.1402   -0.1213    2.3304 C   0  0  0  0  0  0  0  0  0  0  0  0
   -2.9855   -0.5109    3.3923 C   0  0  0  0  0  0  0  0  0  0  0  0
   -2.7267   -0.0440    4.6875 C   0  0  0  0  0  0  0  0  0  0  0  0
   -1.6361    0.8109    4.9254 C   0  0  0  0  0  0  0  0  0  0  0  0
   -0.8014    1.2011    3.8676 C   0  0  0  0  0  0  0  0  0  0  0  0
   -1.0466    0.7393    2.5670 C   0  0  0  0  0  0  0  0  0  0  0  0
   -3.8934    0.4927   -2.1746 H   0  0  0  0  0  0  0  0  0  0  0  0
   -4.3457   -0.7197   -4.3196 H   0  0  0  0  0  0  0  0  0  0  0  0
   -2.4290   -1.8623   -5.5075 H   0  0  0  0  0  0  0  0  0  0  0  0
   -0.1322   -1.7505   -4.5586 H   0  0  0  0  0  0  0  0  0  0  0  0
   -0.4328   -2.1734    2.2135 H   0  0  0  0  0  0  0  0  0  0  0  0
    0.9983   -4.1299    1.6714 H   0  0  0  0  0  0  0  0  0  0  0  0
    0.6953   -5.3463   -0.5088 H   0  0  0  0  0  0  0  0  0  0  0  0
   -1.0818   -4.6086   -2.1165 H   0  0  0  0  0  0  0  0  0  0  0  0
   -2.5212   -2.6486   -1.5851 H   0  0  0  0  0  0  0  0  0  0  0  0
   -4.6128    1.1458    0.4431 H   0  0  0  0  0  0  0  0  0  0  0  0
   -7.0968    0.8856    0.2387 H   0  0  0  0  0  0  0  0  0  0  0  0
   -8.1118   -1.4049    0.1224 H   0  0  0  0  0  0  0  0  0  0  0  0
   -6.6460   -3.4334    0.2401 H   0  0  0  0  0  0  0  0  0  0  0  0
   -4.1678   -3.1806    0.4718 H   0  0  0  0  0  0  0  0  0  0  0  0
   -3.8440   -1.1730    3.2029 H   0  0  0  0  0  0  0  0  0  0  0  0
   -3.3829   -0.3477    5.5169 H   0  0  0  0  0  0  0  0  0  0  0  0
   -1.4387    1.1750    5.9451 H   0  0  0  0  0  0  0  0  0  0  0  0
    0.0581    1.8661    4.0374 H   0  0  0  0  0  0  0  0  0  0  0  0
   -0.3661    1.0437    1.7579 H   0  0  0  0  0  0  0  0  0  0  0  0
  1 22  1  0  0  0  0
  3  1  1  0  0  0  0
  4  2  1  0  0  0  0
  4  5  1  0  0  0  0
  5  3  1  0  0  0  0
  6 28  1  0  0  0  0
  6  5  2  0  0  0  0
  7  6  1  0  0  0  0
  8  9  1  0  0  0  0
  8  7  2  0  0  0  0
  9  4  2  0  0  0  0
 10  1  1  0  0  0  0
 10 11  1  0  0  0  0
 11 32  1  0  0  0  0
 12 11  2  0  0  0  0
 12 33  1  0  0  0  0
 13 12  1  0  0  0  0
 14 15  1  0  0  0  0
 14 13  2  0  0  0  0
 15 10  2  0  0  0  0
 16  1  1  0  0  0  0
 17 37  1  0  0  0  0
 17 16  2  0  0  0  0
 18 17  1  0  0  0  0
 19 20  1  0  0  0  0
 19 18  2  0  0  0  0
 20 21  2  0  0  0  0
 21 41  1  0  0  0  0
 21 16  1  0  0  0  0
 22 27  2  0  0  0  0
 22 23  1  0  0  0  0
 23 24  2  0  0  0  0
 24 25  1  0  0  0  0
 24 43  1  0  0  0  0
 25 44  1  0  0  0  0
 26 45  1  0  0  0  0
 26 25  2  0  0  0  0
 27 26  1  0  0  0  0
 29  7  1  0  0  0  0
 30  8  1  0  0  0  0
 31  9  1  0  0  0  0
 34 13  1  0  0  0  0
 35 14  1  0  0  0  0
 36 15  1  0  0  0  0
 38 18  1  0  0  0  0
 39 19  1  0  0  0  0
 40 20  1  0  0  0  0
 42 23  1  0  0  0  0
 46 27  1  0  0  0  0
M  END
