1
q = 0.0, confidence = 0.944

 21 21  0  0  0  0  0  0  0  0999 V2000
   -0.0627   -1.3919   -1.8888 S   0  0  0  0  0  1  0  0  0  0  0  0
    5.2391    2.2746   -0.5694 S   0  0  0  0  0  0  0  0  0  0  0  0
    7.3393    4.4060   -0.3162 Cl  0  0  0  0  0  0  0  0  0  0  0  0
    4.3841   -0.2759    0.1211 C   0  0  0  0  0  0  0  0  0  0  0  0
    2.3708   -0.8264   -0.8612 N   0  0  0  0  0  0  0  0  0  0  0  0
    2.3707   -1.8210   -0.5124 H   0  0  0  0  0  0  0  0  0  0  0  0
    3.3793    0.0498   -0.6513 N   0  0  0  0  0  0  0  0  0  0  0  0
    5.4184    0.7386    0.2637 C   0  0  0  0  0  0  0  0  0  0  0  0
    1.3053   -0.4062   -1.5992 C   0  0  0  0  0  0  0  0  0  0  0  0
    1.3823    0.8354   -2.1082 N   0  0  0  0  0  4  0  0  0  0  0  0
    2.2405    1.3676   -1.9321 H   0  0  0  0  0  0  0  0  0  0  0  0
    0.6011    1.2032   -2.6456 H   0  0  0  0  0  0  0  0  0  0  0  0
    6.6084    0.7038    0.9867 C   0  0  0  0  0  0  0  0  0  0  0  0
    6.9242   -0.1665    1.5769 H   0  0  0  0  0  0  0  0  0  0  0  0
    7.3777    1.8961    0.8837 C   0  0  0  0  0  0  0  0  0  0  0  0
    8.3431    2.0690    1.3756 H   0  0  0  0  0  0  0  0  0  0  0  0
    6.7606    2.8354    0.0750 C   0  0  0  0  0  0  0  0  0  0  0  0
    4.5248   -1.5955    0.8265 C   0  0  0  0  0  0  0  0  0  0  0  0
    3.5590   -1.9305    1.2552 H   0  0  0  0  0  0  0  0  0  0  0  0
    5.2740   -1.5520    1.6359 H   0  0  0  0  0  0  0  0  0  0  0  0
    4.8287   -2.3921    0.1152 H   0  0  0  0  0  0  0  0  0  0  0  0
  1  9  1  0  0  0  0
  2 17  1  0  0  0  0
  2  8  1  0  0  0  0
  3 17  1  0  0  0  0
  4  8  1  0  0  0  0
  4 18  1  0  0  0  0
  5  7  1  0  0  0  0
  5  6  1  0  0  0  0
  7  4  2  0  0  0  0
  8 13  2  0  0  0  0
  9  5  1  0  0  0  0
 10 11  1  0  0  0  0
 10  9  2  0  0  0  0
 12 10  1  0  0  0  0
 13 14  1  0  0  0  0
 15 13  1  0  0  0  0
 15 16  1  0  0  0  0
 17 15  2  0  0  0  0
 18 19  1  0  0  0  0
 18 20  1  0  0  0  0
 21 18  1  0  0  0  0
M  END
