1
q = 0.0, confidence = 0.994

 19 20  0  0  1  0  0  0  0  0999 V2000
   -1.3377    2.5918    0.0400 S   0  0  0  0  0  1  0  0  0  0  0  0
   -3.8196    1.4002   -0.0987 N   0  0  0  0  0  0  0  0  0  0  0  0
   -2.1876   -0.0028    0.3900 N   0  0  0  0  0  0  0  0  0  0  0  0
   -1.2207   -0.3069    0.6248 H   0  0  0  0  0  0  0  0  0  0  0  0
   -4.3994    0.1368    0.0419 C   0  0  0  0  0  0  0  0  0  0  0  0
   -3.3477   -0.7637    0.3524 C   0  0  0  0  0  0  0  0  0  0  0  0
   -2.4627    1.3056    0.1101 C   0  0  2  0  0  3  0  0  0  0  0  0
   -3.5884   -2.1298    0.5445 C   0  0  0  0  0  0  0  0  0  0  0  0
   -2.7715   -2.8263    0.7798 H   0  0  0  0  0  0  0  0  0  0  0  0
   -4.5337    2.6181   -0.4315 C   0  0  0  0  0  0  0  0  0  0  0  0
   -5.2134    2.9103    0.3939 H   0  0  0  0  0  0  0  0  0  0  0  0
   -5.1263    2.4702   -1.3559 H   0  0  0  0  0  0  0  0  0  0  0  0
   -3.7919    3.4215   -0.5951 H   0  0  0  0  0  0  0  0  0  0  0  0
   -5.7252   -0.2988   -0.0788 C   0  0  0  0  0  0  0  0  0  0  0  0
   -6.5427    0.3967   -0.3137 H   0  0  0  0  0  0  0  0  0  0  0  0
   -4.9176   -2.5661    0.4219 C   0  0  0  0  0  0  0  0  0  0  0  0
   -5.1485   -3.6312    0.5678 H   0  0  0  0  0  0  0  0  0  0  0  0
   -5.9641   -1.6690    0.1170 C   0  0  0  0  0  0  0  0  0  0  0  0
   -6.9918   -2.0505    0.0312 H   0  0  0  0  0  0  0  0  0  0  0  0
  2  5  1  0  0  0  0
  2  7  1  0  0  0  0
  3  4  1  0  0  0  0
  5  6  1  0  0  0  0
  6  3  1  0  0  0  0
  6  8  2  0  0  0  0
  7  1  1  1  0  0  0
  7  3  1  0  0  0  0
  8  9  1  0  0  0  0
 10  2  1  0  0  0  0
 10 11  1  0  0  0  0
 12 10  1  0  0  0  0
 13 10  1  0  0  0  0
 14  5  2  0  0  0  0
 14 18  1  0  0  0  0
 15 14  1  0  0  0  0
 16  8  1  0  0  0  0
 16 17  1  0  0  0  0
 18 16  2  0  0  0  0
 19 18  1  0  0  0  0
M  END
