1
q = -1.0

 14 14  0  0  0  0  0  0  0  0999 V2000
   -1.8000   -1.6036   -0.6240 S   0  0  0  0  0  1  0  0  0  0  0  0
   -1.0252   -1.1446    2.0415 S   0  0  0  0  0  0  0  0  0  0  0  0
   -6.1068   -5.4774    2.7912 F   0  0  0  0  0  0  0  0  0  0  0  0
   -2.0995   -1.9844    1.0071 C   0  0  0  0  0  0  0  0  0  0  0  0
   -3.1452   -2.8928    1.4711 C   0  0  0  0  0  0  0  0  0  0  0  0
   -3.9919   -3.5557    0.5480 C   0  0  0  0  0  0  0  0  0  0  0  0
   -3.8558   -3.3769   -0.5295 H   0  0  0  0  0  0  0  0  0  0  0  0
   -4.9904   -4.4270    0.9866 C   0  0  0  0  0  0  0  0  0  0  0  0
   -5.6534   -4.9474    0.2810 H   0  0  0  0  0  0  0  0  0  0  0  0
   -5.1479   -4.6407    2.3643 C   0  0  0  0  0  0  0  0  0  0  0  0
   -4.3284   -4.0016    3.3059 C   0  0  0  0  0  0  0  0  0  0  0  0
   -4.4844   -4.1953    4.3766 H   0  0  0  0  0  0  0  0  0  0  0  0
   -3.3328   -3.1322    2.8550 C   0  0  0  0  0  0  0  0  0  0  0  0
   -2.6821   -2.6212    3.5812 H   0  0  0  0  0  0  0  0  0  0  0  0
  1  4  1  0  0  0  0
  4  5  1  0  0  0  0
  4  2  2  0  0  0  0
  5 13  1  0  0  0  0
  6  8  1  0  0  0  0
  6  5  2  0  0  0  0
  7  6  1  0  0  0  0
  8 10  2  0  0  0  0
  9  8  1  0  0  0  0
 10  3  1  0  0  0  0
 10 11  1  0  0  0  0
 11 12  1  0  0  0  0
 13 11  2  0  0  0  0
 13 14  1  0  0  0  0
M  END
