1
q = -1.0

 28 29  0  0  0  0  0  0  0  0999 V2000
    2.2923   -0.7703   -0.3702 S   0  0  0  0  0  1  0  0  0  0  0  0
    4.6414   -0.8580    1.6649 O   0  0  0  0  0  0  0  0  0  0  0  0
    0.8835    2.0065    0.1240 N   0  0  0  0  0  0  0  0  0  0  0  0
    4.3153    1.0208   -0.3150 N   0  0  0  0  0  0  0  0  0  0  0  0
    3.0349    0.8291   -0.2166 C   0  0  0  0  0  0  0  0  0  0  0  0
    2.2188    2.0815   -0.0092 C   0  0  0  0  0  0  0  0  0  0  0  0
    2.8883    3.3263    0.0471 C   0  0  0  0  0  0  0  0  0  0  0  0
    2.1439    4.4926    0.2399 C   0  0  0  0  0  0  0  0  0  0  0  0
    0.7487    4.3986    0.3787 C   0  0  0  0  0  0  0  0  0  0  0  0
    0.1676    3.1254    0.3126 C   0  0  0  0  0  0  0  0  0  0  0  0
    5.2631    0.0105   -0.4409 C   0  0  0  0  0  0  0  0  0  0  0  0
    6.1283   -0.0028   -1.5535 C   0  0  0  0  0  0  0  0  0  0  0  0
    7.1133   -0.9905   -1.7018 C   0  0  0  0  0  0  0  0  0  0  0  0
    7.2684   -1.9701   -0.7121 C   0  0  0  0  0  0  0  0  0  0  0  0
    6.4448   -1.9584    0.4275 C   0  0  0  0  0  0  0  0  0  0  0  0
    5.4520   -0.9746    0.5788 C   0  0  0  0  0  0  0  0  0  0  0  0
    4.6245   -1.9067    2.6075 C   0  0  0  0  0  0  0  0  0  0  0  0
    3.9809    3.3255   -0.0663 H   0  0  0  0  0  0  0  0  0  0  0  0
    2.6471    5.4710    0.2825 H   0  0  0  0  0  0  0  0  0  0  0  0
    0.1218    5.2892    0.5335 H   0  0  0  0  0  0  0  0  0  0  0  0
   -0.9248    2.9959    0.4092 H   0  0  0  0  0  0  0  0  0  0  0  0
    5.9862    0.7771   -2.3159 H   0  0  0  0  0  0  0  0  0  0  0  0
    7.7584   -0.9914   -2.5930 H   0  0  0  0  0  0  0  0  0  0  0  0
    8.0379   -2.7502   -0.8146 H   0  0  0  0  0  0  0  0  0  0  0  0
    6.5822   -2.7243    1.2031 H   0  0  0  0  0  0  0  0  0  0  0  0
    3.8398   -1.6529    3.3445 H   0  0  0  0  0  0  0  0  0  0  0  0
    5.5985   -2.0101    3.1393 H   0  0  0  0  0  0  0  0  0  0  0  0
    4.3717   -2.8814    2.1328 H   0  0  0  0  0  0  0  0  0  0  0  0
  1  5  1  0  0  0  0
  2 17  1  0  0  0  0
  3 10  1  0  0  0  0
  4  5  2  0  0  0  0
  5  6  1  0  0  0  0
  6  7  1  0  0  0  0
  6  3  2  0  0  0  0
  7  8  2  0  0  0  0
  8 19  1  0  0  0  0
  8  9  1  0  0  0  0
  9 20  1  0  0  0  0
 10  9  2  0  0  0  0
 10 21  1  0  0  0  0
 11  4  1  0  0  0  0
 11 16  1  0  0  0  0
 12 11  2  0  0  0  0
 13 12  1  0  0  0  0
 13 14  2  0  0  0  0
 14 15  1  0  0  0  0
 15 16  2  0  0  0  0
 15 25  1  0  0  0  0
 16  2  1  0  0  0  0
 17 27  1  0  0  0  0
 17 26  1  0  0  0  0
 18  7  1  0  0  0  0
 22 12  1  0  0  0  0
 23 13  1  0  0  0  0
 24 14  1  0  0  0  0
 28 17  1  0  0  0  0
M  END
