1
q = 0.0, confidence = 0.952

 10  9  0  0  1  0  0  0  0  0999 V2000
   -1.4120   -2.3900    0.8831 S   0  0  0  0  0  1  0  0  0  0  0  0
   -5.4653   -3.2916   -0.4287 S   0  0  0  0  0  0  0  0  0  0  0  0
   -2.7166   -2.7604   -1.4347 N   0  0  0  0  0  0  0  0  0  0  0  0
   -4.1780   -2.6776    1.8253 N   0  0  0  0  0  0  0  0  0  0  0  0
   -2.7567   -2.6796   -0.1177 C   0  0  1  0  0  3  0  0  0  0  0  0
   -4.1415   -2.8777    0.5019 C   0  0  0  0  0  0  0  0  0  0  0  0
   -3.6377   -2.9239   -1.8792 H   0  0  0  0  0  0  0  0  0  0  0  0
   -1.8856   -2.4252   -1.9969 H   0  0  0  0  0  0  0  0  0  0  0  0
   -5.0606   -2.7698    2.3266 H   0  0  0  0  0  0  0  0  0  0  0  0
   -3.2921   -2.4234    2.2897 H   0  0  0  0  0  0  0  0  0  0  0  0
  2  6  2  0  0  0  0
  3  5  1  0  0  0  0
  4 10  1  0  0  0  0
  4  9  1  0  0  0  0
  5  6  1  0  0  0  0
  5  1  1  1  0  0  0
  6  4  1  0  0  0  0
  7  3  1  0  0  0  0
  8  3  1  0  0  0  0
M  END
