1
q = -1.0

 22 22  0  0  0  0  0  0  0  0999 V2000
    1.0234   -0.6653   -1.9670 As  0  0  0  0  0  2  0  0  0  0  0  0
    2.8304   -0.4371   -1.2182 C   0  0  0  0  0  0  0  0  0  0  0  0
    3.5496   -1.4501   -0.5230 C   0  0  0  0  0  0  0  0  0  0  0  0
    4.8439   -1.1649   -0.0469 C   0  0  0  0  0  0  0  0  0  0  0  0
    5.3861   -1.9530    0.5023 H   0  0  0  0  0  0  0  0  0  0  0  0
    5.4652    0.0821   -0.2400 C   0  0  0  0  0  0  0  0  0  0  0  0
    4.7422    1.0659   -0.9357 C   0  0  0  0  0  0  0  0  0  0  0  0
    5.1971    2.0574   -1.0974 H   0  0  0  0  0  0  0  0  0  0  0  0
    3.4447    0.8307   -1.4247 C   0  0  0  0  0  0  0  0  0  0  0  0
    2.9621   -2.8109   -0.2518 C   0  0  0  0  0  0  0  0  0  0  0  0
    3.6685   -3.4443    0.3193 H   0  0  0  0  0  0  0  0  0  0  0  0
    2.7049   -3.3447   -1.1906 H   0  0  0  0  0  0  0  0  0  0  0  0
    2.0199   -2.7332    0.3323 H   0  0  0  0  0  0  0  0  0  0  0  0
    6.8654    0.3402    0.2578 C   0  0  0  0  0  0  0  0  0  0  0  0
    7.0526    1.4218    0.4095 H   0  0  0  0  0  0  0  0  0  0  0  0
    7.6257   -0.0242   -0.4672 H   0  0  0  0  0  0  0  0  0  0  0  0
    7.0605   -0.1807    1.2171 H   0  0  0  0  0  0  0  0  0  0  0  0
    2.6980    1.9387   -2.1206 C   0  0  0  0  0  0  0  0  0  0  0  0
    2.3512    1.6240   -3.1285 H   0  0  0  0  0  0  0  0  0  0  0  0
    3.3209    2.8475   -2.2302 H   0  0  0  0  0  0  0  0  0  0  0  0
    1.7843    2.2212   -1.5524 H   0  0  0  0  0  0  0  0  0  0  0  0
    0.8995   -2.1687   -1.7003 H   0  0  0  0  0  0  0  0  0  0  0  0
  1 22  1  0  0  0  0
  1  2  1  0  0  0  0
  2  3  1  0  0  0  0
  3 10  1  0  0  0  0
  3  4  2  0  0  0  0
  4  5  1  0  0  0  0
  6  4  1  0  0  0  0
  6 14  1  0  0  0  0
  7  6  2  0  0  0  0
  8  7  1  0  0  0  0
  9  2  2  0  0  0  0
  9  7  1  0  0  0  0
 10 11  1  0  0  0  0
 10 13  1  0  0  0  0
 12 10  1  0  0  0  0
 14 15  1  0  0  0  0
 14 17  1  0  0  0  0
 16 14  1  0  0  0  0
 18 21  1  0  0  0  0
 18  9  1  0  0  0  0
 19 18  1  0  0  0  0
 20 18  1  0  0  0  0
M  END
