1
q = -1.0

 23 24  0  0  0  0  0  0  0  0999 V2000
    1.6498   -0.2058    1.2035 As  0  0  0  0  0  2  0  0  0  0  0  0
    2.6207   -1.6995    0.3605 C   0  0  0  0  0  0  0  0  0  0  0  0
    3.2494   -1.6136   -0.9024 C   0  0  0  0  0  0  0  0  0  0  0  0
    3.1990   -0.6768   -1.4750 H   0  0  0  0  0  0  0  0  0  0  0  0
    3.9429   -2.7103   -1.4363 C   0  0  0  0  0  0  0  0  0  0  0  0
    4.4268   -2.6186   -2.4214 H   0  0  0  0  0  0  0  0  0  0  0  0
    4.0088   -3.9233   -0.7299 C   0  0  0  0  0  0  0  0  0  0  0  0
    4.5461   -4.7850   -1.1544 H   0  0  0  0  0  0  0  0  0  0  0  0
    3.3877   -4.0228    0.5247 C   0  0  0  0  0  0  0  0  0  0  0  0
    3.4423   -4.9633    1.0952 H   0  0  0  0  0  0  0  0  0  0  0  0
    2.7137   -2.9178    1.0692 C   0  0  0  0  0  0  0  0  0  0  0  0
    2.2623   -2.9954    2.0708 H   0  0  0  0  0  0  0  0  0  0  0  0
    2.8371    1.2961    0.7758 C   0  0  0  0  0  0  0  0  0  0  0  0
    2.3330    2.6153    0.7065 C   0  0  0  0  0  0  0  0  0  0  0  0
    1.2473    2.7910    0.7583 H   0  0  0  0  0  0  0  0  0  0  0  0
    3.1961    3.7109    0.5498 C   0  0  0  0  0  0  0  0  0  0  0  0
    2.7779    4.7292    0.5081 H   0  0  0  0  0  0  0  0  0  0  0  0
    4.5814    3.5152    0.4337 C   0  0  0  0  0  0  0  0  0  0  0  0
    5.2568    4.3739    0.3012 H   0  0  0  0  0  0  0  0  0  0  0  0
    5.0933    2.2081    0.4896 C   0  0  0  0  0  0  0  0  0  0  0  0
    6.1779    2.0367    0.4032 H   0  0  0  0  0  0  0  0  0  0  0  0
    4.2356    1.1131    0.6701 C   0  0  0  0  0  0  0  0  0  0  0  0
    4.6601    0.0998    0.7344 H   0  0  0  0  0  0  0  0  0  0  0  0
  2 11  1  0  0  0  0
  2  1  1  0  0  0  0
  3  2  2  0  0  0  0
  4  3  1  0  0  0  0
  5  3  1  0  0  0  0
  5  7  2  0  0  0  0
  6  5  1  0  0  0  0
  7  9  1  0  0  0  0
  8  7  1  0  0  0  0
  9 11  2  0  0  0  0
  9 10  1  0  0  0  0
 11 12  1  0  0  0  0
 13  1  1  0  0  0  0
 14 15  1  0  0  0  0
 14 13  1  0  0  0  0
 16 14  2  0  0  0  0
 17 16  1  0  0  0  0
 18 20  2  0  0  0  0
 18 16  1  0  0  0  0
 19 18  1  0  0  0  0
 20 22  1  0  0  0  0
 21 20  1  0  0  0  0
 22 23  1  0  0  0  0
 22 13  2  0  0  0  0
M  END
