1
q = 0.0, confidence = 0.938

 58 57  0  0  0  0  0  0  0  0999 V2000
    0.6900   -0.1366   -0.1126 As  0  0  0  0  0  2  0  0  0  0  0  0
    2.5209   -0.8435   -0.0283 C   0  0  0  0  0  0  0  0  0  0  0  0
    3.1350    0.0743   -0.1722 H   0  0  0  0  0  0  0  0  0  0  0  0
    2.9601   -1.9225   -1.5541 Si  0  0  0  0  0  0  0  0  0  0  0  0
    1.9867   -3.5393   -1.6494 C   0  0  0  0  0  0  0  0  0  0  0  0
    2.1694   -4.1981   -0.7786 H   0  0  0  0  0  0  0  0  0  0  0  0
    2.2959   -4.0870   -2.5641 H   0  0  0  0  0  0  0  0  0  0  0  0
    0.8950   -3.3578   -1.7181 H   0  0  0  0  0  0  0  0  0  0  0  0
    2.5904   -0.9038   -3.1065 C   0  0  0  0  0  0  0  0  0  0  0  0
    1.5064   -0.6802   -3.1904 H   0  0  0  0  0  0  0  0  0  0  0  0
    2.8889   -1.4620   -4.0179 H   0  0  0  0  0  0  0  0  0  0  0  0
    3.1336    0.0630   -3.1074 H   0  0  0  0  0  0  0  0  0  0  0  0
    4.8109   -2.3240   -1.4912 C   0  0  0  0  0  0  0  0  0  0  0  0
    5.0524   -3.0109   -0.6550 H   0  0  0  0  0  0  0  0  0  0  0  0
    5.4260   -1.4088   -1.3735 H   0  0  0  0  0  0  0  0  0  0  0  0
    5.1192   -2.8218   -2.4339 H   0  0  0  0  0  0  0  0  0  0  0  0
    2.9795   -1.4587    1.7362 Si  0  0  0  0  0  0  0  0  0  0  0  0
    2.5849   -3.2965    1.9361 C   0  0  0  0  0  0  0  0  0  0  0  0
    1.5234   -3.5062    1.6892 H   0  0  0  0  0  0  0  0  0  0  0  0
    2.7553   -3.6069    2.9876 H   0  0  0  0  0  0  0  0  0  0  0  0
    3.2227   -3.9301    1.2876 H   0  0  0  0  0  0  0  0  0  0  0  0
    2.0330   -0.4879    3.0585 C   0  0  0  0  0  0  0  0  0  0  0  0
    0.9418   -0.6753    3.0112 H   0  0  0  0  0  0  0  0  0  0  0  0
    2.1999    0.6040    2.9645 H   0  0  0  0  0  0  0  0  0  0  0  0
    2.3878   -0.7962    4.0641 H   0  0  0  0  0  0  0  0  0  0  0  0
    4.8272   -1.1304    1.9867 C   0  0  0  0  0  0  0  0  0  0  0  0
    5.4587   -1.6769    1.2596 H   0  0  0  0  0  0  0  0  0  0  0  0
    5.1351   -1.4374    3.0077 H   0  0  0  0  0  0  0  0  0  0  0  0
    5.0395   -0.0462    1.8823 H   0  0  0  0  0  0  0  0  0  0  0  0
   -0.7617   -1.8614    0.1461 As  0  0  0  0  0  2  0  0  0  0  0  0
   -2.4230   -0.7724    0.0448 C   0  0  0  0  0  0  0  0  0  0  0  0
   -2.0996    0.2936    0.0107 H   0  0  0  0  0  0  0  0  0  0  0  0
   -3.4716   -0.8899    1.6471 Si  0  0  0  0  0  0  0  0  0  0  0  0
   -2.3452   -1.0981    3.1566 C   0  0  0  0  0  0  0  0  0  0  0  0
   -1.7596   -2.0396    3.1103 H   0  0  0  0  0  0  0  0  0  0  0  0
   -2.9548   -1.1244    4.0839 H   0  0  0  0  0  0  0  0  0  0  0  0
   -1.6323   -0.2541    3.2456 H   0  0  0  0  0  0  0  0  0  0  0  0
   -4.4253    0.7350    1.8296 C   0  0  0  0  0  0  0  0  0  0  0  0
   -3.7224    1.5873    1.9297 H   0  0  0  0  0  0  0  0  0  0  0  0
   -5.0569    0.7121    2.7418 H   0  0  0  0  0  0  0  0  0  0  0  0
   -5.0832    0.9331    0.9608 H   0  0  0  0  0  0  0  0  0  0  0  0
   -4.6690   -2.3561    1.5925 C   0  0  0  0  0  0  0  0  0  0  0  0
   -4.1285   -3.3127    1.4401 H   0  0  0  0  0  0  0  0  0  0  0  0
   -5.4181   -2.2531    0.7820 H   0  0  0  0  0  0  0  0  0  0  0  0
   -5.2197   -2.4297    2.5530 H   0  0  0  0  0  0  0  0  0  0  0  0
   -3.2862   -1.1138   -1.6335 Si  0  0  0  0  0  0  0  0  0  0  0  0
   -3.6214   -2.9665   -1.8443 C   0  0  0  0  0  0  0  0  0  0  0  0
   -4.3272   -3.3567   -1.0853 H   0  0  0  0  0  0  0  0  0  0  0  0
   -2.6823   -3.5537   -1.7718 H   0  0  0  0  0  0  0  0  0  0  0  0
   -4.0579   -3.1583   -2.8465 H   0  0  0  0  0  0  0  0  0  0  0  0
   -4.9041   -0.1365   -1.7415 C   0  0  0  0  0  0  0  0  0  0  0  0
   -5.6405   -0.4598   -0.9786 H   0  0  0  0  0  0  0  0  0  0  0  0
   -5.3668   -0.2785   -2.7401 H   0  0  0  0  0  0  0  0  0  0  0  0
   -4.7131    0.9472   -1.6059 H   0  0  0  0  0  0  0  0  0  0  0  0
   -2.1407   -0.5623   -3.0387 C   0  0  0  0  0  0  0  0  0  0  0  0
   -1.8852    0.5133   -2.9622 H   0  0  0  0  0  0  0  0  0  0  0  0
   -2.6338   -0.7246   -4.0196 H   0  0  0  0  0  0  0  0  0  0  0  0
   -1.1931   -1.1384   -3.0331 H   0  0  0  0  0  0  0  0  0  0  0  0
  1  2  1  0  0  0  0
  1 30  1  0  0  0  0
  2 17  1  0  0  0  0
  3  2  1  0  0  0  0
  4 13  1  0  0  0  0
  4  2  1  0  0  0  0
  5  4  1  0  0  0  0
  5  6  1  0  0  0  0
  7  5  1  0  0  0  0
  8  5  1  0  0  0  0
  9  4  1  0  0  0  0
 10  9  1  0  0  0  0
 11  9  1  0  0  0  0
 12  9  1  0  0  0  0
 13 15  1  0  0  0  0
 13 14  1  0  0  0  0
 16 13  1  0  0  0  0
 17 18  1  0  0  0  0
 17 26  1  0  0  0  0
 17 22  1  0  0  0  0
 18 20  1  0  0  0  0
 19 18  1  0  0  0  0
 21 18  1  0  0  0  0
 22 25  1  0  0  0  0
 23 22  1  0  0  0  0
 24 22  1  0  0  0  0
 26 28  1  0  0  0  0
 27 26  1  0  0  0  0
 29 26  1  0  0  0  0
 31 30  1  0  0  0  0
 31 33  1  0  0  0  0
 32 31  1  0  0  0  0
 33 38  1  0  0  0  0
 33 34  1  0  0  0  0
 34 37  1  0  0  0  0
 34 36  1  0  0  0  0
 35 34  1  0  0  0  0
 38 39  1  0  0  0  0
 38 40  1  0  0  0  0
 41 38  1  0  0  0  0
 42 33  1  0  0  0  0
 42 45  1  0  0  0  0
 43 42  1  0  0  0  0
 44 42  1  0  0  0  0
 46 31  1  0  0  0  0
 47 49  1  0  0  0  0
 47 46  1  0  0  0  0
 47 48  1  0  0  0  0
 50 47  1  0  0  0  0
 51 46  1  0  0  0  0
 51 54  1  0  0  0  0
 51 52  1  0  0  0  0
 53 51  1  0  0  0  0
 55 58  1  0  0  0  0
 55 56  1  0  0  0  0
 55 46  1  0  0  0  0
 57 55  1  0  0  0  0
M  END
