1
q = -1.0

  3  2  0  0  0  0  0  0  0  0999 V2000
   -0.1518   -1.2747   -0.0296 As  0  0  0  0  0  0  0  0  0  0  0  0
   -0.4530   -2.2687    2.4215 I   0  0  0  0  0  0  0  0  0  0  0  0
   -2.2934   -2.2311   -1.3027 I   0  0  0  0  0  0  0  0  0  0  0  0
  1  2  1  0  0  0  0
  3  1  1  0  0  0  0
M  END
