1,2,3
q = -1.0, confidence = 0.0

 34 34  0  0  0  0  0  0  0  0999 V2000
    0.1689   -1.9707    0.0489 S   0  0  0  0  0  1  0  0  0  0  0  0
    1.9222    0.3443   -0.3306 N   0  0  0  0  0  0  0  0  0  0  0  0
    0.0510    2.1731   -0.2867 N   0  0  0  0  0  0  0  0  0  0  0  0
    2.0237   -2.1808    0.0563 C   0  0  0  0  0  0  0  0  0  0  0  0
    2.5730   -0.9632   -0.6892 C   0  0  0  0  0  0  0  0  0  0  0  0
    2.3634   -1.1167   -1.7643 H   0  0  0  0  0  0  0  0  0  0  0  0
    3.6767   -0.8601   -0.5660 H   0  0  0  0  0  0  0  0  0  0  0  0
    2.4549    0.8977    0.9588 C   0  0  0  0  0  0  0  0  0  0  0  0
    3.5635    0.7931    0.9567 H   0  0  0  0  0  0  0  0  0  0  0  0
    2.0663    0.2630    1.7741 H   0  0  0  0  0  0  0  0  0  0  0  0
    2.0875    2.3620    1.1838 C   0  0  0  0  0  0  0  0  0  0  0  0
    2.3763    2.6340    2.2189 H   0  0  0  0  0  0  0  0  0  0  0  0
    2.7028    3.0143    0.5313 H   0  0  0  0  0  0  0  0  0  0  0  0
    0.6107    2.6976    0.9950 C   0  0  0  0  0  0  0  0  0  0  0  0
    0.4862    3.8053    1.0214 H   0  0  0  0  0  0  0  0  0  0  0  0
   -0.0077    2.2801    1.8156 H   0  0  0  0  0  0  0  0  0  0  0  0
    2.1034    1.3266   -1.4420 C   0  0  0  0  0  0  0  0  0  0  0  0
    2.0540    0.7580   -2.3872 H   0  0  0  0  0  0  0  0  0  0  0  0
    3.1172    1.7802   -1.3890 H   0  0  0  0  0  0  0  0  0  0  0  0
    0.9823    2.3883   -1.4278 C   0  0  0  0  0  0  0  0  0  0  0  0
    1.3853    3.4263   -1.4070 H   0  0  0  0  0  0  0  0  0  0  0  0
    0.3813    2.2968   -2.3513 H   0  0  0  0  0  0  0  0  0  0  0  0
   -1.2439    2.8256   -0.5641 C   0  0  0  0  0  0  0  0  0  0  0  0
   -1.7227    2.3502   -1.4396 H   0  0  0  0  0  0  0  0  0  0  0  0
   -1.1018    3.9107   -0.7632 H   0  0  0  0  0  0  0  0  0  0  0  0
   -1.9142    2.7100    0.3062 H   0  0  0  0  0  0  0  0  0  0  0  0
    2.5351   -2.3633    1.4944 C   0  0  0  0  0  0  0  0  0  0  0  0
    3.6458   -2.3857    1.5236 H   0  0  0  0  0  0  0  0  0  0  0  0
    2.1666   -3.3266    1.8970 H   0  0  0  0  0  0  0  0  0  0  0  0
    2.1761   -1.5794    2.1856 H   0  0  0  0  0  0  0  0  0  0  0  0
    2.3637   -3.4411   -0.7572 C   0  0  0  0  0  0  0  0  0  0  0  0
    1.9893   -3.3648   -1.7967 H   0  0  0  0  0  0  0  0  0  0  0  0
    1.8998   -4.3327   -0.2918 H   0  0  0  0  0  0  0  0  0  0  0  0
    3.4614   -3.6098   -0.7828 H   0  0  0  0  0  0  0  0  0  0  0  0
  1  4  1  0  0  0  0
  2  8  1  0  0  0  0
  3 14  1  0  0  0  0
  4 27  1  0  0  0  0
  5  7  1  0  0  0  0
  5  2  1  0  0  0  0
  5  4  1  0  0  0  0
  6  5  1  0  0  0  0
  8 11  1  0  0  0  0
  8 10  1  0  0  0  0
  9  8  1  0  0  0  0
 11 12  1  0  0  0  0
 13 11  1  0  0  0  0
 14 15  1  0  0  0  0
 14 11  1  0  0  0  0
 14 16  1  0  0  0  0
 17 20  1  0  0  0  0
 17 19  1  0  0  0  0
 17  2  1  0  0  0  0
 18 17  1  0  0  0  0
 20 21  1  0  0  0  0
 20  3  1  0  0  0  0
 22 20  1  0  0  0  0
 23  3  1  0  0  0  0
 23 26  1  0  0  0  0
 24 23  1  0  0  0  0
 25 23  1  0  0  0  0
 27 28  1  0  0  0  0
 27 29  1  0  0  0  0
 27 30  1  0  0  0  0
 31 33  1  0  0  0  0
 31  4  1  0  0  0  0
 32 31  1  0  0  0  0
 34 31  1  0  0  0  0
M  END
