1,5,43
q = -1.0, confidence = 0.0

 43 45  0  0  1  0  0  0  0  0999 V2000
    0.8322   -1.9113    0.4910 S   0  0  0  0  0  1  0  0  0  0  0  0
    1.7989   -0.6281   -0.1936 C   0  0  0  0  0  0  0  0  0  0  0  0
    1.4674    0.6590   -0.2822 N   0  0  0  0  0  0  0  0  0  0  0  0
    0.2778    1.1996   -0.0044 C   0  0  2  0  0  3  0  0  0  0  0  0
   -0.8857    0.5547    0.1234 N   0  0  0  0  0  2  0  0  0  0  0  0
   -2.1181    1.3390    0.2573 C   0  0  0  0  0  0  0  0  0  0  0  0
   -2.0752    2.2854   -0.3215 H   0  0  0  0  0  0  0  0  0  0  0  0
   -2.2889    1.6362    1.3186 H   0  0  0  0  0  0  0  0  0  0  0  0
    0.3362    2.6975    0.1224 C   0  0  0  0  0  0  0  0  0  0  0  0
   -0.0409    3.3462    1.3161 C   0  0  0  0  0  0  0  0  0  0  0  0
   -0.4025    2.7508    2.1684 H   0  0  0  0  0  0  0  0  0  0  0  0
    0.0732    4.7392    1.4345 C   0  0  0  0  0  0  0  0  0  0  0  0
   -0.2101    5.2320    2.3770 H   0  0  0  0  0  0  0  0  0  0  0  0
    0.5551    5.5011    0.3584 C   0  0  0  0  0  0  0  0  0  0  0  0
    0.6390    6.5946    0.4499 H   0  0  0  0  0  0  0  0  0  0  0  0
    0.9397    4.8610   -0.8314 C   0  0  0  0  0  0  0  0  0  0  0  0
    1.3253    5.4525   -1.6758 H   0  0  0  0  0  0  0  0  0  0  0  0
    0.8424    3.4672   -0.9449 C   0  0  0  0  0  0  0  0  0  0  0  0
    1.1611    2.9539   -1.8642 H   0  0  0  0  0  0  0  0  0  0  0  0
    3.0598   -0.9537   -0.6301 N   0  0  0  0  0  0  0  0  0  0  0  0
    3.6195   -2.2990   -0.6036 C   0  0  0  0  0  0  0  0  0  0  0  0
    3.9305   -2.5739   -1.6373 H   0  0  0  0  0  0  0  0  0  0  0  0
    2.8461   -3.0151   -0.2666 H   0  0  0  0  0  0  0  0  0  0  0  0
    4.8478   -2.3244    0.3102 C   0  0  0  0  0  0  0  0  0  0  0  0
    4.5203   -2.1363    1.3630 H   0  0  0  0  0  0  0  0  0  0  0  0
    5.3432   -3.3150    0.2677 H   0  0  0  0  0  0  0  0  0  0  0  0
    5.8098   -1.3630   -0.0953 O   0  0  0  0  0  0  0  0  0  0  0  0
    5.2618   -0.0544   -0.0849 C   0  0  0  0  0  0  0  0  0  0  0  0
    6.0642    0.6331   -0.4209 H   0  0  0  0  0  0  0  0  0  0  0  0
    4.9620    0.2355    0.9532 H   0  0  0  0  0  0  0  0  0  0  0  0
    4.0396    0.0636   -1.0020 C   0  0  0  0  0  0  0  0  0  0  0  0
    3.5568    1.0539   -0.9138 H   0  0  0  0  0  0  0  0  0  0  0  0
    4.3480   -0.0997   -2.0592 H   0  0  0  0  0  0  0  0  0  0  0  0
   -3.2807    0.4996   -0.1745 C   0  0  2  0  0  3  0  0  0  0  0  0
   -4.5316    1.0089   -0.5424 C   0  0  0  0  0  0  0  0  0  0  0  0
   -4.6890    2.0972   -0.5645 H   0  0  0  0  0  0  0  0  0  0  0  0
   -5.5596    0.1164   -0.8772 C   0  0  0  0  0  0  0  0  0  0  0  0
   -6.5499    0.4915   -1.1750 H   0  0  0  0  0  0  0  0  0  0  0  0
   -5.2964   -1.2616   -0.8291 C   0  0  0  0  0  0  0  0  0  0  0  0
   -6.0699   -2.0004   -1.0830 H   0  0  0  0  0  0  0  0  0  0  0  0
   -4.0251   -1.7045   -0.4576 C   0  0  0  0  0  0  0  0  0  0  0  0
   -3.7449   -2.7674   -0.3817 H   0  0  0  0  0  0  0  0  0  0  0  0
   -3.0340   -0.8372   -0.1353 N   0  0  0  0  0  2  0  0  0  0  0  0
  2  1  1  0  0  0  0
  3  2  2  0  0  0  0
  4  3  1  6  0  0  0
  4  9  1  0  0  0  0
  4  5  1  0  0  0  0
  5  6  1  0  0  0  0
  6  8  1  0  0  0  0
  7  6  1  0  0  0  0
  9 10  1  0  0  0  0
 10 12  2  0  0  0  0
 10 11  1  0  0  0  0
 12 13  1  0  0  0  0
 14 15  1  0  0  0  0
 14 12  1  0  0  0  0
 16 14  2  0  0  0  0
 17 16  1  0  0  0  0
 18 16  1  0  0  0  0
 18  9  2  0  0  0  0
 19 18  1  0  0  0  0
 20 21  1  0  0  0  0
 20  2  1  0  0  0  0
 21 23  1  0  0  0  0
 21 24  1  0  0  0  0
 22 21  1  0  0  0  0
 24 25  1  0  0  0  0
 26 24  1  0  0  0  0
 27 28  1  0  0  0  0
 27 24  1  0  0  0  0
 28 30  1  0  0  0  0
 29 28  1  0  0  0  0
 31 32  1  0  0  0  0
 31 20  1  0  0  0  0
 31 28  1  0  0  0  0
 33 31  1  0  0  0  0
 34 43  1  0  0  0  0
 34  6  1  1  0  0  0
 35 34  1  0  0  0  0
 36 35  1  0  0  0  0
 37 39  1  0  0  0  0
 37 35  2  0  0  0  0
 38 37  1  0  0  0  0
 39 41  2  0  0  0  0
 40 39  1  0  0  0  0
 41 42  1  0  0  0  0
 41 43  1  0  0  0  0
M  END
