1,3,4
q = 0.0, confidence = 0.998

 34 35  0  0  0  0  0  0  0  0999 V2000
    0.3218    1.7028   -1.1354 S   0  0  0  0  0  0  0  0  0  0  0  0
   -0.4839    0.8432    2.2263 S   0  0  0  0  0  0  0  0  0  0  0  0
    2.1088   -0.5128   -0.2169 N   0  0  0  0  0  2  0  0  0  0  0  0
   -1.9658   -0.3457   -0.4529 N   0  0  0  0  0  2  0  0  0  0  0  0
    2.7439   -1.4593    0.5127 C   0  0  0  0  0  3  0  0  0  0  0  0
    2.0981   -2.2684    0.8907 H   0  0  0  0  0  0  0  0  0  0  0  0
    4.1205   -1.4066    0.7508 C   0  0  0  0  0  0  0  0  0  0  0  0
    4.5936   -2.2015    1.3441 H   0  0  0  0  0  0  0  0  0  0  0  0
    4.8613   -0.3362    0.2350 C   0  0  0  0  0  0  0  0  0  0  0  0
    5.9436   -0.2595    0.4159 H   0  0  0  0  0  0  0  0  0  0  0  0
    4.1990    0.6422   -0.5199 C   0  0  0  0  0  0  0  0  0  0  0  0
    4.7481    1.4934   -0.9473 H   0  0  0  0  0  0  0  0  0  0  0  0
    2.8203    0.5262   -0.7453 C   0  0  0  0  0  0  0  0  0  0  0  0
   -2.5508   -0.5096   -1.6612 C   0  0  0  0  0  3  0  0  0  0  0  0
   -1.8797   -0.7527   -2.4971 H   0  0  0  0  0  0  0  0  0  0  0  0
   -3.9303   -0.3814   -1.8388 C   0  0  0  0  0  0  0  0  0  0  0  0
   -4.3646   -0.5257   -2.8376 H   0  0  0  0  0  0  0  0  0  0  0  0
   -4.7217   -0.0632   -0.7274 C   0  0  0  0  0  0  0  0  0  0  0  0
   -5.8104    0.0582   -0.8282 H   0  0  0  0  0  0  0  0  0  0  0  0
   -4.1057    0.0902    0.5203 C   0  0  0  0  0  0  0  0  0  0  0  0
   -4.6992    0.3220    1.4163 H   0  0  0  0  0  0  0  0  0  0  0  0
   -2.7148   -0.0757    0.6494 C   0  0  0  0  0  0  0  0  0  0  0  0
    2.0830    1.4991   -1.6212 C   0  0  0  0  0  0  0  0  0  0  0  0
    2.0206    1.1130   -2.6615 H   0  0  0  0  0  0  0  0  0  0  0  0
    2.5739    2.4909   -1.6638 H   0  0  0  0  0  0  0  0  0  0  0  0
    0.4477    2.7233    0.4009 C   0  0  0  0  0  0  0  0  0  0  0  0
    1.4247    2.5041    0.8796 H   0  0  0  0  0  0  0  0  0  0  0  0
    0.4395    3.7829    0.0723 H   0  0  0  0  0  0  0  0  0  0  0  0
   -0.7105    2.4460    1.3619 C   0  0  0  0  0  0  0  0  0  0  0  0
   -1.6891    2.4611    0.8386 H   0  0  0  0  0  0  0  0  0  0  0  0
   -0.7340    3.2545    2.1205 H   0  0  0  0  0  0  0  0  0  0  0  0
   -2.0762   -0.0417    2.0124 C   0  0  0  0  0  0  0  0  0  0  0  0
   -1.7933   -1.0846    2.2821 H   0  0  0  0  0  0  0  0  0  0  0  0
   -2.8119    0.3181    2.7567 H   0  0  0  0  0  0  0  0  0  0  0  0
  1 26  1  0  0  0  0
  3  5  1  0  0  0  0
  4 22  1  0  0  0  0
  5  7  1  0  0  0  0
  5  6  1  0  0  0  0
  7  8  1  0  0  0  0
  9 10  1  0  0  0  0
  9  7  2  0  0  0  0
 11  9  1  0  0  0  0
 12 11  1  0  0  0  0
 13 11  2  0  0  0  0
 13  3  1  0  0  0  0
 14  4  1  0  0  0  0
 15 14  1  0  0  0  0
 16 14  1  0  0  0  0
 16 18  2  0  0  0  0
 17 16  1  0  0  0  0
 18 20  1  0  0  0  0
 19 18  1  0  0  0  0
 20 22  2  0  0  0  0
 20 21  1  0  0  0  0
 22 32  1  0  0  0  0
 23  1  1  0  0  0  0
 23 13  1  0  0  0  0
 24 23  1  0  0  0  0
 25 23  1  0  0  0  0
 26 27  1  0  0  0  0
 26 29  1  0  0  0  0
 28 26  1  0  0  0  0
 29 31  1  0  0  0  0
 29  2  1  0  0  0  0
 30 29  1  0  0  0  0
 32  2  1  0  0  0  0
 32 33  1  0  0  0  0
 32 34  1  0  0  0  0
M  END
