1,5,6
q = -2.0, confidence = 0.87

 21 20  0  0  0  0  0  0  0  0999 V2000
    0.9488   -1.3486   -1.4527 S   0  0  0  0  0  1  0  0  0  0  0  0
    3.7822   -2.1954   -1.3956 S   0  0  0  0  0  0  0  0  0  0  0  0
   -1.5740    2.0149    1.4762 O   0  0  0  0  0  1  0  0  0  0  0  0
    2.7791   -0.4677    0.3712 N   0  0  0  0  0  0  0  0  0  0  0  0
    1.6945    0.2322    0.8173 N   0  0  0  0  0  2  0  0  0  0  0  0
   -0.4702    1.4523    1.3687 N   0  0  0  0  0  2  0  0  0  0  0  0
    2.5063   -1.2162   -0.6787 C   0  0  0  0  0  0  0  0  0  0  0  0
    1.7700    1.0136    1.8970 C   0  0  0  0  0  0  0  0  0  0  0  0
    3.0264    1.1464    2.7011 C   0  0  0  0  0  0  0  0  0  0  0  0
    0.5561    1.7073    2.2130 C   0  0  0  0  0  0  0  0  0  0  0  0
    0.3365    2.6648    3.3397 C   0  0  0  0  0  0  0  0  0  0  0  0
    5.1797   -1.8371   -0.2881 C   0  0  0  0  0  0  0  0  0  0  0  0
    2.8560    0.8198    3.7477 H   0  0  0  0  0  0  0  0  0  0  0  0
    3.3664    2.2019    2.7409 H   0  0  0  0  0  0  0  0  0  0  0  0
    3.8211    0.5238    2.2546 H   0  0  0  0  0  0  0  0  0  0  0  0
    0.0273    3.6594    2.9541 H   0  0  0  0  0  0  0  0  0  0  0  0
   -0.4958    2.3158    3.9869 H   0  0  0  0  0  0  0  0  0  0  0  0
    1.2433    2.7865    3.9589 H   0  0  0  0  0  0  0  0  0  0  0  0
    5.4323   -0.7605   -0.3111 H   0  0  0  0  0  0  0  0  0  0  0  0
    6.0289   -2.4357   -0.6695 H   0  0  0  0  0  0  0  0  0  0  0  0
    4.9380   -2.1352    0.7493 H   0  0  0  0  0  0  0  0  0  0  0  0
  1  7  1  0  0  0  0
  2  7  1  0  0  0  0
  2 12  1  0  0  0  0
  4  5  1  0  0  0  0
  5  8  1  0  0  0  0
  6  3  1  0  0  0  0
  6 10  1  0  0  0  0
  7  4  2  0  0  0  0
  8 10  2  0  0  0  0
  8  9  1  0  0  0  0
  9 14  1  0  0  0  0
  9 13  1  0  0  0  0
 10 11  1  0  0  0  0
 11 18  1  0  0  0  0
 11 17  1  0  0  0  0
 12 21  1  0  0  0  0
 15  9  1  0  0  0  0
 16 11  1  0  0  0  0
 19 12  1  0  0  0  0
 20 12  1  0  0  0  0
M  END
