2,4,5
q = 0.0, confidence = 1.0

 40 40  0  0  0  0  0  0  0  0999 V2000
    0.2244   -0.5249   -2.4287 S   0  0  0  0  0  0  0  0  0  0  0  0
   -0.1378    1.2910    2.2100 S   0  0  0  0  0  0  0  0  0  0  0  0
   -1.5020    1.3853   -0.6175 O   0  0  0  0  0  0  0  0  0  0  0  0
    2.0950    0.6575   -0.0989 N   0  0  0  0  0  0  0  0  0  0  0  0
    1.0371   -2.3843    1.1065 N   0  0  0  0  0  0  0  0  0  0  0  0
    1.8834    1.5044   -1.2915 C   0  0  0  0  0  0  0  0  0  0  0  0
    2.7991    2.1117   -1.5011 H   0  0  0  0  0  0  0  0  0  0  0  0
    1.0757    2.2199   -1.0477 H   0  0  0  0  0  0  0  0  0  0  0  0
    1.5187    0.7627   -2.5832 C   0  0  0  0  0  0  0  0  0  0  0  0
    2.3916    0.2336   -3.0136 H   0  0  0  0  0  0  0  0  0  0  0  0
    1.2034    1.4963   -3.3521 H   0  0  0  0  0  0  0  0  0  0  0  0
   -1.3494    0.3513   -2.7893 C   0  0  0  0  0  0  0  0  0  0  0  0
   -1.3956    0.5565   -3.8772 H   0  0  0  0  0  0  0  0  0  0  0  0
   -2.1055   -0.4206   -2.5356 H   0  0  0  0  0  0  0  0  0  0  0  0
   -1.6063    1.6318   -2.0124 C   0  0  0  0  0  0  0  0  0  0  0  0
   -0.8968    2.4405   -2.3139 H   0  0  0  0  0  0  0  0  0  0  0  0
   -2.6316    1.9902   -2.2637 H   0  0  0  0  0  0  0  0  0  0  0  0
   -1.7754    2.5078    0.2079 C   0  0  0  0  0  0  0  0  0  0  0  0
   -2.8057    2.8879    0.0153 H   0  0  0  0  0  0  0  0  0  0  0  0
   -1.0756    3.3437   -0.0391 H   0  0  0  0  0  0  0  0  0  0  0  0
   -1.6890    2.1170    1.6746 C   0  0  0  0  0  0  0  0  0  0  0  0
   -2.4491    1.3457    1.9178 H   0  0  0  0  0  0  0  0  0  0  0  0
   -1.8622    3.0064    2.3117 H   0  0  0  0  0  0  0  0  0  0  0  0
    1.2154    2.3589    1.5853 C   0  0  0  0  0  0  0  0  0  0  0  0
    0.8194    3.0385    0.8060 H   0  0  0  0  0  0  0  0  0  0  0  0
    1.5773    2.9941    2.4173 H   0  0  0  0  0  0  0  0  0  0  0  0
    2.3805    1.5076    1.0753 C   0  0  0  0  0  0  0  0  0  0  0  0
    3.2363    2.1910    0.8528 H   0  0  0  0  0  0  0  0  0  0  0  0
    2.7205    0.8482    1.8985 H   0  0  0  0  0  0  0  0  0  0  0  0
    3.2083   -0.3030   -0.3123 C   0  0  0  0  0  0  0  0  0  0  0  0
    3.0812   -0.7498   -1.3176 H   0  0  0  0  0  0  0  0  0  0  0  0
    4.1708    0.2631   -0.3472 H   0  0  0  0  0  0  0  0  0  0  0  0
    0.4205   -3.1930    0.9370 H   0  0  0  0  0  0  0  0  0  0  0  0
    1.0907   -2.2940    2.1320 H   0  0  0  0  0  0  0  0  0  0  0  0
    3.3440   -1.4553    0.6927 C   0  0  0  0  0  0  0  0  0  0  0  0
    3.3301   -1.0884    1.7423 H   0  0  0  0  0  0  0  0  0  0  0  0
    4.3688   -1.8568    0.5548 H   0  0  0  0  0  0  0  0  0  0  0  0
    2.3820   -2.6383    0.5404 C   0  0  0  0  0  0  0  0  0  0  0  0
    2.2514   -2.8821   -0.5348 H   0  0  0  0  0  0  0  0  0  0  0  0
    2.8378   -3.5339    1.0153 H   0  0  0  0  0  0  0  0  0  0  0  0
  3 18  1  0  0  0  0
  4 27  1  0  0  0  0
  5 34  1  0  0  0  0
  6  8  1  0  0  0  0
  6  4  1  0  0  0  0
  7  6  1  0  0  0  0
  9  1  1  0  0  0  0
  9  6  1  0  0  0  0
 10  9  1  0  0  0  0
 11  9  1  0  0  0  0
 12 14  1  0  0  0  0
 12  1  1  0  0  0  0
 12 15  1  0  0  0  0
 13 12  1  0  0  0  0
 15  3  1  0  0  0  0
 16 15  1  0  0  0  0
 17 15  1  0  0  0  0
 18 21  1  0  0  0  0
 19 18  1  0  0  0  0
 20 18  1  0  0  0  0
 21 22  1  0  0  0  0
 21  2  1  0  0  0  0
 21 23  1  0  0  0  0
 24  2  1  0  0  0  0
 24 26  1  0  0  0  0
 25 24  1  0  0  0  0
 27 24  1  0  0  0  0
 27 29  1  0  0  0  0
 28 27  1  0  0  0  0
 30  4  1  0  0  0  0
 30 35  1  0  0  0  0
 31 30  1  0  0  0  0
 32 30  1  0  0  0  0
 33  5  1  0  0  0  0
 35 36  1  0  0  0  0
 37 35  1  0  0  0  0
 38 35  1  0  0  0  0
 38 40  1  0  0  0  0
 38  5  1  0  0  0  0
 39 38  1  0  0  0  0
M  END
