1,2,3
q = -1.0, confidence = 0.004

 34 34  0  0  1  0  0  0  0  0999 V2000
   -1.1975   -0.1709   -1.7696 S   0  0  0  0  0  1  0  0  0  0  0  0
   -0.9660   -0.4543    1.3376 N   0  0  0  0  0  0  0  0  0  0  0  0
    1.8671    0.2390   -0.1084 N   0  0  0  0  0  2  0  0  0  0  0  0
    0.1298   -1.3796    1.6932 C   0  0  0  0  0  0  0  0  0  0  0  0
   -0.2806   -2.2383    2.2785 H   0  0  0  0  0  0  0  0  0  0  0  0
    0.8180   -0.8374    2.3744 H   0  0  0  0  0  0  0  0  0  0  0  0
    0.9118   -1.9186    0.4768 C   0  0  0  0  0  0  0  0  0  0  0  0
    1.2424   -2.9568    0.6702 H   0  0  0  0  0  0  0  0  0  0  0  0
    0.2247   -1.9251   -0.4089 H   0  0  0  0  0  0  0  0  0  0  0  0
    2.0953   -1.0805    0.0885 C   0  0  1  0  0  3  0  0  0  0  0  0
    3.3863   -1.6171   -0.0802 C   0  0  0  0  0  0  0  0  0  0  0  0
    3.5525   -2.6919    0.0846 H   0  0  0  0  0  0  0  0  0  0  0  0
    2.8805    1.0534   -0.4563 C   0  0  0  0  0  0  0  0  0  0  0  0
    2.6159    2.1166   -0.5827 H   0  0  0  0  0  0  0  0  0  0  0  0
    4.1872    0.5920   -0.6451 C   0  0  0  0  0  0  0  0  0  0  0  0
    4.9857    1.2908   -0.9323 H   0  0  0  0  0  0  0  0  0  0  0  0
    4.4406   -0.7754   -0.4551 C   0  0  0  0  0  0  0  0  0  0  0  0
    5.4541   -1.1818   -0.5929 H   0  0  0  0  0  0  0  0  0  0  0  0
   -2.0799   -1.1691    0.6607 C   0  0  0  0  0  0  0  0  0  0  0  0
   -2.9081   -1.3282    1.3922 H   0  0  0  0  0  0  0  0  0  0  0  0
   -1.7264   -2.1772    0.3681 H   0  0  0  0  0  0  0  0  0  0  0  0
   -2.6249   -0.4929   -0.6173 C   0  0  0  0  0  0  0  0  0  0  0  0
   -1.4186    0.2820    2.5250 C   0  0  0  0  0  0  0  0  0  0  0  0
   -1.7661   -0.4033    3.3356 H   0  0  0  0  0  0  0  0  0  0  0  0
   -2.2518    0.9547    2.2535 H   0  0  0  0  0  0  0  0  0  0  0  0
   -0.5926    0.9095    2.9129 H   0  0  0  0  0  0  0  0  0  0  0  0
   -3.5806   -1.4816   -1.2999 C   0  0  0  0  0  0  0  0  0  0  0  0
   -4.4364   -1.7352   -0.6357 H   0  0  0  0  0  0  0  0  0  0  0  0
   -3.0533   -2.4183   -1.5707 H   0  0  0  0  0  0  0  0  0  0  0  0
   -3.9852   -1.0402   -2.2314 H   0  0  0  0  0  0  0  0  0  0  0  0
   -3.3708    0.8134   -0.3046 C   0  0  0  0  0  0  0  0  0  0  0  0
   -4.2326    0.6324    0.3765 H   0  0  0  0  0  0  0  0  0  0  0  0
   -3.7525    1.2617   -1.2422 H   0  0  0  0  0  0  0  0  0  0  0  0
   -2.7037    1.5667    0.1612 H   0  0  0  0  0  0  0  0  0  0  0  0
  1 22  1  0  0  0  0
  2  4  1  0  0  0  0
  2 23  1  0  0  0  0
  3 10  1  0  0  0  0
  4  5  1  0  0  0  0
  4  6  1  0  0  0  0
  7  8  1  0  0  0  0
  7  4  1  0  0  0  0
  9  7  1  0  0  0  0
 10  7  1  6  0  0  0
 11 12  1  0  0  0  0
 11 10  1  0  0  0  0
 13  3  1  0  0  0  0
 14 13  1  0  0  0  0
 15 13  2  0  0  0  0
 15 17  1  0  0  0  0
 16 15  1  0  0  0  0
 17 11  2  0  0  0  0
 18 17  1  0  0  0  0
 19  2  1  0  0  0  0
 19 20  1  0  0  0  0
 21 19  1  0  0  0  0
 22 31  1  0  0  0  0
 22 19  1  0  0  0  0
 23 26  1  0  0  0  0
 23 24  1  0  0  0  0
 25 23  1  0  0  0  0
 27 28  1  0  0  0  0
 27 22  1  0  0  0  0
 29 27  1  0  0  0  0
 30 27  1  0  0  0  0
 31 34  1  0  0  0  0
 31 32  1  0  0  0  0
 33 31  1  0  0  0  0
M  END
