1,2,3
q = -1.0, confidence = 0.02

 28 29  0  0  0  0  0  0  0  0999 V2000
    3.5413    0.0357   -0.0711 S   0  0  0  0  0  1  0  0  0  0  0  0
   -0.6973   -0.8148    0.0431 N   0  0  0  0  0  2  0  0  0  0  0  0
    0.8844    1.2331    0.0166 N   0  0  0  0  0  2  0  0  0  0  0  0
    1.8171    2.1924    0.0265 N   0  0  0  0  0  0  0  0  0  0  0  0
    4.0572    2.6531    0.0060 N   0  0  0  0  0  0  0  0  0  0  0  0
    3.8117    3.6415    0.0413 H   0  0  0  0  0  0  0  0  0  0  0  0
    5.0331    2.3669   -0.0201 H   0  0  0  0  0  0  0  0  0  0  0  0
   -1.3245    0.3971    0.0289 C   0  0  0  0  0  0  0  0  0  0  0  0
   -2.7730    0.4373   -0.0138 C   0  0  0  0  0  0  0  0  0  0  0  0
   -3.4870   -0.8207    0.0554 C   0  0  0  0  0  0  0  0  0  0  0  0
   -1.3690   -1.9900    0.0807 C   0  0  0  0  0  0  0  0  0  0  0  0
   -0.7225   -2.8839    0.0882 H   0  0  0  0  0  0  0  0  0  0  0  0
   -2.7494   -2.0332    0.1125 C   0  0  0  0  0  0  0  0  0  0  0  0
   -3.2723   -2.9989    0.1622 H   0  0  0  0  0  0  0  0  0  0  0  0
   -4.9120   -0.8284    0.0414 C   0  0  0  0  0  0  0  0  0  0  0  0
   -5.4285   -1.7982    0.1049 H   0  0  0  0  0  0  0  0  0  0  0  0
   -5.6304    0.3508   -0.0633 C   0  0  0  0  0  0  0  0  0  0  0  0
   -6.7305    0.3321   -0.0766 H   0  0  0  0  0  0  0  0  0  0  0  0
   -4.9399    1.5840   -0.1697 C   0  0  0  0  0  0  0  0  0  0  0  0
   -5.5065    2.5209   -0.2774 H   0  0  0  0  0  0  0  0  0  0  0  0
   -3.5523    1.6261   -0.1454 C   0  0  0  0  0  0  0  0  0  0  0  0
   -3.0616    2.5965   -0.2473 H   0  0  0  0  0  0  0  0  0  0  0  0
   -0.4193    1.5497    0.0639 C   0  0  0  0  0  0  0  0  0  0  0  0
    3.0726    1.7245   -0.0073 C   0  0  0  0  0  0  0  0  0  0  0  0
   -0.8087    2.9910    0.1965 C   0  0  0  0  0  0  0  0  0  0  0  0
   -1.5381    3.1413    1.0157 H   0  0  0  0  0  0  0  0  0  0  0  0
    0.1048    3.5734    0.4099 H   0  0  0  0  0  0  0  0  0  0  0  0
   -1.2505    3.3941   -0.7390 H   0  0  0  0  0  0  0  0  0  0  0  0
  1 24  1  0  0  0  0
  2 11  1  0  0  0  0
  3  4  1  0  0  0  0
  3 23  1  0  0  0  0
  5  6  1  0  0  0  0
  7  5  1  0  0  0  0
  8  2  1  0  0  0  0
  8 23  2  0  0  0  0
  9  8  1  0  0  0  0
  9 10  1  0  0  0  0
 10 13  1  0  0  0  0
 11 12  1  0  0  0  0
 11 13  2  0  0  0  0
 13 14  1  0  0  0  0
 15 10  2  0  0  0  0
 15 16  1  0  0  0  0
 17 15  1  0  0  0  0
 18 17  1  0  0  0  0
 19 21  1  0  0  0  0
 19 17  2  0  0  0  0
 20 19  1  0  0  0  0
 21  9  2  0  0  0  0
 22 21  1  0  0  0  0
 23 25  1  0  0  0  0
 24  5  1  0  0  0  0
 24  4  2  0  0  0  0
 25 27  1  0  0  0  0
 25 26  1  0  0  0  0
 28 25  1  0  0  0  0
M  END
