1,2,4
q = 0.0, confidence = 1.0

 35 35  0  0  0  0  0  0  0  0999 V2000
   -1.6610    1.0279    0.5395 N   0  0  0  0  0  2  0  0  0  0  0  0
    1.3120    0.5071    0.5087 N   0  0  0  0  0  0  0  0  0  0  0  0
    1.0641    1.0397    1.3560 H   0  0  0  0  0  0  0  0  0  0  0  0
   -0.1039   -0.1343   -2.2355 S   0  0  0  0  0  0  0  0  0  0  0  0
   -1.5491    1.5730    1.7819 C   0  0  0  0  0  3  0  0  0  0  0  0
   -0.9585    1.0005    2.5124 H   0  0  0  0  0  0  0  0  0  0  0  0
   -2.1629    2.7664    2.1616 C   0  0  0  0  0  0  0  0  0  0  0  0
   -2.0340    3.1418    3.1864 H   0  0  0  0  0  0  0  0  0  0  0  0
   -2.9491    3.4434    1.2197 C   0  0  0  0  0  0  0  0  0  0  0  0
   -3.4579    4.3843    1.4758 H   0  0  0  0  0  0  0  0  0  0  0  0
   -3.0841    2.8821   -0.0536 C   0  0  0  0  0  0  0  0  0  0  0  0
   -3.7054    3.3727   -0.8165 H   0  0  0  0  0  0  0  0  0  0  0  0
   -2.4398    1.6731   -0.3791 C   0  0  0  0  0  0  0  0  0  0  0  0
   -2.6112    1.0926   -1.7600 C   0  0  0  0  0  0  0  0  0  0  0  0
   -3.4129    1.6595   -2.2730 H   0  0  0  0  0  0  0  0  0  0  0  0
   -2.9736    0.0458   -1.6931 H   0  0  0  0  0  0  0  0  0  0  0  0
   -1.3614    1.1593   -2.6441 C   0  0  0  0  0  0  0  0  0  0  0  0
   -0.8727    2.1521   -2.5850 H   0  0  0  0  0  0  0  0  0  0  0  0
   -1.6335    0.9765   -3.7016 H   0  0  0  0  0  0  0  0  0  0  0  0
    1.4175    0.8612   -1.9593 C   0  0  0  0  0  0  0  0  0  0  0  0
    2.2719    0.1675   -2.0845 H   0  0  0  0  0  0  0  0  0  0  0  0
    1.4959    1.6128   -2.7690 H   0  0  0  0  0  0  0  0  0  0  0  0
    1.4358    1.5116   -0.5894 C   0  0  0  0  0  0  0  0  0  0  0  0
    2.3673    2.1049   -0.4885 H   0  0  0  0  0  0  0  0  0  0  0  0
    0.5833    2.2125   -0.4803 H   0  0  0  0  0  0  0  0  0  0  0  0
    2.5492   -0.2674    0.8377 C   0  0  0  0  0  0  0  0  0  0  0  0
    2.8030   -0.8998   -0.0335 H   0  0  0  0  0  0  0  0  0  0  0  0
    2.2643   -0.9477    1.6615 H   0  0  0  0  0  0  0  0  0  0  0  0
    3.7848    0.5440    1.2407 C   0  0  0  0  0  0  0  0  0  0  0  0
    3.5126    1.4487    1.8305 H   0  0  0  0  0  0  0  0  0  0  0  0
    4.3993   -0.0766    1.9286 H   0  0  0  0  0  0  0  0  0  0  0  0
    4.6671    0.9531    0.0559 C   0  0  0  0  0  0  0  0  0  0  0  0
    4.3714    0.7357   -1.1018 O   0  0  0  0  0  0  0  0  0  0  0  0
    5.8164    1.5836    0.3606 O   0  0  0  0  0  0  0  0  0  0  0  0
    5.9343    1.6575    1.3289 H   0  0  0  0  0  0  0  0  0  0  0  0
  1  5  1  0  0  0  0
  2 26  1  0  0  0  0
  2  3  1  0  0  0  0
  4 20  1  0  0  0  0
  5  7  1  0  0  0  0
  5  6  1  0  0  0  0
  7  8  1  0  0  0  0
  9 10  1  0  0  0  0
  9  7  2  0  0  0  0
 11  9  1  0  0  0  0
 12 11  1  0  0  0  0
 13 11  2  0  0  0  0
 13  1  1  0  0  0  0
 14 16  1  0  0  0  0
 14 13  1  0  0  0  0
 15 14  1  0  0  0  0
 17 18  1  0  0  0  0
 17  4  1  0  0  0  0
 17 14  1  0  0  0  0
 19 17  1  0  0  0  0
 20 23  1  0  0  0  0
 21 20  1  0  0  0  0
 22 20  1  0  0  0  0
 23 24  1  0  0  0  0
 23 25  1  0  0  0  0
 23  2  1  0  0  0  0
 26 29  1  0  0  0  0
 26 28  1  0  0  0  0
 27 26  1  0  0  0  0
 29 30  1  0  0  0  0
 29 31  1  0  0  0  0
 32 34  1  0  0  0  0
 32 29  1  0  0  0  0
 33 32  2  0  0  0  0
 34 35  1  0  0  0  0
M  END
