1,2,3
q = -1.0, confidence = 0.0

 25 25  0  0  0  0  0  0  0  0999 V2000
   -2.1844   -1.4617    0.0000 S   0  0  0  0  0  1  0  0  0  0  0  0
    1.8585    0.0750   -0.0000 N   0  0  0  0  0  2  0  0  0  0  0  0
   -0.6091    0.9782   -0.0000 N   0  0  0  0  0  2  0  0  0  0  0  0
   -1.9097    1.2921    0.0000 N   0  0  0  0  0  0  0  0  0  0  0  0
   -4.0457    0.4498    0.0001 N   0  0  0  0  0  0  0  0  0  0  0  0
    3.0790   -0.4800    0.0000 C   0  0  0  0  0  0  0  0  0  0  0  0
    4.2430    0.3030    0.0001 C   0  0  0  0  0  0  0  0  0  0  0  0
    4.1132    1.7000    0.0001 C   0  0  0  0  0  0  0  0  0  0  0  0
    2.8361    2.2751    0.0000 C   0  0  0  0  0  0  0  0  0  0  0  0
    1.6990    1.4405   -0.0000 C   0  0  0  0  0  0  0  0  0  0  0  0
    0.3262    1.9299   -0.0000 C   0  0  0  0  0  0  0  0  0  0  0  0
   -2.7117    0.2190    0.0001 C   0  0  0  0  0  0  0  0  0  0  0  0
   -4.6350    1.7733   -0.0000 C   0  0  0  0  0  0  0  0  0  0  0  0
   -0.0104    3.3867   -0.0001 C   0  0  0  0  0  0  0  0  0  0  0  0
    3.0805   -1.5840   -0.0000 H   0  0  0  0  0  0  0  0  0  0  0  0
    5.2278   -0.1843    0.0001 H   0  0  0  0  0  0  0  0  0  0  0  0
    5.0055    2.3438    0.0001 H   0  0  0  0  0  0  0  0  0  0  0  0
    2.7098    3.3661    0.0000 H   0  0  0  0  0  0  0  0  0  0  0  0
   -4.6482   -0.3729   -0.0000 H   0  0  0  0  0  0  0  0  0  0  0  0
    0.4067    3.8958    0.8944 H   0  0  0  0  0  0  0  0  0  0  0  0
   -1.1078    3.5070   -0.0002 H   0  0  0  0  0  0  0  0  0  0  0  0
    0.4069    3.8958   -0.8944 H   0  0  0  0  0  0  0  0  0  0  0  0
   -4.3228    2.3517    0.8944 H   0  0  0  0  0  0  0  0  0  0  0  0
   -5.7361    1.6764    0.0003 H   0  0  0  0  0  0  0  0  0  0  0  0
   -4.3233    2.3514   -0.8949 H   0  0  0  0  0  0  0  0  0  0  0  0
  1 12  1  0  0  0  0
  2 10  1  0  0  0  0
  2  6  1  0  0  0  0
  3  4  1  0  0  0  0
  4 12  2  0  0  0  0
  5 12  1  0  0  0  0
  6  7  2  0  0  0  0
  7  8  1  0  0  0  0
  7 16  1  0  0  0  0
  8 17  1  0  0  0  0
  9 18  1  0  0  0  0
  9  8  2  0  0  0  0
 10  9  1  0  0  0  0
 11 10  2  0  0  0  0
 11  3  1  0  0  0  0
 13  5  1  0  0  0  0
 13 24  1  0  0  0  0
 13 23  1  0  0  0  0
 14 11  1  0  0  0  0
 14 20  1  0  0  0  0
 15  6  1  0  0  0  0
 19  5  1  0  0  0  0
 21 14  1  0  0  0  0
 22 14  1  0  0  0  0
 25 13  1  0  0  0  0
M  END
