8,10,19
q = 0.0, confidence = 0.994

 21 22  0  0  1  0  0  0  0  0999 V2000
   -2.3047   -1.4609    0.2746 C   0  0  1  0  0  3  0  0  0  0  0  0
   -3.9441   -1.1727    1.8263 C   0  0  0  0  0  0  0  0  0  0  0  0
   -4.8344   -1.5781    2.3377 H   0  0  0  0  0  0  0  0  0  0  0  0
   -3.4338    0.0986    2.1413 C   0  0  0  0  0  0  0  0  0  0  0  0
   -3.9052    0.7417    2.8971 H   0  0  0  0  0  0  0  0  0  0  0  0
   -2.2958    0.5154    1.4466 C   0  0  0  0  0  0  0  0  0  0  0  0
   -1.8213    1.5032    1.5901 H   0  0  0  0  0  0  0  0  0  0  0  0
   -1.7148   -0.2726    0.5126 N   0  0  0  0  0  2  0  0  0  0  0  0
   -3.3825   -1.9523    0.8903 N   0  0  0  0  0  0  0  0  0  0  0  0
    0.0000   -1.5566   -1.8065 S   0  0  0  0  0  0  0  0  0  0  0  0
   -1.7097   -2.5418   -1.0202 S   0  0  0  0  0  0  0  0  0  0  0  0
    2.3047   -1.4609    0.2746 C   0  0  2  0  0  3  0  0  0  0  0  0
    3.9441   -1.1726    1.8263 C   0  0  0  0  0  0  0  0  0  0  0  0
    4.8344   -1.5779    2.3377 H   0  0  0  0  0  0  0  0  0  0  0  0
    3.4339    0.0988    2.1413 C   0  0  0  0  0  0  0  0  0  0  0  0
    3.9053    0.7418    2.8970 H   0  0  0  0  0  0  0  0  0  0  0  0
    2.2958    0.5155    1.4466 C   0  0  0  0  0  0  0  0  0  0  0  0
    1.8213    1.5033    1.5901 H   0  0  0  0  0  0  0  0  0  0  0  0
    1.7148   -0.2726    0.5126 N   0  0  0  0  0  2  0  0  0  0  0  0
    3.3825   -1.9522    0.8903 N   0  0  0  0  0  0  0  0  0  0  0  0
    1.7098   -2.5418   -1.0201 S   0  0  0  0  0  0  0  0  0  0  0  0
  1 11  1  6  0  0  0
  1  8  1  0  0  0  0
  1  9  1  0  0  0  0
  2  4  1  0  0  0  0
  2  3  1  0  0  0  0
  4  5  1  0  0  0  0
  6  7  1  0  0  0  0
  6  4  2  0  0  0  0
  8  6  1  0  0  0  0
  9  2  2  0  0  0  0
 10 11  1  0  0  0  0
 10 21  1  0  0  0  0
 12 21  1  6  0  0  0
 12 19  1  0  0  0  0
 12 20  1  0  0  0  0
 13 15  1  0  0  0  0
 13 14  1  0  0  0  0
 15 16  1  0  0  0  0
 17 18  1  0  0  0  0
 17 15  2  0  0  0  0
 19 17  1  0  0  0  0
 20 13  2  0  0  0  0
M  END
