1,2,3
q = -1.0, confidence = 0.0

 35 36  0  0  0  0  0  0  0  0999 V2000
   -0.9239   -1.6105   -0.3019 S   0  0  0  0  0  1  0  0  0  0  0  0
    2.8984    0.3890    0.1026 N   0  0  0  0  0  2  0  0  0  0  0  0
    0.3589    0.9656   -0.3431 N   0  0  0  0  0  2  0  0  0  0  0  0
   -0.9426    1.1374   -0.5443 N   0  0  0  0  0  0  0  0  0  0  0  0
   -2.9884    0.0929   -0.7269 N   0  0  0  0  0  0  0  0  0  0  0  0
    4.1606    0.0046    0.3400 C   0  0  0  0  0  0  0  0  0  0  0  0
    5.2119    0.9308    0.4036 C   0  0  0  0  0  0  0  0  0  0  0  0
    4.9230    2.2924    0.2134 C   0  0  0  0  0  0  0  0  0  0  0  0
    3.6048    2.6916   -0.0331 C   0  0  0  0  0  0  0  0  0  0  0  0
    2.5859    1.7161   -0.0871 C   0  0  0  0  0  0  0  0  0  0  0  0
    1.1928    2.0008   -0.3308 C   0  0  0  0  0  0  0  0  0  0  0  0
   -1.6467   -0.0133   -0.5348 C   0  0  0  0  0  0  0  0  0  0  0  0
   -3.5906    1.4161   -0.9313 C   0  0  0  0  0  0  0  0  0  0  0  0
   -3.9383    2.1074    0.3947 C   0  0  0  0  0  0  0  0  0  0  0  0
   -5.1247    1.4995    1.1516 C   0  0  0  0  0  0  0  0  0  0  0  0
   -5.0784   -0.0230    1.3605 C   0  0  0  0  0  0  0  0  0  0  0  0
   -5.1894   -0.8298    0.0545 C   0  0  0  0  0  0  0  0  0  0  0  0
   -3.8590   -1.0806   -0.6667 C   0  0  0  0  0  0  0  0  0  0  0  0
    4.2915   -1.0830    0.4758 H   0  0  0  0  0  0  0  0  0  0  0  0
    6.2354    0.5817    0.5983 H   0  0  0  0  0  0  0  0  0  0  0  0
    5.7259    3.0436    0.2573 H   0  0  0  0  0  0  0  0  0  0  0  0
    3.3482    3.7496   -0.1850 H   0  0  0  0  0  0  0  0  0  0  0  0
    0.8050    3.0174   -0.4968 H   0  0  0  0  0  0  0  0  0  0  0  0
   -2.8637    2.0288   -1.4938 H   0  0  0  0  0  0  0  0  0  0  0  0
   -4.4918    1.2846   -1.5654 H   0  0  0  0  0  0  0  0  0  0  0  0
   -3.0213    2.0915    1.0210 H   0  0  0  0  0  0  0  0  0  0  0  0
   -4.1483    3.1779    0.1841 H   0  0  0  0  0  0  0  0  0  0  0  0
   -5.2111    2.0023    2.1381 H   0  0  0  0  0  0  0  0  0  0  0  0
   -6.0653    1.7427    0.6068 H   0  0  0  0  0  0  0  0  0  0  0  0
   -5.9205   -0.3055    2.0256 H   0  0  0  0  0  0  0  0  0  0  0  0
   -4.1507   -0.3114    1.9034 H   0  0  0  0  0  0  0  0  0  0  0  0
   -5.9146   -0.3286   -0.6230 H   0  0  0  0  0  0  0  0  0  0  0  0
   -5.6234   -1.8311    0.2565 H   0  0  0  0  0  0  0  0  0  0  0  0
   -3.2926   -1.8695   -0.1310 H   0  0  0  0  0  0  0  0  0  0  0  0
   -4.0437   -1.4686   -1.6947 H   0  0  0  0  0  0  0  0  0  0  0  0
  2  6  1  0  0  0  0
  3 11  1  0  0  0  0
  4 12  2  0  0  0  0
  4  3  1  0  0  0  0
  5 18  1  0  0  0  0
  5 12  1  0  0  0  0
  6  7  2  0  0  0  0
  6 19  1  0  0  0  0
  7 20  1  0  0  0  0
  8 21  1  0  0  0  0
  8  7  1  0  0  0  0
  9  8  2  0  0  0  0
 10  9  1  0  0  0  0
 10  2  1  0  0  0  0
 11 10  2  0  0  0  0
 12  1  1  0  0  0  0
 13  5  1  0  0  0  0
 13 14  1  0  0  0  0
 14 26  1  0  0  0  0
 14 15  1  0  0  0  0
 15 16  1  0  0  0  0
 15 28  1  0  0  0  0
 16 31  1  0  0  0  0
 16 30  1  0  0  0  0
 17 33  1  0  0  0  0
 17 16  1  0  0  0  0
 18 34  1  0  0  0  0
 18 17  1  0  0  0  0
 22  9  1  0  0  0  0
 23 11  1  0  0  0  0
 24 13  1  0  0  0  0
 25 13  1  0  0  0  0
 27 14  1  0  0  0  0
 29 15  1  0  0  0  0
 32 17  1  0  0  0  0
 35 18  1  0  0  0  0
M  END
