1,2,3
q = -1.0, confidence = 0.0

 26 27  0  0  1  0  0  0  0  0999 V2000
   -0.6280   -0.6274   -1.6821 S   0  0  0  0  0  0  0  0  0  0  0  0
   -0.3724   -1.1901    1.1574 N   0  0  0  0  0  2  0  0  0  0  0  0
   -0.1012    1.4942    0.2537 N   0  0  0  0  0  2  0  0  0  0  0  0
   -1.6974   -1.2116    0.7639 C   0  0  0  0  0  0  0  0  0  0  0  0
   -2.7719   -1.4948    1.6451 C   0  0  0  0  0  0  0  0  0  0  0  0
   -4.0922   -1.5055    1.1839 C   0  0  0  0  0  0  0  0  0  0  0  0
   -4.3964   -1.2400   -0.1648 C   0  0  0  0  0  0  0  0  0  0  0  0
   -3.3517   -0.9600   -1.0579 C   0  0  0  0  0  0  0  0  0  0  0  0
   -2.0325   -0.9294   -0.5904 C   0  0  0  0  0  0  0  0  0  0  0  0
   -0.7804    1.1676   -2.0526 C   0  0  0  0  0  0  0  0  0  0  0  0
   -0.8279    1.9674   -0.7816 C   0  0  2  0  0  3  0  0  0  0  0  0
   -1.5568    3.1634   -0.6882 C   0  0  0  0  0  0  0  0  0  0  0  0
   -1.5126    3.8941    0.5064 C   0  0  0  0  0  0  0  0  0  0  0  0
   -0.7468    3.4015    1.5710 C   0  0  0  0  0  0  0  0  0  0  0  0
   -0.0601    2.1927    1.4036 C   0  0  0  0  0  0  0  0  0  0  0  0
   -0.2235   -1.2658    2.1734 H   0  0  0  0  0  0  0  0  0  0  0  0
   -2.5469   -1.7093    2.7014 H   0  0  0  0  0  0  0  0  0  0  0  0
   -4.9046   -1.7315    1.8914 H   0  0  0  0  0  0  0  0  0  0  0  0
   -5.4371   -1.2583   -0.5185 H   0  0  0  0  0  0  0  0  0  0  0  0
   -3.5613   -0.7613   -2.1207 H   0  0  0  0  0  0  0  0  0  0  0  0
   -1.6545    1.3420   -2.7072 H   0  0  0  0  0  0  0  0  0  0  0  0
    0.1659    1.3850   -2.5993 H   0  0  0  0  0  0  0  0  0  0  0  0
   -2.1484    3.5120   -1.5470 H   0  0  0  0  0  0  0  0  0  0  0  0
   -2.0752    4.8346    0.6044 H   0  0  0  0  0  0  0  0  0  0  0  0
   -0.6829    3.9369    2.5287 H   0  0  0  0  0  0  0  0  0  0  0  0
    0.5568    1.7519    2.2024 H   0  0  0  0  0  0  0  0  0  0  0  0
  1  9  1  0  0  0  0
  2 16  1  0  0  0  0
  3 15  1  0  0  0  0
  4  2  1  0  0  0  0
  4  5  1  0  0  0  0
  5 17  1  0  0  0  0
  6  5  2  0  0  0  0
  6 18  1  0  0  0  0
  7  6  1  0  0  0  0
  8  9  1  0  0  0  0
  8  7  2  0  0  0  0
  9  4  2  0  0  0  0
 10  1  1  0  0  0  0
 11 10  1  6  0  0  0
 11 12  1  0  0  0  0
 11  3  1  0  0  0  0
 12 13  2  0  0  0  0
 13 24  1  0  0  0  0
 13 14  1  0  0  0  0
 14 25  1  0  0  0  0
 15 14  2  0  0  0  0
 15 26  1  0  0  0  0
 19  7  1  0  0  0  0
 20  8  1  0  0  0  0
 21 10  1  0  0  0  0
 22 10  1  0  0  0  0
 23 12  1  0  0  0  0
M  END
