1,20,21
q = -1.0, confidence = 0.018

 26 27  0  0  0  0  0  0  0  0999 V2000
    1.3598    2.7067   -0.0035 S   0  0  0  0  0  1  0  0  0  0  0  0
   -2.7061   -1.1850    0.0314 C   0  0  0  0  0  0  0  0  0  0  0  0
   -2.1606   -2.4828    0.0308 C   0  0  0  0  0  0  0  0  0  0  0  0
   -1.0774   -2.6445    0.0290 H   0  0  0  0  0  0  0  0  0  0  0  0
   -3.0514   -3.5594    0.0204 C   0  0  0  0  0  0  0  0  0  0  0  0
   -2.6494   -4.5830    0.0159 H   0  0  0  0  0  0  0  0  0  0  0  0
   -4.4557   -3.3707    0.0134 C   0  0  0  0  0  0  0  0  0  0  0  0
   -5.1176   -4.2488    0.0048 H   0  0  0  0  0  0  0  0  0  0  0  0
   -5.0192   -2.0902    0.0174 C   0  0  0  0  0  0  0  0  0  0  0  0
   -6.1081   -1.9401    0.0136 H   0  0  0  0  0  0  0  0  0  0  0  0
   -4.1257   -1.0094    0.0268 C   0  0  0  0  0  0  0  0  0  0  0  0
   -3.1175    0.9846    0.0456 C   0  0  0  0  0  0  0  0  0  0  0  0
   -2.8595    2.4075    0.0504 C   0  0  0  0  0  0  0  0  0  0  0  0
   -3.9379    3.4400    0.0589 C   0  0  0  0  0  0  0  0  0  0  0  0
   -3.4798    4.4447    0.0577 H   0  0  0  0  0  0  0  0  0  0  0  0
   -4.5791    3.3454    0.9607 H   0  0  0  0  0  0  0  0  0  0  0  0
   -4.5904    3.3485   -0.8351 H   0  0  0  0  0  0  0  0  0  0  0  0
    0.2075    4.0542    0.0219 C   0  0  0  0  0  0  0  0  0  0  0  0
   -4.3334    0.3629    0.0357 N   0  0  0  0  0  0  0  0  0  0  0  0
   -2.1170    0.0726    0.0437 N   0  0  0  0  0  2  0  0  0  0  0  0
   -1.5602    2.6861    0.0430 N   0  0  0  0  0  2  0  0  0  0  0  0
   -1.1248    3.9474    0.0423 N   0  0  0  0  0  0  0  0  0  0  0  0
    0.7262    5.2957    0.0171 N   0  0  0  0  0  0  0  0  0  0  0  0
    0.0985    6.1007    0.0263 H   0  0  0  0  0  0  0  0  0  0  0  0
    1.7344    5.4411   -0.0007 H   0  0  0  0  0  0  0  0  0  0  0  0
   -5.2375    0.8361    0.0345 H   0  0  0  0  0  0  0  0  0  0  0  0
  1 18  1  0  0  0  0
  2 20  1  0  0  0  0
  3  2  1  0  0  0  0
  4  3  1  0  0  0  0
  5  3  2  0  0  0  0
  6  5  1  0  0  0  0
  7  9  2  0  0  0  0
  7  5  1  0  0  0  0
  8  7  1  0  0  0  0
  9 11  1  0  0  0  0
 10  9  1  0  0  0  0
 11  2  2  0  0  0  0
 11 19  1  0  0  0  0
 12 13  2  0  0  0  0
 13 14  1  0  0  0  0
 14 16  1  0  0  0  0
 15 14  1  0  0  0  0
 17 14  1  0  0  0  0
 18 22  2  0  0  0  0
 19 12  1  0  0  0  0
 20 12  1  0  0  0  0
 21 13  1  0  0  0  0
 22 21  1  0  0  0  0
 23 18  1  0  0  0  0
 23 24  1  0  0  0  0
 25 23  1  0  0  0  0
 26 19  1  0  0  0  0
M  END
