1,2,3
q = 0.0, confidence = 0.996

 28 28  0  0  1  0  0  0  0  0999 V2000
   -1.8382   -0.9476   -1.6010 S   0  0  0  0  0  1  0  0  0  0  0  0
    2.0970    0.8083   -0.1556 N   0  0  0  0  0  2  0  0  0  0  0  0
   -0.2522    1.4437   -1.1062 N   0  0  0  0  0  2  0  0  0  0  0  0
   -1.5790    1.7162   -1.2716 N   0  0  0  0  0  0  0  0  0  0  0  0
   -1.9195    2.4591   -0.6358 H   0  0  0  0  0  0  0  0  0  0  0  0
   -3.7440    0.9190   -1.2797 N   0  0  0  0  0  0  0  0  0  0  0  0
   -3.9862    1.8912   -1.0683 H   0  0  0  0  0  0  0  0  0  0  0  0
    0.2020    3.7593   -1.1191 N   0  0  0  0  0  0  0  0  0  0  0  0
   -0.5660    3.9690   -1.7605 H   0  0  0  0  0  0  0  0  0  0  0  0
    0.9012    4.4909   -1.0094 H   0  0  0  0  0  0  0  0  0  0  0  0
    3.3010    0.3661    0.2283 C   0  0  0  0  0  3  0  0  0  0  0  0
    3.3315   -0.6902    0.5514 H   0  0  0  0  0  0  0  0  0  0  0  0
    4.4400    1.1868    0.2036 C   0  0  0  0  0  0  0  0  0  0  0  0
    5.4079    0.7940    0.5456 H   0  0  0  0  0  0  0  0  0  0  0  0
    4.3114    2.4991   -0.2711 C   0  0  0  0  0  0  0  0  0  0  0  0
    5.1853    3.1654   -0.3248 H   0  0  0  0  0  0  0  0  0  0  0  0
    3.0533    2.9531   -0.6909 C   0  0  0  0  0  0  0  0  0  0  0  0
    2.9409    3.9678   -1.1008 H   0  0  0  0  0  0  0  0  0  0  0  0
    1.9575    2.0752   -0.6067 C   0  0  0  0  0  0  0  0  0  0  0  0
    0.5752    2.4472   -0.9920 C   0  0  1  0  0  3  0  0  0  0  0  0
   -2.4307    0.6048   -1.3673 C   0  0  1  0  0  3  0  0  0  0  0  0
   -4.7979   -0.0762   -1.0925 C   0  0  0  0  0  0  0  0  0  0  0  0
   -4.5252   -0.9509   -1.7155 H   0  0  0  0  0  0  0  0  0  0  0  0
   -5.7345    0.3523   -1.5054 H   0  0  0  0  0  0  0  0  0  0  0  0
   -4.9631   -0.4910    0.3695 C   0  0  0  0  0  0  0  0  0  0  0  0
   -4.0132   -0.9056    0.7619 H   0  0  0  0  0  0  0  0  0  0  0  0
   -5.7512   -1.2649    0.4607 H   0  0  0  0  0  0  0  0  0  0  0  0
   -5.2503    0.3697    1.0072 H   0  0  0  0  0  0  0  0  0  0  0  0
  2 11  1  0  0  0  0
  4  3  1  0  0  0  0
  4  5  1  0  0  0  0
  6 22  1  0  0  0  0
  6  7  1  0  0  0  0
  8 10  1  0  0  0  0
  8 20  1  0  0  0  0
  9  8  1  0  0  0  0
 11 12  1  0  0  0  0
 13 11  1  0  0  0  0
 13 14  1  0  0  0  0
 15 13  2  0  0  0  0
 16 15  1  0  0  0  0
 17 19  2  0  0  0  0
 17 15  1  0  0  0  0
 18 17  1  0  0  0  0
 19  2  1  0  0  0  0
 20  3  1  1  0  0  0
 20 19  1  0  0  0  0
 21  1  1  6  0  0  0
 21  6  1  0  0  0  0
 21  4  1  0  0  0  0
 22 25  1  0  0  0  0
 23 22  1  0  0  0  0
 24 22  1  0  0  0  0
 25 27  1  0  0  0  0
 25 26  1  0  0  0  0
 25 28  1  0  0  0  0
M  END
