1,2,5
q = 0.0, confidence = 1.0

 52 55  0  0  1  0  0  0  0  0999 V2000
    2.6212    0.3314    2.0533 S   0  0  0  0  0  0  0  0  0  0  0  0
    1.3418    1.6885   -0.4859 N   0  0  0  0  0  2  0  0  0  0  0  0
    2.5609    1.5663   -1.0641 N   0  0  0  0  0  0  0  0  0  0  0  0
    2.9116   -0.8118   -1.0773 N   0  0  0  0  0  0  0  0  0  0  0  0
    1.7275   -1.2571   -0.5844 N   0  0  0  0  0  2  0  0  0  0  0  0
    3.4607    0.4823   -0.6933 C   0  0  2  0  0  0  0  0  0  0  0  0
    4.3528    0.6170   -1.3357 H   0  0  0  0  0  0  0  0  0  0  0  0
    2.7898    2.5924   -1.9390 C   0  0  0  0  0  3  0  0  0  0  0  0
    3.7333    2.6717   -2.4905 H   0  0  0  0  0  0  0  0  0  0  0  0
    1.6656    3.4069   -1.9187 C   0  0  0  0  0  0  0  0  0  0  0  0
    1.5136    4.3333   -2.4805 H   0  0  0  0  0  0  0  0  0  0  0  0
    0.7703    2.8051   -0.9891 C   0  0  0  0  0  0  0  0  0  0  0  0
   -0.5741    3.2194   -0.5664 C   0  0  0  0  0  0  0  0  0  0  0  0
   -1.0450    2.9136    0.7310 C   0  0  0  0  0  0  0  0  0  0  0  0
   -0.3875    2.4078    1.4555 H   0  0  0  0  0  0  0  0  0  0  0  0
   -2.3467    3.2618    1.1090 C   0  0  0  0  0  0  0  0  0  0  0  0
   -2.7038    3.0184    2.1205 H   0  0  0  0  0  0  0  0  0  0  0  0
   -3.1911    3.9270    0.2047 C   0  0  0  0  0  0  0  0  0  0  0  0
   -4.2153    4.1958    0.5031 H   0  0  0  0  0  0  0  0  0  0  0  0
   -2.7233    4.2535   -1.0782 C   0  0  0  0  0  0  0  0  0  0  0  0
   -3.3799    4.7778   -1.7882 H   0  0  0  0  0  0  0  0  0  0  0  0
   -1.4220    3.9042   -1.4633 C   0  0  0  0  0  0  0  0  0  0  0  0
   -1.0691    4.1378   -2.4790 H   0  0  0  0  0  0  0  0  0  0  0  0
    3.4478   -1.7147   -1.9527 C   0  0  0  0  0  3  0  0  0  0  0  0
    4.4075   -1.5269   -2.4470 H   0  0  0  0  0  0  0  0  0  0  0  0
    2.5754   -2.7904   -2.0180 C   0  0  0  0  0  0  0  0  0  0  0  0
    2.7031   -3.7064   -2.6019 H   0  0  0  0  0  0  0  0  0  0  0  0
    1.4968   -2.4684   -1.1447 C   0  0  0  0  0  0  0  0  0  0  0  0
    0.2939   -3.2576   -0.8455 C   0  0  0  0  0  0  0  0  0  0  0  0
   -0.3903   -3.1206    0.3833 C   0  0  0  0  0  0  0  0  0  0  0  0
   -0.0248   -2.4273    1.1563 H   0  0  0  0  0  0  0  0  0  0  0  0
   -1.5451   -3.8708    0.6347 C   0  0  0  0  0  0  0  0  0  0  0  0
   -2.0664   -3.7568    1.5968 H   0  0  0  0  0  0  0  0  0  0  0  0
   -2.0301   -4.7711   -0.3275 C   0  0  0  0  0  0  0  0  0  0  0  0
   -2.9384   -5.3585   -0.1268 H   0  0  0  0  0  0  0  0  0  0  0  0
   -1.3493   -4.9224   -1.5460 C   0  0  0  0  0  0  0  0  0  0  0  0
   -1.7248   -5.6241   -2.3052 H   0  0  0  0  0  0  0  0  0  0  0  0
   -0.1945   -4.1735   -1.8040 C   0  0  0  0  0  0  0  0  0  0  0  0
    0.3182   -4.2800   -2.7715 H   0  0  0  0  0  0  0  0  0  0  0  0
    3.9815    0.5618    0.7832 C   0  0  0  0  0  0  0  0  0  0  0  0
    5.0938   -0.4717    0.9685 C   0  0  0  0  0  0  0  0  0  0  0  0
    4.7544   -1.5045    0.7631 H   0  0  0  0  0  0  0  0  0  0  0  0
    5.4879   -0.4326    2.0016 H   0  0  0  0  0  0  0  0  0  0  0  0
    5.9364   -0.2450    0.2823 H   0  0  0  0  0  0  0  0  0  0  0  0
    4.5015    1.9859    1.0298 C   0  0  0  0  0  0  0  0  0  0  0  0
    5.2581    2.2648    0.2666 H   0  0  0  0  0  0  0  0  0  0  0  0
    4.9780    2.0431    2.0262 H   0  0  0  0  0  0  0  0  0  0  0  0
    3.6861    2.7350    0.9991 H   0  0  0  0  0  0  0  0  0  0  0  0
    2.6732   -1.4143    2.5629 C   0  0  0  0  0  0  0  0  0  0  0  0
    1.7722   -1.5169    3.1992 H   0  0  0  0  0  0  0  0  0  0  0  0
    3.5766   -1.6362    3.1596 H   0  0  0  0  0  0  0  0  0  0  0  0
    2.5794   -2.1062    1.7053 H   0  0  0  0  0  0  0  0  0  0  0  0
  1 49  1  0  0  0  0
  3  6  1  0  0  0  0
  3  2  1  0  0  0  0
  4  6  1  0  0  0  0
  4  5  1  0  0  0  0
  6  7  1  6  0  0  0
  6 40  1  0  0  0  0
  8 10  1  0  0  0  0
  8  3  1  0  0  0  0
  9  8  1  0  0  0  0
 10 12  2  0  0  0  0
 11 10  1  0  0  0  0
 12 13  1  0  0  0  0
 12  2  1  0  0  0  0
 13 14  1  0  0  0  0
 14 16  2  0  0  0  0
 14 15  1  0  0  0  0
 16 17  1  0  0  0  0
 18 19  1  0  0  0  0
 18 16  1  0  0  0  0
 20 18  2  0  0  0  0
 21 20  1  0  0  0  0
 22 20  1  0  0  0  0
 22 13  2  0  0  0  0
 23 22  1  0  0  0  0
 24  4  1  0  0  0  0
 25 24  1  0  0  0  0
 26 24  1  0  0  0  0
 26 28  2  0  0  0  0
 27 26  1  0  0  0  0
 28 29  1  0  0  0  0
 28  5  1  0  0  0  0
 29 30  1  0  0  0  0
 30 32  2  0  0  0  0
 30 31  1  0  0  0  0
 32 33  1  0  0  0  0
 34 35  1  0  0  0  0
 34 32  1  0  0  0  0
 36 34  2  0  0  0  0
 37 36  1  0  0  0  0
 38 36  1  0  0  0  0
 38 29  2  0  0  0  0
 39 38  1  0  0  0  0
 40 41  1  0  0  0  0
 40 45  1  0  0  0  0
 40  1  1  0  0  0  0
 41 43  1  0  0  0  0
 42 41  1  0  0  0  0
 44 41  1  0  0  0  0
 45 47  1  0  0  0  0
 46 45  1  0  0  0  0
 48 45  1  0  0  0  0
 49 51  1  0  0  0  0
 49 50  1  0  0  0  0
 52 49  1  0  0  0  0
M  END
