1,2,3
q = 0.0, confidence = 1.0

 26 26  0  0  0  0  0  0  0  0999 V2000
   -2.4594    0.2257   -1.1345 S   0  0  0  0  0  0  0  0  0  0  0  0
    1.7266   -0.1959   -0.0977 N   0  0  0  0  0  2  0  0  0  0  0  0
   -0.0841    1.8151    0.0590 N   0  0  0  0  0  0  0  0  0  0  0  0
   -0.1669    1.7088    1.0875 H   0  0  0  0  0  0  0  0  0  0  0  0
    2.5453   -1.2647   -0.0355 C   0  0  0  0  0  3  0  0  0  0  0  0
    2.0270   -2.2395    0.0097 H   0  0  0  0  0  0  0  0  0  0  0  0
    3.9373   -1.1296   -0.0543 C   0  0  0  0  0  0  0  0  0  0  0  0
    4.5777   -2.0213    0.0005 H   0  0  0  0  0  0  0  0  0  0  0  0
    4.4836    0.1606   -0.1379 C   0  0  0  0  0  0  0  0  0  0  0  0
    5.5743    0.3073   -0.1463 H   0  0  0  0  0  0  0  0  0  0  0  0
    3.6231    1.2631   -0.2107 C   0  0  0  0  0  0  0  0  0  0  0  0
    4.0170    2.2884   -0.2803 H   0  0  0  0  0  0  0  0  0  0  0  0
    2.2346    1.0466   -0.1969 C   0  0  0  0  0  0  0  0  0  0  0  0
    1.2476    2.1935   -0.3561 C   0  0  0  0  0  0  0  0  0  0  0  0
    1.6529    3.0968    0.1621 H   0  0  0  0  0  0  0  0  0  0  0  0
    1.2146    2.4576   -1.4380 H   0  0  0  0  0  0  0  0  0  0  0  0
   -1.2097    2.5720   -0.4740 C   0  0  0  0  0  0  0  0  0  0  0  0
   -1.0486    2.7149   -1.5656 H   0  0  0  0  0  0  0  0  0  0  0  0
   -1.2968    3.5940   -0.0312 H   0  0  0  0  0  0  0  0  0  0  0  0
   -2.5240    1.8223   -0.2320 C   0  0  0  0  0  0  0  0  0  0  0  0
   -3.3864    2.4265   -0.5768 H   0  0  0  0  0  0  0  0  0  0  0  0
   -2.6337    1.5880    0.8481 H   0  0  0  0  0  0  0  0  0  0  0  0
   -3.5457   -0.8450   -0.1416 C   0  0  0  0  0  0  0  0  0  0  0  0
   -4.6119   -0.6241   -0.3374 H   0  0  0  0  0  0  0  0  0  0  0  0
   -3.2834   -0.7351    0.9302 H   0  0  0  0  0  0  0  0  0  0  0  0
   -3.2870   -1.8734   -0.4609 H   0  0  0  0  0  0  0  0  0  0  0  0
  1 20  1  0  0  0  0
  1 23  1  0  0  0  0
  2  5  1  0  0  0  0
  3  4  1  0  0  0  0
  5  6  1  0  0  0  0
  7  5  1  0  0  0  0
  7  8  1  0  0  0  0
  9  7  2  0  0  0  0
 10  9  1  0  0  0  0
 11 13  2  0  0  0  0
 11  9  1  0  0  0  0
 12 11  1  0  0  0  0
 13  2  1  0  0  0  0
 14 13  1  0  0  0  0
 14  3  1  0  0  0  0
 14 15  1  0  0  0  0
 16 14  1  0  0  0  0
 17 20  1  0  0  0  0
 17 19  1  0  0  0  0
 17  3  1  0  0  0  0
 18 17  1  0  0  0  0
 20 22  1  0  0  0  0
 21 20  1  0  0  0  0
 23 25  1  0  0  0  0
 24 23  1  0  0  0  0
 26 23  1  0  0  0  0
M  END
