2,3,4
q = -1.0, confidence = 0.0

 29 30  0  0  0  0  0  0  0  0999 V2000
   -0.2637    2.9322   -3.4286 S   0  0  0  0  0  0  0  0  0  0  0  0
   -1.4837   -1.7980    1.1645 S   0  0  0  0  0  1  0  0  0  0  0  0
    0.4935    1.4047   -1.4898 N   0  0  0  0  0  2  0  0  0  0  0  0
   -1.8758    0.2396   -0.9616 N   0  0  0  0  0  2  0  0  0  0  0  0
   -3.0290   -0.3070   -0.5902 N   0  0  0  0  0  0  0  0  0  0  0  0
   -4.0844   -1.8610    0.7772 N   0  0  0  0  0  0  0  0  0  0  0  0
   -3.9111   -2.5560    1.5075 H   0  0  0  0  0  0  0  0  0  0  0  0
    1.4143    2.9196   -2.9770 C   0  0  0  0  0  0  0  0  0  0  0  0
    2.1447    3.5490   -3.4980 H   0  0  0  0  0  0  0  0  0  0  0  0
    1.6154    2.0403   -1.9310 C   0  0  0  0  0  0  0  0  0  0  0  0
    2.5810    1.8256   -1.4504 H   0  0  0  0  0  0  0  0  0  0  0  0
   -0.5932    1.7490   -2.1732 C   0  0  0  0  0  0  0  0  0  0  0  0
   -1.8958    1.1786   -1.8918 C   0  0  0  0  0  0  0  0  0  0  0  0
   -3.1520    1.6207   -2.5748 C   0  0  0  0  0  0  0  0  0  0  0  0
   -3.6611    0.7512   -3.0396 H   0  0  0  0  0  0  0  0  0  0  0  0
   -2.9583    2.3840   -3.3520 H   0  0  0  0  0  0  0  0  0  0  0  0
   -3.8679    2.0385   -1.8358 H   0  0  0  0  0  0  0  0  0  0  0  0
   -2.9194   -1.2505    0.3694 C   0  0  0  0  0  0  0  0  0  0  0  0
   -5.4276   -1.7230    0.4014 C   0  0  0  0  0  0  0  0  0  0  0  0
   -5.9004   -0.8253   -0.5846 C   0  0  0  0  0  0  0  0  0  0  0  0
   -5.1745   -0.1891   -1.1016 H   0  0  0  0  0  0  0  0  0  0  0  0
   -7.2708   -0.7730   -0.8741 C   0  0  0  0  0  0  0  0  0  0  0  0
   -7.6224   -0.0696   -1.6450 H   0  0  0  0  0  0  0  0  0  0  0  0
   -8.1923   -1.5941   -0.2062 C   0  0  0  0  0  0  0  0  0  0  0  0
   -9.2648   -1.5418   -0.4451 H   0  0  0  0  0  0  0  0  0  0  0  0
   -7.7235   -2.4861    0.7727 C   0  0  0  0  0  0  0  0  0  0  0  0
   -8.4266   -3.1412    1.3095 H   0  0  0  0  0  0  0  0  0  0  0  0
   -6.3601   -2.5516    1.0742 C   0  0  0  0  0  0  0  0  0  0  0  0
   -6.0000   -3.2547    1.8429 H   0  0  0  0  0  0  0  0  0  0  0  0
  1  8  1  0  0  0  0
  1 12  1  0  0  0  0
  4  5  1  0  0  0  0
  5 18  2  0  0  0  0
  6  7  1  0  0  0  0
  8 10  2  0  0  0  0
  9  8  1  0  0  0  0
 10  3  1  0  0  0  0
 10 11  1  0  0  0  0
 12 13  2  0  0  0  0
 12  3  1  0  0  0  0
 13  4  1  0  0  0  0
 14 13  1  0  0  0  0
 14 17  1  0  0  0  0
 15 14  1  0  0  0  0
 16 14  1  0  0  0  0
 18  6  1  0  0  0  0
 18  2  1  0  0  0  0
 19  6  1  0  0  0  0
 19 28  1  0  0  0  0
 20 19  2  0  0  0  0
 21 20  1  0  0  0  0
 22 20  1  0  0  0  0
 22 24  2  0  0  0  0
 23 22  1  0  0  0  0
 24 26  1  0  0  0  0
 25 24  1  0  0  0  0
 26 28  2  0  0  0  0
 26 27  1  0  0  0  0
 28 29  1  0  0  0  0
M  END
