2,3,4
q = -1.0, confidence = 0.002

 26 27  0  0  0  0  0  0  0  0999 V2000
    0.0348    3.2929   -3.3425 S   0  0  0  0  0  0  0  0  0  0  0  0
    0.5626    1.8554   -1.2755 N   0  0  0  0  0  2  0  0  0  0  0  0
   -1.6195    0.5194   -1.0042 N   0  0  0  0  0  2  0  0  0  0  0  0
   -0.9953   -1.0815    1.2488 S   0  0  0  0  0  1  0  0  0  0  0  0
   -2.6786   -0.2279   -0.7252 N   0  0  0  0  0  0  0  0  0  0  0  0
   -3.4725   -1.8778    0.7335 N   0  0  0  0  0  0  0  0  0  0  0  0
   -3.2128   -2.4493    1.5426 H   0  0  0  0  0  0  0  0  0  0  0  0
    1.5988    3.4270   -2.5971 C   0  0  0  0  0  0  0  0  0  0  0  0
    2.3542    4.1121   -2.9988 H   0  0  0  0  0  0  0  0  0  0  0  0
    1.6966    2.5819   -1.5121 C   0  0  0  0  0  0  0  0  0  0  0  0
    2.5770    2.4539   -0.8693 H   0  0  0  0  0  0  0  0  0  0  0  0
   -0.4205    2.1075   -2.1606 C   0  0  0  0  0  0  0  0  0  0  0  0
   -1.6414    1.3792   -2.0201 C   0  0  0  0  0  0  0  0  0  0  0  0
   -2.5257    1.4816   -2.6650 H   0  0  0  0  0  0  0  0  0  0  0  0
   -2.4890   -1.0379    0.3291 C   0  0  0  0  0  0  0  0  0  0  0  0
   -4.7814   -2.1202    0.2608 C   0  0  0  0  0  0  0  0  0  0  0  0
   -5.5324   -3.0807    0.9766 C   0  0  0  0  0  0  0  0  0  0  0  0
   -5.0846   -3.5874    1.8469 H   0  0  0  0  0  0  0  0  0  0  0  0
   -6.8382   -3.3899    0.5842 C   0  0  0  0  0  0  0  0  0  0  0  0
   -7.4101   -4.1397    1.1503 H   0  0  0  0  0  0  0  0  0  0  0  0
   -7.4123   -2.7472   -0.5244 C   0  0  0  0  0  0  0  0  0  0  0  0
   -8.4390   -2.9896   -0.8348 H   0  0  0  0  0  0  0  0  0  0  0  0
   -6.6638   -1.7946   -1.2334 C   0  0  0  0  0  0  0  0  0  0  0  0
   -7.1054   -1.2883   -2.1048 H   0  0  0  0  0  0  0  0  0  0  0  0
   -5.3536   -1.4727   -0.8543 C   0  0  0  0  0  0  0  0  0  0  0  0
   -4.7686   -0.7318   -1.4093 H   0  0  0  0  0  0  0  0  0  0  0  0
  1  8  1  0  0  0  0
  1 12  1  0  0  0  0
  3  5  1  0  0  0  0
  5 15  2  0  0  0  0
  6  7  1  0  0  0  0
  8 10  2  0  0  0  0
  9  8  1  0  0  0  0
 10  2  1  0  0  0  0
 10 11  1  0  0  0  0
 12 13  2  0  0  0  0
 12  2  1  0  0  0  0
 13  3  1  0  0  0  0
 14 13  1  0  0  0  0
 15  6  1  0  0  0  0
 15  4  1  0  0  0  0
 16  6  1  0  0  0  0
 16 17  1  0  0  0  0
 17 18  1  0  0  0  0
 19 17  2  0  0  0  0
 19 20  1  0  0  0  0
 21 19  1  0  0  0  0
 22 21  1  0  0  0  0
 23 25  1  0  0  0  0
 23 21  2  0  0  0  0
 24 23  1  0  0  0  0
 25 16  2  0  0  0  0
 26 25  1  0  0  0  0
M  END
