2,6,30
q = -1.0, confidence = 0.026

 39 39  0  0  1  0  0  0  0  0999 V2000
    2.4692    1.2584   -0.4543 P   0  0  0  0  0  4  0  0  0  0  0  0
    1.2101    0.4603   -1.8200 S   0  0  0  0  0  1  0  0  0  0  0  0
    3.3598    1.7626    2.7143 S   0  0  0  0  0  0  0  0  0  0  0  0
    4.0375    1.0211   -0.7134 O   0  0  0  0  0  0  0  0  0  0  0  0
    2.4719    2.8586   -0.3750 O   0  0  0  0  0  0  0  0  0  0  0  0
    1.8453    0.4611    0.8788 N   0  0  0  0  0  2  0  0  0  0  0  0
    1.2251    0.2642    3.1145 N   0  0  0  0  0  0  0  0  0  0  0  0
    1.4803    0.5597    4.0595 H   0  0  0  0  0  0  0  0  0  0  0  0
    2.0945    0.7931    2.1706 C   0  0  0  0  0  0  0  0  0  0  0  0
    4.5271   -0.3668   -0.7114 C   0  0  0  0  0  0  0  0  0  0  0  0
    3.6828   -1.0314   -0.4271 H   0  0  0  0  0  0  0  0  0  0  0  0
    5.6181   -0.4507    0.3425 C   0  0  0  0  0  0  0  0  0  0  0  0
    5.2255   -0.1230    1.3252 H   0  0  0  0  0  0  0  0  0  0  0  0
    6.4711    0.2042    0.0728 H   0  0  0  0  0  0  0  0  0  0  0  0
    5.9871   -1.4928    0.4262 H   0  0  0  0  0  0  0  0  0  0  0  0
    4.9674   -0.7057   -2.1255 C   0  0  0  0  0  0  0  0  0  0  0  0
    4.1112   -0.6229   -2.8230 H   0  0  0  0  0  0  0  0  0  0  0  0
    5.3469   -1.7462   -2.1652 H   0  0  0  0  0  0  0  0  0  0  0  0
    5.7731   -0.0212   -2.4593 H   0  0  0  0  0  0  0  0  0  0  0  0
    1.1736    3.5613   -0.2720 C   0  0  0  0  0  0  0  0  0  0  0  0
    0.3763    2.8012   -0.1147 H   0  0  0  0  0  0  0  0  0  0  0  0
    1.2508    4.4663    0.9443 C   0  0  0  0  0  0  0  0  0  0  0  0
    1.4879    3.8783    1.8520 H   0  0  0  0  0  0  0  0  0  0  0  0
    0.2759    4.9724    1.0913 H   0  0  0  0  0  0  0  0  0  0  0  0
    2.0370    5.2372    0.8139 H   0  0  0  0  0  0  0  0  0  0  0  0
    0.9386    4.2826   -1.5880 C   0  0  0  0  0  0  0  0  0  0  0  0
    0.9038    3.5576   -2.4241 H   0  0  0  0  0  0  0  0  0  0  0  0
    1.7436    5.0196   -1.7835 H   0  0  0  0  0  0  0  0  0  0  0  0
   -0.0310    4.8189   -1.5540 H   0  0  0  0  0  0  0  0  0  0  0  0
   -0.2040   -1.1484    1.8259 N   0  0  0  0  0  2  0  0  0  0  0  0
    0.2200   -0.6798    3.0281 C   0  0  1  0  0  3  0  0  0  0  0  0
   -0.3250   -1.1684    4.2415 C   0  0  0  0  0  0  0  0  0  0  0  0
    0.0324   -0.7498    5.1937 H   0  0  0  0  0  0  0  0  0  0  0  0
   -1.2829   -2.1772    4.2091 C   0  0  0  0  0  0  0  0  0  0  0  0
   -1.7141   -2.5604    5.1457 H   0  0  0  0  0  0  0  0  0  0  0  0
   -1.6675   -2.7037    2.9640 C   0  0  0  0  0  0  0  0  0  0  0  0
   -2.4037   -3.5138    2.8775 H   0  0  0  0  0  0  0  0  0  0  0  0
   -1.1051   -2.1643    1.8112 C   0  0  0  0  0  0  0  0  0  0  0  0
   -1.3696   -2.5344    0.8150 H   0  0  0  0  0  0  0  0  0  0  0  0
  1  5  1  0  0  0  0
  1  6  1  0  0  0  0
  2  1  1  0  0  0  0
  4 10  1  0  0  0  0
  4  1  1  0  0  0  0
  5 20  1  0  0  0  0
  6  9  1  0  0  0  0
  7  8  1  0  0  0  0
  9  3  2  0  0  0  0
  9  7  1  0  0  0  0
 10 11  1  0  0  0  0
 10 12  1  0  0  0  0
 12 15  1  0  0  0  0
 12 13  1  0  0  0  0
 14 12  1  0  0  0  0
 16 10  1  0  0  0  0
 17 16  1  0  0  0  0
 18 16  1  0  0  0  0
 19 16  1  0  0  0  0
 20 21  1  0  0  0  0
 20 22  1  0  0  0  0
 22 24  1  0  0  0  0
 22 23  1  0  0  0  0
 25 22  1  0  0  0  0
 26 29  1  0  0  0  0
 26 20  1  0  0  0  0
 27 26  1  0  0  0  0
 28 26  1  0  0  0  0
 30 31  1  0  0  0  0
 31  7  1  1  0  0  0
 31 32  1  0  0  0  0
 32 33  1  0  0  0  0
 34 32  2  0  0  0  0
 34 35  1  0  0  0  0
 36 34  1  0  0  0  0
 37 36  1  0  0  0  0
 38 30  1  0  0  0  0
 38 36  2  0  0  0  0
 39 38  1  0  0  0  0
M  END
