1,2,3
q = -1.0, confidence = 0.0

 29 30  0  0  0  0  0  0  0  0999 V2000
   -1.8742   -1.9448    0.9592 S   0  0  0  0  0  1  0  0  0  0  0  0
   -2.0368    0.3293   -1.0355 N   0  0  0  0  0  2  0  0  0  0  0  0
    0.4358    1.4044   -1.6368 N   0  0  0  0  0  2  0  0  0  0  0  0
   -4.4437   -1.7110    0.5144 N   0  0  0  0  0  0  0  0  0  0  0  0
   -4.3441   -2.4751    1.1875 H   0  0  0  0  0  0  0  0  0  0  0  0
   -3.2290   -0.1570   -0.7080 N   0  0  0  0  0  0  0  0  0  0  0  0
   -6.1470   -0.4207   -0.7766 C   0  0  0  0  0  0  0  0  0  0  0  0
   -5.3632    0.1850   -1.2436 H   0  0  0  0  0  0  0  0  0  0  0  0
    1.6365    1.9070   -1.9430 C   0  0  0  0  0  3  0  0  0  0  0  0
    2.4976    1.4583   -1.4182 H   0  0  0  0  0  0  0  0  0  0  0  0
   -8.1229   -2.0091    0.4482 C   0  0  0  0  0  0  0  0  0  0  0  0
   -8.8861   -2.6370    0.9326 H   0  0  0  0  0  0  0  0  0  0  0  0
   -0.6773    1.8998   -2.2361 C   0  0  0  0  0  0  0  0  0  0  0  0
   -5.7658   -1.4252    0.1429 C   0  0  0  0  0  0  0  0  0  0  0  0
   -0.5849    2.9519   -3.1794 C   0  0  0  0  0  0  0  0  0  0  0  0
   -1.4995    3.3397   -3.6522 H   0  0  0  0  0  0  0  0  0  0  0  0
   -1.9683    1.3252   -1.8806 C   0  0  0  0  0  3  0  0  0  0  0  0
   -2.8887    1.7435   -2.3308 H   0  0  0  0  0  0  0  0  0  0  0  0
    1.8128    2.9476   -2.8692 C   0  0  0  0  0  0  0  0  0  0  0  0
    2.8198    3.3292   -3.0894 H   0  0  0  0  0  0  0  0  0  0  0  0
   -6.7736   -2.2156    0.7496 C   0  0  0  0  0  0  0  0  0  0  0  0
   -6.4841   -3.0014    1.4662 H   0  0  0  0  0  0  0  0  0  0  0  0
   -3.2218   -1.1781    0.1708 C   0  0  0  0  0  0  0  0  0  0  0  0
   -7.5045   -0.2272   -1.0669 C   0  0  0  0  0  0  0  0  0  0  0  0
   -7.7853    0.5581   -1.7859 H   0  0  0  0  0  0  0  0  0  0  0  0
    0.6716    3.4762   -3.4952 C   0  0  0  0  0  0  0  0  0  0  0  0
    0.7631    4.2927   -4.2277 H   0  0  0  0  0  0  0  0  0  0  0  0
   -8.5012   -1.0105   -0.4644 C   0  0  0  0  0  0  0  0  0  0  0  0
   -9.5624   -0.8467   -0.7033 H   0  0  0  0  0  0  0  0  0  0  0  0
  2  6  1  0  0  0  0
  4  5  1  0  0  0  0
  6 23  2  0  0  0  0
  7 14  1  0  0  0  0
  8  7  1  0  0  0  0
  9  3  1  0  0  0  0
  9 10  1  0  0  0  0
 11 21  1  0  0  0  0
 11 12  1  0  0  0  0
 13 17  1  0  0  0  0
 13  3  1  0  0  0  0
 14  4  1  0  0  0  0
 14 21  2  0  0  0  0
 15 13  2  0  0  0  0
 16 15  1  0  0  0  0
 17  2  1  0  0  0  0
 18 17  1  0  0  0  0
 19  9  1  0  0  0  0
 20 19  1  0  0  0  0
 21 22  1  0  0  0  0
 23  4  1  0  0  0  0
 23  1  1  0  0  0  0
 24  7  2  0  0  0  0
 24 28  1  0  0  0  0
 25 24  1  0  0  0  0
 26 15  1  0  0  0  0
 26 19  2  0  0  0  0
 27 26  1  0  0  0  0
 28 11  2  0  0  0  0
 29 28  1  0  0  0  0
M  END
