1,3,4
q = -2.0, confidence = 0.852

 26 26  0  0  1  0  0  0  0  0999 V2000
    1.6609   -1.0662   -1.3024 S   0  0  0  0  0  1  0  0  0  0  0  0
   -0.9270   -2.6396    2.8691 O   0  0  0  0  0  0  0  0  0  0  0  0
    0.1155   -1.6083    1.0436 N   0  0  0  0  0  2  0  0  0  0  0  0
   -1.2325    0.5515    1.2796 N   0  0  0  0  0  2  0  0  0  0  0  0
    2.1289   -2.4374   -0.1283 C   0  0  0  0  0  0  0  0  0  0  0  0
    2.5743   -3.6353   -0.9778 C   0  0  0  0  0  0  0  0  0  0  0  0
    3.4618   -3.3687   -1.5877 H   0  0  0  0  0  0  0  0  0  0  0  0
    1.7673   -3.9528   -1.6691 H   0  0  0  0  0  0  0  0  0  0  0  0
    2.8513   -4.4969   -0.3297 H   0  0  0  0  0  0  0  0  0  0  0  0
    3.2677   -1.9984    0.8013 C   0  0  0  0  0  0  0  0  0  0  0  0
    3.5366   -2.8185    1.5058 H   0  0  0  0  0  0  0  0  0  0  0  0
    2.9763   -1.0952    1.3738 H   0  0  0  0  0  0  0  0  0  0  0  0
    4.1658   -1.7348    0.2060 H   0  0  0  0  0  0  0  0  0  0  0  0
    0.8616   -2.7925    0.6667 C   0  0  0  0  0  0  0  0  0  0  0  0
    0.2238   -3.4546    0.0281 H   0  0  0  0  0  0  0  0  0  0  0  0
    1.1000   -3.3875    1.5785 H   0  0  0  0  0  0  0  0  0  0  0  0
   -0.7241   -1.6748    2.1007 C   0  0  0  0  0  0  0  0  0  0  0  0
   -1.4825   -0.3838    2.2319 C   0  0  2  0  0  3  0  0  0  0  0  0
   -2.4219   -0.1691    3.2500 C   0  0  0  0  0  0  0  0  0  0  0  0
   -2.5628   -0.9849    3.9746 H   0  0  0  0  0  0  0  0  0  0  0  0
   -3.1205    1.0427    3.2859 C   0  0  0  0  0  0  0  0  0  0  0  0
   -3.8621    1.2441    4.0748 H   0  0  0  0  0  0  0  0  0  0  0  0
   -2.8576    2.0017    2.2898 C   0  0  0  0  0  0  0  0  0  0  0  0
   -3.3824    2.9683    2.2720 H   0  0  0  0  0  0  0  0  0  0  0  0
   -1.9058    1.7177    1.3039 C   0  0  0  0  0  0  0  0  0  0  0  0
   -1.6590    2.4295    0.5021 H   0  0  0  0  0  0  0  0  0  0  0  0
  1  5  1  0  0  0  0
  3 17  1  0  0  0  0
  4 25  1  0  0  0  0
  4 18  1  0  0  0  0
  5 14  1  0  0  0  0
  5 10  1  0  0  0  0
  6  9  1  0  0  0  0
  6  5  1  0  0  0  0
  7  6  1  0  0  0  0
  8  6  1  0  0  0  0
 10 12  1  0  0  0  0
 10 11  1  0  0  0  0
 13 10  1  0  0  0  0
 14  3  1  0  0  0  0
 14 16  1  0  0  0  0
 15 14  1  0  0  0  0
 17  2  2  0  0  0  0
 18 17  1  6  0  0  0
 18 19  1  0  0  0  0
 19 21  2  0  0  0  0
 19 20  1  0  0  0  0
 21 22  1  0  0  0  0
 23 21  1  0  0  0  0
 24 23  1  0  0  0  0
 25 23  2  0  0  0  0
 26 25  1  0  0  0  0
M  END
