1,2,3
q = -1.0, confidence = 0.016

 27 28  0  0  0  0  0  0  0  0999 V2000
    1.7769   -1.9622    0.1362 S   0  0  0  0  0  1  0  0  0  0  0  0
   -2.1173   -0.0740   -0.0757 N   0  0  0  0  0  2  0  0  0  0  0  0
    0.4342    0.7461   -0.0287 N   0  0  0  0  0  2  0  0  0  0  0  0
   -3.3729   -0.5194   -0.2312 C   0  0  0  0  0  0  0  0  0  0  0  0
   -4.4822    0.3415   -0.2667 C   0  0  0  0  0  0  0  0  0  0  0  0
   -4.2618    1.7167   -0.1360 C   0  0  0  0  0  0  0  0  0  0  0  0
   -2.9489    2.1843    0.0284 C   0  0  0  0  0  0  0  0  0  0  0  0
   -1.8755    1.2718    0.0573 C   0  0  0  0  0  0  0  0  0  0  0  0
   -0.4620    1.6900    0.1995 C   0  0  0  0  0  0  0  0  0  0  0  0
   -0.1662    3.0978    0.6383 C   0  0  0  0  0  0  0  0  0  0  0  0
    1.8275    0.8435   -0.0766 C   0  0  0  0  0  0  0  0  0  0  0  0
    2.5458    2.0492   -0.3090 C   0  0  0  0  0  0  0  0  0  0  0  0
    3.9391    2.0631   -0.3460 C   0  0  0  0  0  0  0  0  0  0  0  0
    4.6545    0.8630   -0.1398 C   0  0  0  0  0  0  0  0  0  0  0  0
    3.9752   -0.3399    0.0429 C   0  0  0  0  0  0  0  0  0  0  0  0
    2.5575   -0.3959    0.0384 C   0  0  0  0  0  0  0  0  0  0  0  0
   -3.4859   -1.6109   -0.3192 H   0  0  0  0  0  0  0  0  0  0  0  0
   -5.4923   -0.0727   -0.3932 H   0  0  0  0  0  0  0  0  0  0  0  0
   -5.1014    2.4270   -0.1629 H   0  0  0  0  0  0  0  0  0  0  0  0
   -2.7547    3.2609    0.1197 H   0  0  0  0  0  0  0  0  0  0  0  0
    0.7784    3.1314    1.2129 H   0  0  0  0  0  0  0  0  0  0  0  0
   -0.0644    3.8042   -0.2140 H   0  0  0  0  0  0  0  0  0  0  0  0
   -0.9771    3.4799    1.2874 H   0  0  0  0  0  0  0  0  0  0  0  0
    2.0028    2.9780   -0.5163 H   0  0  0  0  0  0  0  0  0  0  0  0
    4.4728    3.0037   -0.5456 H   0  0  0  0  0  0  0  0  0  0  0  0
    5.7553    0.8694   -0.1519 H   0  0  0  0  0  0  0  0  0  0  0  0
    4.5305   -1.2826    0.1619 H   0  0  0  0  0  0  0  0  0  0  0  0
  2  8  1  0  0  0  0
  3  9  1  0  0  0  0
  4  2  1  0  0  0  0
  5  4  2  0  0  0  0
  5  6  1  0  0  0  0
  6  7  2  0  0  0  0
  7  8  1  0  0  0  0
  7 20  1  0  0  0  0
  8  9  2  0  0  0  0
  9 10  1  0  0  0  0
 10 21  1  0  0  0  0
 10 23  1  0  0  0  0
 11  3  1  0  0  0  0
 11 16  1  0  0  0  0
 12 11  2  0  0  0  0
 13 12  1  0  0  0  0
 13 14  2  0  0  0  0
 14 15  1  0  0  0  0
 15 27  1  0  0  0  0
 16 15  2  0  0  0  0
 16  1  1  0  0  0  0
 17  4  1  0  0  0  0
 18  5  1  0  0  0  0
 19  6  1  0  0  0  0
 22 10  1  0  0  0  0
 24 12  1  0  0  0  0
 25 13  1  0  0  0  0
 26 14  1  0  0  0  0
M  END
