1,2,4
q = 0.0, confidence = 1.0

 35 35  0  0  0  0  0  0  0  0999 V2000
   -1.1924   -1.5348   -1.3661 S   0  0  0  0  0  0  0  0  0  0  0  0
    0.8898   -3.3320   -0.1835 N   0  0  0  0  0  0  0  0  0  0  0  0
    0.3746   -3.5348    0.6975 H   0  0  0  0  0  0  0  0  0  0  0  0
    2.7315   -1.3790    0.8762 N   0  0  0  0  0  0  0  0  0  0  0  0
   -2.7927   -1.1366   -0.6199 C   0  0  0  0  0  0  0  0  0  0  0  0
   -3.2508   -1.6877    0.5915 C   0  0  0  0  0  0  0  0  0  0  0  0
   -2.6269   -2.4040    1.1429 H   0  0  0  0  0  0  0  0  0  0  0  0
   -4.4699   -1.2491    1.1285 C   0  0  0  0  0  0  0  0  0  0  0  0
   -4.8229   -1.6730    2.0810 H   0  0  0  0  0  0  0  0  0  0  0  0
   -5.2216   -0.2572    0.4761 C   0  0  0  0  0  0  0  0  0  0  0  0
   -6.1714    0.0901    0.9107 H   0  0  0  0  0  0  0  0  0  0  0  0
   -4.7558    0.2932   -0.7286 C   0  0  0  0  0  0  0  0  0  0  0  0
   -5.3336    1.0748   -1.2445 H   0  0  0  0  0  0  0  0  0  0  0  0
   -3.5461   -0.1501   -1.2846 C   0  0  0  0  0  0  0  0  0  0  0  0
   -3.1709    0.2827   -2.2235 H   0  0  0  0  0  0  0  0  0  0  0  0
   -1.2509   -3.3989   -1.3291 C   0  0  0  0  0  0  0  0  0  0  0  0
   -1.7882   -3.7112   -0.4112 H   0  0  0  0  0  0  0  0  0  0  0  0
   -1.8195   -3.7457   -2.2135 H   0  0  0  0  0  0  0  0  0  0  0  0
    0.1804   -3.9176   -1.3309 C   0  0  0  0  0  0  0  0  0  0  0  0
    0.1790   -5.0315   -1.2822 H   0  0  0  0  0  0  0  0  0  0  0  0
    0.7129   -3.6029   -2.2524 H   0  0  0  0  0  0  0  0  0  0  0  0
    2.3062   -3.6733   -0.0076 C   0  0  0  0  0  0  0  0  0  0  0  0
    2.8365   -3.4262   -0.9501 H   0  0  0  0  0  0  0  0  0  0  0  0
    2.4536   -4.7588    0.1996 H   0  0  0  0  0  0  0  0  0  0  0  0
    2.8184   -2.8425    1.1626 C   0  0  0  0  0  0  0  0  0  0  0  0
    2.1812   -3.0400    2.0488 H   0  0  0  0  0  0  0  0  0  0  0  0
    3.8666   -3.1188    1.4199 H   0  0  0  0  0  0  0  0  0  0  0  0
    2.8056   -0.6268    2.1487 C   0  0  0  0  0  0  0  0  0  0  0  0
    1.9072   -0.8436    2.7553 H   0  0  0  0  0  0  0  0  0  0  0  0
    2.8394    0.4525    1.9136 H   0  0  0  0  0  0  0  0  0  0  0  0
    3.7311   -0.8960    2.7088 H   0  0  0  0  0  0  0  0  0  0  0  0
    3.8879   -0.9797    0.0435 C   0  0  0  0  0  0  0  0  0  0  0  0
    4.8370   -1.2365    0.5677 H   0  0  0  0  0  0  0  0  0  0  0  0
    3.8524    0.1101   -0.1234 H   0  0  0  0  0  0  0  0  0  0  0  0
    3.8414   -1.4695   -0.9442 H   0  0  0  0  0  0  0  0  0  0  0  0
  1 16  1  0  0  0  0
  1  5  1  0  0  0  0
  2 22  1  0  0  0  0
  2  3  1  0  0  0  0
  4 25  1  0  0  0  0
  4 28  1  0  0  0  0
  5  6  1  0  0  0  0
  6  8  2  0  0  0  0
  6  7  1  0  0  0  0
  8  9  1  0  0  0  0
 10 11  1  0  0  0  0
 10  8  1  0  0  0  0
 12 10  2  0  0  0  0
 13 12  1  0  0  0  0
 14 12  1  0  0  0  0
 14  5  2  0  0  0  0
 15 14  1  0  0  0  0
 16 17  1  0  0  0  0
 18 16  1  0  0  0  0
 19 16  1  0  0  0  0
 19 20  1  0  0  0  0
 19  2  1  0  0  0  0
 21 19  1  0  0  0  0
 22 24  1  0  0  0  0
 22 25  1  0  0  0  0
 23 22  1  0  0  0  0
 25 27  1  0  0  0  0
 25 26  1  0  0  0  0
 28 31  1  0  0  0  0
 28 29  1  0  0  0  0
 30 28  1  0  0  0  0
 32 33  1  0  0  0  0
 32  4  1  0  0  0  0
 34 32  1  0  0  0  0
 35 32  1  0  0  0  0
M  END
