1,3,4
q = 0.0, confidence = 0.996

 33 33  0  0  0  0  0  0  0  0999 V2000
   -1.7835    0.2283   -1.2950 S   0  0  0  0  0  0  0  0  0  0  0  0
   -1.0023   -0.4233    2.1680 S   0  0  0  0  0  0  0  0  0  0  0  0
    0.7938   -1.3304   -0.6193 N   0  0  0  0  0  0  0  0  0  0  0  0
    1.9611    1.3175    0.6980 N   0  0  0  0  0  0  0  0  0  0  0  0
    1.9218    2.3427    0.5575 H   0  0  0  0  0  0  0  0  0  0  0  0
    1.8227    1.1690    1.7092 H   0  0  0  0  0  0  0  0  0  0  0  0
   -1.4104   -1.4954   -1.8576 C   0  0  0  0  0  0  0  0  0  0  0  0
   -1.9339   -2.2094   -1.1931 H   0  0  0  0  0  0  0  0  0  0  0  0
   -1.8356   -1.6172   -2.8731 H   0  0  0  0  0  0  0  0  0  0  0  0
    0.0961   -1.7019   -1.9015 C   0  0  0  0  0  0  0  0  0  0  0  0
    0.5312   -1.0703   -2.6996 H   0  0  0  0  0  0  0  0  0  0  0  0
    0.3260   -2.7626   -2.1558 H   0  0  0  0  0  0  0  0  0  0  0  0
    0.3897   -2.3022    0.4562 C   0  0  0  0  0  0  0  0  0  0  0  0
    1.1431   -3.1202    0.4873 H   0  0  0  0  0  0  0  0  0  0  0  0
   -0.5512   -2.7842    0.1311 H   0  0  0  0  0  0  0  0  0  0  0  0
    0.1846   -1.7919    1.8796 C   0  0  0  0  0  0  0  0  0  0  0  0
    1.1234   -1.4042    2.3240 H   0  0  0  0  0  0  0  0  0  0  0  0
   -0.1071   -2.6678    2.4963 H   0  0  0  0  0  0  0  0  0  0  0  0
   -2.5123   -0.9447    1.2642 C   0  0  0  0  0  0  0  0  0  0  0  0
   -2.4017   -1.9987    0.9391 H   0  0  0  0  0  0  0  0  0  0  0  0
   -3.3372   -0.9439    2.0062 H   0  0  0  0  0  0  0  0  0  0  0  0
   -2.9405   -0.0275    0.1177 C   0  0  0  0  0  0  0  0  0  0  0  0
   -3.0915    1.0141    0.4698 H   0  0  0  0  0  0  0  0  0  0  0  0
   -3.8997   -0.3749   -0.3209 H   0  0  0  0  0  0  0  0  0  0  0  0
    2.2678   -1.3869   -0.8823 C   0  0  0  0  0  0  0  0  0  0  0  0
    2.4420   -0.8488   -1.8357 H   0  0  0  0  0  0  0  0  0  0  0  0
    2.5395   -2.4526   -1.0566 H   0  0  0  0  0  0  0  0  0  0  0  0
    3.1861   -0.7988    0.1903 C   0  0  0  0  0  0  0  0  0  0  0  0
    4.2105   -1.1536   -0.0446 H   0  0  0  0  0  0  0  0  0  0  0  0
    2.9605   -1.2201    1.1930 H   0  0  0  0  0  0  0  0  0  0  0  0
    3.2323    0.7278    0.2407 C   0  0  0  0  0  0  0  0  0  0  0  0
    4.0611    1.0533    0.9057 H   0  0  0  0  0  0  0  0  0  0  0  0
    3.4451    1.1335   -0.7692 H   0  0  0  0  0  0  0  0  0  0  0  0
  1 22  1  0  0  0  0
  3 13  1  0  0  0  0
  4  6  1  0  0  0  0
  5  4  1  0  0  0  0
  7  1  1  0  0  0  0
  7  8  1  0  0  0  0
  9  7  1  0  0  0  0
 10  7  1  0  0  0  0
 10  3  1  0  0  0  0
 11 10  1  0  0  0  0
 12 10  1  0  0  0  0
 13 14  1  0  0  0  0
 13 16  1  0  0  0  0
 15 13  1  0  0  0  0
 16  2  1  0  0  0  0
 16 17  1  0  0  0  0
 16 18  1  0  0  0  0
 19 21  1  0  0  0  0
 19  2  1  0  0  0  0
 20 19  1  0  0  0  0
 22 23  1  0  0  0  0
 22 19  1  0  0  0  0
 24 22  1  0  0  0  0
 25  3  1  0  0  0  0
 25 28  1  0  0  0  0
 26 25  1  0  0  0  0
 27 25  1  0  0  0  0
 28 31  1  0  0  0  0
 28 30  1  0  0  0  0
 29 28  1  0  0  0  0
 31  4  1  0  0  0  0
 31 32  1  0  0  0  0
 33 31  1  0  0  0  0
M  END
