1,2,3
q = -1.0, confidence = 0.0

 21 21  0  0  1  0  0  0  0  0999 V2000
    2.7567   -0.9578   -0.2809 S   0  0  0  0  0  1  0  0  0  0  0  0
   -1.5973   -0.4186   -0.0162 N   0  0  0  0  0  2  0  0  0  0  0  0
    0.6124    0.9223   -0.0304 N   0  0  0  0  0  2  0  0  0  0  0  0
    1.7861    1.5844    0.0116 N   0  0  0  0  0  2  0  0  0  0  0  0
    4.0667    1.3513   -0.0554 N   0  0  0  0  0  0  0  0  0  0  0  0
    4.9038    0.7780   -0.1191 H   0  0  0  0  0  0  0  0  0  0  0  0
    4.1375    2.3662    0.0016 H   0  0  0  0  0  0  0  0  0  0  0  0
   -0.4156    3.0366    0.0854 N   0  0  0  0  0  0  0  0  0  0  0  0
   -1.1360    3.5375    0.6057 H   0  0  0  0  0  0  0  0  0  0  0  0
    0.5528    3.3536    0.2255 H   0  0  0  0  0  0  0  0  0  0  0  0
   -1.7397    0.9344   -0.0150 C   0  0  0  0  0  0  0  0  0  0  0  0
   -3.0154    1.5280   -0.0917 C   0  0  0  0  0  0  0  0  0  0  0  0
   -3.1151    2.6215   -0.1335 H   0  0  0  0  0  0  0  0  0  0  0  0
   -4.1423    0.6993   -0.1469 C   0  0  0  0  0  0  0  0  0  0  0  0
   -5.1485    1.1408   -0.2050 H   0  0  0  0  0  0  0  0  0  0  0  0
   -3.9759   -0.6944   -0.1434 C   0  0  0  0  0  0  0  0  0  0  0  0
   -4.8359   -1.3763   -0.1927 H   0  0  0  0  0  0  0  0  0  0  0  0
   -2.6740   -1.2141   -0.0892 C   0  0  0  0  0  0  0  0  0  0  0  0
   -2.4623   -2.2940   -0.1119 H   0  0  0  0  0  0  0  0  0  0  0  0
   -0.4795    1.6701    0.0424 C   0  0  0  0  0  0  0  0  0  0  0  0
    2.8401    0.7706   -0.0850 C   0  0  2  0  0  3  0  0  0  0  0  0
  2 11  1  0  0  0  0
  3  4  1  0  0  0  0
  3 20  1  0  0  0  0
  5  7  1  0  0  0  0
  6  5  1  0  0  0  0
  8 10  1  0  0  0  0
  8  9  1  0  0  0  0
 11 20  2  0  0  0  0
 12 11  1  0  0  0  0
 13 12  1  0  0  0  0
 14 16  1  0  0  0  0
 14 12  2  0  0  0  0
 15 14  1  0  0  0  0
 16 18  2  0  0  0  0
 17 16  1  0  0  0  0
 18  2  1  0  0  0  0
 19 18  1  0  0  0  0
 20  8  1  0  0  0  0
 21  1  1  6  0  0  0
 21  5  1  0  0  0  0
 21  4  1  0  0  0  0
M  END
