1,2,3
q = 0.0, confidence = 0.976

 23 23  0  0  0  0  0  0  0  0999 V2000
   -1.1774   -1.4813    0.6942 S   0  0  0  0  0  0  0  0  0  0  0  0
   -0.5632    1.5158    0.8986 N   0  0  0  0  0  0  0  0  0  0  0  0
   -0.7130    0.4283   -1.6589 N   0  0  0  0  0  0  0  0  0  0  0  0
   -1.3357    2.2660   -0.1410 C   0  0  0  0  0  0  0  0  0  0  0  0
   -0.8839    1.8996   -1.5599 C   0  0  0  0  0  0  0  0  0  0  0  0
   -1.3736    0.9682    2.0154 C   0  0  0  0  0  0  0  0  0  0  0  0
   -2.2387   -0.2083    1.5586 C   0  0  0  0  0  0  0  0  0  0  0  0
   -1.9977   -0.3286   -1.7308 C   0  0  0  0  0  0  0  0  0  0  0  0
   -1.9553   -1.6477   -0.9715 C   0  0  0  0  0  0  0  0  0  0  0  0
   -0.6347    0.6152    2.7644 H   0  0  0  0  0  0  0  0  0  0  0  0
    0.2140    2.0904    1.2621 H   0  0  0  0  0  0  0  0  0  0  0  0
   -2.0173    1.7535    2.4731 H   0  0  0  0  0  0  0  0  0  0  0  0
   -3.0519    0.0955    0.8693 H   0  0  0  0  0  0  0  0  0  0  0  0
    0.1202    2.3297   -1.7473 H   0  0  0  0  0  0  0  0  0  0  0  0
   -1.2305    3.3593    0.0116 H   0  0  0  0  0  0  0  0  0  0  0  0
   -1.6110    2.2856   -2.3092 H   0  0  0  0  0  0  0  0  0  0  0  0
   -2.4103    2.0330    0.0025 H   0  0  0  0  0  0  0  0  0  0  0  0
   -2.7077   -0.6996    2.4330 H   0  0  0  0  0  0  0  0  0  0  0  0
   -2.9558   -2.1189   -0.8972 H   0  0  0  0  0  0  0  0  0  0  0  0
   -2.7976    0.3198   -1.3200 H   0  0  0  0  0  0  0  0  0  0  0  0
   -1.2372   -2.3507   -1.4455 H   0  0  0  0  0  0  0  0  0  0  0  0
   -2.2691   -0.5185   -2.7914 H   0  0  0  0  0  0  0  0  0  0  0  0
   -0.0944    0.1735   -2.4455 H   0  0  0  0  0  0  0  0  0  0  0  0
  1  7  1  0  0  0  0
  2 11  1  0  0  0  0
  2  6  1  0  0  0  0
  3  5  1  0  0  0  0
  4 17  1  0  0  0  0
  4 15  1  0  0  0  0
  4  2  1  0  0  0  0
  5  4  1  0  0  0  0
  6 12  1  0  0  0  0
  6 10  1  0  0  0  0
  7  6  1  0  0  0  0
  7 18  1  0  0  0  0
  8  3  1  0  0  0  0
  8 20  1  0  0  0  0
  8  9  1  0  0  0  0
  9 19  1  0  0  0  0
  9  1  1  0  0  0  0
 13  7  1  0  0  0  0
 14  5  1  0  0  0  0
 16  5  1  0  0  0  0
 21  9  1  0  0  0  0
 22  8  1  0  0  0  0
 23  3  1  0  0  0  0
M  END
