1,2,3
q = -1.0, confidence = 0.0

 25 26  0  0  0  0  0  0  0  0999 V2000
    1.5465    2.4615    0.5094 S   0  0  0  0  0  1  0  0  0  0  0  0
    0.6216    1.1225   -1.7943 N   0  0  0  0  0  2  0  0  0  0  0  0
   -1.1957   -0.4928   -0.8551 N   0  0  0  0  0  2  0  0  0  0  0  0
    1.5843    1.9603   -2.1587 N   0  0  0  0  0  0  0  0  0  0  0  0
    2.1154    2.6319   -1.1276 C   0  0  0  0  0  0  0  0  0  0  0  0
   -0.0773    0.4729   -2.7111 C   0  0  0  0  0  3  0  0  0  0  0  0
    0.1274    0.6257   -3.7812 H   0  0  0  0  0  0  0  0  0  0  0  0
    3.1220    3.4839   -1.3972 N   0  0  0  0  0  0  0  0  0  0  0  0
    3.4347    3.5937   -2.3627 H   0  0  0  0  0  0  0  0  0  0  0  0
    3.5436    4.0499   -0.6631 H   0  0  0  0  0  0  0  0  0  0  0  0
   -1.0637   -0.4395   -2.2085 C   0  0  0  0  0  0  0  0  0  0  0  0
   -2.0946   -1.3758   -0.3018 C   0  0  0  0  0  0  0  0  0  0  0  0
   -2.2557   -1.4873    1.1057 C   0  0  0  0  0  0  0  0  0  0  0  0
   -1.6573   -0.8546    1.7624 H   0  0  0  0  0  0  0  0  0  0  0  0
   -2.9032   -2.2294   -1.1475 C   0  0  0  0  0  0  0  0  0  0  0  0
   -3.1634   -2.3859    1.6491 C   0  0  0  0  0  0  0  0  0  0  0  0
   -3.2658   -2.4494    2.7427 H   0  0  0  0  0  0  0  0  0  0  0  0
   -3.9576   -3.2191    0.8214 C   0  0  0  0  0  0  0  0  0  0  0  0
   -4.6721   -3.9236    1.2709 H   0  0  0  0  0  0  0  0  0  0  0  0
   -2.7508   -2.1344   -2.5584 C   0  0  0  0  0  0  0  0  0  0  0  0
   -3.3640   -2.7733   -3.2118 H   0  0  0  0  0  0  0  0  0  0  0  0
   -1.8359   -1.2503   -3.0873 C   0  0  0  0  0  0  0  0  0  0  0  0
   -1.6833   -1.1531   -4.1710 H   0  0  0  0  0  0  0  0  0  0  0  0
   -3.8247   -3.1369   -0.5560 C   0  0  0  0  0  3  0  0  0  0  0  0
   -4.4294   -3.7739   -1.2191 H   0  0  0  0  0  0  0  0  0  0  0  0
  3 12  1  0  0  0  0
  4  2  1  0  0  0  0
  4  5  2  0  0  0  0
  5  1  1  0  0  0  0
  6 11  1  0  0  0  0
  6  2  1  0  0  0  0
  7  6  1  0  0  0  0
  8  5  1  0  0  0  0
  8 10  1  0  0  0  0
  9  8  1  0  0  0  0
 11  3  1  0  0  0  0
 12 13  2  0  0  0  0
 13 16  1  0  0  0  0
 13 14  1  0  0  0  0
 15 24  1  0  0  0  0
 15 12  1  0  0  0  0
 16 17  1  0  0  0  0
 18 19  1  0  0  0  0
 18 16  2  0  0  0  0
 20 15  2  0  0  0  0
 21 20  1  0  0  0  0
 22 20  1  0  0  0  0
 22 11  2  0  0  0  0
 23 22  1  0  0  0  0
 24 18  1  0  0  0  0
 25 24  1  0  0  0  0
M  END
