1,2,3
q = -1.0, confidence = 0.008

 35 37  0  0  0  0  0  0  0  0999 V2000
    2.0157   -1.2802   -0.0152 S   0  0  2  0  0  3  0  0  0  0  0  0
   -0.2131    1.0833    0.0773 N   0  0  0  0  0  2  0  0  0  0  0  0
   -2.2138   -0.7120   -0.0917 N   0  0  0  0  0  2  0  0  0  0  0  0
    0.6538    3.0287    0.9638 O   0  0  0  0  0  0  0  0  0  0  0  0
    2.6566   -2.2447   -0.9670 O   0  0  0  0  0  1  0  0  0  0  0  0
    2.2638    1.5523    0.0897 C   0  0  0  0  0  0  0  0  0  0  0  0
    2.8647    0.3052   -0.1790 C   0  0  0  0  0  0  0  0  0  0  0  0
    4.2029    0.1787   -0.5904 C   0  0  0  0  0  0  0  0  0  0  0  0
    4.5876   -0.8246   -0.8279 H   0  0  0  0  0  0  0  0  0  0  0  0
    5.0039    1.3188   -0.7049 C   0  0  0  0  0  0  0  0  0  0  0  0
    6.0510    1.2256   -1.0292 H   0  0  0  0  0  0  0  0  0  0  0  0
    4.4532    2.5740   -0.4007 C   0  0  0  0  0  0  0  0  0  0  0  0
    5.0694    3.4824   -0.4783 H   0  0  0  0  0  0  0  0  0  0  0  0
    3.1150    2.6806   -0.0111 C   0  0  0  0  0  0  0  0  0  0  0  0
    2.6649    3.6548    0.2248 H   0  0  0  0  0  0  0  0  0  0  0  0
   -1.5270    1.5833    0.0490 C   0  0  0  0  0  0  0  0  0  0  0  0
   -1.9220    2.9356    0.0744 C   0  0  0  0  0  0  0  0  0  0  0  0
   -1.1585    3.7082    0.1989 H   0  0  0  0  0  0  0  0  0  0  0  0
   -3.2836    3.3032   -0.0371 C   0  0  0  0  0  0  0  0  0  0  0  0
   -3.5327    4.3753   -0.0202 H   0  0  0  0  0  0  0  0  0  0  0  0
   -4.2994    2.3640   -0.1545 C   0  0  0  0  0  3  0  0  0  0  0  0
   -5.3553    2.6626   -0.2289 H   0  0  0  0  0  0  0  0  0  0  0  0
   -3.9599    0.9849   -0.1732 C   0  0  0  0  0  0  0  0  0  0  0  0
   -4.9149   -0.0632   -0.2861 C   0  0  0  0  0  0  0  0  0  0  0  0
   -5.9822    0.1959   -0.3652 H   0  0  0  0  0  0  0  0  0  0  0  0
   -4.5027   -1.3875   -0.2955 C   0  0  0  0  0  0  0  0  0  0  0  0
   -5.2218   -2.2140   -0.3804 H   0  0  0  0  0  0  0  0  0  0  0  0
   -3.1241   -1.6821   -0.1944 C   0  0  0  0  0  0  0  0  0  0  0  0
   -2.7254   -2.7095   -0.1881 H   0  0  0  0  0  0  0  0  0  0  0  0
   -2.5760    0.6104   -0.0736 C   0  0  0  0  0  0  0  0  0  0  0  0
    0.8238    1.9151    0.4464 C   0  0  0  0  0  0  0  0  0  0  0  0
    2.4687   -1.7675    1.6759 C   0  0  0  0  0  0  0  0  0  0  0  0
    3.5698   -1.8685    1.7086 H   0  0  0  0  0  0  0  0  0  0  0  0
    1.9522   -2.7343    1.8284 H   0  0  0  0  0  0  0  0  0  0  0  0
    2.0979   -1.0001    2.3812 H   0  0  0  0  0  0  0  0  0  0  0  0
  1  5  1  6  0  0  0
  1 32  1  0  0  0  0
  2 31  1  0  0  0  0
  3 30  1  0  0  0  0
  6 31  1  0  0  0  0
  7  1  1  0  0  0  0
  7  6  2  0  0  0  0
  8  7  1  0  0  0  0
  9  8  1  0  0  0  0
 10  8  2  0  0  0  0
 10 12  1  0  0  0  0
 11 10  1  0  0  0  0
 12 14  2  0  0  0  0
 13 12  1  0  0  0  0
 14  6  1  0  0  0  0
 14 15  1  0  0  0  0
 16 17  1  0  0  0  0
 16  2  1  0  0  0  0
 17 18  1  0  0  0  0
 19 20  1  0  0  0  0
 19 17  2  0  0  0  0
 21 19  1  0  0  0  0
 22 21  1  0  0  0  0
 23 21  1  0  0  0  0
 23 30  1  0  0  0  0
 24 23  2  0  0  0  0
 25 24  1  0  0  0  0
 26 24  1  0  0  0  0
 26 28  2  0  0  0  0
 27 26  1  0  0  0  0
 28 29  1  0  0  0  0
 28  3  1  0  0  0  0
 30 16  2  0  0  0  0
 31  4  2  0  0  0  0
 32 33  1  0  0  0  0
 32 34  1  0  0  0  0
 32 35  1  0  0  0  0
M  END
