2,3,4
q = -1.0, confidence = 0.018

 29 30  0  0  0  0  0  0  0  0999 V2000
    5.0287   -1.7953    0.0012 Cl  0  0  0  0  0  0  0  0  0  0  0  0
    0.0879   -1.8422   -0.0007 S   0  0  0  0  0  1  0  0  0  0  0  0
   -3.3679    0.3292    0.0002 N   0  0  0  0  0  2  0  0  0  0  0  0
   -0.8772    0.7659   -0.0002 N   0  0  0  0  0  2  0  0  0  0  0  0
    0.4638    0.8537   -0.0004 N   0  0  0  0  0  0  0  0  0  0  0  0
    2.3813   -0.5013   -0.0008 N   0  0  0  0  0  0  0  0  0  0  0  0
    2.7024   -1.4768   -0.0007 H   0  0  0  0  0  0  0  0  0  0  0  0
   -4.6627   -0.0296    0.0004 C   0  0  0  0  0  0  0  0  0  0  0  0
   -4.8362   -1.1191    0.0003 H   0  0  0  0  0  0  0  0  0  0  0  0
   -5.6944    0.9206    0.0006 C   0  0  0  0  0  0  0  0  0  0  0  0
   -6.7402    0.5836    0.0008 H   0  0  0  0  0  0  0  0  0  0  0  0
   -5.3636    2.2856    0.0008 C   0  0  0  0  0  0  0  0  0  0  0  0
   -6.1527    3.0522    0.0010 H   0  0  0  0  0  0  0  0  0  0  0  0
   -4.0154    2.6641    0.0006 C   0  0  0  0  0  0  0  0  0  0  0  0
   -3.7163    3.7218    0.0006 H   0  0  0  0  0  0  0  0  0  0  0  0
   -3.0239    1.6637    0.0003 C   0  0  0  0  0  0  0  0  0  0  0  0
   -1.6024    1.8788    0.0001 C   0  0  0  0  0  0  0  0  0  0  0  0
   -1.1180    2.8662    0.0001 H   0  0  0  0  0  0  0  0  0  0  0  0
    1.0245   -0.3555   -0.0006 C   0  0  0  0  0  0  0  0  0  0  0  0
    3.4215    0.4310   -0.0005 C   0  0  0  0  0  0  0  0  0  0  0  0
    4.7559   -0.0626    0.0005 C   0  0  0  0  0  0  0  0  0  0  0  0
    5.8550    0.8022    0.0007 C   0  0  0  0  0  0  0  0  0  0  0  0
    6.8675    0.3751    0.0015 H   0  0  0  0  0  0  0  0  0  0  0  0
    5.6488    2.1894    0.0001 C   0  0  0  0  0  0  0  0  0  0  0  0
    6.5132    2.8692    0.0004 H   0  0  0  0  0  0  0  0  0  0  0  0
    4.3391    2.6933   -0.0008 C   0  0  0  0  0  0  0  0  0  0  0  0
    4.1669    3.7800   -0.0013 H   0  0  0  0  0  0  0  0  0  0  0  0
    3.2359    1.8317   -0.0011 C   0  0  0  0  0  0  0  0  0  0  0  0
    2.2067    2.2101   -0.0017 H   0  0  0  0  0  0  0  0  0  0  0  0
  2 19  1  0  0  0  0
  3 16  1  0  0  0  0
  3  8  1  0  0  0  0
  4 17  1  0  0  0  0
  5  4  1  0  0  0  0
  6  7  1  0  0  0  0
  6 19  1  0  0  0  0
  6 20  1  0  0  0  0
  8 10  2  0  0  0  0
  9  8  1  0  0  0  0
 10 12  1  0  0  0  0
 10 11  1  0  0  0  0
 12 13  1  0  0  0  0
 14 15  1  0  0  0  0
 14 12  2  0  0  0  0
 16 14  1  0  0  0  0
 17 18  1  0  0  0  0
 17 16  2  0  0  0  0
 19  5  2  0  0  0  0
 20 21  1  0  0  0  0
 21 22  2  0  0  0  0
 21  1  1  0  0  0  0
 22 23  1  0  0  0  0
 24 25  1  0  0  0  0
 24 22  1  0  0  0  0
 26 24  2  0  0  0  0
 27 26  1  0  0  0  0
 28 26  1  0  0  0  0
 28 20  2  0  0  0  0
 29 28  1  0  0  0  0
M  END
