5,11,19
q = -1.0, confidence = 0.016

 36 38  0  0  0  0  0  0  0  0999 V2000
    3.2046    0.0652    0.2844 B   0  0  1  0  0  0  0  0  0  0  0  0
    2.9498    1.3746    1.2378 C   0  0  0  0  0  0  0  0  0  0  0  0
    3.6647    2.2038    1.0656 H   0  0  0  0  0  0  0  0  0  0  0  0
    3.0185    1.0916    2.3079 H   0  0  0  0  0  0  0  0  0  0  0  0
    1.2732    2.1000    1.0043 S   0  0  0  0  0  0  0  0  0  0  0  0
    1.7462    3.3162   -0.2847 C   0  0  0  0  0  0  0  0  0  0  0  0
    2.3279    4.1262    0.1960 H   0  0  0  0  0  0  0  0  0  0  0  0
    0.8306    3.7326   -0.7422 H   0  0  0  0  0  0  0  0  0  0  0  0
    2.3469    2.8268   -1.0731 H   0  0  0  0  0  0  0  0  0  0  0  0
    2.3185   -1.0817    0.8775 N   0  0  0  0  0  0  0  0  0  0  0  0
    0.9719   -0.9310    0.9188 N   0  0  0  0  0  2  0  0  0  0  0  0
    0.4659   -1.9808    1.6041 C   0  0  0  0  0  3  0  0  0  0  0  0
   -0.6164   -2.0776    1.7367 H   0  0  0  0  0  0  0  0  0  0  0  0
    1.5139   -2.8181    2.0321 C   0  0  0  0  0  0  0  0  0  0  0  0
    1.4374   -3.7451    2.6084 H   0  0  0  0  0  0  0  0  0  0  0  0
    2.6761   -2.2072    1.5529 C   0  0  0  0  0  0  0  0  0  0  0  0
    3.7306   -2.4854    1.6432 H   0  0  0  0  0  0  0  0  0  0  0  0
    2.6631    0.3293   -1.1730 N   0  0  0  0  0  0  0  0  0  0  0  0
    1.3313    0.4850   -1.4163 N   0  0  0  0  0  2  0  0  0  0  0  0
    1.1885    0.7147   -2.7398 C   0  0  0  0  0  3  0  0  0  0  0  0
    0.1903    0.8600   -3.1666 H   0  0  0  0  0  0  0  0  0  0  0  0
    2.4506    0.7264   -3.3661 C   0  0  0  0  0  0  0  0  0  0  0  0
    2.6722    0.8849   -4.4259 H   0  0  0  0  0  0  0  0  0  0  0  0
    3.3593    0.4781   -2.3347 C   0  0  0  0  0  0  0  0  0  0  0  0
    4.4495    0.3852   -2.3399 H   0  0  0  0  0  0  0  0  0  0  0  0
    4.7480   -0.4191    0.2182 C   0  0  0  0  0  0  0  0  0  0  0  0
    5.1049   -1.5616   -0.5400 C   0  0  0  0  0  0  0  0  0  0  0  0
    4.3208   -2.1066   -1.0911 H   0  0  0  0  0  0  0  0  0  0  0  0
    6.4283   -2.0213   -0.6105 C   0  0  0  0  0  0  0  0  0  0  0  0
    6.6708   -2.9126   -1.2103 H   0  0  0  0  0  0  0  0  0  0  0  0
    7.4439   -1.3443    0.0854 C   0  0  0  0  0  0  0  0  0  0  0  0
    8.4846   -1.7002    0.0340 H   0  0  0  0  0  0  0  0  0  0  0  0
    7.1193   -0.2122    0.8470 C   0  0  0  0  0  0  0  0  0  0  0  0
    7.9068    0.3250    1.3986 H   0  0  0  0  0  0  0  0  0  0  0  0
    5.7891    0.2376    0.9082 C   0  0  0  0  0  0  0  0  0  0  0  0
    5.5635    1.1272    1.5175 H   0  0  0  0  0  0  0  0  0  0  0  0
  1 10  1  0  0  0  0
  1  2  1  1  0  0  0
  2  4  1  0  0  0  0
  3  2  1  0  0  0  0
  5  2  1  0  0  0  0
  6  7  1  0  0  0  0
  6  5  1  0  0  0  0
  8  6  1  0  0  0  0
  9  6  1  0  0  0  0
 10 11  1  0  0  0  0
 10 16  1  0  0  0  0
 11 12  1  0  0  0  0
 12 13  1  0  0  0  0
 12 14  1  0  0  0  0
 14 15  1  0  0  0  0
 16 17  1  0  0  0  0
 16 14  2  0  0  0  0
 18  1  1  0  0  0  0
 19 18  1  0  0  0  0
 20 19  1  0  0  0  0
 21 20  1  0  0  0  0
 22 20  1  0  0  0  0
 22 24  2  0  0  0  0
 23 22  1  0  0  0  0
 24 18  1  0  0  0  0
 25 24  1  0  0  0  0
 26  1  1  0  0  0  0
 26 35  1  0  0  0  0
 27 26  2  0  0  0  0
 28 27  1  0  0  0  0
 29 27  1  0  0  0  0
 29 31  2  0  0  0  0
 30 29  1  0  0  0  0
 31 33  1  0  0  0  0
 32 31  1  0  0  0  0
 33 35  2  0  0  0  0
 33 34  1  0  0  0  0
 35 36  1  0  0  0  0
M  END
