1,3,4
q = -1.0, confidence = 0.0

 34 36  0  0  1  0  0  0  0  0999 V2000
    2.1215   -0.0183   -1.4034 S   0  0  0  0  0  0  0  0  0  0  0  0
    0.0825    3.3687   -1.0514 O   0  0  0  0  0  0  0  0  0  0  0  0
   -0.5185    1.1491   -0.6660 N   0  0  0  0  0  2  0  0  0  0  0  0
   -1.7933   -1.0602    0.0778 N   0  0  0  0  0  2  0  0  0  0  0  0
   -2.3570   -2.2242    0.4034 C   0  0  0  0  0  0  0  0  0  0  0  0
   -1.7419   -3.1180    0.2071 H   0  0  0  0  0  0  0  0  0  0  0  0
   -3.6513   -2.2785    0.9726 C   0  0  0  0  0  0  0  0  0  0  0  0
   -4.0827   -3.2569    1.2266 H   0  0  0  0  0  0  0  0  0  0  0  0
   -4.3471   -1.0998    1.2017 C   0  0  0  0  0  0  0  0  0  0  0  0
   -5.3546   -1.1182    1.6458 H   0  0  0  0  0  0  0  0  0  0  0  0
   -4.3947    1.4137    1.0678 C   0  0  0  0  0  0  0  0  0  0  0  0
   -5.4002    1.4459    1.5124 H   0  0  0  0  0  0  0  0  0  0  0  0
   -3.7282    2.5785    0.7045 C   0  0  0  0  0  0  0  0  0  0  0  0
   -4.2148    3.5530    0.8642 H   0  0  0  0  0  0  0  0  0  0  0  0
   -2.4331    2.5623    0.1316 C   0  0  0  0  0  0  0  0  0  0  0  0
   -1.9225    3.4906   -0.1482 H   0  0  0  0  0  0  0  0  0  0  0  0
   -1.7738    1.3416   -0.0912 C   0  0  0  0  0  0  0  0  0  0  0  0
   -2.4514    0.1319    0.2879 C   0  0  2  0  0  3  0  0  0  0  0  0
   -3.7634    0.1547    0.8651 C   0  0  0  0  0  0  0  0  0  0  0  0
    0.2888    2.1557   -1.1301 C   0  0  0  0  0  0  0  0  0  0  0  0
    1.5325    1.6494   -1.8849 C   0  0  0  0  0  0  0  0  0  0  0  0
    2.3577    2.3832   -1.8237 H   0  0  0  0  0  0  0  0  0  0  0  0
    1.2704    1.5304   -2.9572 H   0  0  0  0  0  0  0  0  0  0  0  0
    2.9078    0.2670    0.1963 C   0  0  0  0  0  0  0  0  0  0  0  0
    3.4285   -0.8818    0.8232 C   0  0  0  0  0  0  0  0  0  0  0  0
    3.2793   -1.8713    0.3634 H   0  0  0  0  0  0  0  0  0  0  0  0
    4.0812   -0.7495    2.0549 C   0  0  0  0  0  0  0  0  0  0  0  0
    4.4829   -1.6461    2.5504 H   0  0  0  0  0  0  0  0  0  0  0  0
    4.2151    0.5128    2.6576 C   0  0  0  0  0  0  0  0  0  0  0  0
    4.7290    0.6110    3.6254 H   0  0  0  0  0  0  0  0  0  0  0  0
    3.6809    1.6460    2.0278 C   0  0  0  0  0  0  0  0  0  0  0  0
    3.7684    2.6360    2.5002 H   0  0  0  0  0  0  0  0  0  0  0  0
    3.0204    1.5336    0.7931 C   0  0  0  0  0  0  0  0  0  0  0  0
    2.5882    2.4304    0.3289 H   0  0  0  0  0  0  0  0  0  0  0  0
  1 24  1  0  0  0  0
  3 17  1  0  0  0  0
  4 18  1  0  0  0  0
  4  5  1  0  0  0  0
  5  7  2  0  0  0  0
  6  5  1  0  0  0  0
  7  9  1  0  0  0  0
  7  8  1  0  0  0  0
  9 10  1  0  0  0  0
 11 12  1  0  0  0  0
 13 14  1  0  0  0  0
 13 11  2  0  0  0  0
 15 13  1  0  0  0  0
 16 15  1  0  0  0  0
 17 15  2  0  0  0  0
 18 17  1  1  0  0  0
 18 19  1  0  0  0  0
 19 11  1  0  0  0  0
 19  9  2  0  0  0  0
 20  2  2  0  0  0  0
 20  3  1  0  0  0  0
 21 22  1  0  0  0  0
 21  1  1  0  0  0  0
 21 20  1  0  0  0  0
 23 21  1  0  0  0  0
 24 33  2  0  0  0  0
 24 25  1  0  0  0  0
 25 27  2  0  0  0  0
 26 25  1  0  0  0  0
 27 28  1  0  0  0  0
 27 29  1  0  0  0  0
 29 30  1  0  0  0  0
 31 32  1  0  0  0  0
 31 29  2  0  0  0  0
 33 31  1  0  0  0  0
 34 33  1  0  0  0  0
M  END
