1,4,5
q = -1.0, confidence = 0.002

 39 41  0  0  0  0  0  0  0  0999 V2000
   -1.4472   -2.1830   -0.0314 S   0  0  0  0  0  1  0  0  0  0  0  0
   -3.4725   -0.4382    0.0316 N   0  0  0  0  0  0  0  0  0  0  0  0
   -1.4294    0.6115   -0.0239 N   0  0  0  0  0  0  0  0  0  0  0  0
   -0.1186    0.4684   -0.0326 N   0  0  0  0  0  2  0  0  0  0  0  0
    2.4680   -0.2259   -0.0000 N   0  0  0  0  0  2  0  0  0  0  0  0
   -4.3844   -1.5950    0.0708 C   0  0  0  0  0  0  0  0  0  0  0  0
   -4.0292   -2.3405    0.8124 H   0  0  0  0  0  0  0  0  0  0  0  0
   -4.3963   -2.0882   -0.9269 H   0  0  0  0  0  0  0  0  0  0  0  0
   -5.7377   -0.9650    0.4225 C   0  0  0  0  0  0  0  0  0  0  0  0
   -6.5862   -1.5680    0.0493 H   0  0  0  0  0  0  0  0  0  0  0  0
   -5.8412   -0.8833    1.5241 H   0  0  0  0  0  0  0  0  0  0  0  0
   -5.6501    0.4305   -0.2144 C   0  0  0  0  0  0  0  0  0  0  0  0
   -5.8368    0.3697   -1.3065 H   0  0  0  0  0  0  0  0  0  0  0  0
   -6.3748    1.1502    0.2102 H   0  0  0  0  0  0  0  0  0  0  0  0
   -4.2003    0.8490    0.0481 C   0  0  0  0  0  0  0  0  0  0  0  0
   -3.7701    1.5349   -0.7062 H   0  0  0  0  0  0  0  0  0  0  0  0
   -4.0664    1.3245    1.0440 H   0  0  0  0  0  0  0  0  0  0  0  0
   -2.1395   -0.5260   -0.0046 C   0  0  0  0  0  0  0  0  0  0  0  0
    0.7493    1.4884   -0.0249 C   0  0  0  0  0  0  0  0  0  0  0  0
    0.2943    2.8931   -0.0066 C   0  0  0  0  0  0  0  0  0  0  0  0
   -0.6006    3.3708   -0.9906 C   0  0  0  0  0  0  0  0  0  0  0  0
   -0.9599    2.6921   -1.7768 H   0  0  0  0  0  0  0  0  0  0  0  0
   -1.0109    4.7087   -0.9731 C   0  0  0  0  0  0  0  0  0  0  0  0
   -1.6934    5.0797   -1.7520 H   0  0  0  0  0  0  0  0  0  0  0  0
   -0.5517    5.5769    0.0321 C   0  0  0  0  0  0  0  0  0  0  0  0
   -0.8811    6.6265    0.0448 H   0  0  0  0  0  0  0  0  0  0  0  0
    0.3255    5.1052    1.0214 C   0  0  0  0  0  0  0  0  0  0  0  0
    0.6762    5.7790    1.8170 H   0  0  0  0  0  0  0  0  0  0  0  0
    0.7531    3.7709    1.0032 C   0  0  0  0  0  0  0  0  0  0  0  0
    1.4244    3.3992    1.7922 H   0  0  0  0  0  0  0  0  0  0  0  0
    2.1677    1.1152   -0.0398 C   0  0  0  0  0  0  0  0  0  0  0  0
    3.2255    2.0416   -0.1262 C   0  0  0  0  0  0  0  0  0  0  0  0
    2.9942    3.1129   -0.1928 H   0  0  0  0  0  0  0  0  0  0  0  0
    4.5489    1.5818   -0.1398 C   0  0  0  0  0  0  0  0  0  0  0  0
    5.3763    2.3036   -0.2070 H   0  0  0  0  0  0  0  0  0  0  0  0
    4.8130    0.2052   -0.0767 C   0  0  0  0  0  0  0  0  0  0  0  0
    5.8384   -0.1891   -0.0851 H   0  0  0  0  0  0  0  0  0  0  0  0
    3.7308   -0.6817   -0.0165 C   0  0  0  0  0  0  0  0  0  0  0  0
    3.8423   -1.7784    0.0147 H   0  0  0  0  0  0  0  0  0  0  0  0
  1 18  1  0  0  0  0
  2 15  1  0  0  0  0
  2  6  1  0  0  0  0
  3 18  2  0  0  0  0
  4 19  1  0  0  0  0
  4  3  1  0  0  0  0
  6  9  1  0  0  0  0
  6  7  1  0  0  0  0
  8  6  1  0  0  0  0
  9 11  1  0  0  0  0
 10  9  1  0  0  0  0
 12 15  1  0  0  0  0
 12 14  1  0  0  0  0
 12  9  1  0  0  0  0
 13 12  1  0  0  0  0
 15 17  1  0  0  0  0
 16 15  1  0  0  0  0
 18  2  1  0  0  0  0
 19 20  1  0  0  0  0
 20 29  1  0  0  0  0
 21 23  1  0  0  0  0
 21 20  2  0  0  0  0
 22 21  1  0  0  0  0
 23 25  2  0  0  0  0
 24 23  1  0  0  0  0
 25 26  1  0  0  0  0
 25 27  1  0  0  0  0
 27 28  1  0  0  0  0
 29 27  2  0  0  0  0
 29 30  1  0  0  0  0
 31 19  2  0  0  0  0
 31  5  1  0  0  0  0
 32 31  1  0  0  0  0
 33 32  1  0  0  0  0
 34 32  2  0  0  0  0
 34 36  1  0  0  0  0
 35 34  1  0  0  0  0
 36 38  2  0  0  0  0
 37 36  1  0  0  0  0
 38  5  1  0  0  0  0
 38 39  1  0  0  0  0
M  END
