1,2,5
q = 0.0, confidence = 0.994

 19 18  0  0  0  0  0  0  0  0999 V2000
    1.4586    0.0443   -1.0984 S   0  0  0  0  0  0  0  0  0  0  0  0
    0.3796    1.4290    1.3527 N   0  0  0  0  0  0  0  0  0  0  0  0
    0.8287    0.9919    2.1721 H   0  0  0  0  0  0  0  0  0  0  0  0
   -0.3390    2.0541    1.7453 H   0  0  0  0  0  0  0  0  0  0  0  0
    0.3776   -1.6309    1.2238 N   0  0  0  0  0  0  0  0  0  0  0  0
   -0.0733   -2.5028    0.9101 H   0  0  0  0  0  0  0  0  0  0  0  0
    0.1601   -1.5752    2.2294 H   0  0  0  0  0  0  0  0  0  0  0  0
    1.3754    2.2376    0.6030 C   0  0  0  0  0  0  0  0  0  0  0  0
    1.9282    2.9313    1.2736 H   0  0  0  0  0  0  0  0  0  0  0  0
    0.8191    2.8615   -0.1244 H   0  0  0  0  0  0  0  0  0  0  0  0
    2.3640    1.3376   -0.1211 C   0  0  0  0  0  0  0  0  0  0  0  0
    2.9858    1.9179   -0.8298 H   0  0  0  0  0  0  0  0  0  0  0  0
    3.0480    0.8222    0.5835 H   0  0  0  0  0  0  0  0  0  0  0  0
    2.2050   -1.5034   -0.4332 C   0  0  0  0  0  0  0  0  0  0  0  0
    3.3012   -1.4720   -0.5930 H   0  0  0  0  0  0  0  0  0  0  0  0
    1.7979   -2.3002   -1.0898 H   0  0  0  0  0  0  0  0  0  0  0  0
    1.8440   -1.7279    1.0250 C   0  0  0  0  0  0  0  0  0  0  0  0
    2.2386   -2.7120    1.3603 H   0  0  0  0  0  0  0  0  0  0  0  0
    2.3324   -0.9638    1.6640 H   0  0  0  0  0  0  0  0  0  0  0  0
  1 14  1  0  0  0  0
  1 11  1  0  0  0  0
  2  4  1  0  0  0  0
  2  3  1  0  0  0  0
  5  7  1  0  0  0  0
  6  5  1  0  0  0  0
  8  9  1  0  0  0  0
  8  2  1  0  0  0  0
 10  8  1  0  0  0  0
 11 13  1  0  0  0  0
 11  8  1  0  0  0  0
 12 11  1  0  0  0  0
 14 17  1  0  0  0  0
 15 14  1  0  0  0  0
 16 14  1  0  0  0  0
 17  5  1  0  0  0  0
 17 18  1  0  0  0  0
 17 19  1  0  0  0  0
M  END
