1,3,5
q = -1.0, confidence = 0.0

 34 35  0  0  0  0  0  0  0  0999 V2000
   -1.2267   -1.5398   -1.9361 S   0  0  0  0  0  1  0  0  0  0  0  0
   -3.9906   -1.4740   -2.8814 S   0  0  0  0  0  0  0  0  0  0  0  0
   -1.9680    1.1756   -0.9095 N   0  0  0  0  0  2  0  0  0  0  0  0
   -2.9402    0.6103   -1.6301 N   0  0  0  0  0  0  0  0  0  0  0  0
   -0.0311    2.0378    0.6929 N   0  0  0  0  0  2  0  0  0  0  0  0
   -1.0153    2.9165    0.3695 C   0  0  0  0  0  0  0  0  0  0  0  0
   -2.0840    2.4278   -0.5157 C   0  0  0  0  0  0  0  0  0  0  0  0
   -3.2241    3.3142   -0.9184 C   0  0  0  0  0  0  0  0  0  0  0  0
   -3.8210    2.8018   -1.6935 H   0  0  0  0  0  0  0  0  0  0  0  0
   -2.8599    4.2811   -1.3213 H   0  0  0  0  0  0  0  0  0  0  0  0
   -3.8856    3.5455   -0.0563 H   0  0  0  0  0  0  0  0  0  0  0  0
    0.9756    2.4182    1.4854 C   0  0  0  0  0  0  0  0  0  0  0  0
    1.7490    1.6563    1.6821 H   0  0  0  0  0  0  0  0  0  0  0  0
   -2.6720   -0.6356   -2.0550 C   0  0  0  0  0  0  0  0  0  0  0  0
   -0.9962    4.2352    0.8825 C   0  0  0  0  0  0  0  0  0  0  0  0
   -1.7967    4.9415    0.6244 H   0  0  0  0  0  0  0  0  0  0  0  0
   -5.8686   -0.5034   -1.0328 C   0  0  0  0  0  0  0  0  0  0  0  0
    1.0659    3.7074    2.0319 C   0  0  0  0  0  0  0  0  0  0  0  0
    1.9119    3.9781    2.6791 H   0  0  0  0  0  0  0  0  0  0  0  0
    0.0528    4.6275    1.7206 C   0  0  0  0  0  0  0  0  0  0  0  0
    0.0820    5.6503    2.1259 H   0  0  0  0  0  0  0  0  0  0  0  0
   -5.9301    0.6564   -0.2360 C   0  0  0  0  0  0  0  0  0  0  0  0
   -5.6560    1.6242   -0.6796 H   0  0  0  0  0  0  0  0  0  0  0  0
   -6.2072   -1.7412   -0.4480 C   0  0  0  0  0  0  0  0  0  0  0  0
   -6.1347   -2.6588   -1.0525 H   0  0  0  0  0  0  0  0  0  0  0  0
   -5.4481   -0.4217   -2.4802 C   0  0  0  0  0  0  0  0  0  0  0  0
   -5.2233    0.6185   -2.7798 H   0  0  0  0  0  0  0  0  0  0  0  0
   -6.2372   -0.8221   -3.1503 H   0  0  0  0  0  0  0  0  0  0  0  0
   -6.6143   -1.8145    0.8911 C   0  0  0  0  0  0  0  0  0  0  0  0
   -6.8825   -2.7891    1.3273 H   0  0  0  0  0  0  0  0  0  0  0  0
   -6.6789   -0.6495    1.6754 C   0  0  0  0  0  0  0  0  0  0  0  0
   -7.0011   -0.7053    2.7266 H   0  0  0  0  0  0  0  0  0  0  0  0
   -6.3304    0.5860    1.1078 C   0  0  0  0  0  0  0  0  0  0  0  0
   -6.3721    1.5037    1.7146 H   0  0  0  0  0  0  0  0  0  0  0  0
  2 26  1  0  0  0  0
  2 14  1  0  0  0  0
  3  7  1  0  0  0  0
  4  3  1  0  0  0  0
  5 12  1  0  0  0  0
  6  5  1  0  0  0  0
  6 15  1  0  0  0  0
  7  6  2  0  0  0  0
  8  7  1  0  0  0  0
  8 11  1  0  0  0  0
  9  8  1  0  0  0  0
 10  8  1  0  0  0  0
 12 13  1  0  0  0  0
 12 18  2  0  0  0  0
 14  1  1  0  0  0  0
 14  4  2  0  0  0  0
 15 20  2  0  0  0  0
 16 15  1  0  0  0  0
 17 24  2  0  0  0  0
 17 22  1  0  0  0  0
 18 19  1  0  0  0  0
 20 18  1  0  0  0  0
 20 21  1  0  0  0  0
 22 33  2  0  0  0  0
 23 22  1  0  0  0  0
 24 29  1  0  0  0  0
 25 24  1  0  0  0  0
 26 17  1  0  0  0  0
 27 26  1  0  0  0  0
 28 26  1  0  0  0  0
 29 30  1  0  0  0  0
 29 31  2  0  0  0  0
 31 32  1  0  0  0  0
 33 31  1  0  0  0  0
 33 34  1  0  0  0  0
M  END
