1,4,5
q = -1.0, confidence = 0.012

 31 32  0  0  0  0  0  0  0  0999 V2000
   -1.8023   -0.3381   -1.8082 S   0  0  0  0  0  1  0  0  0  0  0  0
   -4.5805   -0.4082   -0.9031 S   0  0  0  0  0  0  0  0  0  0  0  0
   -2.6031   -0.2291    0.8434 N   0  0  0  0  0  0  0  0  0  0  0  0
   -1.3018   -0.1708    1.1277 N   0  0  0  0  0  2  0  0  0  0  0  0
    1.3449    0.0638    1.5790 N   0  0  0  0  0  2  0  0  0  0  0  0
   -6.9002   -0.5923    0.5180 C   0  0  0  0  0  0  0  0  0  0  0  0
   -7.4659   -1.8756    0.3704 C   0  0  0  0  0  0  0  0  0  0  0  0
   -6.8155   -2.7617    0.4415 H   0  0  0  0  0  0  0  0  0  0  0  0
   -8.8393   -2.0292    0.1345 C   0  0  0  0  0  0  0  0  0  0  0  0
   -9.2664   -3.0380    0.0267 H   0  0  0  0  0  0  0  0  0  0  0  0
   -9.6681   -0.8998    0.0358 C   0  0  0  0  0  0  0  0  0  0  0  0
  -10.7465   -1.0199   -0.1485 H   0  0  0  0  0  0  0  0  0  0  0  0
   -9.1146    0.3830    0.1730 C   0  0  0  0  0  0  0  0  0  0  0  0
   -9.7581    1.2727    0.0958 H   0  0  0  0  0  0  0  0  0  0  0  0
   -7.7403    0.5343    0.4088 C   0  0  0  0  0  0  0  0  0  0  0  0
   -7.3062    1.5414    0.5124 H   0  0  0  0  0  0  0  0  0  0  0  0
   -5.4224   -0.4297    0.7460 C   0  0  0  0  0  0  0  0  0  0  0  0
   -4.9880   -1.2632    1.3298 H   0  0  0  0  0  0  0  0  0  0  0  0
   -5.1774    0.5141    1.2687 H   0  0  0  0  0  0  0  0  0  0  0  0
   -2.8766   -0.3115   -0.4743 C   0  0  0  0  0  0  0  0  0  0  0  0
   -0.9134   -0.0893    2.3751 C   0  0  0  0  0  0  0  0  0  0  0  0
   -1.6507   -0.0936    3.1988 H   0  0  0  0  0  0  0  0  0  0  0  0
    0.5123    0.0022    2.6526 C   0  0  0  0  0  0  0  0  0  0  0  0
    1.0182    0.0209    3.9725 C   0  0  0  0  0  0  0  0  0  0  0  0
    0.3220   -0.0277    4.8230 H   0  0  0  0  0  0  0  0  0  0  0  0
    2.4011    0.0914    4.1678 C   0  0  0  0  0  0  0  0  0  0  0  0
    2.8169    0.1026    5.1868 H   0  0  0  0  0  0  0  0  0  0  0  0
    3.2493    0.1404    3.0498 C   0  0  0  0  0  0  0  0  0  0  0  0
    4.3427    0.1876    3.1459 H   0  0  0  0  0  0  0  0  0  0  0  0
    2.6680    0.1233    1.7718 C   0  0  0  0  0  0  0  0  0  0  0  0
    3.2994    0.1547    0.8678 H   0  0  0  0  0  0  0  0  0  0  0  0
  1 20  1  0  0  0  0
  2 20  1  0  0  0  0
  2 17  1  0  0  0  0
  3  4  1  0  0  0  0
  4 21  1  0  0  0  0
  5 30  1  0  0  0  0
  5 23  1  0  0  0  0
  6 17  1  0  0  0  0
  7  8  1  0  0  0  0
  7  6  2  0  0  0  0
  9  7  1  0  0  0  0
 10  9  1  0  0  0  0
 11  9  2  0  0  0  0
 11 13  1  0  0  0  0
 12 11  1  0  0  0  0
 13 15  2  0  0  0  0
 14 13  1  0  0  0  0
 15 16  1  0  0  0  0
 15  6  1  0  0  0  0
 17 19  1  0  0  0  0
 17 18  1  0  0  0  0
 20  3  2  0  0  0  0
 21 23  2  0  0  0  0
 21 22  1  0  0  0  0
 23 24  1  0  0  0  0
 24 26  2  0  0  0  0
 24 25  1  0  0  0  0
 26 27  1  0  0  0  0
 28 29  1  0  0  0  0
 28 26  1  0  0  0  0
 30 28  2  0  0  0  0
 31 30  1  0  0  0  0
M  END
