1,4,5
q = 0.0, confidence = 0.998

 27 27  0  0  1  0  0  0  0  0999 V2000
   -1.6907   -1.4266   -1.1978 S   0  0  0  0  0  1  0  0  0  0  0  0
   -6.3904    0.5941   -0.2047 O   0  0  0  0  0  0  0  0  0  0  0  0
   -6.3171    0.3603    0.7407 H   0  0  0  0  0  0  0  0  0  0  0  0
    2.0251    1.4315   -0.6159 N   0  0  0  0  0  2  0  0  0  0  0  0
   -0.6195    1.3949   -1.1850 N   0  0  0  0  0  2  0  0  0  0  0  0
   -1.9333    1.2717   -1.3010 N   0  0  0  0  0  0  0  0  0  0  0  0
   -2.5283    2.1143   -1.3154 H   0  0  0  0  0  0  0  0  0  0  0  0
   -3.8924    0.0879   -1.1474 N   0  0  0  0  0  0  0  0  0  0  0  0
   -4.3528    0.9725   -0.8873 H   0  0  0  0  0  0  0  0  0  0  0  0
    1.4296    2.5771   -1.0260 C   0  0  0  0  0  0  0  0  0  0  0  0
    2.1676    3.7617   -1.2260 C   0  0  0  0  0  0  0  0  0  0  0  0
    1.6563    4.6806   -1.5497 H   0  0  0  0  0  0  0  0  0  0  0  0
    3.5521    3.7384   -1.0149 C   0  0  0  0  0  0  0  0  0  0  0  0
    4.1516    4.6488   -1.1652 H   0  0  0  0  0  0  0  0  0  0  0  0
    4.1597    2.5403   -0.6135 C   0  0  0  0  0  0  0  0  0  0  0  0
    5.2434    2.4764   -0.4405 H   0  0  0  0  0  0  0  0  0  0  0  0
    3.3493    1.4075   -0.4242 C   0  0  0  0  0  0  0  0  0  0  0  0
    3.7665    0.4339   -0.1086 H   0  0  0  0  0  0  0  0  0  0  0  0
   -0.0179    2.5384   -1.2519 C   0  0  0  0  0  0  0  0  0  0  0  0
   -0.5532    3.4919   -1.4441 H   0  0  0  0  0  0  0  0  0  0  0  0
   -2.5431    0.0207   -1.2036 C   0  0  1  0  0  3  0  0  0  0  0  0
   -4.7412   -1.0635   -0.9015 C   0  0  0  0  0  0  0  0  0  0  0  0
   -4.4988   -1.5074    0.0930 H   0  0  0  0  0  0  0  0  0  0  0  0
   -4.5375   -1.8552   -1.6518 H   0  0  0  0  0  0  0  0  0  0  0  0
   -6.1958   -0.5937   -0.9640 C   0  0  0  0  0  0  0  0  0  0  0  0
   -6.4627   -0.3299   -2.0083 H   0  0  0  0  0  0  0  0  0  0  0  0
   -6.8684   -1.4219   -0.6465 H   0  0  0  0  0  0  0  0  0  0  0  0
  2  3  1  0  0  0  0
  4 17  1  0  0  0  0
  6 21  1  0  0  0  0
  6  5  1  0  0  0  0
  7  6  1  0  0  0  0
  8 22  1  0  0  0  0
  8  9  1  0  0  0  0
 10  4  1  0  0  0  0
 11 10  1  0  0  0  0
 11 13  2  0  0  0  0
 12 11  1  0  0  0  0
 13 15  1  0  0  0  0
 14 13  1  0  0  0  0
 15 16  1  0  0  0  0
 15 17  2  0  0  0  0
 17 18  1  0  0  0  0
 19  5  1  0  0  0  0
 19 10  2  0  0  0  0
 20 19  1  0  0  0  0
 21  1  1  6  0  0  0
 21  8  1  0  0  0  0
 22 23  1  0  0  0  0
 24 22  1  0  0  0  0
 25 22  1  0  0  0  0
 25 27  1  0  0  0  0
 25  2  1  0  0  0  0
 26 25  1  0  0  0  0
M  END
