1,2,3
 OpenBabel05122313063D

 28 28  0  0  1  0  0  0  0  0999 V2000
   -1.4157   -1.5678   -1.7855 S   0  0  0  0  0  1  0  0  0  0  0  0
    1.6150    1.6155   -0.3799 N   0  0  0  0  0  2  0  0  0  0  0  0
   -0.9576    1.2376   -1.0990 N   0  0  0  0  0  2  0  0  0  0  0  0
   -2.2814    0.8898   -1.0062 N   0  0  0  0  0  0  0  0  0  0  0  0
   -2.6882    1.1702   -0.0881 H   0  0  0  0  0  0  0  0  0  0  0  0
   -3.9059   -0.7466   -1.1477 N   0  0  0  0  0  0  0  0  0  0  0  0
   -1.4735    3.4705   -0.4384 N   0  0  0  0  0  0  0  0  0  0  0  0
   -2.4766    3.3016   -0.5034 H   0  0  0  0  0  0  0  0  0  0  0  0
   -1.1846    4.1719    0.2438 H   0  0  0  0  0  0  0  0  0  0  0  0
    2.9439    1.7550   -0.2898 C   0  0  0  0  0  3  0  0  0  0  0  0
    3.5057    0.8223   -0.0978 H   0  0  0  0  0  0  0  0  0  0  0  0
    3.5772    3.0018   -0.4255 C   0  0  0  0  0  0  0  0  0  0  0  0
    4.6699    3.0770   -0.3310 H   0  0  0  0  0  0  0  0  0  0  0  0
    2.7868    4.1304   -0.6813 C   0  0  0  0  0  0  0  0  0  0  0  0
    3.2476    5.1219   -0.8059 H   0  0  0  0  0  0  0  0  0  0  0  0
    1.3972    3.9791   -0.7928 C   0  0  0  0  0  0  0  0  0  0  0  0
    0.7493    4.8344   -1.0334 H   0  0  0  0  0  0  0  0  0  0  0  0
    0.8453    2.6947   -0.6336 C   0  0  0  0  0  0  0  0  0  0  0  0
   -0.6192    2.4409   -0.7276 C   0  0  2  0  0  3  0  0  0  0  0  0
   -2.5886   -0.4476   -1.2993 C   0  0  2  0  0  3  0  0  0  0  0  0
   -4.8892    0.2752   -0.8154 C   0  0  0  0  0  0  0  0  0  0  0  0
   -4.9219    0.4803    0.2793 H   0  0  0  0  0  0  0  0  0  0  0  0
   -5.8908   -0.0744   -1.1293 H   0  0  0  0  0  0  0  0  0  0  0  0
   -4.6600    1.2161   -1.3521 H   0  0  0  0  0  0  0  0  0  0  0  0
   -4.3889   -2.1193   -1.1786 C   0  0  0  0  0  0  0  0  0  0  0  0
   -5.0881   -2.2669   -2.0287 H   0  0  0  0  0  0  0  0  0  0  0  0
   -4.9196   -2.3524   -0.2318 H   0  0  0  0  0  0  0  0  0  0  0  0
   -3.5254   -2.7984   -1.2952 H   0  0  0  0  0  0  0  0  0  0  0  0
  2 10  1  0  0  0  0
  3  4  1  0  0  0  0
  4  5  1  0  0  0  0
  6 21  1  0  0  0  0
  7  9  1  0  0  0  0
  8  7  1  0  0  0  0
 10 11  1  0  0  0  0
 12 13  1  0  0  0  0
 12 10  1  0  0  0  0
 14 12  2  0  0  0  0
 15 14  1  0  0  0  0
 16 14  1  0  0  0  0
 16 18  2  0  0  0  0
 17 16  1  0  0  0  0
 18  2  1  0  0  0  0
 19  3  1  6  0  0  0
 19 18  1  0  0  0  0
 19  7  1  0  0  0  0
 20  1  1  1  0  0  0
 20  6  1  0  0  0  0
 20  4  1  0  0  0  0
 21 22  1  0  0  0  0
 23 21  1  0  0  0  0
 24 21  1  0  0  0  0
 25  6  1  0  0  0  0
 25 27  1  0  0  0  0
 26 25  1  0  0  0  0
 28 25  1  0  0  0  0
M  END
