1,4,5
 OpenBabel05122313063D

 43 44  0  0  0  0  0  0  0  0999 V2000
   -2.7275    0.4621    0.0183 S   0  0  2  0  0  3  0  0  0  0  0  0
    4.8829   -2.5781   -0.5385 S   0  0  0  0  0  0  0  0  0  0  0  0
   -2.7549    1.6371    0.9756 O   0  0  0  0  0  1  0  0  0  0  0  0
   -1.9157   -2.4998   -0.5982 N   0  0  0  0  0  2  0  0  0  0  0  0
    0.7592   -2.1158   -0.5113 N   0  0  0  0  0  2  0  0  0  0  0  0
   -1.0575   -3.6404   -0.9650 C   0  0  0  0  0  0  0  0  0  0  0  0
   -1.5516   -4.2779   -1.7281 H   0  0  0  0  0  0  0  0  0  0  0  0
   -0.9058   -4.2471   -0.0448 H   0  0  0  0  0  0  0  0  0  0  0  0
    0.2798   -3.1269   -1.4651 C   0  0  0  0  0  0  0  0  0  0  0  0
    1.0014   -3.9641   -1.5697 H   0  0  0  0  0  0  0  0  0  0  0  0
    0.1418   -2.6209   -2.4452 H   0  0  0  0  0  0  0  0  0  0  0  0
   -3.1805   -2.7885   -0.4247 C   0  0  0  0  0  3  0  0  0  0  0  0
   -3.5003   -3.8187   -0.6766 H   0  0  0  0  0  0  0  0  0  0  0  0
    1.9642   -2.3182   -0.0452 C   0  0  0  0  0  3  0  0  0  0  0  0
    2.4921   -3.2025   -0.4614 H   0  0  0  0  0  0  0  0  0  0  0  0
   -3.4807    1.0718   -1.5356 C   0  0  0  0  0  0  0  0  0  0  0  0
   -4.4075    1.5971   -1.2415 H   0  0  0  0  0  0  0  0  0  0  0  0
   -3.6659    0.2151   -2.2082 H   0  0  0  0  0  0  0  0  0  0  0  0
   -2.7446    1.7560   -1.9935 H   0  0  0  0  0  0  0  0  0  0  0  0
    6.6636   -2.5215   -0.2120 C   0  0  0  0  0  0  0  0  0  0  0  0
    7.1245   -3.1442   -1.0020 H   0  0  0  0  0  0  0  0  0  0  0  0
    6.9185   -2.9474    0.7784 H   0  0  0  0  0  0  0  0  0  0  0  0
    7.0562   -1.4885   -0.2972 H   0  0  0  0  0  0  0  0  0  0  0  0
   -4.1203   -0.6021    0.5288 C   0  0  0  0  0  0  0  0  0  0  0  0
   -4.2199   -1.9703    0.1742 C   0  0  0  0  0  0  0  0  0  0  0  0
   -5.4327   -2.6321    0.5089 C   0  0  0  0  0  0  0  0  0  0  0  0
   -5.5435   -3.6934    0.2355 H   0  0  0  0  0  0  0  0  0  0  0  0
   -6.4572   -1.9832    1.2020 C   0  0  0  0  0  0  0  0  0  0  0  0
   -7.3765   -2.5316    1.4562 H   0  0  0  0  0  0  0  0  0  0  0  0
   -6.3027   -0.6410    1.5896 C   0  0  0  0  0  0  0  0  0  0  0  0
   -7.0941   -0.1297    2.1579 H   0  0  0  0  0  0  0  0  0  0  0  0
   -5.1310    0.0474    1.2432 C   0  0  0  0  0  0  0  0  0  0  0  0
   -4.9627    1.0981    1.5266 H   0  0  0  0  0  0  0  0  0  0  0  0
    2.7634   -1.5632    0.9102 C   0  0  0  0  0  0  0  0  0  0  0  0
    2.2001   -0.8126    1.9643 C   0  0  0  0  0  0  0  0  0  0  0  0
    1.1058   -0.8214    2.0781 H   0  0  0  0  0  0  0  0  0  0  0  0
    3.0054   -0.1358    2.8842 C   0  0  0  0  0  0  0  0  0  0  0  0
    2.5357    0.4490    3.6883 H   0  0  0  0  0  0  0  0  0  0  0  0
    4.4014   -0.2137    2.7718 C   0  0  0  0  0  0  0  0  0  0  0  0
    5.0481    0.3122    3.4911 H   0  0  0  0  0  0  0  0  0  0  0  0
    4.9906   -0.9637    1.7444 C   0  0  0  0  0  0  0  0  0  0  0  0
    6.0851   -1.0010    1.6743 H   0  0  0  0  0  0  0  0  0  0  0  0
    4.1919   -1.6465    0.8067 C   0  0  0  0  0  0  0  0  0  0  0  0
  1 24  1  0  0  0  0
  1  3  1  1  0  0  0
  2 20  1  0  0  0  0
  2 43  1  0  0  0  0
  4 12  1  0  0  0  0
  5 14  1  0  0  0  0
  6  4  1  0  0  0  0
  6  8  1  0  0  0  0
  7  6  1  0  0  0  0
  9  6  1  0  0  0  0
  9  5  1  0  0  0  0
 10  9  1  0  0  0  0
 11  9  1  0  0  0  0
 12 25  1  0  0  0  0
 13 12  1  0  0  0  0
 14 34  1  0  0  0  0
 15 14  1  0  0  0  0
 16 17  1  0  0  0  0
 16  1  1  0  0  0  0
 18 16  1  0  0  0  0
 19 16  1  0  0  0  0
 20 22  1  0  0  0  0
 21 20  1  0  0  0  0
 23 20  1  0  0  0  0
 24 32  1  0  0  0  0
 25 26  1  0  0  0  0
 25 24  2  0  0  0  0
 26 28  2  0  0  0  0
 27 26  1  0  0  0  0
 28 29  1  0  0  0  0
 28 30  1  0  0  0  0
 30 31  1  0  0  0  0
 32 33  1  0  0  0  0
 32 30  2  0  0  0  0
 34 35  1  0  0  0  0
 35 36  1  0  0  0  0
 35 37  2  0  0  0  0
 37 38  1  0  0  0  0
 39 37  1  0  0  0  0
 39 40  1  0  0  0  0
 41 39  2  0  0  0  0
 42 41  1  0  0  0  0
 43 34  2  0  0  0  0
 43 41  1  0  0  0  0
M  END
