1,2,26
 OpenBabel05122313063D

 31 32  0  0  0  0  0  0  0  0999 V2000
    2.4032   -0.6613    0.5206 S   0  0  0  0  0  0  0  0  0  0  0  0
   -1.8367   -0.7356   -0.1643 N   0  0  0  0  0  2  0  0  0  0  0  0
   -3.4546    0.7656   -0.4652 N   0  0  0  0  0  0  0  0  0  0  0  0
   -2.1074    0.5857   -0.2974 C   0  0  0  0  0  0  0  0  0  0  0  0
   -4.1282    2.0615   -0.5456 C   0  0  0  0  0  0  0  0  0  0  0  0
   -5.0681    1.9056   -1.1112 H   0  0  0  0  0  0  0  0  0  0  0  0
   -3.4806    2.7246   -1.1523 H   0  0  0  0  0  0  0  0  0  0  0  0
   -4.0335   -0.4854   -0.4206 C   0  0  0  0  0  0  0  0  0  0  0  0
   -5.1138   -0.6206   -0.5327 H   0  0  0  0  0  0  0  0  0  0  0  0
   -4.3927    2.6691    0.8301 C   0  0  0  0  0  0  0  0  0  0  0  0
   -5.0357    2.0087    1.4447 H   0  0  0  0  0  0  0  0  0  0  0  0
   -4.9034    3.6460    0.7198 H   0  0  0  0  0  0  0  0  0  0  0  0
   -3.4418    2.8342    1.3737 H   0  0  0  0  0  0  0  0  0  0  0  0
   -3.0084   -1.4157   -0.2374 C   0  0  0  0  0  0  0  0  0  0  0  0
   -3.0410   -2.5077   -0.1644 H   0  0  0  0  0  0  0  0  0  0  0  0
    1.1686    1.7833   -0.0295 C   0  0  0  0  0  0  0  0  0  0  0  0
    2.4021    1.1188    0.1943 C   0  0  0  0  0  0  0  0  0  0  0  0
    2.3380    3.9049   -0.1812 C   0  0  0  0  0  0  0  0  0  0  0  0
    2.3188    4.9948   -0.3284 H   0  0  0  0  0  0  0  0  0  0  0  0
    1.1432    3.1815   -0.2120 C   0  0  0  0  0  0  0  0  0  0  0  0
    0.1731    3.6664   -0.3840 H   0  0  0  0  0  0  0  0  0  0  0  0
    3.5918    1.8575    0.2362 C   0  0  0  0  0  0  0  0  0  0  0  0
    4.5456    1.3453    0.4320 H   0  0  0  0  0  0  0  0  0  0  0  0
    3.5622    3.2466    0.0385 C   0  0  0  0  0  0  0  0  0  0  0  0
    4.5004    3.8200    0.0673 H   0  0  0  0  0  0  0  0  0  0  0  0
    0.0072    0.9917   -0.0694 N   0  0  0  0  0  2  0  0  0  0  0  0
   -1.1508    1.5463   -0.2637 N   0  0  0  0  0  0  0  0  0  0  0  0
    3.3646   -1.3015   -0.8942 C   0  0  0  0  0  0  0  0  0  0  0  0
    2.8642   -1.0017   -1.8343 H   0  0  0  0  0  0  0  0  0  0  0  0
    3.3013   -2.4003   -0.7766 H   0  0  0  0  0  0  0  0  0  0  0  0
    4.4125   -0.9582   -0.8116 H   0  0  0  0  0  0  0  0  0  0  0  0
  3  8  1  0  0  0  0
  3  4  1  0  0  0  0
  4 27  2  0  0  0  0
  4  2  1  0  0  0  0
  5  3  1  0  0  0  0
  5 10  1  0  0  0  0
  6  5  1  0  0  0  0
  7  5  1  0  0  0  0
  8 14  2  0  0  0  0
  9  8  1  0  0  0  0
 10 13  1  0  0  0  0
 10 11  1  0  0  0  0
 12 10  1  0  0  0  0
 14 15  1  0  0  0  0
 14  2  1  0  0  0  0
 16 17  1  0  0  0  0
 17 22  2  0  0  0  0
 17  1  1  0  0  0  0
 18 24  2  0  0  0  0
 19 18  1  0  0  0  0
 20 18  1  0  0  0  0
 20 16  2  0  0  0  0
 21 20  1  0  0  0  0
 22 23  1  0  0  0  0
 24 25  1  0  0  0  0
 24 22  1  0  0  0  0
 26 16  1  0  0  0  0
 27 26  1  0  0  0  0
 28 31  1  0  0  0  0
 28 30  1  0  0  0  0
 28  1  1  0  0  0  0
 29 28  1  0  0  0  0
M  END
