1,2,3
 OpenBabel05122313063D

 19 19  0  0  0  0  0  0  0  0999 V2000
   -1.5916   -1.9557    0.1957 S   0  0  0  0  0  1  0  0  0  0  0  0
    1.2984    0.9939   -0.5066 N   0  0  0  0  0  2  0  0  0  0  0  0
   -0.4058   -0.3831   -1.8505 N   0  0  0  0  0  2  0  0  0  0  0  0
   -1.3299   -1.1606   -2.4033 N   0  0  0  0  0  0  0  0  0  0  0  0
   -2.8912   -2.7882   -1.9893 N   0  0  0  0  0  0  0  0  0  0  0  0
    2.1669    1.6491    0.2815 C   0  0  0  0  0  3  0  0  0  0  0  0
    2.1607    1.3836    1.3488 H   0  0  0  0  0  0  0  0  0  0  0  0
    3.0475    2.6119   -0.2273 C   0  0  0  0  0  0  0  0  0  0  0  0
    3.7440    3.1227    0.4516 H   0  0  0  0  0  0  0  0  0  0  0  0
    3.0205    2.8965   -1.6029 C   0  0  0  0  0  0  0  0  0  0  0  0
    3.7014    3.6469   -2.0306 H   0  0  0  0  0  0  0  0  0  0  0  0
    2.1222    2.2113   -2.4261 C   0  0  0  0  0  0  0  0  0  0  0  0
    2.0758    2.4025   -3.5074 H   0  0  0  0  0  0  0  0  0  0  0  0
    1.2615    1.2509   -1.8556 C   0  0  0  0  0  0  0  0  0  0  0  0
    0.2993    0.4654   -2.5832 C   0  0  0  0  0  3  0  0  0  0  0  0
    0.1433    0.5327   -3.6703 H   0  0  0  0  0  0  0  0  0  0  0  0
   -1.9474   -1.9558   -1.5117 C   0  0  0  0  0  0  0  0  0  0  0  0
   -3.3779   -3.4382   -1.3743 H   0  0  0  0  0  0  0  0  0  0  0  0
   -3.0782   -2.8050   -2.9929 H   0  0  0  0  0  0  0  0  0  0  0  0
  2  6  1  0  0  0  0
  4  3  1  0  0  0  0
  4 17  2  0  0  0  0
  5 17  1  0  0  0  0
  5 18  1  0  0  0  0
  6  7  1  0  0  0  0
  8  6  1  0  0  0  0
  8  9  1  0  0  0  0
 10  8  2  0  0  0  0
 11 10  1  0  0  0  0
 12 14  2  0  0  0  0
 12 10  1  0  0  0  0
 13 12  1  0  0  0  0
 14  2  1  0  0  0  0
 15 14  1  0  0  0  0
 15  3  1  0  0  0  0
 16 15  1  0  0  0  0
 17  1  1  0  0  0  0
 19  5  1  0  0  0  0
M  END
