1,15,18
 OpenBabel05122313063D

 21 21  0  0  0  0  0  0  0  0999 V2000
    1.7252   -0.1436   -0.0008 N   0  0  0  0  0  2  0  0  0  0  0  0
    2.7347   -1.0264   -0.0005 C   0  0  0  0  0  0  0  0  0  0  0  0
    2.4380   -2.0889   -0.0009 H   0  0  0  0  0  0  0  0  0  0  0  0
    4.0687   -0.5930    0.0004 C   0  0  0  0  0  0  0  0  0  0  0  0
    4.8803   -1.3336    0.0005 H   0  0  0  0  0  0  0  0  0  0  0  0
    4.3290    0.7836    0.0013 C   0  0  0  0  0  0  0  0  0  0  0  0
    5.3643    1.1551    0.0023 H   0  0  0  0  0  0  0  0  0  0  0  0
    3.2608    1.6945    0.0011 C   0  0  0  0  0  0  0  0  0  0  0  0
    3.4626    2.7746    0.0024 H   0  0  0  0  0  0  0  0  0  0  0  0
    1.9443    1.2095   -0.0002 C   0  0  0  0  0  0  0  0  0  0  0  0
    0.7365    2.0584   -0.0007 C   0  0  0  0  0  0  0  0  0  0  0  0
    0.7711    3.4029   -0.0004 N   0  0  0  0  0  0  0  0  0  0  0  0
   -0.1263    3.8951   -0.0019 H   0  0  0  0  0  0  0  0  0  0  0  0
    1.6380    3.9330   -0.0069 H   0  0  0  0  0  0  0  0  0  0  0  0
   -0.4304    1.4105   -0.0002 N   0  0  0  0  0  2  0  0  0  0  0  0
   -1.5966    2.0773   -0.0001 N   0  0  0  0  0  0  0  0  0  0  0  0
   -2.6683    1.3027    0.0002 C   0  0  0  0  0  0  0  0  0  0  0  0
   -2.6466   -0.5002    0.0011 S   0  0  0  0  0  1  0  0  0  0  0  0
   -3.8944    1.8565    0.0001 N   0  0  0  0  0  0  0  0  0  0  0  0
   -3.9915    2.8728   -0.0002 H   0  0  0  0  0  0  0  0  0  0  0  0
   -4.7360    1.2812    0.0006 H   0  0  0  0  0  0  0  0  0  0  0  0
  1  2  1  0  0  0  0
  1 10  1  0  0  0  0
  2  4  2  0  0  0  0
  3  2  1  0  0  0  0
  4  5  1  0  0  0  0
  4  6  1  0  0  0  0
  6  7  1  0  0  0  0
  8  6  2  0  0  0  0
  8  9  1  0  0  0  0
 10  8  1  0  0  0  0
 11 12  1  0  0  0  0
 11 10  2  0  0  0  0
 11 15  1  0  0  0  0
 13 12  1  0  0  0  0
 14 12  1  0  0  0  0
 15 16  1  0  0  0  0
 16 17  2  0  0  0  0
 17 18  1  0  0  0  0
 19 17  1  0  0  0  0
 19 21  1  0  0  0  0
 20 19  1  0  0  0  0
M  END
