1,2,3
 OpenBabel05122313063D

 34 36  0  0  1  0  0  0  0  0999 V2000
   -2.3395   -0.1550   -1.6038 S   0  0  0  0  0  0  0  0  0  0  0  0
    1.4705   -1.5516    0.1612 N   0  0  0  0  0  2  0  0  0  0  0  0
   -1.1239   -1.6963    0.6053 N   0  0  0  0  0  2  0  0  0  0  0  0
    2.8073   -1.6148   -0.1615 C   0  0  2  0  0  3  0  0  0  0  0  0
    3.2400   -1.3750   -1.4942 C   0  0  0  0  0  0  0  0  0  0  0  0
    2.4891   -1.1323   -2.2601 H   0  0  0  0  0  0  0  0  0  0  0  0
    4.5904   -1.4255   -1.8075 C   0  0  0  0  0  0  0  0  0  0  0  0
    4.9076   -1.2461   -2.8456 H   0  0  0  0  0  0  0  0  0  0  0  0
    5.5645   -1.7038   -0.8125 C   0  0  0  0  0  0  0  0  0  0  0  0
    6.6309   -1.7287   -1.0812 H   0  0  0  0  0  0  0  0  0  0  0  0
    5.1689   -1.9647    0.4911 C   0  0  0  0  0  0  0  0  0  0  0  0
    5.9103   -2.2075    1.2670 H   0  0  0  0  0  0  0  0  0  0  0  0
    3.7923   -1.9486    0.8464 C   0  0  0  0  0  0  0  0  0  0  0  0
    3.3470   -2.2780    2.1561 C   0  0  0  0  0  0  0  0  0  0  0  0
    4.0861   -2.5249    2.9331 H   0  0  0  0  0  0  0  0  0  0  0  0
    1.9937   -2.3169    2.4237 C   0  0  0  0  0  0  0  0  0  0  0  0
    1.6061   -2.6066    3.4102 H   0  0  0  0  0  0  0  0  0  0  0  0
    1.0725   -1.9582    1.4018 C   0  0  0  0  0  0  0  0  0  0  0  0
   -0.3522   -2.0438    1.6113 C   0  0  0  0  0  3  0  0  0  0  0  0
   -0.7546   -2.4053    2.5703 H   0  0  0  0  0  0  0  0  0  0  0  0
   -2.5365   -1.8286    0.6001 C   0  0  0  0  0  0  0  0  0  0  0  0
   -3.2471   -2.5789    1.5601 C   0  0  0  0  0  0  0  0  0  0  0  0
   -2.7079   -3.1147    2.3532 H   0  0  0  0  0  0  0  0  0  0  0  0
   -4.6409   -2.6712    1.4920 C   0  0  0  0  0  0  0  0  0  0  0  0
   -5.1818   -3.2671    2.2413 H   0  0  0  0  0  0  0  0  0  0  0  0
   -5.3482   -2.0168    0.4682 C   0  0  0  0  0  0  0  0  0  0  0  0
   -6.4443   -2.0898    0.4180 H   0  0  0  0  0  0  0  0  0  0  0  0
   -4.6554   -1.2671   -0.4931 C   0  0  0  0  0  0  0  0  0  0  0  0
   -5.2058   -0.7418   -1.2876 H   0  0  0  0  0  0  0  0  0  0  0  0
   -3.2567   -1.1840   -0.4366 C   0  0  0  0  0  0  0  0  0  0  0  0
   -2.8147   -0.8525   -3.2240 C   0  0  0  0  0  0  0  0  0  0  0  0
   -3.8201   -0.4874   -3.5027 H   0  0  0  0  0  0  0  0  0  0  0  0
   -2.7733   -1.9563   -3.2022 H   0  0  0  0  0  0  0  0  0  0  0  0
   -2.0530   -0.4526   -3.9216 H   0  0  0  0  0  0  0  0  0  0  0  0
  1 30  1  0  0  0  0
  2 18  1  0  0  0  0
  3 19  1  0  0  0  0
  4  5  1  6  0  0  0
  4  2  1  0  0  0  0
  4 13  1  0  0  0  0
  6  5  1  0  0  0  0
  7  5  2  0  0  0  0
  7  9  1  0  0  0  0
  8  7  1  0  0  0  0
  9 11  2  0  0  0  0
 10  9  1  0  0  0  0
 11 13  1  0  0  0  0
 11 12  1  0  0  0  0
 13 14  2  0  0  0  0
 14 16  1  0  0  0  0
 14 15  1  0  0  0  0
 16 17  1  0  0  0  0
 18 19  1  0  0  0  0
 18 16  2  0  0  0  0
 19 20  1  0  0  0  0
 21  3  1  0  0  0  0
 21 22  1  0  0  0  0
 22 23  1  0  0  0  0
 24 22  2  0  0  0  0
 24 25  1  0  0  0  0
 26 24  1  0  0  0  0
 27 26  1  0  0  0  0
 28 30  1  0  0  0  0
 28 26  2  0  0  0  0
 29 28  1  0  0  0  0
 30 21  2  0  0  0  0
 31 33  1  0  0  0  0
 31  1  1  0  0  0  0
 32 31  1  0  0  0  0
 34 31  1  0  0  0  0
M  END
