17,30,37
 OpenBabel05122313063D

 37 38  0  0  1  0  0  0  0  0999 V2000
    3.8758    1.2016   -0.6424 N   0  0  0  0  0  0  0  0  0  0  0  0
    4.9461    2.1357   -0.2951 C   0  0  0  0  0  0  0  0  0  0  0  0
    5.8871    1.7269   -0.6981 H   0  0  0  0  0  0  0  0  0  0  0  0
    5.0209    2.2376    0.8057 H   0  0  0  0  0  0  0  0  0  0  0  0
    4.7253    3.1302   -0.7234 H   0  0  0  0  0  0  0  0  0  0  0  0
    2.5759    1.5275   -0.3457 C   0  0  0  0  0  0  0  0  0  0  0  0
    4.2431   -0.0768   -1.1193 C   0  0  0  0  0  0  0  0  0  0  0  0
    5.4108   -0.3919   -1.2665 O   0  0  0  0  0  0  0  0  0  0  0  0
    3.1846   -0.9493   -1.4699 N   0  0  0  0  0  0  0  0  0  0  0  0
    3.5297   -2.2865   -1.9588 C   0  0  0  0  0  0  0  0  0  0  0  0
    4.6236   -2.3325   -2.0798 H   0  0  0  0  0  0  0  0  0  0  0  0
    3.0130   -2.4741   -2.9184 H   0  0  0  0  0  0  0  0  0  0  0  0
    3.1867   -3.0418   -1.2238 H   0  0  0  0  0  0  0  0  0  0  0  0
    1.8410   -0.6958   -1.2675 C   0  0  0  0  0  0  0  0  0  0  0  0
    0.9588   -1.4974   -1.5945 O   0  0  0  0  0  0  0  0  0  0  0  0
    1.5494    0.5943   -0.6223 C   0  0  2  0  0  3  0  0  0  0  0  0
    0.2909    0.8736   -0.3242 N   0  0  0  0  0  2  0  0  0  0  0  0
   -0.0312    2.0597    0.2295 C   0  0  0  0  0  0  0  0  0  0  0  0
    1.0145    2.9894    0.5267 C   0  0  0  0  0  0  0  0  0  0  0  0
    0.7786    4.2933    1.2374 C   0  0  0  0  0  0  0  0  0  0  0  0
    1.7019    4.5763    1.7754 H   0  0  0  0  0  0  0  0  0  0  0  0
   -0.0638    4.2361    1.9516 H   0  0  0  0  0  0  0  0  0  0  0  0
    0.5603    5.1073    0.5135 H   0  0  0  0  0  0  0  0  0  0  0  0
    2.2955    2.7033    0.2332 N   0  0  0  0  0  0  0  0  0  0  0  0
   -1.4841    2.2532    0.4704 C   0  0  1  0  0  3  0  0  0  0  0  0
   -2.1960    3.5419    0.1705 C   0  0  0  0  0  0  0  0  0  0  0  0
   -2.7914    3.3926   -0.7590 H   0  0  0  0  0  0  0  0  0  0  0  0
   -1.5026    4.3756   -0.0241 H   0  0  0  0  0  0  0  0  0  0  0  0
   -2.8861    3.8313    0.9901 H   0  0  0  0  0  0  0  0  0  0  0  0
   -2.1061    1.1449    0.7570 N   0  0  0  0  0  2  0  0  0  0  0  0
   -3.4490    1.0913    0.7640 N   0  0  0  0  0  0  0  0  0  0  0  0
   -3.9545    1.8069    0.2146 H   0  0  0  0  0  0  0  0  0  0  0  0
   -4.0645   -0.1588    0.8081 C   0  0  1  0  0  3  0  0  0  0  0  0
   -5.2898   -0.1507    0.2329 N   0  0  0  0  0  0  0  0  0  0  0  0
   -5.3249    0.4044   -0.6454 H   0  0  0  0  0  0  0  0  0  0  0  0
   -5.7284   -1.0725    0.1822 H   0  0  0  0  0  0  0  0  0  0  0  0
   -3.3321   -1.5135    1.4988 S   0  0  0  0  0  1  0  0  0  0  0  0
  1  6  1  0  0  0  0
  1  2  1  0  0  0  0
  2  4  1  0  0  0  0
  3  2  1  0  0  0  0
  5  2  1  0  0  0  0
  6 24  2  0  0  0  0
  7  1  1  0  0  0  0
  8  7  2  0  0  0  0
  9 14  1  0  0  0  0
  9  7  1  0  0  0  0
 10  9  1  0  0  0  0
 10 13  1  0  0  0  0
 11 10  1  0  0  0  0
 12 10  1  0  0  0  0
 15 14  2  0  0  0  0
 16 14  1  6  0  0  0
 16  6  1  0  0  0  0
 16 17  1  0  0  0  0
 17 18  1  0  0  0  0
 18 25  1  0  0  0  0
 18 19  2  0  0  0  0
 19 20  1  0  0  0  0
 20 21  1  0  0  0  0
 20 22  1  0  0  0  0
 23 20  1  0  0  0  0
 24 19  1  0  0  0  0
 25 30  1  6  0  0  0
 26 25  1  0  0  0  0
 26 29  1  0  0  0  0
 27 26  1  0  0  0  0
 28 26  1  0  0  0  0
 30 31  1  0  0  0  0
 31 33  1  0  0  0  0
 32 31  1  0  0  0  0
 33 37  1  6  0  0  0
 34 33  1  0  0  0  0
 35 34  1  0  0  0  0
 36 34  1  0  0  0  0
M  END
