1,2,3
 OpenBabel05122313063D

 27 28  0  0  1  0  0  0  0  0999 V2000
    0.0000    1.8970   -0.5878 S   0  0  0  0  0  0  0  0  0  0  0  0
   -2.0313   -0.1583   -0.0166 N   0  0  0  0  0  2  0  0  0  0  0  0
    2.0313   -0.1583   -0.0165 N   0  0  0  0  0  2  0  0  0  0  0  0
   -2.8935   -1.1821   -0.2164 C   0  0  0  0  0  3  0  0  0  0  0  0
   -2.4277   -2.1689   -0.3598 H   0  0  0  0  0  0  0  0  0  0  0  0
   -4.2777   -0.9828   -0.2114 C   0  0  0  0  0  0  0  0  0  0  0  0
   -4.9445   -1.8413   -0.3721 H   0  0  0  0  0  0  0  0  0  0  0  0
   -4.7808    0.3081   -0.0104 C   0  0  0  0  0  0  0  0  0  0  0  0
   -5.8644    0.4966   -0.0146 H   0  0  0  0  0  0  0  0  0  0  0  0
   -3.8813    1.3666    0.1923 C   0  0  0  0  0  0  0  0  0  0  0  0
   -4.2434    2.3924    0.3509 H   0  0  0  0  0  0  0  0  0  0  0  0
   -2.5060    1.1115    0.2013 C   0  0  0  0  0  0  0  0  0  0  0  0
   -1.4937    2.1964    0.4887 C   0  0  0  0  0  0  0  0  0  0  0  0
   -1.1468    2.1345    1.5415 H   0  0  0  0  0  0  0  0  0  0  0  0
   -1.9041    3.2053    0.2942 H   0  0  0  0  0  0  0  0  0  0  0  0
    1.4937    2.1964    0.4887 C   0  0  0  0  0  0  0  0  0  0  0  0
    1.9041    3.2053    0.2944 H   0  0  0  0  0  0  0  0  0  0  0  0
    1.1467    2.1344    1.5416 H   0  0  0  0  0  0  0  0  0  0  0  0
    2.5060    1.1115    0.2013 C   0  0  1  0  0  3  0  0  0  0  0  0
    3.8813    1.3666    0.1923 C   0  0  0  0  0  0  0  0  0  0  0  0
    4.2434    2.3923    0.3509 H   0  0  0  0  0  0  0  0  0  0  0  0
    4.7808    0.3081   -0.0104 C   0  0  0  0  0  0  0  0  0  0  0  0
    5.8644    0.4966   -0.0146 H   0  0  0  0  0  0  0  0  0  0  0  0
    4.2777   -0.9827   -0.2115 C   0  0  0  0  0  0  0  0  0  0  0  0
    4.9445   -1.8413   -0.3722 H   0  0  0  0  0  0  0  0  0  0  0  0
    2.8936   -1.1821   -0.2164 C   0  0  0  0  0  0  0  0  0  0  0  0
    2.4277   -2.1689   -0.3599 H   0  0  0  0  0  0  0  0  0  0  0  0
  1 13  1  0  0  0  0
  1 16  1  0  0  0  0
  2 12  1  0  0  0  0
  3 19  1  0  0  0  0
  4  6  1  0  0  0  0
  4  2  1  0  0  0  0
  5  4  1  0  0  0  0
  6  8  2  0  0  0  0
  7  6  1  0  0  0  0
  8 10  1  0  0  0  0
  9  8  1  0  0  0  0
 10 12  2  0  0  0  0
 10 11  1  0  0  0  0
 12 13  1  0  0  0  0
 13 14  1  0  0  0  0
 15 13  1  0  0  0  0
 16 18  1  0  0  0  0
 17 16  1  0  0  0  0
 19 16  1  1  0  0  0
 20 19  1  0  0  0  0
 20 21  1  0  0  0  0
 22 20  2  0  0  0  0
 23 22  1  0  0  0  0
 24 22  1  0  0  0  0
 25 24  1  0  0  0  0
 26 24  2  0  0  0  0
 26  3  1  0  0  0  0
 27 26  1  0  0  0  0
M  END
