1,2,12
 OpenBabel05122313063D

 41 42  0  0  0  0  0  0  0  0999 V2000
    1.1869   -1.6051   -0.3436 S   0  0  0  0  0  1  0  0  0  0  0  0
   -2.6223    0.5226    0.1164 N   0  0  0  0  0  2  0  0  0  0  0  0
   -2.2305    1.8436   -0.0285 C   0  0  0  0  0  0  0  0  0  0  0  0
   -3.1676    2.8929    0.0423 C   0  0  0  0  0  0  0  0  0  0  0  0
   -2.8265    3.9290   -0.0766 H   0  0  0  0  0  0  0  0  0  0  0  0
   -4.5148    2.5986    0.2629 C   0  0  0  0  0  0  0  0  0  0  0  0
   -5.2612    3.4047    0.3203 H   0  0  0  0  0  0  0  0  0  0  0  0
   -4.8939    1.2629    0.4098 C   0  0  0  0  0  0  0  0  0  0  0  0
   -5.9429    0.9873    0.5852 H   0  0  0  0  0  0  0  0  0  0  0  0
   -3.9318    0.2307    0.3348 C   0  0  0  0  0  0  0  0  0  0  0  0
   -0.8206    2.1039   -0.2521 C   0  0  0  0  0  0  0  0  0  0  0  0
   -0.0455    1.0169   -0.2927 N   0  0  0  0  0  2  0  0  0  0  0  0
    1.2765    1.1399   -0.4792 N   0  0  0  0  0  0  0  0  0  0  0  0
    1.9501   -0.0189   -0.5113 C   0  0  0  0  0  0  0  0  0  0  0  0
    3.2976    0.0531   -0.6955 N   0  0  0  0  0  0  0  0  0  0  0  0
    4.1337   -1.1452   -0.6606 C   0  0  0  0  0  0  0  0  0  0  0  0
    4.3223   -1.5112   -1.6961 H   0  0  0  0  0  0  0  0  0  0  0  0
    3.5418   -1.9331   -0.1517 H   0  0  0  0  0  0  0  0  0  0  0  0
    5.4614   -0.9517    0.0840 C   0  0  0  0  0  0  0  0  0  0  0  0
    6.2089   -0.4534   -0.5710 H   0  0  0  0  0  0  0  0  0  0  0  0
    5.8654   -1.9693    0.2657 H   0  0  0  0  0  0  0  0  0  0  0  0
    5.3551   -0.1755    1.4088 C   0  0  0  0  0  0  0  0  0  0  0  0
    6.1803   -0.4980    2.0770 H   0  0  0  0  0  0  0  0  0  0  0  0
    4.4126   -0.4518    1.9321 H   0  0  0  0  0  0  0  0  0  0  0  0
    5.4459    1.3505    1.2413 C   0  0  0  0  0  0  0  0  0  0  0  0
    6.3989    1.5815    0.7129 H   0  0  0  0  0  0  0  0  0  0  0  0
    5.5355    1.8238    2.2420 H   0  0  0  0  0  0  0  0  0  0  0  0
    4.2852    2.0115    0.4888 C   0  0  0  0  0  0  0  0  0  0  0  0
    4.5267    3.0815    0.3107 H   0  0  0  0  0  0  0  0  0  0  0  0
    3.3612    2.0016    1.1048 H   0  0  0  0  0  0  0  0  0  0  0  0
    3.9364    1.3626   -0.8584 C   0  0  0  0  0  0  0  0  0  0  0  0
    3.2354    2.0080   -1.4182 H   0  0  0  0  0  0  0  0  0  0  0  0
    4.8427    1.2240   -1.4838 H   0  0  0  0  0  0  0  0  0  0  0  0
   -0.2677    3.4837   -0.4180 C   0  0  0  0  0  0  0  0  0  0  0  0
    0.8244    3.4222   -0.5647 H   0  0  0  0  0  0  0  0  0  0  0  0
   -0.7174    3.9976   -1.2935 H   0  0  0  0  0  0  0  0  0  0  0  0
   -0.4717    4.1111    0.4751 H   0  0  0  0  0  0  0  0  0  0  0  0
   -4.3606   -1.1906    0.4963 C   0  0  0  0  0  0  0  0  0  0  0  0
   -4.0879   -1.7945   -0.3918 H   0  0  0  0  0  0  0  0  0  0  0  0
   -3.8194   -1.6795    1.3306 H   0  0  0  0  0  0  0  0  0  0  0  0
   -5.4506   -1.2483    0.6703 H   0  0  0  0  0  0  0  0  0  0  0  0
  2 10  1  0  0  0  0
  3  4  1  0  0  0  0
  3  2  1  0  0  0  0
  4  6  2  0  0  0  0
  5  4  1  0  0  0  0
  6  7  1  0  0  0  0
  6  8  1  0  0  0  0
  8  9  1  0  0  0  0
 10  8  2  0  0  0  0
 10 38  1  0  0  0  0
 11  3  2  0  0  0  0
 12 11  1  0  0  0  0
 13 12  1  0  0  0  0
 14 13  2  0  0  0  0
 14  1  1  0  0  0  0
 15 16  1  0  0  0  0
 15 14  1  0  0  0  0
 16 18  1  0  0  0  0
 16 19  1  0  0  0  0
 17 16  1  0  0  0  0
 19 21  1  0  0  0  0
 19 22  1  0  0  0  0
 20 19  1  0  0  0  0
 22 24  1  0  0  0  0
 22 23  1  0  0  0  0
 25 22  1  0  0  0  0
 25 27  1  0  0  0  0
 26 25  1  0  0  0  0
 28 30  1  0  0  0  0
 28 25  1  0  0  0  0
 29 28  1  0  0  0  0
 31 15  1  0  0  0  0
 31 28  1  0  0  0  0
 32 31  1  0  0  0  0
 33 31  1  0  0  0  0
 34 11  1  0  0  0  0
 34 37  1  0  0  0  0
 35 34  1  0  0  0  0
 36 34  1  0  0  0  0
 38 41  1  0  0  0  0
 38 40  1  0  0  0  0
 39 38  1  0  0  0  0
M  END
