1,5,6
 OpenBabel05122313063D

 22 21  0  0  0  0  0  0  0  0999 V2000
   -0.8479   -1.4873    1.2699 S   0  0  0  0  0  1  0  0  0  0  0  0
   -3.6323   -2.4860    1.1394 S   0  0  0  0  0  0  0  0  0  0  0  0
    1.5185    2.2290   -1.3875 O   0  0  0  0  0  0  0  0  0  0  0  0
   -2.7391   -0.5441   -0.4455 N   0  0  0  0  0  0  0  0  0  0  0  0
   -1.7094    0.2425   -0.8077 N   0  0  0  0  0  2  0  0  0  0  0  0
    0.3243    1.5860   -1.2318 N   0  0  0  0  0  2  0  0  0  0  0  0
   -2.4143   -1.3796    0.5326 C   0  0  0  0  0  0  0  0  0  0  0  0
   -1.8956    1.2026   -1.7087 C   0  0  0  0  0  0  0  0  0  0  0  0
   -3.2265    1.4384   -2.3432 C   0  0  0  0  0  0  0  0  0  0  0  0
   -0.6950    1.9798   -1.9700 C   0  0  0  0  0  0  0  0  0  0  0  0
   -0.6093    3.0912   -2.9666 C   0  0  0  0  0  0  0  0  0  0  0  0
   -5.0647   -2.0493    0.1076 C   0  0  0  0  0  0  0  0  0  0  0  0
    2.1209    1.6956   -0.8225 H   0  0  0  0  0  0  0  0  0  0  0  0
   -3.6006    0.5081   -2.8172 H   0  0  0  0  0  0  0  0  0  0  0  0
   -3.1868    2.2417   -3.1002 H   0  0  0  0  0  0  0  0  0  0  0  0
   -3.9717    1.7112   -1.5668 H   0  0  0  0  0  0  0  0  0  0  0  0
   -1.2363    3.9512   -2.6516 H   0  0  0  0  0  0  0  0  0  0  0  0
   -0.9757    2.7595   -3.9589 H   0  0  0  0  0  0  0  0  0  0  0  0
    0.4335    3.4377   -3.0691 H   0  0  0  0  0  0  0  0  0  0  0  0
   -5.3365   -0.9878    0.2555 H   0  0  0  0  0  0  0  0  0  0  0  0
   -4.8416   -2.2270   -0.9607 H   0  0  0  0  0  0  0  0  0  0  0  0
   -5.8880   -2.7084    0.4431 H   0  0  0  0  0  0  0  0  0  0  0  0
  3  6  1  0  0  0  0
  3 13  1  0  0  0  0
  4  7  2  0  0  0  0
  5  4  1  0  0  0  0
  7  2  1  0  0  0  0
  7  1  1  0  0  0  0
  8  5  1  0  0  0  0
  9  8  1  0  0  0  0
  9 16  1  0  0  0  0
 10  8  2  0  0  0  0
 10  6  1  0  0  0  0
 11 17  1  0  0  0  0
 11 10  1  0  0  0  0
 12 20  1  0  0  0  0
 12 22  1  0  0  0  0
 12  2  1  0  0  0  0
 14  9  1  0  0  0  0
 15  9  1  0  0  0  0
 18 11  1  0  0  0  0
 19 11  1  0  0  0  0
 21 12  1  0  0  0  0
M  END
