1,2,3
 OpenBabel05122313063D

 17 17  0  0  0  0  0  0  0  0999 V2000
    1.4952    2.5122   -0.1034 S   0  0  0  0  0  1  0  0  0  0  0  0
    1.7131   -1.8086    0.0168 N   0  0  0  0  0  2  0  0  0  0  0  0
    3.3398    0.2933    0.0260 N   0  0  0  0  0  2  0  0  0  0  0  0
    4.0441    1.4501    0.0086 N   0  0  0  0  0  0  0  0  0  0  0  0
    3.8690    3.7555    0.0026 N   0  0  0  0  0  0  0  0  0  0  0  0
    4.8751    3.7880   -0.1657 H   0  0  0  0  0  0  0  0  0  0  0  0
    3.3184    4.5498   -0.3190 H   0  0  0  0  0  0  0  0  0  0  0  0
    1.0951   -3.0173   -0.0122 C   0  0  0  0  0  3  0  0  0  0  0  0
    0.0024   -3.0991   -0.0689 H   0  0  0  0  0  0  0  0  0  0  0  0
    2.0575   -4.0524    0.0315 C   0  0  0  0  0  0  0  0  0  0  0  0
    1.8452   -5.1280    0.0218 H   0  0  0  0  0  0  0  0  0  0  0  0
    3.3242   -3.4323    0.0839 C   0  0  0  0  0  0  0  0  0  0  0  0
    4.3056   -3.9203    0.1199 H   0  0  0  0  0  0  0  0  0  0  0  0
    3.0863   -2.0373    0.0724 C   0  0  0  0  0  0  0  0  0  0  0  0
    3.9299   -0.8882    0.0760 C   0  0  0  0  0  0  0  0  0  0  0  0
    5.0309   -0.9396    0.1124 H   0  0  0  0  0  0  0  0  0  0  0  0
    3.2820    2.5184   -0.0356 C   0  0  0  0  0  0  0  0  0  0  0  0
  1 17  1  0  0  0  0
  2 14  1  0  0  0  0
  3 15  1  0  0  0  0
  4  3  1  0  0  0  0
  6  5  1  0  0  0  0
  7  5  1  0  0  0  0
  8  2  1  0  0  0  0
  8 10  1  0  0  0  0
  9  8  1  0  0  0  0
 10 12  2  0  0  0  0
 11 10  1  0  0  0  0
 12 13  1  0  0  0  0
 14 15  2  0  0  0  0
 14 12  1  0  0  0  0
 15 16  1  0  0  0  0
 17  5  1  0  0  0  0
 17  4  2  0  0  0  0
M  END
