1,2,3
 OpenBabel05122313063D

 42 44  0  0  0  0  0  0  0  0999 V2000
   -1.8081   -1.2501   -0.0430 S   0  0  0  0  0  1  0  0  0  0  0  0
    2.5079   -1.5357   -0.0481 N   0  0  0  0  0  2  0  0  0  0  0  0
    0.6372    0.3061   -0.0397 N   0  0  0  0  0  2  0  0  0  0  0  0
   -0.4119    1.1281   -0.0125 N   0  0  0  0  0  0  0  0  0  0  0  0
   -2.6945    1.3199    0.0141 N   0  0  0  0  0  0  0  0  0  0  0  0
    3.3786   -2.5549   -0.0959 C   0  0  0  0  0  0  0  0  0  0  0  0
    4.7620   -2.3385   -0.1639 C   0  0  0  0  0  0  0  0  0  0  0  0
    5.2312   -1.0165   -0.2004 C   0  0  0  0  0  0  0  0  0  0  0  0
    4.3187    0.0443   -0.1529 C   0  0  0  0  0  0  0  0  0  0  0  0
    2.9372   -0.2297   -0.0611 C   0  0  0  0  0  0  0  0  0  0  0  0
    1.8887    0.7885   -0.0167 C   0  0  0  0  0  0  0  0  0  0  0  0
   -1.5978    0.5006    0.0023 C   0  0  0  0  0  0  0  0  0  0  0  0
   -2.5033    2.7656   -0.1310 C   0  0  0  0  0  0  0  0  0  0  0  0
   -4.0288    0.8102    0.0592 C   0  0  0  0  0  0  0  0  0  0  0  0
   -4.4452   -0.0116    1.1251 C   0  0  0  0  0  0  0  0  0  0  0  0
   -5.7654   -0.4784    1.1681 C   0  0  0  0  0  0  0  0  0  0  0  0
   -6.6804   -0.1195    0.1651 C   0  0  0  0  0  0  0  0  0  0  0  0
   -6.2681    0.7117   -0.8878 C   0  0  0  0  0  0  0  0  0  0  0  0
   -4.9457    1.1738   -0.9458 C   0  0  0  0  0  0  0  0  0  0  0  0
    2.1819    2.2380    0.0475 C   0  0  0  0  0  0  0  0  0  0  0  0
    1.6104    3.1370   -0.8814 C   0  0  0  0  0  0  0  0  0  0  0  0
    1.9015    4.5051   -0.8156 C   0  0  0  0  0  0  0  0  0  0  0  0
    2.7583    5.0018    0.1811 C   0  0  0  0  0  0  0  0  0  0  0  0
    3.3237    4.1197    1.1146 C   0  0  0  0  0  0  0  0  0  0  0  0
    3.0391    2.7481    1.0489 C   0  0  0  0  0  0  0  0  0  0  0  0
    2.9131   -3.5559   -0.0818 H   0  0  0  0  0  0  0  0  0  0  0  0
    5.4481   -3.1961   -0.1972 H   0  0  0  0  0  0  0  0  0  0  0  0
    6.3092   -0.8079   -0.2724 H   0  0  0  0  0  0  0  0  0  0  0  0
    4.6589    1.0872   -0.1976 H   0  0  0  0  0  0  0  0  0  0  0  0
   -1.7131    3.1110    0.5614 H   0  0  0  0  0  0  0  0  0  0  0  0
   -3.4578    3.2698    0.1015 H   0  0  0  0  0  0  0  0  0  0  0  0
   -2.1832    3.0320   -1.1603 H   0  0  0  0  0  0  0  0  0  0  0  0
   -3.7289   -0.2802    1.9134 H   0  0  0  0  0  0  0  0  0  0  0  0
   -6.0833   -1.1224    2.0017 H   0  0  0  0  0  0  0  0  0  0  0  0
   -7.7168   -0.4864    0.2058 H   0  0  0  0  0  0  0  0  0  0  0  0
   -6.9775    0.9952   -1.6798 H   0  0  0  0  0  0  0  0  0  0  0  0
   -4.6144    1.8077   -1.7813 H   0  0  0  0  0  0  0  0  0  0  0  0
    0.9365    2.7494   -1.6574 H   0  0  0  0  0  0  0  0  0  0  0  0
    1.4562    5.1923   -1.5512 H   0  0  0  0  0  0  0  0  0  0  0  0
    2.9824    6.0781    0.2316 H   0  0  0  0  0  0  0  0  0  0  0  0
    3.9860    4.5018    1.9061 H   0  0  0  0  0  0  0  0  0  0  0  0
    3.4663    2.0628    1.7967 H   0  0  0  0  0  0  0  0  0  0  0  0
  1 12  1  0  0  0  0
  3 11  1  0  0  0  0
  3  4  1  0  0  0  0
  4 12  2  0  0  0  0
  5 14  1  0  0  0  0
  6 26  1  0  0  0  0
  6  2  1  0  0  0  0
  7  6  2  0  0  0  0
  8  7  1  0  0  0  0
  8  9  2  0  0  0  0
  9 10  1  0  0  0  0
 10  2  1  0  0  0  0
 10 11  2  0  0  0  0
 11 20  1  0  0  0  0
 12  5  1  0  0  0  0
 13  5  1  0  0  0  0
 13 31  1  0  0  0  0
 13 30  1  0  0  0  0
 14 15  1  0  0  0  0
 15 16  2  0  0  0  0
 15 33  1  0  0  0  0
 16 34  1  0  0  0  0
 17 35  1  0  0  0  0
 17 16  1  0  0  0  0
 18 17  2  0  0  0  0
 19 18  1  0  0  0  0
 19 14  2  0  0  0  0
 20 25  1  0  0  0  0
 21 22  1  0  0  0  0
 21 20  2  0  0  0  0
 22 23  2  0  0  0  0
 23 40  1  0  0  0  0
 23 24  1  0  0  0  0
 24 41  1  0  0  0  0
 25 24  2  0  0  0  0
 25 42  1  0  0  0  0
 27  7  1  0  0  0  0
 28  8  1  0  0  0  0
 29  9  1  0  0  0  0
 32 13  1  0  0  0  0
 36 18  1  0  0  0  0
 37 19  1  0  0  0  0
 38 21  1  0  0  0  0
 39 22  1  0  0  0  0
M  END
