1,3,24
 OpenBabel05122313063D

 30 32  0  0  1  0  0  0  0  0999 V2000
    0.9373    1.7626    0.0054 S   0  0  0  0  0  1  0  0  0  0  0  0
    2.4022    0.8710    0.0023 C   0  0  1  0  0  3  0  0  0  0  0  0
   -0.2562   -0.9756    1.4912 N   0  0  0  0  0  2  0  0  0  0  0  0
    3.6138    1.5278    0.0016 N   0  0  0  0  0  0  0  0  0  0  0  0
    0.8434   -1.7414    1.2775 N   0  0  0  0  0  0  0  0  0  0  0  0
    2.6744   -0.4709    0.0006 N   0  0  0  0  0  0  0  0  0  0  0  0
    0.1564   -2.1752   -3.3616 C   0  0  0  0  0  0  0  0  0  0  0  0
    0.0719   -2.5916   -4.3697 H   0  0  0  0  0  0  0  0  0  0  0  0
    4.0556   -0.6375   -0.0013 C   0  0  0  0  0  0  0  0  0  0  0  0
    4.5026   -1.6348   -0.0028 H   0  0  0  0  0  0  0  0  0  0  0  0
    4.6446    0.5978   -0.0006 C   0  0  0  0  0  0  0  0  0  0  0  0
    5.6963    0.8974   -0.0014 H   0  0  0  0  0  0  0  0  0  0  0  0
    0.1525   -2.1809    3.3588 C   0  0  0  0  0  0  0  0  0  0  0  0
    0.0670   -2.5988    4.3662 H   0  0  0  0  0  0  0  0  0  0  0  0
    1.7055   -1.6975   -0.0001 B   0  0  2  0  0  0  0  0  0  0  0  0
    2.4152   -2.6934   -0.0004 H   0  0  0  0  0  0  0  0  0  0  0  0
   -0.6818   -1.2259   -2.7463 C   0  0  0  0  0  3  0  0  0  0  0  0
   -1.5718   -0.7162   -3.1318 H   0  0  0  0  0  0  0  0  0  0  0  0
    0.8445   -1.7399   -1.2786 N   0  0  0  0  0  0  0  0  0  0  0  0
   -0.6863   -1.2320    2.7434 C   0  0  0  0  0  3  0  0  0  0  0  0
   -1.5777   -0.7244    3.1281 H   0  0  0  0  0  0  0  0  0  0  0  0
    1.1108   -2.4783    2.3899 C   0  0  0  0  0  0  0  0  0  0  0  0
    1.9658   -3.1621    2.4047 H   0  0  0  0  0  0  0  0  0  0  0  0
   -0.2535   -0.9719   -1.4930 N   0  0  0  0  0  2  0  0  0  0  0  0
    1.1127   -2.4757   -2.3916 C   0  0  0  0  0  0  0  0  0  0  0  0
    1.9666   -3.1607   -2.4059 H   0  0  0  0  0  0  0  0  0  0  0  0
    3.7500    2.9716    0.0028 C   0  0  0  0  0  0  0  0  0  0  0  0
    3.2590    3.4042   -0.8919 H   0  0  0  0  0  0  0  0  0  0  0  0
    4.8241    3.2304    0.0030 H   0  0  0  0  0  0  0  0  0  0  0  0
    3.2592    3.4027    0.8984 H   0  0  0  0  0  0  0  0  0  0  0  0
  2  1  1  1  0  0  0
  3 20  1  0  0  0  0
  4  2  1  0  0  0  0
  4 27  1  0  0  0  0
  5  3  1  0  0  0  0
  5 22  1  0  0  0  0
  6  2  1  0  0  0  0
  7 17  1  0  0  0  0
  7 25  2  0  0  0  0
  8  7  1  0  0  0  0
  9 11  2  0  0  0  0
  9  6  1  0  0  0  0
 10  9  1  0  0  0  0
 11  4  1  0  0  0  0
 12 11  1  0  0  0  0
 13 14  1  0  0  0  0
 15 16  1  6  0  0  0
 15  6  1  0  0  0  0
 15  5  1  0  0  0  0
 17 24  1  0  0  0  0
 18 17  1  0  0  0  0
 19 15  1  0  0  0  0
 20 21  1  0  0  0  0
 20 13  1  0  0  0  0
 22 23  1  0  0  0  0
 22 13  2  0  0  0  0
 24 19  1  0  0  0  0
 25 19  1  0  0  0  0
 26 25  1  0  0  0  0
 27 29  1  0  0  0  0
 27 30  1  0  0  0  0
 28 27  1  0  0  0  0
M  END
