1,6,7
 OpenBabel05122313063D

 16 16  0  0  0  0  0  0  0  0999 V2000
    1.3794   -1.8486   -0.7337 S   0  0  0  0  0  1  0  0  0  0  0  0
    3.3619   -2.7312    0.8430 N   0  0  0  0  0  0  0  0  0  0  0  0
    3.7231   -2.9162    1.7803 H   0  0  0  0  0  0  0  0  0  0  0  0
    3.3935   -3.5035    0.1792 H   0  0  0  0  0  0  0  0  0  0  0  0
    2.0107   -1.1416    1.8282 N   0  0  0  0  0  0  0  0  0  0  0  0
    0.9589   -0.3136    1.6379 N   0  0  0  0  0  2  0  0  0  0  0  0
   -1.0235    1.1332    0.9315 N   0  0  0  0  0  0  0  0  0  0  0  0
   -1.2187    2.3113    2.8700 N   0  0  0  0  0  0  0  0  0  0  0  0
    2.2827   -1.8878    0.7730 C   0  0  0  0  0  0  0  0  0  0  0  0
    0.5674    0.5319    2.5743 C   0  0  0  0  0  3  0  0  0  0  0  0
    1.0817    0.5751    3.5461 H   0  0  0  0  0  0  0  0  0  0  0  0
   -0.5443    1.3532    2.2048 C   0  0  0  0  0  3  0  0  0  0  0  0
   -2.0624    1.9926    0.7730 C   0  0  0  0  0  0  0  0  0  0  0  0
   -2.6546    2.0350   -0.1492 H   0  0  0  0  0  0  0  0  0  0  0  0
   -2.1687    2.7153    1.9821 C   0  0  0  0  0  0  0  0  0  0  0  0
   -2.8957    3.5010    2.2304 H   0  0  0  0  0  0  0  0  0  0  0  0
  1  9  1  0  0  0  0
  2  3  1  0  0  0  0
  4  2  1  0  0  0  0
  6  5  1  0  0  0  0
  6 10  1  0  0  0  0
  7 12  1  0  0  0  0
  9  2  1  0  0  0  0
  9  5  2  0  0  0  0
 10 11  1  0  0  0  0
 12 10  1  0  0  0  0
 12  8  1  0  0  0  0
 13  7  2  0  0  0  0
 13 15  1  0  0  0  0
 14 13  1  0  0  0  0
 15 16  1  0  0  0  0
 15  8  2  0  0  0  0
M  END
