1,3,4
 OpenBabel05122313063D

 29 30  0  0  0  0  0  0  0  0999 V2000
    1.6859    0.9081    0.7393 S   0  0  0  0  0  1  0  0  0  0  0  0
    1.9169   -2.0111   -3.5850 O   0  0  0  0  0  0  0  0  0  0  0  0
   -0.8321   -2.3603   -1.3104 N   0  0  0  0  0  2  0  0  0  0  0  0
    1.3896   -0.8980   -1.5800 N   0  0  0  0  0  2  0  0  0  0  0  0
    2.4377   -0.1298   -1.6895 N   0  0  0  0  0  0  0  0  0  0  0  0
    3.7148    1.5643   -0.9948 N   0  0  0  0  0  0  0  0  0  0  0  0
    4.0937    1.2788   -1.9063 H   0  0  0  0  0  0  0  0  0  0  0  0
   -1.9806   -3.0276   -1.1270 C   0  0  0  0  0  3  0  0  0  0  0  0
   -2.5459   -2.7763   -0.2137 H   0  0  0  0  0  0  0  0  0  0  0  0
   -2.4443   -3.9846   -2.0404 C   0  0  0  0  0  0  0  0  0  0  0  0
   -3.3884   -4.5152   -1.8511 H   0  0  0  0  0  0  0  0  0  0  0  0
   -1.6782   -4.2405   -3.1908 C   0  0  0  0  0  0  0  0  0  0  0  0
   -2.0153   -4.9820   -3.9312 H   0  0  0  0  0  0  0  0  0  0  0  0
   -0.4839   -3.5387   -3.3838 C   0  0  0  0  0  0  0  0  0  0  0  0
    0.1633   -3.6812   -4.2605 H   0  0  0  0  0  0  0  0  0  0  0  0
   -0.0879   -2.5988   -2.4136 C   0  0  0  0  0  0  0  0  0  0  0  0
    1.1885   -1.8209   -2.6111 C   0  0  0  0  0  0  0  0  0  0  0  0
    2.6309    0.7745   -0.6796 C   0  0  0  0  0  0  0  0  0  0  0  0
    4.3915    2.5995   -0.3565 C   0  0  0  0  0  0  0  0  0  0  0  0
    5.5522    3.0932   -1.0091 C   0  0  0  0  0  0  0  0  0  0  0  0
    5.8585    2.6485   -1.9696 H   0  0  0  0  0  0  0  0  0  0  0  0
    6.3027    4.1256   -0.4441 C   0  0  0  0  0  0  0  0  0  0  0  0
    7.1990    4.4908   -0.9678 H   0  0  0  0  0  0  0  0  0  0  0  0
    5.9179    4.6934    0.7836 C   0  0  0  0  0  0  0  0  0  0  0  0
    6.5081    5.5077    1.2291 H   0  0  0  0  0  0  0  0  0  0  0  0
    4.7683    4.2116    1.4285 C   0  0  0  0  0  0  0  0  0  0  0  0
    4.4510    4.6512    2.3865 H   0  0  0  0  0  0  0  0  0  0  0  0
    4.0003    3.1790    0.8748 C   0  0  0  0  0  0  0  0  0  0  0  0
    3.0959    2.8170    1.3784 H   0  0  0  0  0  0  0  0  0  0  0  0
  2 17  2  0  0  0  0
  3  8  1  0  0  0  0
  5  4  1  0  0  0  0
  5 18  2  0  0  0  0
  6 18  1  0  0  0  0
  6 19  1  0  0  0  0
  7  6  1  0  0  0  0
  8  9  1  0  0  0  0
 10 11  1  0  0  0  0
 10  8  1  0  0  0  0
 12 10  2  0  0  0  0
 13 12  1  0  0  0  0
 14 12  1  0  0  0  0
 14 16  2  0  0  0  0
 15 14  1  0  0  0  0
 16  3  1  0  0  0  0
 17 16  1  0  0  0  0
 17  4  1  0  0  0  0
 18  1  1  0  0  0  0
 19 28  1  0  0  0  0
 20 22  1  0  0  0  0
 20 19  2  0  0  0  0
 21 20  1  0  0  0  0
 22 24  2  0  0  0  0
 23 22  1  0  0  0  0
 24 25  1  0  0  0  0
 24 26  1  0  0  0  0
 26 27  1  0  0  0  0
 28 29  1  0  0  0  0
 28 26  2  0  0  0  0
M  END
