1,2,3
 OpenBabel05122313063D

 28 29  0  0  0  0  0  0  0  0999 V2000
   -1.3923    2.5111    0.3404 S   0  0  0  0  0  1  0  0  0  0  0  0
    0.1840    1.3762   -1.6326 N   0  0  0  0  0  2  0  0  0  0  0  0
   -0.0374   -1.1349   -1.1210 N   0  0  0  0  0  2  0  0  0  0  0  0
   -0.4905    3.3474   -0.8946 C   0  0  0  0  0  0  0  0  0  0  0  0
    0.2556    2.7041   -1.7961 N   0  0  0  0  0  0  0  0  0  0  0  0
    0.9434    0.5903   -2.3983 C   0  0  0  0  0  3  0  0  0  0  0  0
    1.6080    1.0229   -3.1603 H   0  0  0  0  0  0  0  0  0  0  0  0
   -0.5310    4.7035   -0.9625 N   0  0  0  0  0  0  0  0  0  0  0  0
    0.0832    5.1180   -1.6648 H   0  0  0  0  0  0  0  0  0  0  0  0
    0.8527   -0.7945   -2.1087 C   0  0  0  0  0  0  0  0  0  0  0  0
   -0.2152   -2.4683   -0.8119 C   0  0  0  0  0  0  0  0  0  0  0  0
   -1.2069   -2.8914    0.1147 C   0  0  0  0  0  0  0  0  0  0  0  0
   -1.8717   -2.1453    0.5533 H   0  0  0  0  0  0  0  0  0  0  0  0
    1.6516   -1.7690   -2.7798 C   0  0  0  0  0  0  0  0  0  0  0  0
    2.3534   -1.4277   -3.5537 H   0  0  0  0  0  0  0  0  0  0  0  0
    0.5989   -3.4873   -1.4355 C   0  0  0  0  0  0  0  0  0  0  0  0
    1.5460   -3.0936   -2.4307 C   0  0  0  0  0  0  0  0  0  0  0  0
    2.1688   -3.8620   -2.9137 H   0  0  0  0  0  0  0  0  0  0  0  0
   -0.5290   -5.2262   -0.1351 C   0  0  0  0  0  0  0  0  0  0  0  0
   -0.6540   -6.2840    0.1398 H   0  0  0  0  0  0  0  0  0  0  0  0
   -1.2068    5.5436   -0.0033 C   0  0  0  0  0  0  0  0  0  0  0  0
   -1.2469    6.5797   -0.3879 H   0  0  0  0  0  0  0  0  0  0  0  0
   -0.7024    5.5500    0.9899 H   0  0  0  0  0  0  0  0  0  0  0  0
   -2.2459    5.1852    0.1547 H   0  0  0  0  0  0  0  0  0  0  0  0
   -1.3550   -4.2338    0.4438 C   0  0  0  0  0  0  0  0  0  0  0  0
   -2.1360   -4.5222    1.1638 H   0  0  0  0  0  0  0  0  0  0  0  0
    0.4278   -4.8483   -1.0687 C   0  0  0  0  0  3  0  0  0  0  0  0
    1.0686   -5.6014   -1.5537 H   0  0  0  0  0  0  0  0  0  0  0  0
  3 11  1  0  0  0  0
  4  1  1  0  0  0  0
  5  2  1  0  0  0  0
  5  4  2  0  0  0  0
  6 10  1  0  0  0  0
  6  2  1  0  0  0  0
  7  6  1  0  0  0  0
  8  4  1  0  0  0  0
  8 21  1  0  0  0  0
  9  8  1  0  0  0  0
 10  3  1  0  0  0  0
 11 12  2  0  0  0  0
 12 25  1  0  0  0  0
 12 13  1  0  0  0  0
 14 17  1  0  0  0  0
 14 10  2  0  0  0  0
 15 14  1  0  0  0  0
 16 27  1  0  0  0  0
 16 11  1  0  0  0  0
 17 16  2  0  0  0  0
 18 17  1  0  0  0  0
 19 20  1  0  0  0  0
 19 25  2  0  0  0  0
 21 24  1  0  0  0  0
 21 23  1  0  0  0  0
 22 21  1  0  0  0  0
 25 26  1  0  0  0  0
 27 19  1  0  0  0  0
 28 27  1  0  0  0  0
M  END
