1,2,3
 OpenBabel05122313063D

 36 37  0  0  1  0  0  0  0  0999 V2000
    0.2676    0.3320   -1.4293 S   0  0  0  0  0  0  0  0  0  0  0  0
   -1.9147    0.7779    0.3997 N   0  0  0  0  0  2  0  0  0  0  0  0
   -1.8380   -1.7141   -0.6263 N   0  0  0  0  0  0  0  0  0  0  0  0
   -1.8627   -2.6757   -0.2662 H   0  0  0  0  0  0  0  0  0  0  0  0
   -4.1377    1.2493   -0.4084 C   0  0  0  0  0  0  0  0  0  0  0  0
   -5.0670    0.8780   -0.8643 H   0  0  0  0  0  0  0  0  0  0  0  0
   -0.9442   -0.4455   -2.5748 C   0  0  0  0  0  0  0  0  0  0  0  0
   -1.7793    0.2790   -2.6575 H   0  0  0  0  0  0  0  0  0  0  0  0
   -0.4842   -0.5328   -3.5789 H   0  0  0  0  0  0  0  0  0  0  0  0
   -3.0841    0.3616   -0.1545 C   0  0  2  0  0  3  0  0  0  0  0  0
   -3.1804   -1.1199   -0.4052 C   0  0  0  0  0  0  0  0  0  0  0  0
   -3.6060   -1.5963    0.5044 H   0  0  0  0  0  0  0  0  0  0  0  0
   -3.8751   -1.3440   -1.2430 H   0  0  0  0  0  0  0  0  0  0  0  0
    2.9562    0.2260   -1.0688 C   0  0  0  0  0  0  0  0  0  0  0  0
    1.9061   -0.3304   -1.9933 C   0  0  0  0  0  0  0  0  0  0  0  0
    1.8874   -1.4367   -1.9886 H   0  0  0  0  0  0  0  0  0  0  0  0
    2.0215    0.0346   -3.0347 H   0  0  0  0  0  0  0  0  0  0  0  0
   -1.4022   -1.7945   -2.0484 C   0  0  0  0  0  0  0  0  0  0  0  0
   -2.2249   -2.1951   -2.6826 H   0  0  0  0  0  0  0  0  0  0  0  0
   -0.5680   -2.5231   -2.0893 H   0  0  0  0  0  0  0  0  0  0  0  0
   -1.7681    2.0849    0.7198 C   0  0  0  0  0  0  0  0  0  0  0  0
   -0.8036    2.3788    1.1578 H   0  0  0  0  0  0  0  0  0  0  0  0
    3.7077   -0.6260   -0.2353 C   0  0  0  0  0  0  0  0  0  0  0  0
    3.5551   -1.7142   -0.2826 H   0  0  0  0  0  0  0  0  0  0  0  0
   -3.9892    2.6008   -0.0675 C   0  0  0  0  0  0  0  0  0  0  0  0
   -4.8047    3.3153   -0.2524 H   0  0  0  0  0  0  0  0  0  0  0  0
   -2.7830    3.0226    0.5092 C   0  0  0  0  0  0  0  0  0  0  0  0
   -2.6184    4.0714    0.7932 H   0  0  0  0  0  0  0  0  0  0  0  0
    3.1702    1.6199   -1.0023 C   0  0  0  0  0  0  0  0  0  0  0  0
    2.5934    2.2948   -1.6546 H   0  0  0  0  0  0  0  0  0  0  0  0
    4.8540    1.2940    0.7198 C   0  0  0  0  0  0  0  0  0  0  0  0
    5.5935    1.7110    1.4195 H   0  0  0  0  0  0  0  0  0  0  0  0
    4.1123    2.1496   -0.1115 C   0  0  0  0  0  0  0  0  0  0  0  0
    4.2735    3.2370   -0.0683 H   0  0  0  0  0  0  0  0  0  0  0  0
    4.6556   -0.0928    0.6508 C   0  0  0  0  0  0  0  0  0  0  0  0
    5.2411   -0.7677    1.2925 H   0  0  0  0  0  0  0  0  0  0  0  0
  2 21  1  0  0  0  0
  3 11  1  0  0  0  0
  3  4  1  0  0  0  0
  5 10  1  0  0  0  0
  5 25  2  0  0  0  0
  6  5  1  0  0  0  0
  7 18  1  0  0  0  0
  7  1  1  0  0  0  0
  8  7  1  0  0  0  0
  9  7  1  0  0  0  0
 10 11  1  1  0  0  0
 10  2  1  0  0  0  0
 11 12  1  0  0  0  0
 13 11  1  0  0  0  0
 14 29  2  0  0  0  0
 14 23  1  0  0  0  0
 15 16  1  0  0  0  0
 15  1  1  0  0  0  0
 15 14  1  0  0  0  0
 17 15  1  0  0  0  0
 18  3  1  0  0  0  0
 19 18  1  0  0  0  0
 20 18  1  0  0  0  0
 21 22  1  0  0  0  0
 23 35  2  0  0  0  0
 24 23  1  0  0  0  0
 25 27  1  0  0  0  0
 26 25  1  0  0  0  0
 27 21  2  0  0  0  0
 27 28  1  0  0  0  0
 29 33  1  0  0  0  0
 30 29  1  0  0  0  0
 31 32  1  0  0  0  0
 33 34  1  0  0  0  0
 33 31  2  0  0  0  0
 35 31  1  0  0  0  0
 35 36  1  0  0  0  0
M  END
