1,2,3
 OpenBabel05122313063D

 30 31  0  0  1  0  0  0  0  0999 V2000
    0.8939    0.0770   -2.0723 N   0  0  0  0  0  0  0  0  0  0  0  0
   -0.3803    1.1827    0.4443 N   0  0  0  0  0  2  0  0  0  0  0  0
    2.6736    1.0712    0.2661 S   0  0  0  0  0  0  0  0  0  0  0  0
   -2.1125    3.0734    0.1699 S   0  0  0  0  0  0  0  0  0  0  0  0
    2.1887    0.7004   -2.4546 C   0  0  0  0  0  0  0  0  0  0  0  0
    2.5886    1.7719   -1.4537 C   0  0  0  0  0  0  0  0  0  0  0  0
    1.7046    2.3374    1.1896 C   0  0  0  0  0  0  0  0  0  0  0  0
    0.2840    2.3770    0.7308 C   0  0  0  0  0  0  0  0  0  0  0  0
   -0.4934    3.5052    0.5878 C   0  0  0  0  0  0  0  0  0  0  0  0
   -1.6737    1.3865    0.1613 C   0  0  2  0  0  3  0  0  0  0  0  0
   -2.7063    0.3635   -0.0424 C   0  0  0  0  0  0  0  0  0  0  0  0
   -3.5540    0.4041   -1.1722 C   0  0  0  0  0  0  0  0  0  0  0  0
   -4.5678   -0.5514   -1.3184 C   0  0  0  0  0  0  0  0  0  0  0  0
   -4.7564   -1.5341   -0.3328 C   0  0  0  0  0  0  0  0  0  0  0  0
   -3.9322   -1.5617    0.8041 C   0  0  0  0  0  0  0  0  0  0  0  0
   -2.9091   -0.6193    0.9543 C   0  0  0  0  0  0  0  0  0  0  0  0
    0.1230    0.7503   -2.2097 H   0  0  0  0  0  0  0  0  0  0  0  0
    0.6897   -0.7064   -2.7092 H   0  0  0  0  0  0  0  0  0  0  0  0
    2.9512   -0.1035   -2.4926 H   0  0  0  0  0  0  0  0  0  0  0  0
    2.1355    1.1538   -3.4683 H   0  0  0  0  0  0  0  0  0  0  0  0
    3.5836    2.1908   -1.6980 H   0  0  0  0  0  0  0  0  0  0  0  0
    1.8515    2.6020   -1.4362 H   0  0  0  0  0  0  0  0  0  0  0  0
    1.7786    1.9973    2.2446 H   0  0  0  0  0  0  0  0  0  0  0  0
    2.2023    3.3231    1.1136 H   0  0  0  0  0  0  0  0  0  0  0  0
   -0.2007    4.5497    0.7481 H   0  0  0  0  0  0  0  0  0  0  0  0
   -3.4082    1.1794   -1.9405 H   0  0  0  0  0  0  0  0  0  0  0  0
   -5.2169   -0.5275   -2.2060 H   0  0  0  0  0  0  0  0  0  0  0  0
   -5.5563   -2.2802   -0.4485 H   0  0  0  0  0  0  0  0  0  0  0  0
   -4.0892   -2.3230    1.5821 H   0  0  0  0  0  0  0  0  0  0  0  0
   -2.2684   -0.6294    1.8483 H   0  0  0  0  0  0  0  0  0  0  0  0
  2  8  1  0  0  0  0
  3  7  1  0  0  0  0
  4  9  1  0  0  0  0
  5  1  1  0  0  0  0
  5  6  1  0  0  0  0
  6 22  1  0  0  0  0
  6  3  1  0  0  0  0
  7 23  1  0  0  0  0
  8  7  1  0  0  0  0
  9  8  2  0  0  0  0
  9 25  1  0  0  0  0
 10 11  1  1  0  0  0
 10  4  1  0  0  0  0
 10  2  1  0  0  0  0
 11 16  1  0  0  0  0
 12 11  2  0  0  0  0
 13 12  1  0  0  0  0
 13 14  2  0  0  0  0
 14 15  1  0  0  0  0
 15 16  2  0  0  0  0
 15 29  1  0  0  0  0
 16 30  1  0  0  0  0
 17  1  1  0  0  0  0
 18  1  1  0  0  0  0
 19  5  1  0  0  0  0
 20  5  1  0  0  0  0
 21  6  1  0  0  0  0
 24  7  1  0  0  0  0
 26 12  1  0  0  0  0
 27 13  1  0  0  0  0
 28 14  1  0  0  0  0
M  END
