1,2,3
 OpenBabel05122313063D

 36 37  0  0  1  0  0  0  0  0999 V2000
   -2.0593   -1.6534   -0.3195 S   0  0  0  0  0  0  0  0  0  0  0  0
    1.8726   -0.5362   -0.0961 N   0  0  0  0  0  2  0  0  0  0  0  0
   -0.8096    1.2807    0.3671 N   0  0  0  0  0  0  0  0  0  0  0  0
   -2.7724   -1.1258    1.3063 C   0  0  0  0  0  0  0  0  0  0  0  0
   -2.8680    0.3726    1.5784 C   0  0  0  0  0  0  0  0  0  0  0  0
   -1.5716    1.1800    1.6385 C   0  0  0  0  0  0  0  0  0  0  0  0
   -1.6362    1.7916   -0.7651 C   0  0  0  0  0  0  0  0  0  0  0  0
   -1.9519    0.7623   -1.8578 C   0  0  0  0  0  0  0  0  0  0  0  0
   -2.8165   -0.4504   -1.5096 C   0  0  0  0  0  0  0  0  0  0  0  0
    0.4039    2.1025    0.5771 C   0  0  0  0  0  0  0  0  0  0  0  0
    1.5079    1.8792   -0.4770 C   0  0  0  0  0  0  0  0  0  0  0  0
    2.4247    0.7055   -0.2164 C   0  0  1  0  0  3  0  0  0  0  0  0
    3.8138    0.8812   -0.0973 C   0  0  0  0  0  0  0  0  0  0  0  0
    4.6422   -0.2219    0.1466 C   0  0  0  0  0  0  0  0  0  0  0  0
    4.0600   -1.4910    0.2728 C   0  0  0  0  0  0  0  0  0  0  0  0
    2.6742   -1.6039    0.1440 C   0  0  0  0  0  0  0  0  0  0  0  0
   -3.7776   -1.5897    1.3636 H   0  0  0  0  0  0  0  0  0  0  0  0
   -2.1327   -1.6392    2.0533 H   0  0  0  0  0  0  0  0  0  0  0  0
   -3.5821    0.8395    0.8689 H   0  0  0  0  0  0  0  0  0  0  0  0
   -3.3554    0.4823    2.5705 H   0  0  0  0  0  0  0  0  0  0  0  0
   -1.8220    2.2056    2.0056 H   0  0  0  0  0  0  0  0  0  0  0  0
   -0.8908    0.7326    2.3938 H   0  0  0  0  0  0  0  0  0  0  0  0
   -1.0915    2.6279   -1.2485 H   0  0  0  0  0  0  0  0  0  0  0  0
   -2.5721    2.2460   -0.3727 H   0  0  0  0  0  0  0  0  0  0  0  0
   -2.4667    1.3051   -2.6806 H   0  0  0  0  0  0  0  0  0  0  0  0
   -0.9947    0.3968   -2.2934 H   0  0  0  0  0  0  0  0  0  0  0  0
   -2.9948   -1.0571   -2.4191 H   0  0  0  0  0  0  0  0  0  0  0  0
   -3.8145   -0.1748   -1.1121 H   0  0  0  0  0  0  0  0  0  0  0  0
    0.8078    1.8625    1.5817 H   0  0  0  0  0  0  0  0  0  0  0  0
    0.1330    3.1848    0.6002 H   0  0  0  0  0  0  0  0  0  0  0  0
    1.0517    1.7796   -1.4865 H   0  0  0  0  0  0  0  0  0  0  0  0
    2.1301    2.7936   -0.5243 H   0  0  0  0  0  0  0  0  0  0  0  0
    4.2401    1.8896   -0.1994 H   0  0  0  0  0  0  0  0  0  0  0  0
    5.7308   -0.0912    0.2365 H   0  0  0  0  0  0  0  0  0  0  0  0
    4.6670   -2.3875    0.4613 H   0  0  0  0  0  0  0  0  0  0  0  0
    2.1732   -2.5802    0.2228 H   0  0  0  0  0  0  0  0  0  0  0  0
  1  4  1  0  0  0  0
  2 16  1  0  0  0  0
  3 10  1  0  0  0  0
  3  6  1  0  0  0  0
  4 17  1  0  0  0  0
  4  5  1  0  0  0  0
  4 18  1  0  0  0  0
  5  6  1  0  0  0  0
  5 20  1  0  0  0  0
  6 21  1  0  0  0  0
  6 22  1  0  0  0  0
  7 24  1  0  0  0  0
  7  3  1  0  0  0  0
  8  9  1  0  0  0  0
  8  7  1  0  0  0  0
  9 28  1  0  0  0  0
  9  1  1  0  0  0  0
 10 30  1  0  0  0  0
 10 29  1  0  0  0  0
 11 10  1  0  0  0  0
 12 11  1  1  0  0  0
 12 13  1  0  0  0  0
 12  2  1  0  0  0  0
 13 14  2  0  0  0  0
 14 34  1  0  0  0  0
 14 15  1  0  0  0  0
 15 35  1  0  0  0  0
 16 36  1  0  0  0  0
 16 15  2  0  0  0  0
 19  5  1  0  0  0  0
 23  7  1  0  0  0  0
 25  8  1  0  0  0  0
 26  8  1  0  0  0  0
 27  9  1  0  0  0  0
 31 11  1  0  0  0  0
 32 11  1  0  0  0  0
 33 13  1  0  0  0  0
M  END
