1,4,5
 OpenBabel05122313063D

 22 22  0  0  1  0  0  0  0  0999 V2000
   -0.3034   -1.6583   -1.9148 S   0  0  0  0  0  1  0  0  0  0  0  0
    1.4316   -2.0887   -2.1481 C   0  0  2  0  0  3  0  0  0  0  0  0
    2.4055   -1.4608   -1.5283 N   0  0  0  0  0  2  0  0  0  0  0  0
    1.9770   -0.5259   -0.6353 N   0  0  0  0  0  2  0  0  0  0  0  0
    0.9772    1.1885    0.9580 N   0  0  0  0  0  2  0  0  0  0  0  0
    2.3527    1.2583    0.7943 C   0  0  0  0  0  0  0  0  0  0  0  0
    2.9141    0.2678   -0.0764 C   0  0  0  0  0  0  0  0  0  0  0  0
    4.3749    0.1493   -0.3639 C   0  0  0  0  0  0  0  0  0  0  0  0
    4.7651    1.0689   -0.8480 H   0  0  0  0  0  0  0  0  0  0  0  0
    4.5522   -0.7044   -1.0397 H   0  0  0  0  0  0  0  0  0  0  0  0
    4.9542   -0.0027    0.5699 H   0  0  0  0  0  0  0  0  0  0  0  0
    3.0957    2.2817    1.4330 C   0  0  0  0  0  0  0  0  0  0  0  0
    2.4434    3.2288    2.2142 C   0  0  0  0  0  0  0  0  0  0  0  0
    1.0382    3.1553    2.3502 C   0  0  0  0  0  0  0  0  0  0  0  0
    0.3478    2.1342    1.7087 C   0  0  0  0  0  0  0  0  0  0  0  0
   -0.7424    2.0228    1.8025 H   0  0  0  0  0  0  0  0  0  0  0  0
    0.4844    3.8784    2.9646 H   0  0  0  0  0  0  0  0  0  0  0  0
    3.0122    4.0243    2.7167 H   0  0  0  0  0  0  0  0  0  0  0  0
    4.1843    2.3167    1.2919 H   0  0  0  0  0  0  0  0  0  0  0  0
    1.7023   -3.0609   -3.0388 N   0  0  0  0  0  0  0  0  0  0  0  0
    2.6732   -3.3132   -3.2294 H   0  0  0  0  0  0  0  0  0  0  0  0
    0.9518   -3.5291   -3.5435 H   0  0  0  0  0  0  0  0  0  0  0  0
  2  1  1  6  0  0  0
  2  3  1  0  0  0  0
  3  4  1  0  0  0  0
  4  7  1  0  0  0  0
  5 15  1  0  0  0  0
  6  5  1  0  0  0  0
  6 12  1  0  0  0  0
  7  6  2  0  0  0  0
  8  7  1  0  0  0  0
  8 11  1  0  0  0  0
  9  8  1  0  0  0  0
 10  8  1  0  0  0  0
 12 13  2  0  0  0  0
 13 14  1  0  0  0  0
 13 18  1  0  0  0  0
 14 17  1  0  0  0  0
 15 16  1  0  0  0  0
 15 14  2  0  0  0  0
 19 12  1  0  0  0  0
 20  2  1  0  0  0  0
 21 20  1  0  0  0  0
 22 20  1  0  0  0  0
M  END
