1,2,3
 OpenBabel05122313063D

 27 27  0  0  0  0  0  0  0  0999 V2000
   -1.7878    1.3458   -0.4425 S   0  0  0  0  0  1  0  0  0  0  0  0
    1.8415   -0.4824   -0.2650 N   0  0  0  0  0  2  0  0  0  0  0  0
   -0.5754   -1.1069   -0.0119 N   0  0  0  0  0  2  0  0  0  0  0  0
   -1.9064   -1.3128    0.1066 N   0  0  0  0  0  0  0  0  0  0  0  0
   -3.9572   -0.2467   -0.0620 N   0  0  0  0  0  0  0  0  0  0  0  0
   -0.2379   -3.3910    0.5032 N   0  0  0  0  0  0  0  0  0  0  0  0
   -1.2443   -3.3630    0.7081 H   0  0  0  0  0  0  0  0  0  0  0  0
    0.3152   -3.9547    1.1511 H   0  0  0  0  0  0  0  0  0  0  0  0
    3.0861   -0.0272   -0.4848 C   0  0  0  0  0  0  0  0  0  0  0  0
    3.1503    1.0402   -0.7455 H   0  0  0  0  0  0  0  0  0  0  0  0
    4.2089   -0.8645   -0.3995 C   0  0  0  0  0  0  0  0  0  0  0  0
    5.2099   -0.4498   -0.5824 H   0  0  0  0  0  0  0  0  0  0  0  0
    4.0245   -2.2201   -0.0882 C   0  0  0  0  0  0  0  0  0  0  0  0
    4.8851   -2.9020   -0.0221 H   0  0  0  0  0  0  0  0  0  0  0  0
    2.7245   -2.7021    0.1275 C   0  0  0  0  0  0  0  0  0  0  0  0
    2.5421   -3.7644    0.3435 H   0  0  0  0  0  0  0  0  0  0  0  0
    1.6445   -1.8086    0.0389 C   0  0  0  0  0  0  0  0  0  0  0  0
    0.2386   -2.1358    0.2162 C   0  0  0  0  0  0  0  0  0  0  0  0
   -2.5931   -0.1875   -0.1045 C   0  0  0  0  0  0  0  0  0  0  0  0
   -4.7719    0.9519   -0.1083 C   0  0  0  0  0  0  0  0  0  0  0  0
   -4.2280    1.7545   -0.6404 H   0  0  0  0  0  0  0  0  0  0  0  0
   -5.7153    0.7373   -0.6503 H   0  0  0  0  0  0  0  0  0  0  0  0
   -5.0290    1.3220    0.9108 H   0  0  0  0  0  0  0  0  0  0  0  0
   -4.6200   -1.4869    0.3046 C   0  0  0  0  0  0  0  0  0  0  0  0
   -4.7408   -1.5845    1.4081 H   0  0  0  0  0  0  0  0  0  0  0  0
   -5.6254   -1.5132   -0.1603 H   0  0  0  0  0  0  0  0  0  0  0  0
   -4.0240   -2.3442   -0.0546 H   0  0  0  0  0  0  0  0  0  0  0  0
  1 19  1  0  0  0  0
  2 17  1  0  0  0  0
  3  4  1  0  0  0  0
  3 18  1  0  0  0  0
  5 24  1  0  0  0  0
  6  7  1  0  0  0  0
  6  8  1  0  0  0  0
  9 11  2  0  0  0  0
  9  2  1  0  0  0  0
 10  9  1  0  0  0  0
 11 13  1  0  0  0  0
 12 11  1  0  0  0  0
 13 14  1  0  0  0  0
 13 15  2  0  0  0  0
 15 16  1  0  0  0  0
 17 15  1  0  0  0  0
 17 18  2  0  0  0  0
 18  6  1  0  0  0  0
 19  5  1  0  0  0  0
 19  4  2  0  0  0  0
 20  5  1  0  0  0  0
 20 23  1  0  0  0  0
 21 20  1  0  0  0  0
 22 20  1  0  0  0  0
 24 25  1  0  0  0  0
 26 24  1  0  0  0  0
 27 24  1  0  0  0  0
M  END
