1,2,6
 OpenBabel05122313063D

 23 23  0  0  1  0  0  0  0  0999 V2000
    0.0137    2.0218    0.8404 S   0  0  0  0  0  0  0  0  0  0  0  0
    1.4415   -0.5553    0.0313 N   0  0  0  0  0  2  0  0  0  0  0  0
    1.6855    1.4967    1.3863 C   0  0  0  0  0  0  0  0  0  0  0  0
    2.3599    2.3755    1.4033 H   0  0  0  0  0  0  0  0  0  0  0  0
    1.5162    1.2002    2.4453 H   0  0  0  0  0  0  0  0  0  0  0  0
   -0.3158    0.8276   -2.0049 N   0  0  0  0  0  0  0  0  0  0  0  0
    0.0134    0.1351   -2.6932 H   0  0  0  0  0  0  0  0  0  0  0  0
   -1.2043    1.1821   -2.3897 H   0  0  0  0  0  0  0  0  0  0  0  0
    2.2820    0.3422    0.6242 C   0  0  1  0  0  3  0  0  0  0  0  0
    3.6761    0.1765    0.5863 C   0  0  0  0  0  0  0  0  0  0  0  0
    4.3226    0.9223    1.0711 H   0  0  0  0  0  0  0  0  0  0  0  0
    4.2276   -0.9403   -0.0534 C   0  0  0  0  0  0  0  0  0  0  0  0
    5.3177   -1.0839   -0.0855 H   0  0  0  0  0  0  0  0  0  0  0  0
    3.3603   -1.8690   -0.6448 C   0  0  0  0  0  0  0  0  0  0  0  0
    3.7370   -2.7676   -1.1531 H   0  0  0  0  0  0  0  0  0  0  0  0
    1.9844   -1.6403   -0.5820 C   0  0  0  0  0  0  0  0  0  0  0  0
    1.2767   -2.3512   -1.0308 H   0  0  0  0  0  0  0  0  0  0  0  0
    0.3363    2.8776   -0.7648 C   0  0  0  0  0  0  0  0  0  0  0  0
   -0.6067    3.4332   -0.9513 H   0  0  0  0  0  0  0  0  0  0  0  0
    1.1332    3.6307   -0.6057 H   0  0  0  0  0  0  0  0  0  0  0  0
    0.6732    1.9349   -1.9104 C   0  0  0  0  0  0  0  0  0  0  0  0
    0.7153    2.5152   -2.8575 H   0  0  0  0  0  0  0  0  0  0  0  0
    1.6736    1.4845   -1.7616 H   0  0  0  0  0  0  0  0  0  0  0  0
  1  3  1  0  0  0  0
  2  9  1  0  0  0  0
  3  4  1  0  0  0  0
  3  5  1  0  0  0  0
  6 21  1  0  0  0  0
  7  6  1  0  0  0  0
  8  6  1  0  0  0  0
  9  3  1  1  0  0  0
 10  9  1  0  0  0  0
 10 11  1  0  0  0  0
 12 10  2  0  0  0  0
 13 12  1  0  0  0  0
 14 16  2  0  0  0  0
 14 12  1  0  0  0  0
 15 14  1  0  0  0  0
 16  2  1  0  0  0  0
 17 16  1  0  0  0  0
 18 20  1  0  0  0  0
 18  1  1  0  0  0  0
 19 18  1  0  0  0  0
 21 23  1  0  0  0  0
 21 18  1  0  0  0  0
 22 21  1  0  0  0  0
M  END
