1,2,3
 OpenBabel05122313063D

 32 33  0  0  0  0  0  0  0  0999 V2000
    1.4016    1.4271    0.0390 S   0  0  0  0  0  1  0  0  0  0  0  0
   -0.5842   -2.4282   -0.0327 N   0  0  0  0  0  2  0  0  0  0  0  0
    1.8683   -1.4294   -0.0322 N   0  0  0  0  0  2  0  0  0  0  0  0
    3.0470   -0.8032   -0.0263 N   0  0  0  0  0  0  0  0  0  0  0  0
    4.0481    1.3075    0.0197 N   0  0  0  0  0  0  0  0  0  0  0  0
    3.8390    2.3099    0.0430 H   0  0  0  0  0  0  0  0  0  0  0  0
   -1.8489   -2.8839   -0.0116 C   0  0  0  0  0  0  0  0  0  0  0  0
   -2.6441   -2.1258    0.0265 H   0  0  0  0  0  0  0  0  0  0  0  0
   -2.1614   -4.2497   -0.0224 C   0  0  0  0  0  0  0  0  0  0  0  0
   -3.2133   -4.5657   -0.0046 H   0  0  0  0  0  0  0  0  0  0  0  0
   -1.1102   -5.1748   -0.0536 C   0  0  0  0  0  0  0  0  0  0  0  0
   -1.3117   -6.2560   -0.0619 H   0  0  0  0  0  0  0  0  0  0  0  0
    0.2087   -4.7066   -0.0710 C   0  0  0  0  0  0  0  0  0  0  0  0
    1.0461   -5.4157   -0.0907 H   0  0  0  0  0  0  0  0  0  0  0  0
    0.4680   -3.3214   -0.0600 C   0  0  0  0  0  0  0  0  0  0  0  0
    1.8174   -2.7549   -0.0672 C   0  0  0  0  0  0  0  0  0  0  0  0
    3.0799   -3.5531   -0.1026 C   0  0  0  0  0  0  0  0  0  0  0  0
    3.6962   -3.2455   -0.9723 H   0  0  0  0  0  0  0  0  0  0  0  0
    2.9016   -4.6398   -0.1595 H   0  0  0  0  0  0  0  0  0  0  0  0
    3.6909   -3.3380    0.7987 H   0  0  0  0  0  0  0  0  0  0  0  0
    2.9421    0.5245    0.0060 C   0  0  0  0  0  0  0  0  0  0  0  0
    5.4266    1.0075    0.0083 C   0  0  0  0  0  0  0  0  0  0  0  0
    5.9484   -0.3034   -0.0166 C   0  0  0  0  0  0  0  0  0  0  0  0
    5.2613   -1.1561   -0.0274 H   0  0  0  0  0  0  0  0  0  0  0  0
    7.3378   -0.4858   -0.0265 C   0  0  0  0  0  0  0  0  0  0  0  0
    7.7408   -1.5095   -0.0458 H   0  0  0  0  0  0  0  0  0  0  0  0
    8.2145    0.6103   -0.0118 C   0  0  0  0  0  0  0  0  0  0  0  0
    9.3025    0.4511   -0.0198 H   0  0  0  0  0  0  0  0  0  0  0  0
    7.6905    1.9132    0.0135 C   0  0  0  0  0  0  0  0  0  0  0  0
    8.3638    2.7829    0.0255 H   0  0  0  0  0  0  0  0  0  0  0  0
    6.3072    2.1137    0.0235 C   0  0  0  0  0  0  0  0  0  0  0  0
    5.8989    3.1372    0.0433 H   0  0  0  0  0  0  0  0  0  0  0  0
  2  7  1  0  0  0  0
  3  4  1  0  0  0  0
  4 21  2  0  0  0  0
  5  6  1  0  0  0  0
  7  8  1  0  0  0  0
  9  7  2  0  0  0  0
  9 10  1  0  0  0  0
 11  9  1  0  0  0  0
 12 11  1  0  0  0  0
 13 15  1  0  0  0  0
 13 11  2  0  0  0  0
 14 13  1  0  0  0  0
 15  2  1  0  0  0  0
 16 15  2  0  0  0  0
 16  3  1  0  0  0  0
 17 16  1  0  0  0  0
 17 20  1  0  0  0  0
 18 17  1  0  0  0  0
 19 17  1  0  0  0  0
 21  5  1  0  0  0  0
 21  1  1  0  0  0  0
 22  5  1  0  0  0  0
 22 31  1  0  0  0  0
 23 22  2  0  0  0  0
 24 23  1  0  0  0  0
 25 23  1  0  0  0  0
 25 27  2  0  0  0  0
 26 25  1  0  0  0  0
 27 29  1  0  0  0  0
 28 27  1  0  0  0  0
 29 31  2  0  0  0  0
 29 30  1  0  0  0  0
 31 32  1  0  0  0  0
M  END
