1,2,3
 OpenBabel05122313063D

 29 29  0  0  1  0  0  0  0  0999 V2000
   -1.9692   -1.0012   -1.5212 S   0  0  0  0  0  1  0  0  0  0  0  0
    2.1994    0.1878   -0.1450 N   0  0  0  0  0  2  0  0  0  0  0  0
   -0.1877    1.2120   -0.6816 N   0  0  0  0  0  2  0  0  0  0  0  0
   -1.4921    1.4950   -0.6129 N   0  0  0  0  0  0  0  0  0  0  0  0
   -3.6536    0.7317   -0.3099 N   0  0  0  0  0  0  0  0  0  0  0  0
    3.4052   -0.3945   -0.1432 C   0  0  0  0  0  3  0  0  0  0  0  0
    4.5936    0.3480   -0.2411 C   0  0  0  0  0  0  0  0  0  0  0  0
    4.5003    1.7426   -0.3440 C   0  0  0  0  0  0  0  0  0  0  0  0
    3.2355    2.3470   -0.3555 C   0  0  0  0  0  0  0  0  0  0  0  0
    2.0889    1.5324   -0.2652 C   0  0  0  0  0  0  0  0  0  0  0  0
    0.7059    2.0727   -0.2951 C   0  0  2  0  0  3  0  0  0  0  0  0
   -2.4110    0.4579   -0.7841 C   0  0  2  0  0  3  0  0  0  0  0  0
   -4.7202   -0.2555   -0.4182 C   0  0  0  0  0  0  0  0  0  0  0  0
   -3.8684    1.8390    0.6201 C   0  0  0  0  0  0  0  0  0  0  0  0
    0.3672    3.4448    0.2131 C   0  0  0  0  0  0  0  0  0  0  0  0
    3.3870   -1.4966   -0.0514 H   0  0  0  0  0  0  0  0  0  0  0  0
    5.5670   -0.1627   -0.2277 H   0  0  0  0  0  0  0  0  0  0  0  0
    5.4074    2.3609   -0.4223 H   0  0  0  0  0  0  0  0  0  0  0  0
    3.1406    3.4371   -0.4605 H   0  0  0  0  0  0  0  0  0  0  0  0
   -4.7838   -0.8670    0.5082 H   0  0  0  0  0  0  0  0  0  0  0  0
   -5.6848    0.2635   -0.5833 H   0  0  0  0  0  0  0  0  0  0  0  0
   -4.5035   -0.9329   -1.2625 H   0  0  0  0  0  0  0  0  0  0  0  0
   -3.7458    2.8288    0.1275 H   0  0  0  0  0  0  0  0  0  0  0  0
   -4.9044    1.7910    0.9981 H   0  0  0  0  0  0  0  0  0  0  0  0
   -3.1732    1.7475    1.4855 H   0  0  0  0  0  0  0  0  0  0  0  0
   -1.7830    2.2871   -0.0269 H   0  0  0  0  0  0  0  0  0  0  0  0
    1.2603    4.0658    0.3997 H   0  0  0  0  0  0  0  0  0  0  0  0
   -0.2987    3.9915   -0.4874 H   0  0  0  0  0  0  0  0  0  0  0  0
   -0.1639    3.3350    1.1863 H   0  0  0  0  0  0  0  0  0  0  0  0
  2  6  1  0  0  0  0
  3  4  1  0  0  0  0
  4 26  1  0  0  0  0
  5 14  1  0  0  0  0
  6 16  1  0  0  0  0
  7 17  1  0  0  0  0
  7  6  1  0  0  0  0
  8  7  2  0  0  0  0
  9  8  1  0  0  0  0
  9 10  2  0  0  0  0
 10  2  1  0  0  0  0
 11  3  1  1  0  0  0
 11 10  1  0  0  0  0
 11 15  1  0  0  0  0
 12  1  1  1  0  0  0
 12  4  1  0  0  0  0
 12  5  1  0  0  0  0
 13  5  1  0  0  0  0
 13 20  1  0  0  0  0
 14 24  1  0  0  0  0
 14 25  1  0  0  0  0
 15 27  1  0  0  0  0
 15 29  1  0  0  0  0
 18  8  1  0  0  0  0
 19  9  1  0  0  0  0
 21 13  1  0  0  0  0
 22 13  1  0  0  0  0
 23 14  1  0  0  0  0
 28 15  1  0  0  0  0
M  END
