1,3,4
 OpenBabel05122313063D

 20 20  0  0  1  0  0  0  0  0999 V2000
   -1.8433   -2.7442   -0.0476 S   0  0  0  0  0  1  0  0  0  0  0  0
   -3.7455    1.7267    1.6424 O   0  0  0  0  0  0  0  0  0  0  0  0
   -2.6831   -0.1492    0.7291 N   0  0  0  0  0  2  0  0  0  0  0  0
   -1.0032    1.1853   -0.6002 N   0  0  0  0  0  2  0  0  0  0  0  0
   -3.5248   -2.3982    0.6503 C   0  0  0  0  0  0  0  0  0  0  0  0
   -4.2467   -2.2721   -0.1855 H   0  0  0  0  0  0  0  0  0  0  0  0
   -3.8527   -3.2701    1.2567 H   0  0  0  0  0  0  0  0  0  0  0  0
   -3.4560   -1.1243    1.4783 C   0  0  0  0  0  0  0  0  0  0  0  0
   -2.9490   -1.3443    2.4492 H   0  0  0  0  0  0  0  0  0  0  0  0
   -4.4587   -0.7042    1.7226 H   0  0  0  0  0  0  0  0  0  0  0  0
   -2.8931    1.1751    0.9154 C   0  0  0  0  0  0  0  0  0  0  0  0
   -1.9089    1.9492    0.0892 C   0  0  1  0  0  3  0  0  0  0  0  0
   -1.9060    3.3456    0.0350 C   0  0  0  0  0  0  0  0  0  0  0  0
   -2.6702    3.8643    0.6332 H   0  0  0  0  0  0  0  0  0  0  0  0
   -0.9530    4.0004   -0.7578 C   0  0  0  0  0  0  0  0  0  0  0  0
   -0.9243    5.0994   -0.8203 H   0  0  0  0  0  0  0  0  0  0  0  0
   -0.0312    3.2127   -1.4741 C   0  0  0  0  0  0  0  0  0  0  0  0
    0.7394    3.6713   -2.1116 H   0  0  0  0  0  0  0  0  0  0  0  0
   -0.0871    1.8195   -1.3740 C   0  0  0  0  0  0  0  0  0  0  0  0
    0.5991    1.1536   -1.9219 H   0  0  0  0  0  0  0  0  0  0  0  0
  1  5  1  0  0  0  0
  3 11  1  0  0  0  0
  3  8  1  0  0  0  0
  4 12  1  0  0  0  0
  5  7  1  0  0  0  0
  5  8  1  0  0  0  0
  6  5  1  0  0  0  0
  8 10  1  0  0  0  0
  8  9  1  0  0  0  0
 11  2  2  0  0  0  0
 12 11  1  1  0  0  0
 13 12  1  0  0  0  0
 13 14  1  0  0  0  0
 15 13  2  0  0  0  0
 16 15  1  0  0  0  0
 17 19  2  0  0  0  0
 17 15  1  0  0  0  0
 18 17  1  0  0  0  0
 19  4  1  0  0  0  0
 20 19  1  0  0  0  0
M  END
