1,3,5
 OpenBabel05122313063D

 69 70  0  0  1  0  0  0  0  0999 V2000
   -0.0652   -0.3981   -2.6792 S   0  0  0  0  0  1  0  0  0  0  0  0
    2.3702    1.3463   -2.9336 S   0  0  0  0  0  0  0  0  0  0  0  0
   -0.8539    1.3814   -0.0592 N   0  0  0  0  0  2  0  0  0  0  0  0
    0.4902    1.5039    0.1537 N   0  0  0  0  0  0  0  0  0  0  0  0
    0.1585   -1.2387    0.5566 N   0  0  0  0  0  2  0  0  0  0  0  0
    1.3626   -0.7572    0.1337 N   0  0  0  0  0  0  0  0  0  0  0  0
   -1.4452    2.4550    0.4926 C   0  0  2  0  0  3  0  0  0  0  0  0
   -0.4507    3.2782    1.0733 C   0  0  0  0  0  0  0  0  0  0  0  0
   -0.6119    4.2201    1.6002 H   0  0  0  0  0  0  0  0  0  0  0  0
    0.7798    2.6579    0.8551 C   0  0  0  0  0  0  0  0  0  0  0  0
    1.2311    0.5237   -2.0352 C   0  0  0  0  0  0  0  0  0  0  0  0
    1.4093    0.5699   -0.4927 C   0  0  1  0  0  0  0  0  0  0  0  0
    2.4157    0.9608   -0.3018 H   0  0  0  0  0  0  0  0  0  0  0  0
    0.4014   -2.4232    1.1546 C   0  0  2  0  0  3  0  0  0  0  0  0
    1.7838   -2.7041    1.0721 C   0  0  0  0  0  0  0  0  0  0  0  0
    2.2901   -3.5907    1.4585 H   0  0  0  0  0  0  0  0  0  0  0  0
    2.3879   -1.6428    0.3863 C   0  0  0  0  0  0  0  0  0  0  0  0
   -2.9500    2.6626    0.4750 C   0  0  0  0  0  0  0  0  0  0  0  0
   -3.2735    4.0897    0.9546 C   0  0  0  0  0  0  0  0  0  0  0  0
   -2.9514    4.2549    2.0027 H   0  0  0  0  0  0  0  0  0  0  0  0
   -4.3680    4.2565    0.9135 H   0  0  0  0  0  0  0  0  0  0  0  0
   -2.7890    4.8553    0.3154 H   0  0  0  0  0  0  0  0  0  0  0  0
   -3.4825    2.4762   -0.9618 C   0  0  0  0  0  0  0  0  0  0  0  0
   -3.0067    3.1952   -1.6584 H   0  0  0  0  0  0  0  0  0  0  0  0
   -4.5784    2.6426   -0.9819 H   0  0  0  0  0  0  0  0  0  0  0  0
   -3.3000    1.4508   -1.3372 H   0  0  0  0  0  0  0  0  0  0  0  0
   -3.6110    1.6443    1.4320 C   0  0  0  0  0  0  0  0  0  0  0  0
   -3.4375    0.6039    1.0954 H   0  0  0  0  0  0  0  0  0  0  0  0
   -4.7080    1.8048    1.4570 H   0  0  0  0  0  0  0  0  0  0  0  0
   -3.2195    1.7572    2.4633 H   0  0  0  0  0  0  0  0  0  0  0  0
    2.1521    3.0938    1.3462 C   0  0  0  0  0  0  0  0  0  0  0  0
    2.7396    1.9936    2.2625 C   0  0  0  0  0  0  0  0  0  0  0  0
    2.0845    1.8330    3.1418 H   0  0  0  0  0  0  0  0  0  0  0  0
    3.7407    2.2992    2.6279 H   0  0  0  0  0  0  0  0  0  0  0  0
    2.8507    1.0176    1.7561 H   0  0  0  0  0  0  0  0  0  0  0  0
    3.0986    3.4443    0.1736 C   0  0  0  0  0  0  0  0  0  0  0  0
    3.2369    2.6320   -0.5666 H   0  0  0  0  0  0  0  0  0  0  0  0
    4.0951    3.7256    0.5703 H   0  0  0  0  0  0  0  0  0  0  0  0
    2.6978    4.3083   -0.3929 H   0  0  0  0  0  0  0  0  0  0  0  0
    1.9857    4.3677    2.2015 C   0  0  0  0  0  0  0  0  0  0  0  0
    1.5675    5.2046    1.6083 H   0  0  0  0  0  0  0  0  0  0  0  0
    2.9767    4.6871    2.5802 H   0  0  0  0  0  0  0  0  0  0  0  0
    1.3280    4.1927    3.0757 H   0  0  0  0  0  0  0  0  0  0  0  0
   -0.6935   -3.2739    1.7752 C   0  0  0  0  0  0  0  0  0  0  0  0
   -1.7630   -2.3737    2.4246 C   0  0  0  0  0  0  0  0  0  0  0  0
   -1.3186   -1.7245    3.2058 H   0  0  0  0  0  0  0  0  0  0  0  0
   -2.5467   -3.0006    2.8951 H   0  0  0  0  0  0  0  0  0  0  0  0
   -2.2647   -1.7330    1.6745 H   0  0  0  0  0  0  0  0  0  0  0  0
   -1.3296   -4.1517    0.6714 C   0  0  0  0  0  0  0  0  0  0  0  0
   -1.8122   -3.5309   -0.1086 H   0  0  0  0  0  0  0  0  0  0  0  0
   -2.1107   -4.8058    1.1102 H   0  0  0  0  0  0  0  0  0  0  0  0
   -0.5664   -4.7968    0.1912 H   0  0  0  0  0  0  0  0  0  0  0  0
   -0.0753   -4.1866    2.8527 C   0  0  0  0  0  0  0  0  0  0  0  0
    0.6508   -4.9038    2.4197 H   0  0  0  0  0  0  0  0  0  0  0  0
   -0.8737   -4.7810    3.3399 H   0  0  0  0  0  0  0  0  0  0  0  0
    0.4427   -3.5984    3.6370 H   0  0  0  0  0  0  0  0  0  0  0  0
    3.8109   -1.6227   -0.1738 C   0  0  0  0  0  0  0  0  0  0  0  0
    3.7307   -2.1700   -1.6232 C   0  0  0  0  0  0  0  0  0  0  0  0
    3.2742   -3.1791   -1.6396 H   0  0  0  0  0  0  0  0  0  0  0  0
    4.7512   -2.2392   -2.0527 H   0  0  0  0  0  0  0  0  0  0  0  0
    3.1312   -1.5058   -2.2753 H   0  0  0  0  0  0  0  0  0  0  0  0
    4.6759   -2.5776    0.6766 C   0  0  0  0  0  0  0  0  0  0  0  0
    4.7106   -2.2582    1.7376 H   0  0  0  0  0  0  0  0  0  0  0  0
    5.7118   -2.5836    0.2842 H   0  0  0  0  0  0  0  0  0  0  0  0
    4.3047   -3.6200    0.6384 H   0  0  0  0  0  0  0  0  0  0  0  0
    4.5102   -0.2478   -0.2017 C   0  0  0  0  0  0  0  0  0  0  0  0
    4.0829    0.4344   -0.9653 H   0  0  0  0  0  0  0  0  0  0  0  0
    5.5692   -0.3996   -0.4908 H   0  0  0  0  0  0  0  0  0  0  0  0
    4.5084    0.2457    0.7892 H   0  0  0  0  0  0  0  0  0  0  0  0
  1 11  1  0  0  0  0
  2 11  2  0  0  0  0
  3  4  1  0  0  0  0
  3  7  1  0  0  0  0
  4 10  1  0  0  0  0
  5 14  1  0  0  0  0
  6 17  1  0  0  0  0
  6  5  1  0  0  0  0
  7 18  1  1  0  0  0
  7  8  1  0  0  0  0
  8  9  1  0  0  0  0
 10  8  2  0  0  0  0
 10 31  1  0  0  0  0
 11 12  1  0  0  0  0
 12 13  1  1  0  0  0
 12  6  1  0  0  0  0
 12  4  1  0  0  0  0
 14 44  1  6  0  0  0
 15 14  1  0  0  0  0
 15 16  1  0  0  0  0
 17 15  2  0  0  0  0
 18 19  1  0  0  0  0
 18 27  1  0  0  0  0
 19 20  1  0  0  0  0
 21 19  1  0  0  0  0
 22 19  1  0  0  0  0
 23 18  1  0  0  0  0
 24 23  1  0  0  0  0
 25 23  1  0  0  0  0
 26 23  1  0  0  0  0
 27 29  1  0  0  0  0
 27 30  1  0  0  0  0
 28 27  1  0  0  0  0
 31 40  1  0  0  0  0
 31 32  1  0  0  0  0
 32 34  1  0  0  0  0
 32 33  1  0  0  0  0
 35 32  1  0  0  0  0
 36 38  1  0  0  0  0
 36 31  1  0  0  0  0
 37 36  1  0  0  0  0
 39 36  1  0  0  0  0
 40 42  1  0  0  0  0
 40 43  1  0  0  0  0
 41 40  1  0  0  0  0
 44 45  1  0  0  0  0
 44 53  1  0  0  0  0
 45 47  1  0  0  0  0
 45 46  1  0  0  0  0
 48 45  1  0  0  0  0
 49 51  1  0  0  0  0
 49 44  1  0  0  0  0
 50 49  1  0  0  0  0
 52 49  1  0  0  0  0
 53 55  1  0  0  0  0
 53 56  1  0  0  0  0
 54 53  1  0  0  0  0
 57 17  1  0  0  0  0
 57 62  1  0  0  0  0
 58 57  1  0  0  0  0
 59 58  1  0  0  0  0
 60 58  1  0  0  0  0
 61 58  1  0  0  0  0
 62 63  1  0  0  0  0
 64 62  1  0  0  0  0
 65 62  1  0  0  0  0
 66 57  1  0  0  0  0
 66 69  1  0  0  0  0
 67 66  1  0  0  0  0
 68 66  1  0  0  0  0
M  END
