2,3,4
 OpenBabel05122313063D

 44 46  0  0  0  0  0  0  0  0999 V2000
    2.4436   -0.1640   -1.6962 S   0  0  0  0  0  0  0  0  0  0  0  0
   -2.4020   -1.3131    0.7692 S   0  0  0  0  0  0  0  0  0  0  0  0
    0.7809   -0.7704    1.2708 N   0  0  0  0  0  0  0  0  0  0  0  0
   -0.4690    1.1390   -0.5647 N   0  0  0  0  0  0  0  0  0  0  0  0
    3.3693    0.4607   -0.3008 C   0  0  0  0  0  0  0  0  0  0  0  0
    4.2849    1.5190   -0.4716 C   0  0  0  0  0  0  0  0  0  0  0  0
    5.0041    2.0306    0.6162 C   0  0  0  0  0  0  0  0  0  0  0  0
    4.8278    1.4713    1.8922 C   0  0  0  0  0  0  0  0  0  0  0  0
    3.9284    0.4109    2.0638 C   0  0  0  0  0  0  0  0  0  0  0  0
    3.1816   -0.1107    0.9848 C   0  0  0  0  0  0  0  0  0  0  0  0
    2.2096   -1.2352    1.2419 C   0  0  0  0  0  0  0  0  0  0  0  0
   -0.0197   -1.5806    2.2224 C   0  0  0  0  0  0  0  0  0  0  0  0
   -1.4657   -1.1231    2.3485 C   0  0  0  0  0  0  0  0  0  0  0  0
   -3.3005    0.2082    0.6306 C   0  0  0  0  0  0  0  0  0  0  0  0
   -4.7004    0.0852    0.4766 C   0  0  0  0  0  0  0  0  0  0  0  0
   -5.5095    1.2045    0.2570 C   0  0  0  0  0  0  0  0  0  0  0  0
   -4.9311    2.4830    0.2033 C   0  0  0  0  0  0  0  0  0  0  0  0
   -3.5427    2.6119    0.3376 C   0  0  0  0  0  0  0  0  0  0  0  0
   -2.6996    1.4982    0.5325 C   0  0  0  0  0  0  0  0  0  0  0  0
   -1.2100    1.7501    0.5683 C   0  0  0  0  0  0  0  0  0  0  0  0
    0.7090    1.9427   -0.9492 C   0  0  0  0  0  0  0  0  0  0  0  0
    1.4992    1.3555   -2.1125 C   0  0  0  0  0  0  0  0  0  0  0  0
    0.7950    0.2008    1.6198 H   0  0  0  0  0  0  0  0  0  0  0  0
   -1.1008    1.0661   -1.3928 H   0  0  0  0  0  0  0  0  0  0  0  0
    2.4529   -1.6822    2.2297 H   0  0  0  0  0  0  0  0  0  0  0  0
    2.2545   -2.0448    0.4845 H   0  0  0  0  0  0  0  0  0  0  0  0
    0.4537   -1.5532    3.2317 H   0  0  0  0  0  0  0  0  0  0  0  0
    0.0223   -2.6222    1.8408 H   0  0  0  0  0  0  0  0  0  0  0  0
   -1.9687   -1.7461    3.1152 H   0  0  0  0  0  0  0  0  0  0  0  0
   -1.5499   -0.0711    2.6874 H   0  0  0  0  0  0  0  0  0  0  0  0
   -0.7470    1.4126    1.5203 H   0  0  0  0  0  0  0  0  0  0  0  0
   -1.0578    2.8513    0.5405 H   0  0  0  0  0  0  0  0  0  0  0  0
    1.3656    2.0635   -0.0601 H   0  0  0  0  0  0  0  0  0  0  0  0
    0.3730    2.9693   -1.2307 H   0  0  0  0  0  0  0  0  0  0  0  0
    2.1845    2.1254   -2.5206 H   0  0  0  0  0  0  0  0  0  0  0  0
    0.8127    1.0153   -2.9165 H   0  0  0  0  0  0  0  0  0  0  0  0
    4.4393    1.9308   -1.4805 H   0  0  0  0  0  0  0  0  0  0  0  0
    5.7182    2.8541    0.4633 H   0  0  0  0  0  0  0  0  0  0  0  0
    5.3968    1.8556    2.7519 H   0  0  0  0  0  0  0  0  0  0  0  0
    3.7962   -0.0347    3.0630 H   0  0  0  0  0  0  0  0  0  0  0  0
   -5.1438   -0.9191    0.5463 H   0  0  0  0  0  0  0  0  0  0  0  0
   -6.5970    1.0785    0.1449 H   0  0  0  0  0  0  0  0  0  0  0  0
   -5.5551    3.3754    0.0484 H   0  0  0  0  0  0  0  0  0  0  0  0
   -3.0836    3.6118    0.2713 H   0  0  0  0  0  0  0  0  0  0  0  0
  1  5  1  0  0  0  0
  2 13  1  0  0  0  0
  3 23  1  0  0  0  0
  3 12  1  0  0  0  0
  4 20  1  0  0  0  0
  5 10  1  0  0  0  0
  6  5  2  0  0  0  0
  6  7  1  0  0  0  0
  7  8  2  0  0  0  0
  8  9  1  0  0  0  0
  8 39  1  0  0  0  0
  9 40  1  0  0  0  0
 10 11  1  0  0  0  0
 10  9  2  0  0  0  0
 11  3  1  0  0  0  0
 11 25  1  0  0  0  0
 12 13  1  0  0  0  0
 12 27  1  0  0  0  0
 13 30  1  0  0  0  0
 13 29  1  0  0  0  0
 14  2  1  0  0  0  0
 15 41  1  0  0  0  0
 15 14  2  0  0  0  0
 16 15  1  0  0  0  0
 17 16  2  0  0  0  0
 17 18  1  0  0  0  0
 18 19  2  0  0  0  0
 19 20  1  0  0  0  0
 19 14  1  0  0  0  0
 20 31  1  0  0  0  0
 21  4  1  0  0  0  0
 21 33  1  0  0  0  0
 22  1  1  0  0  0  0
 22 21  1  0  0  0  0
 24  4  1  0  0  0  0
 26 11  1  0  0  0  0
 28 12  1  0  0  0  0
 32 20  1  0  0  0  0
 34 21  1  0  0  0  0
 35 22  1  0  0  0  0
 36 22  1  0  0  0  0
 37  6  1  0  0  0  0
 38  7  1  0  0  0  0
 42 16  1  0  0  0  0
 43 17  1  0  0  0  0
 44 18  1  0  0  0  0
M  END
