1,8,10
 OpenBabel05122313063D

 39 42  0  0  1  0  0  0  0  0999 V2000
    1.7650   -0.0251   -1.7991 S   0  0  0  0  0  1  0  0  0  0  0  0
    2.8273    1.1480   -1.1592 C   0  0  0  0  0  0  0  0  0  0  0  0
    4.2127    1.0765   -1.1486 N   0  0  0  0  0  0  0  0  0  0  0  0
    2.5397    2.4577   -0.6016 C   0  0  0  0  0  0  0  0  0  0  0  0
    4.8079    2.2319   -0.6645 N   0  0  0  0  0  0  0  0  0  0  0  0
    1.4218    3.1071   -0.2225 N   0  0  0  0  0  2  0  0  0  0  0  0
    3.8320    3.0658   -0.3712 C   0  0  0  0  0  0  0  0  0  0  0  0
    0.2910    2.4916   -0.0985 N   0  0  0  0  0  2  0  0  0  0  0  0
    5.0643   -0.0443   -1.3500 C   0  0  0  0  0  0  0  0  0  0  0  0
   -1.8766    1.3387    1.1801 N   0  0  0  0  0  2  0  0  0  0  0  0
    6.2911   -0.0756   -0.6489 C   0  0  0  0  0  0  0  0  0  0  0  0
    6.5561    0.7852   -0.0226 H   0  0  0  0  0  0  0  0  0  0  0  0
    7.1357   -1.1848   -0.7646 C   0  0  0  0  0  0  0  0  0  0  0  0
    8.0877   -1.1967   -0.2117 H   0  0  0  0  0  0  0  0  0  0  0  0
    6.7758   -2.2751   -1.5749 C   0  0  0  0  0  0  0  0  0  0  0  0
    7.4390   -3.1491   -1.6591 H   0  0  0  0  0  0  0  0  0  0  0  0
    5.5705   -2.2275   -2.2896 C   0  0  0  0  0  0  0  0  0  0  0  0
    5.2840   -3.0628   -2.9463 H   0  0  0  0  0  0  0  0  0  0  0  0
    4.7173   -1.1177   -2.1949 C   0  0  0  0  0  0  0  0  0  0  0  0
    3.7824   -1.0860   -2.7650 H   0  0  0  0  0  0  0  0  0  0  0  0
    4.0876    4.4282    0.1793 C   0  0  0  0  0  0  0  0  0  0  0  0
    5.1757    4.6149    0.2375 H   0  0  0  0  0  0  0  0  0  0  0  0
    3.6431    4.5388    1.1894 H   0  0  0  0  0  0  0  0  0  0  0  0
    3.6171    5.2047   -0.4571 H   0  0  0  0  0  0  0  0  0  0  0  0
   -0.7883    3.3035    0.2662 C   0  0  0  0  0  0  0  0  0  0  0  0
   -0.8314    4.6815    0.0180 C   0  0  0  0  0  0  0  0  0  0  0  0
    0.0440    5.1387   -0.4637 H   0  0  0  0  0  0  0  0  0  0  0  0
   -1.9643    5.4513    0.3625 C   0  0  0  0  0  0  0  0  0  0  0  0
   -1.9653    6.5304    0.1453 H   0  0  0  0  0  0  0  0  0  0  0  0
   -3.0759    4.8640    0.9557 C   0  0  0  0  0  0  0  0  0  0  0  0
   -3.9625    5.4616    1.2156 H   0  0  0  0  0  0  0  0  0  0  0  0
   -3.0767    3.4682    1.2351 C   0  0  0  0  0  0  0  0  0  0  0  0
   -4.1727    2.7997    1.8501 C   0  0  0  0  0  0  0  0  0  0  0  0
   -5.0758    3.3763    2.1043 H   0  0  0  0  0  0  0  0  0  0  0  0
   -4.0951    1.4421    2.1197 C   0  0  0  0  0  0  0  0  0  0  0  0
   -4.9285    0.8982    2.5862 H   0  0  0  0  0  0  0  0  0  0  0  0
   -2.9135    0.7468    1.7658 C   0  0  0  0  0  0  0  0  0  0  0  0
   -2.8242   -0.3367    1.9501 H   0  0  0  0  0  0  0  0  0  0  0  0
   -1.9232    2.6730    0.8989 C   0  0  2  0  0  3  0  0  0  0  0  0
  1  2  1  0  0  0  0
  2  3  1  0  0  0  0
  2  4  2  0  0  0  0
  3  5  1  0  0  0  0
  4  7  1  0  0  0  0
  4  6  1  0  0  0  0
  5  7  2  0  0  0  0
  6  8  1  0  0  0  0
  7 21  1  0  0  0  0
  8 25  1  0  0  0  0
  9  3  1  0  0  0  0
  9 11  1  0  0  0  0
 10 37  1  0  0  0  0
 11 12  1  0  0  0  0
 13 11  2  0  0  0  0
 13 14  1  0  0  0  0
 15 13  1  0  0  0  0
 16 15  1  0  0  0  0
 17 19  1  0  0  0  0
 17 15  2  0  0  0  0
 18 17  1  0  0  0  0
 19  9  2  0  0  0  0
 20 19  1  0  0  0  0
 21 22  1  0  0  0  0
 21 23  1  0  0  0  0
 24 21  1  0  0  0  0
 26 25  2  0  0  0  0
 26 28  1  0  0  0  0
 27 26  1  0  0  0  0
 28 30  2  0  0  0  0
 29 28  1  0  0  0  0
 30 31  1  0  0  0  0
 30 32  1  0  0  0  0
 32 33  2  0  0  0  0
 33 34  1  0  0  0  0
 33 35  1  0  0  0  0
 35 36  1  0  0  0  0
 37 38  1  0  0  0  0
 37 35  2  0  0  0  0
 39 25  1  1  0  0  0
 39 10  1  0  0  0  0
 39 32  1  0  0  0  0
M  END
