1,2,4
 OpenBabel05122313063D

 29 30  0  0  0  0  0  0  0  0999 V2000
    0.0003    2.1747   -1.0359 S   0  0  0  0  0  0  0  0  0  0  0  0
   -2.0206    0.0616    0.0825 N   0  0  0  0  0  2  0  0  0  0  0  0
   -2.7714    1.1256    0.4585 N   0  0  0  0  0  0  0  0  0  0  0  0
    2.0205    0.0615    0.0826 N   0  0  0  0  0  2  0  0  0  0  0  0
    2.7713    1.1254    0.4590 N   0  0  0  0  0  0  0  0  0  0  0  0
   -5.7493   -1.4889   -0.3265 Br  0  0  0  0  0  0  0  0  0  0  0  0
    5.7493   -1.4888   -0.3267 Br  0  0  0  0  0  0  0  0  0  0  0  0
   -2.8614   -0.9444   -0.2224 C   0  0  0  0  0  3  0  0  0  0  0  0
   -2.4731   -1.9238   -0.5207 H   0  0  0  0  0  0  0  0  0  0  0  0
   -4.1923   -0.5027   -0.0468 C   0  0  0  0  0  0  0  0  0  0  0  0
   -4.1000    0.8221    0.3879 C   0  0  0  0  0  0  0  0  0  0  0  0
   -4.8751    1.5467    0.6588 H   0  0  0  0  0  0  0  0  0  0  0  0
   -2.1461    2.3791    0.8435 C   0  0  0  0  0  0  0  0  0  0  0  0
   -1.4389    2.1845    1.6768 H   0  0  0  0  0  0  0  0  0  0  0  0
   -2.9500    3.0356    1.2303 H   0  0  0  0  0  0  0  0  0  0  0  0
   -1.4551    3.0750   -0.3298 C   0  0  0  0  0  0  0  0  0  0  0  0
   -1.1089    4.0852   -0.0360 H   0  0  0  0  0  0  0  0  0  0  0  0
   -2.1561    3.1906   -1.1805 H   0  0  0  0  0  0  0  0  0  0  0  0
    1.4551    3.0751   -0.3285 C   0  0  0  0  0  0  0  0  0  0  0  0
    2.1564    3.1916   -1.1789 H   0  0  0  0  0  0  0  0  0  0  0  0
    1.1084    4.0850   -0.0341 H   0  0  0  0  0  0  0  0  0  0  0  0
    2.1458    2.3786    0.8445 C   0  0  0  0  0  0  0  0  0  0  0  0
    2.9497    3.0349    1.2318 H   0  0  0  0  0  0  0  0  0  0  0  0
    1.4385    2.1836    1.6776 H   0  0  0  0  0  0  0  0  0  0  0  0
    4.1000    0.8219    0.3884 C   0  0  0  0  0  3  0  0  0  0  0  0
    4.8750    1.5465    0.6596 H   0  0  0  0  0  0  0  0  0  0  0  0
    4.1922   -0.5027   -0.0468 C   0  0  0  0  0  0  0  0  0  0  0  0
    2.8614   -0.9444   -0.2226 C   0  0  0  0  0  0  0  0  0  0  0  0
    2.4732   -1.9238   -0.5213 H   0  0  0  0  0  0  0  0  0  0  0  0
  1 16  1  0  0  0  0
  1 19  1  0  0  0  0
  2  3  1  0  0  0  0
  3 13  1  0  0  0  0
  4  5  1  0  0  0  0
  5 22  1  0  0  0  0
  6 10  1  0  0  0  0
  7 27  1  0  0  0  0
  8 10  1  0  0  0  0
  8  2  1  0  0  0  0
  9  8  1  0  0  0  0
 10 11  2  0  0  0  0
 11  3  1  0  0  0  0
 11 12  1  0  0  0  0
 13 15  1  0  0  0  0
 13 14  1  0  0  0  0
 16 17  1  0  0  0  0
 16 13  1  0  0  0  0
 18 16  1  0  0  0  0
 19 21  1  0  0  0  0
 19 22  1  0  0  0  0
 20 19  1  0  0  0  0
 22 23  1  0  0  0  0
 22 24  1  0  0  0  0
 25  5  1  0  0  0  0
 25 26  1  0  0  0  0
 27 25  1  0  0  0  0
 28 27  2  0  0  0  0
 28  4  1  0  0  0  0
 29 28  1  0  0  0  0
M  END
