1,2,7
 OpenBabel05122313063D

 39 40  0  0  1  0  0  0  0  0999 V2000
   -1.7495   -0.8657   -0.0813 S   0  0  0  0  0  1  0  0  0  0  0  0
    0.0402    1.8190   -0.5692 N   0  0  0  0  0  2  0  0  0  0  0  0
   -2.3242    1.8609    0.1030 C   0  0  0  0  0  0  0  0  0  0  0  0
   -3.1072    2.5871    0.3646 H   0  0  0  0  0  0  0  0  0  0  0  0
   -4.5083   -0.8683    1.2908 C   0  0  0  0  0  0  0  0  0  0  0  0
   -3.7089   -1.4903    1.7204 H   0  0  0  0  0  0  0  0  0  0  0  0
    2.3854    0.4851   -0.7248 N   0  0  0  0  0  2  0  0  0  0  0  0
   -1.0826    2.4651   -0.2609 C   0  0  2  0  0  3  0  0  0  0  0  0
   -2.7265    0.5276    0.1663 C   0  0  0  0  0  0  0  0  0  0  0  0
    3.2709    0.6029    0.3432 C   0  0  0  0  0  0  0  0  0  0  0  0
   -4.1548    0.2257    0.4674 C   0  0  0  0  0  0  0  0  0  0  0  0
    1.2209    2.5871   -1.0233 C   0  0  0  0  0  0  0  0  0  0  0  0
    1.6835    3.1024   -0.1510 H   0  0  0  0  0  0  0  0  0  0  0  0
    0.9197    3.3656   -1.7557 H   0  0  0  0  0  0  0  0  0  0  0  0
    4.1070   -0.2249    2.5130 C   0  0  0  0  0  0  0  0  0  0  0  0
    3.9803   -0.9148    3.3622 H   0  0  0  0  0  0  0  0  0  0  0  0
   -6.8701   -0.3414    1.0374 C   0  0  0  0  0  0  0  0  0  0  0  0
   -7.9252   -0.5613    1.2599 H   0  0  0  0  0  0  0  0  0  0  0  0
    2.2261    1.6102   -1.6293 C   0  0  0  0  0  0  0  0  0  0  0  0
    1.8336    1.2392   -2.6011 H   0  0  0  0  0  0  0  0  0  0  0  0
    3.1811    2.1313   -1.8510 H   0  0  0  0  0  0  0  0  0  0  0  0
   -5.8516   -1.1448    1.5751 C   0  0  0  0  0  0  0  0  0  0  0  0
   -6.1051   -1.9932    2.2288 H   0  0  0  0  0  0  0  0  0  0  0  0
    3.1705   -0.2625    1.4747 C   0  0  0  0  0  0  0  0  0  0  0  0
    2.3295   -0.9683    1.5470 H   0  0  0  0  0  0  0  0  0  0  0  0
    5.1818    0.6799    2.4926 C   0  0  0  0  0  0  0  0  0  0  0  0
    5.9123    0.7104    3.3142 H   0  0  0  0  0  0  0  0  0  0  0  0
   -5.1904    1.0245   -0.0710 C   0  0  0  0  0  0  0  0  0  0  0  0
   -4.9347    1.8577   -0.7424 H   0  0  0  0  0  0  0  0  0  0  0  0
   -6.5336    0.7427    0.2109 C   0  0  0  0  0  0  0  0  0  0  0  0
   -7.3251    1.3697   -0.2272 H   0  0  0  0  0  0  0  0  0  0  0  0
   -1.0764    3.9798   -0.3025 C   0  0  0  0  0  0  0  0  0  0  0  0
   -0.2470    4.3965    0.3041 H   0  0  0  0  0  0  0  0  0  0  0  0
   -2.0287    4.3872    0.0797 H   0  0  0  0  0  0  0  0  0  0  0  0
   -0.9358    4.3554   -1.3377 H   0  0  0  0  0  0  0  0  0  0  0  0
    4.3588    1.5271    0.3517 C   0  0  0  0  0  0  0  0  0  0  0  0
    4.4946    2.2314   -0.4805 H   0  0  0  0  0  0  0  0  0  0  0  0
    5.2882    1.5534    1.3996 C   0  0  0  0  0  0  0  0  0  0  0  0
    6.1134    2.2823    1.3565 H   0  0  0  0  0  0  0  0  0  0  0  0
  1  9  1  0  0  0  0
  3  9  2  0  0  0  0
  3  4  1  0  0  0  0
  5 22  1  0  0  0  0
  5  6  1  0  0  0  0
  7 10  1  0  0  0  0
  8  2  1  6  0  0  0
  8  3  1  0  0  0  0
  9 11  1  0  0  0  0
 10 36  2  0  0  0  0
 10 24  1  0  0  0  0
 11  5  2  0  0  0  0
 12  2  1  0  0  0  0
 12 13  1  0  0  0  0
 14 12  1  0  0  0  0
 15 16  1  0  0  0  0
 17 18  1  0  0  0  0
 17 22  2  0  0  0  0
 19 12  1  0  0  0  0
 19  7  1  0  0  0  0
 20 19  1  0  0  0  0
 21 19  1  0  0  0  0
 22 23  1  0  0  0  0
 24 25  1  0  0  0  0
 24 15  2  0  0  0  0
 26 15  1  0  0  0  0
 26 27  1  0  0  0  0
 28 30  2  0  0  0  0
 28 11  1  0  0  0  0
 29 28  1  0  0  0  0
 30 17  1  0  0  0  0
 31 30  1  0  0  0  0
 32  8  1  0  0  0  0
 32 34  1  0  0  0  0
 32 33  1  0  0  0  0
 35 32  1  0  0  0  0
 36 38  1  0  0  0  0
 37 36  1  0  0  0  0
 38 26  2  0  0  0  0
 39 38  1  0  0  0  0
M  END
