1,3,4
 OpenBabel05122313063D

 24 25  0  0  1  0  0  0  0  0999 V2000
    0.6432   -0.5104   -2.2074 S   0  0  0  0  0  1  0  0  0  0  0  0
    3.0431   -0.2047    2.4779 O   0  0  0  0  0  0  0  0  0  0  0  0
    1.7832   -0.2551    0.4871 N   0  0  0  0  0  2  0  0  0  0  0  0
   -0.3396    0.6172    1.6974 N   0  0  0  0  0  2  0  0  0  0  0  0
    2.2862   -0.9785   -1.7526 C   0  0  0  0  0  0  0  0  0  0  0  0
    3.1714   -1.5154   -2.7075 C   0  0  0  0  0  0  0  0  0  0  0  0
    2.8201   -1.6488   -3.7422 H   0  0  0  0  0  0  0  0  0  0  0  0
    4.4768   -1.8747   -2.3459 C   0  0  0  0  0  0  0  0  0  0  0  0
    5.1563   -2.2944   -3.1034 H   0  0  0  0  0  0  0  0  0  0  0  0
    4.9102   -1.6985   -1.0207 C   0  0  0  0  0  0  0  0  0  0  0  0
    5.9343   -1.9796   -0.7315 H   0  0  0  0  0  0  0  0  0  0  0  0
    4.0474   -1.1658   -0.0538 C   0  0  0  0  0  0  0  0  0  0  0  0
    4.3662   -1.0182    0.9845 H   0  0  0  0  0  0  0  0  0  0  0  0
    2.7226   -0.8013   -0.4036 C   0  0  0  0  0  0  0  0  0  0  0  0
    2.0059   -0.0263    1.8169 C   0  0  0  0  0  0  0  0  0  0  0  0
    0.7643    0.5045    2.4770 C   0  0  2  0  0  3  0  0  0  0  0  0
    0.7401    0.8386    3.8380 C   0  0  0  0  0  0  0  0  0  0  0  0
    1.6764    0.7180    4.4017 H   0  0  0  0  0  0  0  0  0  0  0  0
   -0.4573    1.2942    4.4013 C   0  0  0  0  0  0  0  0  0  0  0  0
   -0.5089    1.5638    5.4670 H   0  0  0  0  0  0  0  0  0  0  0  0
   -1.5962    1.3994    3.5846 C   0  0  0  0  0  0  0  0  0  0  0  0
   -2.5591    1.7474    3.9844 H   0  0  0  0  0  0  0  0  0  0  0  0
   -1.4980    1.0514    2.2312 C   0  0  0  0  0  0  0  0  0  0  0  0
   -2.3578    1.1124    1.5476 H   0  0  0  0  0  0  0  0  0  0  0  0
  1  5  1  0  0  0  0
  3 15  1  0  0  0  0
  4 23  1  0  0  0  0
  4 16  1  0  0  0  0
  5 14  1  0  0  0  0
  6  8  1  0  0  0  0
  6  5  2  0  0  0  0
  7  6  1  0  0  0  0
  8 10  2  0  0  0  0
  9  8  1  0  0  0  0
 10 11  1  0  0  0  0
 10 12  1  0  0  0  0
 12 13  1  0  0  0  0
 14 12  2  0  0  0  0
 14  3  1  0  0  0  0
 15  2  2  0  0  0  0
 16 15  1  1  0  0  0
 16 17  1  0  0  0  0
 17 19  2  0  0  0  0
 17 18  1  0  0  0  0
 19 20  1  0  0  0  0
 21 22  1  0  0  0  0
 21 19  1  0  0  0  0
 23 21  2  0  0  0  0
 24 23  1  0  0  0  0
M  END
