1,2,17
 OpenBabel05122313063D

 22 22  0  0  1  0  0  0  0  0999 V2000
   -2.7547   -0.9614   -0.2834 S   0  0  0  0  0  1  0  0  0  0  0  0
    1.5706   -0.4453   -0.0667 N   0  0  0  0  0  2  0  0  0  0  0  0
    2.6342   -1.2590   -0.1596 C   0  0  0  0  0  3  0  0  0  0  0  0
    2.4021   -2.3335   -0.2151 H   0  0  0  0  0  0  0  0  0  0  0  0
    3.9448   -0.7645   -0.1876 C   0  0  0  0  0  0  0  0  0  0  0  0
    4.7917   -1.4605   -0.2590 H   0  0  0  0  0  0  0  0  0  0  0  0
    4.1355    0.6253   -0.1236 C   0  0  0  0  0  0  0  0  0  0  0  0
    5.1505    1.0500   -0.1417 H   0  0  0  0  0  0  0  0  0  0  0  0
    3.0249    1.4713   -0.0430 C   0  0  0  0  0  0  0  0  0  0  0  0
    3.1479    2.5618   -0.0041 H   0  0  0  0  0  0  0  0  0  0  0  0
    1.7294    0.9084   -0.0184 C   0  0  0  0  0  0  0  0  0  0  0  0
    0.5006    1.6908    0.0368 C   0  0  1  0  0  3  0  0  0  0  0  0
    0.5136    3.1845    0.1254 C   0  0  0  0  0  0  0  0  0  0  0  0
    1.0099    3.6359   -0.7596 H   0  0  0  0  0  0  0  0  0  0  0  0
    1.0665    3.5285    1.0243 H   0  0  0  0  0  0  0  0  0  0  0  0
   -0.5267    3.5505    0.1767 H   0  0  0  0  0  0  0  0  0  0  0  0
   -0.6119    0.9723   -0.0179 N   0  0  0  0  0  2  0  0  0  0  0  0
   -1.7873    1.5955    0.0069 N   0  0  0  0  0  2  0  0  0  0  0  0
   -2.8358    0.7608   -0.0965 C   0  0  1  0  0  3  0  0  0  0  0  0
   -4.0537    1.3511   -0.0863 N   0  0  0  0  0  0  0  0  0  0  0  0
   -4.1093    2.3672   -0.0182 H   0  0  0  0  0  0  0  0  0  0  0  0
   -4.8982    0.7871   -0.1439 H   0  0  0  0  0  0  0  0  0  0  0  0
  2 11  1  0  0  0  0
  3  2  1  0  0  0  0
  4  3  1  0  0  0  0
  5  3  1  0  0  0  0
  5  7  2  0  0  0  0
  6  5  1  0  0  0  0
  7  9  1  0  0  0  0
  8  7  1  0  0  0  0
  9 11  2  0  0  0  0
  9 10  1  0  0  0  0
 11 12  1  0  0  0  0
 12 17  1  6  0  0  0
 12 13  1  0  0  0  0
 13 16  1  0  0  0  0
 13 15  1  0  0  0  0
 14 13  1  0  0  0  0
 17 18  1  0  0  0  0
 19  1  1  6  0  0  0
 19 20  1  0  0  0  0
 19 18  1  0  0  0  0
 20 21  1  0  0  0  0
 22 20  1  0  0  0  0
M  END
