1,2,4
 OpenBabel05122313063D

 33 33  0  0  0  0  0  0  0  0999 V2000
   -0.6905   -2.8520   -0.0833 S   0  0  0  0  0  0  0  0  0  0  0  0
    2.2632   -2.4960    0.2990 N   0  0  0  0  0  0  0  0  0  0  0  0
    2.2750   -2.5959    1.3348 H   0  0  0  0  0  0  0  0  0  0  0  0
    2.4471    0.3719    0.2675 N   0  0  0  0  0  0  0  0  0  0  0  0
    3.4170    3.1402    0.1732 O   0  0  0  0  0  0  0  0  0  0  0  0
   -1.8084   -3.1029    1.3407 C   0  0  0  0  0  0  0  0  0  0  0  0
   -2.2049   -4.1364    1.3203 H   0  0  0  0  0  0  0  0  0  0  0  0
   -2.6373   -2.3843    1.1980 H   0  0  0  0  0  0  0  0  0  0  0  0
   -1.2637   -2.8766    2.2771 H   0  0  0  0  0  0  0  0  0  0  0  0
    0.5438   -4.1994    0.2753 C   0  0  0  0  0  0  0  0  0  0  0  0
    0.6121   -4.3095    1.3780 H   0  0  0  0  0  0  0  0  0  0  0  0
    0.1783   -5.1478   -0.1652 H   0  0  0  0  0  0  0  0  0  0  0  0
    1.8854   -3.7807   -0.3115 C   0  0  0  0  0  0  0  0  0  0  0  0
    2.6541   -4.5637   -0.1143 H   0  0  0  0  0  0  0  0  0  0  0  0
    1.8081   -3.6261   -1.4079 H   0  0  0  0  0  0  0  0  0  0  0  0
    3.5043   -1.8536   -0.1454 C   0  0  0  0  0  0  0  0  0  0  0  0
    3.4373   -1.7102   -1.2436 H   0  0  0  0  0  0  0  0  0  0  0  0
    4.4021   -2.4776    0.0743 H   0  0  0  0  0  0  0  0  0  0  0  0
    3.6059   -0.5218    0.5891 C   0  0  0  0  0  0  0  0  0  0  0  0
    3.5795   -0.7094    1.6823 H   0  0  0  0  0  0  0  0  0  0  0  0
    4.5755   -0.0332    0.3575 H   0  0  0  0  0  0  0  0  0  0  0  0
    2.6979    1.1180   -1.0064 C   0  0  0  0  0  0  0  0  0  0  0  0
    1.7349    1.5562   -1.3145 H   0  0  0  0  0  0  0  0  0  0  0  0
    2.9737    0.3962   -1.7967 H   0  0  0  0  0  0  0  0  0  0  0  0
    3.7382    2.2283   -0.8653 C   0  0  0  0  0  0  0  0  0  0  0  0
    4.7661    1.8126   -0.7023 H   0  0  0  0  0  0  0  0  0  0  0  0
    3.7656    2.8079   -1.8098 H   0  0  0  0  0  0  0  0  0  0  0  0
    2.2278    1.3761    1.3538 C   0  0  0  0  0  0  0  0  0  0  0  0
    2.1190    0.8296    2.3102 H   0  0  0  0  0  0  0  0  0  0  0  0
    1.2571    1.8600    1.1434 H   0  0  0  0  0  0  0  0  0  0  0  0
    3.3081    2.4515    1.4085 C   0  0  0  0  0  0  0  0  0  0  0  0
    3.0377    3.2019    2.1788 H   0  0  0  0  0  0  0  0  0  0  0  0
    4.2979    2.0167    1.7020 H   0  0  0  0  0  0  0  0  0  0  0  0
  1 10  1  0  0  0  0
  1  6  1  0  0  0  0
  2  3  1  0  0  0  0
  4 19  1  0  0  0  0
  4 28  1  0  0  0  0
  5 31  1  0  0  0  0
  6  9  1  0  0  0  0
  7  6  1  0  0  0  0
  8  6  1  0  0  0  0
 10 11  1  0  0  0  0
 12 10  1  0  0  0  0
 13 14  1  0  0  0  0
 13 10  1  0  0  0  0
 13  2  1  0  0  0  0
 15 13  1  0  0  0  0
 16 18  1  0  0  0  0
 16  2  1  0  0  0  0
 16 19  1  0  0  0  0
 17 16  1  0  0  0  0
 19 20  1  0  0  0  0
 21 19  1  0  0  0  0
 22 25  1  0  0  0  0
 22  4  1  0  0  0  0
 23 22  1  0  0  0  0
 24 22  1  0  0  0  0
 25 26  1  0  0  0  0
 25  5  1  0  0  0  0
 27 25  1  0  0  0  0
 28 31  1  0  0  0  0
 28 29  1  0  0  0  0
 30 28  1  0  0  0  0
 31 33  1  0  0  0  0
 31 32  1  0  0  0  0
M  END
