1,2,4
 OpenBabel05122313063D

 46 47  0  0  0  0  0  0  0  0999 V2000
    1.8783   -0.5353   -0.5492 S   0  0  0  0  0  0  0  0  0  0  0  0
    0.0515   -3.2360   -0.2745 N   0  0  0  0  0  0  0  0  0  0  0  0
    0.4237   -3.3698    0.6848 H   0  0  0  0  0  0  0  0  0  0  0  0
   -2.4385   -1.7961    0.2923 N   0  0  0  0  0  0  0  0  0  0  0  0
   -5.3128   -1.2797    0.6375 O   0  0  0  0  0  0  0  0  0  0  0  0
   -3.0301   -1.0895    1.4699 C   0  0  0  0  0  0  0  0  0  0  0  0
   -3.0282   -0.0120    1.2266 H   0  0  0  0  0  0  0  0  0  0  0  0
   -2.3619   -1.2550    2.3368 H   0  0  0  0  0  0  0  0  0  0  0  0
   -4.4710   -1.5036    1.7575 C   0  0  0  0  0  0  0  0  0  0  0  0
   -4.5320   -2.5727    2.0850 H   0  0  0  0  0  0  0  0  0  0  0  0
   -4.8655   -0.8836    2.5878 H   0  0  0  0  0  0  0  0  0  0  0  0
   -4.8332   -1.9934   -0.4897 C   0  0  0  0  0  0  0  0  0  0  0  0
   -5.4885   -1.7285   -1.3441 H   0  0  0  0  0  0  0  0  0  0  0  0
   -4.9432   -3.0960   -0.3241 H   0  0  0  0  0  0  0  0  0  0  0  0
   -3.3936   -1.6199   -0.8425 C   0  0  0  0  0  0  0  0  0  0  0  0
   -3.0253   -2.1758   -1.7242 H   0  0  0  0  0  0  0  0  0  0  0  0
   -3.3607   -0.5507   -1.1119 H   0  0  0  0  0  0  0  0  0  0  0  0
   -2.2312   -3.2397    0.6077 C   0  0  0  0  0  0  0  0  0  0  0  0
   -3.1878   -3.8032    0.6066 H   0  0  0  0  0  0  0  0  0  0  0  0
   -1.8068   -3.2880    1.6307 H   0  0  0  0  0  0  0  0  0  0  0  0
   -1.2680   -3.8821   -0.3697 C   0  0  0  0  0  0  0  0  0  0  0  0
   -1.1982   -4.9767   -0.1667 H   0  0  0  0  0  0  0  0  0  0  0  0
   -1.6190   -3.7611   -1.4155 H   0  0  0  0  0  0  0  0  0  0  0  0
    0.9835   -3.7850   -1.2747 C   0  0  0  0  0  0  0  0  0  0  0  0
    0.5701   -3.5244   -2.2717 H   0  0  0  0  0  0  0  0  0  0  0  0
    0.9900   -4.8970   -1.1894 H   0  0  0  0  0  0  0  0  0  0  0  0
    2.4134   -3.2644   -1.1540 C   0  0  0  0  0  0  0  0  0  0  0  0
    2.7869   -3.3985   -0.1146 H   0  0  0  0  0  0  0  0  0  0  0  0
    3.0558   -3.9170   -1.7836 H   0  0  0  0  0  0  0  0  0  0  0  0
    2.6198   -1.8261   -1.6185 C   0  0  0  0  0  0  0  0  0  0  0  0
    2.1331   -1.6540   -2.5995 H   0  0  0  0  0  0  0  0  0  0  0  0
    3.6965   -1.5758   -1.7043 H   0  0  0  0  0  0  0  0  0  0  0  0
    2.9519   -0.7225    0.9643 C   0  0  0  0  0  0  0  0  0  0  0  0
    2.5018    0.0076    1.6650 H   0  0  0  0  0  0  0  0  0  0  0  0
    2.8018   -1.7250    1.4057 H   0  0  0  0  0  0  0  0  0  0  0  0
    4.3828   -0.4229    0.6380 C   0  0  0  0  0  0  0  0  0  0  0  0
    5.3644   -1.4339    0.6920 C   0  0  0  0  0  0  0  0  0  0  0  0
    5.0730   -2.4495    1.0047 H   0  0  0  0  0  0  0  0  0  0  0  0
    6.7011   -1.1580    0.3644 C   0  0  0  0  0  0  0  0  0  0  0  0
    7.4543   -1.9590    0.4176 H   0  0  0  0  0  0  0  0  0  0  0  0
    7.0758    0.1360   -0.0289 C   0  0  0  0  0  0  0  0  0  0  0  0
    8.1232    0.3546   -0.2870 H   0  0  0  0  0  0  0  0  0  0  0  0
    6.1059    1.1512   -0.0912 C   0  0  0  0  0  0  0  0  0  0  0  0
    6.3926    2.1685   -0.3990 H   0  0  0  0  0  0  0  0  0  0  0  0
    4.7724    0.8743    0.2370 C   0  0  0  0  0  0  0  0  0  0  0  0
    4.0110    1.6668    0.1789 H   0  0  0  0  0  0  0  0  0  0  0  0
  1 33  1  0  0  0  0
  2  3  1  0  0  0  0
  4 18  1  0  0  0  0
  4  6  1  0  0  0  0
  5  9  1  0  0  0  0
  6  9  1  0  0  0  0
  6  8  1  0  0  0  0
  7  6  1  0  0  0  0
  9 10  1  0  0  0  0
  9 11  1  0  0  0  0
 12 14  1  0  0  0  0
 12  5  1  0  0  0  0
 13 12  1  0  0  0  0
 15 12  1  0  0  0  0
 15  4  1  0  0  0  0
 16 15  1  0  0  0  0
 17 15  1  0  0  0  0
 18 20  1  0  0  0  0
 19 18  1  0  0  0  0
 21  2  1  0  0  0  0
 21 22  1  0  0  0  0
 21 18  1  0  0  0  0
 23 21  1  0  0  0  0
 24 26  1  0  0  0  0
 24 27  1  0  0  0  0
 24  2  1  0  0  0  0
 25 24  1  0  0  0  0
 27 28  1  0  0  0  0
 29 27  1  0  0  0  0
 30 27  1  0  0  0  0
 30  1  1  0  0  0  0
 31 30  1  0  0  0  0
 32 30  1  0  0  0  0
 33 35  1  0  0  0  0
 33 34  1  0  0  0  0
 36 37  1  0  0  0  0
 36 33  1  0  0  0  0
 37 38  1  0  0  0  0
 39 40  1  0  0  0  0
 39 37  2  0  0  0  0
 41 39  1  0  0  0  0
 42 41  1  0  0  0  0
 43 41  2  0  0  0  0
 43 45  1  0  0  0  0
 44 43  1  0  0  0  0
 45 36  2  0  0  0  0
 46 45  1  0  0  0  0
M  END
