1,2,4
 OpenBabel05122313063D

 39 40  0  0  0  0  0  0  0  0999 V2000
    1.6258   -1.7719   -0.6906 S   0  0  0  0  0  0  0  0  0  0  0  0
   -0.7383   -3.3187    0.3081 N   0  0  0  0  0  0  0  0  0  0  0  0
   -0.4970   -3.3896    1.3178 H   0  0  0  0  0  0  0  0  0  0  0  0
   -2.6098   -1.1803    0.6130 N   0  0  0  0  0  0  0  0  0  0  0  0
    3.1222   -1.1753    0.1342 C   0  0  0  0  0  0  0  0  0  0  0  0
    3.0984   -0.6260    1.4273 C   0  0  0  0  0  0  0  0  0  0  0  0
    2.1605   -0.6461    2.0026 H   0  0  0  0  0  0  0  0  0  0  0  0
    4.2747   -0.0746    1.9565 C   0  0  0  0  0  0  0  0  0  0  0  0
    4.2590    0.3613    2.9673 H   0  0  0  0  0  0  0  0  0  0  0  0
    5.4610   -0.0693    1.2041 C   0  0  0  0  0  0  0  0  0  0  0  0
    6.3784    0.3714    1.6239 H   0  0  0  0  0  0  0  0  0  0  0  0
    5.4750   -0.6190   -0.0877 C   0  0  0  0  0  0  0  0  0  0  0  0
    6.3987   -0.6052   -0.6861 H   0  0  0  0  0  0  0  0  0  0  0  0
    4.3025   -1.1659   -0.6302 C   0  0  0  0  0  0  0  0  0  0  0  0
    4.2888   -1.5626   -1.6567 H   0  0  0  0  0  0  0  0  0  0  0  0
    1.6258   -3.5623   -0.1810 C   0  0  0  0  0  0  0  0  0  0  0  0
    2.4086   -4.0985   -0.7520 H   0  0  0  0  0  0  0  0  0  0  0  0
    1.8572   -3.6107    0.9029 H   0  0  0  0  0  0  0  0  0  0  0  0
    0.2296   -4.1002   -0.4785 C   0  0  0  0  0  0  0  0  0  0  0  0
   -0.0201   -3.9721   -1.5525 H   0  0  0  0  0  0  0  0  0  0  0  0
    0.1728   -5.1847   -0.2268 H   0  0  0  0  0  0  0  0  0  0  0  0
   -2.1699   -3.5898    0.1284 C   0  0  0  0  0  0  0  0  0  0  0  0
   -2.4396   -4.6326    0.4168 H   0  0  0  0  0  0  0  0  0  0  0  0
   -2.4107   -3.4455   -0.9451 H   0  0  0  0  0  0  0  0  0  0  0  0
   -2.9201   -2.5947    1.0066 C   0  0  0  0  0  0  0  0  0  0  0  0
   -4.0128   -2.7918    0.9655 H   0  0  0  0  0  0  0  0  0  0  0  0
   -2.5899   -2.7209    2.0581 H   0  0  0  0  0  0  0  0  0  0  0  0
   -3.5602   -0.7387   -0.4619 C   0  0  0  0  0  0  0  0  0  0  0  0
   -3.6589   -1.5293   -1.2253 H   0  0  0  0  0  0  0  0  0  0  0  0
   -3.1015    0.1268   -0.9659 H   0  0  0  0  0  0  0  0  0  0  0  0
   -4.8757   -0.3460    0.2496 C   0  0  0  0  0  0  0  0  0  0  0  0
   -5.2864    0.5732   -0.2111 H   0  0  0  0  0  0  0  0  0  0  0  0
   -5.6537   -1.1293    0.1506 H   0  0  0  0  0  0  0  0  0  0  0  0
   -4.4807   -0.1278    1.7339 C   0  0  0  0  0  0  0  0  0  0  0  0
   -4.8027    0.8569    2.1249 H   0  0  0  0  0  0  0  0  0  0  0  0
   -4.9383   -0.8972    2.3886 H   0  0  0  0  0  0  0  0  0  0  0  0
   -2.9495   -0.2465    1.7314 C   0  0  0  0  0  0  0  0  0  0  0  0
   -2.4842    0.7233    1.4804 H   0  0  0  0  0  0  0  0  0  0  0  0
   -2.4830   -0.6034    2.6667 H   0  0  0  0  0  0  0  0  0  0  0  0
  1 16  1  0  0  0  0
  1  5  1  0  0  0  0
  2  3  1  0  0  0  0
  4 25  1  0  0  0  0
  4 37  1  0  0  0  0
  5  6  1  0  0  0  0
  6  8  2  0  0  0  0
  6  7  1  0  0  0  0
  8  9  1  0  0  0  0
 10 11  1  0  0  0  0
 10  8  1  0  0  0  0
 12 10  2  0  0  0  0
 13 12  1  0  0  0  0
 14 12  1  0  0  0  0
 14  5  2  0  0  0  0
 15 14  1  0  0  0  0
 16 18  1  0  0  0  0
 17 16  1  0  0  0  0
 19 21  1  0  0  0  0
 19 16  1  0  0  0  0
 19  2  1  0  0  0  0
 20 19  1  0  0  0  0
 22  2  1  0  0  0  0
 22 23  1  0  0  0  0
 22 25  1  0  0  0  0
 24 22  1  0  0  0  0
 25 27  1  0  0  0  0
 26 25  1  0  0  0  0
 28 31  1  0  0  0  0
 28  4  1  0  0  0  0
 29 28  1  0  0  0  0
 30 28  1  0  0  0  0
 31 34  1  0  0  0  0
 32 31  1  0  0  0  0
 33 31  1  0  0  0  0
 34 35  1  0  0  0  0
 34 36  1  0  0  0  0
 37 34  1  0  0  0  0
 37 39  1  0  0  0  0
 38 37  1  0  0  0  0
M  END
