1,2,3
 OpenBabel05122313063D

 22 22  0  0  1  0  0  0  0  0999 V2000
    1.2552   -2.0742   -1.5735 S   0  0  0  0  0  1  0  0  0  0  0  0
   -1.0225    1.6138   -0.1614 N   0  0  0  0  0  2  0  0  0  0  0  0
    1.2620    0.8199   -1.1567 N   0  0  0  0  0  2  0  0  0  0  0  0
    2.5110    0.3070   -1.3580 N   0  0  0  0  0  0  0  0  0  0  0  0
    3.2345    0.7331   -0.7525 H   0  0  0  0  0  0  0  0  0  0  0  0
    3.8687   -1.5482   -1.5363 N   0  0  0  0  0  0  0  0  0  0  0  0
    4.6836   -0.9338   -1.5190 H   0  0  0  0  0  0  0  0  0  0  0  0
    4.0062   -2.5576   -1.5265 H   0  0  0  0  0  0  0  0  0  0  0  0
    2.1820    2.9937   -1.1800 N   0  0  0  0  0  0  0  0  0  0  0  0
    2.9272    2.7450   -1.8335 H   0  0  0  0  0  0  0  0  0  0  0  0
    2.0197    3.9894   -1.0459 H   0  0  0  0  0  0  0  0  0  0  0  0
   -2.2589    1.9250    0.2475 C   0  0  0  0  0  3  0  0  0  0  0  0
   -2.8719    1.0686    0.5818 H   0  0  0  0  0  0  0  0  0  0  0  0
   -2.7388    3.2444    0.2344 C   0  0  0  0  0  0  0  0  0  0  0  0
   -3.7532    3.4637    0.5966 H   0  0  0  0  0  0  0  0  0  0  0  0
   -1.9038    4.2579   -0.2550 C   0  0  0  0  0  0  0  0  0  0  0  0
   -2.2523    5.3005   -0.3001 H   0  0  0  0  0  0  0  0  0  0  0  0
   -0.6167    3.9258   -0.7005 C   0  0  0  0  0  0  0  0  0  0  0  0
    0.0390    4.7019   -1.1224 H   0  0  0  0  0  0  0  0  0  0  0  0
   -0.2035    2.5835   -0.6259 C   0  0  0  0  0  0  0  0  0  0  0  0
    1.1419    2.1149   -1.0360 C   0  0  2  0  0  3  0  0  0  0  0  0
    2.5988   -1.0831   -1.4786 C   0  0  2  0  0  3  0  0  0  0  0  0
  2 12  1  0  0  0  0
  4  3  1  0  0  0  0
  4  5  1  0  0  0  0
  6  8  1  0  0  0  0
  6  7  1  0  0  0  0
  6 22  1  0  0  0  0
  9 11  1  0  0  0  0
  9 21  1  0  0  0  0
 10  9  1  0  0  0  0
 12 13  1  0  0  0  0
 14 12  1  0  0  0  0
 14 15  1  0  0  0  0
 16 14  2  0  0  0  0
 17 16  1  0  0  0  0
 18 20  2  0  0  0  0
 18 16  1  0  0  0  0
 19 18  1  0  0  0  0
 20  2  1  0  0  0  0
 21  3  1  1  0  0  0
 21 20  1  0  0  0  0
 22  1  1  6  0  0  0
 22  4  1  0  0  0  0
M  END
