1,2,5
 OpenBabel05122313063D

 30 30  0  0  1  0  0  0  0  0999 V2000
   -0.2813   -2.2945    0.0833 S   0  0  0  0  0  0  0  0  0  0  0  0
   -0.6595   -0.1705   -2.1879 N   0  0  0  0  0  0  0  0  0  0  0  0
   -1.5927   -0.2913   -2.6092 H   0  0  0  0  0  0  0  0  0  0  0  0
   -0.2687    0.6773   -2.6224 H   0  0  0  0  0  0  0  0  0  0  0  0
    1.2939    0.6889   -0.0259 N   0  0  0  0  0  2  0  0  0  0  0  0
    2.2911   -0.0716    0.5251 N   0  0  0  0  0  0  0  0  0  0  0  0
    0.2039   -1.3337   -2.5119 C   0  0  0  0  0  0  0  0  0  0  0  0
    0.1874   -1.5576   -3.6011 H   0  0  0  0  0  0  0  0  0  0  0  0
    1.2457   -1.0613   -2.2466 H   0  0  0  0  0  0  0  0  0  0  0  0
    1.9148    1.7025   -0.6867 C   0  0  2  0  0  3  0  0  0  0  0  0
    2.0110   -1.2385    1.3425 C   0  0  0  0  0  0  0  0  0  0  0  0
    1.3041   -0.9615    2.1508 H   0  0  0  0  0  0  0  0  0  0  0  0
    2.9605   -1.5165    1.8374 H   0  0  0  0  0  0  0  0  0  0  0  0
    1.5031   -2.4419    0.5509 C   0  0  0  0  0  0  0  0  0  0  0  0
    1.5773   -3.3573    1.1702 H   0  0  0  0  0  0  0  0  0  0  0  0
    2.1039   -2.5948   -0.3674 H   0  0  0  0  0  0  0  0  0  0  0  0
   -0.2379   -2.5655   -1.7399 C   0  0  0  0  0  0  0  0  0  0  0  0
    0.4081   -3.4410   -1.9482 H   0  0  0  0  0  0  0  0  0  0  0  0
   -1.2776   -2.8600   -1.9936 H   0  0  0  0  0  0  0  0  0  0  0  0
    3.5311    0.4260    0.2202 C   0  0  0  0  0  0  0  0  0  0  0  0
    4.8065   -0.1845    0.6973 C   0  0  0  0  0  0  0  0  0  0  0  0
    4.9234   -1.2366    0.3655 H   0  0  0  0  0  0  0  0  0  0  0  0
    4.8862   -0.1659    1.8044 H   0  0  0  0  0  0  0  0  0  0  0  0
    5.6616    0.3885    0.2961 H   0  0  0  0  0  0  0  0  0  0  0  0
    3.3130    1.5609   -0.5602 C   0  0  0  0  0  0  0  0  0  0  0  0
    4.0793    2.2240   -0.9738 H   0  0  0  0  0  0  0  0  0  0  0  0
    1.1997    2.8242   -1.3687 C   0  0  0  0  0  0  0  0  0  0  0  0
    0.7647    3.5281   -0.6308 H   0  0  0  0  0  0  0  0  0  0  0  0
    0.3639    2.4929   -2.0150 H   0  0  0  0  0  0  0  0  0  0  0  0
    1.9084    3.3934   -1.9973 H   0  0  0  0  0  0  0  0  0  0  0  0
  1 14  1  0  0  0  0
  3  2  1  0  0  0  0
  4  2  1  0  0  0  0
  5  6  1  0  0  0  0
  6 11  1  0  0  0  0
  7  9  1  0  0  0  0
  7  2  1  0  0  0  0
  7 17  1  0  0  0  0
  8  7  1  0  0  0  0
 10 27  1  1  0  0  0
 10 25  1  0  0  0  0
 10  5  1  0  0  0  0
 11 13  1  0  0  0  0
 11 12  1  0  0  0  0
 14 15  1  0  0  0  0
 14 11  1  0  0  0  0
 16 14  1  0  0  0  0
 17  1  1  0  0  0  0
 18 17  1  0  0  0  0
 19 17  1  0  0  0  0
 20  6  1  0  0  0  0
 20 21  1  0  0  0  0
 21 23  1  0  0  0  0
 22 21  1  0  0  0  0
 24 21  1  0  0  0  0
 25 20  2  0  0  0  0
 26 25  1  0  0  0  0
 27 28  1  0  0  0  0
 29 27  1  0  0  0  0
 30 27  1  0  0  0  0
M  END
