1,2,3
 OpenBabel05122313063D

 34 35  0  0  0  0  0  0  0  0999 V2000
    1.2344   -0.2801    2.3350 S   0  0  0  0  0  1  0  0  0  0  0  0
    1.4938    1.4415   -0.2416 N   0  0  0  0  0  2  0  0  0  0  0  0
   -0.9833    0.2099    0.0871 N   0  0  0  0  0  0  0  0  0  0  0  0
   -3.8496    0.8862   -0.8008 N   0  0  0  0  0  0  0  0  0  0  0  0
    2.6897    2.0285   -0.0122 C   0  0  0  0  0  3  0  0  0  0  0  0
    2.8460    3.4173    0.0048 C   0  0  0  0  0  0  0  0  0  0  0  0
    1.7206    4.2298   -0.2000 C   0  0  0  0  0  0  0  0  0  0  0  0
    0.4774    3.6193   -0.4073 C   0  0  0  0  0  0  0  0  0  0  0  0
    0.3957    2.2185   -0.4227 C   0  0  0  0  0  0  0  0  0  0  0  0
   -0.8898    1.4838   -0.6856 C   0  0  0  0  0  0  0  0  0  0  0  0
   -2.0033   -0.7050   -0.5182 C   0  0  0  0  0  0  0  0  0  0  0  0
   -3.4532   -0.3079   -0.3126 C   0  0  0  0  0  0  0  0  0  0  0  0
   -4.3410   -1.1791    0.3492 C   0  0  0  0  0  0  0  0  0  0  0  0
   -5.6826   -0.8011    0.4967 C   0  0  0  0  0  0  0  0  0  0  0  0
   -6.0922    0.4392   -0.0106 C   0  0  0  0  0  0  0  0  0  0  0  0
   -5.1321    1.2450   -0.6447 C   0  0  0  0  0  0  0  0  0  0  0  0
   -1.3234    0.4505    1.5293 C   0  0  0  0  0  0  0  0  0  0  0  0
   -0.1495    0.9235    2.3722 C   0  0  0  0  0  0  0  0  0  0  0  0
    3.5349    1.3481    0.1625 H   0  0  0  0  0  0  0  0  0  0  0  0
    3.8407    3.8488    0.1835 H   0  0  0  0  0  0  0  0  0  0  0  0
    1.8090    5.3263   -0.1865 H   0  0  0  0  0  0  0  0  0  0  0  0
   -0.4360    4.2149   -0.5474 H   0  0  0  0  0  0  0  0  0  0  0  0
   -0.9175    1.2082   -1.7615 H   0  0  0  0  0  0  0  0  0  0  0  0
   -1.7744    2.1277   -0.5080 H   0  0  0  0  0  0  0  0  0  0  0  0
   -1.7839   -0.7720   -1.6021 H   0  0  0  0  0  0  0  0  0  0  0  0
   -1.8346   -1.7088   -0.0883 H   0  0  0  0  0  0  0  0  0  0  0  0
   -3.9786   -2.1417    0.7405 H   0  0  0  0  0  0  0  0  0  0  0  0
   -6.3973   -1.4659    1.0053 H   0  0  0  0  0  0  0  0  0  0  0  0
   -7.1337    0.7808    0.0815 H   0  0  0  0  0  0  0  0  0  0  0  0
   -5.4168    2.2316   -1.0522 H   0  0  0  0  0  0  0  0  0  0  0  0
   -1.6701   -0.5208    1.9348 H   0  0  0  0  0  0  0  0  0  0  0  0
   -2.1750    1.1672    1.5791 H   0  0  0  0  0  0  0  0  0  0  0  0
   -0.4982    1.0167    3.4219 H   0  0  0  0  0  0  0  0  0  0  0  0
    0.1824    1.9388    2.0659 H   0  0  0  0  0  0  0  0  0  0  0  0
  1 18  1  0  0  0  0
  2  5  1  0  0  0  0
  3 17  1  0  0  0  0
  4 16  2  0  0  0  0
  4 12  1  0  0  0  0
  5  6  1  0  0  0  0
  5 19  1  0  0  0  0
  6 20  1  0  0  0  0
  7 21  1  0  0  0  0
  7  6  2  0  0  0  0
  8  7  1  0  0  0  0
  9  8  2  0  0  0  0
  9  2  1  0  0  0  0
 10 24  1  0  0  0  0
 10  9  1  0  0  0  0
 10  3  1  0  0  0  0
 11 12  1  0  0  0  0
 11 26  1  0  0  0  0
 11  3  1  0  0  0  0
 12 13  2  0  0  0  0
 13 14  1  0  0  0  0
 13 27  1  0  0  0  0
 14 28  1  0  0  0  0
 15 29  1  0  0  0  0
 15 14  2  0  0  0  0
 16 15  1  0  0  0  0
 17 32  1  0  0  0  0
 17 31  1  0  0  0  0
 17 18  1  0  0  0  0
 18 33  1  0  0  0  0
 22  8  1  0  0  0  0
 23 10  1  0  0  0  0
 25 11  1  0  0  0  0
 30 16  1  0  0  0  0
 34 18  1  0  0  0  0
M  END
