1,4,5
 OpenBabel05122313063D

 32 33  0  0  1  0  0  0  0  0999 V2000
   -1.5882   -0.0345   -1.1459 S   0  0  1  0  0  3  0  0  0  0  0  0
   -0.1638    3.6571   -0.6501 O   0  0  0  0  0  0  0  0  0  0  0  0
   -2.3026   -0.6984   -2.2866 O   0  0  0  0  0  1  0  0  0  0  0  0
    0.6804    1.5382   -0.3365 N   0  0  0  0  0  2  0  0  0  0  0  0
    2.4378   -0.3480    0.2494 N   0  0  0  0  0  2  0  0  0  0  0  0
    2.8717    0.9165    0.5082 C   0  0  2  0  0  3  0  0  0  0  0  0
    4.1706    1.1254    1.0013 C   0  0  0  0  0  0  0  0  0  0  0  0
    4.5098    2.1517    1.2039 H   0  0  0  0  0  0  0  0  0  0  0  0
    5.0099    0.0285    1.2240 C   0  0  0  0  0  0  0  0  0  0  0  0
    6.0300    0.1809    1.6074 H   0  0  0  0  0  0  0  0  0  0  0  0
    4.5357   -1.2651    0.9520 C   0  0  0  0  0  0  0  0  0  0  0  0
    5.1622   -2.1532    1.1148 H   0  0  0  0  0  0  0  0  0  0  0  0
    3.2366   -1.4163    0.4636 C   0  0  0  0  0  0  0  0  0  0  0  0
    2.7734   -2.3901    0.2282 H   0  0  0  0  0  0  0  0  0  0  0  0
    1.9050    2.0417    0.2529 C   0  0  0  0  0  0  0  0  0  0  0  0
    1.7066    2.5778    1.2131 H   0  0  0  0  0  0  0  0  0  0  0  0
    2.3768    2.8099   -0.4034 H   0  0  0  0  0  0  0  0  0  0  0  0
   -0.2505    2.4303   -0.7579 C   0  0  0  0  0  0  0  0  0  0  0  0
   -1.4558    1.7788   -1.4635 C   0  0  0  0  0  0  0  0  0  0  0  0
   -1.3227    1.8214   -2.5646 H   0  0  0  0  0  0  0  0  0  0  0  0
   -2.4105    2.2681   -1.1941 H   0  0  0  0  0  0  0  0  0  0  0  0
   -2.6638   -0.0695    0.3147 C   0  0  0  0  0  0  0  0  0  0  0  0
   -2.2182    0.4276    1.5483 C   0  0  0  0  0  0  0  0  0  0  0  0
   -1.1984    0.8290    1.6506 H   0  0  0  0  0  0  0  0  0  0  0  0
   -3.0992    0.3837    2.6381 C   0  0  0  0  0  0  0  0  0  0  0  0
   -2.7742    0.7707    3.6154 H   0  0  0  0  0  0  0  0  0  0  0  0
   -4.3853   -0.1639    2.4872 C   0  0  0  0  0  0  0  0  0  0  0  0
   -5.0667   -0.2035    3.3503 H   0  0  0  0  0  0  0  0  0  0  0  0
   -4.8008   -0.6694    1.2451 C   0  0  0  0  0  0  0  0  0  0  0  0
   -5.8047   -1.1056    1.1329 H   0  0  0  0  0  0  0  0  0  0  0  0
   -3.9357   -0.6254    0.1404 C   0  0  0  0  0  0  0  0  0  0  0  0
   -4.2193   -1.0151   -0.8488 H   0  0  0  0  0  0  0  0  0  0  0  0
  1  3  1  6  0  0  0
  1 22  1  0  0  0  0
  4 15  1  0  0  0  0
  5 13  1  0  0  0  0
  5  6  1  0  0  0  0
  6 15  1  1  0  0  0
  6  7  1  0  0  0  0
  7  8  1  0  0  0  0
  7  9  2  0  0  0  0
  9 10  1  0  0  0  0
 11 12  1  0  0  0  0
 11  9  1  0  0  0  0
 13 11  2  0  0  0  0
 14 13  1  0  0  0  0
 15 16  1  0  0  0  0
 17 15  1  0  0  0  0
 18  2  2  0  0  0  0
 18  4  1  0  0  0  0
 19 21  1  0  0  0  0
 19  1  1  0  0  0  0
 19 18  1  0  0  0  0
 20 19  1  0  0  0  0
 22 23  1  0  0  0  0
 23 24  1  0  0  0  0
 23 25  2  0  0  0  0
 25 26  1  0  0  0  0
 27 25  1  0  0  0  0
 27 28  1  0  0  0  0
 29 27  2  0  0  0  0
 30 29  1  0  0  0  0
 31 22  2  0  0  0  0
 31 29  1  0  0  0  0
 32 31  1  0  0  0  0
M  END
