1,2,6
 OpenBabel05122313063D

 44 46  0  0  0  0  0  0  0  0999 V2000
    2.1753   -0.1929    1.2018 S   0  0  0  0  0  0  0  0  0  0  0  0
    0.1913    1.6162    0.0141 N   0  0  0  0  0  2  0  0  0  0  0  0
   -0.8602    2.3012   -0.3725 N   0  0  0  0  0  0  0  0  0  0  0  0
   -2.0280    1.7768   -0.0828 C   0  0  0  0  0  0  0  0  0  0  0  0
    1.4782    2.0934   -0.2107 C   0  0  0  0  0  0  0  0  0  0  0  0
   -2.0994    0.4475    0.5630 N   0  0  0  0  0  0  0  0  0  0  0  0
   -2.7228    0.5220    1.3838 H   0  0  0  0  0  0  0  0  0  0  0  0
    2.5539    1.3330    0.3211 C   0  0  0  0  0  0  0  0  0  0  0  0
   -4.3387    1.9468    0.1798 O   0  0  0  0  0  0  0  0  0  0  0  0
   -3.3120    2.4591   -0.2793 C   0  0  0  0  0  0  0  0  0  0  0  0
    1.7738    3.2917   -0.9026 C   0  0  0  0  0  0  0  0  0  0  0  0
    0.9398    3.8753   -1.3149 H   0  0  0  0  0  0  0  0  0  0  0  0
    2.4732   -1.4795   -0.0506 C   0  0  0  0  0  0  0  0  0  0  0  0
    3.1009    3.7096   -1.0325 C   0  0  0  0  0  0  0  0  0  0  0  0
    3.3172    4.6462   -1.5687 H   0  0  0  0  0  0  0  0  0  0  0  0
    2.1091   -2.7891    0.3125 C   0  0  0  0  0  0  0  0  0  0  0  0
    1.5947   -2.9740    1.2692 H   0  0  0  0  0  0  0  0  0  0  0  0
    3.8813    1.7726    0.2065 C   0  0  0  0  0  0  0  0  0  0  0  0
    4.6905    1.1724    0.6490 H   0  0  0  0  0  0  0  0  0  0  0  0
    3.0598   -1.2011   -1.2940 C   0  0  0  0  0  0  0  0  0  0  0  0
    3.3291   -0.1716   -1.5685 H   0  0  0  0  0  0  0  0  0  0  0  0
   -3.3121    3.7700   -1.0371 C   0  0  0  0  0  0  0  0  0  0  0  0
   -4.2981    4.2538   -0.9175 H   0  0  0  0  0  0  0  0  0  0  0  0
   -3.1313    3.5757   -2.1150 H   0  0  0  0  0  0  0  0  0  0  0  0
   -2.5012    4.4396   -0.6920 H   0  0  0  0  0  0  0  0  0  0  0  0
    2.9389   -3.5731   -1.8408 C   0  0  0  0  0  0  0  0  0  0  0  0
    3.1209   -4.3971   -2.5468 H   0  0  0  0  0  0  0  0  0  0  0  0
    3.2903   -2.2601   -2.1872 C   0  0  0  0  0  0  0  0  0  0  0  0
    3.7474   -2.0483   -3.1657 H   0  0  0  0  0  0  0  0  0  0  0  0
    2.3454   -3.8312   -0.5937 C   0  0  0  0  0  0  0  0  0  0  0  0
    2.0511   -4.8558   -0.3211 H   0  0  0  0  0  0  0  0  0  0  0  0
    4.1606    2.9621   -0.4809 C   0  0  0  0  0  0  0  0  0  0  0  0
    5.1991    3.3085   -0.5813 H   0  0  0  0  0  0  0  0  0  0  0  0
   -2.6246   -0.6065   -0.2928 C   0  0  0  0  0  0  0  0  0  0  0  0
   -3.4813   -1.5729    0.2544 C   0  0  0  0  0  0  0  0  0  0  0  0
   -3.7654   -1.5141    1.3149 H   0  0  0  0  0  0  0  0  0  0  0  0
   -2.2323   -0.6756   -1.6398 C   0  0  0  0  0  0  0  0  0  0  0  0
   -1.5482    0.0813   -2.0508 H   0  0  0  0  0  0  0  0  0  0  0  0
   -2.7121   -1.7187   -2.4428 C   0  0  0  0  0  0  0  0  0  0  0  0
   -2.4051   -1.7738   -3.4979 H   0  0  0  0  0  0  0  0  0  0  0  0
   -3.9535   -2.6128   -0.5570 C   0  0  0  0  0  0  0  0  0  0  0  0
   -4.6262   -3.3699   -0.1275 H   0  0  0  0  0  0  0  0  0  0  0  0
   -3.5733   -2.6896   -1.9061 C   0  0  0  0  0  0  0  0  0  0  0  0
   -3.9472   -3.5073   -2.5398 H   0  0  0  0  0  0  0  0  0  0  0  0
  3  4  2  0  0  0  0
  3  2  1  0  0  0  0
  4  6  1  0  0  0  0
  5  2  1  0  0  0  0
  5  8  1  0  0  0  0
  6  7  1  0  0  0  0
  8  1  1  0  0  0  0
 10  4  1  0  0  0  0
 10  9  2  0  0  0  0
 11  5  2  0  0  0  0
 12 11  1  0  0  0  0
 13 16  1  0  0  0  0
 13  1  1  0  0  0  0
 14 11  1  0  0  0  0
 14 32  2  0  0  0  0
 15 14  1  0  0  0  0
 16 17  1  0  0  0  0
 18  8  2  0  0  0  0
 18 19  1  0  0  0  0
 20 13  2  0  0  0  0
 21 20  1  0  0  0  0
 22 23  1  0  0  0  0
 22 25  1  0  0  0  0
 22 10  1  0  0  0  0
 24 22  1  0  0  0  0
 26 30  1  0  0  0  0
 27 26  1  0  0  0  0
 28 26  2  0  0  0  0
 28 20  1  0  0  0  0
 29 28  1  0  0  0  0
 30 31  1  0  0  0  0
 30 16  2  0  0  0  0
 32 18  1  0  0  0  0
 33 32  1  0  0  0  0
 34 35  1  0  0  0  0
 34  6  1  0  0  0  0
 35 36  1  0  0  0  0
 37 34  2  0  0  0  0
 38 37  1  0  0  0  0
 39 43  2  0  0  0  0
 39 37  1  0  0  0  0
 40 39  1  0  0  0  0
 41 42  1  0  0  0  0
 41 35  2  0  0  0  0
 43 41  1  0  0  0  0
 44 43  1  0  0  0  0
M  END
