1,2,16
 OpenBabel05122313063D

 28 29  0  0  0  0  0  0  0  0999 V2000
    1.3772   -1.6694   -1.3480 S   0  0  0  0  0  0  0  0  0  0  0  0
    1.7919    0.8880    0.1312 N   0  0  0  0  0  2  0  0  0  0  0  0
    0.6086    4.1553    0.4809 N   0  0  0  0  0  0  0  0  0  0  0  0
    2.7072   -1.3169   -0.1749 C   0  0  0  0  0  0  0  0  0  0  0  0
    3.6338   -2.3165    0.1468 C   0  0  0  0  0  0  0  0  0  0  0  0
    3.5456   -3.3137   -0.3093 H   0  0  0  0  0  0  0  0  0  0  0  0
    4.6707   -2.0405    1.0517 C   0  0  0  0  0  0  0  0  0  0  0  0
    5.3989   -2.8267    1.2991 H   0  0  0  0  0  0  0  0  0  0  0  0
    4.7771   -0.7670    1.6420 C   0  0  0  0  0  0  0  0  0  0  0  0
    5.5947   -0.5552    2.3464 H   0  0  0  0  0  0  0  0  0  0  0  0
    3.8437    0.2278    1.3454 C   0  0  0  0  0  0  0  0  0  0  0  0
    3.8965    1.2246    1.8029 H   0  0  0  0  0  0  0  0  0  0  0  0
    2.7943   -0.0442    0.4418 C   0  0  0  0  0  0  0  0  0  0  0  0
    1.8677    2.0822    0.6331 N   0  0  0  0  0  0  0  0  0  0  0  0
    0.8406    2.8350    0.1899 C   0  0  0  0  0  0  0  0  0  0  0  0
   -0.1153    2.3696   -0.6650 N   0  0  0  0  0  2  0  0  0  0  0  0
   -0.9525    3.4099   -0.9305 C   0  0  0  0  0  0  0  0  0  0  0  0
   -1.8022    3.3248   -1.6138 H   0  0  0  0  0  0  0  0  0  0  0  0
   -0.5113    4.5274   -0.2183 C   0  0  0  0  0  0  0  0  0  0  0  0
   -0.9115    5.5454   -0.1720 H   0  0  0  0  0  0  0  0  0  0  0  0
    1.4288    4.9897    1.3495 C   0  0  0  0  0  0  0  0  0  0  0  0
    2.2851    4.3873    1.6997 H   0  0  0  0  0  0  0  0  0  0  0  0
    0.8384    5.3336    2.2207 H   0  0  0  0  0  0  0  0  0  0  0  0
    1.8047    5.8663    0.7880 H   0  0  0  0  0  0  0  0  0  0  0  0
    2.3168   -1.8542   -2.9078 C   0  0  0  0  0  0  0  0  0  0  0  0
    1.5646   -2.1296   -3.6713 H   0  0  0  0  0  0  0  0  0  0  0  0
    3.0439   -2.6769   -2.7798 H   0  0  0  0  0  0  0  0  0  0  0  0
    2.7869   -0.8886   -3.1705 H   0  0  0  0  0  0  0  0  0  0  0  0
  1  4  1  0  0  0  0
  2 13  1  0  0  0  0
  2 14  1  0  0  0  0
  3 21  1  0  0  0  0
  4  5  2  0  0  0  0
  4 13  1  0  0  0  0
  5  7  1  0  0  0  0
  6  5  1  0  0  0  0
  7  8  1  0  0  0  0
  7  9  2  0  0  0  0
  9 10  1  0  0  0  0
 11  9  1  0  0  0  0
 11 12  1  0  0  0  0
 13 11  2  0  0  0  0
 15  3  1  0  0  0  0
 15 14  2  0  0  0  0
 16 15  1  0  0  0  0
 17 16  1  0  0  0  0
 17 19  2  0  0  0  0
 18 17  1  0  0  0  0
 19 20  1  0  0  0  0
 19  3  1  0  0  0  0
 21 22  1  0  0  0  0
 21 23  1  0  0  0  0
 24 21  1  0  0  0  0
 25 27  1  0  0  0  0
 25  1  1  0  0  0  0
 26 25  1  0  0  0  0
 28 25  1  0  0  0  0
M  END
