1,2,5
 OpenBabel05122313063D

 34 35  0  0  0  0  0  0  0  0999 V2000
    2.4473    0.0244    0.3437 S   0  0  0  0  0  0  0  0  0  0  0  0
   -1.8807   -0.8594    0.0291 N   0  0  0  0  0  2  0  0  0  0  0  0
   -3.6828    0.3418   -0.5736 N   0  0  0  0  0  0  0  0  0  0  0  0
   -1.5565    1.4821   -0.3380 N   0  0  0  0  0  0  0  0  0  0  0  0
   -0.3245    1.1435   -0.0238 N   0  0  0  0  0  2  0  0  0  0  0  0
    0.6411    2.1613    0.0457 C   0  0  0  0  0  0  0  0  0  0  0  0
    1.9961    1.7769    0.2287 C   0  0  0  0  0  0  0  0  0  0  0  0
    2.9917    2.7582    0.3419 C   0  0  0  0  0  0  0  0  0  0  0  0
    4.0345    2.4503    0.5118 H   0  0  0  0  0  0  0  0  0  0  0  0
    2.6597    4.1176    0.2401 C   0  0  0  0  0  0  0  0  0  0  0  0
    3.4477    4.8805    0.3245 H   0  0  0  0  0  0  0  0  0  0  0  0
    1.3202    4.4995    0.0406 C   0  0  0  0  0  0  0  0  0  0  0  0
    1.0577    5.5655   -0.0331 H   0  0  0  0  0  0  0  0  0  0  0  0
    0.3161    3.5322   -0.0515 C   0  0  0  0  0  0  0  0  0  0  0  0
   -0.7386    3.8023   -0.1958 H   0  0  0  0  0  0  0  0  0  0  0  0
   -2.3334    0.3872   -0.3156 C   0  0  0  0  0  0  0  0  0  0  0  0
   -2.9667   -1.6970   -0.0063 C   0  0  0  0  0  0  0  0  0  0  0  0
   -2.8772   -2.7659    0.2092 H   0  0  0  0  0  0  0  0  0  0  0  0
   -4.0863   -0.9611   -0.3744 C   0  0  0  0  0  0  0  0  0  0  0  0
   -5.1261   -1.2681   -0.5258 H   0  0  0  0  0  0  0  0  0  0  0  0
   -4.5104    1.4996   -0.8989 C   0  0  0  0  0  0  0  0  0  0  0  0
   -5.3920    1.1251   -1.4563 H   0  0  0  0  0  0  0  0  0  0  0  0
   -3.9227    2.1335   -1.5923 H   0  0  0  0  0  0  0  0  0  0  0  0
   -4.9260    2.2959    0.3367 C   0  0  0  0  0  0  0  0  0  0  0  0
   -5.5513    3.1607    0.0389 H   0  0  0  0  0  0  0  0  0  0  0  0
   -4.0335    2.6812    0.8676 H   0  0  0  0  0  0  0  0  0  0  0  0
   -5.5110    1.6710    1.0405 H   0  0  0  0  0  0  0  0  0  0  0  0
    3.3655   -0.1708   -1.2612 C   0  0  0  0  0  0  0  0  0  0  0  0
    2.6660    0.1269   -2.0656 H   0  0  0  0  0  0  0  0  0  0  0  0
    4.2184    0.5346   -1.1994 H   0  0  0  0  0  0  0  0  0  0  0  0
    3.8059   -1.6172   -1.4153 C   0  0  0  0  0  0  0  0  0  0  0  0
    4.4198   -1.7196   -2.3331 H   0  0  0  0  0  0  0  0  0  0  0  0
    2.9205   -2.2735   -1.5252 H   0  0  0  0  0  0  0  0  0  0  0  0
    4.4136   -1.9646   -0.5551 H   0  0  0  0  0  0  0  0  0  0  0  0
  3 19  1  0  0  0  0
  3 16  1  0  0  0  0
  4 16  2  0  0  0  0
  4  5  1  0  0  0  0
  5  6  1  0  0  0  0
  6  7  1  0  0  0  0
  7  8  2  0  0  0  0
  7  1  1  0  0  0  0
  8  9  1  0  0  0  0
 10 11  1  0  0  0  0
 10  8  1  0  0  0  0
 12 10  2  0  0  0  0
 13 12  1  0  0  0  0
 14 12  1  0  0  0  0
 14  6  2  0  0  0  0
 15 14  1  0  0  0  0
 16  2  1  0  0  0  0
 17  2  1  0  0  0  0
 17 18  1  0  0  0  0
 19 17  2  0  0  0  0
 20 19  1  0  0  0  0
 21  3  1  0  0  0  0
 21 24  1  0  0  0  0
 22 21  1  0  0  0  0
 23 21  1  0  0  0  0
 24 26  1  0  0  0  0
 24 27  1  0  0  0  0
 25 24  1  0  0  0  0
 28 30  1  0  0  0  0
 28  1  1  0  0  0  0
 29 28  1  0  0  0  0
 31 28  1  0  0  0  0
 31 34  1  0  0  0  0
 32 31  1  0  0  0  0
 33 31  1  0  0  0  0
M  END
