1,2,5
 OpenBabel05122313063D

 38 38  0  0  1  0  0  0  0  0999 V2000
   -1.2419   -1.2434    0.6385 S   0  0  0  0  0  1  0  0  0  0  0  0
    0.8042    2.1059   -0.7047 N   0  0  0  0  0  2  0  0  0  0  0  0
    1.9480    2.7934   -0.5919 N   0  0  0  0  0  0  0  0  0  0  0  0
    2.5964    2.5715    0.1672 H   0  0  0  0  0  0  0  0  0  0  0  0
   -1.2979    0.8307   -1.3087 N   0  0  0  0  0  2  0  0  0  0  0  0
   -2.4178    0.1171   -1.4224 N   0  0  0  0  0  0  0  0  0  0  0  0
   -3.5776   -1.7147   -0.6259 N   0  0  0  0  0  0  0  0  0  0  0  0
    3.2679    4.6224   -1.6902 C   0  0  0  0  0  0  0  0  0  0  0  0
    3.2773    5.3645   -0.8649 H   0  0  0  0  0  0  0  0  0  0  0  0
    3.2414    5.1796   -2.6437 H   0  0  0  0  0  0  0  0  0  0  0  0
    4.2234    4.0605   -1.6505 H   0  0  0  0  0  0  0  0  0  0  0  0
    2.0902    3.7118   -1.5994 C   0  0  2  0  0  3  0  0  0  0  0  0
    0.9536    3.5853   -2.4070 C   0  0  0  0  0  0  0  0  0  0  0  0
    0.7338    4.1617   -3.3106 H   0  0  0  0  0  0  0  0  0  0  0  0
    0.1738    2.5547   -1.8183 C   0  0  0  0  0  0  0  0  0  0  0  0
   -1.0459    1.8475   -2.1213 C   0  0  0  0  0  3  0  0  0  0  0  0
   -1.7318    2.0937   -2.9447 H   0  0  0  0  0  0  0  0  0  0  0  0
   -2.4931   -0.9102   -0.5544 C   0  0  0  0  0  0  0  0  0  0  0  0
   -5.6942   -0.5049   -1.1908 C   0  0  0  0  0  0  0  0  0  0  0  0
   -5.2045    0.4677   -0.9691 H   0  0  0  0  0  0  0  0  0  0  0  0
   -6.1379   -0.8639   -0.2366 H   0  0  0  0  0  0  0  0  0  0  0  0
   -4.6086   -1.4868   -1.6451 C   0  0  0  0  0  0  0  0  0  0  0  0
   -4.1150   -1.1081   -2.5605 H   0  0  0  0  0  0  0  0  0  0  0  0
   -5.0554   -2.4733   -1.8879 H   0  0  0  0  0  0  0  0  0  0  0  0
   -6.7853   -0.3206   -2.2446 C   0  0  0  0  0  0  0  0  0  0  0  0
   -6.3664    0.0635   -3.1975 H   0  0  0  0  0  0  0  0  0  0  0  0
   -7.5571    0.3974   -1.9049 H   0  0  0  0  0  0  0  0  0  0  0  0
   -7.2985   -1.2783   -2.4695 H   0  0  0  0  0  0  0  0  0  0  0  0
   -3.1250   -4.1465   -0.2294 C   0  0  0  0  0  0  0  0  0  0  0  0
   -2.0431   -3.9662   -0.4040 H   0  0  0  0  0  0  0  0  0  0  0  0
   -3.5685   -4.3957   -1.2177 H   0  0  0  0  0  0  0  0  0  0  0  0
   -3.7510   -2.8445    0.2865 C   0  0  0  0  0  0  0  0  0  0  0  0
   -3.3089   -2.5702    1.2682 H   0  0  0  0  0  0  0  0  0  0  0  0
   -4.8411   -2.9755    0.4524 H   0  0  0  0  0  0  0  0  0  0  0  0
   -3.3221   -5.3041    0.7479 C   0  0  0  0  0  0  0  0  0  0  0  0
   -4.3979   -5.5083    0.9283 H   0  0  0  0  0  0  0  0  0  0  0  0
   -2.8540   -5.0870    1.7303 H   0  0  0  0  0  0  0  0  0  0  0  0
   -2.8671   -6.2364    0.3608 H   0  0  0  0  0  0  0  0  0  0  0  0
  2  3  1  0  0  0  0
  3  4  1  0  0  0  0
  6  5  1  0  0  0  0
  6 18  2  0  0  0  0
  7 18  1  0  0  0  0
  7 32  1  0  0  0  0
  8 11  1  0  0  0  0
  8  9  1  0  0  0  0
 10  8  1  0  0  0  0
 12  8  1  1  0  0  0
 12  3  1  0  0  0  0
 13 15  2  0  0  0  0
 13 12  1  0  0  0  0
 14 13  1  0  0  0  0
 15  2  1  0  0  0  0
 16 15  1  0  0  0  0
 16  5  1  0  0  0  0
 17 16  1  0  0  0  0
 18  1  1  0  0  0  0
 19 20  1  0  0  0  0
 19 21  1  0  0  0  0
 22 19  1  0  0  0  0
 22  7  1  0  0  0  0
 23 22  1  0  0  0  0
 24 22  1  0  0  0  0
 25 27  1  0  0  0  0
 25 19  1  0  0  0  0
 26 25  1  0  0  0  0
 28 25  1  0  0  0  0
 29 32  1  0  0  0  0
 29 35  1  0  0  0  0
 30 29  1  0  0  0  0
 31 29  1  0  0  0  0
 32 34  1  0  0  0  0
 32 33  1  0  0  0  0
 35 36  1  0  0  0  0
 35 37  1  0  0  0  0
 38 35  1  0  0  0  0
M  END
