1,2,3
 OpenBabel05122313063D

 43 45  0  0  0  0  0  0  0  0999 V2000
   -1.9261    0.2822   -1.5253 S   0  0  0  0  0  0  0  0  0  0  0  0
    1.9512    0.8742    0.3120 N   0  0  0  0  0  2  0  0  0  0  0  0
   -0.1494    2.1175   -0.0251 N   0  0  0  0  0  2  0  0  0  0  0  0
    1.9476    2.1685    0.6585 C   0  0  0  0  0  0  0  0  0  0  0  0
    0.7875    2.8696    0.5040 N   0  0  0  0  0  0  0  0  0  0  0  0
   -1.4112    2.7105   -0.2811 C   0  0  0  0  0  0  0  0  0  0  0  0
   -2.3879    1.9253   -0.9433 C   0  0  0  0  0  0  0  0  0  0  0  0
   -1.7133    4.0369    0.0910 C   0  0  0  0  0  0  0  0  0  0  0  0
   -0.9352    4.6295    0.5901 H   0  0  0  0  0  0  0  0  0  0  0  0
   -3.6494    2.4626   -1.2331 C   0  0  0  0  0  0  0  0  0  0  0  0
   -4.3928    1.8537   -1.7684 H   0  0  0  0  0  0  0  0  0  0  0  0
   -2.9805    4.5595   -0.1848 C   0  0  0  0  0  0  0  0  0  0  0  0
   -3.2165    5.5936    0.1061 H   0  0  0  0  0  0  0  0  0  0  0  0
    4.1216    2.2422    1.6139 O   0  0  0  0  0  0  0  0  0  0  0  0
    3.1282    2.8768    1.2988 C   0  0  0  0  0  0  0  0  0  0  0  0
   -3.7516   -0.4585    0.5249 C   0  0  0  0  0  0  0  0  0  0  0  0
   -3.7315    0.5778    0.8907 H   0  0  0  0  0  0  0  0  0  0  0  0
   -3.0204   -0.8252   -0.6171 C   0  0  0  0  0  0  0  0  0  0  0  0
   -3.0457   -2.1485   -1.0986 C   0  0  0  0  0  0  0  0  0  0  0  0
   -2.4778   -2.4175   -2.0029 H   0  0  0  0  0  0  0  0  0  0  0  0
    2.9742    4.3601    1.5256 C   0  0  0  0  0  0  0  0  0  0  0  0
    3.8964    4.7515    1.9896 H   0  0  0  0  0  0  0  0  0  0  0  0
    2.0990    4.5666    2.1737 H   0  0  0  0  0  0  0  0  0  0  0  0
    2.7747    4.8780    0.5653 H   0  0  0  0  0  0  0  0  0  0  0  0
    3.0925    0.0294    0.2775 C   0  0  0  0  0  0  0  0  0  0  0  0
    4.0784    0.2190   -0.7111 C   0  0  0  0  0  0  0  0  0  0  0  0
    3.9993    1.0752   -1.3949 H   0  0  0  0  0  0  0  0  0  0  0  0
    3.1457   -1.0850    1.1380 C   0  0  0  0  0  0  0  0  0  0  0  0
    2.3659   -1.2133    1.9027 H   0  0  0  0  0  0  0  0  0  0  0  0
   -3.9491    3.7767   -0.8406 C   0  0  0  0  0  0  0  0  0  0  0  0
   -4.9401    4.1976   -1.0647 H   0  0  0  0  0  0  0  0  0  0  0  0
   -4.5126   -1.4328    1.1883 C   0  0  0  0  0  0  0  0  0  0  0  0
   -5.0929   -1.1497    2.0793 H   0  0  0  0  0  0  0  0  0  0  0  0
    4.2063   -1.9919    1.0280 C   0  0  0  0  0  0  0  0  0  0  0  0
    4.2638   -2.8478    1.7169 H   0  0  0  0  0  0  0  0  0  0  0  0
   -3.8047   -3.1129   -0.4203 C   0  0  0  0  0  0  0  0  0  0  0  0
   -3.8328   -4.1455   -0.7993 H   0  0  0  0  0  0  0  0  0  0  0  0
   -4.5378   -2.7582    0.7236 C   0  0  0  0  0  0  0  0  0  0  0  0
   -5.1422   -3.5134    1.2473 H   0  0  0  0  0  0  0  0  0  0  0  0
    5.1231   -0.7067   -0.8220 C   0  0  0  0  0  0  0  0  0  0  0  0
    5.8921   -0.5623   -1.5955 H   0  0  0  0  0  0  0  0  0  0  0  0
    5.1947   -1.8088    0.0462 C   0  0  0  0  0  0  0  0  0  0  0  0
    6.0240   -2.5261   -0.0415 H   0  0  0  0  0  0  0  0  0  0  0  0
  1  7  1  0  0  0  0
  1 18  1  0  0  0  0
  2  4  1  0  0  0  0
  3  5  1  0  0  0  0
  4 15  1  0  0  0  0
  5  4  2  0  0  0  0
  6  3  1  0  0  0  0
  6  8  1  0  0  0  0
  7  6  2  0  0  0  0
  8  9  1  0  0  0  0
 10  7  1  0  0  0  0
 10 30  2  0  0  0  0
 11 10  1  0  0  0  0
 12  8  2  0  0  0  0
 12 13  1  0  0  0  0
 15 21  1  0  0  0  0
 15 14  2  0  0  0  0
 16 17  1  0  0  0  0
 16 32  1  0  0  0  0
 18 16  2  0  0  0  0
 19 18  1  0  0  0  0
 19 36  2  0  0  0  0
 20 19  1  0  0  0  0
 21 22  1  0  0  0  0
 21 23  1  0  0  0  0
 24 21  1  0  0  0  0
 25  2  1  0  0  0  0
 25 28  1  0  0  0  0
 26 25  2  0  0  0  0
 27 26  1  0  0  0  0
 28 29  1  0  0  0  0
 30 12  1  0  0  0  0
 31 30  1  0  0  0  0
 32 33  1  0  0  0  0
 34 28  2  0  0  0  0
 34 35  1  0  0  0  0
 36 38  1  0  0  0  0
 37 36  1  0  0  0  0
 38 32  2  0  0  0  0
 38 39  1  0  0  0  0
 40 26  1  0  0  0  0
 40 42  2  0  0  0  0
 41 40  1  0  0  0  0
 42 34  1  0  0  0  0
 43 42  1  0  0  0  0
M  END
