1,2,3
 OpenBabel05122313063D

 23 23  0  0  0  0  0  0  0  0999 V2000
   -1.5818    2.1851   -0.0940 S   0  0  0  0  0  1  0  0  0  0  0  0
   -1.0614   -2.1036    0.0033 N   0  0  0  0  0  2  0  0  0  0  0  0
   -3.0164   -0.3283    0.0182 N   0  0  0  0  0  2  0  0  0  0  0  0
   -3.9093    0.6926    0.0062 N   0  0  0  0  0  0  0  0  0  0  0  0
   -4.1327    2.9936   -0.0032 N   0  0  0  0  0  0  0  0  0  0  0  0
   -3.6654    3.8800   -0.1866 H   0  0  0  0  0  0  0  0  0  0  0  0
   -0.2349   -3.1816   -0.0282 C   0  0  0  0  0  3  0  0  0  0  0  0
    0.8548   -3.0645   -0.0796 H   0  0  0  0  0  0  0  0  0  0  0  0
   -0.9959   -4.3711    0.0055 C   0  0  0  0  0  0  0  0  0  0  0  0
   -0.5963   -5.3919   -0.0083 H   0  0  0  0  0  0  0  0  0  0  0  0
   -2.3541   -3.9864    0.0544 C   0  0  0  0  0  0  0  0  0  0  0  0
   -3.2286   -4.6474    0.0827 H   0  0  0  0  0  0  0  0  0  0  0  0
   -2.3712   -2.5719    0.0511 C   0  0  0  0  0  0  0  0  0  0  0  0
   -3.4214   -1.5938    0.0590 C   0  0  0  0  0  0  0  0  0  0  0  0
   -4.8788   -1.9298    0.1021 C   0  0  0  0  0  0  0  0  0  0  0  0
   -5.3536   -1.4605    0.9877 H   0  0  0  0  0  0  0  0  0  0  0  0
   -5.0400   -3.0219    0.1339 H   0  0  0  0  0  0  0  0  0  0  0  0
   -5.3958   -1.5049   -0.7823 H   0  0  0  0  0  0  0  0  0  0  0  0
   -3.3443    1.8796   -0.0274 C   0  0  0  0  0  0  0  0  0  0  0  0
   -5.5746    2.9208   -0.0748 C   0  0  0  0  0  0  0  0  0  0  0  0
   -6.0017    3.9264    0.1000 H   0  0  0  0  0  0  0  0  0  0  0  0
   -5.9565    2.2265    0.7005 H   0  0  0  0  0  0  0  0  0  0  0  0
   -5.9343    2.5404   -1.0583 H   0  0  0  0  0  0  0  0  0  0  0  0
  1 19  1  0  0  0  0
  2 13  1  0  0  0  0
  3 14  1  0  0  0  0
  4  3  1  0  0  0  0
  6  5  1  0  0  0  0
  7  2  1  0  0  0  0
  7  9  1  0  0  0  0
  8  7  1  0  0  0  0
  9 11  2  0  0  0  0
 10  9  1  0  0  0  0
 11 12  1  0  0  0  0
 13 11  1  0  0  0  0
 13 14  2  0  0  0  0
 14 15  1  0  0  0  0
 15 17  1  0  0  0  0
 15 16  1  0  0  0  0
 18 15  1  0  0  0  0
 19  5  1  0  0  0  0
 19  4  2  0  0  0  0
 20  5  1  0  0  0  0
 20 21  1  0  0  0  0
 20 22  1  0  0  0  0
 23 20  1  0  0  0  0
M  END
