1,3,4
 OpenBabel05122313063D

 46 49  0  0  0  0  0  0  0  0999 V2000
   -1.0213    2.4350    1.6133 S   0  0  0  0  0  0  0  0  0  0  0  0
    0.8041    2.9108   -1.3713 S   0  0  0  0  0  0  0  0  0  0  0  0
   -2.0472    0.1374   -0.3084 N   0  0  0  0  0  2  0  0  0  0  0  0
    2.3919    0.3663   -0.1923 N   0  0  0  0  0  2  0  0  0  0  0  0
   -2.9288    0.5717    0.5942 C   0  0  0  0  0  0  0  0  0  0  0  0
   -4.3099    0.2639    0.4691 C   0  0  0  0  0  0  0  0  0  0  0  0
   -4.7420   -0.5219   -0.5843 C   0  0  0  0  0  0  0  0  0  0  0  0
   -4.1875   -1.8112   -2.6543 C   0  0  0  0  0  3  0  0  0  0  0  0
   -3.2330   -2.2516   -3.5575 C   0  0  0  0  0  0  0  0  0  0  0  0
   -1.8688   -1.8951   -3.3840 C   0  0  0  0  0  0  0  0  0  0  0  0
   -1.4725   -1.1056   -2.3147 C   0  0  0  0  0  0  0  0  0  0  0  0
   -2.4279   -0.6422   -1.3744 C   0  0  0  0  0  0  0  0  0  0  0  0
   -3.8117   -1.0006   -1.5454 C   0  0  0  0  0  0  0  0  0  0  0  0
   -2.4722    1.3486    1.8110 C   0  0  0  0  0  0  0  0  0  0  0  0
   -1.5206    3.4819    0.1880 C   0  0  0  0  0  0  0  0  0  0  0  0
   -0.3110    4.0975   -0.5150 C   0  0  0  0  0  0  0  0  0  0  0  0
    2.2145    2.8212   -0.1791 C   0  0  0  0  0  0  0  0  0  0  0  0
    3.0090    1.5485   -0.3496 C   0  0  0  0  0  0  0  0  0  0  0  0
    4.3957    1.6165   -0.6329 C   0  0  0  0  0  0  0  0  0  0  0  0
    5.1334    0.4467   -0.7301 C   0  0  0  0  0  0  0  0  0  0  0  0
    5.2106   -2.0433   -0.6114 C   0  0  0  0  0  3  0  0  0  0  0  0
    4.5484   -3.2423   -0.4040 C   0  0  0  0  0  0  0  0  0  0  0  0
    3.1569   -3.2460   -0.1170 C   0  0  0  0  0  0  0  0  0  0  0  0
    2.4314   -2.0643   -0.0486 C   0  0  0  0  0  0  0  0  0  0  0  0
    3.0859   -0.8233   -0.2588 C   0  0  0  0  0  0  0  0  0  0  0  0
    4.5037   -0.8087   -0.5394 C   0  0  0  0  0  0  0  0  0  0  0  0
   -5.0124    0.6374    1.2271 H   0  0  0  0  0  0  0  0  0  0  0  0
   -5.8064   -0.7832   -0.6865 H   0  0  0  0  0  0  0  0  0  0  0  0
   -5.2468   -2.0827   -2.7762 H   0  0  0  0  0  0  0  0  0  0  0  0
   -3.5267   -2.8811   -4.4099 H   0  0  0  0  0  0  0  0  0  0  0  0
   -1.1177   -2.2537   -4.1031 H   0  0  0  0  0  0  0  0  0  0  0  0
   -0.4109   -0.8418   -2.1793 H   0  0  0  0  0  0  0  0  0  0  0  0
   -2.1469    0.6139    2.5820 H   0  0  0  0  0  0  0  0  0  0  0  0
   -3.3136    1.9369    2.2238 H   0  0  0  0  0  0  0  0  0  0  0  0
   -2.1055    2.8588   -0.5184 H   0  0  0  0  0  0  0  0  0  0  0  0
   -2.1761    4.2941    0.5650 H   0  0  0  0  0  0  0  0  0  0  0  0
    0.3021    4.7141    0.1733 H   0  0  0  0  0  0  0  0  0  0  0  0
   -0.6722    4.7782   -1.3122 H   0  0  0  0  0  0  0  0  0  0  0  0
    2.8738    3.6955   -0.3346 H   0  0  0  0  0  0  0  0  0  0  0  0
    1.8019    2.8690    0.8517 H   0  0  0  0  0  0  0  0  0  0  0  0
    4.8667    2.6003   -0.7655 H   0  0  0  0  0  0  0  0  0  0  0  0
    6.2111    0.4829   -0.9515 H   0  0  0  0  0  0  0  0  0  0  0  0
    6.2890   -2.0220   -0.8287 H   0  0  0  0  0  0  0  0  0  0  0  0
    5.0981   -4.1935   -0.4536 H   0  0  0  0  0  0  0  0  0  0  0  0
    2.6383   -4.1991    0.0644 H   0  0  0  0  0  0  0  0  0  0  0  0
    1.3586   -2.1043    0.2018 H   0  0  0  0  0  0  0  0  0  0  0  0
  1 14  1  0  0  0  0
  2 16  1  0  0  0  0
  2 17  1  0  0  0  0
  3  5  1  0  0  0  0
  5 14  1  0  0  0  0
  6  5  2  0  0  0  0
  6 27  1  0  0  0  0
  7  6  1  0  0  0  0
  8 13  1  0  0  0  0
  9 10  2  0  0  0  0
  9  8  1  0  0  0  0
 10 11  1  0  0  0  0
 11 32  1  0  0  0  0
 11 12  2  0  0  0  0
 12  3  1  0  0  0  0
 13 12  1  0  0  0  0
 13  7  2  0  0  0  0
 14 34  1  0  0  0  0
 14 33  1  0  0  0  0
 15 36  1  0  0  0  0
 15  1  1  0  0  0  0
 16 37  1  0  0  0  0
 16 15  1  0  0  0  0
 17 40  1  0  0  0  0
 18  4  1  0  0  0  0
 18 17  1  0  0  0  0
 19 18  2  0  0  0  0
 20 19  1  0  0  0  0
 20 26  2  0  0  0  0
 21 26  1  0  0  0  0
 21 22  1  0  0  0  0
 22 23  2  0  0  0  0
 23 24  1  0  0  0  0
 23 45  1  0  0  0  0
 24 46  1  0  0  0  0
 25  4  1  0  0  0  0
 25 24  2  0  0  0  0
 26 25  1  0  0  0  0
 28  7  1  0  0  0  0
 29  8  1  0  0  0  0
 30  9  1  0  0  0  0
 31 10  1  0  0  0  0
 35 15  1  0  0  0  0
 38 16  1  0  0  0  0
 39 17  1  0  0  0  0
 41 19  1  0  0  0  0
 42 20  1  0  0  0  0
 43 21  1  0  0  0  0
 44 22  1  0  0  0  0
M  END
