1,2,3
 OpenBabel05122313063D

 26 26  0  0  1  0  0  0  0  0999 V2000
   -1.0544   -1.9558    0.4658 S   0  0  0  0  0  1  0  0  0  0  0  0
    0.7733    1.5373   -0.8489 N   0  0  0  0  0  2  0  0  0  0  0  0
   -1.2738    0.1649   -1.4286 N   0  0  0  0  0  2  0  0  0  0  0  0
    1.8648    2.3047   -0.7369 N   0  0  0  0  0  0  0  0  0  0  0  0
    2.5593    2.0933   -0.0169 H   0  0  0  0  0  0  0  0  0  0  0  0
   -2.3352   -0.6350   -1.5621 N   0  0  0  0  0  0  0  0  0  0  0  0
   -3.3062   -2.5919   -0.8219 N   0  0  0  0  0  0  0  0  0  0  0  0
   -3.2951   -3.3559   -0.1442 H   0  0  0  0  0  0  0  0  0  0  0  0
    2.9994    4.2879   -1.7741 C   0  0  0  0  0  0  0  0  0  0  0  0
    2.8637    4.9256   -2.6659 H   0  0  0  0  0  0  0  0  0  0  0  0
    3.9903    3.7962   -1.8553 H   0  0  0  0  0  0  0  0  0  0  0  0
    3.0218    4.9503   -0.8840 H   0  0  0  0  0  0  0  0  0  0  0  0
    1.8950    3.2891   -1.6905 C   0  0  2  0  0  3  0  0  0  0  0  0
    0.7376    3.1225   -2.4603 C   0  0  0  0  0  0  0  0  0  0  0  0
    0.4366    3.7317   -3.3178 H   0  0  0  0  0  0  0  0  0  0  0  0
    0.0632    2.0032   -1.9060 C   0  0  0  0  0  0  0  0  0  0  0  0
   -1.1181    1.2293   -2.2004 C   0  0  0  0  0  3  0  0  0  0  0  0
   -1.8413    1.4585   -2.9966 H   0  0  0  0  0  0  0  0  0  0  0  0
   -2.3111   -1.6854   -0.7280 C   0  0  0  0  0  0  0  0  0  0  0  0
   -4.4342   -2.4820   -1.7457 C   0  0  0  0  0  0  0  0  0  0  0  0
   -4.7937   -3.5114   -1.9451 H   0  0  0  0  0  0  0  0  0  0  0  0
   -4.0431   -2.0754   -2.6988 H   0  0  0  0  0  0  0  0  0  0  0  0
   -5.5669   -1.6007   -1.2191 C   0  0  0  0  0  0  0  0  0  0  0  0
   -6.3999   -1.5715   -1.9491 H   0  0  0  0  0  0  0  0  0  0  0  0
   -5.2093   -0.5628   -1.0680 H   0  0  0  0  0  0  0  0  0  0  0  0
   -5.9679   -1.9819   -0.2585 H   0  0  0  0  0  0  0  0  0  0  0  0
  2  4  1  0  0  0  0
  4  5  1  0  0  0  0
  6  3  1  0  0  0  0
  6 19  2  0  0  0  0
  7 19  1  0  0  0  0
  7  8  1  0  0  0  0
  9 12  1  0  0  0  0
 10  9  1  0  0  0  0
 11  9  1  0  0  0  0
 13  9  1  1  0  0  0
 13  4  1  0  0  0  0
 14 16  2  0  0  0  0
 14 13  1  0  0  0  0
 15 14  1  0  0  0  0
 16  2  1  0  0  0  0
 17 16  1  0  0  0  0
 17  3  1  0  0  0  0
 18 17  1  0  0  0  0
 19  1  1  0  0  0  0
 20 23  1  0  0  0  0
 20  7  1  0  0  0  0
 21 20  1  0  0  0  0
 22 20  1  0  0  0  0
 23 25  1  0  0  0  0
 23 26  1  0  0  0  0
 24 23  1  0  0  0  0
M  END
