1,2,3
 OpenBabel05122313063D

 23 24  0  0  0  0  0  0  0  0999 V2000
   -0.5549    2.7610    0.0551 S   0  0  0  0  0  1  0  0  0  0  0  0
    1.8039   -0.9269    0.0929 N   0  0  0  0  0  0  0  0  0  0  0  0
    2.2765    2.0211   -0.0183 N   0  0  0  0  0  2  0  0  0  0  0  0
    2.1067    3.3756   -0.0191 N   0  0  0  0  0  0  0  0  0  0  0  0
    0.6433    5.1516    0.0967 N   0  0  0  0  0  0  0  0  0  0  0  0
   -0.2798    5.4910   -0.1684 H   0  0  0  0  0  0  0  0  0  0  0  0
    1.4390    5.7479   -0.1342 H   0  0  0  0  0  0  0  0  0  0  0  0
    1.4727   -2.2742    0.2086 C   0  0  0  0  0  3  0  0  0  0  0  0
    0.4296   -2.5861    0.3178 H   0  0  0  0  0  0  0  0  0  0  0  0
    2.5989   -3.0816    0.1809 C   0  0  0  0  0  0  0  0  0  0  0  0
    2.6174   -4.1745    0.2563 H   0  0  0  0  0  0  0  0  0  0  0  0
    3.7209   -2.1975    0.0481 C   0  0  0  0  0  0  0  0  0  0  0  0
    5.1141   -2.3764   -0.0314 C   0  0  0  0  0  0  0  0  0  0  0  0
    5.5466   -3.3888   -0.0014 H   0  0  0  0  0  0  0  0  0  0  0  0
    5.9485   -1.2501   -0.1458 C   0  0  0  0  0  0  0  0  0  0  0  0
    7.0390   -1.3823   -0.2079 H   0  0  0  0  0  0  0  0  0  0  0  0
    5.4092    0.0454   -0.1731 C   0  0  0  0  0  3  0  0  0  0  0  0
    6.0793    0.9158   -0.2498 H   0  0  0  0  0  0  0  0  0  0  0  0
    4.0099    0.2778   -0.0964 C   0  0  0  0  0  0  0  0  0  0  0  0
    3.1691   -0.8648    0.0033 C   0  0  0  0  0  0  0  0  0  0  0  0
    3.5357    1.6270   -0.0944 C   0  0  0  0  0  0  0  0  0  0  0  0
    4.2751    2.4451   -0.1510 H   0  0  0  0  0  0  0  0  0  0  0  0
    0.8663    3.7989    0.0296 C   0  0  0  0  0  0  0  0  0  0  0  0
  2  8  1  0  0  0  0
  4  3  1  0  0  0  0
  4 23  2  0  0  0  0
  6  5  1  0  0  0  0
  7  5  1  0  0  0  0
  8  9  1  0  0  0  0
 10  8  1  0  0  0  0
 10 11  1  0  0  0  0
 12 10  2  0  0  0  0
 13 14  1  0  0  0  0
 13 12  1  0  0  0  0
 15 13  2  0  0  0  0
 16 15  1  0  0  0  0
 17 15  1  0  0  0  0
 17 19  1  0  0  0  0
 18 17  1  0  0  0  0
 19 21  2  0  0  0  0
 19 20  1  0  0  0  0
 20 12  1  0  0  0  0
 20  2  2  0  0  0  0
 21  3  1  0  0  0  0
 22 21  1  0  0  0  0
 23  1  1  0  0  0  0
 23  5  1  0  0  0  0
M  END
