1,2,3
 OpenBabel05122313063D

 35 36  0  0  1  0  0  0  0  0999 V2000
   -1.0397   -1.5222   -0.0900 S   0  0  0  0  0  1  0  0  0  0  0  0
    2.7582   -0.0662    0.0420 N   0  0  0  0  0  2  0  0  0  0  0  0
    0.4462    0.8409   -0.1587 N   0  0  0  0  0  2  0  0  0  0  0  0
   -0.8959    1.1452   -0.2886 N   0  0  0  0  0  0  0  0  0  0  0  0
   -1.1033    1.9270   -0.9277 H   0  0  0  0  0  0  0  0  0  0  0  0
   -3.0460    0.2399   -0.5289 N   0  0  0  0  0  0  0  0  0  0  0  0
    1.0089    3.1416   -0.0594 N   0  0  0  0  0  0  0  0  0  0  0  0
    1.7537    3.8243    0.0811 H   0  0  0  0  0  0  0  0  0  0  0  0
    0.1116    3.4147    0.3506 H   0  0  0  0  0  0  0  0  0  0  0  0
    3.9482   -0.6892    0.1187 C   0  0  0  0  0  0  0  0  0  0  0  0
    3.8947   -1.7906    0.1341 H   0  0  0  0  0  0  0  0  0  0  0  0
    5.1522    0.0283    0.1799 C   0  0  0  0  0  0  0  0  0  0  0  0
    6.1030   -0.5196    0.2391 H   0  0  0  0  0  0  0  0  0  0  0  0
    5.1179    1.4292    0.1662 C   0  0  0  0  0  0  0  0  0  0  0  0
    6.0470    2.0155    0.2136 H   0  0  0  0  0  0  0  0  0  0  0  0
    3.8762    2.0796    0.0920 C   0  0  0  0  0  0  0  0  0  0  0  0
    3.8281    3.1783    0.0801 H   0  0  0  0  0  0  0  0  0  0  0  0
    2.7106    1.3056    0.0273 C   0  0  0  0  0  0  0  0  0  0  0  0
    1.3362    1.8181   -0.0454 C   0  0  0  0  0  0  0  0  0  0  0  0
   -1.7365    0.0427   -0.3285 C   0  0  2  0  0  3  0  0  0  0  0  0
   -3.7129    1.5512   -0.4437 C   0  0  0  0  0  0  0  0  0  0  0  0
   -4.2371    1.7277   -1.4083 H   0  0  0  0  0  0  0  0  0  0  0  0
   -2.9637    2.3532   -0.3164 H   0  0  0  0  0  0  0  0  0  0  0  0
   -4.7118    1.5670    0.7237 C   0  0  0  0  0  0  0  0  0  0  0  0
   -5.2368    2.5439    0.7221 H   0  0  0  0  0  0  0  0  0  0  0  0
   -4.1426    1.5062    1.6762 H   0  0  0  0  0  0  0  0  0  0  0  0
   -5.7049    0.4036    0.6299 C   0  0  0  0  0  0  0  0  0  0  0  0
   -6.3681    0.3967    1.5176 H   0  0  0  0  0  0  0  0  0  0  0  0
   -6.3652    0.5506   -0.2533 H   0  0  0  0  0  0  0  0  0  0  0  0
   -4.9662   -0.9334    0.4984 C   0  0  0  0  0  0  0  0  0  0  0  0
   -4.4069   -1.1630    1.4307 H   0  0  0  0  0  0  0  0  0  0  0  0
   -5.6763   -1.7689    0.3362 H   0  0  0  0  0  0  0  0  0  0  0  0
   -3.9815   -0.8924   -0.6722 C   0  0  0  0  0  0  0  0  0  0  0  0
   -4.5235   -0.7413   -1.6314 H   0  0  0  0  0  0  0  0  0  0  0  0
   -3.3943   -1.8252   -0.7606 H   0  0  0  0  0  0  0  0  0  0  0  0
  2 10  1  0  0  0  0
  3 19  1  0  0  0  0
  4  3  1  0  0  0  0
  5  4  1  0  0  0  0
  6 21  1  0  0  0  0
  6 20  1  0  0  0  0
  7 19  1  0  0  0  0
  7  8  1  0  0  0  0
  7  9  1  0  0  0  0
 10 11  1  0  0  0  0
 10 12  2  0  0  0  0
 12 13  1  0  0  0  0
 14 12  1  0  0  0  0
 14 15  1  0  0  0  0
 16 14  2  0  0  0  0
 17 16  1  0  0  0  0
 18  2  1  0  0  0  0
 18 16  1  0  0  0  0
 19 18  2  0  0  0  0
 20  4  1  0  0  0  0
 20  1  1  1  0  0  0
 21 23  1  0  0  0  0
 21 24  1  0  0  0  0
 22 21  1  0  0  0  0
 24 26  1  0  0  0  0
 25 24  1  0  0  0  0
 27 24  1  0  0  0  0
 27 28  1  0  0  0  0
 29 27  1  0  0  0  0
 30 27  1  0  0  0  0
 30 31  1  0  0  0  0
 32 30  1  0  0  0  0
 33  6  1  0  0  0  0
 33 30  1  0  0  0  0
 34 33  1  0  0  0  0
 35 33  1  0  0  0  0
M  END
