1,2,3
 OpenBabel05122313063D

 38 39  0  0  1  0  0  0  0  0999 V2000
    1.3530   -1.4393   -1.0278 S   0  0  0  0  0  1  0  0  0  0  0  0
   -2.3229    1.3238   -0.8414 N   0  0  0  0  0  2  0  0  0  0  0  0
    0.3770    1.3222   -0.9065 N   0  0  0  0  0  2  0  0  0  0  0  0
    1.6731    1.2066   -0.4776 N   0  0  0  0  0  0  0  0  0  0  0  0
    1.8220    1.6519    0.4522 H   0  0  0  0  0  0  0  0  0  0  0  0
    3.5141   -0.1422   -0.0790 N   0  0  0  0  0  0  0  0  0  0  0  0
    0.3854    3.6557   -0.3967 N   0  0  0  0  0  0  0  0  0  0  0  0
    1.3841    3.6481   -0.1921 H   0  0  0  0  0  0  0  0  0  0  0  0
   -0.1631    4.3284    0.1407 H   0  0  0  0  0  0  0  0  0  0  0  0
   -3.6384    1.2476   -1.0809 C   0  0  0  0  0  3  0  0  0  0  0  0
   -4.0937    0.2547   -0.9092 H   0  0  0  0  0  0  0  0  0  0  0  0
   -4.3866    2.3554   -1.5130 C   0  0  0  0  0  0  0  0  0  0  0  0
   -5.4677    2.2555   -1.6859 H   0  0  0  0  0  0  0  0  0  0  0  0
   -3.7245    3.5743   -1.7127 C   0  0  0  0  0  0  0  0  0  0  0  0
   -4.2747    4.4615   -2.0607 H   0  0  0  0  0  0  0  0  0  0  0  0
   -2.3440    3.6474   -1.4779 C   0  0  0  0  0  0  0  0  0  0  0  0
   -1.7829    4.5751   -1.6612 H   0  0  0  0  0  0  0  0  0  0  0  0
   -1.6737    2.4903   -1.0402 C   0  0  0  0  0  0  0  0  0  0  0  0
   -0.2113    2.4766   -0.7606 C   0  0  1  0  0  3  0  0  0  0  0  0
    2.2272   -0.0817   -0.5106 C   0  0  1  0  0  3  0  0  0  0  0  0
    4.2904    1.0787    0.1752 C   0  0  0  0  0  0  0  0  0  0  0  0
    4.1106    1.4359    1.2171 H   0  0  0  0  0  0  0  0  0  0  0  0
    3.8892    1.8552   -0.5077 H   0  0  0  0  0  0  0  0  0  0  0  0
    5.7964    0.9354   -0.0680 C   0  0  0  0  0  0  0  0  0  0  0  0
    6.2071    1.9658   -0.0204 H   0  0  0  0  0  0  0  0  0  0  0  0
    6.2782    0.3905    0.7716 H   0  0  0  0  0  0  0  0  0  0  0  0
    6.1855    0.2720   -1.4012 C   0  0  0  0  0  0  0  0  0  0  0  0
    7.1860    0.6455   -1.7027 H   0  0  0  0  0  0  0  0  0  0  0  0
    5.4844    0.5988   -2.2017 H   0  0  0  0  0  0  0  0  0  0  0  0
    6.2437   -1.2620   -1.3396 C   0  0  0  0  0  0  0  0  0  0  0  0
    6.6684   -1.6499   -2.2893 H   0  0  0  0  0  0  0  0  0  0  0  0
    6.9709   -1.5470   -0.5457 H   0  0  0  0  0  0  0  0  0  0  0  0
    4.9098   -1.9656   -1.0700 C   0  0  0  0  0  0  0  0  0  0  0  0
    5.0907   -3.0519   -0.9274 H   0  0  0  0  0  0  0  0  0  0  0  0
    4.2321   -1.8829   -1.9462 H   0  0  0  0  0  0  0  0  0  0  0  0
    4.1431   -1.4472    0.1536 C   0  0  0  0  0  0  0  0  0  0  0  0
    3.3276   -2.1493    0.4121 H   0  0  0  0  0  0  0  0  0  0  0  0
    4.8067   -1.3536    1.0382 H   0  0  0  0  0  0  0  0  0  0  0  0
  3  4  1  0  0  0  0
  4  5  1  0  0  0  0
  6 36  1  0  0  0  0
  6 21  1  0  0  0  0
  7  8  1  0  0  0  0
  7  9  1  0  0  0  0
 10 11  1  0  0  0  0
 10  2  1  0  0  0  0
 12 10  1  0  0  0  0
 13 12  1  0  0  0  0
 14 12  2  0  0  0  0
 14 16  1  0  0  0  0
 15 14  1  0  0  0  0
 16 18  2  0  0  0  0
 17 16  1  0  0  0  0
 18  2  1  0  0  0  0
 18 19  1  0  0  0  0
 19  3  1  6  0  0  0
 19  7  1  0  0  0  0
 20  1  1  1  0  0  0
 20  4  1  0  0  0  0
 20  6  1  0  0  0  0
 21 22  1  0  0  0  0
 23 21  1  0  0  0  0
 24 25  1  0  0  0  0
 24 21  1  0  0  0  0
 24 26  1  0  0  0  0
 27 30  1  0  0  0  0
 27 24  1  0  0  0  0
 28 27  1  0  0  0  0
 29 27  1  0  0  0  0
 30 33  1  0  0  0  0
 30 32  1  0  0  0  0
 31 30  1  0  0  0  0
 33 34  1  0  0  0  0
 33 36  1  0  0  0  0
 35 33  1  0  0  0  0
 36 37  1  0  0  0  0
 36 38  1  0  0  0  0
M  END
