1,2,3
 OpenBabel05122313063D

 29 29  0  0  1  0  0  0  0  0999 V2000
   -0.9240   -1.4584    0.6560 S   0  0  0  0  0  0  0  0  0  0  0  0
    1.4830    0.1742    0.4285 N   0  0  0  0  0  2  0  0  0  0  0  0
    0.2402   -0.2772   -1.9153 N   0  0  0  0  0  0  0  0  0  0  0  0
   -0.1240    0.2650   -2.7083 H   0  0  0  0  0  0  0  0  0  0  0  0
    2.2989   -0.2724   -0.5634 C   0  0  2  0  0  3  0  0  0  0  0  0
    3.5994   -0.7232   -0.3034 C   0  0  0  0  0  0  0  0  0  0  0  0
    4.2284   -1.0825   -1.1308 H   0  0  0  0  0  0  0  0  0  0  0  0
    1.7214   -0.1836   -1.9507 C   0  0  0  0  0  0  0  0  0  0  0  0
    2.1678   -0.9466   -2.6241 H   0  0  0  0  0  0  0  0  0  0  0  0
    1.9800    0.8121   -2.3714 H   0  0  0  0  0  0  0  0  0  0  0  0
    3.2352   -0.2361    2.0314 C   0  0  0  0  0  0  0  0  0  0  0  0
    3.5648   -0.2003    3.0792 H   0  0  0  0  0  0  0  0  0  0  0  0
    1.9443    0.1865    1.7013 C   0  0  0  0  0  0  0  0  0  0  0  0
    1.2516    0.5499    2.4735 H   0  0  0  0  0  0  0  0  0  0  0  0
    4.0795   -0.7012    1.0134 C   0  0  0  0  0  0  0  0  0  0  0  0
    5.0991   -1.0452    1.2411 H   0  0  0  0  0  0  0  0  0  0  0  0
   -2.7173   -1.8617    0.5028 C   0  0  0  0  0  0  0  0  0  0  0  0
   -3.0585   -1.6172   -0.5227 H   0  0  0  0  0  0  0  0  0  0  0  0
   -2.7766   -2.9598    0.6474 H   0  0  0  0  0  0  0  0  0  0  0  0
   -3.5216   -1.1176    1.5597 C   0  0  0  0  0  0  0  0  0  0  0  0
   -4.5780   -1.4476    1.5079 H   0  0  0  0  0  0  0  0  0  0  0  0
   -3.5102   -0.0222    1.4002 H   0  0  0  0  0  0  0  0  0  0  0  0
   -3.1510   -1.3294    2.5820 H   0  0  0  0  0  0  0  0  0  0  0  0
   -0.3077   -1.6557   -2.0383 C   0  0  0  0  0  0  0  0  0  0  0  0
   -1.3701   -1.5580   -2.3388 H   0  0  0  0  0  0  0  0  0  0  0  0
    0.2159   -2.2092   -2.8500 H   0  0  0  0  0  0  0  0  0  0  0  0
   -0.2024   -2.4229   -0.7315 C   0  0  0  0  0  0  0  0  0  0  0  0
    0.8489   -2.6207   -0.4420 H   0  0  0  0  0  0  0  0  0  0  0  0
   -0.7172   -3.4023   -0.7906 H   0  0  0  0  0  0  0  0  0  0  0  0
  2 13  1  0  0  0  0
  4  3  1  0  0  0  0
  5  8  1  6  0  0  0
  5  6  1  0  0  0  0
  5  2  1  0  0  0  0
  6 15  2  0  0  0  0
  7  6  1  0  0  0  0
  8  3  1  0  0  0  0
  9  8  1  0  0  0  0
 10  8  1  0  0  0  0
 11 12  1  0  0  0  0
 13 11  2  0  0  0  0
 13 14  1  0  0  0  0
 15 16  1  0  0  0  0
 15 11  1  0  0  0  0
 17 19  1  0  0  0  0
 17  1  1  0  0  0  0
 17 20  1  0  0  0  0
 18 17  1  0  0  0  0
 20 23  1  0  0  0  0
 21 20  1  0  0  0  0
 22 20  1  0  0  0  0
 24  3  1  0  0  0  0
 24 27  1  0  0  0  0
 25 24  1  0  0  0  0
 26 24  1  0  0  0  0
 27 28  1  0  0  0  0
 27  1  1  0  0  0  0
 29 27  1  0  0  0  0
M  END
