1,5,17
q = 0.0, confidence = 0.994

 31 30  0  0  0  0  0  0  0  0999 V2000
   -2.0459   -0.0000    0.4787 S   0  0  0  0  0  0  0  0  0  0  0  0
   -2.7315    1.3994   -0.5016 C   0  0  0  0  0  0  0  0  0  0  0  0
   -2.0635    2.7337   -0.1828 C   0  0  0  0  0  0  0  0  0  0  0  0
   -0.6215    2.8770   -0.6677 C   0  0  0  0  0  0  0  0  0  0  0  0
    0.3796    2.0899    0.0947 N   0  0  0  0  0  0  0  0  0  0  0  0
    0.5826    2.5528    1.4884 C   0  0  0  0  0  0  0  0  0  0  0  0
   -3.8131    1.4326   -0.2601 H   0  0  0  0  0  0  0  0  0  0  0  0
   -2.6178    1.1407   -1.5745 H   0  0  0  0  0  0  0  0  0  0  0  0
   -2.6590    3.5180   -0.6946 H   0  0  0  0  0  0  0  0  0  0  0  0
   -2.1477    2.9668    0.8994 H   0  0  0  0  0  0  0  0  0  0  0  0
   -0.3278    3.9485   -0.6111 H   0  0  0  0  0  0  0  0  0  0  0  0
   -0.5411    2.5698   -1.7306 H   0  0  0  0  0  0  0  0  0  0  0  0
    1.2888    2.1793   -0.3936 H   0  0  0  0  0  0  0  0  0  0  0  0
    1.4652    2.0360    1.9076 H   0  0  0  0  0  0  0  0  0  0  0  0
   -0.2983    2.3122    2.1118 H   0  0  0  0  0  0  0  0  0  0  0  0
    0.7538    3.6502    1.5120 H   0  0  0  0  0  0  0  0  0  0  0  0
    0.3796   -2.0899    0.0947 N   0  0  0  0  0  0  0  0  0  0  0  0
   -2.7314   -1.3995   -0.5016 C   0  0  0  0  0  0  0  0  0  0  0  0
   -0.6214   -2.8771   -0.6677 C   0  0  0  0  0  0  0  0  0  0  0  0
    0.5827   -2.5527    1.4885 C   0  0  0  0  0  0  0  0  0  0  0  0
    1.2889   -2.1792   -0.3936 H   0  0  0  0  0  0  0  0  0  0  0  0
   -2.0634   -2.7338   -0.1828 C   0  0  0  0  0  0  0  0  0  0  0  0
   -3.8130   -1.4327   -0.2602 H   0  0  0  0  0  0  0  0  0  0  0  0
   -2.6177   -1.1407   -1.5746 H   0  0  0  0  0  0  0  0  0  0  0  0
   -0.3277   -3.9485   -0.6111 H   0  0  0  0  0  0  0  0  0  0  0  0
   -0.5410   -2.5698   -1.7306 H   0  0  0  0  0  0  0  0  0  0  0  0
    1.4652   -2.0359    1.9077 H   0  0  0  0  0  0  0  0  0  0  0  0
   -0.2983   -2.3122    2.1118 H   0  0  0  0  0  0  0  0  0  0  0  0
    0.7538   -3.6502    1.5121 H   0  0  0  0  0  0  0  0  0  0  0  0
   -2.6589   -3.5180   -0.6947 H   0  0  0  0  0  0  0  0  0  0  0  0
   -2.1477   -2.9669    0.8994 H   0  0  0  0  0  0  0  0  0  0  0  0
  2  7  1  0  0  0  0
  2  3  1  0  0  0  0
  2  1  1  0  0  0  0
  3 10  1  0  0  0  0
  4 11  1  0  0  0  0
  4  3  1  0  0  0  0
  4  5  1  0  0  0  0
  5  6  1  0  0  0  0
  6 16  1  0  0  0  0
  6 14  1  0  0  0  0
  6 15  1  0  0  0  0
  8  2  1  0  0  0  0
  9  3  1  0  0  0  0
 12  4  1  0  0  0  0
 13  5  1  0  0  0  0
 17 20  1  0  0  0  0
 18 23  1  0  0  0  0
 18 22  1  0  0  0  0
 18  1  1  0  0  0  0
 19 25  1  0  0  0  0
 19 22  1  0  0  0  0
 19 17  1  0  0  0  0
 20 29  1  0  0  0  0
 20 27  1  0  0  0  0
 20 28  1  0  0  0  0
 21 17  1  0  0  0  0
 22 31  1  0  0  0  0
 24 18  1  0  0  0  0
 26 19  1  0  0  0  0
 30 22  1  0  0  0  0
M  END
