1,2,5
q = -1.0, confidence = 0.004

 27 28  0  0  0  0  0  0  0  0999 V2000
   -0.0654    0.8781    2.2159 S   0  0  0  0  0  1  0  0  0  0  0  0
    0.5916   -1.1304   -1.6181 N   0  0  0  0  0  2  0  0  0  0  0  0
    2.3979   -1.9304   -2.6621 N   0  0  0  0  0  0  0  0  0  0  0  0
    2.7095   -0.6231   -0.6377 N   0  0  0  0  0  0  0  0  0  0  0  0
    1.9365   -0.0866    0.2733 N   0  0  0  0  0  2  0  0  0  0  0  0
    0.1696   -1.8384   -2.7122 C   0  0  0  0  0  0  0  0  0  0  0  0
   -0.8891   -1.9484   -2.9686 H   0  0  0  0  0  0  0  0  0  0  0  0
    1.2884   -2.3334   -3.3763 C   0  0  0  0  0  0  0  0  0  0  0  0
    1.3762   -2.9321   -4.2883 H   0  0  0  0  0  0  0  0  0  0  0  0
    1.9472   -1.1988   -1.5971 C   0  0  0  0  0  0  0  0  0  0  0  0
    2.5405    0.6148    1.3251 C   0  0  0  0  0  0  0  0  0  0  0  0
    3.9425    0.7950    1.4202 C   0  0  0  0  0  0  0  0  0  0  0  0
    4.5804    0.3704    0.6336 H   0  0  0  0  0  0  0  0  0  0  0  0
    4.4732    1.4974    2.4972 C   0  0  0  0  0  0  0  0  0  0  0  0
    5.5600    1.6427    2.5782 H   0  0  0  0  0  0  0  0  0  0  0  0
    3.6111    2.0262    3.4891 C   0  0  0  0  0  0  0  0  0  0  0  0
    4.0352    2.5808    4.3397 H   0  0  0  0  0  0  0  0  0  0  0  0
    2.2289    1.8576    3.4032 C   0  0  0  0  0  0  0  0  0  0  0  0
    1.5641    2.2717    4.1755 H   0  0  0  0  0  0  0  0  0  0  0  0
    1.6596    1.1486    2.3176 C   0  0  0  0  0  0  0  0  0  0  0  0
    3.8073   -2.1574   -2.9976 C   0  0  0  0  0  0  0  0  0  0  0  0
    4.3470   -2.2969   -2.0407 H   0  0  0  0  0  0  0  0  0  0  0  0
    3.8581   -3.1146   -3.5525 H   0  0  0  0  0  0  0  0  0  0  0  0
    4.4107   -1.0087   -3.8011 C   0  0  0  0  0  0  0  0  0  0  0  0
    5.4700   -1.2313   -4.0353 H   0  0  0  0  0  0  0  0  0  0  0  0
    4.3787   -0.0648   -3.2221 H   0  0  0  0  0  0  0  0  0  0  0  0
    3.8720   -0.8566   -4.7573 H   0  0  0  0  0  0  0  0  0  0  0  0
  1 20  1  0  0  0  0
  2 10  1  0  0  0  0
  3 10  1  0  0  0  0
  4  5  1  0  0  0  0
  5 11  1  0  0  0  0
  6  2  1  0  0  0  0
  7  6  1  0  0  0  0
  8  6  2  0  0  0  0
  8  3  1  0  0  0  0
  9  8  1  0  0  0  0
 10  4  2  0  0  0  0
 11 12  2  0  0  0  0
 11 20  1  0  0  0  0
 12 14  1  0  0  0  0
 13 12  1  0  0  0  0
 14 15  1  0  0  0  0
 14 16  2  0  0  0  0
 16 17  1  0  0  0  0
 18 16  1  0  0  0  0
 18 19  1  0  0  0  0
 20 18  2  0  0  0  0
 21  3  1  0  0  0  0
 21 22  1  0  0  0  0
 23 21  1  0  0  0  0
 24 26  1  0  0  0  0
 24 21  1  0  0  0  0
 25 24  1  0  0  0  0
 27 24  1  0  0  0  0
M  END
