1,28,29
q = -2.0, confidence = 0.944

 33 34  0  0  0  0  0  0  0  0999 V2000
   -1.9401    1.5147   -0.0338 S   0  0  0  0  0  1  0  0  0  0  0  0
   -3.2975    0.3532    0.0163 C   0  0  0  0  0  0  0  0  0  0  0  0
   -1.6161   -2.6734    0.0715 C   0  0  0  0  0  0  0  0  0  0  0  0
   -0.1910   -2.9585    0.0791 C   0  0  0  0  0  0  0  0  0  0  0  0
    1.7664   -3.7142    0.0627 C   0  0  0  0  0  0  0  0  0  0  0  0
    2.9431   -4.6248    0.0166 C   0  0  0  0  0  0  0  0  0  0  0  0
    4.3033   -3.9436    0.0080 C   0  0  0  0  0  0  0  0  0  0  0  0
    5.0918   -4.7134   -0.0713 H   0  0  0  0  0  0  0  0  0  0  0  0
    4.4449   -3.3499    0.9345 H   0  0  0  0  0  0  0  0  0  0  0  0
    4.3762   -3.2211   -0.8301 H   0  0  0  0  0  0  0  0  0  0  0  0
   -2.6496   -3.7467    0.0514 C   0  0  0  0  0  0  0  0  0  0  0  0
   -3.3023   -3.6698    0.9456 H   0  0  0  0  0  0  0  0  0  0  0  0
   -2.1598   -4.7366    0.0281 H   0  0  0  0  0  0  0  0  0  0  0  0
   -3.3116   -3.6287   -0.8311 H   0  0  0  0  0  0  0  0  0  0  0  0
   -5.8271    0.4209    0.0066 C   0  0  0  0  0  0  0  0  0  0  0  0
   -6.8974    1.3460   -0.0355 C   0  0  0  0  0  0  0  0  0  0  0  0
   -6.6795    2.4257   -0.0765 H   0  0  0  0  0  0  0  0  0  0  0  0
   -8.2225    0.8999   -0.0258 C   0  0  0  0  0  0  0  0  0  0  0  0
   -9.0400    1.6358   -0.0591 H   0  0  0  0  0  0  0  0  0  0  0  0
   -8.5076   -0.4747    0.0259 C   0  0  0  0  0  0  0  0  0  0  0  0
   -9.5496   -0.8267    0.0336 H   0  0  0  0  0  0  0  0  0  0  0  0
   -7.4459   -1.3912    0.0676 C   0  0  0  0  0  0  0  0  0  0  0  0
   -7.6550   -2.4712    0.1086 H   0  0  0  0  0  0  0  0  0  0  0  0
   -6.1113   -0.9620    0.0587 C   0  0  0  0  0  0  0  0  0  0  0  0
   -5.2779   -1.6730    0.0914 H   0  0  0  0  0  0  0  0  0  0  0  0
   -4.5278    0.9525   -0.0060 N   0  0  0  0  0  0  0  0  0  0  0  0
   -3.1811   -0.9601    0.0594 N   0  0  0  0  0  0  0  0  0  0  0  0
   -1.9002   -1.3831    0.0774 N   0  0  0  0  0  2  0  0  0  0  0  0
    0.6779   -1.8904    0.1124 N   0  0  0  0  0  2  0  0  0  0  0  0
    1.9174   -2.3590    0.1036 N   0  0  0  0  0  0  0  0  0  0  0  0
    0.4650   -4.1218    0.0468 N   0  0  0  0  0  2  0  0  0  0  0  0
    2.8124   -5.8410   -0.0195 O   0  0  0  0  0  0  0  0  0  0  0  0
   -4.4798    1.9729   -0.0429 H   0  0  0  0  0  0  0  0  0  0  0  0
  1  2  1  0  0  0  0
  2 27  2  0  0  0  0
  3 28  1  0  0  0  0
  3  4  2  0  0  0  0
  4 29  1  0  0  0  0
  5 30  2  0  0  0  0
  6  5  1  0  0  0  0
  7  6  1  0  0  0  0
  7  9  1  0  0  0  0
  8  7  1  0  0  0  0
 10  7  1  0  0  0  0
 11  3  1  0  0  0  0
 11 12  1  0  0  0  0
 13 11  1  0  0  0  0
 14 11  1  0  0  0  0
 15 24  1  0  0  0  0
 16 18  1  0  0  0  0
 16 15  2  0  0  0  0
 17 16  1  0  0  0  0
 18 20  2  0  0  0  0
 19 18  1  0  0  0  0
 20 21  1  0  0  0  0
 20 22  1  0  0  0  0
 22 23  1  0  0  0  0
 24 22  2  0  0  0  0
 24 25  1  0  0  0  0
 26 15  1  0  0  0  0
 26  2  1  0  0  0  0
 27 28  1  0  0  0  0
 30 29  1  0  0  0  0
 31  5  1  0  0  0  0
 31  4  1  0  0  0  0
 32  6  2  0  0  0  0
 33 26  1  0  0  0  0
M  END
