1,2,10
q = -1.0, confidence = 0.0

 24 24  0  0  0  0  0  0  0  0999 V2000
   -2.0101   -1.5413    0.0006 S   0  0  0  0  0  1  0  0  0  0  0  0
    1.7805   -0.0784    0.0002 N   0  0  0  0  0  2  0  0  0  0  0  0
    2.9890   -0.6646   -0.0001 C   0  0  0  0  0  0  0  0  0  0  0  0
    4.1562    0.1167   -0.0004 C   0  0  0  0  0  0  0  0  0  0  0  0
    4.1244    1.4606   -0.0007 N   0  0  0  0  0  0  0  0  0  0  0  0
    2.9178    2.0380   -0.0004 C   0  0  0  0  0  0  0  0  0  0  0  0
    1.7130    1.2983    0.0001 C   0  0  0  0  0  0  0  0  0  0  0  0
    0.3646    1.8168    0.0002 C   0  0  0  0  0  0  0  0  0  0  0  0
   -0.0227    3.2580    0.0007 C   0  0  0  0  0  0  0  0  0  0  0  0
   -0.5532    0.8442   -0.0002 N   0  0  0  0  0  2  0  0  0  0  0  0
   -1.8517    1.1819   -0.0002 N   0  0  0  0  0  0  0  0  0  0  0  0
   -2.6379    0.1001   -0.0017 C   0  0  0  0  0  0  0  0  0  0  0  0
   -3.9803    0.2658   -0.0068 N   0  0  0  0  0  0  0  0  0  0  0  0
   -4.5338   -0.5924    0.0013 H   0  0  0  0  0  0  0  0  0  0  0  0
   -4.6628    1.5431    0.0033 C   0  0  0  0  0  0  0  0  0  0  0  0
    2.9795   -1.7675    0.0001 H   0  0  0  0  0  0  0  0  0  0  0  0
    5.1450   -0.3716   -0.0007 H   0  0  0  0  0  0  0  0  0  0  0  0
   -3.9004    2.3393   -0.0644 H   0  0  0  0  0  0  0  0  0  0  0  0
   -5.2461    1.6837    0.9386 H   0  0  0  0  0  0  0  0  0  0  0  0
   -5.3564    1.6303   -0.8592 H   0  0  0  0  0  0  0  0  0  0  0  0
    2.8862    3.1407   -0.0007 H   0  0  0  0  0  0  0  0  0  0  0  0
    0.8586    3.9236    0.0089 H   0  0  0  0  0  0  0  0  0  0  0  0
   -0.6560    3.4869    0.8826 H   0  0  0  0  0  0  0  0  0  0  0  0
   -0.6424    3.4920   -0.8897 H   0  0  0  0  0  0  0  0  0  0  0  0
  3 16  1  0  0  0  0
  3  2  1  0  0  0  0
  4  3  2  0  0  0  0
  5  4  1  0  0  0  0
  5  6  2  0  0  0  0
  6  7  1  0  0  0  0
  7  2  1  0  0  0  0
  7  8  2  0  0  0  0
  8  9  1  0  0  0  0
  9 22  1  0  0  0  0
  9 23  1  0  0  0  0
 10  8  1  0  0  0  0
 11 10  1  0  0  0  0
 12 11  2  0  0  0  0
 12  1  1  0  0  0  0
 13 12  1  0  0  0  0
 13 14  1  0  0  0  0
 13 15  1  0  0  0  0
 15 19  1  0  0  0  0
 17  4  1  0  0  0  0
 18 15  1  0  0  0  0
 20 15  1  0  0  0  0
 21  6  1  0  0  0  0
 24  9  1  0  0  0  0
M  END
