1,2,4
q = -1.0, confidence = 0.002

 35 36  0  0  0  0  0  0  0  0999 V2000
    0.2614   -2.1947    0.0000 S   0  0  0  0  0  1  0  0  0  0  0  0
   -2.7916    0.8807   -0.0000 N   0  0  0  0  0  2  0  0  0  0  0  0
   -2.0805    2.0657   -0.0000 C   0  0  0  0  0  0  0  0  0  0  0  0
   -0.1935    0.6658   -0.0000 N   0  0  0  0  0  2  0  0  0  0  0  0
    1.1300    0.4277   -0.0000 N   0  0  0  0  0  0  0  0  0  0  0  0
    2.7407   -1.2644   -0.0000 N   0  0  0  0  0  0  0  0  0  0  0  0
    2.8528   -2.2816    0.0000 H   0  0  0  0  0  0  0  0  0  0  0  0
    7.8343    1.4265    0.0000 C   0  0  0  0  0  0  0  0  0  0  0  0
    8.4321    1.1405    0.8909 H   0  0  0  0  0  0  0  0  0  0  0  0
    7.7357    2.5292   -0.0000 H   0  0  0  0  0  0  0  0  0  0  0  0
    8.4322    1.1404   -0.8908 H   0  0  0  0  0  0  0  0  0  0  0  0
    6.3851   -0.6590    0.0000 C   0  0  0  0  0  0  0  0  0  0  0  0
    7.3005   -1.2716    0.0000 H   0  0  0  0  0  0  0  0  0  0  0  0
   -0.6311    1.9310   -0.0000 C   0  0  0  0  0  0  0  0  0  0  0  0
    1.4343   -0.8717   -0.0000 C   0  0  0  0  0  0  0  0  0  0  0  0
   -2.7825    3.2886    0.0000 C   0  0  0  0  0  0  0  0  0  0  0  0
   -2.2247    4.2343    0.0000 H   0  0  0  0  0  0  0  0  0  0  0  0
   -4.1357    0.8782    0.0000 C   0  0  0  0  0  0  0  0  0  0  0  0
   -4.5915   -0.1267    0.0000 H   0  0  0  0  0  0  0  0  0  0  0  0
    0.3414    3.0648   -0.0000 C   0  0  0  0  0  0  0  0  0  0  0  0
    1.0051    3.0055    0.8876 H   0  0  0  0  0  0  0  0  0  0  0  0
   -0.1621    4.0471   -0.0000 H   0  0  0  0  0  0  0  0  0  0  0  0
    1.0051    3.0055   -0.8877 H   0  0  0  0  0  0  0  0  0  0  0  0
    5.1432   -1.2958    0.0000 C   0  0  0  0  0  0  0  0  0  0  0  0
    5.0920   -2.3968    0.0000 H   0  0  0  0  0  0  0  0  0  0  0  0
    6.4879    0.7490    0.0000 C   0  0  0  0  0  0  0  0  0  0  0  0
    5.2871    1.4840   -0.0000 C   0  0  0  0  0  0  0  0  0  0  0  0
    5.3333    2.5847   -0.0000 H   0  0  0  0  0  0  0  0  0  0  0  0
   -4.1824    3.2894    0.0000 C   0  0  0  0  0  0  0  0  0  0  0  0
   -4.7304    4.2434    0.0001 H   0  0  0  0  0  0  0  0  0  0  0  0
    3.9456   -0.5419   -0.0000 C   0  0  0  0  0  0  0  0  0  0  0  0
    4.0291    0.8663   -0.0000 C   0  0  0  0  0  0  0  0  0  0  0  0
    3.1043    1.4535   -0.0000 H   0  0  0  0  0  0  0  0  0  0  0  0
   -4.8742    2.0686    0.0000 C   0  0  0  0  0  0  0  0  0  0  0  0
   -5.9721    2.0271    0.0001 H   0  0  0  0  0  0  0  0  0  0  0  0
  2  3  1  0  0  0  0
  2 18  1  0  0  0  0
  3 16  1  0  0  0  0
  5  4  1  0  0  0  0
  5 15  2  0  0  0  0
  6 15  1  0  0  0  0
  6 31  1  0  0  0  0
  6  7  1  0  0  0  0
  8  9  1  0  0  0  0
 10  8  1  0  0  0  0
 11  8  1  0  0  0  0
 12 13  1  0  0  0  0
 14  4  1  0  0  0  0
 14  3  2  0  0  0  0
 15  1  1  0  0  0  0
 16 29  2  0  0  0  0
 17 16  1  0  0  0  0
 18 34  2  0  0  0  0
 19 18  1  0  0  0  0
 20 22  1  0  0  0  0
 20 14  1  0  0  0  0
 20 21  1  0  0  0  0
 23 20  1  0  0  0  0
 24 25  1  0  0  0  0
 24 12  1  0  0  0  0
 26  8  1  0  0  0  0
 26 12  2  0  0  0  0
 27 26  1  0  0  0  0
 28 27  1  0  0  0  0
 29 30  1  0  0  0  0
 31 24  2  0  0  0  0
 32 27  2  0  0  0  0
 32 31  1  0  0  0  0
 33 32  1  0  0  0  0
 34 29  1  0  0  0  0
 34 35  1  0  0  0  0
M  END
