1,4,21
q = -1.0, confidence = 0.0

 29 30  0  0  0  0  0  0  0  0999 V2000
   -0.3011   -0.8120    0.0001 N   0  0  0  0  0  2  0  0  0  0  0  0
    1.0404   -0.7154    0.0006 N   0  0  0  0  0  0  0  0  0  0  0  0
    1.4313    0.5566   -0.0004 C   0  0  0  0  0  0  0  0  0  0  0  0
    0.2997    1.9052   -0.0018 S   0  0  0  0  0  1  0  0  0  0  0  0
    2.7536    0.8911   -0.0001 N   0  0  0  0  0  0  0  0  0  0  0  0
    2.9130    1.9015   -0.0007 H   0  0  0  0  0  0  0  0  0  0  0  0
    3.9236    0.1119    0.0001 C   0  0  0  0  0  0  0  0  0  0  0  0
    3.9276   -1.3001    0.0010 C   0  0  0  0  0  0  0  0  0  0  0  0
    2.9698   -1.8331    0.0015 H   0  0  0  0  0  0  0  0  0  0  0  0
    5.1509   -1.9839    0.0012 C   0  0  0  0  0  0  0  0  0  0  0  0
    5.1435   -3.0847    0.0019 H   0  0  0  0  0  0  0  0  0  0  0  0
    6.3727   -1.2930    0.0006 C   0  0  0  0  0  0  0  0  0  0  0  0
    7.3248   -1.8436    0.0007 H   0  0  0  0  0  0  0  0  0  0  0  0
    6.3652    0.1115   -0.0003 C   0  0  0  0  0  0  0  0  0  0  0  0
    7.3120    0.6723   -0.0008 H   0  0  0  0  0  0  0  0  0  0  0  0
    5.1540    0.8102   -0.0005 C   0  0  0  0  0  0  0  0  0  0  0  0
    5.1532    1.9123   -0.0012 H   0  0  0  0  0  0  0  0  0  0  0  0
   -0.8653   -2.0154    0.0009 C   0  0  0  0  0  0  0  0  0  0  0  0
   -0.2485   -2.9261    0.0019 H   0  0  0  0  0  0  0  0  0  0  0  0
   -2.3023   -2.0000    0.0006 C   0  0  0  0  0  0  0  0  0  0  0  0
   -2.8262   -0.7269   -0.0007 N   0  0  0  0  0  2  0  0  0  0  0  0
   -4.1556   -0.5425   -0.0011 C   0  0  0  0  0  0  0  0  0  0  0  0
   -4.4698    0.5147   -0.0021 H   0  0  0  0  0  0  0  0  0  0  0  0
   -5.0512   -1.6212   -0.0003 C   0  0  0  0  0  0  0  0  0  0  0  0
   -6.1332   -1.4300   -0.0007 H   0  0  0  0  0  0  0  0  0  0  0  0
   -4.5375   -2.9300    0.0010 C   0  0  0  0  0  0  0  0  0  0  0  0
   -5.2167   -3.7956    0.0017 H   0  0  0  0  0  0  0  0  0  0  0  0
   -3.1516   -3.1252    0.0015 C   0  0  0  0  0  0  0  0  0  0  0  0
   -2.7143   -4.1337    0.0025 H   0  0  0  0  0  0  0  0  0  0  0  0
  1  2  1  0  0  0  0
  1 18  1  0  0  0  0
  3  5  1  0  0  0  0
  3  2  2  0  0  0  0
  4  3  1  0  0  0  0
  5  7  1  0  0  0  0
  6  5  1  0  0  0  0
  7  8  1  0  0  0  0
  8 10  2  0  0  0  0
  8  9  1  0  0  0  0
 10 11  1  0  0  0  0
 12 13  1  0  0  0  0
 12 10  1  0  0  0  0
 14 12  2  0  0  0  0
 15 14  1  0  0  0  0
 16 14  1  0  0  0  0
 16  7  2  0  0  0  0
 17 16  1  0  0  0  0
 18 19  1  0  0  0  0
 20 18  2  0  0  0  0
 20 28  1  0  0  0  0
 21 20  1  0  0  0  0
 22 21  1  0  0  0  0
 22 24  2  0  0  0  0
 23 22  1  0  0  0  0
 24 26  1  0  0  0  0
 25 24  1  0  0  0  0
 26 28  2  0  0  0  0
 26 27  1  0  0  0  0
 28 29  1  0  0  0  0
M  END
