1,2,6
q = 0.0, confidence = 0.978

 22 22  0  0  1  0  0  0  0  0999 V2000
   -2.8921    0.2342   -0.9174 S   0  0  0  0  0  1  0  0  0  0  0  0
    1.5311    0.4530   -0.1655 N   0  0  0  0  0  2  0  0  0  0  0  0
    3.6502   -2.5687   -0.2536 N   0  0  0  0  0  0  0  0  0  0  0  0
    2.9931   -3.2938    0.0283 H   0  0  0  0  0  0  0  0  0  0  0  0
    4.6212   -2.7762   -0.0218 H   0  0  0  0  0  0  0  0  0  0  0  0
   -0.4071   -1.2979   -0.4285 N   0  0  0  0  0  2  0  0  0  0  0  0
   -1.5218   -2.0179   -0.3716 N   0  0  0  0  0  0  0  0  0  0  0  0
   -1.4865   -2.9747    0.0097 H   0  0  0  0  0  0  0  0  0  0  0  0
   -3.8195   -2.1827   -0.2613 N   0  0  0  0  0  0  0  0  0  0  0  0
   -3.7253   -3.0772    0.2245 H   0  0  0  0  0  0  0  0  0  0  0  0
   -4.7273   -1.7202   -0.2148 H   0  0  0  0  0  0  0  0  0  0  0  0
    2.4429    1.4265   -0.1638 C   0  0  0  0  0  3  0  0  0  0  0  0
    2.0325    2.4517   -0.1535 H   0  0  0  0  0  0  0  0  0  0  0  0
    3.8176    1.1254   -0.1732 C   0  0  0  0  0  0  0  0  0  0  0  0
    4.5610    1.9353   -0.1650 H   0  0  0  0  0  0  0  0  0  0  0  0
    4.2208   -0.2089   -0.1771 C   0  0  0  0  0  0  0  0  0  0  0  0
    5.2910   -0.4698   -0.1757 H   0  0  0  0  0  0  0  0  0  0  0  0
    3.2582   -1.2496   -0.1913 C   0  0  0  0  0  0  0  0  0  0  0  0
    1.8863   -0.8533   -0.1999 C   0  0  0  0  0  0  0  0  0  0  0  0
    0.7733   -1.7983   -0.2451 C   0  0  0  0  0  3  0  0  0  0  0  0
    0.9321   -2.8832   -0.0732 H   0  0  0  0  0  0  0  0  0  0  0  0
   -2.7497   -1.3727   -0.4827 C   0  0  2  0  0  3  0  0  0  0  0  0
  2 12  1  0  0  0  0
  3 18  1  0  0  0  0
  3  5  1  0  0  0  0
  3  4  1  0  0  0  0
  6  7  1  0  0  0  0
  6 20  1  0  0  0  0
  7  8  1  0  0  0  0
  9 11  1  0  0  0  0
  9 10  1  0  0  0  0
 12 13  1  0  0  0  0
 14 15  1  0  0  0  0
 14 12  1  0  0  0  0
 16 17  1  0  0  0  0
 16 14  2  0  0  0  0
 18 16  1  0  0  0  0
 19 18  2  0  0  0  0
 19  2  1  0  0  0  0
 20 19  1  0  0  0  0
 20 21  1  0  0  0  0
 22  1  1  6  0  0  0
 22  7  1  0  0  0  0
 22  9  1  0  0  0  0
M  END
