1,2,3
q = -1.0, confidence = 0.0

 28 28  0  0  1  0  0  0  0  0999 V2000
   -0.1840    0.3645    1.6938 S   0  0  0  0  0  1  0  0  0  0  0  0
    2.7069   -0.4236   -1.1546 N   0  0  0  0  0  0  0  0  0  0  0  0
    2.1291    1.4751    0.2910 N   0  0  0  0  0  0  0  0  0  0  0  0
    2.9275   -1.6462   -1.9425 C   0  0  0  0  0  0  0  0  0  0  0  0
    2.0119   -1.8813   -2.5154 H   0  0  0  0  0  0  0  0  0  0  0  0
    3.1244   -2.4900   -1.2564 H   0  0  0  0  0  0  0  0  0  0  0  0
    3.7846   -1.5175   -2.6390 H   0  0  0  0  0  0  0  0  0  0  0  0
    3.8963   -0.0893   -0.3290 C   0  0  0  0  0  0  0  0  0  0  0  0
    4.7642    0.1346   -0.9913 H   0  0  0  0  0  0  0  0  0  0  0  0
    4.1496   -0.9808    0.2741 H   0  0  0  0  0  0  0  0  0  0  0  0
    3.5362    1.1083    0.5778 C   0  0  0  0  0  0  0  0  0  0  0  0
    3.6032    0.8294    1.6453 H   0  0  0  0  0  0  0  0  0  0  0  0
    4.2070    1.9809    0.4047 H   0  0  0  0  0  0  0  0  0  0  0  0
    2.3749    0.7348   -2.0229 C   0  0  0  0  0  0  0  0  0  0  0  0
    1.5182    0.4458   -2.6599 H   0  0  0  0  0  0  0  0  0  0  0  0
    3.2357    0.9654   -2.6929 H   0  0  0  0  0  0  0  0  0  0  0  0
    2.0179    1.9326   -1.1146 C   0  0  0  0  0  0  0  0  0  0  0  0
    2.6928    2.8028   -1.2868 H   0  0  0  0  0  0  0  0  0  0  0  0
    0.9794    2.2707   -1.2918 H   0  0  0  0  0  0  0  0  0  0  0  0
    1.5365    2.4172    1.2752 C   0  0  0  0  0  0  0  0  0  0  0  0
    2.0034    2.2082    2.2583 H   0  0  0  0  0  0  0  0  0  0  0  0
    1.7821    3.4670    0.9948 H   0  0  0  0  0  0  0  0  0  0  0  0
    0.0337    2.1866    1.3904 C   0  0  2  0  0  0  0  0  0  0  0  0
   -0.4558    2.4332    0.4215 H   0  0  0  0  0  0  0  0  0  0  0  0
   -0.6103    3.0095    2.5006 C   0  0  0  0  0  0  0  0  0  0  0  0
   -0.1680    2.7612    3.4864 H   0  0  0  0  0  0  0  0  0  0  0  0
   -1.6979    2.8069    2.5586 H   0  0  0  0  0  0  0  0  0  0  0  0
   -0.4784    4.0962    2.3189 H   0  0  0  0  0  0  0  0  0  0  0  0
  2  8  1  0  0  0  0
  3 11  1  0  0  0  0
  3 20  1  0  0  0  0
  4  6  1  0  0  0  0
  4  2  1  0  0  0  0
  5  4  1  0  0  0  0
  7  4  1  0  0  0  0
  8 10  1  0  0  0  0
  8 11  1  0  0  0  0
  9  8  1  0  0  0  0
 11 12  1  0  0  0  0
 13 11  1  0  0  0  0
 14  2  1  0  0  0  0
 14 17  1  0  0  0  0
 15 14  1  0  0  0  0
 16 14  1  0  0  0  0
 17  3  1  0  0  0  0
 18 17  1  0  0  0  0
 19 17  1  0  0  0  0
 20 23  1  0  0  0  0
 20 21  1  0  0  0  0
 22 20  1  0  0  0  0
 23 24  1  6  0  0  0
 23  1  1  0  0  0  0
 23 25  1  0  0  0  0
 25 27  1  0  0  0  0
 25 26  1  0  0  0  0
 28 25  1  0  0  0  0
M  END
