1,4,5
q = 0.0, confidence = 1.0

 41 42  0  0  1  0  0  0  0  0999 V2000
    0.4434    0.6246   -1.9239 S   0  0  0  0  0  0  0  0  0  0  0  0
   -3.2597    0.1591   -1.7402 S   0  0  0  0  0  0  0  0  0  0  0  0
   -3.4968   -2.0499    0.7734 S   0  0  0  0  0  0  0  0  0  0  0  0
    0.1041   -1.4803    0.4927 N   0  0  0  0  0  0  0  0  0  0  0  0
    2.6105   -0.3286   -0.0982 N   0  0  0  0  0  2  0  0  0  0  0  0
   -0.5218   -1.8028   -0.8190 C   0  0  0  0  0  0  0  0  0  0  0  0
    0.1460   -1.1958   -2.0436 C   0  0  0  0  0  0  0  0  0  0  0  0
   -0.9995    1.4406   -2.7343 C   0  0  0  0  0  0  0  0  0  0  0  0
   -2.2637    1.6841   -1.9229 C   0  0  0  0  0  0  0  0  0  0  0  0
   -4.1831    0.5504   -0.2041 C   0  0  0  0  0  0  0  0  0  0  0  0
   -4.7105   -0.7097    0.4830 C   0  0  0  0  0  0  0  0  0  0  0  0
   -2.1610   -1.1229    1.6211 C   0  0  0  0  0  0  0  0  0  0  0  0
   -0.8223   -1.8589    1.6058 C   0  0  0  0  0  0  0  0  0  0  0  0
    1.3612   -2.2396    0.7084 C   0  0  0  0  0  0  0  0  0  0  0  0
    2.5485   -1.6861   -0.0303 C   0  0  2  0  0  3  0  0  0  0  0  0
    3.5631   -2.5035   -0.5471 C   0  0  0  0  0  0  0  0  0  0  0  0
    4.6878   -1.9117   -1.1401 C   0  0  0  0  0  0  0  0  0  0  0  0
    4.7529   -0.5106   -1.1984 C   0  0  0  0  0  0  0  0  0  0  0  0
    3.6978    0.2411   -0.6748 C   0  0  0  0  0  0  0  0  0  0  0  0
   -1.5662   -1.4376   -0.7899 H   0  0  0  0  0  0  0  0  0  0  0  0
   -0.5675   -2.9123   -0.9455 H   0  0  0  0  0  0  0  0  0  0  0  0
   -0.4812   -1.3897   -2.9367 H   0  0  0  0  0  0  0  0  0  0  0  0
    1.1491   -1.6203   -2.2474 H   0  0  0  0  0  0  0  0  0  0  0  0
   -0.5674    2.4203   -3.0260 H   0  0  0  0  0  0  0  0  0  0  0  0
   -1.1980    0.8852   -3.6752 H   0  0  0  0  0  0  0  0  0  0  0  0
   -2.8642    2.4660   -2.4357 H   0  0  0  0  0  0  0  0  0  0  0  0
   -1.9939    2.0627   -0.9178 H   0  0  0  0  0  0  0  0  0  0  0  0
   -3.5115    1.1206    0.4695 H   0  0  0  0  0  0  0  0  0  0  0  0
   -5.0438    1.2107   -0.4419 H   0  0  0  0  0  0  0  0  0  0  0  0
   -5.4946   -1.1999   -0.1303 H   0  0  0  0  0  0  0  0  0  0  0  0
   -5.1849   -0.4159    1.4439 H   0  0  0  0  0  0  0  0  0  0  0  0
   -2.0111   -0.1426    1.1294 H   0  0  0  0  0  0  0  0  0  0  0  0
   -2.4576   -0.9229    2.6702 H   0  0  0  0  0  0  0  0  0  0  0  0
   -0.2836   -1.6171    2.5415 H   0  0  0  0  0  0  0  0  0  0  0  0
   -0.9826   -2.9655    1.5924 H   0  0  0  0  0  0  0  0  0  0  0  0
    1.2208   -3.3208    0.4726 H   0  0  0  0  0  0  0  0  0  0  0  0
    1.5941   -2.1673    1.7931 H   0  0  0  0  0  0  0  0  0  0  0  0
    3.4654   -3.5971   -0.4792 H   0  0  0  0  0  0  0  0  0  0  0  0
    5.4974   -2.5330   -1.5504 H   0  0  0  0  0  0  0  0  0  0  0  0
    5.6123    0.0047   -1.6502 H   0  0  0  0  0  0  0  0  0  0  0  0
    3.6996    1.3406   -0.7044 H   0  0  0  0  0  0  0  0  0  0  0  0
  2 10  1  0  0  0  0
  3 12  1  0  0  0  0
  4 14  1  0  0  0  0
  4 13  1  0  0  0  0
  5 15  1  0  0  0  0
  6 20  1  0  0  0  0
  6  4  1  0  0  0  0
  7  1  1  0  0  0  0
  7  6  1  0  0  0  0
  8  1  1  0  0  0  0
  8  9  1  0  0  0  0
  9  2  1  0  0  0  0
  9 27  1  0  0  0  0
 10 28  1  0  0  0  0
 10 11  1  0  0  0  0
 11  3  1  0  0  0  0
 11 31  1  0  0  0  0
 12 33  1  0  0  0  0
 13 12  1  0  0  0  0
 13 34  1  0  0  0  0
 14 37  1  0  0  0  0
 15 14  1  1  0  0  0
 16 38  1  0  0  0  0
 16 15  1  0  0  0  0
 17 16  2  0  0  0  0
 18 17  1  0  0  0  0
 18 19  2  0  0  0  0
 19  5  1  0  0  0  0
 21  6  1  0  0  0  0
 22  7  1  0  0  0  0
 23  7  1  0  0  0  0
 24  8  1  0  0  0  0
 25  8  1  0  0  0  0
 26  9  1  0  0  0  0
 29 10  1  0  0  0  0
 30 11  1  0  0  0  0
 32 12  1  0  0  0  0
 35 13  1  0  0  0  0
 36 14  1  0  0  0  0
 39 17  1  0  0  0  0
 40 18  1  0  0  0  0
 41 19  1  0  0  0  0
M  END
