2,5,7
q = -1.0, confidence = 0.032

 52 55  0  0  1  0  0  0  0  0999 V2000
    3.9100    2.3001   -0.2597 S   0  0  0  0  0  0  0  0  0  0  0  0
   -1.8383   -0.9908    0.0075 S   0  0  0  0  0  1  0  0  0  0  0  0
    3.3900   -2.5441    0.5780 O   0  0  0  0  0  0  0  0  0  0  0  0
    6.8973    1.7390   -0.0839 O   0  0  0  0  0  0  0  0  0  0  0  0
    2.4876    0.1200    0.0629 N   0  0  0  0  0  2  0  0  0  0  0  0
   -4.0048   -1.0662   -1.8519 O   0  0  0  0  0  0  0  0  0  0  0  0
    0.0407    1.2258   -0.2071 N   0  0  0  0  0  2  0  0  0  0  0  0
   -3.5419    1.1678   -0.2389 N   0  0  0  0  0  2  0  0  0  0  0  0
   -8.0244    0.7134    1.5401 O   0  0  0  0  0  0  0  0  0  0  0  0
   -4.9889   -0.7034   -0.9883 C   0  0  0  0  0  0  0  0  0  0  0  0
    1.0988    2.0824   -0.2964 C   0  0  0  0  0  0  0  0  0  0  0  0
    2.3905    1.4319   -0.1571 C   0  0  1  0  0  3  0  0  0  0  0  0
    6.1395    0.6210    0.0872 C   0  0  0  0  0  0  0  0  0  0  0  0
    4.7412    0.7942    0.0180 C   0  0  0  0  0  0  0  0  0  0  0  0
    6.6015   -0.6805    0.3248 C   0  0  0  0  0  0  0  0  0  0  0  0
    7.6792   -0.8816    0.3894 H   0  0  0  0  0  0  0  0  0  0  0  0
   -5.7649    0.9681    0.6246 C   0  0  0  0  0  0  0  0  0  0  0  0
   -5.5380    1.8815    1.1884 H   0  0  0  0  0  0  0  0  0  0  0  0
   -1.2331    1.6889   -0.3093 C   0  0  0  0  0  0  0  0  0  0  0  0
    3.8132   -0.2696    0.1725 C   0  0  0  0  0  0  0  0  0  0  0  0
   -6.2309   -1.3571   -0.8714 C   0  0  0  0  0  0  0  0  0  0  0  0
   -6.4337   -2.2608   -1.4616 H   0  0  0  0  0  0  0  0  0  0  0  0
   -6.9957    0.3043    0.7379 C   0  0  0  0  0  0  0  0  0  0  0  0
   -4.7283    0.4568   -0.1964 C   0  0  0  0  0  0  0  0  0  0  0  0
    0.9050    3.4602   -0.4972 C   0  0  0  0  0  0  0  0  0  0  0  0
    1.7734    4.1309   -0.5708 H   0  0  0  0  0  0  0  0  0  0  0  0
    3.7899   -3.8809    0.8121 C   0  0  0  0  0  0  0  0  0  0  0  0
    4.4074   -4.2733   -0.0264 H   0  0  0  0  0  0  0  0  0  0  0  0
    2.8469   -4.4522    0.8825 H   0  0  0  0  0  0  0  0  0  0  0  0
    4.3626   -3.9739    1.7617 H   0  0  0  0  0  0  0  0  0  0  0  0
   -0.4052    3.9507   -0.5949 C   0  0  0  0  0  0  0  0  0  0  0  0
   -0.5823    5.0257   -0.7452 H   0  0  0  0  0  0  0  0  0  0  0  0
    5.7019   -1.7593    0.4904 C   0  0  0  0  0  0  0  0  0  0  0  0
    6.1126   -2.7592    0.6799 H   0  0  0  0  0  0  0  0  0  0  0  0
   -1.4803    3.0607   -0.4992 C   0  0  0  0  0  0  0  0  0  0  0  0
   -2.5339    3.3675   -0.5632 H   0  0  0  0  0  0  0  0  0  0  0  0
   -7.2215   -0.8683   -0.0136 C   0  0  0  0  0  0  0  0  0  0  0  0
   -8.1906   -1.3777    0.0835 H   0  0  0  0  0  0  0  0  0  0  0  0
   -2.3288    0.6963   -0.2138 C   0  0  0  0  0  0  0  0  0  0  0  0
    8.3050    1.5984   -0.0182 C   0  0  0  0  0  0  0  0  0  0  0  0
    8.6350    1.2201    0.9753 H   0  0  0  0  0  0  0  0  0  0  0  0
    8.7284    2.6067   -0.1793 H   0  0  0  0  0  0  0  0  0  0  0  0
    8.6876    0.9132   -0.8076 H   0  0  0  0  0  0  0  0  0  0  0  0
   -7.8385    1.8828    2.3080 C   0  0  0  0  0  0  0  0  0  0  0  0
   -6.9895    1.7833    3.0226 H   0  0  0  0  0  0  0  0  0  0  0  0
   -8.7724    2.0368    2.8807 H   0  0  0  0  0  0  0  0  0  0  0  0
   -7.6555    2.7780    1.6700 H   0  0  0  0  0  0  0  0  0  0  0  0
    4.3103   -1.5871    0.4235 C   0  0  0  0  0  0  0  0  0  0  0  0
   -4.0969   -2.3140   -2.5104 C   0  0  0  0  0  0  0  0  0  0  0  0
   -4.2162   -3.1507   -1.7872 H   0  0  0  0  0  0  0  0  0  0  0  0
   -3.1455   -2.4468   -3.0573 H   0  0  0  0  0  0  0  0  0  0  0  0
   -4.9430   -2.3365   -3.2342 H   0  0  0  0  0  0  0  0  0  0  0  0
  1 12  1  0  0  0  0
  1 14  1  0  0  0  0
  3 27  1  0  0  0  0
  4 40  1  0  0  0  0
  4 13  1  0  0  0  0
  5 20  1  0  0  0  0
  6 10  1  0  0  0  0
  8 39  1  0  0  0  0
  8 24  1  0  0  0  0
  9 44  1  0  0  0  0
 10 21  2  0  0  0  0
 10 24  1  0  0  0  0
 11  7  1  0  0  0  0
 12 11  1  1  0  0  0
 12  5  1  0  0  0  0
 13 15  1  0  0  0  0
 14 13  2  0  0  0  0
 14 20  1  0  0  0  0
 15 16  1  0  0  0  0
 15 33  2  0  0  0  0
 17 23  1  0  0  0  0
 17 18  1  0  0  0  0
 19 39  2  0  0  0  0
 19  7  1  0  0  0  0
 20 48  2  0  0  0  0
 21 37  1  0  0  0  0
 22 21  1  0  0  0  0
 23  9  1  0  0  0  0
 24 17  2  0  0  0  0
 25 11  2  0  0  0  0
 26 25  1  0  0  0  0
 27 29  1  0  0  0  0
 27 30  1  0  0  0  0
 28 27  1  0  0  0  0
 31 35  2  0  0  0  0
 31 25  1  0  0  0  0
 32 31  1  0  0  0  0
 33 34  1  0  0  0  0
 35 19  1  0  0  0  0
 36 35  1  0  0  0  0
 37 38  1  0  0  0  0
 37 23  2  0  0  0  0
 39  2  1  0  0  0  0
 40 41  1  0  0  0  0
 42 40  1  0  0  0  0
 43 40  1  0  0  0  0
 44 46  1  0  0  0  0
 44 45  1  0  0  0  0
 47 44  1  0  0  0  0
 48 33  1  0  0  0  0
 48  3  1  0  0  0  0
 49  6  1  0  0  0  0
 49 50  1  0  0  0  0
 51 49  1  0  0  0  0
 52 49  1  0  0  0  0
M  END
