1,11,28
q = -1.0, confidence = 0.016

 28 27  0  0  1  0  0  0  0  0999 V2000
    0.6899    1.1121   -1.2691 O   0  0  0  0  0  1  0  0  0  0  0  0
    1.7617    1.7177   -1.0689 C   0  0  1  0  0  3  0  0  0  0  0  0
    2.2210    2.8413   -1.9554 C   0  0  0  0  0  0  0  0  0  0  0  0
    1.7174    2.6978   -2.9314 H   0  0  0  0  0  0  0  0  0  0  0  0
    1.7722    3.7637   -1.5212 H   0  0  0  0  0  0  0  0  0  0  0  0
    3.7365    2.9917   -2.0864 C   0  0  0  0  0  0  0  0  0  0  0  0
    3.9803    3.8500   -2.7413 H   0  0  0  0  0  0  0  0  0  0  0  0
    4.1943    2.0852   -2.5298 H   0  0  0  0  0  0  0  0  0  0  0  0
    4.2096    3.1618   -1.1006 H   0  0  0  0  0  0  0  0  0  0  0  0
    2.5519    1.4421   -0.0435 O   0  0  0  0  0  0  0  0  0  0  0  0
    2.1669    0.2556    0.7829 C   0  0  2  0  0  3  0  0  0  0  0  0
    2.7869    0.4888    2.1473 C   0  0  0  0  0  0  0  0  0  0  0  0
    3.8723    0.6730    1.9869 H   0  0  0  0  0  0  0  0  0  0  0  0
    2.7084   -0.4705    2.6987 H   0  0  0  0  0  0  0  0  0  0  0  0
    2.1699    1.6246    2.9584 C   0  0  0  0  0  0  0  0  0  0  0  0
    2.7807    1.8248    3.8599 H   0  0  0  0  0  0  0  0  0  0  0  0
    1.1457    1.3811    3.2982 H   0  0  0  0  0  0  0  0  0  0  0  0
    2.1218    2.5623    2.3700 H   0  0  0  0  0  0  0  0  0  0  0  0
    3.0374   -0.8048    0.1717 O   0  0  0  0  0  0  0  0  0  0  0  0
    2.4400   -1.7099   -0.5861 C   0  0  1  0  0  3  0  0  0  0  0  0
    3.3675   -2.6964   -1.2390 C   0  0  0  0  0  0  0  0  0  0  0  0
    4.0203   -3.1040   -0.4373 H   0  0  0  0  0  0  0  0  0  0  0  0
    4.0536   -2.1050   -1.8849 H   0  0  0  0  0  0  0  0  0  0  0  0
    2.6508   -3.7930   -2.0191 C   0  0  0  0  0  0  0  0  0  0  0  0
    3.3864   -4.4768   -2.4835 H   0  0  0  0  0  0  0  0  0  0  0  0
    2.0159   -3.3656   -2.8187 H   0  0  0  0  0  0  0  0  0  0  0  0
    1.9911   -4.3880   -1.3586 H   0  0  0  0  0  0  0  0  0  0  0  0
    1.2048   -1.7445   -0.7436 O   0  0  0  0  0  1  0  0  0  0  0  0
  2  1  1  1  0  0  0
  2 10  1  0  0  0  0
  3  5  1  0  0  0  0
  3  2  1  0  0  0  0
  4  3  1  0  0  0  0
  6  3  1  0  0  0  0
  6  9  1  0  0  0  0
  7  6  1  0  0  0  0
  8  6  1  0  0  0  0
 11 10  1  6  0  0  0
 11 12  1  0  0  0  0
 12 14  1  0  0  0  0
 12 15  1  0  0  0  0
 13 12  1  0  0  0  0
 15 17  1  0  0  0  0
 15 16  1  0  0  0  0
 18 15  1  0  0  0  0
 19 11  1  0  0  0  0
 20 28  1  1  0  0  0
 20 19  1  0  0  0  0
 21 20  1  0  0  0  0
 21 22  1  0  0  0  0
 23 21  1  0  0  0  0
 24 27  1  0  0  0  0
 24 21  1  0  0  0  0
 25 24  1  0  0  0  0
 26 24  1  0  0  0  0
M  END
