1,3,9
q = -2.0, confidence = 0.73

 30 30  0  0  1  0  0  0  0  0999 V2000
   -0.5464   -0.1236    2.2752 O   0  5  0  0  0  0  0  0  0  0  0  0
   -2.3716    0.5374    3.4442 O   0  0  0  0  0  0  0  0  0  0  0  0
   -1.5721   -0.5684   -0.2805 O   0  0  0  0  0  1  0  0  0  0  0  0
   -2.0061    2.7368   -1.3419 O   0  0  0  0  0  0  0  0  0  0  0  0
    0.1149    3.4353   -0.9303 O   0  0  0  0  0  0  0  0  0  0  0  0
   -1.6875    0.5114    2.4333 C   0  0  0  0  0  0  0  0  0  0  0  0
   -2.1102    1.2547    1.1109 C   0  0  1  0  0  0  0  0  0  0  0  0
   -2.9260    1.9700    1.3155 H   0  0  0  0  0  0  0  0  0  0  0  0
   -0.8006    1.8697    0.5677 C   0  0  0  0  0  3  0  0  0  0  0  0
   -0.3109    2.4917    1.3379 H   0  0  0  0  0  0  0  0  0  0  0  0
   -0.9952    2.7007   -0.6464 C   0  0  0  0  0  0  0  0  0  0  0  0
    0.0708    4.1846   -2.1460 C   0  0  0  0  0  0  0  0  0  0  0  0
    0.1560    3.5087   -3.0230 H   0  0  0  0  0  0  0  0  0  0  0  0
    0.9381    4.8689   -2.1196 H   0  0  0  0  0  0  0  0  0  0  0  0
   -0.8763    4.7537   -2.2323 H   0  0  0  0  0  0  0  0  0  0  0  0
   -2.5169    0.1373    0.2115 C   0  0  2  0  0  3  0  0  0  0  0  0
   -3.9048   -0.2560   -0.0326 C   0  0  0  0  0  0  0  0  0  0  0  0
   -4.9587    0.2484    0.7636 C   0  0  0  0  0  0  0  0  0  0  0  0
   -4.7369    0.9264    1.5999 H   0  0  0  0  0  0  0  0  0  0  0  0
   -6.2746   -0.1630    0.5310 C   0  0  0  0  0  0  0  0  0  0  0  0
   -7.0827    0.2241    1.1709 H   0  0  0  0  0  0  0  0  0  0  0  0
   -6.5865   -1.0693   -0.5039 C   0  0  0  0  0  0  0  0  0  0  0  0
   -5.5248   -1.5763   -1.2887 C   0  0  0  0  0  0  0  0  0  0  0  0
   -5.7457   -2.2940   -2.0945 H   0  0  0  0  0  0  0  0  0  0  0  0
   -4.2063   -1.1873   -1.0551 C   0  0  0  0  0  0  0  0  0  0  0  0
   -3.3836   -1.5926   -1.6611 H   0  0  0  0  0  0  0  0  0  0  0  0
   -8.0094   -1.4744   -0.7821 C   0  0  0  0  0  0  0  0  0  0  0  0
   -8.4252   -0.8882   -1.6302 H   0  0  0  0  0  0  0  0  0  0  0  0
   -8.6650   -1.2987    0.0925 H   0  0  0  0  0  0  0  0  0  0  0  0
   -8.0809   -2.5435   -1.0653 H   0  0  0  0  0  0  0  0  0  0  0  0
  1  6  1  0  0  0  0
  4 11  2  0  0  0  0
  5 11  1  0  0  0  0
  6  2  2  0  0  0  0
  7  8  1  1  0  0  0
  7  6  1  0  0  0  0
  9  7  1  0  0  0  0
  9 10  1  0  0  0  0
 11  9  1  0  0  0  0
 12 14  1  0  0  0  0
 12  5  1  0  0  0  0
 13 12  1  0  0  0  0
 15 12  1  0  0  0  0
 16  3  1  1  0  0  0
 16  7  1  0  0  0  0
 17 16  1  0  0  0  0
 17 18  1  0  0  0  0
 18 19  1  0  0  0  0
 20 18  2  0  0  0  0
 20 21  1  0  0  0  0
 22 20  1  0  0  0  0
 23 25  1  0  0  0  0
 23 22  2  0  0  0  0
 24 23  1  0  0  0  0
 25 17  2  0  0  0  0
 26 25  1  0  0  0  0
 27 22  1  0  0  0  0
 27 29  1  0  0  0  0
 28 27  1  0  0  0  0
 30 27  1  0  0  0  0
M  CHG  1   1  -1
M  END
