5,6,7
q = -1.0, confidence = 0.426

 50 52  0  0  1  0  0  0  0  0999 V2000
   -2.0623   -2.7473    0.3669 Si  0  0  0  0  0  0  0  0  0  0  0  0
    3.3251   -1.0317   -1.3323 Si  0  0  0  0  0  0  0  0  0  0  0  0
   -3.4309   -1.9476   -0.2722 O   0  0  0  0  0  0  0  0  0  0  0  0
    3.4697    0.3054   -0.2647 O   0  0  0  0  0  0  0  0  0  0  0  0
   -1.8233    0.3898   -0.1725 O   0  5  0  0  0  0  0  0  0  0  0  0
    0.9230    0.4643    0.8613 O   0  5  0  0  0  0  0  0  0  0  0  0
   -0.6026   -2.2710   -0.7148 C   0  0  2  0  0  3  0  0  0  0  0  0
    0.7750   -2.1695   -0.3394 C   0  0  0  0  0  0  0  0  0  0  0  0
    1.1821   -2.4334    0.6471 H   0  0  0  0  0  0  0  0  0  0  0  0
    1.5248   -1.5669   -1.4003 C   0  0  0  0  0  0  0  0  0  0  0  0
    0.5890   -1.3154   -2.4604 C   0  0  0  0  0  0  0  0  0  0  0  0
    0.8306   -0.8524   -3.4248 H   0  0  0  0  0  0  0  0  0  0  0  0
   -0.6981   -1.7489   -2.0497 C   0  0  0  0  0  0  0  0  0  0  0  0
   -1.6311   -1.6392   -2.6177 H   0  0  0  0  0  0  0  0  0  0  0  0
   -2.4582   -4.5707    0.1902 C   0  0  0  0  0  0  0  0  0  0  0  0
   -3.3202   -4.8562    0.8263 H   0  0  0  0  0  0  0  0  0  0  0  0
   -1.5855   -5.1890    0.4836 H   0  0  0  0  0  0  0  0  0  0  0  0
   -2.7087   -4.8096   -0.8628 H   0  0  0  0  0  0  0  0  0  0  0  0
   -1.7542   -2.2287    2.1459 C   0  0  0  0  0  0  0  0  0  0  0  0
   -1.5507   -1.1410    2.2103 H   0  0  0  0  0  0  0  0  0  0  0  0
   -0.8768   -2.7655    2.5624 H   0  0  0  0  0  0  0  0  0  0  0  0
   -2.6312   -2.4595    2.7835 H   0  0  0  0  0  0  0  0  0  0  0  0
    3.8927   -0.3777   -2.9911 C   0  0  0  0  0  0  0  0  0  0  0  0
    3.2780    0.4859   -3.3148 H   0  0  0  0  0  0  0  0  0  0  0  0
    3.8218   -1.1649   -3.7688 H   0  0  0  0  0  0  0  0  0  0  0  0
    4.9471   -0.0410   -2.9329 H   0  0  0  0  0  0  0  0  0  0  0  0
    4.3824   -2.4363   -0.6720 C   0  0  0  0  0  0  0  0  0  0  0  0
    4.0561   -2.7308    0.3460 H   0  0  0  0  0  0  0  0  0  0  0  0
    5.4492   -2.1394   -0.6141 H   0  0  0  0  0  0  0  0  0  0  0  0
    4.3016   -3.3266   -1.3284 H   0  0  0  0  0  0  0  0  0  0  0  0
    3.2971    0.2059    1.0894 C   0  0  0  0  0  0  0  0  0  0  0  0
    4.4046    0.0586    1.9416 C   0  0  0  0  0  0  0  0  0  0  0  0
    5.4040    0.0118    1.4841 H   0  0  0  0  0  0  0  0  0  0  0  0
    4.2361   -0.0216    3.3328 C   0  0  0  0  0  0  0  0  0  0  0  0
    5.1157   -0.1382    3.9832 H   0  0  0  0  0  0  0  0  0  0  0  0
    2.9474    0.0476    3.8871 C   0  0  0  0  0  0  0  0  0  0  0  0
    2.8078   -0.0132    4.9767 H   0  0  0  0  0  0  0  0  0  0  0  0
    1.8333    0.2043    3.0518 C   0  0  0  0  0  0  0  0  0  0  0  0
    0.8139    0.2742    3.4592 H   0  0  0  0  0  0  0  0  0  0  0  0
    1.9885    0.2858    1.6518 C   0  0  0  0  0  0  0  0  0  0  0  0
   -3.9446   -0.7285    0.0580 C   0  0  0  0  0  0  0  0  0  0  0  0
   -5.3190   -0.6218    0.3358 C   0  0  0  0  0  0  0  0  0  0  0  0
   -5.9216   -1.5405    0.2821 H   0  0  0  0  0  0  0  0  0  0  0  0
   -5.8943    0.6133    0.6668 C   0  0  0  0  0  0  0  0  0  0  0  0
   -6.9725    0.6733    0.8774 H   0  0  0  0  0  0  0  0  0  0  0  0
   -5.0910    1.7638    0.7388 C   0  0  0  0  0  0  0  0  0  0  0  0
   -5.5325    2.7349    1.0082 H   0  0  0  0  0  0  0  0  0  0  0  0
   -3.7199    1.6773    0.4670 C   0  0  0  0  0  0  0  0  0  0  0  0
   -3.0630    2.5579    0.5139 H   0  0  0  0  0  0  0  0  0  0  0  0
   -3.1350    0.4432    0.1109 C   0  0  0  0  0  0  0  0  0  0  0  0
  1 19  1  0  0  0  0
  2 27  1  0  0  0  0
  2  4  1  0  0  0  0
  3 41  1  0  0  0  0
  3  1  1  0  0  0  0
  4 31  1  0  0  0  0
  5 50  1  0  0  0  0
  6 40  1  0  0  0  0
  7  8  1  0  0  0  0
  7  1  1  1  0  0  0
  8  9  1  0  0  0  0
 10  2  1  0  0  0  0
 10  8  2  0  0  0  0
 11 13  2  0  0  0  0
 11 10  1  0  0  0  0
 12 11  1  0  0  0  0
 13  7  1  0  0  0  0
 14 13  1  0  0  0  0
 15  1  1  0  0  0  0
 15 17  1  0  0  0  0
 15 16  1  0  0  0  0
 18 15  1  0  0  0  0
 19 20  1  0  0  0  0
 19 21  1  0  0  0  0
 19 22  1  0  0  0  0
 23 26  1  0  0  0  0
 23  2  1  0  0  0  0
 24 23  1  0  0  0  0
 25 23  1  0  0  0  0
 27 29  1  0  0  0  0
 27 28  1  0  0  0  0
 30 27  1  0  0  0  0
 31 40  2  0  0  0  0
 31 32  1  0  0  0  0
 32 34  2  0  0  0  0
 33 32  1  0  0  0  0
 34 36  1  0  0  0  0
 34 35  1  0  0  0  0
 36 37  1  0  0  0  0
 38 39  1  0  0  0  0
 38 36  2  0  0  0  0
 40 38  1  0  0  0  0
 41 50  2  0  0  0  0
 41 42  1  0  0  0  0
 42 44  2  0  0  0  0
 43 42  1  0  0  0  0
 44 46  1  0  0  0  0
 44 45  1  0  0  0  0
 46 47  1  0  0  0  0
 48 49  1  0  0  0  0
 48 46  2  0  0  0  0
 50 48  1  0  0  0  0
M  CHG  2   5  -1   6  -1
M  END
