1,2,3
q = -1.0, confidence = 0.012

 20 19  0  0  1  0  0  0  0  0999 V2000
    0.9473    1.1892    2.0610 O   0  0  0  0  0  1  0  0  0  0  0  0
    0.1854    2.3660   -0.5101 O   0  0  0  0  0  1  0  0  0  0  0  0
   -1.6191    1.6359    1.3589 C   0  0  0  0  0  3  0  0  0  0  0  0
   -2.4003    2.0135    0.6670 H   0  0  0  0  0  0  0  0  0  0  0  0
   -2.2686    1.2643    2.6932 C   0  0  0  0  0  0  0  0  0  0  0  0
   -1.5539    0.7800    3.3892 H   0  0  0  0  0  0  0  0  0  0  0  0
   -3.1116    0.5611    2.5654 H   0  0  0  0  0  0  0  0  0  0  0  0
   -2.6885    2.1621    3.1990 H   0  0  0  0  0  0  0  0  0  0  0  0
   -0.6518    2.8594    1.6273 C   0  0  1  0  0  0  0  0  0  0  0  0
   -1.1201    3.7150    2.1587 H   0  0  0  0  0  0  0  0  0  0  0  0
    0.5321    2.3164    2.4014 C   0  0  2  0  0  3  0  0  0  0  0  0
    1.1723    3.0812    3.5080 C   0  0  0  0  0  0  0  0  0  0  0  0
    2.0786    2.5651    3.8714 H   0  0  0  0  0  0  0  0  0  0  0  0
    0.4425    3.1819    4.3407 H   0  0  0  0  0  0  0  0  0  0  0  0
    1.4162    4.1142    3.1848 H   0  0  0  0  0  0  0  0  0  0  0  0
   -0.1083    3.2831    0.2772 C   0  0  2  0  0  3  0  0  0  0  0  0
    0.0446    4.7220   -0.0856 C   0  0  0  0  0  0  0  0  0  0  0  0
    0.4893    4.8295   -1.0908 H   0  0  0  0  0  0  0  0  0  0  0  0
    0.6689    5.2483    0.6665 H   0  0  0  0  0  0  0  0  0  0  0  0
   -0.9508    5.2152   -0.0594 H   0  0  0  0  0  0  0  0  0  0  0  0
  3  9  1  0  0  0  0
  3  5  1  0  0  0  0
  4  3  1  0  0  0  0
  5  8  1  0  0  0  0
  5  6  1  0  0  0  0
  7  5  1  0  0  0  0
  9 10  1  1  0  0  0
  9 11  1  0  0  0  0
 11  1  1  6  0  0  0
 11 12  1  0  0  0  0
 12 13  1  0  0  0  0
 12 14  1  0  0  0  0
 15 12  1  0  0  0  0
 16  2  1  6  0  0  0
 16  9  1  0  0  0  0
 17 20  1  0  0  0  0
 17 16  1  0  0  0  0
 17 19  1  0  0  0  0
 18 17  1  0  0  0  0
M  END
