46,47,48,50,51
q = -1.0

 51 52  0  0  0  0  0  0  0  0999 V2000
    1.4923    2.6498    0.2145 C   0  0  0  0  0  0  0  0  0  0  0  0
    0.5834    3.2277    0.4512 H   0  0  0  0  0  0  0  0  0  0  0  0
    2.7669    3.2563    0.2641 C   0  0  0  0  0  0  0  0  0  0  0  0
    2.8569    4.3175    0.5347 H   0  0  0  0  0  0  0  0  0  0  0  0
    3.8843    2.4864   -0.0349 C   0  0  0  0  0  0  0  0  0  0  0  0
    4.8926    2.9278   -0.0060 H   0  0  0  0  0  0  0  0  0  0  0  0
    3.7412    1.1150   -0.3836 C   0  0  0  0  0  0  0  0  0  0  0  0
    2.4056    0.5795   -0.4132 C   0  0  0  0  0  0  0  0  0  0  0  0
    4.8373    0.2648   -0.6986 C   0  0  0  0  0  3  0  0  0  0  0  0
    5.8586    0.6719   -0.6770 H   0  0  0  0  0  0  0  0  0  0  0  0
    4.5966   -1.0625   -1.0293 C   0  0  0  0  0  0  0  0  0  0  0  0
    5.4420   -1.7225   -1.2756 H   0  0  0  0  0  0  0  0  0  0  0  0
    3.2873   -1.6029   -1.0639 C   0  0  0  0  0  0  0  0  0  0  0  0
    3.1139   -2.6527   -1.3311 H   0  0  0  0  0  0  0  0  0  0  0  0
    2.1722   -0.8060   -0.7616 C   0  0  0  0  0  0  0  0  0  0  0  0
    0.3928   -2.4435   -1.1127 C   0  0  0  0  0  0  0  0  0  0  0  0
   -1.1536   -2.5157   -1.1770 C   0  0  0  0  0  0  0  0  0  0  0  0
   -1.4361   -2.2728   -2.2218 H   0  0  0  0  0  0  0  0  0  0  0  0
   -1.4560   -3.5713   -1.0036 H   0  0  0  0  0  0  0  0  0  0  0  0
   -3.1774   -1.1711   -0.7434 C   0  0  0  0  0  0  0  0  0  0  0  0
   -3.7371   -0.7214    0.1013 H   0  0  0  0  0  0  0  0  0  0  0  0
   -3.7797   -2.0466   -1.0840 H   0  0  0  0  0  0  0  0  0  0  0  0
   -3.1028   -0.1623   -1.8900 C   0  0  0  0  0  0  0  0  0  0  0  0
   -4.1173    0.1541   -2.2025 H   0  0  0  0  0  0  0  0  0  0  0  0
   -2.6135   -0.5883   -2.7891 H   0  0  0  0  0  0  0  0  0  0  0  0
   -3.1138    2.2085   -0.2480 C   0  0  0  0  0  0  0  0  0  0  0  0
   -3.2251    1.5399    0.6298 H   0  0  0  0  0  0  0  0  0  0  0  0
   -2.4466    3.0375    0.0655 H   0  0  0  0  0  0  0  0  0  0  0  0
   -4.4472    2.7262   -0.7639 C   0  0  0  0  0  0  0  0  0  0  0  0
   -4.3126    3.3919   -1.6386 H   0  0  0  0  0  0  0  0  0  0  0  0
   -4.9519    3.3066    0.0346 H   0  0  0  0  0  0  0  0  0  0  0  0
   -5.1333    1.9052   -1.0530 H   0  0  0  0  0  0  0  0  0  0  0  0
   -1.8696   -2.1370    1.1068 C   0  0  0  0  0  0  0  0  0  0  0  0
   -0.8828   -2.6132    1.2779 H   0  0  0  0  0  0  0  0  0  0  0  0
   -2.6277   -2.9510    1.2002 H   0  0  0  0  0  0  0  0  0  0  0  0
   -2.1293   -1.1028    2.1993 C   0  0  0  0  0  0  0  0  0  0  0  0
   -2.0881   -1.5819    3.1973 H   0  0  0  0  0  0  0  0  0  0  0  0
   -3.1348   -0.6416    2.1213 H   0  0  0  0  0  0  0  0  0  0  0  0
    0.6200   -0.4409    2.7435 C   0  0  0  0  0  0  0  0  0  0  0  0
    0.8921   -1.2363    2.0197 H   0  0  0  0  0  0  0  0  0  0  0  0
    1.3422    0.3871    2.5937 H   0  0  0  0  0  0  0  0  0  0  0  0
    0.6016   -0.9234    4.1842 C   0  0  0  0  0  0  0  0  0  0  0  0
    0.3293   -0.1108    4.8856 H   0  0  0  0  0  0  0  0  0  0  0  0
    1.6114   -1.2902    4.4581 H   0  0  0  0  0  0  0  0  0  0  0  0
   -0.0998   -1.7679    4.3374 H   0  0  0  0  0  0  0  0  0  0  0  0
    1.3223    1.3666   -0.1116 N   0  0  0  0  0  2  0  0  0  0  0  0
    0.8414   -1.2002   -0.7663 N   0  0  0  0  0  2  0  0  0  0  0  0
   -1.8523   -1.5870   -0.2602 N   0  0  0  0  0  0  0  0  0  0  0  0
    1.0467   -3.4385   -1.4223 O   0  0  0  0  0  0  0  0  0  0  0  0
   -2.1145    1.3449   -1.5359 S   0  0  0  0  0  0  0  0  0  0  0  0
   -0.9721    0.3212    2.1964 S   0  0  0  0  0  0  0  0  0  0  0  0
  1  3  2  0  0  0  0
  1  2  1  0  0  0  0
  3  4  1  0  0  0  0
  5  6  1  0  0  0  0
  5  3  1  0  0  0  0
  7  5  2  0  0  0  0
  8  7  1  0  0  0  0
  8 46  1  0  0  0  0
  9 10  1  0  0  0  0
  9  7  1  0  0  0  0
 11  9  1  0  0  0  0
 12 11  1  0  0  0  0
 13 11  2  0  0  0  0
 13 15  1  0  0  0  0
 14 13  1  0  0  0  0
 15  8  2  0  0  0  0
 16 47  1  0  0  0  0
 17 16  1  0  0  0  0
 17 19  1  0  0  0  0
 17 48  1  0  0  0  0
 18 17  1  0  0  0  0
 20 48  1  0  0  0  0
 20 21  1  0  0  0  0
 22 20  1  0  0  0  0
 23 50  1  0  0  0  0
 23 20  1  0  0  0  0
 24 23  1  0  0  0  0
 25 23  1  0  0  0  0
 26 28  1  0  0  0  0
 26 27  1  0  0  0  0
 29 26  1  0  0  0  0
 29 31  1  0  0  0  0
 30 29  1  0  0  0  0
 32 29  1  0  0  0  0
 33 35  1  0  0  0  0
 33 34  1  0  0  0  0
 33 36  1  0  0  0  0
 36 37  1  0  0  0  0
 38 36  1  0  0  0  0
 39 42  1  0  0  0  0
 40 39  1  0  0  0  0
 41 39  1  0  0  0  0
 42 45  1  0  0  0  0
 42 44  1  0  0  0  0
 42 43  1  0  0  0  0
 46  1  1  0  0  0  0
 47 15  1  0  0  0  0
 48 33  1  0  0  0  0
 49 16  2  0  0  0  0
 50 26  1  0  0  0  0
 51 36  1  0  0  0  0
 51 39  1  0  0  0  0
M  END
