1,3,6,7,12
q = -1.0

 54 56  0  0  1  0  0  0  0  0999 V2000
    0.5790    1.1143   -1.1368 S   0  0  0  0  0  1  0  0  0  0  0  0
   -0.2775   -2.3820    2.4683 Cl  0  0  0  0  0  0  0  0  0  0  0  0
    0.3952   -1.0355    0.9256 S   0  0  0  0  0  0  0  0  0  0  0  0
    1.3206   -3.0519   -0.6873 N   0  0  0  0  0  0  0  0  0  0  0  0
    1.1183   -3.8921   -1.2431 H   0  0  0  0  0  0  0  0  0  0  0  0
   -1.9296   -1.7708   -0.6893 N   0  0  0  0  0  2  0  0  0  0  0  0
   -1.8106    2.1790    0.2591 N   0  0  0  0  0  2  0  0  0  0  0  0
   -0.7826    3.0116    0.3968 N   0  0  0  0  0  2  0  0  0  0  0  0
    1.4818    3.2450    0.2782 N   0  0  0  0  0  0  0  0  0  0  0  0
    1.2704    3.9810    0.9623 H   0  0  0  0  0  0  0  0  0  0  0  0
   -4.0983   -0.9043   -0.4522 C   0  0  0  0  0  0  0  0  0  0  0  0
   -3.4459    0.2415   -0.1997 N   0  0  0  0  0  2  0  0  0  0  0  0
    2.8514    3.0157   -0.0122 C   0  0  0  0  0  0  0  0  0  0  0  0
    0.2223   -2.3206   -0.3994 C   0  0  1  0  0  3  0  0  0  0  0  0
   -3.7473   -3.4151   -1.0888 C   0  0  0  0  0  0  0  0  0  0  0  0
   -2.9221   -4.0982   -1.3588 H   0  0  0  0  0  0  0  0  0  0  0  0
   -4.4731   -3.3677   -1.9264 H   0  0  0  0  0  0  0  0  0  0  0  0
   -4.2864   -3.8387   -0.2151 H   0  0  0  0  0  0  0  0  0  0  0  0
   -0.9438   -2.6483   -0.9238 N   0  0  0  0  0  2  0  0  0  0  0  0
    0.3824    2.5315   -0.0752 C   0  0  2  0  0  3  0  0  0  0  0  0
   -3.0724    2.5131    0.4418 C   0  0  2  0  0  3  0  0  0  0  0  0
    5.1410    2.9143    0.8071 C   0  0  0  0  0  0  0  0  0  0  0  0
    5.8562    3.0033    1.6381 H   0  0  0  0  0  0  0  0  0  0  0  0
   -5.5039   -0.9270   -0.3534 C   0  0  0  0  0  0  0  0  0  0  0  0
   -6.0789   -1.8396   -0.5608 H   0  0  0  0  0  0  0  0  0  0  0  0
   -5.4280    1.4330    0.3175 C   0  0  0  0  0  0  0  0  0  0  0  0
   -5.9442    2.3500    0.6327 H   0  0  0  0  0  0  0  0  0  0  0  0
   -3.2082   -2.0616   -0.7720 C   0  0  0  0  0  0  0  0  0  0  0  0
   -4.0208    1.3930    0.1908 C   0  0  0  0  0  0  0  0  0  0  0  0
   -6.1518    0.2627    0.0325 C   0  0  0  0  0  0  0  0  0  0  0  0
   -7.2484    0.2732    0.1213 H   0  0  0  0  0  0  0  0  0  0  0  0
    4.6671    2.4896   -1.5367 C   0  0  0  0  0  0  0  0  0  0  0  0
    5.0141    2.2578   -2.5546 H   0  0  0  0  0  0  0  0  0  0  0  0
    3.3020    2.7144   -1.3131 C   0  0  0  0  0  0  0  0  0  0  0  0
    2.5903    2.6740   -2.1481 H   0  0  0  0  0  0  0  0  0  0  0  0
    2.6742   -2.8157   -0.3358 C   0  0  0  0  0  0  0  0  0  0  0  0
    3.7770    3.1279    1.0452 C   0  0  0  0  0  0  0  0  0  0  0  0
    3.4208    3.3689    2.0585 H   0  0  0  0  0  0  0  0  0  0  0  0
    3.4755   -3.9187    0.0218 C   0  0  0  0  0  0  0  0  0  0  0  0
    3.0380   -4.9281    0.0519 H   0  0  0  0  0  0  0  0  0  0  0  0
    5.3644   -2.4203    0.3500 C   0  0  0  0  0  0  0  0  0  0  0  0
    6.4193   -2.2670    0.6209 H   0  0  0  0  0  0  0  0  0  0  0  0
    5.5900    2.5837   -0.4817 C   0  0  0  0  0  0  0  0  0  0  0  0
    6.6611    2.4165   -0.6680 H   0  0  0  0  0  0  0  0  0  0  0  0
    3.2257   -1.5185   -0.3803 C   0  0  0  0  0  0  0  0  0  0  0  0
    2.6212   -0.6655   -0.7196 H   0  0  0  0  0  0  0  0  0  0  0  0
    4.5664   -1.3269   -0.0219 C   0  0  0  0  0  0  0  0  0  0  0  0
    4.9874   -0.3107   -0.0565 H   0  0  0  0  0  0  0  0  0  0  0  0
   -3.5348    3.8764    0.8357 C   0  0  0  0  0  0  0  0  0  0  0  0
   -4.1239    3.8442    1.7760 H   0  0  0  0  0  0  0  0  0  0  0  0
   -4.1904    4.3183    0.0561 H   0  0  0  0  0  0  0  0  0  0  0  0
   -2.6620    4.5379    0.9815 H   0  0  0  0  0  0  0  0  0  0  0  0
    4.8186   -3.7155    0.3602 C   0  0  0  0  0  0  0  0  0  0  0  0
    5.4416   -4.5762    0.6443 H   0  0  0  0  0  0  0  0  0  0  0  0
  3  2  1  0  0  0  0
  4 14  1  0  0  0  0
  4 36  1  0  0  0  0
  5  4  1  0  0  0  0
  7  8  1  0  0  0  0
  9 10  1  0  0  0  0
 11 24  1  0  0  0  0
 11 12  1  0  0  0  0
 12 29  1  0  0  0  0
 13  9  1  0  0  0  0
 13 37  1  0  0  0  0
 14 19  1  1  0  0  0
 14  3  1  0  0  0  0
 15 28  1  0  0  0  0
 15 18  1  0  0  0  0
 16 15  1  0  0  0  0
 17 15  1  0  0  0  0
 19  6  1  0  0  0  0
 20  1  1  6  0  0  0
 20  9  1  0  0  0  0
 20  8  1  0  0  0  0
 21  7  1  6  0  0  0
 21 49  1  0  0  0  0
 22 37  2  0  0  0  0
 22 23  1  0  0  0  0
 24 30  2  0  0  0  0
 25 24  1  0  0  0  0
 26 27  1  0  0  0  0
 28  6  1  0  0  0  0
 28 11  2  0  0  0  0
 29 26  2  0  0  0  0
 29 21  1  0  0  0  0
 30 31  1  0  0  0  0
 30 26  1  0  0  0  0
 32 34  1  0  0  0  0
 32 43  2  0  0  0  0
 33 32  1  0  0  0  0
 34 13  2  0  0  0  0
 35 34  1  0  0  0  0
 36 39  1  0  0  0  0
 37 38  1  0  0  0  0
 39 40  1  0  0  0  0
 39 53  2  0  0  0  0
 41 53  1  0  0  0  0
 41 42  1  0  0  0  0
 43 22  1  0  0  0  0
 44 43  1  0  0  0  0
 45 36  2  0  0  0  0
 45 47  1  0  0  0  0
 46 45  1  0  0  0  0
 47 41  2  0  0  0  0
 48 47  1  0  0  0  0
 49 52  1  0  0  0  0
 49 50  1  0  0  0  0
 51 49  1  0  0  0  0
 53 54  1  0  0  0  0
M  END
