1,2,3,4,5
q = 0.0, confidence = 1.0

 45 47  0  0  0  0  0  0  0  0999 V2000
   -1.6534   -1.4769    1.4483 S   0  0  0  0  0  0  0  0  0  0  0  0
    1.6534   -1.4769   -1.4487 S   0  0  0  0  0  0  0  0  0  0  0  0
   -2.3048    0.8873   -0.0895 N   0  0  0  0  0  2  0  0  0  0  0  0
    2.3049    0.8872    0.0895 N   0  0  0  0  0  2  0  0  0  0  0  0
    0.0001    2.3204    0.0000 N   0  0  0  0  0  2  0  0  0  0  0  0
   -1.3913   -3.2781    1.4214 C   0  0  0  0  0  0  0  0  0  0  0  0
    1.3901   -3.2780   -1.4201 C   0  0  0  0  0  0  0  0  0  0  0  0
   -3.1568   -1.2757    0.5110 C   0  0  0  0  0  0  0  0  0  0  0  0
   -3.3637   -0.0086   -0.1150 C   0  0  0  0  0  0  0  0  0  0  0  0
   -4.5820    0.2347   -0.7932 C   0  0  0  0  0  0  0  0  0  0  0  0
   -5.5661   -0.7538   -0.8581 C   0  0  0  0  0  0  0  0  0  0  0  0
   -5.3536   -1.9995   -0.2393 C   0  0  0  0  0  0  0  0  0  0  0  0
   -4.1597   -2.2589    0.4474 C   0  0  0  0  0  0  0  0  0  0  0  0
    3.1568   -1.2759   -0.5112 C   0  0  0  0  0  0  0  0  0  0  0  0
    3.3638   -0.0088    0.1149 C   0  0  0  0  0  0  0  0  0  0  0  0
    4.5821    0.2343    0.7931 C   0  0  0  0  0  0  0  0  0  0  0  0
    5.5661   -0.7543    0.8580 C   0  0  0  0  0  0  0  0  0  0  0  0
    5.3534   -1.9999    0.2392 C   0  0  0  0  0  0  0  0  0  0  0  0
    4.1596   -2.2591   -0.4476 C   0  0  0  0  0  0  0  0  0  0  0  0
    1.1666    2.9882    0.0419 C   0  0  0  0  0  0  0  0  0  0  0  0
    1.2090    4.4004    0.0395 C   0  0  0  0  0  0  0  0  0  0  0  0
    0.0002    5.1092    0.0003 C   0  0  0  0  0  0  0  0  0  0  0  0
   -1.2087    4.4004   -0.0391 C   0  0  0  0  0  0  0  0  0  0  0  0
   -1.1664    2.9883   -0.0417 C   0  0  0  0  0  0  0  0  0  0  0  0
    2.3964    2.1738    0.0548 C   0  0  0  0  0  0  0  0  0  0  0  0
   -2.3961    2.1740   -0.0548 C   0  0  0  0  0  3  0  0  0  0  0  0
   -0.3767   -3.4353    1.8334 H   0  0  0  0  0  0  0  0  0  0  0  0
   -2.1212   -3.7906    2.0760 H   0  0  0  0  0  0  0  0  0  0  0  0
   -1.4463   -3.6730    0.3897 H   0  0  0  0  0  0  0  0  0  0  0  0
   -4.7229    1.1952   -1.3108 H   0  0  0  0  0  0  0  0  0  0  0  0
   -6.5020   -0.5601   -1.4021 H   0  0  0  0  0  0  0  0  0  0  0  0
   -6.1276   -2.7792   -0.2891 H   0  0  0  0  0  0  0  0  0  0  0  0
   -4.0223   -3.2304    0.9414 H   0  0  0  0  0  0  0  0  0  0  0  0
   -3.3682    2.7077    0.0135 H   0  0  0  0  0  0  0  0  0  0  0  0
   -2.1752    4.9254   -0.0698 H   0  0  0  0  0  0  0  0  0  0  0  0
    0.0002    6.2090    0.0004 H   0  0  0  0  0  0  0  0  0  0  0  0
    2.1755    4.9253    0.0704 H   0  0  0  0  0  0  0  0  0  0  0  0
    3.3685    2.7075   -0.0135 H   0  0  0  0  0  0  0  0  0  0  0  0
    4.7231    1.1947    1.3107 H   0  0  0  0  0  0  0  0  0  0  0  0
    6.5020   -0.5608    1.4021 H   0  0  0  0  0  0  0  0  0  0  0  0
    6.1274   -2.7798    0.2889 H   0  0  0  0  0  0  0  0  0  0  0  0
    4.0220   -3.2306   -0.9418 H   0  0  0  0  0  0  0  0  0  0  0  0
    0.3754   -3.4348   -1.8319 H   0  0  0  0  0  0  0  0  0  0  0  0
    2.1196   -3.7916   -2.0741 H   0  0  0  0  0  0  0  0  0  0  0  0
    1.4449   -3.6718   -0.3879 H   0  0  0  0  0  0  0  0  0  0  0  0
  2  7  1  0  0  0  0
  2 14  1  0  0  0  0
  3 26  1  0  0  0  0
  4 15  1  0  0  0  0
  5 20  1  0  0  0  0
  6  1  1  0  0  0  0
  6 27  1  0  0  0  0
  6 28  1  0  0  0  0
  7 45  1  0  0  0  0
  8  1  1  0  0  0  0
  9  3  1  0  0  0  0
  9  8  2  0  0  0  0
 10  9  1  0  0  0  0
 11 10  2  0  0  0  0
 11 12  1  0  0  0  0
 12 13  2  0  0  0  0
 13  8  1  0  0  0  0
 13 33  1  0  0  0  0
 14 19  2  0  0  0  0
 14 15  1  0  0  0  0
 15 16  2  0  0  0  0
 16 17  1  0  0  0  0
 16 39  1  0  0  0  0
 17 40  1  0  0  0  0
 18 41  1  0  0  0  0
 18 17  2  0  0  0  0
 19 18  1  0  0  0  0
 20 25  2  0  0  0  0
 21 20  1  0  0  0  0
 21 37  1  0  0  0  0
 22 36  1  0  0  0  0
 22 21  2  0  0  0  0
 23 22  1  0  0  0  0
 24 23  2  0  0  0  0
 24  5  1  0  0  0  0
 25  4  1  0  0  0  0
 26 24  1  0  0  0  0
 26 34  1  0  0  0  0
 29  6  1  0  0  0  0
 30 10  1  0  0  0  0
 31 11  1  0  0  0  0
 32 12  1  0  0  0  0
 35 23  1  0  0  0  0
 38 25  1  0  0  0  0
 42 19  1  0  0  0  0
 43  7  1  0  0  0  0
 44  7  1  0  0  0  0
M  END
