1,2,3,4,5
q = -1.0

 34 34  0  0  1  0  0  0  0  0999 V2000
   -2.8263    0.3405   -0.9391 S   0  0  0  0  0  1  0  0  0  0  0  0
   -0.5736    2.6141   -0.5633 S   0  0  0  0  0  1  0  0  0  0  0  0
   -0.8755   -1.4478    0.5897 N   0  0  0  0  0  0  0  0  0  0  0  0
    0.5854    0.6692    1.2091 N   0  0  0  0  0  2  0  0  0  0  0  0
    0.8140   -0.4301   -1.5083 N   0  0  0  0  0  2  0  0  0  0  0  0
    1.6727   -0.4072    2.9793 O   0  0  0  0  0  0  0  0  0  0  0  0
   -2.9692   -1.4761   -0.7339 C   0  0  0  0  0  0  0  0  0  0  0  0
   -4.0404   -1.7755   -0.6992 H   0  0  0  0  0  0  0  0  0  0  0  0
   -2.5219   -2.0198   -1.6004 H   0  0  0  0  0  0  0  0  0  0  0  0
   -2.2921   -1.9011    0.5621 C   0  0  0  0  0  0  0  0  0  0  0  0
   -2.8055   -1.3946    1.4031 H   0  0  0  0  0  0  0  0  0  0  0  0
   -2.3421   -3.0085    0.7323 H   0  0  0  0  0  0  0  0  0  0  0  0
   -0.2975   -1.3997    1.9555 C   0  0  0  0  0  0  0  0  0  0  0  0
    0.1037   -2.3899    2.2711 H   0  0  0  0  0  0  0  0  0  0  0  0
   -1.1147   -1.1282    2.6558 H   0  0  0  0  0  0  0  0  0  0  0  0
    0.8022   -0.3221    2.0911 C   0  0  0  0  0  0  0  0  0  0  0  0
    1.4143    1.8589    1.1907 C   0  0  0  0  0  0  0  0  0  0  0  0
    2.1899    1.7769    0.3920 H   0  0  0  0  0  0  0  0  0  0  0  0
    1.9480    1.9636    2.1637 H   0  0  0  0  0  0  0  0  0  0  0  0
    0.5041    3.0424    0.8775 C   0  0  0  0  0  0  0  0  0  0  0  0
    1.0877    3.9567    0.6302 H   0  0  0  0  0  0  0  0  0  0  0  0
   -0.1292    3.2715    1.7635 H   0  0  0  0  0  0  0  0  0  0  0  0
   -0.0384   -2.2979   -0.3054 C   0  0  0  0  0  0  0  0  0  0  0  0
   -0.6707   -2.5679   -1.1759 H   0  0  0  0  0  0  0  0  0  0  0  0
    0.2519   -3.2349    0.2226 H   0  0  0  0  0  0  0  0  0  0  0  0
    1.1602   -1.5483   -0.8204 C   0  0  2  0  0  3  0  0  0  0  0  0
    2.4842   -1.9299   -0.5822 C   0  0  0  0  0  0  0  0  0  0  0  0
    2.6993   -2.8324    0.0112 H   0  0  0  0  0  0  0  0  0  0  0  0
    3.5228   -1.1323   -1.1003 C   0  0  0  0  0  0  0  0  0  0  0  0
    4.5770   -1.3969   -0.9276 H   0  0  0  0  0  0  0  0  0  0  0  0
    3.1709    0.0266   -1.8174 C   0  0  0  0  0  0  0  0  0  0  0  0
    3.9434    0.6896   -2.2386 H   0  0  0  0  0  0  0  0  0  0  0  0
    1.8152    0.3387   -1.9864 C   0  0  0  0  0  0  0  0  0  0  0  0
    1.4934    1.2676   -2.4890 H   0  0  0  0  0  0  0  0  0  0  0  0
  1  7  1  0  0  0  0
  2 20  1  0  0  0  0
  3 13  1  0  0  0  0
  4 16  1  0  0  0  0
  5 26  1  0  0  0  0
  7  8  1  0  0  0  0
  7 10  1  0  0  0  0
  9  7  1  0  0  0  0
 10  3  1  0  0  0  0
 10 12  1  0  0  0  0
 10 11  1  0  0  0  0
 13 16  1  0  0  0  0
 13 14  1  0  0  0  0
 13 15  1  0  0  0  0
 16  6  2  0  0  0  0
 17  4  1  0  0  0  0
 17 19  1  0  0  0  0
 18 17  1  0  0  0  0
 20 17  1  0  0  0  0
 20 22  1  0  0  0  0
 21 20  1  0  0  0  0
 23 25  1  0  0  0  0
 23  3  1  0  0  0  0
 24 23  1  0  0  0  0
 26 27  1  0  0  0  0
 26 23  1  1  0  0  0
 27 28  1  0  0  0  0
 29 30  1  0  0  0  0
 29 27  2  0  0  0  0
 31 29  1  0  0  0  0
 32 31  1  0  0  0  0
 33 31  2  0  0  0  0
 33  5  1  0  0  0  0
 34 33  1  0  0  0  0
M  END
