1,4,5
q = 0.0, confidence = 0.51

 38 39  0  0  0  0  0  0  0  0999 V2000
   -1.1392   -2.0335    0.0905 S   0  0  0  0  0  1  0  0  0  0  0  0
   -2.5208   -0.5218    0.2631 P   0  0  0  0  0  4  0  0  0  0  0  0
   -1.3390    2.3489    1.5523 Si  0  0  0  0  0  0  0  0  0  0  0  0
   -1.9405    0.5562    1.5219 C   0  0  0  0  0  3  0  0  0  0  0  0
    0.4768    1.9173    1.7143 C   0  0  0  0  0  3  0  0  0  0  0  0
   -1.6968    3.3380   -0.0207 C   0  0  0  0  0  0  0  0  0  0  0  0
   -1.2111    4.3328    0.0639 H   0  0  0  0  0  0  0  0  0  0  0  0
   -2.7840    3.4993   -0.1637 H   0  0  0  0  0  0  0  0  0  0  0  0
   -1.3111    2.8400   -0.9313 H   0  0  0  0  0  0  0  0  0  0  0  0
   -2.1063    3.2643    3.0265 C   0  0  0  0  0  0  0  0  0  0  0  0
   -1.9189    2.7170    3.9731 H   0  0  0  0  0  0  0  0  0  0  0  0
   -3.2054    3.3661    2.9019 H   0  0  0  0  0  0  0  0  0  0  0  0
   -1.6757    4.2823    3.1326 H   0  0  0  0  0  0  0  0  0  0  0  0
   -2.7054    0.3777   -1.3283 C   0  0  0  0  0  0  0  0  0  0  0  0
   -3.8778    1.1105   -1.5973 C   0  0  0  0  0  0  0  0  0  0  0  0
   -4.7113    1.1026   -0.8785 H   0  0  0  0  0  0  0  0  0  0  0  0
   -3.9803    1.8529   -2.7830 C   0  0  0  0  0  0  0  0  0  0  0  0
   -4.8964    2.4266   -2.9905 H   0  0  0  0  0  0  0  0  0  0  0  0
   -2.9177    1.8652   -3.7016 C   0  0  0  0  0  0  0  0  0  0  0  0
   -3.0009    2.4507   -4.6301 H   0  0  0  0  0  0  0  0  0  0  0  0
   -1.7544    1.1235   -3.4391 C   0  0  0  0  0  0  0  0  0  0  0  0
   -0.9182    1.1258   -4.1545 H   0  0  0  0  0  0  0  0  0  0  0  0
   -1.6495    0.3752   -2.2573 C   0  0  0  0  0  0  0  0  0  0  0  0
   -0.7461   -0.2137   -2.0372 H   0  0  0  0  0  0  0  0  0  0  0  0
   -4.1961   -1.1880    0.6027 C   0  0  0  0  0  0  0  0  0  0  0  0
   -5.0602   -0.4950    1.4709 C   0  0  0  0  0  0  0  0  0  0  0  0
   -4.7095    0.4279    1.9604 H   0  0  0  0  0  0  0  0  0  0  0  0
   -6.3526   -0.9896    1.7102 C   0  0  0  0  0  0  0  0  0  0  0  0
   -7.0285   -0.4502    2.3912 H   0  0  0  0  0  0  0  0  0  0  0  0
   -6.7778   -2.1733    1.0870 C   0  0  0  0  0  0  0  0  0  0  0  0
   -7.7898   -2.5620    1.2780 H   0  0  0  0  0  0  0  0  0  0  0  0
   -5.9098   -2.8692    0.2274 C   0  0  0  0  0  0  0  0  0  0  0  0
   -6.2413   -3.8024   -0.2530 H   0  0  0  0  0  0  0  0  0  0  0  0
   -4.6186   -2.3807   -0.0143 C   0  0  0  0  0  0  0  0  0  0  0  0
   -3.9228   -2.9273   -0.6706 H   0  0  0  0  0  0  0  0  0  0  0  0
   -2.0919    0.0876    2.5164 H   0  0  0  0  0  0  0  0  0  0  0  0
    0.8325    1.7471    2.7524 H   0  0  0  0  0  0  0  0  0  0  0  0
    1.2403    2.4982    1.1609 H   0  0  0  0  0  0  0  0  0  0  0  0
  1  2  1  0  0  0  0
  2 25  1  0  0  0  0
  2  4  1  0  0  0  0
  3  5  1  0  0  0  0
  3 10  1  0  0  0  0
  4  3  1  0  0  0  0
  4 36  1  0  0  0  0
  5 37  1  0  0  0  0
  6  7  1  0  0  0  0
  6  3  1  0  0  0  0
  8  6  1  0  0  0  0
  9  6  1  0  0  0  0
 10 13  1  0  0  0  0
 10 11  1  0  0  0  0
 12 10  1  0  0  0  0
 14  2  1  0  0  0  0
 15 14  1  0  0  0  0
 15 16  1  0  0  0  0
 17 15  2  0  0  0  0
 18 17  1  0  0  0  0
 19 21  2  0  0  0  0
 19 17  1  0  0  0  0
 20 19  1  0  0  0  0
 21 23  1  0  0  0  0
 22 21  1  0  0  0  0
 23 24  1  0  0  0  0
 23 14  2  0  0  0  0
 25 26  1  0  0  0  0
 26 28  2  0  0  0  0
 26 27  1  0  0  0  0
 28 29  1  0  0  0  0
 30 31  1  0  0  0  0
 30 28  1  0  0  0  0
 32 30  2  0  0  0  0
 33 32  1  0  0  0  0
 34 32  1  0  0  0  0
 34 25  2  0  0  0  0
 35 34  1  0  0  0  0
 38  5  1  0  0  0  0
M  END
