1,6,37
q = 0.0, confidence = 0.988

 67 70  0  0  0  0  0  0  0  0999 V2000
    2.9968   -0.3034    1.4288 S   0  0  0  0  0  0  0  0  0  0  0  0
    0.2382   -2.9177   -0.2948 N   0  0  0  0  0  0  0  0  0  0  0  0
    2.3512   -2.6946   -0.7101 N   0  0  0  0  0  0  0  0  0  0  0  0
    0.2958    2.9332    0.3080 N   0  0  0  0  0  0  0  0  0  0  0  0
    2.4527    2.7614    0.2273 N   0  0  0  0  0  0  0  0  0  0  0  0
    1.2275   -1.9874   -0.3994 C   0  0  0  0  0  2  0  0  0  0  0  0
    0.7392   -4.1938   -0.5457 C   0  0  0  0  0  0  0  0  0  0  0  0
    0.1000   -5.0808   -0.5104 H   0  0  0  0  0  0  0  0  0  0  0  0
    2.0785   -4.0559   -0.8053 C   0  0  0  0  0  0  0  0  0  0  0  0
    2.8417   -4.7977   -1.0595 H   0  0  0  0  0  0  0  0  0  0  0  0
   -1.1105   -2.6391    0.1383 C   0  0  0  0  0  0  0  0  0  0  0  0
   -1.3245   -2.3871    1.5125 C   0  0  0  0  0  0  0  0  0  0  0  0
   -2.6385   -2.1124    1.9250 C   0  0  0  0  0  0  0  0  0  0  0  0
   -2.8268   -1.9172    2.9928 H   0  0  0  0  0  0  0  0  0  0  0  0
   -3.7167   -2.1012    1.0192 C   0  0  0  0  0  0  0  0  0  0  0  0
   -3.4534   -2.3753   -0.3349 C   0  0  0  0  0  0  0  0  0  0  0  0
   -4.2849   -2.3742   -1.0571 H   0  0  0  0  0  0  0  0  0  0  0  0
   -2.1582   -2.6571   -0.8063 C   0  0  0  0  0  0  0  0  0  0  0  0
   -0.1928   -2.4367    2.5075 C   0  0  0  0  0  0  0  0  0  0  0  0
   -0.5732   -2.3590    3.5428 H   0  0  0  0  0  0  0  0  0  0  0  0
    0.5298   -1.6087    2.3521 H   0  0  0  0  0  0  0  0  0  0  0  0
    0.3829   -3.3819    2.4253 H   0  0  0  0  0  0  0  0  0  0  0  0
   -5.1217   -1.8521    1.5031 C   0  0  0  0  0  0  0  0  0  0  0  0
   -5.7880   -1.5252    0.6824 H   0  0  0  0  0  0  0  0  0  0  0  0
   -5.1505   -1.0839    2.3013 H   0  0  0  0  0  0  0  0  0  0  0  0
   -5.5580   -2.7786    1.9337 H   0  0  0  0  0  0  0  0  0  0  0  0
   -1.9044   -2.9659   -2.2573 C   0  0  0  0  0  0  0  0  0  0  0  0
   -1.1183   -2.3002   -2.6686 H   0  0  0  0  0  0  0  0  0  0  0  0
   -2.8231   -2.8251   -2.8561 H   0  0  0  0  0  0  0  0  0  0  0  0
   -1.5680   -4.0137   -2.4032 H   0  0  0  0  0  0  0  0  0  0  0  0
    3.6555   -2.0472   -0.7681 C   0  0  0  0  0  0  0  0  0  0  0  0
    3.5999   -1.2069   -1.4890 H   0  0  0  0  0  0  0  0  0  0  0  0
    4.3953   -2.7794   -1.1481 H   0  0  0  0  0  0  0  0  0  0  0  0
    4.1034   -1.5599    0.6128 C   0  0  0  0  0  0  0  0  0  0  0  0
    5.1159   -1.1149    0.5584 H   0  0  0  0  0  0  0  0  0  0  0  0
    4.1404   -2.4074    1.3258 H   0  0  0  0  0  0  0  0  0  0  0  0
    1.3037    2.0307    0.1258 C   0  0  0  0  0  2  0  0  0  0  0  0
    0.8120    4.2076    0.5275 C   0  0  0  0  0  0  0  0  0  0  0  0
    0.1625    5.0694    0.7048 H   0  0  0  0  0  0  0  0  0  0  0  0
    2.1770    4.1021    0.4794 C   0  0  0  0  0  0  0  0  0  0  0  0
    2.9611    4.8571    0.5907 H   0  0  0  0  0  0  0  0  0  0  0  0
   -1.1149    2.6290    0.2769 C   0  0  0  0  0  0  0  0  0  0  0  0
   -1.6731    1.8739    1.3291 C   0  0  0  0  0  0  0  0  0  0  0  0
   -3.0444    1.5735    1.2561 C   0  0  0  0  0  0  0  0  0  0  0  0
   -3.4969    0.9828    2.0673 H   0  0  0  0  0  0  0  0  0  0  0  0
   -3.8467    2.0057    0.1857 C   0  0  0  0  0  0  0  0  0  0  0  0
   -3.2464    2.7739   -0.8298 C   0  0  0  0  0  0  0  0  0  0  0  0
   -3.8585    3.1205   -1.6773 H   0  0  0  0  0  0  0  0  0  0  0  0
   -1.8810    3.0988   -0.8139 C   0  0  0  0  0  0  0  0  0  0  0  0
   -0.8388    1.3853    2.4838 C   0  0  0  0  0  0  0  0  0  0  0  0
   -0.1893    0.5393    2.1706 H   0  0  0  0  0  0  0  0  0  0  0  0
   -1.4790    1.0251    3.3105 H   0  0  0  0  0  0  0  0  0  0  0  0
   -0.1698    2.1758    2.8809 H   0  0  0  0  0  0  0  0  0  0  0  0
   -5.3041    1.6338    0.1036 C   0  0  0  0  0  0  0  0  0  0  0  0
   -5.7164    1.3604    1.0936 H   0  0  0  0  0  0  0  0  0  0  0  0
   -5.4434    0.7588   -0.5671 H   0  0  0  0  0  0  0  0  0  0  0  0
   -5.9141    2.4596   -0.3122 H   0  0  0  0  0  0  0  0  0  0  0  0
   -1.2543    3.8726   -1.9438 C   0  0  0  0  0  0  0  0  0  0  0  0
   -0.9039    4.8772   -1.6287 H   0  0  0  0  0  0  0  0  0  0  0  0
   -1.9786    4.0183   -2.7663 H   0  0  0  0  0  0  0  0  0  0  0  0
   -0.3794    3.3255   -2.3517 H   0  0  0  0  0  0  0  0  0  0  0  0
    3.7767    2.1544    0.1770 C   0  0  0  0  0  0  0  0  0  0  0  0
    4.5279    2.9688    0.1883 H   0  0  0  0  0  0  0  0  0  0  0  0
    3.8874    1.6068   -0.7808 H   0  0  0  0  0  0  0  0  0  0  0  0
    4.0218    1.2333    1.3727 C   0  0  0  0  0  0  0  0  0  0  0  0
    3.7832    1.7605    2.3182 H   0  0  0  0  0  0  0  0  0  0  0  0
    5.0819    0.9168    1.4245 H   0  0  0  0  0  0  0  0  0  0  0  0
  2 11  1  0  0  0  0
  3  6  1  0  0  0  0
  4 38  1  0  0  0  0
  5 40  1  0  0  0  0
  6  2  1  0  0  0  0
  7  8  1  0  0  0  0
  7  2  1  0  0  0  0
  9  3  1  0  0  0  0
  9  7  2  0  0  0  0
 10  9  1  0  0  0  0
 11 12  1  0  0  0  0
 12 13  2  0  0  0  0
 12 19  1  0  0  0  0
 13 14  1  0  0  0  0
 15 23  1  0  0  0  0
 15 13  1  0  0  0  0
 16 15  2  0  0  0  0
 17 16  1  0  0  0  0
 18 16  1  0  0  0  0
 18 11  2  0  0  0  0
 19 20  1  0  0  0  0
 21 19  1  0  0  0  0
 22 19  1  0  0  0  0
 23 26  1  0  0  0  0
 23 25  1  0  0  0  0
 24 23  1  0  0  0  0
 27 18  1  0  0  0  0
 28 27  1  0  0  0  0
 29 27  1  0  0  0  0
 30 27  1  0  0  0  0
 31  3  1  0  0  0  0
 31 34  1  0  0  0  0
 32 31  1  0  0  0  0
 33 31  1  0  0  0  0
 34 36  1  0  0  0  0
 34  1  1  0  0  0  0
 35 34  1  0  0  0  0
 37  5  1  0  0  0  0
 37  4  1  0  0  0  0
 38 39  1  0  0  0  0
 40 38  2  0  0  0  0
 40 41  1  0  0  0  0
 42  4  1  0  0  0  0
 42 43  1  0  0  0  0
 43 50  1  0  0  0  0
 44 43  2  0  0  0  0
 44 45  1  0  0  0  0
 46 44  1  0  0  0  0
 47 49  1  0  0  0  0
 47 46  2  0  0  0  0
 48 47  1  0  0  0  0
 49 42  2  0  0  0  0
 50 53  1  0  0  0  0
 50 52  1  0  0  0  0
 51 50  1  0  0  0  0
 54 46  1  0  0  0  0
 54 55  1  0  0  0  0
 56 54  1  0  0  0  0
 57 54  1  0  0  0  0
 58 59  1  0  0  0  0
 58 49  1  0  0  0  0
 60 58  1  0  0  0  0
 61 58  1  0  0  0  0
 62 63  1  0  0  0  0
 62  5  1  0  0  0  0
 62 65  1  0  0  0  0
 64 62  1  0  0  0  0
 65 67  1  0  0  0  0
 65  1  1  0  0  0  0
 65 66  1  0  0  0  0
M  END
