1,2,7
q = -2.0, confidence = 0.59

 20 19  0  0  0  0  0  0  0  0999 V2000
   -0.8583   -2.2049    0.6967 S   0  0  0  0  0  0  0  0  0  0  0  0
   -1.5701    0.8805    1.1060 C   0  0  0  0  0  3  0  0  0  0  0  0
   -1.5491    0.5472    2.1726 H   0  0  0  0  0  0  0  0  0  0  0  0
   -1.4775    1.9843    1.1542 H   0  0  0  0  0  0  0  0  0  0  0  0
   -2.8914    0.4975    0.4930 C   0  0  0  0  0  0  0  0  0  0  0  0
   -2.8812   -0.5164   -0.4266 C   0  0  0  0  0  0  0  0  0  0  0  0
   -1.5595   -1.1432   -0.6629 C   0  0  0  0  0  3  0  0  0  0  0  0
   -1.4687   -1.7175   -1.6037 H   0  0  0  0  0  0  0  0  0  0  0  0
   -4.1092    1.2389    0.9656 C   0  0  0  0  0  0  0  0  0  0  0  0
   -5.0489    0.8916    0.4971 H   0  0  0  0  0  0  0  0  0  0  0  0
   -4.0073    2.3281    0.7681 H   0  0  0  0  0  0  0  0  0  0  0  0
   -4.2212    1.1434    2.0674 H   0  0  0  0  0  0  0  0  0  0  0  0
   -4.0667   -1.0932   -1.1495 C   0  0  0  0  0  0  0  0  0  0  0  0
   -4.2441   -2.1475   -0.8434 H   0  0  0  0  0  0  0  0  0  0  0  0
   -3.8917   -1.1162   -2.2463 H   0  0  0  0  0  0  0  0  0  0  0  0
   -4.9997   -0.5277   -0.9697 H   0  0  0  0  0  0  0  0  0  0  0  0
   -2.0352   -2.1793    2.0818 C   0  0  0  0  0  0  0  0  0  0  0  0
   -2.8951   -1.5307    1.8209 H   0  0  0  0  0  0  0  0  0  0  0  0
   -1.5293   -1.7885    2.9840 H   0  0  0  0  0  0  0  0  0  0  0  0
   -2.3716   -3.2184    2.2547 H   0  0  0  0  0  0  0  0  0  0  0  0
  1 17  1  0  0  0  0
  2  4  1  0  0  0  0
  2  3  1  0  0  0  0
  5  9  1  0  0  0  0
  5  2  1  0  0  0  0
  6  5  2  0  0  0  0
  7  6  1  0  0  0  0
  7  1  1  0  0  0  0
  8  7  1  0  0  0  0
  9 12  1  0  0  0  0
 10  9  1  0  0  0  0
 11  9  1  0  0  0  0
 13 16  1  0  0  0  0
 13 14  1  0  0  0  0
 13  6  1  0  0  0  0
 15 13  1  0  0  0  0
 17 20  1  0  0  0  0
 17 19  1  0  0  0  0
 18 17  1  0  0  0  0
M  END
