2,8,47
q = -1.0

 56 58  0  0  1  0  0  0  0  0999 V2000
   -1.6971    0.1818    0.3307 P   0  0  0  0  0  4  0  0  0  0  0  0
    3.3545    0.6165    0.0576 S   0  0  0  0  0  1  0  0  0  0  0  0
    2.9579   -1.7456    1.3664 O   0  0  0  0  0  0  0  0  0  0  0  0
   -0.7813   -0.9691   -3.3283 O   0  0  0  0  0  0  0  0  0  0  0  0
   -1.1723   -2.0967   -1.3878 O   0  0  0  0  0  0  0  0  0  0  0  0
    5.0804   -1.2421    0.8700 N   0  0  0  0  0  0  0  0  0  0  0  0
    1.6014   -1.5824    1.6756 C   0  0  0  0  0  0  0  0  0  0  0  0
    0.7024   -0.8164    0.9117 C   0  0  0  0  0  3  0  0  0  0  0  0
   -0.6486   -0.8621    1.3660 C   0  0  0  0  0  0  0  0  0  0  0  0
   -1.0765   -1.5753    2.4977 C   0  0  0  0  0  0  0  0  0  0  0  0
   -2.1313   -1.5578    2.8118 H   0  0  0  0  0  0  0  0  0  0  0  0
   -0.1317   -2.3201    3.2193 C   0  0  0  0  0  0  0  0  0  0  0  0
   -0.4325   -2.8955    4.1069 H   0  0  0  0  0  0  0  0  0  0  0  0
    1.2061   -2.3280    2.8003 C   0  0  0  0  0  0  0  0  0  0  0  0
    1.9645   -2.9096    3.3454 H   0  0  0  0  0  0  0  0  0  0  0  0
    3.7800   -0.8510    0.8025 C   0  0  1  0  0  3  0  0  0  0  0  0
    5.5309   -2.3735    1.6705 C   0  0  0  0  0  0  0  0  0  0  0  0
    4.6737   -2.8583    2.1631 H   0  0  0  0  0  0  0  0  0  0  0  0
    6.2506   -2.0317    2.4450 H   0  0  0  0  0  0  0  0  0  0  0  0
    6.0421   -3.1194    1.0259 H   0  0  0  0  0  0  0  0  0  0  0  0
    6.1193   -0.4569    0.2188 C   0  0  0  0  0  0  0  0  0  0  0  0
    6.4467    0.3972    0.8508 H   0  0  0  0  0  0  0  0  0  0  0  0
    5.7385   -0.0466   -0.7363 H   0  0  0  0  0  0  0  0  0  0  0  0
    6.9893   -1.1127    0.0231 H   0  0  0  0  0  0  0  0  0  0  0  0
   -1.7774    1.8572    1.0448 C   0  0  0  0  0  0  0  0  0  0  0  0
   -1.0883    2.9398    0.4627 C   0  0  0  0  0  0  0  0  0  0  0  0
   -0.4794    2.8095   -0.4488 H   0  0  0  0  0  0  0  0  0  0  0  0
   -1.1445    4.2002    1.0787 C   0  0  0  0  0  0  0  0  0  0  0  0
   -0.6025    5.0413    0.6212 H   0  0  0  0  0  0  0  0  0  0  0  0
   -1.8700    4.3826    2.2655 C   0  0  0  0  0  0  0  0  0  0  0  0
   -1.9044    5.3733    2.7440 H   0  0  0  0  0  0  0  0  0  0  0  0
   -2.5491    3.2991    2.8484 C   0  0  0  0  0  0  0  0  0  0  0  0
   -3.1150    3.4365    3.7821 H   0  0  0  0  0  0  0  0  0  0  0  0
   -2.5049    2.0374    2.2411 C   0  0  0  0  0  0  0  0  0  0  0  0
   -3.0404    1.1906    2.6978 H   0  0  0  0  0  0  0  0  0  0  0  0
   -3.4212   -0.4325    0.3139 C   0  0  0  0  0  0  0  0  0  0  0  0
   -4.4800    0.4672    0.0666 C   0  0  0  0  0  0  0  0  0  0  0  0
   -4.2765    1.5451   -0.0228 H   0  0  0  0  0  0  0  0  0  0  0  0
   -5.7918   -0.0102   -0.0620 C   0  0  0  0  0  0  0  0  0  0  0  0
   -6.6127    0.6967   -0.2549 H   0  0  0  0  0  0  0  0  0  0  0  0
   -6.0564   -1.3844    0.0553 C   0  0  0  0  0  0  0  0  0  0  0  0
   -7.0874   -1.7566   -0.0432 H   0  0  0  0  0  0  0  0  0  0  0  0
   -5.0047   -2.2831    0.2946 C   0  0  0  0  0  0  0  0  0  0  0  0
   -5.2086   -3.3612    0.3815 H   0  0  0  0  0  0  0  0  0  0  0  0
   -3.6887   -1.8142    0.4168 C   0  0  0  0  0  0  0  0  0  0  0  0
   -2.8609   -2.5179    0.5788 H   0  0  0  0  0  0  0  0  0  0  0  0
   -0.8680    0.2533   -1.2544 C   0  0  0  0  0  3  0  0  0  0  0  0
   -1.1226    1.1611   -1.8298 H   0  0  0  0  0  0  0  0  0  0  0  0
   -0.9309   -0.9563   -2.1208 C   0  0  0  0  0  0  0  0  0  0  0  0
   -1.1696   -3.3361   -2.1211 C   0  0  0  0  0  0  0  0  0  0  0  0
   -0.9256   -4.1088   -1.3646 H   0  0  0  0  0  0  0  0  0  0  0  0
   -0.3566   -3.2991   -2.8748 H   0  0  0  0  0  0  0  0  0  0  0  0
   -2.5088   -3.6065   -2.7904 C   0  0  0  0  0  0  0  0  0  0  0  0
   -2.4947   -4.5991   -3.2851 H   0  0  0  0  0  0  0  0  0  0  0  0
   -2.7124   -2.8389   -3.5615 H   0  0  0  0  0  0  0  0  0  0  0  0
   -3.3366   -3.5969   -2.0533 H   0  0  0  0  0  0  0  0  0  0  0  0
  1 25  1  0  0  0  0
  1  9  1  0  0  0  0
  3  7  1  0  0  0  0
  4 49  2  0  0  0  0
  6 17  1  0  0  0  0
  7 14  1  0  0  0  0
  8  9  1  0  0  0  0
  8  7  2  0  0  0  0
  9 10  2  0  0  0  0
 10 11  1  0  0  0  0
 10 12  1  0  0  0  0
 12 13  1  0  0  0  0
 14 12  2  0  0  0  0
 14 15  1  0  0  0  0
 16  2  1  6  0  0  0
 16  6  1  0  0  0  0
 16  3  1  0  0  0  0
 17 18  1  0  0  0  0
 17 19  1  0  0  0  0
 20 17  1  0  0  0  0
 21 22  1  0  0  0  0
 21  6  1  0  0  0  0
 23 21  1  0  0  0  0
 24 21  1  0  0  0  0
 25 34  1  0  0  0  0
 26 25  2  0  0  0  0
 26 28  1  0  0  0  0
 27 26  1  0  0  0  0
 28 30  2  0  0  0  0
 29 28  1  0  0  0  0
 30 31  1  0  0  0  0
 30 32  1  0  0  0  0
 32 33  1  0  0  0  0
 34 35  1  0  0  0  0
 34 32  2  0  0  0  0
 36  1  1  0  0  0  0
 36 45  1  0  0  0  0
 37 36  2  0  0  0  0
 38 37  1  0  0  0  0
 39 41  2  0  0  0  0
 39 37  1  0  0  0  0
 40 39  1  0  0  0  0
 41 43  1  0  0  0  0
 42 41  1  0  0  0  0
 43 44  1  0  0  0  0
 43 45  2  0  0  0  0
 45 46  1  0  0  0  0
 47  1  1  0  0  0  0
 48 47  1  0  0  0  0
 49  5  1  0  0  0  0
 49 47  1  0  0  0  0
 50  5  1  0  0  0  0
 50 51  1  0  0  0  0
 52 50  1  0  0  0  0
 53 50  1  0  0  0  0
 53 56  1  0  0  0  0
 54 53  1  0  0  0  0
 55 53  1  0  0  0  0
M  END
