2,7,46
q = -1.0

 48 50  0  0  1  0  0  0  0  0999 V2000
    1.7448   -0.0774   -0.0587 P   0  0  0  0  0  4  0  0  0  0  0  0
   -3.2028    0.9489   -0.0828 S   0  0  0  0  0  1  0  0  0  0  0  0
   -3.0823   -1.6570    0.7284 O   0  0  0  0  0  0  0  0  0  0  0  0
   -5.1306   -0.8190    0.4106 N   0  0  0  0  0  0  0  0  0  0  0  0
    0.8692   -1.8407   -3.1281 N   0  0  0  0  0  0  0  0  0  0  0  0
   -1.7116   -1.7289    0.9986 C   0  0  0  0  0  0  0  0  0  0  0  0
   -0.7410   -0.9235    0.3757 C   0  0  0  0  0  3  0  0  0  0  0  0
    0.6038   -1.2168    0.7517 C   0  0  0  0  0  0  0  0  0  0  0  0
    0.9696   -2.2172    1.6680 C   0  0  0  0  0  0  0  0  0  0  0  0
    2.0273   -2.3977    1.9139 H   0  0  0  0  0  0  0  0  0  0  0  0
   -0.0442   -2.9915    2.2500 C   0  0  0  0  0  0  0  0  0  0  0  0
    0.2024   -3.7893    2.9653 H   0  0  0  0  0  0  0  0  0  0  0  0
   -1.3835   -2.7456    1.9119 C   0  0  0  0  0  0  0  0  0  0  0  0
   -2.1940   -3.3447    2.3532 H   0  0  0  0  0  0  0  0  0  0  0  0
   -3.7940   -0.5783    0.3746 C   0  0  2  0  0  3  0  0  0  0  0  0
   -5.7073   -2.0304    0.9810 C   0  0  0  0  0  0  0  0  0  0  0  0
   -4.9119   -2.6930    1.3559 H   0  0  0  0  0  0  0  0  0  0  0  0
   -6.2928   -2.5753    0.2107 H   0  0  0  0  0  0  0  0  0  0  0  0
   -6.3895   -1.7695    1.8179 H   0  0  0  0  0  0  0  0  0  0  0  0
   -6.0735    0.1935   -0.0440 C   0  0  0  0  0  0  0  0  0  0  0  0
   -5.6574    0.7304   -0.9181 H   0  0  0  0  0  0  0  0  0  0  0  0
   -6.2854    0.9433    0.7490 H   0  0  0  0  0  0  0  0  0  0  0  0
   -7.0195   -0.3057   -0.3282 H   0  0  0  0  0  0  0  0  0  0  0  0
    1.9509    1.4430    0.9129 C   0  0  0  0  0  0  0  0  0  0  0  0
    1.4150    2.6732    0.4804 C   0  0  0  0  0  0  0  0  0  0  0  0
    0.8325    2.7537   -0.4551 H   0  0  0  0  0  0  0  0  0  0  0  0
    1.5757    3.8088    1.2899 C   0  0  0  0  0  0  0  0  0  0  0  0
    1.1522    4.7669    0.9536 H   0  0  0  0  0  0  0  0  0  0  0  0
    2.2500    3.7224    2.5174 C   0  0  0  0  0  0  0  0  0  0  0  0
    2.3652    4.6180    3.1468 H   0  0  0  0  0  0  0  0  0  0  0  0
    2.7696    2.4910    2.9509 C   0  0  0  0  0  0  0  0  0  0  0  0
    3.2891    2.4170    3.9181 H   0  0  0  0  0  0  0  0  0  0  0  0
    2.6210    1.3496    2.1521 C   0  0  0  0  0  0  0  0  0  0  0  0
    3.0242    0.3840    2.4950 H   0  0  0  0  0  0  0  0  0  0  0  0
    3.3838   -0.8529   -0.2462 C   0  0  0  0  0  0  0  0  0  0  0  0
    4.5775   -0.1161   -0.0946 C   0  0  0  0  0  0  0  0  0  0  0  0
    4.5404    0.9335    0.2324 H   0  0  0  0  0  0  0  0  0  0  0  0
    5.8119   -0.7246   -0.3618 C   0  0  0  0  0  0  0  0  0  0  0  0
    6.7413   -0.1487   -0.2379 H   0  0  0  0  0  0  0  0  0  0  0  0
    5.8617   -2.0613   -0.7892 C   0  0  0  0  0  0  0  0  0  0  0  0
    6.8325   -2.5352   -0.9990 H   0  0  0  0  0  0  0  0  0  0  0  0
    4.6742   -2.7913   -0.9579 C   0  0  0  0  0  0  0  0  0  0  0  0
    4.7098   -3.8340   -1.3069 H   0  0  0  0  0  0  0  0  0  0  0  0
    3.4345   -2.1935   -0.6917 C   0  0  0  0  0  0  0  0  0  0  0  0
    2.5050   -2.7609   -0.8464 H   0  0  0  0  0  0  0  0  0  0  0  0
    0.8952    0.2846   -1.6070 C   0  0  0  0  0  3  0  0  0  0  0  0
    1.2632    1.2002   -2.1100 H   0  0  0  0  0  0  0  0  0  0  0  0
    0.8703   -0.8668   -2.4668 C   0  0  0  0  0  0  0  0  0  0  0  0
  1  8  1  0  0  0  0
  1 24  1  0  0  0  0
  3  6  1  0  0  0  0
  4 16  1  0  0  0  0
  5 48  3  0  0  0  0
  6 13  1  0  0  0  0
  7  8  1  0  0  0  0
  7  6  2  0  0  0  0
  8  9  2  0  0  0  0
  9 10  1  0  0  0  0
  9 11  1  0  0  0  0
 11 12  1  0  0  0  0
 13 11  2  0  0  0  0
 13 14  1  0  0  0  0
 15  2  1  6  0  0  0
 15  4  1  0  0  0  0
 15  3  1  0  0  0  0
 16 17  1  0  0  0  0
 16 19  1  0  0  0  0
 18 16  1  0  0  0  0
 20  4  1  0  0  0  0
 20 22  1  0  0  0  0
 21 20  1  0  0  0  0
 23 20  1  0  0  0  0
 24 33  1  0  0  0  0
 25 24  2  0  0  0  0
 25 27  1  0  0  0  0
 26 25  1  0  0  0  0
 27 29  2  0  0  0  0
 28 27  1  0  0  0  0
 29 31  1  0  0  0  0
 29 30  1  0  0  0  0
 31 32  1  0  0  0  0
 33 34  1  0  0  0  0
 33 31  2  0  0  0  0
 35 36  1  0  0  0  0
 35  1  1  0  0  0  0
 36 37  1  0  0  0  0
 38 39  1  0  0  0  0
 38 36  2  0  0  0  0
 40 38  1  0  0  0  0
 41 40  1  0  0  0  0
 42 40  2  0  0  0  0
 42 44  1  0  0  0  0
 43 42  1  0  0  0  0
 44 35  2  0  0  0  0
 45 44  1  0  0  0  0
 46  1  1  0  0  0  0
 47 46  1  0  0  0  0
 48 46  1  0  0  0  0
M  END
