1
q = 0.0, confidence = 0.998

 20 20  0  0  0  0  0  0  0  0999 V2000
    1.6230    0.8934   -1.0789 P   0  0  0  0  0  0  0  0  0  0  0  0
    2.1977    0.0718   -2.6067 C   0  0  0  0  0  0  0  0  0  0  0  0
    3.1853    0.4759   -2.9047 H   0  0  0  0  0  0  0  0  0  0  0  0
    1.4563    0.2780   -3.4029 H   0  0  0  0  0  0  0  0  0  0  0  0
    2.2469   -1.0211   -2.4423 H   0  0  0  0  0  0  0  0  0  0  0  0
    1.6436    2.6727   -1.5126 C   0  0  0  0  0  0  0  0  0  0  0  0
    2.6560    2.9291   -1.8840 H   0  0  0  0  0  0  0  0  0  0  0  0
    1.3928    3.2813   -0.6252 H   0  0  0  0  0  0  0  0  0  0  0  0
    0.8799    2.8699   -2.2890 H   0  0  0  0  0  0  0  0  0  0  0  0
    2.8999    0.7031    0.2035 C   0  0  0  0  0  0  0  0  0  0  0  0
    4.0092   -0.1493    0.0409 C   0  0  0  0  0  0  0  0  0  0  0  0
    4.1417   -0.7262   -0.8852 H   0  0  0  0  0  0  0  0  0  0  0  0
    4.9473   -0.2750    1.0763 C   0  0  0  0  0  0  0  0  0  0  0  0
    5.8124   -0.9423    0.9470 H   0  0  0  0  0  0  0  0  0  0  0  0
    4.7792    0.4376    2.2734 C   0  0  0  0  0  0  0  0  0  0  0  0
    5.5148    0.3308    3.0847 H   0  0  0  0  0  0  0  0  0  0  0  0
    3.6659    1.2777    2.4415 C   0  0  0  0  0  0  0  0  0  0  0  0
    3.5238    1.8274    3.3838 H   0  0  0  0  0  0  0  0  0  0  0  0
    2.7237    1.4094    1.4134 C   0  0  0  0  0  0  0  0  0  0  0  0
    1.8375    2.0483    1.5592 H   0  0  0  0  0  0  0  0  0  0  0  0
  1 10  1  0  0  0  0
  2  5  1  0  0  0  0
  2  1  1  0  0  0  0
  3  2  1  0  0  0  0
  4  2  1  0  0  0  0
  6  1  1  0  0  0  0
  6  8  1  0  0  0  0
  7  6  1  0  0  0  0
  9  6  1  0  0  0  0
 10 19  1  0  0  0  0
 11 10  2  0  0  0  0
 11 13  1  0  0  0  0
 12 11  1  0  0  0  0
 13 15  2  0  0  0  0
 14 13  1  0  0  0  0
 15 17  1  0  0  0  0
 15 16  1  0  0  0  0
 17 18  1  0  0  0  0
 19 20  1  0  0  0  0
 19 17  2  0  0  0  0
M  END
