1
q = 0.0, confidence = 1.0

 31 30  0  0  0  0  0  0  0  0999 V2000
   -1.7237    0.0482    0.0323 P   0  0  0  0  0  0  0  0  0  0  0  0
   -2.5339   -0.4101   -1.6046 C   0  0  0  0  0  0  0  0  0  0  0  0
   -2.6270    0.5805   -2.1032 H   0  0  0  0  0  0  0  0  0  0  0  0
   -1.6074   -1.2817   -2.4640 C   0  0  0  0  0  0  0  0  0  0  0  0
   -2.0623   -1.4468   -3.4627 H   0  0  0  0  0  0  0  0  0  0  0  0
   -1.4380   -2.2760   -2.0036 H   0  0  0  0  0  0  0  0  0  0  0  0
   -0.6150   -0.8101   -2.6049 H   0  0  0  0  0  0  0  0  0  0  0  0
   -3.9349   -1.0226   -1.4736 C   0  0  0  0  0  0  0  0  0  0  0  0
   -4.3848   -1.1381   -2.4814 H   0  0  0  0  0  0  0  0  0  0  0  0
   -4.6249   -0.4029   -0.8703 H   0  0  0  0  0  0  0  0  0  0  0  0
   -3.8972   -2.0328   -1.0190 H   0  0  0  0  0  0  0  0  0  0  0  0
   -2.3661    1.7544    0.4685 C   0  0  0  0  0  0  0  0  0  0  0  0
   -1.8960    1.9273    1.4613 H   0  0  0  0  0  0  0  0  0  0  0  0
   -3.8876    1.8609    0.6124 C   0  0  0  0  0  0  0  0  0  0  0  0
   -4.1585    2.8636    1.0032 H   0  0  0  0  0  0  0  0  0  0  0  0
   -4.3070    1.1095    1.3109 H   0  0  0  0  0  0  0  0  0  0  0  0
   -4.3979    1.7466   -0.3653 H   0  0  0  0  0  0  0  0  0  0  0  0
   -1.7982    2.7973   -0.5028 C   0  0  0  0  0  0  0  0  0  0  0  0
   -2.0675    3.8182   -0.1626 H   0  0  0  0  0  0  0  0  0  0  0  0
   -2.2103    2.6746   -1.5262 H   0  0  0  0  0  0  0  0  0  0  0  0
   -0.6935    2.7340   -0.5689 H   0  0  0  0  0  0  0  0  0  0  0  0
   -2.3875   -1.1118    1.3395 C   0  0  0  0  0  0  0  0  0  0  0  0
   -3.4945   -1.1081    1.2396 H   0  0  0  0  0  0  0  0  0  0  0  0
   -1.8605   -2.5315    1.0893 C   0  0  0  0  0  0  0  0  0  0  0  0
   -2.2563   -3.2233    1.8612 H   0  0  0  0  0  0  0  0  0  0  0  0
   -0.7524   -2.5545    1.1423 H   0  0  0  0  0  0  0  0  0  0  0  0
   -2.1579   -2.9284    0.0992 H   0  0  0  0  0  0  0  0  0  0  0  0
   -2.0027   -0.6123    2.7379 C   0  0  0  0  0  0  0  0  0  0  0  0
   -2.3310   -1.3470    3.5016 H   0  0  0  0  0  0  0  0  0  0  0  0
   -2.4715    0.3592    2.9895 H   0  0  0  0  0  0  0  0  0  0  0  0
   -0.9021   -0.4991    2.8298 H   0  0  0  0  0  0  0  0  0  0  0  0
  1 12  1  0  0  0  0
  1 22  1  0  0  0  0
  2  8  1  0  0  0  0
  2  1  1  0  0  0  0
  3  2  1  0  0  0  0
  4  6  1  0  0  0  0
  4  2  1  0  0  0  0
  5  4  1  0  0  0  0
  7  4  1  0  0  0  0
  8 11  1  0  0  0  0
  8 10  1  0  0  0  0
  9  8  1  0  0  0  0
 12 14  1  0  0  0  0
 12 13  1  0  0  0  0
 14 15  1  0  0  0  0
 14 16  1  0  0  0  0
 17 14  1  0  0  0  0
 18 19  1  0  0  0  0
 18 12  1  0  0  0  0
 20 18  1  0  0  0  0
 21 18  1  0  0  0  0
 22 28  1  0  0  0  0
 23 22  1  0  0  0  0
 24 26  1  0  0  0  0
 24 22  1  0  0  0  0
 24 25  1  0  0  0  0
 27 24  1  0  0  0  0
 28 31  1  0  0  0  0
 28 30  1  0  0  0  0
 28 29  1  0  0  0  0
M  END
