1
q = 0.0, confidence = 0.998

 46 46  0  0  0  0  0  0  0  0999 V2000
    0.4393   -0.9003    0.9138 P   0  0  0  0  0  0  0  0  0  0  0  0
    2.1325   -0.8072    0.2213 C   0  0  0  0  0  0  0  0  0  0  0  0
    2.2472   -0.4454   -1.1415 C   0  0  0  0  0  0  0  0  0  0  0  0
    1.3422   -0.1375   -1.6894 H   0  0  0  0  0  0  0  0  0  0  0  0
    3.4780   -0.4192   -1.7958 C   0  0  0  0  0  0  0  0  0  0  0  0
    3.5034   -0.1196   -2.8509 H   0  0  0  0  0  0  0  0  0  0  0  0
    4.6816   -0.7486   -1.1072 C   0  0  0  0  0  0  0  0  0  0  0  0
    4.5663   -1.1056    0.2669 C   0  0  0  0  0  0  0  0  0  0  0  0
    5.4584   -1.3657    0.8503 H   0  0  0  0  0  0  0  0  0  0  0  0
    3.3218   -1.1400    0.9021 C   0  0  0  0  0  0  0  0  0  0  0  0
    3.2928   -1.4394    1.9584 H   0  0  0  0  0  0  0  0  0  0  0  0
    5.9053   -0.7157   -1.7423 N   0  0  0  0  0  0  0  0  0  0  0  0
    5.9867   -0.3348   -3.1386 C   0  0  0  0  0  0  0  0  0  0  0  0
    5.3955   -1.0151   -3.7919 H   0  0  0  0  0  0  0  0  0  0  0  0
    7.0397   -0.3806   -3.4695 H   0  0  0  0  0  0  0  0  0  0  0  0
    5.6185    0.7014   -3.3148 H   0  0  0  0  0  0  0  0  0  0  0  0
    7.1126   -1.0307   -1.0059 C   0  0  0  0  0  0  0  0  0  0  0  0
    7.2776   -0.3360   -0.1510 H   0  0  0  0  0  0  0  0  0  0  0  0
    7.9844   -0.9500   -1.6797 H   0  0  0  0  0  0  0  0  0  0  0  0
    7.0951   -2.0660   -0.5964 H   0  0  0  0  0  0  0  0  0  0  0  0
   -0.0173   -2.7181    0.4348 C   0  0  0  0  0  0  0  0  0  0  0  0
   -0.2224   -2.7170   -1.0935 C   0  0  0  0  0  0  0  0  0  0  0  0
   -0.6134   -3.7107   -1.3987 H   0  0  0  0  0  0  0  0  0  0  0  0
    0.7365   -2.5641   -1.6264 H   0  0  0  0  0  0  0  0  0  0  0  0
   -0.9345   -1.9482   -1.4439 H   0  0  0  0  0  0  0  0  0  0  0  0
    1.1338   -3.6930    0.7483 C   0  0  0  0  0  0  0  0  0  0  0  0
    0.8317   -4.7008    0.3916 H   0  0  0  0  0  0  0  0  0  0  0  0
    1.3514   -3.7806    1.8279 H   0  0  0  0  0  0  0  0  0  0  0  0
    2.0687   -3.4204    0.2229 H   0  0  0  0  0  0  0  0  0  0  0  0
   -1.2964   -3.1870    1.1491 C   0  0  0  0  0  0  0  0  0  0  0  0
   -1.5755   -4.1847    0.7481 H   0  0  0  0  0  0  0  0  0  0  0  0
   -2.1451   -2.5030    0.9736 H   0  0  0  0  0  0  0  0  0  0  0  0
   -1.1432   -3.3095    2.2388 H   0  0  0  0  0  0  0  0  0  0  0  0
    0.4835   -0.6944    2.8221 C   0  0  0  0  0  0  0  0  0  0  0  0
    1.0327   -1.9003    3.6040 C   0  0  0  0  0  0  0  0  0  0  0  0
    1.0244   -1.6478    4.6857 H   0  0  0  0  0  0  0  0  0  0  0  0
    2.0759   -2.1553    3.3375 H   0  0  0  0  0  0  0  0  0  0  0  0
    0.4122   -2.8064    3.4755 H   0  0  0  0  0  0  0  0  0  0  0  0
   -0.9749   -0.4338    3.2569 C   0  0  0  0  0  0  0  0  0  0  0  0
   -0.9985   -0.2631    4.3541 H   0  0  0  0  0  0  0  0  0  0  0  0
   -1.6492   -1.2787    3.0251 H   0  0  0  0  0  0  0  0  0  0  0  0
   -1.3809    0.4669    2.7519 H   0  0  0  0  0  0  0  0  0  0  0  0
    1.3144    0.5574    3.1565 C   0  0  0  0  0  0  0  0  0  0  0  0
    1.2714    0.7253    4.2536 H   0  0  0  0  0  0  0  0  0  0  0  0
    0.9124    1.4576    2.6555 H   0  0  0  0  0  0  0  0  0  0  0  0
    2.3789    0.4574    2.8708 H   0  0  0  0  0  0  0  0  0  0  0  0
  1 34  1  0  0  0  0
  2 10  1  0  0  0  0
  2  1  1  0  0  0  0
  3  2  2  0  0  0  0
  4  3  1  0  0  0  0
  5  3  1  0  0  0  0
  5  7  2  0  0  0  0
  6  5  1  0  0  0  0
  7  8  1  0  0  0  0
  8  9  1  0  0  0  0
  8 10  2  0  0  0  0
 10 11  1  0  0  0  0
 12  7  1  0  0  0  0
 12 17  1  0  0  0  0
 13 12  1  0  0  0  0
 14 13  1  0  0  0  0
 15 13  1  0  0  0  0
 16 13  1  0  0  0  0
 17 20  1  0  0  0  0
 17 18  1  0  0  0  0
 19 17  1  0  0  0  0
 21 26  1  0  0  0  0
 21  1  1  0  0  0  0
 21 30  1  0  0  0  0
 22 21  1  0  0  0  0
 23 22  1  0  0  0  0
 24 22  1  0  0  0  0
 25 22  1  0  0  0  0
 26 28  1  0  0  0  0
 27 26  1  0  0  0  0
 29 26  1  0  0  0  0
 30 33  1  0  0  0  0
 31 30  1  0  0  0  0
 32 30  1  0  0  0  0
 34 43  1  0  0  0  0
 34 39  1  0  0  0  0
 34 35  1  0  0  0  0
 35 36  1  0  0  0  0
 37 35  1  0  0  0  0
 38 35  1  0  0  0  0
 39 40  1  0  0  0  0
 41 39  1  0  0  0  0
 42 39  1  0  0  0  0
 43 44  1  0  0  0  0
 45 43  1  0  0  0  0
 46 43  1  0  0  0  0
M  END
