1
q = 0.0, confidence = 0.982

 22 21  0  0  0  0  0  0  0  0999 V2000
    1.8215   -1.7009   -0.1731 P   0  0  0  0  0  0  0  0  0  0  0  0
    3.0359   -2.0404    1.1838 C   0  0  0  0  0  0  0  0  0  0  0  0
    3.2459   -3.1309    1.1841 H   0  0  0  0  0  0  0  0  0  0  0  0
    3.9646   -1.5173    0.8787 H   0  0  0  0  0  0  0  0  0  0  0  0
    2.5866   -1.5401    2.5587 C   0  0  0  0  0  0  0  0  0  0  0  0
    2.4642   -0.4387    2.5395 H   0  0  0  0  0  0  0  0  0  0  0  0
    3.3494   -1.7812    3.3253 H   0  0  0  0  0  0  0  0  0  0  0  0
    1.6310   -1.9963    2.8848 H   0  0  0  0  0  0  0  0  0  0  0  0
    0.7433   -3.2085   -0.2711 C   0  0  0  0  0  0  0  0  0  0  0  0
   -0.0099   -2.9958   -1.0590 H   0  0  0  0  0  0  0  0  0  0  0  0
    1.3795   -4.0310   -0.6606 H   0  0  0  0  0  0  0  0  0  0  0  0
    0.0653   -3.6403    1.0293 C   0  0  0  0  0  0  0  0  0  0  0  0
    0.8041   -3.9448    1.7963 H   0  0  0  0  0  0  0  0  0  0  0  0
   -0.5956   -4.5107    0.8477 H   0  0  0  0  0  0  0  0  0  0  0  0
   -0.5598   -2.8350    1.4599 H   0  0  0  0  0  0  0  0  0  0  0  0
    2.7838   -1.7648   -1.7569 C   0  0  0  0  0  0  0  0  0  0  0  0
    2.0320   -1.6852   -2.5724 H   0  0  0  0  0  0  0  0  0  0  0  0
    3.3575   -0.8154   -1.7647 H   0  0  0  0  0  0  0  0  0  0  0  0
    3.6935   -2.9785   -1.9529 C   0  0  0  0  0  0  0  0  0  0  0  0
    4.4665   -3.0444   -1.1621 H   0  0  0  0  0  0  0  0  0  0  0  0
    4.2245   -2.8972   -2.9222 H   0  0  0  0  0  0  0  0  0  0  0  0
    3.1352   -3.9359   -1.9673 H   0  0  0  0  0  0  0  0  0  0  0  0
  1  2  1  0  0  0  0
  2  3  1  0  0  0  0
  2  5  1  0  0  0  0
  4  2  1  0  0  0  0
  5  8  1  0  0  0  0
  5  7  1  0  0  0  0
  6  5  1  0  0  0  0
  9  1  1  0  0  0  0
  9 12  1  0  0  0  0
 10  9  1  0  0  0  0
 11  9  1  0  0  0  0
 12 15  1  0  0  0  0
 12 13  1  0  0  0  0
 14 12  1  0  0  0  0
 16  1  1  0  0  0  0
 17 16  1  0  0  0  0
 18 16  1  0  0  0  0
 19 16  1  0  0  0  0
 19 20  1  0  0  0  0
 21 19  1  0  0  0  0
 22 19  1  0  0  0  0
M  END
