1
q = 0.0, confidence = 0.95

 25 24  0  0  0  0  0  0  0  0999 V2000
   -2.1187   -0.7529   -0.5733 P   0  0  0  0  0  0  0  0  0  0  0  0
   -3.2931   -1.1194    0.8082 C   0  0  0  0  0  0  0  0  0  0  0  0
   -4.1677   -1.6598    0.3886 H   0  0  0  0  0  0  0  0  0  0  0  0
   -2.7580   -1.8041    1.4973 H   0  0  0  0  0  0  0  0  0  0  0  0
   -3.7363    0.1308    1.5915 C   0  0  0  0  0  0  0  0  0  0  0  0
   -2.8385    0.6465    1.9966 H   0  0  0  0  0  0  0  0  0  0  0  0
   -4.2757    0.8482    0.9373 H   0  0  0  0  0  0  0  0  0  0  0  0
   -4.6196   -0.2173    2.7040 C   0  0  0  0  0  0  0  0  0  0  0  0
   -5.3265   -0.5221    3.5861 N   0  0  0  0  0  0  0  0  0  0  0  0
   -3.0516    0.3312   -1.7537 C   0  0  0  0  0  0  0  0  0  0  0  0
   -2.7291    0.0410   -2.7731 H   0  0  0  0  0  0  0  0  0  0  0  0
   -4.1345    0.1041   -1.6649 H   0  0  0  0  0  0  0  0  0  0  0  0
   -2.7656    1.8316   -1.5411 C   0  0  0  0  0  0  0  0  0  0  0  0
   -2.9618    2.1434   -0.4932 H   0  0  0  0  0  0  0  0  0  0  0  0
   -1.6865    2.0159   -1.7339 H   0  0  0  0  0  0  0  0  0  0  0  0
   -3.5640    2.6717   -2.4323 C   0  0  0  0  0  0  0  0  0  0  0  0
   -4.2173    3.3243   -3.1523 N   0  0  0  0  0  0  0  0  0  0  0  0
   -1.9674   -2.3586   -1.4750 C   0  0  0  0  0  0  0  0  0  0  0  0
   -2.9752   -2.7449   -1.7341 H   0  0  0  0  0  0  0  0  0  0  0  0
   -1.4369   -2.1110   -2.4172 H   0  0  0  0  0  0  0  0  0  0  0  0
   -1.1552   -3.3943   -0.6737 C   0  0  0  0  0  0  0  0  0  0  0  0
   -0.1686   -2.9602   -0.3977 H   0  0  0  0  0  0  0  0  0  0  0  0
   -1.6582   -3.6538    0.2820 H   0  0  0  0  0  0  0  0  0  0  0  0
   -0.9353   -4.6260   -1.4304 C   0  0  0  0  0  0  0  0  0  0  0  0
   -0.7680   -5.6014   -2.0559 N   0  0  0  0  0  0  0  0  0  0  0  0
  1  2  1  0  0  0  0
  2  4  1  0  0  0  0
  2  5  1  0  0  0  0
  3  2  1  0  0  0  0
  5  6  1  0  0  0  0
  5  8  1  0  0  0  0
  7  5  1  0  0  0  0
  8  9  3  0  0  0  0
 10 12  1  0  0  0  0
 10 13  1  0  0  0  0
 10  1  1  0  0  0  0
 11 10  1  0  0  0  0
 13 14  1  0  0  0  0
 15 13  1  0  0  0  0
 16 13  1  0  0  0  0
 17 16  3  0  0  0  0
 18 21  1  0  0  0  0
 18  1  1  0  0  0  0
 19 18  1  0  0  0  0
 20 18  1  0  0  0  0
 21 22  1  0  0  0  0
 21 23  1  0  0  0  0
 24 21  1  0  0  0  0
 25 24  3  0  0  0  0
M  END
