1
q = 0.0, confidence = 0.99

 46 48  0  0  0  0  0  0  0  0999 V2000
   -0.0355   -0.0154    0.0661 P   0  0  0  0  0  0  0  0  0  0  0  0
    3.3935   -4.9383    0.3714 O   0  0  0  0  0  0  0  0  0  0  0  0
   -4.7602   -1.7060   -3.2393 O   0  0  0  0  0  0  0  0  0  0  0  0
    2.9158    3.9263   -3.3785 O   0  0  0  0  0  0  0  0  0  0  0  0
    1.0682   -1.4742    0.1198 C   0  0  0  0  0  0  0  0  0  0  0  0
    0.8246   -2.4700    1.0945 C   0  0  0  0  0  0  0  0  0  0  0  0
    0.0094   -2.3309    1.8225 H   0  0  0  0  0  0  0  0  0  0  0  0
    1.6137   -3.6167    1.1493 C   0  0  0  0  0  0  0  0  0  0  0  0
    1.4387   -4.3974    1.9033 H   0  0  0  0  0  0  0  0  0  0  0  0
    2.6784   -3.7935    0.2346 C   0  0  0  0  0  0  0  0  0  0  0  0
    2.9368   -2.7996   -0.7328 C   0  0  0  0  0  0  0  0  0  0  0  0
    3.7635   -2.9060   -1.4474 H   0  0  0  0  0  0  0  0  0  0  0  0
    2.1311   -1.6509   -0.7831 C   0  0  0  0  0  0  0  0  0  0  0  0
    2.3439   -0.8783   -1.5376 H   0  0  0  0  0  0  0  0  0  0  0  0
    4.4823   -5.1663   -0.5053 C   0  0  0  0  0  0  0  0  0  0  0  0
    4.9163   -6.1413   -0.2170 H   0  0  0  0  0  0  0  0  0  0  0  0
    5.2631   -4.3793   -0.4082 H   0  0  0  0  0  0  0  0  0  0  0  0
    4.1548   -5.2158   -1.5679 H   0  0  0  0  0  0  0  0  0  0  0  0
   -1.4802   -0.5582   -0.9165 C   0  0  0  0  0  0  0  0  0  0  0  0
   -1.4125   -1.6442   -1.8179 C   0  0  0  0  0  0  0  0  0  0  0  0
   -0.4793   -2.2203   -1.9132 H   0  0  0  0  0  0  0  0  0  0  0  0
   -2.5248   -2.0020   -2.5807 C   0  0  0  0  0  0  0  0  0  0  0  0
   -2.4910   -2.8482   -3.2820 H   0  0  0  0  0  0  0  0  0  0  0  0
   -3.7351   -1.2817   -2.4589 C   0  0  0  0  0  0  0  0  0  0  0  0
   -3.8134   -0.2003   -1.5540 C   0  0  0  0  0  0  0  0  0  0  0  0
   -4.7445    0.3676   -1.4280 H   0  0  0  0  0  0  0  0  0  0  0  0
   -2.6914    0.1480   -0.7906 C   0  0  0  0  0  0  0  0  0  0  0  0
   -2.7607    0.9809   -0.0724 H   0  0  0  0  0  0  0  0  0  0  0  0
   -6.0036   -1.0315   -3.1514 C   0  0  0  0  0  0  0  0  0  0  0  0
   -6.6829   -1.5365   -3.8624 H   0  0  0  0  0  0  0  0  0  0  0  0
   -5.9135    0.0406   -3.4355 H   0  0  0  0  0  0  0  0  0  0  0  0
   -6.4370   -1.0956   -2.1286 H   0  0  0  0  0  0  0  0  0  0  0  0
    0.8322    1.2037   -0.9866 C   0  0  0  0  0  0  0  0  0  0  0  0
    0.6845    1.2281   -2.3916 C   0  0  0  0  0  0  0  0  0  0  0  0
   -0.0031    0.5237   -2.8839 H   0  0  0  0  0  0  0  0  0  0  0  0
    1.3955    2.1484   -3.1628 C   0  0  0  0  0  0  0  0  0  0  0  0
    1.2870    2.1847   -4.2564 H   0  0  0  0  0  0  0  0  0  0  0  0
    2.2722    3.0701   -2.5461 C   0  0  0  0  0  0  0  0  0  0  0  0
    2.4196    3.0575   -1.1417 C   0  0  0  0  0  0  0  0  0  0  0  0
    3.0823    3.7708   -0.6343 H   0  0  0  0  0  0  0  0  0  0  0  0
    1.6981    2.1312   -0.3769 C   0  0  0  0  0  0  0  0  0  0  0  0
    1.8012    2.1355    0.7203 H   0  0  0  0  0  0  0  0  0  0  0  0
    3.7968    4.8841   -2.8171 C   0  0  0  0  0  0  0  0  0  0  0  0
    4.2033    5.4674   -3.6636 H   0  0  0  0  0  0  0  0  0  0  0  0
    4.6386    4.4021   -2.2717 H   0  0  0  0  0  0  0  0  0  0  0  0
    3.2686    5.5740   -2.1220 H   0  0  0  0  0  0  0  0  0  0  0  0
  1  5  1  0  0  0  0
  3 29  1  0  0  0  0
  3 24  1  0  0  0  0
  4 43  1  0  0  0  0
  4 38  1  0  0  0  0
  5  6  1  0  0  0  0
  6  8  2  0  0  0  0
  6  7  1  0  0  0  0
  8  9  1  0  0  0  0
 10  2  1  0  0  0  0
 10  8  1  0  0  0  0
 11 10  2  0  0  0  0
 12 11  1  0  0  0  0
 13 11  1  0  0  0  0
 13  5  2  0  0  0  0
 14 13  1  0  0  0  0
 15 17  1  0  0  0  0
 15 16  1  0  0  0  0
 15  2  1  0  0  0  0
 18 15  1  0  0  0  0
 19 27  1  0  0  0  0
 19  1  1  0  0  0  0
 20 19  2  0  0  0  0
 21 20  1  0  0  0  0
 22 24  2  0  0  0  0
 22 20  1  0  0  0  0
 23 22  1  0  0  0  0
 24 25  1  0  0  0  0
 25 26  1  0  0  0  0
 25 27  2  0  0  0  0
 27 28  1  0  0  0  0
 29 32  1  0  0  0  0
 30 29  1  0  0  0  0
 31 29  1  0  0  0  0
 33 41  1  0  0  0  0
 33  1  1  0  0  0  0
 34 33  2  0  0  0  0
 35 34  1  0  0  0  0
 36 38  2  0  0  0  0
 36 34  1  0  0  0  0
 37 36  1  0  0  0  0
 38 39  1  0  0  0  0
 39 40  1  0  0  0  0
 39 41  2  0  0  0  0
 41 42  1  0  0  0  0
 43 45  1  0  0  0  0
 43 46  1  0  0  0  0
 44 43  1  0  0  0  0
M  END
