1
q = 0.0, confidence = 1.0

 60 60  0  0  0  0  0  0  0  0999 V2000
    1.5558   -0.6310   -0.0040 P   0  0  0  0  0  0  0  0  0  0  0  0
   -0.5615    1.2524   -1.9731 O   0  0  0  0  0  0  0  0  0  0  0  0
   -1.6199    2.0452   -0.0834 N   0  0  0  0  0  0  0  0  0  0  0  0
    1.8693    1.1897    0.0594 C   0  0  0  0  0  0  0  0  0  0  0  0
    3.1502    1.6965    0.3775 C   0  0  0  0  0  0  0  0  0  0  0  0
    3.9673    1.0042    0.6137 H   0  0  0  0  0  0  0  0  0  0  0  0
    3.4157    3.0722    0.3861 C   0  0  0  0  0  0  0  0  0  0  0  0
    4.4257    3.4328    0.6322 H   0  0  0  0  0  0  0  0  0  0  0  0
    2.3932    3.9784    0.0702 C   0  0  0  0  0  0  0  0  0  0  0  0
    2.5898    5.0612    0.0625 H   0  0  0  0  0  0  0  0  0  0  0  0
    1.1193    3.4955   -0.2487 C   0  0  0  0  0  0  0  0  0  0  0  0
    0.3171    4.1978   -0.5210 H   0  0  0  0  0  0  0  0  0  0  0  0
    0.8394    2.1114   -0.2592 C   0  0  0  0  0  0  0  0  0  0  0  0
   -0.5171    1.7169   -0.8231 C   0  0  0  0  0  0  0  0  0  0  0  0
   -1.5380    2.3227    1.3680 C   0  0  0  0  0  0  0  0  0  0  0  0
   -0.4763    2.1503    1.6356 H   0  0  0  0  0  0  0  0  0  0  0  0
   -1.8789    3.7811    1.6964 C   0  0  0  0  0  0  0  0  0  0  0  0
   -1.2079    4.4872    1.1698 H   0  0  0  0  0  0  0  0  0  0  0  0
   -1.7790    3.9595    2.7856 H   0  0  0  0  0  0  0  0  0  0  0  0
   -2.9246    4.0252    1.4174 H   0  0  0  0  0  0  0  0  0  0  0  0
   -2.3837    1.3364    2.1841 C   0  0  0  0  0  0  0  0  0  0  0  0
   -2.1965    0.2828    1.8973 H   0  0  0  0  0  0  0  0  0  0  0  0
   -3.4692    1.5289    2.0600 H   0  0  0  0  0  0  0  0  0  0  0  0
   -2.1540    1.4569    3.2618 H   0  0  0  0  0  0  0  0  0  0  0  0
   -2.9638    2.0493   -0.7162 C   0  0  0  0  0  0  0  0  0  0  0  0
   -3.6352    2.4578    0.0667 H   0  0  0  0  0  0  0  0  0  0  0  0
   -3.4624    0.6436   -1.0629 C   0  0  0  0  0  0  0  0  0  0  0  0
   -3.4480   -0.0089   -0.1701 H   0  0  0  0  0  0  0  0  0  0  0  0
   -2.8305    0.1822   -1.8445 H   0  0  0  0  0  0  0  0  0  0  0  0
   -4.5037    0.6953   -1.4402 H   0  0  0  0  0  0  0  0  0  0  0  0
   -3.0113    3.0163   -1.9052 C   0  0  0  0  0  0  0  0  0  0  0  0
   -2.6915    4.0338   -1.6015 H   0  0  0  0  0  0  0  0  0  0  0  0
   -4.0469    3.0827   -2.2941 H   0  0  0  0  0  0  0  0  0  0  0  0
   -2.3525    2.6657   -2.7218 H   0  0  0  0  0  0  0  0  0  0  0  0
    1.9802   -1.2999    1.7390 C   0  0  0  0  0  0  0  0  0  0  0  0
    1.8963   -2.8355    1.6694 C   0  0  0  0  0  0  0  0  0  0  0  0
    1.9362   -3.2487    2.6991 H   0  0  0  0  0  0  0  0  0  0  0  0
    2.7386   -3.2762    1.1003 H   0  0  0  0  0  0  0  0  0  0  0  0
    0.9438   -3.1715    1.2092 H   0  0  0  0  0  0  0  0  0  0  0  0
    3.3282   -0.8754    2.3404 C   0  0  0  0  0  0  0  0  0  0  0  0
    3.4567   -1.3911    3.3158 H   0  0  0  0  0  0  0  0  0  0  0  0
    3.3660    0.2116    2.5430 H   0  0  0  0  0  0  0  0  0  0  0  0
    4.1924   -1.1506    1.7073 H   0  0  0  0  0  0  0  0  0  0  0  0
    0.8415   -0.7700    2.6353 C   0  0  0  0  0  0  0  0  0  0  0  0
    1.0020   -1.1261    3.6751 H   0  0  0  0  0  0  0  0  0  0  0  0
   -0.1530   -1.1292    2.2988 H   0  0  0  0  0  0  0  0  0  0  0  0
    0.8254    0.3391    2.6605 H   0  0  0  0  0  0  0  0  0  0  0  0
    2.7126   -1.2633   -1.3947 C   0  0  0  0  0  0  0  0  0  0  0  0
    2.1566   -2.6210   -1.8670 C   0  0  0  0  0  0  0  0  0  0  0  0
    2.7714   -2.9897   -2.7154 H   0  0  0  0  0  0  0  0  0  0  0  0
    1.1084   -2.5268   -2.2172 H   0  0  0  0  0  0  0  0  0  0  0  0
    2.1806   -3.3919   -1.0731 H   0  0  0  0  0  0  0  0  0  0  0  0
    2.5673   -0.2389   -2.5383 C   0  0  0  0  0  0  0  0  0  0  0  0
    2.9948   -0.6717   -3.4672 H   0  0  0  0  0  0  0  0  0  0  0  0
    3.1088    0.7015   -2.3178 H   0  0  0  0  0  0  0  0  0  0  0  0
    1.5060    0.0248   -2.7271 H   0  0  0  0  0  0  0  0  0  0  0  0
    4.1882   -1.4217   -1.0026 C   0  0  0  0  0  0  0  0  0  0  0  0
    4.7639   -1.7442   -1.8964 H   0  0  0  0  0  0  0  0  0  0  0  0
    4.3368   -2.1937   -0.2223 H   0  0  0  0  0  0  0  0  0  0  0  0
    4.6400   -0.4732   -0.6544 H   0  0  0  0  0  0  0  0  0  0  0  0
  1  4  1  0  0  0  0
  1 35  1  0  0  0  0
  2 14  2  0  0  0  0
  3 15  1  0  0  0  0
  4  5  1  0  0  0  0
  5  7  2  0  0  0  0
  5  6  1  0  0  0  0
  7  8  1  0  0  0  0
  9  7  1  0  0  0  0
 10  9  1  0  0  0  0
 11  9  2  0  0  0  0
 12 11  1  0  0  0  0
 13 11  1  0  0  0  0
 13  4  2  0  0  0  0
 14 13  1  0  0  0  0
 14  3  1  0  0  0  0
 15 16  1  0  0  0  0
 15 17  1  0  0  0  0
 15 21  1  0  0  0  0
 17 19  1  0  0  0  0
 18 17  1  0  0  0  0
 20 17  1  0  0  0  0
 21 24  1  0  0  0  0
 22 21  1  0  0  0  0
 23 21  1  0  0  0  0
 25  3  1  0  0  0  0
 25 26  1  0  0  0  0
 27 25  1  0  0  0  0
 27 28  1  0  0  0  0
 29 27  1  0  0  0  0
 30 27  1  0  0  0  0
 31 32  1  0  0  0  0
 31 25  1  0  0  0  0
 33 31  1  0  0  0  0
 34 31  1  0  0  0  0
 35 40  1  0  0  0  0
 35 44  1  0  0  0  0
 36 35  1  0  0  0  0
 36 37  1  0  0  0  0
 38 36  1  0  0  0  0
 39 36  1  0  0  0  0
 40 42  1  0  0  0  0
 40 41  1  0  0  0  0
 43 40  1  0  0  0  0
 44 47  1  0  0  0  0
 44 45  1  0  0  0  0
 46 44  1  0  0  0  0
 48 57  1  0  0  0  0
 48  1  1  0  0  0  0
 49 48  1  0  0  0  0
 49 52  1  0  0  0  0
 50 49  1  0  0  0  0
 51 49  1  0  0  0  0
 53 55  1  0  0  0  0
 53 48  1  0  0  0  0
 54 53  1  0  0  0  0
 56 53  1  0  0  0  0
 57 60  1  0  0  0  0
 57 59  1  0  0  0  0
 58 57  1  0  0  0  0
M  END
