1
q = 0.0, confidence = 0.984

 43 45  0  0  0  0  0  0  0  0999 V2000
   -0.0006   -0.0002   -0.5245 P   0  0  0  0  0  0  0  0  0  0  0  0
    0.4538    1.6185   -1.3335 C   0  0  0  0  0  0  0  0  0  0  0  0
   -0.3564    2.0826   -2.3904 C   0  0  0  0  0  0  0  0  0  0  0  0
   -1.2068    1.4732   -2.7246 H   0  0  0  0  0  0  0  0  0  0  0  0
   -0.1079    3.3059   -3.0273 C   0  0  0  0  0  0  0  0  0  0  0  0
   -0.7654    3.6357   -3.8453 H   0  0  0  0  0  0  0  0  0  0  0  0
    0.9717    4.0968   -2.6184 C   0  0  0  0  0  0  0  0  0  0  0  0
    1.1783    5.0608   -3.1060 H   0  0  0  0  0  0  0  0  0  0  0  0
    1.7972    3.6480   -1.5803 C   0  0  0  0  0  0  0  0  0  0  0  0
    2.6559    4.2529   -1.2592 H   0  0  0  0  0  0  0  0  0  0  0  0
    1.5557    2.4225   -0.9332 C   0  0  0  0  0  0  0  0  0  0  0  0
    2.5090    2.0594    0.1962 C   0  0  0  0  0  0  0  0  0  0  0  0
    3.6986    2.6930    0.0539 F   0  0  0  0  0  0  0  0  0  0  0  0
    2.7783    0.7295    0.2278 F   0  0  0  0  0  0  0  0  0  0  0  0
    2.0138    2.4144    1.3988 F   0  0  0  0  0  0  0  0  0  0  0  0
   -1.6303   -0.4165   -1.3321 C   0  0  0  0  0  0  0  0  0  0  0  0
    1.1739   -1.2037   -1.3328 C   0  0  0  0  0  0  0  0  0  0  0  0
   -1.6272   -1.3500   -2.3892 C   0  0  0  0  0  0  0  0  0  0  0  0
    1.9797   -0.7348   -2.3910 C   0  0  0  0  0  0  0  0  0  0  0  0
   -0.6742   -1.7813   -2.7240 H   0  0  0  0  0  0  0  0  0  0  0  0
    1.8761    0.3060   -2.7263 H   0  0  0  0  0  0  0  0  0  0  0  0
   -2.8109   -1.7471   -3.0254 C   0  0  0  0  0  0  0  0  0  0  0  0
    2.9149   -1.5617   -3.0276 C   0  0  0  0  0  0  0  0  0  0  0  0
   -2.7677   -2.4814   -3.8436 H   0  0  0  0  0  0  0  0  0  0  0  0
    3.5283   -1.1576   -3.8467 H   0  0  0  0  0  0  0  0  0  0  0  0
   -4.0358   -1.2087   -2.6157 C   0  0  0  0  0  0  0  0  0  0  0  0
    3.0615   -2.8914   -2.6172 C   0  0  0  0  0  0  0  0  0  0  0  0
   -4.9740   -1.5124   -3.1027 H   0  0  0  0  0  0  0  0  0  0  0  0
    3.7932   -3.5524   -3.1046 H   0  0  0  0  0  0  0  0  0  0  0  0
   -4.0598   -0.2696   -1.5773 C   0  0  0  0  0  0  0  0  0  0  0  0
    2.2614   -3.3812   -1.5777 C   0  0  0  0  0  0  0  0  0  0  0  0
   -5.0132    0.1707   -1.2554 H   0  0  0  0  0  0  0  0  0  0  0  0
    2.3571   -4.4268   -1.2552 H   0  0  0  0  0  0  0  0  0  0  0  0
   -2.8777    0.1347   -0.9308 C   0  0  0  0  0  0  0  0  0  0  0  0
    1.3207   -2.5592   -0.9309 C   0  0  0  0  0  0  0  0  0  0  0  0
   -3.0397    1.1410    0.1992 C   0  0  0  0  0  0  0  0  0  0  0  0
    0.5313   -3.2018    0.2003 C   0  0  0  0  0  0  0  0  0  0  0  0
   -4.1845    1.8528    0.0591 F   0  0  0  0  0  0  0  0  0  0  0  0
    0.4873   -4.5493    0.0615 F   0  0  0  0  0  0  0  0  0  0  0  0
   -2.0239    2.0405    0.2295 F   0  0  0  0  0  0  0  0  0  0  0  0
   -0.7557   -2.7720    0.2313 F   0  0  0  0  0  0  0  0  0  0  0  0
   -3.0968    0.5338    1.4015 F   0  0  0  0  0  0  0  0  0  0  0  0
    1.0866   -2.9464    1.4020 F   0  0  0  0  0  0  0  0  0  0  0  0
  2 11  1  0  0  0  0
  2  1  1  0  0  0  0
  3  2  2  0  0  0  0
  4  3  1  0  0  0  0
  5  7  2  0  0  0  0
  5  3  1  0  0  0  0
  6  5  1  0  0  0  0
  7  9  1  0  0  0  0
  8  7  1  0  0  0  0
  9 10  1  0  0  0  0
  9 11  2  0  0  0  0
 11 12  1  0  0  0  0
 12 14  1  0  0  0  0
 12 15  1  0  0  0  0
 13 12  1  0  0  0  0
 16 34  1  0  0  0  0
 16  1  1  0  0  0  0
 17 35  1  0  0  0  0
 17  1  1  0  0  0  0
 18 16  2  0  0  0  0
 19 17  2  0  0  0  0
 20 18  1  0  0  0  0
 21 19  1  0  0  0  0
 22 26  2  0  0  0  0
 22 18  1  0  0  0  0
 23 27  2  0  0  0  0
 23 19  1  0  0  0  0
 24 22  1  0  0  0  0
 25 23  1  0  0  0  0
 26 30  1  0  0  0  0
 27 31  1  0  0  0  0
 28 26  1  0  0  0  0
 29 27  1  0  0  0  0
 30 32  1  0  0  0  0
 30 34  2  0  0  0  0
 31 33  1  0  0  0  0
 31 35  2  0  0  0  0
 34 36  1  0  0  0  0
 35 37  1  0  0  0  0
 36 40  1  0  0  0  0
 36 42  1  0  0  0  0
 37 41  1  0  0  0  0
 37 43  1  0  0  0  0
 38 36  1  0  0  0  0
 39 37  1  0  0  0  0
M  END
