2
q = 0.0, confidence = 0.994

 48 51  0  0  1  0  0  0  0  0999 V2000
   -1.1880   -0.0640   -0.3133 As  0  0  2  0  0  0  0  0  0  0  0  0
    1.8577    0.4743   -0.5456 P   0  0  1  0  0  0  0  0  0  0  0  0
   -2.7897   -0.5298    0.6836 C   0  0  0  0  0  0  0  0  0  0  0  0
   -3.9392    0.2858    0.7479 C   0  0  0  0  0  0  0  0  0  0  0  0
   -3.9835    1.2326    0.1949 H   0  0  0  0  0  0  0  0  0  0  0  0
   -5.0302   -0.1164    1.5318 C   0  0  0  0  0  0  0  0  0  0  0  0
   -5.9263    0.5210    1.5815 H   0  0  0  0  0  0  0  0  0  0  0  0
   -4.9833   -1.3253    2.2460 C   0  0  0  0  0  0  0  0  0  0  0  0
   -5.8444   -1.6363    2.8571 H   0  0  0  0  0  0  0  0  0  0  0  0
   -3.8439   -2.1397    2.1691 C   0  0  0  0  0  0  0  0  0  0  0  0
   -3.8077   -3.0961    2.7122 H   0  0  0  0  0  0  0  0  0  0  0  0
   -2.7445   -1.7503    1.3878 C   0  0  0  0  0  0  0  0  0  0  0  0
   -1.8693   -2.4117    1.2803 H   0  0  0  0  0  0  0  0  0  0  0  0
   -0.4795    1.7406    0.2644 C   0  0  2  0  0  0  0  0  0  0  0  0
   -0.0841    1.7949    1.2947 H   0  0  0  0  0  0  0  0  0  0  0  0
   -1.6265    2.6780   -0.0464 C   0  0  0  0  0  0  0  0  0  0  0  0
   -1.9511    3.8013    0.8863 C   0  0  0  0  0  0  0  0  0  0  0  0
   -1.0769    4.4725    1.0319 H   0  0  0  0  0  0  0  0  0  0  0  0
   -2.2144    3.4098    1.8932 H   0  0  0  0  0  0  0  0  0  0  0  0
   -2.7972    4.4185    0.5289 H   0  0  0  0  0  0  0  0  0  0  0  0
   -2.2403    2.3449   -1.2198 C   0  0  0  0  0  0  0  0  0  0  0  0
   -3.3801    3.0329   -1.9026 C   0  0  0  0  0  0  0  0  0  0  0  0
   -3.7634    3.8944   -1.3232 H   0  0  0  0  0  0  0  0  0  0  0  0
   -4.2245    2.3291   -2.0721 H   0  0  0  0  0  0  0  0  0  0  0  0
   -3.0830    3.4043   -2.9075 H   0  0  0  0  0  0  0  0  0  0  0  0
   -1.5621    1.1575   -1.8757 C   0  0  1  0  0  0  0  0  0  0  0  0
   -2.1012    0.6992   -2.7235 H   0  0  0  0  0  0  0  0  0  0  0  0
   -0.1022    1.5792   -2.2073 C   0  0  0  0  0  0  0  0  0  0  0  0
   -0.1199    2.5029   -2.8202 H   0  0  0  0  0  0  0  0  0  0  0  0
    0.4134    0.7985   -2.8028 H   0  0  0  0  0  0  0  0  0  0  0  0
    0.6202    1.8426   -0.8384 C   0  0  2  0  0  0  0  0  0  0  0  0
    1.1097    2.8366   -0.8125 H   0  0  0  0  0  0  0  0  0  0  0  0
    3.1602    0.6425   -1.7989 C   0  0  0  0  0  0  0  0  0  0  0  0
    3.8363   -0.2302   -1.7973 H   0  0  0  0  0  0  0  0  0  0  0  0
    3.2941    1.6581   -2.6703 C   0  0  0  0  0  0  0  0  0  0  0  0
    2.6091    2.5214   -2.6935 H   0  0  0  0  0  0  0  0  0  0  0  0
    4.1108    1.6584   -3.4106 H   0  0  0  0  0  0  0  0  0  0  0  0
    2.6834    0.8374    1.0537 C   0  0  0  0  0  0  0  0  0  0  0  0
    2.8754    2.1636    1.4942 C   0  0  0  0  0  0  0  0  0  0  0  0
    2.5378    3.0129    0.8807 H   0  0  0  0  0  0  0  0  0  0  0  0
    3.5052    2.4088    2.7229 C   0  0  0  0  0  0  0  0  0  0  0  0
    3.6478    3.4446    3.0667 H   0  0  0  0  0  0  0  0  0  0  0  0
    3.9569    1.3354    3.5085 C   0  0  0  0  0  0  0  0  0  0  0  0
    4.4516    1.5307    4.4722 H   0  0  0  0  0  0  0  0  0  0  0  0
    3.7804    0.0162    3.0624 C   0  0  0  0  0  0  0  0  0  0  0  0
    4.1397   -0.8266    3.6720 H   0  0  0  0  0  0  0  0  0  0  0  0
    3.1420   -0.2400    1.8396 C   0  0  0  0  0  0  0  0  0  0  0  0
    3.0119   -1.2698    1.4666 H   0  0  0  0  0  0  0  0  0  0  0  0
  1 14  1  0  0  0  0
  1  3  1  1  0  0  0
  2 33  1  6  0  0  0
  2 38  1  0  0  0  0
  3  4  2  0  0  0  0
  3 12  1  0  0  0  0
  4  6  1  0  0  0  0
  5  4  1  0  0  0  0
  6  7  1  0  0  0  0
  6  8  2  0  0  0  0
  8  9  1  0  0  0  0
 10  8  1  0  0  0  0
 10 11  1  0  0  0  0
 12 10  2  0  0  0  0
 13 12  1  0  0  0  0
 14 15  1  1  0  0  0
 16 14  1  0  0  0  0
 16 17  1  0  0  0  0
 17 18  1  0  0  0  0
 17 19  1  0  0  0  0
 20 17  1  0  0  0  0
 21 16  2  0  0  0  0
 22 23  1  0  0  0  0
 22 21  1  0  0  0  0
 24 22  1  0  0  0  0
 25 22  1  0  0  0  0
 26 27  1  6  0  0  0
 26 21  1  0  0  0  0
 26  1  1  0  0  0  0
 28 26  1  0  0  0  0
 28 31  1  0  0  0  0
 29 28  1  0  0  0  0
 30 28  1  0  0  0  0
 31 32  1  1  0  0  0
 31  2  1  0  0  0  0
 31 14  1  0  0  0  0
 33 34  1  0  0  0  0
 35 33  2  0  0  0  0
 36 35  1  0  0  0  0
 37 35  1  0  0  0  0
 38 39  2  0  0  0  0
 38 47  1  0  0  0  0
 39 41  1  0  0  0  0
 40 39  1  0  0  0  0
 41 42  1  0  0  0  0
 41 43  2  0  0  0  0
 43 44  1  0  0  0  0
 45 43  1  0  0  0  0
 45 46  1  0  0  0  0
 47 45  2  0  0  0  0
 48 47  1  0  0  0  0
M  END
