1
q = 0.0, confidence = 0.988

 13 12  0  0  0  0  0  0  0  0999 V2000
   -2.6447   -0.2836    1.2397 P   0  0  0  0  0  0  0  0  0  0  0  0
   -2.2951    0.7789    2.7081 C   0  0  0  0  0  0  0  0  0  0  0  0
   -3.0370    0.5967    3.5113 H   0  0  0  0  0  0  0  0  0  0  0  0
   -2.3049    1.8493    2.4343 H   0  0  0  0  0  0  0  0  0  0  0  0
   -1.2773    0.5135    3.0571 H   0  0  0  0  0  0  0  0  0  0  0  0
   -4.3999    0.1056    0.8069 C   0  0  0  0  0  0  0  0  0  0  0  0
   -4.7327   -0.6058    0.0256 H   0  0  0  0  0  0  0  0  0  0  0  0
   -4.4836    1.1292    0.3932 H   0  0  0  0  0  0  0  0  0  0  0  0
   -5.0632    0.0153    1.6908 H   0  0  0  0  0  0  0  0  0  0  0  0
   -2.8238   -1.9369    2.0376 C   0  0  0  0  0  0  0  0  0  0  0  0
   -1.8191   -2.2757    2.3611 H   0  0  0  0  0  0  0  0  0  0  0  0
   -3.2164   -2.6642    1.3016 H   0  0  0  0  0  0  0  0  0  0  0  0
   -3.5070   -1.8860    2.9088 H   0  0  0  0  0  0  0  0  0  0  0  0
  1 10  1  0  0  0  0
  1  2  1  0  0  0  0
  2  5  1  0  0  0  0
  2  3  1  0  0  0  0
  4  2  1  0  0  0  0
  6  1  1  0  0  0  0
  6  9  1  0  0  0  0
  7  6  1  0  0  0  0
  8  6  1  0  0  0  0
 10 11  1  0  0  0  0
 10 13  1  0  0  0  0
 12 10  1  0  0  0  0
M  END
