1
q = 0.0, confidence = 0.998

 64 68  0  0  0  0  0  0  0  0999 V2000
    0.4936   -0.4786    0.4328 P   0  0  0  0  0  0  0  0  0  0  0  0
   -2.6161   -0.0724    0.5462 P   0  0  0  0  0  0  0  0  0  0  0  0
    1.0053    2.5704    0.0960 P   0  0  0  0  0  0  0  0  0  0  0  0
    0.1118   -1.6679    1.7886 C   0  0  0  0  0  0  0  0  0  0  0  0
    0.0224   -1.2890    3.1417 C   0  0  0  0  0  0  0  0  0  0  0  0
   -0.2440   -2.2526    4.1288 C   0  0  0  0  0  0  0  0  0  0  0  0
   -0.4324   -3.5952    3.7730 C   0  0  0  0  0  0  0  0  0  0  0  0
   -0.3513   -3.9776    2.4238 C   0  0  0  0  0  0  0  0  0  0  0  0
   -0.0737   -3.0233    1.4389 C   0  0  0  0  0  0  0  0  0  0  0  0
   -1.1001   -0.3705   -0.5110 C   0  0  0  0  0  0  0  0  0  0  0  0
   -3.1399   -1.8190    0.9037 C   0  0  0  0  0  0  0  0  0  0  0  0
   -3.3832   -2.1693    2.2452 C   0  0  0  0  0  0  0  0  0  0  0  0
   -3.7717   -3.4763    2.5800 C   0  0  0  0  0  0  0  0  0  0  0  0
   -3.9210   -4.4434    1.5753 C   0  0  0  0  0  0  0  0  0  0  0  0
   -3.6892   -4.0992    0.2320 C   0  0  0  0  0  0  0  0  0  0  0  0
   -3.3067   -2.7931   -0.1023 C   0  0  0  0  0  0  0  0  0  0  0  0
   -3.8615    0.3699   -0.7529 C   0  0  0  0  0  0  0  0  0  0  0  0
   -5.1235    0.7975   -0.2845 C   0  0  0  0  0  0  0  0  0  0  0  0
   -6.1234    1.1983   -1.1803 C   0  0  0  0  0  0  0  0  0  0  0  0
   -5.8736    1.1902   -2.5634 C   0  0  0  0  0  0  0  0  0  0  0  0
   -4.6233    0.7690   -3.0389 C   0  0  0  0  0  0  0  0  0  0  0  0
   -3.6237    0.3591   -2.1413 C   0  0  0  0  0  0  0  0  0  0  0  0
    0.5949    1.1621    1.2818 C   0  0  0  0  0  0  0  0  0  0  0  0
   -0.6788    3.0514   -0.5041 C   0  0  0  0  0  0  0  0  0  0  0  0
   -1.8020    3.2187    0.3356 C   0  0  0  0  0  0  0  0  0  0  0  0
   -3.0435    3.5853   -0.2040 C   0  0  0  0  0  0  0  0  0  0  0  0
   -3.1816    3.7855   -1.5870 C   0  0  0  0  0  0  0  0  0  0  0  0
   -2.0734    3.6197   -2.4304 C   0  0  0  0  0  0  0  0  0  0  0  0
   -0.8280    3.2549   -1.8929 C   0  0  0  0  0  0  0  0  0  0  0  0
    1.3820    3.8804    1.3521 C   0  0  0  0  0  0  0  0  0  0  0  0
    0.6629    5.0885    1.4593 C   0  0  0  0  0  0  0  0  0  0  0  0
    1.0610    6.0744    2.3769 C   0  0  0  0  0  0  0  0  0  0  0  0
    2.1796    5.8705    3.1982 C   0  0  0  0  0  0  0  0  0  0  0  0
    2.9137    4.6780    3.0845 C   0  0  0  0  0  0  0  0  0  0  0  0
    2.5274    3.6971    2.1613 C   0  0  0  0  0  0  0  0  0  0  0  0
    0.1604   -0.2401    3.4394 H   0  0  0  0  0  0  0  0  0  0  0  0
   -0.3047   -1.9459    5.1841 H   0  0  0  0  0  0  0  0  0  0  0  0
   -0.6434   -4.3475    4.5479 H   0  0  0  0  0  0  0  0  0  0  0  0
   -0.5064   -5.0274    2.1347 H   0  0  0  0  0  0  0  0  0  0  0  0
   -0.0016   -3.3369    0.3867 H   0  0  0  0  0  0  0  0  0  0  0  0
   -0.9754    0.4906   -1.1992 H   0  0  0  0  0  0  0  0  0  0  0  0
   -1.1846   -1.2844   -1.1329 H   0  0  0  0  0  0  0  0  0  0  0  0
   -3.2451   -1.4133    3.0335 H   0  0  0  0  0  0  0  0  0  0  0  0
   -3.9488   -3.7413    3.6335 H   0  0  0  0  0  0  0  0  0  0  0  0
   -4.2220   -5.4695    1.8365 H   0  0  0  0  0  0  0  0  0  0  0  0
   -3.8133   -4.8532   -0.5605 H   0  0  0  0  0  0  0  0  0  0  0  0
   -3.1454   -2.5277   -1.1595 H   0  0  0  0  0  0  0  0  0  0  0  0
   -5.3177    0.8202    0.8004 H   0  0  0  0  0  0  0  0  0  0  0  0
   -7.1021    1.5262   -0.7974 H   0  0  0  0  0  0  0  0  0  0  0  0
   -6.6547    1.5119   -3.2688 H   0  0  0  0  0  0  0  0  0  0  0  0
   -4.4186    0.7587   -4.1205 H   0  0  0  0  0  0  0  0  0  0  0  0
   -2.6507    0.0398   -2.5411 H   0  0  0  0  0  0  0  0  0  0  0  0
   -0.3332    1.3548    1.8597 H   0  0  0  0  0  0  0  0  0  0  0  0
    1.4461    1.0970    1.9898 H   0  0  0  0  0  0  0  0  0  0  0  0
   -1.7074    3.0685    1.4216 H   0  0  0  0  0  0  0  0  0  0  0  0
   -3.9147    3.7007    0.4578 H   0  0  0  0  0  0  0  0  0  0  0  0
   -4.1629    4.0505   -2.0078 H   0  0  0  0  0  0  0  0  0  0  0  0
   -2.1786    3.7657   -3.5162 H   0  0  0  0  0  0  0  0  0  0  0  0
    0.0397    3.1088   -2.5548 H   0  0  0  0  0  0  0  0  0  0  0  0
   -0.2168    5.2630    0.8228 H   0  0  0  0  0  0  0  0  0  0  0  0
    0.4863    7.0106    2.4495 H   0  0  0  0  0  0  0  0  0  0  0  0
    2.4865    6.6433    3.9192 H   0  0  0  0  0  0  0  0  0  0  0  0
    3.8040    4.5144    3.7109 H   0  0  0  0  0  0  0  0  0  0  0  0
    3.1389    2.7869    2.0537 H   0  0  0  0  0  0  0  0  0  0  0  0
  1 23  1  0  0  0  0
  1  4  1  0  0  0  0
  2 11  1  0  0  0  0
  3 23  1  0  0  0  0
  3 30  1  0  0  0  0
  4  5  1  0  0  0  0
  5 36  1  0  0  0  0
  5  6  2  0  0  0  0
  6 37  1  0  0  0  0
  7  6  1  0  0  0  0
  7 38  1  0  0  0  0
  8  7  2  0  0  0  0
  9  4  2  0  0  0  0
  9  8  1  0  0  0  0
 10  1  1  0  0  0  0
 10  2  1  0  0  0  0
 11 12  1  0  0  0  0
 12 13  2  0  0  0  0
 12 43  1  0  0  0  0
 13 44  1  0  0  0  0
 14 45  1  0  0  0  0
 14 13  1  0  0  0  0
 15 14  2  0  0  0  0
 16 15  1  0  0  0  0
 16 11  2  0  0  0  0
 17 18  1  0  0  0  0
 17  2  1  0  0  0  0
 18 48  1  0  0  0  0
 19 49  1  0  0  0  0
 19 18  2  0  0  0  0
 20 19  1  0  0  0  0
 21 20  2  0  0  0  0
 21 22  1  0  0  0  0
 22 17  2  0  0  0  0
 23 53  1  0  0  0  0
 23 54  1  0  0  0  0
 24  3  1  0  0  0  0
 24 25  1  0  0  0  0
 25 55  1  0  0  0  0
 26 25  2  0  0  0  0
 26 56  1  0  0  0  0
 27 26  1  0  0  0  0
 28 29  1  0  0  0  0
 28 27  2  0  0  0  0
 29 24  2  0  0  0  0
 30 31  2  0  0  0  0
 30 35  1  0  0  0  0
 31 32  1  0  0  0  0
 32 61  1  0  0  0  0
 32 33  2  0  0  0  0
 33 62  1  0  0  0  0
 34 33  1  0  0  0  0
 34 63  1  0  0  0  0
 35 34  2  0  0  0  0
 39  8  1  0  0  0  0
 40  9  1  0  0  0  0
 41 10  1  0  0  0  0
 42 10  1  0  0  0  0
 46 15  1  0  0  0  0
 47 16  1  0  0  0  0
 50 20  1  0  0  0  0
 51 21  1  0  0  0  0
 52 22  1  0  0  0  0
 57 27  1  0  0  0  0
 58 28  1  0  0  0  0
 59 29  1  0  0  0  0
 60 31  1  0  0  0  0
 64 35  1  0  0  0  0
M  END
