1
q = 0.0, confidence = 1.0

 31 32  0  0  0  0  0  0  0  0999 V2000
    2.3508    0.1177   -0.1356 P   0  0  0  0  0  0  0  0  0  0  0  0
    3.8306    0.2860   -2.3990 F   0  0  0  0  0  0  0  0  0  0  0  0
    3.1036   -1.9350   -3.6094 F   0  0  0  0  0  0  0  0  0  0  0  0
    2.2843   -3.9587   -2.0700 F   0  0  0  0  0  0  0  0  0  0  0  0
    1.3862   -2.6172   -0.5969 F   0  0  0  0  0  0  0  0  0  0  0  0
    0.5367   -2.7771   -2.6071 F   0  0  0  0  0  0  0  0  0  0  0  0
    3.4252   -0.6770    1.1180 C   0  0  0  0  0  0  0  0  0  0  0  0
    3.4731   -0.0869    2.4000 C   0  0  0  0  0  0  0  0  0  0  0  0
    2.8981    0.8267    2.6061 H   0  0  0  0  0  0  0  0  0  0  0  0
    4.2475   -0.6742    3.4087 C   0  0  0  0  0  0  0  0  0  0  0  0
    4.2815   -0.2095    4.4055 H   0  0  0  0  0  0  0  0  0  0  0  0
    4.9666   -1.8532    3.1540 C   0  0  0  0  0  0  0  0  0  0  0  0
    5.5710   -2.3132    3.9503 H   0  0  0  0  0  0  0  0  0  0  0  0
    4.9109   -2.4457    1.8834 C   0  0  0  0  0  0  0  0  0  0  0  0
    5.4716   -3.3697    1.6773 H   0  0  0  0  0  0  0  0  0  0  0  0
    4.1406   -1.8632    0.8659 C   0  0  0  0  0  0  0  0  0  0  0  0
    4.1060   -2.3366   -0.1254 H   0  0  0  0  0  0  0  0  0  0  0  0
    2.9142    1.8622   -0.1781 C   0  0  0  0  0  0  0  0  0  0  0  0
    1.9606    2.8869   -0.3391 C   0  0  0  0  0  0  0  0  0  0  0  0
    0.8976    2.6305   -0.4632 H   0  0  0  0  0  0  0  0  0  0  0  0
    2.3732    4.2273   -0.3459 C   0  0  0  0  0  0  0  0  0  0  0  0
    1.6208    5.0217   -0.4643 H   0  0  0  0  0  0  0  0  0  0  0  0
    3.7315    4.5476   -0.1996 C   0  0  0  0  0  0  0  0  0  0  0  0
    4.0533    5.6002   -0.2038 H   0  0  0  0  0  0  0  0  0  0  0  0
    4.6835    3.5253   -0.0447 C   0  0  0  0  0  0  0  0  0  0  0  0
    5.7492    3.7750    0.0693 H   0  0  0  0  0  0  0  0  0  0  0  0
    4.2796    2.1837   -0.0308 C   0  0  0  0  0  0  0  0  0  0  0  0
    5.0236    1.3842    0.1020 H   0  0  0  0  0  0  0  0  0  0  0  0
    2.9750   -0.5258   -1.7563 C   0  0  0  0  0  0  0  0  0  0  0  0
    2.6199   -1.6678   -2.3899 C   0  0  0  0  0  0  0  0  0  0  0  0
    1.6885   -2.7549   -1.9073 C   0  0  0  0  0  0  0  0  0  0  0  0
  1  7  1  0  0  0  0
  2 29  1  0  0  0  0
  3 30  1  0  0  0  0
  4 31  1  0  0  0  0
  6 31  1  0  0  0  0
  7  8  1  0  0  0  0
  8  9  1  0  0  0  0
  8 10  2  0  0  0  0
 10 11  1  0  0  0  0
 12 10  1  0  0  0  0
 12 13  1  0  0  0  0
 14 12  2  0  0  0  0
 15 14  1  0  0  0  0
 16  7  2  0  0  0  0
 16 14  1  0  0  0  0
 17 16  1  0  0  0  0
 18  1  1  0  0  0  0
 18 27  1  0  0  0  0
 19 18  2  0  0  0  0
 20 19  1  0  0  0  0
 21 19  1  0  0  0  0
 21 23  2  0  0  0  0
 22 21  1  0  0  0  0
 23 25  1  0  0  0  0
 24 23  1  0  0  0  0
 25 27  2  0  0  0  0
 25 26  1  0  0  0  0
 27 28  1  0  0  0  0
 29  1  1  0  0  0  0
 30 31  1  0  0  0  0
 30 29  2  0  0  0  0
 31  5  1  0  0  0  0
M  END
