1
q = 0.0, confidence = 0.99

 27 28  0  0  0  0  0  0  0  0999 V2000
    2.3234    0.3962   -0.8030 P   0  0  0  0  0  0  0  0  0  0  0  0
    3.1387    0.0234   -2.4124 C   0  0  0  0  0  0  0  0  0  0  0  0
    2.9510    0.8813   -3.0862 H   0  0  0  0  0  0  0  0  0  0  0  0
    2.6823   -0.8798   -2.8584 H   0  0  0  0  0  0  0  0  0  0  0  0
    4.2302   -0.1061   -2.2792 H   0  0  0  0  0  0  0  0  0  0  0  0
    2.8355   -0.9635    0.3145 C   0  0  0  0  0  0  0  0  0  0  0  0
    3.3642   -2.1745   -0.1730 C   0  0  0  0  0  0  0  0  0  0  0  0
    3.5449   -2.3141   -1.2479 H   0  0  0  0  0  0  0  0  0  0  0  0
    3.6390   -3.2287    0.7117 C   0  0  0  0  0  0  0  0  0  0  0  0
    4.0366   -4.1770    0.3202 H   0  0  0  0  0  0  0  0  0  0  0  0
    3.3926   -3.0795    2.0838 C   0  0  0  0  0  0  0  0  0  0  0  0
    3.6029   -3.9104    2.7744 H   0  0  0  0  0  0  0  0  0  0  0  0
    2.8657   -1.8718    2.5731 C   0  0  0  0  0  0  0  0  0  0  0  0
    2.6634   -1.7524    3.6485 H   0  0  0  0  0  0  0  0  0  0  0  0
    2.5800   -0.8178    1.6961 C   0  0  0  0  0  0  0  0  0  0  0  0
    2.1268    0.1157    2.0689 H   0  0  0  0  0  0  0  0  0  0  0  0
    3.2727    1.8646   -0.2382 C   0  0  0  0  0  0  0  0  0  0  0  0
    2.7384    3.1501   -0.4511 C   0  0  0  0  0  0  0  0  0  0  0  0
    1.7226    3.2515   -0.8617 H   0  0  0  0  0  0  0  0  0  0  0  0
    3.4861    4.2856   -0.1072 C   0  0  0  0  0  0  0  0  0  0  0  0
    3.0614    5.2877   -0.2697 H   0  0  0  0  0  0  0  0  0  0  0  0
    4.7615    4.1441    0.4624 C   0  0  0  0  0  0  0  0  0  0  0  0
    5.3421    5.0365    0.7423 H   0  0  0  0  0  0  0  0  0  0  0  0
    5.2924    2.8633    0.6852 C   0  0  0  0  0  0  0  0  0  0  0  0
    6.2887    2.7489    1.1390 H   0  0  0  0  0  0  0  0  0  0  0  0
    4.5525    1.7241    0.3343 C   0  0  0  0  0  0  0  0  0  0  0  0
    4.9658    0.7200    0.5172 H   0  0  0  0  0  0  0  0  0  0  0  0
  1 17  1  0  0  0  0
  1  6  1  0  0  0  0
  2  5  1  0  0  0  0
  2  1  1  0  0  0  0
  3  2  1  0  0  0  0
  4  2  1  0  0  0  0
  6 15  1  0  0  0  0
  7  6  2  0  0  0  0
  7  9  1  0  0  0  0
  8  7  1  0  0  0  0
  9 11  2  0  0  0  0
 10  9  1  0  0  0  0
 11 13  1  0  0  0  0
 11 12  1  0  0  0  0
 13 14  1  0  0  0  0
 15 16  1  0  0  0  0
 15 13  2  0  0  0  0
 17 26  1  0  0  0  0
 18 17  2  0  0  0  0
 18 20  1  0  0  0  0
 19 18  1  0  0  0  0
 20 22  2  0  0  0  0
 21 20  1  0  0  0  0
 22 24  1  0  0  0  0
 22 23  1  0  0  0  0
 24 25  1  0  0  0  0
 26 27  1  0  0  0  0
 26 24  2  0  0  0  0
M  END
