1
q = 0.0, confidence = 0.998

 22 24  0  0  1  0  0  0  0  0999 V2000
   -2.1832    0.0092    0.1303 P   0  0  2  0  0  0  0  0  0  0  0  0
   -5.4024    0.3834   -0.8839 S   0  0  0  0  0  0  0  0  0  0  0  0
   -4.6082    1.4164    0.2512 N   0  0  1  0  0  0  0  0  0  0  0  0
   -4.8469    0.8944    1.6237 C   0  0  0  0  0  0  0  0  0  0  0  0
   -4.3884    1.6147    2.3312 H   0  0  0  0  0  0  0  0  0  0  0  0
   -5.9411    0.8780    1.7837 H   0  0  0  0  0  0  0  0  0  0  0  0
   -6.8085    0.2932   -0.4771 O   0  0  0  0  0  0  0  0  0  0  0  0
   -4.9673    0.7604   -2.2319 O   0  0  0  0  0  0  0  0  0  0  0  0
   -4.2981   -0.4370    1.8597 N   0  0  2  0  0  0  0  0  0  0  0  0
   -2.8353   -0.4500    1.8330 C   0  0  0  0  0  0  0  0  0  0  0  0
   -2.4500   -1.4479    2.1260 H   0  0  0  0  0  0  0  0  0  0  0  0
   -2.4310    0.2830    2.5619 H   0  0  0  0  0  0  0  0  0  0  0  0
   -3.1812    1.5939   -0.0732 C   0  0  0  0  0  0  0  0  0  0  0  0
   -2.7381    2.3580    0.5965 H   0  0  0  0  0  0  0  0  0  0  0  0
   -3.0589    1.9698   -1.1048 H   0  0  0  0  0  0  0  0  0  0  0  0
   -4.6682   -1.1392   -0.4922 N   0  0  1  0  0  0  0  0  0  0  0  0
   -3.2501   -1.1646   -0.8905 C   0  0  0  0  0  0  0  0  0  0  0  0
   -3.1598   -0.8862   -1.9575 H   0  0  0  0  0  0  0  0  0  0  0  0
   -2.8648   -2.1991   -0.7825 H   0  0  0  0  0  0  0  0  0  0  0  0
   -4.8854   -1.4197    0.9556 C   0  0  0  0  0  0  0  0  0  0  0  0
   -5.9789   -1.4624    1.1164 H   0  0  0  0  0  0  0  0  0  0  0  0
   -4.4523   -2.4198    1.1632 H   0  0  0  0  0  0  0  0  0  0  0  0
  1 17  1  6  0  0  0
  1 10  1  0  0  0  0
  2 16  1  0  0  0  0
  2  7  2  0  0  0  0
  2  3  1  0  0  0  0
  3 13  1  6  0  0  0
  3  4  1  0  0  0  0
  4  6  1  0  0  0  0
  4  9  1  0  0  0  0
  4  5  1  0  0  0  0
  8  2  2  0  0  0  0
  9 20  1  6  0  0  0
 10  9  1  0  0  0  0
 10 11  1  0  0  0  0
 10 12  1  0  0  0  0
 13  1  1  0  0  0  0
 13 14  1  0  0  0  0
 15 13  1  0  0  0  0
 16 17  1  1  0  0  0
 16 20  1  0  0  0  0
 17 19  1  0  0  0  0
 18 17  1  0  0  0  0
 20 21  1  0  0  0  0
 20 22  1  0  0  0  0
M  END
