1
q = 0.0, confidence = 0.998

 27 27  0  0  0  0  0  0  0  0999 V2000
   -2.1884    0.7721    0.3775 P   0  0  1  0  0  0  0  0  0  0  0  0
   -2.3526    1.3032    1.9305 O   0  0  0  0  0  0  0  0  0  0  0  0
   -1.4752    1.1322    2.3804 H   0  0  0  0  0  0  0  0  0  0  0  0
   -3.5321   -0.4598    0.2277 C   0  0  0  0  0  0  0  0  0  0  0  0
   -3.6109   -1.3124   -0.8939 C   0  0  0  0  0  0  0  0  0  0  0  0
   -2.8335   -1.2676   -1.6718 H   0  0  0  0  0  0  0  0  0  0  0  0
   -2.7257    2.2959   -0.5924 C   0  0  0  0  0  0  0  0  0  0  0  0
   -4.5000   -0.5517    1.2498 C   0  0  0  0  0  0  0  0  0  0  0  0
   -4.4132    0.0993    2.1317 H   0  0  0  0  0  0  0  0  0  0  0  0
   -5.6365   -2.3129    0.0140 C   0  0  0  0  0  0  0  0  0  0  0  0
   -6.4599   -3.0386   -0.0698 H   0  0  0  0  0  0  0  0  0  0  0  0
   -4.6655   -2.2311   -0.9972 C   0  0  0  0  0  0  0  0  0  0  0  0
   -4.7224   -2.8957   -1.8727 H   0  0  0  0  0  0  0  0  0  0  0  0
   -5.5488   -1.4763    1.1381 C   0  0  0  0  0  0  0  0  0  0  0  0
   -6.3015   -1.5455    1.9383 H   0  0  0  0  0  0  0  0  0  0  0  0
   -2.9818    1.9394   -2.0626 C   0  0  0  0  0  0  0  0  0  0  0  0
   -2.0900    1.4941   -2.5440 H   0  0  0  0  0  0  0  0  0  0  0  0
   -3.8267    1.2300   -2.1701 H   0  0  0  0  0  0  0  0  0  0  0  0
   -3.2495    2.8660   -2.6130 H   0  0  0  0  0  0  0  0  0  0  0  0
   -1.5603    3.2930   -0.4598 C   0  0  0  0  0  0  0  0  0  0  0  0
   -1.8341    4.2536   -0.9440 H   0  0  0  0  0  0  0  0  0  0  0  0
   -1.3260    3.4967    0.6043 H   0  0  0  0  0  0  0  0  0  0  0  0
   -0.6423    2.9039   -0.9451 H   0  0  0  0  0  0  0  0  0  0  0  0
   -4.0032    2.8551    0.0553 C   0  0  0  0  0  0  0  0  0  0  0  0
   -4.8432    2.1341   -0.0093 H   0  0  0  0  0  0  0  0  0  0  0  0
   -3.8420    3.1113    1.1197 H   0  0  0  0  0  0  0  0  0  0  0  0
   -4.3070    3.7767   -0.4844 H   0  0  0  0  0  0  0  0  0  0  0  0
  1  2  1  1  0  0  0
  2  3  1  0  0  0  0
  4  1  1  0  0  0  0
  4  8  1  0  0  0  0
  5  4  2  0  0  0  0
  6  5  1  0  0  0  0
  7 20  1  0  0  0  0
  7 24  1  0  0  0  0
  7  1  1  0  0  0  0
  8  9  1  0  0  0  0
 10 14  1  0  0  0  0
 11 10  1  0  0  0  0
 12  5  1  0  0  0  0
 12 10  2  0  0  0  0
 13 12  1  0  0  0  0
 14  8  2  0  0  0  0
 14 15  1  0  0  0  0
 16  7  1  0  0  0  0
 17 16  1  0  0  0  0
 18 16  1  0  0  0  0
 19 16  1  0  0  0  0
 20 22  1  0  0  0  0
 21 20  1  0  0  0  0
 23 20  1  0  0  0  0
 24 26  1  0  0  0  0
 25 24  1  0  0  0  0
 27 24  1  0  0  0  0
M  END
