1
q = 0.0, confidence = 0.996

 34 33  0  0  0  0  0  0  0  0999 V2000
   -1.8496   -0.6100    0.0322 P   0  0  0  0  0  0  0  0  0  0  0  0
   -3.1095    0.4416   -0.1527 O   0  0  0  0  0  0  0  0  0  0  0  0
   -4.4534   -0.0264   -0.4902 C   0  0  0  0  0  0  0  0  0  0  0  0
   -4.5132   -1.1040   -0.2252 H   0  0  0  0  0  0  0  0  0  0  0  0
   -5.4297    0.7661    0.3672 C   0  0  0  0  0  0  0  0  0  0  0  0
   -5.2361    0.6028    1.4442 H   0  0  0  0  0  0  0  0  0  0  0  0
   -6.4718    0.4581    0.1487 H   0  0  0  0  0  0  0  0  0  0  0  0
   -5.3383    1.8513    0.1558 H   0  0  0  0  0  0  0  0  0  0  0  0
   -4.6849    0.1490   -1.9867 C   0  0  0  0  0  0  0  0  0  0  0  0
   -3.9265   -0.4161   -2.5590 H   0  0  0  0  0  0  0  0  0  0  0  0
   -4.6255    1.2206   -2.2689 H   0  0  0  0  0  0  0  0  0  0  0  0
   -5.6916   -0.2232   -2.2655 H   0  0  0  0  0  0  0  0  0  0  0  0
   -2.4416   -1.7428    1.0795 O   0  0  0  0  0  0  0  0  0  0  0  0
   -2.1662   -1.6425    2.5057 C   0  0  0  0  0  0  0  0  0  0  0  0
   -1.1774   -1.1446    2.6317 H   0  0  0  0  0  0  0  0  0  0  0  0
   -3.2357   -0.7907    3.1805 C   0  0  0  0  0  0  0  0  0  0  0  0
   -3.2379    0.2382    2.7690 H   0  0  0  0  0  0  0  0  0  0  0  0
   -3.0437   -0.7241    4.2701 H   0  0  0  0  0  0  0  0  0  0  0  0
   -4.2423   -1.2328    3.0310 H   0  0  0  0  0  0  0  0  0  0  0  0
   -2.0813   -3.0656    3.0323 C   0  0  0  0  0  0  0  0  0  0  0  0
   -1.2743   -3.6109    2.5066 H   0  0  0  0  0  0  0  0  0  0  0  0
   -3.0418   -3.5975    2.8745 H   0  0  0  0  0  0  0  0  0  0  0  0
   -1.8536   -3.0627    4.1167 H   0  0  0  0  0  0  0  0  0  0  0  0
   -2.0053   -1.4562   -1.3696 O   0  0  0  0  0  0  0  0  0  0  0  0
   -0.9761   -2.4490   -1.6974 C   0  0  0  0  0  0  0  0  0  0  0  0
   -0.4607   -2.7321   -0.7522 H   0  0  0  0  0  0  0  0  0  0  0  0
    0.0334   -1.8150   -2.6425 C   0  0  0  0  0  0  0  0  0  0  0  0
    0.5329   -0.9599   -2.1414 H   0  0  0  0  0  0  0  0  0  0  0  0
   -0.4646   -1.4570   -3.5674 H   0  0  0  0  0  0  0  0  0  0  0  0
    0.8219   -2.5433   -2.9157 H   0  0  0  0  0  0  0  0  0  0  0  0
   -1.7009   -3.6571   -2.2671 C   0  0  0  0  0  0  0  0  0  0  0  0
   -2.4260   -4.0538   -1.5300 H   0  0  0  0  0  0  0  0  0  0  0  0
   -0.9748   -4.4573   -2.5139 H   0  0  0  0  0  0  0  0  0  0  0  0
   -2.2506   -3.3873   -3.1924 H   0  0  0  0  0  0  0  0  0  0  0  0
  1 13  1  0  0  0  0
  2  1  1  0  0  0  0
  3  4  1  0  0  0  0
  3  2  1  0  0  0  0
  3  5  1  0  0  0  0
  5  6  1  0  0  0  0
  7  5  1  0  0  0  0
  8  5  1  0  0  0  0
  9  3  1  0  0  0  0
 10  9  1  0  0  0  0
 11  9  1  0  0  0  0
 12  9  1  0  0  0  0
 13 14  1  0  0  0  0
 14 15  1  0  0  0  0
 14 20  1  0  0  0  0
 14 16  1  0  0  0  0
 16 18  1  0  0  0  0
 17 16  1  0  0  0  0
 19 16  1  0  0  0  0
 20 23  1  0  0  0  0
 21 20  1  0  0  0  0
 22 20  1  0  0  0  0
 24  1  1  0  0  0  0
 25 24  1  0  0  0  0
 25 26  1  0  0  0  0
 27 28  1  0  0  0  0
 27 25  1  0  0  0  0
 29 27  1  0  0  0  0
 30 27  1  0  0  0  0
 31 25  1  0  0  0  0
 31 32  1  0  0  0  0
 33 31  1  0  0  0  0
 34 31  1  0  0  0  0
M  END
