1
q = 0.0, confidence = 0.996

 38 40  0  0  1  0  0  0  0  0999 V2000
   -2.2529    0.5213   -0.2376 P   0  0  1  0  0  0  0  0  0  0  0  0
   -1.0754    3.2254    1.1531 F   0  0  0  0  0  0  0  0  0  0  0  0
   -2.9822    4.2245    0.7946 F   0  0  0  0  0  0  0  0  0  0  0  0
   -1.1360    5.0658   -0.0287 F   0  0  0  0  0  0  0  0  0  0  0  0
   -3.4481   -1.0993    1.5427 O   0  0  0  0  0  0  0  0  0  0  0  0
   -4.4423   -0.3710   -1.6124 O   0  0  0  0  0  0  0  0  0  0  0  0
   -5.2219   -1.7525    0.1339 O   0  0  0  0  0  0  0  0  0  0  0  0
   -2.7619    1.9703   -0.9058 O   0  0  0  0  0  0  0  0  0  0  0  0
   -3.2215    1.1144    2.3970 C   0  0  0  0  0  0  0  0  0  0  0  0
   -2.1993    0.9187    2.7676 H   0  0  0  0  0  0  0  0  0  0  0  0
   -3.3393    2.1900    2.1720 H   0  0  0  0  0  0  0  0  0  0  0  0
   -3.9488    0.8341    3.1861 H   0  0  0  0  0  0  0  0  0  0  0  0
   -3.5212    0.2776    1.1643 C   0  0  1  0  0  0  0  0  0  0  0  0
   -4.9090    0.5875    0.5817 C   0  0  0  0  0  0  0  0  0  0  0  0
   -4.9223    1.6018    0.1404 H   0  0  0  0  0  0  0  0  0  0  0  0
   -5.6417    0.5482    1.4139 H   0  0  0  0  0  0  0  0  0  0  0  0
   -5.3013   -0.4612   -0.4691 C   0  0  1  0  0  0  0  0  0  0  0  0
   -6.7146   -0.2949   -0.9907 C   0  0  0  0  0  0  0  0  0  0  0  0
   -7.4376   -0.3805   -0.1584 H   0  0  0  0  0  0  0  0  0  0  0  0
   -6.8231    0.6926   -1.4768 H   0  0  0  0  0  0  0  0  0  0  0  0
   -6.9183   -1.0899   -1.7323 H   0  0  0  0  0  0  0  0  0  0  0  0
   -3.9450   -3.3842    1.3018 C   0  0  0  0  0  0  0  0  0  0  0  0
   -4.6376   -3.3001    2.1600 H   0  0  0  0  0  0  0  0  0  0  0  0
   -4.3012   -4.1796    0.6213 H   0  0  0  0  0  0  0  0  0  0  0  0
   -2.9341   -3.6349    1.6743 H   0  0  0  0  0  0  0  0  0  0  0  0
   -3.8982   -2.0551    0.5754 C   0  0  2  0  0  0  0  0  0  0  0  0
   -2.9819   -2.0717   -0.6609 C   0  0  0  0  0  0  0  0  0  0  0  0
   -1.9340   -2.2869   -0.3697 H   0  0  0  0  0  0  0  0  0  0  0  0
   -3.3266   -2.8732   -1.3466 H   0  0  0  0  0  0  0  0  0  0  0  0
   -3.0733   -0.7302   -1.4049 C   0  0  2  0  0  0  0  0  0  0  0  0
   -2.4245   -0.7627   -2.7769 C   0  0  0  0  0  0  0  0  0  0  0  0
   -2.4525    0.2381   -3.2466 H   0  0  0  0  0  0  0  0  0  0  0  0
   -1.3698   -1.0848   -2.7052 H   0  0  0  0  0  0  0  0  0  0  0  0
   -2.9929   -1.4730   -3.4106 H   0  0  0  0  0  0  0  0  0  0  0  0
   -1.9565    3.1248   -1.0642 C   0  0  0  0  0  0  0  0  0  0  0  0
   -0.9487    2.8752   -1.4599 H   0  0  0  0  0  0  0  0  0  0  0  0
   -2.4802    3.7790   -1.7892 H   0  0  0  0  0  0  0  0  0  0  0  0
   -1.7907    3.9124    0.2265 C   0  0  0  0  0  0  0  0  0  0  0  0
  1  8  1  6  0  0  0
  1 13  1  0  0  0  0
  4 38  1  0  0  0  0
  6 30  1  0  0  0  0
  6 17  1  0  0  0  0
  7 26  1  0  0  0  0
  9 10  1  0  0  0  0
  9 12  1  0  0  0  0
 11  9  1  0  0  0  0
 13  5  1  0  0  0  0
 13  9  1  1  0  0  0
 14 13  1  0  0  0  0
 14 16  1  0  0  0  0
 15 14  1  0  0  0  0
 17 18  1  6  0  0  0
 17  7  1  0  0  0  0
 17 14  1  0  0  0  0
 18 19  1  0  0  0  0
 20 18  1  0  0  0  0
 21 18  1  0  0  0  0
 22 25  1  0  0  0  0
 22 23  1  0  0  0  0
 24 22  1  0  0  0  0
 26 22  1  1  0  0  0
 26  5  1  0  0  0  0
 27 28  1  0  0  0  0
 27 26  1  0  0  0  0
 29 27  1  0  0  0  0
 30 31  1  6  0  0  0
 30 27  1  0  0  0  0
 30  1  1  0  0  0  0
 31 33  1  0  0  0  0
 32 31  1  0  0  0  0
 34 31  1  0  0  0  0
 35  8  1  0  0  0  0
 35 38  1  0  0  0  0
 36 35  1  0  0  0  0
 37 35  1  0  0  0  0
 38  3  1  0  0  0  0
 38  2  1  0  0  0  0
M  END
