1
q = 0.0, confidence = 0.99

 40 39  0  0  0  0  0  0  0  0999 V2000
    1.4800   -0.8234    0.0084 P   0  0  0  0  0  0  0  0  0  0  0  0
    3.1748    0.1274    0.0001 C   0  0  0  0  0  0  0  0  0  0  0  0
    3.1242    1.2866    1.0166 C   0  0  0  0  0  0  0  0  0  0  0  0
    4.0900    1.8322    0.9599 H   0  0  0  0  0  0  0  0  0  0  0  0
    2.9978    0.9524    2.0594 H   0  0  0  0  0  0  0  0  0  0  0  0
    2.3193    2.0031    0.7771 H   0  0  0  0  0  0  0  0  0  0  0  0
    3.3997    0.7706   -1.3826 C   0  0  0  0  0  0  0  0  0  0  0  0
    4.3063    1.4086   -1.3183 H   0  0  0  0  0  0  0  0  0  0  0  0
    2.5588    1.4272   -1.6711 H   0  0  0  0  0  0  0  0  0  0  0  0
    3.5795    0.0314   -2.1840 H   0  0  0  0  0  0  0  0  0  0  0  0
    4.3848   -0.7681    0.3305 C   0  0  0  0  0  0  0  0  0  0  0  0
    5.3052   -0.1559    0.2203 H   0  0  0  0  0  0  0  0  0  0  0  0
    4.4853   -1.6362   -0.3450 H   0  0  0  0  0  0  0  0  0  0  0  0
    4.3693   -1.1361    1.3728 H   0  0  0  0  0  0  0  0  0  0  0  0
    1.3903   -1.9278   -1.5911 C   0  0  0  0  0  0  0  0  0  0  0  0
    0.9384   -1.0109   -2.7497 C   0  0  0  0  0  0  0  0  0  0  0  0
    0.8250   -1.6292   -3.6657 H   0  0  0  0  0  0  0  0  0  0  0  0
    1.6545   -0.2027   -2.9776 H   0  0  0  0  0  0  0  0  0  0  0  0
   -0.0443   -0.5486   -2.5214 H   0  0  0  0  0  0  0  0  0  0  0  0
    2.7009   -2.6375   -1.9727 C   0  0  0  0  0  0  0  0  0  0  0  0
    2.5068   -3.2701   -2.8651 H   0  0  0  0  0  0  0  0  0  0  0  0
    3.0743   -3.3052   -1.1745 H   0  0  0  0  0  0  0  0  0  0  0  0
    3.5093   -1.9347   -2.2467 H   0  0  0  0  0  0  0  0  0  0  0  0
    0.2823   -2.9875   -1.4212 C   0  0  0  0  0  0  0  0  0  0  0  0
    0.1380   -3.4869   -2.4029 H   0  0  0  0  0  0  0  0  0  0  0  0
   -0.6851   -2.5389   -1.1239 H   0  0  0  0  0  0  0  0  0  0  0  0
    0.5496   -3.7773   -0.6952 H   0  0  0  0  0  0  0  0  0  0  0  0
    1.4560   -1.9798    1.5742 C   0  0  0  0  0  0  0  0  0  0  0  0
    2.3291   -3.2405    1.4390 C   0  0  0  0  0  0  0  0  0  0  0  0
    2.2857   -3.7999    2.3980 H   0  0  0  0  0  0  0  0  0  0  0  0
    3.3915   -3.0154    1.2377 H   0  0  0  0  0  0  0  0  0  0  0  0
    1.9627   -3.9248    0.6518 H   0  0  0  0  0  0  0  0  0  0  0  0
   -0.0027   -2.3995    1.8502 C   0  0  0  0  0  0  0  0  0  0  0  0
   -0.0092   -3.0486    2.7519 H   0  0  0  0  0  0  0  0  0  0  0  0
   -0.4743   -2.9562    1.0247 H   0  0  0  0  0  0  0  0  0  0  0  0
   -0.6449   -1.5202    2.0534 H   0  0  0  0  0  0  0  0  0  0  0  0
    1.9098   -1.1826    2.8121 C   0  0  0  0  0  0  0  0  0  0  0  0
    1.7078   -1.8003    3.7125 H   0  0  0  0  0  0  0  0  0  0  0  0
    1.3380   -0.2404    2.9238 H   0  0  0  0  0  0  0  0  0  0  0  0
    2.9896   -0.9479    2.8134 H   0  0  0  0  0  0  0  0  0  0  0  0
  1 28  1  0  0  0  0
  2  1  1  0  0  0  0
  2 11  1  0  0  0  0
  2  3  1  0  0  0  0
  3  5  1  0  0  0  0
  4  3  1  0  0  0  0
  6  3  1  0  0  0  0
  7  8  1  0  0  0  0
  7  2  1  0  0  0  0
  9  7  1  0  0  0  0
 10  7  1  0  0  0  0
 11 14  1  0  0  0  0
 12 11  1  0  0  0  0
 13 11  1  0  0  0  0
 15 24  1  0  0  0  0
 15  1  1  0  0  0  0
 16 19  1  0  0  0  0
 16 15  1  0  0  0  0
 17 16  1  0  0  0  0
 18 16  1  0  0  0  0
 20 15  1  0  0  0  0
 20 22  1  0  0  0  0
 21 20  1  0  0  0  0
 23 20  1  0  0  0  0
 24 26  1  0  0  0  0
 24 27  1  0  0  0  0
 25 24  1  0  0  0  0
 28 33  1  0  0  0  0
 28 37  1  0  0  0  0
 29 28  1  0  0  0  0
 29 30  1  0  0  0  0
 31 29  1  0  0  0  0
 32 29  1  0  0  0  0
 33 36  1  0  0  0  0
 33 34  1  0  0  0  0
 35 33  1  0  0  0  0
 37 40  1  0  0  0  0
 37 39  1  0  0  0  0
 37 38  1  0  0  0  0
M  END
