1
q = 0.0, confidence = 0.99

 43 45  0  0  0  0  0  0  0  0999 V2000
   -0.7465   -0.0017   -0.0015 P   0  0  0  0  0  0  0  0  0  0  0  0
   -1.4835    1.0001   -1.3467 C   0  0  0  0  0  0  0  0  0  0  0  0
   -0.8716    2.2254   -1.6852 C   0  0  0  0  0  0  0  0  0  0  0  0
   -1.4306    3.0402   -2.6750 C   0  0  0  0  0  0  0  0  0  0  0  0
   -2.6021    2.6557   -3.3637 C   0  0  0  0  0  0  0  0  0  0  0  0
   -3.1978    1.4253   -3.0214 C   0  0  0  0  0  0  0  0  0  0  0  0
   -2.6504    0.6024   -2.0261 C   0  0  0  0  0  0  0  0  0  0  0  0
   -3.1740    3.5261   -4.4525 C   0  0  0  0  0  0  0  0  0  0  0  0
   -1.4808    0.6627    1.5401 C   0  0  0  0  0  0  0  0  0  0  0  0
   -0.8607    0.3538    2.7690 C   0  0  0  0  0  0  0  0  0  0  0  0
   -1.4161    0.8073    3.9700 C   0  0  0  0  0  0  0  0  0  0  0  0
   -2.5924    1.5887    3.9830 C   0  0  0  0  0  0  0  0  0  0  0  0
   -3.1970    1.8960    2.7478 C   0  0  0  0  0  0  0  0  0  0  0  0
   -2.6531    1.4422    1.5372 C   0  0  0  0  0  0  0  0  0  0  0  0
   -3.1604    2.1011    5.2811 C   0  0  0  0  0  0  0  0  0  0  0  0
   -1.4788   -1.6699   -0.1952 C   0  0  0  0  0  0  0  0  0  0  0  0
   -0.8594   -2.5788   -1.0788 C   0  0  0  0  0  0  0  0  0  0  0  0
   -1.4129   -3.8467   -1.2843 C   0  0  0  0  0  0  0  0  0  0  0  0
   -2.5864   -4.2508   -0.6103 C   0  0  0  0  0  0  0  0  0  0  0  0
   -3.1900   -3.3358    0.2750 C   0  0  0  0  0  0  0  0  0  0  0  0
   -2.6481   -2.0591    0.4850 C   0  0  0  0  0  0  0  0  0  0  0  0
   -3.1521   -5.6320   -0.8162 C   0  0  0  0  0  0  0  0  0  0  0  0
    0.0529    2.5337   -1.1710 H   0  0  0  0  0  0  0  0  0  0  0  0
   -0.9422    3.9945   -2.9282 H   0  0  0  0  0  0  0  0  0  0  0  0
   -4.1101    1.1025   -3.5475 H   0  0  0  0  0  0  0  0  0  0  0  0
   -3.1319   -0.3561   -1.7795 H   0  0  0  0  0  0  0  0  0  0  0  0
    0.0675   -0.2397    2.7773 H   0  0  0  0  0  0  0  0  0  0  0  0
   -0.9211    0.5578    4.9218 H   0  0  0  0  0  0  0  0  0  0  0  0
   -4.1136    2.5067    2.7326 H   0  0  0  0  0  0  0  0  0  0  0  0
   -3.1415    1.6991    0.5850 H   0  0  0  0  0  0  0  0  0  0  0  0
    0.0669   -2.2877   -1.5997 H   0  0  0  0  0  0  0  0  0  0  0  0
   -0.9182   -4.5456   -1.9772 H   0  0  0  0  0  0  0  0  0  0  0  0
   -4.1038   -3.6301    0.8150 H   0  0  0  0  0  0  0  0  0  0  0  0
   -3.1354   -1.3639    1.1852 H   0  0  0  0  0  0  0  0  0  0  0  0
   -2.5597    3.4586   -5.3757 H   0  0  0  0  0  0  0  0  0  0  0  0
   -4.2064    3.2272   -4.7175 H   0  0  0  0  0  0  0  0  0  0  0  0
   -3.1865    4.5938   -4.1539 H   0  0  0  0  0  0  0  0  0  0  0  0
   -2.5556    2.9483    5.6694 H   0  0  0  0  0  0  0  0  0  0  0  0
   -4.1997    2.4627    5.1604 H   0  0  0  0  0  0  0  0  0  0  0  0
   -3.1533    1.3170    6.0649 H   0  0  0  0  0  0  0  0  0  0  0  0
   -2.5117   -6.3981   -0.3294 H   0  0  0  0  0  0  0  0  0  0  0  0
   -4.1692   -5.7273   -0.3897 H   0  0  0  0  0  0  0  0  0  0  0  0
   -3.2007   -5.8936   -1.8926 H   0  0  0  0  0  0  0  0  0  0  0  0
  1  9  1  0  0  0  0
  2  1  1  0  0  0  0
  3  2  1  0  0  0  0
  3 23  1  0  0  0  0
  4  3  2  0  0  0  0
  5  6  2  0  0  0  0
  5  4  1  0  0  0  0
  6  7  1  0  0  0  0
  7 26  1  0  0  0  0
  7  2  2  0  0  0  0
  8 37  1  0  0  0  0
  8  5  1  0  0  0  0
  9 10  1  0  0  0  0
 10 27  1  0  0  0  0
 10 11  2  0  0  0  0
 11 12  1  0  0  0  0
 11 28  1  0  0  0  0
 12 15  1  0  0  0  0
 13 12  2  0  0  0  0
 14  9  2  0  0  0  0
 14 13  1  0  0  0  0
 15 38  1  0  0  0  0
 15 40  1  0  0  0  0
 16  1  1  0  0  0  0
 16 21  1  0  0  0  0
 17 16  2  0  0  0  0
 18 17  1  0  0  0  0
 18 19  2  0  0  0  0
 19 20  1  0  0  0  0
 20 21  2  0  0  0  0
 20 33  1  0  0  0  0
 21 34  1  0  0  0  0
 22 19  1  0  0  0  0
 22 42  1  0  0  0  0
 22 41  1  0  0  0  0
 24  4  1  0  0  0  0
 25  6  1  0  0  0  0
 29 13  1  0  0  0  0
 30 14  1  0  0  0  0
 31 17  1  0  0  0  0
 32 18  1  0  0  0  0
 35  8  1  0  0  0  0
 36  8  1  0  0  0  0
 39 15  1  0  0  0  0
 43 22  1  0  0  0  0
M  END
