1
q = 0.0, confidence = 0.998

 30 31  0  0  0  0  0  0  0  0999 V2000
    2.6050    0.0718   -0.5242 P   0  0  0  0  0  0  0  0  0  0  0  0
    2.9811    1.8528   -0.8734 C   0  0  0  0  0  0  0  0  0  0  0  0
    2.8558    2.3910    0.0876 H   0  0  0  0  0  0  0  0  0  0  0  0
    4.0648    1.8820   -1.1139 H   0  0  0  0  0  0  0  0  0  0  0  0
    2.1519    2.5174   -1.9902 C   0  0  0  0  0  0  0  0  0  0  0  0
    1.2635    2.9960   -1.5327 H   0  0  0  0  0  0  0  0  0  0  0  0
    2.7622    3.3461   -2.4102 H   0  0  0  0  0  0  0  0  0  0  0  0
    1.6609    1.6162   -3.1350 C   0  0  0  0  0  0  0  0  0  0  0  0
    1.1816    2.2787   -3.8854 H   0  0  0  0  0  0  0  0  0  0  0  0
    0.8411    0.9661   -2.7578 H   0  0  0  0  0  0  0  0  0  0  0  0
    2.7116    0.7287   -3.8345 C   0  0  0  0  0  0  0  0  0  0  0  0
    2.4334    0.6329   -4.9047 H   0  0  0  0  0  0  0  0  0  0  0  0
    3.7067    1.2299   -3.8332 H   0  0  0  0  0  0  0  0  0  0  0  0
    2.8357   -0.6949   -3.2675 C   0  0  0  0  0  0  0  0  0  0  0  0
    3.4319   -1.3157   -3.9703 H   0  0  0  0  0  0  0  0  0  0  0  0
    1.8275   -1.1617   -3.2261 H   0  0  0  0  0  0  0  0  0  0  0  0
    3.4796   -0.8277   -1.8852 C   0  0  0  0  0  0  0  0  0  0  0  0
    4.5322   -0.4695   -1.8867 H   0  0  0  0  0  0  0  0  0  0  0  0
    3.4727   -1.8887   -1.5629 H   0  0  0  0  0  0  0  0  0  0  0  0
    3.6287   -0.3032    0.9544 C   0  0  0  0  0  0  0  0  0  0  0  0
    4.9762    0.1057    1.0360 C   0  0  0  0  0  0  0  0  0  0  0  0
    5.4400    0.6725    0.2137 H   0  0  0  0  0  0  0  0  0  0  0  0
    5.7419   -0.2059    2.1690 C   0  0  0  0  0  0  0  0  0  0  0  0
    6.7920    0.1191    2.2252 H   0  0  0  0  0  0  0  0  0  0  0  0
    5.1698   -0.9305    3.2271 C   0  0  0  0  0  0  0  0  0  0  0  0
    5.7718   -1.1741    4.1159 H   0  0  0  0  0  0  0  0  0  0  0  0
    3.8307   -1.3431    3.1487 C   0  0  0  0  0  0  0  0  0  0  0  0
    3.3787   -1.9124    3.9750 H   0  0  0  0  0  0  0  0  0  0  0  0
    3.0610   -1.0316    2.0185 C   0  0  0  0  0  0  0  0  0  0  0  0
    2.0101   -1.3499    1.9413 H   0  0  0  0  0  0  0  0  0  0  0  0
  1 20  1  0  0  0  0
  2  1  1  0  0  0  0
  2  3  1  0  0  0  0
  4  2  1  0  0  0  0
  5  6  1  0  0  0  0
  5  2  1  0  0  0  0
  7  5  1  0  0  0  0
  8 10  1  0  0  0  0
  8  5  1  0  0  0  0
  9  8  1  0  0  0  0
 11 13  1  0  0  0  0
 11 14  1  0  0  0  0
 11  8  1  0  0  0  0
 12 11  1  0  0  0  0
 14 16  1  0  0  0  0
 14 17  1  0  0  0  0
 15 14  1  0  0  0  0
 17 19  1  0  0  0  0
 17  1  1  0  0  0  0
 18 17  1  0  0  0  0
 20 21  2  0  0  0  0
 20 29  1  0  0  0  0
 21 23  1  0  0  0  0
 22 21  1  0  0  0  0
 23 24  1  0  0  0  0
 23 25  2  0  0  0  0
 25 26  1  0  0  0  0
 27 25  1  0  0  0  0
 27 28  1  0  0  0  0
 29 27  2  0  0  0  0
 30 29  1  0  0  0  0
M  END
