5
q = 0.0, confidence = 0.992

 36 37  0  0  0  0  0  0  0  0999 V2000
    2.7426   -0.2003   -0.4613 N   0  0  0  0  0  0  0  0  0  0  0  0
    1.5569   -1.0370   -0.3235 C   0  0  0  0  0  0  0  0  0  0  0  0
    1.7393   -1.9471    0.2836 H   0  0  0  0  0  0  0  0  0  0  0  0
    1.1744   -1.3685   -1.3174 H   0  0  0  0  0  0  0  0  0  0  0  0
    0.2231   -0.0057    0.4914 P   0  0  2  0  0  0  0  0  0  0  0  0
    1.1820    1.4889    0.1359 C   0  0  0  0  0  0  0  0  0  0  0  0
    0.7819    2.8227    0.3054 C   0  0  0  0  0  0  0  0  0  0  0  0
   -0.2366    3.0428    0.6614 H   0  0  0  0  0  0  0  0  0  0  0  0
    1.6810    3.8586    0.0173 C   0  0  0  0  0  0  0  0  0  0  0  0
    1.3801    4.9085    0.1408 H   0  0  0  0  0  0  0  0  0  0  0  0
    2.9754    3.5367   -0.4354 C   0  0  0  0  0  0  0  0  0  0  0  0
    3.6858    4.3463   -0.6632 H   0  0  0  0  0  0  0  0  0  0  0  0
    3.3932    2.2104   -0.6080 C   0  0  0  0  0  0  0  0  0  0  0  0
    4.4142    2.0013   -0.9529 H   0  0  0  0  0  0  0  0  0  0  0  0
    2.4890    1.1576   -0.3294 C   0  0  0  0  0  0  0  0  0  0  0  0
    3.9098   -0.7372   -1.1438 C   0  0  0  0  0  0  0  0  0  0  0  0
    4.3386    0.0544   -1.7946 H   0  0  0  0  0  0  0  0  0  0  0  0
    3.5658   -1.5446   -1.8281 H   0  0  0  0  0  0  0  0  0  0  0  0
    5.0350   -1.3062   -0.2361 C   0  0  0  0  0  0  0  0  0  0  0  0
    5.5781   -0.2087    0.6940 C   0  0  0  0  0  0  0  0  0  0  0  0
    4.7690    0.2252    1.3159 H   0  0  0  0  0  0  0  0  0  0  0  0
    6.0472    0.6163    0.1197 H   0  0  0  0  0  0  0  0  0  0  0  0
    6.3494   -0.6206    1.3763 H   0  0  0  0  0  0  0  0  0  0  0  0
    4.5032   -2.4758    0.6105 C   0  0  0  0  0  0  0  0  0  0  0  0
    4.0613   -3.2720   -0.0240 H   0  0  0  0  0  0  0  0  0  0  0  0
    3.7293   -2.1349    1.3277 H   0  0  0  0  0  0  0  0  0  0  0  0
    5.3215   -2.9328    1.2032 H   0  0  0  0  0  0  0  0  0  0  0  0
    6.1551   -1.8115   -1.1619 C   0  0  0  0  0  0  0  0  0  0  0  0
    6.9980   -2.2233   -0.5710 H   0  0  0  0  0  0  0  0  0  0  0  0
    6.5561   -0.9932   -1.7954 H   0  0  0  0  0  0  0  0  0  0  0  0
    5.7919   -2.6153   -1.8356 H   0  0  0  0  0  0  0  0  0  0  0  0
    1.6539   -0.0935    2.7861 C   0  0  0  0  0  0  0  0  0  0  0  0
    2.3973   -0.8642    2.4829 H   0  0  0  0  0  0  0  0  0  0  0  0
    1.4697   -0.1887    3.8734 H   0  0  0  0  0  0  0  0  0  0  0  0
    2.0809    0.9117    2.5775 H   0  0  0  0  0  0  0  0  0  0  0  0
    0.4014   -0.2842    2.1337 O   0  0  0  0  0  0  0  0  0  0  0  0
  1 15  1  0  0  0  0
  1  2  1  0  0  0  0
  2  3  1  0  0  0  0
  2  5  1  0  0  0  0
  4  2  1  0  0  0  0
  5 36  1  1  0  0  0
  6  7  1  0  0  0  0
  6  5  1  0  0  0  0
  7  8  1  0  0  0  0
  9 10  1  0  0  0  0
  9  7  2  0  0  0  0
 11  9  1  0  0  0  0
 12 11  1  0  0  0  0
 13 11  2  0  0  0  0
 13 15  1  0  0  0  0
 14 13  1  0  0  0  0
 15  6  2  0  0  0  0
 16  1  1  0  0  0  0
 16 19  1  0  0  0  0
 17 16  1  0  0  0  0
 18 16  1  0  0  0  0
 19 24  1  0  0  0  0
 19 20  1  0  0  0  0
 20 21  1  0  0  0  0
 20 23  1  0  0  0  0
 22 20  1  0  0  0  0
 24 27  1  0  0  0  0
 24 26  1  0  0  0  0
 25 24  1  0  0  0  0
 28 29  1  0  0  0  0
 28 19  1  0  0  0  0
 30 28  1  0  0  0  0
 31 28  1  0  0  0  0
 32 34  1  0  0  0  0
 33 32  1  0  0  0  0
 35 32  1  0  0  0  0
 36 32  1  0  0  0  0
M  END
