1
q = 0.0, confidence = 0.996

 21 21  0  0  0  0  0  0  0  0999 V2000
    0.0125    1.6592   -0.3573 P   0  0  0  0  0  0  0  0  0  0  0  0
    0.3769    2.5429    1.0671 N   0  0  0  0  0  0  0  0  0  0  0  0
    1.6633    1.6436   -0.8668 N   0  0  0  0  0  0  0  0  0  0  0  0
   -0.8277    2.8587   -1.4633 C   0  0  0  0  0  0  0  0  0  0  0  0
   -1.8364    3.0424   -1.0481 H   0  0  0  0  0  0  0  0  0  0  0  0
   -0.9560    2.4085   -2.4672 H   0  0  0  0  0  0  0  0  0  0  0  0
   -0.2289    3.7883   -1.5172 H   0  0  0  0  0  0  0  0  0  0  0  0
    1.8145    2.6222    1.2963 C   0  0  0  0  0  0  0  0  0  0  0  0
    2.1842    1.7576    1.8989 H   0  0  0  0  0  0  0  0  0  0  0  0
    2.0671    3.5571    1.8425 H   0  0  0  0  0  0  0  0  0  0  0  0
    2.4438    2.6071   -0.0961 C   0  0  0  0  0  0  0  0  0  0  0  0
    2.4064    3.6295   -0.5532 H   0  0  0  0  0  0  0  0  0  0  0  0
    3.5115    2.2977   -0.0598 H   0  0  0  0  0  0  0  0  0  0  0  0
   -0.5087    2.4923    2.2178 C   0  0  0  0  0  0  0  0  0  0  0  0
   -0.2366    1.6788    2.9309 H   0  0  0  0  0  0  0  0  0  0  0  0
   -1.5479    2.3080    1.8789 H   0  0  0  0  0  0  0  0  0  0  0  0
   -0.4774    3.4588    2.7649 H   0  0  0  0  0  0  0  0  0  0  0  0
    1.9435    1.5577   -2.2852 C   0  0  0  0  0  0  0  0  0  0  0  0
    1.8501    2.5386   -2.8134 H   0  0  0  0  0  0  0  0  0  0  0  0
    1.2474    0.8410   -2.7636 H   0  0  0  0  0  0  0  0  0  0  0  0
    2.9766    1.1837   -2.4522 H   0  0  0  0  0  0  0  0  0  0  0  0
  1  2  1  0  0  0  0
  2  8  1  0  0  0  0
  2 14  1  0  0  0  0
  3  1  1  0  0  0  0
  3 11  1  0  0  0  0
  4  5  1  0  0  0  0
  4  1  1  0  0  0  0
  6  4  1  0  0  0  0
  7  4  1  0  0  0  0
  8 10  1  0  0  0  0
  8  9  1  0  0  0  0
 11 13  1  0  0  0  0
 11  8  1  0  0  0  0
 12 11  1  0  0  0  0
 14 17  1  0  0  0  0
 14 15  1  0  0  0  0
 16 14  1  0  0  0  0
 18  3  1  0  0  0  0
 19 18  1  0  0  0  0
 20 18  1  0  0  0  0
 21 18  1  0  0  0  0
M  END
