1
q = 0.0, confidence = 0.99

 66 67  0  0  0  0  0  0  0  0999 V2000
    0.3478    0.4549    0.5630 P   0  0  0  0  0  0  0  0  0  0  0  0
    0.1670    0.1341    1.9519 H   0  0  0  0  0  0  0  0  0  0  0  0
    0.5347    2.9643    2.3648 Si  0  0  0  0  0  0  0  0  0  0  0  0
   -0.0306    3.2840   -0.8527 Si  0  0  0  0  0  0  0  0  0  0  0  0
   -1.2707    0.4635    0.0729 O   0  0  0  0  0  0  0  0  0  0  0  0
    0.7305    2.2421    0.5942 C   0  0  0  0  0  0  0  0  0  0  0  0
    1.8223    2.2745    0.3793 H   0  0  0  0  0  0  0  0  0  0  0  0
   -1.2355    2.7099    2.9801 C   0  0  0  0  0  0  0  0  0  0  0  0
   -1.3203    3.0414    4.0355 H   0  0  0  0  0  0  0  0  0  0  0  0
   -1.5301    1.6412    2.9417 H   0  0  0  0  0  0  0  0  0  0  0  0
   -1.9677    3.2834    2.3798 H   0  0  0  0  0  0  0  0  0  0  0  0
    1.0013    4.7978    2.3890 C   0  0  0  0  0  0  0  0  0  0  0  0
    0.3379    5.4192    1.7563 H   0  0  0  0  0  0  0  0  0  0  0  0
    2.0444    4.9457    2.0421 H   0  0  0  0  0  0  0  0  0  0  0  0
    0.9362    5.1829    3.4277 H   0  0  0  0  0  0  0  0  0  0  0  0
    1.7385    2.0502    3.5080 C   0  0  0  0  0  0  0  0  0  0  0  0
    1.7119    2.4984    4.5229 H   0  0  0  0  0  0  0  0  0  0  0  0
    2.7807    2.1156    3.1340 H   0  0  0  0  0  0  0  0  0  0  0  0
    1.4910    0.9746    3.6164 H   0  0  0  0  0  0  0  0  0  0  0  0
   -1.6116    4.1693   -0.3092 C   0  0  0  0  0  0  0  0  0  0  0  0
   -2.0352    4.7190   -1.1752 H   0  0  0  0  0  0  0  0  0  0  0  0
   -1.4353    4.9043    0.5006 H   0  0  0  0  0  0  0  0  0  0  0  0
   -2.3743    3.4448    0.0363 H   0  0  0  0  0  0  0  0  0  0  0  0
   -0.4299    2.2653   -2.3954 C   0  0  0  0  0  0  0  0  0  0  0  0
    0.4518    1.7250   -2.7887 H   0  0  0  0  0  0  0  0  0  0  0  0
   -0.7766    2.9590   -3.1898 H   0  0  0  0  0  0  0  0  0  0  0  0
   -1.2324    1.5289   -2.2020 H   0  0  0  0  0  0  0  0  0  0  0  0
    1.3009    4.5484   -1.3108 C   0  0  0  0  0  0  0  0  0  0  0  0
    0.9261    5.2277   -2.1042 H   0  0  0  0  0  0  0  0  0  0  0  0
    2.1994    4.0320   -1.7073 H   0  0  0  0  0  0  0  0  0  0  0  0
    1.6089    5.1710   -0.4477 H   0  0  0  0  0  0  0  0  0  0  0  0
   -3.6051   -0.3049   -0.4782 C   0  0  0  0  0  0  0  0  0  0  0  0
   -4.3654   -0.9437    0.0301 H   0  0  0  0  0  0  0  0  0  0  0  0
   -3.5192   -0.7994   -1.9488 C   0  0  0  0  0  0  0  0  0  0  0  0
   -2.7312   -0.2204   -2.4802 H   0  0  0  0  0  0  0  0  0  0  0  0
   -3.1930   -1.8588   -1.9904 H   0  0  0  0  0  0  0  0  0  0  0  0
   -4.8540   -0.6270   -2.6863 C   0  0  0  0  0  0  0  0  0  0  0  0
   -5.6141   -1.2928   -2.2185 H   0  0  0  0  0  0  0  0  0  0  0  0
   -4.7521   -0.9606   -3.7408 H   0  0  0  0  0  0  0  0  0  0  0  0
   -5.3490    0.8235   -2.6276 C   0  0  0  0  0  0  0  0  0  0  0  0
   -4.6396    1.4710   -3.1915 H   0  0  0  0  0  0  0  0  0  0  0  0
   -6.3312    0.9202   -3.1367 H   0  0  0  0  0  0  0  0  0  0  0  0
   -5.4403    1.3255   -1.1806 C   0  0  0  0  0  0  0  0  0  0  0  0
   -5.7577    2.3897   -1.1590 H   0  0  0  0  0  0  0  0  0  0  0  0
   -6.2307    0.7529   -0.6442 H   0  0  0  0  0  0  0  0  0  0  0  0
   -4.1054    1.1527   -0.4450 C   0  0  0  0  0  0  0  0  0  0  0  0
   -4.1930    1.5078    0.6044 H   0  0  0  0  0  0  0  0  0  0  0  0
   -3.3406    1.7998   -0.9258 H   0  0  0  0  0  0  0  0  0  0  0  0
   -1.8987   -1.8270    1.1123 C   0  0  0  0  0  0  0  0  0  0  0  0
   -0.8016   -1.9176    1.2740 H   0  0  0  0  0  0  0  0  0  0  0  0
   -2.5352   -1.5947    2.5100 C   0  0  0  0  0  0  0  0  0  0  0  0
   -2.1429   -0.6583    2.9648 H   0  0  0  0  0  0  0  0  0  0  0  0
   -3.6321   -1.4419    2.3916 H   0  0  0  0  0  0  0  0  0  0  0  0
   -2.2908   -2.7803    3.4541 C   0  0  0  0  0  0  0  0  0  0  0  0
   -1.1992   -2.8619    3.6568 H   0  0  0  0  0  0  0  0  0  0  0  0
   -2.7809   -2.5952    4.4335 H   0  0  0  0  0  0  0  0  0  0  0  0
   -2.7889   -4.0950    2.8408 C   0  0  0  0  0  0  0  0  0  0  0  0
   -2.5811   -4.9436    3.5259 H   0  0  0  0  0  0  0  0  0  0  0  0
   -3.8962   -4.0466    2.7297 H   0  0  0  0  0  0  0  0  0  0  0  0
   -2.1527   -4.3452    1.4680 C   0  0  0  0  0  0  0  0  0  0  0  0
   -2.5516   -5.2801    1.0208 H   0  0  0  0  0  0  0  0  0  0  0  0
   -1.0591   -4.5000    1.5957 H   0  0  0  0  0  0  0  0  0  0  0  0
   -2.3830   -3.1651    0.5138 C   0  0  0  0  0  0  0  0  0  0  0  0
   -1.8710   -3.3529   -0.4536 H   0  0  0  0  0  0  0  0  0  0  0  0
   -3.4690   -3.0907    0.2800 H   0  0  0  0  0  0  0  0  0  0  0  0
   -2.2096   -0.5489    0.2308 B   0  0  0  0  0  0  0  0  0  0  0  0
  1  6  1  0  0  0  0
  1  2  1  0  0  0  0
  3 12  1  0  0  0  0
  3  8  1  0  0  0  0
  3 16  1  0  0  0  0
  4 20  1  0  0  0  0
  4  6  1  0  0  0  0
  5 66  1  0  0  0  0
  5  1  1  0  0  0  0
  6  3  1  0  0  0  0
  7  6  1  0  0  0  0
  8  9  1  0  0  0  0
 10  8  1  0  0  0  0
 11  8  1  0  0  0  0
 12 15  1  0  0  0  0
 13 12  1  0  0  0  0
 14 12  1  0  0  0  0
 16 19  1  0  0  0  0
 16 17  1  0  0  0  0
 18 16  1  0  0  0  0
 20 23  1  0  0  0  0
 20 22  1  0  0  0  0
 21 20  1  0  0  0  0
 24 27  1  0  0  0  0
 24  4  1  0  0  0  0
 25 24  1  0  0  0  0
 26 24  1  0  0  0  0
 28  4  1  0  0  0  0
 28 31  1  0  0  0  0
 29 28  1  0  0  0  0
 30 28  1  0  0  0  0
 32 46  1  0  0  0  0
 32 33  1  0  0  0  0
 32 66  1  0  0  0  0
 34 32  1  0  0  0  0
 35 34  1  0  0  0  0
 36 34  1  0  0  0  0
 37 40  1  0  0  0  0
 37 38  1  0  0  0  0
 37 34  1  0  0  0  0
 39 37  1  0  0  0  0
 40 43  1  0  0  0  0
 41 40  1  0  0  0  0
 42 40  1  0  0  0  0
 43 44  1  0  0  0  0
 43 45  1  0  0  0  0
 43 46  1  0  0  0  0
 46 47  1  0  0  0  0
 48 46  1  0  0  0  0
 49 50  1  0  0  0  0
 49 51  1  0  0  0  0
 51 52  1  0  0  0  0
 51 54  1  0  0  0  0
 53 51  1  0  0  0  0
 54 55  1  0  0  0  0
 54 56  1  0  0  0  0
 57 54  1  0  0  0  0
 57 58  1  0  0  0  0
 59 57  1  0  0  0  0
 60 62  1  0  0  0  0
 60 57  1  0  0  0  0
 61 60  1  0  0  0  0
 63 49  1  0  0  0  0
 63 60  1  0  0  0  0
 64 63  1  0  0  0  0
 65 63  1  0  0  0  0
 66 49  1  0  0  0  0
M  END
