1
q = 0.0, confidence = 1.0

 41 43  0  0  0  0  0  0  0  0999 V2000
   -1.2345    1.6532   -0.1657 P   0  0  0  0  0  0  0  0  0  0  0  0
    2.0202    2.7769    2.7290 S   0  0  0  0  0  0  0  0  0  0  0  0
    4.9265    4.3922   -1.1890 F   0  0  0  0  0  0  0  0  0  0  0  0
    5.0249   -0.2376   -0.1460 F   0  0  0  0  0  0  0  0  0  0  0  0
    3.2735    0.1815    1.8856 F   0  0  0  0  0  0  0  0  0  0  0  0
   -0.0141    2.6360    0.8185 C   0  0  0  0  0  0  0  0  0  0  0  0
    0.7826    2.8486    0.0755 H   0  0  0  0  0  0  0  0  0  0  0  0
   -0.4759    3.5992    1.1160 H   0  0  0  0  0  0  0  0  0  0  0  0
    0.5859    1.8846    2.0057 C   0  0  0  0  0  0  0  0  0  0  0  0
    0.9112    0.8660    1.7104 H   0  0  0  0  0  0  0  0  0  0  0  0
   -0.1261    1.7681    2.8470 H   0  0  0  0  0  0  0  0  0  0  0  0
    3.1844    2.5129    1.4124 C   0  0  0  0  0  0  0  0  0  0  0  0
    3.6193    3.5848    0.6077 C   0  0  0  0  0  0  0  0  0  0  0  0
    4.5387    3.3605   -0.4347 C   0  0  0  0  0  0  0  0  0  0  0  0
    5.0298    2.0767   -0.6895 C   0  0  0  0  0  0  0  0  0  0  0  0
    5.7352    1.9072   -1.5140 H   0  0  0  0  0  0  0  0  0  0  0  0
    4.5929    1.0101    0.1007 C   0  0  0  0  0  0  0  0  0  0  0  0
    3.6973    1.2269    1.1550 C   0  0  0  0  0  0  0  0  0  0  0  0
   -2.8461    1.7507    0.6983 C   0  0  0  0  0  0  0  0  0  0  0  0
   -2.9546    2.1683    2.0396 C   0  0  0  0  0  0  0  0  0  0  0  0
   -2.0594    2.4064    2.6294 H   0  0  0  0  0  0  0  0  0  0  0  0
   -4.2181    2.2975    2.6355 C   0  0  0  0  0  0  0  0  0  0  0  0
   -4.2915    2.6308    3.6811 H   0  0  0  0  0  0  0  0  0  0  0  0
   -5.3792    2.0090    1.9028 C   0  0  0  0  0  0  0  0  0  0  0  0
   -6.3684    2.1201    2.3716 H   0  0  0  0  0  0  0  0  0  0  0  0
   -5.2761    1.5860    0.5675 C   0  0  0  0  0  0  0  0  0  0  0  0
   -6.1824    1.3665   -0.0165 H   0  0  0  0  0  0  0  0  0  0  0  0
   -4.0177    1.4610   -0.0351 C   0  0  0  0  0  0  0  0  0  0  0  0
   -3.9493    1.1642   -1.0914 H   0  0  0  0  0  0  0  0  0  0  0  0
   -1.5461    2.5997   -1.7001 C   0  0  0  0  0  0  0  0  0  0  0  0
   -1.2055    2.0892   -2.9681 C   0  0  0  0  0  0  0  0  0  0  0  0
   -0.7169    1.1074   -3.0494 H   0  0  0  0  0  0  0  0  0  0  0  0
   -1.4657    2.8500   -4.1180 C   0  0  0  0  0  0  0  0  0  0  0  0
   -1.1964    2.4494   -5.1065 H   0  0  0  0  0  0  0  0  0  0  0  0
   -2.0559    4.1181   -4.0074 C   0  0  0  0  0  0  0  0  0  0  0  0
   -2.2534    4.7140   -4.9110 H   0  0  0  0  0  0  0  0  0  0  0  0
   -2.3954    4.6289   -2.7432 C   0  0  0  0  0  0  0  0  0  0  0  0
   -2.8584    5.6229   -2.6540 H   0  0  0  0  0  0  0  0  0  0  0  0
   -2.1496    3.8721   -1.5902 C   0  0  0  0  0  0  0  0  0  0  0  0
   -2.4370    4.2705   -0.6048 H   0  0  0  0  0  0  0  0  0  0  0  0
    3.1416    4.8149    0.8003 F   0  0  0  0  0  0  0  0  0  0  0  0
  1 19  1  0  0  0  0
  1  6  1  0  0  0  0
  3 14  1  0  0  0  0
  4 17  1  0  0  0  0
  6  8  1  0  0  0  0
  6  9  1  0  0  0  0
  7  6  1  0  0  0  0
  9  2  1  0  0  0  0
  9 11  1  0  0  0  0
 10  9  1  0  0  0  0
 12  2  1  0  0  0  0
 13 41  1  0  0  0  0
 13 12  2  0  0  0  0
 14 13  1  0  0  0  0
 15 14  2  0  0  0  0
 15 17  1  0  0  0  0
 16 15  1  0  0  0  0
 17 18  2  0  0  0  0
 18 12  1  0  0  0  0
 18  5  1  0  0  0  0
 19 20  1  0  0  0  0
 20 21  1  0  0  0  0
 20 22  2  0  0  0  0
 22 23  1  0  0  0  0
 24 25  1  0  0  0  0
 24 22  1  0  0  0  0
 26 24  2  0  0  0  0
 27 26  1  0  0  0  0
 28 26  1  0  0  0  0
 28 19  2  0  0  0  0
 29 28  1  0  0  0  0
 30 39  1  0  0  0  0
 30  1  1  0  0  0  0
 31 30  2  0  0  0  0
 32 31  1  0  0  0  0
 33 35  2  0  0  0  0
 33 31  1  0  0  0  0
 34 33  1  0  0  0  0
 35 37  1  0  0  0  0
 36 35  1  0  0  0  0
 37 38  1  0  0  0  0
 37 39  2  0  0  0  0
 39 40  1  0  0  0  0
M  END
