1
q = 0.0, confidence = 1.0

 38 40  0  0  0  0  0  0  0  0999 V2000
    2.0836   -0.0598   -0.1909 P   0  0  0  0  0  0  0  0  0  0  0  0
    0.8010    1.6646   -2.1212 O   0  0  0  0  0  0  0  0  0  0  0  0
    2.5068   -0.4752    1.5456 C   0  0  0  0  0  0  0  0  0  0  0  0
    1.6062   -0.0643    2.5529 C   0  0  0  0  0  0  0  0  0  0  0  0
    0.7183    0.5312    2.2890 H   0  0  0  0  0  0  0  0  0  0  0  0
    1.8275   -0.4251    3.8881 C   0  0  0  0  0  0  0  0  0  0  0  0
    1.1170   -0.1012    4.6631 H   0  0  0  0  0  0  0  0  0  0  0  0
    2.9421   -1.2114    4.2291 C   0  0  0  0  0  0  0  0  0  0  0  0
    3.1134   -1.4999    5.2770 H   0  0  0  0  0  0  0  0  0  0  0  0
    3.8366   -1.6269    3.2304 C   0  0  0  0  0  0  0  0  0  0  0  0
    4.7119   -2.2396    3.4939 H   0  0  0  0  0  0  0  0  0  0  0  0
    3.6241   -1.2605    1.8907 C   0  0  0  0  0  0  0  0  0  0  0  0
    4.3280   -1.5884    1.1113 H   0  0  0  0  0  0  0  0  0  0  0  0
    3.4508   -0.7526   -1.1984 C   0  0  0  0  0  0  0  0  0  0  0  0
    3.2270   -1.9737   -1.8660 C   0  0  0  0  0  0  0  0  0  0  0  0
    2.2340   -2.4477   -1.8066 H   0  0  0  0  0  0  0  0  0  0  0  0
    4.2557   -2.5674   -2.6124 C   0  0  0  0  0  0  0  0  0  0  0  0
    4.0778   -3.5216   -3.1309 H   0  0  0  0  0  0  0  0  0  0  0  0
    5.5067   -1.9371   -2.7072 C   0  0  0  0  0  0  0  0  0  0  0  0
    6.3119   -2.3987   -3.2983 H   0  0  0  0  0  0  0  0  0  0  0  0
    5.7285   -0.7119   -2.0564 C   0  0  0  0  0  0  0  0  0  0  0  0
    6.7059   -0.2131   -2.1387 H   0  0  0  0  0  0  0  0  0  0  0  0
    4.7053   -0.1181   -1.3030 C   0  0  0  0  0  0  0  0  0  0  0  0
    4.8795    0.8449   -0.7993 H   0  0  0  0  0  0  0  0  0  0  0  0
    2.2867    1.7577   -0.2872 C   0  0  0  0  0  0  0  0  0  0  0  0
    3.0704    2.4958    0.6180 C   0  0  0  0  0  0  0  0  0  0  0  0
    3.6045    1.9647    1.4208 H   0  0  0  0  0  0  0  0  0  0  0  0
    3.1596    3.8928    0.5170 C   0  0  0  0  0  0  0  0  0  0  0  0
    3.7772    4.4592    1.2287 H   0  0  0  0  0  0  0  0  0  0  0  0
    2.4542    4.5562   -0.4978 C   0  0  0  0  0  0  0  0  0  0  0  0
    2.5186    5.6510   -0.5884 H   0  0  0  0  0  0  0  0  0  0  0  0
    1.6547    3.8431   -1.4055 C   0  0  0  0  0  0  0  0  0  0  0  0
    1.0998    4.3849   -2.1823 H   0  0  0  0  0  0  0  0  0  0  0  0
    1.5681    2.4422   -1.3050 C   0  0  0  0  0  0  0  0  0  0  0  0
   -0.0787    2.2905   -3.0470 C   0  0  0  0  0  0  0  0  0  0  0  0
   -0.6288    1.4706   -3.5444 H   0  0  0  0  0  0  0  0  0  0  0  0
    0.4799    2.8675   -3.8145 H   0  0  0  0  0  0  0  0  0  0  0  0
   -0.7985    2.9600   -2.5280 H   0  0  0  0  0  0  0  0  0  0  0  0
  1  3  1  0  0  0  0
  2 34  1  0  0  0  0
  3 12  2  0  0  0  0
  3  4  1  0  0  0  0
  4  6  2  0  0  0  0
  5  4  1  0  0  0  0
  6  8  1  0  0  0  0
  6  7  1  0  0  0  0
  8  9  1  0  0  0  0
 10 11  1  0  0  0  0
 10  8  2  0  0  0  0
 12 10  1  0  0  0  0
 13 12  1  0  0  0  0
 14  1  1  0  0  0  0
 15 16  1  0  0  0  0
 15 14  2  0  0  0  0
 17 15  1  0  0  0  0
 18 17  1  0  0  0  0
 19 17  2  0  0  0  0
 19 21  1  0  0  0  0
 20 19  1  0  0  0  0
 21 23  2  0  0  0  0
 22 21  1  0  0  0  0
 23 14  1  0  0  0  0
 23 24  1  0  0  0  0
 25  1  1  0  0  0  0
 25 26  1  0  0  0  0
 26 27  1  0  0  0  0
 28 26  2  0  0  0  0
 28 29  1  0  0  0  0
 30 28  1  0  0  0  0
 31 30  1  0  0  0  0
 32 34  1  0  0  0  0
 32 30  2  0  0  0  0
 33 32  1  0  0  0  0
 34 25  2  0  0  0  0
 35 38  1  0  0  0  0
 35  2  1  0  0  0  0
 36 35  1  0  0  0  0
 37 35  1  0  0  0  0
M  END
