2
q = 0.0, confidence = 1.0

 36 36  0  0  1  0  0  0  0  0999 V2000
    0.5053   -1.2412   -2.6328 Cl  0  0  0  0  0  0  0  0  0  0  0  0
   -0.0101   -0.9362   -0.6023 P   0  0  2  0  0  0  0  0  0  0  0  0
    1.6899   -1.0156    2.6883 F   0  0  0  0  0  0  0  0  0  0  0  0
    3.7590   -0.4711    2.2770 F   0  0  0  0  0  0  0  0  0  0  0  0
    3.3020   -0.1213   -1.3725 F   0  0  0  0  0  0  0  0  0  0  0  0
    4.7524   -1.0887   -0.0608 F   0  0  0  0  0  0  0  0  0  0  0  0
    3.4893   -2.2926   -1.3778 F   0  0  0  0  0  0  0  0  0  0  0  0
    1.2524   -1.8566    0.1110 O   0  0  0  0  0  0  0  0  0  0  0  0
    2.4520   -1.3193    0.4896 C   0  0  0  0  0  0  0  0  0  0  0  0
    2.6422   -0.9450    1.7769 C   0  0  0  0  0  0  0  0  0  0  0  0
    3.5160   -1.2057   -0.5821 C   0  0  0  0  0  0  0  0  0  0  0  0
   -1.3738   -2.2248   -0.3659 C   0  0  2  0  0  0  0  0  0  0  0  0
   -2.6120   -1.6300   -1.0300 C   0  0  0  0  0  0  0  0  0  0  0  0
   -3.4937   -1.2697   -0.0380 C   0  0  0  0  0  0  0  0  0  0  0  0
   -2.9212   -1.5920    1.2779 C   0  0  0  0  0  0  0  0  0  0  0  0
   -1.6848   -2.1719    1.1233 C   0  0  0  0  0  0  0  0  0  0  0  0
   -0.9694   -3.6123   -0.8766 C   0  0  0  0  0  0  0  0  0  0  0  0
   -0.7387   -3.5905   -1.9587 H   0  0  0  0  0  0  0  0  0  0  0  0
   -1.8146   -4.3089   -0.7063 H   0  0  0  0  0  0  0  0  0  0  0  0
   -0.0790   -3.9940   -0.3430 H   0  0  0  0  0  0  0  0  0  0  0  0
   -2.8148   -1.5263   -2.5075 C   0  0  0  0  0  0  0  0  0  0  0  0
   -2.1892   -0.7344   -2.9705 H   0  0  0  0  0  0  0  0  0  0  0  0
   -3.8710   -1.2964   -2.7436 H   0  0  0  0  0  0  0  0  0  0  0  0
   -2.5475   -2.4713   -3.0251 H   0  0  0  0  0  0  0  0  0  0  0  0
   -4.8583   -0.6770   -0.1920 C   0  0  0  0  0  0  0  0  0  0  0  0
   -5.6278   -1.3208    0.2843 H   0  0  0  0  0  0  0  0  0  0  0  0
   -5.1373   -0.5296   -1.2512 H   0  0  0  0  0  0  0  0  0  0  0  0
   -4.9217    0.3129    0.3064 H   0  0  0  0  0  0  0  0  0  0  0  0
   -3.6492   -1.3566    2.5629 C   0  0  0  0  0  0  0  0  0  0  0  0
   -4.5893   -1.9475    2.6059 H   0  0  0  0  0  0  0  0  0  0  0  0
   -3.9438   -0.2911    2.6652 H   0  0  0  0  0  0  0  0  0  0  0  0
   -3.0372   -1.6235    3.4438 H   0  0  0  0  0  0  0  0  0  0  0  0
   -0.8541   -2.8026    2.1995 C   0  0  0  0  0  0  0  0  0  0  0  0
   -1.2941   -3.7723    2.5207 H   0  0  0  0  0  0  0  0  0  0  0  0
   -0.7965   -2.1570    3.0985 H   0  0  0  0  0  0  0  0  0  0  0  0
    0.1784   -3.0013    1.8661 H   0  0  0  0  0  0  0  0  0  0  0  0
  2  1  1  6  0  0  0
  2 12  1  0  0  0  0
  2  8  1  0  0  0  0
  5 11  1  0  0  0  0
  7 11  1  0  0  0  0
  8  9  1  0  0  0  0
  9 10  2  0  0  0  0
 10  4  1  0  0  0  0
 10  3  1  0  0  0  0
 11  6  1  0  0  0  0
 11  9  1  0  0  0  0
 12 17  1  6  0  0  0
 12 16  1  0  0  0  0
 13 12  1  0  0  0  0
 13 14  2  0  0  0  0
 14 15  1  0  0  0  0
 15 29  1  0  0  0  0
 16 15  2  0  0  0  0
 16 33  1  0  0  0  0
 17 19  1  0  0  0  0
 17 20  1  0  0  0  0
 18 17  1  0  0  0  0
 21 13  1  0  0  0  0
 22 21  1  0  0  0  0
 23 21  1  0  0  0  0
 24 21  1  0  0  0  0
 25 14  1  0  0  0  0
 25 26  1  0  0  0  0
 25 28  1  0  0  0  0
 27 25  1  0  0  0  0
 29 30  1  0  0  0  0
 29 31  1  0  0  0  0
 29 32  1  0  0  0  0
 33 34  1  0  0  0  0
 33 35  1  0  0  0  0
 36 33  1  0  0  0  0
M  END
