2
q = 0.0, confidence = 0.996

 45 47  0  0  0  0  0  0  0  0999 V2000
   -0.7252    0.4601   -2.5358 Cl  0  0  0  0  0  0  0  0  0  0  0  0
   -0.3113    0.2204   -0.4857 P   0  0  1  0  0  0  0  0  0  0  0  0
   -0.5260    4.1513   -1.4832 F   0  0  0  0  0  0  0  0  0  0  0  0
    1.5290    4.6526   -0.9226 F   0  0  0  0  0  0  0  0  0  0  0  0
    1.1234    2.9200   -2.1855 F   0  0  0  0  0  0  0  0  0  0  0  0
    0.7888    2.3445    2.3869 F   0  0  0  0  0  0  0  0  0  0  0  0
    1.9941    3.9473    1.5358 F   0  0  0  0  0  0  0  0  0  0  0  0
   -0.4856    1.8316    0.0404 O   0  0  0  0  0  0  0  0  0  0  0  0
    0.5083    2.7710    0.1043 C   0  0  0  0  0  0  0  0  0  0  0  0
    0.6766    3.6323   -1.1275 C   0  0  0  0  0  0  0  0  0  0  0  0
    1.0916    3.0216    1.3018 C   0  0  0  0  0  0  0  0  0  0  0  0
   -2.0278   -0.3887    0.2393 C   0  0  0  0  0  0  0  0  0  0  0  0
   -1.9883   -1.9245    0.1656 C   0  0  0  0  0  0  0  0  0  0  0  0
   -2.4255   -2.7198    1.2435 C   0  0  0  0  0  0  0  0  0  0  0  0
   -2.7558   -2.2407    2.1752 H   0  0  0  0  0  0  0  0  0  0  0  0
   -2.4531   -4.1189    1.1396 C   0  0  0  0  0  0  0  0  0  0  0  0
   -2.7971   -4.7177    1.9964 H   0  0  0  0  0  0  0  0  0  0  0  0
   -2.0399   -4.7521   -0.0415 C   0  0  0  0  0  0  0  0  0  0  0  0
   -2.0480   -5.8499   -0.1154 H   0  0  0  0  0  0  0  0  0  0  0  0
   -1.6229   -3.9714   -1.1300 C   0  0  0  0  0  0  0  0  0  0  0  0
   -1.3053   -4.4484   -2.0694 H   0  0  0  0  0  0  0  0  0  0  0  0
   -1.6092   -2.5737   -1.0303 C   0  0  0  0  0  0  0  0  0  0  0  0
   -1.3217   -1.9805   -1.9092 H   0  0  0  0  0  0  0  0  0  0  0  0
   -1.9865    0.1304    1.6874 C   0  0  0  0  0  0  0  0  0  0  0  0
   -0.9993   -0.3552    2.5750 C   0  0  0  0  0  0  0  0  0  0  0  0
   -0.3068   -1.1377    2.2392 H   0  0  0  0  0  0  0  0  0  0  0  0
   -0.8930    0.1352    3.8824 C   0  0  0  0  0  0  0  0  0  0  0  0
   -0.1023   -0.2518    4.5423 H   0  0  0  0  0  0  0  0  0  0  0  0
   -1.7833    1.1186    4.3390 C   0  0  0  0  0  0  0  0  0  0  0  0
   -1.7037    1.5071    5.3655 H   0  0  0  0  0  0  0  0  0  0  0  0
   -2.7820    1.5937    3.4764 C   0  0  0  0  0  0  0  0  0  0  0  0
   -3.4970    2.3543    3.8251 H   0  0  0  0  0  0  0  0  0  0  0  0
   -2.8812    1.1086    2.1633 C   0  0  0  0  0  0  0  0  0  0  0  0
   -3.6692    1.4939    1.5031 H   0  0  0  0  0  0  0  0  0  0  0  0
   -3.2246    0.1548   -0.5614 C   0  0  0  0  0  0  0  0  0  0  0  0
   -3.3211    1.5113   -0.9505 C   0  0  0  0  0  0  0  0  0  0  0  0
   -2.5020    2.2064   -0.7300 H   0  0  0  0  0  0  0  0  0  0  0  0
   -4.4488    1.9868   -1.6325 C   0  0  0  0  0  0  0  0  0  0  0  0
   -4.4893    3.0455   -1.9304 H   0  0  0  0  0  0  0  0  0  0  0  0
   -5.5137    1.1254   -1.9379 C   0  0  0  0  0  0  0  0  0  0  0  0
   -6.3982    1.5011   -2.4742 H   0  0  0  0  0  0  0  0  0  0  0  0
   -5.4346   -0.2196   -1.5533 C   0  0  0  0  0  0  0  0  0  0  0  0
   -6.2595   -0.9115   -1.7817 H   0  0  0  0  0  0  0  0  0  0  0  0
   -4.3024   -0.6991   -0.8767 C   0  0  0  0  0  0  0  0  0  0  0  0
   -4.2636   -1.7571   -0.5855 H   0  0  0  0  0  0  0  0  0  0  0  0
  2  1  1  6  0  0  0
  2  8  1  0  0  0  0
  2 12  1  0  0  0  0
  3 10  1  0  0  0  0
  5 10  1  0  0  0  0
  8  9  1  0  0  0  0
  9 11  2  0  0  0  0
 10  4  1  0  0  0  0
 10  9  1  0  0  0  0
 11  7  1  0  0  0  0
 11  6  1  0  0  0  0
 12 24  1  0  0  0  0
 13 12  1  0  0  0  0
 13 14  1  0  0  0  0
 14 15  1  0  0  0  0
 16 14  2  0  0  0  0
 16 17  1  0  0  0  0
 18 16  1  0  0  0  0
 19 18  1  0  0  0  0
 20 22  1  0  0  0  0
 20 18  2  0  0  0  0
 21 20  1  0  0  0  0
 22 13  2  0  0  0  0
 23 22  1  0  0  0  0
 24 33  2  0  0  0  0
 24 25  1  0  0  0  0
 25 27  2  0  0  0  0
 26 25  1  0  0  0  0
 27 29  1  0  0  0  0
 27 28  1  0  0  0  0
 29 30  1  0  0  0  0
 31 32  1  0  0  0  0
 31 29  2  0  0  0  0
 33 31  1  0  0  0  0
 34 33  1  0  0  0  0
 35 12  1  0  0  0  0
 36 37  1  0  0  0  0
 36 35  2  0  0  0  0
 38 36  1  0  0  0  0
 39 38  1  0  0  0  0
 40 38  2  0  0  0  0
 40 42  1  0  0  0  0
 41 40  1  0  0  0  0
 42 44  2  0  0  0  0
 43 42  1  0  0  0  0
 44 45  1  0  0  0  0
 44 35  1  0  0  0  0
M  END
