1
q = 0.0, confidence = 1.0

 34 33  0  0  0  0  0  0  0  0999 V2000
   -1.8973   -1.1274   -0.2292 P   0  0  0  0  0  0  0  0  0  0  0  0
   -2.5073   -2.0466    1.2828 C   0  0  0  0  0  0  0  0  0  0  0  0
   -1.7103   -2.8048    1.4306 H   0  0  0  0  0  0  0  0  0  0  0  0
   -3.8537   -2.7430    1.0671 C   0  0  0  0  0  0  0  0  0  0  0  0
   -3.8554   -3.4018    0.1752 H   0  0  0  0  0  0  0  0  0  0  0  0
   -4.0993   -3.3750    1.9463 H   0  0  0  0  0  0  0  0  0  0  0  0
   -4.6800   -2.0119    0.9508 H   0  0  0  0  0  0  0  0  0  0  0  0
   -2.4970   -1.1406    2.5213 C   0  0  0  0  0  0  0  0  0  0  0  0
   -1.5005   -0.6768    2.6522 H   0  0  0  0  0  0  0  0  0  0  0  0
   -3.2565   -0.3368    2.4586 H   0  0  0  0  0  0  0  0  0  0  0  0
   -2.7178   -1.7403    3.4289 H   0  0  0  0  0  0  0  0  0  0  0  0
   -1.6739   -2.4256   -1.5732 C   0  0  0  0  0  0  0  0  0  0  0  0
   -2.7036   -2.6657   -1.9221 H   0  0  0  0  0  0  0  0  0  0  0  0
   -0.8885   -1.7998   -2.7362 C   0  0  0  0  0  0  0  0  0  0  0  0
   -1.2943   -0.8190   -3.0534 H   0  0  0  0  0  0  0  0  0  0  0  0
    0.1679   -1.6332   -2.4404 H   0  0  0  0  0  0  0  0  0  0  0  0
   -0.8956   -2.4806   -3.6128 H   0  0  0  0  0  0  0  0  0  0  0  0
   -0.9969   -3.7057   -1.0735 C   0  0  0  0  0  0  0  0  0  0  0  0
   -1.6153   -4.2518   -0.3343 H   0  0  0  0  0  0  0  0  0  0  0  0
   -0.8176   -4.3912   -1.9280 H   0  0  0  0  0  0  0  0  0  0  0  0
   -0.0220   -3.4764   -0.5979 H   0  0  0  0  0  0  0  0  0  0  0  0
   -3.3570   -0.1866   -0.8728 C   0  0  0  0  0  0  0  0  0  0  0  0
   -4.1709   -0.9087   -1.0969 H   0  0  0  0  0  0  0  0  0  0  0  0
   -3.0094    0.2329   -1.8389 H   0  0  0  0  0  0  0  0  0  0  0  0
   -3.8472    0.9557    0.0243 C   0  0  0  0  0  0  0  0  0  0  0  0
   -4.4310    0.5463    0.8774 H   0  0  0  0  0  0  0  0  0  0  0  0
   -2.9686    1.4775    0.4597 H   0  0  0  0  0  0  0  0  0  0  0  0
   -4.6996    1.9774   -0.7347 C   0  0  0  0  0  0  0  0  0  0  0  0
   -5.5512    1.4581   -1.2289 H   0  0  0  0  0  0  0  0  0  0  0  0
   -4.0797    2.4025   -1.5543 H   0  0  0  0  0  0  0  0  0  0  0  0
   -5.2217    3.1036    0.1569 C   0  0  0  0  0  0  0  0  0  0  0  0
   -5.8217    3.8383   -0.4169 H   0  0  0  0  0  0  0  0  0  0  0  0
   -5.8648    2.7107    0.9725 H   0  0  0  0  0  0  0  0  0  0  0  0
   -4.3845    3.6546    0.6341 H   0  0  0  0  0  0  0  0  0  0  0  0
  1  2  1  0  0  0  0
  2  3  1  0  0  0  0
  2  8  1  0  0  0  0
  4  2  1  0  0  0  0
  4  6  1  0  0  0  0
  5  4  1  0  0  0  0
  7  4  1  0  0  0  0
  8  9  1  0  0  0  0
  8 11  1  0  0  0  0
 10  8  1  0  0  0  0
 12 18  1  0  0  0  0
 12  1  1  0  0  0  0
 13 12  1  0  0  0  0
 14 16  1  0  0  0  0
 14 12  1  0  0  0  0
 15 14  1  0  0  0  0
 17 14  1  0  0  0  0
 18 21  1  0  0  0  0
 18 19  1  0  0  0  0
 20 18  1  0  0  0  0
 22  1  1  0  0  0  0
 22 25  1  0  0  0  0
 23 22  1  0  0  0  0
 24 22  1  0  0  0  0
 25 27  1  0  0  0  0
 25 26  1  0  0  0  0
 28 25  1  0  0  0  0
 28 31  1  0  0  0  0
 29 28  1  0  0  0  0
 30 28  1  0  0  0  0
 31 34  1  0  0  0  0
 31 33  1  0  0  0  0
 32 31  1  0  0  0  0
M  END
