2
q = 0.0, confidence = 0.996

 36 37  0  0  0  0  0  0  0  0999 V2000
    5.6277   -2.1485   -0.2271 Br  0  0  0  0  0  0  0  0  0  0  0  0
    0.1925    1.5234   -0.4937 P   0  0  1  0  0  0  0  0  0  0  0  0
    1.7622    0.5507   -0.3972 C   0  0  0  0  0  0  0  0  0  0  0  0
    2.9153    0.9899    0.2805 C   0  0  0  0  0  0  0  0  0  0  0  0
    2.9188    1.9593    0.7986 H   0  0  0  0  0  0  0  0  0  0  0  0
    4.0685    0.1918    0.3346 C   0  0  0  0  0  0  0  0  0  0  0  0
    4.9602    0.5387    0.8756 H   0  0  0  0  0  0  0  0  0  0  0  0
    4.0713   -1.0583   -0.3010 C   0  0  0  0  0  0  0  0  0  0  0  0
    2.9321   -1.5204   -0.9807 C   0  0  0  0  0  0  0  0  0  0  0  0
    2.9362   -2.5087   -1.4611 H   0  0  0  0  0  0  0  0  0  0  0  0
    1.7868   -0.7175   -1.0148 C   0  0  0  0  0  0  0  0  0  0  0  0
    0.8817   -1.1014   -1.5065 H   0  0  0  0  0  0  0  0  0  0  0  0
    0.4479    2.9314    0.6632 C   0  0  0  0  0  0  0  0  0  0  0  0
   -0.3998    2.9981    1.7880 C   0  0  0  0  0  0  0  0  0  0  0  0
   -1.1762    2.2254    1.9099 H   0  0  0  0  0  0  0  0  0  0  0  0
   -0.2634    4.0352    2.7226 C   0  0  0  0  0  0  0  0  0  0  0  0
   -0.9342    4.0737    3.5940 H   0  0  0  0  0  0  0  0  0  0  0  0
    0.7169    5.0221    2.5416 C   0  0  0  0  0  0  0  0  0  0  0  0
    0.8213    5.8390    3.2718 H   0  0  0  0  0  0  0  0  0  0  0  0
    1.5626    4.9686    1.4216 C   0  0  0  0  0  0  0  0  0  0  0  0
    2.3302    5.7427    1.2706 H   0  0  0  0  0  0  0  0  0  0  0  0
    1.4314    3.9306    0.4876 C   0  0  0  0  0  0  0  0  0  0  0  0
    2.1006    3.9076   -0.3842 H   0  0  0  0  0  0  0  0  0  0  0  0
    0.2427    2.2207   -2.2932 C   0  0  0  0  0  0  0  0  0  0  0  0
   -0.5425    1.2295   -3.1718 C   0  0  0  0  0  0  0  0  0  0  0  0
   -0.5054    1.5771   -4.2261 H   0  0  0  0  0  0  0  0  0  0  0  0
   -1.6017    1.1788   -2.8523 H   0  0  0  0  0  0  0  0  0  0  0  0
   -0.1090    0.2095   -3.1431 H   0  0  0  0  0  0  0  0  0  0  0  0
    1.6879    2.3305   -2.8086 C   0  0  0  0  0  0  0  0  0  0  0  0
    1.6627    2.7785   -3.8245 H   0  0  0  0  0  0  0  0  0  0  0  0
    2.1869    1.3456   -2.8845 H   0  0  0  0  0  0  0  0  0  0  0  0
    2.3239    2.9823   -2.1781 H   0  0  0  0  0  0  0  0  0  0  0  0
   -0.4407    3.5979   -2.3272 C   0  0  0  0  0  0  0  0  0  0  0  0
   -0.5139    3.9254   -3.3862 H   0  0  0  0  0  0  0  0  0  0  0  0
    0.1348    4.3655   -1.7758 H   0  0  0  0  0  0  0  0  0  0  0  0
   -1.4635    3.5445   -1.9059 H   0  0  0  0  0  0  0  0  0  0  0  0
  2 24  1  6  0  0  0
  2  3  1  0  0  0  0
  2 13  1  0  0  0  0
  3  4  1  0  0  0  0
  4  6  2  0  0  0  0
  4  5  1  0  0  0  0
  6  7  1  0  0  0  0
  8  1  1  0  0  0  0
  8  6  1  0  0  0  0
  9  8  2  0  0  0  0
 10  9  1  0  0  0  0
 11  9  1  0  0  0  0
 11  3  2  0  0  0  0
 12 11  1  0  0  0  0
 13 14  1  0  0  0  0
 14 15  1  0  0  0  0
 14 16  2  0  0  0  0
 16 17  1  0  0  0  0
 18 16  1  0  0  0  0
 18 19  1  0  0  0  0
 20 18  2  0  0  0  0
 21 20  1  0  0  0  0
 22 13  2  0  0  0  0
 22 20  1  0  0  0  0
 23 22  1  0  0  0  0
 25 28  1  0  0  0  0
 25 27  1  0  0  0  0
 25 24  1  0  0  0  0
 26 25  1  0  0  0  0
 29 24  1  0  0  0  0
 29 32  1  0  0  0  0
 30 29  1  0  0  0  0
 31 29  1  0  0  0  0
 33 24  1  0  0  0  0
 33 36  1  0  0  0  0
 33 35  1  0  0  0  0
 34 33  1  0  0  0  0
M  END
