1
q = 0.0, confidence = 0.998

 31 30  0  0  0  0  0  0  0  0999 V2000
   -0.0522    1.5877    0.6544 P   0  0  0  0  0  0  0  0  0  0  0  0
    1.4366    0.6813    2.9128 C   0  0  0  0  0  0  0  0  0  0  0  0
    1.9255    0.0483    2.1457 H   0  0  0  0  0  0  0  0  0  0  0  0
    2.0808    1.5809    3.0078 H   0  0  0  0  0  0  0  0  0  0  0  0
    0.0419    1.1073    2.4351 C   0  0  0  0  0  0  0  0  0  0  0  0
   -0.3426    1.9568    3.0389 H   0  0  0  0  0  0  0  0  0  0  0  0
   -0.6900    0.2811    2.5602 H   0  0  0  0  0  0  0  0  0  0  0  0
    1.4494    3.9704    1.2319 C   0  0  0  0  0  0  0  0  0  0  0  0
    0.5355    4.5910    1.1134 H   0  0  0  0  0  0  0  0  0  0  0  0
    1.4796    3.6755    2.3034 H   0  0  0  0  0  0  0  0  0  0  0  0
    2.6827    4.8139    0.8988 C   0  0  0  0  0  0  0  0  0  0  0  0
    2.6645    5.1478   -0.1588 H   0  0  0  0  0  0  0  0  0  0  0  0
    3.6169    4.2339    1.0463 H   0  0  0  0  0  0  0  0  0  0  0  0
    2.7401    5.7170    1.5388 H   0  0  0  0  0  0  0  0  0  0  0  0
   -1.5904    2.5962    0.4792 C   0  0  0  0  0  0  0  0  0  0  0  0
   -1.3102    3.6566    0.6550 H   0  0  0  0  0  0  0  0  0  0  0  0
   -1.8506    2.5120   -0.5964 H   0  0  0  0  0  0  0  0  0  0  0  0
   -2.7660    2.1976    1.3815 C   0  0  0  0  0  0  0  0  0  0  0  0
   -2.9097    1.0984    1.3550 H   0  0  0  0  0  0  0  0  0  0  0  0
   -2.5303    2.4555    2.4361 H   0  0  0  0  0  0  0  0  0  0  0  0
   -4.0652    2.8866    0.9608 C   0  0  0  0  0  0  0  0  0  0  0  0
   -4.3724    2.5688   -0.0561 H   0  0  0  0  0  0  0  0  0  0  0  0
   -3.9580    3.9914    0.9523 H   0  0  0  0  0  0  0  0  0  0  0  0
   -4.8934    2.6325    1.6521 H   0  0  0  0  0  0  0  0  0  0  0  0
    1.3902   -0.0694    4.2440 C   0  0  0  0  0  0  0  0  0  0  0  0
    0.8066   -1.0085    4.1477 H   0  0  0  0  0  0  0  0  0  0  0  0
    0.9170    0.5403    5.0417 H   0  0  0  0  0  0  0  0  0  0  0  0
    2.4084   -0.3411    4.5874 H   0  0  0  0  0  0  0  0  0  0  0  0
    1.3587    2.7256    0.3436 C   0  0  0  0  0  0  0  0  0  0  0  0
    2.2709    2.0991    0.4293 H   0  0  0  0  0  0  0  0  0  0  0  0
    1.2690    2.9858   -0.7326 H   0  0  0  0  0  0  0  0  0  0  0  0
  1  5  1  0  0  0  0
  2  4  1  0  0  0  0
  2 25  1  0  0  0  0
  3  2  1  0  0  0  0
  5  7  1  0  0  0  0
  5  2  1  0  0  0  0
  5  6  1  0  0  0  0
  8 10  1  0  0  0  0
  9  8  1  0  0  0  0
 11 13  1  0  0  0  0
 11  8  1  0  0  0  0
 11 14  1  0  0  0  0
 12 11  1  0  0  0  0
 15  1  1  0  0  0  0
 15 16  1  0  0  0  0
 15 18  1  0  0  0  0
 17 15  1  0  0  0  0
 18 20  1  0  0  0  0
 19 18  1  0  0  0  0
 21 18  1  0  0  0  0
 21 24  1  0  0  0  0
 22 21  1  0  0  0  0
 23 21  1  0  0  0  0
 25 28  1  0  0  0  0
 25 27  1  0  0  0  0
 26 25  1  0  0  0  0
 29 30  1  0  0  0  0
 29  1  1  0  0  0  0
 29  8  1  0  0  0  0
 31 29  1  0  0  0  0
M  END
