1
q = 0.0, confidence = 0.988

 33 35  0  0  0  0  0  0  0  0999 V2000
    1.0869   -0.0573    0.3829 P   0  0  0  0  0  0  0  0  0  0  0  0
    2.9576   -0.6665   -1.5026 N   0  0  0  0  0  0  0  0  0  0  0  0
    0.7075   -1.4390    1.5251 C   0  0  0  0  0  0  0  0  0  0  0  0
    1.3658   -2.6775    1.3793 C   0  0  0  0  0  0  0  0  0  0  0  0
    0.9665   -3.7819    2.1488 C   0  0  0  0  0  0  0  0  0  0  0  0
   -0.0897   -3.6610    3.0646 C   0  0  0  0  0  0  0  0  0  0  0  0
   -0.7550   -2.4316    3.2068 C   0  0  0  0  0  0  0  0  0  0  0  0
   -0.3660   -1.3269    2.4375 C   0  0  0  0  0  0  0  0  0  0  0  0
    1.2991    1.4557    1.4065 C   0  0  0  0  0  0  0  0  0  0  0  0
    1.2645    1.4579    2.8157 C   0  0  0  0  0  0  0  0  0  0  0  0
    1.4789    2.6526    3.5222 C   0  0  0  0  0  0  0  0  0  0  0  0
    1.7402    3.8467    2.8342 C   0  0  0  0  0  0  0  0  0  0  0  0
    1.8008    3.8449    1.4306 C   0  0  0  0  0  0  0  0  0  0  0  0
    1.5807    2.6580    0.7195 C   0  0  0  0  0  0  0  0  0  0  0  0
    2.8201   -0.3766   -0.2025 C   0  0  0  0  0  0  0  0  0  0  0  0
    4.1908   -0.9007   -1.9797 C   0  0  0  0  0  0  0  0  0  0  0  0
    5.3384   -0.8514   -1.1716 C   0  0  0  0  0  0  0  0  0  0  0  0
    5.1894   -0.5451    0.1897 C   0  0  0  0  0  0  0  0  0  0  0  0
    3.9042   -0.2978    0.6927 C   0  0  0  0  0  0  0  0  0  0  0  0
    2.1919   -2.7848    0.6604 H   0  0  0  0  0  0  0  0  0  0  0  0
    1.4899   -4.7426    2.0324 H   0  0  0  0  0  0  0  0  0  0  0  0
   -0.3955   -4.5268    3.6707 H   0  0  0  0  0  0  0  0  0  0  0  0
   -1.5854   -2.3321    3.9219 H   0  0  0  0  0  0  0  0  0  0  0  0
   -0.9061   -0.3744    2.5442 H   0  0  0  0  0  0  0  0  0  0  0  0
    1.0867    0.5264    3.3709 H   0  0  0  0  0  0  0  0  0  0  0  0
    1.4505    2.6438    4.6221 H   0  0  0  0  0  0  0  0  0  0  0  0
    1.9106    4.7793    3.3924 H   0  0  0  0  0  0  0  0  0  0  0  0
    2.0292    4.7729    0.8853 H   0  0  0  0  0  0  0  0  0  0  0  0
    1.6603    2.6641   -0.3779 H   0  0  0  0  0  0  0  0  0  0  0  0
    4.2635   -1.1360   -3.0551 H   0  0  0  0  0  0  0  0  0  0  0  0
    6.3299   -1.0463   -1.6056 H   0  0  0  0  0  0  0  0  0  0  0  0
    6.0658   -0.4947    0.8532 H   0  0  0  0  0  0  0  0  0  0  0  0
    3.7453   -0.0444    1.7514 H   0  0  0  0  0  0  0  0  0  0  0  0
  1  9  1  0  0  0  0
  1  3  1  0  0  0  0
  2 15  1  0  0  0  0
  3  8  1  0  0  0  0
  4  3  2  0  0  0  0
  4  5  1  0  0  0  0
  5  6  2  0  0  0  0
  6  7  1  0  0  0  0
  6 22  1  0  0  0  0
  7 23  1  0  0  0  0
  8 24  1  0  0  0  0
  8  7  2  0  0  0  0
  9 10  1  0  0  0  0
 10 25  1  0  0  0  0
 10 11  2  0  0  0  0
 11 26  1  0  0  0  0
 12 27  1  0  0  0  0
 12 11  1  0  0  0  0
 13 12  2  0  0  0  0
 14  9  2  0  0  0  0
 14 13  1  0  0  0  0
 15  1  1  0  0  0  0
 15 19  2  0  0  0  0
 16  2  2  0  0  0  0
 16 17  1  0  0  0  0
 17 18  2  0  0  0  0
 18 19  1  0  0  0  0
 18 32  1  0  0  0  0
 19 33  1  0  0  0  0
 20  4  1  0  0  0  0
 21  5  1  0  0  0  0
 28 13  1  0  0  0  0
 29 14  1  0  0  0  0
 30 16  1  0  0  0  0
 31 17  1  0  0  0  0
M  END
