1
q = 0.0, confidence = 0.982

 47 50  0  0  0  0  0  0  0  0999 V2000
   -0.0635   -0.5508    0.2504 P   0  0  0  0  0  0  0  0  0  0  0  0
   -1.1132    0.6451   -1.3797 P   0  0  0  0  0  0  0  0  0  0  0  0
   -0.6434    0.1294   -2.7345 O   0  0  0  0  0  0  0  0  0  0  0  0
   -0.6653   -2.2562   -0.0994 C   0  0  0  0  0  0  0  0  0  0  0  0
   -0.6279   -2.7390   -1.4265 C   0  0  0  0  0  0  0  0  0  0  0  0
   -0.9668   -4.0731   -1.6924 C   0  0  0  0  0  0  0  0  0  0  0  0
   -1.3242   -4.9391   -0.6464 C   0  0  0  0  0  0  0  0  0  0  0  0
   -1.3385   -4.4661    0.6748 C   0  0  0  0  0  0  0  0  0  0  0  0
   -1.0103   -3.1302    0.9518 C   0  0  0  0  0  0  0  0  0  0  0  0
   -2.9152    0.4735   -1.1266 C   0  0  0  0  0  0  0  0  0  0  0  0
   -3.5042   -0.7075   -1.6297 C   0  0  0  0  0  0  0  0  0  0  0  0
   -4.8680   -0.9540   -1.4212 C   0  0  0  0  0  0  0  0  0  0  0  0
   -5.6561   -0.0196   -0.7284 C   0  0  0  0  0  0  0  0  0  0  0  0
   -5.0796    1.1702   -0.2563 C   0  0  0  0  0  0  0  0  0  0  0  0
   -3.7131    1.4191   -0.4522 C   0  0  0  0  0  0  0  0  0  0  0  0
   -0.9570   -0.0459    1.7794 C   0  0  0  0  0  0  0  0  0  0  0  0
   -2.3230   -0.3574    1.9684 C   0  0  0  0  0  0  0  0  0  0  0  0
   -3.0028    0.1124    3.1004 C   0  0  0  0  0  0  0  0  0  0  0  0
   -2.3326    0.8954    4.0553 C   0  0  0  0  0  0  0  0  0  0  0  0
   -0.9743    1.2013    3.8782 C   0  0  0  0  0  0  0  0  0  0  0  0
   -0.2887    0.7319    2.7478 C   0  0  0  0  0  0  0  0  0  0  0  0
   -0.6097    2.3625   -1.0375 C   0  0  0  0  0  0  0  0  0  0  0  0
   -0.8326    3.0316    0.1854 C   0  0  0  0  0  0  0  0  0  0  0  0
   -0.3625    4.3412    0.3552 C   0  0  0  0  0  0  0  0  0  0  0  0
    0.3325    4.9829   -0.6824 C   0  0  0  0  0  0  0  0  0  0  0  0
    0.5603    4.3148   -1.8957 C   0  0  0  0  0  0  0  0  0  0  0  0
    0.0926    3.0055   -2.0773 C   0  0  0  0  0  0  0  0  0  0  0  0
   -0.3428   -2.0586   -2.2445 H   0  0  0  0  0  0  0  0  0  0  0  0
   -0.9416   -4.4402   -2.7297 H   0  0  0  0  0  0  0  0  0  0  0  0
   -1.5811   -5.9877   -0.8598 H   0  0  0  0  0  0  0  0  0  0  0  0
   -1.6032   -5.1422    1.5020 H   0  0  0  0  0  0  0  0  0  0  0  0
   -1.0159   -2.7715    1.9917 H   0  0  0  0  0  0  0  0  0  0  0  0
   -2.8862   -1.4267   -2.1858 H   0  0  0  0  0  0  0  0  0  0  0  0
   -5.3197   -1.8794   -1.8093 H   0  0  0  0  0  0  0  0  0  0  0  0
   -6.7273   -0.2145   -0.5672 H   0  0  0  0  0  0  0  0  0  0  0  0
   -5.6980    1.9140    0.2685 H   0  0  0  0  0  0  0  0  0  0  0  0
   -3.2731    2.3560   -0.0841 H   0  0  0  0  0  0  0  0  0  0  0  0
   -2.8578   -0.9676    1.2268 H   0  0  0  0  0  0  0  0  0  0  0  0
   -4.0673   -0.1330    3.2328 H   0  0  0  0  0  0  0  0  0  0  0  0
   -2.8702    1.2630    4.9425 H   0  0  0  0  0  0  0  0  0  0  0  0
   -0.4396    1.8065    4.6256 H   0  0  0  0  0  0  0  0  0  0  0  0
    0.7730    0.9773    2.6073 H   0  0  0  0  0  0  0  0  0  0  0  0
   -1.3478    2.5302    1.0163 H   0  0  0  0  0  0  0  0  0  0  0  0
   -0.5275    4.8580    1.3124 H   0  0  0  0  0  0  0  0  0  0  0  0
    0.7081    6.0074   -0.5395 H   0  0  0  0  0  0  0  0  0  0  0  0
    1.1130    4.8134   -2.7062 H   0  0  0  0  0  0  0  0  0  0  0  0
    0.2713    2.4563   -3.0141 H   0  0  0  0  0  0  0  0  0  0  0  0
  1 16  1  0  0  0  0
  2 10  1  0  0  0  0
  2 22  1  0  0  0  0
  2  1  1  0  0  0  0
  3  2  2  0  0  0  0
  4  1  1  0  0  0  0
  4  9  1  0  0  0  0
  5  4  2  0  0  0  0
  6  5  1  0  0  0  0
  6  7  2  0  0  0  0
  7  8  1  0  0  0  0
  8  9  2  0  0  0  0
  8 31  1  0  0  0  0
  9 32  1  0  0  0  0
 10 15  1  0  0  0  0
 11 12  1  0  0  0  0
 11 10  2  0  0  0  0
 12 13  2  0  0  0  0
 13 35  1  0  0  0  0
 13 14  1  0  0  0  0
 14 36  1  0  0  0  0
 15 14  2  0  0  0  0
 15 37  1  0  0  0  0
 16 17  2  0  0  0  0
 16 21  1  0  0  0  0
 17 18  1  0  0  0  0
 18 39  1  0  0  0  0
 18 19  2  0  0  0  0
 19 40  1  0  0  0  0
 20 19  1  0  0  0  0
 20 41  1  0  0  0  0
 21 20  2  0  0  0  0
 22 23  1  0  0  0  0
 23 24  2  0  0  0  0
 23 43  1  0  0  0  0
 24 44  1  0  0  0  0
 25 45  1  0  0  0  0
 25 24  1  0  0  0  0
 26 25  2  0  0  0  0
 27 26  1  0  0  0  0
 27 22  2  0  0  0  0
 28  5  1  0  0  0  0
 29  6  1  0  0  0  0
 30  7  1  0  0  0  0
 33 11  1  0  0  0  0
 34 12  1  0  0  0  0
 38 17  1  0  0  0  0
 42 21  1  0  0  0  0
 46 26  1  0  0  0  0
 47 27  1  0  0  0  0
M  END
