1
q = 0.0, confidence = 0.998

 40 42  0  0  0  0  0  0  0  0999 V2000
    1.5954    0.1676   -0.8243 P   0  0  0  0  0  0  0  0  0  0  0  0
    1.6515   -1.5920   -0.1638 C   0  0  0  0  0  0  0  0  0  0  0  0
    2.9638   -2.3000   -0.3512 C   0  0  0  0  0  0  0  0  0  0  0  0
    3.2226   -3.0714   -1.5030 C   0  0  0  0  0  0  0  0  0  0  0  0
    4.4728   -3.6789   -1.6970 C   0  0  0  0  0  0  0  0  0  0  0  0
    5.4841   -3.5299   -0.7353 C   0  0  0  0  0  0  0  0  0  0  0  0
    5.2325   -2.7781    0.4240 C   0  0  0  0  0  0  0  0  0  0  0  0
    3.9857   -2.1683    0.6128 C   0  0  0  0  0  0  0  0  0  0  0  0
    1.5524   -0.0214   -2.6755 C   0  0  0  0  0  0  0  0  0  0  0  0
    0.1805   -0.4318   -3.1423 C   0  0  0  0  0  0  0  0  0  0  0  0
   -0.8431    0.5337   -3.2638 C   0  0  0  0  0  0  0  0  0  0  0  0
   -2.1357    0.1545   -3.6534 C   0  0  0  0  0  0  0  0  0  0  0  0
   -2.4329   -1.1938   -3.9150 C   0  0  0  0  0  0  0  0  0  0  0  0
   -1.4251   -2.1626   -3.7928 C   0  0  0  0  0  0  0  0  0  0  0  0
   -0.1283   -1.7812   -3.4121 C   0  0  0  0  0  0  0  0  0  0  0  0
    3.2808    0.7854   -0.4374 C   0  0  0  0  0  0  0  0  0  0  0  0
    4.3948    0.4191   -1.2178 C   0  0  0  0  0  0  0  0  0  0  0  0
    5.6826    0.8316   -0.8443 C   0  0  0  0  0  0  0  0  0  0  0  0
    5.8687    1.6001    0.3145 C   0  0  0  0  0  0  0  0  0  0  0  0
    4.7598    1.9690    1.0936 C   0  0  0  0  0  0  0  0  0  0  0  0
    3.4705    1.5712    0.7164 C   0  0  0  0  0  0  0  0  0  0  0  0
    1.3966   -1.4977    0.9110 H   0  0  0  0  0  0  0  0  0  0  0  0
    0.8277   -2.1286   -0.6712 H   0  0  0  0  0  0  0  0  0  0  0  0
    1.8282    0.9878   -3.0427 H   0  0  0  0  0  0  0  0  0  0  0  0
    2.3295   -0.7480   -2.9849 H   0  0  0  0  0  0  0  0  0  0  0  0
    2.4293   -3.2075   -2.2543 H   0  0  0  0  0  0  0  0  0  0  0  0
    4.6546   -4.2778   -2.6024 H   0  0  0  0  0  0  0  0  0  0  0  0
    6.4652   -4.0052   -0.8862 H   0  0  0  0  0  0  0  0  0  0  0  0
    6.0178   -2.6585    1.1856 H   0  0  0  0  0  0  0  0  0  0  0  0
    3.7950   -1.5658    1.5134 H   0  0  0  0  0  0  0  0  0  0  0  0
   -0.6088    1.5876   -3.0451 H   0  0  0  0  0  0  0  0  0  0  0  0
   -2.9215    0.9182   -3.7518 H   0  0  0  0  0  0  0  0  0  0  0  0
   -3.4483   -1.4877   -4.2213 H   0  0  0  0  0  0  0  0  0  0  0  0
   -1.6462   -3.2207   -3.9990 H   0  0  0  0  0  0  0  0  0  0  0  0
    0.6621   -2.5443   -3.3363 H   0  0  0  0  0  0  0  0  0  0  0  0
    4.2731   -0.2045   -2.1147 H   0  0  0  0  0  0  0  0  0  0  0  0
    6.5456    0.5412   -1.4620 H   0  0  0  0  0  0  0  0  0  0  0  0
    6.8802    1.9207    0.6071 H   0  0  0  0  0  0  0  0  0  0  0  0
    4.8966    2.5881    1.9933 H   0  0  0  0  0  0  0  0  0  0  0  0
    2.5937    1.8872    1.2991 H   0  0  0  0  0  0  0  0  0  0  0  0
  1 16  1  0  0  0  0
  1  2  1  0  0  0  0
  2 22  1  0  0  0  0
  3  2  1  0  0  0  0
  3  8  1  0  0  0  0
  4  3  2  0  0  0  0
  5  4  1  0  0  0  0
  5  6  2  0  0  0  0
  6  7  1  0  0  0  0
  7  8  2  0  0  0  0
  7 29  1  0  0  0  0
  8 30  1  0  0  0  0
  9  1  1  0  0  0  0
 10  9  1  0  0  0  0
 11 10  1  0  0  0  0
 11 31  1  0  0  0  0
 12 11  2  0  0  0  0
 13 14  2  0  0  0  0
 13 12  1  0  0  0  0
 14 15  1  0  0  0  0
 15 35  1  0  0  0  0
 15 10  2  0  0  0  0
 16 21  1  0  0  0  0
 17 18  1  0  0  0  0
 17 16  2  0  0  0  0
 18 19  2  0  0  0  0
 19 38  1  0  0  0  0
 19 20  1  0  0  0  0
 20 39  1  0  0  0  0
 21 20  2  0  0  0  0
 21 40  1  0  0  0  0
 23  2  1  0  0  0  0
 24  9  1  0  0  0  0
 25  9  1  0  0  0  0
 26  4  1  0  0  0  0
 27  5  1  0  0  0  0
 28  6  1  0  0  0  0
 32 12  1  0  0  0  0
 33 13  1  0  0  0  0
 34 14  1  0  0  0  0
 36 17  1  0  0  0  0
 37 18  1  0  0  0  0
M  END
