4
q = 0.0, confidence = 0.994

 21 22  0  0  0  0  0  0  0  0999 V2000
   -2.9338    2.2062   -0.0022 N   0  0  0  0  0  0  0  0  0  0  0  0
   -1.5632    2.3073   -0.0097 C   0  0  0  0  0  0  0  0  0  0  0  0
   -1.1033    3.3034   -0.0101 H   0  0  0  0  0  0  0  0  0  0  0  0
   -0.7696    0.7765   -0.0202 P   0  0  0  0  0  0  0  0  0  0  0  0
   -2.3388   -0.0631   -0.0102 C   0  0  0  0  0  0  0  0  0  0  0  0
   -2.6440   -1.4416   -0.0107 C   0  0  0  0  0  0  0  0  0  0  0  0
   -1.8252   -2.1783   -0.0182 H   0  0  0  0  0  0  0  0  0  0  0  0
   -3.9757   -1.8720   -0.0036 C   0  0  0  0  0  0  0  0  0  0  0  0
   -5.0104   -0.8934    0.0039 C   0  0  0  0  0  0  0  0  0  0  0  0
   -6.0588   -1.2306    0.0092 H   0  0  0  0  0  0  0  0  0  0  0  0
   -4.7431    0.4747    0.0045 C   0  0  0  0  0  0  0  0  0  0  0  0
   -5.5674    1.2022    0.0101 H   0  0  0  0  0  0  0  0  0  0  0  0
   -3.3958    0.8962   -0.0021 C   0  0  0  0  0  0  0  0  0  0  0  0
   -3.8297    3.3503    0.0032 C   0  0  0  0  0  0  0  0  0  0  0  0
   -3.2339    4.2800    0.0038 H   0  0  0  0  0  0  0  0  0  0  0  0
   -4.4745    3.3409    0.9060 H   0  0  0  0  0  0  0  0  0  0  0  0
   -4.4801    3.3455   -0.8956 H   0  0  0  0  0  0  0  0  0  0  0  0
   -4.3267   -3.3385   -0.0033 C   0  0  0  0  0  0  0  0  0  0  0  0
   -3.4208   -3.9742   -0.0167 H   0  0  0  0  0  0  0  0  0  0  0  0
   -4.9426   -3.6059   -0.8874 H   0  0  0  0  0  0  0  0  0  0  0  0
   -4.9197   -3.6110    0.8949 H   0  0  0  0  0  0  0  0  0  0  0  0
  1 13  1  0  0  0  0
  1 14  1  0  0  0  0
  2  1  1  0  0  0  0
  3  2  1  0  0  0  0
  4  5  1  0  0  0  0
  4  2  2  0  0  0  0
  5 13  1  0  0  0  0
  6  5  2  0  0  0  0
  6  8  1  0  0  0  0
  7  6  1  0  0  0  0
  8 18  1  0  0  0  0
  8  9  2  0  0  0  0
  9 11  1  0  0  0  0
  9 10  1  0  0  0  0
 11 12  1  0  0  0  0
 13 11  2  0  0  0  0
 14 15  1  0  0  0  0
 14 16  1  0  0  0  0
 17 14  1  0  0  0  0
 18 21  1  0  0  0  0
 19 18  1  0  0  0  0
 20 18  1  0  0  0  0
M  END
