1
q = 0.0, confidence = 0.992

 49 52  0  0  1  0  0  0  0  0999 V2000
    0.2194    0.4955    0.4745 P   0  0  0  0  0  0  0  0  0  0  0  0
    1.6679   -0.4795   -1.7581 N   0  0  0  0  0  0  0  0  0  0  0  0
    0.8505    0.6286   -1.3687 C   0  0  1  0  0  0  0  0  0  0  0  0
    1.4135    1.5857   -1.4112 H   0  0  0  0  0  0  0  0  0  0  0  0
   -0.0183    2.2612    0.9011 C   0  0  0  0  0  0  0  0  0  0  0  0
   -1.2809    2.6758    1.3690 C   0  0  0  0  0  0  0  0  0  0  0  0
   -2.0626    1.9140    1.5100 H   0  0  0  0  0  0  0  0  0  0  0  0
   -1.5345    4.0267    1.6462 C   0  0  0  0  0  0  0  0  0  0  0  0
   -2.5236    4.3370    2.0155 H   0  0  0  0  0  0  0  0  0  0  0  0
   -0.5244    4.9812    1.4493 C   0  0  0  0  0  0  0  0  0  0  0  0
   -0.7197    6.0427    1.6626 H   0  0  0  0  0  0  0  0  0  0  0  0
    0.7383    4.5804    0.9812 C   0  0  0  0  0  0  0  0  0  0  0  0
    1.5323    5.3267    0.8290 H   0  0  0  0  0  0  0  0  0  0  0  0
    0.9936    3.2285    0.7083 C   0  0  0  0  0  0  0  0  0  0  0  0
    1.9917    2.9312    0.3515 H   0  0  0  0  0  0  0  0  0  0  0  0
    1.6422   -0.0997    1.4609 C   0  0  0  0  0  0  0  0  0  0  0  0
    2.2959    0.6791    2.4369 C   0  0  0  0  0  0  0  0  0  0  0  0
    1.9514    1.7006    2.6540 H   0  0  0  0  0  0  0  0  0  0  0  0
    3.3935    0.1510    3.1336 C   0  0  0  0  0  0  0  0  0  0  0  0
    3.8993    0.7642    3.8945 H   0  0  0  0  0  0  0  0  0  0  0  0
    3.8496   -1.1478    2.8598 C   0  0  0  0  0  0  0  0  0  0  0  0
    4.7199   -1.5512    3.3984 H   0  0  0  0  0  0  0  0  0  0  0  0
    3.1881   -1.9351    1.9032 C   0  0  0  0  0  0  0  0  0  0  0  0
    3.5422   -2.9533    1.6838 H   0  0  0  0  0  0  0  0  0  0  0  0
    2.0791   -1.4215    1.2204 C   0  0  0  0  0  0  0  0  0  0  0  0
    1.5711   -2.0303    0.4572 H   0  0  0  0  0  0  0  0  0  0  0  0
   -0.4076    0.7532   -2.1968 C   0  0  0  0  0  0  0  0  0  0  0  0
   -0.9340    2.0220   -2.5074 C   0  0  0  0  0  0  0  0  0  0  0  0
   -0.4095    2.9252   -2.1604 H   0  0  0  0  0  0  0  0  0  0  0  0
   -2.1084    2.1404   -3.2674 C   0  0  0  0  0  0  0  0  0  0  0  0
   -2.4969    3.1394   -3.5151 H   0  0  0  0  0  0  0  0  0  0  0  0
   -2.7712    0.9933   -3.7321 C   0  0  0  0  0  0  0  0  0  0  0  0
   -3.6780    1.0890   -4.3476 H   0  0  0  0  0  0  0  0  0  0  0  0
   -2.2647   -0.2775   -3.4121 C   0  0  0  0  0  0  0  0  0  0  0  0
   -2.7739   -1.1827   -3.7779 H   0  0  0  0  0  0  0  0  0  0  0  0
   -1.1019   -0.3959   -2.6353 C   0  0  0  0  0  0  0  0  0  0  0  0
   -0.7166   -1.3977   -2.3911 H   0  0  0  0  0  0  0  0  0  0  0  0
    3.0650   -0.5059   -1.6363 C   0  0  0  0  0  0  0  0  0  0  0  0
    3.7742   -1.5727   -2.2359 C   0  0  0  0  0  0  0  0  0  0  0  0
    3.2208   -2.3374   -2.8049 H   0  0  0  0  0  0  0  0  0  0  0  0
    5.1641   -1.6634   -2.1104 C   0  0  0  0  0  0  0  0  0  0  0  0
    5.6944   -2.4997   -2.5905 H   0  0  0  0  0  0  0  0  0  0  0  0
    5.8808   -0.6995   -1.3808 C   0  0  0  0  0  0  0  0  0  0  0  0
    6.9728   -0.7751   -1.2791 H   0  0  0  0  0  0  0  0  0  0  0  0
    5.1820    0.3617   -0.7886 C   0  0  0  0  0  0  0  0  0  0  0  0
    5.7246    1.1269   -0.2133 H   0  0  0  0  0  0  0  0  0  0  0  0
    3.7892    0.4671   -0.9145 C   0  0  0  0  0  0  0  0  0  0  0  0
    3.2706    1.2981   -0.4205 H   0  0  0  0  0  0  0  0  0  0  0  0
    1.3048   -1.0232   -2.5423 H   0  0  0  0  0  0  0  0  0  0  0  0
  1  5  1  0  0  0  0
  1 16  1  0  0  0  0
  2 38  1  0  0  0  0
  2  3  1  0  0  0  0
  3  4  1  6  0  0  0
  3  1  1  0  0  0  0
  5  6  1  0  0  0  0
  6  7  1  0  0  0  0
  6  8  2  0  0  0  0
  8  9  1  0  0  0  0
 10  8  1  0  0  0  0
 10 11  1  0  0  0  0
 12 10  2  0  0  0  0
 13 12  1  0  0  0  0
 14  5  2  0  0  0  0
 14 12  1  0  0  0  0
 15 14  1  0  0  0  0
 16 17  1  0  0  0  0
 17 18  1  0  0  0  0
 17 19  2  0  0  0  0
 19 20  1  0  0  0  0
 21 19  1  0  0  0  0
 21 22  1  0  0  0  0
 23 21  2  0  0  0  0
 24 23  1  0  0  0  0
 25 16  2  0  0  0  0
 25 23  1  0  0  0  0
 26 25  1  0  0  0  0
 27  3  1  0  0  0  0
 28 27  1  0  0  0  0
 28 29  1  0  0  0  0
 30 28  2  0  0  0  0
 31 30  1  0  0  0  0
 32 34  2  0  0  0  0
 32 30  1  0  0  0  0
 33 32  1  0  0  0  0
 34 36  1  0  0  0  0
 35 34  1  0  0  0  0
 36 37  1  0  0  0  0
 36 27  2  0  0  0  0
 38 47  1  0  0  0  0
 39 41  1  0  0  0  0
 39 38  2  0  0  0  0
 40 39  1  0  0  0  0
 41 43  2  0  0  0  0
 42 41  1  0  0  0  0
 43 44  1  0  0  0  0
 43 45  1  0  0  0  0
 45 46  1  0  0  0  0
 47 45  2  0  0  0  0
 47 48  1  0  0  0  0
 49  2  1  0  0  0  0
M  END
