1
q = 0.0, confidence = 0.994

 38 39  0  0  0  0  0  0  0  0999 V2000
    0.1404   -1.9631   -0.3388 P   0  0  0  0  0  0  0  0  0  0  0  0
    1.5875   -2.5813   -1.3319 C   0  0  0  0  0  0  0  0  0  0  0  0
    2.7803   -3.0407   -0.4772 C   0  0  0  0  0  0  0  0  0  0  0  0
    3.9743   -2.3583    1.4549 C   0  0  0  0  0  0  0  0  0  0  0  0
    4.5652   -2.4915   -1.9933 C   0  0  0  0  0  0  0  0  0  0  0  0
    3.1109   -1.9863    0.3889 O   0  0  0  0  0  0  0  0  0  0  0  0
    3.8614   -3.4880   -1.2601 O   0  0  0  0  0  0  0  0  0  0  0  0
    0.2081   -2.8418    1.2586 C   0  0  0  0  0  0  0  0  0  0  0  0
    0.5570   -2.1279    2.4215 C   0  0  0  0  0  0  0  0  0  0  0  0
    0.6816   -2.8055    3.6430 C   0  0  0  0  0  0  0  0  0  0  0  0
    0.4617   -4.1903    3.7085 C   0  0  0  0  0  0  0  0  0  0  0  0
    0.1216   -4.9054    2.5480 C   0  0  0  0  0  0  0  0  0  0  0  0
   -0.0033   -4.2360    1.3222 C   0  0  0  0  0  0  0  0  0  0  0  0
   -1.3290   -2.5738   -1.2403 C   0  0  0  0  0  0  0  0  0  0  0  0
   -1.3964   -2.3474   -2.6312 C   0  0  0  0  0  0  0  0  0  0  0  0
   -2.5784   -2.6271   -3.3310 C   0  0  0  0  0  0  0  0  0  0  0  0
   -3.6986   -3.1290   -2.6503 C   0  0  0  0  0  0  0  0  0  0  0  0
   -3.6315   -3.3605   -1.2671 C   0  0  0  0  0  0  0  0  0  0  0  0
   -2.4534   -3.0834   -0.5591 C   0  0  0  0  0  0  0  0  0  0  0  0
    1.2389   -3.4359   -1.9431 H   0  0  0  0  0  0  0  0  0  0  0  0
    1.8791   -1.7612   -2.0147 H   0  0  0  0  0  0  0  0  0  0  0  0
    2.4901   -3.9442    0.1089 H   0  0  0  0  0  0  0  0  0  0  0  0
    3.4688   -3.0697    2.1477 H   0  0  0  0  0  0  0  0  0  0  0  0
    4.2245   -1.4323    2.0054 H   0  0  0  0  0  0  0  0  0  0  0  0
    4.9090   -2.8252    1.0767 H   0  0  0  0  0  0  0  0  0  0  0  0
    3.9076   -1.8937   -2.6619 H   0  0  0  0  0  0  0  0  0  0  0  0
    5.3015   -3.0290   -2.6194 H   0  0  0  0  0  0  0  0  0  0  0  0
    5.1065   -1.7852   -1.3282 H   0  0  0  0  0  0  0  0  0  0  0  0
    0.7492   -1.0463    2.3687 H   0  0  0  0  0  0  0  0  0  0  0  0
    0.9491   -2.2429    4.5497 H   0  0  0  0  0  0  0  0  0  0  0  0
    0.5556   -4.7176    4.6699 H   0  0  0  0  0  0  0  0  0  0  0  0
   -0.0480   -5.9915    2.5967 H   0  0  0  0  0  0  0  0  0  0  0  0
   -0.2727   -4.7986    0.4149 H   0  0  0  0  0  0  0  0  0  0  0  0
   -0.5383   -1.9145   -3.1681 H   0  0  0  0  0  0  0  0  0  0  0  0
   -2.6289   -2.4329   -4.4126 H   0  0  0  0  0  0  0  0  0  0  0  0
   -4.6319   -3.3284   -3.1973 H   0  0  0  0  0  0  0  0  0  0  0  0
   -4.5116   -3.7410   -0.7273 H   0  0  0  0  0  0  0  0  0  0  0  0
   -2.4186   -3.2375    0.5289 H   0  0  0  0  0  0  0  0  0  0  0  0
  1  8  1  0  0  0  0
  2  3  1  0  0  0  0
  2  1  1  0  0  0  0
  3 22  1  0  0  0  0
  3  6  1  0  0  0  0
  4 24  1  0  0  0  0
  4 23  1  0  0  0  0
  5 28  1  0  0  0  0
  5  7  1  0  0  0  0
  6  4  1  0  0  0  0
  7  3  1  0  0  0  0
  8 13  2  0  0  0  0
  8  9  1  0  0  0  0
  9 10  2  0  0  0  0
 10 11  1  0  0  0  0
 10 30  1  0  0  0  0
 11 31  1  0  0  0  0
 12 32  1  0  0  0  0
 12 11  2  0  0  0  0
 13 12  1  0  0  0  0
 14 19  1  0  0  0  0
 14  1  1  0  0  0  0
 15 14  2  0  0  0  0
 16 17  2  0  0  0  0
 16 15  1  0  0  0  0
 17 18  1  0  0  0  0
 18 37  1  0  0  0  0
 18 19  2  0  0  0  0
 19 38  1  0  0  0  0
 20  2  1  0  0  0  0
 21  2  1  0  0  0  0
 25  4  1  0  0  0  0
 26  5  1  0  0  0  0
 27  5  1  0  0  0  0
 29  9  1  0  0  0  0
 33 13  1  0  0  0  0
 34 15  1  0  0  0  0
 35 16  1  0  0  0  0
 36 17  1  0  0  0  0
M  END
