3
q = 0.0, confidence = 1.0

 48 53  0  0  1  0  0  0  0  0999 V2000
    1.8937    1.9511   -0.7051 N   0  0  0  0  0  0  0  0  0  0  0  0
    2.4101    0.7160   -0.7893 N   0  0  0  0  0  0  0  0  0  0  0  0
   -0.0486    0.3407    0.0346 P   0  0  2  0  0  0  0  0  0  0  0  0
    1.4202   -0.3861   -0.8605 C   0  0  2  0  0  0  0  0  0  0  0  0
    1.1248   -0.5354   -1.9246 H   0  0  0  0  0  0  0  0  0  0  0  0
    0.6241    2.0263   -0.4004 C   0  0  0  0  0  0  0  0  0  0  0  0
   -0.0791    3.3036   -0.2968 C   0  0  0  0  0  0  0  0  0  0  0  0
   -1.4176    3.3685    0.1561 C   0  0  0  0  0  0  0  0  0  0  0  0
   -1.9507    2.4417    0.4110 H   0  0  0  0  0  0  0  0  0  0  0  0
   -2.0768    4.5994    0.2736 C   0  0  0  0  0  0  0  0  0  0  0  0
   -3.1187    4.6245    0.6267 H   0  0  0  0  0  0  0  0  0  0  0  0
   -1.4146    5.7893   -0.0631 C   0  0  0  0  0  0  0  0  0  0  0  0
   -1.9330    6.7560    0.0239 H   0  0  0  0  0  0  0  0  0  0  0  0
   -0.0842    5.7369   -0.5197 C   0  0  0  0  0  0  0  0  0  0  0  0
    0.4406    6.6663   -0.7894 H   0  0  0  0  0  0  0  0  0  0  0  0
    0.5784    4.5126   -0.6383 C   0  0  0  0  0  0  0  0  0  0  0  0
    1.6160    4.4633   -0.9979 H   0  0  0  0  0  0  0  0  0  0  0  0
    3.7930    0.5851   -1.0349 C   0  0  0  0  0  0  0  0  0  0  0  0
    4.6697    1.5906   -0.5670 C   0  0  0  0  0  0  0  0  0  0  0  0
    4.2494    2.4456   -0.0211 H   0  0  0  0  0  0  0  0  0  0  0  0
    6.0438    1.4834   -0.8019 C   0  0  0  0  0  0  0  0  0  0  0  0
    6.7152    2.2732   -0.4316 H   0  0  0  0  0  0  0  0  0  0  0  0
    6.5708    0.3756   -1.4886 C   0  0  0  0  0  0  0  0  0  0  0  0
    7.6537    0.2913   -1.6615 H   0  0  0  0  0  0  0  0  0  0  0  0
    5.6986   -0.6201   -1.9515 C   0  0  0  0  0  0  0  0  0  0  0  0
    6.0925   -1.4888   -2.5006 H   0  0  0  0  0  0  0  0  0  0  0  0
    4.3163   -0.5199   -1.7382 C   0  0  0  0  0  0  0  0  0  0  0  0
    3.6515   -1.2974   -2.1304 H   0  0  0  0  0  0  0  0  0  0  0  0
    1.7840   -1.7127   -0.2440 C   0  0  0  0  0  0  0  0  0  0  0  0
    1.9271   -2.8399   -1.0743 C   0  0  0  0  0  0  0  0  0  0  0  0
    1.7779   -2.7239   -2.1594 H   0  0  0  0  0  0  0  0  0  0  0  0
    2.2402   -4.0975   -0.5444 C   0  0  0  0  0  0  0  0  0  0  0  0
    2.3447   -4.9662   -1.2109 H   0  0  0  0  0  0  0  0  0  0  0  0
    2.4067   -4.2360    0.8414 C   0  0  0  0  0  0  0  0  0  0  0  0
    2.6445   -5.2179    1.2769 H   0  0  0  0  0  0  0  0  0  0  0  0
    2.2292   -3.1296    1.6798 C   0  0  0  0  0  0  0  0  0  0  0  0
    2.2878   -3.2671    2.7688 H   0  0  0  0  0  0  0  0  0  0  0  0
    1.9055   -1.8549    1.1643 C   0  0  0  0  0  0  0  0  0  0  0  0
    1.5901   -0.7394    2.0909 C   0  0  0  0  0  0  0  0  0  0  0  0
    2.1622   -0.6833    3.3829 C   0  0  0  0  0  0  0  0  0  0  0  0
    2.9401   -1.4115    3.6550 H   0  0  0  0  0  0  0  0  0  0  0  0
    1.7753    0.2891    4.3113 C   0  0  0  0  0  0  0  0  0  0  0  0
    2.2430    0.3088    5.3070 H   0  0  0  0  0  0  0  0  0  0  0  0
    0.7966    1.2368    3.9716 C   0  0  0  0  0  0  0  0  0  0  0  0
    0.4793    1.9981    4.6995 H   0  0  0  0  0  0  0  0  0  0  0  0
    0.2379    1.2234    2.6873 C   0  0  0  0  0  0  0  0  0  0  0  0
   -0.5055    1.9860    2.4106 H   0  0  0  0  0  0  0  0  0  0  0  0
    0.6380    0.2573    1.7451 C   0  0  0  0  0  0  0  0  0  0  0  0
  1  6  2  0  0  0  0
  2  1  1  0  0  0  0
  3  6  1  6  0  0  0
  3 48  1  0  0  0  0
  4  5  1  6  0  0  0
  4  2  1  0  0  0  0
  4 29  1  0  0  0  0
  4  3  1  0  0  0  0
  6  7  1  0  0  0  0
  7  8  1  0  0  0  0
  8 10  2  0  0  0  0
  8  9  1  0  0  0  0
 10 11  1  0  0  0  0
 12 13  1  0  0  0  0
 12 10  1  0  0  0  0
 14 12  2  0  0  0  0
 15 14  1  0  0  0  0
 16 14  1  0  0  0  0
 16  7  2  0  0  0  0
 17 16  1  0  0  0  0
 18  2  1  0  0  0  0
 18 19  1  0  0  0  0
 19 20  1  0  0  0  0
 21 19  2  0  0  0  0
 21 22  1  0  0  0  0
 23 21  1  0  0  0  0
 24 23  1  0  0  0  0
 25 27  1  0  0  0  0
 25 23  2  0  0  0  0
 26 25  1  0  0  0  0
 27 18  2  0  0  0  0
 28 27  1  0  0  0  0
 29 38  1  0  0  0  0
 30 32  1  0  0  0  0
 30 29  2  0  0  0  0
 31 30  1  0  0  0  0
 32 34  2  0  0  0  0
 33 32  1  0  0  0  0
 34 35  1  0  0  0  0
 34 36  1  0  0  0  0
 36 37  1  0  0  0  0
 38 36  2  0  0  0  0
 38 39  1  0  0  0  0
 39 40  1  0  0  0  0
 40 41  1  0  0  0  0
 40 42  2  0  0  0  0
 42 43  1  0  0  0  0
 44 42  1  0  0  0  0
 44 45  1  0  0  0  0
 46 44  2  0  0  0  0
 47 46  1  0  0  0  0
 48 39  2  0  0  0  0
 48 46  1  0  0  0  0
M  END
