1
q = 0.0, confidence = 0.998

 29 31  0  0  0  0  0  0  0  0999 V2000
    0.3896   -0.7485    1.0275 P   0  0  2  0  0  0  0  0  0  0  0  0
    2.7940    0.9306    0.0159 C   0  0  0  0  0  0  0  0  0  0  0  0
    2.0698    1.3941    1.1514 C   0  0  0  0  0  0  0  0  0  0  0  0
    3.4184    1.8844   -0.8173 C   0  0  0  0  0  0  0  0  0  0  0  0
    3.9371    1.5458   -1.7255 H   0  0  0  0  0  0  0  0  0  0  0  0
    1.9951    2.7744    1.4094 C   0  0  0  0  0  0  0  0  0  0  0  0
    1.4153    3.1225    2.2776 H   0  0  0  0  0  0  0  0  0  0  0  0
    3.3457    3.2550   -0.5432 C   0  0  0  0  0  0  0  0  0  0  0  0
    3.8321    3.9743   -1.2188 H   0  0  0  0  0  0  0  0  0  0  0  0
    2.6302    3.7050    0.5758 C   0  0  0  0  0  0  0  0  0  0  0  0
    2.5517    4.7806    0.7933 H   0  0  0  0  0  0  0  0  0  0  0  0
   -0.0411   -2.0260    2.0103 O   0  0  0  0  0  0  0  0  0  0  0  0
    1.7977   -1.3975    0.0471 C   0  0  0  0  0  0  0  0  0  0  0  0
    1.3760    0.4166    2.0730 C   0  0  0  0  0  0  0  0  0  0  0  0
    0.7057    0.9380    2.7828 H   0  0  0  0  0  0  0  0  0  0  0  0
    2.1171   -0.1758    2.6529 H   0  0  0  0  0  0  0  0  0  0  0  0
    2.8475   -0.5153   -0.3307 C   0  0  0  0  0  0  0  0  0  0  0  0
    1.7972   -2.7402   -0.3706 C   0  0  0  0  0  0  0  0  0  0  0  0
    0.9562   -3.3923   -0.0884 H   0  0  0  0  0  0  0  0  0  0  0  0
    3.9112   -1.0518   -1.0901 C   0  0  0  0  0  0  0  0  0  0  0  0
    4.7563   -0.4040   -1.3648 H   0  0  0  0  0  0  0  0  0  0  0  0
    2.8576   -3.2438   -1.1371 C   0  0  0  0  0  0  0  0  0  0  0  0
    2.8562   -4.2968   -1.4558 H   0  0  0  0  0  0  0  0  0  0  0  0
    3.9199   -2.3956   -1.4868 C   0  0  0  0  0  0  0  0  0  0  0  0
    4.7649   -2.7829   -2.0757 H   0  0  0  0  0  0  0  0  0  0  0  0
    0.8846   -2.6313    2.9127 C   0  0  0  0  0  0  0  0  0  0  0  0
    1.8542   -2.8680    2.4225 H   0  0  0  0  0  0  0  0  0  0  0  0
    0.4210   -3.5744    3.2609 H   0  0  0  0  0  0  0  0  0  0  0  0
    1.0730   -1.9846    3.7968 H   0  0  0  0  0  0  0  0  0  0  0  0
  1 12  1  1  0  0  0
  1 14  1  0  0  0  0
  2  3  1  0  0  0  0
  3  6  2  0  0  0  0
  3 14  1  0  0  0  0
  4  8  1  0  0  0  0
  4  2  2  0  0  0  0
  5  4  1  0  0  0  0
  6  7  1  0  0  0  0
  8 10  2  0  0  0  0
  9  8  1  0  0  0  0
 10 11  1  0  0  0  0
 10  6  1  0  0  0  0
 12 26  1  0  0  0  0
 13  1  1  0  0  0  0
 14 16  1  0  0  0  0
 14 15  1  0  0  0  0
 17  2  1  0  0  0  0
 17 13  1  0  0  0  0
 18 19  1  0  0  0  0
 18 13  2  0  0  0  0
 20 17  2  0  0  0  0
 21 20  1  0  0  0  0
 22 18  1  0  0  0  0
 23 22  1  0  0  0  0
 24 22  2  0  0  0  0
 24 20  1  0  0  0  0
 25 24  1  0  0  0  0
 26 28  1  0  0  0  0
 26 29  1  0  0  0  0
 27 26  1  0  0  0  0
M  END
