1
q = 0.0, confidence = 0.988

 24 25  0  0  0  0  0  0  0  0999 V2000
   -2.0287   -1.1202   -1.2831 P   0  0  0  0  0  0  0  0  0  0  0  0
   -3.3797    0.0901   -0.9814 C   0  0  0  0  0  0  0  0  0  0  0  0
   -3.6756    0.4778    0.3417 C   0  0  0  0  0  0  0  0  0  0  0  0
   -3.1437    0.0210    1.1915 H   0  0  0  0  0  0  0  0  0  0  0  0
   -4.6311    1.4738    0.5823 C   0  0  0  0  0  0  0  0  0  0  0  0
   -4.8446    1.7771    1.6179 H   0  0  0  0  0  0  0  0  0  0  0  0
   -5.2861    2.1014   -0.4892 C   0  0  0  0  0  0  0  0  0  0  0  0
   -6.0253    2.8935   -0.2961 H   0  0  0  0  0  0  0  0  0  0  0  0
   -4.9901    1.7221   -1.8077 C   0  0  0  0  0  0  0  0  0  0  0  0
   -5.5026    2.2083   -2.6521 H   0  0  0  0  0  0  0  0  0  0  0  0
   -4.0419    0.7170   -2.0551 C   0  0  0  0  0  0  0  0  0  0  0  0
   -3.8165    0.4202   -3.0920 H   0  0  0  0  0  0  0  0  0  0  0  0
   -2.5609   -2.6423   -0.4006 C   0  0  0  0  0  0  0  0  0  0  0  0
   -2.2248   -2.7768    0.9637 C   0  0  0  0  0  0  0  0  0  0  0  0
   -1.6601   -1.9853    1.4848 H   0  0  0  0  0  0  0  0  0  0  0  0
   -2.6189   -3.9225    1.6720 C   0  0  0  0  0  0  0  0  0  0  0  0
   -2.3619   -4.0084    2.7389 H   0  0  0  0  0  0  0  0  0  0  0  0
   -3.3278   -4.9471    1.0247 C   0  0  0  0  0  0  0  0  0  0  0  0
   -3.6287   -5.8481    1.5808 H   0  0  0  0  0  0  0  0  0  0  0  0
   -3.6545   -4.8196   -0.3354 C   0  0  0  0  0  0  0  0  0  0  0  0
   -4.2113   -5.6195   -0.8474 H   0  0  0  0  0  0  0  0  0  0  0  0
   -3.2803   -3.6687   -1.0454 C   0  0  0  0  0  0  0  0  0  0  0  0
   -3.5516   -3.5673   -2.1079 H   0  0  0  0  0  0  0  0  0  0  0  0
   -2.3798   -1.4967   -2.6248 H   0  0  0  0  0  0  0  0  0  0  0  0
  1  2  1  0  0  0  0
  1 13  1  0  0  0  0
  2  3  1  0  0  0  0
  3  5  2  0  0  0  0
  3  4  1  0  0  0  0
  5  6  1  0  0  0  0
  7  8  1  0  0  0  0
  7  5  1  0  0  0  0
  9  7  2  0  0  0  0
 10  9  1  0  0  0  0
 11  9  1  0  0  0  0
 11  2  2  0  0  0  0
 12 11  1  0  0  0  0
 13 14  1  0  0  0  0
 14 15  1  0  0  0  0
 14 16  2  0  0  0  0
 16 17  1  0  0  0  0
 18 19  1  0  0  0  0
 18 16  1  0  0  0  0
 20 18  2  0  0  0  0
 21 20  1  0  0  0  0
 22 13  2  0  0  0  0
 22 20  1  0  0  0  0
 23 22  1  0  0  0  0
 24  1  1  0  0  0  0
M  END
