1
q = 0.0, confidence = 0.998

 28 30  0  0  0  0  0  0  0  0999 V2000
    1.6907    0.0135   -0.0821 P   0  0  0  0  0  0  0  0  0  0  0  0
    3.3719   -0.1683    0.3644 N   0  0  0  0  0  0  0  0  0  0  0  0
    1.5898    1.7525   -0.0646 N   0  0  0  0  0  0  0  0  0  0  0  0
    1.8431   -0.4617   -1.7437 N   0  0  0  0  0  0  0  0  0  0  0  0
    4.0451    0.6345    1.2869 C   0  0  0  0  0  0  0  0  0  0  0  0
    5.2352    0.0035    1.6076 C   0  0  0  0  0  0  0  0  0  0  0  0
    5.2842   -1.2302    0.8806 C   0  0  0  0  0  0  0  0  0  0  0  0
    4.1220   -1.3223    0.1344 C   0  0  0  0  0  0  0  0  0  0  0  0
    1.1098    2.3940    1.0875 C   0  0  0  0  0  0  0  0  0  0  0  0
    1.4462    3.7317    1.0061 C   0  0  0  0  0  0  0  0  0  0  0  0
    2.1449    3.9246   -0.2307 C   0  0  0  0  0  0  0  0  0  0  0  0
    2.2315    2.6982   -0.8635 C   0  0  0  0  0  0  0  0  0  0  0  0
    0.9659   -1.3664   -2.3537 C   0  0  0  0  0  0  0  0  0  0  0  0
    1.3844   -1.5559   -3.6566 C   0  0  0  0  0  0  0  0  0  0  0  0
    2.5582   -0.7545   -3.8557 C   0  0  0  0  0  0  0  0  0  0  0  0
    2.8277   -0.1000   -2.6684 C   0  0  0  0  0  0  0  0  0  0  0  0
    3.6219    1.5921    1.6096 H   0  0  0  0  0  0  0  0  0  0  0  0
    6.0018    0.3997    2.2833 H   0  0  0  0  0  0  0  0  0  0  0  0
    6.0931   -1.9697    0.8922 H   0  0  0  0  0  0  0  0  0  0  0  0
    3.7635   -2.0940   -0.5546 H   0  0  0  0  0  0  0  0  0  0  0  0
    0.5803    1.8149    1.8527 H   0  0  0  0  0  0  0  0  0  0  0  0
    1.1922    4.4984    1.7466 H   0  0  0  0  0  0  0  0  0  0  0  0
    2.5240    4.8725   -0.6301 H   0  0  0  0  0  0  0  0  0  0  0  0
    2.6517    2.4218   -1.8335 H   0  0  0  0  0  0  0  0  0  0  0  0
    0.1366   -1.8017   -1.7847 H   0  0  0  0  0  0  0  0  0  0  0  0
    0.9044   -2.2160   -4.3876 H   0  0  0  0  0  0  0  0  0  0  0  0
    3.1550   -0.6793   -4.7721 H   0  0  0  0  0  0  0  0  0  0  0  0
    3.6579    0.5501   -2.3769 H   0  0  0  0  0  0  0  0  0  0  0  0
  1  3  1  0  0  0  0
  1  2  1  0  0  0  0
  2  5  1  0  0  0  0
  3  9  1  0  0  0  0
  4  1  1  0  0  0  0
  5  6  2  0  0  0  0
  5 17  1  0  0  0  0
  6 18  1  0  0  0  0
  7 19  1  0  0  0  0
  7  6  1  0  0  0  0
  8  2  1  0  0  0  0
  8  7  2  0  0  0  0
  9 21  1  0  0  0  0
 10  9  2  0  0  0  0
 10 22  1  0  0  0  0
 11 10  1  0  0  0  0
 12 11  2  0  0  0  0
 12  3  1  0  0  0  0
 13 25  1  0  0  0  0
 13  4  1  0  0  0  0
 14 13  2  0  0  0  0
 15 14  1  0  0  0  0
 15 16  2  0  0  0  0
 16 28  1  0  0  0  0
 16  4  1  0  0  0  0
 20  8  1  0  0  0  0
 23 11  1  0  0  0  0
 24 12  1  0  0  0  0
 26 14  1  0  0  0  0
 27 15  1  0  0  0  0
M  END
