1
q = 0.0, confidence = 0.996

 40 39  0  0  0  0  0  0  0  0999 V2000
    0.5885    0.0208   -0.0267 P   0  0  0  0  0  0  0  0  0  0  0  0
    1.6198   -1.7043   -1.1716 Si  0  0  0  0  0  0  0  0  0  0  0  0
    1.6428   -0.0268    2.0217 Si  0  0  0  0  0  0  0  0  0  0  0  0
    1.3185    1.9726   -0.9918 Si  0  0  0  0  0  0  0  0  0  0  0  0
    1.7647   -3.2174   -0.0436 C   0  0  0  0  0  0  0  0  0  0  0  0
    2.2302   -4.0360   -0.6325 H   0  0  0  0  0  0  0  0  0  0  0  0
    0.7715   -3.5665    0.2981 H   0  0  0  0  0  0  0  0  0  0  0  0
    2.3995   -3.0406    0.8456 H   0  0  0  0  0  0  0  0  0  0  0  0
    0.6067   -2.2080   -2.6808 C   0  0  0  0  0  0  0  0  0  0  0  0
    1.1955   -2.9630   -3.2439 H   0  0  0  0  0  0  0  0  0  0  0  0
    0.3893   -1.3627   -3.3608 H   0  0  0  0  0  0  0  0  0  0  0  0
   -0.3553   -2.6733   -2.3935 H   0  0  0  0  0  0  0  0  0  0  0  0
    3.3468   -1.2147   -1.7786 C   0  0  0  0  0  0  0  0  0  0  0  0
    3.8033   -2.1053   -2.2602 H   0  0  0  0  0  0  0  0  0  0  0  0
    4.0172   -0.8890   -0.9612 H   0  0  0  0  0  0  0  0  0  0  0  0
    3.3010   -0.4109   -2.5399 H   0  0  0  0  0  0  0  0  0  0  0  0
    3.4952   -0.3913    1.8434 C   0  0  0  0  0  0  0  0  0  0  0  0
    3.9550   -0.3431    2.8533 H   0  0  0  0  0  0  0  0  0  0  0  0
    4.0057    0.3535    1.2034 H   0  0  0  0  0  0  0  0  0  0  0  0
    3.6966   -1.3992    1.4322 H   0  0  0  0  0  0  0  0  0  0  0  0
    0.8423   -1.3659    3.0867 C   0  0  0  0  0  0  0  0  0  0  0  0
    1.4254   -1.4709    4.0259 H   0  0  0  0  0  0  0  0  0  0  0  0
    0.8248   -2.3501    2.5812 H   0  0  0  0  0  0  0  0  0  0  0  0
   -0.1962   -1.0998    3.3604 H   0  0  0  0  0  0  0  0  0  0  0  0
    1.4630    1.6583    2.8609 C   0  0  0  0  0  0  0  0  0  0  0  0
    1.9507    1.6022    3.8572 H   0  0  0  0  0  0  0  0  0  0  0  0
    0.4031    1.9334    3.0197 H   0  0  0  0  0  0  0  0  0  0  0  0
    1.9582    2.4669    2.2881 H   0  0  0  0  0  0  0  0  0  0  0  0
    0.8296    1.8741   -2.8150 C   0  0  0  0  0  0  0  0  0  0  0  0
    1.0828    2.8278   -3.3236 H   0  0  0  0  0  0  0  0  0  0  0  0
   -0.2596    1.7052   -2.9279 H   0  0  0  0  0  0  0  0  0  0  0  0
    1.3616    1.0555   -3.3403 H   0  0  0  0  0  0  0  0  0  0  0  0
    3.1876    2.2442   -0.8289 C   0  0  0  0  0  0  0  0  0  0  0  0
    3.4444    3.1814   -1.3673 H   0  0  0  0  0  0  0  0  0  0  0  0
    3.7958    1.4266   -1.2566 H   0  0  0  0  0  0  0  0  0  0  0  0
    3.4792    2.3823    0.2315 H   0  0  0  0  0  0  0  0  0  0  0  0
    0.4641    3.4285   -0.1259 C   0  0  0  0  0  0  0  0  0  0  0  0
    1.2144    4.2121    0.1049 H   0  0  0  0  0  0  0  0  0  0  0  0
   -0.0185    3.1293    0.8238 H   0  0  0  0  0  0  0  0  0  0  0  0
   -0.3193    3.8710   -0.7699 H   0  0  0  0  0  0  0  0  0  0  0  0
  1  3  1  0  0  0  0
  2  5  1  0  0  0  0
  2  1  1  0  0  0  0
  3 25  1  0  0  0  0
  3 21  1  0  0  0  0
  4 33  1  0  0  0  0
  4 37  1  0  0  0  0
  4  1  1  0  0  0  0
  5  7  1  0  0  0  0
  5  8  1  0  0  0  0
  6  5  1  0  0  0  0
  9 12  1  0  0  0  0
  9  2  1  0  0  0  0
 10  9  1  0  0  0  0
 11  9  1  0  0  0  0
 13  2  1  0  0  0  0
 13 15  1  0  0  0  0
 14 13  1  0  0  0  0
 16 13  1  0  0  0  0
 17  3  1  0  0  0  0
 17 18  1  0  0  0  0
 19 17  1  0  0  0  0
 20 17  1  0  0  0  0
 21 24  1  0  0  0  0
 21 22  1  0  0  0  0
 23 21  1  0  0  0  0
 25 27  1  0  0  0  0
 25 26  1  0  0  0  0
 28 25  1  0  0  0  0
 29  4  1  0  0  0  0
 30 29  1  0  0  0  0
 31 29  1  0  0  0  0
 32 29  1  0  0  0  0
 33 36  1  0  0  0  0
 34 33  1  0  0  0  0
 35 33  1  0  0  0  0
 37 38  1  0  0  0  0
 37 39  1  0  0  0  0
 40 37  1  0  0  0  0
M  END
