1
q = 0.0, confidence = 1.0

 25 27  0  0  0  0  0  0  0  0999 V2000
   -2.3183    0.0204   -0.1051 P   0  0  0  0  0  0  0  0  0  0  0  0
   -4.1475   -0.4572    1.8969 O   0  0  0  0  0  0  0  0  0  0  0  0
   -3.0314    2.5733    0.4741 O   0  0  0  0  0  0  0  0  0  0  0  0
   -4.4877   -1.2561   -1.2452 O   0  0  0  0  0  0  0  0  0  0  0  0
   -2.8155   -0.4921    1.5596 C   0  0  0  0  0  0  0  0  0  0  0  0
   -4.2426   -0.8752    3.1865 C   0  0  0  0  0  0  0  0  0  0  0  0
   -5.2544   -0.9017    3.6048 H   0  0  0  0  0  0  0  0  0  0  0  0
   -2.9980   -1.1792    3.6930 C   0  0  0  0  0  0  0  0  0  0  0  0
   -2.7759   -1.5396    4.7034 H   0  0  0  0  0  0  0  0  0  0  0  0
   -2.0660   -0.9289    2.6353 C   0  0  0  0  0  0  0  0  0  0  0  0
   -0.9782   -1.0575    2.6318 H   0  0  0  0  0  0  0  0  0  0  0  0
   -3.3034    1.5251   -0.3666 C   0  0  0  0  0  0  0  0  0  0  0  0
   -3.7965    3.6247    0.0741 C   0  0  0  0  0  0  0  0  0  0  0  0
   -3.6869    4.5429    0.6597 H   0  0  0  0  0  0  0  0  0  0  0  0
   -4.5602    3.2763   -1.0160 C   0  0  0  0  0  0  0  0  0  0  0  0
   -5.2690    3.9193   -1.5490 H   0  0  0  0  0  0  0  0  0  0  0  0
   -4.2408    1.9088   -1.3056 C   0  0  0  0  0  0  0  0  0  0  0  0
   -4.6543    1.2770   -2.0974 H   0  0  0  0  0  0  0  0  0  0  0  0
   -3.1171   -1.1294   -1.2525 C   0  0  0  0  0  0  0  0  0  0  0  0
   -4.8055   -2.2118   -2.1590 C   0  0  0  0  0  0  0  0  0  0  0  0
   -5.8736   -2.4262   -2.2707 H   0  0  0  0  0  0  0  0  0  0  0  0
   -3.6695   -2.7095   -2.7576 C   0  0  0  0  0  0  0  0  0  0  0  0
   -3.6250   -3.4891   -3.5258 H   0  0  0  0  0  0  0  0  0  0  0  0
   -2.5701   -2.0088   -2.1661 C   0  0  0  0  0  0  0  0  0  0  0  0
   -1.4982   -2.1388   -2.3446 H   0  0  0  0  0  0  0  0  0  0  0  0
  1  5  1  0  0  0  0
  2  6  1  0  0  0  0
  5  2  1  0  0  0  0
  5 10  2  0  0  0  0
  6  7  1  0  0  0  0
  6  8  2  0  0  0  0
  8  9  1  0  0  0  0
 10  8  1  0  0  0  0
 11 10  1  0  0  0  0
 12  1  1  0  0  0  0
 12  3  1  0  0  0  0
 13  3  1  0  0  0  0
 13 14  1  0  0  0  0
 15 13  2  0  0  0  0
 16 15  1  0  0  0  0
 17 15  1  0  0  0  0
 17 12  2  0  0  0  0
 18 17  1  0  0  0  0
 19  4  1  0  0  0  0
 19  1  1  0  0  0  0
 20  4  1  0  0  0  0
 21 20  1  0  0  0  0
 22 24  1  0  0  0  0
 22 20  2  0  0  0  0
 23 22  1  0  0  0  0
 24 19  2  0  0  0  0
 25 24  1  0  0  0  0
M  END
