1
q = 0.0, confidence = 0.998

 38 40  0  0  1  0  0  0  0  0999 V2000
    1.7150   -0.2573   -0.1966 P   0  0  0  0  0  0  0  0  0  0  0  0
    1.4420    1.3224    0.2555 O   0  0  0  0  0  0  0  0  0  0  0  0
    1.1105    1.5847    1.6331 C   0  0  0  0  0  0  0  0  0  0  0  0
    0.7242    3.0273    1.7694 C   0  0  2  0  0  0  0  0  0  0  0  0
    1.8028    4.0879    1.8294 C   0  0  2  0  0  0  0  0  0  0  0  0
    1.0066    3.7507    3.0688 C   0  0  0  0  0  0  0  0  0  0  0  0
    1.6229    5.4112    1.1220 C   0  0  0  0  0  0  0  0  0  0  0  0
    3.1725   -0.6715    0.8337 C   0  0  0  0  0  0  0  0  0  0  0  0
    3.0148   -1.4474    1.9991 C   0  0  0  0  0  0  0  0  0  0  0  0
    4.1040   -1.6396    2.8604 C   0  0  0  0  0  0  0  0  0  0  0  0
    5.3507   -1.0665    2.5606 C   0  0  0  0  0  0  0  0  0  0  0  0
    5.5083   -0.2929    1.3992 C   0  0  0  0  0  0  0  0  0  0  0  0
    4.4207   -0.0893    0.5370 C   0  0  0  0  0  0  0  0  0  0  0  0
    2.3254    0.0534   -1.8907 C   0  0  0  0  0  0  0  0  0  0  0  0
    2.4881   -1.0370   -2.7708 C   0  0  0  0  0  0  0  0  0  0  0  0
    2.9434   -0.8089   -4.0770 C   0  0  0  0  0  0  0  0  0  0  0  0
    3.2290    0.4956   -4.5128 C   0  0  0  0  0  0  0  0  0  0  0  0
    3.0660    1.5793   -3.6354 C   0  0  0  0  0  0  0  0  0  0  0  0
    2.6188    1.3641   -2.3232 C   0  0  0  0  0  0  0  0  0  0  0  0
    0.2816    0.9152    1.9541 H   0  0  0  0  0  0  0  0  0  0  0  0
    1.9927    1.3563    2.2732 H   0  0  0  0  0  0  0  0  0  0  0  0
   -0.2048    3.2944    1.2393 H   0  0  0  0  0  0  0  0  0  0  0  0
    2.8340    3.6925    1.8125 H   0  0  0  0  0  0  0  0  0  0  0  0
    0.2564    4.4777    3.4179 H   0  0  0  0  0  0  0  0  0  0  0  0
    1.5020    3.1906    3.8778 H   0  0  0  0  0  0  0  0  0  0  0  0
    1.8970    5.3366    0.0485 H   0  0  0  0  0  0  0  0  0  0  0  0
    0.5683    5.7505    1.1726 H   0  0  0  0  0  0  0  0  0  0  0  0
    2.2520    6.2047    1.5759 H   0  0  0  0  0  0  0  0  0  0  0  0
    2.0394   -1.9091    2.2136 H   0  0  0  0  0  0  0  0  0  0  0  0
    3.9796   -2.2506    3.7670 H   0  0  0  0  0  0  0  0  0  0  0  0
    6.2064   -1.2274    3.2341 H   0  0  0  0  0  0  0  0  0  0  0  0
    6.4861    0.1517    1.1593 H   0  0  0  0  0  0  0  0  0  0  0  0
    4.5444    0.5146   -0.3751 H   0  0  0  0  0  0  0  0  0  0  0  0
    2.2597   -2.0553   -2.4151 H   0  0  0  0  0  0  0  0  0  0  0  0
    3.0717   -1.6607   -4.7618 H   0  0  0  0  0  0  0  0  0  0  0  0
    3.5792    0.6688   -5.5418 H   0  0  0  0  0  0  0  0  0  0  0  0
    3.2879    2.6031   -3.9734 H   0  0  0  0  0  0  0  0  0  0  0  0
    2.4852    2.2056   -1.6296 H   0  0  0  0  0  0  0  0  0  0  0  0
  1  2  1  0  0  0  0
  1  8  1  0  0  0  0
  2  3  1  0  0  0  0
  3  4  1  0  0  0  0
  3 20  1  0  0  0  0
  3 21  1  0  0  0  0
  4 22  1  6  0  0  0
  4  5  1  0  0  0  0
  4  6  1  0  0  0  0
  5 23  1  6  0  0  0
  5  6  1  0  0  0  0
  6 24  1  0  0  0  0
  6 25  1  0  0  0  0
  7 27  1  0  0  0  0
  7 28  1  0  0  0  0
  7  5  1  0  0  0  0
  8  9  1  0  0  0  0
  9 29  1  0  0  0  0
  9 10  2  0  0  0  0
 10 30  1  0  0  0  0
 11 10  1  0  0  0  0
 11 31  1  0  0  0  0
 12 11  2  0  0  0  0
 13  8  2  0  0  0  0
 13 12  1  0  0  0  0
 14  1  1  0  0  0  0
 15 34  1  0  0  0  0
 15 14  2  0  0  0  0
 16 15  1  0  0  0  0
 17 16  2  0  0  0  0
 17 18  1  0  0  0  0
 18 19  2  0  0  0  0
 19 14  1  0  0  0  0
 19 38  1  0  0  0  0
 26  7  1  0  0  0  0
 32 12  1  0  0  0  0
 33 13  1  0  0  0  0
 35 16  1  0  0  0  0
 36 17  1  0  0  0  0
 37 18  1  0  0  0  0
M  END
