1
q = 0.0, confidence = 0.994

 21 22  0  0  0  0  0  0  0  0999 V2000
   -2.1830    0.0322   -0.6925 P   0  0  0  0  0  0  0  0  0  0  0  0
   -3.1955   -1.4091   -0.2113 C   0  0  0  0  0  0  0  0  0  0  0  0
   -3.2226    1.4081   -0.0951 C   0  0  0  0  0  0  0  0  0  0  0  0
   -2.5484    0.0799   -2.5010 C   0  0  0  0  0  0  0  0  0  0  0  0
   -3.1300   -1.7795    1.1073 O   0  0  0  0  0  0  0  0  0  0  0  0
   -3.9983   -2.2980   -0.9009 C   0  0  0  0  0  0  0  0  0  0  0  0
   -4.5067    1.4981   -0.5867 O   0  0  0  0  0  0  0  0  0  0  0  0
   -3.0114    2.4215    0.8202 C   0  0  0  0  0  0  0  0  0  0  0  0
   -2.0490    0.9735   -2.9210 H   0  0  0  0  0  0  0  0  0  0  0  0
   -2.1204   -0.8214   -2.9790 H   0  0  0  0  0  0  0  0  0  0  0  0
   -3.6375    0.1401   -2.6856 H   0  0  0  0  0  0  0  0  0  0  0  0
   -3.8897   -2.8973    1.2594 C   0  0  0  0  0  0  0  0  0  0  0  0
   -4.4488   -3.2654    0.0577 C   0  0  0  0  0  0  0  0  0  0  0  0
   -4.2379   -2.2637   -1.9687 H   0  0  0  0  0  0  0  0  0  0  0  0
   -5.1007    2.5640    0.0134 C   0  0  0  0  0  0  0  0  0  0  0  0
   -4.2305    3.1712    0.8893 C   0  0  0  0  0  0  0  0  0  0  0  0
   -2.0894    2.6052    1.3791 H   0  0  0  0  0  0  0  0  0  0  0  0
   -3.9322   -3.3108    2.2721 H   0  0  0  0  0  0  0  0  0  0  0  0
   -5.1010   -4.1268   -0.1232 H   0  0  0  0  0  0  0  0  0  0  0  0
   -6.1351    2.7654   -0.2846 H   0  0  0  0  0  0  0  0  0  0  0  0
   -4.4346    4.0507    1.5097 H   0  0  0  0  0  0  0  0  0  0  0  0
  1  2  1  0  0  0  0
  1  3  1  0  0  0  0
  2  5  1  0  0  0  0
  3  8  2  0  0  0  0
  4  1  1  0  0  0  0
  5 12  1  0  0  0  0
  6  2  2  0  0  0  0
  6 13  1  0  0  0  0
  7  3  1  0  0  0  0
  7 15  1  0  0  0  0
  8 16  1  0  0  0  0
  8 17  1  0  0  0  0
  9  4  1  0  0  0  0
 10  4  1  0  0  0  0
 11  4  1  0  0  0  0
 12 18  1  0  0  0  0
 13 12  2  0  0  0  0
 14  6  1  0  0  0  0
 15 16  2  0  0  0  0
 16 21  1  0  0  0  0
 19 13  1  0  0  0  0
 20 15  1  0  0  0  0
M  END
