1
q = 0.0, confidence = 0.994

 35 34  0  0  0  0  0  0  0  0999 V2000
    0.6021    0.2278   -0.7005 P   0  0  0  0  0  2  0  0  0  0  0  0
    2.9409    1.2508    0.2217 O   0  0  0  0  0  0  0  0  0  0  0  0
   -0.6766    2.6197   -1.0617 N   0  0  0  0  0  0  0  0  0  0  0  0
    0.4617    2.5216    0.9605 N   0  0  0  0  0  0  0  0  0  0  0  0
    2.3875    0.2129   -0.1384 C   0  0  0  0  0  0  0  0  0  0  0  0
    3.2379   -1.0671   -0.3440 C   0  0  0  0  0  0  0  0  0  0  0  0
    2.4585   -2.2472   -0.9335 C   0  0  0  0  0  0  0  0  0  0  0  0
    1.6898   -2.6280   -0.2365 H   0  0  0  0  0  0  0  0  0  0  0  0
    3.1529   -3.0858   -1.1448 H   0  0  0  0  0  0  0  0  0  0  0  0
    1.9609   -1.9797   -1.8876 H   0  0  0  0  0  0  0  0  0  0  0  0
    4.3912   -0.6770   -1.2928 C   0  0  0  0  0  0  0  0  0  0  0  0
    4.0063   -0.4297   -2.3035 H   0  0  0  0  0  0  0  0  0  0  0  0
    5.1042   -1.5206   -1.3929 H   0  0  0  0  0  0  0  0  0  0  0  0
    4.9312    0.2062   -0.9015 H   0  0  0  0  0  0  0  0  0  0  0  0
    3.8039   -1.4402    1.0436 C   0  0  0  0  0  0  0  0  0  0  0  0
    4.3659   -0.5874    1.4720 H   0  0  0  0  0  0  0  0  0  0  0  0
    4.4906   -2.3065    0.9521 H   0  0  0  0  0  0  0  0  0  0  0  0
    2.9942   -1.7189    1.7474 H   0  0  0  0  0  0  0  0  0  0  0  0
    0.1356    1.9235   -0.2094 C   0  0  0  0  0  3  0  0  0  0  0  0
   -1.7783    3.4470   -0.5769 C   0  0  0  0  0  0  0  0  0  0  0  0
   -1.9308    3.2756    0.5031 H   0  0  0  0  0  0  0  0  0  0  0  0
   -2.7039    3.1386   -1.1062 H   0  0  0  0  0  0  0  0  0  0  0  0
   -1.6173    4.5309   -0.7623 H   0  0  0  0  0  0  0  0  0  0  0  0
   -0.6314    2.4484   -2.5105 C   0  0  0  0  0  0  0  0  0  0  0  0
    0.2397    1.8241   -2.7788 H   0  0  0  0  0  0  0  0  0  0  0  0
   -0.5396    3.4462   -2.9924 H   0  0  0  0  0  0  0  0  0  0  0  0
   -1.5526    1.9580   -2.8850 H   0  0  0  0  0  0  0  0  0  0  0  0
    0.6022    3.9700    1.0759 C   0  0  0  0  0  0  0  0  0  0  0  0
    0.5862    4.4333    0.0744 H   0  0  0  0  0  0  0  0  0  0  0  0
    1.5845    4.1857    1.5438 H   0  0  0  0  0  0  0  0  0  0  0  0
   -0.1929    4.4251    1.7036 H   0  0  0  0  0  0  0  0  0  0  0  0
    0.9038    1.7899    2.1379 C   0  0  0  0  0  0  0  0  0  0  0  0
    0.6816    0.7169    2.0163 H   0  0  0  0  0  0  0  0  0  0  0  0
    0.3608    2.1752    3.0248 H   0  0  0  0  0  0  0  0  0  0  0  0
    1.9969    1.9112    2.2741 H   0  0  0  0  0  0  0  0  0  0  0  0
  1 19  1  0  0  0  0
  1  5  1  0  0  0  0
  3 20  1  0  0  0  0
  3 19  1  0  0  0  0
  4 28  1  0  0  0  0
  4 32  1  0  0  0  0
  5  2  2  0  0  0  0
  6  5  1  0  0  0  0
  6 15  1  0  0  0  0
  7  6  1  0  0  0  0
  7  8  1  0  0  0  0
  9  7  1  0  0  0  0
 10  7  1  0  0  0  0
 11 14  1  0  0  0  0
 11  6  1  0  0  0  0
 12 11  1  0  0  0  0
 13 11  1  0  0  0  0
 15 16  1  0  0  0  0
 15 18  1  0  0  0  0
 17 15  1  0  0  0  0
 19  4  1  0  0  0  0
 20 21  1  0  0  0  0
 22 20  1  0  0  0  0
 23 20  1  0  0  0  0
 24  3  1  0  0  0  0
 25 24  1  0  0  0  0
 26 24  1  0  0  0  0
 27 24  1  0  0  0  0
 28 30  1  0  0  0  0
 28 31  1  0  0  0  0
 29 28  1  0  0  0  0
 32 35  1  0  0  0  0
 32 34  1  0  0  0  0
 33 32  1  0  0  0  0
M  END
