1
q = 0.0, confidence = 0.994

 34 36  0  0  0  0  0  0  0  0999 V2000
    0.8186   -0.1864    0.0089 P   0  0  0  0  0  0  0  0  0  0  0  0
    1.9439   -2.9401    0.5948 F   0  0  0  0  0  0  0  0  0  0  0  0
    3.1818    1.6110    0.0956 F   0  0  0  0  0  0  0  0  0  0  0  0
   -0.0006   -0.8261   -2.8628 F   0  0  0  0  0  0  0  0  0  0  0  0
    1.4107   -0.8570    1.6265 C   0  0  0  0  0  0  0  0  0  0  0  0
    1.9504   -2.1633    1.6918 C   0  0  0  0  0  0  0  0  0  0  0  0
    2.4922   -2.6910    2.8669 C   0  0  0  0  0  0  0  0  0  0  0  0
    2.8920   -3.7150    2.8498 H   0  0  0  0  0  0  0  0  0  0  0  0
    2.5197   -1.8996    4.0230 C   0  0  0  0  0  0  0  0  0  0  0  0
    2.9509   -2.3056    4.9499 H   0  0  0  0  0  0  0  0  0  0  0  0
    2.0070   -0.5935    3.9916 C   0  0  0  0  0  0  0  0  0  0  0  0
    2.0384    0.0379    4.8908 H   0  0  0  0  0  0  0  0  0  0  0  0
    1.4610   -0.0840    2.8057 C   0  0  0  0  0  0  0  0  0  0  0  0
    1.0875    0.9464    2.7984 H   0  0  0  0  0  0  0  0  0  0  0  0
    2.3631   -0.3403   -0.9851 C   0  0  0  0  0  0  0  0  0  0  0  0
    3.3817    0.6134   -0.7920 C   0  0  0  0  0  0  0  0  0  0  0  0
    4.6000    0.5610   -1.4716 C   0  0  0  0  0  0  0  0  0  0  0  0
    5.3489    1.3430   -1.2828 H   0  0  0  0  0  0  0  0  0  0  0  0
    4.8291   -0.4949   -2.3637 C   0  0  0  0  0  0  0  0  0  0  0  0
    5.7845   -0.5503   -2.9058 H   0  0  0  0  0  0  0  0  0  0  0  0
    3.8491   -1.4828   -2.5527 C   0  0  0  0  0  0  0  0  0  0  0  0
    4.0351   -2.3231   -3.2367 H   0  0  0  0  0  0  0  0  0  0  0  0
    2.6313   -1.4098   -1.8657 C   0  0  0  0  0  0  0  0  0  0  0  0
    1.8890   -2.2068   -2.0007 H   0  0  0  0  0  0  0  0  0  0  0  0
   -0.3041   -1.5118   -0.6031 C   0  0  0  0  0  0  0  0  0  0  0  0
   -0.6110   -1.6418   -1.9707 C   0  0  0  0  0  0  0  0  0  0  0  0
   -1.5403   -2.5699   -2.4499 C   0  0  0  0  0  0  0  0  0  0  0  0
   -1.7154   -2.6375   -3.5333 H   0  0  0  0  0  0  0  0  0  0  0  0
   -2.2192   -3.3839   -1.5331 C   0  0  0  0  0  0  0  0  0  0  0  0
   -2.9543   -4.1168   -1.8968 H   0  0  0  0  0  0  0  0  0  0  0  0
   -1.9565   -3.2644   -0.1586 C   0  0  0  0  0  0  0  0  0  0  0  0
   -2.4883   -3.9000    0.5636 H   0  0  0  0  0  0  0  0  0  0  0  0
   -1.0056   -2.3437    0.2977 C   0  0  0  0  0  0  0  0  0  0  0  0
   -0.7915   -2.2722    1.3745 H   0  0  0  0  0  0  0  0  0  0  0  0
  1  5  1  0  0  0  0
  2  6  1  0  0  0  0
  4 26  1  0  0  0  0
  5  6  2  0  0  0  0
  5 13  1  0  0  0  0
  6  7  1  0  0  0  0
  7  9  2  0  0  0  0
  8  7  1  0  0  0  0
  9 10  1  0  0  0  0
 11  9  1  0  0  0  0
 11 12  1  0  0  0  0
 13 11  2  0  0  0  0
 14 13  1  0  0  0  0
 15 16  1  0  0  0  0
 15  1  1  0  0  0  0
 16  3  1  0  0  0  0
 17 18  1  0  0  0  0
 17 16  2  0  0  0  0
 19 17  1  0  0  0  0
 20 19  1  0  0  0  0
 21 19  2  0  0  0  0
 21 23  1  0  0  0  0
 22 21  1  0  0  0  0
 23 15  2  0  0  0  0
 24 23  1  0  0  0  0
 25  1  1  0  0  0  0
 25 33  1  0  0  0  0
 26 25  2  0  0  0  0
 27 26  1  0  0  0  0
 27 29  2  0  0  0  0
 28 27  1  0  0  0  0
 29 31  1  0  0  0  0
 30 29  1  0  0  0  0
 31 33  2  0  0  0  0
 31 32  1  0  0  0  0
 33 34  1  0  0  0  0
M  END
