1
q = 0.0, confidence = 0.996

 52 56  0  0  0  0  0  0  0  0999 V2000
    1.0771    0.2596    0.4326 P   0  0  0  0  0  0  0  0  0  0  0  0
    0.2185    2.9415    0.6775 N   0  0  0  0  0  0  0  0  0  0  0  0
   -0.2071   -1.3406    2.4539 N   0  0  0  0  0  0  0  0  0  0  0  0
   -0.2355   -1.4921    3.8053 N   0  0  0  0  0  0  0  0  0  0  0  0
    2.8208   -0.2618    0.0439 C   0  0  0  0  0  0  0  0  0  0  0  0
    3.4549    0.1200    0.8759 H   0  0  0  0  0  0  0  0  0  0  0  0
    0.6754   -0.7077    4.3193 N   0  0  0  0  0  0  0  0  0  0  0  0
    0.6691    4.2060    0.8755 N   0  0  0  0  0  0  0  0  0  0  0  0
    4.3423   -2.2487   -0.3526 C   0  0  0  0  0  0  0  0  0  0  0  0
    5.0380   -1.9448    0.4613 H   0  0  0  0  0  0  0  0  0  0  0  0
    4.3801   -3.3567   -0.3977 H   0  0  0  0  0  0  0  0  0  0  0  0
    2.9205   -1.7970    0.0095 C   0  0  0  0  0  0  0  0  0  0  0  0
    2.2055   -2.1776   -0.7548 H   0  0  0  0  0  0  0  0  0  0  0  0
    2.6164   -2.2269    0.9869 H   0  0  0  0  0  0  0  0  0  0  0  0
    1.9536    4.1400    1.1111 N   0  0  0  0  0  0  0  0  0  0  0  0
    4.8077   -1.6350   -1.6785 C   0  0  0  0  0  0  0  0  0  0  0  0
    4.1759   -2.0299   -2.5052 H   0  0  0  0  0  0  0  0  0  0  0  0
    5.8487   -1.9460   -1.9037 H   0  0  0  0  0  0  0  0  0  0  0  0
    4.6993   -0.1059   -1.6500 C   0  0  0  0  0  0  0  0  0  0  0  0
    5.4164    0.3016   -0.9021 H   0  0  0  0  0  0  0  0  0  0  0  0
    4.9916    0.3263   -2.6291 H   0  0  0  0  0  0  0  0  0  0  0  0
   -1.8924    1.7895    1.1511 C   0  0  0  0  0  0  0  0  0  0  0  0
   -1.4373    1.3405    2.0457 H   0  0  0  0  0  0  0  0  0  0  0  0
   -2.5182   -1.9232    1.9535 C   0  0  0  0  0  0  0  0  0  0  0  0
   -2.8221   -1.3086    2.8124 H   0  0  0  0  0  0  0  0  0  0  0  0
    3.2793    0.3540   -1.2908 C   0  0  0  0  0  0  0  0  0  0  0  0
    2.5675    0.0361   -2.0855 H   0  0  0  0  0  0  0  0  0  0  0  0
    3.2279    1.4609   -1.2496 H   0  0  0  0  0  0  0  0  0  0  0  0
   -0.7202   -2.8473    0.5787 C   0  0  0  0  0  0  0  0  0  0  0  0
    0.3534   -2.9643    0.3816 H   0  0  0  0  0  0  0  0  0  0  0  0
    1.2488    2.0330    0.7865 C   0  0  0  0  0  0  0  0  0  0  0  0
   -1.1504    2.6848    0.3615 C   0  0  0  0  0  0  0  0  0  0  0  0
    0.7558   -0.4206    2.0921 C   0  0  0  0  0  0  0  0  0  0  0  0
   -1.6719   -3.5017   -0.2160 C   0  0  0  0  0  0  0  0  0  0  0  0
   -1.3394   -4.1099   -1.0692 H   0  0  0  0  0  0  0  0  0  0  0  0
    1.3044   -0.0344    3.3190 C   0  0  0  0  0  0  0  0  0  0  0  0
    2.0897    0.7051    3.5150 H   0  0  0  0  0  0  0  0  0  0  0  0
   -1.1527   -2.0458    1.6482 C   0  0  0  0  0  0  0  0  0  0  0  0
   -3.2111    1.4885    0.7833 C   0  0  0  0  0  0  0  0  0  0  0  0
   -3.7922    0.7746    1.3840 H   0  0  0  0  0  0  0  0  0  0  0  0
    2.3549    2.8393    1.0708 C   0  0  0  0  0  0  0  0  0  0  0  0
    3.4005    2.5518    1.2303 H   0  0  0  0  0  0  0  0  0  0  0  0
   -3.4587   -2.5869    1.1553 C   0  0  0  0  0  0  0  0  0  0  0  0
   -4.5305   -2.4870    1.3824 H   0  0  0  0  0  0  0  0  0  0  0  0
   -3.0388   -3.3647    0.0640 C   0  0  0  0  0  0  0  0  0  0  0  0
   -3.7817   -3.8656   -0.5735 H   0  0  0  0  0  0  0  0  0  0  0  0
   -3.0376    2.9984   -1.1156 C   0  0  0  0  0  0  0  0  0  0  0  0
   -3.4821    3.4611   -2.0087 H   0  0  0  0  0  0  0  0  0  0  0  0
   -1.7171    3.3050   -0.7634 C   0  0  0  0  0  0  0  0  0  0  0  0
   -1.1084    3.9991   -1.3587 H   0  0  0  0  0  0  0  0  0  0  0  0
   -3.7805    2.0843   -0.3519 C   0  0  0  0  0  0  0  0  0  0  0  0
   -4.8083    1.8294   -0.6484 H   0  0  0  0  0  0  0  0  0  0  0  0
  1 31  1  0  0  0  0
  1 33  1  0  0  0  0
  2 31  1  0  0  0  0
  2  8  1  0  0  0  0
  3  4  1  0  0  0  0
  4  7  2  0  0  0  0
  5  1  1  0  0  0  0
  5  6  1  0  0  0  0
  8 15  2  0  0  0  0
  9 12  1  0  0  0  0
  9 10  1  0  0  0  0
 11  9  1  0  0  0  0
 12  5  1  0  0  0  0
 12 14  1  0  0  0  0
 13 12  1  0  0  0  0
 16 19  1  0  0  0  0
 16  9  1  0  0  0  0
 17 16  1  0  0  0  0
 18 16  1  0  0  0  0
 19 26  1  0  0  0  0
 19 20  1  0  0  0  0
 21 19  1  0  0  0  0
 22 23  1  0  0  0  0
 24 25  1  0  0  0  0
 26 28  1  0  0  0  0
 26  5  1  0  0  0  0
 27 26  1  0  0  0  0
 29 38  2  0  0  0  0
 30 29  1  0  0  0  0
 31 41  2  0  0  0  0
 32  2  1  0  0  0  0
 32 22  2  0  0  0  0
 33  3  1  0  0  0  0
 33 36  2  0  0  0  0
 34 45  2  0  0  0  0
 34 29  1  0  0  0  0
 35 34  1  0  0  0  0
 36 37  1  0  0  0  0
 36  7  1  0  0  0  0
 38 24  1  0  0  0  0
 38  3  1  0  0  0  0
 39 22  1  0  0  0  0
 39 40  1  0  0  0  0
 41 15  1  0  0  0  0
 41 42  1  0  0  0  0
 43 44  1  0  0  0  0
 43 24  2  0  0  0  0
 45 43  1  0  0  0  0
 46 45  1  0  0  0  0
 47 49  2  0  0  0  0
 47 51  1  0  0  0  0
 48 47  1  0  0  0  0
 49 32  1  0  0  0  0
 50 49  1  0  0  0  0
 51 39  2  0  0  0  0
 52 51  1  0  0  0  0
M  END
