1
q = 0.0, confidence = 0.99

 50 54  0  0  1  0  0  0  0  0999 V2000
   -0.0246   -0.4415    0.3314 P   0  0  2  0  0  0  0  0  0  0  0  0
   -0.5782    0.4179    1.7932 N   0  0  0  0  0  0  0  0  0  0  0  0
   -1.5925    1.2854    1.5293 N   0  0  0  0  0  2  0  0  0  0  0  0
   -2.1704    1.1050    0.3715 C   0  0  1  0  0  3  0  0  0  0  0  0
   -1.6964   -0.0778   -0.4652 C   0  0  2  0  0  0  0  0  0  0  0  0
   -2.6358   -1.2672   -0.4490 C   0  0  0  0  0  0  0  0  0  0  0  0
   -2.5271   -2.2457   -1.4579 C   0  0  0  0  0  0  0  0  0  0  0  0
   -3.3391   -3.3872   -1.4264 C   0  0  0  0  0  0  0  0  0  0  0  0
   -4.2713   -3.5640   -0.3906 C   0  0  0  0  0  0  0  0  0  0  0  0
   -4.3876   -2.5903    0.6131 C   0  0  0  0  0  0  0  0  0  0  0  0
   -3.5720   -1.4495    0.5872 C   0  0  0  0  0  0  0  0  0  0  0  0
   -3.2653    1.9769   -0.0694 C   0  0  0  0  0  0  0  0  0  0  0  0
   -3.9301    1.7414   -1.2955 C   0  0  0  0  0  0  0  0  0  0  0  0
   -4.9686    2.5832   -1.7160 C   0  0  0  0  0  0  0  0  0  0  0  0
   -5.3631    3.6712   -0.9232 C   0  0  0  0  0  0  0  0  0  0  0  0
   -4.7092    3.9134    0.2990 C   0  0  0  0  0  0  0  0  0  0  0  0
   -3.6721    3.0788    0.7228 C   0  0  0  0  0  0  0  0  0  0  0  0
    0.2391    0.6410    2.9230 C   0  0  0  0  0  0  0  0  0  0  0  0
   -0.0363    1.7006    3.8145 C   0  0  0  0  0  0  0  0  0  0  0  0
    0.7972    1.9135    4.9181 C   0  0  0  0  0  0  0  0  0  0  0  0
    1.9106    1.0894    5.1534 C   0  0  0  0  0  0  0  0  0  0  0  0
    2.1774    0.0340    4.2693 C   0  0  0  0  0  0  0  0  0  0  0  0
    1.3486   -0.2002    3.1642 C   0  0  0  0  0  0  0  0  0  0  0  0
   -0.0254   -2.2121    0.7715 C   0  0  0  0  0  0  0  0  0  0  0  0
   -0.7379   -2.6614    1.9029 C   0  0  0  0  0  0  0  0  0  0  0  0
   -0.7872   -4.0309    2.1927 C   0  0  0  0  0  0  0  0  0  0  0  0
   -0.1339   -4.9534    1.3593 C   0  0  0  0  0  0  0  0  0  0  0  0
    0.5730   -4.5049    0.2330 C   0  0  0  0  0  0  0  0  0  0  0  0
    0.6308   -3.1361   -0.0664 C   0  0  0  0  0  0  0  0  0  0  0  0
   -1.7810   -2.1115   -2.2575 H   0  0  0  0  0  0  0  0  0  0  0  0
   -3.2414   -4.1465   -2.2171 H   0  0  0  0  0  0  0  0  0  0  0  0
   -4.9087   -4.4608   -0.3674 H   0  0  0  0  0  0  0  0  0  0  0  0
   -5.1188   -2.7188    1.4256 H   0  0  0  0  0  0  0  0  0  0  0  0
   -3.6647   -0.6887    1.3774 H   0  0  0  0  0  0  0  0  0  0  0  0
   -3.6427    0.8854   -1.9226 H   0  0  0  0  0  0  0  0  0  0  0  0
   -5.4746    2.3843   -2.6727 H   0  0  0  0  0  0  0  0  0  0  0  0
   -6.1778    4.3321   -1.2556 H   0  0  0  0  0  0  0  0  0  0  0  0
   -5.0116    4.7667    0.9250 H   0  0  0  0  0  0  0  0  0  0  0  0
   -3.1513    3.2648    1.6727 H   0  0  0  0  0  0  0  0  0  0  0  0
   -0.8996    2.3476    3.6163 H   0  0  0  0  0  0  0  0  0  0  0  0
    0.5756    2.7472    5.6019 H   0  0  0  0  0  0  0  0  0  0  0  0
    2.5647    1.2697    6.0189 H   0  0  0  0  0  0  0  0  0  0  0  0
    3.0434   -0.6242    4.4363 H   0  0  0  0  0  0  0  0  0  0  0  0
    1.5710   -1.0390    2.4901 H   0  0  0  0  0  0  0  0  0  0  0  0
   -1.2450   -1.9359    2.5548 H   0  0  0  0  0  0  0  0  0  0  0  0
   -1.3416   -4.3790    3.0770 H   0  0  0  0  0  0  0  0  0  0  0  0
   -0.1762   -6.0286    1.5906 H   0  0  0  0  0  0  0  0  0  0  0  0
    1.0816   -5.2248   -0.4255 H   0  0  0  0  0  0  0  0  0  0  0  0
    1.1505   -2.7847   -0.9713 H   0  0  0  0  0  0  0  0  0  0  0  0
   -1.4694    0.2033   -1.5126 H   0  0  0  0  0  0  0  0  0  0  0  0
  1 24  1  1  0  0  0
  1  2  1  0  0  0  0
  2 18  1  0  0  0  0
  3  2  1  0  0  0  0
  4 12  1  1  0  0  0
  4  3  1  0  0  0  0
  5 50  1  6  0  0  0
  5  6  1  0  0  0  0
  5  1  1  0  0  0  0
  5  4  1  0  0  0  0
  6 11  1  0  0  0  0
  7  8  1  0  0  0  0
  7  6  2  0  0  0  0
  8  9  2  0  0  0  0
  9 32  1  0  0  0  0
  9 10  1  0  0  0  0
 10 33  1  0  0  0  0
 11 10  2  0  0  0  0
 11 34  1  0  0  0  0
 12 17  1  0  0  0  0
 13 12  2  0  0  0  0
 14 13  1  0  0  0  0
 14 15  2  0  0  0  0
 15 16  1  0  0  0  0
 16 17  2  0  0  0  0
 16 38  1  0  0  0  0
 17 39  1  0  0  0  0
 18 23  2  0  0  0  0
 18 19  1  0  0  0  0
 19 20  2  0  0  0  0
 20 21  1  0  0  0  0
 20 41  1  0  0  0  0
 21 42  1  0  0  0  0
 22 43  1  0  0  0  0
 22 21  2  0  0  0  0
 23 22  1  0  0  0  0
 24 25  1  0  0  0  0
 25 26  2  0  0  0  0
 25 45  1  0  0  0  0
 26 46  1  0  0  0  0
 27 47  1  0  0  0  0
 27 26  1  0  0  0  0
 28 27  2  0  0  0  0
 29 28  1  0  0  0  0
 29 24  2  0  0  0  0
 30  7  1  0  0  0  0
 31  8  1  0  0  0  0
 35 13  1  0  0  0  0
 36 14  1  0  0  0  0
 37 15  1  0  0  0  0
 40 19  1  0  0  0  0
 44 23  1  0  0  0  0
 48 28  1  0  0  0  0
 49 29  1  0  0  0  0
M  END
