1
q = 0.0, confidence = 0.996

 34 36  0  0  0  0  0  0  0  0999 V2000
   -1.3445    0.1505    0.0238 P   0  0  0  0  0  0  0  0  0  0  0  0
   -1.4762   -2.4896    1.3304 F   0  0  0  0  0  0  0  0  0  0  0  0
   -2.7880   -0.4371   -2.7414 F   0  0  0  0  0  0  0  0  0  0  0  0
   -2.1333   -1.3697   -0.6480 C   0  0  0  0  0  0  0  0  0  0  0  0
   -2.0401   -2.5566    0.1132 C   0  0  0  0  0  0  0  0  0  0  0  0
   -2.5221   -3.7896   -0.3306 C   0  0  0  0  0  0  0  0  0  0  0  0
   -2.4174   -4.6673    0.3212 H   0  0  0  0  0  0  0  0  0  0  0  0
   -3.1046   -3.8646   -1.6034 C   0  0  0  0  0  0  0  0  0  0  0  0
   -3.4850   -4.8274   -1.9747 H   0  0  0  0  0  0  0  0  0  0  0  0
   -3.1970   -2.7235   -2.4102 C   0  0  0  0  0  0  0  0  0  0  0  0
   -3.6381   -2.7523   -3.4159 H   0  0  0  0  0  0  0  0  0  0  0  0
   -2.7038   -1.5038   -1.9296 C   0  0  0  0  0  0  0  0  0  0  0  0
   -1.9802    1.5606   -0.9676 C   0  0  0  0  0  0  0  0  0  0  0  0
   -3.2522    2.1180   -0.7406 C   0  0  0  0  0  0  0  0  0  0  0  0
   -3.8922    1.7272    0.0643 H   0  0  0  0  0  0  0  0  0  0  0  0
   -3.6987    3.1843   -1.5349 C   0  0  0  0  0  0  0  0  0  0  0  0
   -4.6927    3.6206   -1.3529 H   0  0  0  0  0  0  0  0  0  0  0  0
   -2.8795    3.6967   -2.5534 C   0  0  0  0  0  0  0  0  0  0  0  0
   -3.2316    4.5358   -3.1728 H   0  0  0  0  0  0  0  0  0  0  0  0
   -1.6069    3.1457   -2.7740 C   0  0  0  0  0  0  0  0  0  0  0  0
   -0.9578    3.5520   -3.5644 H   0  0  0  0  0  0  0  0  0  0  0  0
   -1.1535    2.0834   -1.9811 C   0  0  0  0  0  0  0  0  0  0  0  0
   -0.1518    1.6518   -2.1320 H   0  0  0  0  0  0  0  0  0  0  0  0
   -2.1636    0.3425    1.6633 C   0  0  0  0  0  0  0  0  0  0  0  0
   -1.4970    1.0449    2.6866 C   0  0  0  0  0  0  0  0  0  0  0  0
   -0.4933    1.4563    2.4966 H   0  0  0  0  0  0  0  0  0  0  0  0
   -2.1253    1.2326    3.9270 C   0  0  0  0  0  0  0  0  0  0  0  0
   -1.5981    1.7816    4.7221 H   0  0  0  0  0  0  0  0  0  0  0  0
   -3.4131    0.7241    4.1570 C   0  0  0  0  0  0  0  0  0  0  0  0
   -3.8999    0.8711    5.1332 H   0  0  0  0  0  0  0  0  0  0  0  0
   -4.0782    0.0233    3.1384 C   0  0  0  0  0  0  0  0  0  0  0  0
   -5.0868   -0.3817    3.3120 H   0  0  0  0  0  0  0  0  0  0  0  0
   -3.4575   -0.1691    1.8956 C   0  0  0  0  0  0  0  0  0  0  0  0
   -3.9799   -0.7292    1.1050 H   0  0  0  0  0  0  0  0  0  0  0  0
  1 24  1  0  0  0  0
  3 12  1  0  0  0  0
  4  1  1  0  0  0  0
  4  5  1  0  0  0  0
  5  2  1  0  0  0  0
  6  5  2  0  0  0  0
  6  7  1  0  0  0  0
  8  6  1  0  0  0  0
  9  8  1  0  0  0  0
 10 12  1  0  0  0  0
 10  8  2  0  0  0  0
 11 10  1  0  0  0  0
 12  4  2  0  0  0  0
 13 14  1  0  0  0  0
 13  1  1  0  0  0  0
 14 15  1  0  0  0  0
 16 17  1  0  0  0  0
 16 14  2  0  0  0  0
 18 16  1  0  0  0  0
 19 18  1  0  0  0  0
 20 18  2  0  0  0  0
 20 22  1  0  0  0  0
 21 20  1  0  0  0  0
 22 13  2  0  0  0  0
 23 22  1  0  0  0  0
 24 33  2  0  0  0  0
 24 25  1  0  0  0  0
 25 27  2  0  0  0  0
 26 25  1  0  0  0  0
 27 29  1  0  0  0  0
 27 28  1  0  0  0  0
 29 30  1  0  0  0  0
 31 32  1  0  0  0  0
 31 29  2  0  0  0  0
 33 31  1  0  0  0  0
 34 33  1  0  0  0  0
M  END
