2
q = 0.0, confidence = 1.0

 30 33  0  0  1  0  0  0  0  0999 V2000
   -2.1615    0.0000   -1.3068 As  0  0  1  0  0  0  0  0  0  0  0  0
   -0.7399    0.0000    0.5388 P   0  0  2  0  0  0  0  0  0  0  0  0
   -1.3820   -1.5583    1.4568 C   0  0  2  0  0  0  0  0  0  0  0  0
   -0.7526   -1.6305    2.3660 H   0  0  0  0  0  0  0  0  0  0  0  0
   -1.1192   -2.7719    0.5279 C   0  0  0  0  0  0  0  0  0  0  0  0
   -0.0548   -2.7972    0.2245 H   0  0  0  0  0  0  0  0  0  0  0  0
   -1.2902   -3.6785    1.1417 H   0  0  0  0  0  0  0  0  0  0  0  0
   -2.0514   -2.7869   -0.7099 C   0  0  0  0  0  0  0  0  0  0  0  0
   -2.5554   -3.7722   -0.7829 H   0  0  0  0  0  0  0  0  0  0  0  0
   -1.4622   -2.6735   -1.6453 H   0  0  0  0  0  0  0  0  0  0  0  0
   -3.1513   -1.6933   -0.6448 C   0  0  1  0  0  0  0  0  0  0  0  0
   -3.9297   -1.8745   -1.4103 H   0  0  0  0  0  0  0  0  0  0  0  0
   -3.7053   -1.5556    0.7243 C   0  0  0  0  0  0  0  0  0  0  0  0
   -4.7910   -1.4437    0.8707 H   0  0  0  0  0  0  0  0  0  0  0  0
   -2.8399   -1.4807    1.7660 C   0  0  0  0  0  0  0  0  0  0  0  0
   -3.1817   -1.3212    2.7992 H   0  0  0  0  0  0  0  0  0  0  0  0
   -1.3819    1.5584    1.4567 C   0  0  1  0  0  0  0  0  0  0  0  0
   -0.7524    1.6306    2.3659 H   0  0  0  0  0  0  0  0  0  0  0  0
   -1.1192    2.7719    0.5278 C   0  0  0  0  0  0  0  0  0  0  0  0
   -1.2901    3.6786    1.1416 H   0  0  0  0  0  0  0  0  0  0  0  0
   -0.0548    2.7972    0.2242 H   0  0  0  0  0  0  0  0  0  0  0  0
   -2.0515    2.7869   -0.7099 C   0  0  0  0  0  0  0  0  0  0  0  0
   -1.4625    2.6736   -1.6454 H   0  0  0  0  0  0  0  0  0  0  0  0
   -2.5557    3.7722   -0.7827 H   0  0  0  0  0  0  0  0  0  0  0  0
   -3.1514    1.6933   -0.6447 C   0  0  2  0  0  0  0  0  0  0  0  0
   -3.9298    1.8744   -1.4102 H   0  0  0  0  0  0  0  0  0  0  0  0
   -3.7052    1.5556    0.7244 C   0  0  0  0  0  0  0  0  0  0  0  0
   -4.7909    1.4436    0.8709 H   0  0  0  0  0  0  0  0  0  0  0  0
   -2.8398    1.4808    1.7661 C   0  0  0  0  0  0  0  0  0  0  0  0
   -3.1815    1.3213    2.7993 H   0  0  0  0  0  0  0  0  0  0  0  0
  1 11  1  0  0  0  0
  1 25  1  0  0  0  0
  1  2  1  0  0  0  0
  2 17  1  0  0  0  0
  2  3  1  0  0  0  0
  3 15  1  0  0  0  0
  3  4  1  1  0  0  0
  5  7  1  0  0  0  0
  5  3  1  0  0  0  0
  6  5  1  0  0  0  0
  8 11  1  0  0  0  0
  8  5  1  0  0  0  0
  9  8  1  0  0  0  0
 10  8  1  0  0  0  0
 11 12  1  6  0  0  0
 11 13  1  0  0  0  0
 13 14  1  0  0  0  0
 13 15  2  0  0  0  0
 15 16  1  0  0  0  0
 17 29  1  0  0  0  0
 17 18  1  1  0  0  0
 19 20  1  0  0  0  0
 19 17  1  0  0  0  0
 21 19  1  0  0  0  0
 22 25  1  0  0  0  0
 22 19  1  0  0  0  0
 23 22  1  0  0  0  0
 24 22  1  0  0  0  0
 25 26  1  6  0  0  0
 25 27  1  0  0  0  0
 27 28  1  0  0  0  0
 27 29  2  0  0  0  0
 29 30  1  0  0  0  0
M  END
