1
q = 0.0, confidence = 0.992

 25 27  0  0  0  0  0  0  0  0999 V2000
    1.6136    0.0004   -0.0000 P   0  0  0  0  0  0  0  0  0  0  0  0
    2.4502   -0.6519    1.3920 N   0  0  0  0  0  0  0  0  0  0  0  0
    1.8952   -0.3809    2.6083 N   0  0  0  0  0  0  0  0  0  0  0  0
    2.7382   -0.9186    3.4925 C   0  0  0  0  0  0  0  0  0  0  0  0
    2.5220   -0.8457    4.5663 H   0  0  0  0  0  0  0  0  0  0  0  0
    3.8450   -1.5492    2.8550 C   0  0  0  0  0  0  0  0  0  0  0  0
    4.6774   -2.0849    3.3233 H   0  0  0  0  0  0  0  0  0  0  0  0
    3.6312   -1.3609    1.4990 C   0  0  0  0  0  0  0  0  0  0  0  0
    4.1971   -1.6767    0.6157 H   0  0  0  0  0  0  0  0  0  0  0  0
    2.4508   -0.8791   -1.2606 N   0  0  0  0  0  0  0  0  0  0  0  0
    1.8967   -2.0685   -1.6334 N   0  0  0  0  0  0  0  0  0  0  0  0
    2.7403   -2.5655   -2.5404 C   0  0  0  0  0  0  0  0  0  0  0  0
    2.5250   -3.5324   -3.0137 H   0  0  0  0  0  0  0  0  0  0  0  0
    3.8468   -1.6976   -2.7680 C   0  0  0  0  0  0  0  0  0  0  0  0
    4.6796   -1.8353   -3.4656 H   0  0  0  0  0  0  0  0  0  0  0  0
    3.6319   -0.6170   -1.9277 C   0  0  0  0  0  0  0  0  0  0  0  0
    4.1972    0.3063   -1.7600 H   0  0  0  0  0  0  0  0  0  0  0  0
    2.4505    1.5319   -0.1312 N   0  0  0  0  0  0  0  0  0  0  0  0
    1.8955    2.4497   -0.9741 N   0  0  0  0  0  0  0  0  0  0  0  0
    2.7387    3.4841   -0.9508 C   0  0  0  0  0  0  0  0  0  0  0  0
    2.5227    4.3776   -1.5509 H   0  0  0  0  0  0  0  0  0  0  0  0
    3.8457    3.2473   -0.0861 C   0  0  0  0  0  0  0  0  0  0  0  0
    4.6783    3.9205    0.1435 H   0  0  0  0  0  0  0  0  0  0  0  0
    3.6317    1.9789    0.4290 C   0  0  0  0  0  0  0  0  0  0  0  0
    4.1976    1.3719    1.1442 H   0  0  0  0  0  0  0  0  0  0  0  0
  1  2  1  0  0  0  0
  2  8  1  0  0  0  0
  2  3  1  0  0  0  0
  3  4  2  0  0  0  0
  4  5  1  0  0  0  0
  6  7  1  0  0  0  0
  6  4  1  0  0  0  0
  8  6  2  0  0  0  0
  9  8  1  0  0  0  0
 10  1  1  0  0  0  0
 11 10  1  0  0  0  0
 12 11  2  0  0  0  0
 13 12  1  0  0  0  0
 14 12  1  0  0  0  0
 14 16  2  0  0  0  0
 15 14  1  0  0  0  0
 16 17  1  0  0  0  0
 16 10  1  0  0  0  0
 18  1  1  0  0  0  0
 18 24  1  0  0  0  0
 19 20  2  0  0  0  0
 19 18  1  0  0  0  0
 20 22  1  0  0  0  0
 21 20  1  0  0  0  0
 22 23  1  0  0  0  0
 22 24  2  0  0  0  0
 24 25  1  0  0  0  0
M  END
