1
q = 0.0, confidence = 0.99

 74 78  0  0  0  0  0  0  0  0999 V2000
    0.4773    0.7203   -0.1603 P   0  0  2  0  0  0  0  0  0  0  0  0
   -1.5826   -0.0953    0.5540 Si  0  0  0  0  0  0  0  0  0  0  0  0
   -1.9288   -1.8143    0.4058 N   0  0  0  0  0  0  0  0  0  0  0  0
   -3.0820    0.3647   -0.2459 N   0  0  0  0  0  0  0  0  0  0  0  0
    0.3947    1.0246    1.6833 C   0  0  0  0  0  0  0  0  0  0  0  0
   -0.8551    0.6433    2.1337 C   0  0  0  0  0  0  0  0  0  0  0  0
   -1.3828    0.7962    3.5299 C   0  0  0  0  0  0  0  0  0  0  0  0
   -1.1014   -0.0653    4.1693 H   0  0  0  0  0  0  0  0  0  0  0  0
   -2.4880    0.8464    3.5400 H   0  0  0  0  0  0  0  0  0  0  0  0
   -0.9828    1.7100    4.0158 H   0  0  0  0  0  0  0  0  0  0  0  0
    1.5404    1.5327    2.4543 C   0  0  0  0  0  0  0  0  0  0  0  0
    2.4542    2.4394    1.8649 C   0  0  0  0  0  0  0  0  0  0  0  0
    2.2918    2.7737    0.8300 H   0  0  0  0  0  0  0  0  0  0  0  0
    3.5622    2.9114    2.5779 C   0  0  0  0  0  0  0  0  0  0  0  0
    4.2609    3.6102    2.0949 H   0  0  0  0  0  0  0  0  0  0  0  0
    3.7930    2.4725    3.8913 C   0  0  0  0  0  0  0  0  0  0  0  0
    4.6704    2.8336    4.4486 H   0  0  0  0  0  0  0  0  0  0  0  0
    2.9106    1.5540    4.4832 C   0  0  0  0  0  0  0  0  0  0  0  0
    3.0998    1.1860    5.5029 H   0  0  0  0  0  0  0  0  0  0  0  0
    1.7949    1.0896    3.7760 C   0  0  0  0  0  0  0  0  0  0  0  0
    1.1349    0.3424    4.2359 H   0  0  0  0  0  0  0  0  0  0  0  0
    0.0049    2.3371   -0.9164 C   0  0  0  0  0  0  0  0  0  0  0  0
   -0.2283    3.4988   -0.1494 C   0  0  0  0  0  0  0  0  0  0  0  0
   -0.0727    3.4818    0.9394 H   0  0  0  0  0  0  0  0  0  0  0  0
   -0.6815    4.6742   -0.7680 C   0  0  0  0  0  0  0  0  0  0  0  0
   -0.8549    5.5751   -0.1596 H   0  0  0  0  0  0  0  0  0  0  0  0
   -0.9210    4.7005   -2.1512 C   0  0  0  0  0  0  0  0  0  0  0  0
   -1.2840    5.6210   -2.6322 H   0  0  0  0  0  0  0  0  0  0  0  0
   -0.6933    3.5456   -2.9180 C   0  0  0  0  0  0  0  0  0  0  0  0
   -0.8797    3.5561   -4.0025 H   0  0  0  0  0  0  0  0  0  0  0  0
   -0.2266    2.3730   -2.3082 C   0  0  0  0  0  0  0  0  0  0  0  0
   -0.0604    1.4710   -2.9155 H   0  0  0  0  0  0  0  0  0  0  0  0
   -3.0504   -2.0049   -0.4262 C   0  0  0  0  0  0  0  0  0  0  0  0
   -3.5174   -3.2218   -0.9453 C   0  0  0  0  0  0  0  0  0  0  0  0
   -3.0108   -4.1611   -0.6917 H   0  0  0  0  0  0  0  0  0  0  0  0
   -4.6347   -3.2376   -1.8004 C   0  0  0  0  0  0  0  0  0  0  0  0
   -4.9951   -4.1978   -2.1981 H   0  0  0  0  0  0  0  0  0  0  0  0
   -5.2800   -2.0433   -2.1440 C   0  0  0  0  0  0  0  0  0  0  0  0
   -6.1538   -2.0564   -2.8120 H   0  0  0  0  0  0  0  0  0  0  0  0
   -4.8146   -0.8137   -1.6416 C   0  0  0  0  0  0  0  0  0  0  0  0
   -5.3200    0.1176   -1.9263 H   0  0  0  0  0  0  0  0  0  0  0  0
   -3.7041   -0.7828   -0.7844 C   0  0  0  0  0  0  0  0  0  0  0  0
   -1.0171   -2.9032    0.7465 C   0  0  0  0  0  0  0  0  0  0  0  0
    0.0082   -2.4827    0.7931 H   0  0  0  0  0  0  0  0  0  0  0  0
   -1.0020   -3.6311   -0.0920 H   0  0  0  0  0  0  0  0  0  0  0  0
   -1.2656   -3.6586    2.0809 C   0  0  0  0  0  0  0  0  0  0  0  0
   -0.1388   -4.6992    2.2130 C   0  0  0  0  0  0  0  0  0  0  0  0
    0.8577   -4.2124    2.2424 H   0  0  0  0  0  0  0  0  0  0  0  0
   -0.1462   -5.4102    1.3608 H   0  0  0  0  0  0  0  0  0  0  0  0
   -0.2565   -5.2891    3.1447 H   0  0  0  0  0  0  0  0  0  0  0  0
   -2.6316   -4.3637    2.0968 C   0  0  0  0  0  0  0  0  0  0  0  0
   -2.7971   -4.8591    3.0758 H   0  0  0  0  0  0  0  0  0  0  0  0
   -2.6955   -5.1463    1.3139 H   0  0  0  0  0  0  0  0  0  0  0  0
   -3.4614   -3.6477    1.9321 H   0  0  0  0  0  0  0  0  0  0  0  0
   -1.1936   -2.6723    3.2548 C   0  0  0  0  0  0  0  0  0  0  0  0
   -2.0142   -1.9309    3.1921 H   0  0  0  0  0  0  0  0  0  0  0  0
   -0.2265   -2.1272    3.2593 H   0  0  0  0  0  0  0  0  0  0  0  0
   -1.2923   -3.2034    4.2237 H   0  0  0  0  0  0  0  0  0  0  0  0
   -3.4768    1.7144   -0.6453 C   0  0  0  0  0  0  0  0  0  0  0  0
   -3.8780    1.6762   -1.6808 H   0  0  0  0  0  0  0  0  0  0  0  0
   -2.5633    2.3377   -0.7009 H   0  0  0  0  0  0  0  0  0  0  0  0
   -4.4875    2.4594    0.2696 C   0  0  0  0  0  0  0  0  0  0  0  0
   -5.8416    1.7353    0.3425 C   0  0  0  0  0  0  0  0  0  0  0  0
   -6.5256    2.2631    1.0388 H   0  0  0  0  0  0  0  0  0  0  0  0
   -5.7255    0.6935    0.7025 H   0  0  0  0  0  0  0  0  0  0  0  0
   -6.3386    1.6998   -0.6482 H   0  0  0  0  0  0  0  0  0  0  0  0
   -4.6772    3.8622   -0.3342 C   0  0  0  0  0  0  0  0  0  0  0  0
   -5.0796    3.8040   -1.3671 H   0  0  0  0  0  0  0  0  0  0  0  0
   -3.7155    4.4144   -0.3786 H   0  0  0  0  0  0  0  0  0  0  0  0
   -5.3887    4.4595    0.2715 H   0  0  0  0  0  0  0  0  0  0  0  0
   -3.9052    2.5814    1.6853 C   0  0  0  0  0  0  0  0  0  0  0  0
   -4.5651    3.1914    2.3353 H   0  0  0  0  0  0  0  0  0  0  0  0
   -2.9011    3.0550    1.6741 H   0  0  0  0  0  0  0  0  0  0  0  0
   -3.8085    1.5810    2.1507 H   0  0  0  0  0  0  0  0  0  0  0  0
  1 22  1  6  0  0  0
  1  2  1  0  0  0  0
  1  5  1  0  0  0  0
  2  6  1  0  0  0  0
  3  2  1  0  0  0  0
  3 43  1  0  0  0  0
  4  2  1  0  0  0  0
  5  6  2  0  0  0  0
  5 11  1  0  0  0  0
  6  7  1  0  0  0  0
  7  9  1  0  0  0  0
  7 10  1  0  0  0  0
  7  8  1  0  0  0  0
 11 20  1  0  0  0  0
 12 11  2  0  0  0  0
 12 14  1  0  0  0  0
 13 12  1  0  0  0  0
 14 16  2  0  0  0  0
 15 14  1  0  0  0  0
 16 17  1  0  0  0  0
 16 18  1  0  0  0  0
 18 19  1  0  0  0  0
 20 21  1  0  0  0  0
 20 18  2  0  0  0  0
 22 23  1  0  0  0  0
 23 24  1  0  0  0  0
 25 26  1  0  0  0  0
 25 23  2  0  0  0  0
 27 25  1  0  0  0  0
 28 27  1  0  0  0  0
 29 31  1  0  0  0  0
 29 27  2  0  0  0  0
 30 29  1  0  0  0  0
 31 22  2  0  0  0  0
 32 31  1  0  0  0  0
 33  3  1  0  0  0  0
 34 35  1  0  0  0  0
 34 33  2  0  0  0  0
 36 34  1  0  0  0  0
 37 36  1  0  0  0  0
 38 36  2  0  0  0  0
 38 40  1  0  0  0  0
 39 38  1  0  0  0  0
 40 42  2  0  0  0  0
 41 40  1  0  0  0  0
 42 33  1  0  0  0  0
 42  4  1  0  0  0  0
 43 44  1  0  0  0  0
 43 46  1  0  0  0  0
 45 43  1  0  0  0  0
 46 51  1  0  0  0  0
 46 47  1  0  0  0  0
 46 55  1  0  0  0  0
 47 48  1  0  0  0  0
 47 50  1  0  0  0  0
 49 47  1  0  0  0  0
 51 52  1  0  0  0  0
 53 51  1  0  0  0  0
 54 51  1  0  0  0  0
 55 57  1  0  0  0  0
 55 58  1  0  0  0  0
 56 55  1  0  0  0  0
 59  4  1  0  0  0  0
 59 62  1  0  0  0  0
 60 59  1  0  0  0  0
 61 59  1  0  0  0  0
 62 63  1  0  0  0  0
 62 71  1  0  0  0  0
 63 65  1  0  0  0  0
 63 64  1  0  0  0  0
 66 63  1  0  0  0  0
 67 62  1  0  0  0  0
 67 70  1  0  0  0  0
 68 67  1  0  0  0  0
 69 67  1  0  0  0  0
 71 74  1  0  0  0  0
 71 72  1  0  0  0  0
 73 71  1  0  0  0  0
M  END
