2
q = 0.0, confidence = 0.998

 49 52  0  0  0  0  0  0  0  0999 V2000
    2.0000   -0.0584   -0.7697 P   0  0  0  0  0  0  0  0  0  0  0  0
   -0.8366   -0.8425    0.0626 P   0  0  0  0  0  0  0  0  0  0  0  0
    1.9076   -0.0749   -2.2848 O   0  0  0  0  0  0  0  0  0  0  0  0
    0.8797   -1.0456    0.1011 N   0  0  0  0  0  0  0  0  0  0  0  0
    1.7472    1.5955   -0.0647 C   0  0  0  0  0  0  0  0  0  0  0  0
    1.7451    2.6776   -0.9662 C   0  0  0  0  0  0  0  0  0  0  0  0
    1.5113    3.9753   -0.4919 C   0  0  0  0  0  0  0  0  0  0  0  0
    1.2914    4.1946    0.8760 C   0  0  0  0  0  0  0  0  0  0  0  0
    1.3087    3.1176    1.7780 C   0  0  0  0  0  0  0  0  0  0  0  0
    1.5310    1.8156    1.3121 C   0  0  0  0  0  0  0  0  0  0  0  0
    3.5754   -0.7603   -0.1697 C   0  0  0  0  0  0  0  0  0  0  0  0
    3.8337   -1.0439    1.1870 C   0  0  0  0  0  0  0  0  0  0  0  0
    5.0782   -1.5688    1.5638 C   0  0  0  0  0  0  0  0  0  0  0  0
    6.0643   -1.8102    0.5921 C   0  0  0  0  0  0  0  0  0  0  0  0
    5.8058   -1.5317   -0.7596 C   0  0  0  0  0  0  0  0  0  0  0  0
    4.5623   -1.0083   -1.1435 C   0  0  0  0  0  0  0  0  0  0  0  0
   -1.3343   -1.5780    1.6648 C   0  0  0  0  0  0  0  0  0  0  0  0
   -1.8134   -0.7360    2.6875 C   0  0  0  0  0  0  0  0  0  0  0  0
   -2.1302   -1.2706    3.9456 C   0  0  0  0  0  0  0  0  0  0  0  0
   -1.9703   -2.6440    4.1867 C   0  0  0  0  0  0  0  0  0  0  0  0
   -1.4953   -3.4878    3.1681 C   0  0  0  0  0  0  0  0  0  0  0  0
   -1.1792   -2.9594    1.9088 C   0  0  0  0  0  0  0  0  0  0  0  0
   -1.4236   -2.0120   -1.2188 C   0  0  0  0  0  0  0  0  0  0  0  0
   -0.6856   -2.1368   -2.4155 C   0  0  0  0  0  0  0  0  0  0  0  0
   -1.1665   -2.9687   -3.4377 C   0  0  0  0  0  0  0  0  0  0  0  0
   -2.3750   -3.6659   -3.2797 C   0  0  0  0  0  0  0  0  0  0  0  0
   -3.1153   -3.5267   -2.0946 C   0  0  0  0  0  0  0  0  0  0  0  0
   -2.6458   -2.6988   -1.0647 C   0  0  0  0  0  0  0  0  0  0  0  0
    1.1925   -2.0215    0.1942 H   0  0  0  0  0  0  0  0  0  0  0  0
    1.8881    2.4739   -2.0379 H   0  0  0  0  0  0  0  0  0  0  0  0
    1.4741    4.8173   -1.1983 H   0  0  0  0  0  0  0  0  0  0  0  0
    1.0859    5.2115    1.2420 H   0  0  0  0  0  0  0  0  0  0  0  0
    1.1212    3.2917    2.8482 H   0  0  0  0  0  0  0  0  0  0  0  0
    1.4973    0.9654    2.0096 H   0  0  0  0  0  0  0  0  0  0  0  0
    3.0608   -0.8598    1.9484 H   0  0  0  0  0  0  0  0  0  0  0  0
    5.2810   -1.7912    2.6225 H   0  0  0  0  0  0  0  0  0  0  0  0
    7.0406   -2.2204    0.8922 H   0  0  0  0  0  0  0  0  0  0  0  0
    6.5770   -1.7256   -1.5204 H   0  0  0  0  0  0  0  0  0  0  0  0
    4.3271   -0.7892   -2.1965 H   0  0  0  0  0  0  0  0  0  0  0  0
   -1.9366    0.3402    2.4840 H   0  0  0  0  0  0  0  0  0  0  0  0
   -2.5083   -0.6096    4.7399 H   0  0  0  0  0  0  0  0  0  0  0  0
   -2.2219   -3.0626    5.1730 H   0  0  0  0  0  0  0  0  0  0  0  0
   -1.3758   -4.5658    3.3547 H   0  0  0  0  0  0  0  0  0  0  0  0
   -0.8249   -3.6272    1.1074 H   0  0  0  0  0  0  0  0  0  0  0  0
    0.2523   -1.5704   -2.5542 H   0  0  0  0  0  0  0  0  0  0  0  0
   -0.5900   -3.0659   -4.3701 H   0  0  0  0  0  0  0  0  0  0  0  0
   -2.7459   -4.3165   -4.0862 H   0  0  0  0  0  0  0  0  0  0  0  0
   -4.0669   -4.0653   -1.9698 H   0  0  0  0  0  0  0  0  0  0  0  0
   -3.2313   -2.5882   -0.1392 H   0  0  0  0  0  0  0  0  0  0  0  0
  1 11  1  0  0  0  0
  1  5  1  0  0  0  0
  1  4  1  0  0  0  0
  2  4  1  0  0  0  0
  2 17  1  0  0  0  0
  3  1  2  0  0  0  0
  4 29  1  0  0  0  0
  5 10  1  0  0  0  0
  6  7  1  0  0  0  0
  6  5  2  0  0  0  0
  7  8  2  0  0  0  0
  8 32  1  0  0  0  0
  8  9  1  0  0  0  0
  9 33  1  0  0  0  0
 10  9  2  0  0  0  0
 10 34  1  0  0  0  0
 11 12  1  0  0  0  0
 12 13  2  0  0  0  0
 12 35  1  0  0  0  0
 13 36  1  0  0  0  0
 14 37  1  0  0  0  0
 14 13  1  0  0  0  0
 15 14  2  0  0  0  0
 16 15  1  0  0  0  0
 16 11  2  0  0  0  0
 17 22  2  0  0  0  0
 17 18  1  0  0  0  0
 18 19  2  0  0  0  0
 19 20  1  0  0  0  0
 19 41  1  0  0  0  0
 20 42  1  0  0  0  0
 21 43  1  0  0  0  0
 21 20  2  0  0  0  0
 22 21  1  0  0  0  0
 23 28  1  0  0  0  0
 23  2  1  0  0  0  0
 24 23  2  0  0  0  0
 25 26  2  0  0  0  0
 25 24  1  0  0  0  0
 26 27  1  0  0  0  0
 27 48  1  0  0  0  0
 27 28  2  0  0  0  0
 28 49  1  0  0  0  0
 30  6  1  0  0  0  0
 31  7  1  0  0  0  0
 38 15  1  0  0  0  0
 39 16  1  0  0  0  0
 40 18  1  0  0  0  0
 44 22  1  0  0  0  0
 45 24  1  0  0  0  0
 46 25  1  0  0  0  0
 47 26  1  0  0  0  0
M  END
