1
q = 0.0, confidence = 1.0

 24 23  0  0  0  0  0  0  0  0999 V2000
   -0.0803    2.3950   -0.9050 P   0  0  0  0  0  0  0  0  0  0  0  0
    1.3404    3.0238    0.1378 C   0  0  0  0  0  0  0  0  0  0  0  0
    0.8783    3.0676    1.5944 C   0  0  0  0  0  0  0  0  0  0  0  0
   -0.0762    1.5011    2.0603 P   0  0  0  0  0  0  0  0  0  0  0  0
    0.5258    2.6153   -2.6442 C   0  0  0  0  0  0  0  0  0  0  0  0
   -1.2528    3.8258   -0.8081 C   0  0  0  0  0  0  0  0  0  0  0  0
    1.1939    0.5876    3.0464 C   0  0  0  0  0  0  0  0  0  0  0  0
   -1.1743    2.1536    3.3958 C   0  0  0  0  0  0  0  0  0  0  0  0
    2.1714    2.2986    0.0041 H   0  0  0  0  0  0  0  0  0  0  0  0
    1.6848    4.0186   -0.2175 H   0  0  0  0  0  0  0  0  0  0  0  0
    1.7278    3.1957    2.2969 H   0  0  0  0  0  0  0  0  0  0  0  0
    0.1894    3.9219    1.7602 H   0  0  0  0  0  0  0  0  0  0  0  0
   -0.3131    2.3850   -3.3304 H   0  0  0  0  0  0  0  0  0  0  0  0
    0.8689    3.6545   -2.8253 H   0  0  0  0  0  0  0  0  0  0  0  0
    1.3579    1.9196   -2.8614 H   0  0  0  0  0  0  0  0  0  0  0  0
   -1.6775    3.8817    0.2123 H   0  0  0  0  0  0  0  0  0  0  0  0
   -0.7503    4.7810   -1.0633 H   0  0  0  0  0  0  0  0  0  0  0  0
   -2.0940    3.6440   -1.5037 H   0  0  0  0  0  0  0  0  0  0  0  0
    2.0261    0.2777    2.3853 H   0  0  0  0  0  0  0  0  0  0  0  0
    1.5808    1.2214    3.8699 H   0  0  0  0  0  0  0  0  0  0  0  0
    0.7352   -0.3256    3.4695 H   0  0  0  0  0  0  0  0  0  0  0  0
   -1.6822    1.3054    3.8938 H   0  0  0  0  0  0  0  0  0  0  0  0
   -0.5974    2.7338    4.1441 H   0  0  0  0  0  0  0  0  0  0  0  0
   -1.9593    2.7924    2.9478 H   0  0  0  0  0  0  0  0  0  0  0  0
  1  6  1  0  0  0  0
  1  2  1  0  0  0  0
  2  3  1  0  0  0  0
  3 12  1  0  0  0  0
  3  4  1  0  0  0  0
  3 11  1  0  0  0  0
  4  7  1  0  0  0  0
  4  8  1  0  0  0  0
  5  1  1  0  0  0  0
  6 16  1  0  0  0  0
  7 21  1  0  0  0  0
  7 20  1  0  0  0  0
  8 22  1  0  0  0  0
  8 23  1  0  0  0  0
  9  2  1  0  0  0  0
 10  2  1  0  0  0  0
 13  5  1  0  0  0  0
 14  5  1  0  0  0  0
 15  5  1  0  0  0  0
 17  6  1  0  0  0  0
 18  6  1  0  0  0  0
 19  7  1  0  0  0  0
 24  8  1  0  0  0  0
M  END
