1
q = 0.0, confidence = 1.0

 34 36  0  0  1  0  0  0  0  0999 V2000
   -1.4945    0.1556    0.0670 P   0  0  1  0  0  0  0  0  0  0  0  0
   -3.2179   -1.8068   -3.9965 O   0  0  0  0  0  0  0  0  0  0  0  0
   -2.4411    2.6320    1.1166 C   0  0  0  0  0  0  0  0  0  0  0  0
   -2.2258    3.0835    0.1373 H   0  0  0  0  0  0  0  0  0  0  0  0
   -2.9500    3.4270    2.1550 C   0  0  0  0  0  0  0  0  0  0  0  0
   -3.1279    4.4996    1.9841 H   0  0  0  0  0  0  0  0  0  0  0  0
   -3.2344    2.8554    3.4051 C   0  0  0  0  0  0  0  0  0  0  0  0
   -3.6364    3.4810    4.2166 H   0  0  0  0  0  0  0  0  0  0  0  0
   -2.9989    1.4873    3.6225 C   0  0  0  0  0  0  0  0  0  0  0  0
   -3.2157    1.0388    4.6039 H   0  0  0  0  0  0  0  0  0  0  0  0
   -2.4762    0.6882    2.5961 C   0  0  0  0  0  0  0  0  0  0  0  0
   -2.2640   -0.3824    2.7589 H   0  0  0  0  0  0  0  0  0  0  0  0
   -2.2074    1.2594    1.3326 C   0  0  0  0  0  0  0  0  0  0  0  0
   -2.8841   -0.8616   -0.6853 C   0  0  1  0  0  0  0  0  0  0  0  0
   -3.3228   -1.6150   -0.0088 H   0  0  0  0  0  0  0  0  0  0  0  0
   -3.8018    0.2186   -1.2287 C   0  0  0  0  0  0  0  0  0  0  0  0
   -3.0695    1.2347   -1.7707 C   0  0  0  0  0  0  0  0  0  0  0  0
   -1.5794    0.9506   -1.6369 C   0  0  2  0  0  0  0  0  0  0  0  0
   -0.9069    1.8052   -1.8299 H   0  0  0  0  0  0  0  0  0  0  0  0
   -1.2492   -0.3098   -2.4960 C   0  0  0  0  0  0  0  0  0  0  0  0
   -1.5583   -0.1461   -3.5479 H   0  0  0  0  0  0  0  0  0  0  0  0
   -0.1624   -0.5224   -2.4722 H   0  0  0  0  0  0  0  0  0  0  0  0
   -2.0653   -1.4783   -1.8842 C   0  0  2  0  0  0  0  0  0  0  0  0
   -1.4128   -2.2673   -1.4455 H   0  0  0  0  0  0  0  0  0  0  0  0
   -3.5535    2.4422   -2.5067 C   0  0  0  0  0  0  0  0  0  0  0  0
   -4.6576    2.5162   -2.5118 H   0  0  0  0  0  0  0  0  0  0  0  0
   -3.2102    2.4242   -3.5640 H   0  0  0  0  0  0  0  0  0  0  0  0
   -3.1495    3.3783   -2.0632 H   0  0  0  0  0  0  0  0  0  0  0  0
   -5.2865    0.0565   -1.1823 C   0  0  0  0  0  0  0  0  0  0  0  0
   -5.8188    0.9345   -1.5954 H   0  0  0  0  0  0  0  0  0  0  0  0
   -5.6313   -0.0969   -0.1372 H   0  0  0  0  0  0  0  0  0  0  0  0
   -5.6118   -0.8378   -1.7575 H   0  0  0  0  0  0  0  0  0  0  0  0
   -3.0125   -2.1567   -2.8507 C   0  0  0  0  0  0  0  0  0  0  0  0
   -3.5612   -3.0417   -2.4050 H   0  0  0  0  0  0  0  0  0  0  0  0
  1 13  1  1  0  0  0
  2 33  2  0  0  0  0
  3 13  2  0  0  0  0
  3  5  1  0  0  0  0
  4  3  1  0  0  0  0
  5  7  2  0  0  0  0
  6  5  1  0  0  0  0
  7  9  1  0  0  0  0
  7  8  1  0  0  0  0
  9 10  1  0  0  0  0
 11 12  1  0  0  0  0
 11  9  2  0  0  0  0
 13 11  1  0  0  0  0
 14 15  1  1  0  0  0
 14  1  1  0  0  0  0
 16 29  1  0  0  0  0
 16 14  1  0  0  0  0
 17 18  1  0  0  0  0
 17 16  2  0  0  0  0
 18 19  1  6  0  0  0
 18  1  1  0  0  0  0
 20 22  1  0  0  0  0
 20 23  1  0  0  0  0
 20 18  1  0  0  0  0
 21 20  1  0  0  0  0
 23 24  1  1  0  0  0
 23 14  1  0  0  0  0
 25 28  1  0  0  0  0
 25 17  1  0  0  0  0
 26 25  1  0  0  0  0
 27 25  1  0  0  0  0
 29 31  1  0  0  0  0
 30 29  1  0  0  0  0
 32 29  1  0  0  0  0
 33 34  1  0  0  0  0
 33 23  1  0  0  0  0
M  END
