1
q = 0.0, confidence = 1.0

 40 42  0  0  1  0  0  0  0  0999 V2000
   -0.8923    0.6498    0.2522 P   0  0  1  0  0  0  0  0  0  0  0  0
   -2.4360    0.0163   -0.6387 C   0  0  2  0  0  0  0  0  0  0  0  0
   -3.1255   -0.6016   -0.0367 H   0  0  0  0  0  0  0  0  0  0  0  0
   -1.7599   -0.7335   -1.8455 C   0  0  1  0  0  0  0  0  0  0  0  0
   -1.3949   -1.7097   -1.4642 H   0  0  0  0  0  0  0  0  0  0  0  0
   -2.7900   -1.0103   -2.9527 C   0  0  0  0  0  0  0  0  0  0  0  0
   -3.9481   -1.9430   -2.6203 C   0  0  0  0  0  0  0  0  0  0  0  0
   -4.6056   -1.9425   -3.5122 H   0  0  0  0  0  0  0  0  0  0  0  0
   -4.5271   -1.5011   -1.7795 H   0  0  0  0  0  0  0  0  0  0  0  0
   -3.5236   -3.3692   -2.2375 C   0  0  0  0  0  0  0  0  0  0  0  0
   -2.8681   -3.8124   -3.0151 H   0  0  0  0  0  0  0  0  0  0  0  0
   -4.4178   -4.0175   -2.1476 H   0  0  0  0  0  0  0  0  0  0  0  0
   -2.9911   -3.3996   -1.2663 H   0  0  0  0  0  0  0  0  0  0  0  0
   -0.5956    0.1785   -2.3118 C   0  0  0  0  0  0  0  0  0  0  0  0
    0.3850   -0.3253   -2.2036 H   0  0  0  0  0  0  0  0  0  0  0  0
   -0.7430    0.4487   -3.3764 H   0  0  0  0  0  0  0  0  0  0  0  0
   -0.6511    1.4599   -1.4275 C   0  0  1  0  0  0  0  0  0  0  0  0
    0.2282    2.1177   -1.5364 H   0  0  0  0  0  0  0  0  0  0  0  0
   -2.0052    2.1265   -1.6267 C   0  0  0  0  0  0  0  0  0  0  0  0
   -2.1086    3.4472   -2.3168 C   0  0  0  0  0  0  0  0  0  0  0  0
   -3.1506    3.8171   -2.3627 H   0  0  0  0  0  0  0  0  0  0  0  0
   -1.7282    3.3765   -3.3591 H   0  0  0  0  0  0  0  0  0  0  0  0
   -1.4902    4.2185   -1.8084 H   0  0  0  0  0  0  0  0  0  0  0  0
   -3.0080    1.3271   -1.1616 C   0  0  0  0  0  0  0  0  0  0  0  0
   -4.4801    1.5827   -1.1601 C   0  0  0  0  0  0  0  0  0  0  0  0
   -4.8964    1.4533   -0.1380 H   0  0  0  0  0  0  0  0  0  0  0  0
   -5.0210    0.8678   -1.8174 H   0  0  0  0  0  0  0  0  0  0  0  0
   -4.7257    2.6053   -1.5047 H   0  0  0  0  0  0  0  0  0  0  0  0
   -1.5071    1.8684    1.4726 C   0  0  0  0  0  0  0  0  0  0  0  0
   -2.2101    1.3718    2.5919 C   0  0  0  0  0  0  0  0  0  0  0  0
   -2.3648    0.2862    2.7032 H   0  0  0  0  0  0  0  0  0  0  0  0
   -2.6965    2.2652    3.5582 C   0  0  0  0  0  0  0  0  0  0  0  0
   -3.2498    1.8755    4.4260 H   0  0  0  0  0  0  0  0  0  0  0  0
   -2.4758    3.6456    3.4243 C   0  0  0  0  0  0  0  0  0  0  0  0
   -2.8561    4.3416    4.1875 H   0  0  0  0  0  0  0  0  0  0  0  0
   -1.7660    4.1377    2.3169 C   0  0  0  0  0  0  0  0  0  0  0  0
   -1.5899    5.2188    2.2087 H   0  0  0  0  0  0  0  0  0  0  0  0
   -1.2832    3.2537    1.3409 C   0  0  0  0  0  0  0  0  0  0  0  0
   -0.7285    3.6432    0.4746 H   0  0  0  0  0  0  0  0  0  0  0  0
   -2.6905   -0.4959   -4.0577 O   0  0  0  0  0  0  0  0  0  0  0  0
  1 29  1  1  0  0  0
  2  3  1  1  0  0  0
  2  1  1  0  0  0  0
  4  5  1  1  0  0  0
  4  2  1  0  0  0  0
  6  7  1  0  0  0  0
  6  4  1  0  0  0  0
  7 10  1  0  0  0  0
  7  9  1  0  0  0  0
  8  7  1  0  0  0  0
 10 12  1  0  0  0  0
 10 13  1  0  0  0  0
 11 10  1  0  0  0  0
 14 15  1  0  0  0  0
 14  4  1  0  0  0  0
 14 17  1  0  0  0  0
 16 14  1  0  0  0  0
 17 18  1  6  0  0  0
 17  1  1  0  0  0  0
 19 17  1  0  0  0  0
 19 24  2  0  0  0  0
 20 23  1  0  0  0  0
 20 19  1  0  0  0  0
 21 20  1  0  0  0  0
 22 20  1  0  0  0  0
 24 25  1  0  0  0  0
 24  2  1  0  0  0  0
 25 26  1  0  0  0  0
 27 25  1  0  0  0  0
 28 25  1  0  0  0  0
 29 30  1  0  0  0  0
 30 31  1  0  0  0  0
 30 32  2  0  0  0  0
 32 33  1  0  0  0  0
 34 32  1  0  0  0  0
 34 35  1  0  0  0  0
 36 34  2  0  0  0  0
 37 36  1  0  0  0  0
 38 29  2  0  0  0  0
 38 36  1  0  0  0  0
 39 38  1  0  0  0  0
 40  6  2  0  0  0  0
M  END
