1
q = 0.0, confidence = 0.982

 45 46  0  0  1  0  0  0  0  0999 V2000
   -0.4231    0.9340    0.2351 P   0  0  0  0  0  0  0  0  0  0  0  0
   -0.6463    2.2793   -1.1235 C   0  0  0  0  0  0  0  0  0  0  0  0
   -0.7041    1.5053   -2.4567 C   0  0  0  0  0  0  0  0  0  0  0  0
    0.5956    3.1941   -1.1446 C   0  0  0  0  0  0  0  0  0  0  0  0
   -1.8953    3.1645   -0.9747 C   0  0  0  0  0  0  0  0  0  0  0  0
   -0.6472    1.7221    1.9983 C   0  0  0  0  0  0  0  0  0  0  0  0
   -2.1182    2.0322    2.3274 C   0  0  0  0  0  0  0  0  0  0  0  0
    0.1938    3.0038    2.1094 C   0  0  0  0  0  0  0  0  0  0  0  0
   -0.1347    0.6968    3.0218 C   0  0  0  0  0  0  0  0  0  0  0  0
   -1.9360   -0.1463    0.2184 C   0  0  0  0  0  0  0  0  0  0  0  0
   -3.3791    0.1808   -0.1761 C   0  0  1  0  0  0  0  0  0  0  0  0
   -3.7618    0.0023   -1.6706 C   0  0  0  0  0  0  0  0  0  0  0  0
   -5.2512   -0.3651   -1.6197 C   0  0  0  0  0  0  0  0  0  0  0  0
   -5.3605   -1.3476   -0.4377 C   0  0  0  0  0  0  0  0  0  0  0  0
   -4.2312   -0.9178    0.5236 C   0  0  1  0  0  0  0  0  0  0  0  0
   -3.2157   -2.0137    0.8701 C   0  0  0  0  0  0  0  0  0  0  0  0
   -3.4711   -3.1690    1.1701 O   0  0  0  0  0  0  0  0  0  0  0  0
   -1.8691   -1.3985    0.7553 C   0  0  0  0  0  0  0  0  0  0  0  0
   -1.4889    0.7287   -2.4718 H   0  0  0  0  0  0  0  0  0  0  0  0
    0.2577    1.0121   -2.6830 H   0  0  0  0  0  0  0  0  0  0  0  0
   -0.9164    2.2197   -3.2798 H   0  0  0  0  0  0  0  0  0  0  0  0
    1.5378    2.6260   -1.0340 H   0  0  0  0  0  0  0  0  0  0  0  0
    0.5658    3.9660   -0.3557 H   0  0  0  0  0  0  0  0  0  0  0  0
    0.6352    3.7177   -2.1224 H   0  0  0  0  0  0  0  0  0  0  0  0
   -1.8770    3.7610   -0.0428 H   0  0  0  0  0  0  0  0  0  0  0  0
   -2.8407    2.5947   -1.0088 H   0  0  0  0  0  0  0  0  0  0  0  0
   -1.9171    3.8856   -1.8191 H   0  0  0  0  0  0  0  0  0  0  0  0
   -2.5914    2.7205    1.6037 H   0  0  0  0  0  0  0  0  0  0  0  0
   -2.1605    2.5200    3.3241 H   0  0  0  0  0  0  0  0  0  0  0  0
   -2.7276    1.1100    2.3903 H   0  0  0  0  0  0  0  0  0  0  0  0
   -0.2362    3.8400    1.5268 H   0  0  0  0  0  0  0  0  0  0  0  0
    1.2429    2.8535    1.7931 H   0  0  0  0  0  0  0  0  0  0  0  0
    0.2127    3.3216    3.1733 H   0  0  0  0  0  0  0  0  0  0  0  0
   -0.6582   -0.2758    2.9416 H   0  0  0  0  0  0  0  0  0  0  0  0
   -0.3215    1.0911    4.0429 H   0  0  0  0  0  0  0  0  0  0  0  0
    0.9512    0.5183    2.9208 H   0  0  0  0  0  0  0  0  0  0  0  0
   -3.6711    1.1957    0.1560 H   0  0  0  0  0  0  0  0  0  0  0  0
   -3.1725   -0.8381   -2.0973 H   0  0  0  0  0  0  0  0  0  0  0  0
   -3.5609    0.8983   -2.2881 H   0  0  0  0  0  0  0  0  0  0  0  0
   -5.8473    0.5497   -1.4121 H   0  0  0  0  0  0  0  0  0  0  0  0
   -5.6237   -0.7836   -2.5761 H   0  0  0  0  0  0  0  0  0  0  0  0
   -5.1863   -2.3942   -0.7632 H   0  0  0  0  0  0  0  0  0  0  0  0
   -6.3582   -1.3288    0.0407 H   0  0  0  0  0  0  0  0  0  0  0  0
   -4.6216   -0.5396    1.4936 H   0  0  0  0  0  0  0  0  0  0  0  0
   -0.9628   -1.9386    1.0526 H   0  0  0  0  0  0  0  0  0  0  0  0
  1  6  1  0  0  0  0
  2  5  1  0  0  0  0
  2  1  1  0  0  0  0
  3  2  1  0  0  0  0
  4  2  1  0  0  0  0
  4 22  1  0  0  0  0
  4 23  1  0  0  0  0
  5 25  1  0  0  0  0
  6  8  1  0  0  0  0
  6  7  1  0  0  0  0
  6  9  1  0  0  0  0
  7 30  1  0  0  0  0
  7 29  1  0  0  0  0
  8 33  1  0  0  0  0
  9 35  1  0  0  0  0
 10  1  1  0  0  0  0
 10 18  2  0  0  0  0
 11 37  1  1  0  0  0
 11 10  1  0  0  0  0
 11 15  1  0  0  0  0
 12 13  1  0  0  0  0
 12 11  1  0  0  0  0
 13 40  1  0  0  0  0
 13 14  1  0  0  0  0
 14 43  1  0  0  0  0
 14 15  1  0  0  0  0
 15 16  1  0  0  0  0
 15 44  1  1  0  0  0
 16 17  2  0  0  0  0
 18 16  1  0  0  0  0
 18 45  1  0  0  0  0
 19  3  1  0  0  0  0
 20  3  1  0  0  0  0
 21  3  1  0  0  0  0
 24  4  1  0  0  0  0
 26  5  1  0  0  0  0
 27  5  1  0  0  0  0
 28  7  1  0  0  0  0
 31  8  1  0  0  0  0
 32  8  1  0  0  0  0
 34  9  1  0  0  0  0
 36  9  1  0  0  0  0
 38 12  1  0  0  0  0
 39 12  1  0  0  0  0
 41 13  1  0  0  0  0
 42 14  1  0  0  0  0
M  END
