1
q = 0.0, confidence = 0.994

 41 44  0  0  1  0  0  0  0  0999 V2000
   -0.2611    0.0063   -0.4201 P   0  0  0  0  0  2  0  0  0  0  0  0
   -1.3466   -1.3804   -0.3688 C   0  0  2  0  0  3  0  0  0  0  0  0
   -2.7344   -1.2289   -0.2328 C   0  0  0  0  0  0  0  0  0  0  0  0
   -3.3306   -2.1559   -0.2397 H   0  0  0  0  0  0  0  0  0  0  0  0
   -3.4312   -0.0037   -0.1404 C   0  0  0  0  0  0  0  0  0  0  0  0
   -2.7390    1.2258   -0.1995 C   0  0  0  0  0  0  0  0  0  0  0  0
   -3.3337    2.1507   -0.1222 H   0  0  0  0  0  0  0  0  0  0  0  0
   -1.3524    1.3871   -0.3355 C   0  0  0  0  0  0  0  0  0  0  0  0
   -0.7744    2.7541   -0.3507 C   0  0  0  0  0  0  0  0  0  0  0  0
   -1.1181    3.6869    0.6537 C   0  0  0  0  0  0  0  0  0  0  0  0
   -1.7996    3.3822    1.4623 H   0  0  0  0  0  0  0  0  0  0  0  0
   -0.5636    4.9736    0.6495 C   0  0  0  0  0  0  0  0  0  0  0  0
   -0.8287    5.6833    1.4476 H   0  0  0  0  0  0  0  0  0  0  0  0
    0.3401    5.3508   -0.3572 C   0  0  0  0  0  0  0  0  0  0  0  0
    0.7805    6.3592   -0.3546 H   0  0  0  0  0  0  0  0  0  0  0  0
    0.6812    4.4354   -1.3652 C   0  0  0  0  0  0  0  0  0  0  0  0
    1.3880    4.7198   -2.1588 H   0  0  0  0  0  0  0  0  0  0  0  0
    0.1266    3.1485   -1.3628 C   0  0  0  0  0  0  0  0  0  0  0  0
    0.3778    2.4377   -2.1637 H   0  0  0  0  0  0  0  0  0  0  0  0
   -0.7655   -2.7442   -0.4412 C   0  0  0  0  0  0  0  0  0  0  0  0
    0.1269   -3.1008   -1.4746 C   0  0  0  0  0  0  0  0  0  0  0  0
    0.3715   -2.3607   -2.2507 H   0  0  0  0  0  0  0  0  0  0  0  0
    0.6812   -4.3867   -1.5293 C   0  0  0  0  0  0  0  0  0  0  0  0
    1.3810   -4.6418   -2.3388 H   0  0  0  0  0  0  0  0  0  0  0  0
    0.3486   -5.3388   -0.5530 C   0  0  0  0  0  0  0  0  0  0  0  0
    0.7886   -6.3466   -0.5917 H   0  0  0  0  0  0  0  0  0  0  0  0
   -0.5460   -4.9992    0.4750 C   0  0  0  0  0  0  0  0  0  0  0  0
   -0.8041   -5.7381    1.2486 H   0  0  0  0  0  0  0  0  0  0  0  0
   -1.1001   -3.7136    0.5311 C   0  0  0  0  0  0  0  0  0  0  0  0
   -1.7747   -3.4387    1.3561 H   0  0  0  0  0  0  0  0  0  0  0  0
   -4.9094   -0.0077    0.0026 C   0  0  0  0  0  0  0  0  0  0  0  0
   -5.5603   -1.0012    0.7707 C   0  0  0  0  0  0  0  0  0  0  0  0
   -4.9610   -1.7652    1.2884 H   0  0  0  0  0  0  0  0  0  0  0  0
   -6.9539   -1.0033    0.9128 C   0  0  0  0  0  0  0  0  0  0  0  0
   -7.4375   -1.7795    1.5251 H   0  0  0  0  0  0  0  0  0  0  0  0
   -7.7302   -0.0142    0.2878 C   0  0  0  0  0  0  0  0  0  0  0  0
   -8.8250   -0.0168    0.3985 H   0  0  0  0  0  0  0  0  0  0  0  0
   -7.0993    0.9774   -0.4799 C   0  0  0  0  0  0  0  0  0  0  0  0
   -7.6992    1.7508   -0.9832 H   0  0  0  0  0  0  0  0  0  0  0  0
   -5.7053    0.9816   -0.6203 C   0  0  0  0  0  0  0  0  0  0  0  0
   -5.2257    1.7469   -1.2490 H   0  0  0  0  0  0  0  0  0  0  0  0
  1  2  1  0  0  0  0
  1  8  1  0  0  0  0
  2 20  1  1  0  0  0
  2  3  1  0  0  0  0
  3  5  2  0  0  0  0
  4  3  1  0  0  0  0
  5 31  1  0  0  0  0
  6  5  1  0  0  0  0
  6  7  1  0  0  0  0
  8  6  2  0  0  0  0
  9  8  1  0  0  0  0
  9 10  1  0  0  0  0
 10 11  1  0  0  0  0
 12 10  2  0  0  0  0
 12 13  1  0  0  0  0
 14 15  1  0  0  0  0
 14 12  1  0  0  0  0
 16 18  1  0  0  0  0
 16 14  2  0  0  0  0
 17 16  1  0  0  0  0
 18  9  2  0  0  0  0
 19 18  1  0  0  0  0
 20 29  1  0  0  0  0
 21 20  2  0  0  0  0
 22 21  1  0  0  0  0
 23 21  1  0  0  0  0
 23 25  2  0  0  0  0
 24 23  1  0  0  0  0
 25 27  1  0  0  0  0
 26 25  1  0  0  0  0
 27 29  2  0  0  0  0
 27 28  1  0  0  0  0
 29 30  1  0  0  0  0
 31 32  1  0  0  0  0
 32 34  2  0  0  0  0
 32 33  1  0  0  0  0
 34 35  1  0  0  0  0
 36 37  1  0  0  0  0
 36 34  1  0  0  0  0
 38 36  2  0  0  0  0
 39 38  1  0  0  0  0
 40 38  1  0  0  0  0
 40 31  2  0  0  0  0
 41 40  1  0  0  0  0
M  END
