1
q = 0.0, confidence = 0.998

 50 53  0  0  0  0  0  0  0  0999 V2000
    0.2105    0.3616   -0.0775 P   0  0  0  0  0  0  0  0  0  0  0  0
   -0.6671   -1.1317   -0.2569 C   0  0  0  0  0  0  0  0  0  0  0  0
   -2.0811   -1.1923   -0.2881 C   0  0  0  0  0  0  0  0  0  0  0  0
   -2.8822   -0.0233   -0.1144 C   0  0  0  0  0  0  0  0  0  0  0  0
   -2.3399    1.2702    0.0403 C   0  0  0  0  0  0  0  0  0  0  0  0
   -3.0651    2.0872    0.1891 H   0  0  0  0  0  0  0  0  0  0  0  0
   -0.9801    1.6281    0.0753 C   0  0  0  0  0  0  0  0  0  0  0  0
    0.1943   -2.3409   -0.4274 C   0  0  0  0  0  0  0  0  0  0  0  0
    0.3151   -3.3122    0.6009 C   0  0  0  0  0  0  0  0  0  0  0  0
    1.1600   -4.4355    0.3928 C   0  0  0  0  0  0  0  0  0  0  0  0
    1.8664   -4.5579   -0.8178 C   0  0  0  0  0  0  0  0  0  0  0  0
    2.5222   -5.4302   -0.9662 H   0  0  0  0  0  0  0  0  0  0  0  0
    1.7601   -3.5873   -1.8222 C   0  0  0  0  0  0  0  0  0  0  0  0
    2.3306   -3.6899   -2.7571 H   0  0  0  0  0  0  0  0  0  0  0  0
    0.9299   -2.4796   -1.6250 C   0  0  0  0  0  0  0  0  0  0  0  0
    0.8374   -1.7064   -2.4022 H   0  0  0  0  0  0  0  0  0  0  0  0
   -0.4048   -3.1630    1.9167 C   0  0  0  0  0  0  0  0  0  0  0  0
   -1.1258   -3.9919    2.0842 H   0  0  0  0  0  0  0  0  0  0  0  0
   -0.9568   -2.2079    1.9852 H   0  0  0  0  0  0  0  0  0  0  0  0
    0.3086   -3.1988    2.7662 H   0  0  0  0  0  0  0  0  0  0  0  0
    1.3114   -5.4798    1.4687 C   0  0  0  0  0  0  0  0  0  0  0  0
    1.9815   -6.2983    1.1443 H   0  0  0  0  0  0  0  0  0  0  0  0
    0.3348   -5.9284    1.7487 H   0  0  0  0  0  0  0  0  0  0  0  0
    1.7334   -5.0470    2.4007 H   0  0  0  0  0  0  0  0  0  0  0  0
   -2.7294   -2.5308   -0.5593 C   0  0  0  0  0  0  0  0  0  0  0  0
   -2.0760   -3.1563   -1.1962 H   0  0  0  0  0  0  0  0  0  0  0  0
   -3.7132   -2.4118   -1.0491 H   0  0  0  0  0  0  0  0  0  0  0  0
   -2.8990   -3.1007    0.3782 H   0  0  0  0  0  0  0  0  0  0  0  0
   -4.3719   -0.1189   -0.0903 C   0  0  0  0  0  0  0  0  0  0  0  0
   -5.1493    0.6480   -0.9856 C   0  0  0  0  0  0  0  0  0  0  0  0
   -4.6423    1.2812   -1.7300 H   0  0  0  0  0  0  0  0  0  0  0  0
   -6.5502    0.5923   -0.9489 C   0  0  0  0  0  0  0  0  0  0  0  0
   -7.1390    1.1892   -1.6618 H   0  0  0  0  0  0  0  0  0  0  0  0
   -7.1987   -0.2242   -0.0095 C   0  0  0  0  0  0  0  0  0  0  0  0
   -8.2978   -0.2670    0.0213 H   0  0  0  0  0  0  0  0  0  0  0  0
   -6.4373   -0.9842    0.8931 C   0  0  0  0  0  0  0  0  0  0  0  0
   -6.9383   -1.6176    1.6409 H   0  0  0  0  0  0  0  0  0  0  0  0
   -5.0373   -0.9340    0.8517 C   0  0  0  0  0  0  0  0  0  0  0  0
   -4.4465   -1.5181    1.5732 H   0  0  0  0  0  0  0  0  0  0  0  0
   -0.5585    3.0409    0.2210 C   0  0  0  0  0  0  0  0  0  0  0  0
   -1.2737    4.0675   -0.4395 C   0  0  0  0  0  0  0  0  0  0  0  0
   -2.1296    3.8057   -1.0799 H   0  0  0  0  0  0  0  0  0  0  0  0
   -0.8808    5.4063   -0.3171 C   0  0  0  0  0  0  0  0  0  0  0  0
   -1.4442    6.1896   -0.8465 H   0  0  0  0  0  0  0  0  0  0  0  0
    0.2355    5.7469    0.4640 C   0  0  0  0  0  0  0  0  0  0  0  0
    0.5463    6.7985    0.5558 H   0  0  0  0  0  0  0  0  0  0  0  0
    0.9544    4.7383    1.1243 C   0  0  0  0  0  0  0  0  0  0  0  0
    1.8283    4.9940    1.7419 H   0  0  0  0  0  0  0  0  0  0  0  0
    0.5615    3.3987    1.0072 C   0  0  0  0  0  0  0  0  0  0  0  0
    1.1207    2.6183    1.5453 H   0  0  0  0  0  0  0  0  0  0  0  0
  1  7  1  0  0  0  0
  2  1  2  0  0  0  0
  3  2  1  0  0  0  0
  3  4  2  0  0  0  0
  4 29  1  0  0  0  0
  4  5  1  0  0  0  0
  5  7  2  0  0  0  0
  5  6  1  0  0  0  0
  7 40  1  0  0  0  0
  8  2  1  0  0  0  0
  8  9  1  0  0  0  0
  9 17  1  0  0  0  0
 10  9  2  0  0  0  0
 10 21  1  0  0  0  0
 11 10  1  0  0  0  0
 12 11  1  0  0  0  0
 13 15  1  0  0  0  0
 13 11  2  0  0  0  0
 14 13  1  0  0  0  0
 15  8  2  0  0  0  0
 16 15  1  0  0  0  0
 17 19  1  0  0  0  0
 17 18  1  0  0  0  0
 17 20  1  0  0  0  0
 21 23  1  0  0  0  0
 21 24  1  0  0  0  0
 22 21  1  0  0  0  0
 25  3  1  0  0  0  0
 25 28  1  0  0  0  0
 26 25  1  0  0  0  0
 27 25  1  0  0  0  0
 29 38  1  0  0  0  0
 30 32  1  0  0  0  0
 30 29  2  0  0  0  0
 31 30  1  0  0  0  0
 32 34  2  0  0  0  0
 33 32  1  0  0  0  0
 34 35  1  0  0  0  0
 34 36  1  0  0  0  0
 36 37  1  0  0  0  0
 38 36  2  0  0  0  0
 38 39  1  0  0  0  0
 40 49  1  0  0  0  0
 41 43  1  0  0  0  0
 41 40  2  0  0  0  0
 42 41  1  0  0  0  0
 43 45  2  0  0  0  0
 44 43  1  0  0  0  0
 45 46  1  0  0  0  0
 45 47  1  0  0  0  0
 47 48  1  0  0  0  0
 49 47  2  0  0  0  0
 49 50  1  0  0  0  0
M  END
