1
q = 0.0, confidence = 0.996

 43 45  0  0  0  0  0  0  0  0999 V2000
   -2.0875    0.9003   -0.1293 P   0  0  1  0  0  0  0  0  0  0  0  0
   -1.7573    2.5984    0.5706 C   0  0  0  0  0  0  0  0  0  0  0  0
   -0.8712    3.4131   -0.3932 C   0  0  0  0  0  0  0  0  0  0  0  0
   -0.5479    4.8001    0.1777 C   0  0  0  0  0  0  0  0  0  0  0  0
    0.0972    4.7037    1.5650 C   0  0  0  0  0  0  0  0  0  0  0  0
   -0.7908    3.9058    2.5263 C   0  0  0  0  0  0  0  0  0  0  0  0
   -1.1156    2.5137    1.9680 C   0  0  0  0  0  0  0  0  0  0  0  0
   -3.4038    0.1427    0.9053 C   0  0  0  0  0  0  0  0  0  0  0  0
   -3.5930   -1.2517    0.7976 C   0  0  0  0  0  0  0  0  0  0  0  0
   -4.6568   -1.8744    1.4626 C   0  0  0  0  0  0  0  0  0  0  0  0
   -5.5378   -1.1143    2.2487 C   0  0  0  0  0  0  0  0  0  0  0  0
   -5.3545    0.2727    2.3626 C   0  0  0  0  0  0  0  0  0  0  0  0
   -4.2958    0.9021    1.6882 C   0  0  0  0  0  0  0  0  0  0  0  0
   -3.0725    1.2366   -1.6906 C   0  0  0  0  0  0  0  0  0  0  0  0
   -3.7910    0.0050   -2.1754 C   0  0  0  0  0  0  0  0  0  0  0  0
   -3.0903   -1.0153   -2.8544 C   0  0  0  0  0  0  0  0  0  0  0  0
   -3.7500   -2.1912   -3.2410 C   0  0  0  0  0  0  0  0  0  0  0  0
   -5.1148   -2.3673   -2.9593 C   0  0  0  0  0  0  0  0  0  0  0  0
   -5.8202   -1.3546   -2.2906 C   0  0  0  0  0  0  0  0  0  0  0  0
   -5.1609   -0.1800   -1.8999 C   0  0  0  0  0  0  0  0  0  0  0  0
   -1.3544    3.5082   -1.3862 H   0  0  0  0  0  0  0  0  0  0  0  0
    0.0695    2.8492   -0.5721 H   0  0  0  0  0  0  0  0  0  0  0  0
    0.1160    5.3438   -0.5267 H   0  0  0  0  0  0  0  0  0  0  0  0
   -1.4841    5.3990    0.2497 H   0  0  0  0  0  0  0  0  0  0  0  0
   -1.7386    4.4646    2.6994 H   0  0  0  0  0  0  0  0  0  0  0  0
   -0.3032    3.8037    3.5182 H   0  0  0  0  0  0  0  0  0  0  0  0
   -6.3706   -1.6044    2.7757 H   0  0  0  0  0  0  0  0  0  0  0  0
   -3.7869    2.0476   -1.4406 H   0  0  0  0  0  0  0  0  0  0  0  0
   -2.3313    1.5961   -2.4315 H   0  0  0  0  0  0  0  0  0  0  0  0
   -3.1908   -2.9778   -3.7707 H   0  0  0  0  0  0  0  0  0  0  0  0
   -5.6292   -3.2916   -3.2639 H   0  0  0  0  0  0  0  0  0  0  0  0
   -6.8903   -1.4809   -2.0658 H   0  0  0  0  0  0  0  0  0  0  0  0
   -5.7135    0.6037   -1.3579 H   0  0  0  0  0  0  0  0  0  0  0  0
   -2.7475    3.1043    0.6500 H   0  0  0  0  0  0  0  0  0  0  0  0
    1.0833    4.1947    1.4749 H   0  0  0  0  0  0  0  0  0  0  0  0
    0.3014    5.7160    1.9721 H   0  0  0  0  0  0  0  0  0  0  0  0
   -0.1813    1.9156    1.8885 H   0  0  0  0  0  0  0  0  0  0  0  0
   -1.7765    1.9641    2.6690 H   0  0  0  0  0  0  0  0  0  0  0  0
   -2.8908   -1.8444    0.1912 H   0  0  0  0  0  0  0  0  0  0  0  0
   -4.7974   -2.9612    1.3653 H   0  0  0  0  0  0  0  0  0  0  0  0
   -6.0417    0.8725    2.9786 H   0  0  0  0  0  0  0  0  0  0  0  0
   -4.1722    1.9918    1.7780 H   0  0  0  0  0  0  0  0  0  0  0  0
   -2.0195   -0.8720   -3.0692 H   0  0  0  0  0  0  0  0  0  0  0  0
  1 14  1  6  0  0  0
  1  2  1  0  0  0  0
  1  8  1  0  0  0  0
  2 34  1  0  0  0  0
  2  7  1  0  0  0  0
  3  4  1  0  0  0  0
  3  2  1  0  0  0  0
  4 24  1  0  0  0  0
  4  5  1  0  0  0  0
  5 36  1  0  0  0  0
  5  6  1  0  0  0  0
  6 25  1  0  0  0  0
  6 26  1  0  0  0  0
  7  6  1  0  0  0  0
  7 38  1  0  0  0  0
  8 13  1  0  0  0  0
  9  8  2  0  0  0  0
  9 10  1  0  0  0  0
 10 11  2  0  0  0  0
 11 12  1  0  0  0  0
 11 27  1  0  0  0  0
 12 41  1  0  0  0  0
 13 42  1  0  0  0  0
 13 12  2  0  0  0  0
 14 28  1  0  0  0  0
 15 20  1  0  0  0  0
 15 14  1  0  0  0  0
 16 15  2  0  0  0  0
 17 18  2  0  0  0  0
 17 16  1  0  0  0  0
 18 19  1  0  0  0  0
 19 32  1  0  0  0  0
 19 20  2  0  0  0  0
 20 33  1  0  0  0  0
 21  3  1  0  0  0  0
 22  3  1  0  0  0  0
 23  4  1  0  0  0  0
 29 14  1  0  0  0  0
 30 17  1  0  0  0  0
 31 18  1  0  0  0  0
 35  5  1  0  0  0  0
 37  7  1  0  0  0  0
 39  9  1  0  0  0  0
 40 10  1  0  0  0  0
 43 16  1  0  0  0  0
M  END
