1
q = 0.0, confidence = 1.0

 60 64  0  0  0  0  0  0  0  0999 V2000
    1.6209    0.1665   -0.1805 P   0  0  0  0  0  0  0  0  0  0  0  0
    1.7799   -0.4460    1.4022 N   0  0  0  0  0  0  0  0  0  0  0  0
    0.8303   -0.0455    2.4634 C   0  0  0  0  0  0  0  0  0  0  0  0
    1.1540    0.9155    2.9195 H   0  0  0  0  0  0  0  0  0  0  0  0
    0.9316   -0.8034    3.2673 H   0  0  0  0  0  0  0  0  0  0  0  0
   -0.6317    0.0275    2.0777 C   0  0  0  0  0  0  0  0  0  0  0  0
   -1.2790    1.2871    1.9062 C   0  0  0  0  0  0  0  0  0  0  0  0
   -0.5822    2.5419    1.9403 C   0  0  0  0  0  0  0  0  0  0  0  0
    0.5005    2.5606    2.1200 H   0  0  0  0  0  0  0  0  0  0  0  0
   -1.2370    3.7386    1.7186 C   0  0  0  0  0  0  0  0  0  0  0  0
   -0.6675    4.6797    1.7372 H   0  0  0  0  0  0  0  0  0  0  0  0
   -2.6414    3.7678    1.4681 C   0  0  0  0  0  0  0  0  0  0  0  0
   -3.1484    4.7308    1.3081 H   0  0  0  0  0  0  0  0  0  0  0  0
   -3.3567    2.5877    1.4374 C   0  0  0  0  0  0  0  0  0  0  0  0
   -4.4425    2.5939    1.2539 H   0  0  0  0  0  0  0  0  0  0  0  0
   -2.7103    1.3241    1.6400 C   0  0  0  0  0  0  0  0  0  0  0  0
   -3.4329    0.1205    1.5628 C   0  0  0  0  0  0  0  0  0  0  0  0
   -4.5188    0.1581    1.3805 H   0  0  0  0  0  0  0  0  0  0  0  0
   -2.8012   -1.1302    1.6806 C   0  0  0  0  0  0  0  0  0  0  0  0
   -3.5354   -2.3528    1.5388 C   0  0  0  0  0  0  0  0  0  0  0  0
   -4.6223   -2.2925    1.3734 H   0  0  0  0  0  0  0  0  0  0  0  0
   -2.8998   -3.5770    1.6042 C   0  0  0  0  0  0  0  0  0  0  0  0
   -3.4740   -4.5091    1.4956 H   0  0  0  0  0  0  0  0  0  0  0  0
   -1.4903   -3.6346    1.8204 C   0  0  0  0  0  0  0  0  0  0  0  0
   -0.9884   -4.6129    1.8653 H   0  0  0  0  0  0  0  0  0  0  0  0
   -0.7510   -2.4767    1.9820 C   0  0  0  0  0  0  0  0  0  0  0  0
    0.3341   -2.5474    2.1294 H   0  0  0  0  0  0  0  0  0  0  0  0
   -1.3703   -1.1833    1.9257 C   0  0  0  0  0  0  0  0  0  0  0  0
    3.0993   -0.8607    1.9141 C   0  0  0  0  0  0  0  0  0  0  0  0
    3.3994   -0.1821    2.7474 H   0  0  0  0  0  0  0  0  0  0  0  0
    3.8573   -0.7234    1.1173 H   0  0  0  0  0  0  0  0  0  0  0  0
    3.1460   -2.3162    2.3898 C   0  0  0  0  0  0  0  0  0  0  0  0
    2.3901   -2.4772    3.1888 H   0  0  0  0  0  0  0  0  0  0  0  0
    2.8510   -2.9690    1.5414 H   0  0  0  0  0  0  0  0  0  0  0  0
    4.5312   -2.7061    2.9053 C   0  0  0  0  0  0  0  0  0  0  0  0
    5.3012   -2.5937    2.1143 H   0  0  0  0  0  0  0  0  0  0  0  0
    4.5528   -3.7598    3.2448 H   0  0  0  0  0  0  0  0  0  0  0  0
    4.8395   -2.0739    3.7635 H   0  0  0  0  0  0  0  0  0  0  0  0
    2.1342    1.9226   -0.2412 C   0  0  0  0  0  0  0  0  0  0  0  0
    3.0467    2.4347    0.7053 C   0  0  0  0  0  0  0  0  0  0  0  0
    3.4813    1.7776    1.4724 H   0  0  0  0  0  0  0  0  0  0  0  0
    3.3975    3.7927    0.6743 C   0  0  0  0  0  0  0  0  0  0  0  0
    4.1059    4.1910    1.4158 H   0  0  0  0  0  0  0  0  0  0  0  0
    2.8457    4.6411   -0.2998 C   0  0  0  0  0  0  0  0  0  0  0  0
    3.1216    5.7060   -0.3197 H   0  0  0  0  0  0  0  0  0  0  0  0
    1.9403    4.1327   -1.2458 C   0  0  0  0  0  0  0  0  0  0  0  0
    1.5066    4.7975   -2.0077 H   0  0  0  0  0  0  0  0  0  0  0  0
    1.5789    2.7788   -1.2134 C   0  0  0  0  0  0  0  0  0  0  0  0
    0.8513    2.3807   -1.9395 H   0  0  0  0  0  0  0  0  0  0  0  0
    2.8435   -0.7873   -1.1371 C   0  0  0  0  0  0  0  0  0  0  0  0
    3.9698   -0.1754   -1.7205 C   0  0  0  0  0  0  0  0  0  0  0  0
    4.1329    0.9067   -1.6067 H   0  0  0  0  0  0  0  0  0  0  0  0
    4.8849   -0.9551   -2.4456 C   0  0  0  0  0  0  0  0  0  0  0  0
    5.7650   -0.4779   -2.9015 H   0  0  0  0  0  0  0  0  0  0  0  0
    4.6796   -2.3358   -2.5870 C   0  0  0  0  0  0  0  0  0  0  0  0
    5.4001   -2.9428   -3.1553 H   0  0  0  0  0  0  0  0  0  0  0  0
    3.5508   -2.9448   -2.0109 C   0  0  0  0  0  0  0  0  0  0  0  0
    3.3864   -4.0261   -2.1292 H   0  0  0  0  0  0  0  0  0  0  0  0
    2.6282   -2.1743   -1.2924 C   0  0  0  0  0  0  0  0  0  0  0  0
    1.7364   -2.6447   -0.8485 H   0  0  0  0  0  0  0  0  0  0  0  0
  1  2  1  0  0  0  0
  2 29  1  0  0  0  0
  2  3  1  0  0  0  0
  3  4  1  0  0  0  0
  3  5  1  0  0  0  0
  6  3  1  0  0  0  0
  7  8  1  0  0  0  0
  7  6  2  0  0  0  0
  8  9  1  0  0  0  0
 10 11  1  0  0  0  0
 10  8  2  0  0  0  0
 12 10  1  0  0  0  0
 13 12  1  0  0  0  0
 14 12  2  0  0  0  0
 14 16  1  0  0  0  0
 15 14  1  0  0  0  0
 16  7  1  0  0  0  0
 17 16  2  0  0  0  0
 17 19  1  0  0  0  0
 18 17  1  0  0  0  0
 19 28  1  0  0  0  0
 20 22  1  0  0  0  0
 20 19  2  0  0  0  0
 21 20  1  0  0  0  0
 22 24  2  0  0  0  0
 23 22  1  0  0  0  0
 24 25  1  0  0  0  0
 24 26  1  0  0  0  0
 26 27  1  0  0  0  0
 28 26  2  0  0  0  0
 28  6  1  0  0  0  0
 29 32  1  0  0  0  0
 29 30  1  0  0  0  0
 31 29  1  0  0  0  0
 32 35  1  0  0  0  0
 32 33  1  0  0  0  0
 34 32  1  0  0  0  0
 35 37  1  0  0  0  0
 35 38  1  0  0  0  0
 36 35  1  0  0  0  0
 39  1  1  0  0  0  0
 39 40  1  0  0  0  0
 40 41  1  0  0  0  0
 42 40  2  0  0  0  0
 42 43  1  0  0  0  0
 44 42  1  0  0  0  0
 45 44  1  0  0  0  0
 46 48  1  0  0  0  0
 46 44  2  0  0  0  0
 47 46  1  0  0  0  0
 48 39  2  0  0  0  0
 49 48  1  0  0  0  0
 50  1  1  0  0  0  0
 51 52  1  0  0  0  0
 51 50  2  0  0  0  0
 53 51  1  0  0  0  0
 54 53  1  0  0  0  0
 55 53  2  0  0  0  0
 55 57  1  0  0  0  0
 56 55  1  0  0  0  0
 57 59  2  0  0  0  0
 58 57  1  0  0  0  0
 59 50  1  0  0  0  0
 59 60  1  0  0  0  0
M  END
