1
q = 0.0, confidence = 1.0

 35 38  0  0  0  0  0  0  0  0999 V2000
   -1.0694   -0.3198   -1.2644 P   0  0  0  0  0  0  0  0  0  0  0  0
   -2.5311   -0.6289   -1.9367 O   0  0  0  0  0  0  0  0  0  0  0  0
   -1.4195    1.0440   -0.3880 O   0  0  0  0  0  0  0  0  0  0  0  0
   -0.3482    0.1877   -2.6462 O   0  0  0  0  0  0  0  0  0  0  0  0
   -3.6513   -0.7081   -1.1053 C   0  0  0  0  0  0  0  0  0  0  0  0
   -4.1765   -1.9725   -0.8119 C   0  0  0  0  0  0  0  0  0  0  0  0
   -3.6218   -2.8572   -1.1570 H   0  0  0  0  0  0  0  0  0  0  0  0
   -5.3727   -2.0604   -0.0871 C   0  0  0  0  0  0  0  0  0  0  0  0
   -5.7950   -3.0490    0.1466 H   0  0  0  0  0  0  0  0  0  0  0  0
   -6.0281   -0.8905    0.3321 C   0  0  0  0  0  0  0  0  0  0  0  0
   -6.9696   -0.9569    0.8975 H   0  0  0  0  0  0  0  0  0  0  0  0
   -5.4734    0.3647    0.0533 C   0  0  0  0  0  0  0  0  0  0  0  0
   -5.9666    1.2778    0.4188 H   0  0  0  0  0  0  0  0  0  0  0  0
   -4.2607    0.4887   -0.6604 C   0  0  0  0  0  0  0  0  0  0  0  0
   -3.6651    1.8138   -0.9463 C   0  0  0  0  0  0  0  0  0  0  0  0
   -4.4730    2.9165   -1.3059 C   0  0  0  0  0  0  0  0  0  0  0  0
   -5.5574    2.7604   -1.4071 H   0  0  0  0  0  0  0  0  0  0  0  0
   -3.9229    4.1783   -1.5627 C   0  0  0  0  0  0  0  0  0  0  0  0
   -4.5799    5.0122   -1.8503 H   0  0  0  0  0  0  0  0  0  0  0  0
   -2.5348    4.3719   -1.4699 C   0  0  0  0  0  0  0  0  0  0  0  0
   -2.0937    5.3576   -1.6803 H   0  0  0  0  0  0  0  0  0  0  0  0
   -1.7070    3.2998   -1.1123 C   0  0  0  0  0  0  0  0  0  0  0  0
   -0.6170    3.4129   -1.0247 H   0  0  0  0  0  0  0  0  0  0  0  0
   -2.2711    2.0444   -0.8457 C   0  0  0  0  0  0  0  0  0  0  0  0
    1.0501    0.1523   -2.7563 C   0  0  0  0  0  0  0  0  0  0  0  0
    1.7319    1.3730   -2.8390 C   0  0  0  0  0  0  0  0  0  0  0  0
    1.1603    2.3111   -2.8022 H   0  0  0  0  0  0  0  0  0  0  0  0
    3.1287    1.3618   -2.9612 C   0  0  0  0  0  0  0  0  0  0  0  0
    3.6750    2.3148   -3.0258 H   0  0  0  0  0  0  0  0  0  0  0  0
    3.8263    0.1430   -2.9859 C   0  0  0  0  0  0  0  0  0  0  0  0
    4.9222    0.1375   -3.0696 H   0  0  0  0  0  0  0  0  0  0  0  0
    3.1252   -1.0695   -2.8977 C   0  0  0  0  0  0  0  0  0  0  0  0
    3.6688   -2.0257   -2.9086 H   0  0  0  0  0  0  0  0  0  0  0  0
    1.7252   -1.0766   -2.7920 C   0  0  0  0  0  0  0  0  0  0  0  0
    1.1553   -2.0164   -2.7343 H   0  0  0  0  0  0  0  0  0  0  0  0
  1  3  1  0  0  0  0
  2  1  1  0  0  0  0
  2  5  1  0  0  0  0
  4  1  1  0  0  0  0
  5  6  2  0  0  0  0
  5 14  1  0  0  0  0
  6  8  1  0  0  0  0
  7  6  1  0  0  0  0
  8  9  1  0  0  0  0
  8 10  2  0  0  0  0
 10 11  1  0  0  0  0
 12 10  1  0  0  0  0
 12 13  1  0  0  0  0
 14 12  2  0  0  0  0
 15 24  1  0  0  0  0
 15 14  1  0  0  0  0
 16 15  2  0  0  0  0
 17 16  1  0  0  0  0
 18 20  2  0  0  0  0
 18 16  1  0  0  0  0
 19 18  1  0  0  0  0
 20 22  1  0  0  0  0
 21 20  1  0  0  0  0
 22 23  1  0  0  0  0
 22 24  2  0  0  0  0
 24  3  1  0  0  0  0
 25  4  1  0  0  0  0
 26 27  1  0  0  0  0
 26 25  2  0  0  0  0
 28 26  1  0  0  0  0
 29 28  1  0  0  0  0
 30 28  2  0  0  0  0
 30 32  1  0  0  0  0
 31 30  1  0  0  0  0
 32 34  2  0  0  0  0
 33 32  1  0  0  0  0
 34 25  1  0  0  0  0
 34 35  1  0  0  0  0
M  END
