1
q = 0.0, confidence = 1.0

 57 62  0  0  0  0  0  0  0  0999 V2000
   -1.1450    0.3134    0.5199 P   0  0  0  0  0  0  0  0  0  0  0  0
    0.8915   -0.3693   -2.8038 O   0  0  0  0  0  0  0  0  0  0  0  0
    0.3137   -1.0178   -3.2828 H   0  0  0  0  0  0  0  0  0  0  0  0
    0.1085    1.5826    0.0252 C   0  0  0  0  0  0  0  0  0  0  0  0
   -0.2043    2.9677    0.1612 C   0  0  0  0  0  0  0  0  0  0  0  0
   -1.1809    3.2652    0.5687 H   0  0  0  0  0  0  0  0  0  0  0  0
    0.7055    3.9392   -0.2178 C   0  0  0  0  0  0  0  0  0  0  0  0
    0.4543    5.0054   -0.1064 H   0  0  0  0  0  0  0  0  0  0  0  0
    1.9719    3.5806   -0.7578 C   0  0  0  0  0  0  0  0  0  0  0  0
    2.9242    4.5609   -1.1640 C   0  0  0  0  0  0  0  0  0  0  0  0
    2.6625    5.6254   -1.0588 H   0  0  0  0  0  0  0  0  0  0  0  0
    4.1535    4.1842   -1.6817 C   0  0  0  0  0  0  0  0  0  0  0  0
    4.8800    4.9504   -1.9923 H   0  0  0  0  0  0  0  0  0  0  0  0
    4.4806    2.8075   -1.8131 C   0  0  0  0  0  0  0  0  0  0  0  0
    5.4585    2.5166   -2.2255 H   0  0  0  0  0  0  0  0  0  0  0  0
    3.5770    1.8300   -1.4264 C   0  0  0  0  0  0  0  0  0  0  0  0
    3.8283    0.7646   -1.5276 H   0  0  0  0  0  0  0  0  0  0  0  0
    2.3009    2.1825   -0.8924 C   0  0  0  0  0  0  0  0  0  0  0  0
    1.3535    1.1790   -0.4902 C   0  0  0  0  0  0  0  0  0  0  0  0
    1.7430   -0.2621   -0.5851 C   0  0  0  0  0  0  0  0  0  0  0  0
    2.4307   -0.8954    0.5053 C   0  0  0  0  0  0  0  0  0  0  0  0
    2.8216   -0.1794    1.6760 C   0  0  0  0  0  0  0  0  0  0  0  0
    2.6003    0.8957    1.7390 H   0  0  0  0  0  0  0  0  0  0  0  0
    3.4683   -0.8190    2.7233 C   0  0  0  0  0  0  0  0  0  0  0  0
    3.7554   -0.2442    3.6169 H   0  0  0  0  0  0  0  0  0  0  0  0
    3.7598   -2.2066    2.6559 C   0  0  0  0  0  0  0  0  0  0  0  0
    4.2730   -2.7021    3.4937 H   0  0  0  0  0  0  0  0  0  0  0  0
    3.3983   -2.9306    1.5293 C   0  0  0  0  0  0  0  0  0  0  0  0
    3.6218   -4.0070    1.4597 H   0  0  0  0  0  0  0  0  0  0  0  0
    2.7356   -2.3040    0.4355 C   0  0  0  0  0  0  0  0  0  0  0  0
    2.3588   -3.0295   -0.7324 C   0  0  0  0  0  0  0  0  0  0  0  0
    2.5717   -4.1087   -0.7807 H   0  0  0  0  0  0  0  0  0  0  0  0
    1.7466   -2.3986   -1.7970 C   0  0  0  0  0  0  0  0  0  0  0  0
    1.4488   -2.9596   -2.6947 H   0  0  0  0  0  0  0  0  0  0  0  0
    1.4558   -1.0010   -1.7439 C   0  0  0  0  0  0  0  0  0  0  0  0
   -2.6631    1.2693    0.9207 C   0  0  0  0  0  0  0  0  0  0  0  0
   -3.3665    1.8401   -0.1637 C   0  0  0  0  0  0  0  0  0  0  0  0
   -2.9876    1.7080   -1.1899 H   0  0  0  0  0  0  0  0  0  0  0  0
   -4.5452    2.5615    0.0624 C   0  0  0  0  0  0  0  0  0  0  0  0
   -5.0834    3.0059   -0.7883 H   0  0  0  0  0  0  0  0  0  0  0  0
   -5.0460    2.7024    1.3682 C   0  0  0  0  0  0  0  0  0  0  0  0
   -5.9777    3.2610    1.5439 H   0  0  0  0  0  0  0  0  0  0  0  0
   -4.3629    2.1176    2.4443 C   0  0  0  0  0  0  0  0  0  0  0  0
   -4.7580    2.2126    3.4670 H   0  0  0  0  0  0  0  0  0  0  0  0
   -3.1730    1.4036    2.2257 C   0  0  0  0  0  0  0  0  0  0  0  0
   -2.6486    0.9423    3.0747 H   0  0  0  0  0  0  0  0  0  0  0  0
   -0.5227   -0.3687    2.0970 C   0  0  0  0  0  0  0  0  0  0  0  0
   -0.1233    0.4964    3.1377 C   0  0  0  0  0  0  0  0  0  0  0  0
   -0.1785    1.5875    2.9998 H   0  0  0  0  0  0  0  0  0  0  0  0
    0.3607   -0.0356    4.3401 C   0  0  0  0  0  0  0  0  0  0  0  0
    0.6680    0.6399    5.1527 H   0  0  0  0  0  0  0  0  0  0  0  0
    0.4765   -1.4266    4.4969 C   0  0  0  0  0  0  0  0  0  0  0  0
    0.8747   -1.8421    5.4349 H   0  0  0  0  0  0  0  0  0  0  0  0
    0.1053   -2.2866    3.4524 C   0  0  0  0  0  0  0  0  0  0  0  0
    0.2185   -3.3749    3.5651 H   0  0  0  0  0  0  0  0  0  0  0  0
   -0.4013   -1.7617    2.2545 C   0  0  0  0  0  0  0  0  0  0  0  0
   -0.6860   -2.4259    1.4233 H   0  0  0  0  0  0  0  0  0  0  0  0
  1 36  1  0  0  0  0
  1 47  1  0  0  0  0
  2 35  1  0  0  0  0
  3  2  1  0  0  0  0
  4  5  1  0  0  0  0
  4  1  1  0  0  0  0
  5  6  1  0  0  0  0
  7  8  1  0  0  0  0
  7  5  2  0  0  0  0
  9  7  1  0  0  0  0
 10 11  1  0  0  0  0
 10  9  2  0  0  0  0
 12 10  1  0  0  0  0
 13 12  1  0  0  0  0
 14 12  2  0  0  0  0
 14 16  1  0  0  0  0
 15 14  1  0  0  0  0
 16 18  2  0  0  0  0
 17 16  1  0  0  0  0
 18  9  1  0  0  0  0
 18 19  1  0  0  0  0
 19  4  2  0  0  0  0
 20 19  1  0  0  0  0
 20 21  1  0  0  0  0
 21 22  1  0  0  0  0
 22 23  1  0  0  0  0
 22 24  2  0  0  0  0
 24 25  1  0  0  0  0
 26 24  1  0  0  0  0
 26 27  1  0  0  0  0
 28 26  2  0  0  0  0
 29 28  1  0  0  0  0
 30 21  2  0  0  0  0
 30 28  1  0  0  0  0
 31 30  1  0  0  0  0
 32 31  1  0  0  0  0
 33 35  1  0  0  0  0
 33 31  2  0  0  0  0
 34 33  1  0  0  0  0
 35 20  2  0  0  0  0
 36 45  1  0  0  0  0
 37 39  1  0  0  0  0
 37 36  2  0  0  0  0
 38 37  1  0  0  0  0
 39 41  2  0  0  0  0
 40 39  1  0  0  0  0
 41 42  1  0  0  0  0
 41 43  1  0  0  0  0
 43 44  1  0  0  0  0
 45 43  2  0  0  0  0
 45 46  1  0  0  0  0
 47 56  2  0  0  0  0
 47 48  1  0  0  0  0
 48 50  2  0  0  0  0
 49 48  1  0  0  0  0
 50 52  1  0  0  0  0
 50 51  1  0  0  0  0
 52 53  1  0  0  0  0
 54 55  1  0  0  0  0
 54 52  2  0  0  0  0
 56 54  1  0  0  0  0
 57 56  1  0  0  0  0
M  END
