1
q = 0.0, confidence = 1.0

 47 49  0  0  0  0  0  0  0  0999 V2000
   -0.8151    0.7962    0.0771 P   0  0  0  0  0  0  0  0  0  0  0  0
   -3.5628   -1.6598   -1.8493 O   0  0  0  0  0  0  0  0  0  0  0  0
   -1.5454   -2.2083   -0.8893 N   0  0  0  0  0  0  0  0  0  0  0  0
   -1.0245   -2.2421    0.0114 H   0  0  0  0  0  0  0  0  0  0  0  0
   -0.8957    4.9151    0.6736 C   0  0  0  0  0  0  0  0  0  0  0  0
   -1.2793    5.8125    0.1646 H   0  0  0  0  0  0  0  0  0  0  0  0
   -1.1203    3.6485    0.1109 C   0  0  0  0  0  0  0  0  0  0  0  0
   -1.6705    3.5589   -0.8374 H   0  0  0  0  0  0  0  0  0  0  0  0
   -2.6594    1.4419   -1.9718 C   0  0  0  0  0  0  0  0  0  0  0  0
   -3.3642    1.6827   -1.1619 H   0  0  0  0  0  0  0  0  0  0  0  0
   -4.3236   -1.2573    1.0089 C   0  0  0  0  0  0  0  0  0  0  0  0
   -4.9345   -2.0421    0.5383 H   0  0  0  0  0  0  0  0  0  0  0  0
   -1.3603    0.9840   -1.6662 C   0  0  0  0  0  0  0  0  0  0  0  0
   -2.7708   -1.6191   -0.9018 C   0  0  0  0  0  0  0  0  0  0  0  0
   -2.7621    0.7753    2.1261 C   0  0  0  0  0  0  0  0  0  0  0  0
   -2.1654    1.5862    2.5642 H   0  0  0  0  0  0  0  0  0  0  0  0
   -0.1826    5.0372    1.8762 C   0  0  0  0  0  0  0  0  0  0  0  0
   -0.0066    6.0322    2.3129 H   0  0  0  0  0  0  0  0  0  0  0  0
   -4.7286   -0.6495    2.2038 C   0  0  0  0  0  0  0  0  0  0  0  0
   -5.6624   -0.9642    2.6938 H   0  0  0  0  0  0  0  0  0  0  0  0
   -2.1920    1.2023   -4.3452 C   0  0  0  0  0  0  0  0  0  0  0  0
   -2.5207    1.2793   -5.3927 H   0  0  0  0  0  0  0  0  0  0  0  0
   -0.4870    0.6221   -2.7110 C   0  0  0  0  0  0  0  0  0  0  0  0
    0.5156    0.2416   -2.4660 H   0  0  0  0  0  0  0  0  0  0  0  0
   -3.1207   -0.8871    0.3783 C   0  0  0  0  0  0  0  0  0  0  0  0
   -2.3436    0.1673    0.9247 C   0  0  0  0  0  0  0  0  0  0  0  0
    0.1037    2.6209    1.9580 C   0  0  0  0  0  0  0  0  0  0  0  0
    0.4867    1.7098    2.4491 H   0  0  0  0  0  0  0  0  0  0  0  0
   -0.9028    0.7343   -4.0453 C   0  0  0  0  0  0  0  0  0  0  0  0
   -0.2160    0.4451   -4.8551 H   0  0  0  0  0  0  0  0  0  0  0  0
   -3.9365    0.3613    2.7694 C   0  0  0  0  0  0  0  0  0  0  0  0
   -4.2374    0.8447    3.7109 H   0  0  0  0  0  0  0  0  0  0  0  0
   -1.0207   -2.9123   -2.0577 C   0  0  0  0  0  0  0  0  0  0  0  0
   -1.2232   -2.2531   -2.9315 H   0  0  0  0  0  0  0  0  0  0  0  0
   -0.6216    2.4987    0.7521 C   0  0  0  0  0  0  0  0  0  0  0  0
   -3.0688    1.5531   -3.3075 C   0  0  0  0  0  0  0  0  0  0  0  0
   -4.0885    1.8968   -3.5369 H   0  0  0  0  0  0  0  0  0  0  0  0
    0.4882   -3.1002   -1.8998 C   0  0  0  0  0  0  0  0  0  0  0  0
    0.9965   -2.1329   -1.7020 H   0  0  0  0  0  0  0  0  0  0  0  0
    0.9212   -3.5521   -2.8139 H   0  0  0  0  0  0  0  0  0  0  0  0
    0.7117   -3.7747   -1.0462 H   0  0  0  0  0  0  0  0  0  0  0  0
    0.3117    3.8893    2.5182 C   0  0  0  0  0  0  0  0  0  0  0  0
    0.8734    3.9807    3.4602 H   0  0  0  0  0  0  0  0  0  0  0  0
   -1.7540   -4.2402   -2.2927 C   0  0  0  0  0  0  0  0  0  0  0  0
   -2.8375   -4.0536   -2.4180 H   0  0  0  0  0  0  0  0  0  0  0  0
   -1.6034   -4.9276   -1.4343 H   0  0  0  0  0  0  0  0  0  0  0  0
   -1.3753   -4.7394   -3.2079 H   0  0  0  0  0  0  0  0  0  0  0  0
  1 35  1  0  0  0  0
  1 26  1  0  0  0  0
  2 14  2  0  0  0  0
  3  4  1  0  0  0  0
  5 17  1  0  0  0  0
  6  5  1  0  0  0  0
  7  5  2  0  0  0  0
  7 35  1  0  0  0  0
  8  7  1  0  0  0  0
  9 13  1  0  0  0  0
  9 10  1  0  0  0  0
 11 19  1  0  0  0  0
 12 11  1  0  0  0  0
 13  1  1  0  0  0  0
 14  3  1  0  0  0  0
 14 25  1  0  0  0  0
 15 16  1  0  0  0  0
 15 31  1  0  0  0  0
 17 18  1  0  0  0  0
 17 42  2  0  0  0  0
 19 20  1  0  0  0  0
 19 31  2  0  0  0  0
 21 29  2  0  0  0  0
 21 36  1  0  0  0  0
 22 21  1  0  0  0  0
 23 24  1  0  0  0  0
 23 13  2  0  0  0  0
 25 26  1  0  0  0  0
 25 11  2  0  0  0  0
 26 15  2  0  0  0  0
 27 28  1  0  0  0  0
 27 42  1  0  0  0  0
 29 23  1  0  0  0  0
 30 29  1  0  0  0  0
 31 32  1  0  0  0  0
 33 38  1  0  0  0  0
 33  3  1  0  0  0  0
 34 33  1  0  0  0  0
 35 27  2  0  0  0  0
 36  9  2  0  0  0  0
 37 36  1  0  0  0  0
 38 39  1  0  0  0  0
 38 41  1  0  0  0  0
 40 38  1  0  0  0  0
 42 43  1  0  0  0  0
 44 33  1  0  0  0  0
 44 46  1  0  0  0  0
 45 44  1  0  0  0  0
 47 44  1  0  0  0  0
M  END
