1
q = 0.0, confidence = 0.992

 17 18  0  0  0  0  0  0  0  0999 V2000
    0.2580    0.8522    0.0289 P   0  0  0  0  0  0  0  0  0  0  0  0
    6.0944   -1.2884    1.0323 P   0  0  0  0  0  0  0  0  0  0  0  0
    1.1202    2.0986    0.9432 C   0  0  0  0  0  0  0  0  0  0  0  0
    0.7183    2.6982    1.7721 H   0  0  0  0  0  0  0  0  0  0  0  0
    2.6642    1.4850   -0.4769 N   0  0  0  0  0  0  0  0  0  0  0  0
    4.7967    0.3575   -0.4802 N   0  0  0  0  0  0  0  0  0  0  0  0
    1.6932    0.6308   -0.9102 C   0  0  0  0  0  0  0  0  0  0  0  0
    1.9172   -0.0749   -1.7197 H   0  0  0  0  0  0  0  0  0  0  0  0
    4.0353    1.4908   -0.9720 C   0  0  0  0  0  0  0  0  0  0  0  0
    4.4914    2.4349   -0.6266 H   0  0  0  0  0  0  0  0  0  0  0  0
    4.0327    1.4315   -2.0752 H   0  0  0  0  0  0  0  0  0  0  0  0
    4.7484   -0.7750   -1.2117 N   0  0  0  0  0  0  0  0  0  0  0  0
    2.3737    2.2988    0.5547 N   0  0  0  0  0  0  0  0  0  0  0  0
    5.3921   -1.7309   -0.5527 C   0  0  0  0  0  0  0  0  0  0  0  0
    5.4550   -2.7211   -1.0291 H   0  0  0  0  0  0  0  0  0  0  0  0
    5.4372    0.2946    0.7227 C   0  0  0  0  0  0  0  0  0  0  0  0
    5.4619    1.1984    1.3463 H   0  0  0  0  0  0  0  0  0  0  0  0
  1  3  1  0  0  0  0
  3  4  1  0  0  0  0
  5 13  1  0  0  0  0
  6 16  1  0  0  0  0
  7  5  1  0  0  0  0
  7  1  2  0  0  0  0
  8  7  1  0  0  0  0
  9 10  1  0  0  0  0
  9  6  1  0  0  0  0
  9  5  1  0  0  0  0
 11  9  1  0  0  0  0
 12 14  2  0  0  0  0
 12  6  1  0  0  0  0
 13  3  2  0  0  0  0
 14  2  1  0  0  0  0
 15 14  1  0  0  0  0
 16  2  2  0  0  0  0
 16 17  1  0  0  0  0
M  END
