70
q = 0.0, confidence = 0.994

 70 74  0  0  0  0  0  0  0  0999 V2000
    4.0141    1.9703   -0.4794 C   0  0  0  0  0  0  0  0  0  0  0  0
    3.2227    1.7649   -1.6208 C   0  0  0  0  0  0  0  0  0  0  0  0
    3.7096    1.4862   -2.5691 H   0  0  0  0  0  0  0  0  0  0  0  0
    1.8210    1.8495   -1.5829 C   0  0  0  0  0  0  0  0  0  0  0  0
    1.1831    2.1696   -0.3548 C   0  0  0  0  0  0  0  0  0  0  0  0
    1.9682    2.4545    0.7960 C   0  0  0  0  0  0  0  0  0  0  0  0
    3.3646    2.3357    0.7121 C   0  0  0  0  0  0  0  0  0  0  0  0
    3.9655    2.5116    1.6189 H   0  0  0  0  0  0  0  0  0  0  0  0
    5.4983    1.7257   -0.5137 C   0  0  0  0  0  0  0  0  0  0  0  0
    6.0332    2.3042    0.2648 H   0  0  0  0  0  0  0  0  0  0  0  0
    5.9360    1.9726   -1.5012 H   0  0  0  0  0  0  0  0  0  0  0  0
    5.6851    0.6467   -0.3244 H   0  0  0  0  0  0  0  0  0  0  0  0
    1.0311    1.5293   -2.8270 C   0  0  0  0  0  0  0  0  0  0  0  0
    0.0437    2.0294   -2.8518 H   0  0  0  0  0  0  0  0  0  0  0  0
    0.8427    0.4351   -2.8863 H   0  0  0  0  0  0  0  0  0  0  0  0
    1.5917    1.8103   -3.7396 H   0  0  0  0  0  0  0  0  0  0  0  0
    1.3311    2.8750    2.0980 C   0  0  0  0  0  0  0  0  0  0  0  0
    1.1172    3.9660    2.1118 H   0  0  0  0  0  0  0  0  0  0  0  0
    2.0006    2.6664    2.9546 H   0  0  0  0  0  0  0  0  0  0  0  0
    0.3720    2.3535    2.2780 H   0  0  0  0  0  0  0  0  0  0  0  0
   -0.2973    2.2409   -0.2717 C   0  0  0  0  0  0  0  0  0  0  0  0
   -1.0237    3.5693   -0.3327 C   0  0  0  0  0  0  0  0  0  0  0  0
   -0.6645    4.2565    0.4646 H   0  0  0  0  0  0  0  0  0  0  0  0
   -0.8001    4.0893   -1.2915 H   0  0  0  0  0  0  0  0  0  0  0  0
   -2.5790    1.7932   -0.0689 C   0  0  0  0  0  0  0  0  0  0  0  0
   -1.2151    1.2227   -0.1239 C   0  0  0  0  0  0  0  0  0  0  0  0
   -3.8450    1.1926    0.0591 C   0  0  0  0  0  0  0  0  0  0  0  0
   -3.9519    0.1009    0.1347 H   0  0  0  0  0  0  0  0  0  0  0  0
   -4.9882    2.0092    0.0765 C   0  0  0  0  0  0  0  0  0  0  0  0
   -5.9820    1.5471    0.1768 H   0  0  0  0  0  0  0  0  0  0  0  0
   -4.8783    3.4063   -0.0350 C   0  0  0  0  0  0  0  0  0  0  0  0
   -5.7855    4.0288   -0.0185 H   0  0  0  0  0  0  0  0  0  0  0  0
   -3.6156    4.0128   -0.1724 C   0  0  0  0  0  0  0  0  0  0  0  0
   -3.5304    5.1067   -0.2660 H   0  0  0  0  0  0  0  0  0  0  0  0
   -2.4752    3.2060   -0.1897 C   0  0  0  0  0  0  0  0  0  0  0  0
   -1.8163   -1.4788   -1.2041 C   0  0  0  0  0  0  0  0  0  0  0  0
   -2.7967   -1.6801   -0.7132 H   0  0  0  0  0  0  0  0  0  0  0  0
   -2.0715   -0.6694   -2.4881 C   0  0  0  0  0  0  0  0  0  0  0  0
   -1.0932   -0.4146   -2.9490 H   0  0  0  0  0  0  0  0  0  0  0  0
   -2.5691    0.2924   -2.2558 H   0  0  0  0  0  0  0  0  0  0  0  0
   -2.9147   -1.4718   -3.4890 C   0  0  0  0  0  0  0  0  0  0  0  0
   -3.9271   -1.6391   -3.0564 H   0  0  0  0  0  0  0  0  0  0  0  0
   -3.0668   -0.8745   -4.4122 H   0  0  0  0  0  0  0  0  0  0  0  0
   -2.2739   -2.8249   -3.8194 C   0  0  0  0  0  0  0  0  0  0  0  0
   -1.3142   -2.6516   -4.3560 H   0  0  0  0  0  0  0  0  0  0  0  0
   -2.9204   -3.4027   -4.5125 H   0  0  0  0  0  0  0  0  0  0  0  0
   -1.9952   -3.6299   -2.5449 C   0  0  0  0  0  0  0  0  0  0  0  0
   -1.4802   -4.5824   -2.7881 H   0  0  0  0  0  0  0  0  0  0  0  0
   -2.9614   -3.9101   -2.0670 H   0  0  0  0  0  0  0  0  0  0  0  0
   -1.1506   -2.8273   -1.5465 C   0  0  0  0  0  0  0  0  0  0  0  0
   -0.1466   -2.6190   -1.9784 H   0  0  0  0  0  0  0  0  0  0  0  0
   -0.9614   -3.4210   -0.6300 H   0  0  0  0  0  0  0  0  0  0  0  0
   -1.5615   -0.9921    1.7216 C   0  0  0  0  0  0  0  0  0  0  0  0
   -2.6503   -0.7789    1.6397 H   0  0  0  0  0  0  0  0  0  0  0  0
   -1.3659   -2.4857    2.0383 C   0  0  0  0  0  0  0  0  0  0  0  0
   -1.8695   -3.1131    1.2746 H   0  0  0  0  0  0  0  0  0  0  0  0
   -0.2795   -2.7217    1.9754 H   0  0  0  0  0  0  0  0  0  0  0  0
   -1.8960   -2.8430    3.4344 C   0  0  0  0  0  0  0  0  0  0  0  0
   -3.0019   -2.7140    3.4507 H   0  0  0  0  0  0  0  0  0  0  0  0
   -1.7036   -3.9165    3.6407 H   0  0  0  0  0  0  0  0  0  0  0  0
   -1.2698   -1.9610    4.5200 C   0  0  0  0  0  0  0  0  0  0  0  0
   -0.1761   -2.1615    4.5681 H   0  0  0  0  0  0  0  0  0  0  0  0
   -1.6819   -2.2210    5.5173 H   0  0  0  0  0  0  0  0  0  0  0  0
   -1.4979   -0.4768    4.2138 C   0  0  0  0  0  0  0  0  0  0  0  0
   -1.0156    0.1621    4.9827 H   0  0  0  0  0  0  0  0  0  0  0  0
   -2.5881   -0.2552    4.2613 H   0  0  0  0  0  0  0  0  0  0  0  0
   -0.9676   -0.0994    2.8247 C   0  0  0  0  0  0  0  0  0  0  0  0
   -1.1940    0.9642    2.6057 H   0  0  0  0  0  0  0  0  0  0  0  0
    0.1412   -0.2003    2.8033 H   0  0  0  0  0  0  0  0  0  0  0  0
   -0.7983   -0.5451    0.0709 P   0  0  0  0  0  0  0  0  0  0  0  0
  1  7  1  0  0  0  0
  2  4  1  0  0  0  0
  2  1  2  0  0  0  0
  3  2  1  0  0  0  0
  4  5  2  0  0  0  0
  5 21  1  0  0  0  0
  5  6  1  0  0  0  0
  6 17  1  0  0  0  0
  7  6  2  0  0  0  0
  7  8  1  0  0  0  0
  9  1  1  0  0  0  0
  9 12  1  0  0  0  0
  9 10  1  0  0  0  0
 11  9  1  0  0  0  0
 13  4  1  0  0  0  0
 14 13  1  0  0  0  0
 15 13  1  0  0  0  0
 16 13  1  0  0  0  0
 17 18  1  0  0  0  0
 17 20  1  0  0  0  0
 17 19  1  0  0  0  0
 21 26  2  0  0  0  0
 22 21  1  0  0  0  0
 22 35  1  0  0  0  0
 22 23  1  0  0  0  0
 24 22  1  0  0  0  0
 25 27  1  0  0  0  0
 26 25  1  0  0  0  0
 26 70  1  0  0  0  0
 27 29  2  0  0  0  0
 27 28  1  0  0  0  0
 29 30  1  0  0  0  0
 31 32  1  0  0  0  0
 31 29  1  0  0  0  0
 33 31  2  0  0  0  0
 34 33  1  0  0  0  0
 35 33  1  0  0  0  0
 35 25  2  0  0  0  0
 36 37  1  0  0  0  0
 36 70  1  0  0  0  0
 38 40  1  0  0  0  0
 38 36  1  0  0  0  0
 39 38  1  0  0  0  0
 41 42  1  0  0  0  0
 41 38  1  0  0  0  0
 43 41  1  0  0  0  0
 44 41  1  0  0  0  0
 44 47  1  0  0  0  0
 45 44  1  0  0  0  0
 46 44  1  0  0  0  0
 47 49  1  0  0  0  0
 47 50  1  0  0  0  0
 48 47  1  0  0  0  0
 50 36  1  0  0  0  0
 50 52  1  0  0  0  0
 51 50  1  0  0  0  0
 53 55  1  0  0  0  0
 53 67  1  0  0  0  0
 54 53  1  0  0  0  0
 55 58  1  0  0  0  0
 56 55  1  0  0  0  0
 57 55  1  0  0  0  0
 58 59  1  0  0  0  0
 58 60  1  0  0  0  0
 58 61  1  0  0  0  0
 61 62  1  0  0  0  0
 61 63  1  0  0  0  0
 64 66  1  0  0  0  0
 64 61  1  0  0  0  0
 64 65  1  0  0  0  0
 67 64  1  0  0  0  0
 68 67  1  0  0  0  0
 69 67  1  0  0  0  0
 70 53  1  0  0  0  0
M  END
