1
q = 0.0, confidence = 0.998

 58 63  0  0  0  0  0  0  0  0999 V2000
   -0.2845   -0.8722    0.5072 P   0  0  0  0  0  0  0  0  0  0  0  0
   -0.3378   -0.0527    1.9600 O   0  0  0  0  0  0  0  0  0  0  0  0
   -1.0889   -2.2933    0.8479 O   0  0  0  0  0  0  0  0  0  0  0  0
    2.4705   -0.7212    0.0487 C   0  0  0  0  0  0  0  0  0  0  0  0
    2.1991    0.5772   -0.6400 C   0  0  0  0  0  0  0  0  0  0  0  0
    1.4296   -1.4788    0.6065 C   0  0  0  0  0  0  0  0  0  0  0  0
    2.1253    0.6198   -2.0327 C   0  0  0  0  0  0  0  0  0  0  0  0
    2.2848   -0.3063   -2.6051 H   0  0  0  0  0  0  0  0  0  0  0  0
    1.6916   -2.7216    1.2569 C   0  0  0  0  0  0  0  0  0  0  0  0
    0.8515   -3.2941    1.6722 H   0  0  0  0  0  0  0  0  0  0  0  0
    1.8042    1.8209   -2.7132 C   0  0  0  0  0  0  0  0  0  0  0  0
    1.7107    1.8146   -3.8083 H   0  0  0  0  0  0  0  0  0  0  0  0
    2.9852   -3.2001    1.3466 C   0  0  0  0  0  0  0  0  0  0  0  0
    3.1863   -4.1602    1.8464 H   0  0  0  0  0  0  0  0  0  0  0  0
    1.5574    2.9808   -1.9975 C   0  0  0  0  0  0  0  0  0  0  0  0
    1.2732    3.9075   -2.5184 H   0  0  0  0  0  0  0  0  0  0  0  0
    5.4188   -2.9416    0.8835 C   0  0  0  0  0  0  0  0  0  0  0  0
    5.6063   -3.9059    1.3807 H   0  0  0  0  0  0  0  0  0  0  0  0
    1.4139    4.1799    0.1816 C   0  0  0  0  0  0  0  0  0  0  0  0
    1.1399    5.1003   -0.3570 H   0  0  0  0  0  0  0  0  0  0  0  0
    6.4679   -2.2050    0.3547 C   0  0  0  0  0  0  0  0  0  0  0  0
    7.4989   -2.5826    0.4287 H   0  0  0  0  0  0  0  0  0  0  0  0
    1.5276    4.1783    1.5634 C   0  0  0  0  0  0  0  0  0  0  0  0
    1.3378    5.0997    2.1343 H   0  0  0  0  0  0  0  0  0  0  0  0
    6.2173   -0.9588   -0.2791 C   0  0  0  0  0  0  0  0  0  0  0  0
    7.0565   -0.3764   -0.6883 H   0  0  0  0  0  0  0  0  0  0  0  0
    1.8897    2.9870    2.2478 C   0  0  0  0  0  0  0  0  0  0  0  0
    1.9807    2.9939    3.3442 H   0  0  0  0  0  0  0  0  0  0  0  0
    4.9234   -0.4706   -0.3824 C   0  0  0  0  0  0  0  0  0  0  0  0
    4.7294    0.4951   -0.8706 H   0  0  0  0  0  0  0  0  0  0  0  0
    2.1183    1.8141    1.5447 C   0  0  0  0  0  0  0  0  0  0  0  0
    2.3835    0.8916    2.0801 H   0  0  0  0  0  0  0  0  0  0  0  0
    3.8198   -1.2077    0.1433 C   0  0  0  0  0  0  0  0  0  0  0  0
    1.9955    1.7777    0.1234 C   0  0  0  0  0  0  0  0  0  0  0  0
    4.0776   -2.4672    0.7990 C   0  0  0  0  0  0  0  0  0  0  0  0
    1.6516    2.9941   -0.5760 C   0  0  0  0  0  0  0  0  0  0  0  0
   -2.2660    0.4661    3.2863 C   0  0  0  0  0  0  0  0  0  0  0  0
   -2.1442   -0.5091    3.7790 H   0  0  0  0  0  0  0  0  0  0  0  0
   -3.4205   -1.6318    0.5228 C   0  0  0  0  0  0  0  0  0  0  0  0
   -3.2388   -0.6490    0.9812 H   0  0  0  0  0  0  0  0  0  0  0  0
   -1.3691    0.8312    2.2699 C   0  0  0  0  0  0  0  0  0  0  0  0
   -2.3775   -2.5643    0.3988 C   0  0  0  0  0  0  0  0  0  0  0  0
   -1.4825    2.0647    1.6088 C   0  0  0  0  0  0  0  0  0  0  0  0
   -0.7605    2.3374    0.8270 H   0  0  0  0  0  0  0  0  0  0  0  0
   -2.6019   -3.8294   -0.1654 C   0  0  0  0  0  0  0  0  0  0  0  0
   -1.7595   -4.5301   -0.2545 H   0  0  0  0  0  0  0  0  0  0  0  0
   -2.5217    2.9357    1.9694 C   0  0  0  0  0  0  0  0  0  0  0  0
   -2.6159    3.9009    1.4499 H   0  0  0  0  0  0  0  0  0  0  0  0
   -3.8890   -4.1646   -0.6087 C   0  0  0  0  0  0  0  0  0  0  0  0
   -4.0674   -5.1555   -1.0529 H   0  0  0  0  0  0  0  0  0  0  0  0
   -3.4287    2.5836    2.9819 C   0  0  0  0  0  0  0  0  0  0  0  0
   -4.2405    3.2724    3.2592 H   0  0  0  0  0  0  0  0  0  0  0  0
   -4.9406   -3.2397   -0.5000 C   0  0  0  0  0  0  0  0  0  0  0  0
   -5.9469   -3.5028   -0.8577 H   0  0  0  0  0  0  0  0  0  0  0  0
   -3.2956    1.3508    3.6418 C   0  0  0  0  0  0  0  0  0  0  0  0
   -4.0017    1.0694    4.4376 H   0  0  0  0  0  0  0  0  0  0  0  0
   -4.7010   -1.9775    0.0638 C   0  0  0  0  0  0  0  0  0  0  0  0
   -5.5170   -1.2449    0.1522 H   0  0  0  0  0  0  0  0  0  0  0  0
  1  6  1  0  0  0  0
  1  3  1  0  0  0  0
  1  2  1  0  0  0  0
  2 41  1  0  0  0  0
  4 33  2  0  0  0  0
  4  6  1  0  0  0  0
  5  4  1  0  0  0  0
  5 34  1  0  0  0  0
  6  9  2  0  0  0  0
  7  5  2  0  0  0  0
  8  7  1  0  0  0  0
  9 13  1  0  0  0  0
  9 10  1  0  0  0  0
 11  7  1  0  0  0  0
 11 15  2  0  0  0  0
 12 11  1  0  0  0  0
 13 14  1  0  0  0  0
 15 36  1  0  0  0  0
 16 15  1  0  0  0  0
 17 18  1  0  0  0  0
 19 23  1  0  0  0  0
 20 19  1  0  0  0  0
 21 22  1  0  0  0  0
 21 17  2  0  0  0  0
 23 24  1  0  0  0  0
 23 27  2  0  0  0  0
 25 21  1  0  0  0  0
 26 25  1  0  0  0  0
 27 28  1  0  0  0  0
 29 25  2  0  0  0  0
 29 33  1  0  0  0  0
 30 29  1  0  0  0  0
 31 32  1  0  0  0  0
 31 27  1  0  0  0  0
 33 35  1  0  0  0  0
 34 31  2  0  0  0  0
 35 17  1  0  0  0  0
 35 13  2  0  0  0  0
 36 34  1  0  0  0  0
 36 19  2  0  0  0  0
 37 55  1  0  0  0  0
 37 38  1  0  0  0  0
 39 40  1  0  0  0  0
 41 37  2  0  0  0  0
 42 39  1  0  0  0  0
 42  3  1  0  0  0  0
 43 47  2  0  0  0  0
 43 41  1  0  0  0  0
 44 43  1  0  0  0  0
 45 42  2  0  0  0  0
 46 45  1  0  0  0  0
 47 51  1  0  0  0  0
 48 47  1  0  0  0  0
 49 53  2  0  0  0  0
 49 45  1  0  0  0  0
 50 49  1  0  0  0  0
 51 52  1  0  0  0  0
 51 55  2  0  0  0  0
 53 57  1  0  0  0  0
 54 53  1  0  0  0  0
 55 56  1  0  0  0  0
 57 58  1  0  0  0  0
 57 39  2  0  0  0  0
M  END
