1
q = 0.0, confidence = 1.0

 56 62  0  0  0  0  0  0  0  0999 V2000
   -0.8215    0.0347   -0.1881 P   0  0  0  0  0  0  0  0  0  0  0  0
   -1.6621    0.4035    1.2137 O   0  0  0  0  0  0  0  0  0  0  0  0
   -2.0316    0.2038   -1.3289 O   0  0  0  0  0  0  0  0  0  0  0  0
    0.1349    1.5323   -0.5963 C   0  0  0  0  0  0  0  0  0  0  0  0
   -0.4434    2.5524   -1.4109 C   0  0  0  0  0  0  0  0  0  0  0  0
   -1.4608    2.4135   -1.7998 H   0  0  0  0  0  0  0  0  0  0  0  0
    0.2811    3.6906   -1.7113 C   0  0  0  0  0  0  0  0  0  0  0  0
   -0.1614    4.4765   -2.3426 H   0  0  0  0  0  0  0  0  0  0  0  0
    1.6057    3.8703   -1.2163 C   0  0  0  0  0  0  0  0  0  0  0  0
    2.3693    5.0357   -1.5175 C   0  0  0  0  0  0  0  0  0  0  0  0
    1.9173    5.8121   -2.1539 H   0  0  0  0  0  0  0  0  0  0  0  0
    3.6545    5.1910   -1.0206 C   0  0  0  0  0  0  0  0  0  0  0  0
    4.2330    6.0956   -1.2620 H   0  0  0  0  0  0  0  0  0  0  0  0
    4.2289    4.1867   -0.1958 C   0  0  0  0  0  0  0  0  0  0  0  0
    5.2479    4.3206    0.1972 H   0  0  0  0  0  0  0  0  0  0  0  0
    3.5126    3.0421    0.1186 C   0  0  0  0  0  0  0  0  0  0  0  0
    3.9543    2.2655    0.7594 H   0  0  0  0  0  0  0  0  0  0  0  0
    2.1908    2.8474   -0.3835 C   0  0  0  0  0  0  0  0  0  0  0  0
    1.4308    1.6678   -0.0755 C   0  0  0  0  0  0  0  0  0  0  0  0
    2.0084    0.6048    0.8003 C   0  0  0  0  0  0  0  0  0  0  0  0
    1.6015    0.5051    2.1300 C   0  0  0  0  0  0  0  0  0  0  0  0
    0.8748    1.2294    2.5257 H   0  0  0  0  0  0  0  0  0  0  0  0
    2.0961   -0.5247    2.9711 C   0  0  0  0  0  0  0  0  0  0  0  0
    1.7482   -0.5860    4.0127 H   0  0  0  0  0  0  0  0  0  0  0  0
    2.9941   -1.4555    2.4762 C   0  0  0  0  0  0  0  0  0  0  0  0
    3.3642   -2.2713    3.1157 H   0  0  0  0  0  0  0  0  0  0  0  0
    3.4396   -1.3939    1.1238 C   0  0  0  0  0  0  0  0  0  0  0  0
    4.3268   -2.3684    0.5836 C   0  0  0  0  0  0  0  0  0  0  0  0
    4.6778   -3.1797    1.2391 H   0  0  0  0  0  0  0  0  0  0  0  0
    4.7195   -2.3153   -0.7441 C   0  0  0  0  0  0  0  0  0  0  0  0
    5.3948   -3.0827   -1.1509 H   0  0  0  0  0  0  0  0  0  0  0  0
    4.2364   -1.2820   -1.5894 C   0  0  0  0  0  0  0  0  0  0  0  0
    4.5445   -1.2525   -2.6454 H   0  0  0  0  0  0  0  0  0  0  0  0
    3.3678   -0.3189   -1.0977 C   0  0  0  0  0  0  0  0  0  0  0  0
    2.9845    0.4705   -1.7605 H   0  0  0  0  0  0  0  0  0  0  0  0
    2.9474   -0.3448    0.2648 C   0  0  0  0  0  0  0  0  0  0  0  0
   -2.5677    1.4574    1.2302 C   0  0  0  0  0  0  0  0  0  0  0  0
   -2.2401    2.6122    1.9544 C   0  0  0  0  0  0  0  0  0  0  0  0
   -1.2514    2.6743    2.4306 H   0  0  0  0  0  0  0  0  0  0  0  0
   -3.1755    3.6495    2.0707 C   0  0  0  0  0  0  0  0  0  0  0  0
   -2.9185    4.5549    2.6403 H   0  0  0  0  0  0  0  0  0  0  0  0
   -4.4339    3.5273    1.4597 C   0  0  0  0  0  0  0  0  0  0  0  0
   -5.1717    4.3387    1.5455 H   0  0  0  0  0  0  0  0  0  0  0  0
   -4.7484    2.3743    0.7284 C   0  0  0  0  0  0  0  0  0  0  0  0
   -5.7258    2.2872    0.2300 H   0  0  0  0  0  0  0  0  0  0  0  0
   -3.8230    1.3175    0.5861 C   0  0  0  0  0  0  0  0  0  0  0  0
   -4.1601    0.0983   -0.1882 C   0  0  0  0  0  0  0  0  0  0  0  0
   -5.4141   -0.5375   -0.0642 C   0  0  0  0  0  0  0  0  0  0  0  0
   -6.1452   -0.1292    0.6498 H   0  0  0  0  0  0  0  0  0  0  0  0
   -5.7214   -1.6865   -0.8052 C   0  0  0  0  0  0  0  0  0  0  0  0
   -6.7012   -2.1706   -0.6803 H   0  0  0  0  0  0  0  0  0  0  0  0
   -4.7756   -2.2283   -1.6910 C   0  0  0  0  0  0  0  0  0  0  0  0
   -5.0081   -3.1376   -2.2647 H   0  0  0  0  0  0  0  0  0  0  0  0
   -3.5257   -1.6118   -1.8431 C   0  0  0  0  0  0  0  0  0  0  0  0
   -2.7637   -2.0056   -2.5305 H   0  0  0  0  0  0  0  0  0  0  0  0
   -3.2361   -0.4568   -1.1061 C   0  0  0  0  0  0  0  0  0  0  0  0
  1  2  1  0  0  0  0
  2 37  1  0  0  0  0
  3 56  1  0  0  0  0
  3  1  1  0  0  0  0
  4  1  1  0  0  0  0
  4 19  1  0  0  0  0
  5  4  2  0  0  0  0
  6  5  1  0  0  0  0
  7  5  1  0  0  0  0
  7  9  2  0  0  0  0
  8  7  1  0  0  0  0
  9 18  1  0  0  0  0
 10  9  1  0  0  0  0
 10 12  2  0  0  0  0
 11 10  1  0  0  0  0
 12 14  1  0  0  0  0
 13 12  1  0  0  0  0
 14 16  2  0  0  0  0
 14 15  1  0  0  0  0
 16 17  1  0  0  0  0
 18 19  2  0  0  0  0
 18 16  1  0  0  0  0
 19 20  1  0  0  0  0
 20 21  1  0  0  0  0
 21 22  1  0  0  0  0
 21 23  2  0  0  0  0
 23 24  1  0  0  0  0
 25 23  1  0  0  0  0
 25 26  1  0  0  0  0
 27 25  2  0  0  0  0
 28 27  1  0  0  0  0
 28 29  1  0  0  0  0
 30 28  2  0  0  0  0
 31 30  1  0  0  0  0
 32 34  2  0  0  0  0
 32 30  1  0  0  0  0
 33 32  1  0  0  0  0
 34 36  1  0  0  0  0
 35 34  1  0  0  0  0
 36 20  2  0  0  0  0
 36 27  1  0  0  0  0
 37 38  1  0  0  0  0
 38 40  2  0  0  0  0
 38 39  1  0  0  0  0
 40 41  1  0  0  0  0
 42 43  1  0  0  0  0
 42 40  1  0  0  0  0
 44 42  2  0  0  0  0
 45 44  1  0  0  0  0
 46 44  1  0  0  0  0
 46 37  2  0  0  0  0
 47 48  1  0  0  0  0
 47 46  1  0  0  0  0
 48 49  1  0  0  0  0
 50 51  1  0  0  0  0
 50 48  2  0  0  0  0
 52 50  1  0  0  0  0
 53 52  1  0  0  0  0
 54 52  2  0  0  0  0
 54 56  1  0  0  0  0
 55 54  1  0  0  0  0
 56 47  2  0  0  0  0
M  END
