1
q = -1.0, confidence = 0.044

 27 26  0  0  0  0  0  0  0  0999 V2000
    1.2861    0.1665    0.0728 P   0  0  0  0  0  2  0  0  0  0  0  0
    2.5655   -1.2718   -0.0214 C   0  0  0  0  0  0  0  0  0  0  0  0
    3.8463   -1.0188    0.7930 C   0  0  0  0  0  0  0  0  0  0  0  0
    2.8993   -1.5031   -1.5106 C   0  0  0  0  0  0  0  0  0  0  0  0
    1.9095   -2.5437    0.5425 C   0  0  0  0  0  0  0  0  0  0  0  0
    2.2343    1.8432    0.0503 C   0  0  0  0  0  0  0  0  0  0  0  0
    2.8409    2.1155    1.4422 C   0  0  0  0  0  0  0  0  0  0  0  0
    1.1981    2.9386   -0.2395 C   0  0  0  0  0  0  0  0  0  0  0  0
    3.3074    1.9096   -1.0509 C   0  0  0  0  0  0  0  0  0  0  0  0
    3.2898    3.1329    1.4554 H   0  0  0  0  0  0  0  0  0  0  0  0
    1.6995    3.9297   -0.2157 H   0  0  0  0  0  0  0  0  0  0  0  0
    3.6350    1.3984    1.7151 H   0  0  0  0  0  0  0  0  0  0  0  0
    2.0616    2.0794    2.2299 H   0  0  0  0  0  0  0  0  0  0  0  0
    0.3916    2.9472    0.5174 H   0  0  0  0  0  0  0  0  0  0  0  0
    0.7376    2.8093   -1.2381 H   0  0  0  0  0  0  0  0  0  0  0  0
    3.7503    2.9291   -1.0638 H   0  0  0  0  0  0  0  0  0  0  0  0
    4.1381    1.1969   -0.8977 H   0  0  0  0  0  0  0  0  0  0  0  0
    2.8720    1.7225   -2.0530 H   0  0  0  0  0  0  0  0  0  0  0  0
    4.4959   -1.9169    0.7159 H   0  0  0  0  0  0  0  0  0  0  0  0
    4.4406   -0.1601    0.4311 H   0  0  0  0  0  0  0  0  0  0  0  0
    3.6242   -0.8652    1.8678 H   0  0  0  0  0  0  0  0  0  0  0  0
    3.5927   -2.3681   -1.5990 H   0  0  0  0  0  0  0  0  0  0  0  0
    3.3918   -0.6310   -1.9799 H   0  0  0  0  0  0  0  0  0  0  0  0
    1.9870   -1.7421   -2.0911 H   0  0  0  0  0  0  0  0  0  0  0  0
    2.6411   -3.3765    0.4682 H   0  0  0  0  0  0  0  0  0  0  0  0
    1.0084   -2.8417   -0.0211 H   0  0  0  0  0  0  0  0  0  0  0  0
    1.6304   -2.4293    1.6071 H   0  0  0  0  0  0  0  0  0  0  0  0
  2  1  1  0  0  0  0
  2  5  1  0  0  0  0
  2  3  1  0  0  0  0
  3 21  1  0  0  0  0
  4  2  1  0  0  0  0
  5 27  1  0  0  0  0
  6  1  1  0  0  0  0
  6  7  1  0  0  0  0
  7 10  1  0  0  0  0
  7 12  1  0  0  0  0
  7 13  1  0  0  0  0
  8 11  1  0  0  0  0
  8  6  1  0  0  0  0
  8 14  1  0  0  0  0
  9 17  1  0  0  0  0
  9  6  1  0  0  0  0
 15  8  1  0  0  0  0
 16  9  1  0  0  0  0
 18  9  1  0  0  0  0
 19  3  1  0  0  0  0
 20  3  1  0  0  0  0
 22  4  1  0  0  0  0
 23  4  1  0  0  0  0
 24  4  1  0  0  0  0
 25  5  1  0  0  0  0
 26  5  1  0  0  0  0
M  END
