3
q = 0.0, confidence = 0.992

 16 15  0  0  0  0  0  0  0  0999 V2000
    2.0298   -1.5213    1.6152 Cl  0  0  0  0  0  0  0  0  0  0  0  0
    2.0296   -1.5207   -1.6158 Cl  0  0  0  0  0  0  0  0  0  0  0  0
    1.4045   -0.3361    0.0000 P   0  0  0  0  0  0  0  0  0  0  0  0
    2.7171    1.0294    0.0002 C   0  0  0  0  0  0  0  0  0  0  0  0
    2.4568    1.8579    1.2711 C   0  0  0  0  0  0  0  0  0  0  0  0
    1.4297    2.2704    1.3003 H   0  0  0  0  0  0  0  0  0  0  0  0
    3.1627    2.7139    1.2897 H   0  0  0  0  0  0  0  0  0  0  0  0
    2.6201    1.2581    2.1876 H   0  0  0  0  0  0  0  0  0  0  0  0
    4.1383    0.4556   -0.0001 C   0  0  0  0  0  0  0  0  0  0  0  0
    4.3277   -0.1631    0.8981 H   0  0  0  0  0  0  0  0  0  0  0  0
    4.8632    1.2957    0.0000 H   0  0  0  0  0  0  0  0  0  0  0  0
    4.3275   -0.1627   -0.8985 H   0  0  0  0  0  0  0  0  0  0  0  0
    2.4565    1.8586   -1.2702 C   0  0  0  0  0  0  0  0  0  0  0  0
    2.6196    1.2592   -2.1870 H   0  0  0  0  0  0  0  0  0  0  0  0
    3.1623    2.7146   -1.2884 H   0  0  0  0  0  0  0  0  0  0  0  0
    1.4293    2.2710   -1.2989 H   0  0  0  0  0  0  0  0  0  0  0  0
  2  3  1  0  0  0  0
  3  4  1  0  0  0  0
  3  1  1  0  0  0  0
  4  5  1  0  0  0  0
  5  7  1  0  0  0  0
  5  6  1  0  0  0  0
  5  8  1  0  0  0  0
  9 11  1  0  0  0  0
  9  4  1  0  0  0  0
  9 10  1  0  0  0  0
 12  9  1  0  0  0  0
 13  4  1  0  0  0  0
 14 13  1  0  0  0  0
 15 13  1  0  0  0  0
 16 13  1  0  0  0  0
M  END
