1
q = 0.0, confidence = 1.0

 40 41  0  0  0  0  0  0  0  0999 V2000
    0.5270   -0.5174    0.0984 P   0  0  0  0  0  0  0  0  0  0  0  0
   -0.2140   -1.1492    1.4460 O   0  0  0  0  0  0  0  0  0  0  0  0
   -0.4050   -0.9968   -1.1896 O   0  0  0  0  0  0  0  0  0  0  0  0
   -2.9948   -1.0061    0.0225 N   0  0  0  0  0  0  0  0  0  0  0  0
   -1.1310   -2.2335   -1.0973 C   0  0  0  0  0  0  0  0  0  0  0  0
   -2.6340   -1.9561   -1.0145 C   0  0  0  0  0  0  0  0  0  0  0  0
   -2.6558   -1.4291    1.3761 C   0  0  0  0  0  0  0  0  0  0  0  0
   -1.4629   -0.6773    1.9729 C   0  0  0  0  0  0  0  0  0  0  0  0
    1.9068   -1.7223    0.0646 C   0  0  0  0  0  0  0  0  0  0  0  0
    2.4461   -2.0940   -1.1841 C   0  0  0  0  0  0  0  0  0  0  0  0
    3.5678   -2.9337   -1.2396 C   0  0  0  0  0  0  0  0  0  0  0  0
    4.1580   -3.4002   -0.0539 C   0  0  0  0  0  0  0  0  0  0  0  0
    3.6233   -3.0280    1.1900 C   0  0  0  0  0  0  0  0  0  0  0  0
    2.5014   -2.1889    1.2533 C   0  0  0  0  0  0  0  0  0  0  0  0
   -4.3082   -0.3108   -0.1318 C   0  0  0  0  0  0  0  0  0  0  0  0
   -4.3577    0.8919    0.8326 C   0  0  0  0  0  0  0  0  0  0  0  0
   -4.4449    0.2534   -1.5598 C   0  0  0  0  0  0  0  0  0  0  0  0
   -5.4922   -1.2629    0.1549 C   0  0  0  0  0  0  0  0  0  0  0  0
    1.9821   -1.7257   -2.1117 H   0  0  0  0  0  0  0  0  0  0  0  0
    3.9837   -3.2251   -2.2160 H   0  0  0  0  0  0  0  0  0  0  0  0
    5.0407   -4.0560   -0.0996 H   0  0  0  0  0  0  0  0  0  0  0  0
    4.0843   -3.3935    2.1201 H   0  0  0  0  0  0  0  0  0  0  0  0
    2.0758   -1.8976    2.2244 H   0  0  0  0  0  0  0  0  0  0  0  0
   -0.9168   -2.8264   -2.0111 H   0  0  0  0  0  0  0  0  0  0  0  0
   -0.7748   -2.8235   -0.2266 H   0  0  0  0  0  0  0  0  0  0  0  0
   -2.9449   -1.5401   -1.9893 H   0  0  0  0  0  0  0  0  0  0  0  0
   -3.1411   -2.9561   -0.9155 H   0  0  0  0  0  0  0  0  0  0  0  0
   -2.4373   -2.5214    1.4171 H   0  0  0  0  0  0  0  0  0  0  0  0
   -3.5139   -1.2841    2.0661 H   0  0  0  0  0  0  0  0  0  0  0  0
   -1.5815    0.4116    1.7953 H   0  0  0  0  0  0  0  0  0  0  0  0
   -1.4050   -0.8494    3.0682 H   0  0  0  0  0  0  0  0  0  0  0  0
   -5.3175    1.4311    0.7091 H   0  0  0  0  0  0  0  0  0  0  0  0
   -4.2923    0.5927    1.8968 H   0  0  0  0  0  0  0  0  0  0  0  0
   -3.5342    1.5983    0.6130 H   0  0  0  0  0  0  0  0  0  0  0  0
   -5.3134    0.9394   -1.6000 H   0  0  0  0  0  0  0  0  0  0  0  0
   -3.5395    0.8256   -1.8389 H   0  0  0  0  0  0  0  0  0  0  0  0
   -4.6251   -0.5335   -2.3181 H   0  0  0  0  0  0  0  0  0  0  0  0
   -5.4808   -2.1313   -0.5352 H   0  0  0  0  0  0  0  0  0  0  0  0
   -6.4624   -0.7428    0.0231 H   0  0  0  0  0  0  0  0  0  0  0  0
   -5.4650   -1.6512    1.1939 H   0  0  0  0  0  0  0  0  0  0  0  0
  1  2  1  0  0  0  0
  2  8  1  0  0  0  0
  3  5  1  0  0  0  0
  3  1  1  0  0  0  0
  4  7  1  0  0  0  0
  5  6  1  0  0  0  0
  5 25  1  0  0  0  0
  6 27  1  0  0  0  0
  6  4  1  0  0  0  0
  7 28  1  0  0  0  0
  7  8  1  0  0  0  0
  7 29  1  0  0  0  0
  8 31  1  0  0  0  0
  9  1  1  0  0  0  0
  9 14  1  0  0  0  0
 10  9  2  0  0  0  0
 11 10  1  0  0  0  0
 11 12  2  0  0  0  0
 12 13  1  0  0  0  0
 13 14  2  0  0  0  0
 13 22  1  0  0  0  0
 14 23  1  0  0  0  0
 15  4  1  0  0  0  0
 15 18  1  0  0  0  0
 15 16  1  0  0  0  0
 16 33  1  0  0  0  0
 17 15  1  0  0  0  0
 18 40  1  0  0  0  0
 19 10  1  0  0  0  0
 20 11  1  0  0  0  0
 21 12  1  0  0  0  0
 24  5  1  0  0  0  0
 26  6  1  0  0  0  0
 30  8  1  0  0  0  0
 32 16  1  0  0  0  0
 34 16  1  0  0  0  0
 35 17  1  0  0  0  0
 36 17  1  0  0  0  0
 37 17  1  0  0  0  0
 38 18  1  0  0  0  0
 39 18  1  0  0  0  0
M  END
