1
q = 0.0, confidence = 0.994

 29 30  0  0  1  0  0  0  0  0999 V2000
    2.3154   -0.1218   -0.0829 P   0  0  1  0  0  0  0  0  0  0  0  0
    3.0841   -0.0209   -1.7146 C   0  0  2  0  0  3  0  0  0  0  0  0
    3.0093   -1.7710    0.5627 C   0  0  0  0  0  0  0  0  0  0  0  0
    3.2707    1.4678    0.5265 C   0  0  0  0  0  0  0  0  0  0  0  0
    3.8678    0.1628   -2.9281 C   0  0  0  0  0  2  0  0  0  0  0  0
    4.0941    0.8892   -1.7108 C   0  0  2  0  0  3  0  0  0  0  0  0
    2.2584   -2.8429   -0.2516 C   0  0  0  0  0  0  0  0  0  0  0  0
    4.5236   -1.8797    0.3311 C   0  0  0  0  0  0  0  0  0  0  0  0
    2.6733   -1.9191    2.0558 C   0  0  0  0  0  0  0  0  0  0  0  0
    4.4703    1.6204   -0.4747 C   0  0  0  0  0  0  0  0  0  0  0  0
    3.7076    1.4274    1.9921 C   0  0  0  0  0  0  0  0  0  0  0  0
    2.2805    2.6265    0.2989 C   0  0  0  0  0  0  0  0  0  0  0  0
    2.4134   -2.7262   -1.3425 H   0  0  0  0  0  0  0  0  0  0  0  0
    1.1687   -2.7982   -0.0561 H   0  0  0  0  0  0  0  0  0  0  0  0
    2.6288   -3.8451    0.0505 H   0  0  0  0  0  0  0  0  0  0  0  0
    5.0887   -1.1023    0.8824 H   0  0  0  0  0  0  0  0  0  0  0  0
    4.7922   -1.8228   -0.7421 H   0  0  0  0  0  0  0  0  0  0  0  0
    4.8722   -2.8646    0.7072 H   0  0  0  0  0  0  0  0  0  0  0  0
    1.5985   -1.7485    2.2578 H   0  0  0  0  0  0  0  0  0  0  0  0
    3.2485   -1.2181    2.6889 H   0  0  0  0  0  0  0  0  0  0  0  0
    2.9360   -2.9510    2.3709 H   0  0  0  0  0  0  0  0  0  0  0  0
    4.7260    2.6874   -0.6442 H   0  0  0  0  0  0  0  0  0  0  0  0
    5.3943    1.1419   -0.0811 H   0  0  0  0  0  0  0  0  0  0  0  0
    2.8319    1.2619    2.6495 H   0  0  0  0  0  0  0  0  0  0  0  0
    4.1656    2.4004    2.2696 H   0  0  0  0  0  0  0  0  0  0  0  0
    4.4589    0.6369    2.1880 H   0  0  0  0  0  0  0  0  0  0  0  0
    1.9018    2.6521   -0.7440 H   0  0  0  0  0  0  0  0  0  0  0  0
    2.7927    3.5903    0.5035 H   0  0  0  0  0  0  0  0  0  0  0  0
    1.4109    2.5343    0.9774 H   0  0  0  0  0  0  0  0  0  0  0  0
  1  4  1  0  0  0  0
  1  3  1  1  0  0  0
  2  5  1  1  0  0  0
  2  6  1  0  0  0  0
  2  1  1  0  0  0  0
  3  9  1  0  0  0  0
  4 11  1  0  0  0  0
  6  5  1  1  0  0  0
  6 10  1  0  0  0  0
  7 14  1  0  0  0  0
  7 15  1  0  0  0  0
  7  3  1  0  0  0  0
  8  3  1  0  0  0  0
  8 18  1  0  0  0  0
  8 16  1  0  0  0  0
  9 19  1  0  0  0  0
  9 21  1  0  0  0  0
  9 20  1  0  0  0  0
 10 23  1  0  0  0  0
 10  4  1  0  0  0  0
 11 26  1  0  0  0  0
 11 25  1  0  0  0  0
 11 24  1  0  0  0  0
 12 28  1  0  0  0  0
 12  4  1  0  0  0  0
 12 29  1  0  0  0  0
 13  7  1  0  0  0  0
 17  8  1  0  0  0  0
 22 10  1  0  0  0  0
 27 12  1  0  0  0  0
M  END
