1
q = 0.0, confidence = 0.998

 33 35  0  0  0  0  0  0  0  0999 V2000
    0.3226    0.6377    0.7291 P   0  0  1  0  0  0  0  0  0  0  0  0
    0.4984    1.0396    2.3529 O   0  0  0  0  0  0  0  0  0  0  0  0
   -0.6496    1.7879    2.7888 C   0  0  0  0  0  0  0  0  0  0  0  0
   -0.5501    2.8474    2.4616 H   0  0  0  0  0  0  0  0  0  0  0  0
   -0.6571    1.7605    3.8956 H   0  0  0  0  0  0  0  0  0  0  0  0
   -1.9110    1.1484    2.1689 C   0  0  0  0  0  0  0  0  0  0  0  0
   -2.3132    0.3564    2.8383 H   0  0  0  0  0  0  0  0  0  0  0  0
   -2.7116    1.9064    2.0403 H   0  0  0  0  0  0  0  0  0  0  0  0
   -1.5053    0.5259    0.8507 C   0  0  0  0  0  0  0  0  0  0  0  0
   -2.2457   -0.1025   -0.1003 C   0  0  0  0  0  0  0  0  0  0  0  0
   -1.6802   -0.5254   -0.9495 H   0  0  0  0  0  0  0  0  0  0  0  0
   -3.6886   -0.3319   -0.1970 C   0  0  0  0  0  0  0  0  0  0  0  0
   -4.6352    0.0424    0.7905 C   0  0  0  0  0  0  0  0  0  0  0  0
   -4.3080    0.5410    1.7105 H   0  0  0  0  0  0  0  0  0  0  0  0
   -5.9981   -0.2257    0.6145 C   0  0  0  0  0  0  0  0  0  0  0  0
   -6.7141    0.0712    1.3958 H   0  0  0  0  0  0  0  0  0  0  0  0
   -6.4549   -0.8704   -0.5468 C   0  0  0  0  0  0  0  0  0  0  0  0
   -7.5275   -1.0778   -0.6794 H   0  0  0  0  0  0  0  0  0  0  0  0
   -5.5328   -1.2511   -1.5351 C   0  0  0  0  0  0  0  0  0  0  0  0
   -5.8783   -1.7601   -2.4475 H   0  0  0  0  0  0  0  0  0  0  0  0
   -4.1705   -0.9866   -1.3595 C   0  0  0  0  0  0  0  0  0  0  0  0
   -3.4487   -1.2896   -2.1344 H   0  0  0  0  0  0  0  0  0  0  0  0
    0.5883    2.2613   -0.1084 C   0  0  0  0  0  0  0  0  0  0  0  0
    1.5874    3.1222    0.3890 C   0  0  0  0  0  0  0  0  0  0  0  0
    2.1304    2.8514    1.3078 H   0  0  0  0  0  0  0  0  0  0  0  0
    1.8808    4.3166   -0.2852 C   0  0  0  0  0  0  0  0  0  0  0  0
    2.6594    4.9879    0.1077 H   0  0  0  0  0  0  0  0  0  0  0  0
    1.1884    4.6517   -1.4601 C   0  0  0  0  0  0  0  0  0  0  0  0
    1.4240    5.5867   -1.9905 H   0  0  0  0  0  0  0  0  0  0  0  0
    0.1950    3.7928   -1.9578 C   0  0  0  0  0  0  0  0  0  0  0  0
   -0.3515    4.0542   -2.8766 H   0  0  0  0  0  0  0  0  0  0  0  0
   -0.1089    2.6006   -1.2837 C   0  0  0  0  0  0  0  0  0  0  0  0
   -0.8956    1.9355   -1.6717 H   0  0  0  0  0  0  0  0  0  0  0  0
  1 23  1  6  0  0  0
  1  9  1  0  0  0  0
  1  2  1  0  0  0  0
  2  3  1  0  0  0  0
  3  5  1  0  0  0  0
  4  3  1  0  0  0  0
  6  3  1  0  0  0  0
  6  7  1  0  0  0  0
  8  6  1  0  0  0  0
  9  6  1  0  0  0  0
 10  9  2  0  0  0  0
 11 10  1  0  0  0  0
 12 10  1  0  0  0  0
 12 13  1  0  0  0  0
 13 14  1  0  0  0  0
 15 13  2  0  0  0  0
 15 16  1  0  0  0  0
 17 15  1  0  0  0  0
 18 17  1  0  0  0  0
 19 21  1  0  0  0  0
 19 17  2  0  0  0  0
 20 19  1  0  0  0  0
 21 12  2  0  0  0  0
 22 21  1  0  0  0  0
 23 24  1  0  0  0  0
 24 25  1  0  0  0  0
 26 27  1  0  0  0  0
 26 24  2  0  0  0  0
 28 26  1  0  0  0  0
 29 28  1  0  0  0  0
 30 28  2  0  0  0  0
 30 32  1  0  0  0  0
 31 30  1  0  0  0  0
 32 23  2  0  0  0  0
 33 32  1  0  0  0  0
M  END
