1
q = 0.0, confidence = 0.992

 81 83  0  0  1  0  0  0  0  0999 V2000
    0.1567   -1.3905    0.1080 P   0  0  0  0  0  0  0  0  0  0  0  0
   -0.9537   -0.1863    0.4041 N   0  0  0  0  0  2  0  0  0  0  0  0
   -0.3567    2.1474   -0.1432 N   0  0  0  0  0  0  0  0  0  0  0  0
   -2.4741    1.5514   -0.1091 N   0  0  0  0  0  0  0  0  0  0  0  0
   -1.1850    1.0486    0.0581 C   0  0  2  0  0  3  0  0  0  0  0  0
   -1.1250    3.3038   -0.4034 C   0  0  0  0  0  0  0  0  0  0  0  0
   -2.4456    2.9319   -0.3800 C   0  0  0  0  0  0  0  0  0  0  0  0
   -0.4812    4.6284   -0.6205 C   0  0  0  0  0  0  0  0  0  0  0  0
   -1.2484    5.4160   -0.7381 H   0  0  0  0  0  0  0  0  0  0  0  0
    0.1572    4.6325   -1.5287 H   0  0  0  0  0  0  0  0  0  0  0  0
    0.1756    4.9055    0.2303 H   0  0  0  0  0  0  0  0  0  0  0  0
   -3.6957    3.7197   -0.5639 C   0  0  0  0  0  0  0  0  0  0  0  0
   -4.2710    3.3920   -1.4553 H   0  0  0  0  0  0  0  0  0  0  0  0
   -3.4606    4.7930   -0.6871 H   0  0  0  0  0  0  0  0  0  0  0  0
   -4.3728    3.6121    0.3093 H   0  0  0  0  0  0  0  0  0  0  0  0
    1.0477    2.1912    0.1388 C   0  0  0  0  0  0  0  0  0  0  0  0
    1.9847    2.2083   -0.9167 C   0  0  0  0  0  0  0  0  0  0  0  0
    3.3474    2.2958   -0.5829 C   0  0  0  0  0  0  0  0  0  0  0  0
    4.0929    2.2673   -1.3920 H   0  0  0  0  0  0  0  0  0  0  0  0
    3.7887    2.3422    0.7504 C   0  0  0  0  0  0  0  0  0  0  0  0
    2.8214    2.3391    1.7734 C   0  0  0  0  0  0  0  0  0  0  0  0
    3.1480    2.3845    2.8247 H   0  0  0  0  0  0  0  0  0  0  0  0
    1.4472    2.2787    1.4935 C   0  0  0  0  0  0  0  0  0  0  0  0
    1.5704    2.1053   -2.3617 C   0  0  0  0  0  0  0  0  0  0  0  0
    2.1147    1.2739   -2.8540 H   0  0  0  0  0  0  0  0  0  0  0  0
    1.8216    3.0322   -2.9189 H   0  0  0  0  0  0  0  0  0  0  0  0
    0.4864    1.9196   -2.4738 H   0  0  0  0  0  0  0  0  0  0  0  0
    5.2598    2.3131    1.0612 C   0  0  0  0  0  0  0  0  0  0  0  0
    5.6480    1.2973    0.8309 H   0  0  0  0  0  0  0  0  0  0  0  0
    5.4653    2.5387    2.1254 H   0  0  0  0  0  0  0  0  0  0  0  0
    5.8254    3.0301    0.4325 H   0  0  0  0  0  0  0  0  0  0  0  0
    0.4176    2.3211    2.5921 C   0  0  0  0  0  0  0  0  0  0  0  0
   -0.2946    3.1617    2.4521 H   0  0  0  0  0  0  0  0  0  0  0  0
    0.8960    2.4351    3.5828 H   0  0  0  0  0  0  0  0  0  0  0  0
   -0.1890    1.3933    2.6083 H   0  0  0  0  0  0  0  0  0  0  0  0
   -3.6471    0.7417   -0.0105 C   0  0  0  0  0  0  0  0  0  0  0  0
   -4.3121    0.3230   -1.1826 C   0  0  0  0  0  0  0  0  0  0  0  0
   -5.4568   -0.4869   -1.0392 C   0  0  0  0  0  0  0  0  0  0  0  0
   -5.9837   -0.8229   -1.9469 H   0  0  0  0  0  0  0  0  0  0  0  0
   -5.9320   -0.8903    0.2182 C   0  0  0  0  0  0  0  0  0  0  0  0
   -5.2399   -0.4504    1.3657 C   0  0  0  0  0  0  0  0  0  0  0  0
   -5.6001   -0.7519    2.3626 H   0  0  0  0  0  0  0  0  0  0  0  0
   -4.1051    0.3686    1.2781 C   0  0  0  0  0  0  0  0  0  0  0  0
   -3.8114    0.6738   -2.5610 C   0  0  0  0  0  0  0  0  0  0  0  0
   -4.6306    1.0694   -3.1949 H   0  0  0  0  0  0  0  0  0  0  0  0
   -3.4175   -0.2308   -3.0696 H   0  0  0  0  0  0  0  0  0  0  0  0
   -2.9961    1.4198   -2.5392 H   0  0  0  0  0  0  0  0  0  0  0  0
   -7.1491   -1.7702    0.3521 C   0  0  0  0  0  0  0  0  0  0  0  0
   -6.9018   -2.7186    0.8730 H   0  0  0  0  0  0  0  0  0  0  0  0
   -7.5803   -2.0272   -0.6344 H   0  0  0  0  0  0  0  0  0  0  0  0
   -7.9407   -1.2740    0.9514 H   0  0  0  0  0  0  0  0  0  0  0  0
   -3.3711    0.8259    2.5094 C   0  0  0  0  0  0  0  0  0  0  0  0
   -2.3896    0.3116    2.5804 H   0  0  0  0  0  0  0  0  0  0  0  0
   -3.9482    0.6070    3.4273 H   0  0  0  0  0  0  0  0  0  0  0  0
   -3.1552    1.9131    2.4779 H   0  0  0  0  0  0  0  0  0  0  0  0
   -0.5374   -2.2458   -1.4592 C   0  0  0  0  0  0  0  0  0  0  0  0
   -0.3652   -1.1797   -2.5594 C   0  0  0  0  0  0  0  0  0  0  0  0
   -0.9593   -0.2690   -2.3477 H   0  0  0  0  0  0  0  0  0  0  0  0
   -0.7130   -1.5923   -3.5304 H   0  0  0  0  0  0  0  0  0  0  0  0
    0.6978   -0.8832   -2.6704 H   0  0  0  0  0  0  0  0  0  0  0  0
   -2.0213   -2.6096   -1.3222 C   0  0  0  0  0  0  0  0  0  0  0  0
   -2.1729   -3.5002   -0.6839 H   0  0  0  0  0  0  0  0  0  0  0  0
   -2.4379   -2.8502   -2.3242 H   0  0  0  0  0  0  0  0  0  0  0  0
   -2.6082   -1.7736   -0.8949 H   0  0  0  0  0  0  0  0  0  0  0  0
    0.3078   -3.4758   -1.8207 C   0  0  0  0  0  0  0  0  0  0  0  0
    1.3927   -3.2398   -1.8179 H   0  0  0  0  0  0  0  0  0  0  0  0
    0.0358   -3.8237   -2.8400 H   0  0  0  0  0  0  0  0  0  0  0  0
    0.1355   -4.3199   -1.1260 H   0  0  0  0  0  0  0  0  0  0  0  0
   -0.0330   -2.4383    1.6840 C   0  0  0  0  0  0  0  0  0  0  0  0
    0.8524   -3.6906    1.5932 C   0  0  0  0  0  0  0  0  0  0  0  0
    0.4621   -4.4282    0.8663 H   0  0  0  0  0  0  0  0  0  0  0  0
    0.8874   -4.1878    2.5853 H   0  0  0  0  0  0  0  0  0  0  0  0
    1.8918   -3.4329    1.3012 H   0  0  0  0  0  0  0  0  0  0  0  0
    0.4967   -1.5292    2.8110 C   0  0  0  0  0  0  0  0  0  0  0  0
    1.5239   -1.1680    2.5957 H   0  0  0  0  0  0  0  0  0  0  0  0
    0.5188   -2.0996    3.7634 H   0  0  0  0  0  0  0  0  0  0  0  0
   -0.1568   -0.6471    2.9534 H   0  0  0  0  0  0  0  0  0  0  0  0
   -1.4942   -2.8113    1.9730 C   0  0  0  0  0  0  0  0  0  0  0  0
   -2.1643   -1.9383    1.8504 H   0  0  0  0  0  0  0  0  0  0  0  0
   -1.5817   -3.1775    3.0181 H   0  0  0  0  0  0  0  0  0  0  0  0
   -1.8553   -3.6197    1.3098 H   0  0  0  0  0  0  0  0  0  0  0  0
  1  2  1  0  0  0  0
  1 69  1  0  0  0  0
  3  5  1  0  0  0  0
  3 16  1  0  0  0  0
  4 36  1  0  0  0  0
  4  5  1  0  0  0  0
  5  2  1  1  0  0  0
  6  7  2  0  0  0  0
  6  3  1  0  0  0  0
  7  4  1  0  0  0  0
  8  6  1  0  0  0  0
  8 11  1  0  0  0  0
  9  8  1  0  0  0  0
 10  8  1  0  0  0  0
 12  7  1  0  0  0  0
 12 15  1  0  0  0  0
 13 12  1  0  0  0  0
 14 12  1  0  0  0  0
 16 23  1  0  0  0  0
 17 18  1  0  0  0  0
 17 16  2  0  0  0  0
 18 20  2  0  0  0  0
 19 18  1  0  0  0  0
 20 28  1  0  0  0  0
 20 21  1  0  0  0  0
 21 22  1  0  0  0  0
 23 21  2  0  0  0  0
 23 32  1  0  0  0  0
 24 17  1  0  0  0  0
 25 24  1  0  0  0  0
 26 24  1  0  0  0  0
 27 24  1  0  0  0  0
 28 30  1  0  0  0  0
 29 28  1  0  0  0  0
 31 28  1  0  0  0  0
 32 35  1  0  0  0  0
 32 34  1  0  0  0  0
 33 32  1  0  0  0  0
 36 43  1  0  0  0  0
 37 38  1  0  0  0  0
 37 36  2  0  0  0  0
 38 40  2  0  0  0  0
 39 38  1  0  0  0  0
 40 48  1  0  0  0  0
 40 41  1  0  0  0  0
 41 42  1  0  0  0  0
 43 41  2  0  0  0  0
 43 52  1  0  0  0  0
 44 47  1  0  0  0  0
 44 37  1  0  0  0  0
 45 44  1  0  0  0  0
 46 44  1  0  0  0  0
 48 49  1  0  0  0  0
 48 51  1  0  0  0  0
 50 48  1  0  0  0  0
 52 53  1  0  0  0  0
 52 54  1  0  0  0  0
 55 52  1  0  0  0  0
 56 61  1  0  0  0  0
 56  1  1  0  0  0  0
 57 58  1  0  0  0  0
 57 56  1  0  0  0  0
 59 57  1  0  0  0  0
 60 57  1  0  0  0  0
 61 64  1  0  0  0  0
 61 62  1  0  0  0  0
 63 61  1  0  0  0  0
 65 66  1  0  0  0  0
 65 56  1  0  0  0  0
 65 68  1  0  0  0  0
 67 65  1  0  0  0  0
 69 78  1  0  0  0  0
 69 74  1  0  0  0  0
 70 69  1  0  0  0  0
 70 72  1  0  0  0  0
 71 70  1  0  0  0  0
 73 70  1  0  0  0  0
 74 77  1  0  0  0  0
 74 76  1  0  0  0  0
 75 74  1  0  0  0  0
 78 80  1  0  0  0  0
 79 78  1  0  0  0  0
 81 78  1  0  0  0  0
M  END
