1
q = 0.0, confidence = 0.996

 37 39  0  0  0  0  0  0  0  0999 V2000
    0.9283    0.1657   -0.2692 P   0  0  0  0  0  0  0  0  0  0  0  0
   -2.5784   -0.9774   -1.8198 Br  0  0  0  0  0  0  0  0  0  0  0  0
    0.0600    0.8656   -1.7729 C   0  0  0  0  0  0  0  0  0  0  0  0
    0.7490    1.5872   -2.2551 H   0  0  0  0  0  0  0  0  0  0  0  0
   -0.1209    0.0147   -2.4594 H   0  0  0  0  0  0  0  0  0  0  0  0
   -1.2215    1.5413   -1.3725 C   0  0  0  0  0  0  0  0  0  0  0  0
   -2.4559    0.8537   -1.3019 C   0  0  0  0  0  0  0  0  0  0  0  0
   -3.6267    1.4911   -0.8623 C   0  0  0  0  0  0  0  0  0  0  0  0
   -4.5669    0.9243   -0.8180 H   0  0  0  0  0  0  0  0  0  0  0  0
   -3.5824    2.8394   -0.4820 C   0  0  0  0  0  0  0  0  0  0  0  0
   -4.5016    3.3343   -0.1345 H   0  0  0  0  0  0  0  0  0  0  0  0
   -2.3733    3.5481   -0.5494 C   0  0  0  0  0  0  0  0  0  0  0  0
   -2.3316    4.6075   -0.2564 H   0  0  0  0  0  0  0  0  0  0  0  0
   -1.2122    2.9004   -0.9885 C   0  0  0  0  0  0  0  0  0  0  0  0
   -0.2605    3.4518   -1.0335 H   0  0  0  0  0  0  0  0  0  0  0  0
    2.4461   -0.6302   -0.9203 C   0  0  0  0  0  0  0  0  0  0  0  0
    2.9830   -0.3399   -2.1915 C   0  0  0  0  0  0  0  0  0  0  0  0
    2.4847    0.3749   -2.8626 H   0  0  0  0  0  0  0  0  0  0  0  0
    4.1614   -0.9720   -2.6186 C   0  0  0  0  0  0  0  0  0  0  0  0
    4.5709   -0.7449   -3.6145 H   0  0  0  0  0  0  0  0  0  0  0  0
    4.8120   -1.8915   -1.7818 C   0  0  0  0  0  0  0  0  0  0  0  0
    5.7345   -2.3868   -2.1205 H   0  0  0  0  0  0  0  0  0  0  0  0
    4.2785   -2.1870   -0.5165 C   0  0  0  0  0  0  0  0  0  0  0  0
    4.7789   -2.9155    0.1388 H   0  0  0  0  0  0  0  0  0  0  0  0
    3.0978   -1.5655   -0.0885 C   0  0  0  0  0  0  0  0  0  0  0  0
    2.6622   -1.8114    0.8933 H   0  0  0  0  0  0  0  0  0  0  0  0
    1.5074    1.6848    0.5869 C   0  0  0  0  0  0  0  0  0  0  0  0
    2.6385    2.3974    0.1398 C   0  0  0  0  0  0  0  0  0  0  0  0
    3.2459    2.0059   -0.6912 H   0  0  0  0  0  0  0  0  0  0  0  0
    3.0002    3.5998    0.7646 C   0  0  0  0  0  0  0  0  0  0  0  0
    3.8881    4.1499    0.4177 H   0  0  0  0  0  0  0  0  0  0  0  0
    2.2367    4.0964    1.8346 C   0  0  0  0  0  0  0  0  0  0  0  0
    2.5250    5.0389    2.3245 H   0  0  0  0  0  0  0  0  0  0  0  0
    1.1137    3.3851    2.2853 C   0  0  0  0  0  0  0  0  0  0  0  0
    0.5176    3.7665    3.1278 H   0  0  0  0  0  0  0  0  0  0  0  0
    0.7496    2.1794    1.6673 C   0  0  0  0  0  0  0  0  0  0  0  0
   -0.1260    1.6107    2.0186 H   0  0  0  0  0  0  0  0  0  0  0  0
  1 27  1  0  0  0  0
  2  7  1  0  0  0  0
  3  6  1  0  0  0  0
  3  1  1  0  0  0  0
  4  3  1  0  0  0  0
  5  3  1  0  0  0  0
  6  7  2  0  0  0  0
  6 14  1  0  0  0  0
  7  8  1  0  0  0  0
  8  9  1  0  0  0  0
  8 10  2  0  0  0  0
 10 11  1  0  0  0  0
 12 10  1  0  0  0  0
 12 13  1  0  0  0  0
 14 12  2  0  0  0  0
 15 14  1  0  0  0  0
 16  1  1  0  0  0  0
 16 25  1  0  0  0  0
 17 16  2  0  0  0  0
 18 17  1  0  0  0  0
 19 17  1  0  0  0  0
 19 21  2  0  0  0  0
 20 19  1  0  0  0  0
 21 23  1  0  0  0  0
 22 21  1  0  0  0  0
 23 25  2  0  0  0  0
 23 24  1  0  0  0  0
 25 26  1  0  0  0  0
 27 36  1  0  0  0  0
 28 27  2  0  0  0  0
 28 30  1  0  0  0  0
 29 28  1  0  0  0  0
 30 32  2  0  0  0  0
 31 30  1  0  0  0  0
 32 34  1  0  0  0  0
 32 33  1  0  0  0  0
 34 35  1  0  0  0  0
 36 37  1  0  0  0  0
 36 34  2  0  0  0  0
M  END
