1
q = 0.0, confidence = 0.996

 63 66  0  0  0  0  0  0  0  0999 V2000
   -0.0997    0.5212   -0.1796 P   0  0  2  0  0  0  0  0  0  0  0  0
    0.3191   -1.5767    0.4973 P   0  0  1  0  0  0  0  0  0  0  0  0
   -0.5038   -1.2344   -1.5703 P   0  0  1  0  0  0  0  0  0  0  0  0
    1.4533    1.2629   -0.8545 C   0  0  0  0  0  0  0  0  0  0  0  0
    1.4996    1.7730   -2.1871 C   0  0  0  0  0  0  0  0  0  0  0  0
    2.7170    2.2693   -2.6791 C   0  0  0  0  0  0  0  0  0  0  0  0
    3.8889    2.2967   -1.8998 C   0  0  0  0  0  0  0  0  0  0  0  0
    3.7958    1.8634   -0.5707 C   0  0  0  0  0  0  0  0  0  0  0  0
    2.5976    1.3701   -0.0172 C   0  0  0  0  0  0  0  0  0  0  0  0
    0.2897    1.8129   -3.0819 C   0  0  0  0  0  0  0  0  0  0  0  0
    5.1895    2.7879   -2.4807 C   0  0  0  0  0  0  0  0  0  0  0  0
    2.5884    1.0706    1.4590 C   0  0  0  0  0  0  0  0  0  0  0  0
    2.1328   -1.9549    0.4686 C   0  0  0  0  0  0  0  0  0  0  0  0
    3.0438   -1.9512   -0.6304 C   0  0  0  0  0  0  0  0  0  0  0  0
    4.4071   -2.1896   -0.3791 C   0  0  0  0  0  0  0  0  0  0  0  0
    4.9115   -2.4579    0.9043 C   0  0  0  0  0  0  0  0  0  0  0  0
    3.9924   -2.5105    1.9635 C   0  0  0  0  0  0  0  0  0  0  0  0
    2.6187   -2.2741    1.7772 C   0  0  0  0  0  0  0  0  0  0  0  0
    2.6332   -1.7356   -2.0628 C   0  0  0  0  0  0  0  0  0  0  0  0
    6.3795   -2.7201    1.1204 C   0  0  0  0  0  0  0  0  0  0  0  0
    1.7185   -2.3508    2.9906 C   0  0  0  0  0  0  0  0  0  0  0  0
   -2.2740   -1.6954   -1.2720 C   0  0  0  0  0  0  0  0  0  0  0  0
   -3.2893   -0.8480   -1.8027 C   0  0  0  0  0  0  0  0  0  0  0  0
   -4.6372   -1.1759   -1.5896 C   0  0  0  0  0  0  0  0  0  0  0  0
   -5.0207   -2.3378   -0.8986 C   0  0  0  0  0  0  0  0  0  0  0  0
   -4.0048   -3.2152   -0.4858 C   0  0  0  0  0  0  0  0  0  0  0  0
   -2.6387   -2.9353   -0.6722 C   0  0  0  0  0  0  0  0  0  0  0  0
   -2.9468    0.3597   -2.6308 C   0  0  0  0  0  0  0  0  0  0  0  0
   -6.4695   -2.6268   -0.6070 C   0  0  0  0  0  0  0  0  0  0  0  0
   -1.6359   -3.9865   -0.2625 C   0  0  0  0  0  0  0  0  0  0  0  0
    2.7471    2.6531   -3.7118 H   0  0  0  0  0  0  0  0  0  0  0  0
    4.6851    1.9186    0.0777 H   0  0  0  0  0  0  0  0  0  0  0  0
   -0.5661    2.3132   -2.5850 H   0  0  0  0  0  0  0  0  0  0  0  0
   -0.0491    0.7931   -3.3587 H   0  0  0  0  0  0  0  0  0  0  0  0
    0.5086    2.3673   -4.0140 H   0  0  0  0  0  0  0  0  0  0  0  0
    5.0541    3.7434   -3.0271 H   0  0  0  0  0  0  0  0  0  0  0  0
    5.5990    2.0571   -3.2105 H   0  0  0  0  0  0  0  0  0  0  0  0
    5.9557    2.9435   -1.6970 H   0  0  0  0  0  0  0  0  0  0  0  0
    1.7349    0.4465    1.7692 H   0  0  0  0  0  0  0  0  0  0  0  0
    2.5245    2.0212    2.0295 H   0  0  0  0  0  0  0  0  0  0  0  0
    3.5165    0.5519    1.7667 H   0  0  0  0  0  0  0  0  0  0  0  0
    5.1029   -2.1683   -1.2337 H   0  0  0  0  0  0  0  0  0  0  0  0
    4.3527   -2.7413    2.9791 H   0  0  0  0  0  0  0  0  0  0  0  0
    3.5097   -1.8245   -2.7325 H   0  0  0  0  0  0  0  0  0  0  0  0
    2.1895   -0.7340   -2.2222 H   0  0  0  0  0  0  0  0  0  0  0  0
    1.8750   -2.4749   -2.3873 H   0  0  0  0  0  0  0  0  0  0  0  0
    6.6628   -3.7273    0.7462 H   0  0  0  0  0  0  0  0  0  0  0  0
    6.6506   -2.6757    2.1929 H   0  0  0  0  0  0  0  0  0  0  0  0
    7.0068   -1.9878    0.5729 H   0  0  0  0  0  0  0  0  0  0  0  0
    0.8588   -3.0324    2.8284 H   0  0  0  0  0  0  0  0  0  0  0  0
    1.2838   -1.3668    3.2626 H   0  0  0  0  0  0  0  0  0  0  0  0
    2.2863   -2.7180    3.8672 H   0  0  0  0  0  0  0  0  0  0  0  0
   -5.4127   -0.4973   -1.9805 H   0  0  0  0  0  0  0  0  0  0  0  0
   -4.2823   -4.1670   -0.0036 H   0  0  0  0  0  0  0  0  0  0  0  0
   -3.8299    1.0044   -2.7980 H   0  0  0  0  0  0  0  0  0  0  0  0
   -2.5496    0.0583   -3.6244 H   0  0  0  0  0  0  0  0  0  0  0  0
   -2.1643    0.9736   -2.1529 H   0  0  0  0  0  0  0  0  0  0  0  0
   -7.1348   -2.2379   -1.4032 H   0  0  0  0  0  0  0  0  0  0  0  0
   -6.7767   -2.1372    0.3425 H   0  0  0  0  0  0  0  0  0  0  0  0
   -6.6583   -3.7123   -0.4920 H   0  0  0  0  0  0  0  0  0  0  0  0
   -2.1204   -4.9809   -0.2105 H   0  0  0  0  0  0  0  0  0  0  0  0
   -1.1977   -3.7717    0.7356 H   0  0  0  0  0  0  0  0  0  0  0  0
   -0.7878   -4.0557   -0.9731 H   0  0  0  0  0  0  0  0  0  0  0  0
  1  4  1  6  0  0  0
  1  2  1  0  0  0  0
  2 13  1  6  0  0  0
  3 22  1  1  0  0  0
  3  1  1  0  0  0  0
  3  2  1  0  0  0  0
  4  9  1  0  0  0  0
  5  4  2  0  0  0  0
  6  5  1  0  0  0  0
  6  7  2  0  0  0  0
  7  8  1  0  0  0  0
  8  9  2  0  0  0  0
  8 32  1  0  0  0  0
  9 12  1  0  0  0  0
 10 33  1  0  0  0  0
 10  5  1  0  0  0  0
 11  7  1  0  0  0  0
 11 38  1  0  0  0  0
 12 41  1  0  0  0  0
 12 39  1  0  0  0  0
 12 40  1  0  0  0  0
 13 18  1  0  0  0  0
 14 15  1  0  0  0  0
 14 13  2  0  0  0  0
 15 16  2  0  0  0  0
 16 20  1  0  0  0  0
 16 17  1  0  0  0  0
 17 43  1  0  0  0  0
 18 17  2  0  0  0  0
 18 21  1  0  0  0  0
 19 14  1  0  0  0  0
 20 48  1  0  0  0  0
 21 51  1  0  0  0  0
 21 52  1  0  0  0  0
 22 27  1  0  0  0  0
 23 24  1  0  0  0  0
 23 22  2  0  0  0  0
 24 25  2  0  0  0  0
 25 29  1  0  0  0  0
 25 26  1  0  0  0  0
 26 54  1  0  0  0  0
 27 26  2  0  0  0  0
 27 30  1  0  0  0  0
 28 57  1  0  0  0  0
 28 23  1  0  0  0  0
 29 60  1  0  0  0  0
 29 59  1  0  0  0  0
 30 61  1  0  0  0  0
 30 62  1  0  0  0  0
 31  6  1  0  0  0  0
 34 10  1  0  0  0  0
 35 10  1  0  0  0  0
 36 11  1  0  0  0  0
 37 11  1  0  0  0  0
 42 15  1  0  0  0  0
 44 19  1  0  0  0  0
 45 19  1  0  0  0  0
 46 19  1  0  0  0  0
 47 20  1  0  0  0  0
 49 20  1  0  0  0  0
 50 21  1  0  0  0  0
 53 24  1  0  0  0  0
 55 28  1  0  0  0  0
 56 28  1  0  0  0  0
 58 29  1  0  0  0  0
 63 30  1  0  0  0  0
M  END
