1
q = -1.0, confidence = 0.296

 47 49  0  0  1  0  0  0  0  0999 V2000
   -0.7224    0.1204   -0.1217 P   0  0  0  0  0  0  0  0  0  0  0  0
   -1.4613    0.6538    2.6716 N   0  0  0  0  0  0  0  0  0  0  0  0
    0.4298    1.5584    2.0343 N   0  0  0  0  0  0  0  0  0  0  0  0
   -0.6553    1.6233   -1.1575 C   0  0  0  0  0  0  0  0  0  0  0  0
   -1.2350    2.8464   -0.7555 C   0  0  0  0  0  0  0  0  0  0  0  0
   -1.7239    2.9409    0.2271 H   0  0  0  0  0  0  0  0  0  0  0  0
   -1.1770    3.9558   -1.6107 C   0  0  0  0  0  0  0  0  0  0  0  0
   -1.6246    4.9109   -1.2981 H   0  0  0  0  0  0  0  0  0  0  0  0
   -0.5477    3.8481   -2.8626 C   0  0  0  0  0  0  0  0  0  0  0  0
   -0.5028    4.7219   -3.5295 H   0  0  0  0  0  0  0  0  0  0  0  0
    0.0299    2.6321   -3.2615 C   0  0  0  0  0  0  0  0  0  0  0  0
    0.5278    2.5497   -4.2388 H   0  0  0  0  0  0  0  0  0  0  0  0
   -0.0166    1.5177   -2.4112 C   0  0  0  0  0  0  0  0  0  0  0  0
    0.4497    0.5663   -2.7131 H   0  0  0  0  0  0  0  0  0  0  0  0
   -2.3942   -0.5874   -0.3069 C   0  0  0  0  0  0  0  0  0  0  0  0
   -2.5423   -1.9812   -0.1406 C   0  0  0  0  0  0  0  0  0  0  0  0
   -1.6607   -2.6058    0.0777 H   0  0  0  0  0  0  0  0  0  0  0  0
   -3.8109   -2.5652   -0.2691 C   0  0  0  0  0  0  0  0  0  0  0  0
   -3.9260   -3.6518   -0.1429 H   0  0  0  0  0  0  0  0  0  0  0  0
   -4.9244   -1.7667   -0.5778 C   0  0  0  0  0  0  0  0  0  0  0  0
   -5.9171   -2.2283   -0.6867 H   0  0  0  0  0  0  0  0  0  0  0  0
   -4.7706   -0.3831   -0.7730 C   0  0  0  0  0  0  0  0  0  0  0  0
   -5.6396    0.2363   -1.0404 H   0  0  0  0  0  0  0  0  0  0  0  0
   -3.5073    0.2115   -0.6438 C   0  0  0  0  0  0  0  0  0  0  0  0
   -3.3888    1.2911   -0.8190 H   0  0  0  0  0  0  0  0  0  0  0  0
   -0.6374    0.8298    1.5966 C   0  0  1  0  0  3  0  0  0  0  0  0
    0.2750    1.8473    3.3737 C   0  0  0  0  0  0  0  0  0  0  0  0
    1.0134    2.4312    3.9315 H   0  0  0  0  0  0  0  0  0  0  0  0
   -0.9089    1.2794    3.7750 C   0  0  0  0  0  0  0  0  0  0  0  0
   -1.4040    1.2721    4.7508 H   0  0  0  0  0  0  0  0  0  0  0  0
   -2.7250   -0.0875    2.7322 C   0  0  0  0  0  0  0  0  0  0  0  0
   -3.4633    0.3395    2.0309 H   0  0  0  0  0  0  0  0  0  0  0  0
   -3.1099   -0.0145    3.7638 H   0  0  0  0  0  0  0  0  0  0  0  0
   -2.5618   -1.1496    2.4765 H   0  0  0  0  0  0  0  0  0  0  0  0
    1.6317    1.9282    1.2622 C   0  0  0  0  0  0  0  0  0  0  0  0
    1.7953    3.0136    1.4205 H   0  0  0  0  0  0  0  0  0  0  0  0
    1.3930    1.7936    0.1924 H   0  0  0  0  0  0  0  0  0  0  0  0
    2.8658    1.1149    1.6618 C   0  0  0  0  0  0  0  0  0  0  0  0
    2.6372    0.0319    1.5506 H   0  0  0  0  0  0  0  0  0  0  0  0
    3.0880    1.2906    2.7359 H   0  0  0  0  0  0  0  0  0  0  0  0
    4.0891    1.4771    0.8057 C   0  0  0  0  0  0  0  0  0  0  0  0
    4.2826    2.5700    0.8879 H   0  0  0  0  0  0  0  0  0  0  0  0
    4.9725    0.9830    1.2598 H   0  0  0  0  0  0  0  0  0  0  0  0
    3.9825    1.0631   -0.6645 C   0  0  0  0  0  0  0  0  0  0  0  0
    4.8978    1.3481   -1.2191 H   0  0  0  0  0  0  0  0  0  0  0  0
    3.1300    1.5490   -1.1859 H   0  0  0  0  0  0  0  0  0  0  0  0
    3.8582   -0.0347   -0.7633 H   0  0  0  0  0  0  0  0  0  0  0  0
  2 31  1  0  0  0  0
  2 29  1  0  0  0  0
  3 27  1  0  0  0  0
  4  5  1  0  0  0  0
  4  1  1  0  0  0  0
  5  6  1  0  0  0  0
  7  8  1  0  0  0  0
  7  5  2  0  0  0  0
  9  7  1  0  0  0  0
 10  9  1  0  0  0  0
 11  9  2  0  0  0  0
 11 13  1  0  0  0  0
 12 11  1  0  0  0  0
 13  4  2  0  0  0  0
 14 13  1  0  0  0  0
 15 16  1  0  0  0  0
 15  1  1  0  0  0  0
 16 17  1  0  0  0  0
 18 19  1  0  0  0  0
 18 16  2  0  0  0  0
 20 18  1  0  0  0  0
 21 20  1  0  0  0  0
 22 24  1  0  0  0  0
 22 20  2  0  0  0  0
 23 22  1  0  0  0  0
 24 15  2  0  0  0  0
 25 24  1  0  0  0  0
 26  1  1  1  0  0  0
 26  3  1  0  0  0  0
 26  2  1  0  0  0  0
 27 29  2  0  0  0  0
 27 28  1  0  0  0  0
 29 30  1  0  0  0  0
 31 33  1  0  0  0  0
 32 31  1  0  0  0  0
 34 31  1  0  0  0  0
 35 36  1  0  0  0  0
 35 38  1  0  0  0  0
 35  3  1  0  0  0  0
 37 35  1  0  0  0  0
 38 40  1  0  0  0  0
 39 38  1  0  0  0  0
 41 42  1  0  0  0  0
 41 43  1  0  0  0  0
 41 38  1  0  0  0  0
 44 41  1  0  0  0  0
 45 44  1  0  0  0  0
 46 44  1  0  0  0  0
 47 44  1  0  0  0  0
M  END
