2
q = 0.0, confidence = 0.998

 40 43  0  0  1  0  0  0  0  0999 V2000
    6.3747    0.4568   -0.6681 S   0  0  0  0  0  0  0  0  0  0  0  0
    0.3019   -2.2539    0.4764 P   0  0  0  0  0  0  0  0  0  0  0  0
    4.7432   -0.6016    2.7216 O   0  0  0  0  0  0  0  0  0  0  0  0
    3.1921   -1.4961    0.4555 O   0  0  0  0  0  0  0  0  0  0  0  0
    6.2544    0.3531    1.0616 C   0  0  0  0  0  0  0  0  0  0  0  0
    4.8974   -0.4260   -0.9086 C   0  0  0  0  0  0  0  0  0  0  0  0
    4.3461   -0.7859    0.3045 C   0  0  0  0  0  0  0  0  0  0  0  0
    5.1221   -0.3456    1.4362 C   0  0  0  0  0  0  0  0  0  0  0  0
    2.6388   -1.4218    1.7862 C   0  0  2  0  0  0  0  0  0  0  0  0
    3.7478   -1.6254    2.8165 C   0  0  0  0  0  0  0  0  0  0  0  0
    1.5258   -2.4561    1.8672 C   0  0  0  0  0  0  0  0  0  0  0  0
    0.8054   -3.3799   -0.8802 C   0  0  0  0  0  0  0  0  0  0  0  0
   -0.1640   -3.6504   -1.8707 C   0  0  0  0  0  0  0  0  0  0  0  0
    0.1430   -4.4924   -2.9461 C   0  0  0  0  0  0  0  0  0  0  0  0
    1.4205   -5.0674   -3.0497 C   0  0  0  0  0  0  0  0  0  0  0  0
    2.3901   -4.7906   -2.0749 C   0  0  0  0  0  0  0  0  0  0  0  0
    2.0891   -3.9456   -0.9948 C   0  0  0  0  0  0  0  0  0  0  0  0
   -1.2211   -3.0758    1.0895 C   0  0  0  0  0  0  0  0  0  0  0  0
   -1.1843   -4.4312    1.4804 C   0  0  0  0  0  0  0  0  0  0  0  0
   -2.3551   -5.0680    1.9134 C   0  0  0  0  0  0  0  0  0  0  0  0
   -3.5704   -4.3624    1.9385 C   0  0  0  0  0  0  0  0  0  0  0  0
   -3.6122   -3.0186    1.5379 C   0  0  0  0  0  0  0  0  0  0  0  0
   -2.4387   -2.3701    1.1216 C   0  0  0  0  0  0  0  0  0  0  0  0
    7.0163    0.7938    1.7130 H   0  0  0  0  0  0  0  0  0  0  0  0
    4.4969   -0.6257   -1.9084 H   0  0  0  0  0  0  0  0  0  0  0  0
    2.1924   -0.4112    1.9313 H   0  0  0  0  0  0  0  0  0  0  0  0
    4.2161   -2.6280    2.6746 H   0  0  0  0  0  0  0  0  0  0  0  0
    3.3350   -1.5655    3.8416 H   0  0  0  0  0  0  0  0  0  0  0  0
    1.9159   -3.4947    1.8840 H   0  0  0  0  0  0  0  0  0  0  0  0
    0.9316   -2.2742    2.7834 H   0  0  0  0  0  0  0  0  0  0  0  0
   -1.1647   -3.1990   -1.7952 H   0  0  0  0  0  0  0  0  0  0  0  0
   -0.6201   -4.6969   -3.7121 H   0  0  0  0  0  0  0  0  0  0  0  0
    1.6612   -5.7287   -3.8960 H   0  0  0  0  0  0  0  0  0  0  0  0
    3.3958   -5.2309   -2.1543 H   0  0  0  0  0  0  0  0  0  0  0  0
    2.8661   -3.7073   -0.2569 H   0  0  0  0  0  0  0  0  0  0  0  0
   -0.2405   -4.9965    1.4291 H   0  0  0  0  0  0  0  0  0  0  0  0
   -2.3215   -6.1242    2.2214 H   0  0  0  0  0  0  0  0  0  0  0  0
   -4.4919   -4.8673    2.2665 H   0  0  0  0  0  0  0  0  0  0  0  0
   -4.5622   -2.4633    1.5381 H   0  0  0  0  0  0  0  0  0  0  0  0
   -2.4655   -1.3117    0.8212 H   0  0  0  0  0  0  0  0  0  0  0  0
  1  5  1  0  0  0  0
  2 18  1  0  0  0  0
  2 11  1  0  0  0  0
  3 10  1  0  0  0  0
  4  9  1  0  0  0  0
  5  8  2  0  0  0  0
  5 24  1  0  0  0  0
  6  1  1  0  0  0  0
  6  7  2  0  0  0  0
  7  4  1  0  0  0  0
  7  8  1  0  0  0  0
  8  3  1  0  0  0  0
  9 11  1  0  0  0  0
  9 26  1  1  0  0  0
  9 10  1  0  0  0  0
 10 28  1  0  0  0  0
 11 29  1  0  0  0  0
 11 30  1  0  0  0  0
 12  2  1  0  0  0  0
 13 31  1  0  0  0  0
 13 12  2  0  0  0  0
 14 13  1  0  0  0  0
 15 14  2  0  0  0  0
 15 16  1  0  0  0  0
 16 17  2  0  0  0  0
 17 12  1  0  0  0  0
 17 35  1  0  0  0  0
 18 23  2  0  0  0  0
 18 19  1  0  0  0  0
 19 20  2  0  0  0  0
 20 21  1  0  0  0  0
 20 37  1  0  0  0  0
 21 38  1  0  0  0  0
 22 39  1  0  0  0  0
 22 21  2  0  0  0  0
 23 22  1  0  0  0  0
 25  6  1  0  0  0  0
 27 10  1  0  0  0  0
 32 14  1  0  0  0  0
 33 15  1  0  0  0  0
 34 16  1  0  0  0  0
 36 19  1  0  0  0  0
 40 23  1  0  0  0  0
M  END
