2
q = 0.0, confidence = 0.998

 40 43  0  0  1  0  0  0  0  0999 V2000
   -6.3735   -0.4564    0.6742 S   0  0  0  0  0  0  0  0  0  0  0  0
   -0.3024    2.2539   -0.4780 P   0  0  0  0  0  0  0  0  0  0  0  0
   -4.7471    0.6033   -2.7176 O   0  0  0  0  0  0  0  0  0  0  0  0
   -3.1924    1.4968   -0.4535 O   0  0  0  0  0  0  0  0  0  0  0  0
   -6.2558   -0.3520   -1.0557 C   0  0  0  0  0  0  0  0  0  0  0  0
   -4.8956    0.4261    0.9128 C   0  0  0  0  0  0  0  0  0  0  0  0
   -4.3463    0.7866   -0.3010 C   0  0  0  0  0  0  0  0  0  0  0  0
   -5.1240    0.3469   -1.4317 C   0  0  0  0  0  0  0  0  0  0  0  0
   -2.6411    1.4228   -1.7850 C   0  0  1  0  0  0  0  0  0  0  0  0
   -3.7516    1.6269   -2.8136 C   0  0  0  0  0  0  0  0  0  0  0  0
   -1.5281    2.4569   -1.8671 C   0  0  0  0  0  0  0  0  0  0  0  0
   -0.8031    3.3805    0.8792 C   0  0  0  0  0  0  0  0  0  0  0  0
    0.1684    3.6517    1.8674 C   0  0  0  0  0  0  0  0  0  0  0  0
   -0.1365    4.4938    2.9433 C   0  0  0  0  0  0  0  0  0  0  0  0
   -1.4141    5.0682    3.0497 C   0  0  0  0  0  0  0  0  0  0  0  0
   -2.3857    4.7907    2.0772 C   0  0  0  0  0  0  0  0  0  0  0  0
   -2.0868    3.9455    0.9966 C   0  0  0  0  0  0  0  0  0  0  0  0
    1.2206    3.0743   -1.0931 C   0  0  0  0  0  0  0  0  0  0  0  0
    1.1839    4.4285   -1.4876 C   0  0  0  0  0  0  0  0  0  0  0  0
    2.3548    5.0643   -1.9216 C   0  0  0  0  0  0  0  0  0  0  0  0
    3.5703    4.3589   -1.9440 C   0  0  0  0  0  0  0  0  0  0  0  0
    3.6121    3.0162   -1.5397 C   0  0  0  0  0  0  0  0  0  0  0  0
    2.4384    2.3686   -1.1225 C   0  0  0  0  0  0  0  0  0  0  0  0
   -7.0187   -0.7923   -1.7060 H   0  0  0  0  0  0  0  0  0  0  0  0
   -4.4934    0.6253    1.9121 H   0  0  0  0  0  0  0  0  0  0  0  0
   -2.1950    0.4122   -1.9310 H   0  0  0  0  0  0  0  0  0  0  0  0
   -4.2194    2.6296   -2.6707 H   0  0  0  0  0  0  0  0  0  0  0  0
   -3.3402    1.5672   -3.8393 H   0  0  0  0  0  0  0  0  0  0  0  0
   -1.9182    3.4956   -1.8828 H   0  0  0  0  0  0  0  0  0  0  0  0
   -0.9351    2.2754   -2.7843 H   0  0  0  0  0  0  0  0  0  0  0  0
    1.1692    3.2008    1.7897 H   0  0  0  0  0  0  0  0  0  0  0  0
    0.6283    4.6988    3.7075 H   0  0  0  0  0  0  0  0  0  0  0  0
   -1.6531    5.7296    3.8964 H   0  0  0  0  0  0  0  0  0  0  0  0
   -3.3915    5.2305    2.1587 H   0  0  0  0  0  0  0  0  0  0  0  0
   -2.8653    3.7066    0.2605 H   0  0  0  0  0  0  0  0  0  0  0  0
    0.2399    4.9939   -1.4386 H   0  0  0  0  0  0  0  0  0  0  0  0
    2.3212    6.1197   -2.2325 H   0  0  0  0  0  0  0  0  0  0  0  0
    4.4919    4.8631   -2.2727 H   0  0  0  0  0  0  0  0  0  0  0  0
    4.5621    2.4610   -1.5379 H   0  0  0  0  0  0  0  0  0  0  0  0
    2.4651    1.3110   -0.8192 H   0  0  0  0  0  0  0  0  0  0  0  0
  1  6  1  0  0  0  0
  2 12  1  0  0  0  0
  3  8  1  0  0  0  0
  4  7  1  0  0  0  0
  5  1  1  0  0  0  0
  6 25  1  0  0  0  0
  7  6  2  0  0  0  0
  8  5  2  0  0  0  0
  8  7  1  0  0  0  0
  9 26  1  6  0  0  0
  9  4  1  0  0  0  0
 10  3  1  0  0  0  0
 10 27  1  0  0  0  0
 10  9  1  0  0  0  0
 11  9  1  0  0  0  0
 11  2  1  0  0  0  0
 12 17  2  0  0  0  0
 12 13  1  0  0  0  0
 13 14  2  0  0  0  0
 14 15  1  0  0  0  0
 14 32  1  0  0  0  0
 15 33  1  0  0  0  0
 16 34  1  0  0  0  0
 16 15  2  0  0  0  0
 17 16  1  0  0  0  0
 18  2  1  0  0  0  0
 19 36  1  0  0  0  0
 19 18  2  0  0  0  0
 20 19  1  0  0  0  0
 21 20  2  0  0  0  0
 21 22  1  0  0  0  0
 22 39  1  0  0  0  0
 22 23  2  0  0  0  0
 23 18  1  0  0  0  0
 23 40  1  0  0  0  0
 24  5  1  0  0  0  0
 28 10  1  0  0  0  0
 29 11  1  0  0  0  0
 30 11  1  0  0  0  0
 31 13  1  0  0  0  0
 35 17  1  0  0  0  0
 37 20  1  0  0  0  0
 38 21  1  0  0  0  0
M  END
