1
q = 0.0, confidence = 1.0

 39 41  0  0  0  0  0  0  0  0999 V2000
   -1.4554    1.8940    0.0485 P   0  0  0  0  0  0  0  0  0  0  0  0
    0.6117    2.4393   -2.4488 O   0  0  0  0  0  0  0  0  0  0  0  0
   -0.2811    3.2859   -0.4021 C   0  0  0  0  0  0  0  0  0  0  0  0
    0.8597    2.8111   -1.2997 C   0  0  0  0  0  0  0  0  0  0  0  0
    2.2709    2.8087   -0.8007 C   0  0  0  0  0  0  0  0  0  0  0  0
    3.2533    2.2594   -1.6571 C   0  0  0  0  0  0  0  0  0  0  0  0
    4.5937    2.2050   -1.2640 C   0  0  0  0  0  0  0  0  0  0  0  0
    4.9781    2.7166   -0.0115 C   0  0  0  0  0  0  0  0  0  0  0  0
    4.0140    3.2746    0.8432 C   0  0  0  0  0  0  0  0  0  0  0  0
    2.6678    3.3153    0.4558 C   0  0  0  0  0  0  0  0  0  0  0  0
   -2.7797    1.9201   -1.2213 C   0  0  0  0  0  0  0  0  0  0  0  0
   -4.0655    1.4724   -0.8505 C   0  0  0  0  0  0  0  0  0  0  0  0
   -5.0924    1.4175   -1.8017 C   0  0  0  0  0  0  0  0  0  0  0  0
   -4.8450    1.7991   -3.1306 C   0  0  0  0  0  0  0  0  0  0  0  0
   -3.5618    2.2254   -3.5050 C   0  0  0  0  0  0  0  0  0  0  0  0
   -2.5261    2.2799   -2.5594 C   0  0  0  0  0  0  0  0  0  0  0  0
   -2.3296    2.5473    1.5265 C   0  0  0  0  0  0  0  0  0  0  0  0
   -2.3600    1.7849    2.7097 C   0  0  0  0  0  0  0  0  0  0  0  0
   -3.0609    2.2594    3.8291 C   0  0  0  0  0  0  0  0  0  0  0  0
   -3.7253    3.4944    3.7755 C   0  0  0  0  0  0  0  0  0  0  0  0
   -3.6966    4.2572    2.5957 C   0  0  0  0  0  0  0  0  0  0  0  0
   -3.0062    3.7836    1.4713 C   0  0  0  0  0  0  0  0  0  0  0  0
    0.0605    3.6870    0.5671 H   0  0  0  0  0  0  0  0  0  0  0  0
   -0.8543    4.0652   -0.9438 H   0  0  0  0  0  0  0  0  0  0  0  0
    2.9283    1.8645   -2.6291 H   0  0  0  0  0  0  0  0  0  0  0  0
    5.3419    1.7558   -1.9343 H   0  0  0  0  0  0  0  0  0  0  0  0
    6.0331    2.6764    0.3011 H   0  0  0  0  0  0  0  0  0  0  0  0
    4.3089    3.6677    1.8274 H   0  0  0  0  0  0  0  0  0  0  0  0
    1.9260    3.7246    1.1531 H   0  0  0  0  0  0  0  0  0  0  0  0
   -4.2645    1.1680    0.1880 H   0  0  0  0  0  0  0  0  0  0  0  0
   -6.0934    1.0716   -1.5023 H   0  0  0  0  0  0  0  0  0  0  0  0
   -5.6537    1.7570   -3.8761 H   0  0  0  0  0  0  0  0  0  0  0  0
   -3.3580    2.5137   -4.5477 H   0  0  0  0  0  0  0  0  0  0  0  0
   -1.5083    2.5721   -2.8608 H   0  0  0  0  0  0  0  0  0  0  0  0
   -1.8141    0.8312    2.7493 H   0  0  0  0  0  0  0  0  0  0  0  0
   -3.0823    1.6591    4.7512 H   0  0  0  0  0  0  0  0  0  0  0  0
   -4.2711    3.8655    4.6565 H   0  0  0  0  0  0  0  0  0  0  0  0
   -4.2208    5.2239    2.5489 H   0  0  0  0  0  0  0  0  0  0  0  0
   -3.0064    4.3726    0.5407 H   0  0  0  0  0  0  0  0  0  0  0  0
  1 17  1  0  0  0  0
  2  4  2  0  0  0  0
  3  1  1  0  0  0  0
  3 23  1  0  0  0  0
  4  5  1  0  0  0  0
  4  3  1  0  0  0  0
  5 10  1  0  0  0  0
  6  7  1  0  0  0  0
  6  5  2  0  0  0  0
  7  8  2  0  0  0  0
  8 27  1  0  0  0  0
  8  9  1  0  0  0  0
  9 28  1  0  0  0  0
 10  9  2  0  0  0  0
 10 29  1  0  0  0  0
 11 12  1  0  0  0  0
 11  1  1  0  0  0  0
 12 30  1  0  0  0  0
 13 31  1  0  0  0  0
 13 12  2  0  0  0  0
 14 13  1  0  0  0  0
 15 14  2  0  0  0  0
 15 16  1  0  0  0  0
 16 11  2  0  0  0  0
 17 18  1  0  0  0  0
 18 35  1  0  0  0  0
 18 19  2  0  0  0  0
 19 36  1  0  0  0  0
 20 19  1  0  0  0  0
 20 37  1  0  0  0  0
 21 20  2  0  0  0  0
 22 17  2  0  0  0  0
 22 21  1  0  0  0  0
 24  3  1  0  0  0  0
 25  6  1  0  0  0  0
 26  7  1  0  0  0  0
 32 14  1  0  0  0  0
 33 15  1  0  0  0  0
 34 16  1  0  0  0  0
 38 21  1  0  0  0  0
 39 22  1  0  0  0  0
M  END
