1
q = 0.0, confidence = 0.998

 41 41  0  0  0  0  0  0  0  0999 V2000
   -2.1836    0.5178    0.7176 P   0  0  1  0  0  0  0  0  0  0  0  0
   -2.5996    0.6709    2.5752 C   0  0  0  0  0  0  0  0  0  0  0  0
   -4.1033    0.8998    2.7875 C   0  0  0  0  0  0  0  0  0  0  0  0
   -4.2966    0.9678    3.8793 H   0  0  0  0  0  0  0  0  0  0  0  0
   -4.7128    0.0654    2.3891 H   0  0  0  0  0  0  0  0  0  0  0  0
   -4.4626    1.8402    2.3277 H   0  0  0  0  0  0  0  0  0  0  0  0
   -2.1750   -0.6227    3.2910 C   0  0  0  0  0  0  0  0  0  0  0  0
   -2.3304   -0.4899    4.3826 H   0  0  0  0  0  0  0  0  0  0  0  0
   -1.1041   -0.8474    3.1214 H   0  0  0  0  0  0  0  0  0  0  0  0
   -2.7892   -1.4878    2.9724 H   0  0  0  0  0  0  0  0  0  0  0  0
   -1.7995    1.8680    3.1206 C   0  0  0  0  0  0  0  0  0  0  0  0
   -1.9712    1.9408    4.2154 H   0  0  0  0  0  0  0  0  0  0  0  0
   -2.1313    2.8258    2.6724 H   0  0  0  0  0  0  0  0  0  0  0  0
   -0.7125    1.7388    2.9516 H   0  0  0  0  0  0  0  0  0  0  0  0
   -3.2473   -0.8970    0.1405 C   0  0  0  0  0  0  0  0  0  0  0  0
   -4.5319   -0.9379   -0.4642 C   0  0  0  0  0  0  0  0  0  0  0  0
   -5.1171   -2.1812   -0.7806 C   0  0  0  0  0  0  0  0  0  0  0  0
   -6.1062   -2.1914   -1.2570 H   0  0  0  0  0  0  0  0  0  0  0  0
   -4.4667   -3.3881   -0.5032 C   0  0  0  0  0  0  0  0  0  0  0  0
   -4.9488   -4.3426   -0.7610 H   0  0  0  0  0  0  0  0  0  0  0  0
   -3.1975   -3.3621    0.0878 C   0  0  0  0  0  0  0  0  0  0  0  0
   -2.6526   -4.2942    0.3003 H   0  0  0  0  0  0  0  0  0  0  0  0
   -2.6049   -2.1326    0.3929 C   0  0  0  0  0  0  0  0  0  0  0  0
   -1.5882   -2.1172    0.8149 H   0  0  0  0  0  0  0  0  0  0  0  0
   -5.3133    0.2909   -0.8866 C   0  0  0  0  0  0  0  0  0  0  0  0
   -4.7633    0.8844   -1.9783 F   0  0  0  0  0  0  0  0  0  0  0  0
   -5.3791    1.2339    0.0893 F   0  0  0  0  0  0  0  0  0  0  0  0
   -6.5920   -0.0073   -1.2147 F   0  0  0  0  0  0  0  0  0  0  0  0
   -2.6165    2.1515   -0.0465 C   0  0  0  0  0  0  0  0  0  0  0  0
   -3.0375    1.9370   -1.0450 H   0  0  0  0  0  0  0  0  0  0  0  0
   -3.4086    2.6416    0.5535 H   0  0  0  0  0  0  0  0  0  0  0  0
   -1.3785    3.0467   -0.2000 C   0  0  0  0  0  0  0  0  0  0  0  0
   -0.6885    2.5449   -0.9117 H   0  0  0  0  0  0  0  0  0  0  0  0
   -0.8237    3.1271    0.7589 H   0  0  0  0  0  0  0  0  0  0  0  0
   -1.7129    4.4480   -0.7184 C   0  0  0  0  0  0  0  0  0  0  0  0
   -2.3973    4.9565   -0.0030 H   0  0  0  0  0  0  0  0  0  0  0  0
   -2.2819    4.3588   -1.6699 H   0  0  0  0  0  0  0  0  0  0  0  0
   -0.4635    5.3027   -0.9381 C   0  0  0  0  0  0  0  0  0  0  0  0
   -0.7152    6.3163   -1.3092 H   0  0  0  0  0  0  0  0  0  0  0  0
    0.2152    4.8332   -1.6813 H   0  0  0  0  0  0  0  0  0  0  0  0
    0.1103    5.4236    0.0051 H   0  0  0  0  0  0  0  0  0  0  0  0
  1 29  1  6  0  0  0
  1  2  1  0  0  0  0
  2  3  1  0  0  0  0
  2 11  1  0  0  0  0
  2  7  1  0  0  0  0
  3  4  1  0  0  0  0
  5  3  1  0  0  0  0
  6  3  1  0  0  0  0
  7  8  1  0  0  0  0
  9  7  1  0  0  0  0
 10  7  1  0  0  0  0
 11 12  1  0  0  0  0
 13 11  1  0  0  0  0
 14 11  1  0  0  0  0
 15 23  1  0  0  0  0
 15  1  1  0  0  0  0
 16 15  2  0  0  0  0
 17 19  2  0  0  0  0
 17 16  1  0  0  0  0
 18 17  1  0  0  0  0
 19 21  1  0  0  0  0
 20 19  1  0  0  0  0
 21 22  1  0  0  0  0
 21 23  2  0  0  0  0
 23 24  1  0  0  0  0
 25 16  1  0  0  0  0
 25 27  1  0  0  0  0
 26 25  1  0  0  0  0
 28 25  1  0  0  0  0
 29 31  1  0  0  0  0
 30 29  1  0  0  0  0
 32 29  1  0  0  0  0
 32 34  1  0  0  0  0
 33 32  1  0  0  0  0
 35 32  1  0  0  0  0
 35 36  1  0  0  0  0
 37 35  1  0  0  0  0
 38 35  1  0  0  0  0
 38 41  1  0  0  0  0
 39 38  1  0  0  0  0
 40 38  1  0  0  0  0
M  END
