1
q = 0.0, confidence = 0.994

 40 43  0  0  0  0  0  0  0  0999 V2000
    1.0491    0.0419    0.5267 P   0  0  0  0  0  0  0  0  0  0  0  0
    0.1097   -0.5630    1.9946 C   0  0  0  0  0  0  0  0  0  0  0  0
   -0.7117    0.3546    2.6809 C   0  0  0  0  0  0  0  0  0  0  0  0
   -0.8034    1.3923    2.3339 H   0  0  0  0  0  0  0  0  0  0  0  0
   -1.4428   -0.0542    3.8040 C   0  0  0  0  0  0  0  0  0  0  0  0
   -2.1024    0.6658    4.3097 H   0  0  0  0  0  0  0  0  0  0  0  0
   -1.3517   -1.3790    4.2587 C   0  0  0  0  0  0  0  0  0  0  0  0
   -1.9382   -1.7039    5.1312 H   0  0  0  0  0  0  0  0  0  0  0  0
   -0.5124   -2.2872    3.5970 C   0  0  0  0  0  0  0  0  0  0  0  0
   -0.4297   -3.3252    3.9530 H   0  0  0  0  0  0  0  0  0  0  0  0
    0.2191   -1.8845    2.4691 C   0  0  0  0  0  0  0  0  0  0  0  0
    0.8695   -2.6055    1.9552 H   0  0  0  0  0  0  0  0  0  0  0  0
    1.9669   -1.4165   -0.1316 C   0  0  0  0  0  0  0  0  0  0  0  0
    1.2541   -2.5541   -0.6583 C   0  0  0  0  0  0  0  0  0  0  0  0
   -0.1669   -2.6795   -0.6175 C   0  0  0  0  0  0  0  0  0  0  0  0
   -0.7908   -1.8829   -0.1875 H   0  0  0  0  0  0  0  0  0  0  0  0
   -0.7995   -3.8020   -1.1323 C   0  0  0  0  0  0  0  0  0  0  0  0
   -1.8969   -3.8653   -1.0816 H   0  0  0  0  0  0  0  0  0  0  0  0
   -0.0476   -4.8552   -1.7136 C   0  0  0  0  0  0  0  0  0  0  0  0
   -0.5621   -5.7397   -2.1183 H   0  0  0  0  0  0  0  0  0  0  0  0
    1.3346   -4.7658   -1.7704 C   0  0  0  0  0  0  0  0  0  0  0  0
    1.9305   -5.5759   -2.2188 H   0  0  0  0  0  0  0  0  0  0  0  0
    2.0194   -3.6280   -1.2504 C   0  0  0  0  0  0  0  0  0  0  0  0
    3.4404   -3.5328   -1.3045 C   0  0  0  0  0  0  0  0  0  0  0  0
    4.0071   -4.3574   -1.7642 H   0  0  0  0  0  0  0  0  0  0  0  0
    4.0972   -2.4276   -0.7907 C   0  0  0  0  0  0  0  0  0  0  0  0
    5.1943   -2.3597   -0.8344 H   0  0  0  0  0  0  0  0  0  0  0  0
    3.3587   -1.3691   -0.2025 C   0  0  0  0  0  0  0  0  0  0  0  0
    3.8983   -0.4987    0.1974 H   0  0  0  0  0  0  0  0  0  0  0  0
    2.3557    1.0652    1.3338 C   0  0  0  0  0  0  0  0  0  0  0  0
    2.9143    2.1815    0.6823 C   0  0  0  0  0  0  0  0  0  0  0  0
    2.5673    2.4716   -0.3166 H   0  0  0  0  0  0  0  0  0  0  0  0
    3.9257    2.9306    1.3039 C   0  0  0  0  0  0  0  0  0  0  0  0
    4.3507    3.8024    0.7843 H   0  0  0  0  0  0  0  0  0  0  0  0
    4.3856    2.5731    2.5798 C   0  0  0  0  0  0  0  0  0  0  0  0
    5.1742    3.1651    3.0684 H   0  0  0  0  0  0  0  0  0  0  0  0
    3.8326    1.4601    3.2343 C   0  0  0  0  0  0  0  0  0  0  0  0
    4.1864    1.1757    4.2368 H   0  0  0  0  0  0  0  0  0  0  0  0
    2.8229    0.7088    2.6180 C   0  0  0  0  0  0  0  0  0  0  0  0
    2.3885   -0.1570    3.1389 H   0  0  0  0  0  0  0  0  0  0  0  0
  1 30  1  0  0  0  0
  1  2  1  0  0  0  0
  2 11  2  0  0  0  0
  2  3  1  0  0  0  0
  3  5  2  0  0  0  0
  4  3  1  0  0  0  0
  5  7  1  0  0  0  0
  5  6  1  0  0  0  0
  7  8  1  0  0  0  0
  9 10  1  0  0  0  0
  9  7  2  0  0  0  0
 11  9  1  0  0  0  0
 12 11  1  0  0  0  0
 13  1  1  0  0  0  0
 14 15  1  0  0  0  0
 14 13  2  0  0  0  0
 15 16  1  0  0  0  0
 17 18  1  0  0  0  0
 17 15  2  0  0  0  0
 19 17  1  0  0  0  0
 20 19  1  0  0  0  0
 21 19  2  0  0  0  0
 21 23  1  0  0  0  0
 22 21  1  0  0  0  0
 23 14  1  0  0  0  0
 24 23  2  0  0  0  0
 24 26  1  0  0  0  0
 25 24  1  0  0  0  0
 26 28  2  0  0  0  0
 27 26  1  0  0  0  0
 28 13  1  0  0  0  0
 28 29  1  0  0  0  0
 30 39  1  0  0  0  0
 31 33  1  0  0  0  0
 31 30  2  0  0  0  0
 32 31  1  0  0  0  0
 33 35  2  0  0  0  0
 34 33  1  0  0  0  0
 35 36  1  0  0  0  0
 35 37  1  0  0  0  0
 37 38  1  0  0  0  0
 39 40  1  0  0  0  0
 39 37  2  0  0  0  0
M  END
