1
q = -1.0, confidence = 0.0

 24 26  0  0  0  0  0  0  0  0999 V2000
    0.2320   -1.3744    1.6585 P   0  0  0  0  0  4  0  0  0  0  0  0
    1.3738   -0.4281    0.8116 O   0  0  0  0  0  0  0  0  0  0  0  0
    0.8083   -2.8784    1.1999 O   0  0  0  0  0  0  0  0  0  0  0  0
    0.2893   -1.2169    3.1458 O   0  0  0  0  0  0  0  0  0  0  0  0
    2.7239   -0.7117    0.8890 C   0  0  0  0  0  0  0  0  0  0  0  0
    3.5505    0.1526    1.6211 C   0  0  0  0  0  0  0  0  0  0  0  0
    3.0787    0.9767    2.1740 H   0  0  0  0  0  0  0  0  0  0  0  0
    4.9376   -0.0406    1.6133 C   0  0  0  0  0  0  0  0  0  0  0  0
    5.5873    0.6380    2.1864 H   0  0  0  0  0  0  0  0  0  0  0  0
    5.4931   -1.1013    0.8777 C   0  0  0  0  0  0  0  0  0  0  0  0
    6.5815   -1.2626    0.8754 H   0  0  0  0  0  0  0  0  0  0  0  0
    4.6591   -1.9689    0.1606 C   0  0  0  0  0  0  0  0  0  0  0  0
    5.0916   -2.8153   -0.3944 H   0  0  0  0  0  0  0  0  0  0  0  0
    3.2573   -1.8010    0.1540 C   0  0  0  0  0  0  0  0  0  0  0  0
    2.3704   -2.6814   -0.6373 C   0  0  0  0  0  0  0  0  0  0  0  0
    2.7173   -3.0898   -1.9452 C   0  0  0  0  0  0  0  0  0  0  0  0
    3.6735   -2.7458   -2.3687 H   0  0  0  0  0  0  0  0  0  0  0  0
    1.8594   -3.8877   -2.7129 C   0  0  0  0  0  0  0  0  0  0  0  0
    2.1505   -4.1807   -3.7327 H   0  0  0  0  0  0  0  0  0  0  0  0
    0.6239   -4.2994   -2.1832 C   0  0  0  0  0  0  0  0  0  0  0  0
   -0.0598   -4.9163   -2.7857 H   0  0  0  0  0  0  0  0  0  0  0  0
    0.2606   -3.9281   -0.8822 C   0  0  0  0  0  0  0  0  0  0  0  0
   -0.6940   -4.2288   -0.4268 H   0  0  0  0  0  0  0  0  0  0  0  0
    1.1343   -3.1414   -0.1130 C   0  0  0  0  0  0  0  0  0  0  0  0
  1  4  2  0  0  0  0
  2  5  1  0  0  0  0
  2  1  1  0  0  0  0
  3  1  1  0  0  0  0
  5  6  1  0  0  0  0
  6  7  1  0  0  0  0
  8  6  2  0  0  0  0
  8  9  1  0  0  0  0
 10  8  1  0  0  0  0
 11 10  1  0  0  0  0
 12 10  2  0  0  0  0
 13 12  1  0  0  0  0
 14 12  1  0  0  0  0
 14  5  2  0  0  0  0
 15 24  1  0  0  0  0
 15 14  1  0  0  0  0
 16 15  2  0  0  0  0
 17 16  1  0  0  0  0
 18 20  2  0  0  0  0
 18 16  1  0  0  0  0
 19 18  1  0  0  0  0
 20 22  1  0  0  0  0
 21 20  1  0  0  0  0
 22 23  1  0  0  0  0
 22 24  2  0  0  0  0
 24  3  1  0  0  0  0
M  END
