1
q = -1.0, confidence = 0.0

 35 34  0  0  0  0  0  0  0  0999 V2000
    1.0998    0.0232   -0.6746 P   0  0  0  0  0  0  0  0  0  0  0  0
    1.1514    0.4056   -2.5795 B   0  0  0  0  0  0  0  0  0  0  0  0
    2.3015    0.6444   -2.9519 H   0  0  0  0  0  0  0  0  0  0  0  0
    0.4194    1.3923   -2.7412 H   0  0  0  0  0  0  0  0  0  0  0  0
    0.6984   -0.5958   -3.1358 H   0  0  0  0  0  0  0  0  0  0  0  0
    1.7902   -1.5426   -0.4121 N   0  0  0  0  0  0  0  0  0  0  0  0
    1.8973    1.3135    0.1635 N   0  0  0  0  0  0  0  0  0  0  0  0
    1.5507   -2.2675    0.8343 C   0  0  0  0  0  0  0  0  0  0  0  0
    0.8498   -1.6734    1.4589 H   0  0  0  0  0  0  0  0  0  0  0  0
    2.4890   -2.3523    1.4338 H   0  0  0  0  0  0  0  0  0  0  0  0
    2.9504   -1.9641   -1.1997 C   0  0  0  0  0  0  0  0  0  0  0  0
    2.8163   -1.5748   -2.2293 H   0  0  0  0  0  0  0  0  0  0  0  0
    2.9335   -3.0736   -1.2834 H   0  0  0  0  0  0  0  0  0  0  0  0
    1.7264    1.4973    1.6026 C   0  0  0  0  0  0  0  0  0  0  0  0
    0.7308    1.0961    1.8962 H   0  0  0  0  0  0  0  0  0  0  0  0
    1.6935    2.5902    1.8226 H   0  0  0  0  0  0  0  0  0  0  0  0
    2.9648    2.0998   -0.4572 C   0  0  0  0  0  0  0  0  0  0  0  0
    3.2516    1.6080   -1.4069 H   0  0  0  0  0  0  0  0  0  0  0  0
    3.8708    2.0854    0.1923 H   0  0  0  0  0  0  0  0  0  0  0  0
    0.9564   -3.6624    0.6257 C   0  0  0  0  0  0  0  0  0  0  0  0
    0.7928   -4.1668    1.5997 H   0  0  0  0  0  0  0  0  0  0  0  0
   -0.0210   -3.5962    0.1050 H   0  0  0  0  0  0  0  0  0  0  0  0
    1.6161   -4.3129    0.0163 H   0  0  0  0  0  0  0  0  0  0  0  0
    4.3039   -1.5079   -0.6437 C   0  0  0  0  0  0  0  0  0  0  0  0
    5.1355   -1.9024   -1.2630 H   0  0  0  0  0  0  0  0  0  0  0  0
    4.3787   -0.4023   -0.6390 H   0  0  0  0  0  0  0  0  0  0  0  0
    4.4656   -1.8610    0.3958 H   0  0  0  0  0  0  0  0  0  0  0  0
    2.7972    0.8380    2.4787 C   0  0  0  0  0  0  0  0  0  0  0  0
    2.6102    1.0537    3.5503 H   0  0  0  0  0  0  0  0  0  0  0  0
    2.7956   -0.2616    2.3473 H   0  0  0  0  0  0  0  0  0  0  0  0
    3.8142    1.2076    2.2341 H   0  0  0  0  0  0  0  0  0  0  0  0
    2.5559    3.5450   -0.7536 C   0  0  0  0  0  0  0  0  0  0  0  0
    3.4119    4.1214   -1.1609 H   0  0  0  0  0  0  0  0  0  0  0  0
    1.7405    3.5667   -1.5037 H   0  0  0  0  0  0  0  0  0  0  0  0
    2.2047    4.0713    0.1584 H   0  0  0  0  0  0  0  0  0  0  0  0
  1  6  1  0  0  0  0
  1  7  1  0  0  0  0
  2  1  1  0  0  0  0
  3  2  1  0  0  0  0
  4  2  1  0  0  0  0
  5  2  1  0  0  0  0
  6  8  1  0  0  0  0
  7 14  1  0  0  0  0
  8 10  1  0  0  0  0
  8  9  1  0  0  0  0
 11 24  1  0  0  0  0
 11  6  1  0  0  0  0
 12 11  1  0  0  0  0
 13 11  1  0  0  0  0
 14 16  1  0  0  0  0
 14 15  1  0  0  0  0
 14 28  1  0  0  0  0
 17  7  1  0  0  0  0
 17 19  1  0  0  0  0
 18 17  1  0  0  0  0
 20  8  1  0  0  0  0
 20 21  1  0  0  0  0
 22 20  1  0  0  0  0
 23 20  1  0  0  0  0
 24 26  1  0  0  0  0
 24 27  1  0  0  0  0
 25 24  1  0  0  0  0
 28 29  1  0  0  0  0
 30 28  1  0  0  0  0
 31 28  1  0  0  0  0
 32 17  1  0  0  0  0
 32 35  1  0  0  0  0
 33 32  1  0  0  0  0
 34 32  1  0  0  0  0
M  END
