1
q = 0.0, confidence = 0.994

 58 64  0  0  0  0  0  0  0  0999 V2000
   -0.1505   -0.3863    0.3869 P   0  0  0  0  0  0  0  0  0  0  0  0
   -0.4757    1.4072    0.7711 C   0  0  0  0  0  0  0  0  0  0  0  0
   -1.8379    1.8414    0.7738 C   0  0  0  0  0  0  0  0  0  0  0  0
   -2.9622    0.9503    0.7838 C   0  0  0  0  0  0  0  0  0  0  0  0
   -4.2622    1.4201    0.7563 C   0  0  0  0  0  0  0  0  0  0  0  0
   -4.5352    2.8182    0.7188 C   0  0  0  0  0  0  0  0  0  0  0  0
   -3.4887    3.7167    0.7425 C   0  0  0  0  0  0  0  0  0  0  0  0
   -2.1286    3.2672    0.7884 C   0  0  0  0  0  0  0  0  0  0  0  0
   -1.0688    4.1863    0.8457 C   0  0  0  0  0  0  0  0  0  0  0  0
    0.2662    3.7702    0.9735 C   0  0  0  0  0  0  0  0  0  0  0  0
    1.3182    4.7336    1.1140 C   0  0  0  0  0  0  0  0  0  0  0  0
    2.6285    4.3411    1.2910 C   0  0  0  0  0  0  0  0  0  0  0  0
    2.9387    2.9520    1.3572 C   0  0  0  0  0  0  0  0  0  0  0  0
    1.9532    1.9947    1.2035 C   0  0  0  0  0  0  0  0  0  0  0  0
    0.5806    2.3482    0.9734 C   0  0  0  0  0  0  0  0  0  0  0  0
    1.5099   -0.4294   -0.4396 C   0  0  0  0  0  0  0  0  0  0  0  0
    1.6554    0.4551   -1.5553 C   0  0  0  0  0  0  0  0  0  0  0  0
    0.5730    1.2016   -2.1317 C   0  0  0  0  0  0  0  0  0  0  0  0
    0.7753    2.0836   -3.1763 C   0  0  0  0  0  0  0  0  0  0  0  0
    2.0771    2.2904   -3.7181 C   0  0  0  0  0  0  0  0  0  0  0  0
    3.1439    1.5731   -3.2180 C   0  0  0  0  0  0  0  0  0  0  0  0
    2.9698    0.6365   -2.1474 C   0  0  0  0  0  0  0  0  0  0  0  0
    4.0564   -0.1059   -1.6580 C   0  0  0  0  0  0  0  0  0  0  0  0
    3.8990   -1.0706   -0.6497 C   0  0  0  0  0  0  0  0  0  0  0  0
    5.0123   -1.8667   -0.2241 C   0  0  0  0  0  0  0  0  0  0  0  0
    4.8692   -2.8376    0.7450 C   0  0  0  0  0  0  0  0  0  0  0  0
    3.5877   -3.0625    1.3258 C   0  0  0  0  0  0  0  0  0  0  0  0
    2.4939   -2.3032    0.9538 C   0  0  0  0  0  0  0  0  0  0  0  0
    2.5935   -1.2648   -0.0309 C   0  0  0  0  0  0  0  0  0  0  0  0
   -0.1724   -1.1565    2.0599 C   0  0  0  0  0  0  0  0  0  0  0  0
    0.4022   -0.5177    3.1784 C   0  0  0  0  0  0  0  0  0  0  0  0
    0.3344   -1.1228    4.4411 C   0  0  0  0  0  0  0  0  0  0  0  0
   -0.3171   -2.3567    4.6020 C   0  0  0  0  0  0  0  0  0  0  0  0
   -0.9144   -2.9821    3.4962 C   0  0  0  0  0  0  0  0  0  0  0  0
   -0.8479   -2.3837    2.2296 C   0  0  0  0  0  0  0  0  0  0  0  0
   -2.7950   -0.1347    0.8332 H   0  0  0  0  0  0  0  0  0  0  0  0
   -5.0944    0.7005    0.7690 H   0  0  0  0  0  0  0  0  0  0  0  0
   -5.5759    3.1737    0.6864 H   0  0  0  0  0  0  0  0  0  0  0  0
   -3.6764    4.8016    0.7380 H   0  0  0  0  0  0  0  0  0  0  0  0
   -1.2929    5.2647    0.8204 H   0  0  0  0  0  0  0  0  0  0  0  0
    1.0481    5.8007    1.0923 H   0  0  0  0  0  0  0  0  0  0  0  0
    3.4267    5.0899    1.4022 H   0  0  0  0  0  0  0  0  0  0  0  0
    3.9753    2.6313    1.5401 H   0  0  0  0  0  0  0  0  0  0  0  0
    2.2362    0.9393    1.2784 H   0  0  0  0  0  0  0  0  0  0  0  0
   -0.4528    1.0470   -1.7699 H   0  0  0  0  0  0  0  0  0  0  0  0
   -0.0854    2.6203   -3.6022 H   0  0  0  0  0  0  0  0  0  0  0  0
    2.2214    3.0030   -4.5438 H   0  0  0  0  0  0  0  0  0  0  0  0
    4.1537    1.6972   -3.6389 H   0  0  0  0  0  0  0  0  0  0  0  0
    5.0551    0.0539   -2.0946 H   0  0  0  0  0  0  0  0  0  0  0  0
    5.9869   -1.6910   -0.7054 H   0  0  0  0  0  0  0  0  0  0  0  0
    5.7303   -3.4472    1.0569 H   0  0  0  0  0  0  0  0  0  0  0  0
    3.4595   -3.8596    2.0736 H   0  0  0  0  0  0  0  0  0  0  0  0
    1.5237   -2.5272    1.4054 H   0  0  0  0  0  0  0  0  0  0  0  0
    0.8992    0.4562    3.0683 H   0  0  0  0  0  0  0  0  0  0  0  0
    0.7896   -0.6211    5.3083 H   0  0  0  0  0  0  0  0  0  0  0  0
   -0.3705   -2.8257    5.5962 H   0  0  0  0  0  0  0  0  0  0  0  0
   -1.4428   -3.9395    3.6185 H   0  0  0  0  0  0  0  0  0  0  0  0
   -1.3204   -2.8635    1.3568 H   0  0  0  0  0  0  0  0  0  0  0  0
  1  2  1  0  0  0  0
  1 30  1  0  0  0  0
  2  3  2  0  0  0  0
  2 15  1  0  0  0  0
  3  4  1  0  0  0  0
  3  8  1  0  0  0  0
  4 36  1  0  0  0  0
  5 37  1  0  0  0  0
  5  4  2  0  0  0  0
  6  7  2  0  0  0  0
  6  5  1  0  0  0  0
  7  8  1  0  0  0  0
  8  9  2  0  0  0  0
  9 10  1  0  0  0  0
 10 11  1  0  0  0  0
 11 12  2  0  0  0  0
 12 13  1  0  0  0  0
 12 42  1  0  0  0  0
 13 43  1  0  0  0  0
 14 44  1  0  0  0  0
 14 13  2  0  0  0  0
 15 10  2  0  0  0  0
 15 14  1  0  0  0  0
 16 29  1  0  0  0  0
 16  1  1  0  0  0  0
 17 16  2  0  0  0  0
 18 45  1  0  0  0  0
 18 17  1  0  0  0  0
 19 18  2  0  0  0  0
 20 21  2  0  0  0  0
 20 19  1  0  0  0  0
 21 22  1  0  0  0  0
 22 23  2  0  0  0  0
 22 17  1  0  0  0  0
 23 24  1  0  0  0  0
 24 25  2  0  0  0  0
 24 29  1  0  0  0  0
 25 26  1  0  0  0  0
 26 51  1  0  0  0  0
 26 27  2  0  0  0  0
 27 52  1  0  0  0  0
 28 27  1  0  0  0  0
 28 53  1  0  0  0  0
 29 28  2  0  0  0  0
 30 35  2  0  0  0  0
 30 31  1  0  0  0  0
 31 32  2  0  0  0  0
 32 33  1  0  0  0  0
 32 55  1  0  0  0  0
 33 56  1  0  0  0  0
 34 57  1  0  0  0  0
 34 33  2  0  0  0  0
 35 34  1  0  0  0  0
 38  6  1  0  0  0  0
 39  7  1  0  0  0  0
 40  9  1  0  0  0  0
 41 11  1  0  0  0  0
 46 19  1  0  0  0  0
 47 20  1  0  0  0  0
 48 21  1  0  0  0  0
 49 23  1  0  0  0  0
 50 25  1  0  0  0  0
 54 31  1  0  0  0  0
 58 35  1  0  0  0  0
M  END
