1
q = 0.0, confidence = 0.996

 45 46  0  0  1  0  0  0  0  0999 V2000
    0.3328   -0.3404   -0.4116 P   0  0  1  0  0  0  0  0  0  0  0  0
    1.2032    2.6025   -1.1571 Si  0  0  0  0  0  0  0  0  0  0  0  0
    2.0759    1.1898    1.7151 Si  0  0  0  0  0  0  0  0  0  0  0  0
    0.8098   -1.1338   -1.8710 O   0  0  0  0  0  0  0  0  0  0  0  0
    3.2458   -2.4658    0.5671 N   0  0  0  0  0  0  0  0  0  0  0  0
    1.2765   -1.8945   -0.7237 C   0  0  1  0  0  0  0  0  0  0  0  0
    2.7697   -1.8946   -0.5577 C   0  0  0  0  0  0  0  0  0  0  0  0
    3.6109   -1.3477   -1.5495 C   0  0  0  0  0  0  0  0  0  0  0  0
    3.1621   -0.9129   -2.4537 H   0  0  0  0  0  0  0  0  0  0  0  0
    4.9974   -1.3972   -1.3528 C   0  0  0  0  0  0  0  0  0  0  0  0
    5.6823   -0.9856   -2.1100 H   0  0  0  0  0  0  0  0  0  0  0  0
    5.4958   -1.9830   -0.1800 C   0  0  0  0  0  0  0  0  0  0  0  0
    6.5760   -2.0413    0.0179 H   0  0  0  0  0  0  0  0  0  0  0  0
    4.5737   -2.5021    0.7452 C   0  0  0  0  0  0  0  0  0  0  0  0
    4.9274   -2.9702    1.6810 H   0  0  0  0  0  0  0  0  0  0  0  0
    0.6244   -3.2411   -0.5085 C   0  0  0  0  0  0  0  0  0  0  0  0
    0.8756   -3.9086   -1.3590 H   0  0  0  0  0  0  0  0  0  0  0  0
   -0.4745   -3.1629   -0.4406 H   0  0  0  0  0  0  0  0  0  0  0  0
    1.0195   -3.6888    0.4225 H   0  0  0  0  0  0  0  0  0  0  0  0
    1.5278    1.0058   -0.1374 C   0  0  0  0  0  0  0  0  0  0  0  0
    2.4626    0.6262   -0.6085 H   0  0  0  0  0  0  0  0  0  0  0  0
    0.8361    2.0836   -2.9379 C   0  0  0  0  0  0  0  0  0  0  0  0
    1.6437    1.4382   -3.3386 H   0  0  0  0  0  0  0  0  0  0  0  0
    0.7514    2.9779   -3.5892 H   0  0  0  0  0  0  0  0  0  0  0  0
   -0.1137    1.5196   -3.0202 H   0  0  0  0  0  0  0  0  0  0  0  0
   -0.1882    3.6893   -0.4903 C   0  0  0  0  0  0  0  0  0  0  0  0
   -0.3810    4.5090   -1.2131 H   0  0  0  0  0  0  0  0  0  0  0  0
    0.0748    4.1456    0.4828 H   0  0  0  0  0  0  0  0  0  0  0  0
   -1.1344    3.1326   -0.3606 H   0  0  0  0  0  0  0  0  0  0  0  0
    2.8259    3.5820   -1.1280 C   0  0  0  0  0  0  0  0  0  0  0  0
    3.0830    3.9312   -0.1076 H   0  0  0  0  0  0  0  0  0  0  0  0
    2.7402    4.4780   -1.7770 H   0  0  0  0  0  0  0  0  0  0  0  0
    3.6724    2.9716   -1.5045 H   0  0  0  0  0  0  0  0  0  0  0  0
    1.5076    2.8023    2.5191 C   0  0  0  0  0  0  0  0  0  0  0  0
    1.9031    3.6932    1.9917 H   0  0  0  0  0  0  0  0  0  0  0  0
    1.9007    2.8291    3.5570 H   0  0  0  0  0  0  0  0  0  0  0  0
    0.4056    2.8843    2.5746 H   0  0  0  0  0  0  0  0  0  0  0  0
    3.9685    1.1824    1.6752 C   0  0  0  0  0  0  0  0  0  0  0  0
    4.3760    1.2943    2.7013 H   0  0  0  0  0  0  0  0  0  0  0  0
    4.3597    2.0190    1.0613 H   0  0  0  0  0  0  0  0  0  0  0  0
    4.3602    0.2350    1.2542 H   0  0  0  0  0  0  0  0  0  0  0  0
    1.4541   -0.2804    2.7257 C   0  0  0  0  0  0  0  0  0  0  0  0
    0.3478   -0.3052    2.7883 H   0  0  0  0  0  0  0  0  0  0  0  0
    1.8449   -0.2084    3.7620 H   0  0  0  0  0  0  0  0  0  0  0  0
    1.8057   -1.2400    2.2925 H   0  0  0  0  0  0  0  0  0  0  0  0
  1 20  1  6  0  0  0
  2 30  1  0  0  0  0
  2 26  1  0  0  0  0
  2 20  1  0  0  0  0
  3 34  1  0  0  0  0
  3 42  1  0  0  0  0
  4  6  1  0  0  0  0
  4  1  1  0  0  0  0
  5 14  1  0  0  0  0
  6  7  1  0  0  0  0
  6 16  1  1  0  0  0
  6  1  1  0  0  0  0
  7  5  2  0  0  0  0
  8 10  2  0  0  0  0
  8  7  1  0  0  0  0
  9  8  1  0  0  0  0
 10 12  1  0  0  0  0
 11 10  1  0  0  0  0
 12 13  1  0  0  0  0
 12 14  2  0  0  0  0
 14 15  1  0  0  0  0
 16 18  1  0  0  0  0
 16 19  1  0  0  0  0
 17 16  1  0  0  0  0
 20  3  1  0  0  0  0
 21 20  1  0  0  0  0
 22  2  1  0  0  0  0
 23 22  1  0  0  0  0
 24 22  1  0  0  0  0
 25 22  1  0  0  0  0
 26 29  1  0  0  0  0
 26 28  1  0  0  0  0
 27 26  1  0  0  0  0
 30 31  1  0  0  0  0
 32 30  1  0  0  0  0
 33 30  1  0  0  0  0
 34 37  1  0  0  0  0
 34 36  1  0  0  0  0
 35 34  1  0  0  0  0
 38  3  1  0  0  0  0
 38 39  1  0  0  0  0
 40 38  1  0  0  0  0
 41 38  1  0  0  0  0
 42 43  1  0  0  0  0
 42 44  1  0  0  0  0
 45 42  1  0  0  0  0
M  END
