1
q = 0.0, confidence = 0.998

 62 64  0  0  0  0  0  0  0  0999 V2000
   -0.3654   -0.2037    0.0027 P   0  0  2  0  0  0  0  0  0  0  0  0
    2.0492   -0.8921   -0.6792 P   0  0  1  0  0  0  0  0  0  0  0  0
   -0.4255    0.7472    1.3860 O   0  0  0  0  0  0  0  0  0  0  0  0
    3.0925   -0.2470    0.5147 O   0  0  0  0  0  0  0  0  0  0  0  0
   -2.2774    2.4069    0.2867 O   0  0  0  0  0  0  0  0  0  0  0  0
    4.5064    1.9984    0.3033 O   0  0  0  0  0  0  0  0  0  0  0  0
    0.7320   -1.4756    0.3280 N   0  0  0  0  0  0  0  0  0  0  0  0
    0.9166    0.4242   -0.9142 N   0  0  0  0  0  0  0  0  0  0  0  0
    0.4319   -2.8782    0.6973 C   0  0  0  0  0  0  0  0  0  0  0  0
   -0.5785   -2.8526    1.8556 C   0  0  0  0  0  0  0  0  0  0  0  0
   -0.1582   -2.3147    2.7276 H   0  0  0  0  0  0  0  0  0  0  0  0
   -0.8324   -3.8856    2.1648 H   0  0  0  0  0  0  0  0  0  0  0  0
   -1.5232   -2.3524    1.5554 H   0  0  0  0  0  0  0  0  0  0  0  0
    1.7470   -3.5223    1.1644 C   0  0  0  0  0  0  0  0  0  0  0  0
    2.4761   -3.5819    0.3293 H   0  0  0  0  0  0  0  0  0  0  0  0
    1.5628   -4.5564    1.5163 H   0  0  0  0  0  0  0  0  0  0  0  0
    2.2013   -2.9381    1.9885 H   0  0  0  0  0  0  0  0  0  0  0  0
   -0.1434   -3.6490   -0.5051 C   0  0  0  0  0  0  0  0  0  0  0  0
   -1.0922   -3.1876   -0.8493 H   0  0  0  0  0  0  0  0  0  0  0  0
   -0.3498   -4.7053   -0.2393 H   0  0  0  0  0  0  0  0  0  0  0  0
    0.5731   -3.6381   -1.3517 H   0  0  0  0  0  0  0  0  0  0  0  0
    1.0886    1.7193   -1.6093 C   0  0  0  0  0  0  0  0  0  0  0  0
   -0.1237    1.9533   -2.5251 C   0  0  0  0  0  0  0  0  0  0  0  0
   -0.2063    1.1516   -3.2856 H   0  0  0  0  0  0  0  0  0  0  0  0
   -0.0312    2.9281   -3.0444 H   0  0  0  0  0  0  0  0  0  0  0  0
   -1.0618    1.9641   -1.9364 H   0  0  0  0  0  0  0  0  0  0  0  0
    1.2153    2.8446   -0.5644 C   0  0  0  0  0  0  0  0  0  0  0  0
    0.2801    2.9384    0.0198 H   0  0  0  0  0  0  0  0  0  0  0  0
    1.4142    3.8141   -1.0659 H   0  0  0  0  0  0  0  0  0  0  0  0
    2.0480    2.6169    0.1286 H   0  0  0  0  0  0  0  0  0  0  0  0
    2.3728    1.6291   -2.4491 C   0  0  0  0  0  0  0  0  0  0  0  0
    3.2607    1.4973   -1.7995 H   0  0  0  0  0  0  0  0  0  0  0  0
    2.5100    2.5699   -3.0175 H   0  0  0  0  0  0  0  0  0  0  0  0
    2.3210    0.7927   -3.1751 H   0  0  0  0  0  0  0  0  0  0  0  0
   -1.6165    0.9839    2.0551 C   0  0  0  0  0  0  0  0  0  0  0  0
   -1.8328    0.3942    3.3047 C   0  0  0  0  0  0  0  0  0  0  0  0
   -1.0459   -0.2557    3.7125 H   0  0  0  0  0  0  0  0  0  0  0  0
   -3.0247    0.6362    4.0068 C   0  0  0  0  0  0  0  0  0  0  0  0
   -3.1883    0.1686    4.9884 H   0  0  0  0  0  0  0  0  0  0  0  0
   -4.0017    1.4647    3.4399 C   0  0  0  0  0  0  0  0  0  0  0  0
   -4.9471    1.6499    3.9712 H   0  0  0  0  0  0  0  0  0  0  0  0
   -3.7907    2.0676    2.1890 C   0  0  0  0  0  0  0  0  0  0  0  0
   -4.5682    2.7116    1.7579 H   0  0  0  0  0  0  0  0  0  0  0  0
   -2.5904    1.8479    1.4884 C   0  0  0  0  0  0  0  0  0  0  0  0
   -3.3127    3.0613   -0.4358 C   0  0  0  0  0  0  0  0  0  0  0  0
   -4.1610    2.3702   -0.6325 H   0  0  0  0  0  0  0  0  0  0  0  0
   -2.8671    3.3693   -1.3993 H   0  0  0  0  0  0  0  0  0  0  0  0
   -3.6768    3.9651    0.0998 H   0  0  0  0  0  0  0  0  0  0  0  0
    4.4589   -0.3597    0.4074 C   0  0  0  0  0  0  0  0  0  0  0  0
    5.1109   -1.5995    0.4121 C   0  0  0  0  0  0  0  0  0  0  0  0
    4.5010   -2.5110    0.4870 H   0  0  0  0  0  0  0  0  0  0  0  0
    6.5133   -1.6728    0.3446 C   0  0  0  0  0  0  0  0  0  0  0  0
    7.0108   -2.6535    0.3501 H   0  0  0  0  0  0  0  0  0  0  0  0
    7.2645   -0.4937    0.2814 C   0  0  0  0  0  0  0  0  0  0  0  0
    8.3629   -0.5366    0.2357 H   0  0  0  0  0  0  0  0  0  0  0  0
    6.6250    0.7591    0.2766 C   0  0  0  0  0  0  0  0  0  0  0  0
    7.2284    1.6751    0.2222 H   0  0  0  0  0  0  0  0  0  0  0  0
    5.2219    0.8398    0.3308 C   0  0  0  0  0  0  0  0  0  0  0  0
    5.2099    3.2236    0.2264 C   0  0  0  0  0  0  0  0  0  0  0  0
    5.8716    3.3754    1.1081 H   0  0  0  0  0  0  0  0  0  0  0  0
    4.4423    4.0195    0.2090 H   0  0  0  0  0  0  0  0  0  0  0  0
    5.8250    3.2911   -0.6991 H   0  0  0  0  0  0  0  0  0  0  0  0
  1  7  1  0  0  0  0
  1  3  1  1  0  0  0
  2  7  1  0  0  0  0
  2  4  1  1  0  0  0
  3 35  1  0  0  0  0
  5 44  1  0  0  0  0
  6 58  1  0  0  0  0
  7  9  1  0  0  0  0
  8  2  1  0  0  0  0
  8  1  1  0  0  0  0
  9 14  1  0  0  0  0
  9 10  1  0  0  0  0
 10 12  1  0  0  0  0
 10 11  1  0  0  0  0
 13 10  1  0  0  0  0
 14 16  1  0  0  0  0
 14 17  1  0  0  0  0
 15 14  1  0  0  0  0
 18 20  1  0  0  0  0
 18  9  1  0  0  0  0
 19 18  1  0  0  0  0
 21 18  1  0  0  0  0
 22  8  1  0  0  0  0
 22 27  1  0  0  0  0
 23 26  1  0  0  0  0
 23 22  1  0  0  0  0
 24 23  1  0  0  0  0
 25 23  1  0  0  0  0
 27 28  1  0  0  0  0
 27 30  1  0  0  0  0
 29 27  1  0  0  0  0
 31 32  1  0  0  0  0
 31 22  1  0  0  0  0
 33 31  1  0  0  0  0
 34 31  1  0  0  0  0
 35 36  1  0  0  0  0
 36 37  1  0  0  0  0
 36 38  2  0  0  0  0
 38 39  1  0  0  0  0
 40 41  1  0  0  0  0
 40 38  1  0  0  0  0
 42 40  2  0  0  0  0
 43 42  1  0  0  0  0
 44 35  2  0  0  0  0
 44 42  1  0  0  0  0
 45 48  1  0  0  0  0
 45  5  1  0  0  0  0
 46 45  1  0  0  0  0
 47 45  1  0  0  0  0
 49 50  1  0  0  0  0
 49  4  1  0  0  0  0
 50 51  1  0  0  0  0
 52 53  1  0  0  0  0
 52 50  2  0  0  0  0
 54 52  1  0  0  0  0
 55 54  1  0  0  0  0
 56 54  2  0  0  0  0
 56 58  1  0  0  0  0
 57 56  1  0  0  0  0
 58 49  2  0  0  0  0
 59  6  1  0  0  0  0
 59 60  1  0  0  0  0
 61 59  1  0  0  0  0
 62 59  1  0  0  0  0
M  END
