1
q = 0.0, confidence = 0.99

 61 63  0  0  0  0  0  0  0  0999 V2000
   -1.7285    0.0210    0.0263 P   0  0  0  0  0  0  0  0  0  0  0  0
   -2.3980   -0.3351   -1.6624 C   0  0  0  0  0  0  0  0  0  0  0  0
   -3.4202    0.4386   -2.2881 C   0  0  0  0  0  0  0  0  0  0  0  0
   -3.7552    0.1543   -3.6260 C   0  0  0  0  0  0  0  0  0  0  0  0
   -4.5443    0.7584   -4.1020 H   0  0  0  0  0  0  0  0  0  0  0  0
   -3.1488   -0.8741   -4.3627 C   0  0  0  0  0  0  0  0  0  0  0  0
   -2.1986   -1.6670   -3.7005 C   0  0  0  0  0  0  0  0  0  0  0  0
   -1.7403   -2.5159   -4.2328 H   0  0  0  0  0  0  0  0  0  0  0  0
   -1.8079   -1.4283   -2.3713 C   0  0  0  0  0  0  0  0  0  0  0  0
   -2.2126    1.7149    0.5958 C   0  0  0  0  0  0  0  0  0  0  0  0
   -1.5704    2.8162   -0.0534 C   0  0  0  0  0  0  0  0  0  0  0  0
   -1.7908    4.1146    0.4388 C   0  0  0  0  0  0  0  0  0  0  0  0
   -1.2951    4.9548   -0.0734 H   0  0  0  0  0  0  0  0  0  0  0  0
   -2.6189    4.3749    1.5419 C   0  0  0  0  0  0  0  0  0  0  0  0
   -3.2864    3.2840    2.1185 C   0  0  0  0  0  0  0  0  0  0  0  0
   -3.9880    3.4647    2.9488 H   0  0  0  0  0  0  0  0  0  0  0  0
   -3.1210    1.9600    1.6677 C   0  0  0  0  0  0  0  0  0  0  0  0
   -2.2630   -1.2843    1.2279 C   0  0  0  0  0  0  0  0  0  0  0  0
   -3.3119   -2.2157    0.9631 C   0  0  0  0  0  0  0  0  0  0  0  0
   -3.5234   -3.2671    1.8754 C   0  0  0  0  0  0  0  0  0  0  0  0
   -4.3330   -3.9834    1.6618 H   0  0  0  0  0  0  0  0  0  0  0  0
   -2.7691   -3.4228    3.0482 C   0  0  0  0  0  0  0  0  0  0  0  0
   -1.8010   -2.4459    3.3255 C   0  0  0  0  0  0  0  0  0  0  0  0
   -1.2292   -2.5049    4.2654 H   0  0  0  0  0  0  0  0  0  0  0  0
   -1.5295   -1.3783    2.4515 C   0  0  0  0  0  0  0  0  0  0  0  0
   -4.2292    1.5166   -1.6063 C   0  0  0  0  0  0  0  0  0  0  0  0
   -4.5533    1.2247   -0.5897 H   0  0  0  0  0  0  0  0  0  0  0  0
   -5.1360    1.7343   -2.2021 H   0  0  0  0  0  0  0  0  0  0  0  0
   -3.6686    2.4651   -1.4902 H   0  0  0  0  0  0  0  0  0  0  0  0
   -3.5024   -1.1201   -5.8055 C   0  0  0  0  0  0  0  0  0  0  0  0
   -4.5168   -0.7484   -6.0488 H   0  0  0  0  0  0  0  0  0  0  0  0
   -3.4529   -2.1971   -6.0608 H   0  0  0  0  0  0  0  0  0  0  0  0
   -2.7899   -0.5949   -6.4775 H   0  0  0  0  0  0  0  0  0  0  0  0
   -0.8072   -2.3794   -1.7640 C   0  0  0  0  0  0  0  0  0  0  0  0
   -1.0866   -2.7062   -0.7430 H   0  0  0  0  0  0  0  0  0  0  0  0
    0.1990   -1.9123   -1.6768 H   0  0  0  0  0  0  0  0  0  0  0  0
   -0.6992   -3.2814   -2.3957 H   0  0  0  0  0  0  0  0  0  0  0  0
   -0.6925    2.6813   -1.2730 C   0  0  0  0  0  0  0  0  0  0  0  0
   -0.6281    3.6503   -1.8043 H   0  0  0  0  0  0  0  0  0  0  0  0
   -1.0594    1.9250   -1.9932 H   0  0  0  0  0  0  0  0  0  0  0  0
    0.3485    2.3900   -1.0150 H   0  0  0  0  0  0  0  0  0  0  0  0
   -2.7860    5.7714    2.0801 C   0  0  0  0  0  0  0  0  0  0  0  0
   -2.7469    6.5283    1.2719 H   0  0  0  0  0  0  0  0  0  0  0  0
   -1.9690    6.0165    2.7924 H   0  0  0  0  0  0  0  0  0  0  0  0
   -3.7428    5.8898    2.6252 H   0  0  0  0  0  0  0  0  0  0  0  0
   -3.9798    0.9093    2.3313 C   0  0  0  0  0  0  0  0  0  0  0  0
   -4.4461    0.2214    1.6012 H   0  0  0  0  0  0  0  0  0  0  0  0
   -4.7916    1.3987    2.9023 H   0  0  0  0  0  0  0  0  0  0  0  0
   -3.4112    0.2715    3.0363 H   0  0  0  0  0  0  0  0  0  0  0  0
   -4.2720   -2.1342   -0.2004 C   0  0  0  0  0  0  0  0  0  0  0  0
   -4.6282   -1.1033   -0.3830 H   0  0  0  0  0  0  0  0  0  0  0  0
   -5.1570   -2.7663    0.0044 H   0  0  0  0  0  0  0  0  0  0  0  0
   -3.8259   -2.4817   -1.1531 H   0  0  0  0  0  0  0  0  0  0  0  0
   -2.9921   -4.5870    3.9768 C   0  0  0  0  0  0  0  0  0  0  0  0
   -4.0114   -5.0072    3.8717 H   0  0  0  0  0  0  0  0  0  0  0  0
   -2.8381   -4.3004    5.0359 H   0  0  0  0  0  0  0  0  0  0  0  0
   -2.2738   -5.4057    3.7560 H   0  0  0  0  0  0  0  0  0  0  0  0
   -0.4895   -0.3799    2.9003 C   0  0  0  0  0  0  0  0  0  0  0  0
   -0.4361   -0.3684    4.0066 H   0  0  0  0  0  0  0  0  0  0  0  0
   -0.6967    0.6536    2.5637 H   0  0  0  0  0  0  0  0  0  0  0  0
    0.5216   -0.6640    2.5329 H   0  0  0  0  0  0  0  0  0  0  0  0
  1 10  1  0  0  0  0
  1 18  1  0  0  0  0
  2  1  1  0  0  0  0
  3  2  1  0  0  0  0
  3 26  1  0  0  0  0
  4  3  2  0  0  0  0
  5  4  1  0  0  0  0
  6  7  2  0  0  0  0
  6  4  1  0  0  0  0
  7  9  1  0  0  0  0
  8  7  1  0  0  0  0
  9 34  1  0  0  0  0
  9  2  2  0  0  0  0
 10 17  1  0  0  0  0
 11 12  1  0  0  0  0
 11 10  2  0  0  0  0
 12 14  2  0  0  0  0
 13 12  1  0  0  0  0
 14 42  1  0  0  0  0
 14 15  1  0  0  0  0
 15 16  1  0  0  0  0
 17 15  2  0  0  0  0
 17 46  1  0  0  0  0
 18 25  1  0  0  0  0
 19 18  2  0  0  0  0
 19 20  1  0  0  0  0
 20 22  2  0  0  0  0
 21 20  1  0  0  0  0
 22 23  1  0  0  0  0
 22 54  1  0  0  0  0
 23 24  1  0  0  0  0
 25 58  1  0  0  0  0
 25 23  2  0  0  0  0
 26 29  1  0  0  0  0
 26 27  1  0  0  0  0
 28 26  1  0  0  0  0
 30  6  1  0  0  0  0
 31 30  1  0  0  0  0
 32 30  1  0  0  0  0
 33 30  1  0  0  0  0
 34 36  1  0  0  0  0
 34 35  1  0  0  0  0
 37 34  1  0  0  0  0
 38 41  1  0  0  0  0
 38 11  1  0  0  0  0
 39 38  1  0  0  0  0
 40 38  1  0  0  0  0
 42 45  1  0  0  0  0
 42 44  1  0  0  0  0
 43 42  1  0  0  0  0
 46 48  1  0  0  0  0
 46 49  1  0  0  0  0
 47 46  1  0  0  0  0
 50 52  1  0  0  0  0
 50 19  1  0  0  0  0
 51 50  1  0  0  0  0
 53 50  1  0  0  0  0
 54 56  1  0  0  0  0
 55 54  1  0  0  0  0
 57 54  1  0  0  0  0
 58 59  1  0  0  0  0
 60 58  1  0  0  0  0
 61 58  1  0  0  0  0
M  END
