1
q = 0.0, confidence = 1.0

 42 44  0  0  0  0  0  0  0  0999 V2000
   -0.2223    0.6957    0.0493 P   0  0  0  0  0  0  0  0  0  0  0  0
    2.2648   -0.7850    0.3061 O   0  0  0  0  0  0  0  0  0  0  0  0
    4.5369   -1.4203    0.2429 O   0  0  0  0  0  0  0  0  0  0  0  0
    0.7954    1.2344   -1.4012 C   0  0  0  0  0  0  0  0  0  0  0  0
    2.0328    1.8900   -1.2482 C   0  0  0  0  0  0  0  0  0  0  0  0
    2.4462    2.0548   -0.2415 H   0  0  0  0  0  0  0  0  0  0  0  0
    2.7461    2.3249   -2.3758 C   0  0  0  0  0  0  0  0  0  0  0  0
    3.7138    2.8333   -2.2448 H   0  0  0  0  0  0  0  0  0  0  0  0
    2.2301    2.1126   -3.6641 C   0  0  0  0  0  0  0  0  0  0  0  0
    2.7920    2.4518   -4.5475 H   0  0  0  0  0  0  0  0  0  0  0  0
    0.9944    1.4656   -3.8205 C   0  0  0  0  0  0  0  0  0  0  0  0
    0.5818    1.2953   -4.8264 H   0  0  0  0  0  0  0  0  0  0  0  0
    0.2810    1.0267   -2.6953 C   0  0  0  0  0  0  0  0  0  0  0  0
   -0.6848    0.5166   -2.8260 H   0  0  0  0  0  0  0  0  0  0  0  0
   -1.2674    2.2087    0.2803 C   0  0  0  0  0  0  0  0  0  0  0  0
   -0.6661    3.4867    0.3045 C   0  0  0  0  0  0  0  0  0  0  0  0
    0.4243    3.5837    0.1954 H   0  0  0  0  0  0  0  0  0  0  0  0
   -1.4511    4.6359    0.4621 C   0  0  0  0  0  0  0  0  0  0  0  0
   -0.9705    5.6258    0.4811 H   0  0  0  0  0  0  0  0  0  0  0  0
   -2.8468    4.5261    0.5877 C   0  0  0  0  0  0  0  0  0  0  0  0
   -3.4627    5.4304    0.7072 H   0  0  0  0  0  0  0  0  0  0  0  0
   -3.4515    3.2620    0.5536 C   0  0  0  0  0  0  0  0  0  0  0  0
   -4.5439    3.1664    0.6446 H   0  0  0  0  0  0  0  0  0  0  0  0
   -2.6652    2.1083    0.3999 C   0  0  0  0  0  0  0  0  0  0  0  0
   -3.1443    1.1210    0.3657 H   0  0  0  0  0  0  0  0  0  0  0  0
    0.9450    0.7827    1.4695 C   0  0  0  0  0  0  0  0  0  0  0  0
    0.6786    1.5413    2.6241 C   0  0  0  0  0  0  0  0  0  0  0  0
   -0.2233    2.1696    2.6593 H   0  0  0  0  0  0  0  0  0  0  0  0
    1.5458    1.4999    3.7265 C   0  0  0  0  0  0  0  0  0  0  0  0
    1.3215    2.0962    4.6228 H   0  0  0  0  0  0  0  0  0  0  0  0
    2.7008    0.7064    3.6706 C   0  0  0  0  0  0  0  0  0  0  0  0
    3.3979    0.6847    4.5219 H   0  0  0  0  0  0  0  0  0  0  0  0
    2.9893   -0.0613    2.5322 C   0  0  0  0  0  0  0  0  0  0  0  0
    3.9147   -0.6488    2.4729 H   0  0  0  0  0  0  0  0  0  0  0  0
    2.0993   -0.0445    1.4421 C   0  0  0  0  0  0  0  0  0  0  0  0
    3.2211   -1.8519    0.2924 C   0  0  0  0  0  0  0  0  0  0  0  0
    3.1075   -2.4613    1.2131 H   0  0  0  0  0  0  0  0  0  0  0  0
    2.9359   -2.4380   -0.6101 H   0  0  0  0  0  0  0  0  0  0  0  0
    4.8924   -0.8010   -0.9871 C   0  0  0  0  0  0  0  0  0  0  0  0
    4.7443   -1.4965   -1.8458 H   0  0  0  0  0  0  0  0  0  0  0  0
    5.9633   -0.5332   -0.9194 H   0  0  0  0  0  0  0  0  0  0  0  0
    4.2936    0.1160   -1.1781 H   0  0  0  0  0  0  0  0  0  0  0  0
  1 15  1  0  0  0  0
  1 26  1  0  0  0  0
  2 35  1  0  0  0  0
  3 36  1  0  0  0  0
  4  5  1  0  0  0  0
  4  1  1  0  0  0  0
  5  6  1  0  0  0  0
  7  8  1  0  0  0  0
  7  5  2  0  0  0  0
  9  7  1  0  0  0  0
 10  9  1  0  0  0  0
 11  9  2  0  0  0  0
 11 13  1  0  0  0  0
 12 11  1  0  0  0  0
 13  4  2  0  0  0  0
 14 13  1  0  0  0  0
 15 16  2  0  0  0  0
 15 24  1  0  0  0  0
 16 18  1  0  0  0  0
 17 16  1  0  0  0  0
 18 19  1  0  0  0  0
 18 20  2  0  0  0  0
 20 21  1  0  0  0  0
 22 20  1  0  0  0  0
 22 23  1  0  0  0  0
 24 22  2  0  0  0  0
 25 24  1  0  0  0  0
 26 27  1  0  0  0  0
 27 28  1  0  0  0  0
 27 29  2  0  0  0  0
 29 30  1  0  0  0  0
 31 29  1  0  0  0  0
 31 32  1  0  0  0  0
 33 31  2  0  0  0  0
 34 33  1  0  0  0  0
 35 26  2  0  0  0  0
 35 33  1  0  0  0  0
 36  2  1  0  0  0  0
 36 37  1  0  0  0  0
 38 36  1  0  0  0  0
 39 41  1  0  0  0  0
 39  3  1  0  0  0  0
 40 39  1  0  0  0  0
 42 39  1  0  0  0  0
M  END
