1
q = 0.0, confidence = 0.962

 46 48  0  0  0  0  0  0  0  0999 V2000
   -0.8310    0.3625    0.0721 P   0  0  0  0  0  0  0  0  0  0  0  0
   -1.9650    0.4332   -1.1368 O   0  0  0  0  0  0  0  0  0  0  0  0
   -0.7026    1.8980    0.6757 O   0  0  0  0  0  0  0  0  0  0  0  0
   -1.7115   -0.1531    1.3801 O   0  0  0  0  0  0  0  0  0  0  0  0
   -3.3042    0.7959   -0.9906 C   0  0  0  0  0  0  0  0  0  0  0  0
   -4.2672   -0.1642   -1.3751 C   0  0  0  0  0  0  0  0  0  0  0  0
   -5.6203    0.2120   -1.2686 C   0  0  0  0  0  0  0  0  0  0  0  0
   -6.3917   -0.5176   -1.5613 H   0  0  0  0  0  0  0  0  0  0  0  0
   -5.9996    1.4801   -0.8017 C   0  0  0  0  0  0  0  0  0  0  0  0
   -7.0660    1.7409   -0.7285 H   0  0  0  0  0  0  0  0  0  0  0  0
   -5.0178    2.4123   -0.4338 C   0  0  0  0  0  0  0  0  0  0  0  0
   -5.3036    3.4103   -0.0697 H   0  0  0  0  0  0  0  0  0  0  0  0
   -3.6599    2.0725   -0.5308 C   0  0  0  0  0  0  0  0  0  0  0  0
   -2.8734    2.7829   -0.2438 H   0  0  0  0  0  0  0  0  0  0  0  0
    0.2435    2.7861    0.1555 C   0  0  0  0  0  0  0  0  0  0  0  0
    1.1406    3.3715    1.0737 C   0  0  0  0  0  0  0  0  0  0  0  0
    2.0666    4.2971    0.5565 C   0  0  0  0  0  0  0  0  0  0  0  0
    2.7818    4.7669    1.2499 H   0  0  0  0  0  0  0  0  0  0  0  0
    2.1045    4.6184   -0.8097 C   0  0  0  0  0  0  0  0  0  0  0  0
    2.8449    5.3423   -1.1817 H   0  0  0  0  0  0  0  0  0  0  0  0
    1.2013    4.0151   -1.6968 C   0  0  0  0  0  0  0  0  0  0  0  0
    1.2231    4.2585   -2.7695 H   0  0  0  0  0  0  0  0  0  0  0  0
    0.2600    3.0938   -1.2124 C   0  0  0  0  0  0  0  0  0  0  0  0
   -0.4616    2.6115   -1.8876 H   0  0  0  0  0  0  0  0  0  0  0  0
   -2.2944   -1.4181    1.4381 C   0  0  0  0  0  0  0  0  0  0  0  0
   -3.6112   -1.4749    1.9490 C   0  0  0  0  0  0  0  0  0  0  0  0
   -4.2173   -2.7441    2.0156 C   0  0  0  0  0  0  0  0  0  0  0  0
   -5.2446   -2.8126    2.4068 H   0  0  0  0  0  0  0  0  0  0  0  0
   -3.5499   -3.9065    1.5982 C   0  0  0  0  0  0  0  0  0  0  0  0
   -4.0556   -4.8817    1.6585 H   0  0  0  0  0  0  0  0  0  0  0  0
   -2.2352   -3.8196    1.1176 C   0  0  0  0  0  0  0  0  0  0  0  0
   -1.6937   -4.7237    0.8013 H   0  0  0  0  0  0  0  0  0  0  0  0
   -1.5982   -2.5715    1.0446 C   0  0  0  0  0  0  0  0  0  0  0  0
   -0.5636   -2.4761    0.6745 H   0  0  0  0  0  0  0  0  0  0  0  0
   -3.8466   -1.5228   -1.8635 C   0  0  0  0  0  0  0  0  0  0  0  0
   -3.0739   -1.4480   -2.6545 H   0  0  0  0  0  0  0  0  0  0  0  0
   -4.7121   -2.0853   -2.2612 H   0  0  0  0  0  0  0  0  0  0  0  0
   -3.3985   -2.1207   -1.0420 H   0  0  0  0  0  0  0  0  0  0  0  0
    1.1076    2.9725    2.5216 C   0  0  0  0  0  0  0  0  0  0  0  0
    1.3409    1.8904    2.6082 H   0  0  0  0  0  0  0  0  0  0  0  0
    0.1003    3.1207    2.9612 H   0  0  0  0  0  0  0  0  0  0  0  0
    1.8429    3.5507    3.1126 H   0  0  0  0  0  0  0  0  0  0  0  0
   -4.3151   -0.2241    2.3960 C   0  0  0  0  0  0  0  0  0  0  0  0
   -5.2877   -0.4636    2.8656 H   0  0  0  0  0  0  0  0  0  0  0  0
   -4.5010    0.4594    1.5428 H   0  0  0  0  0  0  0  0  0  0  0  0
   -3.6989    0.3435    3.1223 H   0  0  0  0  0  0  0  0  0  0  0  0
  1  3  1  0  0  0  0
  1  4  1  0  0  0  0
  2  5  1  0  0  0  0
  2  1  1  0  0  0  0
  4 25  1  0  0  0  0
  5 13  1  0  0  0  0
  6  7  1  0  0  0  0
  6  5  2  0  0  0  0
  7  9  2  0  0  0  0
  8  7  1  0  0  0  0
  9 10  1  0  0  0  0
  9 11  1  0  0  0  0
 11 12  1  0  0  0  0
 13 11  2  0  0  0  0
 13 14  1  0  0  0  0
 15  3  1  0  0  0  0
 15 16  1  0  0  0  0
 16 39  1  0  0  0  0
 17 16  2  0  0  0  0
 17 18  1  0  0  0  0
 19 17  1  0  0  0  0
 20 19  1  0  0  0  0
 21 23  1  0  0  0  0
 21 19  2  0  0  0  0
 22 21  1  0  0  0  0
 23 15  2  0  0  0  0
 24 23  1  0  0  0  0
 25 26  1  0  0  0  0
 26 27  2  0  0  0  0
 26 43  1  0  0  0  0
 27 28  1  0  0  0  0
 29 30  1  0  0  0  0
 29 27  1  0  0  0  0
 31 29  2  0  0  0  0
 32 31  1  0  0  0  0
 33 31  1  0  0  0  0
 33 25  2  0  0  0  0
 34 33  1  0  0  0  0
 35  6  1  0  0  0  0
 35 38  1  0  0  0  0
 36 35  1  0  0  0  0
 37 35  1  0  0  0  0
 39 40  1  0  0  0  0
 39 41  1  0  0  0  0
 39 42  1  0  0  0  0
 43 44  1  0  0  0  0
 43 46  1  0  0  0  0
 45 43  1  0  0  0  0
M  END
