1
q = 0.0, confidence = 1.0

 35 37  0  0  0  0  0  0  0  0999 V2000
   -0.6306   -0.7353   -0.0322 P   0  0  0  0  0  0  0  0  0  0  0  0
   -2.1379    1.4920    0.1036 N   0  0  0  0  0  0  0  0  0  0  0  0
   -3.9934    4.5051    0.3712 O   0  0  0  0  0  0  0  0  0  0  0  0
   -1.4343   -1.5053    1.4316 C   0  0  0  0  0  0  0  0  0  0  0  0
   -2.6815   -1.0948    1.9390 C   0  0  0  0  0  0  0  0  0  0  0  0
   -3.2326   -0.2763    1.4574 H   0  0  0  0  0  0  0  0  0  0  0  0
   -3.2143   -1.7199    3.0778 C   0  0  0  0  0  0  0  0  0  0  0  0
   -4.1880   -1.3903    3.4707 H   0  0  0  0  0  0  0  0  0  0  0  0
   -2.5125   -2.7548    3.7133 C   0  0  0  0  0  0  0  0  0  0  0  0
   -2.9332   -3.2396    4.6071 H   0  0  0  0  0  0  0  0  0  0  0  0
   -1.2675   -3.1666    3.2095 C   0  0  0  0  0  0  0  0  0  0  0  0
   -0.7074   -3.9731    3.7057 H   0  0  0  0  0  0  0  0  0  0  0  0
   -0.7274   -2.5429    2.0778 C   0  0  0  0  0  0  0  0  0  0  0  0
    0.2508   -2.8673    1.6903 H   0  0  0  0  0  0  0  0  0  0  0  0
   -1.8853    0.4549   -0.7045 C   0  0  0  0  0  0  0  0  0  0  0  0
   -2.9881    2.4437   -0.3238 C   0  0  0  0  0  0  0  0  0  0  0  0
   -3.6197    2.4001   -1.5821 C   0  0  0  0  0  0  0  0  0  0  0  0
   -4.2927    3.2231   -1.8640 H   0  0  0  0  0  0  0  0  0  0  0  0
   -3.3559    1.3102   -2.4175 C   0  0  0  0  0  0  0  0  0  0  0  0
   -3.8243    1.2350   -3.4106 H   0  0  0  0  0  0  0  0  0  0  0  0
   -2.4743    0.3111   -1.9759 C   0  0  0  0  0  0  0  0  0  0  0  0
   -2.2366   -0.5577   -2.6048 H   0  0  0  0  0  0  0  0  0  0  0  0
   -3.2342    3.5849    0.6147 C   0  0  0  0  0  0  0  0  0  0  0  0
   -2.6436    3.5105    1.5726 H   0  0  0  0  0  0  0  0  0  0  0  0
   -0.6148   -2.0878   -1.2843 C   0  0  0  0  0  0  0  0  0  0  0  0
    0.1822   -1.9442   -2.4405 C   0  0  0  0  0  0  0  0  0  0  0  0
    0.7897   -1.0335   -2.5756 H   0  0  0  0  0  0  0  0  0  0  0  0
    0.1710   -2.9421   -3.4259 C   0  0  0  0  0  0  0  0  0  0  0  0
    0.7964   -2.8224   -4.3234 H   0  0  0  0  0  0  0  0  0  0  0  0
   -0.6277   -4.0860   -3.2678 C   0  0  0  0  0  0  0  0  0  0  0  0
   -0.6285   -4.8700   -4.0403 H   0  0  0  0  0  0  0  0  0  0  0  0
   -1.4257   -4.2277   -2.1217 C   0  0  0  0  0  0  0  0  0  0  0  0
   -2.0559   -5.1208   -1.9931 H   0  0  0  0  0  0  0  0  0  0  0  0
   -1.4244   -3.2329   -1.1324 C   0  0  0  0  0  0  0  0  0  0  0  0
   -2.0524   -3.3503   -0.2373 H   0  0  0  0  0  0  0  0  0  0  0  0
  1  4  1  0  0  0  0
  3 23  2  0  0  0  0
  4  5  2  0  0  0  0
  4 13  1  0  0  0  0
  5  7  1  0  0  0  0
  6  5  1  0  0  0  0
  7  8  1  0  0  0  0
  7  9  2  0  0  0  0
  9 10  1  0  0  0  0
 11 12  1  0  0  0  0
 11  9  1  0  0  0  0
 13 11  2  0  0  0  0
 14 13  1  0  0  0  0
 15  1  1  0  0  0  0
 15  2  2  0  0  0  0
 16  2  1  0  0  0  0
 16 23  1  0  0  0  0
 17 16  2  0  0  0  0
 18 17  1  0  0  0  0
 19 21  2  0  0  0  0
 19 17  1  0  0  0  0
 20 19  1  0  0  0  0
 21 15  1  0  0  0  0
 22 21  1  0  0  0  0
 23 24  1  0  0  0  0
 25 34  1  0  0  0  0
 25  1  1  0  0  0  0
 26 25  2  0  0  0  0
 27 26  1  0  0  0  0
 28 30  2  0  0  0  0
 28 26  1  0  0  0  0
 29 28  1  0  0  0  0
 30 32  1  0  0  0  0
 31 30  1  0  0  0  0
 32 33  1  0  0  0  0
 32 34  2  0  0  0  0
 34 35  1  0  0  0  0
M  END
