3
q = 0.0, confidence = 0.994

 73 75  0  0  0  0  0  0  0  0999 V2000
   -4.5795   -1.5404    0.1190 Si  0  0  0  0  0  0  0  0  0  0  0  0
   -2.9849    2.8791   -0.5855 Si  0  0  0  0  0  0  0  0  0  0  0  0
   -0.2782   -0.1249    0.3315 P   0  0  2  0  0  0  0  0  0  0  0  0
   -0.0631   -1.0662    1.9088 C   0  0  0  0  0  0  0  0  0  0  0  0
    1.1969   -1.6238    2.2719 C   0  0  0  0  0  0  0  0  0  0  0  0
    1.2862   -2.3177    3.4970 C   0  0  0  0  0  0  0  0  0  0  0  0
    2.2569   -2.7576    3.7761 H   0  0  0  0  0  0  0  0  0  0  0  0
    0.1882   -2.4631    4.3534 C   0  0  0  0  0  0  0  0  0  0  0  0
    0.2962   -3.0148    5.2995 H   0  0  0  0  0  0  0  0  0  0  0  0
   -1.0461   -1.9036    3.9950 C   0  0  0  0  0  0  0  0  0  0  0  0
   -1.9222   -2.0048    4.6530 H   0  0  0  0  0  0  0  0  0  0  0  0
   -1.1645   -1.2136    2.7817 C   0  0  0  0  0  0  0  0  0  0  0  0
   -2.1421   -0.7912    2.5157 H   0  0  0  0  0  0  0  0  0  0  0  0
    0.4132    1.5250    0.7515 C   0  0  0  0  0  0  0  0  0  0  0  0
    1.2754    2.1723   -0.1557 C   0  0  0  0  0  0  0  0  0  0  0  0
    1.4896    1.6989   -1.1269 H   0  0  0  0  0  0  0  0  0  0  0  0
    1.8772    3.3910    0.1915 C   0  0  0  0  0  0  0  0  0  0  0  0
    2.5651    3.8789   -0.5147 H   0  0  0  0  0  0  0  0  0  0  0  0
    1.6106    3.9760    1.4388 C   0  0  0  0  0  0  0  0  0  0  0  0
    2.0885    4.9284    1.7137 H   0  0  0  0  0  0  0  0  0  0  0  0
    0.7355    3.3441    2.3399 C   0  0  0  0  0  0  0  0  0  0  0  0
    0.5253    3.8020    3.3182 H   0  0  0  0  0  0  0  0  0  0  0  0
    0.1430    2.1192    2.0029 C   0  0  0  0  0  0  0  0  0  0  0  0
   -0.5077    1.6064    2.7281 H   0  0  0  0  0  0  0  0  0  0  0  0
   -2.1182    0.0855    0.0873 C   0  0  0  0  0  0  0  0  0  0  0  0
   -2.5173    0.4706    1.0497 H   0  0  0  0  0  0  0  0  0  0  0  0
   -2.7132   -1.3072   -0.2170 C   0  0  0  0  0  0  0  0  0  0  0  0
   -2.2212   -2.0964    0.3950 H   0  0  0  0  0  0  0  0  0  0  0  0
   -2.4827   -1.5744   -1.2714 H   0  0  0  0  0  0  0  0  0  0  0  0
   -5.6595   -0.3360   -0.8651 C   0  0  0  0  0  0  0  0  0  0  0  0
   -6.7326   -0.5649   -0.6986 H   0  0  0  0  0  0  0  0  0  0  0  0
   -5.4654   -0.4060   -1.9550 H   0  0  0  0  0  0  0  0  0  0  0  0
   -5.4902    0.7144   -0.5549 H   0  0  0  0  0  0  0  0  0  0  0  0
   -4.9031   -1.2788    1.9708 C   0  0  0  0  0  0  0  0  0  0  0  0
   -5.9785   -1.4243    2.2025 H   0  0  0  0  0  0  0  0  0  0  0  0
   -4.6321   -0.2539    2.2999 H   0  0  0  0  0  0  0  0  0  0  0  0
   -4.3270   -2.0016    2.5846 H   0  0  0  0  0  0  0  0  0  0  0  0
   -5.0124   -3.3183   -0.3568 C   0  0  0  0  0  0  0  0  0  0  0  0
   -4.4003   -4.0465    0.2140 H   0  0  0  0  0  0  0  0  0  0  0  0
   -4.8305   -3.4975   -1.4364 H   0  0  0  0  0  0  0  0  0  0  0  0
   -6.0805   -3.5375   -0.1519 H   0  0  0  0  0  0  0  0  0  0  0  0
   -2.3791    1.1151   -1.0424 C   0  0  0  0  0  0  0  0  0  0  0  0
   -3.1753    0.6990   -1.6942 H   0  0  0  0  0  0  0  0  0  0  0  0
   -1.4953    1.1898   -1.7163 H   0  0  0  0  0  0  0  0  0  0  0  0
   -1.6202    4.1820   -0.6750 C   0  0  0  0  0  0  0  0  0  0  0  0
   -2.0634    5.1957   -0.5859 H   0  0  0  0  0  0  0  0  0  0  0  0
   -1.0820    4.1328   -1.6435 H   0  0  0  0  0  0  0  0  0  0  0  0
   -0.8749    4.0644    0.1342 H   0  0  0  0  0  0  0  0  0  0  0  0
   -4.3201    3.3458   -1.8478 C   0  0  0  0  0  0  0  0  0  0  0  0
   -5.1792    2.6450   -1.8229 H   0  0  0  0  0  0  0  0  0  0  0  0
   -3.9055    3.3315   -2.8774 H   0  0  0  0  0  0  0  0  0  0  0  0
   -4.7070    4.3680   -1.6569 H   0  0  0  0  0  0  0  0  0  0  0  0
   -3.7283    2.8719    1.1608 C   0  0  0  0  0  0  0  0  0  0  0  0
   -4.1786    3.8599    1.3892 H   0  0  0  0  0  0  0  0  0  0  0  0
   -2.9511    2.6775    1.9286 H   0  0  0  0  0  0  0  0  0  0  0  0
   -4.5241    2.1070    1.2745 H   0  0  0  0  0  0  0  0  0  0  0  0
    2.4479   -1.4638    1.4434 C   0  0  0  0  0  0  0  0  0  0  0  0
    2.1783   -1.4178    0.3667 H   0  0  0  0  0  0  0  0  0  0  0  0
    3.0862   -2.3633    1.5610 H   0  0  0  0  0  0  0  0  0  0  0  0
    3.2717   -0.2125    1.8220 C   0  0  0  0  0  0  0  0  0  0  0  0
    2.6026    0.6735    1.8081 H   0  0  0  0  0  0  0  0  0  0  0  0
    3.6228   -0.3085    2.8707 H   0  0  0  0  0  0  0  0  0  0  0  0
    4.4511    0.0453    0.9095 C   0  0  0  0  0  0  0  0  0  0  0  0
    4.2900    0.0842   -0.4923 C   0  0  0  0  0  0  0  0  0  0  0  0
    3.3012   -0.1054   -0.9404 H   0  0  0  0  0  0  0  0  0  0  0  0
    5.3775    0.3479   -1.3366 C   0  0  0  0  0  0  0  0  0  0  0  0
    5.2236    0.3613   -2.4264 H   0  0  0  0  0  0  0  0  0  0  0  0
    6.6520    0.5817   -0.7951 C   0  0  0  0  0  0  0  0  0  0  0  0
    7.5073    0.7861   -1.4571 H   0  0  0  0  0  0  0  0  0  0  0  0
    6.8280    0.5444    0.5966 C   0  0  0  0  0  0  0  0  0  0  0  0
    7.8237    0.7202    1.0324 H   0  0  0  0  0  0  0  0  0  0  0  0
    5.7368    0.2752    1.4378 C   0  0  0  0  0  0  0  0  0  0  0  0
    5.8827    0.2432    2.5297 H   0  0  0  0  0  0  0  0  0  0  0  0
  1 34  1  0  0  0  0
  2 53  1  0  0  0  0
  3 25  1  1  0  0  0
  3 14  1  0  0  0  0
  3  4  1  0  0  0  0
  4  5  2  0  0  0  0
  4 12  1  0  0  0  0
  5  6  1  0  0  0  0
  6  7  1  0  0  0  0
  6  8  2  0  0  0  0
  8  9  1  0  0  0  0
 10  8  1  0  0  0  0
 10 11  1  0  0  0  0
 12 10  2  0  0  0  0
 13 12  1  0  0  0  0
 14 23  1  0  0  0  0
 15 17  1  0  0  0  0
 15 14  2  0  0  0  0
 16 15  1  0  0  0  0
 17 19  2  0  0  0  0
 18 17  1  0  0  0  0
 19 20  1  0  0  0  0
 19 21  1  0  0  0  0
 21 22  1  0  0  0  0
 23 21  2  0  0  0  0
 23 24  1  0  0  0  0
 25 26  1  0  0  0  0
 27 25  1  0  0  0  0
 27  1  1  0  0  0  0
 27 28  1  0  0  0  0
 29 27  1  0  0  0  0
 30 31  1  0  0  0  0
 30 33  1  0  0  0  0
 30  1  1  0  0  0  0
 32 30  1  0  0  0  0
 34 35  1  0  0  0  0
 34 36  1  0  0  0  0
 34 37  1  0  0  0  0
 38 41  1  0  0  0  0
 38  1  1  0  0  0  0
 38 39  1  0  0  0  0
 40 38  1  0  0  0  0
 42  2  1  0  0  0  0
 42 25  1  0  0  0  0
 43 42  1  0  0  0  0
 44 42  1  0  0  0  0
 45 46  1  0  0  0  0
 45  2  1  0  0  0  0
 45 48  1  0  0  0  0
 47 45  1  0  0  0  0
 49 50  1  0  0  0  0
 49 52  1  0  0  0  0
 49  2  1  0  0  0  0
 51 49  1  0  0  0  0
 53 56  1  0  0  0  0
 53 54  1  0  0  0  0
 53 55  1  0  0  0  0
 57 59  1  0  0  0  0
 57 60  1  0  0  0  0
 57  5  1  0  0  0  0
 58 57  1  0  0  0  0
 60 62  1  0  0  0  0
 61 60  1  0  0  0  0
 63 72  1  0  0  0  0
 63 60  1  0  0  0  0
 64 63  2  0  0  0  0
 65 64  1  0  0  0  0
 66 68  2  0  0  0  0
 66 64  1  0  0  0  0
 67 66  1  0  0  0  0
 68 70  1  0  0  0  0
 69 68  1  0  0  0  0
 70 71  1  0  0  0  0
 70 72  2  0  0  0  0
 72 73  1  0  0  0  0
M  END
