1
q = 0.0, confidence = 0.996

 50 54  0  0  0  0  0  0  0  0999 V2000
   -0.1312    0.2571    0.5666 P   0  0  2  0  0  0  0  0  0  0  0  0
   -0.3293    5.4850   -0.5057 O   0  0  0  0  0  0  0  0  0  0  0  0
   -0.3302    3.0966    0.0271 C   0  0  0  0  0  0  0  0  0  0  0  0
   -1.3885    3.0778    0.3200 H   0  0  0  0  0  0  0  0  0  0  0  0
    1.5487   -0.4446    0.2668 C   0  0  0  0  0  0  0  0  0  0  0  0
    2.4000    0.5421   -0.1982 C   0  0  0  0  0  0  0  0  0  0  0  0
    1.7907    1.8809   -0.3137 C   0  0  0  0  0  0  0  0  0  0  0  0
    0.4267    1.9244    0.0667 C   0  0  0  0  0  0  0  0  0  0  0  0
    0.2977    4.2865   -0.4071 C   0  0  0  0  0  0  0  0  0  0  0  0
    1.6659    4.2664   -0.7718 C   0  0  0  0  0  0  0  0  0  0  0  0
    2.1241    5.2118   -1.0959 H   0  0  0  0  0  0  0  0  0  0  0  0
    2.4064    3.0834   -0.7253 C   0  0  0  0  0  0  0  0  0  0  0  0
    3.4693    3.0916   -1.0078 H   0  0  0  0  0  0  0  0  0  0  0  0
   -1.7077    5.5518   -0.1787 C   0  0  0  0  0  0  0  0  0  0  0  0
   -2.0174    6.5996   -0.3461 H   0  0  0  0  0  0  0  0  0  0  0  0
   -1.8931    5.2839    0.8852 H   0  0  0  0  0  0  0  0  0  0  0  0
   -2.3176    4.8838   -0.8264 H   0  0  0  0  0  0  0  0  0  0  0  0
    3.8318    0.3335   -0.5275 C   0  0  0  0  0  0  0  0  0  0  0  0
    4.7187   -0.1755    0.4466 C   0  0  0  0  0  0  0  0  0  0  0  0
    4.3300   -0.4200    1.4466 H   0  0  0  0  0  0  0  0  0  0  0  0
    6.0715   -0.3750    0.1432 C   0  0  0  0  0  0  0  0  0  0  0  0
    6.7508   -0.7708    0.9134 H   0  0  0  0  0  0  0  0  0  0  0  0
    6.5600   -0.0734   -1.1388 C   0  0  0  0  0  0  0  0  0  0  0  0
    7.6223   -0.2341   -1.3774 H   0  0  0  0  0  0  0  0  0  0  0  0
    5.6879    0.4348   -2.1144 C   0  0  0  0  0  0  0  0  0  0  0  0
    6.0632    0.6690   -3.1222 H   0  0  0  0  0  0  0  0  0  0  0  0
    4.3342    0.6433   -1.8108 C   0  0  0  0  0  0  0  0  0  0  0  0
    3.6483    1.0284   -2.5806 H   0  0  0  0  0  0  0  0  0  0  0  0
    1.7685   -1.8911    0.4025 C   0  0  0  0  0  0  0  0  0  0  0  0
    1.0015   -2.6355    1.3335 C   0  0  0  0  0  0  0  0  0  0  0  0
    0.2926   -2.1148    1.9938 H   0  0  0  0  0  0  0  0  0  0  0  0
    1.1339   -4.0258    1.4350 C   0  0  0  0  0  0  0  0  0  0  0  0
    0.5187   -4.5763    2.1627 H   0  0  0  0  0  0  0  0  0  0  0  0
    2.0376   -4.7101    0.6078 C   0  0  0  0  0  0  0  0  0  0  0  0
    2.1386   -5.8034    0.6806 H   0  0  0  0  0  0  0  0  0  0  0  0
    2.8012   -3.9887   -0.3254 C   0  0  0  0  0  0  0  0  0  0  0  0
    3.4975   -4.5176   -0.9937 H   0  0  0  0  0  0  0  0  0  0  0  0
    2.6691   -2.5999   -0.4317 C   0  0  0  0  0  0  0  0  0  0  0  0
    3.2447   -2.0577   -1.1934 H   0  0  0  0  0  0  0  0  0  0  0  0
   -0.2544    0.4198    2.4063 C   0  0  0  0  0  0  0  0  0  0  0  0
    0.8875    0.7822    3.1514 C   0  0  0  0  0  0  0  0  0  0  0  0
    1.8458    0.9486    2.6354 H   0  0  0  0  0  0  0  0  0  0  0  0
    0.8001    0.9251    4.5418 C   0  0  0  0  0  0  0  0  0  0  0  0
    1.6946    1.2052    5.1187 H   0  0  0  0  0  0  0  0  0  0  0  0
   -0.4243    0.7099    5.1988 C   0  0  0  0  0  0  0  0  0  0  0  0
   -0.4892    0.8195    6.2920 H   0  0  0  0  0  0  0  0  0  0  0  0
   -1.5612    0.3531    4.4598 C   0  0  0  0  0  0  0  0  0  0  0  0
   -2.5223    0.1828    4.9681 H   0  0  0  0  0  0  0  0  0  0  0  0
   -1.4786    0.2069    3.0651 C   0  0  0  0  0  0  0  0  0  0  0  0
   -2.3695   -0.0765    2.4874 H   0  0  0  0  0  0  0  0  0  0  0  0
  1 40  1  1  0  0  0
  2  9  1  0  0  0  0
  2 14  1  0  0  0  0
  3  8  1  0  0  0  0
  3  4  1  0  0  0  0
  5 29  1  0  0  0  0
  5  1  1  0  0  0  0
  6  5  2  0  0  0  0
  7  6  1  0  0  0  0
  7  8  2  0  0  0  0
  8  1  1  0  0  0  0
  9  3  2  0  0  0  0
 10 12  2  0  0  0  0
 10  9  1  0  0  0  0
 11 10  1  0  0  0  0
 12  7  1  0  0  0  0
 13 12  1  0  0  0  0
 14 16  1  0  0  0  0
 15 14  1  0  0  0  0
 17 14  1  0  0  0  0
 18  6  1  0  0  0  0
 18 19  1  0  0  0  0
 19 20  1  0  0  0  0
 21 19  2  0  0  0  0
 21 22  1  0  0  0  0
 23 21  1  0  0  0  0
 24 23  1  0  0  0  0
 25 27  1  0  0  0  0
 25 23  2  0  0  0  0
 26 25  1  0  0  0  0
 27 18  2  0  0  0  0
 28 27  1  0  0  0  0
 29 30  1  0  0  0  0
 30 32  2  0  0  0  0
 30 31  1  0  0  0  0
 32 33  1  0  0  0  0
 34 35  1  0  0  0  0
 34 32  1  0  0  0  0
 36 34  2  0  0  0  0
 37 36  1  0  0  0  0
 38 36  1  0  0  0  0
 38 29  2  0  0  0  0
 39 38  1  0  0  0  0
 40 49  2  0  0  0  0
 40 41  1  0  0  0  0
 41 43  2  0  0  0  0
 42 41  1  0  0  0  0
 43 44  1  0  0  0  0
 43 45  1  0  0  0  0
 45 46  1  0  0  0  0
 47 48  1  0  0  0  0
 47 45  2  0  0  0  0
 49 47  1  0  0  0  0
 50 49  1  0  0  0  0
M  END
