1
q = 0.0, confidence = 0.998

 83 86  0  0  0  0  0  0  0  0999 V2000
    1.4788    0.1383    0.1699 P   0  0  0  0  0  0  0  0  0  0  0  0
    1.0052    0.4781    1.9239 C   0  0  0  0  0  0  0  0  0  0  0  0
    1.7275    0.9641    4.2196 C   0  0  0  0  0  0  0  0  0  0  0  0
    2.5417    1.0833    4.9501 H   0  0  0  0  0  0  0  0  0  0  0  0
    2.0252    0.6415    2.8896 C   0  0  0  0  0  0  0  0  0  0  0  0
    3.0778    0.5022    2.6045 H   0  0  0  0  0  0  0  0  0  0  0  0
   -0.3541    0.6165    2.3197 C   0  0  0  0  0  0  0  0  0  0  0  0
    0.3905    1.1314    4.6068 C   0  0  0  0  0  0  0  0  0  0  0  0
    0.1401    1.3902    5.6467 H   0  0  0  0  0  0  0  0  0  0  0  0
   -0.6297    0.9525    3.6646 C   0  0  0  0  0  0  0  0  0  0  0  0
   -1.6828    1.0637    3.9641 H   0  0  0  0  0  0  0  0  0  0  0  0
    3.6267   -3.3386    1.0901 C   0  0  0  0  0  0  0  0  0  0  0  0
    4.4277   -2.9455    1.7565 H   0  0  0  0  0  0  0  0  0  0  0  0
    3.2554   -4.2706    1.5649 H   0  0  0  0  0  0  0  0  0  0  0  0
    4.2175   -3.6334   -0.2933 C   0  0  0  0  0  0  0  0  0  0  0  0
    3.4420   -4.1215   -0.9245 H   0  0  0  0  0  0  0  0  0  0  0  0
    5.0575   -4.3544   -0.2126 H   0  0  0  0  0  0  0  0  0  0  0  0
    2.4881   -2.3140    1.0081 C   0  0  0  0  0  0  0  0  0  0  0  0
    2.0951   -2.0899    2.0212 H   0  0  0  0  0  0  0  0  0  0  0  0
    1.6389   -2.7441    0.4311 H   0  0  0  0  0  0  0  0  0  0  0  0
    2.9391   -1.0149    0.3106 C   0  0  0  0  0  0  0  0  0  0  0  0
    3.7120   -0.5158    0.9367 H   0  0  0  0  0  0  0  0  0  0  0  0
    3.5505   -1.3102   -1.0719 C   0  0  0  0  0  0  0  0  0  0  0  0
    3.9287   -0.3764   -1.5357 H   0  0  0  0  0  0  0  0  0  0  0  0
    2.7465   -1.6895   -1.7420 H   0  0  0  0  0  0  0  0  0  0  0  0
    4.6827   -2.3428   -0.9770 C   0  0  0  0  0  0  0  0  0  0  0  0
    5.5292   -1.9066   -0.3995 H   0  0  0  0  0  0  0  0  0  0  0  0
    5.0757   -2.5571   -1.9925 H   0  0  0  0  0  0  0  0  0  0  0  0
    3.4161    2.2850    0.1593 C   0  0  0  0  0  0  0  0  0  0  0  0
    3.3864    2.2513    1.2669 H   0  0  0  0  0  0  0  0  0  0  0  0
    4.2294    1.5985   -0.1651 H   0  0  0  0  0  0  0  0  0  0  0  0
    3.7468    3.7123   -0.3062 C   0  0  0  0  0  0  0  0  0  0  0  0
    2.9921    4.4118    0.1182 H   0  0  0  0  0  0  0  0  0  0  0  0
    4.7289    4.0239    0.1072 H   0  0  0  0  0  0  0  0  0  0  0  0
    2.4066    3.3471   -2.4203 C   0  0  0  0  0  0  0  0  0  0  0  0
    2.4236    3.3982   -3.5287 H   0  0  0  0  0  0  0  0  0  0  0  0
    1.5909    4.0278   -2.0878 H   0  0  0  0  0  0  0  0  0  0  0  0
    2.0799    1.8109   -0.4344 C   0  0  0  0  0  0  0  0  0  0  0  0
    1.2783    2.4834   -0.0533 H   0  0  0  0  0  0  0  0  0  0  0  0
    2.0750    1.9180   -1.9715 C   0  0  0  0  0  0  0  0  0  0  0  0
    2.8216    1.2139   -2.3981 H   0  0  0  0  0  0  0  0  0  0  0  0
    1.0912    1.5921   -2.3691 H   0  0  0  0  0  0  0  0  0  0  0  0
    3.7399    3.8278   -1.8348 C   0  0  0  0  0  0  0  0  0  0  0  0
    3.9475    4.8734   -2.1442 H   0  0  0  0  0  0  0  0  0  0  0  0
    4.5662    3.2085   -2.2516 H   0  0  0  0  0  0  0  0  0  0  0  0
   -3.8472   -0.0343   -0.1603 C   0  0  0  0  0  0  0  0  0  0  0  0
   -3.2516    1.2355   -0.0755 C   0  0  0  0  0  0  0  0  0  0  0  0
   -3.6915    2.0709   -0.6417 H   0  0  0  0  0  0  0  0  0  0  0  0
   -2.1037   -0.9081    1.3387 C   0  0  0  0  0  0  0  0  0  0  0  0
   -1.5266    0.3889    1.4139 C   0  0  0  0  0  0  0  0  0  0  0  0
   -2.1006    1.4696    0.6955 C   0  0  0  0  0  0  0  0  0  0  0  0
   -1.5002    2.8701    0.7580 C   0  0  0  0  0  0  0  0  0  0  0  0
   -0.4873    2.7737    1.2040 H   0  0  0  0  0  0  0  0  0  0  0  0
   -3.2578   -1.0870    0.5570 C   0  0  0  0  0  0  0  0  0  0  0  0
   -3.7006   -2.0912    0.4730 H   0  0  0  0  0  0  0  0  0  0  0  0
   -5.0871   -0.2667   -1.0103 C   0  0  0  0  0  0  0  0  0  0  0  0
   -5.2889   -1.3597   -0.9844 H   0  0  0  0  0  0  0  0  0  0  0  0
   -2.3158    3.7805    1.6921 C   0  0  0  0  0  0  0  0  0  0  0  0
   -1.8655    4.7929    1.7567 H   0  0  0  0  0  0  0  0  0  0  0  0
   -2.3677    3.3613    2.7168 H   0  0  0  0  0  0  0  0  0  0  0  0
   -3.3563    3.8920    1.3225 H   0  0  0  0  0  0  0  0  0  0  0  0
   -1.3346    3.4984   -0.6348 C   0  0  0  0  0  0  0  0  0  0  0  0
   -2.3139    3.7418   -1.0947 H   0  0  0  0  0  0  0  0  0  0  0  0
   -0.8096    2.8092   -1.3263 H   0  0  0  0  0  0  0  0  0  0  0  0
   -0.7581    4.4446   -0.5737 H   0  0  0  0  0  0  0  0  0  0  0  0
   -1.4950   -2.0895    2.0890 C   0  0  0  0  0  0  0  0  0  0  0  0
   -0.4548   -1.8065    2.3539 H   0  0  0  0  0  0  0  0  0  0  0  0
   -1.4114   -3.3632    1.2343 C   0  0  0  0  0  0  0  0  0  0  0  0
   -2.4142   -3.7875    1.0229 H   0  0  0  0  0  0  0  0  0  0  0  0
   -0.8296   -4.1455    1.7637 H   0  0  0  0  0  0  0  0  0  0  0  0
   -0.9260   -3.1605    0.2581 H   0  0  0  0  0  0  0  0  0  0  0  0
   -4.8579    0.1265   -2.4787 C   0  0  0  0  0  0  0  0  0  0  0  0
   -4.6923    1.2197   -2.5810 H   0  0  0  0  0  0  0  0  0  0  0  0
   -5.7442   -0.1318   -3.0944 H   0  0  0  0  0  0  0  0  0  0  0  0
   -3.9699   -0.3926   -2.8904 H   0  0  0  0  0  0  0  0  0  0  0  0
   -2.2491   -2.3494    3.4053 C   0  0  0  0  0  0  0  0  0  0  0  0
   -2.2401   -1.4568    4.0621 H   0  0  0  0  0  0  0  0  0  0  0  0
   -1.7926   -3.1920    3.9650 H   0  0  0  0  0  0  0  0  0  0  0  0
   -3.3096   -2.6077    3.2041 H   0  0  0  0  0  0  0  0  0  0  0  0
   -6.3112    0.4502   -0.4145 C   0  0  0  0  0  0  0  0  0  0  0  0
   -6.4983    0.1343    0.6317 H   0  0  0  0  0  0  0  0  0  0  0  0
   -7.2233    0.2363   -1.0092 H   0  0  0  0  0  0  0  0  0  0  0  0
   -6.1648    1.5509   -0.4111 H   0  0  0  0  0  0  0  0  0  0  0  0
  1 21  1  0  0  0  0
  1  2  1  0  0  0  0
  2  7  2  0  0  0  0
  2  5  1  0  0  0  0
  3  8  1  0  0  0  0
  3  4  1  0  0  0  0
  5  3  2  0  0  0  0
  6  5  1  0  0  0  0
  7 10  1  0  0  0  0
  8  9  1  0  0  0  0
 10 11  1  0  0  0  0
 10  8  2  0  0  0  0
 12 14  1  0  0  0  0
 12 13  1  0  0  0  0
 15 17  1  0  0  0  0
 15 12  1  0  0  0  0
 16 15  1  0  0  0  0
 18 12  1  0  0  0  0
 18 19  1  0  0  0  0
 20 18  1  0  0  0  0
 21 22  1  0  0  0  0
 21 18  1  0  0  0  0
 23 26  1  0  0  0  0
 23 21  1  0  0  0  0
 24 23  1  0  0  0  0
 25 23  1  0  0  0  0
 26 27  1  0  0  0  0
 26 15  1  0  0  0  0
 28 26  1  0  0  0  0
 29 30  1  0  0  0  0
 31 29  1  0  0  0  0
 32 34  1  0  0  0  0
 32 33  1  0  0  0  0
 32 29  1  0  0  0  0
 35 37  1  0  0  0  0
 35 40  1  0  0  0  0
 35 43  1  0  0  0  0
 36 35  1  0  0  0  0
 38 39  1  0  0  0  0
 38 29  1  0  0  0  0
 38  1  1  0  0  0  0
 40 38  1  0  0  0  0
 41 40  1  0  0  0  0
 42 40  1  0  0  0  0
 43 32  1  0  0  0  0
 44 43  1  0  0  0  0
 45 43  1  0  0  0  0
 46 47  2  0  0  0  0
 46 54  1  0  0  0  0
 47 51  1  0  0  0  0
 48 47  1  0  0  0  0
 49 50  1  0  0  0  0
 49 66  1  0  0  0  0
 50  7  1  0  0  0  0
 51 52  1  0  0  0  0
 51 50  2  0  0  0  0
 52 53  1  0  0  0  0
 52 58  1  0  0  0  0
 54 49  2  0  0  0  0
 55 54  1  0  0  0  0
 56 57  1  0  0  0  0
 56 80  1  0  0  0  0
 56 46  1  0  0  0  0
 58 59  1  0  0  0  0
 58 60  1  0  0  0  0
 61 58  1  0  0  0  0
 62 65  1  0  0  0  0
 62 52  1  0  0  0  0
 63 62  1  0  0  0  0
 64 62  1  0  0  0  0
 66 67  1  0  0  0  0
 66 76  1  0  0  0  0
 68 70  1  0  0  0  0
 68 66  1  0  0  0  0
 69 68  1  0  0  0  0
 71 68  1  0  0  0  0
 72 56  1  0  0  0  0
 73 72  1  0  0  0  0
 74 72  1  0  0  0  0
 75 72  1  0  0  0  0
 76 78  1  0  0  0  0
 76 77  1  0  0  0  0
 79 76  1  0  0  0  0
 80 83  1  0  0  0  0
 80 81  1  0  0  0  0
 82 80  1  0  0  0  0
M  END
