1
q = 0.0, confidence = 0.996

 39 40  0  0  0  0  0  0  0  0999 V2000
    2.2851    0.0366   -0.5914 P   0  0  0  0  0  0  0  0  0  0  0  0
    3.3112    1.4280    0.0680 C   0  0  0  0  0  0  0  0  0  0  0  0
    4.6816    1.6273   -0.2672 C   0  0  0  0  0  0  0  0  0  0  0  0
    5.4304    0.7866   -1.2702 C   0  0  0  0  0  0  0  0  0  0  0  0
    6.5159    0.9954   -1.2211 H   0  0  0  0  0  0  0  0  0  0  0  0
    5.1017    1.0062   -2.3076 H   0  0  0  0  0  0  0  0  0  0  0  0
    5.2805   -0.2972   -1.1002 H   0  0  0  0  0  0  0  0  0  0  0  0
    5.3689    2.6806    0.3722 C   0  0  0  0  0  0  0  0  0  0  0  0
    6.4294    2.8410    0.1210 H   0  0  0  0  0  0  0  0  0  0  0  0
    4.7470    3.5155    1.3099 C   0  0  0  0  0  0  0  0  0  0  0  0
    5.3195    4.3255    1.7873 H   0  0  0  0  0  0  0  0  0  0  0  0
    3.4000    3.3092    1.6349 C   0  0  0  0  0  0  0  0  0  0  0  0
    2.8934    3.9534    2.3689 H   0  0  0  0  0  0  0  0  0  0  0  0
    2.6933    2.2709    1.0156 C   0  0  0  0  0  0  0  0  0  0  0  0
    1.6340    2.1078    1.2574 H   0  0  0  0  0  0  0  0  0  0  0  0
    3.2281   -1.4682   -0.0861 C   0  0  0  0  0  0  0  0  0  0  0  0
    3.4492   -1.7265    1.2966 C   0  0  0  0  0  0  0  0  0  0  0  0
    2.9279   -0.8256    2.3836 C   0  0  0  0  0  0  0  0  0  0  0  0
    2.9475   -1.3426    3.3619 H   0  0  0  0  0  0  0  0  0  0  0  0
    1.8798   -0.5270    2.1743 H   0  0  0  0  0  0  0  0  0  0  0  0
    3.5261    0.1041    2.4732 H   0  0  0  0  0  0  0  0  0  0  0  0
    4.1724   -2.8834    1.6475 C   0  0  0  0  0  0  0  0  0  0  0  0
    4.3450   -3.0877    2.7160 H   0  0  0  0  0  0  0  0  0  0  0  0
    4.6558   -3.7790    0.6849 C   0  0  0  0  0  0  0  0  0  0  0  0
    5.2123   -4.6756    0.9972 H   0  0  0  0  0  0  0  0  0  0  0  0
    4.4115   -3.5322   -0.6722 C   0  0  0  0  0  0  0  0  0  0  0  0
    4.7694   -4.2310   -1.4432 H   0  0  0  0  0  0  0  0  0  0  0  0
    3.7003   -2.3848   -1.0482 C   0  0  0  0  0  0  0  0  0  0  0  0
    3.5159   -2.2107   -2.1169 H   0  0  0  0  0  0  0  0  0  0  0  0
    2.3657    0.0883   -2.4667 C   0  0  0  0  0  0  0  0  0  0  0  0
    3.3651   -0.3081   -2.7412 H   0  0  0  0  0  0  0  0  0  0  0  0
    1.2802   -0.8338   -3.0430 C   0  0  0  0  0  0  0  0  0  0  0  0
    0.2738   -0.4121   -2.8440 H   0  0  0  0  0  0  0  0  0  0  0  0
    1.3004   -1.8501   -2.6022 H   0  0  0  0  0  0  0  0  0  0  0  0
    1.4063   -0.9237   -4.1420 H   0  0  0  0  0  0  0  0  0  0  0  0
    2.2363    1.5210   -2.9937 C   0  0  0  0  0  0  0  0  0  0  0  0
    2.2710    1.5090   -4.1029 H   0  0  0  0  0  0  0  0  0  0  0  0
    3.0516    2.1762   -2.6295 H   0  0  0  0  0  0  0  0  0  0  0  0
    1.2774    1.9724   -2.6706 H   0  0  0  0  0  0  0  0  0  0  0  0
  1 16  1  0  0  0  0
  1  2  1  0  0  0  0
  2 14  1  0  0  0  0
  3  2  2  0  0  0  0
  3  8  1  0  0  0  0
  4  5  1  0  0  0  0
  4  7  1  0  0  0  0
  4  3  1  0  0  0  0
  6  4  1  0  0  0  0
  8 10  2  0  0  0  0
  9  8  1  0  0  0  0
 10 12  1  0  0  0  0
 10 11  1  0  0  0  0
 12 13  1  0  0  0  0
 14 15  1  0  0  0  0
 14 12  2  0  0  0  0
 16 17  1  0  0  0  0
 17 22  2  0  0  0  0
 17 18  1  0  0  0  0
 18 21  1  0  0  0  0
 18 19  1  0  0  0  0
 20 18  1  0  0  0  0
 22 23  1  0  0  0  0
 24 25  1  0  0  0  0
 24 22  1  0  0  0  0
 26 24  2  0  0  0  0
 27 26  1  0  0  0  0
 28 26  1  0  0  0  0
 28 16  2  0  0  0  0
 29 28  1  0  0  0  0
 30  1  1  0  0  0  0
 31 30  1  0  0  0  0
 32 33  1  0  0  0  0
 32 34  1  0  0  0  0
 32 30  1  0  0  0  0
 35 32  1  0  0  0  0
 36 39  1  0  0  0  0
 36 38  1  0  0  0  0
 36 30  1  0  0  0  0
 37 36  1  0  0  0  0
M  END
