1
q = 0.0, confidence = 0.998

 29 32  0  0  1  0  0  0  0  0999 V2000
   -0.4965    0.7336   -0.1841 P   0  0  1  0  0  0  0  0  0  0  0  0
    4.6275   -0.9977    1.1184 O   0  0  0  0  0  0  0  0  0  0  0  0
    4.3009   -0.5116   -1.1059 O   0  0  0  0  0  0  0  0  0  0  0  0
    0.7258   -0.2831   -0.6703 O   0  0  0  0  0  0  0  0  0  0  0  0
    2.9062    0.6128    1.3090 O   0  0  0  0  0  0  0  0  0  0  0  0
    0.2068    1.4672    1.1401 O   0  0  0  0  0  0  0  0  0  0  0  0
   -0.2562    2.0563   -1.1903 O   0  0  0  0  0  0  0  0  0  0  0  0
    3.2692   -0.7267    0.9570 C   0  0  1  0  0  0  0  0  0  0  0  0
    3.0356   -0.8416   -0.5635 C   0  0  1  0  0  0  0  0  0  0  0  0
    2.0400    0.2692   -0.8731 C   0  0  2  0  0  0  0  0  0  0  0  0
    2.4396    1.3338    0.1770 C   0  0  1  0  0  0  0  0  0  0  0  0
    1.2900    2.2576    0.6064 C   0  0  1  0  0  0  0  0  0  0  0  0
    0.6603    2.9923   -0.5913 C   0  0  0  0  0  0  0  0  0  0  0  0
    5.3230   -0.6899   -0.1024 C   0  0  0  0  0  0  0  0  0  0  0  0
    6.0997    0.6155    0.0400 C   0  0  0  0  0  0  0  0  0  0  0  0
    6.2007   -1.8832   -0.4612 C   0  0  0  0  0  0  0  0  0  0  0  0
    2.7019   -1.4231    1.6060 H   0  0  0  0  0  0  0  0  0  0  0  0
    2.6635   -1.8359   -0.8958 H   0  0  0  0  0  0  0  0  0  0  0  0
    2.1321    0.6407   -1.9146 H   0  0  0  0  0  0  0  0  0  0  0  0
    3.2529    1.9604   -0.2632 H   0  0  0  0  0  0  0  0  0  0  0  0
    1.6315    2.9427    1.4064 H   0  0  0  0  0  0  0  0  0  0  0  0
    0.0979    3.8901   -0.2594 H   0  0  0  0  0  0  0  0  0  0  0  0
    1.4141    3.2940   -1.3474 H   0  0  0  0  0  0  0  0  0  0  0  0
    5.4235    1.4185    0.3889 H   0  0  0  0  0  0  0  0  0  0  0  0
    6.5441    0.9060   -0.9316 H   0  0  0  0  0  0  0  0  0  0  0  0
    6.9113    0.4973    0.7832 H   0  0  0  0  0  0  0  0  0  0  0  0
    6.7392   -1.6916   -1.4090 H   0  0  0  0  0  0  0  0  0  0  0  0
    5.5737   -2.7874   -0.5799 H   0  0  0  0  0  0  0  0  0  0  0  0
    6.9412   -2.0690    0.3405 H   0  0  0  0  0  0  0  0  0  0  0  0
  1  7  1  6  0  0  0
  1  6  1  0  0  0  0
  3  9  1  0  0  0  0
  3 14  1  0  0  0  0
  4  1  1  0  0  0  0
  7 13  1  0  0  0  0
  8  2  1  0  0  0  0
  8  5  1  0  0  0  0
  8 17  1  1  0  0  0
  9 18  1  6  0  0  0
  9  8  1  0  0  0  0
 10 19  1  6  0  0  0
 10  4  1  0  0  0  0
 10  9  1  0  0  0  0
 10 11  1  0  0  0  0
 11 20  1  6  0  0  0
 11 12  1  0  0  0  0
 11  5  1  0  0  0  0
 12  6  1  0  0  0  0
 12 21  1  1  0  0  0
 13 22  1  0  0  0  0
 13 12  1  0  0  0  0
 14 15  1  0  0  0  0
 14  2  1  0  0  0  0
 15 24  1  0  0  0  0
 15 26  1  0  0  0  0
 16 14  1  0  0  0  0
 16 29  1  0  0  0  0
 23 13  1  0  0  0  0
 25 15  1  0  0  0  0
 27 16  1  0  0  0  0
 28 16  1  0  0  0  0
M  END
