1
q = 0.0, confidence = 0.996

 32 34  0  0  0  0  0  0  0  0999 V2000
    2.3018   -0.0207   -0.3376 P   0  0  0  0  0  0  0  0  0  0  0  0
    2.8108    0.1409   -2.1280 C   0  0  0  0  0  0  0  0  0  0  0  0
    3.9221   -0.7304   -2.7315 C   0  0  0  0  0  0  0  0  0  0  0  0
    2.4909   -1.0208   -3.0571 C   0  0  0  0  0  0  0  0  0  0  0  0
    2.6722    1.4836   -2.6369 C   0  0  0  0  0  0  0  0  0  0  0  0
    2.6250    2.5882   -3.0303 N   0  0  0  0  0  0  0  0  0  0  0  0
    2.0895   -0.7533   -4.0448 H   0  0  0  0  0  0  0  0  0  0  0  0
    2.0150   -1.8967   -2.5890 H   0  0  0  0  0  0  0  0  0  0  0  0
    4.4507   -1.4067   -2.0422 H   0  0  0  0  0  0  0  0  0  0  0  0
    4.5517   -0.2474   -3.4943 H   0  0  0  0  0  0  0  0  0  0  0  0
    3.2916    1.2776    0.4982 C   0  0  0  0  0  0  0  0  0  0  0  0
    2.8274    1.8200    1.7145 C   0  0  0  0  0  0  0  0  0  0  0  0
    3.5802    2.8032    2.3723 C   0  0  0  0  0  0  0  0  0  0  0  0
    4.7912    3.2552    1.8248 C   0  0  0  0  0  0  0  0  0  0  0  0
    5.2540    2.7190    0.6131 C   0  0  0  0  0  0  0  0  0  0  0  0
    4.5096    1.7338   -0.0517 C   0  0  0  0  0  0  0  0  0  0  0  0
    4.8788    1.3282   -1.0042 H   0  0  0  0  0  0  0  0  0  0  0  0
    6.1990    3.0738    0.1749 H   0  0  0  0  0  0  0  0  0  0  0  0
    5.3757    4.0316    2.3416 H   0  0  0  0  0  0  0  0  0  0  0  0
    3.2130    3.2211    3.3220 H   0  0  0  0  0  0  0  0  0  0  0  0
    1.8848    1.4472    2.1451 H   0  0  0  0  0  0  0  0  0  0  0  0
    3.0318   -1.6271    0.1653 C   0  0  0  0  0  0  0  0  0  0  0  0
    4.3616   -1.7344    0.6197 C   0  0  0  0  0  0  0  0  0  0  0  0
    4.8818   -2.9902    0.9668 C   0  0  0  0  0  0  0  0  0  0  0  0
    4.0816   -4.1395    0.8623 C   0  0  0  0  0  0  0  0  0  0  0  0
    2.7534   -4.0332    0.4198 C   0  0  0  0  0  0  0  0  0  0  0  0
    2.2246   -2.7804    0.0794 C   0  0  0  0  0  0  0  0  0  0  0  0
    1.1705   -2.6842   -0.2259 H   0  0  0  0  0  0  0  0  0  0  0  0
    2.1165   -4.9282    0.3573 H   0  0  0  0  0  0  0  0  0  0  0  0
    4.4917   -5.1220    1.1409 H   0  0  0  0  0  0  0  0  0  0  0  0
    5.9179   -3.0693    1.3293 H   0  0  0  0  0  0  0  0  0  0  0  0
    4.9854   -0.8330    0.7158 H   0  0  0  0  0  0  0  0  0  0  0  0
  1 22  1  0  0  0  0
  1 11  1  0  0  0  0
  2  1  1  0  0  0  0
  3  2  1  0  0  0  0
  3  9  1  0  0  0  0
  4  3  1  0  0  0  0
  4  8  1  0  0  0  0
  4  2  1  0  0  0  0
  5  2  1  0  0  0  0
  6  5  3  0  0  0  0
  7  4  1  0  0  0  0
 10  3  1  0  0  0  0
 11 12  1  0  0  0  0
 12 21  1  0  0  0  0
 12 13  2  0  0  0  0
 13 20  1  0  0  0  0
 14 19  1  0  0  0  0
 14 13  1  0  0  0  0
 15 14  2  0  0  0  0
 16 11  2  0  0  0  0
 16 15  1  0  0  0  0
 17 16  1  0  0  0  0
 18 15  1  0  0  0  0
 22 23  1  0  0  0  0
 23 32  1  0  0  0  0
 23 24  2  0  0  0  0
 24 31  1  0  0  0  0
 25 24  1  0  0  0  0
 25 30  1  0  0  0  0
 26 25  2  0  0  0  0
 27 22  2  0  0  0  0
 27 26  1  0  0  0  0
 28 27  1  0  0  0  0
 29 26  1  0  0  0  0
M  END
