1
q = 0.0, confidence = 1.0

 38 38  0  0  1  0  0  0  0  0999 V2000
   -0.2881    1.2206   -0.4430 P   0  0  0  0  0  2  0  0  0  0  0  0
   -2.9935   -1.0118    1.5578 O   0  0  0  0  0  0  0  0  0  0  0  0
   -2.9293    1.4990   -0.0702 O   0  0  0  0  0  0  0  0  0  0  0  0
   -2.1938   -0.7719   -0.6470 C   0  0  0  0  0  0  0  0  0  0  0  0
   -1.8704   -1.3361   -1.8965 C   0  0  0  0  0  0  0  0  0  0  0  0
   -1.4418   -0.6765   -2.6653 H   0  0  0  0  0  0  0  0  0  0  0  0
   -2.0755   -2.6983   -2.1559 C   0  0  0  0  0  0  0  0  0  0  0  0
   -1.8043   -3.1191   -3.1342 H   0  0  0  0  0  0  0  0  0  0  0  0
   -2.6105   -3.5137   -1.1496 C   0  0  0  0  0  0  0  0  0  0  0  0
   -2.7710   -4.5866   -1.3350 H   0  0  0  0  0  0  0  0  0  0  0  0
   -2.9386   -2.9818    0.1078 C   0  0  0  0  0  0  0  0  0  0  0  0
   -3.3337   -3.6424    0.8904 H   0  0  0  0  0  0  0  0  0  0  0  0
   -2.7343   -1.6145    0.3662 C   0  0  0  0  0  0  0  0  0  0  0  0
   -3.3364   -1.8241    2.6705 C   0  0  0  0  0  0  0  0  0  0  0  0
   -4.3045   -2.3502    2.5162 H   0  0  0  0  0  0  0  0  0  0  0  0
   -3.4325   -1.1395    3.5330 H   0  0  0  0  0  0  0  0  0  0  0  0
   -2.5390   -2.5681    2.8800 H   0  0  0  0  0  0  0  0  0  0  0  0
   -1.9155    0.6570   -0.3639 C   0  0  1  0  0  3  0  0  0  0  0  0
   -4.2933    1.1189   -0.3579 C   0  0  0  0  0  0  0  0  0  0  0  0
   -4.5992    0.3343    0.3645 H   0  0  0  0  0  0  0  0  0  0  0  0
   -4.3451    0.6877   -1.3803 H   0  0  0  0  0  0  0  0  0  0  0  0
   -5.1546    2.3580   -0.2243 C   0  0  0  0  0  0  0  0  0  0  0  0
   -5.0707    2.7889    0.7930 H   0  0  0  0  0  0  0  0  0  0  0  0
   -6.2168    2.0977   -0.4024 H   0  0  0  0  0  0  0  0  0  0  0  0
   -4.8611    3.1356   -0.9570 H   0  0  0  0  0  0  0  0  0  0  0  0
   -0.2968    3.1023   -0.1527 C   0  0  0  0  0  0  0  0  0  0  0  0
   -1.1944    3.7876   -1.1993 C   0  0  0  0  0  0  0  0  0  0  0  0
   -1.1527    4.8882   -1.0506 H   0  0  0  0  0  0  0  0  0  0  0  0
   -2.2486    3.4699   -1.1099 H   0  0  0  0  0  0  0  0  0  0  0  0
   -0.8461    3.5738   -2.2298 H   0  0  0  0  0  0  0  0  0  0  0  0
   -0.7773    3.3938    1.2804 C   0  0  0  0  0  0  0  0  0  0  0  0
   -0.1159    2.9176    2.0312 H   0  0  0  0  0  0  0  0  0  0  0  0
   -1.8108    3.0342    1.4431 H   0  0  0  0  0  0  0  0  0  0  0  0
   -0.7577    4.4908    1.4616 H   0  0  0  0  0  0  0  0  0  0  0  0
    1.1463    3.6009   -0.3346 C   0  0  0  0  0  0  0  0  0  0  0  0
    1.1682    4.7008   -0.1834 H   0  0  0  0  0  0  0  0  0  0  0  0
    1.5338    3.3921   -1.3516 H   0  0  0  0  0  0  0  0  0  0  0  0
    1.8427    3.1492    0.3973 H   0  0  0  0  0  0  0  0  0  0  0  0
  1 26  1  0  0  0  0
  2 14  1  0  0  0  0
  4 18  1  0  0  0  0
  4 13  1  0  0  0  0
  5  4  2  0  0  0  0
  6  5  1  0  0  0  0
  7  5  1  0  0  0  0
  7  9  2  0  0  0  0
  8  7  1  0  0  0  0
  9 11  1  0  0  0  0
 10  9  1  0  0  0  0
 11 13  2  0  0  0  0
 11 12  1  0  0  0  0
 13  2  1  0  0  0  0
 14 17  1  0  0  0  0
 14 16  1  0  0  0  0
 15 14  1  0  0  0  0
 18  1  1  6  0  0  0
 18  3  1  0  0  0  0
 19 22  1  0  0  0  0
 19  3  1  0  0  0  0
 19 20  1  0  0  0  0
 21 19  1  0  0  0  0
 22 23  1  0  0  0  0
 24 22  1  0  0  0  0
 25 22  1  0  0  0  0
 26 31  1  0  0  0  0
 27 29  1  0  0  0  0
 27 28  1  0  0  0  0
 27 26  1  0  0  0  0
 30 27  1  0  0  0  0
 31 33  1  0  0  0  0
 31 34  1  0  0  0  0
 31 32  1  0  0  0  0
 35 36  1  0  0  0  0
 35 26  1  0  0  0  0
 35 38  1  0  0  0  0
 37 35  1  0  0  0  0
M  END
