1
q = 0.0, confidence = 0.998

 28 27  0  0  0  0  0  0  0  0999 V2000
    1.6965    0.0026    0.6182 P   0  0  0  0  0  0  0  0  0  0  0  0
    1.2352   -0.2888    1.9504 H   0  0  0  0  0  0  0  0  0  0  0  0
    4.2329   -0.9156   -0.3604 C   0  0  0  0  0  0  0  0  0  0  0  0
    4.7902   -0.0566    0.0609 H   0  0  0  0  0  0  0  0  0  0  0  0
    3.8994   -0.6512   -1.3819 H   0  0  0  0  0  0  0  0  0  0  0  0
    4.9487   -1.7608   -0.4490 H   0  0  0  0  0  0  0  0  0  0  0  0
    2.3818   -2.5842   -0.0927 C   0  0  0  0  0  0  0  0  0  0  0  0
    1.9568   -2.3588   -1.0896 H   0  0  0  0  0  0  0  0  0  0  0  0
    1.5615   -2.9664    0.5465 H   0  0  0  0  0  0  0  0  0  0  0  0
    3.1309   -3.3983   -0.1973 H   0  0  0  0  0  0  0  0  0  0  0  0
    3.5627   -1.7162    1.9367 C   0  0  0  0  0  0  0  0  0  0  0  0
    4.2861   -2.5568    1.8588 H   0  0  0  0  0  0  0  0  0  0  0  0
    2.7333   -2.0510    2.5923 H   0  0  0  0  0  0  0  0  0  0  0  0
    4.0807   -0.8788    2.4394 H   0  0  0  0  0  0  0  0  0  0  0  0
    3.5202    1.7080    2.0866 C   0  0  0  0  0  0  0  0  0  0  0  0
    4.4375    1.1782    1.7650 H   0  0  0  0  0  0  0  0  0  0  0  0
    3.1590    1.2416    3.0255 H   0  0  0  0  0  0  0  0  0  0  0  0
    3.8133    2.7536    2.3248 H   0  0  0  0  0  0  0  0  0  0  0  0
    2.4367    1.7208    1.0002 C   0  0  0  0  0  0  0  0  0  0  0  0
    2.9642    2.3586   -0.2962 C   0  0  0  0  0  0  0  0  0  0  0  0
    3.2733    3.4059   -0.0914 H   0  0  0  0  0  0  0  0  0  0  0  0
    2.1783    2.3732   -1.0769 H   0  0  0  0  0  0  0  0  0  0  0  0
    3.8428    1.8241   -0.7046 H   0  0  0  0  0  0  0  0  0  0  0  0
    1.2319    2.5434    1.4953 C   0  0  0  0  0  0  0  0  0  0  0  0
    0.8012    2.1312    2.4313 H   0  0  0  0  0  0  0  0  0  0  0  0
    0.4350    2.5696    0.7265 H   0  0  0  0  0  0  0  0  0  0  0  0
    1.5528    3.5870    1.7000 H   0  0  0  0  0  0  0  0  0  0  0  0
    3.0567   -1.3478    0.5310 C   0  0  0  0  0  0  0  0  0  0  0  0
  1 19  1  0  0  0  0
  1  2  1  0  0  0  0
  3  4  1  0  0  0  0
  3 28  1  0  0  0  0
  5  3  1  0  0  0  0
  6  3  1  0  0  0  0
  7 28  1  0  0  0  0
  7  9  1  0  0  0  0
  8  7  1  0  0  0  0
 10  7  1  0  0  0  0
 11 14  1  0  0  0  0
 11 13  1  0  0  0  0
 12 11  1  0  0  0  0
 15 18  1  0  0  0  0
 15 17  1  0  0  0  0
 16 15  1  0  0  0  0
 19 24  1  0  0  0  0
 19 15  1  0  0  0  0
 20 21  1  0  0  0  0
 20 19  1  0  0  0  0
 22 20  1  0  0  0  0
 23 20  1  0  0  0  0
 24 27  1  0  0  0  0
 24 25  1  0  0  0  0
 26 24  1  0  0  0  0
 28  1  1  0  0  0  0
 28 11  1  0  0  0  0
M  END
