1
q = 0.0, confidence = 1.0

 40 42  0  0  0  0  0  0  0  0999 V2000
   -2.3395   -0.2559   -0.0801 P   0  0  0  0  0  0  0  0  0  0  0  0
   -2.9994   -1.8975    0.4526 C   0  0  0  0  0  0  0  0  0  0  0  0
   -4.1394   -2.4925   -0.1222 C   0  0  0  0  0  0  0  0  0  0  0  0
   -4.6784   -1.9755   -0.9300 H   0  0  0  0  0  0  0  0  0  0  0  0
   -4.5834   -3.7458    0.3302 C   0  0  0  0  0  0  0  0  0  0  0  0
   -5.4702   -4.2079   -0.1300 H   0  0  0  0  0  0  0  0  0  0  0  0
   -3.8999   -4.4085    1.3613 C   0  0  0  0  0  0  0  0  0  0  0  0
   -4.2511   -5.3904    1.7138 H   0  0  0  0  0  0  0  0  0  0  0  0
   -2.7607   -3.8193    1.9360 C   0  0  0  0  0  0  0  0  0  0  0  0
   -2.2164   -4.3370    2.7410 H   0  0  0  0  0  0  0  0  0  0  0  0
   -2.3047   -2.5756    1.4773 C   0  0  0  0  0  0  0  0  0  0  0  0
   -1.3913   -2.1225    1.8963 H   0  0  0  0  0  0  0  0  0  0  0  0
   -3.2681    0.0832   -1.6365 C   0  0  0  0  0  0  0  0  0  0  0  0
   -2.7532   -0.3507   -2.8733 C   0  0  0  0  0  0  0  0  0  0  0  0
   -1.7746   -0.8560   -2.9027 H   0  0  0  0  0  0  0  0  0  0  0  0
   -3.4841   -0.1274   -4.0499 C   0  0  0  0  0  0  0  0  0  0  0  0
   -3.0730   -0.4674   -5.0129 H   0  0  0  0  0  0  0  0  0  0  0  0
   -4.7252    0.5269   -4.0058 C   0  0  0  0  0  0  0  0  0  0  0  0
   -5.2932    0.7018   -4.9325 H   0  0  0  0  0  0  0  0  0  0  0  0
   -5.2380    0.9614   -2.7734 C   0  0  0  0  0  0  0  0  0  0  0  0
   -6.2086    1.4789   -2.7284 H   0  0  0  0  0  0  0  0  0  0  0  0
   -4.5142    0.7420   -1.5919 C   0  0  0  0  0  0  0  0  0  0  0  0
   -4.9208    1.0911   -0.6311 H   0  0  0  0  0  0  0  0  0  0  0  0
   -3.1265    0.9073    1.1400 C   0  0  0  0  0  0  0  0  0  0  0  0
   -2.7184    2.2679    1.2185 C   0  0  0  0  0  0  0  0  0  0  0  0
   -3.2283    3.0978    2.2354 C   0  0  0  0  0  0  0  0  0  0  0  0
   -2.8802    4.1388    2.2855 H   0  0  0  0  0  0  0  0  0  0  0  0
   -4.1604    2.6088    3.1587 C   0  0  0  0  0  0  0  0  0  0  0  0
   -4.5577    3.2697    3.9434 H   0  0  0  0  0  0  0  0  0  0  0  0
   -4.5755    1.2721    3.0787 C   0  0  0  0  0  0  0  0  0  0  0  0
   -5.3050    0.8733    3.7999 H   0  0  0  0  0  0  0  0  0  0  0  0
   -4.0543    0.4295    2.0845 C   0  0  0  0  0  0  0  0  0  0  0  0
   -4.3694   -0.6230    2.0473 H   0  0  0  0  0  0  0  0  0  0  0  0
   -1.7496    2.8176    0.2254 C   0  0  0  0  0  0  0  0  0  0  0  0
   -1.5731    2.3560   -0.8922 O   0  0  0  0  0  0  0  0  0  0  0  0
   -1.0675    3.8846    0.7029 O   0  0  0  0  0  0  0  0  0  0  0  0
   -0.0993    4.4407   -0.2004 C   0  0  0  0  0  0  0  0  0  0  0  0
    0.3005    5.3405    0.2994 H   0  0  0  0  0  0  0  0  0  0  0  0
   -0.5675    4.7042   -1.1693 H   0  0  0  0  0  0  0  0  0  0  0  0
    0.7119    3.7119   -0.3936 H   0  0  0  0  0  0  0  0  0  0  0  0
  1  2  1  0  0  0  0
  1 24  1  0  0  0  0
  2 11  1  0  0  0  0
  3  5  1  0  0  0  0
  3  2  2  0  0  0  0
  4  3  1  0  0  0  0
  5  7  2  0  0  0  0
  6  5  1  0  0  0  0
  7  8  1  0  0  0  0
  7  9  1  0  0  0  0
  9 10  1  0  0  0  0
 11 12  1  0  0  0  0
 11  9  2  0  0  0  0
 13 22  1  0  0  0  0
 13  1  1  0  0  0  0
 14 13  2  0  0  0  0
 15 14  1  0  0  0  0
 16 18  2  0  0  0  0
 16 14  1  0  0  0  0
 17 16  1  0  0  0  0
 18 20  1  0  0  0  0
 19 18  1  0  0  0  0
 20 21  1  0  0  0  0
 20 22  2  0  0  0  0
 22 23  1  0  0  0  0
 24 25  2  0  0  0  0
 24 32  1  0  0  0  0
 25 26  1  0  0  0  0
 26 27  1  0  0  0  0
 26 28  2  0  0  0  0
 28 29  1  0  0  0  0
 30 28  1  0  0  0  0
 30 31  1  0  0  0  0
 32 30  2  0  0  0  0
 33 32  1  0  0  0  0
 34 36  1  0  0  0  0
 34 25  1  0  0  0  0
 35 34  2  0  0  0  0
 37 38  1  0  0  0  0
 37 36  1  0  0  0  0
 39 37  1  0  0  0  0
 40 37  1  0  0  0  0
M  END
