1
q = 0.0, confidence = 1.0

 38 38  0  0  0  0  0  0  0  0999 V2000
    0.7874   -0.3724    0.2113 P   0  0  0  0  0  0  0  0  0  0  0  0
    1.8643    1.0997    0.6168 C   0  0  0  0  0  0  0  0  0  0  0  0
    1.4797    1.4557    1.5935 H   0  0  0  0  0  0  0  0  0  0  0  0
    2.9094    0.7692    0.7880 H   0  0  0  0  0  0  0  0  0  0  0  0
    1.8061    2.2446   -0.3820 C   0  0  0  0  0  0  0  0  0  0  0  0
    0.8138    2.3861   -0.8436 H   0  0  0  0  0  0  0  0  0  0  0  0
    2.5665    3.5199   -0.0983 C   0  0  0  0  0  0  0  0  0  0  0  0
    2.0726    4.4791   -0.3163 H   0  0  0  0  0  0  0  0  0  0  0  0
    3.2132    3.5380    0.7938 H   0  0  0  0  0  0  0  0  0  0  0  0
    2.9863    2.6334   -1.2466 C   0  0  0  0  0  0  0  0  0  0  0  0
    3.9253    2.0689   -1.1297 H   0  0  0  0  0  0  0  0  0  0  0  0
    2.7924    2.9674   -2.2778 H   0  0  0  0  0  0  0  0  0  0  0  0
    1.6102   -1.1730   -1.3234 C   0  0  0  0  0  0  0  0  0  0  0  0
    1.0473   -0.4172   -2.5453 C   0  0  0  0  0  0  0  0  0  0  0  0
    1.2645    0.6675   -2.5005 H   0  0  0  0  0  0  0  0  0  0  0  0
   -0.0470   -0.5617   -2.6305 H   0  0  0  0  0  0  0  0  0  0  0  0
    1.5266   -0.8185   -3.4636 H   0  0  0  0  0  0  0  0  0  0  0  0
    3.1409   -1.0216   -1.2859 C   0  0  0  0  0  0  0  0  0  0  0  0
    3.5620   -1.5352   -2.1760 H   0  0  0  0  0  0  0  0  0  0  0  0
    3.5988   -1.4861   -0.3921 H   0  0  0  0  0  0  0  0  0  0  0  0
    3.4589    0.0351   -1.3393 H   0  0  0  0  0  0  0  0  0  0  0  0
    1.2493   -2.6641   -1.4459 C   0  0  0  0  0  0  0  0  0  0  0  0
    1.6327   -3.0318   -2.4214 H   0  0  0  0  0  0  0  0  0  0  0  0
    0.1543   -2.8197   -1.4257 H   0  0  0  0  0  0  0  0  0  0  0  0
    1.7258   -3.2776   -0.6568 H   0  0  0  0  0  0  0  0  0  0  0  0
    0.9319   -1.4684    1.7740 C   0  0  0  0  0  0  0  0  0  0  0  0
    0.5033   -0.6000    2.9750 C   0  0  0  0  0  0  0  0  0  0  0  0
   -0.4997   -0.1544    2.8166 H   0  0  0  0  0  0  0  0  0  0  0  0
    1.2215    0.2122    3.2007 H   0  0  0  0  0  0  0  0  0  0  0  0
    0.4461   -1.2466    3.8755 H   0  0  0  0  0  0  0  0  0  0  0  0
    2.3600   -1.9888    2.0015 C   0  0  0  0  0  0  0  0  0  0  0  0
    2.3933   -2.5427    2.9638 H   0  0  0  0  0  0  0  0  0  0  0  0
    3.1046   -1.1703    2.0690 H   0  0  0  0  0  0  0  0  0  0  0  0
    2.6816   -2.6908    1.2088 H   0  0  0  0  0  0  0  0  0  0  0  0
   -0.0603   -2.6412    1.6648 C   0  0  0  0  0  0  0  0  0  0  0  0
    0.2000   -3.3493    0.8588 H   0  0  0  0  0  0  0  0  0  0  0  0
   -1.0908   -2.2849    1.4705 H   0  0  0  0  0  0  0  0  0  0  0  0
   -0.0543   -3.2008    2.6240 H   0  0  0  0  0  0  0  0  0  0  0  0
  1  2  1  0  0  0  0
  1 26  1  0  0  0  0
  2  4  1  0  0  0  0
  2  3  1  0  0  0  0
  5  7  1  0  0  0  0
  5  2  1  0  0  0  0
  6  5  1  0  0  0  0
  7  9  1  0  0  0  0
  8  7  1  0  0  0  0
 10 11  1  0  0  0  0
 10  5  1  0  0  0  0
 10  7  1  0  0  0  0
 12 10  1  0  0  0  0
 13 18  1  0  0  0  0
 13  1  1  0  0  0  0
 14 15  1  0  0  0  0
 14 13  1  0  0  0  0
 16 14  1  0  0  0  0
 17 14  1  0  0  0  0
 18 20  1  0  0  0  0
 19 18  1  0  0  0  0
 21 18  1  0  0  0  0
 22 24  1  0  0  0  0
 22 13  1  0  0  0  0
 22 25  1  0  0  0  0
 23 22  1  0  0  0  0
 26 31  1  0  0  0  0
 26 27  1  0  0  0  0
 27 29  1  0  0  0  0
 27 30  1  0  0  0  0
 28 27  1  0  0  0  0
 31 33  1  0  0  0  0
 31 32  1  0  0  0  0
 34 31  1  0  0  0  0
 35 26  1  0  0  0  0
 35 38  1  0  0  0  0
 36 35  1  0  0  0  0
 37 35  1  0  0  0  0
M  END
