1
q = 0.0, confidence = 1.0

 41 45  0  0  1  0  0  0  0  0999 V2000
   -1.3508   -0.4583   -0.3071 P   0  0  2  0  0  0  0  0  0  0  0  0
   -2.1269   -1.4308    3.2519 O   0  0  0  0  0  0  0  0  0  0  0  0
   -1.4457   -0.2964    1.4242 O   0  0  0  0  0  0  0  0  0  0  0  0
   -2.7021    0.4614   -0.8070 N   0  0  0  0  0  0  0  0  0  0  0  0
   -1.9076   -2.0637   -0.2934 N   0  0  1  0  0  0  0  0  0  0  0  0
   -2.5502    1.8857   -0.7433 C   0  0  0  0  0  0  0  0  0  0  0  0
   -1.7480    2.5279   -1.7033 C   0  0  0  0  0  0  0  0  0  0  0  0
   -1.3485    1.9242   -2.5328 H   0  0  0  0  0  0  0  0  0  0  0  0
   -1.4415    3.8905   -1.5667 C   0  0  0  0  0  0  0  0  0  0  0  0
   -0.7956    4.3806   -2.3105 H   0  0  0  0  0  0  0  0  0  0  0  0
   -1.9483    4.6161   -0.4760 C   0  0  0  0  0  0  0  0  0  0  0  0
   -1.7043    5.6827   -0.3584 H   0  0  0  0  0  0  0  0  0  0  0  0
   -2.7681    3.9821    0.4650 C   0  0  0  0  0  0  0  0  0  0  0  0
   -3.1731    4.5532    1.3152 H   0  0  0  0  0  0  0  0  0  0  0  0
   -3.0976    2.6083    0.3549 C   0  0  0  0  0  0  0  0  0  0  0  0
   -3.9648    2.0006    1.3604 C   0  0  0  0  0  0  0  0  0  0  0  0
   -4.0392    2.5660    2.3044 H   0  0  0  0  0  0  0  0  0  0  0  0
   -4.7659    0.9008    1.2489 C   0  0  0  0  0  0  0  0  0  0  0  0
   -5.4161    0.6780    2.1113 H   0  0  0  0  0  0  0  0  0  0  0  0
   -4.9709    0.0378    0.0881 C   0  0  0  0  0  0  0  0  0  0  0  0
   -6.1885   -0.6762   -0.0433 C   0  0  0  0  0  0  0  0  0  0  0  0
   -6.9445   -0.5789    0.7515 H   0  0  0  0  0  0  0  0  0  0  0  0
   -6.4432   -1.4840   -1.1567 C   0  0  0  0  0  0  0  0  0  0  0  0
   -7.3969   -2.0278   -1.2311 H   0  0  0  0  0  0  0  0  0  0  0  0
   -5.4827   -1.5992   -2.1773 C   0  0  0  0  0  0  0  0  0  0  0  0
   -5.6767   -2.2355   -3.0538 H   0  0  0  0  0  0  0  0  0  0  0  0
   -4.2657   -0.9135   -2.0675 C   0  0  0  0  0  0  0  0  0  0  0  0
   -3.4769   -0.9994   -2.8299 H   0  0  0  0  0  0  0  0  0  0  0  0
   -4.0026   -0.1171   -0.9407 C   0  0  0  0  0  0  0  0  0  0  0  0
   -1.1110   -3.1356   -0.9198 C   0  0  0  0  0  0  0  0  0  0  0  0
   -0.3789   -2.6936   -1.6245 H   0  0  0  0  0  0  0  0  0  0  0  0
   -1.7881   -3.8024   -1.4985 H   0  0  0  0  0  0  0  0  0  0  0  0
   -0.4857   -3.8589    0.2783 C   0  0  0  0  0  0  0  0  0  0  0  0
   -0.1427   -4.8846    0.0397 H   0  0  0  0  0  0  0  0  0  0  0  0
    0.3872   -3.2776    0.6427 H   0  0  0  0  0  0  0  0  0  0  0  0
   -1.6195   -3.8357    1.3176 C   0  0  0  0  0  0  0  0  0  0  0  0
   -1.2710   -3.8950    2.3667 H   0  0  0  0  0  0  0  0  0  0  0  0
   -2.3267   -4.6717    1.1464 H   0  0  0  0  0  0  0  0  0  0  0  0
   -2.3428   -2.4873    1.0494 C   0  0  1  0  0  0  0  0  0  0  0  0
   -3.4484   -2.6026    1.1048 H   0  0  0  0  0  0  0  0  0  0  0  0
   -1.9783   -1.3861    2.0541 C   0  0  0  0  0  0  0  0  0  0  0  0
  1  4  1  6  0  0  0
  1  5  1  0  0  0  0
  1  3  1  0  0  0  0
  3 41  1  0  0  0  0
  4  6  1  0  0  0  0
  5 30  1  1  0  0  0
  5 39  1  0  0  0  0
  6 15  1  0  0  0  0
  7  9  1  0  0  0  0
  7  6  2  0  0  0  0
  8  7  1  0  0  0  0
  9 11  2  0  0  0  0
 10  9  1  0  0  0  0
 11 12  1  0  0  0  0
 11 13  1  0  0  0  0
 13 14  1  0  0  0  0
 15 13  2  0  0  0  0
 15 16  1  0  0  0  0
 16 17  1  0  0  0  0
 18 16  2  0  0  0  0
 18 19  1  0  0  0  0
 20 18  1  0  0  0  0
 21 20  1  0  0  0  0
 21 22  1  0  0  0  0
 23 21  2  0  0  0  0
 24 23  1  0  0  0  0
 25 27  2  0  0  0  0
 25 23  1  0  0  0  0
 26 25  1  0  0  0  0
 27 29  1  0  0  0  0
 28 27  1  0  0  0  0
 29  4  1  0  0  0  0
 29 20  2  0  0  0  0
 30 33  1  0  0  0  0
 31 30  1  0  0  0  0
 32 30  1  0  0  0  0
 33 35  1  0  0  0  0
 33 36  1  0  0  0  0
 34 33  1  0  0  0  0
 36 37  1  0  0  0  0
 38 36  1  0  0  0  0
 39 40  1  1  0  0  0
 39 36  1  0  0  0  0
 39 41  1  0  0  0  0
 41  2  2  0  0  0  0
M  END
