1
q = 0.0, confidence = 0.998

 43 45  0  0  1  0  0  0  0  0999 V2000
   -0.3896   -0.0002    0.6405 P   0  0  2  0  0  0  0  0  0  0  0  0
   -0.3449    1.4733    1.8326 C   0  0  1  0  0  0  0  0  0  0  0  0
   -1.1948    1.2921    2.5217 H   0  0  0  0  0  0  0  0  0  0  0  0
    0.9288    1.5720    2.6365 C   0  0  0  0  0  0  0  0  0  0  0  0
    0.8431    1.4154    3.7242 H   0  0  0  0  0  0  0  0  0  0  0  0
    2.1641    1.8188    2.1108 C   0  0  0  0  0  0  0  0  0  0  0  0
    3.0228    1.7424    2.7998 H   0  0  0  0  0  0  0  0  0  0  0  0
    2.4732    2.1797    0.7496 C   0  0  0  0  0  0  0  0  0  0  0  0
    3.5075    2.0076    0.4100 H   0  0  0  0  0  0  0  0  0  0  0  0
    1.6306    2.8472   -0.1143 C   0  0  0  0  0  0  0  0  0  0  0  0
    2.0486    3.1611   -1.0843 H   0  0  0  0  0  0  0  0  0  0  0  0
    0.3036    3.3193    0.2076 C   0  0  0  0  0  0  0  0  0  0  0  0
   -0.0329    4.2194   -0.3353 H   0  0  0  0  0  0  0  0  0  0  0  0
   -0.5635    2.7862    1.1181 C   0  0  0  0  0  0  0  0  0  0  0  0
   -1.5038    3.3198    1.3304 H   0  0  0  0  0  0  0  0  0  0  0  0
   -2.1896   -0.0006    0.1680 C   0  0  1  0  0  0  0  0  0  0  0  0
   -2.7943   -0.0008    1.1064 H   0  0  0  0  0  0  0  0  0  0  0  0
   -2.6034    1.1787   -0.6733 C   0  0  0  0  0  0  0  0  0  0  0  0
   -1.8341    1.7474   -1.2193 H   0  0  0  0  0  0  0  0  0  0  0  0
   -3.9283    1.5163   -0.7594 C   0  0  0  0  0  0  0  0  0  0  0  0
   -4.1919    2.4637   -1.2601 H   0  0  0  0  0  0  0  0  0  0  0  0
   -5.0189    0.6921   -0.3095 C   0  0  0  0  0  0  0  0  0  0  0  0
   -5.9853    1.1918   -0.1271 H   0  0  0  0  0  0  0  0  0  0  0  0
   -0.3443   -1.4746    1.8317 C   0  0  2  0  0  0  0  0  0  0  0  0
   -1.1955   -1.2951    2.5197 H   0  0  0  0  0  0  0  0  0  0  0  0
    0.9283   -1.5722    2.6374 C   0  0  0  0  0  0  0  0  0  0  0  0
    0.8408   -1.4166    3.7251 H   0  0  0  0  0  0  0  0  0  0  0  0
    2.1647   -1.8171    2.1133 C   0  0  0  0  0  0  0  0  0  0  0  0
    3.0223   -1.7401    2.8036 H   0  0  0  0  0  0  0  0  0  0  0  0
    2.4763   -2.1764    0.7522 C   0  0  0  0  0  0  0  0  0  0  0  0
    3.5109   -2.0027    0.4144 H   0  0  0  0  0  0  0  0  0  0  0  0
    1.6358   -2.8443   -0.1134 C   0  0  0  0  0  0  0  0  0  0  0  0
    2.0557   -3.1568   -1.0831 H   0  0  0  0  0  0  0  0  0  0  0  0
    0.3089   -3.3184    0.2062 C   0  0  0  0  0  0  0  0  0  0  0  0
   -0.0255   -4.2185   -0.3379 H   0  0  0  0  0  0  0  0  0  0  0  0
   -0.5601   -2.7872    1.1158 C   0  0  0  0  0  0  0  0  0  0  0  0
   -1.5000   -3.3222    1.3264 H   0  0  0  0  0  0  0  0  0  0  0  0
   -5.0185   -0.6951   -0.3094 C   0  0  0  0  0  0  0  0  0  0  0  0
   -3.9274   -1.5188   -0.7591 C   0  0  0  0  0  0  0  0  0  0  0  0
   -2.6028   -1.1804   -0.6731 C   0  0  0  0  0  0  0  0  0  0  0  0
   -1.8331   -1.7487   -1.2191 H   0  0  0  0  0  0  0  0  0  0  0  0
   -4.1904   -2.4665   -1.2597 H   0  0  0  0  0  0  0  0  0  0  0  0
   -5.9846   -1.1955   -0.1268 H   0  0  0  0  0  0  0  0  0  0  0  0
  1 16  1  1  0  0  0
  1 24  1  0  0  0  0
  1  2  1  0  0  0  0
  2  3  1  1  0  0  0
  2  4  1  0  0  0  0
  4  5  1  0  0  0  0
  6  4  2  0  0  0  0
  6  7  1  0  0  0  0
  8  6  1  0  0  0  0
  9  8  1  0  0  0  0
 10 12  1  0  0  0  0
 10  8  2  0  0  0  0
 11 10  1  0  0  0  0
 12 14  2  0  0  0  0
 13 12  1  0  0  0  0
 14 15  1  0  0  0  0
 14  2  1  0  0  0  0
 16 17  1  1  0  0  0
 18 16  1  0  0  0  0
 19 18  1  0  0  0  0
 20 18  2  0  0  0  0
 20 22  1  0  0  0  0
 21 20  1  0  0  0  0
 22 38  2  0  0  0  0
 22 23  1  0  0  0  0
 24 25  1  1  0  0  0
 24 26  1  0  0  0  0
 26 27  1  0  0  0  0
 28 26  2  0  0  0  0
 28 29  1  0  0  0  0
 30 28  1  0  0  0  0
 31 30  1  0  0  0  0
 32 34  1  0  0  0  0
 32 30  2  0  0  0  0
 33 32  1  0  0  0  0
 34 36  2  0  0  0  0
 35 34  1  0  0  0  0
 36 37  1  0  0  0  0
 36 24  1  0  0  0  0
 38 43  1  0  0  0  0
 39 40  2  0  0  0  0
 39 38  1  0  0  0  0
 40 16  1  0  0  0  0
 41 40  1  0  0  0  0
 42 39  1  0  0  0  0
M  END
