2
q = 0.0, confidence = 0.996

 28 27  0  0  0  0  0  0  0  0999 V2000
    2.5101   -1.7182    0.0000 I   0  0  0  0  0  0  0  0  0  0  0  0
    1.2144    0.4202   -0.0000 P   0  0  0  0  0  0  0  0  0  0  0  0
    1.7769    1.2665   -1.6194 C   0  0  0  0  0  0  0  0  0  0  0  0
    1.0242    2.6088   -1.7132 C   0  0  0  0  0  0  0  0  0  0  0  0
    3.2916    1.4782   -1.7207 C   0  0  0  0  0  0  0  0  0  0  0  0
    1.2906    0.3419   -2.7526 C   0  0  0  0  0  0  0  0  0  0  0  0
    1.7770    1.2666    1.6192 C   0  0  0  0  0  0  0  0  0  0  0  0
    1.0242    2.6090    1.7130 C   0  0  0  0  0  0  0  0  0  0  0  0
    3.2918    1.4785    1.7204 C   0  0  0  0  0  0  0  0  0  0  0  0
    1.2909    0.3422    2.7525 C   0  0  0  0  0  0  0  0  0  0  0  0
    1.4076    3.3601   -0.9982 H   0  0  0  0  0  0  0  0  0  0  0  0
    1.1678    3.0185   -2.7348 H   0  0  0  0  0  0  0  0  0  0  0  0
   -0.0661    2.4862   -1.5493 H   0  0  0  0  0  0  0  0  0  0  0  0
    3.8529    0.5366   -1.5585 H   0  0  0  0  0  0  0  0  0  0  0  0
    3.6593    2.2354   -1.0035 H   0  0  0  0  0  0  0  0  0  0  0  0
    3.5335    1.8429   -2.7409 H   0  0  0  0  0  0  0  0  0  0  0  0
    0.1989    0.1554   -2.6909 H   0  0  0  0  0  0  0  0  0  0  0  0
    1.8124   -0.6347   -2.7446 H   0  0  0  0  0  0  0  0  0  0  0  0
    1.5006    0.8354   -3.7243 H   0  0  0  0  0  0  0  0  0  0  0  0
   -0.0660    2.4862    1.5493 H   0  0  0  0  0  0  0  0  0  0  0  0
    1.4075    3.3602    0.9979 H   0  0  0  0  0  0  0  0  0  0  0  0
    1.1680    3.0187    2.7346 H   0  0  0  0  0  0  0  0  0  0  0  0
    3.8530    0.5369    1.5582 H   0  0  0  0  0  0  0  0  0  0  0  0
    3.6593    2.2357    1.0031 H   0  0  0  0  0  0  0  0  0  0  0  0
    3.5337    1.8433    2.7405 H   0  0  0  0  0  0  0  0  0  0  0  0
    1.5010    0.8357    3.7242 H   0  0  0  0  0  0  0  0  0  0  0  0
    0.1992    0.1556    2.6910 H   0  0  0  0  0  0  0  0  0  0  0  0
    1.8127   -0.6344    2.7446 H   0  0  0  0  0  0  0  0  0  0  0  0
  2  1  1  0  0  0  0
  2  7  1  0  0  0  0
  3  2  1  0  0  0  0
  4  3  1  0  0  0  0
  4 13  1  0  0  0  0
  4 11  1  0  0  0  0
  5  3  1  0  0  0  0
  5 14  1  0  0  0  0
  5 15  1  0  0  0  0
  6 18  1  0  0  0  0
  6 17  1  0  0  0  0
  6  3  1  0  0  0  0
  7  8  1  0  0  0  0
  7  9  1  0  0  0  0
  7 10  1  0  0  0  0
  8 22  1  0  0  0  0
  9 25  1  0  0  0  0
 10 26  1  0  0  0  0
 12  4  1  0  0  0  0
 16  5  1  0  0  0  0
 19  6  1  0  0  0  0
 20  8  1  0  0  0  0
 21  8  1  0  0  0  0
 23  9  1  0  0  0  0
 24  9  1  0  0  0  0
 27 10  1  0  0  0  0
 28 10  1  0  0  0  0
M  END
