1
q = 0.0, confidence = 0.936

 42 43  0  0  1  0  0  0  0  0999 V2000
   -0.5617   -0.0004    0.4785 P   0  0  2  0  0  0  0  0  0  0  0  0
    0.5519    4.4057    0.9480 S   0  0  0  0  0  0  0  0  0  0  0  0
   -0.5306    1.9340    2.2615 N   0  0  0  0  0  0  0  0  0  0  0  0
   -1.0052   -0.3792    2.1176 N   0  0  0  0  0  2  0  0  0  0  0  0
   -3.4614    0.8438   -0.6271 Si  0  0  0  0  0  0  0  0  0  0  0  0
   -2.7111   -2.2253    0.0719 Si  0  0  0  0  0  0  0  0  0  0  0  0
   -0.3888    1.8197    0.9561 C   0  0  1  0  0  3  0  0  0  0  0  0
   -0.8939    0.7087    2.8253 C   0  0  0  0  0  0  0  0  0  0  0  0
   -2.0472   -0.4704   -0.4949 C   0  0  0  0  0  0  0  0  0  0  0  0
   -3.9291    1.5364    1.0670 C   0  0  0  0  0  0  0  0  0  0  0  0
   -3.1078    2.1356    1.5067 H   0  0  0  0  0  0  0  0  0  0  0  0
   -4.2027    0.7429    1.7876 H   0  0  0  0  0  0  0  0  0  0  0  0
   -4.8043    2.2085    0.9480 H   0  0  0  0  0  0  0  0  0  0  0  0
   -2.9584    2.2746   -1.7608 C   0  0  0  0  0  0  0  0  0  0  0  0
   -2.4982    1.9137   -2.7037 H   0  0  0  0  0  0  0  0  0  0  0  0
   -2.2584    2.9828   -1.2806 H   0  0  0  0  0  0  0  0  0  0  0  0
   -3.8737    2.8400   -2.0348 H   0  0  0  0  0  0  0  0  0  0  0  0
   -4.9803    0.0769   -1.4652 C   0  0  0  0  0  0  0  0  0  0  0  0
   -5.7602    0.8632   -1.5435 H   0  0  0  0  0  0  0  0  0  0  0  0
   -5.4206   -0.7804   -0.9223 H   0  0  0  0  0  0  0  0  0  0  0  0
   -4.7405   -0.2534   -2.4965 H   0  0  0  0  0  0  0  0  0  0  0  0
   -4.0634   -2.0396    1.3819 C   0  0  0  0  0  0  0  0  0  0  0  0
   -3.3366   -3.0588   -1.5085 C   0  0  0  0  0  0  0  0  0  0  0  0
   -1.4349   -3.3811    0.8457 C   0  0  0  0  0  0  0  0  0  0  0  0
    0.0894    2.9081    0.1549 C   0  0  0  0  0  0  0  0  0  0  0  0
    0.2903    2.9939   -1.2255 C   0  0  0  0  0  0  0  0  0  0  0  0
    0.8082    4.2476   -1.6327 C   0  0  0  0  0  0  0  0  0  0  0  0
    0.9964    5.1102   -0.5594 C   0  0  0  0  0  0  0  0  0  0  0  0
   -1.0834    0.6960    3.9144 H   0  0  0  0  0  0  0  0  0  0  0  0
   -1.6646   -0.6359   -1.5267 H   0  0  0  0  0  0  0  0  0  0  0  0
   -3.6261   -1.5699    2.2859 H   0  0  0  0  0  0  0  0  0  0  0  0
   -4.4181   -3.0522    1.6651 H   0  0  0  0  0  0  0  0  0  0  0  0
   -4.9437   -1.4497    1.0648 H   0  0  0  0  0  0  0  0  0  0  0  0
   -3.7698   -4.0493   -1.2578 H   0  0  0  0  0  0  0  0  0  0  0  0
   -2.4836   -3.2324   -2.1969 H   0  0  0  0  0  0  0  0  0  0  0  0
   -4.1070   -2.4755   -2.0465 H   0  0  0  0  0  0  0  0  0  0  0  0
   -0.5843   -3.6252    0.1843 H   0  0  0  0  0  0  0  0  0  0  0  0
   -1.9641   -4.3318    1.0699 H   0  0  0  0  0  0  0  0  0  0  0  0
   -1.0500   -2.9682    1.7964 H   0  0  0  0  0  0  0  0  0  0  0  0
    0.0643    2.1691   -1.9108 H   0  0  0  0  0  0  0  0  0  0  0  0
    1.0417    4.5102   -2.6728 H   0  0  0  0  0  0  0  0  0  0  0  0
    1.3847    6.1365   -0.5875 H   0  0  0  0  0  0  0  0  0  0  0  0
  1  9  1  6  0  0  0
  1  7  1  0  0  0  0
  1  4  1  0  0  0  0
  3  8  2  0  0  0  0
  4  8  1  0  0  0  0
  5  9  1  0  0  0  0
  5 10  1  0  0  0  0
  6 24  1  0  0  0  0
  6 22  1  0  0  0  0
  7 25  1  1  0  0  0
  7  3  1  0  0  0  0
  8 29  1  0  0  0  0
  9  6  1  0  0  0  0
 10 11  1  0  0  0  0
 10 12  1  0  0  0  0
 13 10  1  0  0  0  0
 14 16  1  0  0  0  0
 14  5  1  0  0  0  0
 15 14  1  0  0  0  0
 17 14  1  0  0  0  0
 18 20  1  0  0  0  0
 18  5  1  0  0  0  0
 19 18  1  0  0  0  0
 21 18  1  0  0  0  0
 22 32  1  0  0  0  0
 22 31  1  0  0  0  0
 23 34  1  0  0  0  0
 23  6  1  0  0  0  0
 24 38  1  0  0  0  0
 24 39  1  0  0  0  0
 25  2  1  0  0  0  0
 26 25  2  0  0  0  0
 27 26  1  0  0  0  0
 27 28  2  0  0  0  0
 28  2  1  0  0  0  0
 30  9  1  0  0  0  0
 33 22  1  0  0  0  0
 35 23  1  0  0  0  0
 36 23  1  0  0  0  0
 37 24  1  0  0  0  0
 40 26  1  0  0  0  0
 41 27  1  0  0  0  0
 42 28  1  0  0  0  0
M  END
