1
q = 0.0, confidence = 0.998

 60 63  0  0  0  0  0  0  0  0999 V2000
   -0.2448   -0.2625   -0.1720 P   0  0  2  0  0  0  0  0  0  0  0  0
   -0.8896   -1.3226   -2.8219 O   0  0  0  0  0  0  0  0  0  0  0  0
   -1.3727   -2.3347   -0.7401 N   0  0  0  0  0  0  0  0  0  0  0  0
   -1.2936   -2.3795    1.6481 N   0  0  0  0  0  0  0  0  0  0  0  0
   -0.9058   -1.3616   -1.6106 C   0  0  0  0  0  0  0  0  0  0  0  0
   -1.0814   -1.8127    0.5380 C   0  0  0  0  0  0  0  0  0  0  0  0
   -1.9210   -3.6683   -1.0421 C   0  0  0  0  0  0  0  0  0  0  0  0
   -2.2678   -4.0348   -0.0531 H   0  0  0  0  0  0  0  0  0  0  0  0
   -0.8099   -4.5867   -1.5622 C   0  0  0  0  0  0  0  0  0  0  0  0
   -0.4138   -4.2105   -2.5270 H   0  0  0  0  0  0  0  0  0  0  0  0
   -1.2093   -5.6068   -1.7280 H   0  0  0  0  0  0  0  0  0  0  0  0
    0.0265   -4.6506   -0.8403 H   0  0  0  0  0  0  0  0  0  0  0  0
   -3.1070   -3.5521   -2.0026 C   0  0  0  0  0  0  0  0  0  0  0  0
   -3.8835   -2.8758   -1.5969 H   0  0  0  0  0  0  0  0  0  0  0  0
   -3.5567   -4.5518   -2.1628 H   0  0  0  0  0  0  0  0  0  0  0  0
   -2.7793   -3.1521   -2.9820 H   0  0  0  0  0  0  0  0  0  0  0  0
   -0.8479   -1.7383    2.8825 C   0  0  0  0  0  0  0  0  0  0  0  0
   -0.3197   -0.7832    2.6462 H   0  0  0  0  0  0  0  0  0  0  0  0
    0.1396   -2.6745    3.5859 C   0  0  0  0  0  0  0  0  0  0  0  0
   -0.3572   -3.6264    3.8626 H   0  0  0  0  0  0  0  0  0  0  0  0
    0.5386   -2.1978    4.5031 H   0  0  0  0  0  0  0  0  0  0  0  0
    0.9930   -2.9140    2.9215 H   0  0  0  0  0  0  0  0  0  0  0  0
   -2.0559   -1.3992    3.7603 C   0  0  0  0  0  0  0  0  0  0  0  0
   -2.7098   -0.6514    3.2687 H   0  0  0  0  0  0  0  0  0  0  0  0
   -1.7209   -0.9657    4.7234 H   0  0  0  0  0  0  0  0  0  0  0  0
   -2.6538   -2.3096    3.9690 H   0  0  0  0  0  0  0  0  0  0  0  0
   -1.5066    1.2356   -0.0918 C   0  0  0  0  0  0  0  0  0  0  0  0
   -2.8450    0.7383   -0.6569 C   0  0  0  0  0  0  0  0  0  0  0  0
   -3.6310   -0.1732    0.0870 C   0  0  0  0  0  0  0  0  0  0  0  0
   -3.2837   -0.5172    1.0702 H   0  0  0  0  0  0  0  0  0  0  0  0
   -4.8599   -0.6363   -0.3988 C   0  0  0  0  0  0  0  0  0  0  0  0
   -5.4499   -1.3404    0.2074 H   0  0  0  0  0  0  0  0  0  0  0  0
   -5.3354   -0.2044   -1.6479 C   0  0  0  0  0  0  0  0  0  0  0  0
   -6.3005   -0.5675   -2.0322 H   0  0  0  0  0  0  0  0  0  0  0  0
   -4.5678    0.6979   -2.3962 C   0  0  0  0  0  0  0  0  0  0  0  0
   -4.9269    1.0515   -3.3744 H   0  0  0  0  0  0  0  0  0  0  0  0
   -3.3385    1.1665   -1.9057 C   0  0  0  0  0  0  0  0  0  0  0  0
   -2.7613    1.8839   -2.5033 H   0  0  0  0  0  0  0  0  0  0  0  0
   -1.6288    1.7077    1.3657 C   0  0  0  0  0  0  0  0  0  0  0  0
   -2.8624    2.1304    1.9039 C   0  0  0  0  0  0  0  0  0  0  0  0
   -3.7692    2.0958    1.2851 H   0  0  0  0  0  0  0  0  0  0  0  0
   -2.9478    2.6022    3.2238 C   0  0  0  0  0  0  0  0  0  0  0  0
   -3.9233    2.9233    3.6197 H   0  0  0  0  0  0  0  0  0  0  0  0
   -1.8043    2.6640    4.0338 C   0  0  0  0  0  0  0  0  0  0  0  0
   -1.8764    3.0220    5.0718 H   0  0  0  0  0  0  0  0  0  0  0  0
   -0.5651    2.2772    3.5003 C   0  0  0  0  0  0  0  0  0  0  0  0
    0.3486    2.3287    4.1113 H   0  0  0  0  0  0  0  0  0  0  0  0
   -0.4822    1.8194    2.1789 C   0  0  0  0  0  0  0  0  0  0  0  0
    0.4977    1.5508    1.7631 H   0  0  0  0  0  0  0  0  0  0  0  0
   -0.8426    2.3065   -0.9711 C   0  0  0  0  0  0  0  0  0  0  0  0
   -0.7747    3.6515   -0.5601 C   0  0  0  0  0  0  0  0  0  0  0  0
   -1.2013    3.9476    0.4083 H   0  0  0  0  0  0  0  0  0  0  0  0
   -0.1579    4.6177   -1.3699 C   0  0  0  0  0  0  0  0  0  0  0  0
   -0.1113    5.6618   -1.0257 H   0  0  0  0  0  0  0  0  0  0  0  0
    0.4114    4.2556   -2.5991 C   0  0  0  0  0  0  0  0  0  0  0  0
    0.9110    5.0115   -3.2234 H   0  0  0  0  0  0  0  0  0  0  0  0
    0.3417    2.9199   -3.0248 C   0  0  0  0  0  0  0  0  0  0  0  0
    0.7827    2.6158   -3.9859 H   0  0  0  0  0  0  0  0  0  0  0  0
   -0.2843    1.9558   -2.2226 C   0  0  0  0  0  0  0  0  0  0  0  0
   -0.3516    0.9217   -2.5987 H   0  0  0  0  0  0  0  0  0  0  0  0
  1 27  1  1  0  0  0
  1  6  1  0  0  0  0
  2  5  2  0  0  0  0
  3  6  1  0  0  0  0
  4 17  1  0  0  0  0
  5  3  1  0  0  0  0
  5  1  1  0  0  0  0
  6  4  2  0  0  0  0
  7  3  1  0  0  0  0
  7  8  1  0  0  0  0
  9  7  1  0  0  0  0
  9 12  1  0  0  0  0
 10  9  1  0  0  0  0
 11  9  1  0  0  0  0
 13 14  1  0  0  0  0
 13  7  1  0  0  0  0
 15 13  1  0  0  0  0
 16 13  1  0  0  0  0
 17 19  1  0  0  0  0
 17 23  1  0  0  0  0
 18 17  1  0  0  0  0
 19 20  1  0  0  0  0
 19 21  1  0  0  0  0
 22 19  1  0  0  0  0
 23 26  1  0  0  0  0
 23 25  1  0  0  0  0
 24 23  1  0  0  0  0
 27 39  1  0  0  0  0
 28 27  1  0  0  0  0
 28 29  1  0  0  0  0
 29 30  1  0  0  0  0
 31 29  2  0  0  0  0
 31 32  1  0  0  0  0
 33 31  1  0  0  0  0
 34 33  1  0  0  0  0
 35 37  1  0  0  0  0
 35 33  2  0  0  0  0
 36 35  1  0  0  0  0
 37 28  2  0  0  0  0
 38 37  1  0  0  0  0
 39 40  2  0  0  0  0
 39 48  1  0  0  0  0
 40 42  1  0  0  0  0
 41 40  1  0  0  0  0
 42 43  1  0  0  0  0
 42 44  2  0  0  0  0
 44 45  1  0  0  0  0
 46 44  1  0  0  0  0
 46 47  1  0  0  0  0
 48 46  2  0  0  0  0
 49 48  1  0  0  0  0
 50 51  1  0  0  0  0
 50 27  1  0  0  0  0
 51 52  1  0  0  0  0
 53 54  1  0  0  0  0
 53 51  2  0  0  0  0
 55 53  1  0  0  0  0
 56 55  1  0  0  0  0
 57 55  2  0  0  0  0
 57 59  1  0  0  0  0
 58 57  1  0  0  0  0
 59 50  2  0  0  0  0
 60 59  1  0  0  0  0
M  END
