2
q = 0.0, confidence = 0.99

 59 62  0  0  0  0  0  0  0  0999 V2000
   -1.4319   -0.9770   -1.6944 S   0  0  0  0  0  0  0  0  0  0  0  0
   -0.2421   -0.0802   -0.1314 P   0  0  2  0  0  0  0  0  0  0  0  0
   -1.4145   -0.9403    0.8437 N   0  0  0  0  0  0  0  0  0  0  0  0
   -3.1433   -2.4000    0.0697 N   0  0  0  0  0  0  0  0  0  0  0  0
   -2.1903   -1.5882   -0.1061 C   0  0  0  0  0  0  0  0  0  0  0  0
   -3.8015   -3.0287   -1.0636 C   0  0  0  0  0  0  0  0  0  0  0  0
   -3.4228   -2.5707   -2.0161 H   0  0  0  0  0  0  0  0  0  0  0  0
   -5.3101   -2.7770   -0.9855 C   0  0  0  0  0  0  0  0  0  0  0  0
   -5.7209   -3.1956   -0.0441 H   0  0  0  0  0  0  0  0  0  0  0  0
   -5.8340   -3.2514   -1.8395 H   0  0  0  0  0  0  0  0  0  0  0  0
   -5.5255   -1.6901   -1.0035 H   0  0  0  0  0  0  0  0  0  0  0  0
   -3.4535   -4.5218   -1.0878 C   0  0  0  0  0  0  0  0  0  0  0  0
   -2.3563   -4.6645   -1.1508 H   0  0  0  0  0  0  0  0  0  0  0  0
   -3.9249   -5.0229   -1.9572 H   0  0  0  0  0  0  0  0  0  0  0  0
   -3.8120   -5.0153   -0.1613 H   0  0  0  0  0  0  0  0  0  0  0  0
   -1.3932   -1.2377    2.2906 C   0  0  0  0  0  0  0  0  0  0  0  0
   -0.5543   -0.6284    2.6840 H   0  0  0  0  0  0  0  0  0  0  0  0
   -2.6832   -0.7654    2.9703 C   0  0  0  0  0  0  0  0  0  0  0  0
   -2.8087    0.3302    2.8712 H   0  0  0  0  0  0  0  0  0  0  0  0
   -2.6481   -1.0034    4.0518 H   0  0  0  0  0  0  0  0  0  0  0  0
   -3.5596   -1.2772    2.5263 H   0  0  0  0  0  0  0  0  0  0  0  0
   -1.0943   -2.7154    2.5618 C   0  0  0  0  0  0  0  0  0  0  0  0
   -1.9052   -3.3556    2.1644 H   0  0  0  0  0  0  0  0  0  0  0  0
   -1.0074   -2.8856    3.6530 H   0  0  0  0  0  0  0  0  0  0  0  0
   -0.1425   -3.0235    2.0905 H   0  0  0  0  0  0  0  0  0  0  0  0
   -0.7840    1.8359   -0.0434 C   0  0  0  0  0  0  0  0  0  0  0  0
   -2.1572    1.9855   -0.6995 C   0  0  0  0  0  0  0  0  0  0  0  0
   -2.3399    2.7396   -1.8773 C   0  0  0  0  0  0  0  0  0  0  0  0
   -1.4880    3.2673   -2.3257 H   0  0  0  0  0  0  0  0  0  0  0  0
   -3.5995    2.8356   -2.4889 C   0  0  0  0  0  0  0  0  0  0  0  0
   -3.7086    3.4334   -3.4066 H   0  0  0  0  0  0  0  0  0  0  0  0
   -4.7094    2.1807   -1.9385 C   0  0  0  0  0  0  0  0  0  0  0  0
   -5.6955    2.2518   -2.4219 H   0  0  0  0  0  0  0  0  0  0  0  0
   -4.5489    1.4432   -0.7550 C   0  0  0  0  0  0  0  0  0  0  0  0
   -5.4092    0.9306   -0.2981 H   0  0  0  0  0  0  0  0  0  0  0  0
   -3.2937    1.3531   -0.1416 C   0  0  0  0  0  0  0  0  0  0  0  0
   -3.1961    0.7774    0.7855 H   0  0  0  0  0  0  0  0  0  0  0  0
    0.3161    2.5757   -0.8046 C   0  0  0  0  0  0  0  0  0  0  0  0
    0.9174    3.7434   -0.2977 C   0  0  0  0  0  0  0  0  0  0  0  0
    0.6050    4.1345    0.6806 H   0  0  0  0  0  0  0  0  0  0  0  0
    1.9138    4.4104   -1.0269 C   0  0  0  0  0  0  0  0  0  0  0  0
    2.3723    5.3199   -0.6104 H   0  0  0  0  0  0  0  0  0  0  0  0
    2.3360    3.9166   -2.2700 C   0  0  0  0  0  0  0  0  0  0  0  0
    3.1300    4.4317   -2.8311 H   0  0  0  0  0  0  0  0  0  0  0  0
    1.7385    2.7590   -2.7928 C   0  0  0  0  0  0  0  0  0  0  0  0
    2.0558    2.3560   -3.7661 H   0  0  0  0  0  0  0  0  0  0  0  0
    0.7333    2.1039   -2.0694 C   0  0  0  0  0  0  0  0  0  0  0  0
    0.2467    1.2196   -2.5101 H   0  0  0  0  0  0  0  0  0  0  0  0
   -0.7802    2.1845    1.4508 C   0  0  0  0  0  0  0  0  0  0  0  0
    0.3403    1.8551    2.2465 C   0  0  0  0  0  0  0  0  0  0  0  0
    1.2080    1.3701    1.7797 H   0  0  0  0  0  0  0  0  0  0  0  0
    0.3747    2.1459    3.6167 C   0  0  0  0  0  0  0  0  0  0  0  0
    1.2546    1.8531    4.2090 H   0  0  0  0  0  0  0  0  0  0  0  0
   -0.7040    2.8096    4.2217 C   0  0  0  0  0  0  0  0  0  0  0  0
   -0.6820    3.0423    5.2969 H   0  0  0  0  0  0  0  0  0  0  0  0
   -1.8016    3.1901    3.4355 C   0  0  0  0  0  0  0  0  0  0  0  0
   -2.6429    3.7358    3.8891 H   0  0  0  0  0  0  0  0  0  0  0  0
   -1.8412    2.8804    2.0663 C   0  0  0  0  0  0  0  0  0  0  0  0
   -2.7081    3.1912    1.4684 H   0  0  0  0  0  0  0  0  0  0  0  0
  1  2  1  0  0  0  0
  1  5  1  0  0  0  0
  2 26  1  6  0  0  0
  2  3  1  0  0  0  0
  3 16  1  0  0  0  0
  5  4  2  0  0  0  0
  5  3  1  0  0  0  0
  6  8  1  0  0  0  0
  6  4  1  0  0  0  0
  7  6  1  0  0  0  0
  8  9  1  0  0  0  0
 10  8  1  0  0  0  0
 11  8  1  0  0  0  0
 12  6  1  0  0  0  0
 12 15  1  0  0  0  0
 13 12  1  0  0  0  0
 14 12  1  0  0  0  0
 16 22  1  0  0  0  0
 16 17  1  0  0  0  0
 16 18  1  0  0  0  0
 18 20  1  0  0  0  0
 19 18  1  0  0  0  0
 21 18  1  0  0  0  0
 22 24  1  0  0  0  0
 23 22  1  0  0  0  0
 25 22  1  0  0  0  0
 26 49  1  0  0  0  0
 27 36  1  0  0  0  0
 27 26  1  0  0  0  0
 28 27  2  0  0  0  0
 29 28  1  0  0  0  0
 30 32  2  0  0  0  0
 30 28  1  0  0  0  0
 31 30  1  0  0  0  0
 32 34  1  0  0  0  0
 33 32  1  0  0  0  0
 34 35  1  0  0  0  0
 34 36  2  0  0  0  0
 36 37  1  0  0  0  0
 38 39  1  0  0  0  0
 38 26  1  0  0  0  0
 39 40  1  0  0  0  0
 41 42  1  0  0  0  0
 41 39  2  0  0  0  0
 43 41  1  0  0  0  0
 44 43  1  0  0  0  0
 45 43  2  0  0  0  0
 45 47  1  0  0  0  0
 46 45  1  0  0  0  0
 47 38  2  0  0  0  0
 48 47  1  0  0  0  0
 49 58  2  0  0  0  0
 49 50  1  0  0  0  0
 50 52  2  0  0  0  0
 51 50  1  0  0  0  0
 52 53  1  0  0  0  0
 52 54  1  0  0  0  0
 54 55  1  0  0  0  0
 56 57  1  0  0  0  0
 56 54  2  0  0  0  0
 58 56  1  0  0  0  0
 59 58  1  0  0  0  0
M  END
