1
q = 0.0, confidence = 0.986

 24 24  0  0  0  0  0  0  0  0999 V2000
    1.8515    0.4405   -0.6350 P   0  0  0  0  0  0  0  0  0  0  0  0
    3.1652   -0.2906   -1.5452 C   0  0  0  0  0  0  0  0  0  0  0  0
    4.0622   -0.8922   -2.1291 C   0  0  0  0  0  0  0  0  0  0  0  0
    5.1147   -1.6388   -2.7919 C   0  0  0  0  0  0  0  0  0  0  0  0
    4.9237   -1.7231   -3.8820 H   0  0  0  0  0  0  0  0  0  0  0  0
    5.1773   -2.6666   -2.3764 H   0  0  0  0  0  0  0  0  0  0  0  0
    6.1040   -1.1537   -2.6578 H   0  0  0  0  0  0  0  0  0  0  0  0
    1.2553    1.6720   -1.7487 C   0  0  0  0  0  0  0  0  0  0  0  0
    0.6985    2.4591   -2.5105 C   0  0  0  0  0  0  0  0  0  0  0  0
   -0.0008    3.3848   -3.3822 C   0  0  0  0  0  0  0  0  0  0  0  0
   -0.1255    2.9578   -4.3990 H   0  0  0  0  0  0  0  0  0  0  0  0
    0.5437    4.3466   -3.4834 H   0  0  0  0  0  0  0  0  0  0  0  0
   -1.0134    3.6014   -2.9801 H   0  0  0  0  0  0  0  0  0  0  0  0
    2.6795    1.3842    0.7119 C   0  0  0  0  0  0  0  0  0  0  0  0
    2.8058    2.7845    0.6781 C   0  0  0  0  0  0  0  0  0  0  0  0
    2.4226    3.3476   -0.1865 H   0  0  0  0  0  0  0  0  0  0  0  0
    3.4210    3.4513    1.7498 C   0  0  0  0  0  0  0  0  0  0  0  0
    3.5172    4.5476    1.7270 H   0  0  0  0  0  0  0  0  0  0  0  0
    3.9130    2.7227    2.8436 C   0  0  0  0  0  0  0  0  0  0  0  0
    4.3949    3.2485    3.6821 H   0  0  0  0  0  0  0  0  0  0  0  0
    3.7868    1.3231    2.8706 C   0  0  0  0  0  0  0  0  0  0  0  0
    4.1697    0.7508    3.7293 H   0  0  0  0  0  0  0  0  0  0  0  0
    3.1645    0.6469    1.8122 C   0  0  0  0  0  0  0  0  0  0  0  0
    3.0452   -0.4506    1.8234 H   0  0  0  0  0  0  0  0  0  0  0  0
  1 14  1  0  0  0  0
  2  1  1  0  0  0  0
  3  2  3  0  0  0  0
  4  7  1  0  0  0  0
  4  6  1  0  0  0  0
  4  3  1  0  0  0  0
  5  4  1  0  0  0  0
  8  1  1  0  0  0  0
  9  8  3  0  0  0  0
 10 13  1  0  0  0  0
 10  9  1  0  0  0  0
 11 10  1  0  0  0  0
 12 10  1  0  0  0  0
 14 23  1  0  0  0  0
 15 14  2  0  0  0  0
 15 17  1  0  0  0  0
 16 15  1  0  0  0  0
 17 19  2  0  0  0  0
 18 17  1  0  0  0  0
 19 21  1  0  0  0  0
 19 20  1  0  0  0  0
 21 22  1  0  0  0  0
 23 24  1  0  0  0  0
 23 21  2  0  0  0  0
M  END
