1
q = -1.0, confidence = 0.032

 49 49  0  0  0  0  0  0  0  0999 V2000
    0.7411    0.0061   -0.8067 P   0  0  0  0  0  2  0  0  0  0  0  0
    0.5451    0.0092   -2.4546 F   0  0  0  0  0  0  0  0  0  0  0  0
   -1.0467    0.0163   -0.3736 C   0  0  0  0  0  0  0  0  0  0  0  0
   -1.7532   -1.2289   -0.2308 C   0  0  0  0  0  0  0  0  0  0  0  0
   -3.1299   -1.1681    0.0414 C   0  0  0  0  0  0  0  0  0  0  0  0
   -3.6842   -2.1065    0.1481 H   0  0  0  0  0  0  0  0  0  0  0  0
   -3.8404    0.0333    0.1817 C   0  0  0  0  0  0  0  0  0  0  0  0
   -3.1189    1.2241    0.0476 C   0  0  0  0  0  0  0  0  0  0  0  0
   -3.6550    2.1698    0.1574 H   0  0  0  0  0  0  0  0  0  0  0  0
   -1.7371    1.2656   -0.2263 C   0  0  0  0  0  0  0  0  0  0  0  0
   -1.0996   -2.6383   -0.3099 C   0  0  0  0  0  0  0  0  0  0  0  0
   -0.3103   -2.8440   -1.6232 C   0  0  0  0  0  0  0  0  0  0  0  0
    0.6129   -2.2391   -1.6807 H   0  0  0  0  0  0  0  0  0  0  0  0
   -0.9311   -2.6018   -2.5080 H   0  0  0  0  0  0  0  0  0  0  0  0
    0.0119   -3.9022   -1.6999 H   0  0  0  0  0  0  0  0  0  0  0  0
   -0.1736   -2.8338    0.9125 C   0  0  0  0  0  0  0  0  0  0  0  0
    0.2774   -3.8476    0.8931 H   0  0  0  0  0  0  0  0  0  0  0  0
   -0.7430   -2.7240    1.8577 H   0  0  0  0  0  0  0  0  0  0  0  0
    0.6522   -2.0985    0.9111 H   0  0  0  0  0  0  0  0  0  0  0  0
   -2.1522   -3.7678   -0.2622 C   0  0  0  0  0  0  0  0  0  0  0  0
   -1.6316   -4.7421   -0.3453 H   0  0  0  0  0  0  0  0  0  0  0  0
   -2.8748   -3.7031   -1.1004 H   0  0  0  0  0  0  0  0  0  0  0  0
   -2.7178   -3.7835    0.6904 H   0  0  0  0  0  0  0  0  0  0  0  0
   -5.3501    0.0004    0.4717 C   0  0  0  0  0  0  0  0  0  0  0  0
   -5.5930   -0.7490    1.8018 C   0  0  0  0  0  0  0  0  0  0  0  0
   -5.0847   -0.2370    2.6437 H   0  0  0  0  0  0  0  0  0  0  0  0
   -5.2165   -1.7905    1.7628 H   0  0  0  0  0  0  0  0  0  0  0  0
   -6.6783   -0.7918    2.0285 H   0  0  0  0  0  0  0  0  0  0  0  0
   -6.0682   -0.7417   -0.6788 C   0  0  0  0  0  0  0  0  0  0  0  0
   -7.1605   -0.7844   -0.4883 H   0  0  0  0  0  0  0  0  0  0  0  0
   -5.7047   -1.7827   -0.7881 H   0  0  0  0  0  0  0  0  0  0  0  0
   -5.9063   -0.2243   -1.6459 H   0  0  0  0  0  0  0  0  0  0  0  0
   -5.9509    1.4115    0.5911 C   0  0  0  0  0  0  0  0  0  0  0  0
   -5.4914    1.9878    1.4194 H   0  0  0  0  0  0  0  0  0  0  0  0
   -7.0374    1.3400    0.7986 H   0  0  0  0  0  0  0  0  0  0  0  0
   -5.8283    1.9935   -0.3444 H   0  0  0  0  0  0  0  0  0  0  0  0
   -1.0679    2.6683   -0.3009 C   0  0  0  0  0  0  0  0  0  0  0  0
   -2.1077    3.8098   -0.2536 C   0  0  0  0  0  0  0  0  0  0  0  0
   -1.5753    4.7779   -0.3342 H   0  0  0  0  0  0  0  0  0  0  0  0
   -2.6754    3.8312    0.6976 H   0  0  0  0  0  0  0  0  0  0  0  0
   -2.8292    3.7549   -1.0934 H   0  0  0  0  0  0  0  0  0  0  0  0
   -0.2726    2.8684   -1.6114 C   0  0  0  0  0  0  0  0  0  0  0  0
   -0.8926    2.6334   -2.4987 H   0  0  0  0  0  0  0  0  0  0  0  0
    0.6452    2.2552   -1.6666 H   0  0  0  0  0  0  0  0  0  0  0  0
    0.0597    3.9237   -1.6855 H   0  0  0  0  0  0  0  0  0  0  0  0
   -0.1429    2.8504    0.9244 C   0  0  0  0  0  0  0  0  0  0  0  0
    0.3194    3.8593    0.9088 H   0  0  0  0  0  0  0  0  0  0  0  0
    0.6744    2.1058    0.9230 H   0  0  0  0  0  0  0  0  0  0  0  0
   -0.7156    2.7446    1.8679 H   0  0  0  0  0  0  0  0  0  0  0  0
  1  3  1  0  0  0  0
  2  1  1  0  0  0  0
  3  4  2  0  0  0  0
  3 10  1  0  0  0  0
  4  5  1  0  0  0  0
  5  6  1  0  0  0  0
  5  7  2  0  0  0  0
  7 24  1  0  0  0  0
  8  9  1  0  0  0  0
  8  7  1  0  0  0  0
 10  8  2  0  0  0  0
 11 20  1  0  0  0  0
 11  4  1  0  0  0  0
 11 16  1  0  0  0  0
 12 11  1  0  0  0  0
 13 12  1  0  0  0  0
 14 12  1  0  0  0  0
 15 12  1  0  0  0  0
 16 18  1  0  0  0  0
 17 16  1  0  0  0  0
 19 16  1  0  0  0  0
 20 23  1  0  0  0  0
 21 20  1  0  0  0  0
 22 20  1  0  0  0  0
 24 33  1  0  0  0  0
 24 25  1  0  0  0  0
 25 28  1  0  0  0  0
 25 26  1  0  0  0  0
 27 25  1  0  0  0  0
 29 30  1  0  0  0  0
 29 24  1  0  0  0  0
 31 29  1  0  0  0  0
 32 29  1  0  0  0  0
 33 35  1  0  0  0  0
 33 34  1  0  0  0  0
 36 33  1  0  0  0  0
 37 38  1  0  0  0  0
 37 10  1  0  0  0  0
 37 46  1  0  0  0  0
 38 40  1  0  0  0  0
 39 38  1  0  0  0  0
 41 38  1  0  0  0  0
 42 37  1  0  0  0  0
 43 42  1  0  0  0  0
 44 42  1  0  0  0  0
 45 42  1  0  0  0  0
 46 49  1  0  0  0  0
 47 46  1  0  0  0  0
 48 46  1  0  0  0  0
M  END
