1
q = 0.0, confidence = 0.998

 39 42  0  0  0  0  0  0  0  0999 V2000
    2.0433    0.3676   -0.1874 P   0  0  0  0  0  0  0  0  0  0  0  0
    3.4012   -3.9189    1.2930 O   0  0  0  0  0  0  0  0  0  0  0  0
    3.0875   -0.9538   -0.9347 C   0  0  0  0  0  0  0  0  0  0  0  0
    3.2446   -2.1844   -0.2658 C   0  0  0  0  0  0  0  0  0  0  0  0
    2.7243   -2.6794    1.0623 C   0  0  0  0  0  0  0  0  0  0  0  0
    2.9416   -1.9942    1.9092 H   0  0  0  0  0  0  0  0  0  0  0  0
    1.6166   -2.8127    0.9995 H   0  0  0  0  0  0  0  0  0  0  0  0
    3.9209   -4.4177    0.0677 C   0  0  0  0  0  0  0  0  0  0  0  0
    3.2628   -5.2149   -0.3669 H   0  0  0  0  0  0  0  0  0  0  0  0
    4.9165   -4.8795    0.2552 H   0  0  0  0  0  0  0  0  0  0  0  0
    3.9760   -3.2276   -0.8576 C   0  0  0  0  0  0  0  0  0  0  0  0
    4.5660   -3.0776   -2.1176 C   0  0  0  0  0  0  0  0  0  0  0  0
    5.1327   -3.9008   -2.5798 H   0  0  0  0  0  0  0  0  0  0  0  0
    4.4212   -1.8492   -2.7838 C   0  0  0  0  0  0  0  0  0  0  0  0
    4.8836   -1.7014   -3.7716 H   0  0  0  0  0  0  0  0  0  0  0  0
    3.6897   -0.8010   -2.2018 C   0  0  0  0  0  0  0  0  0  0  0  0
    3.5856    0.1520   -2.7404 H   0  0  0  0  0  0  0  0  0  0  0  0
    2.4348    1.8627   -1.1988 C   0  0  0  0  0  0  0  0  0  0  0  0
    3.4529    2.7808   -0.8825 C   0  0  0  0  0  0  0  0  0  0  0  0
    4.0673    2.6356    0.0177 H   0  0  0  0  0  0  0  0  0  0  0  0
    3.6749    3.8966   -1.7054 C   0  0  0  0  0  0  0  0  0  0  0  0
    4.4691    4.6138   -1.4469 H   0  0  0  0  0  0  0  0  0  0  0  0
    2.8878    4.1003   -2.8497 C   0  0  0  0  0  0  0  0  0  0  0  0
    3.0658    4.9757   -3.4931 H   0  0  0  0  0  0  0  0  0  0  0  0
    1.8668    3.1887   -3.1660 C   0  0  0  0  0  0  0  0  0  0  0  0
    1.2395    3.3471   -4.0565 H   0  0  0  0  0  0  0  0  0  0  0  0
    1.6335    2.0800   -2.3399 C   0  0  0  0  0  0  0  0  0  0  0  0
    0.8113    1.3771   -2.5534 H   0  0  0  0  0  0  0  0  0  0  0  0
    2.8944    0.6402    1.4276 C   0  0  0  0  0  0  0  0  0  0  0  0
    2.1294    0.8707    2.5873 C   0  0  0  0  0  0  0  0  0  0  0  0
    1.0321    0.8730    2.5041 H   0  0  0  0  0  0  0  0  0  0  0  0
    2.7635    1.0566    3.8250 C   0  0  0  0  0  0  0  0  0  0  0  0
    2.1582    1.2267    4.7286 H   0  0  0  0  0  0  0  0  0  0  0  0
    4.1638    1.0092    3.9152 C   0  0  0  0  0  0  0  0  0  0  0  0
    4.6596    1.1478    4.8882 H   0  0  0  0  0  0  0  0  0  0  0  0
    4.9313    0.7667    2.7640 C   0  0  0  0  0  0  0  0  0  0  0  0
    6.0285    0.7118    2.8328 H   0  0  0  0  0  0  0  0  0  0  0  0
    4.3009    0.5784    1.5251 C   0  0  0  0  0  0  0  0  0  0  0  0
    4.9022    0.3561    0.6300 H   0  0  0  0  0  0  0  0  0  0  0  0
  1 29  1  0  0  0  0
  3  4  1  0  0  0  0
  3  1  1  0  0  0  0
  4  5  1  0  0  0  0
  5  2  1  0  0  0  0
  5  6  1  0  0  0  0
  7  5  1  0  0  0  0
  8 10  1  0  0  0  0
  8  2  1  0  0  0  0
  9  8  1  0  0  0  0
 11  4  2  0  0  0  0
 11  8  1  0  0  0  0
 12 11  1  0  0  0  0
 13 12  1  0  0  0  0
 14 16  1  0  0  0  0
 14 12  2  0  0  0  0
 15 14  1  0  0  0  0
 16  3  2  0  0  0  0
 17 16  1  0  0  0  0
 18 19  1  0  0  0  0
 18  1  1  0  0  0  0
 19 20  1  0  0  0  0
 21 22  1  0  0  0  0
 21 19  2  0  0  0  0
 23 21  1  0  0  0  0
 24 23  1  0  0  0  0
 25 23  2  0  0  0  0
 25 27  1  0  0  0  0
 26 25  1  0  0  0  0
 27 18  2  0  0  0  0
 28 27  1  0  0  0  0
 29 38  2  0  0  0  0
 29 30  1  0  0  0  0
 30 32  2  0  0  0  0
 31 30  1  0  0  0  0
 32 34  1  0  0  0  0
 32 33  1  0  0  0  0
 34 35  1  0  0  0  0
 36 37  1  0  0  0  0
 36 34  2  0  0  0  0
 38 36  1  0  0  0  0
 39 38  1  0  0  0  0
M  END
