1
q = 0.0, confidence = 0.996

 56 61  0  0  0  0  0  0  0  0999 V2000
    0.1203   -0.8536    0.6174 P   0  0  0  0  0  0  0  0  0  0  0  0
   -1.9493    0.8548   -0.6208 N   0  0  0  0  0  0  0  0  0  0  0  0
   -1.5350   -1.4448    0.0361 C   0  0  0  0  0  0  0  0  0  0  0  0
   -2.4022   -0.4878   -0.5022 C   0  0  0  0  0  0  0  0  0  0  0  0
   -3.7188   -0.8608   -0.9340 C   0  0  0  0  0  0  0  0  0  0  0  0
   -4.6388    0.0816   -1.4840 C   0  0  0  0  0  0  0  0  0  0  0  0
   -5.9012   -0.3190   -1.8953 C   0  0  0  0  0  0  0  0  0  0  0  0
   -6.3035   -1.6764   -1.7754 C   0  0  0  0  0  0  0  0  0  0  0  0
   -5.4329   -2.6151   -1.2437 C   0  0  0  0  0  0  0  0  0  0  0  0
   -4.1270   -2.2396   -0.8122 C   0  0  0  0  0  0  0  0  0  0  0  0
   -3.2117   -3.1845   -0.2672 C   0  0  0  0  0  0  0  0  0  0  0  0
   -1.9471   -2.8014    0.1465 C   0  0  0  0  0  0  0  0  0  0  0  0
   -2.5039    1.9185    0.0990 C   0  0  0  0  0  0  0  0  0  0  0  0
   -3.3753    1.8763    1.1977 C   0  0  0  0  0  0  0  0  0  0  0  0
   -3.7526    3.0966    1.7858 C   0  0  0  0  0  0  0  0  0  0  0  0
   -3.2831    4.3242    1.2900 C   0  0  0  0  0  0  0  0  0  0  0  0
   -2.4163    4.3510    0.1764 C   0  0  0  0  0  0  0  0  0  0  0  0
   -2.0345    3.1498   -0.4206 C   0  0  0  0  0  0  0  0  0  0  0  0
   -1.0880    2.8462   -1.5620 C   0  0  0  0  0  0  0  0  0  0  0  0
   -1.4178    1.3801   -1.9005 C   0  0  0  0  0  0  0  0  0  0  0  0
    0.8424   -2.3379    1.4464 C   0  0  0  0  0  0  0  0  0  0  0  0
    1.0128   -2.4551    2.8392 C   0  0  0  0  0  0  0  0  0  0  0  0
    1.6371   -3.5916    3.3802 C   0  0  0  0  0  0  0  0  0  0  0  0
    2.0866   -4.6196    2.5393 C   0  0  0  0  0  0  0  0  0  0  0  0
    1.9215   -4.5049    1.1482 C   0  0  0  0  0  0  0  0  0  0  0  0
    1.3146   -3.3675    0.5992 C   0  0  0  0  0  0  0  0  0  0  0  0
   -0.3439    0.3178    1.9540 C   0  0  0  0  0  0  0  0  0  0  0  0
   -1.2408   -0.0843    2.9668 C   0  0  0  0  0  0  0  0  0  0  0  0
   -1.6164    0.8185    3.9725 C   0  0  0  0  0  0  0  0  0  0  0  0
   -1.1259    2.1337    3.9574 C   0  0  0  0  0  0  0  0  0  0  0  0
   -0.2611    2.5457    2.9321 C   0  0  0  0  0  0  0  0  0  0  0  0
    0.1333    1.6418    1.9364 C   0  0  0  0  0  0  0  0  0  0  0  0
   -4.3418    1.1359   -1.5681 H   0  0  0  0  0  0  0  0  0  0  0  0
   -6.5985    0.4211   -2.3161 H   0  0  0  0  0  0  0  0  0  0  0  0
   -7.3085   -1.9797   -2.1057 H   0  0  0  0  0  0  0  0  0  0  0  0
   -5.7364   -3.6692   -1.1474 H   0  0  0  0  0  0  0  0  0  0  0  0
   -3.5254   -4.2361   -0.1777 H   0  0  0  0  0  0  0  0  0  0  0  0
   -1.2578   -3.5466    0.5663 H   0  0  0  0  0  0  0  0  0  0  0  0
   -3.7471    0.9174    1.5837 H   0  0  0  0  0  0  0  0  0  0  0  0
   -4.4335    3.0841    2.6508 H   0  0  0  0  0  0  0  0  0  0  0  0
   -3.5976    5.2657    1.7642 H   0  0  0  0  0  0  0  0  0  0  0  0
   -2.0482    5.3104   -0.2201 H   0  0  0  0  0  0  0  0  0  0  0  0
   -1.1971    3.5212   -2.4332 H   0  0  0  0  0  0  0  0  0  0  0  0
   -0.0358    2.9266   -1.2063 H   0  0  0  0  0  0  0  0  0  0  0  0
   -0.5529    0.7737   -2.2336 H   0  0  0  0  0  0  0  0  0  0  0  0
   -2.2040    1.3181   -2.6906 H   0  0  0  0  0  0  0  0  0  0  0  0
    0.6689   -1.6535    3.5087 H   0  0  0  0  0  0  0  0  0  0  0  0
    1.7730   -3.6688    4.4698 H   0  0  0  0  0  0  0  0  0  0  0  0
    2.5744   -5.5090    2.9666 H   0  0  0  0  0  0  0  0  0  0  0  0
    2.2801   -5.3036    0.4811 H   0  0  0  0  0  0  0  0  0  0  0  0
    1.2062   -3.2585   -0.4936 H   0  0  0  0  0  0  0  0  0  0  0  0
   -1.6570   -1.1036    2.9622 H   0  0  0  0  0  0  0  0  0  0  0  0
   -2.3124    0.4964    4.7621 H   0  0  0  0  0  0  0  0  0  0  0  0
   -1.4356    2.8463    4.7365 H   0  0  0  0  0  0  0  0  0  0  0  0
    0.1028    3.5831    2.8990 H   0  0  0  0  0  0  0  0  0  0  0  0
    0.8139    1.9535    1.1308 H   0  0  0  0  0  0  0  0  0  0  0  0
  1 21  1  0  0  0  0
  1 27  1  0  0  0  0
  2  4  1  0  0  0  0
  2 13  1  0  0  0  0
  3 12  1  0  0  0  0
  3  1  1  0  0  0  0
  4  3  2  0  0  0  0
  5 10  1  0  0  0  0
  5  4  1  0  0  0  0
  6  5  2  0  0  0  0
  7  8  2  0  0  0  0
  7  6  1  0  0  0  0
  8  9  1  0  0  0  0
  9 36  1  0  0  0  0
  9 10  2  0  0  0  0
 10 11  1  0  0  0  0
 11 37  1  0  0  0  0
 11 12  2  0  0  0  0
 12 38  1  0  0  0  0
 13 14  1  0  0  0  0
 14 39  1  0  0  0  0
 14 15  2  0  0  0  0
 15 40  1  0  0  0  0
 16 41  1  0  0  0  0
 16 15  1  0  0  0  0
 17 16  2  0  0  0  0
 18 13  2  0  0  0  0
 18 17  1  0  0  0  0
 19 44  1  0  0  0  0
 19 18  1  0  0  0  0
 20 19  1  0  0  0  0
 20  2  1  0  0  0  0
 21 22  1  0  0  0  0
 22 23  2  0  0  0  0
 22 47  1  0  0  0  0
 23 48  1  0  0  0  0
 24 49  1  0  0  0  0
 24 23  1  0  0  0  0
 25 24  2  0  0  0  0
 26 25  1  0  0  0  0
 26 21  2  0  0  0  0
 27 28  1  0  0  0  0
 28 29  2  0  0  0  0
 29 53  1  0  0  0  0
 30 29  1  0  0  0  0
 30 54  1  0  0  0  0
 31 30  2  0  0  0  0
 32 27  2  0  0  0  0
 32 31  1  0  0  0  0
 33  6  1  0  0  0  0
 34  7  1  0  0  0  0
 35  8  1  0  0  0  0
 42 17  1  0  0  0  0
 43 19  1  0  0  0  0
 45 20  1  0  0  0  0
 46 20  1  0  0  0  0
 50 25  1  0  0  0  0
 51 26  1  0  0  0  0
 52 28  1  0  0  0  0
 55 31  1  0  0  0  0
 56 32  1  0  0  0  0
M  END
