1
q = 0.0, confidence = 0.998

 34 36  0  0  0  0  0  0  0  0999 V2000
   -0.5696   -0.0876   -0.0224 P   0  0  0  0  0  0  0  0  0  0  0  0
    0.0763    2.2905    1.5266 F   0  0  0  0  0  0  0  0  0  0  0  0
   -0.6076    4.8933    1.2082 F   0  0  0  0  0  0  0  0  0  0  0  0
   -2.2811    5.6240   -0.8349 F   0  0  0  0  0  0  0  0  0  0  0  0
   -3.2653    3.7304   -2.5425 F   0  0  0  0  0  0  0  0  0  0  0  0
   -2.6206    1.1497   -2.2420 F   0  0  0  0  0  0  0  0  0  0  0  0
   -0.0392    0.1978   -2.8876 F   0  0  0  0  0  0  0  0  0  0  0  0
   -0.5777   -1.4750   -4.9564 F   0  0  0  0  0  0  0  0  0  0  0  0
   -2.0203   -3.7652   -4.5178 F   0  0  0  0  0  0  0  0  0  0  0  0
   -2.9277   -4.3519   -2.0068 F   0  0  0  0  0  0  0  0  0  0  0  0
   -2.4105   -2.7189    0.0512 F   0  0  0  0  0  0  0  0  0  0  0  0
   -3.5772   -0.1907    0.2232 F   0  0  0  0  0  0  0  0  0  0  0  0
   -5.1253   -0.4908    2.4284 F   0  0  0  0  0  0  0  0  0  0  0  0
   -3.9548   -0.7517    4.8916 F   0  0  0  0  0  0  0  0  0  0  0  0
   -1.2334   -0.7164    5.1285 F   0  0  0  0  0  0  0  0  0  0  0  0
    0.3197   -0.3994    2.9728 F   0  0  0  0  0  0  0  0  0  0  0  0
   -1.1928    1.6254   -0.3722 C   0  0  0  0  0  0  0  0  0  0  0  0
   -0.7334    2.6226    0.5144 C   0  0  0  0  0  0  0  0  0  0  0  0
   -1.0752    3.9733    0.3651 C   0  0  0  0  0  0  0  0  0  0  0  0
   -1.9361    4.3482   -0.6812 C   0  0  0  0  0  0  0  0  0  0  0  0
   -2.4321    3.3749   -1.5637 C   0  0  0  0  0  0  0  0  0  0  0  0
   -2.0775    2.0248   -1.3909 C   0  0  0  0  0  0  0  0  0  0  0  0
   -1.2283   -1.1744   -1.3527 C   0  0  0  0  0  0  0  0  0  0  0  0
   -0.7612   -0.9096   -2.6544 C   0  0  0  0  0  0  0  0  0  0  0  0
   -1.0235   -1.7628   -3.7324 C   0  0  0  0  0  0  0  0  0  0  0  0
   -1.7593   -2.9392   -3.5067 C   0  0  0  0  0  0  0  0  0  0  0  0
   -2.2294   -3.2350   -2.2176 C   0  0  0  0  0  0  0  0  0  0  0  0
   -1.9518   -2.3641   -1.1500 C   0  0  0  0  0  0  0  0  0  0  0  0
   -1.5722   -0.3680    1.4970 C   0  0  0  0  0  0  0  0  0  0  0  0
   -2.9788   -0.3433    1.4145 C   0  0  0  0  0  0  0  0  0  0  0  0
   -3.7958   -0.4928    2.5417 C   0  0  0  0  0  0  0  0  0  0  0  0
   -3.1953   -0.6217    3.8065 C   0  0  0  0  0  0  0  0  0  0  0  0
   -1.7965   -0.6153    3.9240 C   0  0  0  0  0  0  0  0  0  0  0  0
   -0.9937   -0.4636    2.7789 C   0  0  0  0  0  0  0  0  0  0  0  0
  1 29  1  0  0  0  0
  4 20  1  0  0  0  0
  5 21  1  0  0  0  0
  6 22  1  0  0  0  0
  7 24  1  0  0  0  0
  8 25  1  0  0  0  0
  9 26  1  0  0  0  0
 12 30  1  0  0  0  0
 13 31  1  0  0  0  0
 17  1  1  0  0  0  0
 17 18  1  0  0  0  0
 18  2  1  0  0  0  0
 19 18  2  0  0  0  0
 19  3  1  0  0  0  0
 20 19  1  0  0  0  0
 21 22  1  0  0  0  0
 21 20  2  0  0  0  0
 22 17  2  0  0  0  0
 23 28  1  0  0  0  0
 23  1  1  0  0  0  0
 24 23  2  0  0  0  0
 25 26  2  0  0  0  0
 25 24  1  0  0  0  0
 26 27  1  0  0  0  0
 27 10  1  0  0  0  0
 27 28  2  0  0  0  0
 28 11  1  0  0  0  0
 29 34  1  0  0  0  0
 30 29  2  0  0  0  0
 30 31  1  0  0  0  0
 31 32  2  0  0  0  0
 32 33  1  0  0  0  0
 32 14  1  0  0  0  0
 33 15  1  0  0  0  0
 34 16  1  0  0  0  0
 34 33  2  0  0  0  0
M  END
