1
q = 0.0, confidence = 1.0

 42 45  0  0  1  0  0  0  0  0999 V2000
    0.2803   -0.5205   -0.2687 P   0  0  2  0  0  0  0  0  0  0  0  0
    3.0480    2.0609   -1.9532 O   0  0  0  0  0  0  0  0  0  0  0  0
    0.9002    2.4794   -1.3471 O   0  0  0  0  0  0  0  0  0  0  0  0
    2.3149    1.2541    2.7963 O   0  0  0  0  0  0  0  0  0  0  0  0
    0.6447    2.1378    1.5328 O   0  0  0  0  0  0  0  0  0  0  0  0
    1.8225    0.3932   -0.7569 C   0  0  1  0  0  0  0  0  0  0  0  0
    1.6739    0.1653    0.7662 C   0  0  2  0  0  0  0  0  0  0  0  0
    1.7537   -1.7934   -0.2953 C   0  0  2  0  0  0  0  0  0  0  0  0
    2.3646   -1.2161    1.0239 C   0  0  1  0  0  0  0  0  0  0  0  0
    3.8523   -1.1037    0.7210 C   0  0  0  0  0  0  0  0  0  0  0  0
    3.9925   -0.9028   -0.6206 C   0  0  0  0  0  0  0  0  0  0  0  0
    2.6003   -0.8806   -1.2418 C   0  0  2  0  0  0  0  0  0  0  0  0
    1.6442   -3.2722   -0.5240 C   0  0  0  0  0  0  0  0  0  0  0  0
    0.9964   -3.7493    0.2382 H   0  0  0  0  0  0  0  0  0  0  0  0
    2.6479   -3.7441   -0.4683 H   0  0  0  0  0  0  0  0  0  0  0  0
    1.2140   -3.4952   -1.5208 H   0  0  0  0  0  0  0  0  0  0  0  0
    1.9332   -1.8768    2.3200 C   0  0  0  0  0  0  0  0  0  0  0  0
    0.8258   -1.9247    2.3854 H   0  0  0  0  0  0  0  0  0  0  0  0
    2.2952   -1.3030    3.1940 H   0  0  0  0  0  0  0  0  0  0  0  0
    2.3282   -2.9099    2.3863 H   0  0  0  0  0  0  0  0  0  0  0  0
    4.8827   -1.0452    1.7999 C   0  0  0  0  0  0  0  0  0  0  0  0
    4.8925   -1.9734    2.4101 H   0  0  0  0  0  0  0  0  0  0  0  0
    4.6482   -0.2119    2.4971 H   0  0  0  0  0  0  0  0  0  0  0  0
    5.9021   -0.8892    1.3981 H   0  0  0  0  0  0  0  0  0  0  0  0
    5.2205   -0.5699   -1.4020 C   0  0  0  0  0  0  0  0  0  0  0  0
    5.1180    0.4460   -1.8402 H   0  0  0  0  0  0  0  0  0  0  0  0
    5.3735   -1.2715   -2.2495 H   0  0  0  0  0  0  0  0  0  0  0  0
    6.1318   -0.5902   -0.7741 H   0  0  0  0  0  0  0  0  0  0  0  0
    2.4712   -1.1287   -2.7326 C   0  0  0  0  0  0  0  0  0  0  0  0
    1.4030   -1.1431   -3.0362 H   0  0  0  0  0  0  0  0  0  0  0  0
    2.9225   -2.1011   -3.0127 H   0  0  0  0  0  0  0  0  0  0  0  0
    2.9780   -0.3323   -3.3113 H   0  0  0  0  0  0  0  0  0  0  0  0
    2.0113    1.7187   -1.4062 C   0  0  0  0  0  0  0  0  0  0  0  0
    1.0078    3.7999   -1.8929 C   0  0  0  0  0  0  0  0  0  0  0  0
    0.0191    4.2662   -1.7399 H   0  0  0  0  0  0  0  0  0  0  0  0
    1.2613    3.7598   -2.9711 H   0  0  0  0  0  0  0  0  0  0  0  0
    1.7972    4.3760   -1.3696 H   0  0  0  0  0  0  0  0  0  0  0  0
    1.6086    1.2270    1.8008 C   0  0  0  0  0  0  0  0  0  0  0  0
    0.4610    3.1682    2.5114 C   0  0  0  0  0  0  0  0  0  0  0  0
   -0.2997    3.8485    2.0896 H   0  0  0  0  0  0  0  0  0  0  0  0
    1.4101    3.7068    2.7033 H   0  0  0  0  0  0  0  0  0  0  0  0
    0.1016    2.7323    3.4654 H   0  0  0  0  0  0  0  0  0  0  0  0
  1  7  1  0  0  0  0
  2 33  2  0  0  0  0
  5 38  1  0  0  0  0
  5 39  1  0  0  0  0
  6 33  1  6  0  0  0
  6  1  1  0  0  0  0
  6  7  1  0  0  0  0
  7  9  1  0  0  0  0
  7 38  1  1  0  0  0
  8  1  1  0  0  0  0
  8  9  1  0  0  0  0
  9 17  1  1  0  0  0
 10  9  1  0  0  0  0
 10 21  1  0  0  0  0
 11 10  2  0  0  0  0
 12 29  1  6  0  0  0
 12  6  1  0  0  0  0
 12 11  1  0  0  0  0
 12  8  1  0  0  0  0
 13 15  1  0  0  0  0
 13  8  1  0  0  0  0
 13 14  1  0  0  0  0
 16 13  1  0  0  0  0
 17 18  1  0  0  0  0
 17 20  1  0  0  0  0
 17 19  1  0  0  0  0
 21 22  1  0  0  0  0
 21 23  1  0  0  0  0
 24 21  1  0  0  0  0
 25 28  1  0  0  0  0
 25 11  1  0  0  0  0
 26 25  1  0  0  0  0
 27 25  1  0  0  0  0
 30 29  1  0  0  0  0
 31 29  1  0  0  0  0
 32 29  1  0  0  0  0
 33  3  1  0  0  0  0
 34 35  1  0  0  0  0
 34 37  1  0  0  0  0
 34  3  1  0  0  0  0
 36 34  1  0  0  0  0
 38  4  2  0  0  0  0
 39 41  1  0  0  0  0
 39 42  1  0  0  0  0
 40 39  1  0  0  0  0
M  END
