1
q = 0.0, confidence = 1.0

 27 30  0  0  1  0  0  0  0  0999 V2000
    1.1100   -0.0646   -0.0004 P   0  0  2  0  0  0  0  0  0  0  0  0
    1.8871    1.5979   -0.0002 C   0  0  0  0  0  0  0  0  0  0  0  0
    2.1401    2.2605   -1.2187 C   0  0  0  0  0  0  0  0  0  0  0  0
    2.6543    3.5655   -1.2157 C   0  0  0  0  0  0  0  0  0  0  0  0
    2.9135    4.2185    0.0000 C   0  0  0  0  0  0  0  0  0  0  0  0
    2.6563    3.5645    1.2156 C   0  0  0  0  0  0  0  0  0  0  0  0
    2.1421    2.2595    1.2184 C   0  0  0  0  0  0  0  0  0  0  0  0
    2.4464   -1.1167    0.7643 C   0  0  2  0  0  0  0  0  0  0  0  0
    2.4468   -1.1166   -0.7647 C   0  0  1  0  0  0  0  0  0  0  0  0
    2.2096   -2.6080   -1.1328 C   0  0  1  0  0  0  0  0  0  0  0  0
    3.5062   -3.2839   -0.6772 C   0  0  0  0  0  0  0  0  0  0  0  0
    3.5057   -3.2840    0.6772 C   0  0  0  0  0  0  0  0  0  0  0  0
    2.2088   -2.6082    1.1320 C   0  0  2  0  0  0  0  0  0  0  0  0
    1.2665   -3.0729   -0.0008 C   0  0  0  0  0  0  0  0  0  0  0  0
    1.9288    1.7553   -2.1741 H   0  0  0  0  0  0  0  0  0  0  0  0
    2.8501    4.0768   -2.1704 H   0  0  0  0  0  0  0  0  0  0  0  0
    3.3144    5.2434    0.0001 H   0  0  0  0  0  0  0  0  0  0  0  0
    2.8537    4.0750    2.1704 H   0  0  0  0  0  0  0  0  0  0  0  0
    1.9324    1.7536    2.1737 H   0  0  0  0  0  0  0  0  0  0  0  0
    1.8851   -2.7885   -2.1734 H   0  0  0  0  0  0  0  0  0  0  0  0
    1.8837   -2.7889    2.1724 H   0  0  0  0  0  0  0  0  0  0  0  0
    1.1228   -4.1694   -0.0009 H   0  0  0  0  0  0  0  0  0  0  0  0
    0.2798   -2.5736   -0.0011 H   0  0  0  0  0  0  0  0  0  0  0  0
    3.2292   -0.5712   -1.3176 H   0  0  0  0  0  0  0  0  0  0  0  0
    3.2286   -0.5716    1.3178 H   0  0  0  0  0  0  0  0  0  0  0  0
    4.3213   -3.5962   -1.3451 H   0  0  0  0  0  0  0  0  0  0  0  0
    4.3204   -3.5965    1.3456 H   0  0  0  0  0  0  0  0  0  0  0  0
  1  2  1  1  0  0  0
  1  8  1  0  0  0  0
  2  7  1  0  0  0  0
  3  4  1  0  0  0  0
  3  2  2  0  0  0  0
  4  5  2  0  0  0  0
  5 17  1  0  0  0  0
  5  6  1  0  0  0  0
  6  7  2  0  0  0  0
  6 18  1  0  0  0  0
  7 19  1  0  0  0  0
  8 13  1  0  0  0  0
  8 25  1  1  0  0  0
  9 24  1  6  0  0  0
  9  1  1  0  0  0  0
  9  8  1  0  0  0  0
 10 20  1  6  0  0  0
 10  9  1  0  0  0  0
 10 11  1  0  0  0  0
 10 14  1  0  0  0  0
 11 12  2  0  0  0  0
 12 13  1  0  0  0  0
 12 27  1  0  0  0  0
 13 21  1  1  0  0  0
 14 13  1  0  0  0  0
 15  3  1  0  0  0  0
 16  4  1  0  0  0  0
 22 14  1  0  0  0  0
 23 14  1  0  0  0  0
 26 11  1  0  0  0  0
M  END
