3
q = 0.0, confidence = 0.994

 46 45  0  0  0  0  0  0  0  0999 V2000
    1.3267   -1.7983   -2.2736 Cl  0  0  0  0  0  0  0  0  0  0  0  0
    2.3104   -0.1760   -1.1814 P   0  0  1  0  0  0  0  0  0  0  0  0
    0.2697    0.7575   -0.6995 P   0  0  0  0  0  0  0  0  0  0  0  0
    2.8766   -0.8288    0.2762 N   0  0  0  0  0  0  0  0  0  0  0  0
    0.5816    2.3019   -0.0372 N   0  0  0  0  0  0  0  0  0  0  0  0
    2.0298   -1.5400    1.2649 C   0  0  0  0  0  0  0  0  0  0  0  0
    2.2830   -1.0376    2.6904 C   0  0  0  0  0  0  0  0  0  0  0  0
    2.1517   -3.0656    1.1621 C   0  0  0  0  0  0  0  0  0  0  0  0
    4.3501   -1.0764    0.3432 C   0  0  0  0  0  0  0  0  0  0  0  0
    5.1314    0.2405    0.3790 C   0  0  0  0  0  0  0  0  0  0  0  0
    4.8452   -2.0094   -0.7697 C   0  0  0  0  0  0  0  0  0  0  0  0
    0.7497    2.4008    1.4251 C   0  0  0  0  0  0  0  0  0  0  0  0
   -0.2331    3.3913    2.0611 C   0  0  0  0  0  0  0  0  0  0  0  0
    2.2034    2.6912    1.8233 C   0  0  0  0  0  0  0  0  0  0  0  0
    0.8751    3.4888   -0.8684 C   0  0  0  0  0  0  0  0  0  0  0  0
    2.1507    3.3473   -1.7100 C   0  0  0  0  0  0  0  0  0  0  0  0
   -0.3367    3.9000   -1.7147 C   0  0  0  0  0  0  0  0  0  0  0  0
    0.9872   -1.2715    0.9970 H   0  0  0  0  0  0  0  0  0  0  0  0
    1.5444   -1.4848    3.3843 H   0  0  0  0  0  0  0  0  0  0  0  0
    2.1865    0.0626    2.7520 H   0  0  0  0  0  0  0  0  0  0  0  0
    3.2934   -1.3155    3.0549 H   0  0  0  0  0  0  0  0  0  0  0  0
    1.4213   -3.5477    1.8414 H   0  0  0  0  0  0  0  0  0  0  0  0
    3.1619   -3.4171    1.4567 H   0  0  0  0  0  0  0  0  0  0  0  0
    1.9372   -3.4088    0.1327 H   0  0  0  0  0  0  0  0  0  0  0  0
    4.5108   -1.5885    1.3142 H   0  0  0  0  0  0  0  0  0  0  0  0
    4.8177    0.8663    1.2372 H   0  0  0  0  0  0  0  0  0  0  0  0
    4.9634    0.8206   -0.5521 H   0  0  0  0  0  0  0  0  0  0  0  0
    6.2193    0.0473    0.4680 H   0  0  0  0  0  0  0  0  0  0  0  0
    4.2788   -2.9597   -0.7831 H   0  0  0  0  0  0  0  0  0  0  0  0
    5.9202   -2.2431   -0.6321 H   0  0  0  0  0  0  0  0  0  0  0  0
    4.7265   -1.5319   -1.7647 H   0  0  0  0  0  0  0  0  0  0  0  0
    0.4933    1.3934    1.8163 H   0  0  0  0  0  0  0  0  0  0  0  0
   -0.1334    3.3720    3.1648 H   0  0  0  0  0  0  0  0  0  0  0  0
   -1.2778    3.1388    1.8017 H   0  0  0  0  0  0  0  0  0  0  0  0
   -0.0379    4.4324    1.7307 H   0  0  0  0  0  0  0  0  0  0  0  0
    2.3213    2.6595    2.9252 H   0  0  0  0  0  0  0  0  0  0  0  0
    2.5248    3.6981    1.4857 H   0  0  0  0  0  0  0  0  0  0  0  0
    2.8831    1.9410    1.3761 H   0  0  0  0  0  0  0  0  0  0  0  0
    1.0532    4.3058   -0.1378 H   0  0  0  0  0  0  0  0  0  0  0  0
    3.0207    3.0783   -1.0797 H   0  0  0  0  0  0  0  0  0  0  0  0
    2.3785    4.2991   -2.2315 H   0  0  0  0  0  0  0  0  0  0  0  0
    2.0420    2.5620   -2.4858 H   0  0  0  0  0  0  0  0  0  0  0  0
   -0.1344    4.8485   -2.2516 H   0  0  0  0  0  0  0  0  0  0  0  0
   -1.2341    4.0347   -1.0811 H   0  0  0  0  0  0  0  0  0  0  0  0
   -0.5751    3.1339   -2.4817 H   0  0  0  0  0  0  0  0  0  0  0  0
    0.1382    1.1304   -2.0748 H   0  0  0  0  0  0  0  0  0  0  0  0
  2  1  1  6  0  0  0
  2  3  1  0  0  0  0
  2  4  1  0  0  0  0
  3  5  1  0  0  0  0
  4  9  1  0  0  0  0
  4  6  1  0  0  0  0
  5 12  1  0  0  0  0
  6  7  1  0  0  0  0
  7 20  1  0  0  0  0
  7 21  1  0  0  0  0
  7 19  1  0  0  0  0
  8  6  1  0  0  0  0
  8 23  1  0  0  0  0
  8 22  1  0  0  0  0
  9 10  1  0  0  0  0
  9 25  1  0  0  0  0
 10 28  1  0  0  0  0
 10 26  1  0  0  0  0
 11 30  1  0  0  0  0
 11  9  1  0  0  0  0
 12 32  1  0  0  0  0
 12 14  1  0  0  0  0
 12 13  1  0  0  0  0
 13 33  1  0  0  0  0
 14 36  1  0  0  0  0
 15 39  1  0  0  0  0
 15  5  1  0  0  0  0
 16 40  1  0  0  0  0
 16 15  1  0  0  0  0
 17 44  1  0  0  0  0
 17 15  1  0  0  0  0
 18  6  1  0  0  0  0
 24  8  1  0  0  0  0
 27 10  1  0  0  0  0
 29 11  1  0  0  0  0
 31 11  1  0  0  0  0
 34 13  1  0  0  0  0
 35 13  1  0  0  0  0
 37 14  1  0  0  0  0
 38 14  1  0  0  0  0
 41 16  1  0  0  0  0
 42 16  1  0  0  0  0
 43 17  1  0  0  0  0
 45 17  1  0  0  0  0
 46  3  1  0  0  0  0
M  END
