1
q = 0.0, confidence = 0.996

 49 52  0  0  0  0  0  0  0  0999 V2000
   -1.2699    0.2116   -0.1533 P   0  0  0  0  0  0  0  0  0  0  0  0
   -0.2965    1.4864   -1.0443 C   0  0  0  0  0  0  0  0  0  0  0  0
    0.7588    1.0728   -1.8806 C   0  0  0  0  0  0  0  0  0  0  0  0
    0.9840   -0.0008   -1.9796 H   0  0  0  0  0  0  0  0  0  0  0  0
    1.5380    2.0274   -2.5496 C   0  0  0  0  0  0  0  0  0  0  0  0
    2.3724    1.6980   -3.1864 H   0  0  0  0  0  0  0  0  0  0  0  0
    1.2678    3.3954   -2.3882 C   0  0  0  0  0  0  0  0  0  0  0  0
    1.8863    4.1436   -2.9068 H   0  0  0  0  0  0  0  0  0  0  0  0
    0.2175    3.8105   -1.5530 C   0  0  0  0  0  0  0  0  0  0  0  0
    0.0109    4.8829   -1.4165 H   0  0  0  0  0  0  0  0  0  0  0  0
   -0.5631    2.8608   -0.8779 C   0  0  0  0  0  0  0  0  0  0  0  0
   -1.3652    3.1879   -0.1983 H   0  0  0  0  0  0  0  0  0  0  0  0
   -2.8389    0.0144   -1.0861 C   0  0  0  0  0  0  0  0  0  0  0  0
   -3.3663    1.0407   -1.8951 C   0  0  0  0  0  0  0  0  0  0  0  0
   -2.8175    1.9866   -2.0140 H   0  0  0  0  0  0  0  0  0  0  0  0
   -4.5865    0.8498   -2.5607 C   0  0  0  0  0  0  0  0  0  0  0  0
   -4.9910    1.6515   -3.1970 H   0  0  0  0  0  0  0  0  0  0  0  0
   -5.2860   -0.3598   -2.4213 C   0  0  0  0  0  0  0  0  0  0  0  0
   -6.2415   -0.5067   -2.9474 H   0  0  0  0  0  0  0  0  0  0  0  0
   -4.7603   -1.3861   -1.6200 C   0  0  0  0  0  0  0  0  0  0  0  0
   -5.2993   -2.3398   -1.5169 H   0  0  0  0  0  0  0  0  0  0  0  0
   -3.5370   -1.2045   -0.9587 C   0  0  0  0  0  0  0  0  0  0  0  0
   -3.1073   -2.0132   -0.3457 H   0  0  0  0  0  0  0  0  0  0  0  0
   -1.7706    1.0272    1.4171 C   0  0  0  0  0  0  0  0  0  0  0  0
   -3.1182    1.2433    1.7502 C   0  0  0  0  0  0  0  0  0  0  0  0
   -3.9071    0.9432    1.0446 H   0  0  0  0  0  0  0  0  0  0  0  0
   -3.4614    1.8397    2.9737 C   0  0  0  0  0  0  0  0  0  0  0  0
   -4.5204    2.0036    3.2226 H   0  0  0  0  0  0  0  0  0  0  0  0
   -2.4545    2.2251    3.8732 C   0  0  0  0  0  0  0  0  0  0  0  0
   -2.7217    2.6923    4.8330 H   0  0  0  0  0  0  0  0  0  0  0  0
   -1.1072    2.0153    3.5568 C   0  0  0  0  0  0  0  0  0  0  0  0
   -0.3130    2.3119    4.2567 H   0  0  0  0  0  0  0  0  0  0  0  0
   -0.7386    1.4108    2.3313 C   0  0  0  0  0  0  0  0  0  0  0  0
    0.6236    1.1973    1.9774 C   0  0  0  0  0  0  0  0  0  0  0  0
    1.7473    0.9812    1.5178 C   0  0  0  0  0  0  0  0  0  0  0  0
    3.0079    0.7479    0.8975 C   0  0  0  0  0  0  0  0  0  0  0  0
    3.8508    1.8339    0.5538 C   0  0  0  0  0  0  0  0  0  0  0  0
    3.5370    2.8571    0.8061 H   0  0  0  0  0  0  0  0  0  0  0  0
    5.0549    1.6079   -0.1197 C   0  0  0  0  0  0  0  0  0  0  0  0
    5.6941    2.4648   -0.3857 H   0  0  0  0  0  0  0  0  0  0  0  0
    5.4654    0.3045   -0.4714 C   0  0  0  0  0  0  0  0  0  0  0  0
    4.6204   -0.7712   -0.1235 C   0  0  0  0  0  0  0  0  0  0  0  0
    4.9098   -1.7998   -0.3910 H   0  0  0  0  0  0  0  0  0  0  0  0
    3.4136   -0.5669    0.5510 C   0  0  0  0  0  0  0  0  0  0  0  0
    2.7712   -1.4260    0.7988 H   0  0  0  0  0  0  0  0  0  0  0  0
    6.7755    0.0604   -1.1748 C   0  0  0  0  0  0  0  0  0  0  0  0
    6.6762   -0.7138   -1.9620 H   0  0  0  0  0  0  0  0  0  0  0  0
    7.5461   -0.3051   -0.4621 H   0  0  0  0  0  0  0  0  0  0  0  0
    7.1697    0.9837   -1.6422 H   0  0  0  0  0  0  0  0  0  0  0  0
  1 24  1  0  0  0  0
  2 11  1  0  0  0  0
  2  1  1  0  0  0  0
  3  2  2  0  0  0  0
  4  3  1  0  0  0  0
  5  7  2  0  0  0  0
  5  3  1  0  0  0  0
  6  5  1  0  0  0  0
  7  9  1  0  0  0  0
  8  7  1  0  0  0  0
  9 10  1  0  0  0  0
  9 11  2  0  0  0  0
 11 12  1  0  0  0  0
 13 22  1  0  0  0  0
 13  1  1  0  0  0  0
 14 13  2  0  0  0  0
 15 14  1  0  0  0  0
 16 18  2  0  0  0  0
 16 14  1  0  0  0  0
 17 16  1  0  0  0  0
 18 20  1  0  0  0  0
 19 18  1  0  0  0  0
 20 21  1  0  0  0  0
 20 22  2  0  0  0  0
 22 23  1  0  0  0  0
 24 25  2  0  0  0  0
 24 33  1  0  0  0  0
 25 27  1  0  0  0  0
 26 25  1  0  0  0  0
 27 28  1  0  0  0  0
 27 29  2  0  0  0  0
 29 30  1  0  0  0  0
 31 29  1  0  0  0  0
 31 32  1  0  0  0  0
 33 31  2  0  0  0  0
 34 33  1  0  0  0  0
 35 34  3  0  0  0  0
 36 35  1  0  0  0  0
 37 38  1  0  0  0  0
 37 36  1  0  0  0  0
 39 37  2  0  0  0  0
 40 39  1  0  0  0  0
 41 42  2  0  0  0  0
 41 39  1  0  0  0  0
 42 44  1  0  0  0  0
 43 42  1  0  0  0  0
 44 45  1  0  0  0  0
 44 36  2  0  0  0  0
 46 41  1  0  0  0  0
 46 48  1  0  0  0  0
 47 46  1  0  0  0  0
 49 46  1  0  0  0  0
M  END
