1
q = 0.0, confidence = 1.0

 28 28  0  0  1  0  0  0  0  0999 V2000
   -1.2852    0.6735   -1.1004 P   0  0  0  0  0  0  0  0  0  0  0  0
   -0.6191    2.1289   -1.4385 F   0  0  0  0  0  0  0  0  0  0  0  0
   -1.5924    0.2947   -2.6506 F   0  0  0  0  0  0  0  0  0  0  0  0
   -2.9808    1.1398   -0.4356 C   0  0  1  0  0  0  0  0  0  0  0  0
   -3.4801   -0.2560   -0.1388 C   0  0  0  0  0  0  0  0  0  0  0  0
   -3.1164   -0.5535    1.1599 C   0  0  0  0  0  0  0  0  0  0  0  0
   -2.5283    0.6377    1.7932 C   0  0  0  0  0  0  0  0  0  0  0  0
   -2.5174    1.6879    0.8959 C   0  0  0  0  0  0  0  0  0  0  0  0
   -3.7534    2.0329   -1.3943 C   0  0  0  0  0  0  0  0  0  0  0  0
   -4.1700   -1.1086   -1.1525 C   0  0  0  0  0  0  0  0  0  0  0  0
   -3.2061   -1.8743    1.8520 C   0  0  0  0  0  0  0  0  0  0  0  0
   -1.9918    0.6298    3.1883 C   0  0  0  0  0  0  0  0  0  0  0  0
   -2.1574    3.1218    1.1128 C   0  0  0  0  0  0  0  0  0  0  0  0
   -3.2104    2.9754   -1.5999 H   0  0  0  0  0  0  0  0  0  0  0  0
   -4.7323    2.2874   -0.9401 H   0  0  0  0  0  0  0  0  0  0  0  0
   -3.9388    1.5233   -2.3589 H   0  0  0  0  0  0  0  0  0  0  0  0
   -4.3308   -2.1330   -0.7703 H   0  0  0  0  0  0  0  0  0  0  0  0
   -5.1598   -0.6799   -1.4248 H   0  0  0  0  0  0  0  0  0  0  0  0
   -3.5769   -1.2008   -2.0840 H   0  0  0  0  0  0  0  0  0  0  0  0
   -3.7060   -2.6371    1.2280 H   0  0  0  0  0  0  0  0  0  0  0  0
   -2.1833   -2.2488    2.0747 H   0  0  0  0  0  0  0  0  0  0  0  0
   -3.7460   -1.7979    2.8188 H   0  0  0  0  0  0  0  0  0  0  0  0
   -1.6245    1.6246    3.5018 H   0  0  0  0  0  0  0  0  0  0  0  0
   -2.7556    0.2932    3.9197 H   0  0  0  0  0  0  0  0  0  0  0  0
   -1.1431   -0.0836    3.2658 H   0  0  0  0  0  0  0  0  0  0  0  0
   -1.6803    3.2762    2.0978 H   0  0  0  0  0  0  0  0  0  0  0  0
   -1.4580    3.4961    0.3399 H   0  0  0  0  0  0  0  0  0  0  0  0
   -3.0639    3.7653    1.0683 H   0  0  0  0  0  0  0  0  0  0  0  0
  1  4  1  0  0  0  0
  2  1  1  0  0  0  0
  3  1  1  0  0  0  0
  4  9  1  6  0  0  0
  4  5  1  0  0  0  0
  4  8  1  0  0  0  0
  5  6  2  0  0  0  0
  6  7  1  0  0  0  0
  6 11  1  0  0  0  0
  7 12  1  0  0  0  0
  8 13  1  0  0  0  0
  8  7  2  0  0  0  0
  9 15  1  0  0  0  0
 10 17  1  0  0  0  0
 10  5  1  0  0  0  0
 11 21  1  0  0  0  0
 11 22  1  0  0  0  0
 12 25  1  0  0  0  0
 12 23  1  0  0  0  0
 12 24  1  0  0  0  0
 13 26  1  0  0  0  0
 14  9  1  0  0  0  0
 16  9  1  0  0  0  0
 18 10  1  0  0  0  0
 19 10  1  0  0  0  0
 20 11  1  0  0  0  0
 27 13  1  0  0  0  0
 28 13  1  0  0  0  0
M  END
