3
q = 0.0, confidence = 0.996

 50 53  0  0  0  0  0  0  0  0999 V2000
   -0.5502    0.8082   -2.3429 S   0  0  0  0  0  1  0  0  0  0  0  0
   -1.9588    0.9317   -0.9392 P   0  0  0  0  0  4  0  0  0  0  0  0
   -0.0292    0.3993    1.4160 P   0  0  0  0  0  0  0  0  0  0  0  0
   -1.2974    1.5549    0.6765 C   0  0  0  0  0  0  0  0  0  0  0  0
   -2.7829   -0.6475   -0.5399 C   0  0  0  0  0  0  0  0  0  0  0  0
   -3.7292   -0.7296    0.5061 C   0  0  0  0  0  0  0  0  0  0  0  0
   -4.3082   -1.9645    0.8208 C   0  0  0  0  0  0  0  0  0  0  0  0
   -3.9389   -3.1178    0.1057 C   0  0  0  0  0  0  0  0  0  0  0  0
   -2.9921   -3.0363   -0.9249 C   0  0  0  0  0  0  0  0  0  0  0  0
   -2.4151   -1.8002   -1.2549 C   0  0  0  0  0  0  0  0  0  0  0  0
   -3.2435    2.1528   -1.3974 C   0  0  0  0  0  0  0  0  0  0  0  0
   -2.8174    3.4625   -1.7058 C   0  0  0  0  0  0  0  0  0  0  0  0
   -3.7561    4.4325   -2.0788 C   0  0  0  0  0  0  0  0  0  0  0  0
   -5.1190    4.0993   -2.1624 C   0  0  0  0  0  0  0  0  0  0  0  0
   -5.5402    2.7918   -1.8778 C   0  0  0  0  0  0  0  0  0  0  0  0
   -4.6069    1.8151   -1.4955 C   0  0  0  0  0  0  0  0  0  0  0  0
    0.8285    1.4838    2.6212 C   0  0  0  0  0  0  0  0  0  0  0  0
    1.0146    1.0952    3.9647 C   0  0  0  0  0  0  0  0  0  0  0  0
    1.7623    1.9042    4.8334 C   0  0  0  0  0  0  0  0  0  0  0  0
    2.3363    3.0988    4.3719 C   0  0  0  0  0  0  0  0  0  0  0  0
    2.1729    3.4771    3.0299 C   0  0  0  0  0  0  0  0  0  0  0  0
    1.4319    2.6725    2.1539 C   0  0  0  0  0  0  0  0  0  0  0  0
   -1.0458   -0.7475    2.4267 C   0  0  0  0  0  0  0  0  0  0  0  0
   -0.9289   -2.1295    2.1814 C   0  0  0  0  0  0  0  0  0  0  0  0
   -1.7093   -3.0375    2.9150 C   0  0  0  0  0  0  0  0  0  0  0  0
   -2.5999   -2.5742    3.8941 C   0  0  0  0  0  0  0  0  0  0  0  0
   -2.7161   -1.1953    4.1441 C   0  0  0  0  0  0  0  0  0  0  0  0
   -1.9433   -0.2832    3.4135 C   0  0  0  0  0  0  0  0  0  0  0  0
   -2.1328    1.7485    1.3804 H   0  0  0  0  0  0  0  0  0  0  0  0
   -0.7977    2.5185    0.4523 H   0  0  0  0  0  0  0  0  0  0  0  0
   -4.0099    0.1640    1.0839 H   0  0  0  0  0  0  0  0  0  0  0  0
   -5.0380   -2.0310    1.6410 H   0  0  0  0  0  0  0  0  0  0  0  0
   -4.3872   -4.0888    0.3657 H   0  0  0  0  0  0  0  0  0  0  0  0
   -2.6823   -3.9387   -1.4720 H   0  0  0  0  0  0  0  0  0  0  0  0
   -1.6561   -1.7227   -2.0489 H   0  0  0  0  0  0  0  0  0  0  0  0
   -1.7446    3.7106   -1.6809 H   0  0  0  0  0  0  0  0  0  0  0  0
   -3.4206    5.4529   -2.3174 H   0  0  0  0  0  0  0  0  0  0  0  0
   -5.8540    4.8616   -2.4617 H   0  0  0  0  0  0  0  0  0  0  0  0
   -6.6045    2.5239   -1.9586 H   0  0  0  0  0  0  0  0  0  0  0  0
   -4.9399    0.7888   -1.2834 H   0  0  0  0  0  0  0  0  0  0  0  0
    0.5751    0.1575    4.3348 H   0  0  0  0  0  0  0  0  0  0  0  0
    1.8978    1.5939    5.8807 H   0  0  0  0  0  0  0  0  0  0  0  0
    2.9230    3.7302    5.0561 H   0  0  0  0  0  0  0  0  0  0  0  0
    2.6406    4.3987    2.6521 H   0  0  0  0  0  0  0  0  0  0  0  0
    1.3583    2.9581    1.0931 H   0  0  0  0  0  0  0  0  0  0  0  0
   -0.2409   -2.4966    1.4017 H   0  0  0  0  0  0  0  0  0  0  0  0
   -1.6185   -4.1149    2.7113 H   0  0  0  0  0  0  0  0  0  0  0  0
   -3.2087   -3.2890    4.4688 H   0  0  0  0  0  0  0  0  0  0  0  0
   -3.4109   -0.8299    4.9158 H   0  0  0  0  0  0  0  0  0  0  0  0
   -2.0286    0.7954    3.6210 H   0  0  0  0  0  0  0  0  0  0  0  0
  1  2  1  0  0  0  0
  2  5  1  0  0  0  0
  2  4  1  0  0  0  0
  3 23  1  0  0  0  0
  3 17  1  0  0  0  0
  4 29  1  0  0  0  0
  4  3  1  0  0  0  0
  5  6  1  0  0  0  0
  6  7  2  0  0  0  0
  6 31  1  0  0  0  0
  7 32  1  0  0  0  0
  8 33  1  0  0  0  0
  8  7  1  0  0  0  0
  9  8  2  0  0  0  0
 10  9  1  0  0  0  0
 10  5  2  0  0  0  0
 11  2  1  0  0  0  0
 12 36  1  0  0  0  0
 12 11  2  0  0  0  0
 13 12  1  0  0  0  0
 14 13  2  0  0  0  0
 14 15  1  0  0  0  0
 15 16  2  0  0  0  0
 16 11  1  0  0  0  0
 16 40  1  0  0  0  0
 17 18  1  0  0  0  0
 18 41  1  0  0  0  0
 18 19  2  0  0  0  0
 19 42  1  0  0  0  0
 20 19  1  0  0  0  0
 20 43  1  0  0  0  0
 21 20  2  0  0  0  0
 22 17  2  0  0  0  0
 22 21  1  0  0  0  0
 23 28  1  0  0  0  0
 24 23  2  0  0  0  0
 24 25  1  0  0  0  0
 25 26  2  0  0  0  0
 26 27  1  0  0  0  0
 26 48  1  0  0  0  0
 27 49  1  0  0  0  0
 28 50  1  0  0  0  0
 28 27  2  0  0  0  0
 30  4  1  0  0  0  0
 34  9  1  0  0  0  0
 35 10  1  0  0  0  0
 37 13  1  0  0  0  0
 38 14  1  0  0  0  0
 39 15  1  0  0  0  0
 44 21  1  0  0  0  0
 45 22  1  0  0  0  0
 46 24  1  0  0  0  0
 47 25  1  0  0  0  0
M  END
