1
q = 0.0, confidence = 0.998

 50 50  0  0  0  0  0  0  0  0999 V2000
    0.9933    0.0076   -1.3240 P   0  0  0  0  0  0  0  0  0  0  0  0
   -0.7644    0.0180   -0.7441 C   0  0  0  0  0  0  0  0  0  0  0  0
   -1.4324   -1.2294   -0.4725 C   0  0  0  0  0  0  0  0  0  0  0  0
   -2.7174   -1.1650    0.0927 C   0  0  0  0  0  0  0  0  0  0  0  0
   -3.3754    0.0326    0.4014 C   0  0  0  0  0  0  0  0  0  0  0  0
   -2.7048    1.2210    0.1023 C   0  0  0  0  0  0  0  0  0  0  0  0
   -1.4143    1.2684   -0.4636 C   0  0  0  0  0  0  0  0  0  0  0  0
   -0.8864   -2.6561   -0.7954 C   0  0  0  0  0  0  0  0  0  0  0  0
    0.4918   -2.9297   -0.1481 C   0  0  0  0  0  0  0  0  0  0  0  0
   -0.8679   -2.8706   -2.3298 C   0  0  0  0  0  0  0  0  0  0  0  0
   -1.8084   -3.7673   -0.2367 C   0  0  0  0  0  0  0  0  0  0  0  0
   -4.7735   -0.0014    1.0398 C   0  0  0  0  0  0  0  0  0  0  0  0
   -4.6909   -0.7513    2.3893 C   0  0  0  0  0  0  0  0  0  0  0  0
   -5.7447   -0.7436    0.0935 C   0  0  0  0  0  0  0  0  0  0  0  0
   -5.3283    1.4098    1.2990 C   0  0  0  0  0  0  0  0  0  0  0  0
   -0.8489    2.6906   -0.7736 C   0  0  0  0  0  0  0  0  0  0  0  0
   -1.7545    3.8099   -0.2037 C   0  0  0  0  0  0  0  0  0  0  0  0
    0.5337    2.9394   -0.1256 C   0  0  0  0  0  0  0  0  0  0  0  0
   -0.8287    2.9188   -2.3061 C   0  0  0  0  0  0  0  0  0  0  0  0
    1.0454   -1.0548   -2.2671 H   0  0  0  0  0  0  0  0  0  0  0  0
    1.0607    1.0759   -2.2595 H   0  0  0  0  0  0  0  0  0  0  0  0
   -3.2397   -2.1016    0.3100 H   0  0  0  0  0  0  0  0  0  0  0  0
   -3.2086    2.1641    0.3234 H   0  0  0  0  0  0  0  0  0  0  0  0
    1.3323   -2.3389   -0.5530 H   0  0  0  0  0  0  0  0  0  0  0  0
    0.7651   -3.9941   -0.2948 H   0  0  0  0  0  0  0  0  0  0  0  0
    0.4578   -2.7339    0.9422 H   0  0  0  0  0  0  0  0  0  0  0  0
   -0.4711   -3.8782   -2.5701 H   0  0  0  0  0  0  0  0  0  0  0  0
   -0.2536   -2.1324   -2.8784 H   0  0  0  0  0  0  0  0  0  0  0  0
   -1.8966   -2.8002   -2.7364 H   0  0  0  0  0  0  0  0  0  0  0  0
   -2.8195   -3.7540   -0.6885 H   0  0  0  0  0  0  0  0  0  0  0  0
   -1.9117   -3.7092    0.8651 H   0  0  0  0  0  0  0  0  0  0  0  0
   -1.3604   -4.7514   -0.4769 H   0  0  0  0  0  0  0  0  0  0  0  0
   -4.3336   -1.7924    2.2613 H   0  0  0  0  0  0  0  0  0  0  0  0
   -3.9966   -0.2394    3.0855 H   0  0  0  0  0  0  0  0  0  0  0  0
   -5.6907   -0.7952    2.8682 H   0  0  0  0  0  0  0  0  0  0  0  0
   -5.4191   -1.7854   -0.0982 H   0  0  0  0  0  0  0  0  0  0  0  0
   -5.8184   -0.2266   -0.8846 H   0  0  0  0  0  0  0  0  0  0  0  0
   -6.7600   -0.7860    0.5387 H   0  0  0  0  0  0  0  0  0  0  0  0
   -5.4342    1.9915    0.3610 H   0  0  0  0  0  0  0  0  0  0  0  0
   -6.3334    1.3383    1.7606 H   0  0  0  0  0  0  0  0  0  0  0  0
   -4.6840    1.9862    1.9931 H   0  0  0  0  0  0  0  0  0  0  0  0
   -2.7663    3.8157   -0.6541 H   0  0  0  0  0  0  0  0  0  0  0  0
   -1.2924    4.7895   -0.4358 H   0  0  0  0  0  0  0  0  0  0  0  0
   -1.8575    3.7436    0.8975 H   0  0  0  0  0  0  0  0  0  0  0  0
    0.4997    2.7302    0.9622 H   0  0  0  0  0  0  0  0  0  0  0  0
    1.3665    2.3444   -0.5401 H   0  0  0  0  0  0  0  0  0  0  0  0
    0.8192    4.0024   -0.2592 H   0  0  0  0  0  0  0  0  0  0  0  0
   -0.2252    2.1770   -2.8617 H   0  0  0  0  0  0  0  0  0  0  0  0
   -0.4181    3.9230   -2.5377 H   0  0  0  0  0  0  0  0  0  0  0  0
   -1.8586    2.8665   -2.7124 H   0  0  0  0  0  0  0  0  0  0  0  0
  1  2  1  0  0  0  0
  2  3  2  0  0  0  0
  2  7  1  0  0  0  0
  3  4  1  0  0  0  0
  4 22  1  0  0  0  0
  4  5  2  0  0  0  0
  5 12  1  0  0  0  0
  6 23  1  0  0  0  0
  6  5  1  0  0  0  0
  7  6  2  0  0  0  0
  8  3  1  0  0  0  0
  8 11  1  0  0  0  0
  8  9  1  0  0  0  0
  9 26  1  0  0  0  0
 10  8  1  0  0  0  0
 11 31  1  0  0  0  0
 12 15  1  0  0  0  0
 12 13  1  0  0  0  0
 13 35  1  0  0  0  0
 13 34  1  0  0  0  0
 14 38  1  0  0  0  0
 14 12  1  0  0  0  0
 15 40  1  0  0  0  0
 15 41  1  0  0  0  0
 16  7  1  0  0  0  0
 16 17  1  0  0  0  0
 16 18  1  0  0  0  0
 17 44  1  0  0  0  0
 18 45  1  0  0  0  0
 19 16  1  0  0  0  0
 20  1  1  0  0  0  0
 21  1  1  0  0  0  0
 24  9  1  0  0  0  0
 25  9  1  0  0  0  0
 27 10  1  0  0  0  0
 28 10  1  0  0  0  0
 29 10  1  0  0  0  0
 30 11  1  0  0  0  0
 32 11  1  0  0  0  0
 33 13  1  0  0  0  0
 36 14  1  0  0  0  0
 37 14  1  0  0  0  0
 39 15  1  0  0  0  0
 42 17  1  0  0  0  0
 43 17  1  0  0  0  0
 46 18  1  0  0  0  0
 47 18  1  0  0  0  0
 48 19  1  0  0  0  0
 49 19  1  0  0  0  0
 50 19  1  0  0  0  0
M  END
