1
q = 0.0, confidence = 0.998

 43 46  0  0  1  0  0  0  0  0999 V2000
    1.1407    0.1163   -0.1132 P   0  0  2  0  0  0  0  0  0  0  0  0
    0.8169    1.5426   -1.2918 C   0  0  2  0  0  0  0  0  0  0  0  0
    1.7888    2.6021   -0.7795 C   0  0  0  0  0  0  0  0  0  0  0  0
    1.8333    2.5813    0.5828 C   0  0  0  0  0  0  0  0  0  0  0  0
    0.8821    1.5220    1.1253 C   0  0  1  0  0  0  0  0  0  0  0  0
   -0.5608    1.9806    0.7411 C   0  0  1  0  0  0  0  0  0  0  0  0
   -0.6182    1.9241   -0.8175 C   0  0  0  0  0  0  0  0  0  0  0  0
    2.4833    3.5286   -1.7239 C   0  0  0  0  0  0  0  0  0  0  0  0
    2.6118    3.4522    1.5136 C   0  0  0  0  0  0  0  0  0  0  0  0
    2.9226   -0.2744   -0.0917 C   0  0  0  0  0  0  0  0  0  0  0  0
    3.7852    0.0515   -1.1562 C   0  0  0  0  0  0  0  0  0  0  0  0
    5.1401   -0.3075   -1.0966 C   0  0  0  0  0  0  0  0  0  0  0  0
    5.6415   -0.9885    0.0238 C   0  0  0  0  0  0  0  0  0  0  0  0
    4.7819   -1.3238    1.0827 C   0  0  0  0  0  0  0  0  0  0  0  0
    3.4247   -0.9777    1.0232 C   0  0  0  0  0  0  0  0  0  0  0  0
   -1.7789    0.9029    1.6312 S   0  0  0  0  0  0  0  0  0  0  0  0
   -3.2427    1.0634    0.6212 C   0  0  0  0  0  0  0  0  0  0  0  0
   -3.8444   -0.1048    0.1106 C   0  0  0  0  0  0  0  0  0  0  0  0
   -5.0147    0.0006   -0.6586 C   0  0  0  0  0  0  0  0  0  0  0  0
   -5.5745    1.2566   -0.9384 C   0  0  0  0  0  0  0  0  0  0  0  0
   -4.9683    2.4194   -0.4321 C   0  0  0  0  0  0  0  0  0  0  0  0
   -3.8145    2.3260    0.3581 C   0  0  0  0  0  0  0  0  0  0  0  0
    0.8769    1.3126   -2.3714 H   0  0  0  0  0  0  0  0  0  0  0  0
    1.0063    1.2662    2.1936 H   0  0  0  0  0  0  0  0  0  0  0  0
   -0.6985    3.0182    1.1051 H   0  0  0  0  0  0  0  0  0  0  0  0
   -1.3632    1.1804   -1.1630 H   0  0  0  0  0  0  0  0  0  0  0  0
   -0.9073    2.9048   -1.2428 H   0  0  0  0  0  0  0  0  0  0  0  0
    3.1116    2.9682   -2.4498 H   0  0  0  0  0  0  0  0  0  0  0  0
    3.1362    4.2514   -1.1987 H   0  0  0  0  0  0  0  0  0  0  0  0
    1.7510    4.1070   -2.3283 H   0  0  0  0  0  0  0  0  0  0  0  0
    3.2897    2.8390    2.1462 H   0  0  0  0  0  0  0  0  0  0  0  0
    1.9422    4.0010    2.2109 H   0  0  0  0  0  0  0  0  0  0  0  0
    3.2286    4.1973    0.9760 H   0  0  0  0  0  0  0  0  0  0  0  0
    3.3994    0.5807   -2.0397 H   0  0  0  0  0  0  0  0  0  0  0  0
    5.8085   -0.0529   -1.9330 H   0  0  0  0  0  0  0  0  0  0  0  0
    6.7049   -1.2678    0.0681 H   0  0  0  0  0  0  0  0  0  0  0  0
    5.1682   -1.8679    1.9577 H   0  0  0  0  0  0  0  0  0  0  0  0
    2.7462   -1.2650    1.8424 H   0  0  0  0  0  0  0  0  0  0  0  0
   -3.3864   -1.0908    0.2923 H   0  0  0  0  0  0  0  0  0  0  0  0
   -5.4780   -0.9150   -1.0567 H   0  0  0  0  0  0  0  0  0  0  0  0
   -6.4850    1.3325   -1.5520 H   0  0  0  0  0  0  0  0  0  0  0  0
   -5.4065    3.4074   -0.6420 H   0  0  0  0  0  0  0  0  0  0  0  0
   -3.3553    3.2332    0.7795 H   0  0  0  0  0  0  0  0  0  0  0  0
  1 10  1  6  0  0  0
  1  5  1  0  0  0  0
  2 23  1  6  0  0  0
  2  7  1  0  0  0  0
  2  3  1  0  0  0  0
  2  1  1  0  0  0  0
  3  4  2  0  0  0  0
  4  5  1  0  0  0  0
  4  9  1  0  0  0  0
  5 24  1  1  0  0  0
  6 25  1  1  0  0  0
  6  5  1  0  0  0  0
  6 16  1  0  0  0  0
  7  6  1  0  0  0  0
  8 29  1  0  0  0  0
  8  3  1  0  0  0  0
  9 31  1  0  0  0  0
  9 32  1  0  0  0  0
 10 15  1  0  0  0  0
 11 12  1  0  0  0  0
 11 10  2  0  0  0  0
 12 13  2  0  0  0  0
 13 36  1  0  0  0  0
 13 14  1  0  0  0  0
 14 37  1  0  0  0  0
 15 14  2  0  0  0  0
 15 38  1  0  0  0  0
 17 16  1  0  0  0  0
 18 39  1  0  0  0  0
 18 17  2  0  0  0  0
 19 18  1  0  0  0  0
 20 19  2  0  0  0  0
 20 21  1  0  0  0  0
 21 22  2  0  0  0  0
 22 17  1  0  0  0  0
 22 43  1  0  0  0  0
 26  7  1  0  0  0  0
 27  7  1  0  0  0  0
 28  8  1  0  0  0  0
 30  8  1  0  0  0  0
 33  9  1  0  0  0  0
 34 11  1  0  0  0  0
 35 12  1  0  0  0  0
 40 19  1  0  0  0  0
 41 20  1  0  0  0  0
 42 21  1  0  0  0  0
M  END
