1
q = 0.0, confidence = 1.0

 38 39  0  0  0  0  0  0  0  0999 V2000
    0.8414    0.2932    0.5097 P   0  0  0  0  0  0  0  0  0  0  0  0
   -1.0321   -1.6452    2.0851 N   0  0  0  0  0  0  0  0  0  0  0  0
    0.1690   -1.1838    2.7709 C   0  0  0  0  0  0  0  0  0  0  0  0
    0.5644    0.2385    2.3452 C   0  0  0  0  0  0  0  0  0  0  0  0
   -1.0922   -3.0785    1.8617 C   0  0  0  0  0  0  0  0  0  0  0  0
   -2.2615   -1.1170    2.6464 C   0  0  0  0  0  0  0  0  0  0  0  0
    2.4657   -0.5389    0.3021 C   0  0  0  0  0  0  0  0  0  0  0  0
    2.5434   -1.9408    0.1513 C   0  0  0  0  0  0  0  0  0  0  0  0
    3.7953   -2.5708    0.0794 C   0  0  0  0  0  0  0  0  0  0  0  0
    4.9751   -1.8169    0.1597 C   0  0  0  0  0  0  0  0  0  0  0  0
    4.9031   -0.4222    0.3076 C   0  0  0  0  0  0  0  0  0  0  0  0
    3.6573    0.2160    0.3779 C   0  0  0  0  0  0  0  0  0  0  0  0
    1.1580    2.0383    0.0740 C   0  0  0  0  0  0  0  0  0  0  0  0
    1.4715    2.3172   -1.2755 C   0  0  0  0  0  0  0  0  0  0  0  0
    1.6681    3.6414   -1.6879 C   0  0  0  0  0  0  0  0  0  0  0  0
    1.5403    4.6974   -0.7692 C   0  0  0  0  0  0  0  0  0  0  0  0
    1.2178    4.4240    0.5687 C   0  0  0  0  0  0  0  0  0  0  0  0
    1.0271    3.0987    0.9920 C   0  0  0  0  0  0  0  0  0  0  0  0
    0.0614   -1.2167    3.8868 H   0  0  0  0  0  0  0  0  0  0  0  0
    0.9988   -1.8773    2.5222 H   0  0  0  0  0  0  0  0  0  0  0  0
    1.4732    0.5796    2.8823 H   0  0  0  0  0  0  0  0  0  0  0  0
   -0.2569    0.9552    2.5492 H   0  0  0  0  0  0  0  0  0  0  0  0
   -1.2180   -3.6726    2.8046 H   0  0  0  0  0  0  0  0  0  0  0  0
   -1.9433   -3.3070    1.1894 H   0  0  0  0  0  0  0  0  0  0  0  0
   -0.1720   -3.4201    1.3495 H   0  0  0  0  0  0  0  0  0  0  0  0
   -2.2062   -0.0145    2.7292 H   0  0  0  0  0  0  0  0  0  0  0  0
   -3.1123   -1.3505    1.9757 H   0  0  0  0  0  0  0  0  0  0  0  0
   -2.4899   -1.5333    3.6631 H   0  0  0  0  0  0  0  0  0  0  0  0
    1.6230   -2.5303    0.0351 H   0  0  0  0  0  0  0  0  0  0  0  0
    3.8424   -3.6614   -0.0583 H   0  0  0  0  0  0  0  0  0  0  0  0
    5.9546   -2.3149    0.0963 H   0  0  0  0  0  0  0  0  0  0  0  0
    5.8248    0.1769    0.3636 H   0  0  0  0  0  0  0  0  0  0  0  0
    3.6083    1.3097    0.4870 H   0  0  0  0  0  0  0  0  0  0  0  0
    1.5411    1.4885   -1.9979 H   0  0  0  0  0  0  0  0  0  0  0  0
    1.9132    3.8512   -2.7401 H   0  0  0  0  0  0  0  0  0  0  0  0
    1.6896    5.7370   -1.0985 H   0  0  0  0  0  0  0  0  0  0  0  0
    1.1155    5.2472    1.2923 H   0  0  0  0  0  0  0  0  0  0  0  0
    0.7779    2.8993    2.0440 H   0  0  0  0  0  0  0  0  0  0  0  0
  1  4  1  0  0  0  0
  2  6  1  0  0  0  0
  2  3  1  0  0  0  0
  3 19  1  0  0  0  0
  4 22  1  0  0  0  0
  4  3  1  0  0  0  0
  4 21  1  0  0  0  0
  5  2  1  0  0  0  0
  5 23  1  0  0  0  0
  6 26  1  0  0  0  0
  6 28  1  0  0  0  0
  7 12  1  0  0  0  0
  7  1  1  0  0  0  0
  8  7  2  0  0  0  0
  9  8  1  0  0  0  0
  9 10  2  0  0  0  0
 10 11  1  0  0  0  0
 11 32  1  0  0  0  0
 11 12  2  0  0  0  0
 12 33  1  0  0  0  0
 13  1  1  0  0  0  0
 13 18  1  0  0  0  0
 14 13  2  0  0  0  0
 15 14  1  0  0  0  0
 15 16  2  0  0  0  0
 16 17  1  0  0  0  0
 17 18  2  0  0  0  0
 17 37  1  0  0  0  0
 18 38  1  0  0  0  0
 20  3  1  0  0  0  0
 24  5  1  0  0  0  0
 25  5  1  0  0  0  0
 27  6  1  0  0  0  0
 29  8  1  0  0  0  0
 30  9  1  0  0  0  0
 31 10  1  0  0  0  0
 34 14  1  0  0  0  0
 35 15  1  0  0  0  0
 36 16  1  0  0  0  0
M  END
