1
q = 0.0, confidence = 0.99

 48 52  0  0  0  0  0  0  0  0999 V2000
   -0.1109   -0.1579   -0.5583 P   0  0  0  0  0  0  0  0  0  0  0  0
    0.0839    1.0410    1.9786 N   0  0  0  0  0  0  0  0  0  0  0  0
   -2.1030    1.1236    1.0811 N   0  0  0  0  0  0  0  0  0  0  0  0
   -1.2201   -0.9287    1.9042 N   0  0  0  0  0  0  0  0  0  0  0  0
    0.6935    2.1038    1.4071 N   0  0  0  0  0  0  0  0  0  0  0  0
   -0.2561   -1.8745    1.9694 N   0  0  0  0  0  0  0  0  0  0  0  0
   -3.1195    0.6958    0.2988 N   0  0  0  0  0  0  0  0  0  0  0  0
   -0.7801   -1.8168   -0.9491 C   0  0  0  0  0  0  0  0  0  0  0  0
   -2.3418    2.3643    1.6251 C   0  0  0  0  0  0  0  0  0  0  0  0
   -1.6089    2.8678    2.2611 H   0  0  0  0  0  0  0  0  0  0  0  0
   -0.9137    1.0169   -1.7138 C   0  0  0  0  0  0  0  0  0  0  0  0
   -2.1582   -2.1195   -0.9028 C   0  0  0  0  0  0  0  0  0  0  0  0
   -2.8742   -1.3313   -0.6246 H   0  0  0  0  0  0  0  0  0  0  0  0
    0.1493   -2.8199   -1.2946 C   0  0  0  0  0  0  0  0  0  0  0  0
    1.2239   -2.5771   -1.3109 H   0  0  0  0  0  0  0  0  0  0  0  0
   -0.7172    2.4016   -1.5211 C   0  0  0  0  0  0  0  0  0  0  0  0
   -0.1122    2.7451   -0.6680 H   0  0  0  0  0  0  0  0  0  0  0  0
   -0.9084    0.3063    1.2145 C   0  0  0  0  0  0  0  0  0  0  0  0
    0.5237    0.8014    3.2584 C   0  0  0  0  0  0  0  0  0  0  0  0
    0.1537   -0.0410    3.8490 H   0  0  0  0  0  0  0  0  0  0  0  0
    1.5354    2.5603    2.3405 C   0  0  0  0  0  0  0  0  0  0  0  0
    2.1742    3.4235    2.1166 H   0  0  0  0  0  0  0  0  0  0  0  0
   -3.5960    2.7483    1.1702 C   0  0  0  0  0  0  0  0  0  0  0  0
   -4.1175    3.6841    1.3947 H   0  0  0  0  0  0  0  0  0  0  0  0
   -1.3027    3.3167   -2.4060 C   0  0  0  0  0  0  0  0  0  0  0  0
   -1.1572    4.3956   -2.2440 H   0  0  0  0  0  0  0  0  0  0  0  0
   -1.6617    0.5612   -2.8184 C   0  0  0  0  0  0  0  0  0  0  0  0
   -1.8035   -0.5158   -2.9849 H   0  0  0  0  0  0  0  0  0  0  0  0
   -2.5915   -3.4208   -1.1943 C   0  0  0  0  0  0  0  0  0  0  0  0
   -3.6654   -3.6575   -1.1480 H   0  0  0  0  0  0  0  0  0  0  0  0
    1.4707    1.7804    3.5263 C   0  0  0  0  0  0  0  0  0  0  0  0
    2.0519    1.8980    4.4462 H   0  0  0  0  0  0  0  0  0  0  0  0
   -1.6652   -4.4177   -1.5419 C   0  0  0  0  0  0  0  0  0  0  0  0
   -2.0126   -5.4372   -1.7697 H   0  0  0  0  0  0  0  0  0  0  0  0
   -0.8183   -2.8847    2.6396 C   0  0  0  0  0  0  0  0  0  0  0  0
   -0.2378   -3.7965    2.8280 H   0  0  0  0  0  0  0  0  0  0  0  0
   -0.2956   -4.1142   -1.5967 C   0  0  0  0  0  0  0  0  0  0  0  0
    0.4351   -4.8911   -1.8674 H   0  0  0  0  0  0  0  0  0  0  0  0
   -2.2291    1.4860   -3.7069 C   0  0  0  0  0  0  0  0  0  0  0  0
   -2.8098    1.1238   -4.5688 H   0  0  0  0  0  0  0  0  0  0  0  0
   -2.3918   -1.3114    2.5129 C   0  0  0  0  0  0  0  0  0  0  0  0
   -3.2745   -0.6662    2.5259 H   0  0  0  0  0  0  0  0  0  0  0  0
   -2.0608    2.8636   -3.4979 C   0  0  0  0  0  0  0  0  0  0  0  0
   -2.5137    3.5861   -4.1938 H   0  0  0  0  0  0  0  0  0  0  0  0
   -2.1600   -2.5886    3.0071 C   0  0  0  0  0  0  0  0  0  0  0  0
   -2.8691   -3.2201    3.5519 H   0  0  0  0  0  0  0  0  0  0  0  0
   -4.0306    1.6724    0.3514 C   0  0  0  0  0  0  0  0  0  0  0  0
   -4.9662    1.5696   -0.2125 H   0  0  0  0  0  0  0  0  0  0  0  0
  1 18  1  0  0  0  0
  2 19  1  0  0  0  0
  3 18  1  0  0  0  0
  3  9  1  0  0  0  0
  4  6  1  0  0  0  0
  4 41  1  0  0  0  0
  5  2  1  0  0  0  0
  5 21  2  0  0  0  0
  6 35  2  0  0  0  0
  7 47  2  0  0  0  0
  7  3  1  0  0  0  0
  8 12  1  0  0  0  0
  8  1  1  0  0  0  0
  9 10  1  0  0  0  0
 11 16  1  0  0  0  0
 11  1  1  0  0  0  0
 12 13  1  0  0  0  0
 14  8  2  0  0  0  0
 15 14  1  0  0  0  0
 16 17  1  0  0  0  0
 18  4  1  0  0  0  0
 18  2  1  0  0  0  0
 19 31  2  0  0  0  0
 19 20  1  0  0  0  0
 21 31  1  0  0  0  0
 22 21  1  0  0  0  0
 23 24  1  0  0  0  0
 23  9  2  0  0  0  0
 25 26  1  0  0  0  0
 25 16  2  0  0  0  0
 27 11  2  0  0  0  0
 28 27  1  0  0  0  0
 29 30  1  0  0  0  0
 29 12  2  0  0  0  0
 31 32  1  0  0  0  0
 33 29  1  0  0  0  0
 34 33  1  0  0  0  0
 35 36  1  0  0  0  0
 35 45  1  0  0  0  0
 37 33  2  0  0  0  0
 37 14  1  0  0  0  0
 38 37  1  0  0  0  0
 39 43  2  0  0  0  0
 39 27  1  0  0  0  0
 40 39  1  0  0  0  0
 41 42  1  0  0  0  0
 41 45  2  0  0  0  0
 43 25  1  0  0  0  0
 44 43  1  0  0  0  0
 45 46  1  0  0  0  0
 47 23  1  0  0  0  0
 48 47  1  0  0  0  0
M  END
