1
q = 0.0, confidence = 1.0

 64 68  0  0  0  0  0  0  0  0999 V2000
    1.6443   -0.8642    1.0810 P   0  0  0  0  0  0  0  0  0  0  0  0
    1.1059    2.0439    0.3149 P   0  0  0  0  0  4  0  0  0  0  0  0
   -7.3826    1.3820   -0.8504 Cl  0  0  0  0  0  0  0  0  0  0  0  0
   -1.2767    1.8862    1.9048 O   0  0  0  0  0  0  0  0  0  0  0  0
    1.5956    0.9015    1.6691 C   0  0  0  0  0  0  0  0  0  0  0  0
    0.7812    0.9904    2.4155 H   0  0  0  0  0  0  0  0  0  0  0  0
    2.5570    1.2229    2.1165 H   0  0  0  0  0  0  0  0  0  0  0  0
    1.4994   -1.7916    2.6495 C   0  0  0  0  0  0  0  0  0  0  0  0
    0.3753   -1.5403    3.4681 C   0  0  0  0  0  0  0  0  0  0  0  0
   -0.3668   -0.7763    3.1856 H   0  0  0  0  0  0  0  0  0  0  0  0
    0.1804   -2.2921    4.6344 C   0  0  0  0  0  0  0  0  0  0  0  0
   -0.6992   -2.0921    5.2641 H   0  0  0  0  0  0  0  0  0  0  0  0
    1.0861   -3.3067    4.9837 C   0  0  0  0  0  0  0  0  0  0  0  0
    0.9251   -3.8989    5.8972 H   0  0  0  0  0  0  0  0  0  0  0  0
    2.1888   -3.5744    4.1575 C   0  0  0  0  0  0  0  0  0  0  0  0
    2.8952   -4.3764    4.4203 H   0  0  0  0  0  0  0  0  0  0  0  0
    2.3969   -2.8245    2.9902 C   0  0  0  0  0  0  0  0  0  0  0  0
    3.2591   -3.0444    2.3435 H   0  0  0  0  0  0  0  0  0  0  0  0
    3.3597   -1.0841    0.4760 C   0  0  0  0  0  0  0  0  0  0  0  0
    3.5377   -1.5004   -0.8583 C   0  0  0  0  0  0  0  0  0  0  0  0
    2.6607   -1.7007   -1.4963 H   0  0  0  0  0  0  0  0  0  0  0  0
    4.8340   -1.6343   -1.3804 C   0  0  0  0  0  0  0  0  0  0  0  0
    4.9659   -1.9519   -2.4255 H   0  0  0  0  0  0  0  0  0  0  0  0
    5.9505   -1.3599   -0.5770 C   0  0  0  0  0  0  0  0  0  0  0  0
    6.9656   -1.4673   -0.9890 H   0  0  0  0  0  0  0  0  0  0  0  0
    5.7758   -0.9481    0.7560 C   0  0  0  0  0  0  0  0  0  0  0  0
    6.6515   -0.7370    1.3885 H   0  0  0  0  0  0  0  0  0  0  0  0
    4.4850   -0.8087    1.2833 C   0  0  0  0  0  0  0  0  0  0  0  0
    4.3513   -0.4944    2.3306 H   0  0  0  0  0  0  0  0  0  0  0  0
    2.3679    1.8810   -0.9814 C   0  0  0  0  0  0  0  0  0  0  0  0
    3.7194    2.1027   -0.6307 C   0  0  0  0  0  0  0  0  0  0  0  0
    3.9875    2.4017    0.3942 H   0  0  0  0  0  0  0  0  0  0  0  0
    4.7252    1.9414   -1.5891 C   0  0  0  0  0  0  0  0  0  0  0  0
    5.7763    2.1030   -1.3088 H   0  0  0  0  0  0  0  0  0  0  0  0
    4.3919    1.5593   -2.9010 C   0  0  0  0  0  0  0  0  0  0  0  0
    5.1860    1.4254   -3.6511 H   0  0  0  0  0  0  0  0  0  0  0  0
    3.0533    1.3362   -3.2492 C   0  0  0  0  0  0  0  0  0  0  0  0
    2.7829    1.0122   -4.2649 H   0  0  0  0  0  0  0  0  0  0  0  0
    2.0379    1.4970   -2.2932 C   0  0  0  0  0  0  0  0  0  0  0  0
    0.9999    1.2750   -2.5765 H   0  0  0  0  0  0  0  0  0  0  0  0
    1.2740    3.7390    0.9838 C   0  0  0  0  0  0  0  0  0  0  0  0
    0.8135    4.0528    2.2809 C   0  0  0  0  0  0  0  0  0  0  0  0
    0.3576    3.2727    2.9046 H   0  0  0  0  0  0  0  0  0  0  0  0
    0.8971    5.3734    2.7454 C   0  0  0  0  0  0  0  0  0  0  0  0
    0.5362    5.6149    3.7564 H   0  0  0  0  0  0  0  0  0  0  0  0
    1.4261    6.3831    1.9262 C   0  0  0  0  0  0  0  0  0  0  0  0
    1.4871    7.4176    2.2966 H   0  0  0  0  0  0  0  0  0  0  0  0
    1.8722    6.0738    0.6313 C   0  0  0  0  0  0  0  0  0  0  0  0
    2.2835    6.8626   -0.0163 H   0  0  0  0  0  0  0  0  0  0  0  0
    1.7971    4.7567    0.1573 C   0  0  0  0  0  0  0  0  0  0  0  0
    2.1511    4.5179   -0.8567 H   0  0  0  0  0  0  0  0  0  0  0  0
   -0.4873    1.6245   -0.3031 C   0  0  0  0  0  3  0  0  0  0  0  0
   -0.6666    1.8485   -1.3646 H   0  0  0  0  0  0  0  0  0  0  0  0
   -1.5446    1.7532    0.6848 C   0  0  0  0  0  0  0  0  0  0  0  0
   -2.9742    1.6784    0.2417 C   0  0  0  0  0  0  0  0  0  0  0  0
   -3.3671    1.3889   -1.0819 C   0  0  0  0  0  0  0  0  0  0  0  0
   -2.6161    1.1996   -1.8632 H   0  0  0  0  0  0  0  0  0  0  0  0
   -4.7201    1.2953   -1.4244 C   0  0  0  0  0  0  0  0  0  0  0  0
   -5.0278    1.0538   -2.4510 H   0  0  0  0  0  0  0  0  0  0  0  0
   -5.6939    1.4975   -0.4319 C   0  0  0  0  0  0  0  0  0  0  0  0
   -5.3266    1.7847    0.8944 C   0  0  0  0  0  0  0  0  0  0  0  0
   -6.1060    1.9300    1.6554 H   0  0  0  0  0  0  0  0  0  0  0  0
   -3.9708    1.8684    1.2203 C   0  0  0  0  0  0  0  0  0  0  0  0
   -3.6425    2.0712    2.2499 H   0  0  0  0  0  0  0  0  0  0  0  0
  1  5  1  0  0  0  0
  1  8  1  0  0  0  0
  2 41  1  0  0  0  0
  2  5  1  0  0  0  0
  3 60  1  0  0  0  0
  5  7  1  0  0  0  0
  5  6  1  0  0  0  0
  8 17  2  0  0  0  0
  8  9  1  0  0  0  0
  9 11  2  0  0  0  0
 10  9  1  0  0  0  0
 11 13  1  0  0  0  0
 11 12  1  0  0  0  0
 13 14  1  0  0  0  0
 15 16  1  0  0  0  0
 15 13  2  0  0  0  0
 17 15  1  0  0  0  0
 18 17  1  0  0  0  0
 19  1  1  0  0  0  0
 19 28  1  0  0  0  0
 20 19  2  0  0  0  0
 21 20  1  0  0  0  0
 22 20  1  0  0  0  0
 22 24  2  0  0  0  0
 23 22  1  0  0  0  0
 24 26  1  0  0  0  0
 25 24  1  0  0  0  0
 26 28  2  0  0  0  0
 26 27  1  0  0  0  0
 28 29  1  0  0  0  0
 30 31  1  0  0  0  0
 30  2  1  0  0  0  0
 31 32  1  0  0  0  0
 33 34  1  0  0  0  0
 33 31  2  0  0  0  0
 35 33  1  0  0  0  0
 36 35  1  0  0  0  0
 37 35  2  0  0  0  0
 37 39  1  0  0  0  0
 38 37  1  0  0  0  0
 39 30  2  0  0  0  0
 40 39  1  0  0  0  0
 41 42  1  0  0  0  0
 42 44  2  0  0  0  0
 42 43  1  0  0  0  0
 44 45  1  0  0  0  0
 46 47  1  0  0  0  0
 46 44  1  0  0  0  0
 48 46  2  0  0  0  0
 49 48  1  0  0  0  0
 50 48  1  0  0  0  0
 50 41  2  0  0  0  0
 51 50  1  0  0  0  0
 52  2  1  0  0  0  0
 52 54  1  0  0  0  0
 53 52  1  0  0  0  0
 54  4  2  0  0  0  0
 55 54  1  0  0  0  0
 55 63  1  0  0  0  0
 56 55  2  0  0  0  0
 57 56  1  0  0  0  0
 58 56  1  0  0  0  0
 58 60  2  0  0  0  0
 59 58  1  0  0  0  0
 60 61  1  0  0  0  0
 61 63  2  0  0  0  0
 61 62  1  0  0  0  0
 63 64  1  0  0  0  0
M  END
