1
q = 0.0, confidence = 0.99

 31 36  0  0  0  0  0  0  0  0999 V2000
   -0.5536   -0.0091    0.0000 P   0  0  0  0  0  0  0  0  0  0  0  0
   -1.5054   -0.7584    1.3257 C   0  0  0  0  0  0  0  0  0  0  0  0
   -1.8896    0.0311    2.4227 C   0  0  0  0  0  0  0  0  0  0  0  0
   -1.6937    1.4076    2.4194 O   0  0  0  0  0  0  0  0  0  0  0  0
   -1.8528    2.1041    1.2262 C   0  0  0  0  0  0  0  0  0  0  0  0
   -2.4493    3.3736    1.2326 C   0  0  0  0  0  0  0  0  0  0  0  0
   -2.7342    3.8392    2.1860 H   0  0  0  0  0  0  0  0  0  0  0  0
   -2.7017    4.0023   -0.0014 C   0  0  0  0  0  0  0  0  0  0  0  0
   -3.1679    4.9988   -0.0017 H   0  0  0  0  0  0  0  0  0  0  0  0
   -2.4492    3.3728   -1.2349 C   0  0  0  0  0  0  0  0  0  0  0  0
   -2.7340    3.8378   -2.1886 H   0  0  0  0  0  0  0  0  0  0  0  0
   -1.8527    2.1033   -1.2276 C   0  0  0  0  0  0  0  0  0  0  0  0
   -1.6935    1.4061   -2.4204 O   0  0  0  0  0  0  0  0  0  0  0  0
   -1.8894    0.0295   -2.4228 C   0  0  0  0  0  0  0  0  0  0  0  0
   -2.5193   -0.5848   -3.5154 C   0  0  0  0  0  0  0  0  0  0  0  0
   -2.8049    0.0151   -4.3903 H   0  0  0  0  0  0  0  0  0  0  0  0
   -2.8038   -1.9613   -3.4388 C   0  0  0  0  0  0  0  0  0  0  0  0
   -3.2963   -2.4480   -4.2937 H   0  0  0  0  0  0  0  0  0  0  0  0
   -2.5493   -2.7216   -2.2818 C   0  0  0  0  0  0  0  0  0  0  0  0
   -2.8573   -3.7733   -2.2038 H   0  0  0  0  0  0  0  0  0  0  0  0
   -1.9198   -2.0955   -1.1959 C   0  0  0  0  0  0  0  0  0  0  0  0
   -1.5053   -0.7592   -1.3253 C   0  0  0  0  0  0  0  0  0  0  0  0
   -1.7533   -2.7848    0.0009 O   0  0  0  0  0  0  0  0  0  0  0  0
   -1.9199   -2.0947    1.1972 C   0  0  0  0  0  0  0  0  0  0  0  0
   -2.5495   -2.7201    2.2834 C   0  0  0  0  0  0  0  0  0  0  0  0
   -2.8574   -3.7718    2.2061 H   0  0  0  0  0  0  0  0  0  0  0  0
   -2.8041   -1.9591    3.4399 C   0  0  0  0  0  0  0  0  0  0  0  0
   -3.2966   -2.4452    4.2951 H   0  0  0  0  0  0  0  0  0  0  0  0
   -2.5196   -0.5825    3.5156 C   0  0  0  0  0  0  0  0  0  0  0  0
   -2.8053    0.0180    4.3902 H   0  0  0  0  0  0  0  0  0  0  0  0
   -1.4672    1.5374   -0.0005 C   0  0  0  0  0  0  0  0  0  0  0  0
  1  2  1  0  0  0  0
  2  3  1  0  0  0  0
  3 29  2  0  0  0  0
  4  3  1  0  0  0  0
  5  6  1  0  0  0  0
  5  4  1  0  0  0  0
  6  7  1  0  0  0  0
  8  6  2  0  0  0  0
  9  8  1  0  0  0  0
 10 12  2  0  0  0  0
 10  8  1  0  0  0  0
 11 10  1  0  0  0  0
 12 31  1  0  0  0  0
 13 12  1  0  0  0  0
 14 13  1  0  0  0  0
 14 22  1  0  0  0  0
 15 17  1  0  0  0  0
 15 14  2  0  0  0  0
 16 15  1  0  0  0  0
 17 19  2  0  0  0  0
 18 17  1  0  0  0  0
 19 20  1  0  0  0  0
 19 21  1  0  0  0  0
 21 23  1  0  0  0  0
 22 21  2  0  0  0  0
 22  1  1  0  0  0  0
 23 24  1  0  0  0  0
 24  2  2  0  0  0  0
 24 25  1  0  0  0  0
 25 27  2  0  0  0  0
 26 25  1  0  0  0  0
 27 29  1  0  0  0  0
 27 28  1  0  0  0  0
 29 30  1  0  0  0  0
 31  1  1  0  0  0  0
 31  5  2  0  0  0  0
M  END
