1
q = 0.0, confidence = 0.998

 43 45  0  0  0  0  0  0  0  0999 V2000
    0.3734    0.0891   -0.3077 P   0  0  0  0  0  0  0  0  0  0  0  0
    0.5292    2.9725    0.1005 C   0  0  0  0  0  0  0  0  0  0  0  0
    0.3235    4.0964    0.9294 C   0  0  0  0  0  0  0  0  0  0  0  0
   -0.2092    3.9871    2.2206 C   0  0  0  0  0  0  0  0  0  0  0  0
   -0.5404    2.7235    2.7259 C   0  0  0  0  0  0  0  0  0  0  0  0
   -0.3403    1.5927    1.9253 C   0  0  0  0  0  0  0  0  0  0  0  0
    1.0890    3.2096   -1.2805 C   0  0  0  0  0  0  0  0  0  0  0  0
    2.1376    0.1116   -0.8654 C   0  0  0  0  0  0  0  0  0  0  0  0
    3.1882    0.2575    0.0847 C   0  0  0  0  0  0  0  0  0  0  0  0
    4.5168    0.2016   -0.3824 C   0  0  0  0  0  0  0  0  0  0  0  0
    4.8219   -0.0028   -1.7341 C   0  0  0  0  0  0  0  0  0  0  0  0
    3.7832   -0.1688   -2.6597 C   0  0  0  0  0  0  0  0  0  0  0  0
    2.4530   -0.1134   -2.2228 C   0  0  0  0  0  0  0  0  0  0  0  0
    2.9342    0.4583    1.5563 C   0  0  0  0  0  0  0  0  0  0  0  0
   -0.5840    0.3486   -1.9030 C   0  0  0  0  0  0  0  0  0  0  0  0
   -2.0674    0.4848   -1.6891 C   0  0  0  0  0  0  0  0  0  0  0  0
   -2.9288   -0.5942   -1.9780 C   0  0  0  0  0  0  0  0  0  0  0  0
   -4.3078   -0.4936   -1.7457 C   0  0  0  0  0  0  0  0  0  0  0  0
   -4.8485    0.6891   -1.2198 C   0  0  0  0  0  0  0  0  0  0  0  0
   -4.0029    1.7741   -0.9398 C   0  0  0  0  0  0  0  0  0  0  0  0
   -2.6247    1.6744   -1.1735 C   0  0  0  0  0  0  0  0  0  0  0  0
    0.1751    1.6914    0.6171 C   0  0  0  0  0  0  0  0  0  0  0  0
   -0.3726   -0.5555   -2.5061 H   0  0  0  0  0  0  0  0  0  0  0  0
   -0.1634    1.2236   -2.4351 H   0  0  0  0  0  0  0  0  0  0  0  0
   -2.5103   -1.5279   -2.3830 H   0  0  0  0  0  0  0  0  0  0  0  0
   -4.9619   -1.3493   -1.9716 H   0  0  0  0  0  0  0  0  0  0  0  0
   -5.9295    0.7666   -1.0289 H   0  0  0  0  0  0  0  0  0  0  0  0
   -4.4191    2.7071   -0.5305 H   0  0  0  0  0  0  0  0  0  0  0  0
   -1.9714    2.5277   -0.9400 H   0  0  0  0  0  0  0  0  0  0  0  0
    0.5974    5.0894    0.5390 H   0  0  0  0  0  0  0  0  0  0  0  0
   -0.3542    4.8902    2.8328 H   0  0  0  0  0  0  0  0  0  0  0  0
   -0.9466    2.6115    3.7421 H   0  0  0  0  0  0  0  0  0  0  0  0
   -0.5617    0.5938    2.3263 H   0  0  0  0  0  0  0  0  0  0  0  0
    1.8049    2.4261   -1.5902 H   0  0  0  0  0  0  0  0  0  0  0  0
    1.6068    4.1866   -1.3257 H   0  0  0  0  0  0  0  0  0  0  0  0
    0.2811    3.2417   -2.0432 H   0  0  0  0  0  0  0  0  0  0  0  0
    5.3332    0.3123    0.3486 H   0  0  0  0  0  0  0  0  0  0  0  0
    5.8717   -0.0450   -2.0611 H   0  0  0  0  0  0  0  0  0  0  0  0
    4.0026   -0.3451   -3.7234 H   0  0  0  0  0  0  0  0  0  0  0  0
    1.6529   -0.2484   -2.9631 H   0  0  0  0  0  0  0  0  0  0  0  0
    2.0926   -0.1685    1.9147 H   0  0  0  0  0  0  0  0  0  0  0  0
    2.6609    1.5096    1.7826 H   0  0  0  0  0  0  0  0  0  0  0  0
    3.8351    0.2058    2.1474 H   0  0  0  0  0  0  0  0  0  0  0  0
  1 22  1  0  0  0  0
  2 22  2  0  0  0  0
  2  3  1  0  0  0  0
  3  4  2  0  0  0  0
  4  5  1  0  0  0  0
  4 31  1  0  0  0  0
  5 32  1  0  0  0  0
  6 33  1  0  0  0  0
  6  5  2  0  0  0  0
  7  2  1  0  0  0  0
  8  1  1  0  0  0  0
  8  9  1  0  0  0  0
  9 14  1  0  0  0  0
 10  9  2  0  0  0  0
 10 37  1  0  0  0  0
 11 10  1  0  0  0  0
 12 13  1  0  0  0  0
 12 11  2  0  0  0  0
 13  8  2  0  0  0  0
 14 42  1  0  0  0  0
 14 41  1  0  0  0  0
 14 43  1  0  0  0  0
 15 16  1  0  0  0  0
 15  1  1  0  0  0  0
 16 21  1  0  0  0  0
 17 18  1  0  0  0  0
 17 16  2  0  0  0  0
 18 19  2  0  0  0  0
 19 27  1  0  0  0  0
 19 20  1  0  0  0  0
 20 28  1  0  0  0  0
 21 29  1  0  0  0  0
 21 20  2  0  0  0  0
 22  6  1  0  0  0  0
 23 15  1  0  0  0  0
 24 15  1  0  0  0  0
 25 17  1  0  0  0  0
 26 18  1  0  0  0  0
 30  3  1  0  0  0  0
 34  7  1  0  0  0  0
 35  7  1  0  0  0  0
 36  7  1  0  0  0  0
 38 11  1  0  0  0  0
 39 12  1  0  0  0  0
 40 13  1  0  0  0  0
M  END
