1
q = 0.0, confidence = 1.0

 27 30  0  0  1  0  0  0  0  0999 V2000
   -0.7798   -0.0689   -0.4195 P   0  0  1  0  0  0  0  0  0  0  0  0
   -1.8739   -1.5245   -0.2909 C   0  0  1  0  0  0  0  0  0  0  0  0
   -1.6114   -1.1372   -1.7103 C   0  0  0  0  0  0  0  0  0  0  0  0
   -2.4238   -0.6692   -2.2937 H   0  0  0  0  0  0  0  0  0  0  0  0
   -0.9282   -1.7713   -2.3015 H   0  0  0  0  0  0  0  0  0  0  0  0
   -1.8810   -2.8394    0.4387 C   0  0  0  0  0  0  0  0  0  0  0  0
   -1.2817   -2.9278    1.3589 H   0  0  0  0  0  0  0  0  0  0  0  0
   -1.9389   -3.7526   -0.1777 H   0  0  0  0  0  0  0  0  0  0  0  0
   -3.0771   -1.9276    0.4749 C   0  0  2  0  0  0  0  0  0  0  0  0
   -4.5092   -1.9536    0.2749 C   0  0  0  0  0  0  0  0  0  0  0  0
   -5.5555   -2.2333   -0.5073 C   0  0  0  0  0  0  0  0  0  0  0  0
   -6.5832   -1.9919   -0.1928 H   0  0  0  0  0  0  0  0  0  0  0  0
   -5.4203   -2.7243   -1.4843 H   0  0  0  0  0  0  0  0  0  0  0  0
   -3.9936   -1.3444    1.5317 C   0  0  0  0  0  0  0  0  0  0  0  0
   -4.1001   -1.9140    2.4727 H   0  0  0  0  0  0  0  0  0  0  0  0
   -4.0379   -0.2471    1.6523 H   0  0  0  0  0  0  0  0  0  0  0  0
   -1.8693    1.3970   -0.2321 C   0  0  0  0  0  0  0  0  0  0  0  0
   -3.2536    1.3599   -0.5098 C   0  0  0  0  0  0  0  0  0  0  0  0
   -3.7366    0.4307   -0.8478 H   0  0  0  0  0  0  0  0  0  0  0  0
   -4.0347    2.5113   -0.3443 C   0  0  0  0  0  0  0  0  0  0  0  0
   -5.1130    2.4692   -0.5608 H   0  0  0  0  0  0  0  0  0  0  0  0
   -3.4491    3.7106    0.0965 C   0  0  0  0  0  0  0  0  0  0  0  0
   -4.0673    4.6117    0.2254 H   0  0  0  0  0  0  0  0  0  0  0  0
   -2.0746    3.7536    0.3698 C   0  0  0  0  0  0  0  0  0  0  0  0
   -1.6056    4.6880    0.7126 H   0  0  0  0  0  0  0  0  0  0  0  0
   -1.2875    2.6029    0.2067 C   0  0  0  0  0  0  0  0  0  0  0  0
   -0.2096    2.6431    0.4203 H   0  0  0  0  0  0  0  0  0  0  0  0
  1  2  1  0  0  0  0
  1 17  1  1  0  0  0
  2  3  1  6  0  0  0
  2  6  1  0  0  0  0
  2  9  1  0  0  0  0
  3  1  1  0  0  0  0
  4  3  1  0  0  0  0
  5  3  1  0  0  0  0
  6  9  1  0  0  0  0
  6  7  1  0  0  0  0
  8  6  1  0  0  0  0
  9 10  1  6  0  0  0
  9 14  1  0  0  0  0
 10 14  1  0  0  0  0
 11 12  1  0  0  0  0
 11 10  2  0  0  0  0
 13 11  1  0  0  0  0
 14 16  1  0  0  0  0
 14 15  1  0  0  0  0
 17 26  1  0  0  0  0
 18 20  1  0  0  0  0
 18 17  2  0  0  0  0
 19 18  1  0  0  0  0
 20 22  2  0  0  0  0
 21 20  1  0  0  0  0
 22 23  1  0  0  0  0
 22 24  1  0  0  0  0
 24 25  1  0  0  0  0
 26 24  2  0  0  0  0
 26 27  1  0  0  0  0
M  END
