1
q = 0.0, confidence = 1.0

 26 29  0  0  1  0  0  0  0  0999 V2000
   -0.9040   -0.2100    0.4639 P   0  0  2  0  0  0  0  0  0  0  0  0
   -1.8459   -1.7744    0.4033 C   0  0  2  0  0  0  0  0  0  0  0  0
   -1.5787   -1.3261    1.8040 C   0  0  0  0  0  0  0  0  0  0  0  0
   -2.4153   -0.9361    2.4101 H   0  0  0  0  0  0  0  0  0  0  0  0
   -0.8095   -1.8641    2.3848 H   0  0  0  0  0  0  0  0  0  0  0  0
   -1.6955   -3.0945   -0.3159 C   0  0  0  0  0  0  0  0  0  0  0  0
   -1.6174   -3.9949    0.3177 H   0  0  0  0  0  0  0  0  0  0  0  0
   -1.0895   -3.1172   -1.2358 H   0  0  0  0  0  0  0  0  0  0  0  0
   -2.9896   -2.3428   -0.3330 C   0  0  0  0  0  0  0  0  0  0  0  0
   -4.4297   -2.6233   -0.0767 C   0  0  0  0  0  0  0  0  0  0  0  0
   -4.7773   -3.6660   -0.1587 H   0  0  0  0  0  0  0  0  0  0  0  0
   -4.9521   -2.0314    0.6936 H   0  0  0  0  0  0  0  0  0  0  0  0
   -3.9842   -1.9075   -1.3513 C   0  0  0  0  0  0  0  0  0  0  0  0
   -4.1999   -0.8309   -1.4427 H   0  0  0  0  0  0  0  0  0  0  0  0
   -4.0256   -2.4688   -2.2986 H   0  0  0  0  0  0  0  0  0  0  0  0
   -2.1385    1.1339    0.2623 C   0  0  0  0  0  0  0  0  0  0  0  0
   -3.4939    0.9875    0.6290 C   0  0  0  0  0  0  0  0  0  0  0  0
   -3.8543    0.0437    1.0632 H   0  0  0  0  0  0  0  0  0  0  0  0
   -4.3960    2.0424    0.4389 C   0  0  0  0  0  0  0  0  0  0  0  0
   -5.4502    1.9148    0.7283 H   0  0  0  0  0  0  0  0  0  0  0  0
   -3.9596    3.2566   -0.1185 C   0  0  0  0  0  0  0  0  0  0  0  0
   -4.6710    4.0827   -0.2671 H   0  0  0  0  0  0  0  0  0  0  0  0
   -2.6142    3.4102   -0.4817 C   0  0  0  0  0  0  0  0  0  0  0  0
   -2.2614    4.3576   -0.9161 H   0  0  0  0  0  0  0  0  0  0  0  0
   -1.7075    2.3554   -0.2923 C   0  0  0  0  0  0  0  0  0  0  0  0
   -0.6533    2.4830   -0.5776 H   0  0  0  0  0  0  0  0  0  0  0  0
  1 16  1  6  0  0  0
  1  3  1  0  0  0  0
  2  9  1  6  0  0  0
  2  1  1  0  0  0  0
  2  3  1  0  0  0  0
  3  5  1  0  0  0  0
  3  4  1  0  0  0  0
  6  7  1  0  0  0  0
  6  2  1  0  0  0  0
  8  6  1  0  0  0  0
  9  6  1  0  0  0  0
  9 10  1  0  0  0  0
 10 12  1  0  0  0  0
 11 10  1  0  0  0  0
 13  9  1  0  0  0  0
 13 10  1  0  0  0  0
 14 13  1  0  0  0  0
 15 13  1  0  0  0  0
 16 17  1  0  0  0  0
 17 18  1  0  0  0  0
 19 17  2  0  0  0  0
 19 20  1  0  0  0  0
 21 19  1  0  0  0  0
 22 21  1  0  0  0  0
 23 25  1  0  0  0  0
 23 21  2  0  0  0  0
 24 23  1  0  0  0  0
 25 16  2  0  0  0  0
 26 25  1  0  0  0  0
M  END
