1
q = 0.0, confidence = 0.996

 28 30  0  0  1  0  0  0  0  0999 V2000
   -1.3082   -0.2343   -1.0450 P   0  0  0  0  0  0  0  0  0  0  0  0
   -1.6091    0.0624   -2.5984 F   0  0  0  0  0  0  0  0  0  0  0  0
   -0.6376   -1.7051   -1.2319 F   0  0  0  0  0  0  0  0  0  0  0  0
   -2.9530   -0.6645   -0.3593 C   0  0  1  0  0  0  0  0  0  0  0  0
   -3.8776    0.5786   -0.3876 C   0  0  0  0  0  0  0  0  0  0  0  0
   -5.2334    0.2028    0.2425 C   0  0  2  0  0  0  0  0  0  0  0  0
   -5.0167   -0.2445    1.7009 C   0  0  0  0  0  0  0  0  0  0  0  0
   -4.0936   -1.4776    1.7304 C   0  0  1  0  0  0  0  0  0  0  0  0
   -4.7325   -2.6251    0.9246 C   0  0  0  0  0  0  0  0  0  0  0  0
   -4.9534   -2.1746   -0.5325 C   0  0  2  0  0  0  0  0  0  0  0  0
   -3.5953   -1.8157   -1.1702 C   0  0  0  0  0  0  0  0  0  0  0  0
   -5.8778   -0.9427   -0.5608 C   0  0  0  0  0  0  0  0  0  0  0  0
   -2.7304   -1.1122    1.1098 C   0  0  0  0  0  0  0  0  0  0  0  0
   -4.0137    0.9220   -1.4336 H   0  0  0  0  0  0  0  0  0  0  0  0
   -3.4059    1.4205    0.1588 H   0  0  0  0  0  0  0  0  0  0  0  0
   -5.8910    1.0967    0.2181 H   0  0  0  0  0  0  0  0  0  0  0  0
   -5.9917   -0.4894    2.1736 H   0  0  0  0  0  0  0  0  0  0  0  0
   -4.5686    0.5828    2.2913 H   0  0  0  0  0  0  0  0  0  0  0  0
   -3.9287   -1.8004    2.7798 H   0  0  0  0  0  0  0  0  0  0  0  0
   -5.7014   -2.9167    1.3828 H   0  0  0  0  0  0  0  0  0  0  0  0
   -4.0780   -3.5227    0.9526 H   0  0  0  0  0  0  0  0  0  0  0  0
   -5.4092   -3.0019   -1.1165 H   0  0  0  0  0  0  0  0  0  0  0  0
   -2.9259   -2.7000   -1.1715 H   0  0  0  0  0  0  0  0  0  0  0  0
   -3.7337   -1.5008   -2.2251 H   0  0  0  0  0  0  0  0  0  0  0  0
   -6.0546   -0.6216   -1.6097 H   0  0  0  0  0  0  0  0  0  0  0  0
   -6.8686   -1.2015   -0.1302 H   0  0  0  0  0  0  0  0  0  0  0  0
   -2.2517   -0.2900    1.6847 H   0  0  0  0  0  0  0  0  0  0  0  0
   -2.0398   -1.9802    1.1461 H   0  0  0  0  0  0  0  0  0  0  0  0
  2  1  1  0  0  0  0
  3  1  1  0  0  0  0
  4  1  1  6  0  0  0
  4 13  1  0  0  0  0
  5  4  1  0  0  0  0
  5 15  1  0  0  0  0
  5  6  1  0  0  0  0
  6 16  1  6  0  0  0
  6  7  1  0  0  0  0
  7  8  1  0  0  0  0
  7 17  1  0  0  0  0
  7 18  1  0  0  0  0
  8 19  1  1  0  0  0
  9 21  1  0  0  0  0
  9 20  1  0  0  0  0
  9  8  1  0  0  0  0
 10 22  1  6  0  0  0
 10  9  1  0  0  0  0
 11 10  1  0  0  0  0
 11  4  1  0  0  0  0
 12 10  1  0  0  0  0
 12 26  1  0  0  0  0
 12  6  1  0  0  0  0
 13 28  1  0  0  0  0
 13 27  1  0  0  0  0
 13  8  1  0  0  0  0
 14  5  1  0  0  0  0
 23 11  1  0  0  0  0
 24 11  1  0  0  0  0
 25 12  1  0  0  0  0
M  END
