1
q = 0.0, confidence = 0.996

 42 44  0  0  1  0  0  0  0  0999 V2000
    0.6957    0.7165   -0.0114 P   0  0  2  0  0  0  0  0  0  0  0  0
   -2.5048    1.1095   -2.8785 O   0  0  0  0  0  0  0  0  0  0  0  0
   -3.9595    1.2559   -1.1366 O   0  0  0  0  0  0  0  0  0  0  0  0
   -3.0211    1.7179    2.6111 O   0  0  0  0  0  0  0  0  0  0  0  0
   -3.3469   -0.1117    1.2997 O   0  0  0  0  0  0  0  0  0  0  0  0
   -0.2651    1.9049   -1.1720 C   0  0  1  0  0  0  0  0  0  0  0  0
   -1.6594    1.5219   -0.6929 C   0  0  0  0  0  0  0  0  0  0  0  0
   -1.6740    1.4233    0.6708 C   0  0  0  0  0  0  0  0  0  0  0  0
   -0.2986    1.7805    1.2320 C   0  0  2  0  0  0  0  0  0  0  0  0
    0.0933    3.1929    0.7857 C   0  0  0  0  0  0  0  0  0  0  0  0
    0.1262    3.2588   -0.5715 C   0  0  0  0  0  0  0  0  0  0  0  0
   -2.7260    1.2741   -1.6879 C   0  0  0  0  0  0  0  0  0  0  0  0
   -2.7609    1.0590    1.6186 C   0  0  0  0  0  0  0  0  0  0  0  0
    0.3538    4.2530    1.8024 C   0  0  0  0  0  0  0  0  0  0  0  0
    0.4743    4.4082   -1.4568 C   0  0  0  0  0  0  0  0  0  0  0  0
   -5.0161    0.8690   -2.0218 C   0  0  0  0  0  0  0  0  0  0  0  0
   -4.3539   -0.5667    2.2123 C   0  0  0  0  0  0  0  0  0  0  0  0
    2.4210    1.3302    0.0237 C   0  0  0  0  0  0  0  0  0  0  0  0
    3.0747    1.5820    1.2458 C   0  0  0  0  0  0  0  0  0  0  0  0
    4.4217    1.9727    1.2543 C   0  0  0  0  0  0  0  0  0  0  0  0
    5.1239    2.1099    0.0463 C   0  0  0  0  0  0  0  0  0  0  0  0
    4.4780    1.8491   -1.1730 C   0  0  0  0  0  0  0  0  0  0  0  0
    3.1318    1.4552   -1.1872 C   0  0  0  0  0  0  0  0  0  0  0  0
   -0.1268    1.7839   -2.2598 H   0  0  0  0  0  0  0  0  0  0  0  0
   -0.1763    1.5591    2.3061 H   0  0  0  0  0  0  0  0  0  0  0  0
    0.5860    5.2293    1.3357 H   0  0  0  0  0  0  0  0  0  0  0  0
    1.2091    3.9754    2.4565 H   0  0  0  0  0  0  0  0  0  0  0  0
   -0.5277    4.3829    2.4663 H   0  0  0  0  0  0  0  0  0  0  0  0
    0.7145    5.3208   -0.8784 H   0  0  0  0  0  0  0  0  0  0  0  0
   -0.3562    4.6481   -2.1551 H   0  0  0  0  0  0  0  0  0  0  0  0
    1.3571    4.1617   -2.0866 H   0  0  0  0  0  0  0  0  0  0  0  0
   -5.9508    0.9594   -1.4406 H   0  0  0  0  0  0  0  0  0  0  0  0
   -4.8691   -0.1774   -2.3583 H   0  0  0  0  0  0  0  0  0  0  0  0
   -5.0462    1.5245   -2.9150 H   0  0  0  0  0  0  0  0  0  0  0  0
   -4.7268   -1.5199    1.7987 H   0  0  0  0  0  0  0  0  0  0  0  0
   -5.1749    0.1735    2.2916 H   0  0  0  0  0  0  0  0  0  0  0  0
   -3.9195   -0.7247    3.2198 H   0  0  0  0  0  0  0  0  0  0  0  0
    2.5324    1.4670    2.1974 H   0  0  0  0  0  0  0  0  0  0  0  0
    4.9270    2.1684    2.2122 H   0  0  0  0  0  0  0  0  0  0  0  0
    6.1811    2.4151    0.0553 H   0  0  0  0  0  0  0  0  0  0  0  0
    5.0270    1.9487   -2.1216 H   0  0  0  0  0  0  0  0  0  0  0  0
    2.6358    1.2370   -2.1463 H   0  0  0  0  0  0  0  0  0  0  0  0
  1 18  1  1  0  0  0
  1  9  1  0  0  0  0
  2 12  2  0  0  0  0
  5 13  1  0  0  0  0
  5 17  1  0  0  0  0
  6 24  1  6  0  0  0
  6  7  1  0  0  0  0
  6 11  1  0  0  0  0
  6  1  1  0  0  0  0
  7  8  2  0  0  0  0
  8  9  1  0  0  0  0
  8 13  1  0  0  0  0
  9 25  1  1  0  0  0
 10  9  1  0  0  0  0
 10 14  1  0  0  0  0
 11 10  2  0  0  0  0
 12  3  1  0  0  0  0
 12  7  1  0  0  0  0
 13  4  2  0  0  0  0
 14 27  1  0  0  0  0
 14 28  1  0  0  0  0
 15 29  1  0  0  0  0
 15 11  1  0  0  0  0
 16 32  1  0  0  0  0
 16  3  1  0  0  0  0
 17 36  1  0  0  0  0
 17 37  1  0  0  0  0
 18 19  1  0  0  0  0
 19 20  2  0  0  0  0
 19 38  1  0  0  0  0
 20 39  1  0  0  0  0
 21 40  1  0  0  0  0
 21 20  1  0  0  0  0
 22 21  2  0  0  0  0
 23 22  1  0  0  0  0
 23 18  2  0  0  0  0
 26 14  1  0  0  0  0
 30 15  1  0  0  0  0
 31 15  1  0  0  0  0
 33 16  1  0  0  0  0
 34 16  1  0  0  0  0
 35 17  1  0  0  0  0
 41 22  1  0  0  0  0
 42 23  1  0  0  0  0
M  END
