1
q = 0.0, confidence = 0.99

 42 46  0  0  0  0  0  0  0  0999 V2000
   -0.0987    0.2570   -0.0551 P   0  0  1  0  0  0  0  0  0  0  0  0
    0.9300   -0.2451   -1.4322 C   0  0  0  0  0  0  0  0  0  0  0  0
    0.6082   -0.3368   -2.7725 C   0  0  0  0  0  0  0  0  0  0  0  0
    1.8392   -0.5342   -3.5352 C   0  0  0  0  0  0  0  0  0  0  0  0
    2.9088   -0.5454   -2.6693 C   0  0  0  0  0  0  0  0  0  0  0  0
    2.3871   -0.3873   -1.3100 C   0  0  0  0  0  0  0  0  0  0  0  0
    3.0840   -0.4056   -0.1153 C   0  0  0  0  0  0  0  0  0  0  0  0
    2.4138   -0.3610    1.1990 C   0  0  0  0  0  0  0  0  0  0  0  0
    3.1759   -0.6207    2.3679 C   0  0  0  0  0  0  0  0  0  0  0  0
    2.5951   -0.6373    3.6405 C   0  0  0  0  0  0  0  0  0  0  0  0
    1.2205   -0.4064    3.7849 C   0  0  0  0  0  0  0  0  0  0  0  0
    0.4393   -0.1663    2.6438 C   0  0  0  0  0  0  0  0  0  0  0  0
    1.0108   -0.1333    1.3616 C   0  0  0  0  0  0  0  0  0  0  0  0
    4.5693   -0.5187   -0.1519 C   0  0  0  0  0  0  0  0  0  0  0  0
    5.3761    0.5392    0.3232 C   0  0  0  0  0  0  0  0  0  0  0  0
    6.7732    0.4502    0.2599 C   0  0  0  0  0  0  0  0  0  0  0  0
    7.3851   -0.7007   -0.2637 C   0  0  0  0  0  0  0  0  0  0  0  0
    6.5917   -1.7608   -0.7285 C   0  0  0  0  0  0  0  0  0  0  0  0
    5.1927   -1.6705   -0.6776 C   0  0  0  0  0  0  0  0  0  0  0  0
    0.0164    2.1165   -0.0931 C   0  0  0  0  0  0  0  0  0  0  0  0
   -0.1798    2.8591    1.0883 C   0  0  0  0  0  0  0  0  0  0  0  0
   -0.1862    4.2605    1.0458 C   0  0  0  0  0  0  0  0  0  0  0  0
   -0.0006    4.9320   -0.1734 C   0  0  0  0  0  0  0  0  0  0  0  0
    0.1956    4.1942   -1.3503 C   0  0  0  0  0  0  0  0  0  0  0  0
    0.2067    2.7911   -1.3131 C   0  0  0  0  0  0  0  0  0  0  0  0
   -0.6454   -0.0140    2.7488 H   0  0  0  0  0  0  0  0  0  0  0  0
   -0.3996   -0.2525   -3.2011 H   0  0  0  0  0  0  0  0  0  0  0  0
    1.8856   -0.6580   -4.6251 H   0  0  0  0  0  0  0  0  0  0  0  0
    3.9653   -0.6848   -2.9249 H   0  0  0  0  0  0  0  0  0  0  0  0
    4.2490   -0.8309    2.2633 H   0  0  0  0  0  0  0  0  0  0  0  0
    3.2200   -0.8461    4.5216 H   0  0  0  0  0  0  0  0  0  0  0  0
    0.7484   -0.4289    4.7782 H   0  0  0  0  0  0  0  0  0  0  0  0
    4.8958    1.4415    0.7311 H   0  0  0  0  0  0  0  0  0  0  0  0
    7.3895    1.2875    0.6209 H   0  0  0  0  0  0  0  0  0  0  0  0
    8.4824   -0.7712   -0.3076 H   0  0  0  0  0  0  0  0  0  0  0  0
    7.0644   -2.6682   -1.1339 H   0  0  0  0  0  0  0  0  0  0  0  0
    4.5677   -2.5023   -1.0351 H   0  0  0  0  0  0  0  0  0  0  0  0
   -0.3270    2.3482    2.0507 H   0  0  0  0  0  0  0  0  0  0  0  0
   -0.3397    4.8309    1.9744 H   0  0  0  0  0  0  0  0  0  0  0  0
   -0.0081    6.0320   -0.2049 H   0  0  0  0  0  0  0  0  0  0  0  0
    0.3451    4.7121   -2.3099 H   0  0  0  0  0  0  0  0  0  0  0  0
    0.3700    2.2179   -2.2377 H   0  0  0  0  0  0  0  0  0  0  0  0
  1 20  1  6  0  0  0
  1 13  1  0  0  0  0
  2  6  1  0  0  0  0
  2  1  1  0  0  0  0
  3  2  2  0  0  0  0
  4  3  1  0  0  0  0
  4  5  2  0  0  0  0
  5  6  1  0  0  0  0
  6  7  2  0  0  0  0
  7  8  1  0  0  0  0
  8 13  2  0  0  0  0
  8  9  1  0  0  0  0
  9 10  2  0  0  0  0
 10 11  1  0  0  0  0
 10 31  1  0  0  0  0
 11 32  1  0  0  0  0
 12 26  1  0  0  0  0
 12 11  2  0  0  0  0
 13 12  1  0  0  0  0
 14  7  1  0  0  0  0
 14 15  1  0  0  0  0
 15 33  1  0  0  0  0
 16 15  2  0  0  0  0
 16 34  1  0  0  0  0
 17 16  1  0  0  0  0
 18 19  1  0  0  0  0
 18 17  2  0  0  0  0
 19 14  2  0  0  0  0
 20 21  1  0  0  0  0
 21 38  1  0  0  0  0
 22 21  2  0  0  0  0
 22 39  1  0  0  0  0
 23 22  1  0  0  0  0
 24 25  1  0  0  0  0
 24 23  2  0  0  0  0
 25 20  2  0  0  0  0
 27  3  1  0  0  0  0
 28  4  1  0  0  0  0
 29  5  1  0  0  0  0
 30  9  1  0  0  0  0
 35 17  1  0  0  0  0
 36 18  1  0  0  0  0
 37 19  1  0  0  0  0
 40 23  1  0  0  0  0
 41 24  1  0  0  0  0
 42 25  1  0  0  0  0
M  END
