1
q = 0.0, confidence = 1.0

 36 38  0  0  0  0  0  0  0  0999 V2000
   -1.7432    0.0492    0.3011 P   0  0  0  0  0  0  0  0  0  0  0  0
   -2.0376   -0.7436    1.9448 C   0  0  0  0  0  0  0  0  0  0  0  0
   -2.0123   -0.0043    3.1444 C   0  0  0  0  0  0  0  0  0  0  0  0
   -2.1268   -0.6578    4.3807 C   0  0  0  0  0  0  0  0  0  0  0  0
   -2.2784   -2.0521    4.4349 C   0  0  0  0  0  0  0  0  0  0  0  0
   -2.3081   -2.7950    3.2439 C   0  0  0  0  0  0  0  0  0  0  0  0
   -2.1808   -2.1467    2.0073 C   0  0  0  0  0  0  0  0  0  0  0  0
   -1.8678    1.8574    0.6354 C   0  0  0  0  0  0  0  0  0  0  0  0
   -3.0464    2.4776    1.1685 C   0  0  0  0  0  0  0  0  0  0  0  0
   -3.0243    3.8819    1.3783 C   0  0  0  0  0  0  0  0  0  0  0  0
   -1.9005    4.6501    1.0694 C   0  0  0  0  0  0  0  0  0  0  0  0
   -0.7521    4.0475    0.5282 C   0  0  0  0  0  0  0  0  0  0  0  0
   -0.7582    2.6649    0.3159 C   0  0  0  0  0  0  0  0  0  0  0  0
   -4.1629    1.7572    1.5273 N   0  0  0  0  0  0  0  0  0  0  0  0
   -3.3148   -0.2395   -0.6507 C   0  0  0  0  0  0  0  0  0  0  0  0
   -3.4578    0.4923   -1.8499 C   0  0  0  0  0  0  0  0  0  0  0  0
   -4.5841    0.3090   -2.6609 C   0  0  0  0  0  0  0  0  0  0  0  0
   -5.5821   -0.6087   -2.2905 C   0  0  0  0  0  0  0  0  0  0  0  0
   -5.4467   -1.3374   -1.1009 C   0  0  0  0  0  0  0  0  0  0  0  0
   -4.3191   -1.1555   -0.2811 C   0  0  0  0  0  0  0  0  0  0  0  0
   -1.8953    1.0886    3.1107 H   0  0  0  0  0  0  0  0  0  0  0  0
   -2.0993   -0.0688    5.3103 H   0  0  0  0  0  0  0  0  0  0  0  0
   -2.3669   -2.5616    5.4064 H   0  0  0  0  0  0  0  0  0  0  0  0
   -2.4138   -3.8898    3.2746 H   0  0  0  0  0  0  0  0  0  0  0  0
   -2.1714   -2.7407    1.0818 H   0  0  0  0  0  0  0  0  0  0  0  0
   -3.9245    4.3644    1.7918 H   0  0  0  0  0  0  0  0  0  0  0  0
   -1.9278    5.7369    1.2435 H   0  0  0  0  0  0  0  0  0  0  0  0
    0.1356    4.6393    0.2641 H   0  0  0  0  0  0  0  0  0  0  0  0
    0.1244    2.1820   -0.1250 H   0  0  0  0  0  0  0  0  0  0  0  0
   -4.3099    0.8490    1.0808 H   0  0  0  0  0  0  0  0  0  0  0  0
   -5.0183    2.2897    1.6839 H   0  0  0  0  0  0  0  0  0  0  0  0
   -2.6754    1.2059   -2.1505 H   0  0  0  0  0  0  0  0  0  0  0  0
   -4.6806    0.8841   -3.5942 H   0  0  0  0  0  0  0  0  0  0  0  0
   -6.4631   -0.7569   -2.9330 H   0  0  0  0  0  0  0  0  0  0  0  0
   -6.2222   -2.0594   -0.8026 H   0  0  0  0  0  0  0  0  0  0  0  0
   -4.2311   -1.7283    0.6535 H   0  0  0  0  0  0  0  0  0  0  0  0
  1  8  1  0  0  0  0
  1  2  1  0  0  0  0
  2  7  2  0  0  0  0
  2  3  1  0  0  0  0
  3  4  2  0  0  0  0
  4  5  1  0  0  0  0
  4 22  1  0  0  0  0
  5 23  1  0  0  0  0
  6 24  1  0  0  0  0
  6  5  2  0  0  0  0
  7  6  1  0  0  0  0
  8  9  1  0  0  0  0
  9 10  2  0  0  0  0
  9 14  1  0  0  0  0
 10 26  1  0  0  0  0
 11 27  1  0  0  0  0
 11 10  1  0  0  0  0
 12 11  2  0  0  0  0
 13 12  1  0  0  0  0
 13  8  2  0  0  0  0
 14 31  1  0  0  0  0
 15 20  1  0  0  0  0
 15  1  1  0  0  0  0
 16 15  2  0  0  0  0
 17 18  2  0  0  0  0
 17 16  1  0  0  0  0
 18 19  1  0  0  0  0
 19 35  1  0  0  0  0
 19 20  2  0  0  0  0
 20 36  1  0  0  0  0
 21  3  1  0  0  0  0
 25  7  1  0  0  0  0
 28 12  1  0  0  0  0
 29 13  1  0  0  0  0
 30 14  1  0  0  0  0
 32 16  1  0  0  0  0
 33 17  1  0  0  0  0
 34 18  1  0  0  0  0
M  END
