2
q = 0.0, confidence = 0.998

 70 72  0  0  0  0  0  0  0  0999 V2000
    2.2997   -0.8720   -0.3317 P   0  0  0  0  0  0  0  0  0  0  0  0
   -2.2997   -0.8720   -0.3316 P   0  0  0  0  0  0  0  0  0  0  0  0
   -0.0000    1.0714    0.0620 O   0  0  0  0  0  0  0  0  0  0  0  0
    1.2152    1.7476   -0.1958 C   0  0  0  0  0  0  0  0  0  0  0  0
    2.3658    0.9749   -0.4524 C   0  0  0  0  0  0  0  0  0  0  0  0
    3.5614    1.6564   -0.7576 C   0  0  0  0  0  0  0  0  0  0  0  0
    4.4766    1.0802   -0.9617 H   0  0  0  0  0  0  0  0  0  0  0  0
    3.5971    3.0540   -0.8063 C   0  0  0  0  0  0  0  0  0  0  0  0
    4.5309    3.5749   -1.0626 H   0  0  0  0  0  0  0  0  0  0  0  0
    2.4438    3.7910   -0.5031 C   0  0  0  0  0  0  0  0  0  0  0  0
    2.4909    4.8880   -0.5118 H   0  0  0  0  0  0  0  0  0  0  0  0
    1.2354    3.1553   -0.1670 C   0  0  0  0  0  0  0  0  0  0  0  0
   -0.0001    3.9027    0.3341 C   0  0  0  0  0  0  0  0  0  0  0  0
   -0.0001    5.3790   -0.0837 C   0  0  0  0  0  0  0  0  0  0  0  0
    0.8838    5.9028    0.3265 H   0  0  0  0  0  0  0  0  0  0  0  0
   -0.8840    5.9028    0.3265 H   0  0  0  0  0  0  0  0  0  0  0  0
   -0.0001    5.4973   -1.1849 H   0  0  0  0  0  0  0  0  0  0  0  0
   -0.0002    3.8158    1.8884 C   0  0  0  0  0  0  0  0  0  0  0  0
   -0.0002    2.7623    2.2323 H   0  0  0  0  0  0  0  0  0  0  0  0
   -0.9011    4.3137    2.2991 H   0  0  0  0  0  0  0  0  0  0  0  0
    0.9007    4.3137    2.2992 H   0  0  0  0  0  0  0  0  0  0  0  0
   -1.2355    3.1552   -0.1671 C   0  0  0  0  0  0  0  0  0  0  0  0
   -1.2153    1.7475   -0.1958 C   0  0  0  0  0  0  0  0  0  0  0  0
   -2.3659    0.9749   -0.4526 C   0  0  0  0  0  0  0  0  0  0  0  0
   -3.5614    1.6563   -0.7579 C   0  0  0  0  0  0  0  0  0  0  0  0
   -4.4766    1.0801   -0.9620 H   0  0  0  0  0  0  0  0  0  0  0  0
   -3.5972    3.0539   -0.8066 C   0  0  0  0  0  0  0  0  0  0  0  0
   -4.5310    3.5748   -1.0629 H   0  0  0  0  0  0  0  0  0  0  0  0
   -2.4439    3.7910   -0.5033 C   0  0  0  0  0  0  0  0  0  0  0  0
   -2.4910    4.8879   -0.5121 H   0  0  0  0  0  0  0  0  0  0  0  0
    3.1492   -1.4179   -1.9163 C   0  0  0  0  0  0  0  0  0  0  0  0
    4.1675   -0.9731   -1.8519 H   0  0  0  0  0  0  0  0  0  0  0  0
    3.2825   -2.9440   -1.9826 C   0  0  0  0  0  0  0  0  0  0  0  0
    2.2909   -3.4367   -1.9133 H   0  0  0  0  0  0  0  0  0  0  0  0
    3.9284   -3.3520   -1.1818 H   0  0  0  0  0  0  0  0  0  0  0  0
    3.7364   -3.2369   -2.9510 H   0  0  0  0  0  0  0  0  0  0  0  0
    2.4443   -0.8545   -3.1535 C   0  0  0  0  0  0  0  0  0  0  0  0
    3.0391   -1.0916   -4.0590 H   0  0  0  0  0  0  0  0  0  0  0  0
    2.3218    0.2454   -3.1062 H   0  0  0  0  0  0  0  0  0  0  0  0
    1.4414   -1.3067   -3.2846 H   0  0  0  0  0  0  0  0  0  0  0  0
    3.5407   -1.2837    1.0309 C   0  0  0  0  0  0  0  0  0  0  0  0
    4.5400   -1.2869    0.5409 H   0  0  0  0  0  0  0  0  0  0  0  0
    3.2462   -2.6852    1.5856 C   0  0  0  0  0  0  0  0  0  0  0  0
    4.0146   -2.9641    2.3354 H   0  0  0  0  0  0  0  0  0  0  0  0
    3.2417   -3.4656    0.8018 H   0  0  0  0  0  0  0  0  0  0  0  0
    2.2540   -2.7127    2.0778 H   0  0  0  0  0  0  0  0  0  0  0  0
    3.5370   -0.2299    2.1454 C   0  0  0  0  0  0  0  0  0  0  0  0
    2.5201   -0.0924    2.5654 H   0  0  0  0  0  0  0  0  0  0  0  0
    3.8899    0.7585    1.7969 H   0  0  0  0  0  0  0  0  0  0  0  0
    4.2025   -0.5570    2.9707 H   0  0  0  0  0  0  0  0  0  0  0  0
   -3.1493   -1.4182   -1.9160 C   0  0  0  0  0  0  0  0  0  0  0  0
   -4.1676   -0.9734   -1.8517 H   0  0  0  0  0  0  0  0  0  0  0  0
   -3.2827   -2.9444   -1.9820 C   0  0  0  0  0  0  0  0  0  0  0  0
   -3.7366   -3.2374   -2.9504 H   0  0  0  0  0  0  0  0  0  0  0  0
   -3.9285   -3.3521   -1.1811 H   0  0  0  0  0  0  0  0  0  0  0  0
   -2.2911   -3.4370   -1.9126 H   0  0  0  0  0  0  0  0  0  0  0  0
   -2.4445   -0.8551   -3.1533 C   0  0  0  0  0  0  0  0  0  0  0  0
   -1.4415   -1.3074   -3.2844 H   0  0  0  0  0  0  0  0  0  0  0  0
   -2.3218    0.2448   -3.1062 H   0  0  0  0  0  0  0  0  0  0  0  0
   -3.0393   -1.0923   -4.0588 H   0  0  0  0  0  0  0  0  0  0  0  0
   -3.5406   -1.2836    1.0312 C   0  0  0  0  0  0  0  0  0  0  0  0
   -4.5400   -1.2867    0.5413 H   0  0  0  0  0  0  0  0  0  0  0  0
   -3.5367   -0.2296    2.1456 C   0  0  0  0  0  0  0  0  0  0  0  0
   -4.2022   -0.5566    2.9710 H   0  0  0  0  0  0  0  0  0  0  0  0
   -3.8897    0.7588    1.7969 H   0  0  0  0  0  0  0  0  0  0  0  0
   -2.5198   -0.0921    2.5654 H   0  0  0  0  0  0  0  0  0  0  0  0
   -3.2462   -2.6850    1.5860 C   0  0  0  0  0  0  0  0  0  0  0  0
   -2.2539   -2.7125    2.0781 H   0  0  0  0  0  0  0  0  0  0  0  0
   -3.2417   -3.4655    0.8023 H   0  0  0  0  0  0  0  0  0  0  0  0
   -4.0144   -2.9638    2.3360 H   0  0  0  0  0  0  0  0  0  0  0  0
  1 41  1  0  0  0  0
  2 61  1  0  0  0  0
  4 12  1  0  0  0  0
  4  3  1  0  0  0  0
  5  1  1  0  0  0  0
  5  4  2  0  0  0  0
  6  5  1  0  0  0  0
  7  6  1  0  0  0  0
  8  6  2  0  0  0  0
  8 10  1  0  0  0  0
  9  8  1  0  0  0  0
 10 12  2  0  0  0  0
 11 10  1  0  0  0  0
 12 13  1  0  0  0  0
 13 18  1  0  0  0  0
 14 15  1  0  0  0  0
 14 16  1  0  0  0  0
 14 13  1  0  0  0  0
 17 14  1  0  0  0  0
 18 19  1  0  0  0  0
 18 20  1  0  0  0  0
 18 21  1  0  0  0  0
 22 13  1  0  0  0  0
 23 22  1  0  0  0  0
 23  3  1  0  0  0  0
 24  2  1  0  0  0  0
 24 23  2  0  0  0  0
 25 24  1  0  0  0  0
 26 25  1  0  0  0  0
 27 25  2  0  0  0  0
 27 29  1  0  0  0  0
 28 27  1  0  0  0  0
 29 22  2  0  0  0  0
 30 29  1  0  0  0  0
 31 32  1  0  0  0  0
 31  1  1  0  0  0  0
 33 31  1  0  0  0  0
 33 34  1  0  0  0  0
 33 35  1  0  0  0  0
 36 33  1  0  0  0  0
 37 39  1  0  0  0  0
 37 31  1  0  0  0  0
 38 37  1  0  0  0  0
 40 37  1  0  0  0  0
 41 43  1  0  0  0  0
 41 47  1  0  0  0  0
 42 41  1  0  0  0  0
 43 46  1  0  0  0  0
 43 44  1  0  0  0  0
 45 43  1  0  0  0  0
 47 48  1  0  0  0  0
 47 50  1  0  0  0  0
 49 47  1  0  0  0  0
 51 52  1  0  0  0  0
 51  2  1  0  0  0  0
 53 51  1  0  0  0  0
 53 56  1  0  0  0  0
 53 55  1  0  0  0  0
 54 53  1  0  0  0  0
 57 59  1  0  0  0  0
 57 51  1  0  0  0  0
 58 57  1  0  0  0  0
 60 57  1  0  0  0  0
 61 67  1  0  0  0  0
 61 63  1  0  0  0  0
 62 61  1  0  0  0  0
 63 66  1  0  0  0  0
 63 64  1  0  0  0  0
 65 63  1  0  0  0  0
 67 68  1  0  0  0  0
 67 70  1  0  0  0  0
 69 67  1  0  0  0  0
M  END
