5
q = 0.0, confidence = 0.98

 75 80  0  0  1  0  0  0  0  0999 V2000
   -1.6790    0.9863    1.6572 S   0  0  0  0  0  0  0  0  0  0  0  0
   -0.5406   -1.3815    0.1936 P   0  0  0  0  0  4  0  0  0  0  0  0
   -1.2841    2.3848    1.9847 O   0  0  0  0  0  0  0  0  0  0  0  0
   -0.4944    0.3410    0.5410 C   0  0  2  0  0  3  0  0  0  0  0  0
    1.0054    1.2370    0.1531 P   0  0  0  0  0  0  0  0  0  0  0  0
   -1.9179    0.0317    2.7856 O   0  0  0  0  0  0  0  0  0  0  0  0
   -3.2496    1.0882    0.7702 C   0  0  0  0  0  0  0  0  0  0  0  0
   -3.2900    1.6430   -0.5184 C   0  0  0  0  0  0  0  0  0  0  0  0
   -2.3614    1.9849   -1.0010 H   0  0  0  0  0  0  0  0  0  0  0  0
   -4.5185    1.7310   -1.1814 C   0  0  0  0  0  0  0  0  0  0  0  0
   -4.5549    2.1547   -2.1978 H   0  0  0  0  0  0  0  0  0  0  0  0
   -5.7134    1.2847   -0.5713 C   0  0  0  0  0  0  0  0  0  0  0  0
   -7.0295    1.3946   -1.2979 C   0  0  0  0  0  0  0  0  0  0  0  0
   -7.3462    2.4553   -1.3900 H   0  0  0  0  0  0  0  0  0  0  0  0
   -7.8360    0.8503   -0.7698 H   0  0  0  0  0  0  0  0  0  0  0  0
   -6.9591    0.9926   -2.3295 H   0  0  0  0  0  0  0  0  0  0  0  0
   -5.6386    0.7487    0.7295 C   0  0  0  0  0  0  0  0  0  0  0  0
   -6.5575    0.3886    1.2185 H   0  0  0  0  0  0  0  0  0  0  0  0
   -4.4148    0.6479    1.4066 C   0  0  0  0  0  0  0  0  0  0  0  0
   -4.3418    0.2023    2.4089 H   0  0  0  0  0  0  0  0  0  0  0  0
   -0.2409   -1.7414   -1.5718 C   0  0  0  0  0  0  0  0  0  0  0  0
   -0.2710   -0.6963   -2.5155 C   0  0  0  0  0  0  0  0  0  0  0  0
   -0.4248    0.3383   -2.1774 H   0  0  0  0  0  0  0  0  0  0  0  0
   -0.1048   -0.9810   -3.8775 C   0  0  0  0  0  0  0  0  0  0  0  0
   -0.1164   -0.1583   -4.6080 H   0  0  0  0  0  0  0  0  0  0  0  0
    0.0891   -2.3048   -4.3013 C   0  0  0  0  0  0  0  0  0  0  0  0
    0.2383   -2.5253   -5.3689 H   0  0  0  0  0  0  0  0  0  0  0  0
    0.0831   -3.3504   -3.3644 C   0  0  0  0  0  0  0  0  0  0  0  0
    0.2177   -4.3905   -3.6964 H   0  0  0  0  0  0  0  0  0  0  0  0
   -0.0968   -3.0759   -2.0017 C   0  0  0  0  0  0  0  0  0  0  0  0
   -0.1268   -3.9020   -1.2764 H   0  0  0  0  0  0  0  0  0  0  0  0
    0.6203   -2.3285    1.2412 C   0  0  0  0  0  0  0  0  0  0  0  0
    1.7045   -3.0656    0.7245 C   0  0  0  0  0  0  0  0  0  0  0  0
    1.8832   -3.1394   -0.3570 H   0  0  0  0  0  0  0  0  0  0  0  0
    2.6236   -3.6567    1.6049 C   0  0  0  0  0  0  0  0  0  0  0  0
    3.4864   -4.1974    1.1893 H   0  0  0  0  0  0  0  0  0  0  0  0
    2.4631   -3.5254    2.9917 C   0  0  0  0  0  0  0  0  0  0  0  0
    3.1905   -3.9874    3.6763 H   0  0  0  0  0  0  0  0  0  0  0  0
    1.3898   -2.7788    3.5067 C   0  0  0  0  0  0  0  0  0  0  0  0
    1.2735   -2.6521    4.5937 H   0  0  0  0  0  0  0  0  0  0  0  0
    0.4762   -2.1657    2.6390 C   0  0  0  0  0  0  0  0  0  0  0  0
   -0.3335   -1.5298    3.0351 H   0  0  0  0  0  0  0  0  0  0  0  0
   -2.2369   -2.0424    0.4278 C   0  0  0  0  0  0  0  0  0  0  0  0
   -2.6249   -2.7809    1.5603 C   0  0  0  0  0  0  0  0  0  0  0  0
   -1.9045   -2.9888    2.3619 H   0  0  0  0  0  0  0  0  0  0  0  0
   -3.9406   -3.2557    1.6648 C   0  0  0  0  0  0  0  0  0  0  0  0
   -4.2381   -3.8329    2.5530 H   0  0  0  0  0  0  0  0  0  0  0  0
   -4.8706   -2.9985    0.6460 C   0  0  0  0  0  0  0  0  0  0  0  0
   -5.9019   -3.3724    0.7347 H   0  0  0  0  0  0  0  0  0  0  0  0
   -4.4831   -2.2668   -0.4876 C   0  0  0  0  0  0  0  0  0  0  0  0
   -5.2061   -2.0578   -1.2896 H   0  0  0  0  0  0  0  0  0  0  0  0
   -3.1707   -1.7924   -0.6006 C   0  0  0  0  0  0  0  0  0  0  0  0
   -2.8726   -1.2221   -1.4917 H   0  0  0  0  0  0  0  0  0  0  0  0
    1.7114    2.0023    1.6624 C   0  0  0  0  0  0  0  0  0  0  0  0
    2.5326    3.1397    1.5416 C   0  0  0  0  0  0  0  0  0  0  0  0
    2.6766    3.6146    0.5591 H   0  0  0  0  0  0  0  0  0  0  0  0
    3.1652    3.6687    2.6764 C   0  0  0  0  0  0  0  0  0  0  0  0
    3.8017    4.5612    2.5781 H   0  0  0  0  0  0  0  0  0  0  0  0
    2.9875    3.0633    3.9302 C   0  0  0  0  0  0  0  0  0  0  0  0
    3.4837    3.4808    4.8195 H   0  0  0  0  0  0  0  0  0  0  0  0
    2.1717    1.9262    4.0474 C   0  0  0  0  0  0  0  0  0  0  0  0
    2.0219    1.4514    5.0289 H   0  0  0  0  0  0  0  0  0  0  0  0
    1.5336    1.3951    2.9191 C   0  0  0  0  0  0  0  0  0  0  0  0
    0.8795    0.5174    3.0147 H   0  0  0  0  0  0  0  0  0  0  0  0
    0.6259    2.6406   -0.9817 C   0  0  0  0  0  0  0  0  0  0  0  0
    1.1593    2.6248   -2.2878 C   0  0  0  0  0  0  0  0  0  0  0  0
    1.8228    1.7966   -2.5875 H   0  0  0  0  0  0  0  0  0  0  0  0
    0.8524    3.6553   -3.1901 C   0  0  0  0  0  0  0  0  0  0  0  0
    1.2770    3.6354   -4.2054 H   0  0  0  0  0  0  0  0  0  0  0  0
    0.0163    4.7102   -2.7928 C   0  0  0  0  0  0  0  0  0  0  0  0
   -0.2228    5.5202   -3.4990 H   0  0  0  0  0  0  0  0  0  0  0  0
   -0.5074    4.7352   -1.4890 C   0  0  0  0  0  0  0  0  0  0  0  0
   -1.1578    5.5647   -1.1718 H   0  0  0  0  0  0  0  0  0  0  0  0
   -0.2059    3.7098   -0.5805 C   0  0  0  0  0  0  0  0  0  0  0  0
   -0.6226    3.7167    0.4373 H   0  0  0  0  0  0  0  0  0  0  0  0
  1  3  2  0  0  0  0
  1  6  2  0  0  0  0
  2 43  1  0  0  0  0
  2  4  1  0  0  0  0
  2 32  1  0  0  0  0
  4  5  1  1  0  0  0
  4  1  1  0  0  0  0
  5 54  1  0  0  0  0
  7 19  1  0  0  0  0
  7  1  1  0  0  0  0
  8  7  2  0  0  0  0
  9  8  1  0  0  0  0
 10 12  2  0  0  0  0
 10  8  1  0  0  0  0
 11 10  1  0  0  0  0
 12 17  1  0  0  0  0
 13 15  1  0  0  0  0
 13 12  1  0  0  0  0
 14 13  1  0  0  0  0
 16 13  1  0  0  0  0
 17 18  1  0  0  0  0
 17 19  2  0  0  0  0
 19 20  1  0  0  0  0
 21  2  1  0  0  0  0
 22 23  1  0  0  0  0
 22 21  2  0  0  0  0
 24 22  1  0  0  0  0
 25 24  1  0  0  0  0
 26 24  2  0  0  0  0
 26 28  1  0  0  0  0
 27 26  1  0  0  0  0
 28 30  2  0  0  0  0
 29 28  1  0  0  0  0
 30 21  1  0  0  0  0
 30 31  1  0  0  0  0
 32 41  1  0  0  0  0
 33 32  2  0  0  0  0
 33 35  1  0  0  0  0
 34 33  1  0  0  0  0
 35 37  2  0  0  0  0
 36 35  1  0  0  0  0
 37 39  1  0  0  0  0
 37 38  1  0  0  0  0
 39 40  1  0  0  0  0
 41 42  1  0  0  0  0
 41 39  2  0  0  0  0
 43 44  1  0  0  0  0
 44 46  2  0  0  0  0
 44 45  1  0  0  0  0
 46 47  1  0  0  0  0
 48 49  1  0  0  0  0
 48 46  1  0  0  0  0
 50 48  2  0  0  0  0
 51 50  1  0  0  0  0
 52 50  1  0  0  0  0
 52 43  2  0  0  0  0
 53 52  1  0  0  0  0
 54 63  1  0  0  0  0
 55 54  2  0  0  0  0
 55 57  1  0  0  0  0
 56 55  1  0  0  0  0
 57 59  2  0  0  0  0
 58 57  1  0  0  0  0
 59 61  1  0  0  0  0
 59 60  1  0  0  0  0
 61 62  1  0  0  0  0
 63 64  1  0  0  0  0
 63 61  2  0  0  0  0
 65 74  1  0  0  0  0
 65  5  1  0  0  0  0
 66 65  2  0  0  0  0
 67 66  1  0  0  0  0
 68 70  2  0  0  0  0
 68 66  1  0  0  0  0
 69 68  1  0  0  0  0
 70 72  1  0  0  0  0
 71 70  1  0  0  0  0
 72 73  1  0  0  0  0
 72 74  2  0  0  0  0
 74 75  1  0  0  0  0
M  END
