1
q = 0.0, confidence = 0.994

 63 68  0  0  1  0  0  0  0  0999 V2000
    0.0663    0.4247   -0.1549 P   0  0  1  0  0  0  0  0  0  0  0  0
   -1.9159   -0.0662    0.8185 Si  0  0  0  0  0  0  0  0  0  0  0  0
   -3.5745    1.6273    0.8693 Si  0  0  0  0  0  0  0  0  0  0  0  0
   -1.8708   -1.5127    2.6925 Si  0  0  0  0  0  0  0  0  0  0  0  0
   -1.2799   -0.6797   -0.9143 C   0  0  1  0  0  0  0  0  0  0  0  0
   -2.0231   -0.2744   -2.1965 C   0  0  2  0  0  0  0  0  0  0  0  0
   -2.2421    0.8109   -2.1840 H   0  0  0  0  0  0  0  0  0  0  0  0
   -3.3458   -1.0710   -2.2456 C   0  0  0  0  0  0  0  0  0  0  0  0
   -3.9678   -0.8157   -1.3600 H   0  0  0  0  0  0  0  0  0  0  0  0
   -3.9266   -0.7810   -3.1477 H   0  0  0  0  0  0  0  0  0  0  0  0
   -3.0476   -2.5836   -2.2710 C   0  0  2  0  0  0  0  0  0  0  0  0
   -4.0034   -3.1492   -2.2937 H   0  0  0  0  0  0  0  0  0  0  0  0
   -2.2462   -2.9762   -1.0143 C   0  0  0  0  0  0  0  0  0  0  0  0
   -2.0278   -4.0656   -1.0239 H   0  0  0  0  0  0  0  0  0  0  0  0
   -2.8414   -2.7694   -0.0986 H   0  0  0  0  0  0  0  0  0  0  0  0
   -0.9248   -2.1797   -0.9689 C   0  0  0  0  0  0  0  0  0  0  0  0
   -0.3507   -2.4638   -0.0661 H   0  0  0  0  0  0  0  0  0  0  0  0
   -0.0944   -2.5045   -2.2266 C   0  0  0  0  0  0  0  0  0  0  0  0
    0.8627   -1.9463   -2.2012 H   0  0  0  0  0  0  0  0  0  0  0  0
    0.1650   -3.5845   -2.2271 H   0  0  0  0  0  0  0  0  0  0  0  0
   -0.8910   -2.1316   -3.4884 C   0  0  2  0  0  0  0  0  0  0  0  0
   -0.2896   -2.3674   -4.3917 H   0  0  0  0  0  0  0  0  0  0  0  0
   -1.1828   -0.6219   -3.4465 C   0  0  0  0  0  0  0  0  0  0  0  0
   -1.7312   -0.3038   -4.3593 H   0  0  0  0  0  0  0  0  0  0  0  0
   -0.2206   -0.0692   -3.4355 H   0  0  0  0  0  0  0  0  0  0  0  0
   -2.2160   -2.9171   -3.5254 C   0  0  0  0  0  0  0  0  0  0  0  0
   -2.7882   -2.6591   -4.4426 H   0  0  0  0  0  0  0  0  0  0  0  0
   -2.0117   -4.0085   -3.5681 H   0  0  0  0  0  0  0  0  0  0  0  0
   -0.1434    2.1575   -0.7460 C   0  0  0  0  0  0  0  0  0  0  0  0
   -0.2412    3.1699    0.2335 C   0  0  0  0  0  0  0  0  0  0  0  0
   -0.2578    2.8872    1.2974 H   0  0  0  0  0  0  0  0  0  0  0  0
   -0.3090    4.5194   -0.1368 C   0  0  0  0  0  0  0  0  0  0  0  0
   -0.3834    5.2955    0.6402 H   0  0  0  0  0  0  0  0  0  0  0  0
   -0.2858    4.8784   -1.4946 C   0  0  0  0  0  0  0  0  0  0  0  0
   -0.3480    5.9370   -1.7883 H   0  0  0  0  0  0  0  0  0  0  0  0
   -0.1671    3.8803   -2.4740 C   0  0  0  0  0  0  0  0  0  0  0  0
   -0.1307    4.1539   -3.5395 H   0  0  0  0  0  0  0  0  0  0  0  0
   -0.0824    2.5283   -2.1050 C   0  0  0  0  0  0  0  0  0  0  0  0
    0.0397    1.7627   -2.8827 H   0  0  0  0  0  0  0  0  0  0  0  0
   -3.2456    2.8263    2.3033 C   0  0  0  0  0  0  0  0  0  0  0  0
   -2.3565    3.4579    2.1140 H   0  0  0  0  0  0  0  0  0  0  0  0
   -3.0922    2.2896    3.2609 H   0  0  0  0  0  0  0  0  0  0  0  0
   -4.1213    3.4983    2.4254 H   0  0  0  0  0  0  0  0  0  0  0  0
   -3.7605    2.6007   -0.7455 C   0  0  0  0  0  0  0  0  0  0  0  0
   -4.5217    3.3943   -0.5885 H   0  0  0  0  0  0  0  0  0  0  0  0
   -4.1143    1.9518   -1.5709 H   0  0  0  0  0  0  0  0  0  0  0  0
   -2.8155    3.0864   -1.0562 H   0  0  0  0  0  0  0  0  0  0  0  0
   -5.2188    0.7388    1.2254 C   0  0  0  0  0  0  0  0  0  0  0  0
   -6.0495    1.4756    1.2019 H   0  0  0  0  0  0  0  0  0  0  0  0
   -5.2160    0.2647    2.2273 H   0  0  0  0  0  0  0  0  0  0  0  0
   -5.4397   -0.0474    0.4754 H   0  0  0  0  0  0  0  0  0  0  0  0
   -3.5581   -2.3686    2.8719 C   0  0  0  0  0  0  0  0  0  0  0  0
   -3.7926   -3.0050    1.9949 H   0  0  0  0  0  0  0  0  0  0  0  0
   -4.3829   -1.6390    2.9945 H   0  0  0  0  0  0  0  0  0  0  0  0
   -3.5448   -3.0211    3.7705 H   0  0  0  0  0  0  0  0  0  0  0  0
   -0.5244   -2.8405    2.5969 C   0  0  0  0  0  0  0  0  0  0  0  0
    0.4719   -2.4062    2.3895 H   0  0  0  0  0  0  0  0  0  0  0  0
   -0.7431   -3.5983    1.8190 H   0  0  0  0  0  0  0  0  0  0  0  0
   -0.4711   -3.3625    3.5755 H   0  0  0  0  0  0  0  0  0  0  0  0
   -1.5709   -0.4164    4.2106 C   0  0  0  0  0  0  0  0  0  0  0  0
   -1.6070   -1.0367    5.1312 H   0  0  0  0  0  0  0  0  0  0  0  0
   -2.3405    0.3760    4.3056 H   0  0  0  0  0  0  0  0  0  0  0  0
   -0.5740    0.0641    4.1614 H   0  0  0  0  0  0  0  0  0  0  0  0
  1 29  1  6  0  0  0
  1  2  1  0  0  0  0
  2  3  1  0  0  0  0
  2  4  1  0  0  0  0
  2 16  1  0  0  0  0
  3 48  1  0  0  0  0
  3 40  1  0  0  0  0
  4 52  1  0  0  0  0
  4 60  1  0  0  0  0
  5 16  1  1  0  0  0
  5  1  1  0  0  0  0
  5  2  1  0  0  0  0
  6  7  1  1  0  0  0
  6  5  1  0  0  0  0
  8  6  1  0  0  0  0
  8  9  1  0  0  0  0
 10  8  1  0  0  0  0
 11 12  1  6  0  0  0
 11  8  1  0  0  0  0
 11 13  1  0  0  0  0
 13 16  1  0  0  0  0
 13 15  1  0  0  0  0
 14 13  1  0  0  0  0
 16 17  1  0  0  0  0
 18 19  1  0  0  0  0
 18 16  1  0  0  0  0
 20 18  1  0  0  0  0
 21 22  1  6  0  0  0
 21 23  1  0  0  0  0
 21 18  1  0  0  0  0
 23 25  1  0  0  0  0
 23  6  1  0  0  0  0
 24 23  1  0  0  0  0
 26 21  1  0  0  0  0
 26 11  1  0  0  0  0
 27 26  1  0  0  0  0
 28 26  1  0  0  0  0
 29 30  1  0  0  0  0
 30 31  1  0  0  0  0
 32 30  2  0  0  0  0
 32 33  1  0  0  0  0
 34 32  1  0  0  0  0
 35 34  1  0  0  0  0
 36 38  1  0  0  0  0
 36 34  2  0  0  0  0
 37 36  1  0  0  0  0
 38 29  2  0  0  0  0
 39 38  1  0  0  0  0
 40 43  1  0  0  0  0
 40 42  1  0  0  0  0
 41 40  1  0  0  0  0
 44 45  1  0  0  0  0
 44  3  1  0  0  0  0
 46 44  1  0  0  0  0
 47 44  1  0  0  0  0
 48 50  1  0  0  0  0
 49 48  1  0  0  0  0
 51 48  1  0  0  0  0
 52 54  1  0  0  0  0
 52 55  1  0  0  0  0
 53 52  1  0  0  0  0
 56  4  1  0  0  0  0
 56 59  1  0  0  0  0
 57 56  1  0  0  0  0
 58 56  1  0  0  0  0
 60 62  1  0  0  0  0
 60 61  1  0  0  0  0
 63 60  1  0  0  0  0
M  ZBO  1   5   0
M  END
