1
q = 0.0, confidence = 1.0

 36 37  0  0  1  0  0  0  0  0999 V2000
    0.3889   -0.9957   -0.1293 P   0  0  1  0  0  0  0  0  0  0  0  0
    4.6751   -1.7563   -0.9068 F   0  0  0  0  0  0  0  0  0  0  0  0
    4.4223   -1.5384    1.2570 F   0  0  0  0  0  0  0  0  0  0  0  0
    3.7202    0.0329   -0.0867 F   0  0  0  0  0  0  0  0  0  0  0  0
    1.5973   -1.5644    0.9772 O   0  0  0  0  0  0  0  0  0  0  0  0
    2.4984   -2.0195   -0.0494 C   0  0  1  0  0  0  0  0  0  0  0  0
    2.7038   -3.1076    0.0580 H   0  0  0  0  0  0  0  0  0  0  0  0
    1.6919   -1.6547   -1.3101 C   0  0  0  0  0  0  0  0  0  0  0  0
    1.3892   -2.5106   -1.9371 H   0  0  0  0  0  0  0  0  0  0  0  0
    2.1439   -0.8696   -1.9427 H   0  0  0  0  0  0  0  0  0  0  0  0
    3.8454   -1.3053    0.0651 C   0  0  0  0  0  0  0  0  0  0  0  0
   -0.9302   -2.3459   -0.0280 C   0  0  1  0  0  0  0  0  0  0  0  0
   -1.7422   -2.0251    1.2123 C   0  0  0  0  0  0  0  0  0  0  0  0
   -2.9904   -1.6134    0.8119 C   0  0  0  0  0  0  0  0  0  0  0  0
   -3.0683   -1.6292   -0.6603 C   0  0  0  0  0  0  0  0  0  0  0  0
   -1.8704   -2.0555   -1.1835 C   0  0  0  0  0  0  0  0  0  0  0  0
   -0.3362   -3.7593   -0.0036 C   0  0  0  0  0  0  0  0  0  0  0  0
    0.1935   -4.0124   -0.9431 H   0  0  0  0  0  0  0  0  0  0  0  0
   -1.1592   -4.4912    0.1228 H   0  0  0  0  0  0  0  0  0  0  0  0
    0.3682   -3.8791    0.8425 H   0  0  0  0  0  0  0  0  0  0  0  0
   -1.2128   -2.2021    2.6010 C   0  0  0  0  0  0  0  0  0  0  0  0
   -1.8779   -1.7319    3.3496 H   0  0  0  0  0  0  0  0  0  0  0  0
   -0.2007   -1.7635    2.7178 H   0  0  0  0  0  0  0  0  0  0  0  0
   -1.1165   -3.2780    2.8683 H   0  0  0  0  0  0  0  0  0  0  0  0
   -4.1445   -1.2117    1.6753 C   0  0  0  0  0  0  0  0  0  0  0  0
   -5.0158   -1.8820    1.5147 H   0  0  0  0  0  0  0  0  0  0  0  0
   -4.4875   -0.1837    1.4348 H   0  0  0  0  0  0  0  0  0  0  0  0
   -3.8901   -1.2352    2.7508 H   0  0  0  0  0  0  0  0  0  0  0  0
   -4.3043   -1.2333   -1.4039 C   0  0  0  0  0  0  0  0  0  0  0  0
   -4.5576   -0.1687   -1.2169 H   0  0  0  0  0  0  0  0  0  0  0  0
   -5.1794   -1.8312   -1.0726 H   0  0  0  0  0  0  0  0  0  0  0  0
   -4.1953   -1.3564   -2.4974 H   0  0  0  0  0  0  0  0  0  0  0  0
   -1.4952   -2.2230   -2.6227 C   0  0  0  0  0  0  0  0  0  0  0  0
   -0.7803   -1.4440   -2.9704 H   0  0  0  0  0  0  0  0  0  0  0  0
   -2.3832   -2.1507   -3.2790 H   0  0  0  0  0  0  0  0  0  0  0  0
   -1.0163   -3.2069   -2.8175 H   0  0  0  0  0  0  0  0  0  0  0  0
  1 12  1  0  0  0  0
  1  5  1  1  0  0  0
  2 11  1  0  0  0  0
  4 11  1  0  0  0  0
  6  7  1  1  0  0  0
  6 11  1  0  0  0  0
  6  5  1  0  0  0  0
  8  1  1  0  0  0  0
  8  6  1  0  0  0  0
  9  8  1  0  0  0  0
 10  8  1  0  0  0  0
 11  3  1  0  0  0  0
 12 17  1  6  0  0  0
 12 13  1  0  0  0  0
 13 21  1  0  0  0  0
 14 13  2  0  0  0  0
 14 25  1  0  0  0  0
 15 14  1  0  0  0  0
 16 15  2  0  0  0  0
 16 12  1  0  0  0  0
 17 19  1  0  0  0  0
 17 20  1  0  0  0  0
 18 17  1  0  0  0  0
 21 23  1  0  0  0  0
 21 24  1  0  0  0  0
 21 22  1  0  0  0  0
 25 28  1  0  0  0  0
 26 25  1  0  0  0  0
 27 25  1  0  0  0  0
 29 30  1  0  0  0  0
 29 31  1  0  0  0  0
 29 15  1  0  0  0  0
 32 29  1  0  0  0  0
 33 16  1  0  0  0  0
 34 33  1  0  0  0  0
 35 33  1  0  0  0  0
 36 33  1  0  0  0  0
M  END
