1
q = 0.0, confidence = 1.0

 39 40  0  0  0  0  0  0  0  0999 V2000
    1.1229   -0.2863    0.0929 P   0  0  0  0  0  0  0  0  0  0  0  0
    1.2095    1.1228   -2.3385 C   0  0  0  0  0  0  0  0  0  0  0  0
    0.1323    0.9012   -2.3835 H   0  0  0  0  0  0  0  0  0  0  0  0
    1.9494    0.7153   -1.2103 C   0  0  0  0  0  0  0  0  0  0  0  0
    1.8340    1.8367   -3.3704 C   0  0  0  0  0  0  0  0  0  0  0  0
    1.2479    2.1564   -4.2451 H   0  0  0  0  0  0  0  0  0  0  0  0
    3.1986    2.1559   -3.2791 C   0  0  0  0  0  0  0  0  0  0  0  0
    3.6869    2.7225   -4.0866 H   0  0  0  0  0  0  0  0  0  0  0  0
    3.3164    1.0448   -1.1176 C   0  0  0  0  0  0  0  0  0  0  0  0
    3.8948    0.7441   -0.2312 H   0  0  0  0  0  0  0  0  0  0  0  0
    3.9372    1.7621   -2.1518 C   0  0  0  0  0  0  0  0  0  0  0  0
    5.0047    2.0183   -2.0733 H   0  0  0  0  0  0  0  0  0  0  0  0
    2.0597    0.0709    1.6311 C   0  0  0  0  0  0  0  0  0  0  0  0
    1.6149   -1.8767   -0.3171 N   0  0  0  0  0  0  0  0  0  0  0  0
    1.0215   -2.5356    0.2180 H   0  0  0  0  0  0  0  0  0  0  0  0
    1.8714   -2.3276   -1.6855 C   0  0  0  0  0  0  0  0  0  0  0  0
    2.3211   -3.3373   -1.5963 H   0  0  0  0  0  0  0  0  0  0  0  0
    2.6386   -1.6706   -2.1431 H   0  0  0  0  0  0  0  0  0  0  0  0
    1.6194    1.1087    2.4764 C   0  0  0  0  0  0  0  0  0  0  0  0
    0.7004    1.6618    2.2256 H   0  0  0  0  0  0  0  0  0  0  0  0
    0.6485   -2.4218   -2.6135 C   0  0  0  0  0  0  0  0  0  0  0  0
    0.2936   -1.4068   -2.8897 H   0  0  0  0  0  0  0  0  0  0  0  0
    0.9690   -2.9175   -3.5552 H   0  0  0  0  0  0  0  0  0  0  0  0
    3.2014   -0.6783    1.9730 C   0  0  0  0  0  0  0  0  0  0  0  0
    3.5028   -1.5108    1.3190 H   0  0  0  0  0  0  0  0  0  0  0  0
    2.3384    1.4141    3.6406 C   0  0  0  0  0  0  0  0  0  0  0  0
    1.9924    2.2249    4.2995 H   0  0  0  0  0  0  0  0  0  0  0  0
   -0.0526   -4.4252   -1.5125 O   0  0  0  0  0  0  0  0  0  0  0  0
    3.4868    0.6764    3.9738 C   0  0  0  0  0  0  0  0  0  0  0  0
    4.0444    0.9118    4.8933 H   0  0  0  0  0  0  0  0  0  0  0  0
    3.9129   -0.3726    3.1433 C   0  0  0  0  0  0  0  0  0  0  0  0
    4.8019   -0.9633    3.4128 H   0  0  0  0  0  0  0  0  0  0  0  0
   -0.5187   -3.1794   -1.9951 C   0  0  0  0  0  0  0  0  0  0  0  0
   -0.9576   -2.5833   -1.1566 H   0  0  0  0  0  0  0  0  0  0  0  0
   -1.3309   -3.3244   -2.7535 H   0  0  0  0  0  0  0  0  0  0  0  0
   -1.0421   -5.1363   -0.8000 C   0  0  0  0  0  0  0  0  0  0  0  0
   -1.3982   -4.5614    0.0865 H   0  0  0  0  0  0  0  0  0  0  0  0
   -0.5893   -6.0873   -0.4566 H   0  0  0  0  0  0  0  0  0  0  0  0
   -1.9238   -5.3794   -1.4444 H   0  0  0  0  0  0  0  0  0  0  0  0
  1 13  1  0  0  0  0
  2  4  1  0  0  0  0
  3  2  1  0  0  0  0
  4  9  2  0  0  0  0
  4  1  1  0  0  0  0
  5  7  1  0  0  0  0
  5  2  2  0  0  0  0
  6  5  1  0  0  0  0
  7 11  2  0  0  0  0
  8  7  1  0  0  0  0
  9 10  1  0  0  0  0
 11 12  1  0  0  0  0
 11  9  1  0  0  0  0
 13 24  2  0  0  0  0
 13 19  1  0  0  0  0
 14  1  1  0  0  0  0
 14 15  1  0  0  0  0
 16 17  1  0  0  0  0
 16 14  1  0  0  0  0
 18 16  1  0  0  0  0
 19 26  2  0  0  0  0
 20 19  1  0  0  0  0
 21 33  1  0  0  0  0
 21 16  1  0  0  0  0
 22 21  1  0  0  0  0
 23 21  1  0  0  0  0
 24 31  1  0  0  0  0
 25 24  1  0  0  0  0
 26 29  1  0  0  0  0
 26 27  1  0  0  0  0
 28 36  1  0  0  0  0
 29 30  1  0  0  0  0
 31 32  1  0  0  0  0
 31 29  2  0  0  0  0
 33 28  1  0  0  0  0
 33 34  1  0  0  0  0
 35 33  1  0  0  0  0
 36 38  1  0  0  0  0
 36 37  1  0  0  0  0
 39 36  1  0  0  0  0
M  END
