1
q = 0.0, confidence = 0.998

 40 41  0  0  0  0  0  0  0  0999 V2000
    2.1616    0.8315   -0.2398 P   0  0  0  0  0  0  0  0  0  0  0  0
    2.9233    0.0718   -1.5460 N   0  0  0  0  0  0  0  0  0  0  0  0
    2.2689   -0.5929   -1.9908 H   0  0  0  0  0  0  0  0  0  0  0  0
    4.3374   -0.1955   -1.7111 C   0  0  0  0  0  0  0  0  0  0  0  0
    4.5164   -0.4996   -2.7640 H   0  0  0  0  0  0  0  0  0  0  0  0
    4.9320    0.7288   -1.5539 H   0  0  0  0  0  0  0  0  0  0  0  0
    4.9273   -1.2985   -0.8004 C   0  0  0  0  0  0  0  0  0  0  0  0
    4.0708   -2.3933   -0.5633 O   0  0  0  0  0  0  0  0  0  0  0  0
    3.6189   -3.0970   -1.7146 C   0  0  0  0  0  0  0  0  0  0  0  0
    3.3482   -4.1191   -1.3844 H   0  0  0  0  0  0  0  0  0  0  0  0
    2.7075   -2.6345   -2.1556 H   0  0  0  0  0  0  0  0  0  0  0  0
    4.4157   -3.1736   -2.4859 H   0  0  0  0  0  0  0  0  0  0  0  0
    6.1422   -1.6677   -1.4130 O   0  0  0  0  0  0  0  0  0  0  0  0
    6.9859   -2.4315   -0.5699 C   0  0  0  0  0  0  0  0  0  0  0  0
    7.8908   -2.6915   -1.1520 H   0  0  0  0  0  0  0  0  0  0  0  0
    7.2909   -1.8532    0.3346 H   0  0  0  0  0  0  0  0  0  0  0  0
    6.4893   -3.3665   -0.2281 H   0  0  0  0  0  0  0  0  0  0  0  0
    5.1193   -0.9042    0.2220 H   0  0  0  0  0  0  0  0  0  0  0  0
    2.2656    2.6298   -0.5855 C   0  0  0  0  0  0  0  0  0  0  0  0
    1.9191    3.5734    0.4059 C   0  0  0  0  0  0  0  0  0  0  0  0
    1.5974    3.2261    1.3992 H   0  0  0  0  0  0  0  0  0  0  0  0
    1.9640    4.9422    0.1085 C   0  0  0  0  0  0  0  0  0  0  0  0
    1.6938    5.6759    0.8834 H   0  0  0  0  0  0  0  0  0  0  0  0
    2.3456    5.3788   -1.1719 C   0  0  0  0  0  0  0  0  0  0  0  0
    2.3791    6.4553   -1.3996 H   0  0  0  0  0  0  0  0  0  0  0  0
    2.6769    4.4402   -2.1615 C   0  0  0  0  0  0  0  0  0  0  0  0
    2.9698    4.7775   -3.1676 H   0  0  0  0  0  0  0  0  0  0  0  0
    2.6331    3.0676   -1.8727 C   0  0  0  0  0  0  0  0  0  0  0  0
    2.8775    2.3160   -2.6389 H   0  0  0  0  0  0  0  0  0  0  0  0
    3.2121    0.5776    1.2396 C   0  0  0  0  0  0  0  0  0  0  0  0
    2.9907   -0.5759    2.0198 C   0  0  0  0  0  0  0  0  0  0  0  0
    2.1408   -1.2342    1.7844 H   0  0  0  0  0  0  0  0  0  0  0  0
    3.8573   -0.8812    3.0768 C   0  0  0  0  0  0  0  0  0  0  0  0
    3.6836   -1.7840    3.6812 H   0  0  0  0  0  0  0  0  0  0  0  0
    4.9438   -0.0373    3.3646 C   0  0  0  0  0  0  0  0  0  0  0  0
    5.6236   -0.2799    4.1957 H   0  0  0  0  0  0  0  0  0  0  0  0
    5.1568    1.1211    2.5999 C   0  0  0  0  0  0  0  0  0  0  0  0
    6.0016    1.7880    2.8299 H   0  0  0  0  0  0  0  0  0  0  0  0
    4.2913    1.4323    1.5398 C   0  0  0  0  0  0  0  0  0  0  0  0
    4.4574    2.3398    0.9397 H   0  0  0  0  0  0  0  0  0  0  0  0
  1 30  1  0  0  0  0
  2  1  1  0  0  0  0
  3  2  1  0  0  0  0
  4  6  1  0  0  0  0
  4  2  1  0  0  0  0
  4  7  1  0  0  0  0
  5  4  1  0  0  0  0
  7  8  1  0  0  0  0
  7 18  1  0  0  0  0
  9 10  1  0  0  0  0
  9  8  1  0  0  0  0
 11  9  1  0  0  0  0
 12  9  1  0  0  0  0
 13  7  1  0  0  0  0
 13 14  1  0  0  0  0
 14 17  1  0  0  0  0
 14 16  1  0  0  0  0
 15 14  1  0  0  0  0
 19  1  1  0  0  0  0
 19 20  1  0  0  0  0
 20 21  1  0  0  0  0
 22 20  2  0  0  0  0
 22 23  1  0  0  0  0
 24 22  1  0  0  0  0
 25 24  1  0  0  0  0
 26 28  1  0  0  0  0
 26 24  2  0  0  0  0
 27 26  1  0  0  0  0
 28 19  2  0  0  0  0
 29 28  1  0  0  0  0
 30 39  2  0  0  0  0
 30 31  1  0  0  0  0
 31 33  2  0  0  0  0
 32 31  1  0  0  0  0
 33 35  1  0  0  0  0
 33 34  1  0  0  0  0
 35 36  1  0  0  0  0
 37 38  1  0  0  0  0
 37 35  2  0  0  0  0
 39 37  1  0  0  0  0
 40 39  1  0  0  0  0
M  END
