1
q = 0.0, confidence = 0.992

 67 72  0  0  0  0  0  0  0  0999 V2000
   -2.0958    0.1307    0.0057 P   0  0  0  0  0  0  0  0  0  0  0  0
    0.7172    2.0641    1.5957 C   0  0  0  0  0  0  0  0  0  0  0  0
    0.0776    3.2700    1.2626 C   0  0  0  0  0  0  0  0  0  0  0  0
   -1.0101    3.2953    1.1063 H   0  0  0  0  0  0  0  0  0  0  0  0
    0.8091    4.4795    1.1401 C   0  0  0  0  0  0  0  0  0  0  0  0
    0.2656    5.4014    0.8835 H   0  0  0  0  0  0  0  0  0  0  0  0
    2.1803    4.5091    1.3293 C   0  0  0  0  0  0  0  0  0  0  0  0
    2.7461    5.4470    1.2281 H   0  0  0  0  0  0  0  0  0  0  0  0
    2.8779    3.3078    1.6583 C   0  0  0  0  0  0  0  0  0  0  0  0
    4.2911    3.2995    1.8436 C   0  0  0  0  0  0  0  0  0  0  0  0
    4.8357    4.2512    1.7407 H   0  0  0  0  0  0  0  0  0  0  0  0
    4.9739    2.1284    2.1376 C   0  0  0  0  0  0  0  0  0  0  0  0
    6.0665    2.1432    2.2683 H   0  0  0  0  0  0  0  0  0  0  0  0
    4.2621    0.9113    2.2775 C   0  0  0  0  0  0  0  0  0  0  0  0
    4.7964   -0.0208    2.5131 H   0  0  0  0  0  0  0  0  0  0  0  0
    2.8823    0.8884    2.1207 C   0  0  0  0  0  0  0  0  0  0  0  0
    2.3613   -0.0693    2.2619 H   0  0  0  0  0  0  0  0  0  0  0  0
    2.1549    2.0669    1.7948 C   0  0  0  0  0  0  0  0  0  0  0  0
    0.0310    0.8747    1.7495 N   0  0  0  0  0  0  0  0  0  0  0  0
    0.5531    0.0071    1.5970 H   0  0  0  0  0  0  0  0  0  0  0  0
   -1.3897    0.7217    1.6480 C   0  0  0  0  0  0  0  0  0  0  0  0
   -1.9155    1.6566    1.9222 H   0  0  0  0  0  0  0  0  0  0  0  0
   -1.7474   -0.0479    2.3670 H   0  0  0  0  0  0  0  0  0  0  0  0
    0.8573    0.6553   -2.1726 C   0  0  0  0  0  0  0  0  0  0  0  0
    0.4227   -0.5002   -2.8435 C   0  0  0  0  0  0  0  0  0  0  0  0
   -0.6446   -0.7605   -2.8603 H   0  0  0  0  0  0  0  0  0  0  0  0
    1.3383   -1.3446   -3.5216 C   0  0  0  0  0  0  0  0  0  0  0  0
    0.9530   -2.2414   -4.0292 H   0  0  0  0  0  0  0  0  0  0  0  0
    2.6930   -1.0645   -3.5338 C   0  0  0  0  0  0  0  0  0  0  0  0
    3.4052   -1.7320   -4.0400 H   0  0  0  0  0  0  0  0  0  0  0  0
    3.1829    0.1029   -2.8764 C   0  0  0  0  0  0  0  0  0  0  0  0
    4.5741    0.4159   -2.8668 C   0  0  0  0  0  0  0  0  0  0  0  0
    5.2647   -0.2693   -3.3824 H   0  0  0  0  0  0  0  0  0  0  0  0
    5.0538    1.5506   -2.2293 C   0  0  0  0  0  0  0  0  0  0  0  0
    6.1315    1.7733   -2.2325 H   0  0  0  0  0  0  0  0  0  0  0  0
    4.1528    2.4301   -1.5789 C   0  0  0  0  0  0  0  0  0  0  0  0
    4.5268    3.3340   -1.0779 H   0  0  0  0  0  0  0  0  0  0  0  0
    2.7923    2.1534   -1.5649 C   0  0  0  0  0  0  0  0  0  0  0  0
    2.1277    2.8677   -1.0573 H   0  0  0  0  0  0  0  0  0  0  0  0
    2.2696    0.9881   -2.1936 C   0  0  0  0  0  0  0  0  0  0  0  0
   -0.0184    1.4815   -1.4952 N   0  0  0  0  0  0  0  0  0  0  0  0
    0.3788    2.1802   -0.8608 H   0  0  0  0  0  0  0  0  0  0  0  0
   -1.4214    1.2554   -1.3610 C   0  0  0  0  0  0  0  0  0  0  0  0
   -1.8659    0.8681   -2.3017 H   0  0  0  0  0  0  0  0  0  0  0  0
   -1.9388    2.2166   -1.1602 H   0  0  0  0  0  0  0  0  0  0  0  0
    0.6581   -2.8430    0.5631 C   0  0  0  0  0  0  0  0  0  0  0  0
   -0.0647   -3.9178    1.0859 C   0  0  0  0  0  0  0  0  0  0  0  0
   -1.1631   -3.9073    1.0795 H   0  0  0  0  0  0  0  0  0  0  0  0
    0.5972   -5.0511    1.6239 C   0  0  0  0  0  0  0  0  0  0  0  0
   -0.0096   -5.8747    2.0295 H   0  0  0  0  0  0  0  0  0  0  0  0
    1.9784   -5.1365    1.6282 C   0  0  0  0  0  0  0  0  0  0  0  0
    2.4902   -6.0197    2.0385 H   0  0  0  0  0  0  0  0  0  0  0  0
    2.7590   -4.0713    1.0886 C   0  0  0  0  0  0  0  0  0  0  0  0
    4.1835   -4.1285    1.0668 C   0  0  0  0  0  0  0  0  0  0  0  0
    4.6753   -5.0245    1.4767 H   0  0  0  0  0  0  0  0  0  0  0  0
    4.9400   -3.0892    0.5440 C   0  0  0  0  0  0  0  0  0  0  0  0
    6.0386   -3.1559    0.5349 H   0  0  0  0  0  0  0  0  0  0  0  0
    4.2966   -1.9388    0.0226 C   0  0  0  0  0  0  0  0  0  0  0  0
    4.8851   -1.1052   -0.3884 H   0  0  0  0  0  0  0  0  0  0  0  0
    2.9104   -1.8511    0.0303 C   0  0  0  0  0  0  0  0  0  0  0  0
    2.4509   -0.9373   -0.3709 H   0  0  0  0  0  0  0  0  0  0  0  0
    2.1042   -2.9027    0.5512 C   0  0  0  0  0  0  0  0  0  0  0  0
    0.0487   -1.6702    0.0815 N   0  0  0  0  0  0  0  0  0  0  0  0
    0.5592   -1.2498   -0.7084 H   0  0  0  0  0  0  0  0  0  0  0  0
   -1.3815   -1.5880   -0.1017 C   0  0  0  0  0  0  0  0  0  0  0  0
   -1.9008   -2.0995    0.7341 H   0  0  0  0  0  0  0  0  0  0  0  0
   -1.7643   -2.0667   -1.0354 H   0  0  0  0  0  0  0  0  0  0  0  0
  1 21  1  0  0  0  0
  2 19  1  0  0  0  0
  2 18  1  0  0  0  0
  3  2  2  0  0  0  0
  4  3  1  0  0  0  0
  5  3  1  0  0  0  0
  5  7  2  0  0  0  0
  6  5  1  0  0  0  0
  7  9  1  0  0  0  0
  8  7  1  0  0  0  0
  9 18  2  0  0  0  0
  9 10  1  0  0  0  0
 10 12  2  0  0  0  0
 11 10  1  0  0  0  0
 12 13  1  0  0  0  0
 12 14  1  0  0  0  0
 14 15  1  0  0  0  0
 16 17  1  0  0  0  0
 16 14  2  0  0  0  0
 18 16  1  0  0  0  0
 20 19  1  0  0  0  0
 21 19  1  0  0  0  0
 21 22  1  0  0  0  0
 21 23  1  0  0  0  0
 24 41  1  0  0  0  0
 25 24  2  0  0  0  0
 26 25  1  0  0  0  0
 27 25  1  0  0  0  0
 28 27  1  0  0  0  0
 29 27  2  0  0  0  0
 29 31  1  0  0  0  0
 30 29  1  0  0  0  0
 31 32  2  0  0  0  0
 31 40  1  0  0  0  0
 32 34  1  0  0  0  0
 33 32  1  0  0  0  0
 34 36  2  0  0  0  0
 35 34  1  0  0  0  0
 36 38  1  0  0  0  0
 36 37  1  0  0  0  0
 38 39  1  0  0  0  0
 40 24  1  0  0  0  0
 40 38  2  0  0  0  0
 41 43  1  0  0  0  0
 41 42  1  0  0  0  0
 43 45  1  0  0  0  0
 43  1  1  0  0  0  0
 44 43  1  0  0  0  0
 46 47  1  0  0  0  0
 47 49  2  0  0  0  0
 48 47  1  0  0  0  0
 49 51  1  0  0  0  0
 49 50  1  0  0  0  0
 51 52  1  0  0  0  0
 53 51  2  0  0  0  0
 54 53  1  0  0  0  0
 54 55  1  0  0  0  0
 56 54  2  0  0  0  0
 57 56  1  0  0  0  0
 58 60  2  0  0  0  0
 58 56  1  0  0  0  0
 59 58  1  0  0  0  0
 60 62  1  0  0  0  0
 61 60  1  0  0  0  0
 62 46  2  0  0  0  0
 62 53  1  0  0  0  0
 63 46  1  0  0  0  0
 64 63  1  0  0  0  0
 65  1  1  0  0  0  0
 65 63  1  0  0  0  0
 65 66  1  0  0  0  0
 67 65  1  0  0  0  0
M  END
