1
q = 0.0, confidence = 0.998

 35 35  0  0  0  0  0  0  0  0999 V2000
   -0.0000    0.8210    0.0000 P   0  0  0  0  0  0  0  0  0  0  0  0
    3.1418    0.9939   -0.0000 Si  0  0  0  0  0  0  0  0  0  0  0  0
   -3.1418    0.9938   -0.0000 Si  0  0  0  0  0  0  0  0  0  0  0  0
    1.4168    1.8263    0.0001 C   0  0  0  0  0  0  0  0  0  0  0  0
    1.2414    3.2251    0.0001 C   0  0  0  0  0  0  0  0  0  0  0  0
   -0.0001    3.8858    0.0001 C   0  0  0  0  0  0  0  0  0  0  0  0
   -1.2415    3.2251    0.0001 C   0  0  0  0  0  0  0  0  0  0  0  0
   -1.4169    1.8263    0.0000 C   0  0  0  0  0  0  0  0  0  0  0  0
    3.2918   -0.0709   -1.5515 C   0  0  0  0  0  0  0  0  0  0  0  0
    3.2921   -0.0712    1.5511 C   0  0  0  0  0  0  0  0  0  0  0  0
    4.4446    2.3640    0.0000 C   0  0  0  0  0  0  0  0  0  0  0  0
   -3.2920   -0.0712    1.5513 C   0  0  0  0  0  0  0  0  0  0  0  0
   -3.2918   -0.0711   -1.5514 C   0  0  0  0  0  0  0  0  0  0  0  0
   -4.4447    2.3638   -0.0001 C   0  0  0  0  0  0  0  0  0  0  0  0
    2.1466    3.8564    0.0001 H   0  0  0  0  0  0  0  0  0  0  0  0
   -0.0001    4.9868    0.0002 H   0  0  0  0  0  0  0  0  0  0  0  0
   -2.1467    3.8564    0.0001 H   0  0  0  0  0  0  0  0  0  0  0  0
    4.2884   -0.5567   -1.5941 H   0  0  0  0  0  0  0  0  0  0  0  0
    2.5236   -0.8722   -1.5507 H   0  0  0  0  0  0  0  0  0  0  0  0
    3.1603    0.5338   -2.4715 H   0  0  0  0  0  0  0  0  0  0  0  0
    4.2882   -0.5581    1.5926 H   0  0  0  0  0  0  0  0  0  0  0  0
    3.1623    0.5335    2.4714 H   0  0  0  0  0  0  0  0  0  0  0  0
    2.5231   -0.8716    1.5511 H   0  0  0  0  0  0  0  0  0  0  0  0
    5.4577    1.9116    0.0004 H   0  0  0  0  0  0  0  0  0  0  0  0
    4.3679    3.0082   -0.8996 H   0  0  0  0  0  0  0  0  0  0  0  0
    4.3674    3.0086    0.8994 H   0  0  0  0  0  0  0  0  0  0  0  0
   -4.2883   -0.5576    1.5932 H   0  0  0  0  0  0  0  0  0  0  0  0
   -2.5233   -0.8719    1.5509 H   0  0  0  0  0  0  0  0  0  0  0  0
   -3.1614    0.5335    2.4714 H   0  0  0  0  0  0  0  0  0  0  0  0
   -4.2881   -0.5576   -1.5934 H   0  0  0  0  0  0  0  0  0  0  0  0
   -3.1613    0.5336   -2.4715 H   0  0  0  0  0  0  0  0  0  0  0  0
   -2.5231   -0.8719   -1.5510 H   0  0  0  0  0  0  0  0  0  0  0  0
   -5.4578    1.9114   -0.0002 H   0  0  0  0  0  0  0  0  0  0  0  0
   -4.3679    3.0082    0.8995 H   0  0  0  0  0  0  0  0  0  0  0  0
   -4.3677    3.0083   -0.8995 H   0  0  0  0  0  0  0  0  0  0  0  0
  1  8  1  0  0  0  0
  1  4  2  0  0  0  0
  2 11  1  0  0  0  0
  2  4  1  0  0  0  0
  2 10  1  0  0  0  0
  3  8  1  0  0  0  0
  3 12  1  0  0  0  0
  4  5  1  0  0  0  0
  5  6  2  0  0  0  0
  5 15  1  0  0  0  0
  6 16  1  0  0  0  0
  7 17  1  0  0  0  0
  7  6  1  0  0  0  0
  8  7  2  0  0  0  0
  9 19  1  0  0  0  0
  9  2  1  0  0  0  0
 10 21  1  0  0  0  0
 10 22  1  0  0  0  0
 11 24  1  0  0  0  0
 11 26  1  0  0  0  0
 12 27  1  0  0  0  0
 12 29  1  0  0  0  0
 13 32  1  0  0  0  0
 13  3  1  0  0  0  0
 14  3  1  0  0  0  0
 14 34  1  0  0  0  0
 18  9  1  0  0  0  0
 20  9  1  0  0  0  0
 23 10  1  0  0  0  0
 25 11  1  0  0  0  0
 28 12  1  0  0  0  0
 30 13  1  0  0  0  0
 31 13  1  0  0  0  0
 33 14  1  0  0  0  0
 35 14  1  0  0  0  0
M  END
