1
q = 0.0, confidence = 1.0

 27 28  0  0  1  0  0  0  0  0999 V2000
    2.1567   -0.9974    0.9671 P   0  0  2  0  0  0  0  0  0  0  0  0
    2.4839   -2.3750    2.1461 C   0  0  0  0  0  0  0  0  0  0  0  0
    2.2061   -2.0594    3.1711 H   0  0  0  0  0  0  0  0  0  0  0  0
    3.5533   -2.6695    2.1333 H   0  0  0  0  0  0  0  0  0  0  0  0
    1.8632   -3.2531    1.8790 H   0  0  0  0  0  0  0  0  0  0  0  0
    2.9271   -1.5933   -0.6694 C   0  0  0  0  0  0  0  0  0  0  0  0
    3.7437   -2.2992   -0.4043 H   0  0  0  0  0  0  0  0  0  0  0  0
    2.1646   -2.1641   -1.2361 H   0  0  0  0  0  0  0  0  0  0  0  0
    3.4710    0.3104    1.3994 C   0  0  0  0  0  0  0  0  0  0  0  0
    3.0614    0.9786    2.1830 H   0  0  0  0  0  0  0  0  0  0  0  0
    4.3381   -0.2297    1.8375 H   0  0  0  0  0  0  0  0  0  0  0  0
    3.4730   -0.5295   -1.4900 N   0  0  2  0  0  0  0  0  0  0  0  0
    3.9245    1.0843    0.2606 N   0  0  1  0  0  0  0  0  0  0  0  0
    1.8893    1.2742   -1.0708 N   0  0  0  0  0  0  0  0  0  0  0  0
    4.4998    0.2473   -0.7926 C   0  0  0  0  0  0  0  0  0  0  0  0
    5.0050    0.9040   -1.5297 H   0  0  0  0  0  0  0  0  0  0  0  0
    5.2552   -0.4366   -0.3572 H   0  0  0  0  0  0  0  0  0  0  0  0
    2.9516    1.9865   -0.3164 C   0  0  0  0  0  0  0  0  0  0  0  0
    3.4990    2.6902   -0.9949 H   0  0  0  0  0  0  0  0  0  0  0  0
    2.4693    2.5905    0.4800 H   0  0  0  0  0  0  0  0  0  0  0  0
    2.5056    0.3738   -2.0742 C   0  0  0  0  0  0  0  0  0  0  0  0
    1.6968   -0.2002   -2.5736 H   0  0  0  0  0  0  0  0  0  0  0  0
    3.0309    0.9720   -2.8627 H   0  0  0  0  0  0  0  0  0  0  0  0
    0.9639    2.2109   -1.6946 C   0  0  0  0  0  0  0  0  0  0  0  0
    0.4837    2.8432   -0.9206 H   0  0  0  0  0  0  0  0  0  0  0  0
    0.1686    1.6555   -2.2317 H   0  0  0  0  0  0  0  0  0  0  0  0
    1.4629    2.8887   -2.4322 H   0  0  0  0  0  0  0  0  0  0  0  0
  1  9  1  0  0  0  0
  1  2  1  1  0  0  0
  2  3  1  0  0  0  0
  4  2  1  0  0  0  0
  5  2  1  0  0  0  0
  6  7  1  0  0  0  0
  6  1  1  0  0  0  0
  8  6  1  0  0  0  0
  9 11  1  0  0  0  0
  9 10  1  0  0  0  0
 12 21  1  1  0  0  0
 12 15  1  0  0  0  0
 12  6  1  0  0  0  0
 13 15  1  6  0  0  0
 13  9  1  0  0  0  0
 14 18  1  0  0  0  0
 15 17  1  0  0  0  0
 16 15  1  0  0  0  0
 18 13  1  0  0  0  0
 18 20  1  0  0  0  0
 19 18  1  0  0  0  0
 21 14  1  0  0  0  0
 22 21  1  0  0  0  0
 23 21  1  0  0  0  0
 24 14  1  0  0  0  0
 24 25  1  0  0  0  0
 26 24  1  0  0  0  0
 27 24  1  0  0  0  0
M  END
