1
q = 0.0, confidence = 0.998

 37 38  0  0  0  0  0  0  0  0999 V2000
   -0.4882    0.2653    0.5595 P   0  0  0  0  0  0  0  0  0  0  0  0
   -0.8760    0.2292    2.1871 O   0  0  0  0  0  0  0  0  0  0  0  0
   -0.3119   -0.4330    2.6300 H   0  0  0  0  0  0  0  0  0  0  0  0
   -2.0948   -0.1661   -0.2455 C   0  0  0  0  0  0  0  0  0  0  0  0
   -1.8926   -0.0686   -1.3374 H   0  0  0  0  0  0  0  0  0  0  0  0
   -2.4319   -1.6397    0.0606 C   0  0  0  0  0  0  0  0  0  0  0  0
   -1.6041   -2.2947   -0.2848 H   0  0  0  0  0  0  0  0  0  0  0  0
   -2.4942   -1.7620    1.1647 H   0  0  0  0  0  0  0  0  0  0  0  0
   -3.7625   -2.0575   -0.5775 C   0  0  0  0  0  0  0  0  0  0  0  0
   -3.9931   -3.1088   -0.3072 H   0  0  0  0  0  0  0  0  0  0  0  0
   -3.6578   -2.0350   -1.6854 H   0  0  0  0  0  0  0  0  0  0  0  0
   -4.9050   -1.1258   -0.1564 C   0  0  0  0  0  0  0  0  0  0  0  0
   -5.8531   -1.4259   -0.6491 H   0  0  0  0  0  0  0  0  0  0  0  0
   -5.0747   -1.2271    0.9392 H   0  0  0  0  0  0  0  0  0  0  0  0
   -4.5738    0.3352   -0.4817 C   0  0  0  0  0  0  0  0  0  0  0  0
   -5.3899    1.0071   -0.1434 H   0  0  0  0  0  0  0  0  0  0  0  0
   -4.5051    0.4576   -1.5861 H   0  0  0  0  0  0  0  0  0  0  0  0
   -3.2461    0.7747    0.1540 C   0  0  0  0  0  0  0  0  0  0  0  0
   -3.3397    0.7671    1.2620 H   0  0  0  0  0  0  0  0  0  0  0  0
   -3.0165    1.8198   -0.1403 H   0  0  0  0  0  0  0  0  0  0  0  0
   -0.1873    2.0626    0.2819 C   0  0  0  0  0  0  0  0  0  0  0  0
   -1.0837    2.5900    0.6797 H   0  0  0  0  0  0  0  0  0  0  0  0
   -0.0325    2.3690   -1.2193 C   0  0  0  0  0  0  0  0  0  0  0  0
    0.7845    1.7343   -1.6316 H   0  0  0  0  0  0  0  0  0  0  0  0
   -0.9548    2.0943   -1.7731 H   0  0  0  0  0  0  0  0  0  0  0  0
    0.2985    3.8506   -1.4524 C   0  0  0  0  0  0  0  0  0  0  0  0
   -0.5756    4.4694   -1.1481 H   0  0  0  0  0  0  0  0  0  0  0  0
    0.4488    4.0333   -2.5366 H   0  0  0  0  0  0  0  0  0  0  0  0
    1.5316    4.2905   -0.6537 C   0  0  0  0  0  0  0  0  0  0  0  0
    2.4254    3.7462   -1.0326 H   0  0  0  0  0  0  0  0  0  0  0  0
    1.7303    5.3702   -0.8161 H   0  0  0  0  0  0  0  0  0  0  0  0
    1.3595    3.9947    0.8413 C   0  0  0  0  0  0  0  0  0  0  0  0
    0.5300    4.6163    1.2475 H   0  0  0  0  0  0  0  0  0  0  0  0
    2.2711    4.2831    1.4045 H   0  0  0  0  0  0  0  0  0  0  0  0
    1.0478    2.5129    1.0854 C   0  0  0  0  0  0  0  0  0  0  0  0
    0.8829    2.3124    2.1636 H   0  0  0  0  0  0  0  0  0  0  0  0
    1.9192    1.8923    0.7753 H   0  0  0  0  0  0  0  0  0  0  0  0
  1  2  1  0  0  0  0
  2  3  1  0  0  0  0
  4  6  1  0  0  0  0
  4 18  1  0  0  0  0
  4  1  1  0  0  0  0
  5  4  1  0  0  0  0
  6  8  1  0  0  0  0
  7  6  1  0  0  0  0
  9 10  1  0  0  0  0
  9 12  1  0  0  0  0
  9  6  1  0  0  0  0
 11  9  1  0  0  0  0
 12 14  1  0  0  0  0
 13 12  1  0  0  0  0
 15 12  1  0  0  0  0
 15 16  1  0  0  0  0
 15 18  1  0  0  0  0
 17 15  1  0  0  0  0
 18 19  1  0  0  0  0
 20 18  1  0  0  0  0
 21  1  1  0  0  0  0
 21 22  1  0  0  0  0
 21 35  1  0  0  0  0
 23 21  1  0  0  0  0
 24 23  1  0  0  0  0
 25 23  1  0  0  0  0
 26 23  1  0  0  0  0
 26 27  1  0  0  0  0
 26 29  1  0  0  0  0
 28 26  1  0  0  0  0
 29 32  1  0  0  0  0
 30 29  1  0  0  0  0
 31 29  1  0  0  0  0
 32 35  1  0  0  0  0
 32 33  1  0  0  0  0
 32 34  1  0  0  0  0
 35 36  1  0  0  0  0
 37 35  1  0  0  0  0
M  END
