1
q = 0.0, confidence = 1.0

 48 51  0  0  0  0  0  0  0  0999 V2000
   -2.1451   -1.7955   -1.0903 P   0  0  0  0  0  0  0  0  0  0  0  0
   -2.5179   -2.0396   -2.4554 H   0  0  0  0  0  0  0  0  0  0  0  0
    3.0966   -0.0754   -0.0963 P   0  0  0  0  0  4  0  0  0  0  0  0
   -2.5223   -3.4607   -0.3742 C   0  0  0  0  0  0  0  0  0  0  0  0
   -1.9444   -4.2530   -0.8879 H   0  0  0  0  0  0  0  0  0  0  0  0
   -3.6068   -3.6682   -0.4579 H   0  0  0  0  0  0  0  0  0  0  0  0
   -2.2426   -3.4429    0.6970 H   0  0  0  0  0  0  0  0  0  0  0  0
   -0.3507   -1.7057   -1.1519 C   0  0  0  0  0  0  0  0  0  0  0  0
    0.5537   -2.6393   -1.7705 C   0  0  0  0  0  0  0  0  0  0  0  0
    0.2627   -3.5300   -2.3440 H   0  0  0  0  0  0  0  0  0  0  0  0
    1.8626   -2.2031   -1.5524 C   0  0  0  0  0  0  0  0  0  0  0  0
    2.7830   -2.6802   -1.9123 H   0  0  0  0  0  0  0  0  0  0  0  0
    1.7855   -0.9777   -0.7979 C   0  0  0  0  0  0  0  0  0  0  0  0
    0.4082   -0.6813   -0.5497 C   0  0  0  0  0  3  0  0  0  0  0  0
    0.0178    0.1860   -0.0067 H   0  0  0  0  0  0  0  0  0  0  0  0
    3.3449   -0.3911    1.6920 C   0  0  0  0  0  0  0  0  0  0  0  0
    4.6154   -0.2847    2.2944 C   0  0  0  0  0  0  0  0  0  0  0  0
    5.5022   -0.0577    1.6827 H   0  0  0  0  0  0  0  0  0  0  0  0
    4.7477   -0.4827    3.6774 C   0  0  0  0  0  0  0  0  0  0  0  0
    5.7398   -0.4065    4.1475 H   0  0  0  0  0  0  0  0  0  0  0  0
    3.6182   -0.7793    4.4576 C   0  0  0  0  0  0  0  0  0  0  0  0
    3.7257   -0.9327    5.5421 H   0  0  0  0  0  0  0  0  0  0  0  0
    2.3538   -0.8862    3.8552 C   0  0  0  0  0  0  0  0  0  0  0  0
    1.4653   -1.1193    4.4609 H   0  0  0  0  0  0  0  0  0  0  0  0
    2.2129   -0.6992    2.4731 C   0  0  0  0  0  0  0  0  0  0  0  0
    1.2243   -0.7974    1.9982 H   0  0  0  0  0  0  0  0  0  0  0  0
    4.6685   -0.4816   -0.9174 C   0  0  0  0  0  0  0  0  0  0  0  0
    5.2804    0.4308   -1.7978 C   0  0  0  0  0  0  0  0  0  0  0  0
    4.8312    1.4220   -1.9611 H   0  0  0  0  0  0  0  0  0  0  0  0
    6.4614    0.0691   -2.4632 C   0  0  0  0  0  0  0  0  0  0  0  0
    6.9405    0.7830   -3.1499 H   0  0  0  0  0  0  0  0  0  0  0  0
    7.0283   -1.1981   -2.2550 C   0  0  0  0  0  0  0  0  0  0  0  0
    7.9542   -1.4787   -2.7793 H   0  0  0  0  0  0  0  0  0  0  0  0
    6.4169   -2.1088   -1.3772 C   0  0  0  0  0  0  0  0  0  0  0  0
    6.8608   -3.1022   -1.2138 H   0  0  0  0  0  0  0  0  0  0  0  0
    5.2392   -1.7547   -0.7044 C   0  0  0  0  0  0  0  0  0  0  0  0
    4.7612   -2.4647   -0.0125 H   0  0  0  0  0  0  0  0  0  0  0  0
    2.7952    1.7180   -0.2493 C   0  0  0  0  0  0  0  0  0  0  0  0
    3.4279    2.6328    0.6182 C   0  0  0  0  0  0  0  0  0  0  0  0
    4.0885    2.2704    1.4200 H   0  0  0  0  0  0  0  0  0  0  0  0
    3.1937    4.0063    0.4693 C   0  0  0  0  0  0  0  0  0  0  0  0
    3.6842    4.7202    1.1479 H   0  0  0  0  0  0  0  0  0  0  0  0
    2.3197    4.4681   -0.5298 C   0  0  0  0  0  0  0  0  0  0  0  0
    2.1248    5.5465   -0.6320 H   0  0  0  0  0  0  0  0  0  0  0  0
    1.6838    3.5571   -1.3869 C   0  0  0  0  0  0  0  0  0  0  0  0
    0.9783    3.9107   -2.1527 H   0  0  0  0  0  0  0  0  0  0  0  0
    1.9253    2.1812   -1.2572 C   0  0  0  0  0  0  0  0  0  0  0  0
    1.4191    1.4588   -1.9139 H   0  0  0  0  0  0  0  0  0  0  0  0
  1  4  1  0  0  0  0
  2  1  1  0  0  0  0
  3 16  1  0  0  0  0
  4  7  1  0  0  0  0
  5  4  1  0  0  0  0
  6  4  1  0  0  0  0
  8  1  1  0  0  0  0
  8 14  1  0  0  0  0
  9 11  1  0  0  0  0
  9  8  2  0  0  0  0
 10  9  1  0  0  0  0
 11 13  2  0  0  0  0
 12 11  1  0  0  0  0
 13 14  1  0  0  0  0
 13  3  1  0  0  0  0
 14 15  1  0  0  0  0
 16 17  2  0  0  0  0
 16 25  1  0  0  0  0
 17 19  1  0  0  0  0
 18 17  1  0  0  0  0
 19 20  1  0  0  0  0
 19 21  2  0  0  0  0
 21 22  1  0  0  0  0
 23 21  1  0  0  0  0
 23 24  1  0  0  0  0
 25 23  2  0  0  0  0
 26 25  1  0  0  0  0
 27 36  1  0  0  0  0
 27  3  1  0  0  0  0
 28 27  2  0  0  0  0
 29 28  1  0  0  0  0
 30 32  2  0  0  0  0
 30 28  1  0  0  0  0
 31 30  1  0  0  0  0
 32 34  1  0  0  0  0
 33 32  1  0  0  0  0
 34 35  1  0  0  0  0
 34 36  2  0  0  0  0
 36 37  1  0  0  0  0
 38  3  1  0  0  0  0
 38 39  1  0  0  0  0
 39 40  1  0  0  0  0
 41 39  2  0  0  0  0
 41 42  1  0  0  0  0
 43 41  1  0  0  0  0
 44 43  1  0  0  0  0
 45 47  1  0  0  0  0
 45 43  2  0  0  0  0
 46 45  1  0  0  0  0
 47 38  2  0  0  0  0
 48 47  1  0  0  0  0
M  END
