1
q = 0.0, confidence = 1.0

 32 35  0  0  0  0  0  0  0  0999 V2000
   -0.9166   -0.2961   -0.0008 P   0  0  0  0  0  0  0  0  0  0  0  0
   -1.6794   -1.8187   -0.7510 C   0  0  0  0  0  0  0  0  0  0  0  0
   -1.6792   -1.8171    0.7528 C   0  0  0  0  0  0  0  0  0  0  0  0
   -0.9002   -2.7346    1.7097 C   0  0  0  0  0  0  0  0  0  0  0  0
    0.1603   -2.4866    1.9079 H   0  0  0  0  0  0  0  0  0  0  0  0
   -0.9591   -3.7941    1.3819 H   0  0  0  0  0  0  0  0  0  0  0  0
   -1.9486   -2.3853    2.8002 C   0  0  0  0  0  0  0  0  0  0  0  0
   -2.3227   -3.2128    3.4331 H   0  0  0  0  0  0  0  0  0  0  0  0
   -1.5851   -1.5695    3.4563 H   0  0  0  0  0  0  0  0  0  0  0  0
   -2.8947   -1.8495    1.6915 C   0  0  0  0  0  0  0  0  0  0  0  0
   -3.4462   -0.9057    1.8693 H   0  0  0  0  0  0  0  0  0  0  0  0
   -3.6223   -2.6179    1.3525 H   0  0  0  0  0  0  0  0  0  0  0  0
   -0.9000   -2.7380   -1.7059 C   0  0  0  0  0  0  0  0  0  0  0  0
   -0.9584   -3.7968   -1.3757 H   0  0  0  0  0  0  0  0  0  0  0  0
    0.1603   -2.4900   -1.9048 H   0  0  0  0  0  0  0  0  0  0  0  0
   -1.9487   -2.3917   -2.7971 C   0  0  0  0  0  0  0  0  0  0  0  0
   -1.5857   -1.5774   -3.4552 H   0  0  0  0  0  0  0  0  0  0  0  0
   -2.3227   -3.2209   -3.4280 H   0  0  0  0  0  0  0  0  0  0  0  0
   -2.8949   -1.8537   -1.6895 C   0  0  0  0  0  0  0  0  0  0  0  0
   -3.6222   -2.6216   -1.3486 H   0  0  0  0  0  0  0  0  0  0  0  0
   -3.4469   -0.9106   -1.8694 H   0  0  0  0  0  0  0  0  0  0  0  0
   -2.1699    1.0307   -0.0012 C   0  0  0  0  0  0  0  0  0  0  0  0
   -2.6069    1.5916    1.2175 C   0  0  0  0  0  0  0  0  0  0  0  0
   -2.2340    1.1871    2.1715 H   0  0  0  0  0  0  0  0  0  0  0  0
   -3.4961    2.6765    1.2146 C   0  0  0  0  0  0  0  0  0  0  0  0
   -3.8327    3.1095    2.1687 H   0  0  0  0  0  0  0  0  0  0  0  0
   -3.9473    3.2145   -0.0014 C   0  0  0  0  0  0  0  0  0  0  0  0
   -4.6423    4.0677   -0.0015 H   0  0  0  0  0  0  0  0  0  0  0  0
   -3.4993    2.6737   -1.2174 C   0  0  0  0  0  0  0  0  0  0  0  0
   -3.8384    3.1044   -2.1716 H   0  0  0  0  0  0  0  0  0  0  0  0
   -2.6101    1.5888   -1.2201 C   0  0  0  0  0  0  0  0  0  0  0  0
   -2.2397    1.1820   -2.1741 H   0  0  0  0  0  0  0  0  0  0  0  0
  1  3  1  0  0  0  0
  2  1  1  0  0  0  0
  2  3  1  0  0  0  0
  3 10  1  0  0  0  0
  3  4  1  0  0  0  0
  4  5  1  0  0  0  0
  4  7  1  0  0  0  0
  6  4  1  0  0  0  0
  7  8  1  0  0  0  0
  7  9  1  0  0  0  0
 10 11  1  0  0  0  0
 10  7  1  0  0  0  0
 12 10  1  0  0  0  0
 13 14  1  0  0  0  0
 13  2  1  0  0  0  0
 15 13  1  0  0  0  0
 16 13  1  0  0  0  0
 16 19  1  0  0  0  0
 17 16  1  0  0  0  0
 18 16  1  0  0  0  0
 19 20  1  0  0  0  0
 19  2  1  0  0  0  0
 21 19  1  0  0  0  0
 22  1  1  0  0  0  0
 22 23  1  0  0  0  0
 23 24  1  0  0  0  0
 25 23  2  0  0  0  0
 25 26  1  0  0  0  0
 27 25  1  0  0  0  0
 28 27  1  0  0  0  0
 29 27  2  0  0  0  0
 30 29  1  0  0  0  0
 31 29  1  0  0  0  0
 31 22  2  0  0  0  0
 32 31  1  0  0  0  0
M  END
