1
q = 0.0, confidence = 1.0

 38 41  0  0  0  0  0  0  0  0999 V2000
   -0.8330   -0.0004    0.1776 P   0  0  2  0  0  0  0  0  0  0  0  0
   -2.0590   -1.4253    0.3336 C   0  0  0  0  0  0  0  0  0  0  0  0
   -1.7045   -0.7518    1.6427 C   0  0  0  0  0  0  0  0  0  0  0  0
   -0.9401   -1.3408    2.8408 C   0  0  0  0  0  0  0  0  0  0  0  0
    0.1654   -1.3621    2.7849 H   0  0  0  0  0  0  0  0  0  0  0  0
   -1.3005   -2.3622    3.0853 H   0  0  0  0  0  0  0  0  0  0  0  0
   -1.6021   -0.2485    3.7224 C   0  0  0  0  0  0  0  0  0  0  0  0
   -1.9862   -0.5569    4.7138 H   0  0  0  0  0  0  0  0  0  0  0  0
   -0.9278    0.6207    3.8548 H   0  0  0  0  0  0  0  0  0  0  0  0
   -2.6447   -0.0015    2.5991 C   0  0  0  0  0  0  0  0  0  0  0  0
   -3.5785   -0.5815    2.7596 H   0  0  0  0  0  0  0  0  0  0  0  0
   -2.9230    1.0421    2.3537 H   0  0  0  0  0  0  0  0  0  0  0  0
   -1.4743   -2.8114    0.0821 C   0  0  0  0  0  0  0  0  0  0  0  0
   -0.4125   -2.8511    0.3943 H   0  0  0  0  0  0  0  0  0  0  0  0
   -2.0182   -3.5235    0.7459 H   0  0  0  0  0  0  0  0  0  0  0  0
   -1.6291   -3.2513   -1.3777 C   0  0  0  0  0  0  0  0  0  0  0  0
   -1.2458   -4.2851   -1.5016 H   0  0  0  0  0  0  0  0  0  0  0  0
   -0.9952   -2.6026   -2.0202 H   0  0  0  0  0  0  0  0  0  0  0  0
   -3.0885   -3.1555   -1.8374 C   0  0  0  0  0  0  0  0  0  0  0  0
   -3.7065   -3.8756   -1.2547 H   0  0  0  0  0  0  0  0  0  0  0  0
   -3.1807   -3.4556   -2.9017 H   0  0  0  0  0  0  0  0  0  0  0  0
   -3.6378   -1.7384   -1.6357 C   0  0  0  0  0  0  0  0  0  0  0  0
   -3.0854   -1.0433   -2.3053 H   0  0  0  0  0  0  0  0  0  0  0  0
   -4.7044   -1.6824   -1.9374 H   0  0  0  0  0  0  0  0  0  0  0  0
   -3.4831   -1.2670   -0.1837 C   0  0  0  0  0  0  0  0  0  0  0  0
   -4.1367   -1.8888    0.4723 H   0  0  0  0  0  0  0  0  0  0  0  0
   -3.8321   -0.2218   -0.0646 H   0  0  0  0  0  0  0  0  0  0  0  0
   -1.7128    1.5560   -0.2131 C   0  0  0  0  0  0  0  0  0  0  0  0
   -1.6079    2.6347    0.6928 C   0  0  0  0  0  0  0  0  0  0  0  0
   -1.0652    2.5014    1.6418 H   0  0  0  0  0  0  0  0  0  0  0  0
   -2.1671    3.8810    0.3764 C   0  0  0  0  0  0  0  0  0  0  0  0
   -2.0787    4.7152    1.0888 H   0  0  0  0  0  0  0  0  0  0  0  0
   -2.8292    4.0659   -0.8481 C   0  0  0  0  0  0  0  0  0  0  0  0
   -3.2651    5.0452   -1.0966 H   0  0  0  0  0  0  0  0  0  0  0  0
   -2.9203    3.0035   -1.7610 C   0  0  0  0  0  0  0  0  0  0  0  0
   -3.4241    3.1483   -2.7286 H   0  0  0  0  0  0  0  0  0  0  0  0
   -2.3600    1.7555   -1.4495 C   0  0  0  0  0  0  0  0  0  0  0  0
   -2.4160    0.9332   -2.1780 H   0  0  0  0  0  0  0  0  0  0  0  0
  1 28  1  6  0  0  0
  1  2  1  0  0  0  0
  1  3  1  0  0  0  0
  2  3  1  0  0  0  0
  3 10  1  0  0  0  0
  3  4  1  0  0  0  0
  4  6  1  0  0  0  0
  4  7  1  0  0  0  0
  5  4  1  0  0  0  0
  7  9  1  0  0  0  0
  7  8  1  0  0  0  0
 10 11  1  0  0  0  0
 10  7  1  0  0  0  0
 12 10  1  0  0  0  0
 13  2  1  0  0  0  0
 13 14  1  0  0  0  0
 13 15  1  0  0  0  0
 16 13  1  0  0  0  0
 17 16  1  0  0  0  0
 18 16  1  0  0  0  0
 19 22  1  0  0  0  0
 19 16  1  0  0  0  0
 19 20  1  0  0  0  0
 21 19  1  0  0  0  0
 22 25  1  0  0  0  0
 23 22  1  0  0  0  0
 24 22  1  0  0  0  0
 25 27  1  0  0  0  0
 25  2  1  0  0  0  0
 25 26  1  0  0  0  0
 28 29  1  0  0  0  0
 29 30  1  0  0  0  0
 31 29  2  0  0  0  0
 31 32  1  0  0  0  0
 33 31  1  0  0  0  0
 34 33  1  0  0  0  0
 35 37  1  0  0  0  0
 35 33  2  0  0  0  0
 36 35  1  0  0  0  0
 37 28  2  0  0  0  0
 38 37  1  0  0  0  0
M  END
