1
q = 0.0, confidence = 0.996

 72 76  0  0  0  0  0  0  0  0999 V2000
    0.1782    0.2282   -0.1850 P   0  0  1  0  0  0  0  0  0  0  0  0
   -1.3396   -0.5494   -0.3614 O   0  0  0  0  0  0  0  0  0  0  0  0
   -1.4964    0.8603   -2.1514 N   0  0  0  0  0  0  0  0  0  0  0  0
   -3.3938   -0.3685   -1.4828 N   0  0  0  0  0  0  0  0  0  0  0  0
    0.4215    2.1859   -2.3243 N   0  0  0  0  0  0  0  0  0  0  0  0
   -2.1659   -0.0486   -1.3418 C   0  0  0  0  0  0  0  0  0  0  0  0
   -0.2485    1.3003   -1.6990 C   0  0  0  0  0  0  0  0  0  0  0  0
   -4.0703   -1.2721   -0.6556 C   0  0  0  0  0  0  0  0  0  0  0  0
   -3.5228   -2.4953   -0.1983 C   0  0  0  0  0  0  0  0  0  0  0  0
   -2.5064   -2.7834   -0.4949 H   0  0  0  0  0  0  0  0  0  0  0  0
   -4.2764   -3.3462    0.6215 C   0  0  0  0  0  0  0  0  0  0  0  0
   -3.8312   -4.2937    0.9631 H   0  0  0  0  0  0  0  0  0  0  0  0
   -5.5822   -3.0009    1.0062 C   0  0  0  0  0  0  0  0  0  0  0  0
   -6.1670   -3.6710    1.6541 H   0  0  0  0  0  0  0  0  0  0  0  0
   -6.1384   -1.7968    0.5425 C   0  0  0  0  0  0  0  0  0  0  0  0
   -7.1656   -1.5190    0.8256 H   0  0  0  0  0  0  0  0  0  0  0  0
   -5.3975   -0.9472   -0.2881 C   0  0  0  0  0  0  0  0  0  0  0  0
   -5.8218   -0.0035   -0.6603 H   0  0  0  0  0  0  0  0  0  0  0  0
   -2.0317    1.3317   -3.4533 C   0  0  0  0  0  0  0  0  0  0  0  0
   -1.1878    1.9306   -3.8509 H   0  0  0  0  0  0  0  0  0  0  0  0
   -2.2892    0.1486   -4.3894 C   0  0  0  0  0  0  0  0  0  0  0  0
   -1.3796   -0.4763   -4.4893 H   0  0  0  0  0  0  0  0  0  0  0  0
   -2.5575    0.5281   -5.3953 H   0  0  0  0  0  0  0  0  0  0  0  0
   -3.1210   -0.4816   -4.0203 H   0  0  0  0  0  0  0  0  0  0  0  0
   -3.2400    2.2521   -3.2752 C   0  0  0  0  0  0  0  0  0  0  0  0
   -4.0768    1.7155   -2.7895 H   0  0  0  0  0  0  0  0  0  0  0  0
   -3.5741    2.6148   -4.2677 H   0  0  0  0  0  0  0  0  0  0  0  0
   -2.9757    3.1331   -2.6600 H   0  0  0  0  0  0  0  0  0  0  0  0
    1.7559    2.5897   -1.9269 C   0  0  0  0  0  0  0  0  0  0  0  0
    2.0885    2.0192   -1.0265 H   0  0  0  0  0  0  0  0  0  0  0  0
    2.7207    2.2878   -3.0795 C   0  0  0  0  0  0  0  0  0  0  0  0
    2.6957    1.2127   -3.3440 H   0  0  0  0  0  0  0  0  0  0  0  0
    3.7589    2.5521   -2.7977 H   0  0  0  0  0  0  0  0  0  0  0  0
    2.4338    2.8671   -3.9803 H   0  0  0  0  0  0  0  0  0  0  0  0
    1.7560    4.0768   -1.5586 C   0  0  0  0  0  0  0  0  0  0  0  0
    1.3845    4.6822   -2.4102 H   0  0  0  0  0  0  0  0  0  0  0  0
    2.7804    4.4121   -1.3032 H   0  0  0  0  0  0  0  0  0  0  0  0
    1.1090    4.2694   -0.6805 H   0  0  0  0  0  0  0  0  0  0  0  0
   -0.2323    1.2335    1.4662 C   0  0  0  0  0  0  0  0  0  0  0  0
   -1.6707    1.7388    1.3037 C   0  0  0  0  0  0  0  0  0  0  0  0
   -1.9563    2.7868    0.3965 C   0  0  0  0  0  0  0  0  0  0  0  0
   -1.1419    3.2554   -0.1735 H   0  0  0  0  0  0  0  0  0  0  0  0
   -3.2663    3.2476    0.2150 C   0  0  0  0  0  0  0  0  0  0  0  0
   -3.4577    4.0705   -0.4895 H   0  0  0  0  0  0  0  0  0  0  0  0
   -4.3291    2.6609    0.9190 C   0  0  0  0  0  0  0  0  0  0  0  0
   -5.3597    3.0144    0.7652 H   0  0  0  0  0  0  0  0  0  0  0  0
   -4.0622    1.6201    1.8180 C   0  0  0  0  0  0  0  0  0  0  0  0
   -4.8823    1.1414    2.3731 H   0  0  0  0  0  0  0  0  0  0  0  0
   -2.7480    1.1710    2.0144 C   0  0  0  0  0  0  0  0  0  0  0  0
   -2.5637    0.3614    2.7316 H   0  0  0  0  0  0  0  0  0  0  0  0
   -0.0745    0.2074    2.6077 C   0  0  0  0  0  0  0  0  0  0  0  0
   -0.6223   -1.0947    2.5171 C   0  0  0  0  0  0  0  0  0  0  0  0
   -1.1948   -1.3943    1.6301 H   0  0  0  0  0  0  0  0  0  0  0  0
   -0.4734   -2.0163    3.5627 C   0  0  0  0  0  0  0  0  0  0  0  0
   -0.9023   -3.0238    3.4528 H   0  0  0  0  0  0  0  0  0  0  0  0
    0.2130   -1.6578    4.7320 C   0  0  0  0  0  0  0  0  0  0  0  0
    0.3361   -2.3828    5.5504 H   0  0  0  0  0  0  0  0  0  0  0  0
    0.7381   -0.3629    4.8466 C   0  0  0  0  0  0  0  0  0  0  0  0
    1.2723   -0.0615    5.7602 H   0  0  0  0  0  0  0  0  0  0  0  0
    0.5999    0.5566    3.7964 C   0  0  0  0  0  0  0  0  0  0  0  0
    1.0277    1.5620    3.9065 H   0  0  0  0  0  0  0  0  0  0  0  0
    0.7980    2.3591    1.6266 C   0  0  0  0  0  0  0  0  0  0  0  0
    0.4342    3.6532    2.0524 C   0  0  0  0  0  0  0  0  0  0  0  0
   -0.6231    3.8937    2.2261 H   0  0  0  0  0  0  0  0  0  0  0  0
    1.4102    4.6380    2.2767 C   0  0  0  0  0  0  0  0  0  0  0  0
    1.0988    5.6392    2.6110 H   0  0  0  0  0  0  0  0  0  0  0  0
    2.7692    4.3527    2.0794 C   0  0  0  0  0  0  0  0  0  0  0  0
    3.5307    5.1293    2.2460 H   0  0  0  0  0  0  0  0  0  0  0  0
    3.1479    3.0611    1.6819 C   0  0  0  0  0  0  0  0  0  0  0  0
    4.2088    2.8087    1.5350 H   0  0  0  0  0  0  0  0  0  0  0  0
    2.1727    2.0770    1.4760 C   0  0  0  0  0  0  0  0  0  0  0  0
    2.4851    1.0563    1.2176 H   0  0  0  0  0  0  0  0  0  0  0  0
  1 39  1  1  0  0  0
  2  1  1  0  0  0  0
  3  7  1  0  0  0  0
  3  6  1  0  0  0  0
  4  6  2  0  0  0  0
  4  8  1  0  0  0  0
  5 29  1  0  0  0  0
  5  7  2  0  0  0  0
  6  2  1  0  0  0  0
  7  1  1  0  0  0  0
  8 17  2  0  0  0  0
  8  9  1  0  0  0  0
  9 11  2  0  0  0  0
 10  9  1  0  0  0  0
 11 12  1  0  0  0  0
 11 13  1  0  0  0  0
 13 14  1  0  0  0  0
 15 16  1  0  0  0  0
 15 13  2  0  0  0  0
 17 15  1  0  0  0  0
 18 17  1  0  0  0  0
 19 25  1  0  0  0  0
 19  3  1  0  0  0  0
 20 19  1  0  0  0  0
 21 24  1  0  0  0  0
 21 19  1  0  0  0  0
 22 21  1  0  0  0  0
 23 21  1  0  0  0  0
 25 26  1  0  0  0  0
 25 28  1  0  0  0  0
 27 25  1  0  0  0  0
 29 35  1  0  0  0  0
 29 30  1  0  0  0  0
 31 33  1  0  0  0  0
 31 29  1  0  0  0  0
 32 31  1  0  0  0  0
 34 31  1  0  0  0  0
 35 37  1  0  0  0  0
 35 38  1  0  0  0  0
 36 35  1  0  0  0  0
 39 62  1  0  0  0  0
 39 51  1  0  0  0  0
 40 39  1  0  0  0  0
 40 49  1  0  0  0  0
 41 40  2  0  0  0  0
 42 41  1  0  0  0  0
 43 41  1  0  0  0  0
 43 45  2  0  0  0  0
 44 43  1  0  0  0  0
 45 47  1  0  0  0  0
 46 45  1  0  0  0  0
 47 49  2  0  0  0  0
 47 48  1  0  0  0  0
 49 50  1  0  0  0  0
 51 60  1  0  0  0  0
 52 51  2  0  0  0  0
 52 54  1  0  0  0  0
 53 52  1  0  0  0  0
 54 56  2  0  0  0  0
 55 54  1  0  0  0  0
 56 58  1  0  0  0  0
 56 57  1  0  0  0  0
 58 59  1  0  0  0  0
 60 61  1  0  0  0  0
 60 58  2  0  0  0  0
 62 63  1  0  0  0  0
 63 64  1  0  0  0  0
 63 65  2  0  0  0  0
 65 66  1  0  0  0  0
 67 68  1  0  0  0  0
 67 65  1  0  0  0  0
 69 67  2  0  0  0  0
 70 69  1  0  0  0  0
 71 62  2  0  0  0  0
 71 69  1  0  0  0  0
 72 71  1  0  0  0  0
M  END
