2
q = 0.0, confidence = 0.998

 41 43  0  0  0  0  0  0  0  0999 V2000
   -1.9669   -2.6124   -2.3526 S   0  0  0  0  0  0  0  0  0  0  0  0
    1.5552   -0.5782   -1.3594 P   0  0  0  0  0  0  0  0  0  0  0  0
   -6.8229   -1.7927    0.9446 F   0  0  0  0  0  0  0  0  0  0  0  0
    0.4133   -1.2279   -2.6872 C   0  0  0  0  0  0  0  0  0  0  0  0
    0.6679   -0.6214   -3.5766 H   0  0  0  0  0  0  0  0  0  0  0  0
    0.6630   -2.2871   -2.9043 H   0  0  0  0  0  0  0  0  0  0  0  0
   -1.0671   -1.0172   -2.3089 C   0  0  0  0  0  0  0  0  0  0  0  0
   -1.5351   -0.2865   -2.9968 H   0  0  0  0  0  0  0  0  0  0  0  0
   -1.1504   -0.5920   -1.2843 H   0  0  0  0  0  0  0  0  0  0  0  0
   -3.3997   -2.2899   -1.3565 C   0  0  0  0  0  0  0  0  0  0  0  0
   -3.8875   -0.9965   -1.0710 C   0  0  0  0  0  0  0  0  0  0  0  0
   -3.3775   -0.1034   -1.4556 H   0  0  0  0  0  0  0  0  0  0  0  0
   -5.0416   -0.8270   -0.2901 C   0  0  0  0  0  0  0  0  0  0  0  0
   -5.4443    0.1737   -0.0811 H   0  0  0  0  0  0  0  0  0  0  0  0
   -5.7110   -1.9532    0.1998 C   0  0  0  0  0  0  0  0  0  0  0  0
   -5.2490   -3.2481   -0.0741 C   0  0  0  0  0  0  0  0  0  0  0  0
   -5.7959   -4.1134    0.3273 H   0  0  0  0  0  0  0  0  0  0  0  0
   -4.0944   -3.4116   -0.8484 C   0  0  0  0  0  0  0  0  0  0  0  0
   -3.7158   -4.4244   -1.0546 H   0  0  0  0  0  0  0  0  0  0  0  0
    3.1806   -0.4522   -2.2266 C   0  0  0  0  0  0  0  0  0  0  0  0
    3.7576    0.8156   -2.4344 C   0  0  0  0  0  0  0  0  0  0  0  0
    3.2157    1.7086   -2.0845 H   0  0  0  0  0  0  0  0  0  0  0  0
    4.9891    0.9270   -3.0991 C   0  0  0  0  0  0  0  0  0  0  0  0
    5.4336    1.9212   -3.2587 H   0  0  0  0  0  0  0  0  0  0  0  0
    5.6464   -0.2224   -3.5644 C   0  0  0  0  0  0  0  0  0  0  0  0
    6.6116   -0.1333   -4.0863 H   0  0  0  0  0  0  0  0  0  0  0  0
    5.0710   -1.4887   -3.3646 C   0  0  0  0  0  0  0  0  0  0  0  0
    5.5833   -2.3923   -3.7292 H   0  0  0  0  0  0  0  0  0  0  0  0
    3.8443   -1.6055   -2.6955 C   0  0  0  0  0  0  0  0  0  0  0  0
    3.4061   -2.6014   -2.5249 H   0  0  0  0  0  0  0  0  0  0  0  0
    1.8468   -2.0366   -0.2640 C   0  0  0  0  0  0  0  0  0  0  0  0
    3.0439   -2.1134    0.4806 C   0  0  0  0  0  0  0  0  0  0  0  0
    3.8023   -1.3234    0.3858 H   0  0  0  0  0  0  0  0  0  0  0  0
    3.2890   -3.2062    1.3239 C   0  0  0  0  0  0  0  0  0  0  0  0
    4.2309   -3.2524    1.8918 H   0  0  0  0  0  0  0  0  0  0  0  0
    2.3438   -4.2390    1.4330 C   0  0  0  0  0  0  0  0  0  0  0  0
    2.5394   -5.1012    2.0888 H   0  0  0  0  0  0  0  0  0  0  0  0
    1.1474   -4.1622    0.7048 C   0  0  0  0  0  0  0  0  0  0  0  0
    0.3927   -4.9583    0.7916 H   0  0  0  0  0  0  0  0  0  0  0  0
    0.8940   -3.0674   -0.1355 C   0  0  0  0  0  0  0  0  0  0  0  0
   -0.0560   -3.0334   -0.6923 H   0  0  0  0  0  0  0  0  0  0  0  0
  1  7  1  0  0  0  0
  1 10  1  0  0  0  0
  2 31  1  0  0  0  0
  4  7  1  0  0  0  0
  4  2  1  0  0  0  0
  5  4  1  0  0  0  0
  6  4  1  0  0  0  0
  7  9  1  0  0  0  0
  8  7  1  0  0  0  0
 10 11  2  0  0  0  0
 10 18  1  0  0  0  0
 11 13  1  0  0  0  0
 12 11  1  0  0  0  0
 13 14  1  0  0  0  0
 13 15  2  0  0  0  0
 15  3  1  0  0  0  0
 16 15  1  0  0  0  0
 16 17  1  0  0  0  0
 18 16  2  0  0  0  0
 19 18  1  0  0  0  0
 20  2  1  0  0  0  0
 21 20  1  0  0  0  0
 21 22  1  0  0  0  0
 23 21  2  0  0  0  0
 24 23  1  0  0  0  0
 25 27  2  0  0  0  0
 25 23  1  0  0  0  0
 26 25  1  0  0  0  0
 27 29  1  0  0  0  0
 28 27  1  0  0  0  0
 29 30  1  0  0  0  0
 29 20  2  0  0  0  0
 31 40  2  0  0  0  0
 31 32  1  0  0  0  0
 32 34  2  0  0  0  0
 33 32  1  0  0  0  0
 34 36  1  0  0  0  0
 34 35  1  0  0  0  0
 36 37  1  0  0  0  0
 38 39  1  0  0  0  0
 38 36  2  0  0  0  0
 40 38  1  0  0  0  0
 41 40  1  0  0  0  0
M  END
