2
q = 0.0, confidence = 1.0

 34 36  0  0  0  0  0  0  0  0999 V2000
    0.4629   -2.8627   -0.0785 I   0  0  0  0  0  0  0  0  0  0  0  0
    0.9411    0.6073    0.0458 P   0  0  0  0  0  0  0  0  0  0  0  0
    1.8309   -0.3330   -1.2659 C   0  0  0  0  0  0  0  0  0  0  0  0
    1.6769   -1.7329   -1.4051 C   0  0  0  0  0  0  0  0  0  0  0  0
    2.3327   -2.4305   -2.4330 C   0  0  0  0  0  0  0  0  0  0  0  0
    3.1463   -1.7364   -3.3406 C   0  0  0  0  0  0  0  0  0  0  0  0
    3.3089   -0.3488   -3.2203 C   0  0  0  0  0  0  0  0  0  0  0  0
    2.6559    0.3432   -2.1918 C   0  0  0  0  0  0  0  0  0  0  0  0
    1.4717    2.3480   -0.2076 C   0  0  0  0  0  0  0  0  0  0  0  0
    0.6669    3.1778   -1.0157 C   0  0  0  0  0  0  0  0  0  0  0  0
    1.0499    4.5044   -1.2595 C   0  0  0  0  0  0  0  0  0  0  0  0
    2.2278    5.0132   -0.6886 C   0  0  0  0  0  0  0  0  0  0  0  0
    3.0239    4.1931    0.1273 C   0  0  0  0  0  0  0  0  0  0  0  0
    2.6507    2.8625    0.3690 C   0  0  0  0  0  0  0  0  0  0  0  0
    1.7468    0.0961    1.6116 C   0  0  0  0  0  0  0  0  0  0  0  0
    1.0300    0.2526    2.8145 C   0  0  0  0  0  0  0  0  0  0  0  0
    1.6289   -0.0911    4.0345 C   0  0  0  0  0  0  0  0  0  0  0  0
    2.9386   -0.5979    4.0588 C   0  0  0  0  0  0  0  0  0  0  0  0
    3.6516   -0.7607    2.8602 C   0  0  0  0  0  0  0  0  0  0  0  0
    3.0603   -0.4145    1.6361 C   0  0  0  0  0  0  0  0  0  0  0  0
    2.2013   -3.5181   -2.5246 H   0  0  0  0  0  0  0  0  0  0  0  0
    3.6513   -2.2901   -4.1464 H   0  0  0  0  0  0  0  0  0  0  0  0
    3.9450    0.2013   -3.9292 H   0  0  0  0  0  0  0  0  0  0  0  0
    2.7825    1.4318   -2.0993 H   0  0  0  0  0  0  0  0  0  0  0  0
   -0.2679    2.7792   -1.4420 H   0  0  0  0  0  0  0  0  0  0  0  0
    0.4170    5.1472   -1.8896 H   0  0  0  0  0  0  0  0  0  0  0  0
    2.5221    6.0576   -0.8727 H   0  0  0  0  0  0  0  0  0  0  0  0
    3.9418    4.5928    0.5843 H   0  0  0  0  0  0  0  0  0  0  0  0
    3.2730    2.2242    1.0139 H   0  0  0  0  0  0  0  0  0  0  0  0
   -0.0043    0.6314    2.7863 H   0  0  0  0  0  0  0  0  0  0  0  0
    1.0645    0.0287    4.9714 H   0  0  0  0  0  0  0  0  0  0  0  0
    3.4034   -0.8753    5.0169 H   0  0  0  0  0  0  0  0  0  0  0  0
    4.6747   -1.1659    2.8763 H   0  0  0  0  0  0  0  0  0  0  0  0
    3.6146   -0.5543    0.6954 H   0  0  0  0  0  0  0  0  0  0  0  0
  2 15  1  0  0  0  0
  3  2  1  0  0  0  0
  4  3  1  0  0  0  0
  4  1  1  0  0  0  0
  5  4  2  0  0  0  0
  6  7  2  0  0  0  0
  6  5  1  0  0  0  0
  7  8  1  0  0  0  0
  8 24  1  0  0  0  0
  8  3  2  0  0  0  0
  9  2  1  0  0  0  0
  9 14  1  0  0  0  0
 10  9  2  0  0  0  0
 11 10  1  0  0  0  0
 11 12  2  0  0  0  0
 12 13  1  0  0  0  0
 13 14  2  0  0  0  0
 13 28  1  0  0  0  0
 14 29  1  0  0  0  0
 15 20  2  0  0  0  0
 15 16  1  0  0  0  0
 16 17  2  0  0  0  0
 17 18  1  0  0  0  0
 17 31  1  0  0  0  0
 18 32  1  0  0  0  0
 19 33  1  0  0  0  0
 19 18  2  0  0  0  0
 20 19  1  0  0  0  0
 21  5  1  0  0  0  0
 22  6  1  0  0  0  0
 23  7  1  0  0  0  0
 25 10  1  0  0  0  0
 26 11  1  0  0  0  0
 27 12  1  0  0  0  0
 30 16  1  0  0  0  0
 34 20  1  0  0  0  0
M  END
