1
q = 0.0, confidence = 1.0

 34 36  0  0  1  0  0  0  0  0999 V2000
   -2.2961    0.3672   -0.0122 P   0  0  1  0  0  0  0  0  0  0  0  0
   -3.2237   -1.1998   -0.1560 C   0  0  0  0  0  0  0  0  0  0  0  0
   -3.4567   -1.9848    0.9938 C   0  0  0  0  0  0  0  0  0  0  0  0
   -4.1124   -3.2195    0.8832 C   0  0  0  0  0  0  0  0  0  0  0  0
   -4.5354   -3.6843   -0.3722 C   0  0  0  0  0  0  0  0  0  0  0  0
   -4.2830   -2.9168   -1.5208 C   0  0  0  0  0  0  0  0  0  0  0  0
   -3.6216   -1.6842   -1.4203 C   0  0  0  0  0  0  0  0  0  0  0  0
   -3.3718   -1.1134   -2.3256 H   0  0  0  0  0  0  0  0  0  0  0  0
   -4.5931   -3.2863   -2.5102 H   0  0  0  0  0  0  0  0  0  0  0  0
   -5.0525   -4.6523   -0.4568 H   0  0  0  0  0  0  0  0  0  0  0  0
   -4.2902   -3.8243    1.7856 H   0  0  0  0  0  0  0  0  0  0  0  0
   -3.1032   -1.6389    1.9756 H   0  0  0  0  0  0  0  0  0  0  0  0
   -3.0501    1.6417   -1.1353 C   0  0  1  0  0  0  0  0  0  0  0  0
   -4.5735    1.7366   -0.9083 C   0  0  0  0  0  0  0  0  0  0  0  0
   -5.0361    2.1125    0.5111 C   0  0  0  0  0  0  0  0  0  0  0  0
   -4.3643    1.3215    1.6489 C   0  0  0  0  0  0  0  0  0  0  0  0
   -2.8299    1.1868    1.5735 C   0  0  2  0  0  0  0  0  0  0  0  0
   -2.0193    2.5023    1.6608 C   0  0  0  0  0  0  0  0  0  0  0  0
   -2.2471    3.5192    0.5232 C   0  0  0  0  0  0  0  0  0  0  0  0
   -2.2338    2.9381   -0.9064 C   0  0  0  0  0  0  0  0  0  0  0  0
   -2.8645    1.2989   -2.1716 H   0  0  0  0  0  0  0  0  0  0  0  0
   -2.6044    3.7116   -1.6140 H   0  0  0  0  0  0  0  0  0  0  0  0
   -1.1847    2.7221   -1.1993 H   0  0  0  0  0  0  0  0  0  0  0  0
   -3.1960    4.0636    0.6964 H   0  0  0  0  0  0  0  0  0  0  0  0
   -1.4535    4.2927    0.5877 H   0  0  0  0  0  0  0  0  0  0  0  0
   -0.9425    2.2249    1.6971 H   0  0  0  0  0  0  0  0  0  0  0  0
   -2.2450    2.9908    2.6335 H   0  0  0  0  0  0  0  0  0  0  0  0
   -2.4848    0.5313    2.3983 H   0  0  0  0  0  0  0  0  0  0  0  0
   -4.6258    1.7934    2.6218 H   0  0  0  0  0  0  0  0  0  0  0  0
   -4.7959    0.2988    1.6820 H   0  0  0  0  0  0  0  0  0  0  0  0
   -4.8919    3.1980    0.6748 H   0  0  0  0  0  0  0  0  0  0  0  0
   -6.1333    1.9538    0.5749 H   0  0  0  0  0  0  0  0  0  0  0  0
   -5.0202    0.7598   -1.1914 H   0  0  0  0  0  0  0  0  0  0  0  0
   -4.9828    2.4773   -1.6303 H   0  0  0  0  0  0  0  0  0  0  0  0
  1  2  1  6  0  0  0
  1 17  1  0  0  0  0
  2  3  1  0  0  0  0
  3 12  1  0  0  0  0
  4  3  2  0  0  0  0
  4 11  1  0  0  0  0
  5  4  1  0  0  0  0
  6  7  1  0  0  0  0
  6  5  2  0  0  0  0
  7  2  2  0  0  0  0
  8  7  1  0  0  0  0
  9  6  1  0  0  0  0
 10  5  1  0  0  0  0
 13 21  1  6  0  0  0
 13 14  1  0  0  0  0
 13 20  1  0  0  0  0
 13  1  1  0  0  0  0
 14 15  1  0  0  0  0
 15 32  1  0  0  0  0
 15 31  1  0  0  0  0
 15 16  1  0  0  0  0
 16 30  1  0  0  0  0
 16 29  1  0  0  0  0
 17 16  1  0  0  0  0
 17 18  1  0  0  0  0
 17 28  1  1  0  0  0
 18 26  1  0  0  0  0
 18 27  1  0  0  0  0
 19 25  1  0  0  0  0
 19 24  1  0  0  0  0
 19 18  1  0  0  0  0
 20 19  1  0  0  0  0
 22 20  1  0  0  0  0
 23 20  1  0  0  0  0
 33 14  1  0  0  0  0
 34 14  1  0  0  0  0
M  END
