1
q = 0.0, confidence = 0.996

 54 53  0  0  0  0  0  0  0  0999 V2000
   -0.0985   -0.1510    0.8310 P   0  0  0  0  0  0  0  0  0  0  0  0
   -1.6480    0.4687    0.8214 N   0  0  0  0  0  2  0  0  0  0  0  0
   -1.9501    2.4304   -0.5307 N   0  0  0  0  0  0  0  0  0  0  0  0
   -3.7174    0.9472   -0.0929 N   0  0  0  0  0  0  0  0  0  0  0  0
    1.0627    1.0796    0.7577 N   0  0  0  0  0  2  0  0  0  0  0  0
    3.1585    2.0114    0.4231 N   0  0  0  0  0  0  0  0  0  0  0  0
    2.0364    1.2062   -1.4514 N   0  0  0  0  0  0  0  0  0  0  0  0
   -2.3818    1.2557    0.0905 C   0  0  0  0  0  3  0  0  0  0  0  0
   -2.4584    2.8539   -1.8221 C   0  0  0  0  0  0  0  0  0  0  0  0
   -1.6050    3.1350   -2.4782 H   0  0  0  0  0  0  0  0  0  0  0  0
   -3.1373    3.7364   -1.7645 H   0  0  0  0  0  0  0  0  0  0  0  0
   -2.9941    2.0160   -2.3035 H   0  0  0  0  0  0  0  0  0  0  0  0
   -1.0210    3.3315    0.1234 C   0  0  0  0  0  0  0  0  0  0  0  0
   -1.5136    4.3054    0.3534 H   0  0  0  0  0  0  0  0  0  0  0  0
   -0.1402    3.5422   -0.5225 H   0  0  0  0  0  0  0  0  0  0  0  0
   -0.6431    2.8728    1.0536 H   0  0  0  0  0  0  0  0  0  0  0  0
   -4.1773   -0.4112    0.1325 C   0  0  0  0  0  0  0  0  0  0  0  0
   -4.8865   -0.7073   -0.6689 H   0  0  0  0  0  0  0  0  0  0  0  0
   -4.6956   -0.5066    1.1137 H   0  0  0  0  0  0  0  0  0  0  0  0
   -3.3125   -1.0957    0.1338 H   0  0  0  0  0  0  0  0  0  0  0  0
   -4.7559    1.9591   -0.1506 C   0  0  0  0  0  0  0  0  0  0  0  0
   -5.5024    1.7772    0.6542 H   0  0  0  0  0  0  0  0  0  0  0  0
   -5.2994    1.9572   -1.1217 H   0  0  0  0  0  0  0  0  0  0  0  0
   -4.3249    2.9631    0.0101 H   0  0  0  0  0  0  0  0  0  0  0  0
    2.0181    1.3965   -0.0768 C   0  0  0  0  0  3  0  0  0  0  0  0
    0.8448    1.2944   -2.2655 C   0  0  0  0  0  0  0  0  0  0  0  0
    0.6864    0.3610   -2.8413 H   0  0  0  0  0  0  0  0  0  0  0  0
    0.9309    2.1429   -2.9856 H   0  0  0  0  0  0  0  0  0  0  0  0
   -0.0413    1.4542   -1.6292 H   0  0  0  0  0  0  0  0  0  0  0  0
    3.2484    0.8448   -2.1661 C   0  0  0  0  0  0  0  0  0  0  0  0
    3.6029    1.6491   -2.8510 H   0  0  0  0  0  0  0  0  0  0  0  0
    3.0492   -0.0618   -2.7778 H   0  0  0  0  0  0  0  0  0  0  0  0
    4.0495    0.5987   -1.4480 H   0  0  0  0  0  0  0  0  0  0  0  0
    3.4648    1.9114    1.8361 C   0  0  0  0  0  0  0  0  0  0  0  0
    2.9945    2.7290    2.4298 H   0  0  0  0  0  0  0  0  0  0  0  0
    4.5640    1.9640    1.9786 H   0  0  0  0  0  0  0  0  0  0  0  0
    3.0946    0.9496    2.2299 H   0  0  0  0  0  0  0  0  0  0  0  0
    3.8182    3.0977   -0.2807 C   0  0  0  0  0  0  0  0  0  0  0  0
    4.8845    2.8727   -0.5046 H   0  0  0  0  0  0  0  0  0  0  0  0
    3.7886    4.0247    0.3354 H   0  0  0  0  0  0  0  0  0  0  0  0
    3.2979    3.3068   -1.2322 H   0  0  0  0  0  0  0  0  0  0  0  0
    0.0107   -0.5906    2.6860 C   0  0  0  0  0  0  0  0  0  0  0  0
   -1.2184   -1.4114    3.1043 C   0  0  0  0  0  0  0  0  0  0  0  0
   -1.2943   -2.3727    2.5668 H   0  0  0  0  0  0  0  0  0  0  0  0
   -2.1501   -0.8411    2.9307 H   0  0  0  0  0  0  0  0  0  0  0  0
   -1.1418   -1.6438    4.1880 H   0  0  0  0  0  0  0  0  0  0  0  0
    1.2958   -1.3909    2.9326 C   0  0  0  0  0  0  0  0  0  0  0  0
    1.2698   -2.3701    2.4161 H   0  0  0  0  0  0  0  0  0  0  0  0
    1.4168   -1.5797    4.0200 H   0  0  0  0  0  0  0  0  0  0  0  0
    2.1959   -0.8501    2.5795 H   0  0  0  0  0  0  0  0  0  0  0  0
    0.0213    0.7222    3.4883 C   0  0  0  0  0  0  0  0  0  0  0  0
   -0.8914    1.3165    3.2789 H   0  0  0  0  0  0  0  0  0  0  0  0
    0.9013    1.3441    3.2454 H   0  0  0  0  0  0  0  0  0  0  0  0
    0.0328    0.4872    4.5740 H   0  0  0  0  0  0  0  0  0  0  0  0
  1 42  1  0  0  0  0
  2  1  1  0  0  0  0
  3  8  1  0  0  0  0
  3 13  1  0  0  0  0
  4  8  1  0  0  0  0
  4 17  1  0  0  0  0
  5  1  1  0  0  0  0
  6 34  1  0  0  0  0
  7 25  1  0  0  0  0
  8  2  1  0  0  0  0
  9 11  1  0  0  0  0
  9  3  1  0  0  0  0
 10  9  1  0  0  0  0
 12  9  1  0  0  0  0
 13 14  1  0  0  0  0
 13 16  1  0  0  0  0
 15 13  1  0  0  0  0
 17 20  1  0  0  0  0
 17 19  1  0  0  0  0
 18 17  1  0  0  0  0
 21  4  1  0  0  0  0
 21 24  1  0  0  0  0
 21 22  1  0  0  0  0
 23 21  1  0  0  0  0
 25  6  1  0  0  0  0
 25  5  1  0  0  0  0
 26 29  1  0  0  0  0
 26  7  1  0  0  0  0
 27 26  1  0  0  0  0
 28 26  1  0  0  0  0
 30  7  1  0  0  0  0
 30 33  1  0  0  0  0
 31 30  1  0  0  0  0
 32 30  1  0  0  0  0
 34 36  1  0  0  0  0
 34 37  1  0  0  0  0
 34 35  1  0  0  0  0
 38 40  1  0  0  0  0
 38  6  1  0  0  0  0
 39 38  1  0  0  0  0
 41 38  1  0  0  0  0
 42 47  1  0  0  0  0
 42 43  1  0  0  0  0
 42 51  1  0  0  0  0
 43 46  1  0  0  0  0
 44 43  1  0  0  0  0
 45 43  1  0  0  0  0
 47 49  1  0  0  0  0
 48 47  1  0  0  0  0
 50 47  1  0  0  0  0
 51 54  1  0  0  0  0
 52 51  1  0  0  0  0
 53 51  1  0  0  0  0
M  END
