1
q = 0.0, confidence = 0.998

 37 39  0  0  0  0  0  0  0  0999 V2000
    0.7266   -0.3036   -0.3730 P   0  0  0  0  0  0  0  0  0  0  0  0
    1.4285    1.3946   -1.4900 S   0  0  0  0  0  0  0  0  0  0  0  0
    1.0168    0.2450    1.6889 S   0  0  0  0  0  0  0  0  0  0  0  0
    2.1831   -1.7765   -0.8723 S   0  0  0  0  0  0  0  0  0  0  0  0
    0.1861    2.5461   -0.8992 C   0  0  0  0  0  0  0  0  0  0  0  0
    0.5181    3.4548    0.1245 C   0  0  0  0  0  0  0  0  0  0  0  0
    1.5315    3.4425    0.5500 H   0  0  0  0  0  0  0  0  0  0  0  0
   -0.4536    4.3511    0.5953 C   0  0  0  0  0  0  0  0  0  0  0  0
   -0.1956    5.0644    1.3926 H   0  0  0  0  0  0  0  0  0  0  0  0
   -1.7527    4.3292    0.0600 C   0  0  0  0  0  0  0  0  0  0  0  0
   -2.5142    5.0280    0.4380 H   0  0  0  0  0  0  0  0  0  0  0  0
   -2.0814    3.4162   -0.9558 C   0  0  0  0  0  0  0  0  0  0  0  0
   -3.0988    3.3917   -1.3736 H   0  0  0  0  0  0  0  0  0  0  0  0
   -1.1129    2.5272   -1.4450 C   0  0  0  0  0  0  0  0  0  0  0  0
   -1.3606    1.8094   -2.2409 H   0  0  0  0  0  0  0  0  0  0  0  0
   -0.6668   -0.0518    2.2333 C   0  0  0  0  0  0  0  0  0  0  0  0
   -1.6244    0.9750    2.1223 C   0  0  0  0  0  0  0  0  0  0  0  0
   -1.3322    1.9532    1.7146 H   0  0  0  0  0  0  0  0  0  0  0  0
   -2.9492    0.7219    2.5037 C   0  0  0  0  0  0  0  0  0  0  0  0
   -3.7038    1.5159    2.4003 H   0  0  0  0  0  0  0  0  0  0  0  0
   -3.3160   -0.5423    2.9923 C   0  0  0  0  0  0  0  0  0  0  0  0
   -4.3611   -0.7408    3.2729 H   0  0  0  0  0  0  0  0  0  0  0  0
   -2.3548   -1.5587    3.1098 C   0  0  0  0  0  0  0  0  0  0  0  0
   -2.6435   -2.5523    3.4836 H   0  0  0  0  0  0  0  0  0  0  0  0
   -1.0261   -1.3188    2.7310 C   0  0  0  0  0  0  0  0  0  0  0  0
   -0.2675   -2.1121    2.7964 H   0  0  0  0  0  0  0  0  0  0  0  0
    3.6753   -1.0338   -0.2058 C   0  0  0  0  0  0  0  0  0  0  0  0
    4.0408   -1.2985    1.1287 C   0  0  0  0  0  0  0  0  0  0  0  0
    3.3995   -1.9407    1.7484 H   0  0  0  0  0  0  0  0  0  0  0  0
    5.2137   -0.7312    1.6486 C   0  0  0  0  0  0  0  0  0  0  0  0
    5.5002   -0.9343    2.6914 H   0  0  0  0  0  0  0  0  0  0  0  0
    6.0182    0.0898    0.8422 C   0  0  0  0  0  0  0  0  0  0  0  0
    6.9382    0.5318    1.2537 H   0  0  0  0  0  0  0  0  0  0  0  0
    5.6531    0.3451   -0.4898 C   0  0  0  0  0  0  0  0  0  0  0  0
    6.2847    0.9856   -1.1237 H   0  0  0  0  0  0  0  0  0  0  0  0
    4.4819   -0.2149   -1.0197 C   0  0  0  0  0  0  0  0  0  0  0  0
    4.1864   -0.0233   -2.0613 H   0  0  0  0  0  0  0  0  0  0  0  0
  1  3  1  0  0  0  0
  2  5  1  0  0  0  0
  2  1  1  0  0  0  0
  3 16  1  0  0  0  0
  4  1  1  0  0  0  0
  4 27  1  0  0  0  0
  5  6  1  0  0  0  0
  6  7  1  0  0  0  0
  6  8  2  0  0  0  0
  8  9  1  0  0  0  0
 10 11  1  0  0  0  0
 10  8  1  0  0  0  0
 12 10  2  0  0  0  0
 13 12  1  0  0  0  0
 14 12  1  0  0  0  0
 14  5  2  0  0  0  0
 15 14  1  0  0  0  0
 16 25  1  0  0  0  0
 17 16  2  0  0  0  0
 17 19  1  0  0  0  0
 18 17  1  0  0  0  0
 19 21  2  0  0  0  0
 20 19  1  0  0  0  0
 21 23  1  0  0  0  0
 21 22  1  0  0  0  0
 23 24  1  0  0  0  0
 25 26  1  0  0  0  0
 25 23  2  0  0  0  0
 27 28  1  0  0  0  0
 28 30  2  0  0  0  0
 28 29  1  0  0  0  0
 30 31  1  0  0  0  0
 32 33  1  0  0  0  0
 32 30  1  0  0  0  0
 34 32  2  0  0  0  0
 35 34  1  0  0  0  0
 36 34  1  0  0  0  0
 36 27  2  0  0  0  0
 37 36  1  0  0  0  0
M  END
