1
q = 0.0, confidence = 0.996

 50 50  0  0  0  0  0  0  0  0999 V2000
   -0.0059    0.4787    0.1435 P   0  0  0  0  0  2  0  0  0  0  0  0
   -1.9918    2.9016    0.6433 Si  0  0  0  0  0  0  0  0  0  0  0  0
    1.0647    3.2343   -0.6156 Si  0  0  0  0  0  0  0  0  0  0  0  0
   -1.7905   -1.2338    1.4606 O   0  0  0  0  0  0  0  0  0  0  0  0
   -0.3481    2.1308    0.0544 C   0  0  0  0  0  3  0  0  0  0  0  0
   -1.5803   -0.4555    0.3718 C   0  0  0  0  0  0  0  0  0  0  0  0
   -2.4523   -0.4490   -0.6861 C   0  0  0  0  0  0  0  0  0  0  0  0
   -1.0173   -1.0450    2.6565 C   0  0  0  0  0  0  0  0  0  0  0  0
   -1.9070   -1.2976    3.8572 C   0  0  0  0  0  0  0  0  0  0  0  0
   -3.7151   -1.1574   -0.8624 C   0  0  0  0  0  0  0  0  0  0  0  0
   -4.4766   -0.8754   -2.0277 C   0  0  0  0  0  0  0  0  0  0  0  0
   -5.7096   -1.4938   -2.2576 C   0  0  0  0  0  0  0  0  0  0  0  0
   -6.2166   -2.4193   -1.3300 C   0  0  0  0  0  0  0  0  0  0  0  0
   -5.4735   -2.7175   -0.1756 C   0  0  0  0  0  0  0  0  0  0  0  0
   -4.2395   -2.1001    0.0616 C   0  0  0  0  0  0  0  0  0  0  0  0
   -2.9556    1.8852    1.9215 C   0  0  0  0  0  0  0  0  0  0  0  0
   -1.5980    4.5251    1.5522 C   0  0  0  0  0  0  0  0  0  0  0  0
   -3.1032    3.2584   -0.8475 C   0  0  0  0  0  0  0  0  0  0  0  0
    2.4255    3.3044    0.7000 C   0  0  0  0  0  0  0  0  0  0  0  0
    1.6265    2.5477   -2.2904 C   0  0  0  0  0  0  0  0  0  0  0  0
    0.5254    5.0131   -0.9940 C   0  0  0  0  0  0  0  0  0  0  0  0
   -2.1558    0.2028   -1.5222 H   0  0  0  0  0  0  0  0  0  0  0  0
   -0.1604   -1.7512    2.6436 H   0  0  0  0  0  0  0  0  0  0  0  0
   -0.5975   -0.0132    2.6676 H   0  0  0  0  0  0  0  0  0  0  0  0
   -1.3181   -1.1955    4.7903 H   0  0  0  0  0  0  0  0  0  0  0  0
   -2.3233   -2.3239    3.8247 H   0  0  0  0  0  0  0  0  0  0  0  0
   -2.7489   -0.5786    3.8880 H   0  0  0  0  0  0  0  0  0  0  0  0
   -4.0815   -0.1525   -2.7593 H   0  0  0  0  0  0  0  0  0  0  0  0
   -6.2799   -1.2547   -3.1682 H   0  0  0  0  0  0  0  0  0  0  0  0
   -7.1856   -2.9094   -1.5085 H   0  0  0  0  0  0  0  0  0  0  0  0
   -5.8606   -3.4473    0.5521 H   0  0  0  0  0  0  0  0  0  0  0  0
   -3.6610   -2.3465    0.9597 H   0  0  0  0  0  0  0  0  0  0  0  0
   -3.3844    0.9428    1.5361 H   0  0  0  0  0  0  0  0  0  0  0  0
   -3.7944    2.5229    2.2724 H   0  0  0  0  0  0  0  0  0  0  0  0
   -2.3282    1.6581    2.8074 H   0  0  0  0  0  0  0  0  0  0  0  0
   -1.4017    5.3699    0.8670 H   0  0  0  0  0  0  0  0  0  0  0  0
   -0.7241    4.4148    2.2266 H   0  0  0  0  0  0  0  0  0  0  0  0
   -2.4722    4.7963    2.1798 H   0  0  0  0  0  0  0  0  0  0  0  0
   -3.4899    2.3153   -1.2829 H   0  0  0  0  0  0  0  0  0  0  0  0
   -2.5592    3.8094   -1.6409 H   0  0  0  0  0  0  0  0  0  0  0  0
   -3.9734    3.8735   -0.5376 H   0  0  0  0  0  0  0  0  0  0  0  0
    2.0805    3.9331    1.5468 H   0  0  0  0  0  0  0  0  0  0  0  0
    3.3595    3.7463    0.2974 H   0  0  0  0  0  0  0  0  0  0  0  0
    2.6615    2.3006    1.1025 H   0  0  0  0  0  0  0  0  0  0  0  0
    1.7663    1.4518   -2.2952 H   0  0  0  0  0  0  0  0  0  0  0  0
    2.5801    3.0193   -2.6048 H   0  0  0  0  0  0  0  0  0  0  0  0
    0.8563    2.7903   -3.0516 H   0  0  0  0  0  0  0  0  0  0  0  0
    0.4379    5.6437   -0.0895 H   0  0  0  0  0  0  0  0  0  0  0  0
   -0.4322    5.0595   -1.5509 H   0  0  0  0  0  0  0  0  0  0  0  0
    1.3062    5.4627   -1.6428 H   0  0  0  0  0  0  0  0  0  0  0  0
  1  6  1  0  0  0  0
  2 17  1  0  0  0  0
  2 16  1  0  0  0  0
  3  5  1  0  0  0  0
  3 19  1  0  0  0  0
  4  8  1  0  0  0  0
  5  1  1  0  0  0  0
  5  2  1  0  0  0  0
  6  4  1  0  0  0  0
  7  6  2  0  0  0  0
  8 24  1  0  0  0  0
  8  9  1  0  0  0  0
  9 27  1  0  0  0  0
  9 25  1  0  0  0  0
 10  7  1  0  0  0  0
 10 15  1  0  0  0  0
 11 10  2  0  0  0  0
 12 11  1  0  0  0  0
 12 13  2  0  0  0  0
 13 14  1  0  0  0  0
 14 15  2  0  0  0  0
 14 31  1  0  0  0  0
 15 32  1  0  0  0  0
 16 34  1  0  0  0  0
 16 35  1  0  0  0  0
 17 38  1  0  0  0  0
 17 37  1  0  0  0  0
 18 41  1  0  0  0  0
 18  2  1  0  0  0  0
 19 44  1  0  0  0  0
 19 42  1  0  0  0  0
 20  3  1  0  0  0  0
 21  3  1  0  0  0  0
 21 48  1  0  0  0  0
 22  7  1  0  0  0  0
 23  8  1  0  0  0  0
 26  9  1  0  0  0  0
 28 11  1  0  0  0  0
 29 12  1  0  0  0  0
 30 13  1  0  0  0  0
 33 16  1  0  0  0  0
 36 17  1  0  0  0  0
 39 18  1  0  0  0  0
 40 18  1  0  0  0  0
 43 19  1  0  0  0  0
 45 20  1  0  0  0  0
 46 20  1  0  0  0  0
 47 20  1  0  0  0  0
 49 21  1  0  0  0  0
 50 21  1  0  0  0  0
M  END
