1
q = 0.0, confidence = 1.0

 29 28  0  0  0  0  0  0  0  0999 V2000
    2.1880   -0.2606   -0.3725 P   0  0  0  0  0  0  0  0  0  0  0  0
    3.1993    1.2359   -0.8618 C   0  0  0  0  0  0  0  0  0  0  0  0
    2.6593    1.6522   -1.7391 H   0  0  0  0  0  0  0  0  0  0  0  0
    4.1926    0.8762   -1.2008 H   0  0  0  0  0  0  0  0  0  0  0  0
    3.3302    2.2930    0.1906 C   0  0  0  0  0  0  0  0  0  0  0  0
    2.3760    2.7051    0.5636 H   0  0  0  0  0  0  0  0  0  0  0  0
    4.4972    2.7680    0.6635 C   0  0  0  0  0  0  0  0  0  0  0  0
    5.4678    2.3864    0.3033 H   0  0  0  0  0  0  0  0  0  0  0  0
    4.5246    3.5638    1.4238 H   0  0  0  0  0  0  0  0  0  0  0  0
    2.4346   -1.3266   -1.9088 C   0  0  0  0  0  0  0  0  0  0  0  0
    3.4491   -1.0571   -2.2790 H   0  0  0  0  0  0  0  0  0  0  0  0
    1.3979   -0.9210   -2.9669 C   0  0  0  0  0  0  0  0  0  0  0  0
    0.3824   -1.2435   -2.6567 H   0  0  0  0  0  0  0  0  0  0  0  0
    1.3561    0.1738   -3.1328 H   0  0  0  0  0  0  0  0  0  0  0  0
    1.6309   -1.4105   -3.9355 H   0  0  0  0  0  0  0  0  0  0  0  0
    2.3890   -2.8321   -1.6327 C   0  0  0  0  0  0  0  0  0  0  0  0
    2.5034   -3.3857   -2.5880 H   0  0  0  0  0  0  0  0  0  0  0  0
    3.1996   -3.1657   -0.9557 H   0  0  0  0  0  0  0  0  0  0  0  0
    1.4224   -3.1241   -1.1760 H   0  0  0  0  0  0  0  0  0  0  0  0
    3.1932   -1.0529    0.9950 C   0  0  0  0  0  0  0  0  0  0  0  0
    2.7591   -2.0732    1.0477 H   0  0  0  0  0  0  0  0  0  0  0  0
    2.9121   -0.3604    2.3354 C   0  0  0  0  0  0  0  0  0  0  0  0
    3.3076    0.6737    2.3505 H   0  0  0  0  0  0  0  0  0  0  0  0
    1.8239   -0.3282    2.5389 H   0  0  0  0  0  0  0  0  0  0  0  0
    3.3970   -0.9244    3.1593 H   0  0  0  0  0  0  0  0  0  0  0  0
    4.6900   -1.1462    0.6840 C   0  0  0  0  0  0  0  0  0  0  0  0
    5.1943   -1.7605    1.4592 H   0  0  0  0  0  0  0  0  0  0  0  0
    4.8963   -1.6197   -0.2972 H   0  0  0  0  0  0  0  0  0  0  0  0
    5.1722   -0.1485    0.6947 H   0  0  0  0  0  0  0  0  0  0  0  0
  1 20  1  0  0  0  0
  2  1  1  0  0  0  0
  2  5  1  0  0  0  0
  3  2  1  0  0  0  0
  4  2  1  0  0  0  0
  5  6  1  0  0  0  0
  5  7  2  0  0  0  0
  7  9  1  0  0  0  0
  8  7  1  0  0  0  0
 10 16  1  0  0  0  0
 10  1  1  0  0  0  0
 11 10  1  0  0  0  0
 12 13  1  0  0  0  0
 12 10  1  0  0  0  0
 14 12  1  0  0  0  0
 15 12  1  0  0  0  0
 16 19  1  0  0  0  0
 16 18  1  0  0  0  0
 17 16  1  0  0  0  0
 20 21  1  0  0  0  0
 20 22  1  0  0  0  0
 22 23  1  0  0  0  0
 22 24  1  0  0  0  0
 22 25  1  0  0  0  0
 26 29  1  0  0  0  0
 26 20  1  0  0  0  0
 26 27  1  0  0  0  0
 28 26  1  0  0  0  0
M  END
