1
q = 0.0, confidence = 0.998

 69 75  0  0  0  0  0  0  0  0999 V2000
   -1.7283   -0.4161   -0.5830 P   0  0  0  0  0  0  0  0  0  0  0  0
   -1.0612    1.2591   -0.9956 C   0  0  0  0  0  0  0  0  0  0  0  0
    0.0118    1.7751   -0.2518 C   0  0  0  0  0  0  0  0  0  0  0  0
    0.4999    3.0962   -0.5386 C   0  0  0  0  0  0  0  0  0  0  0  0
    1.5765    3.6717    0.2014 C   0  0  0  0  0  0  0  0  0  0  0  0
    2.0252    3.0873    1.0179 H   0  0  0  0  0  0  0  0  0  0  0  0
    2.0467    4.9412   -0.1005 C   0  0  0  0  0  0  0  0  0  0  0  0
    2.8772    5.3700    0.4804 H   0  0  0  0  0  0  0  0  0  0  0  0
    1.4601    5.6945   -1.1528 C   0  0  0  0  0  0  0  0  0  0  0  0
    1.8428    6.7003   -1.3832 H   0  0  0  0  0  0  0  0  0  0  0  0
    0.4075    5.1668   -1.8851 C   0  0  0  0  0  0  0  0  0  0  0  0
   -0.0529    5.7461   -2.7006 H   0  0  0  0  0  0  0  0  0  0  0  0
   -0.0996    3.8650   -1.6016 C   0  0  0  0  0  0  0  0  0  0  0  0
   -1.1771    3.2961   -2.3394 C   0  0  0  0  0  0  0  0  0  0  0  0
   -1.6319    3.8802   -3.1545 H   0  0  0  0  0  0  0  0  0  0  0  0
   -1.6481    2.0284   -2.0446 C   0  0  0  0  0  0  0  0  0  0  0  0
   -2.4742    1.5996   -2.6308 H   0  0  0  0  0  0  0  0  0  0  0  0
    0.6574    0.9640    0.8253 C   0  0  0  0  0  0  0  0  0  0  0  0
    1.7931    0.1905    0.5367 C   0  0  0  0  0  0  0  0  0  0  0  0
    2.3302   -0.6507    1.5566 C   0  0  0  0  0  0  0  0  0  0  0  0
    3.2136   -1.2594    1.3176 H   0  0  0  0  0  0  0  0  0  0  0  0
    1.7469   -0.7313    2.8081 C   0  0  0  0  0  0  0  0  0  0  0  0
    2.1550   -1.4177    3.5656 H   0  0  0  0  0  0  0  0  0  0  0  0
    0.6141    0.0657    3.1399 C   0  0  0  0  0  0  0  0  0  0  0  0
    0.0029    0.0200    4.4271 C   0  0  0  0  0  0  0  0  0  0  0  0
    0.4133   -0.6726    5.1784 H   0  0  0  0  0  0  0  0  0  0  0  0
   -1.0784    0.8330    4.7325 C   0  0  0  0  0  0  0  0  0  0  0  0
   -1.5405    0.7866    5.7303 H   0  0  0  0  0  0  0  0  0  0  0  0
   -1.5856    1.7356    3.7603 C   0  0  0  0  0  0  0  0  0  0  0  0
   -2.4371    2.3865    4.0091 H   0  0  0  0  0  0  0  0  0  0  0  0
   -1.0221    1.7938    2.4948 C   0  0  0  0  0  0  0  0  0  0  0  0
   -1.4226    2.4905    1.7447 H   0  0  0  0  0  0  0  0  0  0  0  0
    0.0765    0.9548    2.1406 C   0  0  0  0  0  0  0  0  0  0  0  0
    2.4063    0.1639   -0.8542 C   0  0  0  0  0  0  0  0  0  0  0  0
    2.0161   -0.7402   -1.3697 H   0  0  0  0  0  0  0  0  0  0  0  0
    2.0593    1.0449   -1.4280 H   0  0  0  0  0  0  0  0  0  0  0  0
    3.9191    0.1082   -0.8558 C   0  0  0  0  0  0  0  0  0  0  0  0
    4.5928   -1.1170   -1.0380 C   0  0  0  0  0  0  0  0  0  0  0  0
    3.9923   -2.0297   -1.1921 H   0  0  0  0  0  0  0  0  0  0  0  0
    5.9961   -1.1655   -1.0096 C   0  0  0  0  0  0  0  0  0  0  0  0
    6.5109   -2.1281   -1.1548 H   0  0  0  0  0  0  0  0  0  0  0  0
    6.7427    0.0048   -0.8008 C   0  0  0  0  0  0  0  0  0  0  0  0
    7.8427   -0.0350   -0.7811 H   0  0  0  0  0  0  0  0  0  0  0  0
    6.0780    1.2293   -0.6211 C   0  0  0  0  0  0  0  0  0  0  0  0
    6.6565    2.1527   -0.4621 H   0  0  0  0  0  0  0  0  0  0  0  0
    4.6766    1.2789   -0.6478 C   0  0  0  0  0  0  0  0  0  0  0  0
    4.1566    2.2411   -0.5107 H   0  0  0  0  0  0  0  0  0  0  0  0
   -2.6868   -0.8676   -2.0855 C   0  0  0  0  0  0  0  0  0  0  0  0
   -4.0934   -0.8558   -2.1442 C   0  0  0  0  0  0  0  0  0  0  0  0
   -4.6788   -0.5576   -1.2620 H   0  0  0  0  0  0  0  0  0  0  0  0
   -4.7489   -1.2312   -3.3285 C   0  0  0  0  0  0  0  0  0  0  0  0
   -5.8489   -1.2247   -3.3661 H   0  0  0  0  0  0  0  0  0  0  0  0
   -4.0084   -1.6140   -4.4568 C   0  0  0  0  0  0  0  0  0  0  0  0
   -4.5258   -1.9076   -5.3827 H   0  0  0  0  0  0  0  0  0  0  0  0
   -2.6040   -1.6330   -4.3993 C   0  0  0  0  0  0  0  0  0  0  0  0
   -2.0179   -1.9434   -5.2773 H   0  0  0  0  0  0  0  0  0  0  0  0
   -1.9449   -1.2716   -3.2174 C   0  0  0  0  0  0  0  0  0  0  0  0
   -0.8444   -1.3082   -3.1652 H   0  0  0  0  0  0  0  0  0  0  0  0
   -2.9792   -0.0762    0.7194 C   0  0  0  0  0  0  0  0  0  0  0  0
   -3.0819   -0.9703    1.8020 C   0  0  0  0  0  0  0  0  0  0  0  0
   -2.4128   -1.8453    1.8455 H   0  0  0  0  0  0  0  0  0  0  0  0
   -4.0037   -0.7271    2.8306 C   0  0  0  0  0  0  0  0  0  0  0  0
   -4.0674   -1.4228    3.6805 H   0  0  0  0  0  0  0  0  0  0  0  0
   -4.8271    0.4081    2.7825 C   0  0  0  0  0  0  0  0  0  0  0  0
   -5.5454    0.6022    3.5936 H   0  0  0  0  0  0  0  0  0  0  0  0
   -4.7275    1.3039    1.7044 C   0  0  0  0  0  0  0  0  0  0  0  0
   -5.3673    2.1988    1.6689 H   0  0  0  0  0  0  0  0  0  0  0  0
   -3.8038    1.0677    0.6768 C   0  0  0  0  0  0  0  0  0  0  0  0
   -3.7102    1.7842   -0.1538 H   0  0  0  0  0  0  0  0  0  0  0  0
  1 59  1  0  0  0  0
  2  1  1  0  0  0  0
  2  3  1  0  0  0  0
  3 18  1  0  0  0  0
  4  3  2  0  0  0  0
  4  5  1  0  0  0  0
  5  6  1  0  0  0  0
  7  5  2  0  0  0  0
  7  8  1  0  0  0  0
  9  7  1  0  0  0  0
 10  9  1  0  0  0  0
 11 13  1  0  0  0  0
 11  9  2  0  0  0  0
 12 11  1  0  0  0  0
 13  4  1  0  0  0  0
 14 16  1  0  0  0  0
 14 13  2  0  0  0  0
 15 14  1  0  0  0  0
 16  2  2  0  0  0  0
 17 16  1  0  0  0  0
 18 33  1  0  0  0  0
 19 18  2  0  0  0  0
 19 20  1  0  0  0  0
 20 22  2  0  0  0  0
 21 20  1  0  0  0  0
 22 24  1  0  0  0  0
 22 23  1  0  0  0  0
 24 25  1  0  0  0  0
 25 27  2  0  0  0  0
 25 26  1  0  0  0  0
 27 28  1  0  0  0  0
 29 30  1  0  0  0  0
 29 27  1  0  0  0  0
 31 29  2  0  0  0  0
 32 31  1  0  0  0  0
 33 31  1  0  0  0  0
 33 24  2  0  0  0  0
 34 19  1  0  0  0  0
 35 34  1  0  0  0  0
 36 34  1  0  0  0  0
 37 34  1  0  0  0  0
 37 46  1  0  0  0  0
 38 40  1  0  0  0  0
 38 37  2  0  0  0  0
 39 38  1  0  0  0  0
 40 42  2  0  0  0  0
 41 40  1  0  0  0  0
 42 43  1  0  0  0  0
 42 44  1  0  0  0  0
 44 45  1  0  0  0  0
 46 44  2  0  0  0  0
 46 47  1  0  0  0  0
 48  1  1  0  0  0  0
 49 48  1  0  0  0  0
 49 50  1  0  0  0  0
 51 49  2  0  0  0  0
 52 51  1  0  0  0  0
 53 55  2  0  0  0  0
 53 51  1  0  0  0  0
 54 53  1  0  0  0  0
 55 57  1  0  0  0  0
 56 55  1  0  0  0  0
 57 58  1  0  0  0  0
 57 48  2  0  0  0  0
 59 60  1  0  0  0  0
 60 61  1  0  0  0  0
 60 62  2  0  0  0  0
 62 63  1  0  0  0  0
 64 62  1  0  0  0  0
 64 65  1  0  0  0  0
 66 64  2  0  0  0  0
 67 66  1  0  0  0  0
 68 59  2  0  0  0  0
 68 66  1  0  0  0  0
 69 68  1  0  0  0  0
M  END
