1
q = 0.0, confidence = 0.986

  8  8  0  0  0  0  0  0  0  0999 V2000
   -1.3318    0.7192   -1.3677 P   0  0  0  0  0  0  0  0  0  0  0  0
   -0.8228    1.4747   -2.4783 H   0  0  0  0  0  0  0  0  0  0  0  0
   -3.0896    0.4970   -1.9146 C   0  0  0  0  0  0  0  0  0  0  0  0
   -3.3246    0.6710   -2.9766 H   0  0  0  0  0  0  0  0  0  0  0  0
   -3.5864   -0.3864   -1.4811 H   0  0  0  0  0  0  0  0  0  0  0  0
   -2.8803    1.6941   -1.0154 C   0  0  0  0  0  0  0  0  0  0  0  0
   -3.2429    1.6118    0.0228 H   0  0  0  0  0  0  0  0  0  0  0  0
   -2.9764    2.7020   -1.4500 H   0  0  0  0  0  0  0  0  0  0  0  0
  1  6  1  0  0  0  0
  2  1  1  0  0  0  0
  3  5  1  0  0  0  0
  3  1  1  0  0  0  0
  3  6  1  0  0  0  0
  4  3  1  0  0  0  0
  6  7  1  0  0  0  0
  8  6  1  0  0  0  0
M  END
