1
q = 0.0, confidence = 0.996

 72 73  0  0  0  0  0  0  0  0999 V2000
   -0.3181   -0.7512    0.3791 P   0  0  0  0  0  0  0  0  0  0  0  0
    0.4256    0.1261    1.8177 C   0  0  0  0  0  0  0  0  0  0  0  0
   -0.0365   -0.2130    3.2579 C   0  0  0  0  0  0  0  0  0  0  0  0
    1.0285    0.2361    4.2784 C   0  0  0  0  0  0  0  0  0  0  0  0
   -1.3502    0.5438    3.5682 C   0  0  0  0  0  0  0  0  0  0  0  0
   -0.2460   -1.7336    3.4466 C   0  0  0  0  0  0  0  0  0  0  0  0
    1.4550    0.9784    1.5579 C   0  0  0  0  0  0  0  0  0  0  0  0
    2.2062    1.3903   -0.0682 P   0  0  0  0  0  0  0  0  0  0  0  0
    3.8367    1.6207    0.4836 N   0  0  0  0  0  0  0  0  0  0  0  0
    4.2015    2.6221    1.4979 C   0  0  0  0  0  0  0  0  0  0  0  0
    4.8872    1.9905    2.7205 C   0  0  0  0  0  0  0  0  0  0  0  0
    5.0280    3.7818    0.9184 C   0  0  0  0  0  0  0  0  0  0  0  0
    4.9408    0.9111   -0.1982 C   0  0  0  0  0  0  0  0  0  0  0  0
    4.8657   -0.6036    0.0180 C   0  0  0  0  0  0  0  0  0  0  0  0
    5.0575    1.2643   -1.6872 C   0  0  0  0  0  0  0  0  0  0  0  0
    1.4820    2.9376   -0.3430 N   0  0  0  0  0  0  0  0  0  0  0  0
    1.3473    3.4260   -1.7357 C   0  0  0  0  0  0  0  0  0  0  0  0
    1.1018    2.3049   -2.7532 C   0  0  0  0  0  0  0  0  0  0  0  0
    2.5459    4.2799   -2.1881 C   0  0  0  0  0  0  0  0  0  0  0  0
    0.8723    3.7583    0.7262 C   0  0  0  0  0  0  0  0  0  0  0  0
   -0.6607    3.6714    0.7349 C   0  0  0  0  0  0  0  0  0  0  0  0
    1.3440    5.2198    0.7451 C   0  0  0  0  0  0  0  0  0  0  0  0
   -0.9224    0.4802   -0.6945 O   0  0  0  0  0  0  0  0  0  0  0  0
   -1.9185   -1.1138    0.9389 O   0  0  0  0  0  0  0  0  0  0  0  0
   -2.2581    0.6795   -0.4857 C   0  0  0  0  0  0  0  0  0  0  0  0
   -2.8134   -0.2131    0.4481 C   0  0  0  0  0  0  0  0  0  0  0  0
   -4.1624   -0.1553    0.8068 C   0  0  0  0  0  0  0  0  0  0  0  0
   -4.9847    0.8148    0.1791 C   0  0  0  0  0  0  0  0  0  0  0  0
   -4.4385    1.6950   -0.7834 C   0  0  0  0  0  0  0  0  0  0  0  0
   -3.0626    1.6260   -1.1310 C   0  0  0  0  0  0  0  0  0  0  0  0
   -4.7702   -1.2575    1.9893 Cl  0  0  0  0  0  0  0  0  0  0  0  0
   -6.6560    0.9131    0.6054 Cl  0  0  0  0  0  0  0  0  0  0  0  0
   -5.4472    2.8685   -1.5535 Cl  0  0  0  0  0  0  0  0  0  0  0  0
   -2.3932    2.6675   -2.3359 Cl  0  0  0  0  0  0  0  0  0  0  0  0
    2.0128   -0.2312    4.0731 H   0  0  0  0  0  0  0  0  0  0  0  0
    0.7088   -0.0733    5.2933 H   0  0  0  0  0  0  0  0  0  0  0  0
    1.1581    1.3367    4.2989 H   0  0  0  0  0  0  0  0  0  0  0  0
   -2.1972    0.1771    2.9616 H   0  0  0  0  0  0  0  0  0  0  0  0
   -1.2320    1.6313    3.3884 H   0  0  0  0  0  0  0  0  0  0  0  0
   -1.6224    0.3974    4.6338 H   0  0  0  0  0  0  0  0  0  0  0  0
    0.6833   -2.2964    3.2299 H   0  0  0  0  0  0  0  0  0  0  0  0
   -1.0622   -2.1294    2.8157 H   0  0  0  0  0  0  0  0  0  0  0  0
   -0.5233   -1.9377    4.5007 H   0  0  0  0  0  0  0  0  0  0  0  0
    1.9775    1.3941    2.4362 H   0  0  0  0  0  0  0  0  0  0  0  0
    3.2453    3.0639    1.8482 H   0  0  0  0  0  0  0  0  0  0  0  0
    5.0836    2.7535    3.5014 H   0  0  0  0  0  0  0  0  0  0  0  0
    5.8628    1.5372    2.4499 H   0  0  0  0  0  0  0  0  0  0  0  0
    4.2567    1.1918    3.1594 H   0  0  0  0  0  0  0  0  0  0  0  0
    5.1934    4.5673    1.6836 H   0  0  0  0  0  0  0  0  0  0  0  0
    4.5076    4.2369    0.0544 H   0  0  0  0  0  0  0  0  0  0  0  0
    6.0264    3.4392    0.5767 H   0  0  0  0  0  0  0  0  0  0  0  0
    5.8708    1.2649    0.2955 H   0  0  0  0  0  0  0  0  0  0  0  0
    5.7497   -1.1147   -0.4155 H   0  0  0  0  0  0  0  0  0  0  0  0
    3.9636   -1.0203   -0.4711 H   0  0  0  0  0  0  0  0  0  0  0  0
    4.8077   -0.8494    1.0955 H   0  0  0  0  0  0  0  0  0  0  0  0
    5.9296    0.7549   -2.1456 H   0  0  0  0  0  0  0  0  0  0  0  0
    5.1813    2.3556   -1.8296 H   0  0  0  0  0  0  0  0  0  0  0  0
    4.1523    0.9406   -2.2394 H   0  0  0  0  0  0  0  0  0  0  0  0
    0.4398    4.0698   -1.7444 H   0  0  0  0  0  0  0  0  0  0  0  0
    2.0015    1.6732   -2.8901 H   0  0  0  0  0  0  0  0  0  0  0  0
    0.8542    2.7495   -3.7381 H   0  0  0  0  0  0  0  0  0  0  0  0
    0.2688    1.6509   -2.4412 H   0  0  0  0  0  0  0  0  0  0  0  0
    2.3701    4.6912   -3.2035 H   0  0  0  0  0  0  0  0  0  0  0  0
    3.4617    3.6578   -2.2313 H   0  0  0  0  0  0  0  0  0  0  0  0
    2.7406    5.1285   -1.5074 H   0  0  0  0  0  0  0  0  0  0  0  0
    1.2122    3.3048    1.6807 H   0  0  0  0  0  0  0  0  0  0  0  0
   -1.1025    4.0647   -0.2021 H   0  0  0  0  0  0  0  0  0  0  0  0
   -1.0814    4.2581    1.5770 H   0  0  0  0  0  0  0  0  0  0  0  0
   -0.9869    2.6212    0.8471 H   0  0  0  0  0  0  0  0  0  0  0  0
    0.9292    5.7357    1.6347 H   0  0  0  0  0  0  0  0  0  0  0  0
    0.9943    5.7777   -0.1469 H   0  0  0  0  0  0  0  0  0  0  0  0
    2.4482    5.2915    0.7893 H   0  0  0  0  0  0  0  0  0  0  0  0
  1 24  1  0  0  0  0
  1  2  1  0  0  0  0
  2  3  1  0  0  0  0
  3  6  1  0  0  0  0
  3  5  1  0  0  0  0
  3  4  1  0  0  0  0
  4 37  1  0  0  0  0
  4 36  1  0  0  0  0
  5 40  1  0  0  0  0
  6 43  1  0  0  0  0
  7  2  2  0  0  0  0
  7 44  1  0  0  0  0
  8  9  1  0  0  0  0
  8  7  1  0  0  0  0
  9 10  1  0  0  0  0
 10 45  1  0  0  0  0
 10 11  1  0  0  0  0
 11 48  1  0  0  0  0
 11 46  1  0  0  0  0
 12 10  1  0  0  0  0
 12 49  1  0  0  0  0
 13 14  1  0  0  0  0
 13 52  1  0  0  0  0
 13  9  1  0  0  0  0
 14 55  1  0  0  0  0
 15 13  1  0  0  0  0
 16  8  1  0  0  0  0
 16 20  1  0  0  0  0
 17 16  1  0  0  0  0
 18 62  1  0  0  0  0
 18 17  1  0  0  0  0
 19 17  1  0  0  0  0
 19 65  1  0  0  0  0
 20 21  1  0  0  0  0
 20 22  1  0  0  0  0
 20 66  1  0  0  0  0
 21 69  1  0  0  0  0
 21 68  1  0  0  0  0
 22 72  1  0  0  0  0
 22 70  1  0  0  0  0
 23 25  1  0  0  0  0
 23  1  1  0  0  0  0
 25 26  1  0  0  0  0
 26 27  2  0  0  0  0
 26 24  1  0  0  0  0
 27 31  1  0  0  0  0
 28 32  1  0  0  0  0
 28 27  1  0  0  0  0
 29 28  2  0  0  0  0
 30 29  1  0  0  0  0
 30 25  2  0  0  0  0
 33 29  1  0  0  0  0
 34 30  1  0  0  0  0
 35  4  1  0  0  0  0
 38  5  1  0  0  0  0
 39  5  1  0  0  0  0
 41  6  1  0  0  0  0
 42  6  1  0  0  0  0
 47 11  1  0  0  0  0
 50 12  1  0  0  0  0
 51 12  1  0  0  0  0
 53 14  1  0  0  0  0
 54 14  1  0  0  0  0
 56 15  1  0  0  0  0
 57 15  1  0  0  0  0
 58 15  1  0  0  0  0
 59 17  1  0  0  0  0
 60 18  1  0  0  0  0
 61 18  1  0  0  0  0
 63 19  1  0  0  0  0
 64 19  1  0  0  0  0
 67 21  1  0  0  0  0
 71 22  1  0  0  0  0
M  END
