1
q = 0.0, confidence = 0.998

 37 40  0  0  1  0  0  0  0  0999 V2000
    0.4604    0.4770    0.4168 P   0  0  2  0  0  0  0  0  0  0  0  0
    1.4554    0.1351    2.0213 C   0  0  2  0  0  0  0  0  0  0  0  0
    2.7581    0.8649    1.6917 C   0  0  0  0  0  0  0  0  0  0  0  0
    3.1317    0.6263    0.4110 C   0  0  0  0  0  0  0  0  0  0  0  0
    4.4327    0.8724   -0.2776 C   0  0  0  0  0  0  0  0  0  0  0  0
    5.3297   -0.3915   -0.3464 C   0  0  0  0  0  0  0  0  0  0  0  0
    4.8207   -1.6444   -1.1065 C   0  0  0  0  0  0  0  0  0  0  0  0
    4.1404   -2.7768   -0.2941 C   0  0  0  0  0  0  0  0  0  0  0  0
    2.5943   -2.8013   -0.1751 C   0  0  0  0  0  0  0  0  0  0  0  0
    2.0462   -1.5776    0.4788 C   0  0  0  0  0  0  0  0  0  0  0  0
    2.0769   -0.2422   -0.2738 C   0  0  1  0  0  0  0  0  0  0  0  0
    1.6667   -1.3613    1.7635 C   0  0  0  0  0  0  0  0  0  0  0  0
    0.5004    2.2858    0.1133 C   0  0  0  0  0  0  0  0  0  0  0  0
   -0.1823    3.1422    1.0013 C   0  0  0  0  0  0  0  0  0  0  0  0
   -0.2326    4.5210    0.7514 C   0  0  0  0  0  0  0  0  0  0  0  0
    0.3815    5.0534   -0.3940 C   0  0  0  0  0  0  0  0  0  0  0  0
    1.0495    4.2024   -1.2882 C   0  0  0  0  0  0  0  0  0  0  0  0
    1.1120    2.8238   -1.0359 C   0  0  0  0  0  0  0  0  0  0  0  0
    0.9570    0.4006    2.9693 H   0  0  0  0  0  0  0  0  0  0  0  0
    3.3322    1.4295    2.4396 H   0  0  0  0  0  0  0  0  0  0  0  0
    4.2484    1.2392   -1.3127 H   0  0  0  0  0  0  0  0  0  0  0  0
    4.9951    1.6711    0.2488 H   0  0  0  0  0  0  0  0  0  0  0  0
    6.2811   -0.0697   -0.8201 H   0  0  0  0  0  0  0  0  0  0  0  0
    5.5956   -0.6868    0.6918 H   0  0  0  0  0  0  0  0  0  0  0  0
    4.1803   -1.3450   -1.9656 H   0  0  0  0  0  0  0  0  0  0  0  0
    5.7157   -2.1013   -1.5766 H   0  0  0  0  0  0  0  0  0  0  0  0
    4.4303   -3.7455   -0.7529 H   0  0  0  0  0  0  0  0  0  0  0  0
    4.5715   -2.7881    0.7307 H   0  0  0  0  0  0  0  0  0  0  0  0
    2.3014   -3.7019    0.4030 H   0  0  0  0  0  0  0  0  0  0  0  0
    2.1512   -2.9110   -1.1892 H   0  0  0  0  0  0  0  0  0  0  0  0
    2.1515   -0.3274   -1.3718 H   0  0  0  0  0  0  0  0  0  0  0  0
    1.5645   -2.1256    2.5461 H   0  0  0  0  0  0  0  0  0  0  0  0
   -0.6842    2.7318    1.8915 H   0  0  0  0  0  0  0  0  0  0  0  0
   -0.7617    5.1834    1.4532 H   0  0  0  0  0  0  0  0  0  0  0  0
    0.3340    6.1346   -0.5929 H   0  0  0  0  0  0  0  0  0  0  0  0
    1.5269    4.6141   -2.1904 H   0  0  0  0  0  0  0  0  0  0  0  0
    1.6368    2.1641   -1.7437 H   0  0  0  0  0  0  0  0  0  0  0  0
  1 13  1  6  0  0  0
  1  2  1  0  0  0  0
  2 19  1  1  0  0  0
  3  2  1  0  0  0  0
  3 20  1  0  0  0  0
  4  3  2  0  0  0  0
  5 22  1  0  0  0  0
  5  4  1  0  0  0  0
  6  5  1  0  0  0  0
  6 24  1  0  0  0  0
  7  6  1  0  0  0  0
  7  8  1  0  0  0  0
  8  9  1  0  0  0  0
  8 28  1  0  0  0  0
  9 29  1  0  0  0  0
  9 10  1  0  0  0  0
 10 12  2  0  0  0  0
 11 31  1  6  0  0  0
 11  4  1  0  0  0  0
 11  1  1  0  0  0  0
 11 10  1  0  0  0  0
 12  2  1  0  0  0  0
 12 32  1  0  0  0  0
 13 14  1  0  0  0  0
 14 33  1  0  0  0  0
 15 14  2  0  0  0  0
 15 34  1  0  0  0  0
 16 15  1  0  0  0  0
 17 18  1  0  0  0  0
 17 16  2  0  0  0  0
 18 13  2  0  0  0  0
 21  5  1  0  0  0  0
 23  6  1  0  0  0  0
 25  7  1  0  0  0  0
 26  7  1  0  0  0  0
 27  8  1  0  0  0  0
 30  9  1  0  0  0  0
 35 16  1  0  0  0  0
 36 17  1  0  0  0  0
 37 18  1  0  0  0  0
M  END
