1
q = 0.0, confidence = 0.998

 18 19  0  0  1  0  0  0  0  0999 V2000
   -2.3087   -0.7643    0.0005 P   0  0  1  0  0  0  0  0  0  0  0  0
   -3.0790   -0.6435    1.4674 O   0  0  0  0  0  0  0  0  0  0  0  0
   -3.2690   -1.8888   -0.7533 O   0  0  0  0  0  0  0  0  0  0  0  0
   -2.8248    0.6325   -0.7350 O   0  0  0  0  0  0  0  0  0  0  0  0
   -4.5167   -0.5577    1.4107 C   0  0  0  0  0  0  0  0  0  0  0  0
   -4.8291    0.2675    2.0864 H   0  0  0  0  0  0  0  0  0  0  0  0
   -4.9521   -1.5068    1.7972 H   0  0  0  0  0  0  0  0  0  0  0  0
   -4.6554   -1.5182   -0.8914 C   0  0  0  0  0  0  0  0  0  0  0  0
   -5.2659   -2.3931   -0.5809 H   0  0  0  0  0  0  0  0  0  0  0  0
   -4.8673   -1.3096   -1.9643 H   0  0  0  0  0  0  0  0  0  0  0  0
   -4.2270    0.9268   -0.5753 C   0  0  0  0  0  0  0  0  0  0  0  0
   -4.6184    1.2169   -1.5740 H   0  0  0  0  0  0  0  0  0  0  0  0
   -4.3396    1.7979    0.1091 H   0  0  0  0  0  0  0  0  0  0  0  0
   -5.0054   -0.2881   -0.0269 C   0  0  2  0  0  0  0  0  0  0  0  0
   -6.5098   -0.0217   -0.0495 C   0  0  0  0  0  0  0  0  0  0  0  0
   -6.8761    0.1068   -1.0881 H   0  0  0  0  0  0  0  0  0  0  0  0
   -6.7590    0.8991    0.5157 H   0  0  0  0  0  0  0  0  0  0  0  0
   -7.0696   -0.8628    0.4072 H   0  0  0  0  0  0  0  0  0  0  0  0
  1  3  1  6  0  0  0
  1  2  1  0  0  0  0
  4 11  1  0  0  0  0
  4  1  1  0  0  0  0
  5  2  1  0  0  0  0
  5  7  1  0  0  0  0
  5  6  1  0  0  0  0
  8  3  1  0  0  0  0
  8  9  1  0  0  0  0
  8 14  1  0  0  0  0
 10  8  1  0  0  0  0
 11 14  1  0  0  0  0
 11 13  1  0  0  0  0
 12 11  1  0  0  0  0
 14 15  1  6  0  0  0
 14  5  1  0  0  0  0
 15 18  1  0  0  0  0
 15 17  1  0  0  0  0
 16 15  1  0  0  0  0
M  END
