1
q = 0.0, confidence = 0.998

 65 68  0  0  1  0  0  0  0  0999 V2000
   -0.2191    0.0050    0.7204 P   0  0  1  0  0  0  0  0  0  0  0  0
    2.0324    0.6011    0.6174 P   0  0  1  0  0  0  0  0  0  0  0  0
    0.5874   -1.5176    1.1647 N   0  0  0  0  0  2  0  0  0  0  0  0
    1.8368   -1.2518    0.8801 C   0  0  2  0  0  3  0  0  0  0  0  0
    2.9016   -2.2611    0.9980 C   0  0  0  0  0  0  0  0  0  0  0  0
    2.6300   -3.6091    0.6714 C   0  0  0  0  0  0  0  0  0  0  0  0
    1.6306   -3.8699    0.2944 H   0  0  0  0  0  0  0  0  0  0  0  0
    3.6307   -4.5785    0.8093 C   0  0  0  0  0  0  0  0  0  0  0  0
    3.4195   -5.6245    0.5404 H   0  0  0  0  0  0  0  0  0  0  0  0
    4.9022   -4.2186    1.2891 C   0  0  0  0  0  0  0  0  0  0  0  0
    5.6856   -4.9838    1.3990 H   0  0  0  0  0  0  0  0  0  0  0  0
    5.1744   -2.8823    1.6270 C   0  0  0  0  0  0  0  0  0  0  0  0
    6.1669   -2.6009    2.0104 H   0  0  0  0  0  0  0  0  0  0  0  0
    4.1825   -1.9051    1.4750 C   0  0  0  0  0  0  0  0  0  0  0  0
    4.3842   -0.8551    1.7385 H   0  0  0  0  0  0  0  0  0  0  0  0
   -0.7452    0.6957    2.4389 C   0  0  1  0  0  0  0  0  0  0  0  0
   -1.2142    2.1020    2.1397 C   0  0  0  0  0  0  0  0  0  0  0  0
   -2.5862    2.1228    2.2377 C   0  0  0  0  0  0  0  0  0  0  0  0
   -3.0735    0.7820    2.6149 C   0  0  0  0  0  0  0  0  0  0  0  0
   -2.0022   -0.0676    2.7799 C   0  0  0  0  0  0  0  0  0  0  0  0
    0.3715    0.5806    3.4799 C   0  0  0  0  0  0  0  0  0  0  0  0
    1.2585    1.1828    3.2034 H   0  0  0  0  0  0  0  0  0  0  0  0
    0.6929   -0.4706    3.6127 H   0  0  0  0  0  0  0  0  0  0  0  0
   -0.0115    0.9522    4.4527 H   0  0  0  0  0  0  0  0  0  0  0  0
   -0.2754    3.2472    1.9194 C   0  0  0  0  0  0  0  0  0  0  0  0
   -0.7508    4.0714    1.3527 H   0  0  0  0  0  0  0  0  0  0  0  0
    0.6400    2.9402    1.3735 H   0  0  0  0  0  0  0  0  0  0  0  0
    0.0737    3.6718    2.8879 H   0  0  0  0  0  0  0  0  0  0  0  0
   -3.4883    3.3060    2.0771 C   0  0  0  0  0  0  0  0  0  0  0  0
   -4.0178    3.5329    3.0274 H   0  0  0  0  0  0  0  0  0  0  0  0
   -4.2698    3.1183    1.3133 H   0  0  0  0  0  0  0  0  0  0  0  0
   -2.9314    4.2145    1.7787 H   0  0  0  0  0  0  0  0  0  0  0  0
   -4.5244    0.4647    2.7984 C   0  0  0  0  0  0  0  0  0  0  0  0
   -4.6867   -0.5962    3.0660 H   0  0  0  0  0  0  0  0  0  0  0  0
   -5.0958    0.6715    1.8686 H   0  0  0  0  0  0  0  0  0  0  0  0
   -4.9822    1.0925    3.5926 H   0  0  0  0  0  0  0  0  0  0  0  0
   -1.9709   -1.4628    3.3188 C   0  0  0  0  0  0  0  0  0  0  0  0
   -1.5897   -1.4669    4.3647 H   0  0  0  0  0  0  0  0  0  0  0  0
   -1.2907   -2.1139    2.7336 H   0  0  0  0  0  0  0  0  0  0  0  0
   -2.9742   -1.9267    3.3279 H   0  0  0  0  0  0  0  0  0  0  0  0
    2.6147    1.0150   -1.1760 C   0  0  1  0  0  0  0  0  0  0  0  0
    2.1871    2.4689   -1.1391 C   0  0  0  0  0  0  0  0  0  0  0  0
    3.2872    3.2305   -0.7924 C   0  0  0  0  0  0  0  0  0  0  0  0
    4.4643    2.3691   -0.6817 C   0  0  0  0  0  0  0  0  0  0  0  0
    4.1060    1.0602   -0.9423 C   0  0  0  0  0  0  0  0  0  0  0  0
    2.1160    0.1173   -2.2960 C   0  0  0  0  0  0  0  0  0  0  0  0
    2.4956    0.4846   -3.2721 H   0  0  0  0  0  0  0  0  0  0  0  0
    1.0133    0.1006   -2.3393 H   0  0  0  0  0  0  0  0  0  0  0  0
    2.4574   -0.9271   -2.1600 H   0  0  0  0  0  0  0  0  0  0  0  0
    0.8023    2.9330   -1.4528 C   0  0  0  0  0  0  0  0  0  0  0  0
    0.6492    3.9903   -1.1647 H   0  0  0  0  0  0  0  0  0  0  0  0
    0.0254    2.3279   -0.9395 H   0  0  0  0  0  0  0  0  0  0  0  0
    0.5868    2.8440   -2.5384 H   0  0  0  0  0  0  0  0  0  0  0  0
    3.3319    4.7065   -0.5446 C   0  0  0  0  0  0  0  0  0  0  0  0
    2.3418    5.1828   -0.6739 H   0  0  0  0  0  0  0  0  0  0  0  0
    4.0421    5.2126   -1.2328 H   0  0  0  0  0  0  0  0  0  0  0  0
    3.6828    4.9300    0.4859 H   0  0  0  0  0  0  0  0  0  0  0  0
    5.8297    2.8858   -0.3496 C   0  0  0  0  0  0  0  0  0  0  0  0
    5.8302    3.4328    0.6176 H   0  0  0  0  0  0  0  0  0  0  0  0
    6.1873    3.6079   -1.1150 H   0  0  0  0  0  0  0  0  0  0  0  0
    6.5777    2.0735   -0.2803 H   0  0  0  0  0  0  0  0  0  0  0  0
    5.0093   -0.1145   -1.1538 C   0  0  0  0  0  0  0  0  0  0  0  0
    5.3459   -0.1577   -2.2141 H   0  0  0  0  0  0  0  0  0  0  0  0
    4.5108   -1.0776   -0.9406 H   0  0  0  0  0  0  0  0  0  0  0  0
    5.9205   -0.0658   -0.5255 H   0  0  0  0  0  0  0  0  0  0  0  0
  1  3  1  1  0  0  0
  1 16  1  0  0  0  0
  2 41  1  6  0  0  0
  2  1  1  0  0  0  0
  2  4  1  0  0  0  0
  4  5  1  1  0  0  0
  4  3  1  0  0  0  0
  5 14  1  0  0  0  0
  6  8  1  0  0  0  0
  6  5  2  0  0  0  0
  7  6  1  0  0  0  0
  8 10  2  0  0  0  0
  9  8  1  0  0  0  0
 10 11  1  0  0  0  0
 10 12  1  0  0  0  0
 12 13  1  0  0  0  0
 14 12  2  0  0  0  0
 14 15  1  0  0  0  0
 16 20  1  0  0  0  0
 16 21  1  1  0  0  0
 17 18  2  0  0  0  0
 17 16  1  0  0  0  0
 18 19  1  0  0  0  0
 19 20  2  0  0  0  0
 19 33  1  0  0  0  0
 20 37  1  0  0  0  0
 21 23  1  0  0  0  0
 21 24  1  0  0  0  0
 22 21  1  0  0  0  0
 25 17  1  0  0  0  0
 25 28  1  0  0  0  0
 26 25  1  0  0  0  0
 27 25  1  0  0  0  0
 29 18  1  0  0  0  0
 29 30  1  0  0  0  0
 31 29  1  0  0  0  0
 32 29  1  0  0  0  0
 33 34  1  0  0  0  0
 33 36  1  0  0  0  0
 35 33  1  0  0  0  0
 37 40  1  0  0  0  0
 37 38  1  0  0  0  0
 39 37  1  0  0  0  0
 41 46  1  6  0  0  0
 41 42  1  0  0  0  0
 41 45  1  0  0  0  0
 42 43  2  0  0  0  0
 43 44  1  0  0  0  0
 43 54  1  0  0  0  0
 44 58  1  0  0  0  0
 45 44  2  0  0  0  0
 46 49  1  0  0  0  0
 47 46  1  0  0  0  0
 48 46  1  0  0  0  0
 50 51  1  0  0  0  0
 50 42  1  0  0  0  0
 50 52  1  0  0  0  0
 53 50  1  0  0  0  0
 54 57  1  0  0  0  0
 55 54  1  0  0  0  0
 56 54  1  0  0  0  0
 58 61  1  0  0  0  0
 58 59  1  0  0  0  0
 60 58  1  0  0  0  0
 62 45  1  0  0  0  0
 62 64  1  0  0  0  0
 62 65  1  0  0  0  0
 63 62  1  0  0  0  0
M  END
