1
q = 0.0, confidence = 0.998

 67 69  0  0  0  0  0  0  0  0999 V2000
    0.0008   -0.0006    0.1942 P   0  0  0  0  0  0  0  0  0  0  0  0
    6.5115   -1.7122   -1.2582 N   0  0  0  0  0  0  0  0  0  0  0  0
    1.6061   -0.4927   -0.5428 C   0  0  0  0  0  0  0  0  0  0  0  0
    1.6864   -1.2668   -1.7162 C   0  0  0  0  0  0  0  0  0  0  0  0
    0.7672   -1.6288   -2.2012 H   0  0  0  0  0  0  0  0  0  0  0  0
    2.9396   -1.5933   -2.2554 C   0  0  0  0  0  0  0  0  0  0  0  0
    2.9961   -2.2141   -3.1640 H   0  0  0  0  0  0  0  0  0  0  0  0
    4.1273   -1.1486   -1.6469 C   0  0  0  0  0  0  0  0  0  0  0  0
    4.0382   -0.3789   -0.4687 C   0  0  0  0  0  0  0  0  0  0  0  0
    4.9721   -0.0597    0.0181 H   0  0  0  0  0  0  0  0  0  0  0  0
    2.7938   -0.0590    0.0840 C   0  0  0  0  0  0  0  0  0  0  0  0
    2.7340    0.5240    1.0171 H   0  0  0  0  0  0  0  0  0  0  0  0
    5.4818   -1.4611   -2.2523 C   0  0  0  0  0  0  0  0  0  0  0  0
    5.3724   -2.3074   -2.9856 H   0  0  0  0  0  0  0  0  0  0  0  0
    5.8036   -0.5814   -2.8540 H   0  0  0  0  0  0  0  0  0  0  0  0
    7.8508   -1.6331   -1.8082 C   0  0  0  0  0  0  0  0  0  0  0  0
    8.5989   -1.7427   -0.9969 H   0  0  0  0  0  0  0  0  0  0  0  0
    8.0097   -0.6458   -2.2882 H   0  0  0  0  0  0  0  0  0  0  0  0
    8.0677   -2.4249   -2.5756 H   0  0  0  0  0  0  0  0  0  0  0  0
    6.2885   -2.9469   -0.5254 C   0  0  0  0  0  0  0  0  0  0  0  0
    6.3642   -3.8611   -1.1740 H   0  0  0  0  0  0  0  0  0  0  0  0
    5.2811   -2.9419   -0.0638 H   0  0  0  0  0  0  0  0  0  0  0  0
    7.0354   -3.0447    0.2879 H   0  0  0  0  0  0  0  0  0  0  0  0
   -4.7404   -4.7758   -1.2638 N   0  0  0  0  0  0  0  0  0  0  0  0
   -1.7696    6.4939   -1.2584 N   0  0  0  0  0  0  0  0  0  0  0  0
   -1.2273   -1.1434   -0.5461 C   0  0  0  0  0  0  0  0  0  0  0  0
   -0.3742    1.6359   -0.5431 C   0  0  0  0  0  0  0  0  0  0  0  0
   -1.9369   -0.8241   -1.7196 C   0  0  0  0  0  0  0  0  0  0  0  0
    0.2595    2.0938   -1.7141 C   0  0  0  0  0  0  0  0  0  0  0  0
   -1.7900    0.1534   -2.2034 H   0  0  0  0  0  0  0  0  0  0  0  0
    1.0346    1.4797   -2.1970 H   0  0  0  0  0  0  0  0  0  0  0  0
   -2.8472   -1.7447   -2.2601 C   0  0  0  0  0  0  0  0  0  0  0  0
   -0.0833    3.3426   -2.2534 C   0  0  0  0  0  0  0  0  0  0  0  0
   -3.4126   -1.4816   -3.1684 H   0  0  0  0  0  0  0  0  0  0  0  0
    0.4288    3.7030   -3.1600 H   0  0  0  0  0  0  0  0  0  0  0  0
   -3.0575   -2.9959   -1.6526 C   0  0  0  0  0  0  0  0  0  0  0  0
   -1.0648    4.1477   -1.6474 C   0  0  0  0  0  0  0  0  0  0  0  0
   -2.3471   -3.3054   -0.4746 C   0  0  0  0  0  0  0  0  0  0  0  0
   -1.6902    3.6844   -0.4716 C   0  0  0  0  0  0  0  0  0  0  0  0
   -2.5392   -4.2739    0.0115 H   0  0  0  0  0  0  0  0  0  0  0  0
   -2.4354    4.3330    0.0135 H   0  0  0  0  0  0  0  0  0  0  0  0
   -1.4470   -2.3893    0.0793 C   0  0  0  0  0  0  0  0  0  0  0  0
   -1.3461    2.4466    0.0812 C   0  0  0  0  0  0  0  0  0  0  0  0
   -0.9131   -2.6302    1.0126 H   0  0  0  0  0  0  0  0  0  0  0  0
   -1.8237    2.1025    1.0128 H   0  0  0  0  0  0  0  0  0  0  0  0
   -4.0072   -4.0109   -2.2583 C   0  0  0  0  0  0  0  0  0  0  0  0
   -1.4699    5.4775   -2.2528 C   0  0  0  0  0  0  0  0  0  0  0  0
   -4.6847   -3.4918   -2.9913 H   0  0  0  0  0  0  0  0  0  0  0  0
   -0.6806    5.8065   -2.9839 H   0  0  0  0  0  0  0  0  0  0  0  0
   -3.4076   -4.7304   -2.8601 H   0  0  0  0  0  0  0  0  0  0  0  0
   -2.3913    5.3168   -2.8569 H   0  0  0  0  0  0  0  0  0  0  0  0
   -5.3434   -5.9748   -1.8128 C   0  0  0  0  0  0  0  0  0  0  0  0
   -2.5066    7.6148   -1.8090 C   0  0  0  0  0  0  0  0  0  0  0  0
   -5.8127   -6.5668   -1.0009 H   0  0  0  0  0  0  0  0  0  0  0  0
   -2.7874    8.3167   -0.9977 H   0  0  0  0  0  0  0  0  0  0  0  0
   -4.5689   -6.6073   -2.2928 H   0  0  0  0  0  0  0  0  0  0  0  0
   -3.4400    7.2591   -2.2913 H   0  0  0  0  0  0  0  0  0  0  0  0
   -6.1379   -5.7664   -2.5799 H   0  0  0  0  0  0  0  0  0  0  0  0
   -1.9277    8.1992   -2.5747 H   0  0  0  0  0  0  0  0  0  0  0  0
   -5.6965   -3.9637   -0.5307 C   0  0  0  0  0  0  0  0  0  0  0  0
   -0.5905    6.9173   -0.5225 C   0  0  0  0  0  0  0  0  0  0  0  0
   -6.5260   -3.5712   -1.1787 H   0  0  0  0  0  0  0  0  0  0  0  0
    0.1649    7.4406   -1.1687 H   0  0  0  0  0  0  0  0  0  0  0  0
   -5.1868   -3.0944   -0.0698 H   0  0  0  0  0  0  0  0  0  0  0  0
   -0.0923    6.0420   -0.0606 H   0  0  0  0  0  0  0  0  0  0  0  0
   -6.1549   -4.5607    0.2833 H   0  0  0  0  0  0  0  0  0  0  0  0
   -0.8812    7.6123    0.2909 H   0  0  0  0  0  0  0  0  0  0  0  0
  2 20  1  0  0  0  0
  3 11  1  0  0  0  0
  3  1  1  0  0  0  0
  4  3  2  0  0  0  0
  5  4  1  0  0  0  0
  6  4  1  0  0  0  0
  6  8  2  0  0  0  0
  7  6  1  0  0  0  0
  8  9  1  0  0  0  0
  9 10  1  0  0  0  0
  9 11  2  0  0  0  0
 11 12  1  0  0  0  0
 13  8  1  0  0  0  0
 13  2  1  0  0  0  0
 14 13  1  0  0  0  0
 15 13  1  0  0  0  0
 16  2  1  0  0  0  0
 16 17  1  0  0  0  0
 18 16  1  0  0  0  0
 19 16  1  0  0  0  0
 20 22  1  0  0  0  0
 20 23  1  0  0  0  0
 21 20  1  0  0  0  0
 24 60  1  0  0  0  0
 25 61  1  0  0  0  0
 26 42  1  0  0  0  0
 26  1  1  0  0  0  0
 27 43  1  0  0  0  0
 27  1  1  0  0  0  0
 28 26  2  0  0  0  0
 29 27  2  0  0  0  0
 30 28  1  0  0  0  0
 31 29  1  0  0  0  0
 32 28  1  0  0  0  0
 32 36  2  0  0  0  0
 33 29  1  0  0  0  0
 33 37  2  0  0  0  0
 34 32  1  0  0  0  0
 35 33  1  0  0  0  0
 36 38  1  0  0  0  0
 37 39  1  0  0  0  0
 38 40  1  0  0  0  0
 38 42  2  0  0  0  0
 39 41  1  0  0  0  0
 39 43  2  0  0  0  0
 42 44  1  0  0  0  0
 43 45  1  0  0  0  0
 46 36  1  0  0  0  0
 46 24  1  0  0  0  0
 47 37  1  0  0  0  0
 47 25  1  0  0  0  0
 48 46  1  0  0  0  0
 49 47  1  0  0  0  0
 50 46  1  0  0  0  0
 51 47  1  0  0  0  0
 52 24  1  0  0  0  0
 52 54  1  0  0  0  0
 53 25  1  0  0  0  0
 53 55  1  0  0  0  0
 56 52  1  0  0  0  0
 57 53  1  0  0  0  0
 58 52  1  0  0  0  0
 59 53  1  0  0  0  0
 60 64  1  0  0  0  0
 60 66  1  0  0  0  0
 61 65  1  0  0  0  0
 61 67  1  0  0  0  0
 62 60  1  0  0  0  0
 63 61  1  0  0  0  0
M  END
