1
q = 0.0, confidence = 0.982

 79 87  0  0  1  0  0  0  0  0999 V2000
    0.0001   -0.0004   -0.3272 P   0  0  0  0  0  0  0  0  0  0  0  0
    1.3391    1.0845   -1.1710 C   0  0  2  0  0  0  0  0  0  0  0  0
    1.5492    0.5410   -2.1144 H   0  0  0  0  0  0  0  0  0  0  0  0
    2.6211    1.0974   -0.3593 C   0  0  0  0  0  0  0  0  0  0  0  0
    2.6516    1.6213    0.9656 C   0  0  0  0  0  0  0  0  0  0  0  0
    1.5554    2.3950    1.5488 C   0  0  0  0  0  0  0  0  0  0  0  0
    1.5185    2.4181    2.6506 H   0  0  0  0  0  0  0  0  0  0  0  0
    0.7070    3.2320    0.8792 C   0  0  0  0  0  0  0  0  0  0  0  0
    0.0349    3.8563    1.4912 H   0  0  0  0  0  0  0  0  0  0  0  0
    0.6498    3.4829   -0.5592 C   0  0  0  0  0  0  0  0  0  0  0  0
    0.9235    2.4914   -1.5440 C   0  0  0  0  0  0  0  0  0  0  0  0
    3.8012    0.5704   -0.9132 C   0  0  0  0  0  0  0  0  0  0  0  0
    3.7805    0.1844   -1.9436 H   0  0  0  0  0  0  0  0  0  0  0  0
    4.9798    0.4800   -0.1619 C   0  0  0  0  0  0  0  0  0  0  0  0
    5.8844    0.0494   -0.6164 H   0  0  0  0  0  0  0  0  0  0  0  0
    4.9847    0.8960    1.1799 C   0  0  0  0  0  0  0  0  0  0  0  0
    5.8947    0.7956    1.7906 H   0  0  0  0  0  0  0  0  0  0  0  0
    3.8304    1.4576    1.7336 C   0  0  0  0  0  0  0  0  0  0  0  0
    3.8327    1.8174    2.7738 H   0  0  0  0  0  0  0  0  0  0  0  0
    0.2784    4.7789   -0.9956 C   0  0  0  0  0  0  0  0  0  0  0  0
    0.0534    5.5404   -0.2336 H   0  0  0  0  0  0  0  0  0  0  0  0
    0.1909    5.1031   -2.3518 C   0  0  0  0  0  0  0  0  0  0  0  0
   -0.0940    6.1211   -2.6576 H   0  0  0  0  0  0  0  0  0  0  0  0
    0.4597    4.1206   -3.3198 C   0  0  0  0  0  0  0  0  0  0  0  0
    0.3839    4.3565   -4.3918 H   0  0  0  0  0  0  0  0  0  0  0  0
    0.8255    2.8317   -2.9087 C   0  0  0  0  0  0  0  0  0  0  0  0
    1.0423    2.0582   -3.6629 H   0  0  0  0  0  0  0  0  0  0  0  0
   -1.6089    0.6166   -1.1715 C   0  0  2  0  0  0  0  0  0  0  0  0
   -1.2429    1.0707   -2.1146 H   0  0  0  0  0  0  0  0  0  0  0  0
   -2.2615    1.7201   -0.3597 C   0  0  0  0  0  0  0  0  0  0  0  0
   -2.7307    1.4843    0.9650 C   0  0  0  0  0  0  0  0  0  0  0  0
   -2.8528    0.1478    1.5476 C   0  0  0  0  0  0  0  0  0  0  0  0
   -2.8546    0.1038    2.6494 H   0  0  0  0  0  0  0  0  0  0  0  0
   -3.1533   -1.0052    0.8774 C   0  0  0  0  0  0  0  0  0  0  0  0
   -3.3580   -1.8997    1.4890 H   0  0  0  0  0  0  0  0  0  0  0  0
   -3.3416   -1.1796   -0.5611 C   0  0  0  0  0  0  0  0  0  0  0  0
   -2.6191   -0.4469   -1.5454 C   0  0  0  0  0  0  0  0  0  0  0  0
   -2.3947    3.0058   -0.9131 C   0  0  0  0  0  0  0  0  0  0  0  0
   -2.0497    3.1813   -1.9434 H   0  0  0  0  0  0  0  0  0  0  0  0
   -2.9056    4.0715   -0.1615 C   0  0  0  0  0  0  0  0  0  0  0  0
   -2.9847    5.0705   -0.6156 H   0  0  0  0  0  0  0  0  0  0  0  0
   -3.2685    3.8674    1.1802 C   0  0  0  0  0  0  0  0  0  0  0  0
   -3.6364    4.7055    1.7912 H   0  0  0  0  0  0  0  0  0  0  0  0
   -3.1782    2.5867    1.7335 C   0  0  0  0  0  0  0  0  0  0  0  0
   -3.4909    2.4085    2.7736 H   0  0  0  0  0  0  0  0  0  0  0  0
   -4.2781   -2.1490   -0.9982 C   0  0  0  0  0  0  0  0  0  0  0  0
   -4.8258   -2.7245   -0.2365 H   0  0  0  0  0  0  0  0  0  0  0  0
   -4.5142   -2.3870   -2.3545 C   0  0  0  0  0  0  0  0  0  0  0  0
   -5.2532   -3.1427   -2.6609 H   0  0  0  0  0  0  0  0  0  0  0  0
   -3.7968   -1.6632   -3.3220 C   0  0  0  0  0  0  0  0  0  0  0  0
   -3.9624   -1.8469   -4.3942 H   0  0  0  0  0  0  0  0  0  0  0  0
   -2.8637   -0.7020   -2.9103 C   0  0  0  0  0  0  0  0  0  0  0  0
   -2.3018   -0.1274   -3.6641 H   0  0  0  0  0  0  0  0  0  0  0  0
    0.2704   -1.7030   -1.1700 C   0  0  2  0  0  0  0  0  0  0  0  0
   -0.3055   -1.6139   -2.1134 H   0  0  0  0  0  0  0  0  0  0  0  0
   -0.3594   -2.8189   -0.3573 C   0  0  0  0  0  0  0  0  0  0  0  0
    0.0791   -3.1060    0.9679 C   0  0  0  0  0  0  0  0  0  0  0  0
    1.2978   -2.5437    1.5502 C   0  0  0  0  0  0  0  0  0  0  0  0
    1.3367   -2.5227    2.6520 H   0  0  0  0  0  0  0  0  0  0  0  0
    2.4468   -2.2282    0.8800 C   0  0  0  0  0  0  0  0  0  0  0  0
    3.3237   -1.9584    1.4917 H   0  0  0  0  0  0  0  0  0  0  0  0
    2.6923   -2.3049   -0.5584 C   0  0  0  0  0  0  0  0  0  0  0  0
    1.6967   -2.0465   -1.5431 C   0  0  0  0  0  0  0  0  0  0  0  0
   -1.4064   -3.5775   -0.9100 C   0  0  0  0  0  0  0  0  0  0  0  0
   -1.7305   -3.3675   -1.9406 H   0  0  0  0  0  0  0  0  0  0  0  0
   -2.0745   -4.5516   -0.1574 C   0  0  0  0  0  0  0  0  0  0  0  0
   -2.9001   -5.1197   -0.6110 H   0  0  0  0  0  0  0  0  0  0  0  0
   -1.7166   -4.7623    1.1847 C   0  0  0  0  0  0  0  0  0  0  0  0
   -2.2591   -5.4989    1.7964 H   0  0  0  0  0  0  0  0  0  0  0  0
   -0.6525   -4.0435    1.7373 C   0  0  0  0  0  0  0  0  0  0  0  0
   -0.3422   -4.2240    2.7777 H   0  0  0  0  0  0  0  0  0  0  0  0
    4.0003   -2.6311   -0.9949 C   0  0  0  0  0  0  0  0  0  0  0  0
    4.7725   -2.8167   -0.2330 H   0  0  0  0  0  0  0  0  0  0  0  0
    4.3247   -2.7177   -2.3511 C   0  0  0  0  0  0  0  0  0  0  0  0
    5.3488   -2.9798   -2.6570 H   0  0  0  0  0  0  0  0  0  0  0  0
    3.3393   -2.4595   -3.3191 C   0  0  0  0  0  0  0  0  0  0  0  0
    3.5814   -2.5120   -4.3911 H   0  0  0  0  0  0  0  0  0  0  0  0
    2.0402   -2.1320   -2.9079 C   0  0  0  0  0  0  0  0  0  0  0  0
    1.2617   -1.9333   -3.6620 H   0  0  0  0  0  0  0  0  0  0  0  0
  2  3  1  6  0  0  0
  2  4  1  0  0  0  0
  2  1  1  0  0  0  0
  4  5  1  0  0  0  0
  5  6  1  0  0  0  0
  5 18  2  0  0  0  0
  6  7  1  0  0  0  0
  8  9  1  0  0  0  0
  8  6  2  0  0  0  0
 10  8  1  0  0  0  0
 11  2  1  0  0  0  0
 11 10  2  0  0  0  0
 12  4  2  0  0  0  0
 12 14  1  0  0  0  0
 13 12  1  0  0  0  0
 14 16  2  0  0  0  0
 15 14  1  0  0  0  0
 16 18  1  0  0  0  0
 16 17  1  0  0  0  0
 18 19  1  0  0  0  0
 20 10  1  0  0  0  0
 20 21  1  0  0  0  0
 22 20  2  0  0  0  0
 23 22  1  0  0  0  0
 24 26  2  0  0  0  0
 24 22  1  0  0  0  0
 25 24  1  0  0  0  0
 26 11  1  0  0  0  0
 27 26  1  0  0  0  0
 28 29  1  6  0  0  0
 28 30  1  0  0  0  0
 28  1  1  0  0  0  0
 30 31  1  0  0  0  0
 31 32  1  0  0  0  0
 31 44  2  0  0  0  0
 32 33  1  0  0  0  0
 34 35  1  0  0  0  0
 34 32  2  0  0  0  0
 36 34  1  0  0  0  0
 37 28  1  0  0  0  0
 37 36  2  0  0  0  0
 38 30  2  0  0  0  0
 38 40  1  0  0  0  0
 39 38  1  0  0  0  0
 40 42  2  0  0  0  0
 41 40  1  0  0  0  0
 42 44  1  0  0  0  0
 42 43  1  0  0  0  0
 44 45  1  0  0  0  0
 46 36  1  0  0  0  0
 46 47  1  0  0  0  0
 48 46  2  0  0  0  0
 49 48  1  0  0  0  0
 50 52  2  0  0  0  0
 50 48  1  0  0  0  0
 51 50  1  0  0  0  0
 52 37  1  0  0  0  0
 53 52  1  0  0  0  0
 54 55  1  6  0  0  0
 54 56  1  0  0  0  0
 54  1  1  0  0  0  0
 56 57  1  0  0  0  0
 57 58  1  0  0  0  0
 57 70  2  0  0  0  0
 58 59  1  0  0  0  0
 60 61  1  0  0  0  0
 60 58  2  0  0  0  0
 62 60  1  0  0  0  0
 63 54  1  0  0  0  0
 63 62  2  0  0  0  0
 64 56  2  0  0  0  0
 64 66  1  0  0  0  0
 65 64  1  0  0  0  0
 66 68  2  0  0  0  0
 67 66  1  0  0  0  0
 68 70  1  0  0  0  0
 68 69  1  0  0  0  0
 70 71  1  0  0  0  0
 72 62  1  0  0  0  0
 72 73  1  0  0  0  0
 74 72  2  0  0  0  0
 75 74  1  0  0  0  0
 76 78  2  0  0  0  0
 76 74  1  0  0  0  0
 77 76  1  0  0  0  0
 78 63  1  0  0  0  0
 79 78  1  0  0  0  0
M  END
