1
q = 0.0, confidence = 1.0

 59 63  0  0  0  0  0  0  0  0999 V2000
    1.6283    0.3589    0.1151 P   0  0  0  0  0  0  0  0  0  0  0  0
   -0.0068   -0.1764    0.1548 N   0  0  0  0  0  0  0  0  0  0  0  0
   -0.4879   -0.0808    1.0780 H   0  0  0  0  0  0  0  0  0  0  0  0
   -0.6000   -1.0934   -0.7105 C   0  0  0  0  0  0  0  0  0  0  0  0
   -1.9975   -1.3685   -0.5827 C   0  0  0  0  0  0  0  0  0  0  0  0
   -2.6054   -2.3195   -1.4245 C   0  0  0  0  0  0  0  0  0  0  0  0
   -3.6771   -2.5365   -1.3029 H   0  0  0  0  0  0  0  0  0  0  0  0
   -1.8679   -2.9728   -2.4215 C   0  0  0  0  0  0  0  0  0  0  0  0
   -2.3558   -3.7100   -3.0753 H   0  0  0  0  0  0  0  0  0  0  0  0
   -0.5062   -2.6679   -2.5774 C   0  0  0  0  0  0  0  0  0  0  0  0
    0.0864   -3.1675   -3.3586 H   0  0  0  0  0  0  0  0  0  0  0  0
    0.1233   -1.7444   -1.7353 C   0  0  0  0  0  0  0  0  0  0  0  0
    1.1991   -1.5430   -1.8508 H   0  0  0  0  0  0  0  0  0  0  0  0
    1.6894    1.4063   -1.3913 C   0  0  0  0  0  0  0  0  0  0  0  0
    2.9287    1.6127   -2.0275 C   0  0  0  0  0  0  0  0  0  0  0  0
    3.8282    1.1028   -1.6453 H   0  0  0  0  0  0  0  0  0  0  0  0
    3.0067    2.4528   -3.1482 C   0  0  0  0  0  0  0  0  0  0  0  0
    3.9759    2.6126   -3.6441 H   0  0  0  0  0  0  0  0  0  0  0  0
    1.8496    3.0776   -3.6412 C   0  0  0  0  0  0  0  0  0  0  0  0
    1.9121    3.7312   -4.5247 H   0  0  0  0  0  0  0  0  0  0  0  0
    0.6115    2.8602   -3.0139 C   0  0  0  0  0  0  0  0  0  0  0  0
   -0.3003    3.3396   -3.4017 H   0  0  0  0  0  0  0  0  0  0  0  0
    0.5276    2.0268   -1.8903 C   0  0  0  0  0  0  0  0  0  0  0  0
   -0.4435    1.8438   -1.4079 H   0  0  0  0  0  0  0  0  0  0  0  0
    1.5888    1.5182    1.5304 C   0  0  0  0  0  0  0  0  0  0  0  0
    2.6350    1.4875    2.4717 C   0  0  0  0  0  0  0  0  0  0  0  0
    3.4502    0.7558    2.3521 H   0  0  0  0  0  0  0  0  0  0  0  0
    2.6251    2.3780    3.5561 C   0  0  0  0  0  0  0  0  0  0  0  0
    3.4425    2.3496    4.2921 H   0  0  0  0  0  0  0  0  0  0  0  0
    1.5716    3.2929    3.7047 C   0  0  0  0  0  0  0  0  0  0  0  0
    1.5623    3.9868    4.5590 H   0  0  0  0  0  0  0  0  0  0  0  0
    0.5258    3.3218    2.7664 C   0  0  0  0  0  0  0  0  0  0  0  0
   -0.3043    4.0348    2.8838 H   0  0  0  0  0  0  0  0  0  0  0  0
    0.5323    2.4417    1.6769 C   0  0  0  0  0  0  0  0  0  0  0  0
   -0.2903    2.4698    0.9478 H   0  0  0  0  0  0  0  0  0  0  0  0
   -2.9827   -0.4028    0.6183 P   0  0  0  0  0  4  0  0  0  0  0  0
   -2.2490   -0.3666    2.4669 S   0  0  0  0  0  1  0  0  0  0  0  0
   -3.0541    1.2714   -0.1502 C   0  0  0  0  0  0  0  0  0  0  0  0
   -3.0640    1.4299   -1.5510 C   0  0  0  0  0  0  0  0  0  0  0  0
   -3.0071    0.5471   -2.2063 H   0  0  0  0  0  0  0  0  0  0  0  0
   -3.1135    2.7187   -2.1061 C   0  0  0  0  0  0  0  0  0  0  0  0
   -3.1190    2.8412   -3.2000 H   0  0  0  0  0  0  0  0  0  0  0  0
   -3.1396    3.8462   -1.2692 C   0  0  0  0  0  0  0  0  0  0  0  0
   -3.1665    4.8555   -1.7072 H   0  0  0  0  0  0  0  0  0  0  0  0
   -3.1231    3.6862    0.1266 C   0  0  0  0  0  0  0  0  0  0  0  0
   -3.1373    4.5697    0.7829 H   0  0  0  0  0  0  0  0  0  0  0  0
   -3.0828    2.4011    0.6879 C   0  0  0  0  0  0  0  0  0  0  0  0
   -3.0453    2.2490    1.7790 H   0  0  0  0  0  0  0  0  0  0  0  0
   -4.6868   -1.0784    0.5465 C   0  0  0  0  0  0  0  0  0  0  0  0
   -5.0418   -2.0629    1.4891 C   0  0  0  0  0  0  0  0  0  0  0  0
   -4.3066   -2.3605    2.2533 H   0  0  0  0  0  0  0  0  0  0  0  0
   -6.3230   -2.6308    1.4550 C   0  0  0  0  0  0  0  0  0  0  0  0
   -6.5980   -3.4005    2.1918 H   0  0  0  0  0  0  0  0  0  0  0  0
   -7.2541   -2.2132    0.4898 C   0  0  0  0  0  0  0  0  0  0  0  0
   -8.2612   -2.6566    0.4684 H   0  0  0  0  0  0  0  0  0  0  0  0
   -6.9042   -1.2231   -0.4421 C   0  0  0  0  0  0  0  0  0  0  0  0
   -7.6360   -0.8860   -1.1917 H   0  0  0  0  0  0  0  0  0  0  0  0
   -5.6221   -0.6533   -0.4175 C   0  0  0  0  0  0  0  0  0  0  0  0
   -5.3556    0.1284   -1.1440 H   0  0  0  0  0  0  0  0  0  0  0  0
  1  2  1  0  0  0  0
  1 25  1  0  0  0  0
  2  3  1  0  0  0  0
  4  5  1  0  0  0  0
  4  2  1  0  0  0  0
  5 36  1  0  0  0  0
  6  7  1  0  0  0  0
  6  5  2  0  0  0  0
  8  6  1  0  0  0  0
  9  8  1  0  0  0  0
 10  8  2  0  0  0  0
 10 12  1  0  0  0  0
 11 10  1  0  0  0  0
 12  4  2  0  0  0  0
 13 12  1  0  0  0  0
 14  1  1  0  0  0  0
 15 16  1  0  0  0  0
 15 14  2  0  0  0  0
 17 15  1  0  0  0  0
 18 17  1  0  0  0  0
 19 17  2  0  0  0  0
 19 21  1  0  0  0  0
 20 19  1  0  0  0  0
 21 23  2  0  0  0  0
 22 21  1  0  0  0  0
 23 24  1  0  0  0  0
 23 14  1  0  0  0  0
 25 34  2  0  0  0  0
 25 26  1  0  0  0  0
 26 28  2  0  0  0  0
 27 26  1  0  0  0  0
 28 30  1  0  0  0  0
 28 29  1  0  0  0  0
 30 31  1  0  0  0  0
 32 33  1  0  0  0  0
 32 30  2  0  0  0  0
 34 32  1  0  0  0  0
 35 34  1  0  0  0  0
 36 37  1  0  0  0  0
 38 36  1  0  0  0  0
 38 47  1  0  0  0  0
 39 38  2  0  0  0  0
 40 39  1  0  0  0  0
 41 39  1  0  0  0  0
 41 43  2  0  0  0  0
 42 41  1  0  0  0  0
 43 45  1  0  0  0  0
 44 43  1  0  0  0  0
 45 47  2  0  0  0  0
 45 46  1  0  0  0  0
 47 48  1  0  0  0  0
 49 36  1  0  0  0  0
 49 50  1  0  0  0  0
 50 51  1  0  0  0  0
 52 50  2  0  0  0  0
 52 53  1  0  0  0  0
 54 52  1  0  0  0  0
 55 54  1  0  0  0  0
 56 58  1  0  0  0  0
 56 54  2  0  0  0  0
 57 56  1  0  0  0  0
 58 49  2  0  0  0  0
 59 58  1  0  0  0  0
M  END
