1
q = 0.0, confidence = 0.992

 50 53  0  0  0  0  0  0  0  0999 V2000
   -0.3591   -0.2760    0.5258 P   0  0  0  0  0  0  0  0  0  0  0  0
    2.7656   -0.4887    0.4914 P   0  0  0  0  0  0  0  0  0  0  0  0
    0.2087    2.4146    1.0694 C   0  0  0  0  0  0  0  0  0  0  0  0
   -0.2298    2.5938    0.0771 H   0  0  0  0  0  0  0  0  0  0  0  0
    0.7381    3.4866    1.7990 C   0  0  0  0  0  0  0  0  0  0  0  0
    0.7056    4.5014    1.3762 H   0  0  0  0  0  0  0  0  0  0  0  0
    1.3144    3.2612    3.0588 C   0  0  0  0  0  0  0  0  0  0  0  0
    1.7286    4.1035    3.6334 H   0  0  0  0  0  0  0  0  0  0  0  0
    1.3665    1.9602    3.5816 C   0  0  0  0  0  0  0  0  0  0  0  0
    1.8228    1.7775    4.5663 H   0  0  0  0  0  0  0  0  0  0  0  0
    0.8458    0.8819    2.8499 C   0  0  0  0  0  0  0  0  0  0  0  0
    0.9068   -0.1368    3.2574 H   0  0  0  0  0  0  0  0  0  0  0  0
    0.2544    1.1050    1.5895 C   0  0  0  0  0  0  0  0  0  0  0  0
    0.0567   -2.9489    1.4156 C   0  0  0  0  0  0  0  0  0  0  0  0
    0.6825   -3.0793    0.5205 H   0  0  0  0  0  0  0  0  0  0  0  0
   -0.1704   -4.0332    2.2779 C   0  0  0  0  0  0  0  0  0  0  0  0
    0.2856   -5.0096    2.0543 H   0  0  0  0  0  0  0  0  0  0  0  0
   -0.9733   -3.8751    3.4174 C   0  0  0  0  0  0  0  0  0  0  0  0
   -1.1501   -4.7269    4.0912 H   0  0  0  0  0  0  0  0  0  0  0  0
   -1.5558   -2.6269    3.6927 C   0  0  0  0  0  0  0  0  0  0  0  0
   -2.1931   -2.4969    4.5803 H   0  0  0  0  0  0  0  0  0  0  0  0
   -1.3366   -1.5425    2.8329 C   0  0  0  0  0  0  0  0  0  0  0  0
   -1.8034   -0.5692    3.0496 H   0  0  0  0  0  0  0  0  0  0  0  0
   -0.5226   -1.6954    1.6902 C   0  0  0  0  0  0  0  0  0  0  0  0
    1.1678   -0.7144   -0.4320 C   0  0  0  0  0  0  0  0  0  0  0  0
    1.0704   -1.2590   -1.6641 C   0  0  0  0  0  0  0  0  0  0  0  0
    0.0951   -1.4214   -2.1479 H   0  0  0  0  0  0  0  0  0  0  0  0
    1.9698   -1.5660   -2.2236 H   0  0  0  0  0  0  0  0  0  0  0  0
    2.6465    1.9360   -1.0679 C   0  0  0  0  0  0  0  0  0  0  0  0
    2.0013    1.3974   -1.7777 H   0  0  0  0  0  0  0  0  0  0  0  0
    2.9600    3.2831   -1.3008 C   0  0  0  0  0  0  0  0  0  0  0  0
    2.5642    3.7857   -2.1967 H   0  0  0  0  0  0  0  0  0  0  0  0
    3.7665    3.9877   -0.3920 C   0  0  0  0  0  0  0  0  0  0  0  0
    4.0083    5.0461   -0.5740 H   0  0  0  0  0  0  0  0  0  0  0  0
    4.2586    3.3402    0.7521 C   0  0  0  0  0  0  0  0  0  0  0  0
    4.8855    3.8895    1.4711 H   0  0  0  0  0  0  0  0  0  0  0  0
    3.9400    1.9946    0.9907 C   0  0  0  0  0  0  0  0  0  0  0  0
    4.3067    1.4927    1.8997 H   0  0  0  0  0  0  0  0  0  0  0  0
    3.1355    1.2791    0.0810 C   0  0  0  0  0  0  0  0  0  0  0  0
    4.6949   -0.8155   -1.6388 C   0  0  0  0  0  0  0  0  0  0  0  0
    4.6169    0.2663   -1.8233 H   0  0  0  0  0  0  0  0  0  0  0  0
    5.5583   -1.5996   -2.4215 C   0  0  0  0  0  0  0  0  0  0  0  0
    6.1551   -1.1245   -3.2153 H   0  0  0  0  0  0  0  0  0  0  0  0
    5.6596   -2.9812   -2.1976 C   0  0  0  0  0  0  0  0  0  0  0  0
    6.3355   -3.5929   -2.8143 H   0  0  0  0  0  0  0  0  0  0  0  0
    4.9008   -3.5801   -1.1776 C   0  0  0  0  0  0  0  0  0  0  0  0
    4.9817   -4.6620   -0.9914 H   0  0  0  0  0  0  0  0  0  0  0  0
    4.0494   -2.7975   -0.3859 C   0  0  0  0  0  0  0  0  0  0  0  0
    3.4692   -3.2642    0.4274 H   0  0  0  0  0  0  0  0  0  0  0  0
    3.9271   -1.4089   -0.6165 C   0  0  0  0  0  0  0  0  0  0  0  0
  1 13  1  0  0  0  0
  1 24  1  0  0  0  0
  3 13  2  0  0  0  0
  3  5  1  0  0  0  0
  4  3  1  0  0  0  0
  5  7  2  0  0  0  0
  6  5  1  0  0  0  0
  7  9  1  0  0  0  0
  7  8  1  0  0  0  0
  9 10  1  0  0  0  0
 11 12  1  0  0  0  0
 11  9  2  0  0  0  0
 13 11  1  0  0  0  0
 14 24  2  0  0  0  0
 14 16  1  0  0  0  0
 15 14  1  0  0  0  0
 16 18  2  0  0  0  0
 17 16  1  0  0  0  0
 18 20  1  0  0  0  0
 18 19  1  0  0  0  0
 20 21  1  0  0  0  0
 22 23  1  0  0  0  0
 22 20  2  0  0  0  0
 24 22  1  0  0  0  0
 25  2  1  0  0  0  0
 25  1  1  0  0  0  0
 26 25  2  0  0  0  0
 27 26  1  0  0  0  0
 28 26  1  0  0  0  0
 29 39  1  0  0  0  0
 30 29  1  0  0  0  0
 31 29  2  0  0  0  0
 31 33  1  0  0  0  0
 32 31  1  0  0  0  0
 33 35  2  0  0  0  0
 34 33  1  0  0  0  0
 35 37  1  0  0  0  0
 35 36  1  0  0  0  0
 37 38  1  0  0  0  0
 39  2  1  0  0  0  0
 39 37  2  0  0  0  0
 40 50  1  0  0  0  0
 41 40  1  0  0  0  0
 42 44  1  0  0  0  0
 42 40  2  0  0  0  0
 43 42  1  0  0  0  0
 44 46  2  0  0  0  0
 45 44  1  0  0  0  0
 46 47  1  0  0  0  0
 46 48  1  0  0  0  0
 48 49  1  0  0  0  0
 50 48  2  0  0  0  0
 50  2  1  0  0  0  0
M  END
