1
q = 0.0, confidence = 0.998

 74 79  0  0  0  0  0  0  0  0999 V2000
   -0.9160    0.3719    0.9215 P   0  0  0  0  0  0  0  0  0  0  0  0
    3.1769    0.3072   -1.0299 P   0  0  0  0  0  0  0  0  0  0  0  0
    0.2748   -2.0939   -0.2298 P   0  0  0  0  0  0  0  0  0  0  0  0
    0.5431   -0.1859   -0.1294 C   0  0  0  0  0  0  0  0  0  0  0  0
    0.3151    0.2112   -1.1411 H   0  0  0  0  0  0  0  0  0  0  0  0
    1.9074    0.2965    0.3651 C   0  0  0  0  0  0  0  0  0  0  0  0
    2.2824   -0.3626    1.1706 H   0  0  0  0  0  0  0  0  0  0  0  0
    1.8471    1.3240    0.7801 H   0  0  0  0  0  0  0  0  0  0  0  0
   -1.1984    2.7401    2.4137 C   0  0  0  0  0  0  0  0  0  0  0  0
   -1.6054    2.0887    3.2021 H   0  0  0  0  0  0  0  0  0  0  0  0
   -1.2050    4.1309    2.5873 C   0  0  0  0  0  0  0  0  0  0  0  0
   -1.6061    4.5607    3.5178 H   0  0  0  0  0  0  0  0  0  0  0  0
   -0.7111    4.9713    1.5764 C   0  0  0  0  0  0  0  0  0  0  0  0
   -0.7221    6.0633    1.7117 H   0  0  0  0  0  0  0  0  0  0  0  0
   -0.2139    4.4135    0.3894 C   0  0  0  0  0  0  0  0  0  0  0  0
    0.1697    5.0598   -0.4131 H   0  0  0  0  0  0  0  0  0  0  0  0
   -0.2033    3.0220    0.2091 C   0  0  0  0  0  0  0  0  0  0  0  0
    0.1757    2.6083   -0.7375 H   0  0  0  0  0  0  0  0  0  0  0  0
   -0.6899    2.1737    1.2245 C   0  0  0  0  0  0  0  0  0  0  0  0
    0.5156    0.1155    3.3665 C   0  0  0  0  0  0  0  0  0  0  0  0
    1.0388    1.0382    3.0773 H   0  0  0  0  0  0  0  0  0  0  0  0
    0.8740   -0.5440    4.5514 C   0  0  0  0  0  0  0  0  0  0  0  0
    1.6828   -0.1378    5.1775 H   0  0  0  0  0  0  0  0  0  0  0  0
    0.2014   -1.7150    4.9387 C   0  0  0  0  0  0  0  0  0  0  0  0
    0.4825   -2.2299    5.8699 H   0  0  0  0  0  0  0  0  0  0  0  0
   -0.8353   -2.2218    4.1396 C   0  0  0  0  0  0  0  0  0  0  0  0
   -1.3696   -3.1359    4.4386 H   0  0  0  0  0  0  0  0  0  0  0  0
   -1.1947   -1.5656    2.9520 C   0  0  0  0  0  0  0  0  0  0  0  0
   -1.9977   -1.9693    2.3205 H   0  0  0  0  0  0  0  0  0  0  0  0
   -0.5192   -0.3951    2.5527 C   0  0  0  0  0  0  0  0  0  0  0  0
    3.1854    3.1965   -1.0454 C   0  0  0  0  0  0  0  0  0  0  0  0
    3.7901    3.1518   -0.1266 H   0  0  0  0  0  0  0  0  0  0  0  0
    2.8003    4.4399   -1.5656 C   0  0  0  0  0  0  0  0  0  0  0  0
    3.1107    5.3645   -1.0548 H   0  0  0  0  0  0  0  0  0  0  0  0
    2.0062    4.5080   -2.7236 C   0  0  0  0  0  0  0  0  0  0  0  0
    1.6983    5.4853   -3.1259 H   0  0  0  0  0  0  0  0  0  0  0  0
    1.6072    3.3257   -3.3652 C   0  0  0  0  0  0  0  0  0  0  0  0
    0.9821    3.3695   -4.2698 H   0  0  0  0  0  0  0  0  0  0  0  0
    2.0159    2.0801   -2.8596 C   0  0  0  0  0  0  0  0  0  0  0  0
    1.7098    1.1570   -3.3766 H   0  0  0  0  0  0  0  0  0  0  0  0
    2.8039    2.0004   -1.6912 C   0  0  0  0  0  0  0  0  0  0  0  0
    5.0092   -0.1657    1.0843 C   0  0  0  0  0  0  0  0  0  0  0  0
    4.2306   -0.7989    1.5342 H   0  0  0  0  0  0  0  0  0  0  0  0
    6.2660   -0.0969    1.7038 C   0  0  0  0  0  0  0  0  0  0  0  0
    6.4398   -0.6581    2.6349 H   0  0  0  0  0  0  0  0  0  0  0  0
    7.2945    0.6742    1.1413 C   0  0  0  0  0  0  0  0  0  0  0  0
    8.2791    0.7289    1.6299 H   0  0  0  0  0  0  0  0  0  0  0  0
    7.0590    1.3694   -0.0561 C   0  0  0  0  0  0  0  0  0  0  0  0
    7.8602    1.9711   -0.5123 H   0  0  0  0  0  0  0  0  0  0  0  0
    5.8054    1.3004   -0.6801 C   0  0  0  0  0  0  0  0  0  0  0  0
    5.6390    1.8450   -1.6224 H   0  0  0  0  0  0  0  0  0  0  0  0
    4.7552    0.5445   -0.1098 C   0  0  0  0  0  0  0  0  0  0  0  0
    0.9736   -1.7833   -3.0308 C   0  0  0  0  0  0  0  0  0  0  0  0
    1.7618   -1.0753   -2.7242 H   0  0  0  0  0  0  0  0  0  0  0  0
    0.7721   -2.0601   -4.3904 C   0  0  0  0  0  0  0  0  0  0  0  0
    1.3935   -1.5564   -5.1471 H   0  0  0  0  0  0  0  0  0  0  0  0
   -0.2174   -2.9750   -4.7859 C   0  0  0  0  0  0  0  0  0  0  0  0
   -0.3811   -3.1841   -5.8541 H   0  0  0  0  0  0  0  0  0  0  0  0
   -0.9980   -3.6195   -3.8145 C   0  0  0  0  0  0  0  0  0  0  0  0
   -1.7764   -4.3366   -4.1166 H   0  0  0  0  0  0  0  0  0  0  0  0
   -0.7996   -3.3409   -2.4532 C   0  0  0  0  0  0  0  0  0  0  0  0
   -1.4270   -3.8326   -1.6944 H   0  0  0  0  0  0  0  0  0  0  0  0
    0.1862   -2.4157   -2.0456 C   0  0  0  0  0  0  0  0  0  0  0  0
    2.9761   -3.0880   -0.5934 C   0  0  0  0  0  0  0  0  0  0  0  0
    2.8395   -2.9784   -1.6784 H   0  0  0  0  0  0  0  0  0  0  0  0
    4.1908   -3.5816   -0.0912 C   0  0  0  0  0  0  0  0  0  0  0  0
    4.9986   -3.8470   -0.7900 H   0  0  0  0  0  0  0  0  0  0  0  0
    4.3817   -3.7278    1.2919 C   0  0  0  0  0  0  0  0  0  0  0  0
    5.3382   -4.1098    1.6797 H   0  0  0  0  0  0  0  0  0  0  0  0
    3.3451   -3.3872    2.1761 C   0  0  0  0  0  0  0  0  0  0  0  0
    3.4786   -3.5069    3.2623 H   0  0  0  0  0  0  0  0  0  0  0  0
    2.1254   -2.9045    1.6772 C   0  0  0  0  0  0  0  0  0  0  0  0
    1.3093   -2.6596    2.3743 H   0  0  0  0  0  0  0  0  0  0  0  0
    1.9322   -2.7345    0.2865 C   0  0  0  0  0  0  0  0  0  0  0  0
  1 19  1  0  0  0  0
  1 30  1  0  0  0  0
  2 52  1  0  0  0  0
  2  6  1  0  0  0  0
  3  4  1  0  0  0  0
  3 74  1  0  0  0  0
  4  6  1  0  0  0  0
  4  1  1  0  0  0  0
  5  4  1  0  0  0  0
  6  8  1  0  0  0  0
  6  7  1  0  0  0  0
  9 11  1  0  0  0  0
  9 10  1  0  0  0  0
 11 12  1  0  0  0  0
 13 14  1  0  0  0  0
 13 11  2  0  0  0  0
 15 13  1  0  0  0  0
 16 15  1  0  0  0  0
 17 15  2  0  0  0  0
 17 19  1  0  0  0  0
 18 17  1  0  0  0  0
 19  9  2  0  0  0  0
 20 22  1  0  0  0  0
 21 20  1  0  0  0  0
 22 24  2  0  0  0  0
 22 23  1  0  0  0  0
 24 25  1  0  0  0  0
 26 27  1  0  0  0  0
 26 24  1  0  0  0  0
 28 26  2  0  0  0  0
 29 28  1  0  0  0  0
 30 28  1  0  0  0  0
 30 20  2  0  0  0  0
 31 32  1  0  0  0  0
 33 34  1  0  0  0  0
 33 31  1  0  0  0  0
 35 33  2  0  0  0  0
 36 35  1  0  0  0  0
 37 39  2  0  0  0  0
 37 35  1  0  0  0  0
 38 37  1  0  0  0  0
 39 41  1  0  0  0  0
 40 39  1  0  0  0  0
 41 31  2  0  0  0  0
 41  2  1  0  0  0  0
 42 43  1  0  0  0  0
 42 44  1  0  0  0  0
 44 45  1  0  0  0  0
 46 47  1  0  0  0  0
 46 44  2  0  0  0  0
 48 46  1  0  0  0  0
 49 48  1  0  0  0  0
 50 52  1  0  0  0  0
 50 48  2  0  0  0  0
 51 50  1  0  0  0  0
 52 42  2  0  0  0  0
 53 54  1  0  0  0  0
 53 63  1  0  0  0  0
 55 53  2  0  0  0  0
 56 55  1  0  0  0  0
 57 55  1  0  0  0  0
 57 59  2  0  0  0  0
 58 57  1  0  0  0  0
 59 61  1  0  0  0  0
 60 59  1  0  0  0  0
 61 63  2  0  0  0  0
 61 62  1  0  0  0  0
 63  3  1  0  0  0  0
 64 66  2  0  0  0  0
 64 74  1  0  0  0  0
 65 64  1  0  0  0  0
 66 68  1  0  0  0  0
 67 66  1  0  0  0  0
 68 69  1  0  0  0  0
 68 70  2  0  0  0  0
 70 71  1  0  0  0  0
 72 70  1  0  0  0  0
 72 73  1  0  0  0  0
 74 72  2  0  0  0  0
M  END
