2
q = 0.0, confidence = 0.984

 38 41  0  0  0  0  0  0  0  0999 V2000
    2.2584    0.2854    0.3168 S   0  0  0  0  0  0  0  0  0  0  0  0
   -0.9435   -0.5047   -0.1578 P   0  0  0  0  0  0  0  0  0  0  0  0
    0.3344   -1.3453   -0.9059 N   0  0  0  0  0  0  0  0  0  0  0  0
    2.6143   -1.7352   -1.2702 N   0  0  0  0  0  0  0  0  0  0  0  0
    2.3980   -2.5257   -1.8797 H   0  0  0  0  0  0  0  0  0  0  0  0
    1.5737   -1.0378   -0.6989 C   0  0  0  0  0  0  0  0  0  0  0  0
    3.9035   -1.3119   -0.9802 C   0  0  0  0  0  0  0  0  0  0  0  0
    3.9057   -0.1996   -0.1030 C   0  0  0  0  0  0  0  0  0  0  0  0
    5.1095    0.3817    0.3131 C   0  0  0  0  0  0  0  0  0  0  0  0
    5.1064    1.2483    0.9898 H   0  0  0  0  0  0  0  0  0  0  0  0
    6.3153   -0.1656   -0.1553 C   0  0  0  0  0  0  0  0  0  0  0  0
    7.2697    0.2784    0.1631 H   0  0  0  0  0  0  0  0  0  0  0  0
    6.3127   -1.2708   -1.0263 C   0  0  0  0  0  0  0  0  0  0  0  0
    7.2661   -1.6852   -1.3854 H   0  0  0  0  0  0  0  0  0  0  0  0
    5.1090   -1.8553   -1.4493 C   0  0  0  0  0  0  0  0  0  0  0  0
    5.1061   -2.7171   -2.1329 H   0  0  0  0  0  0  0  0  0  0  0  0
   -2.3959   -1.0966   -1.0913 C   0  0  0  0  0  0  0  0  0  0  0  0
   -2.2935   -2.1277   -2.0433 C   0  0  0  0  0  0  0  0  0  0  0  0
   -1.3067   -2.5686   -2.2465 H   0  0  0  0  0  0  0  0  0  0  0  0
   -3.4432   -2.5649   -2.7199 C   0  0  0  0  0  0  0  0  0  0  0  0
   -3.3640   -3.3692   -3.4672 H   0  0  0  0  0  0  0  0  0  0  0  0
   -4.6887   -1.9769   -2.4494 C   0  0  0  0  0  0  0  0  0  0  0  0
   -5.5873   -2.3203   -2.9842 H   0  0  0  0  0  0  0  0  0  0  0  0
   -4.7877   -0.9421   -1.5036 C   0  0  0  0  0  0  0  0  0  0  0  0
   -5.7612   -0.4721   -1.2981 H   0  0  0  0  0  0  0  0  0  0  0  0
   -3.6440   -0.4969   -0.8277 C   0  0  0  0  0  0  0  0  0  0  0  0
   -3.7128    0.3265   -0.0986 H   0  0  0  0  0  0  0  0  0  0  0  0
   -1.0967   -1.3050    1.4887 C   0  0  0  0  0  0  0  0  0  0  0  0
   -0.7518   -0.5839    2.6483 C   0  0  0  0  0  0  0  0  0  0  0  0
   -0.4506    0.4724    2.5592 H   0  0  0  0  0  0  0  0  0  0  0  0
   -0.8055   -1.2100    3.9034 C   0  0  0  0  0  0  0  0  0  0  0  0
   -0.5391   -0.6428    4.8080 H   0  0  0  0  0  0  0  0  0  0  0  0
   -1.2031   -2.5520    4.0028 C   0  0  0  0  0  0  0  0  0  0  0  0
   -1.2490   -3.0405    4.9881 H   0  0  0  0  0  0  0  0  0  0  0  0
   -1.5494   -3.2725    2.8462 C   0  0  0  0  0  0  0  0  0  0  0  0
   -1.8673   -4.3233    2.9257 H   0  0  0  0  0  0  0  0  0  0  0  0
   -1.4967   -2.6536    1.5903 C   0  0  0  0  0  0  0  0  0  0  0  0
   -1.7750   -3.2133    0.6839 H   0  0  0  0  0  0  0  0  0  0  0  0
  2 28  1  0  0  0  0
  3  6  2  0  0  0  0
  3  2  1  0  0  0  0
  4  7  1  0  0  0  0
  4  6  1  0  0  0  0
  5  4  1  0  0  0  0
  6  1  1  0  0  0  0
  7  8  1  0  0  0  0
  8  9  2  0  0  0  0
  8  1  1  0  0  0  0
  9 10  1  0  0  0  0
 11 12  1  0  0  0  0
 11  9  1  0  0  0  0
 13 11  2  0  0  0  0
 14 13  1  0  0  0  0
 15 13  1  0  0  0  0
 15  7  2  0  0  0  0
 16 15  1  0  0  0  0
 17 26  1  0  0  0  0
 17  2  1  0  0  0  0
 18 17  2  0  0  0  0
 19 18  1  0  0  0  0
 20 22  2  0  0  0  0
 20 18  1  0  0  0  0
 21 20  1  0  0  0  0
 22 24  1  0  0  0  0
 23 22  1  0  0  0  0
 24 25  1  0  0  0  0
 24 26  2  0  0  0  0
 26 27  1  0  0  0  0
 28 37  2  0  0  0  0
 28 29  1  0  0  0  0
 29 31  2  0  0  0  0
 30 29  1  0  0  0  0
 31 33  1  0  0  0  0
 31 32  1  0  0  0  0
 33 34  1  0  0  0  0
 35 36  1  0  0  0  0
 35 33  2  0  0  0  0
 37 35  1  0  0  0  0
 38 37  1  0  0  0  0
M  END
