1
q = 0.0, confidence = 0.998

 48 50  0  0  0  0  0  0  0  0999 V2000
    0.6847    0.2836    0.1719 P   0  0  0  0  0  0  0  0  0  0  0  0
    2.0318   -0.7219   -0.1290 N   0  0  0  0  0  0  0  0  0  0  0  0
    1.7585   -1.7243   -0.1952 H   0  0  0  0  0  0  0  0  0  0  0  0
    0.8543    1.6209   -1.0749 C   0  0  0  0  0  0  0  0  0  0  0  0
    0.9737    1.1901   -2.4136 C   0  0  0  0  0  0  0  0  0  0  0  0
    0.9978    0.1115   -2.6354 H   0  0  0  0  0  0  0  0  0  0  0  0
    1.0543    2.1296   -3.4498 C   0  0  0  0  0  0  0  0  0  0  0  0
    1.1415    1.7850   -4.4910 H   0  0  0  0  0  0  0  0  0  0  0  0
    1.0225    3.5041   -3.1596 C   0  0  0  0  0  0  0  0  0  0  0  0
    1.0924    4.2415   -3.9736 H   0  0  0  0  0  0  0  0  0  0  0  0
    0.9044    3.9351   -1.8287 C   0  0  0  0  0  0  0  0  0  0  0  0
    0.8833    5.0102   -1.5955 H   0  0  0  0  0  0  0  0  0  0  0  0
    0.8122    2.9987   -0.7875 C   0  0  0  0  0  0  0  0  0  0  0  0
    0.7019    3.3413    0.2490 H   0  0  0  0  0  0  0  0  0  0  0  0
    0.9198    0.9815    1.8554 C   0  0  0  0  0  0  0  0  0  0  0  0
    1.8558    1.9877    2.1824 C   0  0  0  0  0  0  0  0  0  0  0  0
    2.4878    2.4579    1.4177 H   0  0  0  0  0  0  0  0  0  0  0  0
    1.9949    2.4077    3.5152 C   0  0  0  0  0  0  0  0  0  0  0  0
    2.7277    3.1923    3.7572 H   0  0  0  0  0  0  0  0  0  0  0  0
    1.2128    1.8346    4.5291 C   0  0  0  0  0  0  0  0  0  0  0  0
    1.3261    2.1715    5.5707 H   0  0  0  0  0  0  0  0  0  0  0  0
    0.2880    0.8272    4.2101 C   0  0  0  0  0  0  0  0  0  0  0  0
   -0.3294    0.3693    4.9976 H   0  0  0  0  0  0  0  0  0  0  0  0
    0.1454    0.4028    2.8833 C   0  0  0  0  0  0  0  0  0  0  0  0
   -0.5778   -0.3862    2.6233 H   0  0  0  0  0  0  0  0  0  0  0  0
    3.3947   -0.4383   -0.1070 C   0  0  0  0  0  0  0  0  0  0  0  0
    3.9007    0.8748   -0.1814 C   0  0  0  0  0  0  0  0  0  0  0  0
    3.2361    1.7359   -0.3105 H   0  0  0  0  0  0  0  0  0  0  0  0
    5.2817    1.1246   -0.1190 C   0  0  0  0  0  0  0  0  0  0  0  0
    6.1995    0.0643   -0.0306 C   0  0  0  0  0  0  0  0  0  0  0  0
    7.2777    0.2565    0.0140 H   0  0  0  0  0  0  0  0  0  0  0  0
    5.7037   -1.2536    0.0076 C   0  0  0  0  0  0  0  0  0  0  0  0
    4.3212   -1.5032   -0.0209 C   0  0  0  0  0  0  0  0  0  0  0  0
    3.9762   -2.5471    0.0278 H   0  0  0  0  0  0  0  0  0  0  0  0
    5.6949    2.5588   -0.1239 C   0  0  0  0  0  0  0  0  0  0  0  0
    4.9204    3.5026   -0.0523 O   0  0  0  0  0  0  0  0  0  0  0  0
    7.0396    2.7108   -0.2038 O   0  0  0  0  0  0  0  0  0  0  0  0
    7.5038    4.0635   -0.1874 C   0  0  0  0  0  0  0  0  0  0  0  0
    7.0897    4.6337   -1.0436 H   0  0  0  0  0  0  0  0  0  0  0  0
    8.6049    4.0112   -0.2553 H   0  0  0  0  0  0  0  0  0  0  0  0
    7.1971    4.5761    0.7470 H   0  0  0  0  0  0  0  0  0  0  0  0
    6.6080   -2.4419    0.0956 C   0  0  0  0  0  0  0  0  0  0  0  0
    6.2322   -3.6010    0.1369 O   0  0  0  0  0  0  0  0  0  0  0  0
    7.9184   -2.0847    0.1242 O   0  0  0  0  0  0  0  0  0  0  0  0
    8.8416   -3.1741    0.2056 C   0  0  0  0  0  0  0  0  0  0  0  0
    8.6712   -3.7694    1.1255 H   0  0  0  0  0  0  0  0  0  0  0  0
    9.8496   -2.7225    0.2190 H   0  0  0  0  0  0  0  0  0  0  0  0
    8.7320   -3.8514   -0.6656 H   0  0  0  0  0  0  0  0  0  0  0  0
  1 15  1  0  0  0  0
  2 26  1  0  0  0  0
  2  1  1  0  0  0  0
  3  2  1  0  0  0  0
  4 13  1  0  0  0  0
  4  1  1  0  0  0  0
  5  4  2  0  0  0  0
  6  5  1  0  0  0  0
  7  9  2  0  0  0  0
  7  5  1  0  0  0  0
  8  7  1  0  0  0  0
  9 11  1  0  0  0  0
 10  9  1  0  0  0  0
 11 12  1  0  0  0  0
 11 13  2  0  0  0  0
 13 14  1  0  0  0  0
 15 16  2  0  0  0  0
 15 24  1  0  0  0  0
 16 18  1  0  0  0  0
 17 16  1  0  0  0  0
 18 19  1  0  0  0  0
 18 20  2  0  0  0  0
 20 21  1  0  0  0  0
 22 20  1  0  0  0  0
 22 23  1  0  0  0  0
 24 22  2  0  0  0  0
 25 24  1  0  0  0  0
 26 33  1  0  0  0  0
 27 29  1  0  0  0  0
 27 26  2  0  0  0  0
 28 27  1  0  0  0  0
 29 30  2  0  0  0  0
 30 32  1  0  0  0  0
 30 31  1  0  0  0  0
 32 42  1  0  0  0  0
 33 32  2  0  0  0  0
 33 34  1  0  0  0  0
 35 29  1  0  0  0  0
 35 36  2  0  0  0  0
 37 38  1  0  0  0  0
 37 35  1  0  0  0  0
 38 41  1  0  0  0  0
 39 38  1  0  0  0  0
 40 38  1  0  0  0  0
 42 44  1  0  0  0  0
 42 43  2  0  0  0  0
 44 45  1  0  0  0  0
 45 47  1  0  0  0  0
 45 46  1  0  0  0  0
 48 45  1  0  0  0  0
M  END
