1
q = 0.0, confidence = 0.988

 46 50  0  0  0  0  0  0  0  0999 V2000
   -0.1197    0.0002    0.7158 P   0  0  0  0  0  0  0  0  0  0  0  0
   -1.6308   -2.5094   -0.5393 C   0  0  0  0  0  0  0  0  0  0  0  0
   -2.2296   -3.6799   -0.9650 C   0  0  0  0  0  0  0  0  0  0  0  0
   -3.5322   -3.6670   -1.5436 C   0  0  0  0  0  0  0  0  0  0  0  0
   -4.1828   -2.4643   -1.7268 C   0  0  0  0  0  0  0  0  0  0  0  0
   -3.5763   -1.2259   -1.3351 C   0  0  0  0  0  0  0  0  0  0  0  0
   -4.1828    2.4642   -1.7275 C   0  0  0  0  0  0  0  0  0  0  0  0
   -3.5763    1.2259   -1.3354 C   0  0  0  0  0  0  0  0  0  0  0  0
   -3.5321    3.6668   -1.5446 C   0  0  0  0  0  0  0  0  0  0  0  0
   -2.2296    3.6799   -0.9659 C   0  0  0  0  0  0  0  0  0  0  0  0
   -1.6308    2.5095   -0.5398 C   0  0  0  0  0  0  0  0  0  0  0  0
   -2.2788    1.2364   -0.6764 C   0  0  0  0  0  0  0  0  0  0  0  0
   -1.7050    0.0001   -0.2477 C   0  0  0  0  0  0  0  0  0  0  0  0
   -2.2787   -1.2363   -0.6761 C   0  0  0  0  0  0  0  0  0  0  0  0
   -4.2068   -0.0001   -1.6038 C   0  0  0  0  0  0  0  0  0  0  0  0
   -0.2827   -1.3819    1.9450 C   0  0  0  0  0  0  0  0  0  0  0  0
   -1.5260   -1.7124    2.5230 C   0  0  0  0  0  0  0  0  0  0  0  0
   -1.6014   -2.7040    3.5092 C   0  0  0  0  0  0  0  0  0  0  0  0
   -0.4391   -3.3694    3.9350 C   0  0  0  0  0  0  0  0  0  0  0  0
    0.8001   -3.0372    3.3695 C   0  0  0  0  0  0  0  0  0  0  0  0
    0.8788   -2.0476    2.3763 C   0  0  0  0  0  0  0  0  0  0  0  0
   -0.2825    1.3824    1.9449 C   0  0  0  0  0  0  0  0  0  0  0  0
    0.8792    2.0473    2.3766 C   0  0  0  0  0  0  0  0  0  0  0  0
    0.8007    3.0369    3.3698 C   0  0  0  0  0  0  0  0  0  0  0  0
   -0.4385    3.3697    3.9351 C   0  0  0  0  0  0  0  0  0  0  0  0
   -1.6010    2.7049    3.5089 C   0  0  0  0  0  0  0  0  0  0  0  0
   -1.5259    1.7134    2.5226 C   0  0  0  0  0  0  0  0  0  0  0  0
   -0.6226   -2.5624   -0.1149 H   0  0  0  0  0  0  0  0  0  0  0  0
   -1.6852   -4.6305   -0.8626 H   0  0  0  0  0  0  0  0  0  0  0  0
   -4.0013   -4.6097   -1.8624 H   0  0  0  0  0  0  0  0  0  0  0  0
   -5.1746   -2.4275   -2.2035 H   0  0  0  0  0  0  0  0  0  0  0  0
   -5.1746    2.4272   -2.2042 H   0  0  0  0  0  0  0  0  0  0  0  0
   -4.0013    4.6095   -1.8636 H   0  0  0  0  0  0  0  0  0  0  0  0
   -1.6852    4.6305   -0.8637 H   0  0  0  0  0  0  0  0  0  0  0  0
   -0.6227    2.5626   -0.1153 H   0  0  0  0  0  0  0  0  0  0  0  0
   -5.1993   -0.0001   -2.0818 H   0  0  0  0  0  0  0  0  0  0  0  0
   -2.4431   -1.2076    2.1864 H   0  0  0  0  0  0  0  0  0  0  0  0
   -2.5776   -2.9625    3.9467 H   0  0  0  0  0  0  0  0  0  0  0  0
   -0.5022   -4.1496    4.7086 H   0  0  0  0  0  0  0  0  0  0  0  0
    1.7160   -3.5516    3.6971 H   0  0  0  0  0  0  0  0  0  0  0  0
    1.8513   -1.7913    1.9329 H   0  0  0  0  0  0  0  0  0  0  0  0
    1.8517    1.7906    1.9334 H   0  0  0  0  0  0  0  0  0  0  0  0
    1.7167    3.5508    3.6978 H   0  0  0  0  0  0  0  0  0  0  0  0
   -0.5014    4.1499    4.7087 H   0  0  0  0  0  0  0  0  0  0  0  0
   -2.5772    2.9639    3.9461 H   0  0  0  0  0  0  0  0  0  0  0  0
   -2.4432    1.2091    2.1856 H   0  0  0  0  0  0  0  0  0  0  0  0
  1 22  1  0  0  0  0
  1 16  1  0  0  0  0
  2 28  1  0  0  0  0
  3 29  1  0  0  0  0
  3  2  2  0  0  0  0
  4  3  1  0  0  0  0
  5  4  2  0  0  0  0
  5  6  1  0  0  0  0
  6 14  1  0  0  0  0
  7  9  2  0  0  0  0
  7  8  1  0  0  0  0
  8 12  2  0  0  0  0
  9 10  1  0  0  0  0
 10 34  1  0  0  0  0
 10 11  2  0  0  0  0
 11 35  1  0  0  0  0
 12 11  1  0  0  0  0
 12 13  1  0  0  0  0
 13  1  1  0  0  0  0
 14  2  1  0  0  0  0
 14 13  2  0  0  0  0
 15  8  1  0  0  0  0
 15  6  2  0  0  0  0
 16 21  2  0  0  0  0
 16 17  1  0  0  0  0
 17 18  2  0  0  0  0
 18 19  1  0  0  0  0
 18 38  1  0  0  0  0
 19 39  1  0  0  0  0
 20 40  1  0  0  0  0
 20 19  2  0  0  0  0
 21 20  1  0  0  0  0
 22 23  2  0  0  0  0
 22 27  1  0  0  0  0
 23 24  1  0  0  0  0
 24 43  1  0  0  0  0
 24 25  2  0  0  0  0
 25 44  1  0  0  0  0
 26 25  1  0  0  0  0
 26 45  1  0  0  0  0
 27 26  2  0  0  0  0
 30  4  1  0  0  0  0
 31  5  1  0  0  0  0
 32  7  1  0  0  0  0
 33  9  1  0  0  0  0
 36 15  1  0  0  0  0
 37 17  1  0  0  0  0
 41 21  1  0  0  0  0
 42 23  1  0  0  0  0
 46 27  1  0  0  0  0
M  END
