1
q = 0.0, confidence = 0.998

 72 79  0  0  1  0  0  0  0  0999 V2000
    0.4270    0.0773    0.2923 P   0  0  2  0  0  0  0  0  0  0  0  0
    0.0458    0.0025    2.1051 C   0  0  0  0  0  0  0  0  0  0  0  0
   -1.2666   -0.2309    2.6032 C   0  0  0  0  0  0  0  0  0  0  0  0
   -1.4624   -0.2945    4.0018 C   0  0  0  0  0  0  0  0  0  0  0  0
   -2.4825   -0.4761    4.3722 H   0  0  0  0  0  0  0  0  0  0  0  0
   -0.4060   -0.1357    4.9053 C   0  0  0  0  0  0  0  0  0  0  0  0
   -0.5934   -0.1921    5.9883 H   0  0  0  0  0  0  0  0  0  0  0  0
    0.8877    0.0940    4.4173 C   0  0  0  0  0  0  0  0  0  0  0  0
    1.7344    0.2206    5.1086 H   0  0  0  0  0  0  0  0  0  0  0  0
    1.1014    0.1622    3.0356 C   0  0  0  0  0  0  0  0  0  0  0  0
    2.1212    0.3393    2.6746 H   0  0  0  0  0  0  0  0  0  0  0  0
   -2.4825   -0.4279    1.7557 C   0  0  0  0  0  0  0  0  0  0  0  0
   -3.2685    0.6731    1.3568 C   0  0  0  0  0  0  0  0  0  0  0  0
   -2.9429    1.6912    1.6178 H   0  0  0  0  0  0  0  0  0  0  0  0
   -4.4464    0.4747    0.6223 C   0  0  0  0  0  0  0  0  0  0  0  0
   -5.0383    1.3428    0.2961 H   0  0  0  0  0  0  0  0  0  0  0  0
   -4.8573   -0.8230    0.2839 C   0  0  0  0  0  0  0  0  0  0  0  0
   -5.7654   -0.9752   -0.3169 H   0  0  0  0  0  0  0  0  0  0  0  0
   -4.0947   -1.9250    0.6979 C   0  0  0  0  0  0  0  0  0  0  0  0
   -4.4073   -2.9443    0.4270 H   0  0  0  0  0  0  0  0  0  0  0  0
   -2.9171   -1.7312    1.4334 C   0  0  0  0  0  0  0  0  0  0  0  0
   -2.3114   -2.5938    1.7508 H   0  0  0  0  0  0  0  0  0  0  0  0
    1.7765   -1.2391   -0.0127 C   0  0  1  0  0  0  0  0  0  0  0  0
    1.2664   -2.5261    0.6894 C   0  0  0  0  0  0  0  0  0  0  0  0
    1.2009   -2.3631    1.7849 H   0  0  0  0  0  0  0  0  0  0  0  0
    0.2384   -2.7557    0.3321 H   0  0  0  0  0  0  0  0  0  0  0  0
    2.2142   -3.7054    0.3960 C   0  0  1  0  0  0  0  0  0  0  0  0
    1.8301   -4.6074    0.9181 H   0  0  0  0  0  0  0  0  0  0  0  0
    2.2694   -3.9631   -1.1204 C   0  0  0  0  0  0  0  0  0  0  0  0
    1.2586   -4.2215   -1.5012 H   0  0  0  0  0  0  0  0  0  0  0  0
    2.9311   -4.8288   -1.3380 H   0  0  0  0  0  0  0  0  0  0  0  0
    2.7932   -2.7015   -1.8290 C   0  0  1  0  0  0  0  0  0  0  0  0
    2.8173   -2.8698   -2.9263 H   0  0  0  0  0  0  0  0  0  0  0  0
    1.8474   -1.5196   -1.5397 C   0  0  0  0  0  0  0  0  0  0  0  0
    0.8284   -1.7383   -1.9242 H   0  0  0  0  0  0  0  0  0  0  0  0
    2.1997   -0.6192   -2.0814 H   0  0  0  0  0  0  0  0  0  0  0  0
    3.2046   -0.9160    0.4821 C   0  0  0  0  0  0  0  0  0  0  0  0
    3.5898   -0.0093   -0.0289 H   0  0  0  0  0  0  0  0  0  0  0  0
    3.2127   -0.7119    1.5706 H   0  0  0  0  0  0  0  0  0  0  0  0
    4.1470   -2.1071    0.1957 C   0  0  1  0  0  0  0  0  0  0  0  0
    5.1600   -1.8528    0.5743 H   0  0  0  0  0  0  0  0  0  0  0  0
    3.6233   -3.3638    0.9165 C   0  0  0  0  0  0  0  0  0  0  0  0
    3.5938   -3.1911    2.0143 H   0  0  0  0  0  0  0  0  0  0  0  0
    4.3135   -4.2167    0.7421 H   0  0  0  0  0  0  0  0  0  0  0  0
    4.2065   -2.3674   -1.3196 C   0  0  0  0  0  0  0  0  0  0  0  0
    4.9035   -3.2052   -1.5364 H   0  0  0  0  0  0  0  0  0  0  0  0
    4.6025   -1.4725   -1.8466 H   0  0  0  0  0  0  0  0  0  0  0  0
    0.9906    1.8662   -0.0127 C   0  0  2  0  0  0  0  0  0  0  0  0
   -0.2872    2.7312    0.1672 C   0  0  0  0  0  0  0  0  0  0  0  0
   -1.0994    2.3340   -0.4789 H   0  0  0  0  0  0  0  0  0  0  0  0
   -0.6414    2.6545    1.2178 H   0  0  0  0  0  0  0  0  0  0  0  0
    0.0076    4.2016   -0.1863 C   0  0  2  0  0  0  0  0  0  0  0  0
   -0.9233    4.7921   -0.0512 H   0  0  0  0  0  0  0  0  0  0  0  0
    0.4713    4.2887   -1.6523 C   0  0  0  0  0  0  0  0  0  0  0  0
    0.6613    5.3473   -1.9312 H   0  0  0  0  0  0  0  0  0  0  0  0
   -0.3257    3.9116   -2.3276 H   0  0  0  0  0  0  0  0  0  0  0  0
    1.7538    3.4560   -1.8322 C   0  0  2  0  0  0  0  0  0  0  0  0
    2.0906    3.5096   -2.8890 H   0  0  0  0  0  0  0  0  0  0  0  0
    1.4697    1.9825   -1.4809 C   0  0  0  0  0  0  0  0  0  0  0  0
    2.3960    1.3879   -1.6252 H   0  0  0  0  0  0  0  0  0  0  0  0
    0.6984    1.5585   -2.1597 H   0  0  0  0  0  0  0  0  0  0  0  0
    2.0837    2.4286    0.9238 C   0  0  0  0  0  0  0  0  0  0  0  0
    1.7410    2.3848    1.9769 H   0  0  0  0  0  0  0  0  0  0  0  0
    3.0138    1.8296    0.8504 H   0  0  0  0  0  0  0  0  0  0  0  0
    2.3852    3.9002    0.5585 C   0  0  2  0  0  0  0  0  0  0  0  0
    3.1824    4.2738    1.2361 H   0  0  0  0  0  0  0  0  0  0  0  0
    1.1104    4.7437    0.7408 C   0  0  0  0  0  0  0  0  0  0  0  0
    1.3204    5.8093    0.5064 H   0  0  0  0  0  0  0  0  0  0  0  0
    0.7743    4.7046    1.7994 H   0  0  0  0  0  0  0  0  0  0  0  0
    2.8588    3.9923   -0.9035 C   0  0  0  0  0  0  0  0  0  0  0  0
    3.0993    5.0463   -1.1600 H   0  0  0  0  0  0  0  0  0  0  0  0
    3.7928    3.4054   -1.0421 H   0  0  0  0  0  0  0  0  0  0  0  0
  1  2  1  1  0  0  0
  2  3  2  0  0  0  0
  2 10  1  0  0  0  0
  3  4  1  0  0  0  0
  4  5  1  0  0  0  0
  4  6  2  0  0  0  0
  6  7  1  0  0  0  0
  8  6  1  0  0  0  0
  8  9  1  0  0  0  0
 10  8  2  0  0  0  0
 11 10  1  0  0  0  0
 12  3  1  0  0  0  0
 13 14  1  0  0  0  0
 13 12  2  0  0  0  0
 15 13  1  0  0  0  0
 16 15  1  0  0  0  0
 17 15  2  0  0  0  0
 17 19  1  0  0  0  0
 18 17  1  0  0  0  0
 19 21  2  0  0  0  0
 20 19  1  0  0  0  0
 21 22  1  0  0  0  0
 21 12  1  0  0  0  0
 23  1  1  1  0  0  0
 23 37  1  0  0  0  0
 23 24  1  0  0  0  0
 24 25  1  0  0  0  0
 26 24  1  0  0  0  0
 27 24  1  0  0  0  0
 27 42  1  0  0  0  0
 27 28  1  1  0  0  0
 29 27  1  0  0  0  0
 30 29  1  0  0  0  0
 31 29  1  0  0  0  0
 32 33  1  6  0  0  0
 32 34  1  0  0  0  0
 32 45  1  0  0  0  0
 32 29  1  0  0  0  0
 34 23  1  0  0  0  0
 35 34  1  0  0  0  0
 36 34  1  0  0  0  0
 37 39  1  0  0  0  0
 38 37  1  0  0  0  0
 40 37  1  0  0  0  0
 40 41  1  1  0  0  0
 40 42  1  0  0  0  0
 42 43  1  0  0  0  0
 44 42  1  0  0  0  0
 45 40  1  0  0  0  0
 46 45  1  0  0  0  0
 47 45  1  0  0  0  0
 48 49  1  0  0  0  0
 48  1  1  1  0  0  0
 48 62  1  0  0  0  0
 49 51  1  0  0  0  0
 50 49  1  0  0  0  0
 52 53  1  1  0  0  0
 52 49  1  0  0  0  0
 52 67  1  0  0  0  0
 54 52  1  0  0  0  0
 55 54  1  0  0  0  0
 56 54  1  0  0  0  0
 57 58  1  6  0  0  0
 57 54  1  0  0  0  0
 57 59  1  0  0  0  0
 57 70  1  0  0  0  0
 59 48  1  0  0  0  0
 60 59  1  0  0  0  0
 61 59  1  0  0  0  0
 62 63  1  0  0  0  0
 64 62  1  0  0  0  0
 65 67  1  0  0  0  0
 65 62  1  0  0  0  0
 65 66  1  1  0  0  0
 67 69  1  0  0  0  0
 68 67  1  0  0  0  0
 70 65  1  0  0  0  0
 71 70  1  0  0  0  0
 72 70  1  0  0  0  0
M  END
