1
q = 0.0, confidence = 0.998

 51 52  0  0  1  0  0  0  0  0999 V2000
    0.0767   -0.0807   -0.1715 P   0  0  0  0  0  0  0  0  0  0  0  0
    1.7265    0.2646   -0.1006 C   0  0  0  0  0  0  0  0  0  0  0  0
    2.3466    2.0916   -0.1044 Si  0  0  0  0  0  0  0  0  0  0  0  0
    4.2374    2.0158   -0.1760 C   0  0  0  0  0  0  0  0  0  0  0  0
    1.8905    2.9908    1.4969 C   0  0  0  0  0  0  0  0  0  0  0  0
    1.7326    2.9880   -1.6511 C   0  0  0  0  0  0  0  0  0  0  0  0
    2.8222   -0.7385   -0.0400 C   0  0  0  0  0  0  0  0  0  0  0  0
    3.2481   -1.2530    1.2057 C   0  0  0  0  0  0  0  0  0  0  0  0
    4.3082   -2.1689    1.2785 C   0  0  0  0  0  0  0  0  0  0  0  0
    4.9673   -2.5833    0.1103 C   0  0  0  0  0  0  0  0  0  0  0  0
    4.5656   -2.0636   -1.1312 C   0  0  0  0  0  0  0  0  0  0  0  0
    3.5105   -1.1439   -1.2056 C   0  0  0  0  0  0  0  0  0  0  0  0
   -0.3675   -1.9511   -0.2616 C   0  0  1  0  0  0  0  0  0  0  0  0
   -1.0979   -2.1577    1.0476 C   0  0  0  0  0  0  0  0  0  0  0  0
   -2.4447   -2.2465    0.7782 C   0  0  0  0  0  0  0  0  0  0  0  0
   -2.6655   -2.1254   -0.6758 C   0  0  0  0  0  0  0  0  0  0  0  0
   -1.4566   -1.9679   -1.3111 C   0  0  0  0  0  0  0  0  0  0  0  0
    0.7560   -2.9512   -0.5409 C   0  0  0  0  0  0  0  0  0  0  0  0
   -0.3915   -2.2555    2.3616 C   0  0  0  0  0  0  0  0  0  0  0  0
   -3.5613   -2.4488    1.7526 C   0  0  0  0  0  0  0  0  0  0  0  0
   -4.0242   -2.1833   -1.2992 C   0  0  0  0  0  0  0  0  0  0  0  0
   -1.1600   -1.8888   -2.7751 C   0  0  0  0  0  0  0  0  0  0  0  0
    4.6421    3.0493   -0.1819 H   0  0  0  0  0  0  0  0  0  0  0  0
    4.6584    1.4853    0.7017 H   0  0  0  0  0  0  0  0  0  0  0  0
    4.6008    1.4978   -1.0855 H   0  0  0  0  0  0  0  0  0  0  0  0
    2.5471    3.8786    1.6090 H   0  0  0  0  0  0  0  0  0  0  0  0
    0.8426    3.3399    1.5155 H   0  0  0  0  0  0  0  0  0  0  0  0
    2.0510    2.3346    2.3760 H   0  0  0  0  0  0  0  0  0  0  0  0
    2.0170    4.0599   -1.6123 H   0  0  0  0  0  0  0  0  0  0  0  0
    2.1955    2.5412   -2.5545 H   0  0  0  0  0  0  0  0  0  0  0  0
    0.6341    2.9268   -1.7597 H   0  0  0  0  0  0  0  0  0  0  0  0
    2.7286   -0.9308    2.1210 H   0  0  0  0  0  0  0  0  0  0  0  0
    4.6190   -2.5641    2.2579 H   0  0  0  0  0  0  0  0  0  0  0  0
    5.7959   -3.3050    0.1672 H   0  0  0  0  0  0  0  0  0  0  0  0
    5.0791   -2.3784   -2.0526 H   0  0  0  0  0  0  0  0  0  0  0  0
    3.1944   -0.7387   -2.1792 H   0  0  0  0  0  0  0  0  0  0  0  0
    0.2929   -3.9563   -0.6268 H   0  0  0  0  0  0  0  0  0  0  0  0
    1.2846   -2.7305   -1.4861 H   0  0  0  0  0  0  0  0  0  0  0  0
    1.5093   -2.9820    0.2654 H   0  0  0  0  0  0  0  0  0  0  0  0
   -1.1040   -2.3723    3.1998 H   0  0  0  0  0  0  0  0  0  0  0  0
    0.3063   -3.1210    2.3878 H   0  0  0  0  0  0  0  0  0  0  0  0
    0.2190   -1.3517    2.5732 H   0  0  0  0  0  0  0  0  0  0  0  0
   -3.1970   -2.5346    2.7936 H   0  0  0  0  0  0  0  0  0  0  0  0
   -4.2816   -1.6054    1.7106 H   0  0  0  0  0  0  0  0  0  0  0  0
   -4.1377   -3.3686    1.5166 H   0  0  0  0  0  0  0  0  0  0  0  0
   -3.9845   -2.0485   -2.3965 H   0  0  0  0  0  0  0  0  0  0  0  0
   -4.5219   -3.1551   -1.0943 H   0  0  0  0  0  0  0  0  0  0  0  0
   -4.6853   -1.3963   -0.8797 H   0  0  0  0  0  0  0  0  0  0  0  0
   -2.0626   -1.6456   -3.3668 H   0  0  0  0  0  0  0  0  0  0  0  0
   -0.3999   -1.1119   -3.0009 H   0  0  0  0  0  0  0  0  0  0  0  0
   -0.7550   -2.8514   -3.1596 H   0  0  0  0  0  0  0  0  0  0  0  0
  1  2  2  0  0  0  0
  2  7  1  0  0  0  0
  3  2  1  0  0  0  0
  3  5  1  0  0  0  0
  4  3  1  0  0  0  0
  4 24  1  0  0  0  0
  5 27  1  0  0  0  0
  5 26  1  0  0  0  0
  5 28  1  0  0  0  0
  6 29  1  0  0  0  0
  6  3  1  0  0  0  0
  7  8  1  0  0  0  0
  8  9  2  0  0  0  0
  8 32  1  0  0  0  0
  9 33  1  0  0  0  0
 10 34  1  0  0  0  0
 10  9  1  0  0  0  0
 11 10  2  0  0  0  0
 12 11  1  0  0  0  0
 12  7  2  0  0  0  0
 13  1  1  1  0  0  0
 13 14  1  0  0  0  0
 14 19  1  0  0  0  0
 15 14  2  0  0  0  0
 15 20  1  0  0  0  0
 16 15  1  0  0  0  0
 17 16  2  0  0  0  0
 17 13  1  0  0  0  0
 18 13  1  0  0  0  0
 18 39  1  0  0  0  0
 19 41  1  0  0  0  0
 19 42  1  0  0  0  0
 19 40  1  0  0  0  0
 20 43  1  0  0  0  0
 21 47  1  0  0  0  0
 21 48  1  0  0  0  0
 21 16  1  0  0  0  0
 22 17  1  0  0  0  0
 23  4  1  0  0  0  0
 25  4  1  0  0  0  0
 30  6  1  0  0  0  0
 31  6  1  0  0  0  0
 35 11  1  0  0  0  0
 36 12  1  0  0  0  0
 37 18  1  0  0  0  0
 38 18  1  0  0  0  0
 44 20  1  0  0  0  0
 45 20  1  0  0  0  0
 46 21  1  0  0  0  0
 49 22  1  0  0  0  0
 50 22  1  0  0  0  0
 51 22  1  0  0  0  0
M  END
