1
q = 0.0, confidence = 0.998

 56 59  0  0  0  0  0  0  0  0999 V2000
   -1.1446   -0.0225    0.2897 P   0  0  0  0  0  0  0  0  0  0  0  0
    1.6002   -0.9390   -0.7285 N   0  0  0  0  0  0  0  0  0  0  0  0
    4.4295   -1.1125    0.0612 N   0  0  0  0  0  0  0  0  0  0  0  0
    1.6961    0.1146    0.2195 C   0  0  0  0  0  0  0  0  0  0  0  0
    0.5128    0.6276    0.7971 C   0  0  0  0  0  0  0  0  0  0  0  0
    0.5455    1.8428    1.5430 C   0  0  0  0  0  0  0  0  0  0  0  0
   -0.3705    2.2146    2.0198 H   0  0  0  0  0  0  0  0  0  0  0  0
    1.6824    2.6280    1.5544 C   0  0  0  0  0  0  0  0  0  0  0  0
    1.6607    3.6265    2.0171 H   0  0  0  0  0  0  0  0  0  0  0  0
    2.8895    2.1732    0.9561 C   0  0  0  0  0  0  0  0  0  0  0  0
    4.0301    3.0215    0.8600 C   0  0  0  0  0  0  0  0  0  0  0  0
    3.9510    4.0596    1.2162 H   0  0  0  0  0  0  0  0  0  0  0  0
    5.2075    2.5404    0.3129 C   0  0  0  0  0  0  0  0  0  0  0  0
    6.0811    3.2010    0.2029 H   0  0  0  0  0  0  0  0  0  0  0  0
    5.3331    1.1672   -0.0094 C   0  0  0  0  0  0  0  0  0  0  0  0
    6.3222    0.7782   -0.2854 H   0  0  0  0  0  0  0  0  0  0  0  0
    4.2537    0.2870    0.1293 C   0  0  0  0  0  0  0  0  0  0  0  0
    2.9426    0.8244    0.4405 C   0  0  0  0  0  0  0  0  0  0  0  0
    1.5736   -2.3449   -0.3606 C   0  0  0  0  0  0  0  0  0  0  0  0
    0.8184   -2.8976   -0.9560 H   0  0  0  0  0  0  0  0  0  0  0  0
    1.3243   -2.4675    0.7058 H   0  0  0  0  0  0  0  0  0  0  0  0
    2.5662   -2.8198   -0.5423 H   0  0  0  0  0  0  0  0  0  0  0  0
    2.1828   -0.6961   -2.0394 C   0  0  0  0  0  0  0  0  0  0  0  0
    1.6053   -1.2624   -2.7983 H   0  0  0  0  0  0  0  0  0  0  0  0
    3.2470   -1.0221   -2.1053 H   0  0  0  0  0  0  0  0  0  0  0  0
    2.1177    0.3785   -2.2903 H   0  0  0  0  0  0  0  0  0  0  0  0
    4.1813   -1.8018    1.3265 C   0  0  0  0  0  0  0  0  0  0  0  0
    4.0620   -2.8899    1.1526 H   0  0  0  0  0  0  0  0  0  0  0  0
    3.2572   -1.4244    1.7993 H   0  0  0  0  0  0  0  0  0  0  0  0
    5.0245   -1.6524    2.0466 H   0  0  0  0  0  0  0  0  0  0  0  0
    5.6180   -1.6092   -0.6047 C   0  0  0  0  0  0  0  0  0  0  0  0
    5.7363   -1.1210   -1.5913 H   0  0  0  0  0  0  0  0  0  0  0  0
    5.5092   -2.7000   -0.7714 H   0  0  0  0  0  0  0  0  0  0  0  0
    6.5593   -1.4530   -0.0180 H   0  0  0  0  0  0  0  0  0  0  0  0
   -1.2878   -1.6955    1.0408 C   0  0  0  0  0  0  0  0  0  0  0  0
   -2.1512   -2.6502    0.4749 C   0  0  0  0  0  0  0  0  0  0  0  0
   -2.7029   -2.4052   -0.4447 H   0  0  0  0  0  0  0  0  0  0  0  0
   -2.3013   -3.9085    1.0786 C   0  0  0  0  0  0  0  0  0  0  0  0
   -2.9732   -4.6526    0.6250 H   0  0  0  0  0  0  0  0  0  0  0  0
   -1.5952   -4.2183    2.2511 C   0  0  0  0  0  0  0  0  0  0  0  0
   -1.7107   -5.2075    2.7195 H   0  0  0  0  0  0  0  0  0  0  0  0
   -0.7395   -3.2636    2.8261 C   0  0  0  0  0  0  0  0  0  0  0  0
   -0.1852   -3.5009    3.7470 H   0  0  0  0  0  0  0  0  0  0  0  0
   -0.5851   -2.0064    2.2243 C   0  0  0  0  0  0  0  0  0  0  0  0
    0.0924   -1.2594    2.6674 H   0  0  0  0  0  0  0  0  0  0  0  0
   -2.2998    0.9612    1.3650 C   0  0  0  0  0  0  0  0  0  0  0  0
   -2.7209    2.2294    0.9092 C   0  0  0  0  0  0  0  0  0  0  0  0
   -2.3836    2.5876   -0.0748 H   0  0  0  0  0  0  0  0  0  0  0  0
   -3.5717    3.0197    1.6927 C   0  0  0  0  0  0  0  0  0  0  0  0
   -3.8883    4.0072    1.3245 H   0  0  0  0  0  0  0  0  0  0  0  0
   -4.0300    2.5473    2.9335 C   0  0  0  0  0  0  0  0  0  0  0  0
   -4.7080    3.1632    3.5437 H   0  0  0  0  0  0  0  0  0  0  0  0
   -3.6286    1.2820    3.3852 C   0  0  0  0  0  0  0  0  0  0  0  0
   -3.9922    0.8982    4.3506 H   0  0  0  0  0  0  0  0  0  0  0  0
   -2.7658    0.4919    2.6081 C   0  0  0  0  0  0  0  0  0  0  0  0
   -2.4647   -0.4993    2.9748 H   0  0  0  0  0  0  0  0  0  0  0  0
  1  5  1  0  0  0  0
  1 35  1  0  0  0  0
  1 46  1  0  0  0  0
  2 19  1  0  0  0  0
  2  4  1  0  0  0  0
  3 17  1  0  0  0  0
  3 27  1  0  0  0  0
  4 18  2  0  0  0  0
  4  5  1  0  0  0  0
  5  6  2  0  0  0  0
  6  8  1  0  0  0  0
  6  7  1  0  0  0  0
  8  9  1  0  0  0  0
 10  8  2  0  0  0  0
 11 10  1  0  0  0  0
 11 12  1  0  0  0  0
 13 11  2  0  0  0  0
 14 13  1  0  0  0  0
 15 17  2  0  0  0  0
 15 13  1  0  0  0  0
 16 15  1  0  0  0  0
 17 18  1  0  0  0  0
 18 10  1  0  0  0  0
 19 21  1  0  0  0  0
 20 19  1  0  0  0  0
 22 19  1  0  0  0  0
 23  2  1  0  0  0  0
 24 23  1  0  0  0  0
 25 23  1  0  0  0  0
 26 23  1  0  0  0  0
 27 29  1  0  0  0  0
 27 30  1  0  0  0  0
 28 27  1  0  0  0  0
 31 34  1  0  0  0  0
 31  3  1  0  0  0  0
 32 31  1  0  0  0  0
 33 31  1  0  0  0  0
 35 44  1  0  0  0  0
 36 35  2  0  0  0  0
 36 38  1  0  0  0  0
 37 36  1  0  0  0  0
 38 40  2  0  0  0  0
 39 38  1  0  0  0  0
 40 41  1  0  0  0  0
 40 42  1  0  0  0  0
 42 43  1  0  0  0  0
 44 45  1  0  0  0  0
 44 42  2  0  0  0  0
 46 55  1  0  0  0  0
 47 46  2  0  0  0  0
 47 49  1  0  0  0  0
 48 47  1  0  0  0  0
 49 51  2  0  0  0  0
 50 49  1  0  0  0  0
 51 53  1  0  0  0  0
 51 52  1  0  0  0  0
 53 54  1  0  0  0  0
 55 56  1  0  0  0  0
 55 53  2  0  0  0  0
M  END
