4
q = 0.0, confidence = 0.998

 33 33  0  0  1  0  0  0  0  0999 V2000
    0.7106   -2.2131    0.0520 Br  0  0  0  0  0  0  0  0  0  0  0  0
    3.2114    0.6479   -2.5629 Br  0  0  0  0  0  0  0  0  0  0  0  0
    4.0519   -1.1640    1.6036 Br  0  0  0  0  0  0  0  0  0  0  0  0
   -0.5294    1.3069    0.6373 P   0  0  0  0  0  0  0  0  0  0  0  0
   -0.4961    1.6015    2.4787 C   0  0  0  0  0  0  0  0  0  0  0  0
    0.4093    2.2136    2.6853 H   0  0  0  0  0  0  0  0  0  0  0  0
   -0.3781    0.2541    3.2020 C   0  0  0  0  0  0  0  0  0  0  0  0
   -0.3357    0.4185    4.2982 H   0  0  0  0  0  0  0  0  0  0  0  0
    0.5299   -0.3060    2.9023 H   0  0  0  0  0  0  0  0  0  0  0  0
   -1.2566   -0.3869    2.9833 H   0  0  0  0  0  0  0  0  0  0  0  0
   -1.7463    2.3834    2.8985 C   0  0  0  0  0  0  0  0  0  0  0  0
   -2.6682    1.8312    2.6208 H   0  0  0  0  0  0  0  0  0  0  0  0
   -1.7960    3.3889    2.4351 H   0  0  0  0  0  0  0  0  0  0  0  0
   -1.7521    2.5215    3.9990 H   0  0  0  0  0  0  0  0  0  0  0  0
   -0.5150    2.9795   -0.2108 C   0  0  0  0  0  0  0  0  0  0  0  0
   -1.5228    3.3787    0.0397 H   0  0  0  0  0  0  0  0  0  0  0  0
    0.5604    3.9357    0.3068 C   0  0  0  0  0  0  0  0  0  0  0  0
    1.5773    3.5523    0.0852 H   0  0  0  0  0  0  0  0  0  0  0  0
    0.4834    4.1201    1.3968 H   0  0  0  0  0  0  0  0  0  0  0  0
    0.4634    4.9169   -0.2019 H   0  0  0  0  0  0  0  0  0  0  0  0
   -0.4319    2.7729   -1.7288 C   0  0  0  0  0  0  0  0  0  0  0  0
   -0.5568    3.7441   -2.2496 H   0  0  0  0  0  0  0  0  0  0  0  0
   -1.2218    2.0846   -2.0916 H   0  0  0  0  0  0  0  0  0  0  0  0
    0.5550    2.3600   -2.0253 H   0  0  0  0  0  0  0  0  0  0  0  0
    1.1213    0.6182    0.2583 C   0  0  0  0  0  0  0  0  0  0  0  0
    1.3147   -0.4876   -0.7465 C   0  0  1  0  0  0  0  0  0  0  0  0
    0.7099   -0.4012   -1.6661 H   0  0  0  0  0  0  0  0  0  0  0  0
    2.8305   -0.5047   -0.9877 C   0  0  2  0  0  0  0  0  0  0  0  0
    3.2530   -1.4917   -1.2364 H   0  0  0  0  0  0  0  0  0  0  0  0
    3.4422    0.1767    0.2471 C   0  0  1  0  0  0  0  0  0  0  0  0
    4.3582    0.7505    0.0240 H   0  0  0  0  0  0  0  0  0  0  0  0
    2.3100    0.9671    0.8171 C   0  0  0  0  0  0  0  0  0  0  0  0
    2.4579    1.6990    1.6231 H   0  0  0  0  0  0  0  0  0  0  0  0
  2 28  1  0  0  0  0
  4  5  1  0  0  0  0
  5  6  1  0  0  0  0
  5 11  1  0  0  0  0
  5  7  1  0  0  0  0
  7  8  1  0  0  0  0
  9  7  1  0  0  0  0
 10  7  1  0  0  0  0
 11 14  1  0  0  0  0
 12 11  1  0  0  0  0
 13 11  1  0  0  0  0
 15 16  1  0  0  0  0
 15 17  1  0  0  0  0
 15  4  1  0  0  0  0
 17 19  1  0  0  0  0
 18 17  1  0  0  0  0
 20 17  1  0  0  0  0
 21 15  1  0  0  0  0
 22 21  1  0  0  0  0
 23 21  1  0  0  0  0
 24 21  1  0  0  0  0
 25  4  1  0  0  0  0
 25 32  2  0  0  0  0
 26 27  1  6  0  0  0
 26  1  1  0  0  0  0
 26 25  1  0  0  0  0
 28 29  1  6  0  0  0
 28 26  1  0  0  0  0
 28 30  1  0  0  0  0
 30 31  1  6  0  0  0
 30 32  1  0  0  0  0
 30  3  1  0  0  0  0
 32 33  1  0  0  0  0
M  END
