1
q = 0.0, confidence = 0.996

 59 62  0  0  0  0  0  0  0  0999 V2000
   -2.2569   -0.2740   -0.2950 P   0  0  0  0  0  0  0  0  0  0  0  0
   -2.6058   -1.3205    1.1733 C   0  0  0  0  0  0  0  0  0  0  0  0
   -3.7664   -2.1088    1.2778 C   0  0  0  0  0  0  0  0  0  0  0  0
   -4.5284   -2.0620    0.4858 H   0  0  0  0  0  0  0  0  0  0  0  0
   -3.9367   -2.9711    2.3709 C   0  0  0  0  0  0  0  0  0  0  0  0
   -4.8433   -3.5899    2.4422 H   0  0  0  0  0  0  0  0  0  0  0  0
   -2.9430   -3.0536    3.3592 C   0  0  0  0  0  0  0  0  0  0  0  0
   -3.0665   -3.7422    4.2084 H   0  0  0  0  0  0  0  0  0  0  0  0
   -1.7945   -2.2540    3.2822 C   0  0  0  0  0  0  0  0  0  0  0  0
   -1.0151   -2.3059    4.0535 H   0  0  0  0  0  0  0  0  0  0  0  0
   -1.6287   -1.3678    2.2040 C   0  0  0  0  0  0  0  0  0  0  0  0
   -0.4828   -0.5483    2.0974 N   0  0  0  0  0  0  0  0  0  0  0  0
   -0.6389    0.3991    1.7172 H   0  0  0  0  0  0  0  0  0  0  0  0
    0.8080   -1.0329    2.0799 C   0  0  0  0  0  0  0  0  0  0  0  0
    1.1051   -2.1954    2.3370 O   0  0  0  0  0  0  0  0  0  0  0  0
    1.8665    0.0101    1.7075 C   0  0  0  0  0  0  0  0  0  0  0  0
    1.5151    0.6903    0.9032 H   0  0  0  0  0  0  0  0  0  0  0  0
    2.0521    0.6486    2.6043 H   0  0  0  0  0  0  0  0  0  0  0  0
    3.0527   -0.6740    1.2657 N   0  0  0  0  0  0  0  0  0  0  0  0
    3.1589   -1.6357    1.6051 H   0  0  0  0  0  0  0  0  0  0  0  0
    3.7158   -0.2967    0.1349 C   0  0  0  0  0  0  0  0  0  0  0  0
    3.5328    0.7488   -0.4792 O   0  0  0  0  0  0  0  0  0  0  0  0
    4.6183   -1.2626   -0.2163 O   0  0  0  0  0  0  0  0  0  0  0  0
    5.4857   -0.9361   -1.3247 C   0  0  0  0  0  0  0  0  0  0  0  0
    4.9231   -0.3040   -2.0406 H   0  0  0  0  0  0  0  0  0  0  0  0
    5.7236   -1.9101   -1.7942 H   0  0  0  0  0  0  0  0  0  0  0  0
    6.7467   -0.2394   -0.8723 C   0  0  0  0  0  0  0  0  0  0  0  0
    6.7465    1.1499   -0.6259 C   0  0  0  0  0  0  0  0  0  0  0  0
    5.8150    1.7160   -0.7774 H   0  0  0  0  0  0  0  0  0  0  0  0
    7.9112    1.7895   -0.1785 C   0  0  0  0  0  0  0  0  0  0  0  0
    7.9005    2.8739    0.0102 H   0  0  0  0  0  0  0  0  0  0  0  0
    9.0895    1.0523    0.0252 C   0  0  0  0  0  0  0  0  0  0  0  0
   10.0036    1.5571    0.3735 H   0  0  0  0  0  0  0  0  0  0  0  0
    9.0987   -0.3300   -0.2186 C   0  0  0  0  0  0  0  0  0  0  0  0
   10.0195   -0.9125   -0.0622 H   0  0  0  0  0  0  0  0  0  0  0  0
    7.9321   -0.9702   -0.6630 C   0  0  0  0  0  0  0  0  0  0  0  0
    7.9393   -2.0556   -0.8535 H   0  0  0  0  0  0  0  0  0  0  0  0
   -3.6209   -0.6193   -1.4639 C   0  0  0  0  0  0  0  0  0  0  0  0
   -4.7337    0.2460   -1.4785 C   0  0  0  0  0  0  0  0  0  0  0  0
   -4.7444    1.1312   -0.8224 H   0  0  0  0  0  0  0  0  0  0  0  0
   -5.8123   -0.0176   -2.3352 C   0  0  0  0  0  0  0  0  0  0  0  0
   -6.6788    0.6604   -2.3454 H   0  0  0  0  0  0  0  0  0  0  0  0
   -5.7789   -1.1350   -3.1850 C   0  0  0  0  0  0  0  0  0  0  0  0
   -6.6225   -1.3355   -3.8628 H   0  0  0  0  0  0  0  0  0  0  0  0
   -4.6657   -1.9914   -3.1788 C   0  0  0  0  0  0  0  0  0  0  0  0
   -4.6346   -2.8620   -3.8511 H   0  0  0  0  0  0  0  0  0  0  0  0
   -3.5860   -1.7383   -2.3201 C   0  0  0  0  0  0  0  0  0  0  0  0
   -2.7107   -2.4053   -2.3205 H   0  0  0  0  0  0  0  0  0  0  0  0
   -0.7306   -1.0107   -0.9989 C   0  0  0  0  0  0  0  0  0  0  0  0
   -0.3902   -2.3603   -0.7710 C   0  0  0  0  0  0  0  0  0  0  0  0
   -1.0462   -3.0031   -0.1652 H   0  0  0  0  0  0  0  0  0  0  0  0
    0.8172   -2.8678   -1.2722 C   0  0  0  0  0  0  0  0  0  0  0  0
    1.0922   -3.9133   -1.0685 H   0  0  0  0  0  0  0  0  0  0  0  0
    1.6815   -2.0397   -2.0060 C   0  0  0  0  0  0  0  0  0  0  0  0
    2.6385   -2.4365   -2.3766 H   0  0  0  0  0  0  0  0  0  0  0  0
    1.3404   -0.6982   -2.2413 C   0  0  0  0  0  0  0  0  0  0  0  0
    2.0290   -0.0360   -2.7841 H   0  0  0  0  0  0  0  0  0  0  0  0
    0.1385   -0.1816   -1.7373 C   0  0  0  0  0  0  0  0  0  0  0  0
   -0.1128    0.8806   -1.8859 H   0  0  0  0  0  0  0  0  0  0  0  0
  1  2  1  0  0  0  0
  2  3  2  0  0  0  0
  2 11  1  0  0  0  0
  3  5  1  0  0  0  0
  4  3  1  0  0  0  0
  5  6  1  0  0  0  0
  5  7  2  0  0  0  0
  7  8  1  0  0  0  0
  9  7  1  0  0  0  0
  9 10  1  0  0  0  0
 11  9  2  0  0  0  0
 12 11  1  0  0  0  0
 13 12  1  0  0  0  0
 14 12  1  0  0  0  0
 14 15  2  0  0  0  0
 16 14  1  0  0  0  0
 16 18  1  0  0  0  0
 17 16  1  0  0  0  0
 19 20  1  0  0  0  0
 19 16  1  0  0  0  0
 21 19  1  0  0  0  0
 22 21  2  0  0  0  0
 23 21  1  0  0  0  0
 24 27  1  0  0  0  0
 24 23  1  0  0  0  0
 25 24  1  0  0  0  0
 26 24  1  0  0  0  0
 27 36  2  0  0  0  0
 27 28  1  0  0  0  0
 28 30  2  0  0  0  0
 29 28  1  0  0  0  0
 30 31  1  0  0  0  0
 30 32  1  0  0  0  0
 32 33  1  0  0  0  0
 34 35  1  0  0  0  0
 34 32  2  0  0  0  0
 36 34  1  0  0  0  0
 37 36  1  0  0  0  0
 38  1  1  0  0  0  0
 39 38  1  0  0  0  0
 39 40  1  0  0  0  0
 41 39  2  0  0  0  0
 42 41  1  0  0  0  0
 43 45  2  0  0  0  0
 43 41  1  0  0  0  0
 44 43  1  0  0  0  0
 45 47  1  0  0  0  0
 46 45  1  0  0  0  0
 47 38  2  0  0  0  0
 48 47  1  0  0  0  0
 49 50  1  0  0  0  0
 49  1  1  0  0  0  0
 50 51  1  0  0  0  0
 52 53  1  0  0  0  0
 52 50  2  0  0  0  0
 54 52  1  0  0  0  0
 55 54  1  0  0  0  0
 56 54  2  0  0  0  0
 56 58  1  0  0  0  0
 57 56  1  0  0  0  0
 58 49  2  0  0  0  0
 59 58  1  0  0  0  0
M  END
