1
q = 0.0, confidence = 0.988

 53 54  0  0  1  0  0  0  0  0999 V2000
    0.5017   -0.0526    0.1149 P   0  0  2  0  0  0  0  0  0  0  0  0
    0.5331    1.7790    0.6014 C   0  0  2  0  0  3  0  0  0  0  0  0
    0.9476    1.8825    1.8333 N   0  0  0  0  0  0  0  0  0  0  0  0
    1.3443    0.6194    2.3385 C   0  0  0  0  0  0  0  0  0  0  0  0
    1.2560   -0.4642    1.5932 N   0  0  0  0  0  2  0  0  0  0  0  0
    1.7331   -0.5549   -1.1611 C   0  0  0  0  0  0  0  0  0  0  0  0
    1.1564   -0.6563   -2.1078 H   0  0  0  0  0  0  0  0  0  0  0  0
    3.1932    0.6634   -1.5050 Si  0  0  0  0  0  0  0  0  0  0  0  0
    4.4649   -0.1579   -2.6511 C   0  0  0  0  0  0  0  0  0  0  0  0
    4.9224   -1.0801   -2.2471 H   0  0  0  0  0  0  0  0  0  0  0  0
    5.2810    0.5710   -2.8382 H   0  0  0  0  0  0  0  0  0  0  0  0
    4.0094   -0.4017   -3.6328 H   0  0  0  0  0  0  0  0  0  0  0  0
    2.6372    2.2022   -2.4600 C   0  0  0  0  0  0  0  0  0  0  0  0
    2.0920    2.9341   -1.8363 H   0  0  0  0  0  0  0  0  0  0  0  0
    1.9987    1.9466   -3.3302 H   0  0  0  0  0  0  0  0  0  0  0  0
    3.5458    2.7057   -2.8524 H   0  0  0  0  0  0  0  0  0  0  0  0
    4.0237    1.2281    0.0981 C   0  0  0  0  0  0  0  0  0  0  0  0
    3.3579    1.8930    0.6824 H   0  0  0  0  0  0  0  0  0  0  0  0
    4.9357    1.8076   -0.1555 H   0  0  0  0  0  0  0  0  0  0  0  0
    4.3212    0.3820    0.7449 H   0  0  0  0  0  0  0  0  0  0  0  0
    2.3820   -2.3615   -0.7798 Si  0  0  0  0  0  0  0  0  0  0  0  0
    1.2293   -3.4740    0.2209 C   0  0  0  0  0  0  0  0  0  0  0  0
    0.2479   -3.6584   -0.2510 H   0  0  0  0  0  0  0  0  0  0  0  0
    1.0710   -3.0653    1.2358 H   0  0  0  0  0  0  0  0  0  0  0  0
    1.7420   -4.4549    0.3168 H   0  0  0  0  0  0  0  0  0  0  0  0
    2.6211   -3.1828   -2.4696 C   0  0  0  0  0  0  0  0  0  0  0  0
    1.6352   -3.2931   -2.9670 H   0  0  0  0  0  0  0  0  0  0  0  0
    3.0426   -4.2005   -2.3341 H   0  0  0  0  0  0  0  0  0  0  0  0
    3.2926   -2.6219   -3.1467 H   0  0  0  0  0  0  0  0  0  0  0  0
    3.9821   -2.3224    0.2342 C   0  0  0  0  0  0  0  0  0  0  0  0
    4.8218   -1.7695   -0.2265 H   0  0  0  0  0  0  0  0  0  0  0  0
    4.3145   -3.3683    0.3993 H   0  0  0  0  0  0  0  0  0  0  0  0
    3.7615   -1.8746    1.2241 H   0  0  0  0  0  0  0  0  0  0  0  0
    1.7872    0.5825    3.6264 N   0  0  0  0  0  0  0  0  0  0  0  0
    2.1642   -0.6973    4.1954 C   0  0  0  0  0  0  0  0  0  0  0  0
    1.5429   -1.4943    3.7463 H   0  0  0  0  0  0  0  0  0  0  0  0
    2.0081   -0.6710    5.2920 H   0  0  0  0  0  0  0  0  0  0  0  0
    3.2330   -0.9416    3.9973 H   0  0  0  0  0  0  0  0  0  0  0  0
    2.0896    1.7812    4.3855 C   0  0  0  0  0  0  0  0  0  0  0  0
    3.1880    1.9091    4.5168 H   0  0  0  0  0  0  0  0  0  0  0  0
    1.6275    1.7227    5.3937 H   0  0  0  0  0  0  0  0  0  0  0  0
    1.6892    2.6583    3.8493 H   0  0  0  0  0  0  0  0  0  0  0  0
   -0.0502    2.9059   -0.1274 C   0  0  0  0  0  0  0  0  0  0  0  0
   -0.4429    2.7676   -1.4763 C   0  0  0  0  0  0  0  0  0  0  0  0
   -0.2869    1.8073   -1.9867 H   0  0  0  0  0  0  0  0  0  0  0  0
   -1.0266    3.8376   -2.1632 C   0  0  0  0  0  0  0  0  0  0  0  0
   -1.3422    3.7080   -3.2085 H   0  0  0  0  0  0  0  0  0  0  0  0
   -1.2188    5.0651   -1.5092 C   0  0  0  0  0  0  0  0  0  0  0  0
   -1.6826    5.9067   -2.0458 H   0  0  0  0  0  0  0  0  0  0  0  0
   -0.8261    5.2180   -0.1665 C   0  0  0  0  0  0  0  0  0  0  0  0
   -0.9821    6.1794    0.3458 H   0  0  0  0  0  0  0  0  0  0  0  0
   -0.2498    4.1474    0.5228 C   0  0  0  0  0  0  0  0  0  0  0  0
    0.0492    4.2385    1.5764 H   0  0  0  0  0  0  0  0  0  0  0  0
  1  6  1  6  0  0  0
  1  2  1  0  0  0  0
  1  5  1  0  0  0  0
  2 43  1  1  0  0  0
  2  3  1  0  0  0  0
  3  4  2  0  0  0  0
  4 34  1  0  0  0  0
  5  4  1  0  0  0  0
  6 21  1  0  0  0  0
  7  6  1  0  0  0  0
  8  6  1  0  0  0  0
  8 17  1  0  0  0  0
  9 10  1  0  0  0  0
  9  8  1  0  0  0  0
 11  9  1  0  0  0  0
 12  9  1  0  0  0  0
 13 14  1  0  0  0  0
 13  8  1  0  0  0  0
 15 13  1  0  0  0  0
 16 13  1  0  0  0  0
 17 18  1  0  0  0  0
 17 20  1  0  0  0  0
 19 17  1  0  0  0  0
 21 22  1  0  0  0  0
 21 30  1  0  0  0  0
 22 25  1  0  0  0  0
 22 24  1  0  0  0  0
 23 22  1  0  0  0  0
 26 28  1  0  0  0  0
 26 21  1  0  0  0  0
 27 26  1  0  0  0  0
 29 26  1  0  0  0  0
 30 32  1  0  0  0  0
 30 33  1  0  0  0  0
 31 30  1  0  0  0  0
 34 35  1  0  0  0  0
 34 39  1  0  0  0  0
 35 37  1  0  0  0  0
 36 35  1  0  0  0  0
 38 35  1  0  0  0  0
 39 40  1  0  0  0  0
 39 41  1  0  0  0  0
 42 39  1  0  0  0  0
 43 52  1  0  0  0  0
 44 43  2  0  0  0  0
 45 44  1  0  0  0  0
 46 48  2  0  0  0  0
 46 44  1  0  0  0  0
 47 46  1  0  0  0  0
 48 50  1  0  0  0  0
 49 48  1  0  0  0  0
 50 51  1  0  0  0  0
 50 52  2  0  0  0  0
 52 53  1  0  0  0  0
M  END
