1
q = 0.0, confidence = 0.954

 50 51  0  0  1  0  0  0  0  0999 V2000
    0.4637   -0.1312    0.1010 P   0  0  1  0  0  0  0  0  0  0  0  0
    0.2983    4.4539    0.0923 S   0  0  0  0  0  0  0  0  0  0  0  0
    2.0946   -2.7192   -0.4316 Si  0  0  0  0  0  0  0  0  0  0  0  0
    3.1998    0.0719   -1.5933 Si  0  0  0  0  0  0  0  0  0  0  0  0
    1.1366    1.9564    1.5606 N   0  0  0  0  0  0  0  0  0  0  0  0
    1.1595   -0.4195    1.6349 N   0  0  0  0  0  2  0  0  0  0  0  0
    1.8030    0.8203    3.5243 N   0  0  0  0  0  0  0  0  0  0  0  0
    0.7136    1.7361    0.3427 C   0  0  2  0  0  3  0  0  0  0  0  0
    1.3732    0.7361    2.2343 C   0  0  0  0  0  0  0  0  0  0  0  0
    1.6316   -0.9313   -1.0775 C   0  0  0  0  0  0  0  0  0  0  0  0
    1.0397   -1.1095   -2.0031 H   0  0  0  0  0  0  0  0  0  0  0  0
    0.8242   -3.5602    0.6854 C   0  0  0  0  0  0  0  0  0  0  0  0
   -0.1625   -3.7159    0.2137 H   0  0  0  0  0  0  0  0  0  0  0  0
    0.6904   -2.9968    1.6270 H   0  0  0  0  0  0  0  0  0  0  0  0
    1.2353   -4.5619    0.9342 H   0  0  0  0  0  0  0  0  0  0  0  0
    2.2620   -3.7946   -1.9819 C   0  0  0  0  0  0  0  0  0  0  0  0
    2.9981   -3.4125   -2.7139 H   0  0  0  0  0  0  0  0  0  0  0  0
    1.2754   -3.8703   -2.4843 H   0  0  0  0  0  0  0  0  0  0  0  0
    2.5681   -4.8211   -1.6916 H   0  0  0  0  0  0  0  0  0  0  0  0
    3.6841   -2.6862    0.5981 C   0  0  0  0  0  0  0  0  0  0  0  0
    3.9119   -3.7223    0.9242 H   0  0  0  0  0  0  0  0  0  0  0  0
    3.5045   -2.0741    1.5049 H   0  0  0  0  0  0  0  0  0  0  0  0
    4.5755   -2.2927    0.0749 H   0  0  0  0  0  0  0  0  0  0  0  0
    4.3872   -1.0317   -2.5815 C   0  0  0  0  0  0  0  0  0  0  0  0
    3.9091   -1.3888   -3.5166 H   0  0  0  0  0  0  0  0  0  0  0  0
    4.7626   -1.9136   -2.0294 H   0  0  0  0  0  0  0  0  0  0  0  0
    5.2643   -0.4168   -2.8731 H   0  0  0  0  0  0  0  0  0  0  0  0
    2.7677    1.4789   -2.7863 C   0  0  0  0  0  0  0  0  0  0  0  0
    3.7051    1.8241   -3.2708 H   0  0  0  0  0  0  0  0  0  0  0  0
    2.3083    2.3493   -2.2832 H   0  0  0  0  0  0  0  0  0  0  0  0
    2.0834    1.1423   -3.5920 H   0  0  0  0  0  0  0  0  0  0  0  0
    4.0911    0.7980   -0.0917 C   0  0  0  0  0  0  0  0  0  0  0  0
    5.0468    1.2522   -0.4266 H   0  0  0  0  0  0  0  0  0  0  0  0
    4.3228    0.0320    0.6718 H   0  0  0  0  0  0  0  0  0  0  0  0
    3.4926    1.5958    0.3898 H   0  0  0  0  0  0  0  0  0  0  0  0
    2.2220    2.0720    4.1268 C   0  0  0  0  0  0  0  0  0  0  0  0
    1.9265    2.9058    3.4672 H   0  0  0  0  0  0  0  0  0  0  0  0
    3.3256    2.0993    4.2725 H   0  0  0  0  0  0  0  0  0  0  0  0
    1.7412    2.1984    5.1199 H   0  0  0  0  0  0  0  0  0  0  0  0
    2.0288   -0.4035    4.2686 C   0  0  0  0  0  0  0  0  0  0  0  0
    1.3493   -1.1901    3.8916 H   0  0  0  0  0  0  0  0  0  0  0  0
    1.8334   -0.2210    5.3441 H   0  0  0  0  0  0  0  0  0  0  0  0
    3.0756   -0.7690    4.1589 H   0  0  0  0  0  0  0  0  0  0  0  0
    0.2933    2.8080   -0.5175 C   0  0  0  0  0  0  0  0  0  0  0  0
   -0.1717    2.7681   -1.8328 C   0  0  0  0  0  0  0  0  0  0  0  0
   -0.2518    1.8370   -2.4051 H   0  0  0  0  0  0  0  0  0  0  0  0
   -0.5162    4.0468   -2.3390 C   0  0  0  0  0  0  0  0  0  0  0  0
   -0.9081    4.2246   -3.3490 H   0  0  0  0  0  0  0  0  0  0  0  0
   -0.3089    5.0535   -1.4055 C   0  0  0  0  0  0  0  0  0  0  0  0
   -0.4931    6.1285   -1.5278 H   0  0  0  0  0  0  0  0  0  0  0  0
  1 10  1  6  0  0  0
  1  8  1  0  0  0  0
  1  6  1  0  0  0  0
  3 20  1  0  0  0  0
  3 12  1  0  0  0  0
  4 10  1  0  0  0  0
  4 32  1  0  0  0  0
  5  9  2  0  0  0  0
  6  9  1  0  0  0  0
  7 36  1  0  0  0  0
  7 40  1  0  0  0  0
  8 44  1  1  0  0  0
  8  5  1  0  0  0  0
  9  7  1  0  0  0  0
 10  3  1  0  0  0  0
 11 10  1  0  0  0  0
 12 15  1  0  0  0  0
 12 14  1  0  0  0  0
 13 12  1  0  0  0  0
 16 19  1  0  0  0  0
 16  3  1  0  0  0  0
 17 16  1  0  0  0  0
 18 16  1  0  0  0  0
 20 21  1  0  0  0  0
 20 22  1  0  0  0  0
 23 20  1  0  0  0  0
 24 26  1  0  0  0  0
 24  4  1  0  0  0  0
 25 24  1  0  0  0  0
 27 24  1  0  0  0  0
 28 30  1  0  0  0  0
 28  4  1  0  0  0  0
 29 28  1  0  0  0  0
 31 28  1  0  0  0  0
 32 35  1  0  0  0  0
 32 34  1  0  0  0  0
 33 32  1  0  0  0  0
 36 38  1  0  0  0  0
 36 39  1  0  0  0  0
 37 36  1  0  0  0  0
 40 42  1  0  0  0  0
 41 40  1  0  0  0  0
 43 40  1  0  0  0  0
 44  2  1  0  0  0  0
 45 44  2  0  0  0  0
 46 45  1  0  0  0  0
 47 45  1  0  0  0  0
 47 49  2  0  0  0  0
 48 47  1  0  0  0  0
 49  2  1  0  0  0  0
 50 49  1  0  0  0  0
M  END
