1
q = 0.0, confidence = 0.986

 56 56  0  0  0  0  0  0  0  0999 V2000
    0.0787    0.4199    0.0363 P   0  0  1  0  0  0  0  0  0  0  0  0
    1.8352    2.5951   -1.5478 Si  0  0  0  0  0  0  0  0  0  0  0  0
   -0.4291    3.4464    0.5950 Si  0  0  0  0  0  0  0  0  0  0  0  0
    0.7742    0.5974    1.5928 N   0  0  0  0  0  0  0  0  0  0  0  0
    2.3650   -0.3637    2.9877 N   0  0  0  0  0  0  0  0  0  0  0  0
    0.5893   -1.1806   -2.6658 O   0  0  0  0  0  0  0  0  0  0  0  0
    2.7093   -1.8471   -2.2154 O   0  0  0  0  0  0  0  0  0  0  0  0
    3.3223   -3.0567    0.3424 O   0  0  0  0  0  0  0  0  0  0  0  0
    4.6089   -1.1766    0.3130 O   0  0  0  0  0  0  0  0  0  0  0  0
    0.1730    2.1044   -0.6913 C   0  0  0  0  0  0  0  0  0  0  0  0
   -0.6017    2.1112   -1.4905 H   0  0  0  0  0  0  0  0  0  0  0  0
    2.0946    1.6178   -3.1561 C   0  0  0  0  0  0  0  0  0  0  0  0
    2.6753    0.6884   -3.0006 H   0  0  0  0  0  0  0  0  0  0  0  0
    2.6769    2.2491   -3.8588 H   0  0  0  0  0  0  0  0  0  0  0  0
    1.1354    1.3610   -3.6471 H   0  0  0  0  0  0  0  0  0  0  0  0
    1.7287    4.4099   -2.0963 C   0  0  0  0  0  0  0  0  0  0  0  0
    1.5939    5.1301   -1.2672 H   0  0  0  0  0  0  0  0  0  0  0  0
    0.8996    4.5576   -2.8185 H   0  0  0  0  0  0  0  0  0  0  0  0
    2.6733    4.6697   -2.6184 H   0  0  0  0  0  0  0  0  0  0  0  0
    3.3387    2.3470   -0.4290 C   0  0  0  0  0  0  0  0  0  0  0  0
    4.2115    2.8474   -0.8985 H   0  0  0  0  0  0  0  0  0  0  0  0
    3.6034    1.2786   -0.3043 H   0  0  0  0  0  0  0  0  0  0  0  0
    3.1969    2.7879    0.5753 H   0  0  0  0  0  0  0  0  0  0  0  0
   -1.5698    2.8383    1.9739 C   0  0  0  0  0  0  0  0  0  0  0  0
   -1.0578    2.0931    2.6100 H   0  0  0  0  0  0  0  0  0  0  0  0
   -2.5243    2.4114    1.6184 H   0  0  0  0  0  0  0  0  0  0  0  0
   -1.8140    3.7243    2.5979 H   0  0  0  0  0  0  0  0  0  0  0  0
   -1.3976    4.7233   -0.4133 C   0  0  0  0  0  0  0  0  0  0  0  0
   -1.7249    5.5522    0.2481 H   0  0  0  0  0  0  0  0  0  0  0  0
   -2.3100    4.2496   -0.8312 H   0  0  0  0  0  0  0  0  0  0  0  0
   -0.8177    5.1604   -1.2480 H   0  0  0  0  0  0  0  0  0  0  0  0
    1.0343    4.2323    1.5071 C   0  0  0  0  0  0  0  0  0  0  0  0
    0.6379    5.0012    2.2023 H   0  0  0  0  0  0  0  0  0  0  0  0
    1.7851    4.7193    0.8570 H   0  0  0  0  0  0  0  0  0  0  0  0
    1.5435    3.4567    2.1141 H   0  0  0  0  0  0  0  0  0  0  0  0
    1.4511   -0.6782   -0.5432 C   0  0  0  0  0  0  0  0  0  0  0  0
    2.2513   -0.9526    0.5341 C   0  0  0  0  0  0  0  0  0  0  0  0
    1.8042   -0.2118    1.7545 C   0  0  0  0  0  0  0  0  0  0  0  0
    1.6701   -1.3032   -1.8677 C   0  0  0  0  0  0  0  0  0  0  0  0
    0.7210   -1.7386   -3.9812 C   0  0  0  0  0  0  0  0  0  0  0  0
    1.0557   -2.7928   -3.9243 H   0  0  0  0  0  0  0  0  0  0  0  0
    1.4643   -1.1616   -4.5676 H   0  0  0  0  0  0  0  0  0  0  0  0
   -0.2812   -1.6675   -4.4361 H   0  0  0  0  0  0  0  0  0  0  0  0
    3.5254   -1.7303    0.3813 C   0  0  0  0  0  0  0  0  0  0  0  0
    4.4667   -3.8432   -0.0269 C   0  0  0  0  0  0  0  0  0  0  0  0
    4.7302   -3.6280   -1.0815 H   0  0  0  0  0  0  0  0  0  0  0  0
    4.1619   -4.8977    0.0891 H   0  0  0  0  0  0  0  0  0  0  0  0
    5.3352   -3.6090    0.6198 H   0  0  0  0  0  0  0  0  0  0  0  0
    3.5166   -1.2118    3.2556 C   0  0  0  0  0  0  0  0  0  0  0  0
    3.3889   -2.2085    2.7892 H   0  0  0  0  0  0  0  0  0  0  0  0
    3.5915   -1.3681    4.3470 H   0  0  0  0  0  0  0  0  0  0  0  0
    4.4695   -0.7735    2.8913 H   0  0  0  0  0  0  0  0  0  0  0  0
    1.7928    0.4418    4.0598 C   0  0  0  0  0  0  0  0  0  0  0  0
    0.6912    0.3145    4.0837 H   0  0  0  0  0  0  0  0  0  0  0  0
    1.9905    1.5249    3.9066 H   0  0  0  0  0  0  0  0  0  0  0  0
    2.2295    0.1254    5.0239 H   0  0  0  0  0  0  0  0  0  0  0  0
  1 10  1  6  0  0  0
  1  4  1  0  0  0  0
  2 10  1  0  0  0  0
  2 20  1  0  0  0  0
  3 32  1  0  0  0  0
  3 24  1  0  0  0  0
  4 38  2  0  0  0  0
  5 49  1  0  0  0  0
  5 53  1  0  0  0  0
  6 39  1  0  0  0  0
  7 39  2  0  0  0  0
  8 44  1  0  0  0  0
  9 44  2  0  0  0  0
 10  3  1  0  0  0  0
 11 10  1  0  0  0  0
 12 13  1  0  0  0  0
 12  2  1  0  0  0  0
 14 12  1  0  0  0  0
 15 12  1  0  0  0  0
 16  2  1  0  0  0  0
 16 17  1  0  0  0  0
 18 16  1  0  0  0  0
 19 16  1  0  0  0  0
 20 22  1  0  0  0  0
 20 23  1  0  0  0  0
 21 20  1  0  0  0  0
 24 27  1  0  0  0  0
 24 25  1  0  0  0  0
 26 24  1  0  0  0  0
 28 29  1  0  0  0  0
 28  3  1  0  0  0  0
 30 28  1  0  0  0  0
 31 28  1  0  0  0  0
 32 35  1  0  0  0  0
 32 33  1  0  0  0  0
 34 32  1  0  0  0  0
 36  1  1  0  0  0  0
 36 37  2  0  0  0  0
 37 38  1  0  0  0  0
 38  5  1  0  0  0  0
 39 36  1  0  0  0  0
 40 41  1  0  0  0  0
 40  6  1  0  0  0  0
 42 40  1  0  0  0  0
 43 40  1  0  0  0  0
 44 37  1  0  0  0  0
 45 47  1  0  0  0  0
 45  8  1  0  0  0  0
 45 48  1  0  0  0  0
 46 45  1  0  0  0  0
 49 51  1  0  0  0  0
 50 49  1  0  0  0  0
 52 49  1  0  0  0  0
 53 54  1  0  0  0  0
 53 56  1  0  0  0  0
 55 53  1  0  0  0  0
M  END
