1
q = 0.0, confidence = 0.998

 45 47  0  0  0  0  0  0  0  0999 V2000
    0.4494    0.0237    0.0463 P   0  0  0  0  0  0  0  0  0  0  0  0
   -3.0795    0.2079   -0.1592 N   0  0  0  0  0  0  0  0  0  0  0  0
   -0.1606    1.4621   -0.9708 C   0  0  0  0  0  0  0  0  0  0  0  0
    0.6723    2.0216   -1.9622 C   0  0  0  0  0  0  0  0  0  0  0  0
    1.6811    1.6130   -2.1127 H   0  0  0  0  0  0  0  0  0  0  0  0
    0.2471    3.0962   -2.7572 C   0  0  0  0  0  0  0  0  0  0  0  0
    0.9228    3.5072   -3.5225 H   0  0  0  0  0  0  0  0  0  0  0  0
   -1.0257    3.6461   -2.5630 C   0  0  0  0  0  0  0  0  0  0  0  0
   -1.3691    4.4959   -3.1718 H   0  0  0  0  0  0  0  0  0  0  0  0
   -1.8617    3.1011   -1.5789 C   0  0  0  0  0  0  0  0  0  0  0  0
   -2.8646    3.5277   -1.4182 H   0  0  0  0  0  0  0  0  0  0  0  0
   -1.4616    2.0109   -0.7819 C   0  0  0  0  0  0  0  0  0  0  0  0
   -2.4485    1.4772    0.2339 C   0  0  0  0  0  0  0  0  0  0  0  0
   -1.9473    1.2988    1.2075 H   0  0  0  0  0  0  0  0  0  0  0  0
   -3.2329    2.2542    0.4138 H   0  0  0  0  0  0  0  0  0  0  0  0
   -3.6839    0.2157   -1.4861 C   0  0  0  0  0  0  0  0  0  0  0  0
   -4.0601   -0.7991   -1.7180 H   0  0  0  0  0  0  0  0  0  0  0  0
   -2.9278    0.4811   -2.2478 H   0  0  0  0  0  0  0  0  0  0  0  0
   -4.5347    0.9373   -1.5593 H   0  0  0  0  0  0  0  0  0  0  0  0
   -3.9986   -0.2640    0.8695 C   0  0  0  0  0  0  0  0  0  0  0  0
   -4.3629   -1.2765    0.6105 H   0  0  0  0  0  0  0  0  0  0  0  0
   -4.8785    0.4154    0.9852 H   0  0  0  0  0  0  0  0  0  0  0  0
   -3.4729   -0.3291    1.8412 H   0  0  0  0  0  0  0  0  0  0  0  0
    0.5115    0.7742    1.7387 C   0  0  0  0  0  0  0  0  0  0  0  0
    0.6473    2.1623    1.9528 C   0  0  0  0  0  0  0  0  0  0  0  0
    0.6958    2.8474    1.0925 H   0  0  0  0  0  0  0  0  0  0  0  0
    0.7130    2.6710    3.2589 C   0  0  0  0  0  0  0  0  0  0  0  0
    0.8122    3.7558    3.4181 H   0  0  0  0  0  0  0  0  0  0  0  0
    0.6542    1.8001    4.3596 C   0  0  0  0  0  0  0  0  0  0  0  0
    0.7044    2.2018    5.3832 H   0  0  0  0  0  0  0  0  0  0  0  0
    0.5268    0.4175    4.1509 C   0  0  0  0  0  0  0  0  0  0  0  0
    0.4780   -0.2694    5.0096 H   0  0  0  0  0  0  0  0  0  0  0  0
    0.4497   -0.0931    2.8464 C   0  0  0  0  0  0  0  0  0  0  0  0
    0.3302   -1.1733    2.6696 H   0  0  0  0  0  0  0  0  0  0  0  0
    2.2430   -0.0277   -0.4152 C   0  0  0  0  0  0  0  0  0  0  0  0
    3.2501    0.6253    0.3220 C   0  0  0  0  0  0  0  0  0  0  0  0
    2.9888    1.2025    1.2207 H   0  0  0  0  0  0  0  0  0  0  0  0
    4.5921    0.5354   -0.0814 C   0  0  0  0  0  0  0  0  0  0  0  0
    5.3716    1.0412    0.5088 H   0  0  0  0  0  0  0  0  0  0  0  0
    4.9401   -0.1957   -1.2272 C   0  0  0  0  0  0  0  0  0  0  0  0
    5.9931   -0.2646   -1.5403 H   0  0  0  0  0  0  0  0  0  0  0  0
    3.9402   -0.8479   -1.9674 C   0  0  0  0  0  0  0  0  0  0  0  0
    4.2051   -1.4304   -2.8629 H   0  0  0  0  0  0  0  0  0  0  0  0
    2.6019   -0.7741   -1.5585 C   0  0  0  0  0  0  0  0  0  0  0  0
    1.8180   -1.3015   -2.1236 H   0  0  0  0  0  0  0  0  0  0  0  0
  1 24  1  0  0  0  0
  2 13  1  0  0  0  0
  2 20  1  0  0  0  0
  3 12  1  0  0  0  0
  3  1  1  0  0  0  0
  4  3  2  0  0  0  0
  5  4  1  0  0  0  0
  6  8  2  0  0  0  0
  6  4  1  0  0  0  0
  7  6  1  0  0  0  0
  8 10  1  0  0  0  0
  9  8  1  0  0  0  0
 10 11  1  0  0  0  0
 10 12  2  0  0  0  0
 12 13  1  0  0  0  0
 13 15  1  0  0  0  0
 13 14  1  0  0  0  0
 16  2  1  0  0  0  0
 17 16  1  0  0  0  0
 18 16  1  0  0  0  0
 19 16  1  0  0  0  0
 20 22  1  0  0  0  0
 20 23  1  0  0  0  0
 21 20  1  0  0  0  0
 24 25  2  0  0  0  0
 24 33  1  0  0  0  0
 25 27  1  0  0  0  0
 26 25  1  0  0  0  0
 27 28  1  0  0  0  0
 27 29  2  0  0  0  0
 29 30  1  0  0  0  0
 31 29  1  0  0  0  0
 31 32  1  0  0  0  0
 33 31  2  0  0  0  0
 34 33  1  0  0  0  0
 35  1  1  0  0  0  0
 35 36  1  0  0  0  0
 36 37  1  0  0  0  0
 38 36  2  0  0  0  0
 38 39  1  0  0  0  0
 40 38  1  0  0  0  0
 41 40  1  0  0  0  0
 42 44  1  0  0  0  0
 42 40  2  0  0  0  0
 43 42  1  0  0  0  0
 44 35  2  0  0  0  0
 45 44  1  0  0  0  0
M  END
