1
q = 0.0, confidence = 0.98

 28 30  0  0  0  0  0  0  0  0999 V2000
   -0.1665    0.9696   -0.0004 P   0  0  0  0  0  0  0  0  0  0  0  0
    6.1476   -1.8088   -0.0001 O   0  0  0  0  0  0  0  0  0  0  0  0
    1.7090    2.7709   -0.0000 O   0  0  0  0  0  0  0  0  0  0  0  0
    7.4509   -1.2522    0.0003 C   0  0  0  0  0  0  0  0  0  0  0  0
    8.1541   -2.1051    0.0002 H   0  0  0  0  0  0  0  0  0  0  0  0
    7.6340   -0.6312    0.9053 H   0  0  0  0  0  0  0  0  0  0  0  0
    7.6344   -0.6308   -0.9044 H   0  0  0  0  0  0  0  0  0  0  0  0
    5.0826   -0.9709   -0.0001 C   0  0  0  0  0  0  0  0  0  0  0  0
    3.8082   -1.5869   -0.0005 C   0  0  0  0  0  0  0  0  0  0  0  0
    3.7581   -2.6849   -0.0008 H   0  0  0  0  0  0  0  0  0  0  0  0
    2.6543   -0.8136   -0.0005 C   0  0  0  0  0  0  0  0  0  0  0  0
    1.6745   -1.3103   -0.0008 H   0  0  0  0  0  0  0  0  0  0  0  0
    2.7217    0.6054   -0.0002 C   0  0  0  0  0  0  0  0  0  0  0  0
    4.0015    1.2090    0.0002 C   0  0  0  0  0  0  0  0  0  0  0  0
    4.0762    2.3051    0.0005 H   0  0  0  0  0  0  0  0  0  0  0  0
    5.1691    0.4384    0.0002 C   0  0  0  0  0  0  0  0  0  0  0  0
    6.1434    0.9445    0.0005 H   0  0  0  0  0  0  0  0  0  0  0  0
    1.5167    1.4131   -0.0002 C   0  0  0  0  0  0  0  0  0  0  0  0
    0.5399    3.4792   -0.0001 C   0  0  0  0  0  0  0  0  0  0  0  0
    0.5071    4.8792    0.0001 C   0  0  0  0  0  0  0  0  0  0  0  0
    1.4416    5.4576    0.0002 H   0  0  0  0  0  0  0  0  0  0  0  0
   -0.7514    5.4936    0.0000 C   0  0  0  0  0  0  0  0  0  0  0  0
   -0.8141    6.5919    0.0001 H   0  0  0  0  0  0  0  0  0  0  0  0
   -1.9395    4.7264   -0.0002 C   0  0  0  0  0  0  0  0  0  0  0  0
   -2.9137    5.2371   -0.0002 H   0  0  0  0  0  0  0  0  0  0  0  0
   -1.8927    3.3290   -0.0003 C   0  0  0  0  0  0  0  0  0  0  0  0
   -2.8167    2.7319   -0.0005 H   0  0  0  0  0  0  0  0  0  0  0  0
   -0.6343    2.6894   -0.0003 C   0  0  0  0  0  0  0  0  0  0  0  0
  1 28  1  0  0  0  0
  1 18  2  0  0  0  0
  2  8  1  0  0  0  0
  2  4  1  0  0  0  0
  4  6  1  0  0  0  0
  5  4  1  0  0  0  0
  7  4  1  0  0  0  0
  8 16  1  0  0  0  0
  9  8  2  0  0  0  0
 10  9  1  0  0  0  0
 11  9  1  0  0  0  0
 11 13  2  0  0  0  0
 12 11  1  0  0  0  0
 13 14  1  0  0  0  0
 14 16  2  0  0  0  0
 14 15  1  0  0  0  0
 16 17  1  0  0  0  0
 18 13  1  0  0  0  0
 18  3  1  0  0  0  0
 19  3  1  0  0  0  0
 19 20  1  0  0  0  0
 20 21  1  0  0  0  0
 22 20  2  0  0  0  0
 22 23  1  0  0  0  0
 24 22  1  0  0  0  0
 25 24  1  0  0  0  0
 26 28  1  0  0  0  0
 26 24  2  0  0  0  0
 27 26  1  0  0  0  0
 28 19  2  0  0  0  0
M  END
