1
q = 0.0, confidence = 0.994

 27 28  0  0  0  0  0  0  0  0999 V2000
   -0.3692   -1.4667   -0.6625 P   0  0  0  0  0  0  0  0  0  0  0  0
   -0.6023   -3.0938   -0.1494 C   0  0  0  0  0  0  0  0  0  0  0  0
   -1.7649   -3.8349   -0.4014 C   0  0  0  0  0  0  0  0  0  0  0  0
   -2.8620   -3.2976   -1.1388 C   0  0  0  0  0  0  0  0  0  0  0  0
   -2.8423   -1.9933   -1.6654 C   0  0  0  0  0  0  0  0  0  0  0  0
   -1.8124   -1.0402   -1.5415 C   0  0  0  0  0  0  0  0  0  0  0  0
   -1.9410    0.3231   -2.1081 C   0  0  0  0  0  0  0  0  0  0  0  0
   -0.8743    0.9216   -2.8192 C   0  0  0  0  0  0  0  0  0  0  0  0
   -0.9945    2.2235   -3.3228 C   0  0  0  0  0  0  0  0  0  0  0  0
   -2.1785    2.9522   -3.1270 C   0  0  0  0  0  0  0  0  0  0  0  0
   -3.2441    2.3695   -2.4219 C   0  0  0  0  0  0  0  0  0  0  0  0
   -3.1276    1.0677   -1.9168 C   0  0  0  0  0  0  0  0  0  0  0  0
   -1.8581   -5.2361    0.1489 C   0  0  0  0  0  0  0  0  0  0  0  0
   -4.0855   -4.1501   -1.3618 C   0  0  0  0  0  0  0  0  0  0  0  0
    0.2243   -3.5400    0.4245 H   0  0  0  0  0  0  0  0  0  0  0  0
   -3.7252   -1.6784   -2.2487 H   0  0  0  0  0  0  0  0  0  0  0  0
    0.0545    0.3535   -2.9793 H   0  0  0  0  0  0  0  0  0  0  0  0
   -0.1538    2.6699   -3.8748 H   0  0  0  0  0  0  0  0  0  0  0  0
   -2.2698    3.9758   -3.5212 H   0  0  0  0  0  0  0  0  0  0  0  0
   -4.1719    2.9376   -2.2527 H   0  0  0  0  0  0  0  0  0  0  0  0
   -3.9519    0.6271   -1.3360 H   0  0  0  0  0  0  0  0  0  0  0  0
   -0.9370   -5.5196    0.6904 H   0  0  0  0  0  0  0  0  0  0  0  0
   -2.7120   -5.3309    0.8525 H   0  0  0  0  0  0  0  0  0  0  0  0
   -2.0281   -5.9800   -0.6572 H   0  0  0  0  0  0  0  0  0  0  0  0
   -3.8414   -5.0934   -1.8945 H   0  0  0  0  0  0  0  0  0  0  0  0
   -4.5510   -4.4502   -0.3985 H   0  0  0  0  0  0  0  0  0  0  0  0
   -4.8500   -3.6142   -1.9553 H   0  0  0  0  0  0  0  0  0  0  0  0
  1  2  2  0  0  0  0
  2 15  1  0  0  0  0
  3  2  1  0  0  0  0
  3 13  1  0  0  0  0
  4  3  2  0  0  0  0
  5  6  2  0  0  0  0
  5  4  1  0  0  0  0
  6  1  1  0  0  0  0
  7 12  1  0  0  0  0
  7  6  1  0  0  0  0
  8  7  2  0  0  0  0
  9 10  2  0  0  0  0
  9  8  1  0  0  0  0
 10 11  1  0  0  0  0
 11 20  1  0  0  0  0
 11 12  2  0  0  0  0
 12 21  1  0  0  0  0
 13 22  1  0  0  0  0
 13 23  1  0  0  0  0
 14  4  1  0  0  0  0
 14 26  1  0  0  0  0
 16  5  1  0  0  0  0
 17  8  1  0  0  0  0
 18  9  1  0  0  0  0
 19 10  1  0  0  0  0
 24 13  1  0  0  0  0
 25 14  1  0  0  0  0
 27 14  1  0  0  0  0
M  END
