1
q = 0.0, confidence = 0.998

 23 23  0  0  1  0  0  0  0  0999 V2000
    2.1131   -0.0840   -0.6025 P   0  0  1  0  0  0  0  0  0  0  0  0
    3.3130   -1.2238    0.2840 C   0  0  2  0  0  0  0  0  0  0  0  0
    2.7781   -1.4358    1.2340 H   0  0  0  0  0  0  0  0  0  0  0  0
    4.5260   -0.3292    0.6026 C   0  0  0  0  0  0  0  0  0  0  0  0
    5.1509   -0.7821    1.4015 H   0  0  0  0  0  0  0  0  0  0  0  0
    5.1753   -0.2395   -0.2981 H   0  0  0  0  0  0  0  0  0  0  0  0
    3.9849    1.0484    1.0034 C   0  0  0  0  0  0  0  0  0  0  0  0
    3.4366    0.9625    1.9654 H   0  0  0  0  0  0  0  0  0  0  0  0
    4.7924    1.7978    1.1425 H   0  0  0  0  0  0  0  0  0  0  0  0
    2.9929    1.5045   -0.0854 C   0  0  2  0  0  0  0  0  0  0  0  0
    3.5680    1.8095   -0.9879 H   0  0  0  0  0  0  0  0  0  0  0  0
    3.6202   -2.5322   -0.4365 C   0  0  0  0  0  0  0  0  0  0  0  0
    4.1416   -2.3651   -1.4014 H   0  0  0  0  0  0  0  0  0  0  0  0
    2.6973   -3.1114   -0.6429 H   0  0  0  0  0  0  0  0  0  0  0  0
    4.2795   -3.1697    0.1886 H   0  0  0  0  0  0  0  0  0  0  0  0
    2.0522    2.6346    0.3270 C   0  0  0  0  0  0  0  0  0  0  0  0
    1.4329    2.3239    1.1919 H   0  0  0  0  0  0  0  0  0  0  0  0
    1.3681    2.9172   -0.4984 H   0  0  0  0  0  0  0  0  0  0  0  0
    2.6308    3.5379    0.6132 H   0  0  0  0  0  0  0  0  0  0  0  0
    2.5242   -0.2384   -2.3887 C   0  0  0  0  0  0  0  0  0  0  0  0
    3.6187   -0.1758   -2.5501 H   0  0  0  0  0  0  0  0  0  0  0  0
    2.0075    0.5748   -2.9325 H   0  0  0  0  0  0  0  0  0  0  0  0
    2.1315   -1.1955   -2.7804 H   0  0  0  0  0  0  0  0  0  0  0  0
  1 20  1  6  0  0  0
  1 10  1  0  0  0  0
  1  2  1  0  0  0  0
  2  4  1  0  0  0  0
  2  3  1  1  0  0  0
  4  7  1  0  0  0  0
  4  5  1  0  0  0  0
  6  4  1  0  0  0  0
  7  9  1  0  0  0  0
  7  8  1  0  0  0  0
 10 11  1  6  0  0  0
 10 16  1  0  0  0  0
 10  7  1  0  0  0  0
 12 15  1  0  0  0  0
 12  2  1  0  0  0  0
 13 12  1  0  0  0  0
 14 12  1  0  0  0  0
 16 19  1  0  0  0  0
 16 17  1  0  0  0  0
 18 16  1  0  0  0  0
 21 20  1  0  0  0  0
 22 20  1  0  0  0  0
 23 20  1  0  0  0  0
M  END
