1
q = 0.0, confidence = 1.0

 38 39  0  0  1  0  0  0  0  0999 V2000
   -0.0647    0.5872    0.2319 P   0  0  0  0  0  0  0  0  0  0  0  0
    0.4911    0.4629    1.8497 N   0  0  0  0  0  0  0  0  0  0  0  0
    1.0210    1.2814    2.1791 H   0  0  0  0  0  0  0  0  0  0  0  0
    1.0573   -0.8033    2.3388 C   0  0  1  0  0  0  0  0  0  0  0  0
    0.3999   -1.6166    1.9671 H   0  0  0  0  0  0  0  0  0  0  0  0
    2.4517   -0.9815    1.7230 C   0  0  0  0  0  0  0  0  0  0  0  0
    3.4309   -0.3329    2.0472 O   0  0  0  0  0  0  0  0  0  0  0  0
    2.4306   -1.8761    0.7139 O   0  0  0  0  0  0  0  0  0  0  0  0
    3.6496   -1.9981   -0.0362 C   0  0  0  0  0  0  0  0  0  0  0  0
    4.4929   -2.2676    0.6299 H   0  0  0  0  0  0  0  0  0  0  0  0
    3.8855   -1.0404   -0.5415 H   0  0  0  0  0  0  0  0  0  0  0  0
    3.4690   -2.7918   -0.7815 H   0  0  0  0  0  0  0  0  0  0  0  0
    1.1232   -0.8001    3.8617 C   0  0  0  0  0  0  0  0  0  0  0  0
    0.1221   -0.5919    4.2846 H   0  0  0  0  0  0  0  0  0  0  0  0
    1.8388   -0.0279    4.2100 H   0  0  0  0  0  0  0  0  0  0  0  0
    1.4751   -1.7799    4.2397 H   0  0  0  0  0  0  0  0  0  0  0  0
    1.3692    0.8073   -0.9017 C   0  0  0  0  0  0  0  0  0  0  0  0
    2.4387    1.6573   -0.5521 C   0  0  0  0  0  0  0  0  0  0  0  0
    2.4276    2.2029    0.4043 H   0  0  0  0  0  0  0  0  0  0  0  0
    3.5314    1.8032   -1.4181 C   0  0  0  0  0  0  0  0  0  0  0  0
    4.3668    2.4619   -1.1373 H   0  0  0  0  0  0  0  0  0  0  0  0
    3.5603    1.1065   -2.6386 C   0  0  0  0  0  0  0  0  0  0  0  0
    4.4190    1.2236   -3.3171 H   0  0  0  0  0  0  0  0  0  0  0  0
    2.4991    0.2563   -2.9886 C   0  0  0  0  0  0  0  0  0  0  0  0
    2.5221   -0.2953   -3.9405 H   0  0  0  0  0  0  0  0  0  0  0  0
    1.4078    0.1011   -2.1198 C   0  0  0  0  0  0  0  0  0  0  0  0
    0.5780   -0.5782   -2.3754 H   0  0  0  0  0  0  0  0  0  0  0  0
   -0.8551    2.2370    0.2809 C   0  0  0  0  0  0  0  0  0  0  0  0
   -1.6530    2.5801    1.3927 C   0  0  0  0  0  0  0  0  0  0  0  0
   -1.7429    1.8750    2.2326 H   0  0  0  0  0  0  0  0  0  0  0  0
   -2.3172    3.8140    1.4213 C   0  0  0  0  0  0  0  0  0  0  0  0
   -2.9345    4.0805    2.2925 H   0  0  0  0  0  0  0  0  0  0  0  0
   -2.2012    4.7038    0.3406 C   0  0  0  0  0  0  0  0  0  0  0  0
   -2.7271    5.6702    0.3643 H   0  0  0  0  0  0  0  0  0  0  0  0
   -1.4166    4.3584   -0.7709 C   0  0  0  0  0  0  0  0  0  0  0  0
   -1.3249    5.0528   -1.6197 H   0  0  0  0  0  0  0  0  0  0  0  0
   -0.7428    3.1285   -0.8046 C   0  0  0  0  0  0  0  0  0  0  0  0
   -0.1244    2.8624   -1.6749 H   0  0  0  0  0  0  0  0  0  0  0  0
  1 28  1  0  0  0  0
  1  2  1  0  0  0  0
  2  3  1  0  0  0  0
  2  4  1  0  0  0  0
  4  5  1  6  0  0  0
  4 13  1  0  0  0  0
  6  7  2  0  0  0  0
  6  4  1  0  0  0  0
  8  6  1  0  0  0  0
  9 10  1  0  0  0  0
  9  8  1  0  0  0  0
 11  9  1  0  0  0  0
 12  9  1  0  0  0  0
 13 15  1  0  0  0  0
 13 16  1  0  0  0  0
 13 14  1  0  0  0  0
 17 18  1  0  0  0  0
 17  1  1  0  0  0  0
 18 19  1  0  0  0  0
 20 21  1  0  0  0  0
 20 18  2  0  0  0  0
 22 20  1  0  0  0  0
 23 22  1  0  0  0  0
 24 22  2  0  0  0  0
 24 26  1  0  0  0  0
 25 24  1  0  0  0  0
 26 17  2  0  0  0  0
 27 26  1  0  0  0  0
 28 29  1  0  0  0  0
 29 31  2  0  0  0  0
 29 30  1  0  0  0  0
 31 32  1  0  0  0  0
 33 34  1  0  0  0  0
 33 31  1  0  0  0  0
 35 33  2  0  0  0  0
 36 35  1  0  0  0  0
 37 35  1  0  0  0  0
 37 28  2  0  0  0  0
 38 37  1  0  0  0  0
M  END
