1
q = 0.0, confidence = 1.0

 50 54  0  0  0  0  0  0  0  0999 V2000
   -1.6059   -0.0770    0.1865 P   0  0  0  0  0  0  0  0  0  0  0  0
    2.0123    2.1696    0.8638 N   0  0  0  0  0  0  0  0  0  0  0  0
    1.8665    3.0390    0.3424 H   0  0  0  0  0  0  0  0  0  0  0  0
    0.9405    1.4728    1.3613 C   0  0  0  0  0  0  0  0  0  0  0  0
    1.3337   -0.1908    1.7991 P   0  0  0  0  0  0  0  0  0  0  0  0
    3.0084    0.0957    1.1844 C   0  0  0  0  0  0  0  0  0  0  0  0
    4.0926   -0.8052    1.0766 C   0  0  0  0  0  0  0  0  0  0  0  0
    3.9712   -1.8453    1.4167 H   0  0  0  0  0  0  0  0  0  0  0  0
    5.3049   -0.3938    0.5108 C   0  0  0  0  0  0  0  0  0  0  0  0
    5.4288    0.9481    0.0480 C   0  0  0  0  0  0  0  0  0  0  0  0
    6.3807    1.2676   -0.4046 H   0  0  0  0  0  0  0  0  0  0  0  0
    4.3824    1.8633    0.1385 C   0  0  0  0  0  0  0  0  0  0  0  0
    4.4927    2.8907   -0.2395 H   0  0  0  0  0  0  0  0  0  0  0  0
    3.1710    1.4316    0.7147 C   0  0  0  0  0  0  0  0  0  0  0  0
    6.4664   -1.3452    0.3683 C   0  0  0  0  0  0  0  0  0  0  0  0
    7.3662   -0.9678    0.8982 H   0  0  0  0  0  0  0  0  0  0  0  0
    6.7515   -1.4743   -0.6969 H   0  0  0  0  0  0  0  0  0  0  0  0
    6.2255   -2.3454    0.7764 H   0  0  0  0  0  0  0  0  0  0  0  0
   -1.5796    1.5606    1.0322 C   0  0  0  0  0  0  0  0  0  0  0  0
   -0.3553    2.1557    1.4630 C   0  0  0  0  0  0  0  0  0  0  0  0
   -0.3884    3.4746    1.9791 C   0  0  0  0  0  0  0  0  0  0  0  0
    0.5530    3.9295    2.3232 H   0  0  0  0  0  0  0  0  0  0  0  0
   -1.5875    4.1841    2.0947 C   0  0  0  0  0  0  0  0  0  0  0  0
   -1.5834    5.2024    2.5119 H   0  0  0  0  0  0  0  0  0  0  0  0
   -2.7919    3.5885    1.6878 C   0  0  0  0  0  0  0  0  0  0  0  0
   -3.7428    4.1346    1.7780 H   0  0  0  0  0  0  0  0  0  0  0  0
   -2.7799    2.2939    1.1537 C   0  0  0  0  0  0  0  0  0  0  0  0
   -3.7202    1.8439    0.8019 H   0  0  0  0  0  0  0  0  0  0  0  0
   -1.9700   -1.3239    1.4759 C   0  0  0  0  0  0  0  0  0  0  0  0
   -1.5603   -2.6530    1.2351 C   0  0  0  0  0  0  0  0  0  0  0  0
   -0.9928   -2.9026    0.3232 H   0  0  0  0  0  0  0  0  0  0  0  0
   -1.8401   -3.6486    2.1820 C   0  0  0  0  0  0  0  0  0  0  0  0
   -1.5153   -4.6830    1.9931 H   0  0  0  0  0  0  0  0  0  0  0  0
   -2.5126   -3.3255    3.3719 C   0  0  0  0  0  0  0  0  0  0  0  0
   -2.7224   -4.1088    4.1161 H   0  0  0  0  0  0  0  0  0  0  0  0
   -2.9055   -2.0001    3.6192 C   0  0  0  0  0  0  0  0  0  0  0  0
   -3.4225   -1.7424    4.5561 H   0  0  0  0  0  0  0  0  0  0  0  0
   -2.6359   -0.9982    2.6749 C   0  0  0  0  0  0  0  0  0  0  0  0
   -2.9377    0.0418    2.8716 H   0  0  0  0  0  0  0  0  0  0  0  0
   -3.1174    0.0098   -0.8489 C   0  0  0  0  0  0  0  0  0  0  0  0
   -3.0546    0.8316   -1.9978 C   0  0  0  0  0  0  0  0  0  0  0  0
   -2.1323    1.3963   -2.2173 H   0  0  0  0  0  0  0  0  0  0  0  0
   -4.1605    0.9194   -2.8532 C   0  0  0  0  0  0  0  0  0  0  0  0
   -4.1088    1.5624   -3.7450 H   0  0  0  0  0  0  0  0  0  0  0  0
   -5.3253    0.1802   -2.5823 C   0  0  0  0  0  0  0  0  0  0  0  0
   -6.1892    0.2454   -3.2610 H   0  0  0  0  0  0  0  0  0  0  0  0
   -5.3822   -0.6482   -1.4509 C   0  0  0  0  0  0  0  0  0  0  0  0
   -6.2907   -1.2328   -1.2396 H   0  0  0  0  0  0  0  0  0  0  0  0
   -4.2824   -0.7357   -0.5820 C   0  0  0  0  0  0  0  0  0  0  0  0
   -4.3273   -1.3842    0.3059 H   0  0  0  0  0  0  0  0  0  0  0  0
  1 19  1  0  0  0  0
  1 29  1  0  0  0  0
  2  4  1  0  0  0  0
  3  2  1  0  0  0  0
  4 20  1  0  0  0  0
  4  5  2  0  0  0  0
  6  5  1  0  0  0  0
  7  6  1  0  0  0  0
  7  8  1  0  0  0  0
  9  7  2  0  0  0  0
 10 12  2  0  0  0  0
 10  9  1  0  0  0  0
 11 10  1  0  0  0  0
 12 14  1  0  0  0  0
 13 12  1  0  0  0  0
 14  2  1  0  0  0  0
 14  6  2  0  0  0  0
 15  9  1  0  0  0  0
 15 18  1  0  0  0  0
 15 16  1  0  0  0  0
 17 15  1  0  0  0  0
 19 27  2  0  0  0  0
 19 20  1  0  0  0  0
 20 21  2  0  0  0  0
 21 23  1  0  0  0  0
 21 22  1  0  0  0  0
 23 24  1  0  0  0  0
 25 26  1  0  0  0  0
 25 23  2  0  0  0  0
 27 25  1  0  0  0  0
 28 27  1  0  0  0  0
 29 38  1  0  0  0  0
 30 29  2  0  0  0  0
 30 32  1  0  0  0  0
 31 30  1  0  0  0  0
 32 34  2  0  0  0  0
 33 32  1  0  0  0  0
 34 36  1  0  0  0  0
 34 35  1  0  0  0  0
 36 37  1  0  0  0  0
 38 39  1  0  0  0  0
 38 36  2  0  0  0  0
 40 49  1  0  0  0  0
 40  1  1  0  0  0  0
 41 40  2  0  0  0  0
 42 41  1  0  0  0  0
 43 45  2  0  0  0  0
 43 41  1  0  0  0  0
 44 43  1  0  0  0  0
 45 47  1  0  0  0  0
 46 45  1  0  0  0  0
 47 48  1  0  0  0  0
 47 49  2  0  0  0  0
 49 50  1  0  0  0  0
M  END
