1
q = 0.0, confidence = 0.994

 52 52  0  0  1  0  0  0  0  0999 V2000
   -0.1572   -0.2898   -1.0143 P   0  0  1  0  0  4  0  0  0  0  0  0
   -0.2616    0.3455   -2.4381 O   0  0  0  0  0  0  0  0  0  0  0  0
   -1.7101    0.6504    1.1983 N   0  0  0  0  0  0  0  0  0  0  0  0
   -1.3676   -0.2400    1.5792 H   0  0  0  0  0  0  0  0  0  0  0  0
   -1.7385    1.8136   -0.9007 N   0  0  0  0  0  0  0  0  0  0  0  0
   -1.2866    1.5962   -1.8431 H   0  0  0  0  0  0  0  0  0  0  0  0
   -1.4087    0.8292   -0.0852 C   0  0  0  0  0  3  0  0  0  0  0  0
   -2.2882    1.5876    2.1782 C   0  0  0  0  0  0  0  0  0  0  0  0
   -3.1703    2.0707    1.7066 H   0  0  0  0  0  0  0  0  0  0  0  0
   -2.7686    0.7852    3.3865 C   0  0  0  0  0  0  0  0  0  0  0  0
   -3.5476    0.0517    3.1013 H   0  0  0  0  0  0  0  0  0  0  0  0
   -3.1917    1.4619    4.1531 H   0  0  0  0  0  0  0  0  0  0  0  0
   -1.9205    0.2374    3.8478 H   0  0  0  0  0  0  0  0  0  0  0  0
   -1.2661    2.6627    2.5690 C   0  0  0  0  0  0  0  0  0  0  0  0
   -0.4018    2.2009    3.0861 H   0  0  0  0  0  0  0  0  0  0  0  0
   -1.7293    3.4025    3.2520 H   0  0  0  0  0  0  0  0  0  0  0  0
   -0.8759    3.2021    1.6840 H   0  0  0  0  0  0  0  0  0  0  0  0
   -2.6599    2.9473   -0.7871 C   0  0  0  0  0  0  0  0  0  0  0  0
   -2.5894    3.3501    0.2437 H   0  0  0  0  0  0  0  0  0  0  0  0
   -4.1001    2.4868   -1.0474 C   0  0  0  0  0  0  0  0  0  0  0  0
   -4.1947    2.0752   -2.0728 H   0  0  0  0  0  0  0  0  0  0  0  0
   -4.8053    3.3355   -0.9447 H   0  0  0  0  0  0  0  0  0  0  0  0
   -4.4029    1.6908   -0.3378 H   0  0  0  0  0  0  0  0  0  0  0  0
   -2.1968    4.0360   -1.7562 C   0  0  0  0  0  0  0  0  0  0  0  0
   -1.1557    4.3403   -1.5323 H   0  0  0  0  0  0  0  0  0  0  0  0
   -2.8509    4.9261   -1.6816 H   0  0  0  0  0  0  0  0  0  0  0  0
   -2.2347    3.6709   -2.8036 H   0  0  0  0  0  0  0  0  0  0  0  0
   -1.1625   -1.9632   -1.0150 C   0  0  1  0  0  0  0  0  0  0  0  0
   -1.3036   -2.4975    0.3931 C   0  0  0  0  0  0  0  0  0  0  0  0
   -2.6250   -2.3771    0.7694 C   0  0  0  0  0  0  0  0  0  0  0  0
   -3.4014   -1.7983   -0.3381 C   0  0  0  0  0  0  0  0  0  0  0  0
   -2.5732   -1.5926   -1.4185 C   0  0  0  0  0  0  0  0  0  0  0  0
   -0.4013   -2.8631   -1.9984 C   0  0  0  0  0  0  0  0  0  0  0  0
   -0.3213   -2.3751   -2.9893 H   0  0  0  0  0  0  0  0  0  0  0  0
   -0.9340   -3.8288   -2.1155 H   0  0  0  0  0  0  0  0  0  0  0  0
    0.6262   -3.0749   -1.6413 H   0  0  0  0  0  0  0  0  0  0  0  0
   -0.1973   -3.1552    1.1501 C   0  0  0  0  0  0  0  0  0  0  0  0
    0.2174   -4.0249    0.5960 H   0  0  0  0  0  0  0  0  0  0  0  0
   -0.5358   -3.5179    2.1393 H   0  0  0  0  0  0  0  0  0  0  0  0
    0.6586   -2.4703    1.3159 H   0  0  0  0  0  0  0  0  0  0  0  0
   -3.2543   -2.8208    2.0554 C   0  0  0  0  0  0  0  0  0  0  0  0
   -3.8648   -2.0169    2.5186 H   0  0  0  0  0  0  0  0  0  0  0  0
   -2.5053   -3.1471    2.8019 H   0  0  0  0  0  0  0  0  0  0  0  0
   -3.9501   -3.6711    1.8858 H   0  0  0  0  0  0  0  0  0  0  0  0
   -4.8686   -1.5106   -0.2407 C   0  0  0  0  0  0  0  0  0  0  0  0
   -5.2712   -1.0820   -1.1781 H   0  0  0  0  0  0  0  0  0  0  0  0
   -5.0894   -0.7915    0.5794 H   0  0  0  0  0  0  0  0  0  0  0  0
   -5.4551   -2.4264   -0.0119 H   0  0  0  0  0  0  0  0  0  0  0  0
   -2.9345   -1.1217   -2.7892 C   0  0  0  0  0  0  0  0  0  0  0  0
   -2.8835   -1.9567   -3.5231 H   0  0  0  0  0  0  0  0  0  0  0  0
   -2.2079   -0.3590   -3.1388 H   0  0  0  0  0  0  0  0  0  0  0  0
   -3.9622   -0.7102   -2.8294 H   0  0  0  0  0  0  0  0  0  0  0  0
  1  2  2  6  0  0  0
  1  7  1  0  0  0  0
  3  4  1  0  0  0  0
  3  8  1  0  0  0  0
  5 18  1  0  0  0  0
  5  7  1  0  0  0  0
  6  5  1  0  0  0  0
  7  3  1  0  0  0  0
  8 14  1  0  0  0  0
  8 10  1  0  0  0  0
  9  8  1  0  0  0  0
 10 13  1  0  0  0  0
 10 12  1  0  0  0  0
 11 10  1  0  0  0  0
 14 15  1  0  0  0  0
 14 16  1  0  0  0  0
 17 14  1  0  0  0  0
 18 19  1  0  0  0  0
 20 22  1  0  0  0  0
 20 18  1  0  0  0  0
 20 23  1  0  0  0  0
 21 20  1  0  0  0  0
 24 26  1  0  0  0  0
 24 25  1  0  0  0  0
 24 18  1  0  0  0  0
 27 24  1  0  0  0  0
 28 33  1  6  0  0  0
 28  1  1  0  0  0  0
 28 29  1  0  0  0  0
 29 30  2  0  0  0  0
 29 37  1  0  0  0  0
 30 41  1  0  0  0  0
 31 45  1  0  0  0  0
 31 30  1  0  0  0  0
 32 28  1  0  0  0  0
 32 31  2  0  0  0  0
 33 36  1  0  0  0  0
 34 33  1  0  0  0  0
 35 33  1  0  0  0  0
 37 40  1  0  0  0  0
 37 39  1  0  0  0  0
 38 37  1  0  0  0  0
 41 42  1  0  0  0  0
 41 43  1  0  0  0  0
 44 41  1  0  0  0  0
 45 48  1  0  0  0  0
 45 47  1  0  0  0  0
 46 45  1  0  0  0  0
 49 32  1  0  0  0  0
 50 49  1  0  0  0  0
 51 49  1  0  0  0  0
 52 49  1  0  0  0  0
M  END
