1
q = 0.0, confidence = 0.99

 66 68  0  0  1  0  0  0  0  0999 V2000
   -0.4007   -1.2288    0.0586 P   0  0  2  0  0  4  0  0  0  0  0  0
   -0.1164   -2.2825   -1.0598 O   0  0  0  0  0  0  0  0  0  0  0  0
    1.3667    0.9711    0.5688 N   0  0  0  0  0  0  0  0  0  0  0  0
    0.7958    0.9969    1.4220 H   0  0  0  0  0  0  0  0  0  0  0  0
    1.7194   -0.4707   -1.3122 N   0  0  0  0  0  0  0  0  0  0  0  0
    1.2251   -1.3567   -1.6351 H   0  0  0  0  0  0  0  0  0  0  0  0
    1.1267   -0.0919   -0.1951 C   0  0  0  0  0  3  0  0  0  0  0  0
    2.1647    2.1724    0.2925 C   0  0  0  0  0  0  0  0  0  0  0  0
    3.1487    1.8532   -0.1147 H   0  0  0  0  0  0  0  0  0  0  0  0
    1.4745    3.0910   -0.7333 C   0  0  0  0  0  0  0  0  0  0  0  0
    0.4740    3.3622   -0.3355 H   0  0  0  0  0  0  0  0  0  0  0  0
    1.2922    2.5428   -1.6803 H   0  0  0  0  0  0  0  0  0  0  0  0
    2.3023    4.3580   -0.9785 C   0  0  0  0  0  0  0  0  0  0  0  0
    3.2743    4.0801   -1.4465 H   0  0  0  0  0  0  0  0  0  0  0  0
    1.7824    5.0102   -1.7097 H   0  0  0  0  0  0  0  0  0  0  0  0
    2.5652    5.1120    0.3311 C   0  0  0  0  0  0  0  0  0  0  0  0
    1.5980    5.4846    0.7357 H   0  0  0  0  0  0  0  0  0  0  0  0
    3.1942    6.0071    0.1457 H   0  0  0  0  0  0  0  0  0  0  0  0
    3.2296    4.2017    1.3720 C   0  0  0  0  0  0  0  0  0  0  0  0
    4.2500    3.9268    1.0216 H   0  0  0  0  0  0  0  0  0  0  0  0
    3.3667    4.7393    2.3327 H   0  0  0  0  0  0  0  0  0  0  0  0
    2.4198    2.9207    1.6070 C   0  0  0  0  0  0  0  0  0  0  0  0
    1.4340    3.1753    2.0581 H   0  0  0  0  0  0  0  0  0  0  0  0
    2.9400    2.2515    2.3226 H   0  0  0  0  0  0  0  0  0  0  0  0
    2.8857    0.0276   -2.0459 C   0  0  0  0  0  0  0  0  0  0  0  0
    2.8428    1.1348   -2.0555 H   0  0  0  0  0  0  0  0  0  0  0  0
    4.1993   -0.4290   -1.3762 C   0  0  0  0  0  0  0  0  0  0  0  0
    4.2101   -0.1063   -0.3134 H   0  0  0  0  0  0  0  0  0  0  0  0
    5.0358    0.1020   -1.8815 H   0  0  0  0  0  0  0  0  0  0  0  0
    4.3998   -1.9452   -1.4810 C   0  0  0  0  0  0  0  0  0  0  0  0
    5.3697   -2.2292   -1.0228 H   0  0  0  0  0  0  0  0  0  0  0  0
    3.6131   -2.4557   -0.8865 H   0  0  0  0  0  0  0  0  0  0  0  0
    4.3251   -2.4237   -2.9376 C   0  0  0  0  0  0  0  0  0  0  0  0
    4.4401   -3.5262   -2.9862 H   0  0  0  0  0  0  0  0  0  0  0  0
    5.1792   -1.9940   -3.5090 H   0  0  0  0  0  0  0  0  0  0  0  0
    3.0085   -1.9953   -3.6004 C   0  0  0  0  0  0  0  0  0  0  0  0
    2.1590   -2.5317   -3.1212 H   0  0  0  0  0  0  0  0  0  0  0  0
    2.9889   -2.3006   -4.6666 H   0  0  0  0  0  0  0  0  0  0  0  0
    2.7983   -0.4775   -3.4971 C   0  0  0  0  0  0  0  0  0  0  0  0
    3.5855    0.0461   -4.0806 H   0  0  0  0  0  0  0  0  0  0  0  0
    1.8218   -0.1739   -3.9276 H   0  0  0  0  0  0  0  0  0  0  0  0
    0.0222   -2.0235    1.7911 C   0  0  2  0  0  0  0  0  0  0  0  0
    0.0938   -0.9447    2.8482 C   0  0  0  0  0  0  0  0  0  0  0  0
    1.4152   -0.7862    3.2104 C   0  0  0  0  0  0  0  0  0  0  0  0
    2.2492   -1.7414    2.4639 C   0  0  0  0  0  0  0  0  0  0  0  0
    1.4434   -2.5235    1.6669 C   0  0  0  0  0  0  0  0  0  0  0  0
   -1.0509   -3.1004    1.9950 C   0  0  0  0  0  0  0  0  0  0  0  0
   -0.8501   -3.6602    2.9313 H   0  0  0  0  0  0  0  0  0  0  0  0
   -1.0546   -3.8137    1.1476 H   0  0  0  0  0  0  0  0  0  0  0  0
   -2.0627   -2.6562    2.0679 H   0  0  0  0  0  0  0  0  0  0  0  0
   -1.1055   -0.2944    3.4566 C   0  0  0  0  0  0  0  0  0  0  0  0
   -1.7473    0.1953    2.6972 H   0  0  0  0  0  0  0  0  0  0  0  0
   -0.8237    0.4703    4.2058 H   0  0  0  0  0  0  0  0  0  0  0  0
   -1.7574   -1.0378    3.9656 H   0  0  0  0  0  0  0  0  0  0  0  0
    1.9758    0.1382    4.2486 C   0  0  0  0  0  0  0  0  0  0  0  0
    1.2263    0.8642    4.6179 H   0  0  0  0  0  0  0  0  0  0  0  0
    2.8448    0.7130    3.8639 H   0  0  0  0  0  0  0  0  0  0  0  0
    2.3516   -0.4293    5.1278 H   0  0  0  0  0  0  0  0  0  0  0  0
    3.7394   -1.8084    2.6055 C   0  0  0  0  0  0  0  0  0  0  0  0
    4.2177   -0.8473    2.3132 H   0  0  0  0  0  0  0  0  0  0  0  0
    4.1807   -2.6029    1.9740 H   0  0  0  0  0  0  0  0  0  0  0  0
    4.0484   -2.0005    3.6554 H   0  0  0  0  0  0  0  0  0  0  0  0
    1.8170   -3.7037    0.8328 C   0  0  0  0  0  0  0  0  0  0  0  0
    1.3545   -4.6327    1.2337 H   0  0  0  0  0  0  0  0  0  0  0  0
    2.9118   -3.8651    0.8072 H   0  0  0  0  0  0  0  0  0  0  0  0
    1.4239   -3.5862   -0.1992 H   0  0  0  0  0  0  0  0  0  0  0  0
  1  2  2  6  0  0  0
  1 42  1  0  0  0  0
  3  4  1  0  0  0  0
  5  7  1  0  0  0  0
  6  5  1  0  0  0  0
  7  1  1  0  0  0  0
  7  3  1  0  0  0  0
  8  3  1  0  0  0  0
  8 22  1  0  0  0  0
  9  8  1  0  0  0  0
 10 11  1  0  0  0  0
 10  8  1  0  0  0  0
 12 10  1  0  0  0  0
 13 10  1  0  0  0  0
 13 16  1  0  0  0  0
 14 13  1  0  0  0  0
 15 13  1  0  0  0  0
 16 17  1  0  0  0  0
 16 19  1  0  0  0  0
 18 16  1  0  0  0  0
 19 22  1  0  0  0  0
 19 21  1  0  0  0  0
 20 19  1  0  0  0  0
 22 23  1  0  0  0  0
 22 24  1  0  0  0  0
 25 27  1  0  0  0  0
 25  5  1  0  0  0  0
 26 25  1  0  0  0  0
 27 28  1  0  0  0  0
 29 27  1  0  0  0  0
 30 27  1  0  0  0  0
 30 31  1  0  0  0  0
 30 32  1  0  0  0  0
 33 30  1  0  0  0  0
 34 33  1  0  0  0  0
 35 33  1  0  0  0  0
 36 39  1  0  0  0  0
 36 37  1  0  0  0  0
 36 33  1  0  0  0  0
 38 36  1  0  0  0  0
 39 25  1  0  0  0  0
 40 39  1  0  0  0  0
 41 39  1  0  0  0  0
 42 47  1  1  0  0  0
 42 43  1  0  0  0  0
 43 44  2  0  0  0  0
 43 51  1  0  0  0  0
 44 55  1  0  0  0  0
 45 59  1  0  0  0  0
 45 44  1  0  0  0  0
 46 42  1  0  0  0  0
 46 45  2  0  0  0  0
 47 50  1  0  0  0  0
 47 48  1  0  0  0  0
 49 47  1  0  0  0  0
 51 54  1  0  0  0  0
 51 53  1  0  0  0  0
 52 51  1  0  0  0  0
 55 56  1  0  0  0  0
 55 58  1  0  0  0  0
 57 55  1  0  0  0  0
 59 62  1  0  0  0  0
 60 59  1  0  0  0  0
 61 59  1  0  0  0  0
 63 64  1  0  0  0  0
 63 46  1  0  0  0  0
 65 63  1  0  0  0  0
 66 63  1  0  0  0  0
M  END
