1
q = 0.0, confidence = 0.998

 31 31  0  0  0  0  0  0  0  0999 V2000
   -2.0695    0.6958   -0.2680 P   0  0  0  0  0  0  0  0  0  0  0  0
   -2.5797    0.8522   -2.0669 C   0  0  0  0  0  0  0  0  0  0  0  0
   -3.6710    1.0461   -2.0053 H   0  0  0  0  0  0  0  0  0  0  0  0
   -4.6192   -0.3386   -0.2234 N   0  0  0  0  0  0  0  0  0  0  0  0
   -3.1817   -1.2594    1.4874 C   0  0  0  0  0  0  0  0  0  0  0  0
   -2.1862   -1.2898    1.9507 H   0  0  0  0  0  0  0  0  0  0  0  0
   -2.4235    2.3346    2.0049 C   0  0  0  0  0  0  0  0  0  0  0  0
   -2.6488    3.3394    2.4184 H   0  0  0  0  0  0  0  0  0  0  0  0
   -1.4120    2.0464    2.3417 H   0  0  0  0  0  0  0  0  0  0  0  0
   -3.1483    1.6221    2.4509 H   0  0  0  0  0  0  0  0  0  0  0  0
   -1.8657    2.0109   -2.7679 C   0  0  0  0  0  0  0  0  0  0  0  0
   -2.2463    2.1070   -3.8060 H   0  0  0  0  0  0  0  0  0  0  0  0
   -0.7735    1.8330   -2.8275 H   0  0  0  0  0  0  0  0  0  0  0  0
   -2.0175    2.9863   -2.2658 H   0  0  0  0  0  0  0  0  0  0  0  0
   -2.5393    2.3687    0.4778 C   0  0  0  0  0  0  0  0  0  0  0  0
   -1.7463    3.0412    0.0836 H   0  0  0  0  0  0  0  0  0  0  0  0
   -3.4216   -0.4111    0.3891 C   0  0  0  0  0  0  0  0  0  0  0  0
   -3.9116    2.8848    0.0314 C   0  0  0  0  0  0  0  0  0  0  0  0
   -4.7229    2.1889    0.3227 H   0  0  0  0  0  0  0  0  0  0  0  0
   -3.9780    3.0357   -1.0629 H   0  0  0  0  0  0  0  0  0  0  0  0
   -4.1116    3.8640    0.5149 H   0  0  0  0  0  0  0  0  0  0  0  0
   -5.6169   -1.1116    0.2314 C   0  0  0  0  0  0  0  0  0  0  0  0
   -6.5811   -1.0293   -0.3012 H   0  0  0  0  0  0  0  0  0  0  0  0
   -5.4782   -1.9864    1.3211 C   0  0  0  0  0  0  0  0  0  0  0  0
   -6.3288   -2.5998    1.6539 H   0  0  0  0  0  0  0  0  0  0  0  0
   -4.2337   -2.0547    1.9624 C   0  0  0  0  0  0  0  0  0  0  0  0
   -4.0782   -2.7264    2.8204 H   0  0  0  0  0  0  0  0  0  0  0  0
   -2.3671   -0.4653   -2.8152 C   0  0  0  0  0  0  0  0  0  0  0  0
   -2.8732   -1.3174   -2.3220 H   0  0  0  0  0  0  0  0  0  0  0  0
   -1.2871   -0.7036   -2.8869 H   0  0  0  0  0  0  0  0  0  0  0  0
   -2.7708   -0.3789   -3.8453 H   0  0  0  0  0  0  0  0  0  0  0  0
  1 17  1  0  0  0  0
  1 15  1  0  0  0  0
  2  3  1  0  0  0  0
  2  1  1  0  0  0  0
  4 22  2  0  0  0  0
  4 17  1  0  0  0  0
  5  6  1  0  0  0  0
  5 26  1  0  0  0  0
  7  9  1  0  0  0  0
  7  8  1  0  0  0  0
  7 10  1  0  0  0  0
 11 14  1  0  0  0  0
 11  2  1  0  0  0  0
 12 11  1  0  0  0  0
 13 11  1  0  0  0  0
 15  7  1  0  0  0  0
 16 15  1  0  0  0  0
 17  5  2  0  0  0  0
 18 19  1  0  0  0  0
 18 15  1  0  0  0  0
 18 21  1  0  0  0  0
 20 18  1  0  0  0  0
 22 24  1  0  0  0  0
 23 22  1  0  0  0  0
 24 25  1  0  0  0  0
 24 26  2  0  0  0  0
 26 27  1  0  0  0  0
 28 29  1  0  0  0  0
 28  2  1  0  0  0  0
 30 28  1  0  0  0  0
 31 28  1  0  0  0  0
M  END
