1
q = 0.0, confidence = 0.988

 60 60  0  0  0  0  0  0  0  0999 V2000
    0.6884   -0.4327   -0.4302 P   0  0  1  0  0  0  0  0  0  0  0  0
   -0.7890    1.2354   -0.8563 P   0  0  1  0  0  0  0  0  0  0  0  0
   -0.7035   -0.8823    0.9076 B   0  0  0  0  0  0  0  0  0  0  0  0
   -1.9587   -0.0189    0.1557 B   0  0  0  0  0  0  0  0  0  0  0  0
   -0.3974   -1.3706    2.1905 N   0  0  0  0  0  0  0  0  0  0  0  0
   -3.3377   -0.1503   -0.1116 N   0  0  0  0  0  0  0  0  0  0  0  0
    0.4400   -1.6024   -1.9540 C   0  0  0  0  0  0  0  0  0  0  0  0
    0.6109   -3.0350   -1.4178 C   0  0  0  0  0  0  0  0  0  0  0  0
    0.4987   -3.7540   -2.2578 H   0  0  0  0  0  0  0  0  0  0  0  0
   -0.1639   -3.2770   -0.6615 H   0  0  0  0  0  0  0  0  0  0  0  0
    1.6056   -3.2089   -0.9683 H   0  0  0  0  0  0  0  0  0  0  0  0
    1.4824   -1.2899   -3.0335 C   0  0  0  0  0  0  0  0  0  0  0  0
    1.3424   -1.9881   -3.8863 H   0  0  0  0  0  0  0  0  0  0  0  0
    2.5168   -1.4052   -2.6597 H   0  0  0  0  0  0  0  0  0  0  0  0
    1.3700   -0.2575   -3.4184 H   0  0  0  0  0  0  0  0  0  0  0  0
   -0.5541    2.7185    0.3575 C   0  0  0  0  0  0  0  0  0  0  0  0
   -0.9644   -1.4592   -2.5553 C   0  0  0  0  0  0  0  0  0  0  0  0
   -1.0688   -2.1785   -3.3957 H   0  0  0  0  0  0  0  0  0  0  0  0
   -1.1418   -0.4395   -2.9507 H   0  0  0  0  0  0  0  0  0  0  0  0
   -1.7572   -1.6853   -1.8169 H   0  0  0  0  0  0  0  0  0  0  0  0
   -0.7187    2.3523    1.8384 C   0  0  0  0  0  0  0  0  0  0  0  0
   -0.6309    3.2696    2.4614 H   0  0  0  0  0  0  0  0  0  0  0  0
    0.0516    1.6418    2.1863 H   0  0  0  0  0  0  0  0  0  0  0  0
   -1.7156    1.9069    2.0342 H   0  0  0  0  0  0  0  0  0  0  0  0
   -1.6885    3.6792   -0.0542 C   0  0  0  0  0  0  0  0  0  0  0  0
   -1.6202    4.6063    0.5551 H   0  0  0  0  0  0  0  0  0  0  0  0
   -2.6913    3.2397    0.1234 H   0  0  0  0  0  0  0  0  0  0  0  0
   -1.6173    3.9666   -1.1225 H   0  0  0  0  0  0  0  0  0  0  0  0
   -1.2719   -1.1771    3.3352 C   0  0  0  0  0  0  0  0  0  0  0  0
   -2.1313   -0.5464    3.0521 H   0  0  0  0  0  0  0  0  0  0  0  0
   -0.7218   -0.6617    4.1530 H   0  0  0  0  0  0  0  0  0  0  0  0
   -1.6433   -2.1466    3.7379 H   0  0  0  0  0  0  0  0  0  0  0  0
    0.8004    3.3885    0.1004 C   0  0  0  0  0  0  0  0  0  0  0  0
    0.8715    4.3218    0.7001 H   0  0  0  0  0  0  0  0  0  0  0  0
    0.9278    3.6536   -0.9680 H   0  0  0  0  0  0  0  0  0  0  0  0
    1.6395    2.7274    0.3877 H   0  0  0  0  0  0  0  0  0  0  0  0
    0.8036   -2.1262    2.5222 C   0  0  0  0  0  0  0  0  0  0  0  0
    1.4808   -2.1776    1.6526 H   0  0  0  0  0  0  0  0  0  0  0  0
    0.5285   -3.1610    2.8251 H   0  0  0  0  0  0  0  0  0  0  0  0
    1.3526   -1.6556    3.3643 H   0  0  0  0  0  0  0  0  0  0  0  0
   -4.0186    0.7583   -1.0707 C   0  0  0  0  0  0  0  0  0  0  0  0
   -3.2259    1.4642   -1.3942 H   0  0  0  0  0  0  0  0  0  0  0  0
   -4.4981    0.0278   -2.3328 C   0  0  0  0  0  0  0  0  0  0  0  0
   -3.6730   -0.5443   -2.7981 H   0  0  0  0  0  0  0  0  0  0  0  0
   -4.8620    0.7666   -3.0744 H   0  0  0  0  0  0  0  0  0  0  0  0
   -5.3372   -0.6696   -2.1312 H   0  0  0  0  0  0  0  0  0  0  0  0
   -5.1406    1.5829   -0.4305 C   0  0  0  0  0  0  0  0  0  0  0  0
   -4.7829    2.1158    0.4729 H   0  0  0  0  0  0  0  0  0  0  0  0
   -6.0101    0.9566   -0.1432 H   0  0  0  0  0  0  0  0  0  0  0  0
   -5.5069    2.3402   -1.1523 H   0  0  0  0  0  0  0  0  0  0  0  0
   -4.2034   -1.2217    0.4522 C   0  0  0  0  0  0  0  0  0  0  0  0
   -5.0848   -1.2848   -0.2195 H   0  0  0  0  0  0  0  0  0  0  0  0
   -3.5313   -2.5965    0.4290 C   0  0  0  0  0  0  0  0  0  0  0  0
   -3.2058   -2.8649   -0.5952 H   0  0  0  0  0  0  0  0  0  0  0  0
   -4.2410   -3.3723    0.7795 H   0  0  0  0  0  0  0  0  0  0  0  0
   -2.6393   -2.6234    1.0851 H   0  0  0  0  0  0  0  0  0  0  0  0
   -4.7360   -0.8744    1.8496 C   0  0  0  0  0  0  0  0  0  0  0  0
   -5.2197    0.1194    1.8703 H   0  0  0  0  0  0  0  0  0  0  0  0
   -3.9208   -0.8719    2.5968 H   0  0  0  0  0  0  0  0  0  0  0  0
   -5.4836   -1.6269    2.1728 H   0  0  0  0  0  0  0  0  0  0  0  0
  1  7  1  6  0  0  0
  1  3  1  0  0  0  0
  2  1  1  0  0  0  0
  2  4  1  0  0  0  0
  2 16  1  1  0  0  0
  3  5  1  0  0  0  0
  4  3  1  0  0  0  0
  5 37  1  0  0  0  0
  5 29  1  0  0  0  0
  6  4  1  0  0  0  0
  6 51  1  0  0  0  0
  7  8  1  0  0  0  0
  8 11  1  0  0  0  0
  8 10  1  0  0  0  0
  9  8  1  0  0  0  0
 12 14  1  0  0  0  0
 12  7  1  0  0  0  0
 13 12  1  0  0  0  0
 15 12  1  0  0  0  0
 16 21  1  0  0  0  0
 17  7  1  0  0  0  0
 17 20  1  0  0  0  0
 18 17  1  0  0  0  0
 19 17  1  0  0  0  0
 21 24  1  0  0  0  0
 21 23  1  0  0  0  0
 21 22  1  0  0  0  0
 25 27  1  0  0  0  0
 25 16  1  0  0  0  0
 25 26  1  0  0  0  0
 28 25  1  0  0  0  0
 29 32  1  0  0  0  0
 29 31  1  0  0  0  0
 30 29  1  0  0  0  0
 33 16  1  0  0  0  0
 33 36  1  0  0  0  0
 33 34  1  0  0  0  0
 35 33  1  0  0  0  0
 37 39  1  0  0  0  0
 37 40  1  0  0  0  0
 38 37  1  0  0  0  0
 41 47  1  0  0  0  0
 41  6  1  0  0  0  0
 42 41  1  0  0  0  0
 43 46  1  0  0  0  0
 43 41  1  0  0  0  0
 44 43  1  0  0  0  0
 45 43  1  0  0  0  0
 47 49  1  0  0  0  0
 47 48  1  0  0  0  0
 50 47  1  0  0  0  0
 51 57  1  0  0  0  0
 52 51  1  0  0  0  0
 53 51  1  0  0  0  0
 53 55  1  0  0  0  0
 53 56  1  0  0  0  0
 54 53  1  0  0  0  0
 57 58  1  0  0  0  0
 57 60  1  0  0  0  0
 57 59  1  0  0  0  0
M  END
