1
q = 0.0, confidence = 0.99

 46 48  0  0  0  0  0  0  0  0999 V2000
   -0.3016   -0.2709   -0.9636 P   0  0  0  0  0  0  0  0  0  0  0  0
   -0.5896    0.4569   -2.1703 H   0  0  0  0  0  0  0  0  0  0  0  0
   -0.7406   -1.8604   -1.3719 N   0  0  0  0  0  0  0  0  0  0  0  0
   -1.6787   -1.9855   -1.7666 H   0  0  0  0  0  0  0  0  0  0  0  0
    0.0486   -3.0695   -1.2587 C   0  0  0  0  0  0  0  0  0  0  0  0
    1.0215   -2.8088   -0.7939 H   0  0  0  0  0  0  0  0  0  0  0  0
    0.3251   -3.4610   -2.2687 H   0  0  0  0  0  0  0  0  0  0  0  0
   -0.5901   -4.1806   -0.4692 C   0  0  0  0  0  0  0  0  0  0  0  0
    0.0105   -5.1072   -0.4253 H   0  0  0  0  0  0  0  0  0  0  0  0
   -1.7867   -4.1342    0.1404 C   0  0  0  0  0  0  0  0  0  0  0  0
   -2.1761   -5.0022    0.6935 H   0  0  0  0  0  0  0  0  0  0  0  0
   -2.4153   -3.2302    0.1125 H   0  0  0  0  0  0  0  0  0  0  0  0
   -1.8280    0.4546    0.0581 C   0  0  0  0  0  0  0  0  0  0  0  0
   -1.4945    0.3109    1.5457 C   0  0  0  0  0  0  0  0  0  0  0  0
   -0.9527   -0.8980    2.0363 C   0  0  0  0  0  0  0  0  0  0  0  0
   -0.7840   -1.7403    1.3497 H   0  0  0  0  0  0  0  0  0  0  0  0
   -0.6402   -1.0510    3.3933 C   0  0  0  0  0  0  0  0  0  0  0  0
   -0.1999   -1.9973    3.7418 H   0  0  0  0  0  0  0  0  0  0  0  0
   -0.8782   -0.0004    4.2939 C   0  0  0  0  0  0  0  0  0  0  0  0
   -0.6267   -0.1148    5.3590 H   0  0  0  0  0  0  0  0  0  0  0  0
   -1.4384    1.1958    3.8235 C   0  0  0  0  0  0  0  0  0  0  0  0
   -1.6325    2.0259    4.5194 H   0  0  0  0  0  0  0  0  0  0  0  0
   -1.7424    1.3510    2.4616 C   0  0  0  0  0  0  0  0  0  0  0  0
   -2.1696    2.2987    2.1050 H   0  0  0  0  0  0  0  0  0  0  0  0
   -1.9792    1.9255   -0.3537 C   0  0  0  0  0  0  0  0  0  0  0  0
   -0.8547    2.7782   -0.3516 C   0  0  0  0  0  0  0  0  0  0  0  0
    0.1208    2.3794   -0.0452 H   0  0  0  0  0  0  0  0  0  0  0  0
   -0.9589    4.1269   -0.7154 C   0  0  0  0  0  0  0  0  0  0  0  0
   -0.0562    4.7561   -0.7210 H   0  0  0  0  0  0  0  0  0  0  0  0
   -2.2062    4.6666   -1.0653 C   0  0  0  0  0  0  0  0  0  0  0  0
   -2.2946    5.7263   -1.3486 H   0  0  0  0  0  0  0  0  0  0  0  0
   -3.3403    3.8419   -1.0403 C   0  0  0  0  0  0  0  0  0  0  0  0
   -4.3287    4.2541   -1.2948 H   0  0  0  0  0  0  0  0  0  0  0  0
   -3.2286    2.4862   -0.6924 C   0  0  0  0  0  0  0  0  0  0  0  0
   -4.1313    1.8605   -0.6757 H   0  0  0  0  0  0  0  0  0  0  0  0
   -3.0617   -0.3648   -0.3396 C   0  0  0  0  0  0  0  0  0  0  0  0
   -3.8493   -1.0415    0.6118 C   0  0  0  0  0  0  0  0  0  0  0  0
   -3.5798   -0.9840    1.6751 H   0  0  0  0  0  0  0  0  0  0  0  0
   -4.9750   -1.7869    0.2212 C   0  0  0  0  0  0  0  0  0  0  0  0
   -5.5718   -2.3043    0.9875 H   0  0  0  0  0  0  0  0  0  0  0  0
   -5.3349   -1.8775   -1.1298 C   0  0  0  0  0  0  0  0  0  0  0  0
   -6.2111   -2.4687   -1.4352 H   0  0  0  0  0  0  0  0  0  0  0  0
   -4.5683   -1.1969   -2.0910 C   0  0  0  0  0  0  0  0  0  0  0  0
   -4.8443   -1.2459   -3.1553 H   0  0  0  0  0  0  0  0  0  0  0  0
   -3.4531   -0.4448   -1.6989 C   0  0  0  0  0  0  0  0  0  0  0  0
   -2.8790    0.1046   -2.4614 H   0  0  0  0  0  0  0  0  0  0  0  0
  1 13  1  0  0  0  0
  2  1  1  0  0  0  0
  3  5  1  0  0  0  0
  3  1  1  0  0  0  0
  4  3  1  0  0  0  0
  5  6  1  0  0  0  0
  5  8  1  0  0  0  0
  7  5  1  0  0  0  0
  8  9  1  0  0  0  0
  8 10  2  0  0  0  0
 10 11  1  0  0  0  0
 12 10  1  0  0  0  0
 13 14  1  0  0  0  0
 14 15  2  0  0  0  0
 14 23  1  0  0  0  0
 15 17  1  0  0  0  0
 16 15  1  0  0  0  0
 17 18  1  0  0  0  0
 17 19  2  0  0  0  0
 19 20  1  0  0  0  0
 21 19  1  0  0  0  0
 21 22  1  0  0  0  0
 23 21  2  0  0  0  0
 24 23  1  0  0  0  0
 25 26  1  0  0  0  0
 25 13  1  0  0  0  0
 26 27  1  0  0  0  0
 28 26  2  0  0  0  0
 29 28  1  0  0  0  0
 30 32  2  0  0  0  0
 30 28  1  0  0  0  0
 31 30  1  0  0  0  0
 32 34  1  0  0  0  0
 33 32  1  0  0  0  0
 34 35  1  0  0  0  0
 34 25  2  0  0  0  0
 36 13  1  0  0  0  0
 36 37  1  0  0  0  0
 37 38  1  0  0  0  0
 39 37  2  0  0  0  0
 39 40  1  0  0  0  0
 41 39  1  0  0  0  0
 42 41  1  0  0  0  0
 43 45  1  0  0  0  0
 43 41  2  0  0  0  0
 44 43  1  0  0  0  0
 45 36  2  0  0  0  0
 46 45  1  0  0  0  0
M  END
