1
q = 0.0, confidence = 1.0

 39 41  0  0  0  0  0  0  0  0999 V2000
    0.4354   -0.1831    0.0474 P   0  0  0  0  0  0  0  0  0  0  0  0
   -0.4494    2.2155    0.8454 O   0  0  0  0  0  0  0  0  0  0  0  0
    1.2007   -1.7812   -0.4804 C   0  0  0  0  0  0  0  0  0  0  0  0
    0.4848   -2.5948   -1.3838 C   0  0  0  0  0  0  0  0  0  0  0  0
    1.0300   -3.8075   -1.8291 C   0  0  0  0  0  0  0  0  0  0  0  0
    2.2882   -4.2254   -1.3661 C   0  0  0  0  0  0  0  0  0  0  0  0
    2.9994   -3.4269   -0.4563 C   0  0  0  0  0  0  0  0  0  0  0  0
    2.4609   -2.2088   -0.0140 C   0  0  0  0  0  0  0  0  0  0  0  0
    1.2607    0.1586    1.6470 C   0  0  0  0  0  0  0  0  0  0  0  0
    0.6472   -0.3007    2.8277 C   0  0  0  0  0  0  0  0  0  0  0  0
    1.2741   -0.0973    4.0654 C   0  0  0  0  0  0  0  0  0  0  0  0
    2.5095    0.5673    4.1308 C   0  0  0  0  0  0  0  0  0  0  0  0
    3.1186    1.0315    2.9540 C   0  0  0  0  0  0  0  0  0  0  0  0
    2.4980    0.8283    1.7119 C   0  0  0  0  0  0  0  0  0  0  0  0
    1.1315    1.0282   -1.1747 C   0  0  0  0  0  0  0  0  0  0  0  0
    1.9791    0.5584   -2.1968 C   0  0  0  0  0  0  0  0  0  0  0  0
    2.4812    1.4243   -3.1805 C   0  0  0  0  0  0  0  0  0  0  0  0
    2.1327    2.7817   -3.1683 C   0  0  0  0  0  0  0  0  0  0  0  0
    1.2822    3.2625   -2.1660 C   0  0  0  0  0  0  0  0  0  0  0  0
    0.7771    2.4105   -1.1608 C   0  0  0  0  0  0  0  0  0  0  0  0
   -0.1248    2.9424   -0.0938 C   0  0  0  0  0  0  0  0  0  0  0  0
   -0.6487    4.3591   -0.1868 C   0  0  0  0  0  0  0  0  0  0  0  0
   -0.5128   -2.2735   -1.7253 H   0  0  0  0  0  0  0  0  0  0  0  0
    0.4618   -4.4351   -2.5322 H   0  0  0  0  0  0  0  0  0  0  0  0
    2.7116   -5.1823   -1.7078 H   0  0  0  0  0  0  0  0  0  0  0  0
    3.9805   -3.7565   -0.0818 H   0  0  0  0  0  0  0  0  0  0  0  0
    3.0203   -1.5915    0.7045 H   0  0  0  0  0  0  0  0  0  0  0  0
   -0.3310   -0.8038    2.7708 H   0  0  0  0  0  0  0  0  0  0  0  0
    0.7887   -0.4537    4.9864 H   0  0  0  0  0  0  0  0  0  0  0  0
    2.9969    0.7300    5.1040 H   0  0  0  0  0  0  0  0  0  0  0  0
    4.0838    1.5585    3.0021 H   0  0  0  0  0  0  0  0  0  0  0  0
    2.9740    1.1991    0.7909 H   0  0  0  0  0  0  0  0  0  0  0  0
    2.2525   -0.5055   -2.2279 H   0  0  0  0  0  0  0  0  0  0  0  0
    3.1471    1.0284   -3.9621 H   0  0  0  0  0  0  0  0  0  0  0  0
    2.5197    3.4648   -3.9388 H   0  0  0  0  0  0  0  0  0  0  0  0
    1.0061    4.3262   -2.1603 H   0  0  0  0  0  0  0  0  0  0  0  0
   -1.2054    4.5156   -1.1332 H   0  0  0  0  0  0  0  0  0  0  0  0
    0.1797    5.0966   -0.1644 H   0  0  0  0  0  0  0  0  0  0  0  0
   -1.3207    4.5407    0.6701 H   0  0  0  0  0  0  0  0  0  0  0  0
  1  9  1  0  0  0  0
  3  8  1  0  0  0  0
  3  1  1  0  0  0  0
  4  3  2  0  0  0  0
  5  4  1  0  0  0  0
  5  6  2  0  0  0  0
  6  7  1  0  0  0  0
  7 26  1  0  0  0  0
  7  8  2  0  0  0  0
  8 27  1  0  0  0  0
  9 14  2  0  0  0  0
  9 10  1  0  0  0  0
 10 11  2  0  0  0  0
 11 12  1  0  0  0  0
 11 29  1  0  0  0  0
 12 30  1  0  0  0  0
 13 31  1  0  0  0  0
 13 12  2  0  0  0  0
 14 13  1  0  0  0  0
 15 20  1  0  0  0  0
 15  1  1  0  0  0  0
 16 15  2  0  0  0  0
 17 18  2  0  0  0  0
 17 16  1  0  0  0  0
 18 19  1  0  0  0  0
 19 36  1  0  0  0  0
 19 20  2  0  0  0  0
 20 21  1  0  0  0  0
 21  2  2  0  0  0  0
 22 38  1  0  0  0  0
 22 21  1  0  0  0  0
 22 39  1  0  0  0  0
 23  4  1  0  0  0  0
 24  5  1  0  0  0  0
 25  6  1  0  0  0  0
 28 10  1  0  0  0  0
 32 14  1  0  0  0  0
 33 16  1  0  0  0  0
 34 17  1  0  0  0  0
 35 18  1  0  0  0  0
 37 22  1  0  0  0  0
M  END
