1
q = 0.0, confidence = 0.998

 39 42  0  0  0  0  0  0  0  0999 V2000
   -1.8135    0.4560   -0.6956 P   0  0  0  0  0  0  0  0  0  0  0  0
   -2.4895   -1.8260    0.7125 N   0  0  0  0  0  0  0  0  0  0  0  0
   -1.6555   -1.3321   -0.1862 C   0  0  0  0  0  0  0  0  0  0  0  0
   -2.3805   -3.1427    1.0543 C   0  0  0  0  0  0  0  0  0  0  0  0
   -3.2385   -3.6658    2.0651 C   0  0  0  0  0  0  0  0  0  0  0  0
   -3.9625   -2.9792    2.5267 H   0  0  0  0  0  0  0  0  0  0  0  0
   -3.1413   -4.9945    2.4484 C   0  0  0  0  0  0  0  0  0  0  0  0
   -3.8040   -5.3901    3.2329 H   0  0  0  0  0  0  0  0  0  0  0  0
   -2.1902   -5.8571    1.8351 C   0  0  0  0  0  0  0  0  0  0  0  0
   -2.1274   -6.9092    2.1517 H   0  0  0  0  0  0  0  0  0  0  0  0
   -1.3470   -5.3794    0.8428 C   0  0  0  0  0  0  0  0  0  0  0  0
   -0.6089   -6.0423    0.3646 H   0  0  0  0  0  0  0  0  0  0  0  0
   -1.4179   -4.0178    0.4299 C   0  0  0  0  0  0  0  0  0  0  0  0
   -0.5654   -3.4535   -0.5590 C   0  0  0  0  0  0  0  0  0  0  0  0
    0.1858   -4.0884   -1.0551 H   0  0  0  0  0  0  0  0  0  0  0  0
   -0.6624   -2.1068   -0.8603 C   0  0  0  0  0  0  0  0  0  0  0  0
    0.0248   -1.6210   -1.5704 H   0  0  0  0  0  0  0  0  0  0  0  0
   -2.4288    1.4474    0.7180 C   0  0  0  0  0  0  0  0  0  0  0  0
   -1.9295    2.7616    0.8353 C   0  0  0  0  0  0  0  0  0  0  0  0
   -1.1985    3.1292    0.0978 H   0  0  0  0  0  0  0  0  0  0  0  0
   -2.3439    3.5814    1.8951 C   0  0  0  0  0  0  0  0  0  0  0  0
   -1.9379    4.6001    1.9856 H   0  0  0  0  0  0  0  0  0  0  0  0
   -3.2627    3.0946    2.8388 C   0  0  0  0  0  0  0  0  0  0  0  0
   -3.5832    3.7337    3.6759 H   0  0  0  0  0  0  0  0  0  0  0  0
   -3.7776    1.7933    2.7101 C   0  0  0  0  0  0  0  0  0  0  0  0
   -4.5019    1.4131    3.4470 H   0  0  0  0  0  0  0  0  0  0  0  0
   -3.3720    0.9686    1.6507 C   0  0  0  0  0  0  0  0  0  0  0  0
   -3.7416   -0.0612    1.5543 H   0  0  0  0  0  0  0  0  0  0  0  0
   -3.2417    0.3572   -1.8462 C   0  0  0  0  0  0  0  0  0  0  0  0
   -4.3751    1.1728   -1.6782 C   0  0  0  0  0  0  0  0  0  0  0  0
   -4.4218    1.8895   -0.8458 H   0  0  0  0  0  0  0  0  0  0  0  0
   -5.4482    1.0726   -2.5780 C   0  0  0  0  0  0  0  0  0  0  0  0
   -6.3320    1.7143   -2.4421 H   0  0  0  0  0  0  0  0  0  0  0  0
   -5.3937    0.1632   -3.6438 C   0  0  0  0  0  0  0  0  0  0  0  0
   -6.2364    0.0868   -4.3476 H   0  0  0  0  0  0  0  0  0  0  0  0
   -4.2571   -0.6448   -3.8169 C   0  0  0  0  0  0  0  0  0  0  0  0
   -4.2032   -1.3506   -4.6594 H   0  0  0  0  0  0  0  0  0  0  0  0
   -3.1803   -0.5447   -2.9285 C   0  0  0  0  0  0  0  0  0  0  0  0
   -2.2834   -1.1621   -3.0834 H   0  0  0  0  0  0  0  0  0  0  0  0
  1  3  1  0  0  0  0
  1 18  1  0  0  0  0
  2  4  1  0  0  0  0
  3  2  2  0  0  0  0
  4  5  1  0  0  0  0
  5  7  2  0  0  0  0
  5  6  1  0  0  0  0
  7  8  1  0  0  0  0
  9 10  1  0  0  0  0
  9  7  1  0  0  0  0
 11  9  2  0  0  0  0
 12 11  1  0  0  0  0
 13 11  1  0  0  0  0
 13  4  2  0  0  0  0
 14 13  1  0  0  0  0
 15 14  1  0  0  0  0
 16 14  2  0  0  0  0
 16  3  1  0  0  0  0
 17 16  1  0  0  0  0
 18 19  2  0  0  0  0
 18 27  1  0  0  0  0
 19 21  1  0  0  0  0
 20 19  1  0  0  0  0
 21 22  1  0  0  0  0
 21 23  2  0  0  0  0
 23 24  1  0  0  0  0
 25 23  1  0  0  0  0
 25 26  1  0  0  0  0
 27 25  2  0  0  0  0
 28 27  1  0  0  0  0
 29 30  1  0  0  0  0
 29  1  1  0  0  0  0
 30 31  1  0  0  0  0
 32 33  1  0  0  0  0
 32 30  2  0  0  0  0
 34 32  1  0  0  0  0
 35 34  1  0  0  0  0
 36 34  2  0  0  0  0
 36 38  1  0  0  0  0
 37 36  1  0  0  0  0
 38 29  2  0  0  0  0
 39 38  1  0  0  0  0
M  END
