2
q = 0.0, confidence = 0.986

 65 70  0  0  1  0  0  0  0  0999 V2000
    0.3510   -0.2913    2.5095 Cl  0  0  0  0  0  0  0  0  0  0  0  0
    0.7879   -0.0513    0.4681 P   0  0  1  0  0  0  0  0  0  0  0  0
   -0.0775   -1.2357   -0.2524 O   0  0  0  0  0  0  0  0  0  0  0  0
   -3.7291   -0.9193    0.2697 O   0  0  0  0  0  0  0  0  0  0  0  0
   -3.5429    1.2065   -0.5210 O   0  0  0  0  0  0  0  0  0  0  0  0
    0.0772    1.3601    0.0357 O   0  0  0  0  0  0  0  0  0  0  0  0
   -1.4247   -1.7557   -0.0372 C   0  0  0  0  0  0  0  0  0  0  0  0
   -1.3455   -2.8398    1.0414 C   0  0  0  0  0  0  0  0  0  0  0  0
   -0.2667   -3.7453    1.0075 C   0  0  0  0  0  0  0  0  0  0  0  0
    0.4986   -3.6475    0.2249 H   0  0  0  0  0  0  0  0  0  0  0  0
   -0.1590   -4.7572    1.9692 C   0  0  0  0  0  0  0  0  0  0  0  0
    0.6956   -5.4498    1.9356 H   0  0  0  0  0  0  0  0  0  0  0  0
   -1.1357   -4.8872    2.9706 C   0  0  0  0  0  0  0  0  0  0  0  0
   -1.0510   -5.6818    3.7274 H   0  0  0  0  0  0  0  0  0  0  0  0
   -2.2204   -3.9995    2.9981 C   0  0  0  0  0  0  0  0  0  0  0  0
   -2.9940   -4.0962    3.7750 H   0  0  0  0  0  0  0  0  0  0  0  0
   -2.3266   -2.9777    2.0401 C   0  0  0  0  0  0  0  0  0  0  0  0
   -3.1900   -2.2978    2.0647 H   0  0  0  0  0  0  0  0  0  0  0  0
   -1.8442   -2.3514   -1.3809 C   0  0  0  0  0  0  0  0  0  0  0  0
   -1.2371   -1.9380   -2.5828 C   0  0  0  0  0  0  0  0  0  0  0  0
   -0.4044   -1.2228   -2.5551 H   0  0  0  0  0  0  0  0  0  0  0  0
   -1.6779   -2.4508   -3.8132 C   0  0  0  0  0  0  0  0  0  0  0  0
   -1.1913   -2.1190   -4.7429 H   0  0  0  0  0  0  0  0  0  0  0  0
   -2.7237   -3.3846   -3.8565 C   0  0  0  0  0  0  0  0  0  0  0  0
   -3.0668   -3.7879   -4.8213 H   0  0  0  0  0  0  0  0  0  0  0  0
   -3.3201   -3.8120   -2.6592 C   0  0  0  0  0  0  0  0  0  0  0  0
   -4.1326   -4.5540   -2.6816 H   0  0  0  0  0  0  0  0  0  0  0  0
   -2.8827   -3.3018   -1.4296 C   0  0  0  0  0  0  0  0  0  0  0  0
   -3.3493   -3.6414   -0.4948 H   0  0  0  0  0  0  0  0  0  0  0  0
   -2.3568   -0.5757    0.3945 C   0  0  1  0  0  0  0  0  0  0  0  0
   -2.1342   -0.3679    1.4623 H   0  0  0  0  0  0  0  0  0  0  0  0
   -4.4079    0.0728   -0.5383 C   0  0  0  0  0  0  0  0  0  0  0  0
   -2.2131    0.7233   -0.4377 C   0  0  2  0  0  0  0  0  0  0  0  0
   -1.8104    0.4880   -1.4506 H   0  0  0  0  0  0  0  0  0  0  0  0
   -1.2978    1.8444    0.1296 C   0  0  0  0  0  0  0  0  0  0  0  0
   -1.3690    3.0331   -0.8376 C   0  0  0  0  0  0  0  0  0  0  0  0
   -0.5106    3.0991   -1.9509 C   0  0  0  0  0  0  0  0  0  0  0  0
    0.2518    2.3226   -2.0968 H   0  0  0  0  0  0  0  0  0  0  0  0
   -0.6158    4.1598   -2.8630 C   0  0  0  0  0  0  0  0  0  0  0  0
    0.0686    4.2042   -3.7237 H   0  0  0  0  0  0  0  0  0  0  0  0
   -1.5837    5.1582   -2.6775 C   0  0  0  0  0  0  0  0  0  0  0  0
   -1.6642    5.9912   -3.3923 H   0  0  0  0  0  0  0  0  0  0  0  0
   -2.4461    5.0908   -1.5718 C   0  0  0  0  0  0  0  0  0  0  0  0
   -3.2074    5.8703   -1.4165 H   0  0  0  0  0  0  0  0  0  0  0  0
   -2.3387    4.0362   -0.6546 C   0  0  0  0  0  0  0  0  0  0  0  0
   -3.0108    3.9890    0.2135 H   0  0  0  0  0  0  0  0  0  0  0  0
   -1.5418    2.2986    1.5701 C   0  0  0  0  0  0  0  0  0  0  0  0
   -0.5190    3.0484    2.1883 C   0  0  0  0  0  0  0  0  0  0  0  0
    0.4031    3.2635    1.6289 H   0  0  0  0  0  0  0  0  0  0  0  0
   -0.6632    3.5049    3.5030 C   0  0  0  0  0  0  0  0  0  0  0  0
    0.1491    4.0813    3.9710 H   0  0  0  0  0  0  0  0  0  0  0  0
   -1.8379    3.2281    4.2220 C   0  0  0  0  0  0  0  0  0  0  0  0
   -1.9511    3.5829    5.2576 H   0  0  0  0  0  0  0  0  0  0  0  0
   -2.8673    2.5028    3.6073 C   0  0  0  0  0  0  0  0  0  0  0  0
   -3.7970    2.2886    4.1561 H   0  0  0  0  0  0  0  0  0  0  0  0
   -2.7248    2.0450    2.2868 C   0  0  0  0  0  0  0  0  0  0  0  0
   -3.5471    1.4992    1.8106 H   0  0  0  0  0  0  0  0  0  0  0  0
   -5.7132    0.4452    0.1493 C   0  0  0  0  0  0  0  0  0  0  0  0
   -5.5197    0.7661    1.1901 H   0  0  0  0  0  0  0  0  0  0  0  0
   -6.3928   -0.4276    0.1672 H   0  0  0  0  0  0  0  0  0  0  0  0
   -6.2080    1.2703   -0.3972 H   0  0  0  0  0  0  0  0  0  0  0  0
   -4.6185   -0.4291   -1.9664 C   0  0  0  0  0  0  0  0  0  0  0  0
   -5.1635    0.3376   -2.5507 H   0  0  0  0  0  0  0  0  0  0  0  0
   -5.2074   -1.3653   -1.9609 H   0  0  0  0  0  0  0  0  0  0  0  0
   -3.6563   -0.6394   -2.4681 H   0  0  0  0  0  0  0  0  0  0  0  0
  2  1  1  1  0  0  0
  3  7  1  0  0  0  0
  3  2  1  0  0  0  0
  4 30  1  0  0  0  0
  5 33  1  0  0  0  0
  6 35  1  0  0  0  0
  6  2  1  0  0  0  0
  7 30  1  0  0  0  0
  7  8  1  0  0  0  0
  8 17  1  0  0  0  0
  9  8  2  0  0  0  0
  9 11  1  0  0  0  0
 10  9  1  0  0  0  0
 11 13  2  0  0  0  0
 12 11  1  0  0  0  0
 13 15  1  0  0  0  0
 13 14  1  0  0  0  0
 15 16  1  0  0  0  0
 17 18  1  0  0  0  0
 17 15  2  0  0  0  0
 19  7  1  0  0  0  0
 20 21  1  0  0  0  0
 20 19  2  0  0  0  0
 22 20  1  0  0  0  0
 23 22  1  0  0  0  0
 24 22  2  0  0  0  0
 24 26  1  0  0  0  0
 25 24  1  0  0  0  0
 26 28  2  0  0  0  0
 27 26  1  0  0  0  0
 28 19  1  0  0  0  0
 28 29  1  0  0  0  0
 30 31  1  1  0  0  0
 32  5  1  0  0  0  0
 32 58  1  0  0  0  0
 32  4  1  0  0  0  0
 33 34  1  6  0  0  0
 33 35  1  0  0  0  0
 33 30  1  0  0  0  0
 35 47  1  0  0  0  0
 36 45  1  0  0  0  0
 36 35  1  0  0  0  0
 37 36  2  0  0  0  0
 38 37  1  0  0  0  0
 39 41  2  0  0  0  0
 39 37  1  0  0  0  0
 40 39  1  0  0  0  0
 41 43  1  0  0  0  0
 42 41  1  0  0  0  0
 43 44  1  0  0  0  0
 43 45  2  0  0  0  0
 45 46  1  0  0  0  0
 47 48  2  0  0  0  0
 47 56  1  0  0  0  0
 48 50  1  0  0  0  0
 49 48  1  0  0  0  0
 50 51  1  0  0  0  0
 50 52  2  0  0  0  0
 52 53  1  0  0  0  0
 54 55  1  0  0  0  0
 54 52  1  0  0  0  0
 56 54  2  0  0  0  0
 57 56  1  0  0  0  0
 58 60  1  0  0  0  0
 58 59  1  0  0  0  0
 61 58  1  0  0  0  0
 62 64  1  0  0  0  0
 62 32  1  0  0  0  0
 63 62  1  0  0  0  0
 65 62  1  0  0  0  0
M  END
