1
q = 0.0, confidence = 0.992

 14 15  0  0  0  0  0  0  0  0999 V2000
    0.3811    1.5603   -0.4286 P   0  0  0  0  0  0  0  0  0  0  0  0
    0.6966    2.9382   -1.2298 F   0  0  0  0  0  0  0  0  0  0  0  0
   -0.9576    1.0200   -1.3037 O   0  0  0  0  0  0  0  0  0  0  0  0
   -0.5460    2.1751    0.8350 O   0  0  0  0  0  0  0  0  0  0  0  0
   -2.1246    1.4824   -0.7199 C   0  0  0  0  0  0  0  0  0  0  0  0
   -3.4121    1.3024   -1.2177 C   0  0  0  0  0  0  0  0  0  0  0  0
   -3.5736    0.7739   -2.1666 H   0  0  0  0  0  0  0  0  0  0  0  0
   -4.4777    1.7982   -0.4416 C   0  0  0  0  0  0  0  0  0  0  0  0
   -5.5083    1.6670   -0.8019 H   0  0  0  0  0  0  0  0  0  0  0  0
   -4.2451    2.4470    0.7832 C   0  0  0  0  0  0  0  0  0  0  0  0
   -5.0954    2.8247    1.3696 H   0  0  0  0  0  0  0  0  0  0  0  0
   -2.9376    2.6257    1.2788 C   0  0  0  0  0  0  0  0  0  0  0  0
   -2.7367    3.1276    2.2351 H   0  0  0  0  0  0  0  0  0  0  0  0
   -1.8888    2.1328    0.5055 C   0  0  0  0  0  0  0  0  0  0  0  0
  1  4  1  0  0  0  0
  2  1  1  0  0  0  0
  3  5  1  0  0  0  0
  3  1  1  0  0  0  0
  5 14  1  0  0  0  0
  6  5  2  0  0  0  0
  6  8  1  0  0  0  0
  7  6  1  0  0  0  0
  8 10  2  0  0  0  0
  9  8  1  0  0  0  0
 10 12  1  0  0  0  0
 10 11  1  0  0  0  0
 12 13  1  0  0  0  0
 14  4  1  0  0  0  0
 14 12  2  0  0  0  0
M  END
