1
q = 0.0, confidence = 1.0

 24 26  0  0  0  0  0  0  0  0999 V2000
   -1.6549    0.1758   -0.1318 P   0  0  0  0  0  0  0  0  0  0  0  0
   -2.3824   -0.1916    1.3252 O   0  0  0  0  0  0  0  0  0  0  0  0
   -3.0026    0.5477   -1.0676 O   0  0  0  0  0  0  0  0  0  0  0  0
   -1.3734   -1.3911   -0.5882 O   0  0  0  0  0  0  0  0  0  0  0  0
   -4.1411   -0.2352   -0.9734 C   0  0  0  0  0  0  0  0  0  0  0  0
   -3.5399   -0.9555    1.3487 C   0  0  0  0  0  0  0  0  0  0  0  0
   -4.4112   -0.9778    0.2172 C   0  0  0  0  0  0  0  0  0  0  0  0
   -3.8372   -1.6629    2.5035 C   0  0  0  0  0  0  0  0  0  0  0  0
   -3.1396   -1.6147    3.3513 H   0  0  0  0  0  0  0  0  0  0  0  0
   -5.0153   -0.2586   -2.0508 C   0  0  0  0  0  0  0  0  0  0  0  0
   -4.7688    0.3298   -2.9458 H   0  0  0  0  0  0  0  0  0  0  0  0
   -5.0316   -2.4249    2.5675 C   0  0  0  0  0  0  0  0  0  0  0  0
   -5.2613   -2.9810    3.4887 H   0  0  0  0  0  0  0  0  0  0  0  0
   -5.6224   -1.7570    0.2902 C   0  0  0  0  0  0  0  0  0  0  0  0
   -6.5010   -1.7640   -0.8327 C   0  0  0  0  0  0  0  0  0  0  0  0
   -7.4249   -2.3589   -0.7768 H   0  0  0  0  0  0  0  0  0  0  0  0
   -6.2033   -1.0282   -1.9709 C   0  0  0  0  0  0  0  0  0  0  0  0
   -6.8924   -1.0372   -2.8286 H   0  0  0  0  0  0  0  0  0  0  0  0
   -5.9020   -2.4780    1.4885 C   0  0  0  0  0  0  0  0  0  0  0  0
   -6.8264   -3.0720    1.5440 H   0  0  0  0  0  0  0  0  0  0  0  0
   -0.9674   -1.6735   -1.9342 C   0  0  0  0  0  0  0  0  0  0  0  0
   -0.8749   -2.7735   -2.0077 H   0  0  0  0  0  0  0  0  0  0  0  0
    0.0145   -1.2123   -2.1611 H   0  0  0  0  0  0  0  0  0  0  0  0
   -1.7306   -1.3258   -2.6615 H   0  0  0  0  0  0  0  0  0  0  0  0
  1  2  1  0  0  0  0
  2  6  1  0  0  0  0
  3  5  1  0  0  0  0
  3  1  1  0  0  0  0
  4  1  1  0  0  0  0
  5  7  1  0  0  0  0
  6  8  1  0  0  0  0
  7 14  1  0  0  0  0
  7  6  2  0  0  0  0
  8 12  2  0  0  0  0
  8  9  1  0  0  0  0
 10 17  1  0  0  0  0
 10  5  2  0  0  0  0
 11 10  1  0  0  0  0
 12 13  1  0  0  0  0
 14 19  2  0  0  0  0
 15 16  1  0  0  0  0
 15 14  1  0  0  0  0
 17 15  2  0  0  0  0
 18 17  1  0  0  0  0
 19 20  1  0  0  0  0
 19 12  1  0  0  0  0
 21  4  1  0  0  0  0
 22 21  1  0  0  0  0
 23 21  1  0  0  0  0
 24 21  1  0  0  0  0
M  END
