1
q = 0.0, confidence = 0.996

 27 29  0  0  0  0  0  0  0  0999 V2000
    1.7519   -0.8633   -0.5066 P   0  0  0  0  0  0  0  0  0  0  0  0
    1.2937   -1.6902   -1.8266 F   0  0  0  0  0  0  0  0  0  0  0  0
    1.8411    0.5933   -1.2929 O   0  0  0  0  0  0  0  0  0  0  0  0
    3.3487   -1.3085   -0.4423 O   0  0  0  0  0  0  0  0  0  0  0  0
    1.8604    1.8286   -0.6603 C   0  0  0  0  0  0  0  0  0  0  0  0
    4.3301   -0.6609   -1.1915 C   0  0  0  0  0  0  0  0  0  0  0  0
    4.7532    0.6236   -0.7903 C   0  0  0  0  0  0  0  0  0  0  0  0
    0.7697    2.6813   -0.8880 C   0  0  0  0  0  0  0  0  0  0  0  0
   -0.0641    2.3117   -1.4993 H   0  0  0  0  0  0  0  0  0  0  0  0
    2.9659    2.2251    0.1271 C   0  0  0  0  0  0  0  0  0  0  0  0
    5.7634    1.2406   -1.5515 C   0  0  0  0  0  0  0  0  0  0  0  0
    6.1086    2.2450   -1.2594 H   0  0  0  0  0  0  0  0  0  0  0  0
    2.9278    3.5204    0.6787 C   0  0  0  0  0  0  0  0  0  0  0  0
    3.7749    3.8508    1.3001 H   0  0  0  0  0  0  0  0  0  0  0  0
    4.8818   -1.3154   -2.2997 C   0  0  0  0  0  0  0  0  0  0  0  0
    4.5061   -2.3128   -2.5680 H   0  0  0  0  0  0  0  0  0  0  0  0
    0.7639    3.9647   -0.3263 C   0  0  0  0  0  0  0  0  0  0  0  0
   -0.0896    4.6348   -0.5091 H   0  0  0  0  0  0  0  0  0  0  0  0
    4.1371    1.3006    0.4169 C   0  0  0  0  0  0  0  0  0  0  0  0
    4.9166    1.8937    0.9335 H   0  0  0  0  0  0  0  0  0  0  0  0
    3.8150    0.5212    1.1411 H   0  0  0  0  0  0  0  0  0  0  0  0
    1.8449    4.3845    0.4636 C   0  0  0  0  0  0  0  0  0  0  0  0
    1.8481    5.3883    0.9132 H   0  0  0  0  0  0  0  0  0  0  0  0
    5.8927   -0.6809   -3.0350 C   0  0  0  0  0  0  0  0  0  0  0  0
    6.3354   -1.1887   -3.9049 H   0  0  0  0  0  0  0  0  0  0  0  0
    6.3317    0.5999   -2.6622 C   0  0  0  0  0  0  0  0  0  0  0  0
    7.1235    1.1016   -3.2381 H   0  0  0  0  0  0  0  0  0  0  0  0
  1  4  1  0  0  0  0
  2  1  1  0  0  0  0
  3  5  1  0  0  0  0
  3  1  1  0  0  0  0
  5 10  1  0  0  0  0
  6  7  1  0  0  0  0
  6  4  1  0  0  0  0
  7 19  1  0  0  0  0
  8  5  2  0  0  0  0
  8 17  1  0  0  0  0
  9  8  1  0  0  0  0
 10 19  1  0  0  0  0
 10 13  2  0  0  0  0
 11 12  1  0  0  0  0
 11  7  2  0  0  0  0
 13 14  1  0  0  0  0
 15  6  2  0  0  0  0
 16 15  1  0  0  0  0
 17 22  2  0  0  0  0
 18 17  1  0  0  0  0
 19 20  1  0  0  0  0
 19 21  1  0  0  0  0
 22 13  1  0  0  0  0
 22 23  1  0  0  0  0
 24 26  2  0  0  0  0
 24 15  1  0  0  0  0
 25 24  1  0  0  0  0
 26 11  1  0  0  0  0
 27 26  1  0  0  0  0
M  END
