1
q = 0.0, confidence = 0.998

 24 26  0  0  0  0  0  0  0  0999 V2000
    2.0086   -0.7749   -0.7832 P   0  0  0  0  0  0  0  0  0  0  0  0
    2.3534   -1.4855   -2.1944 F   0  0  0  0  0  0  0  0  0  0  0  0
    3.3919   -1.0338    0.0859 O   0  0  0  0  0  0  0  0  0  0  0  0
    2.2749    0.7719   -1.3432 O   0  0  0  0  0  0  0  0  0  0  0  0
    4.6260   -0.4513   -0.1845 C   0  0  0  0  0  0  0  0  0  0  0  0
    5.6906   -1.3066   -0.4986 C   0  0  0  0  0  0  0  0  0  0  0  0
    5.4859   -2.3818   -0.5995 H   0  0  0  0  0  0  0  0  0  0  0  0
    6.9796   -0.7819   -0.6567 C   0  0  0  0  0  0  0  0  0  0  0  0
    7.8156   -1.4528   -0.9045 H   0  0  0  0  0  0  0  0  0  0  0  0
    7.1966    0.5964   -0.4966 C   0  0  0  0  0  0  0  0  0  0  0  0
    8.2051    1.0169   -0.6232 H   0  0  0  0  0  0  0  0  0  0  0  0
    6.1240    1.4416   -0.1879 C   0  0  0  0  0  0  0  0  0  0  0  0
    6.2888    2.5250   -0.0884 H   0  0  0  0  0  0  0  0  0  0  0  0
    4.8107    0.9438   -0.0293 C   0  0  0  0  0  0  0  0  0  0  0  0
    3.6912    1.8619    0.2895 C   0  0  0  0  0  0  0  0  0  0  0  0
    3.8396    2.9068    1.2281 C   0  0  0  0  0  0  0  0  0  0  0  0
    4.7873    2.9879    1.7812 H   0  0  0  0  0  0  0  0  0  0  0  0
    2.8017    3.8133    1.4792 C   0  0  0  0  0  0  0  0  0  0  0  0
    2.9393    4.6066    2.2285 H   0  0  0  0  0  0  0  0  0  0  0  0
    1.5900    3.7071    0.7774 C   0  0  0  0  0  0  0  0  0  0  0  0
    0.7748    4.4218    0.9665 H   0  0  0  0  0  0  0  0  0  0  0  0
    1.4133    2.6836   -0.1623 C   0  0  0  0  0  0  0  0  0  0  0  0
    0.4859    2.5763   -0.7388 H   0  0  0  0  0  0  0  0  0  0  0  0
    2.4507    1.7679   -0.3879 C   0  0  0  0  0  0  0  0  0  0  0  0
  1  3  1  0  0  0  0
  2  1  1  0  0  0  0
  4  1  1  0  0  0  0
  4 24  1  0  0  0  0
  5 14  1  0  0  0  0
  5  3  1  0  0  0  0
  6  5  2  0  0  0  0
  7  6  1  0  0  0  0
  8  6  1  0  0  0  0
  8 10  2  0  0  0  0
  9  8  1  0  0  0  0
 10 12  1  0  0  0  0
 11 10  1  0  0  0  0
 12 13  1  0  0  0  0
 12 14  2  0  0  0  0
 14 15  1  0  0  0  0
 15 16  1  0  0  0  0
 16 18  2  0  0  0  0
 16 17  1  0  0  0  0
 18 19  1  0  0  0  0
 20 21  1  0  0  0  0
 20 18  1  0  0  0  0
 22 20  2  0  0  0  0
 23 22  1  0  0  0  0
 24 22  1  0  0  0  0
 24 15  2  0  0  0  0
M  END
