1
q = 0.0, confidence = 0.984

 73 78  0  0  0  0  0  0  0  0999 V2000
    0.1455   -0.2009    0.0698 P   0  0  0  0  0  0  0  0  0  0  0  0
    1.1217   -1.2838    0.9234 N   0  0  0  0  0  0  0  0  0  0  0  0
    2.4025   -1.4085    1.0762 C   0  0  0  0  0  0  0  0  0  0  0  0
    2.8662   -2.5168    1.9631 C   0  0  0  0  0  0  0  0  0  0  0  0
    4.1500   -3.0910    1.8272 C   0  0  0  0  0  0  0  0  0  0  0  0
    4.8368   -2.7124    1.0564 H   0  0  0  0  0  0  0  0  0  0  0  0
    2.3808   -4.0895    3.7665 C   0  0  0  0  0  0  0  0  0  0  0  0
    1.6905   -4.4752    4.5321 H   0  0  0  0  0  0  0  0  0  0  0  0
    3.6601   -4.6563    3.6225 C   0  0  0  0  0  0  0  0  0  0  0  0
    3.9706   -5.4894    4.2716 H   0  0  0  0  0  0  0  0  0  0  0  0
    4.5398   -4.1581    2.6490 C   0  0  0  0  0  0  0  0  0  0  0  0
    5.5370   -4.6065    2.5248 H   0  0  0  0  0  0  0  0  0  0  0  0
    1.9847   -3.0334    2.9401 C   0  0  0  0  0  0  0  0  0  0  0  0
    0.9891   -2.5747    3.0314 H   0  0  0  0  0  0  0  0  0  0  0  0
    3.4444   -0.5516    0.4311 C   0  0  0  0  0  0  0  0  0  0  0  0
    4.5062   -0.0206    1.1965 C   0  0  0  0  0  0  0  0  0  0  0  0
    4.5604   -0.2401    2.2733 H   0  0  0  0  0  0  0  0  0  0  0  0
    5.4748    0.7967    0.5950 C   0  0  0  0  0  0  0  0  0  0  0  0
    6.2880    1.2193    1.2046 H   0  0  0  0  0  0  0  0  0  0  0  0
    5.4064    1.0719   -0.7802 C   0  0  0  0  0  0  0  0  0  0  0  0
    6.1678    1.7099   -1.2540 H   0  0  0  0  0  0  0  0  0  0  0  0
    4.3622    0.5330   -1.5505 C   0  0  0  0  0  0  0  0  0  0  0  0
    4.3032    0.7433   -2.6287 H   0  0  0  0  0  0  0  0  0  0  0  0
    3.3825   -0.2658   -0.9490 C   0  0  0  0  0  0  0  0  0  0  0  0
    2.5591   -0.6758   -1.5554 H   0  0  0  0  0  0  0  0  0  0  0  0
    0.9030    1.3079    0.0700 N   0  0  0  0  0  0  0  0  0  0  0  0
    0.4480    2.5209    0.0948 C   0  0  0  0  0  0  0  0  0  0  0  0
   -1.0048    2.8807    0.1142 C   0  0  0  0  0  0  0  0  0  0  0  0
   -1.5024    3.8168    1.0478 C   0  0  0  0  0  0  0  0  0  0  0  0
   -0.8091    4.2957    1.7554 H   0  0  0  0  0  0  0  0  0  0  0  0
   -2.8716    4.1147    1.0931 C   0  0  0  0  0  0  0  0  0  0  0  0
   -3.2514    4.8267    1.8414 H   0  0  0  0  0  0  0  0  0  0  0  0
   -3.7564    3.5028    0.1914 C   0  0  0  0  0  0  0  0  0  0  0  0
   -4.8308    3.7377    0.2274 H   0  0  0  0  0  0  0  0  0  0  0  0
   -3.2656    2.5889   -0.7554 C   0  0  0  0  0  0  0  0  0  0  0  0
   -3.9493    2.1158   -1.4765 H   0  0  0  0  0  0  0  0  0  0  0  0
   -1.9014    2.2730   -0.7900 C   0  0  0  0  0  0  0  0  0  0  0  0
   -1.5252    1.5469   -1.5298 H   0  0  0  0  0  0  0  0  0  0  0  0
    1.4508    3.6250    0.0815 C   0  0  0  0  0  0  0  0  0  0  0  0
    2.7916    3.3368    0.4250 C   0  0  0  0  0  0  0  0  0  0  0  0
    3.0453    2.3085    0.7177 H   0  0  0  0  0  0  0  0  0  0  0  0
    3.7658    4.3378    0.3858 C   0  0  0  0  0  0  0  0  0  0  0  0
    4.8041    4.0957    0.6593 H   0  0  0  0  0  0  0  0  0  0  0  0
    3.4214    5.6442   -0.0053 C   0  0  0  0  0  0  0  0  0  0  0  0
    4.1892    6.4324   -0.0376 H   0  0  0  0  0  0  0  0  0  0  0  0
    2.0958    5.9396   -0.3604 C   0  0  0  0  0  0  0  0  0  0  0  0
    1.8239    6.9563   -0.6821 H   0  0  0  0  0  0  0  0  0  0  0  0
    1.1145    4.9390   -0.3162 C   0  0  0  0  0  0  0  0  0  0  0  0
    0.0826    5.1716   -0.6161 H   0  0  0  0  0  0  0  0  0  0  0  0
   -1.1175   -0.0326    1.2188 N   0  0  0  0  0  0  0  0  0  0  0  0
   -2.3009   -0.5634    1.1383 C   0  0  0  0  0  0  0  0  0  0  0  0
   -3.3312   -0.1110    2.1132 C   0  0  0  0  0  0  0  0  0  0  0  0
   -3.0921    1.0517    2.8804 C   0  0  0  0  0  0  0  0  0  0  0  0
   -2.1454    1.5862    2.7210 H   0  0  0  0  0  0  0  0  0  0  0  0
   -4.0449    1.5046    3.7967 C   0  0  0  0  0  0  0  0  0  0  0  0
   -3.8533    2.4188    4.3791 H   0  0  0  0  0  0  0  0  0  0  0  0
   -5.2490    0.7981    3.9707 C   0  0  0  0  0  0  0  0  0  0  0  0
   -5.9993    1.1555    4.6927 H   0  0  0  0  0  0  0  0  0  0  0  0
   -5.4909   -0.3660    3.2246 C   0  0  0  0  0  0  0  0  0  0  0  0
   -6.4268   -0.9276    3.3655 H   0  0  0  0  0  0  0  0  0  0  0  0
   -4.5394   -0.8196    2.3000 C   0  0  0  0  0  0  0  0  0  0  0  0
   -4.7264   -1.7370    1.7236 H   0  0  0  0  0  0  0  0  0  0  0  0
   -2.6824   -1.5888    0.1224 C   0  0  0  0  0  0  0  0  0  0  0  0
   -3.7485   -1.3534   -0.7724 C   0  0  0  0  0  0  0  0  0  0  0  0
   -4.3323   -0.4249   -0.6842 H   0  0  0  0  0  0  0  0  0  0  0  0
   -4.0300   -2.2750   -1.7896 C   0  0  0  0  0  0  0  0  0  0  0  0
   -4.8354   -2.0660   -2.5093 H   0  0  0  0  0  0  0  0  0  0  0  0
   -3.2782   -3.4556   -1.8998 C   0  0  0  0  0  0  0  0  0  0  0  0
   -3.4947   -4.1719   -2.7058 H   0  0  0  0  0  0  0  0  0  0  0  0
   -2.2371   -3.7106   -0.9946 C   0  0  0  0  0  0  0  0  0  0  0  0
   -1.6405   -4.6304   -1.0837 H   0  0  0  0  0  0  0  0  0  0  0  0
   -1.9254   -2.7756    0.0021 C   0  0  0  0  0  0  0  0  0  0  0  0
   -1.0840   -2.9504    0.6894 H   0  0  0  0  0  0  0  0  0  0  0  0
  1 26  1  0  0  0  0
  1  2  1  0  0  0  0
  1 50  1  0  0  0  0
  2  3  2  0  0  0  0
  3  4  1  0  0  0  0
  4 13  1  0  0  0  0
  5  4  2  0  0  0  0
  5 11  1  0  0  0  0
  6  5  1  0  0  0  0
  7  8  1  0  0  0  0
  9  7  1  0  0  0  0
  9 10  1  0  0  0  0
 11  9  2  0  0  0  0
 12 11  1  0  0  0  0
 13 14  1  0  0  0  0
 13  7  2  0  0  0  0
 15  3  1  0  0  0  0
 15 16  1  0  0  0  0
 16 17  1  0  0  0  0
 18 16  2  0  0  0  0
 18 19  1  0  0  0  0
 20 18  1  0  0  0  0
 21 20  1  0  0  0  0
 22 24  1  0  0  0  0
 22 20  2  0  0  0  0
 23 22  1  0  0  0  0
 24 15  2  0  0  0  0
 25 24  1  0  0  0  0
 26 27  2  0  0  0  0
 27 28  1  0  0  0  0
 28 29  1  0  0  0  0
 29 31  2  0  0  0  0
 29 30  1  0  0  0  0
 31 32  1  0  0  0  0
 33 34  1  0  0  0  0
 33 31  1  0  0  0  0
 35 33  2  0  0  0  0
 36 35  1  0  0  0  0
 37 35  1  0  0  0  0
 37 28  2  0  0  0  0
 38 37  1  0  0  0  0
 39 27  1  0  0  0  0
 39 40  1  0  0  0  0
 40 41  1  0  0  0  0
 42 40  2  0  0  0  0
 42 43  1  0  0  0  0
 44 42  1  0  0  0  0
 45 44  1  0  0  0  0
 46 48  1  0  0  0  0
 46 44  2  0  0  0  0
 47 46  1  0  0  0  0
 48 39  2  0  0  0  0
 49 48  1  0  0  0  0
 51 50  2  0  0  0  0
 51 52  1  0  0  0  0
 52 61  2  0  0  0  0
 52 53  1  0  0  0  0
 53 55  2  0  0  0  0
 54 53  1  0  0  0  0
 55 57  1  0  0  0  0
 55 56  1  0  0  0  0
 57 58  1  0  0  0  0
 59 60  1  0  0  0  0
 59 57  2  0  0  0  0
 61 59  1  0  0  0  0
 62 61  1  0  0  0  0
 63 51  1  0  0  0  0
 64 65  1  0  0  0  0
 64 63  2  0  0  0  0
 66 64  1  0  0  0  0
 67 66  1  0  0  0  0
 68 66  2  0  0  0  0
 68 70  1  0  0  0  0
 69 68  1  0  0  0  0
 70 72  2  0  0  0  0
 71 70  1  0  0  0  0
 72 63  1  0  0  0  0
 72 73  1  0  0  0  0
M  END
