1
q = 0.0, confidence = 0.998

 20 20  0  0  0  0  0  0  0  0999 V2000
   -1.2504    1.9488   -0.2080 P   0  0  0  0  0  0  0  0  0  0  0  0
   -1.6772    3.1388    1.1246 C   0  0  0  0  0  0  0  0  0  0  0  0
   -1.3342    2.7692    2.1081 H   0  0  0  0  0  0  0  0  0  0  0  0
   -2.7825    3.2053    1.1450 H   0  0  0  0  0  0  0  0  0  0  0  0
   -1.2540    4.1438    0.9271 H   0  0  0  0  0  0  0  0  0  0  0  0
   -1.7085    2.8602   -1.7351 C   0  0  0  0  0  0  0  0  0  0  0  0
   -2.8083    2.9691   -1.7575 H   0  0  0  0  0  0  0  0  0  0  0  0
   -1.4150    2.2569   -2.6138 H   0  0  0  0  0  0  0  0  0  0  0  0
   -1.1879    3.8385   -1.7474 H   0  0  0  0  0  0  0  0  0  0  0  0
    0.5897    1.9492   -0.3340 C   0  0  0  0  0  0  0  0  0  0  0  0
    1.4204    2.7364    0.4861 C   0  0  0  0  0  0  0  0  0  0  0  0
    1.0230    3.4236    1.2454 H   0  0  0  0  0  0  0  0  0  0  0  0
    2.8110    2.6451    0.3254 C   0  0  0  0  0  0  0  0  0  0  0  0
    3.6040    3.3824    1.1194 F   0  0  0  0  0  0  0  0  0  0  0  0
    3.3996    1.8134   -0.6323 C   0  0  0  0  0  0  0  0  0  0  0  0
    4.4900    1.7406   -0.7326 H   0  0  0  0  0  0  0  0  0  0  0  0
    2.5440    1.0564   -1.4427 C   0  0  0  0  0  0  0  0  0  0  0  0
    3.0864    0.2436   -2.3624 F   0  0  0  0  0  0  0  0  0  0  0  0
    1.1530    1.0990   -1.3071 C   0  0  0  0  0  0  0  0  0  0  0  0
    0.5289    0.4457   -1.9349 H   0  0  0  0  0  0  0  0  0  0  0  0
  1  2  1  0  0  0  0
  2  4  1  0  0  0  0
  2  3  1  0  0  0  0
  5  2  1  0  0  0  0
  6  1  1  0  0  0  0
  7  6  1  0  0  0  0
  8  6  1  0  0  0  0
  9  6  1  0  0  0  0
 10  1  1  0  0  0  0
 10 11  1  0  0  0  0
 11 12  1  0  0  0  0
 13 11  2  0  0  0  0
 13 14  1  0  0  0  0
 15 13  1  0  0  0  0
 16 15  1  0  0  0  0
 17 19  1  0  0  0  0
 17 15  2  0  0  0  0
 18 17  1  0  0  0  0
 19 10  2  0  0  0  0
 20 19  1  0  0  0  0
M  END
