1
q = 0.0, confidence = 0.998

 45 48  0  0  1  0  0  0  0  0999 V2000
   -0.4430    0.5077    0.0572 P   0  0  0  0  0  0  0  0  0  0  0  0
    0.6244   -2.1021    1.2878 S   0  0  0  0  0  0  0  0  0  0  0  0
    2.2732   -0.2672    0.7391 N   0  0  0  0  0  0  0  0  0  0  0  0
    0.9331   -0.5081    0.7446 C   0  0  1  0  0  3  0  0  0  0  0  0
    3.0885   -1.3530    1.1692 C   0  0  0  0  0  0  0  0  0  0  0  0
    2.2817   -2.4410    1.5227 C   0  0  0  0  0  0  0  0  0  0  0  0
    2.9087    0.9380    0.2658 C   0  0  0  0  0  0  0  0  0  0  0  0
    3.7387    0.8444   -0.8639 C   0  0  0  0  0  0  0  0  0  0  0  0
    4.3703    2.0043   -1.3282 C   0  0  0  0  0  0  0  0  0  0  0  0
    4.1904    3.2289   -0.6632 C   0  0  0  0  0  0  0  0  0  0  0  0
    3.3850    3.2960    0.4836 C   0  0  0  0  0  0  0  0  0  0  0  0
    2.7426    2.1441    0.9609 C   0  0  0  0  0  0  0  0  0  0  0  0
   -0.6106    1.8960    1.2480 C   0  0  0  0  0  0  0  0  0  0  0  0
   -1.2468    3.0883    0.8454 C   0  0  0  0  0  0  0  0  0  0  0  0
   -1.4989    4.0998    1.7839 C   0  0  0  0  0  0  0  0  0  0  0  0
   -1.1407    3.9227    3.1293 C   0  0  0  0  0  0  0  0  0  0  0  0
   -0.5388    2.7223    3.5392 C   0  0  0  0  0  0  0  0  0  0  0  0
   -0.2765    1.7100    2.6050 C   0  0  0  0  0  0  0  0  0  0  0  0
    0.3428    1.1408   -1.4841 C   0  0  0  0  0  0  0  0  0  0  0  0
    0.7626    2.4700   -1.6748 C   0  0  0  0  0  0  0  0  0  0  0  0
    1.3642    2.8431   -2.8856 C   0  0  0  0  0  0  0  0  0  0  0  0
    1.5600    1.8967   -3.9025 C   0  0  0  0  0  0  0  0  0  0  0  0
    1.1481    0.5680   -3.7111 C   0  0  0  0  0  0  0  0  0  0  0  0
    0.5329    0.1908   -2.5106 C   0  0  0  0  0  0  0  0  0  0  0  0
    5.2130   -2.3347    0.3951 B   0  0  0  0  0  0  0  0  0  0  0  0
    4.3569   -1.2153    1.1705 O   0  0  0  0  0  0  0  0  0  0  0  0
    4.8712   -3.5557    0.9621 F   0  0  0  0  0  0  0  0  0  0  0  0
    6.5164   -1.9696    0.5749 F   0  0  0  0  0  0  0  0  0  0  0  0
    4.7665   -2.2308   -0.9263 F   0  0  0  0  0  0  0  0  0  0  0  0
    2.6559   -3.4088    1.8712 H   0  0  0  0  0  0  0  0  0  0  0  0
    3.9041   -0.1314   -1.3431 H   0  0  0  0  0  0  0  0  0  0  0  0
    5.0193    1.9444   -2.2139 H   0  0  0  0  0  0  0  0  0  0  0  0
    4.6959    4.1338   -1.0327 H   0  0  0  0  0  0  0  0  0  0  0  0
    3.2594    4.2474    1.0214 H   0  0  0  0  0  0  0  0  0  0  0  0
    2.1238    2.1809    1.8663 H   0  0  0  0  0  0  0  0  0  0  0  0
   -1.5665    3.2235   -0.1986 H   0  0  0  0  0  0  0  0  0  0  0  0
   -1.9912    5.0289    1.4601 H   0  0  0  0  0  0  0  0  0  0  0  0
   -1.3441    4.7165    3.8634 H   0  0  0  0  0  0  0  0  0  0  0  0
   -0.2727    2.5687    4.5958 H   0  0  0  0  0  0  0  0  0  0  0  0
    0.1852    0.7670    2.9364 H   0  0  0  0  0  0  0  0  0  0  0  0
    0.6533    3.2109   -0.8720 H   0  0  0  0  0  0  0  0  0  0  0  0
    1.6960    3.8826   -3.0253 H   0  0  0  0  0  0  0  0  0  0  0  0
    2.0386    2.1937   -4.8476 H   0  0  0  0  0  0  0  0  0  0  0  0
    1.3019   -0.1810   -4.5019 H   0  0  0  0  0  0  0  0  0  0  0  0
    0.2036   -0.8501   -2.3677 H   0  0  0  0  0  0  0  0  0  0  0  0
  1 13  1  0  0  0  0
  2  6  1  0  0  0  0
  3  4  1  0  0  0  0
  3  5  1  0  0  0  0
  4  1  1  6  0  0  0
  4  2  1  0  0  0  0
  5 26  1  0  0  0  0
  5  6  2  0  0  0  0
  6 30  1  0  0  0  0
  7  3  1  0  0  0  0
  7 12  1  0  0  0  0
  8  7  2  0  0  0  0
  9  8  1  0  0  0  0
  9 10  2  0  0  0  0
 10 11  1  0  0  0  0
 11 12  2  0  0  0  0
 11 34  1  0  0  0  0
 12 35  1  0  0  0  0
 13 18  1  0  0  0  0
 14 13  2  0  0  0  0
 14 15  1  0  0  0  0
 15 16  2  0  0  0  0
 16 17  1  0  0  0  0
 16 38  1  0  0  0  0
 17 39  1  0  0  0  0
 18 40  1  0  0  0  0
 18 17  2  0  0  0  0
 19  1  1  0  0  0  0
 20 19  1  0  0  0  0
 20 41  1  0  0  0  0
 21 20  2  0  0  0  0
 22 23  2  0  0  0  0
 22 21  1  0  0  0  0
 23 24  1  0  0  0  0
 24 45  1  0  0  0  0
 24 19  2  0  0  0  0
 25 28  1  0  0  0  0
 25 27  1  0  0  0  0
 25 26  1  0  0  0  0
 29 25  1  0  0  0  0
 31  8  1  0  0  0  0
 32  9  1  0  0  0  0
 33 10  1  0  0  0  0
 36 14  1  0  0  0  0
 37 15  1  0  0  0  0
 42 21  1  0  0  0  0
 43 22  1  0  0  0  0
 44 23  1  0  0  0  0
M  END
