1
q = 0.0, confidence = 0.994

 19 20  0  0  0  0  0  0  0  0999 V2000
   -0.2649   -1.8509   -1.4398 P   0  0  0  0  0  0  0  0  0  0  0  0
   -1.9936   -1.9926   -1.7239 N   0  0  0  0  0  0  0  0  0  0  0  0
   -0.2412   -0.4856   -2.5433 N   0  0  0  0  0  0  0  0  0  0  0  0
   -1.5145   -0.0232   -2.8808 C   0  0  0  0  0  0  0  0  0  0  0  0
   -2.5376   -0.9025   -2.4139 C   0  0  0  0  0  0  0  0  0  0  0  0
   -3.8888   -0.5879   -2.6081 C   0  0  0  0  0  0  0  0  0  0  0  0
   -4.2231    0.6096   -3.2784 C   0  0  0  0  0  0  0  0  0  0  0  0
   -3.2187    1.4742   -3.7348 C   0  0  0  0  0  0  0  0  0  0  0  0
   -1.8557    1.1658   -3.5369 C   0  0  0  0  0  0  0  0  0  0  0  0
    0.4139   -3.2262   -2.4551 C   0  0  0  0  0  0  0  0  0  0  0  0
   -2.5742   -2.5229   -1.0726 H   0  0  0  0  0  0  0  0  0  0  0  0
    0.5486    0.1732   -2.4801 H   0  0  0  0  0  0  0  0  0  0  0  0
   -4.6732   -1.2614   -2.2319 H   0  0  0  0  0  0  0  0  0  0  0  0
   -5.2820    0.8615   -3.4347 H   0  0  0  0  0  0  0  0  0  0  0  0
   -3.4891    2.4084   -4.2483 H   0  0  0  0  0  0  0  0  0  0  0  0
   -1.0665    1.8509   -3.8799 H   0  0  0  0  0  0  0  0  0  0  0  0
   -0.0443   -3.2292   -3.4620 H   0  0  0  0  0  0  0  0  0  0  0  0
    1.5140   -3.1099   -2.5280 H   0  0  0  0  0  0  0  0  0  0  0  0
    0.2086   -4.1807   -1.9293 H   0  0  0  0  0  0  0  0  0  0  0  0
  2  1  1  0  0  0  0
  2 11  1  0  0  0  0
  3 12  1  0  0  0  0
  3  1  1  0  0  0  0
  4  3  1  0  0  0  0
  4  5  1  0  0  0  0
  5  2  1  0  0  0  0
  6  5  2  0  0  0  0
  6 13  1  0  0  0  0
  7  6  1  0  0  0  0
  8  9  1  0  0  0  0
  8  7  2  0  0  0  0
  9  4  2  0  0  0  0
 10 19  1  0  0  0  0
 10  1  1  0  0  0  0
 14  7  1  0  0  0  0
 15  8  1  0  0  0  0
 16  9  1  0  0  0  0
 17 10  1  0  0  0  0
 18 10  1  0  0  0  0
M  END
