1
q = 0.0, confidence = 0.998

 56 60  0  0  0  0  0  0  0  0999 V2000
    2.2107    0.4260    0.1119 P   0  0  0  0  0  0  0  0  0  0  0  0
   -0.5872    0.3661    1.8167 N   0  0  0  0  0  0  0  0  0  0  0  0
   -4.1314   -0.4153    1.8781 N   0  0  0  0  0  0  0  0  0  0  0  0
   -0.2189    1.7287   -1.2836 N   0  0  0  0  0  0  0  0  0  0  0  0
   -3.8412    1.8049   -1.3174 N   0  0  0  0  0  0  0  0  0  0  0  0
    1.7175    1.1278    1.7683 C   0  0  0  0  0  0  0  0  0  0  0  0
    2.0057    0.3389    2.4933 H   0  0  0  0  0  0  0  0  0  0  0  0
    2.3285    2.0293    1.9734 H   0  0  0  0  0  0  0  0  0  0  0  0
   -1.6159    2.9486    2.1287 C   0  0  0  0  0  0  0  0  0  0  0  0
   -2.0174    3.9668    2.2434 H   0  0  0  0  0  0  0  0  0  0  0  0
    0.2387    1.4209    1.8870 C   0  0  0  0  0  0  0  0  0  0  0  0
   -0.2312    2.7382    2.0502 C   0  0  0  0  0  0  0  0  0  0  0  0
    0.4746    3.5801    2.1010 H   0  0  0  0  0  0  0  0  0  0  0  0
   -2.4776    1.8524    2.0464 C   0  0  0  0  0  0  0  0  0  0  0  0
   -3.5708    1.9462    2.0814 H   0  0  0  0  0  0  0  0  0  0  0  0
   -1.9180    0.5660    1.8882 C   0  0  0  0  0  0  0  0  0  0  0  0
   -2.8023   -0.6266    1.7645 C   0  0  0  0  0  0  0  0  0  0  0  0
   -2.2550   -1.8991    1.5032 C   0  0  0  0  0  0  0  0  0  0  0  0
   -1.1685   -2.0109    1.4009 H   0  0  0  0  0  0  0  0  0  0  0  0
   -3.1224   -2.9824    1.3318 C   0  0  0  0  0  0  0  0  0  0  0  0
   -2.7138   -3.9739    1.0858 H   0  0  0  0  0  0  0  0  0  0  0  0
   -4.5032   -2.7669    1.4502 C   0  0  0  0  0  0  0  0  0  0  0  0
   -5.2259   -3.5871    1.3242 H   0  0  0  0  0  0  0  0  0  0  0  0
   -4.9501   -1.4627    1.7288 C   0  0  0  0  0  0  0  0  0  0  0  0
   -6.0312   -1.2564    1.8288 H   0  0  0  0  0  0  0  0  0  0  0  0
    2.1909    1.8814   -1.0545 C   0  0  0  0  0  0  0  0  0  0  0  0
    2.9742    2.6023   -0.7469 H   0  0  0  0  0  0  0  0  0  0  0  0
    2.4917    1.4603   -2.0377 H   0  0  0  0  0  0  0  0  0  0  0  0
    0.8357    2.5463   -1.1495 C   0  0  0  0  0  0  0  0  0  0  0  0
    0.6986    3.9468   -1.0841 C   0  0  0  0  0  0  0  0  0  0  0  0
    1.5845    4.5913   -0.9806 H   0  0  0  0  0  0  0  0  0  0  0  0
   -0.5927    4.4934   -1.1558 C   0  0  0  0  0  0  0  0  0  0  0  0
   -0.7363    5.5841   -1.1119 H   0  0  0  0  0  0  0  0  0  0  0  0
   -1.6922    3.6387   -1.2671 C   0  0  0  0  0  0  0  0  0  0  0  0
   -2.7302    3.9962   -1.3026 H   0  0  0  0  0  0  0  0  0  0  0  0
   -1.4610    2.2461   -1.3294 C   0  0  0  0  0  0  0  0  0  0  0  0
   -2.5974    1.2892   -1.4276 C   0  0  0  0  0  0  0  0  0  0  0  0
   -2.3574   -0.0871   -1.6063 C   0  0  0  0  0  0  0  0  0  0  0  0
   -1.3275   -0.4616   -1.6749 H   0  0  0  0  0  0  0  0  0  0  0  0
   -3.4483   -0.9605   -1.6669 C   0  0  0  0  0  0  0  0  0  0  0  0
   -3.2687   -2.0393   -1.7858 H   0  0  0  0  0  0  0  0  0  0  0  0
   -4.7400   -0.4296   -1.5501 C   0  0  0  0  0  0  0  0  0  0  0  0
   -5.6303   -1.0749   -1.5796 H   0  0  0  0  0  0  0  0  0  0  0  0
   -4.8767    0.9600   -1.3753 C   0  0  0  0  0  0  0  0  0  0  0  0
   -5.8809    1.4089   -1.2715 H   0  0  0  0  0  0  0  0  0  0  0  0
    4.0063    0.0936    0.3124 C   0  0  0  0  0  0  0  0  0  0  0  0
    4.5035   -1.1901    0.0110 C   0  0  0  0  0  0  0  0  0  0  0  0
    3.8041   -1.9666   -0.3394 H   0  0  0  0  0  0  0  0  0  0  0  0
    5.8707   -1.4703    0.1584 C   0  0  0  0  0  0  0  0  0  0  0  0
    6.2493   -2.4753   -0.0808 H   0  0  0  0  0  0  0  0  0  0  0  0
    6.7492   -0.4739    0.6103 C   0  0  0  0  0  0  0  0  0  0  0  0
    7.8210   -0.6951    0.7270 H   0  0  0  0  0  0  0  0  0  0  0  0
    6.2601    0.8074    0.9151 C   0  0  0  0  0  0  0  0  0  0  0  0
    6.9463    1.5906    1.2714 H   0  0  0  0  0  0  0  0  0  0  0  0
    4.8955    1.0915    0.7663 C   0  0  0  0  0  0  0  0  0  0  0  0
    4.5276    2.1011    1.0098 H   0  0  0  0  0  0  0  0  0  0  0  0
  1 46  1  0  0  0  0
  1  6  1  0  0  0  0
  2 11  2  0  0  0  0
  2 16  1  0  0  0  0
  4 29  1  0  0  0  0
  6 11  1  0  0  0  0
  6  8  1  0  0  0  0
  6  7  1  0  0  0  0
  9 10  1  0  0  0  0
 11 12  1  0  0  0  0
 12 13  1  0  0  0  0
 12  9  2  0  0  0  0
 14 15  1  0  0  0  0
 14  9  1  0  0  0  0
 16 14  2  0  0  0  0
 17  3  1  0  0  0  0
 17 16  1  0  0  0  0
 18 17  2  0  0  0  0
 19 18  1  0  0  0  0
 20 22  2  0  0  0  0
 20 18  1  0  0  0  0
 21 20  1  0  0  0  0
 22 24  1  0  0  0  0
 23 22  1  0  0  0  0
 24 25  1  0  0  0  0
 24  3  2  0  0  0  0
 26 27  1  0  0  0  0
 26  1  1  0  0  0  0
 28 26  1  0  0  0  0
 29 30  2  0  0  0  0
 29 26  1  0  0  0  0
 30 31  1  0  0  0  0
 32 33  1  0  0  0  0
 32 30  1  0  0  0  0
 34 32  2  0  0  0  0
 35 34  1  0  0  0  0
 36  4  2  0  0  0  0
 36 34  1  0  0  0  0
 37 36  1  0  0  0  0
 37  5  2  0  0  0  0
 38 37  1  0  0  0  0
 39 38  1  0  0  0  0
 40 38  2  0  0  0  0
 40 42  1  0  0  0  0
 41 40  1  0  0  0  0
 42 44  2  0  0  0  0
 43 42  1  0  0  0  0
 44  5  1  0  0  0  0
 44 45  1  0  0  0  0
 46 55  1  0  0  0  0
 47 49  1  0  0  0  0
 47 46  2  0  0  0  0
 48 47  1  0  0  0  0
 49 51  2  0  0  0  0
 50 49  1  0  0  0  0
 51 52  1  0  0  0  0
 51 53  1  0  0  0  0
 53 54  1  0  0  0  0
 55 53  2  0  0  0  0
 55 56  1  0  0  0  0
M  END
