1
q = 0.0, confidence = 0.966

 34 33  0  0  0  0  0  0  0  0999 V2000
   -2.2607    0.0255    0.3712 P   0  0  0  0  0  0  0  0  0  0  0  0
   -3.0460   -1.1030   -0.5500 O   0  0  0  0  0  0  0  0  0  0  0  0
   -3.0360    1.3716   -0.1996 O   0  0  0  0  0  0  0  0  0  0  0  0
   -3.0045   -0.0429    1.8238 O   0  0  0  0  0  0  0  0  0  0  0  0
   -2.3951   -2.2397   -1.0985 C   0  0  0  0  0  0  0  0  0  0  0  0
   -1.3151   -2.0438   -1.2769 H   0  0  0  0  0  0  0  0  0  0  0  0
   -2.4816   -3.4303   -0.1251 C   0  0  0  0  0  0  0  0  0  0  0  0
   -3.0403   -2.4846   -2.4743 C   0  0  0  0  0  0  0  0  0  0  0  0
   -2.0316   -3.0290    1.0896 F   0  0  0  0  0  0  0  0  0  0  0  0
   -3.7317   -3.8931    0.0251 F   0  0  0  0  0  0  0  0  0  0  0  0
   -1.6983   -4.4347   -0.5537 F   0  0  0  0  0  0  0  0  0  0  0  0
   -2.8209   -1.4154   -3.2689 F   0  0  0  0  0  0  0  0  0  0  0  0
   -4.3658   -2.6720   -2.3841 F   0  0  0  0  0  0  0  0  0  0  0  0
   -2.4877   -3.5657   -3.0556 F   0  0  0  0  0  0  0  0  0  0  0  0
   -2.9075    1.7996   -1.5481 C   0  0  0  0  0  0  0  0  0  0  0  0
   -2.2976    1.0972   -2.1557 H   0  0  0  0  0  0  0  0  0  0  0  0
   -2.1764    3.1587   -1.5614 C   0  0  0  0  0  0  0  0  0  0  0  0
   -4.3261    1.8379   -2.1497 C   0  0  0  0  0  0  0  0  0  0  0  0
   -1.0290    3.0607   -0.8470 F   0  0  0  0  0  0  0  0  0  0  0  0
   -2.9159    4.1376   -1.0178 F   0  0  0  0  0  0  0  0  0  0  0  0
   -1.8588    3.5018   -2.8208 F   0  0  0  0  0  0  0  0  0  0  0  0
   -5.1610    2.5768   -1.3958 F   0  0  0  0  0  0  0  0  0  0  0  0
   -4.2971    2.3471   -3.3936 F   0  0  0  0  0  0  0  0  0  0  0  0
   -4.8235    0.5866   -2.2074 F   0  0  0  0  0  0  0  0  0  0  0  0
   -4.3801    0.2608    2.0345 C   0  0  0  0  0  0  0  0  0  0  0  0
   -4.8865    0.5707    1.0978 H   0  0  0  0  0  0  0  0  0  0  0  0
   -5.0740   -1.0165    2.5469 C   0  0  0  0  0  0  0  0  0  0  0  0
   -4.4471    1.4618    3.0022 C   0  0  0  0  0  0  0  0  0  0  0  0
   -5.0520   -1.9524    1.5772 F   0  0  0  0  0  0  0  0  0  0  0  0
   -4.4627   -1.5163    3.6300 F   0  0  0  0  0  0  0  0  0  0  0  0
   -6.3587   -0.7532    2.8540 F   0  0  0  0  0  0  0  0  0  0  0  0
   -3.9891    1.1451    4.2243 F   0  0  0  0  0  0  0  0  0  0  0  0
   -5.7171    1.8927    3.1142 F   0  0  0  0  0  0  0  0  0  0  0  0
   -3.6960    2.4676    2.5156 F   0  0  0  0  0  0  0  0  0  0  0  0
  1  4  1  0  0  0  0
  2  1  1  0  0  0  0
  3  1  1  0  0  0  0
  4 25  1  0  0  0  0
  5  2  1  0  0  0  0
  5  7  1  0  0  0  0
  6  5  1  0  0  0  0
  7 10  1  0  0  0  0
  7  9  1  0  0  0  0
  8 13  1  0  0  0  0
  8  5  1  0  0  0  0
 11  7  1  0  0  0  0
 12  8  1  0  0  0  0
 14  8  1  0  0  0  0
 15  3  1  0  0  0  0
 16 15  1  0  0  0  0
 17 15  1  0  0  0  0
 17 20  1  0  0  0  0
 17 19  1  0  0  0  0
 18 15  1  0  0  0  0
 18 22  1  0  0  0  0
 21 17  1  0  0  0  0
 23 18  1  0  0  0  0
 24 18  1  0  0  0  0
 25 27  1  0  0  0  0
 25 28  1  0  0  0  0
 26 25  1  0  0  0  0
 27 31  1  0  0  0  0
 27 30  1  0  0  0  0
 28 33  1  0  0  0  0
 28 32  1  0  0  0  0
 29 27  1  0  0  0  0
 34 28  1  0  0  0  0
M  END
