32
q = 0.0, confidence = 1.0

 32 33  0  0  0  0  0  0  0  0999 V2000
    1.2607   -0.9756   -2.0462 C   0  0  0  0  0  0  0  0  0  0  0  0
    0.9181   -0.6903   -3.0506 H   0  0  0  0  0  0  0  0  0  0  0  0
    1.9165   -2.1353   -1.7392 C   0  0  0  0  0  0  0  0  0  0  0  0
    2.2735   -3.2075   -2.7255 C   0  0  0  0  0  0  0  0  0  0  0  0
    1.9763   -2.9261   -3.7526 H   0  0  0  0  0  0  0  0  0  0  0  0
    1.7703   -4.1644   -2.4718 H   0  0  0  0  0  0  0  0  0  0  0  0
    3.3641   -3.4146   -2.7216 H   0  0  0  0  0  0  0  0  0  0  0  0
    2.2415   -2.2764   -0.2957 C   0  0  0  0  0  0  0  0  0  0  0  0
    2.9483   -3.4919    0.2159 C   0  0  0  0  0  0  0  0  0  0  0  0
    3.9227   -3.6211   -0.3011 H   0  0  0  0  0  0  0  0  0  0  0  0
    2.3563   -4.4044   -0.0106 H   0  0  0  0  0  0  0  0  0  0  0  0
    3.1180   -3.4257    1.3042 H   0  0  0  0  0  0  0  0  0  0  0  0
    1.8114   -1.2150    0.4721 C   0  0  0  0  0  0  0  0  0  0  0  0
    1.9796   -1.0314    1.9254 C   0  0  0  0  0  0  0  0  0  0  0  0
    1.3918    0.4063    3.7171 C   0  0  0  0  0  0  0  0  0  0  0  0
    0.8973   -0.4047    4.2890 H   0  0  0  0  0  0  0  0  0  0  0  0
    0.8434    1.3565    3.8399 H   0  0  0  0  0  0  0  0  0  0  0  0
    2.4359    0.5042    4.0760 H   0  0  0  0  0  0  0  0  0  0  0  0
    1.8802    1.4940   -0.6315 C   0  0  0  0  0  0  0  0  0  0  0  0
    3.2822    1.3874   -0.7406 C   0  0  0  0  0  0  0  0  0  0  0  0
    3.7546    0.3930   -0.7643 H   0  0  0  0  0  0  0  0  0  0  0  0
    4.0678    2.5446   -0.8133 C   0  0  0  0  0  0  0  0  0  0  0  0
    5.1620    2.4578   -0.8940 H   0  0  0  0  0  0  0  0  0  0  0  0
    3.4609    3.8125   -0.7817 C   0  0  0  0  0  0  0  0  0  0  0  0
    4.0806    4.7204   -0.8374 H   0  0  0  0  0  0  0  0  0  0  0  0
    2.0666    3.9193   -0.6782 C   0  0  0  0  0  0  0  0  0  0  0  0
    1.5866    4.9091   -0.6533 H   0  0  0  0  0  0  0  0  0  0  0  0
    1.2746    2.7620   -0.6018 C   0  0  0  0  0  0  0  0  0  0  0  0
    0.1820    2.8459   -0.5173 H   0  0  0  0  0  0  0  0  0  0  0  0
    2.5777   -1.7613    2.7016 O   0  0  0  0  0  0  0  0  0  0  0  0
    1.3607    0.1183    2.3159 O   0  0  0  0  0  0  0  0  0  0  0  0
    0.8575   -0.0360   -0.5476 P   0  0  1  0  0  0  0  0  0  0  0  0
  1  3  2  0  0  0  0
  1 32  1  0  0  0  0
  2  1  1  0  0  0  0
  3  8  1  0  0  0  0
  4  7  1  0  0  0  0
  4  6  1  0  0  0  0
  4  3  1  0  0  0  0
  5  4  1  0  0  0  0
  8  9  1  0  0  0  0
  8 13  2  0  0  0  0
  9 12  1  0  0  0  0
 10  9  1  0  0  0  0
 11  9  1  0  0  0  0
 13 14  1  0  0  0  0
 14 31  1  0  0  0  0
 14 30  2  0  0  0  0
 15 17  1  0  0  0  0
 15 18  1  0  0  0  0
 15 16  1  0  0  0  0
 19 28  1  0  0  0  0
 20 19  2  0  0  0  0
 21 20  1  0  0  0  0
 22 24  2  0  0  0  0
 22 20  1  0  0  0  0
 23 22  1  0  0  0  0
 24 26  1  0  0  0  0
 25 24  1  0  0  0  0
 26 27  1  0  0  0  0
 26 28  2  0  0  0  0
 28 29  1  0  0  0  0
 31 15  1  0  0  0  0
 32 19  1  6  0  0  0
 32 13  1  0  0  0  0
M  END
