2
q = 0.0, confidence = 0.982

 36 37  0  0  0  0  0  0  0  0999 V2000
   -1.3266   -2.0319    1.9312 Br  0  0  0  0  0  0  0  0  0  0  0  0
   -1.6269   -0.2626    0.5248 P   0  0  0  0  0  0  0  0  0  0  0  0
   -1.7250    1.1047    1.7899 C   0  0  0  0  0  0  0  0  0  0  0  0
   -1.5578    2.5134    1.1957 C   0  0  0  0  0  0  0  0  0  0  0  0
   -1.4938    3.5517    2.3251 C   0  0  0  0  0  0  0  0  0  0  0  0
   -2.7137    3.4692    3.2499 C   0  0  0  0  0  0  0  0  0  0  0  0
   -2.8838    2.0553    3.8180 C   0  0  0  0  0  0  0  0  0  0  0  0
   -2.9593    1.0019    2.7020 C   0  0  0  0  0  0  0  0  0  0  0  0
   -3.3312   -0.6343   -0.1357 C   0  0  0  0  0  0  0  0  0  0  0  0
   -3.2538   -1.8222   -1.1141 C   0  0  0  0  0  0  0  0  0  0  0  0
   -4.6358   -2.1613   -1.6863 C   0  0  0  0  0  0  0  0  0  0  0  0
   -5.2818   -0.9397   -2.3499 C   0  0  0  0  0  0  0  0  0  0  0  0
   -5.3562    0.2409   -1.3752 C   0  0  0  0  0  0  0  0  0  0  0  0
   -3.9762    0.5970   -0.8000 C   0  0  0  0  0  0  0  0  0  0  0  0
   -0.8091    0.8936    2.3866 H   0  0  0  0  0  0  0  0  0  0  0  0
   -0.6414    2.5549    0.5755 H   0  0  0  0  0  0  0  0  0  0  0  0
   -2.4008    2.7491    0.5128 H   0  0  0  0  0  0  0  0  0  0  0  0
   -1.4001    4.5677    1.8886 H   0  0  0  0  0  0  0  0  0  0  0  0
   -0.5680    3.3778    2.9183 H   0  0  0  0  0  0  0  0  0  0  0  0
   -3.6272    3.7444    2.6756 H   0  0  0  0  0  0  0  0  0  0  0  0
   -2.6285    4.2088    4.0732 H   0  0  0  0  0  0  0  0  0  0  0  0
   -2.0218    1.8173    4.4803 H   0  0  0  0  0  0  0  0  0  0  0  0
   -3.7929    1.9922    4.4519 H   0  0  0  0  0  0  0  0  0  0  0  0
   -3.0340   -0.0161    3.1358 H   0  0  0  0  0  0  0  0  0  0  0  0
   -3.8824    1.1718    2.1058 H   0  0  0  0  0  0  0  0  0  0  0  0
   -3.9296   -0.9302    0.7548 H   0  0  0  0  0  0  0  0  0  0  0  0
   -2.5689   -1.5478   -1.9503 H   0  0  0  0  0  0  0  0  0  0  0  0
   -2.8046   -2.7035   -0.6127 H   0  0  0  0  0  0  0  0  0  0  0  0
   -5.2905   -2.5261   -0.8630 H   0  0  0  0  0  0  0  0  0  0  0  0
   -4.5449   -2.9996   -2.4076 H   0  0  0  0  0  0  0  0  0  0  0  0
   -4.6778   -0.6435   -3.2364 H   0  0  0  0  0  0  0  0  0  0  0  0
   -6.2937   -1.1927   -2.7290 H   0  0  0  0  0  0  0  0  0  0  0  0
   -6.0464   -0.0155   -0.5399 H   0  0  0  0  0  0  0  0  0  0  0  0
   -5.7865    1.1339   -1.8742 H   0  0  0  0  0  0  0  0  0  0  0  0
   -3.3093    0.9673   -1.6086 H   0  0  0  0  0  0  0  0  0  0  0  0
   -4.0758    1.4265   -0.0713 H   0  0  0  0  0  0  0  0  0  0  0  0
  2  3  1  0  0  0  0
  2  1  1  0  0  0  0
  3 15  1  0  0  0  0
  3  8  1  0  0  0  0
  4  3  1  0  0  0  0
  4  5  1  0  0  0  0
  5 19  1  0  0  0  0
  5  6  1  0  0  0  0
  6  7  1  0  0  0  0
  6 21  1  0  0  0  0
  7 23  1  0  0  0  0
  7 22  1  0  0  0  0
  8 24  1  0  0  0  0
  8  7  1  0  0  0  0
  9  2  1  0  0  0  0
  9 26  1  0  0  0  0
 10 28  1  0  0  0  0
 10  9  1  0  0  0  0
 11 10  1  0  0  0  0
 11 29  1  0  0  0  0
 12 11  1  0  0  0  0
 12 13  1  0  0  0  0
 13 14  1  0  0  0  0
 13 33  1  0  0  0  0
 14  9  1  0  0  0  0
 14 36  1  0  0  0  0
 16  4  1  0  0  0  0
 17  4  1  0  0  0  0
 18  5  1  0  0  0  0
 20  6  1  0  0  0  0
 25  8  1  0  0  0  0
 27 10  1  0  0  0  0
 30 11  1  0  0  0  0
 31 12  1  0  0  0  0
 32 12  1  0  0  0  0
 34 13  1  0  0  0  0
 35 14  1  0  0  0  0
M  END
