1
q = 0.0, confidence = 0.994

 52 54  0  0  0  0  0  0  0  0999 V2000
   -0.0263   -0.0980    0.8447 P   0  0  0  0  0  0  0  0  0  0  0  0
    5.0680   -1.3765    1.6973 F   0  0  0  0  0  0  0  0  0  0  0  0
    4.7674   -3.4907    1.2549 F   0  0  0  0  0  0  0  0  0  0  0  0
    5.9087   -2.2466   -0.1252 F   0  0  0  0  0  0  0  0  0  0  0  0
    1.0733   -1.8164   -4.1245 F   0  0  0  0  0  0  0  0  0  0  0  0
    1.6760   -3.8267   -3.5287 F   0  0  0  0  0  0  0  0  0  0  0  0
    3.1816   -2.3962   -4.1912 F   0  0  0  0  0  0  0  0  0  0  0  0
   -1.6126    5.5260    1.4678 F   0  0  0  0  0  0  0  0  0  0  0  0
   -1.9498    5.7952   -0.6692 F   0  0  0  0  0  0  0  0  0  0  0  0
   -3.0548    4.2606    0.4300 F   0  0  0  0  0  0  0  0  0  0  0  0
    2.5100    4.8578   -2.3903 F   0  0  0  0  0  0  0  0  0  0  0  0
    3.3092    2.8273   -2.2330 F   0  0  0  0  0  0  0  0  0  0  0  0
    3.6282    4.2565   -0.6174 F   0  0  0  0  0  0  0  0  0  0  0  0
   -3.6497   -3.9155    1.5943 F   0  0  0  0  0  0  0  0  0  0  0  0
   -5.4008   -2.6608    1.2475 F   0  0  0  0  0  0  0  0  0  0  0  0
   -4.8097   -4.1330   -0.2473 F   0  0  0  0  0  0  0  0  0  0  0  0
   -2.5373   -0.6644   -4.1836 F   0  0  0  0  0  0  0  0  0  0  0  0
   -3.3405    1.1720   -3.3277 F   0  0  0  0  0  0  0  0  0  0  0  0
   -4.6559   -0.5429   -3.6651 F   0  0  0  0  0  0  0  0  0  0  0  0
    1.3049   -1.0178   -0.0520 C   0  0  0  0  0  0  0  0  0  0  0  0
    2.5080   -1.2885    0.6231 C   0  0  0  0  0  0  0  0  0  0  0  0
    3.5612   -1.9297   -0.0475 C   0  0  0  0  0  0  0  0  0  0  0  0
    3.4207   -2.3115   -1.3892 C   0  0  0  0  0  0  0  0  0  0  0  0
    2.2129   -2.0555   -2.0567 C   0  0  0  0  0  0  0  0  0  0  0  0
    1.1575   -1.4102   -1.3957 C   0  0  0  0  0  0  0  0  0  0  0  0
    4.8377   -2.2589    0.7004 C   0  0  0  0  0  0  0  0  0  0  0  0
    2.0349   -2.5225   -3.4871 C   0  0  0  0  0  0  0  0  0  0  0  0
    0.1543    1.6195    0.2008 C   0  0  0  0  0  0  0  0  0  0  0  0
   -0.8824    2.5420    0.4471 C   0  0  0  0  0  0  0  0  0  0  0  0
   -0.7522    3.8690    0.0170 C   0  0  0  0  0  0  0  0  0  0  0  0
    0.4114    4.2926   -0.6466 C   0  0  0  0  0  0  0  0  0  0  0  0
    1.4475    3.3774   -0.8726 C   0  0  0  0  0  0  0  0  0  0  0  0
    1.3221    2.0417   -0.4544 C   0  0  0  0  0  0  0  0  0  0  0  0
   -1.8533    4.8680    0.3105 C   0  0  0  0  0  0  0  0  0  0  0  0
    2.7305    3.8337   -1.5364 C   0  0  0  0  0  0  0  0  0  0  0  0
   -1.5657   -0.6807    0.0136 C   0  0  0  0  0  0  0  0  0  0  0  0
   -2.3320   -1.6927    0.6208 C   0  0  0  0  0  0  0  0  0  0  0  0
   -3.4676   -2.1943   -0.0295 C   0  0  0  0  0  0  0  0  0  0  0  0
   -3.8425   -1.7029   -1.2911 C   0  0  0  0  0  0  0  0  0  0  0  0
   -3.0831   -0.6892   -1.8890 C   0  0  0  0  0  0  0  0  0  0  0  0
   -1.9553   -0.1661   -1.2352 C   0  0  0  0  0  0  0  0  0  0  0  0
   -4.3336   -3.2374    0.6480 C   0  0  0  0  0  0  0  0  0  0  0  0
   -3.4176   -0.1780   -3.2743 C   0  0  0  0  0  0  0  0  0  0  0  0
    2.6252   -0.9927    1.6759 H   0  0  0  0  0  0  0  0  0  0  0  0
    4.2528   -2.7992   -1.9159 H   0  0  0  0  0  0  0  0  0  0  0  0
    0.2273   -1.2162   -1.9474 H   0  0  0  0  0  0  0  0  0  0  0  0
   -1.8035    2.2323    0.9620 H   0  0  0  0  0  0  0  0  0  0  0  0
    0.5021    5.3296   -0.9980 H   0  0  0  0  0  0  0  0  0  0  0  0
    2.1388    1.3353   -0.6582 H   0  0  0  0  0  0  0  0  0  0  0  0
   -2.0449   -2.0865    1.6063 H   0  0  0  0  0  0  0  0  0  0  0  0
   -4.7255   -2.1063   -1.8055 H   0  0  0  0  0  0  0  0  0  0  0  0
   -1.3874    0.6483   -1.7088 H   0  0  0  0  0  0  0  0  0  0  0  0
  4 26  1  0  0  0  0
  5 27  1  0  0  0  0
  6 27  1  0  0  0  0
  7 27  1  0  0  0  0
  9 34  1  0  0  0  0
 11 35  1  0  0  0  0
 12 35  1  0  0  0  0
 16 42  1  0  0  0  0
 17 43  1  0  0  0  0
 18 43  1  0  0  0  0
 19 43  1  0  0  0  0
 20 21  1  0  0  0  0
 20  1  1  0  0  0  0
 21 44  1  0  0  0  0
 22 21  2  0  0  0  0
 22 26  1  0  0  0  0
 23 22  1  0  0  0  0
 24 25  1  0  0  0  0
 24 23  2  0  0  0  0
 25 20  2  0  0  0  0
 26  3  1  0  0  0  0
 26  2  1  0  0  0  0
 27 24  1  0  0  0  0
 28 29  1  0  0  0  0
 28  1  1  0  0  0  0
 29 47  1  0  0  0  0
 30 34  1  0  0  0  0
 30 29  2  0  0  0  0
 31 30  1  0  0  0  0
 32 31  2  0  0  0  0
 32 33  1  0  0  0  0
 33 28  2  0  0  0  0
 34 10  1  0  0  0  0
 34  8  1  0  0  0  0
 35 32  1  0  0  0  0
 35 13  1  0  0  0  0
 36 37  1  0  0  0  0
 36  1  1  0  0  0  0
 37 50  1  0  0  0  0
 38 37  2  0  0  0  0
 38 42  1  0  0  0  0
 39 38  1  0  0  0  0
 40 39  2  0  0  0  0
 40 41  1  0  0  0  0
 41 36  2  0  0  0  0
 42 15  1  0  0  0  0
 42 14  1  0  0  0  0
 43 40  1  0  0  0  0
 45 23  1  0  0  0  0
 46 25  1  0  0  0  0
 48 31  1  0  0  0  0
 49 33  1  0  0  0  0
 51 39  1  0  0  0  0
 52 41  1  0  0  0  0
M  END
