1
q = 0.0, confidence = 0.99

 65 65  0  0  0  0  0  0  0  0999 V2000
   -0.1877    0.0686   -0.4106 P   0  0  0  0  0  0  0  0  0  0  0  0
    0.1637    0.1161   -1.8020 H   0  0  0  0  0  0  0  0  0  0  0  0
    1.3646   -1.5352    0.1930 Si  0  0  0  0  0  0  0  0  0  0  0  0
    3.1026    0.0520   -0.2620 Si  0  0  0  0  0  0  0  0  0  0  0  0
    1.3951    1.6482    0.1996 Si  0  0  0  0  0  0  0  0  0  0  0  0
    1.3338    1.9548    2.0994 C   0  0  0  0  0  0  0  0  0  0  0  0
    1.6053    0.9853    2.5727 H   0  0  0  0  0  0  0  0  0  0  0  0
   -0.0612    2.3613    2.5920 C   0  0  0  0  0  0  0  0  0  0  0  0
   -0.8169    1.5782    2.3914 H   0  0  0  0  0  0  0  0  0  0  0  0
   -0.4179    3.2916    2.1030 H   0  0  0  0  0  0  0  0  0  0  0  0
   -0.0548    2.5483    3.6875 H   0  0  0  0  0  0  0  0  0  0  0  0
    2.3993    2.9904    2.4977 C   0  0  0  0  0  0  0  0  0  0  0  0
    2.1867    3.9849    2.0521 H   0  0  0  0  0  0  0  0  0  0  0  0
    3.4206    2.6940    2.1831 H   0  0  0  0  0  0  0  0  0  0  0  0
    2.4175    3.1303    3.6000 H   0  0  0  0  0  0  0  0  0  0  0  0
    3.7486    0.1210   -2.0821 C   0  0  0  0  0  0  0  0  0  0  0  0
    4.4127    1.0163   -2.0550 H   0  0  0  0  0  0  0  0  0  0  0  0
    1.1834   -3.1793   -0.7814 C   0  0  0  0  0  0  0  0  0  0  0  0
    0.2588   -3.6310   -0.3593 H   0  0  0  0  0  0  0  0  0  0  0  0
    1.1617    3.3234   -0.7264 C   0  0  0  0  0  0  0  0  0  0  0  0
    0.7308    3.9842    0.0607 H   0  0  0  0  0  0  0  0  0  0  0  0
    0.1589    3.2742   -1.8869 C   0  0  0  0  0  0  0  0  0  0  0  0
   -0.8389    2.9205   -1.5616 H   0  0  0  0  0  0  0  0  0  0  0  0
    0.4973    2.6021   -2.7028 H   0  0  0  0  0  0  0  0  0  0  0  0
    0.0271    4.2835   -2.3324 H   0  0  0  0  0  0  0  0  0  0  0  0
    2.5187    3.9071   -1.1537 C   0  0  0  0  0  0  0  0  0  0  0  0
    3.0025    3.2785   -1.9304 H   0  0  0  0  0  0  0  0  0  0  0  0
    3.2295    3.9876   -0.3057 H   0  0  0  0  0  0  0  0  0  0  0  0
    2.3965    4.9252   -1.5826 H   0  0  0  0  0  0  0  0  0  0  0  0
    0.9916   -1.8284    2.0714 C   0  0  0  0  0  0  0  0  0  0  0  0
    0.5205   -0.8744    2.3972 H   0  0  0  0  0  0  0  0  0  0  0  0
    4.5865    0.1203    0.9733 C   0  0  0  0  0  0  0  0  0  0  0  0
    4.1015    0.3613    1.9467 H   0  0  0  0  0  0  0  0  0  0  0  0
    2.6657    0.3840   -3.1353 C   0  0  0  0  0  0  0  0  0  0  0  0
    2.0854    1.3023   -2.9189 H   0  0  0  0  0  0  0  0  0  0  0  0
    1.9455   -0.4558   -3.2057 H   0  0  0  0  0  0  0  0  0  0  0  0
    3.1188    0.5073   -4.1426 H   0  0  0  0  0  0  0  0  0  0  0  0
   -0.0547   -2.9394    2.2556 C   0  0  0  0  0  0  0  0  0  0  0  0
    0.3655   -3.9382    2.0154 H   0  0  0  0  0  0  0  0  0  0  0  0
   -0.9498   -2.7913    1.6207 H   0  0  0  0  0  0  0  0  0  0  0  0
   -0.4033   -2.9714    3.3094 H   0  0  0  0  0  0  0  0  0  0  0  0
    2.3685   -4.1052   -0.4596 C   0  0  0  0  0  0  0  0  0  0  0  0
    2.4710   -4.2956    0.6286 H   0  0  0  0  0  0  0  0  0  0  0  0
    3.3298   -3.6731   -0.8108 H   0  0  0  0  0  0  0  0  0  0  0  0
    2.2488   -5.0919   -0.9570 H   0  0  0  0  0  0  0  0  0  0  0  0
    5.3369   -1.2106    1.1394 C   0  0  0  0  0  0  0  0  0  0  0  0
    5.8993   -1.4796    0.2224 H   0  0  0  0  0  0  0  0  0  0  0  0
    4.6546   -2.0534    1.3661 H   0  0  0  0  0  0  0  0  0  0  0  0
    6.0780   -1.1470    1.9654 H   0  0  0  0  0  0  0  0  0  0  0  0
    4.6107   -1.0936   -2.4599 C   0  0  0  0  0  0  0  0  0  0  0  0
    4.0218   -2.0340   -2.4327 H   0  0  0  0  0  0  0  0  0  0  0  0
    5.4766   -1.2271   -1.7826 H   0  0  0  0  0  0  0  0  0  0  0  0
    5.0110   -0.9868   -3.4914 H   0  0  0  0  0  0  0  0  0  0  0  0
    2.2219   -2.0708    2.9561 C   0  0  0  0  0  0  0  0  0  0  0  0
    2.9348   -1.2235    2.9283 H   0  0  0  0  0  0  0  0  0  0  0  0
    2.7770   -2.9831    2.6525 H   0  0  0  0  0  0  0  0  0  0  0  0
    1.9178   -2.2151    4.0153 H   0  0  0  0  0  0  0  0  0  0  0  0
    5.5459    1.2696    0.6254 C   0  0  0  0  0  0  0  0  0  0  0  0
    5.0198    2.2400    0.5104 H   0  0  0  0  0  0  0  0  0  0  0  0
    6.0848    1.0737   -0.3252 H   0  0  0  0  0  0  0  0  0  0  0  0
    6.3181    1.3986    1.4142 H   0  0  0  0  0  0  0  0  0  0  0  0
    0.9679   -3.0133   -2.2888 C   0  0  0  0  0  0  0  0  0  0  0  0
    1.8584   -2.5798   -2.7880 H   0  0  0  0  0  0  0  0  0  0  0  0
    0.1009   -2.3606   -2.5160 H   0  0  0  0  0  0  0  0  0  0  0  0
    0.7740   -3.9973   -2.7667 H   0  0  0  0  0  0  0  0  0  0  0  0
  1  3  1  0  0  0  0
  1  5  1  0  0  0  0
  2  1  1  0  0  0  0
  3 30  1  0  0  0  0
  4  3  1  0  0  0  0
  4  5  1  0  0  0  0
  4 32  1  0  0  0  0
  5  6  1  0  0  0  0
  6 12  1  0  0  0  0
  6  7  1  0  0  0  0
  6  8  1  0  0  0  0
  8 11  1  0  0  0  0
  9  8  1  0  0  0  0
 10  8  1  0  0  0  0
 12 15  1  0  0  0  0
 13 12  1  0  0  0  0
 14 12  1  0  0  0  0
 16 17  1  0  0  0  0
 16  4  1  0  0  0  0
 18 42  1  0  0  0  0
 18 19  1  0  0  0  0
 18  3  1  0  0  0  0
 20 21  1  0  0  0  0
 20  5  1  0  0  0  0
 22 23  1  0  0  0  0
 22 20  1  0  0  0  0
 24 22  1  0  0  0  0
 25 22  1  0  0  0  0
 26 20  1  0  0  0  0
 26 28  1  0  0  0  0
 27 26  1  0  0  0  0
 29 26  1  0  0  0  0
 30 38  1  0  0  0  0
 30 31  1  0  0  0  0
 30 54  1  0  0  0  0
 32 46  1  0  0  0  0
 32 33  1  0  0  0  0
 34 35  1  0  0  0  0
 34 16  1  0  0  0  0
 36 34  1  0  0  0  0
 37 34  1  0  0  0  0
 38 41  1  0  0  0  0
 39 38  1  0  0  0  0
 40 38  1  0  0  0  0
 42 43  1  0  0  0  0
 44 42  1  0  0  0  0
 45 42  1  0  0  0  0
 46 48  1  0  0  0  0
 46 49  1  0  0  0  0
 47 46  1  0  0  0  0
 50 51  1  0  0  0  0
 50 16  1  0  0  0  0
 50 52  1  0  0  0  0
 53 50  1  0  0  0  0
 54 57  1  0  0  0  0
 55 54  1  0  0  0  0
 56 54  1  0  0  0  0
 58 32  1  0  0  0  0
 58 61  1  0  0  0  0
 59 58  1  0  0  0  0
 60 58  1  0  0  0  0
 62 18  1  0  0  0  0
 63 62  1  0  0  0  0
 64 62  1  0  0  0  0
 65 62  1  0  0  0  0
M  END
