1
q = 0.0, confidence = 0.996

 55 56  0  0  1  0  0  0  0  0999 V2000
   -0.5700    1.2938   -0.0833 P   0  0  0  0  0  0  0  0  0  0  0  0
    1.9456    2.4720   -0.9340 C   0  0  0  0  0  0  0  0  0  0  0  0
    1.8336    3.3320   -0.2477 H   0  0  0  0  0  0  0  0  0  0  0  0
    1.5347    2.7952   -1.9122 H   0  0  0  0  0  0  0  0  0  0  0  0
    3.0251    2.2908   -1.0840 H   0  0  0  0  0  0  0  0  0  0  0  0
    1.2437    1.2129   -0.4705 C   0  0  1  0  0  3  0  0  0  0  0  0
    1.9398    0.0441   -0.2703 C   0  0  0  0  0  3  0  0  0  0  0  0
    3.4315    0.0230   -0.1760 C   0  0  0  0  0  0  0  0  0  0  0  0
    4.1107    0.8764    0.7236 C   0  0  0  0  0  0  0  0  0  0  0  0
    3.5272    1.5766    1.3411 H   0  0  0  0  0  0  0  0  0  0  0  0
    5.5053    0.8204    0.8525 C   0  0  0  0  0  0  0  0  0  0  0  0
    6.0150    1.4850    1.5666 H   0  0  0  0  0  0  0  0  0  0  0  0
    6.2480   -0.0868    0.0802 C   0  0  0  0  0  0  0  0  0  0  0  0
    7.3431   -0.1305    0.1795 H   0  0  0  0  0  0  0  0  0  0  0  0
    5.5845   -0.9484   -0.8089 C   0  0  0  0  0  0  0  0  0  0  0  0
    6.1594   -1.6683   -1.4110 H   0  0  0  0  0  0  0  0  0  0  0  0
    4.1890   -0.9052   -0.9252 C   0  0  0  0  0  0  0  0  0  0  0  0
    3.6682   -1.5957   -1.6054 H   0  0  0  0  0  0  0  0  0  0  0  0
    1.3368   -1.3188   -0.1761 C   0  0  0  0  0  0  0  0  0  0  0  0
    1.4450   -2.0907    0.9994 C   0  0  0  0  0  0  0  0  0  0  0  0
    1.9145   -1.6513    1.8925 H   0  0  0  0  0  0  0  0  0  0  0  0
    0.9386   -3.3964    1.0383 C   0  0  0  0  0  0  0  0  0  0  0  0
    0.9924   -3.9748    1.9728 H   0  0  0  0  0  0  0  0  0  0  0  0
    0.3598   -3.9658   -0.1070 C   0  0  0  0  0  0  0  0  0  0  0  0
   -0.0483   -4.9861   -0.0704 H   0  0  0  0  0  0  0  0  0  0  0  0
    0.2908   -3.2241   -1.2950 C   0  0  0  0  0  0  0  0  0  0  0  0
   -0.1688   -3.6615   -2.1933 H   0  0  0  0  0  0  0  0  0  0  0  0
    0.7665   -1.9057   -1.3289 C   0  0  0  0  0  0  0  0  0  0  0  0
    0.6985   -1.3112   -2.2525 H   0  0  0  0  0  0  0  0  0  0  0  0
   -1.4205    2.3573   -1.4304 C   0  0  0  0  0  0  0  0  0  0  0  0
   -0.9809    1.7200   -2.7648 C   0  0  0  0  0  0  0  0  0  0  0  0
   -1.5317    2.2037   -3.5988 H   0  0  0  0  0  0  0  0  0  0  0  0
   -1.2247    0.6377   -2.7808 H   0  0  0  0  0  0  0  0  0  0  0  0
    0.1020    1.8316   -2.9649 H   0  0  0  0  0  0  0  0  0  0  0  0
   -2.9484    2.1781   -1.3072 C   0  0  0  0  0  0  0  0  0  0  0  0
   -3.4342    2.6904   -2.1646 H   0  0  0  0  0  0  0  0  0  0  0  0
   -3.3551    2.6198   -0.3792 H   0  0  0  0  0  0  0  0  0  0  0  0
   -3.2381    1.1084   -1.3293 H   0  0  0  0  0  0  0  0  0  0  0  0
   -1.1040    3.8613   -1.3927 C   0  0  0  0  0  0  0  0  0  0  0  0
   -1.6060    4.3531   -2.2529 H   0  0  0  0  0  0  0  0  0  0  0  0
   -0.0264    4.0905   -1.4650 H   0  0  0  0  0  0  0  0  0  0  0  0
   -1.4997    4.3370   -0.4742 H   0  0  0  0  0  0  0  0  0  0  0  0
   -0.6067    2.1006    1.6607 C   0  0  0  0  0  0  0  0  0  0  0  0
    0.2485    3.3660    1.8249 C   0  0  0  0  0  0  0  0  0  0  0  0
    0.0900    3.7702    2.8473 H   0  0  0  0  0  0  0  0  0  0  0  0
   -0.0161    4.1667    1.1094 H   0  0  0  0  0  0  0  0  0  0  0  0
    1.3291    3.1466    1.7296 H   0  0  0  0  0  0  0  0  0  0  0  0
   -2.0731    2.4047    2.0130 C   0  0  0  0  0  0  0  0  0  0  0  0
   -2.1397    2.6587    3.0919 H   0  0  0  0  0  0  0  0  0  0  0  0
   -2.7262    1.5275    1.8272 H   0  0  0  0  0  0  0  0  0  0  0  0
   -2.4689    3.2690    1.4446 H   0  0  0  0  0  0  0  0  0  0  0  0
   -0.0697    1.0140    2.6131 C   0  0  0  0  0  0  0  0  0  0  0  0
   -0.0856    1.4042    3.6527 H   0  0  0  0  0  0  0  0  0  0  0  0
    0.9753    0.7366    2.3686 H   0  0  0  0  0  0  0  0  0  0  0  0
   -0.6861    0.0934    2.5731 H   0  0  0  0  0  0  0  0  0  0  0  0
  1 43  1  0  0  0  0
  2  6  1  0  0  0  0
  2  3  1  0  0  0  0
  4  2  1  0  0  0  0
  5  2  1  0  0  0  0
  6  7  1  1  0  0  0
  6  1  1  0  0  0  0
  7 19  1  0  0  0  0
  7  8  1  0  0  0  0
  8  9  1  0  0  0  0
  9 11  2  0  0  0  0
  9 10  1  0  0  0  0
 11 12  1  0  0  0  0
 13 14  1  0  0  0  0
 13 11  1  0  0  0  0
 15 13  2  0  0  0  0
 16 15  1  0  0  0  0
 17 15  1  0  0  0  0
 17  8  2  0  0  0  0
 18 17  1  0  0  0  0
 19 20  1  0  0  0  0
 20 22  2  0  0  0  0
 20 21  1  0  0  0  0
 22 23  1  0  0  0  0
 24 25  1  0  0  0  0
 24 22  1  0  0  0  0
 26 24  2  0  0  0  0
 27 26  1  0  0  0  0
 28 26  1  0  0  0  0
 28 19  2  0  0  0  0
 29 28  1  0  0  0  0
 30 39  1  0  0  0  0
 30 35  1  0  0  0  0
 30  1  1  0  0  0  0
 31 30  1  0  0  0  0
 32 31  1  0  0  0  0
 33 31  1  0  0  0  0
 34 31  1  0  0  0  0
 35 37  1  0  0  0  0
 36 35  1  0  0  0  0
 38 35  1  0  0  0  0
 39 42  1  0  0  0  0
 40 39  1  0  0  0  0
 41 39  1  0  0  0  0
 43 44  1  0  0  0  0
 43 48  1  0  0  0  0
 43 52  1  0  0  0  0
 44 45  1  0  0  0  0
 46 44  1  0  0  0  0
 47 44  1  0  0  0  0
 48 49  1  0  0  0  0
 50 48  1  0  0  0  0
 51 48  1  0  0  0  0
 52 53  1  0  0  0  0
 54 52  1  0  0  0  0
 55 52  1  0  0  0  0
M  END
