1
q = 0.0, confidence = 0.988

 52 57  0  0  0  0  0  0  0  0999 V2000
   -0.0002    0.0004   -0.4439 P   0  0  0  0  0  0  0  0  0  0  0  0
    2.5789    1.1994   -0.7314 C   0  0  0  0  0  0  0  0  0  0  0  0
   -2.3291    1.6330   -0.7301 C   0  0  0  0  0  0  0  0  0  0  0  0
   -0.2505   -2.8328   -0.7301 C   0  0  0  0  0  0  0  0  0  0  0  0
    4.8091    2.2690   -0.8814 C   0  0  0  0  0  0  0  0  0  0  0  0
    5.8168    2.2927   -1.3247 H   0  0  0  0  0  0  0  0  0  0  0  0
   -3.0093    0.8290    0.2318 C   0  0  0  0  0  0  0  0  0  0  0  0
   -2.4936   -0.0326    0.6820 H   0  0  0  0  0  0  0  0  0  0  0  0
    0.7857   -3.0201    0.2319 C   0  0  0  0  0  0  0  0  0  0  0  0
    1.2741   -2.1428    0.6822 H   0  0  0  0  0  0  0  0  0  0  0  0
   -3.0378    2.7550   -1.3037 C   0  0  0  0  0  0  0  0  0  0  0  0
    0.5657   -5.4422    0.0654 C   0  0  0  0  0  0  0  0  0  0  0  0
    0.8869   -6.4448    0.3853 H   0  0  0  0  0  0  0  0  0  0  0  0
    1.1807   -4.2913    0.6227 C   0  0  0  0  0  0  0  0  0  0  0  0
    1.9758   -4.4040    1.3748 H   0  0  0  0  0  0  0  0  0  0  0  0
   -0.6981   -1.5375   -1.1782 C   0  0  0  0  0  0  0  0  0  0  0  0
   -0.4377   -5.2990   -0.8797 C   0  0  0  0  0  0  0  0  0  0  0  0
   -0.9210   -6.1840   -1.3223 H   0  0  0  0  0  0  0  0  0  0  0  0
   -0.9836    1.3734   -1.1782 C   0  0  0  0  0  0  0  0  0  0  0  0
    2.2244    2.1898    0.2318 C   0  0  0  0  0  0  0  0  0  0  0  0
    1.2207    2.1745    0.6827 H   0  0  0  0  0  0  0  0  0  0  0  0
   -0.8682   -4.0073   -1.3037 C   0  0  0  0  0  0  0  0  0  0  0  0
    1.6801    0.1651   -1.1797 C   0  0  0  0  0  0  0  0  0  0  0  0
   -1.6912   -1.4394   -2.1512 C   0  0  0  0  0  0  0  0  0  0  0  0
   -2.0223   -0.4486   -2.4943 H   0  0  0  0  0  0  0  0  0  0  0  0
    3.9046    1.2515   -1.3059 C   0  0  0  0  0  0  0  0  0  0  0  0
   -4.3077    1.1223    0.6228 C   0  0  0  0  0  0  0  0  0  0  0  0
   -4.8027    0.4900    1.3748 H   0  0  0  0  0  0  0  0  0  0  0  0
    2.0903   -0.7435   -2.1537 C   0  0  0  0  0  0  0  0  0  0  0  0
    1.3973   -1.5251   -2.4967 H   0  0  0  0  0  0  0  0  0  0  0  0
    3.3940   -0.6835   -2.7088 C   0  0  0  0  0  0  0  0  0  0  0  0
    3.6899   -1.4189   -3.4715 H   0  0  0  0  0  0  0  0  0  0  0  0
   -1.8904   -3.8559   -2.2857 C   0  0  0  0  0  0  0  0  0  0  0  0
   -2.3529   -4.7614   -2.7086 H   0  0  0  0  0  0  0  0  0  0  0  0
    4.2831    0.2913   -2.2892 C   0  0  0  0  0  0  0  0  0  0  0  0
    5.2982    0.3433   -2.7129 H   0  0  0  0  0  0  0  0  0  0  0  0
    3.1288    3.1663    0.6232 C   0  0  0  0  0  0  0  0  0  0  0  0
    2.8299    3.9106    1.3762 H   0  0  0  0  0  0  0  0  0  0  0  0
   -0.4021    2.1848   -2.1508 C   0  0  0  0  0  0  0  0  0  0  0  0
    0.6217    1.9767   -2.4937 H   0  0  0  0  0  0  0  0  0  0  0  0
   -2.2912   -2.5989   -2.7051 C   0  0  0  0  0  0  0  0  0  0  0  0
   -3.0771   -2.4880   -3.4669 H   0  0  0  0  0  0  0  0  0  0  0  0
   -2.3957    3.5648   -2.2856 C   0  0  0  0  0  0  0  0  0  0  0  0
   -2.9489    4.4179   -2.7085 H   0  0  0  0  0  0  0  0  0  0  0  0
    4.4327    3.2087    0.0650 C   0  0  0  0  0  0  0  0  0  0  0  0
    5.1412    3.9872    0.3854 H   0  0  0  0  0  0  0  0  0  0  0  0
   -4.3717    3.0278   -0.8797 C   0  0  0  0  0  0  0  0  0  0  0  0
   -4.8967    3.8886   -1.3223 H   0  0  0  0  0  0  0  0  0  0  0  0
   -4.9972    2.2302    0.0654 C   0  0  0  0  0  0  0  0  0  0  0  0
   -6.0261    2.4531    0.3854 H   0  0  0  0  0  0  0  0  0  0  0  0
   -1.1065    3.2840   -2.7048 C   0  0  0  0  0  0  0  0  0  0  0  0
   -0.6177    3.9094   -3.4664 H   0  0  0  0  0  0  0  0  0  0  0  0
  2 20  2  0  0  0  0
  3  7  2  0  0  0  0
  4  9  2  0  0  0  0
  5 45  1  0  0  0  0
  6  5  1  0  0  0  0
  7 27  1  0  0  0  0
  7  8  1  0  0  0  0
  9 14  1  0  0  0  0
  9 10  1  0  0  0  0
 11 47  2  0  0  0  0
 11  3  1  0  0  0  0
 12 13  1  0  0  0  0
 12 14  2  0  0  0  0
 14 15  1  0  0  0  0
 16  4  1  0  0  0  0
 16  1  1  0  0  0  0
 17 12  1  0  0  0  0
 18 17  1  0  0  0  0
 19  3  1  0  0  0  0
 19  1  1  0  0  0  0
 20 37  1  0  0  0  0
 20 21  1  0  0  0  0
 22 17  2  0  0  0  0
 22  4  1  0  0  0  0
 23  2  1  0  0  0  0
 23  1  1  0  0  0  0
 24 16  2  0  0  0  0
 25 24  1  0  0  0  0
 26  5  2  0  0  0  0
 26  2  1  0  0  0  0
 27 28  1  0  0  0  0
 29 23  2  0  0  0  0
 30 29  1  0  0  0  0
 31 35  2  0  0  0  0
 31 29  1  0  0  0  0
 32 31  1  0  0  0  0
 33 22  1  0  0  0  0
 34 33  1  0  0  0  0
 35 26  1  0  0  0  0
 36 35  1  0  0  0  0
 37 38  1  0  0  0  0
 39 19  2  0  0  0  0
 40 39  1  0  0  0  0
 41 33  2  0  0  0  0
 41 24  1  0  0  0  0
 42 41  1  0  0  0  0
 43 11  1  0  0  0  0
 44 43  1  0  0  0  0
 45 46  1  0  0  0  0
 45 37  2  0  0  0  0
 47 49  1  0  0  0  0
 48 47  1  0  0  0  0
 49 50  1  0  0  0  0
 49 27  2  0  0  0  0
 51 43  2  0  0  0  0
 51 39  1  0  0  0  0
 52 51  1  0  0  0  0
M  END
