1
q = 0.0, confidence = 0.984

 37 38  0  0  0  0  0  0  0  0999 V2000
    2.1614    0.0571   -0.8365 P   0  0  0  0  0  0  0  0  0  0  0  0
    0.9003    2.5958   -1.8141 F   0  0  0  0  0  0  0  0  0  0  0  0
    2.6833    2.8710   -3.0491 F   0  0  0  0  0  0  0  0  0  0  0  0
    1.8873    4.5334   -1.8970 F   0  0  0  0  0  0  0  0  0  0  0  0
    5.5622    5.7277    0.8406 F   0  0  0  0  0  0  0  0  0  0  0  0
    4.5173    5.2515    2.6941 F   0  0  0  0  0  0  0  0  0  0  0  0
    6.4398    4.3170    2.2633 F   0  0  0  0  0  0  0  0  0  0  0  0
    4.9579    0.1975   -2.0022 F   0  0  0  0  0  0  0  0  0  0  0  0
    4.4367   -1.4663   -3.3213 F   0  0  0  0  0  0  0  0  0  0  0  0
    6.3205   -1.4827   -2.2343 F   0  0  0  0  0  0  0  0  0  0  0  0
    5.7607   -5.6894   -0.0549 F   0  0  0  0  0  0  0  0  0  0  0  0
    4.2141   -5.9836    1.4628 F   0  0  0  0  0  0  0  0  0  0  0  0
    5.9780   -4.7833    1.9166 F   0  0  0  0  0  0  0  0  0  0  0  0
    2.1892    0.1255   -2.4655 O   0  0  0  0  0  0  0  0  0  0  0  0
    1.2496   -0.0648   -2.7578 H   0  0  0  0  0  0  0  0  0  0  0  0
    3.1405    1.4828   -0.2224 C   0  0  0  0  0  0  0  0  0  0  0  0
    2.9959    2.8146   -0.6901 C   0  0  0  0  0  0  0  0  0  0  0  0
    3.7175    3.8465   -0.0711 C   0  0  0  0  0  0  0  0  0  0  0  0
    3.6157    4.8734   -0.4452 H   0  0  0  0  0  0  0  0  0  0  0  0
    4.5615    3.5843    1.0170 C   0  0  0  0  0  0  0  0  0  0  0  0
    4.6955    2.2740    1.4947 C   0  0  0  0  0  0  0  0  0  0  0  0
    5.3582    2.0609    2.3451 H   0  0  0  0  0  0  0  0  0  0  0  0
    3.9871    1.2386    0.8771 C   0  0  0  0  0  0  0  0  0  0  0  0
    4.0974    0.2148    1.2604 H   0  0  0  0  0  0  0  0  0  0  0  0
    2.1195    3.2001   -1.8723 C   0  0  0  0  0  0  0  0  0  0  0  0
    5.2781    4.7262    1.7043 C   0  0  0  0  0  0  0  0  0  0  0  0
    3.1310   -1.4458   -0.3774 C   0  0  0  0  0  0  0  0  0  0  0  0
    4.3409   -1.8743   -0.9862 C   0  0  0  0  0  0  0  0  0  0  0  0
    4.9444   -3.0660   -0.5575 C   0  0  0  0  0  0  0  0  0  0  0  0
    5.8771   -3.3979   -1.0326 H   0  0  0  0  0  0  0  0  0  0  0  0
    4.3712   -3.8383    0.4643 C   0  0  0  0  0  0  0  0  0  0  0  0
    3.1719   -3.4291    1.0609 C   0  0  0  0  0  0  0  0  0  0  0  0
    2.7057   -4.0384    1.8479 H   0  0  0  0  0  0  0  0  0  0  0  0
    2.5603   -2.2433    0.6360 C   0  0  0  0  0  0  0  0  0  0  0  0
    1.6143   -1.9225    1.0979 H   0  0  0  0  0  0  0  0  0  0  0  0
    5.0107   -1.1471   -2.1451 C   0  0  0  0  0  0  0  0  0  0  0  0
    5.0818   -5.0858    0.9465 C   0  0  0  0  0  0  0  0  0  0  0  0
  1 27  1  0  0  0  0
  1 16  1  0  0  0  0
  3 25  1  0  0  0  0
  4 25  1  0  0  0  0
  5 26  1  0  0  0  0
  9 36  1  0  0  0  0
 10 36  1  0  0  0  0
 11 37  1  0  0  0  0
 14  1  1  0  0  0  0
 15 14  1  0  0  0  0
 16 23  1  0  0  0  0
 17 16  2  0  0  0  0
 17 18  1  0  0  0  0
 18 20  2  0  0  0  0
 19 18  1  0  0  0  0
 20 21  1  0  0  0  0
 20 26  1  0  0  0  0
 21 22  1  0  0  0  0
 23 24  1  0  0  0  0
 23 21  2  0  0  0  0
 25  2  1  0  0  0  0
 25 17  1  0  0  0  0
 26  7  1  0  0  0  0
 26  6  1  0  0  0  0
 27 34  1  0  0  0  0
 28 29  1  0  0  0  0
 28 27  2  0  0  0  0
 29 31  2  0  0  0  0
 30 29  1  0  0  0  0
 31 37  1  0  0  0  0
 31 32  1  0  0  0  0
 32 33  1  0  0  0  0
 34 32  2  0  0  0  0
 34 35  1  0  0  0  0
 36  8  1  0  0  0  0
 36 28  1  0  0  0  0
 37 12  1  0  0  0  0
 37 13  1  0  0  0  0
M  END
