1
q = 0.0, confidence = 0.994

 29 30  0  0  0  0  0  0  0  0999 V2000
    1.6327    0.0380   -0.2904 P   0  0  0  0  0  0  0  0  0  0  0  0
    1.6842    0.7089   -2.0522 C   0  0  0  0  0  0  0  0  0  0  0  0
    1.6417   -0.3829   -3.0052 C   0  0  0  0  0  0  0  0  0  0  0  0
    1.5925   -1.3375   -3.7677 C   0  0  0  0  0  0  0  0  0  0  0  0
    3.3328   -0.6587   -0.1345 C   0  0  0  0  0  0  0  0  0  0  0  0
    4.4740    0.1640   -0.0447 C   0  0  0  0  0  0  0  0  0  0  0  0
    5.7497   -0.4125    0.0346 C   0  0  0  0  0  0  0  0  0  0  0  0
    5.8929   -1.8105    0.0213 C   0  0  0  0  0  0  0  0  0  0  0  0
    4.7580   -2.6317   -0.0661 C   0  0  0  0  0  0  0  0  0  0  0  0
    3.4793   -2.0582   -0.1383 C   0  0  0  0  0  0  0  0  0  0  0  0
    1.7259    1.5740    0.7196 C   0  0  0  0  0  0  0  0  0  0  0  0
    1.5398    2.8701    0.1954 C   0  0  0  0  0  0  0  0  0  0  0  0
    1.4835    3.9815    1.0541 C   0  0  0  0  0  0  0  0  0  0  0  0
    1.6198    3.8133    2.4400 C   0  0  0  0  0  0  0  0  0  0  0  0
    1.8201    2.5256    2.9683 C   0  0  0  0  0  0  0  0  0  0  0  0
    1.8686    1.4147    2.1175 C   0  0  0  0  0  0  0  0  0  0  0  0
    2.5968    1.3305   -2.1797 H   0  0  0  0  0  0  0  0  0  0  0  0
    0.7942    1.3613   -2.1788 H   0  0  0  0  0  0  0  0  0  0  0  0
    1.5430   -2.1829   -4.4384 H   0  0  0  0  0  0  0  0  0  0  0  0
    4.3627    1.2599   -0.0251 H   0  0  0  0  0  0  0  0  0  0  0  0
    6.6385    0.2326    0.1109 H   0  0  0  0  0  0  0  0  0  0  0  0
    6.8954   -2.2606    0.0857 H   0  0  0  0  0  0  0  0  0  0  0  0
    4.8672   -3.7269   -0.0709 H   0  0  0  0  0  0  0  0  0  0  0  0
    2.5746   -2.6845   -0.1891 H   0  0  0  0  0  0  0  0  0  0  0  0
    1.4194    3.0263   -0.8855 H   0  0  0  0  0  0  0  0  0  0  0  0
    1.3309    4.9867    0.6317 H   0  0  0  0  0  0  0  0  0  0  0  0
    1.5695    4.6844    3.1105 H   0  0  0  0  0  0  0  0  0  0  0  0
    1.9222    2.3827    4.0545 H   0  0  0  0  0  0  0  0  0  0  0  0
    1.9947    0.4072    2.5420 H   0  0  0  0  0  0  0  0  0  0  0  0
  1  5  1  0  0  0  0
  1 11  1  0  0  0  0
  2  1  1  0  0  0  0
  3  2  1  0  0  0  0
  4  3  3  0  0  0  0
  5  6  1  0  0  0  0
  6 20  1  0  0  0  0
  6  7  2  0  0  0  0
  7 21  1  0  0  0  0
  8  7  1  0  0  0  0
  8 22  1  0  0  0  0
  9  8  2  0  0  0  0
 10  5  2  0  0  0  0
 10  9  1  0  0  0  0
 11 16  1  0  0  0  0
 12 11  2  0  0  0  0
 12 13  1  0  0  0  0
 13 14  2  0  0  0  0
 14 15  1  0  0  0  0
 14 27  1  0  0  0  0
 15 28  1  0  0  0  0
 16 29  1  0  0  0  0
 16 15  2  0  0  0  0
 17  2  1  0  0  0  0
 18  2  1  0  0  0  0
 19  4  1  0  0  0  0
 23  9  1  0  0  0  0
 24 10  1  0  0  0  0
 25 12  1  0  0  0  0
 26 13  1  0  0  0  0
M  END
