1
q = 0.0, confidence = 0.976

  6  5  0  0  0  0  0  0  0  0999 V2000
   -0.1541   -2.7859   -0.3311 P   0  0  0  0  0  0  0  0  0  0  0  0
   -0.9031   -3.7245   -1.1282 H   0  0  0  0  0  0  0  0  0  0  0  0
    1.2740   -3.6146   -0.1792 O   0  0  0  0  0  0  0  0  0  0  0  0
    1.1390   -4.5077    0.2035 H   0  0  0  0  0  0  0  0  0  0  0  0
   -0.7868   -3.1398    1.1675 O   0  0  0  0  0  0  0  0  0  0  0  0
   -1.6841   -2.7463    1.2679 H   0  0  0  0  0  0  0  0  0  0  0  0
  1  3  1  0  0  0  0
  1  5  1  0  0  0  0
  2  1  1  0  0  0  0
  3  4  1  0  0  0  0
  5  6  1  0  0  0  0
M  END
