1
q = 0.0, confidence = 0.996

 35 38  0  0  1  0  0  0  0  0999 V2000
    0.2695    0.4194    0.0135 P   0  0  1  0  0  0  0  0  0  0  0  0
    1.6807   -0.4436   -0.7710 C   0  0  2  0  0  0  0  0  0  0  0  0
    1.7034   -0.4249    0.7565 C   0  0  1  0  0  0  0  0  0  0  0  0
    2.8327    0.2214   -0.0404 C   0  0  1  0  0  0  0  0  0  0  0  0
    2.8851    1.3264   -0.0567 H   0  0  0  0  0  0  0  0  0  0  0  0
    1.6634   -1.4702   -1.8630 C   0  0  0  0  0  0  0  0  0  0  0  0
    1.4121   -0.9925   -2.8313 H   0  0  0  0  0  0  0  0  0  0  0  0
    0.9116   -2.2600   -1.6705 H   0  0  0  0  0  0  0  0  0  0  0  0
    2.6537   -1.9529   -1.9764 H   0  0  0  0  0  0  0  0  0  0  0  0
    1.7297   -1.4408    1.8595 C   0  0  0  0  0  0  0  0  0  0  0  0
    2.7126   -1.9476    1.9178 H   0  0  0  0  0  0  0  0  0  0  0  0
    0.9485   -2.2131    1.7164 H   0  0  0  0  0  0  0  0  0  0  0  0
    1.5460   -0.9525    2.8375 H   0  0  0  0  0  0  0  0  0  0  0  0
    0.5102    2.2354    0.0105 C   0  0  0  0  0  0  0  0  0  0  0  0
    1.0684    2.9016    1.1196 C   0  0  0  0  0  0  0  0  0  0  0  0
    1.4166    2.3199    1.9873 H   0  0  0  0  0  0  0  0  0  0  0  0
    1.1781    4.3007    1.1141 C   0  0  0  0  0  0  0  0  0  0  0  0
    1.6143    4.8183    1.9820 H   0  0  0  0  0  0  0  0  0  0  0  0
    0.7298    5.0379    0.0066 C   0  0  0  0  0  0  0  0  0  0  0  0
    0.8137    6.1352    0.0058 H   0  0  0  0  0  0  0  0  0  0  0  0
    0.1688    4.3764   -1.0985 C   0  0  0  0  0  0  0  0  0  0  0  0
   -0.1870    4.9532   -1.9655 H   0  0  0  0  0  0  0  0  0  0  0  0
    0.0554    2.9791   -1.0976 C   0  0  0  0  0  0  0  0  0  0  0  0
   -0.3956    2.4606   -1.9588 H   0  0  0  0  0  0  0  0  0  0  0  0
    4.1937   -0.3994   -0.0525 C   0  0  0  0  0  0  0  0  0  0  0  0
    4.4285   -1.7938   -0.0486 C   0  0  0  0  0  0  0  0  0  0  0  0
    3.5853   -2.4987   -0.0374 H   0  0  0  0  0  0  0  0  0  0  0  0
    5.7360   -2.3026   -0.0596 C   0  0  0  0  0  0  0  0  0  0  0  0
    5.8934   -3.3920   -0.0564 H   0  0  0  0  0  0  0  0  0  0  0  0
    6.8371   -1.4332   -0.0751 C   0  0  0  0  0  0  0  0  0  0  0  0
    7.8614   -1.8351   -0.0839 H   0  0  0  0  0  0  0  0  0  0  0  0
    6.6194   -0.0465   -0.0796 C   0  0  0  0  0  0  0  0  0  0  0  0
    7.4740    0.6470   -0.0923 H   0  0  0  0  0  0  0  0  0  0  0  0
    5.3132    0.4606   -0.0685 C   0  0  0  0  0  0  0  0  0  0  0  0
    5.1476    1.5495   -0.0725 H   0  0  0  0  0  0  0  0  0  0  0  0
  1 14  1  6  0  0  0
  1  3  1  0  0  0  0
  2  6  1  6  0  0  0
  2  4  1  0  0  0  0
  2  1  1  0  0  0  0
  2  3  1  0  0  0  0
  3 10  1  1  0  0  0
  4  5  1  6  0  0  0
  4  3  1  0  0  0  0
  6  8  1  0  0  0  0
  7  6  1  0  0  0  0
  9  6  1  0  0  0  0
 10 11  1  0  0  0  0
 10 13  1  0  0  0  0
 12 10  1  0  0  0  0
 14 15  1  0  0  0  0
 15 16  1  0  0  0  0
 17 15  2  0  0  0  0
 17 18  1  0  0  0  0
 19 17  1  0  0  0  0
 20 19  1  0  0  0  0
 21 23  1  0  0  0  0
 21 19  2  0  0  0  0
 22 21  1  0  0  0  0
 23 14  2  0  0  0  0
 24 23  1  0  0  0  0
 25 26  1  0  0  0  0
 25  4  1  0  0  0  0
 26 27  1  0  0  0  0
 28 29  1  0  0  0  0
 28 26  2  0  0  0  0
 30 28  1  0  0  0  0
 31 30  1  0  0  0  0
 32 30  2  0  0  0  0
 32 34  1  0  0  0  0
 33 32  1  0  0  0  0
 34 25  2  0  0  0  0
 35 34  1  0  0  0  0
M  END
