1
q = 0.0, confidence = 0.994

 34 34  0  0  0  0  0  0  0  0999 V2000
   -0.3585    0.9170    0.0002 P   0  0  2  0  0  0  0  0  0  0  0  0
   -3.1639    0.4439   -0.0001 P   0  0  2  0  0  0  0  0  0  0  0  0
   -1.7302    0.4243   -1.2630 C   0  0  0  0  0  0  0  0  0  0  0  0
   -1.7304    0.4242    1.2631 C   0  0  0  0  0  0  0  0  0  0  0  0
   -0.3027    2.8211    0.0002 C   0  0  0  0  0  0  0  0  0  0  0  0
   -1.6897    3.4846    0.0002 C   0  0  0  0  0  0  0  0  0  0  0  0
   -2.2790    3.2235   -0.8981 H   0  0  0  0  0  0  0  0  0  0  0  0
   -1.5450    4.5856    0.0002 H   0  0  0  0  0  0  0  0  0  0  0  0
   -2.2790    3.2235    0.8984 H   0  0  0  0  0  0  0  0  0  0  0  0
    0.4707    3.2161   -1.2716 C   0  0  0  0  0  0  0  0  0  0  0  0
   -0.0728    2.9131   -2.1872 H   0  0  0  0  0  0  0  0  0  0  0  0
    1.4824    2.7695   -1.3014 H   0  0  0  0  0  0  0  0  0  0  0  0
    0.5885    4.3199   -1.2914 H   0  0  0  0  0  0  0  0  0  0  0  0
    0.4705    3.2160    1.2722 C   0  0  0  0  0  0  0  0  0  0  0  0
    1.4822    2.7693    1.3021 H   0  0  0  0  0  0  0  0  0  0  0  0
   -0.0731    2.9130    2.1877 H   0  0  0  0  0  0  0  0  0  0  0  0
    0.5884    4.3198    1.2921 H   0  0  0  0  0  0  0  0  0  0  0  0
   -4.0381   -1.2453   -0.0000 C   0  0  0  0  0  0  0  0  0  0  0  0
   -4.9127   -1.2067   -1.2688 C   0  0  0  0  0  0  0  0  0  0  0  0
   -4.2919   -1.2029   -2.1879 H   0  0  0  0  0  0  0  0  0  0  0  0
   -5.5782   -0.3197   -1.2916 H   0  0  0  0  0  0  0  0  0  0  0  0
   -5.5523   -2.1143   -1.3007 H   0  0  0  0  0  0  0  0  0  0  0  0
   -3.1591   -2.5021    0.0003 C   0  0  0  0  0  0  0  0  0  0  0  0
   -2.5153   -2.5620   -0.8939 H   0  0  0  0  0  0  0  0  0  0  0  0
   -3.8229   -3.3933    0.0002 H   0  0  0  0  0  0  0  0  0  0  0  0
   -2.5158   -2.5619    0.8949 H   0  0  0  0  0  0  0  0  0  0  0  0
   -4.9132   -1.2064    1.2684 C   0  0  0  0  0  0  0  0  0  0  0  0
   -5.5787   -0.3194    1.2907 H   0  0  0  0  0  0  0  0  0  0  0  0
   -4.2927   -1.2024    2.1877 H   0  0  0  0  0  0  0  0  0  0  0  0
   -5.5527   -2.1140    1.3002 H   0  0  0  0  0  0  0  0  0  0  0  0
   -1.9222    1.3079   -2.2891 F   0  0  0  0  0  0  0  0  0  0  0  0
   -1.4376   -0.7757   -1.8515 F   0  0  0  0  0  0  0  0  0  0  0  0
   -1.9226    1.3075    2.2893 F   0  0  0  0  0  0  0  0  0  0  0  0
   -1.4378   -0.7759    1.8514 F   0  0  0  0  0  0  0  0  0  0  0  0
  1  5  1  1  0  0  0
  1  4  1  0  0  0  0
  2 18  1  6  0  0  0
  2  4  1  0  0  0  0
  3  2  1  0  0  0  0
  3  1  1  0  0  0  0
  4 34  1  0  0  0  0
  4 33  1  0  0  0  0
  5 14  1  0  0  0  0
  6  5  1  0  0  0  0
  6  8  1  0  0  0  0
  6  9  1  0  0  0  0
  7  6  1  0  0  0  0
 10  5  1  0  0  0  0
 11 10  1  0  0  0  0
 12 10  1  0  0  0  0
 13 10  1  0  0  0  0
 14 17  1  0  0  0  0
 14 15  1  0  0  0  0
 14 16  1  0  0  0  0
 18 23  1  0  0  0  0
 18 27  1  0  0  0  0
 19 18  1  0  0  0  0
 20 19  1  0  0  0  0
 21 19  1  0  0  0  0
 22 19  1  0  0  0  0
 23 26  1  0  0  0  0
 24 23  1  0  0  0  0
 25 23  1  0  0  0  0
 27 28  1  0  0  0  0
 27 30  1  0  0  0  0
 27 29  1  0  0  0  0
 31  3  1  0  0  0  0
 32  3  1  0  0  0  0
M  END
