1
q = 0.0, confidence = 0.994

 55 58  0  0  0  0  0  0  0  0999 V2000
   -0.5523    0.7329    0.6580 P   0  0  2  0  0  0  0  0  0  0  0  0
    0.4688    3.1996   -0.1106 N   0  0  0  0  0  0  0  0  0  0  0  0
    2.2278    0.8194    0.9387 C   0  0  0  0  0  0  0  0  0  0  0  0
    2.1126    1.8312    0.5243 H   0  0  0  0  0  0  0  0  0  0  0  0
   -0.4007    3.0309   -2.7729 C   0  0  0  0  0  0  0  0  0  0  0  0
   -0.7457    2.9589   -3.8155 H   0  0  0  0  0  0  0  0  0  0  0  0
    3.6245   -0.8936    1.8625 C   0  0  0  0  0  0  0  0  0  0  0  0
    4.6155   -1.2820    2.1468 H   0  0  0  0  0  0  0  0  0  0  0  0
   -0.6676    1.9937   -1.8680 C   0  0  0  0  0  0  0  0  0  0  0  0
   -1.2394    1.1021   -2.1692 H   0  0  0  0  0  0  0  0  0  0  0  0
   -0.2040    2.1154   -0.5422 C   0  0  0  0  0  0  0  0  0  0  0  0
   -2.3843    2.4181    1.8673 C   0  0  0  0  0  0  0  0  0  0  0  0
   -2.0708    3.2849    1.2525 H   0  0  0  0  0  0  0  0  0  0  0  0
   -2.8630    2.8116    2.7884 H   0  0  0  0  0  0  0  0  0  0  0  0
   -3.1489    1.8442    1.3037 H   0  0  0  0  0  0  0  0  0  0  0  0
    3.5248    0.3209    1.1590 C   0  0  0  0  0  0  0  0  0  0  0  0
   -1.1878    1.5346    2.2553 C   0  0  0  0  0  0  0  0  0  0  0  0
    2.5172   -0.3253   -1.9173 C   0  0  0  0  0  0  0  0  0  0  0  0
    2.3253    0.6805   -2.3262 H   0  0  0  0  0  0  0  0  0  0  0  0
    0.7070    4.1944   -0.9789 C   0  0  0  0  0  0  0  0  0  0  0  0
    1.2547    5.0671   -0.5820 H   0  0  0  0  0  0  0  0  0  0  0  0
   -1.6438    0.3688    3.1509 C   0  0  0  0  0  0  0  0  0  0  0  0
   -2.4501   -0.2248    2.6737 H   0  0  0  0  0  0  0  0  0  0  0  0
   -2.0314    0.7762    4.1082 H   0  0  0  0  0  0  0  0  0  0  0  0
   -0.8025   -0.3129    3.3919 H   0  0  0  0  0  0  0  0  0  0  0  0
    2.4936   -1.6961    2.0482 C   0  0  0  0  0  0  0  0  0  0  0  0
    2.6191   -2.7048    2.4728 H   0  0  0  0  0  0  0  0  0  0  0  0
    1.2310   -1.3429    1.5250 C   0  0  0  0  0  0  0  0  0  0  0  0
    0.3003    4.1577   -2.3227 C   0  0  0  0  0  0  0  0  0  0  0  0
    0.5264    4.9984   -2.9952 H   0  0  0  0  0  0  0  0  0  0  0  0
   -0.0952    2.3519    2.9582 C   0  0  0  0  0  0  0  0  0  0  0  0
    0.7538    1.7119    3.2687 H   0  0  0  0  0  0  0  0  0  0  0  0
   -0.5255    2.8141    3.8720 H   0  0  0  0  0  0  0  0  0  0  0  0
    0.2940    3.1529    2.3019 H   0  0  0  0  0  0  0  0  0  0  0  0
    4.0194   -1.9773   -1.0231 C   0  0  0  0  0  0  0  0  0  0  0  0
    5.0312   -2.2938   -0.7212 H   0  0  0  0  0  0  0  0  0  0  0  0
    0.4577   -3.0460   -0.2831 C   0  0  0  0  0  0  0  0  0  0  0  0
    0.5986   -4.1424   -0.2054 H   0  0  0  0  0  0  0  0  0  0  0  0
   -0.4886   -2.8752   -0.8356 H   0  0  0  0  0  0  0  0  0  0  0  0
    1.0845    0.0103    1.0998 C   0  0  0  0  0  0  0  0  0  0  0  0
    3.8045   -0.6466   -1.4386 C   0  0  0  0  0  0  0  0  0  0  0  0
    4.7104    0.9133    0.4322 C   0  0  0  0  0  0  0  0  0  0  0  0
    5.6458    0.6190    0.9487 H   0  0  0  0  0  0  0  0  0  0  0  0
    4.6666    2.0212    0.4517 H   0  0  0  0  0  0  0  0  0  0  0  0
    4.7975    0.4426   -1.0982 C   0  0  0  0  0  0  0  0  0  0  0  0
    4.6182    1.3234   -1.7469 H   0  0  0  0  0  0  0  0  0  0  0  0
    5.8358    0.1057   -1.2939 H   0  0  0  0  0  0  0  0  0  0  0  0
    1.4395   -1.1990   -1.7192 C   0  0  0  0  0  0  0  0  0  0  0  0
    0.4178   -0.8770   -1.9791 H   0  0  0  0  0  0  0  0  0  0  0  0
    2.9397   -2.8455   -0.8144 C   0  0  0  0  0  0  0  0  0  0  0  0
    3.1208   -3.8301   -0.3534 H   0  0  0  0  0  0  0  0  0  0  0  0
    1.6134   -2.4122   -1.0219 C   0  0  0  0  0  0  0  0  0  0  0  0
    0.2707   -2.4679    1.2007 C   0  0  0  0  0  0  0  0  0  0  0  0
   -0.7880   -2.1587    1.3146 H   0  0  0  0  0  0  0  0  0  0  0  0
    0.4415   -3.2909    1.9220 H   0  0  0  0  0  0  0  0  0  0  0  0
  1 40  1  0  0  0  0
  1 17  1  1  0  0  0
  3 40  2  0  0  0  0
  3 16  1  0  0  0  0
  4  3  1  0  0  0  0
  5 29  2  0  0  0  0
  5  9  1  0  0  0  0
  6  5  1  0  0  0  0
  7 26  1  0  0  0  0
  7  8  1  0  0  0  0
  9 11  2  0  0  0  0
 10  9  1  0  0  0  0
 11  2  1  0  0  0  0
 11  1  1  0  0  0  0
 12 17  1  0  0  0  0
 12 14  1  0  0  0  0
 13 12  1  0  0  0  0
 15 12  1  0  0  0  0
 16  7  2  0  0  0  0
 17 31  1  0  0  0  0
 17 22  1  0  0  0  0
 18 48  2  0  0  0  0
 18 41  1  0  0  0  0
 19 18  1  0  0  0  0
 20 21  1  0  0  0  0
 20  2  2  0  0  0  0
 22 25  1  0  0  0  0
 22 24  1  0  0  0  0
 23 22  1  0  0  0  0
 26 27  1  0  0  0  0
 28 26  2  0  0  0  0
 29 20  1  0  0  0  0
 30 29  1  0  0  0  0
 31 32  1  0  0  0  0
 31 33  1  0  0  0  0
 34 31  1  0  0  0  0
 35 50  1  0  0  0  0
 35 36  1  0  0  0  0
 37 38  1  0  0  0  0
 37 53  1  0  0  0  0
 39 37  1  0  0  0  0
 40 28  1  0  0  0  0
 41 45  1  0  0  0  0
 41 35  2  0  0  0  0
 42 44  1  0  0  0  0
 42 43  1  0  0  0  0
 42 16  1  0  0  0  0
 45 42  1  0  0  0  0
 46 45  1  0  0  0  0
 47 45  1  0  0  0  0
 48 52  1  0  0  0  0
 49 48  1  0  0  0  0
 50 51  1  0  0  0  0
 52 50  2  0  0  0  0
 52 37  1  0  0  0  0
 53 54  1  0  0  0  0
 53 28  1  0  0  0  0
 53 55  1  0  0  0  0
M  END
