2
q = 0.0, confidence = 0.988

 54 58  0  0  1  0  0  0  0  0999 V2000
   -1.5120   -0.0650   -0.2730 As  0  0  1  0  0  0  0  0  0  0  0  0
    1.5546    0.2578    0.0450 P   0  0  0  0  0  0  0  0  0  0  0  0
   -3.3578   -0.2222    0.2912 C   0  0  0  0  0  0  0  0  0  0  0  0
   -4.0251   -1.4346    0.0224 C   0  0  0  0  0  0  0  0  0  0  0  0
   -3.4743   -2.2699   -0.4392 H   0  0  0  0  0  0  0  0  0  0  0  0
   -5.3679   -1.5793    0.4034 C   0  0  0  0  0  0  0  0  0  0  0  0
   -5.8886   -2.5270    0.1982 H   0  0  0  0  0  0  0  0  0  0  0  0
   -6.0384   -0.5322    1.0548 C   0  0  0  0  0  0  0  0  0  0  0  0
   -7.0904   -0.6534    1.3548 H   0  0  0  0  0  0  0  0  0  0  0  0
   -5.3625    0.6655    1.3393 C   0  0  0  0  0  0  0  0  0  0  0  0
   -5.8806    1.4825    1.8642 H   0  0  0  0  0  0  0  0  0  0  0  0
   -4.0209    0.8249    0.9615 C   0  0  0  0  0  0  0  0  0  0  0  0
   -3.4968    1.7613    1.1957 H   0  0  0  0  0  0  0  0  0  0  0  0
   -1.4525    0.8563   -2.0718 C   0  0  1  0  0  0  0  0  0  0  0  0
   -1.8330    0.2640   -2.9225 H   0  0  0  0  0  0  0  0  0  0  0  0
   -2.1823    2.1522   -1.7864 C   0  0  0  0  0  0  0  0  0  0  0  0
   -3.1348    2.7192   -2.7896 C   0  0  0  0  0  0  0  0  0  0  0  0
   -3.5795    3.6766   -2.4577 H   0  0  0  0  0  0  0  0  0  0  0  0
   -3.9645    2.0053   -2.9827 H   0  0  0  0  0  0  0  0  0  0  0  0
   -2.6375    2.8941   -3.7684 H   0  0  0  0  0  0  0  0  0  0  0  0
   -2.1727    4.0023    0.0073 C   0  0  0  0  0  0  0  0  0  0  0  0
   -1.2862    4.6655    0.1138 H   0  0  0  0  0  0  0  0  0  0  0  0
   -2.5868    3.8786    1.0322 H   0  0  0  0  0  0  0  0  0  0  0  0
   -2.9251    4.5401   -0.6002 H   0  0  0  0  0  0  0  0  0  0  0  0
   -1.7909    2.6853   -0.5919 C   0  0  0  0  0  0  0  0  0  0  0  0
   -0.8084    1.7789    0.1260 C   0  0  2  0  0  0  0  0  0  0  0  0
   -0.6339    2.0126    1.1918 H   0  0  0  0  0  0  0  0  0  0  0  0
    0.0678    1.1713   -2.1398 C   0  0  0  0  0  0  0  0  0  0  0  0
    0.2455    1.9835   -2.8725 H   0  0  0  0  0  0  0  0  0  0  0  0
    0.6437    0.2897   -2.4874 H   0  0  0  0  0  0  0  0  0  0  0  0
    0.5037    1.6229   -0.7039 C   0  0  2  0  0  0  0  0  0  0  0  0
    1.0790    2.5697   -0.7298 H   0  0  0  0  0  0  0  0  0  0  0  0
    3.0460    0.2324   -1.0194 C   0  0  0  0  0  0  0  0  0  0  0  0
    3.9862    1.2803   -0.9439 C   0  0  0  0  0  0  0  0  0  0  0  0
    3.8680    2.0786   -0.1946 H   0  0  0  0  0  0  0  0  0  0  0  0
    5.0871    1.2956   -1.8122 C   0  0  0  0  0  0  0  0  0  0  0  0
    5.8226    2.1118   -1.7474 H   0  0  0  0  0  0  0  0  0  0  0  0
    5.2543    0.2671   -2.7542 C   0  0  0  0  0  0  0  0  0  0  0  0
    6.1219    0.2783   -3.4314 H   0  0  0  0  0  0  0  0  0  0  0  0
    4.3235   -0.7814   -2.8223 C   0  0  0  0  0  0  0  0  0  0  0  0
    4.4614   -1.5975   -3.5474 H   0  0  0  0  0  0  0  0  0  0  0  0
    3.2212   -0.8066   -1.9548 C   0  0  0  0  0  0  0  0  0  0  0  0
    2.5106   -1.6466   -1.9694 H   0  0  0  0  0  0  0  0  0  0  0  0
    2.1047    0.8710    1.6818 C   0  0  0  0  0  0  0  0  0  0  0  0
    2.1158    2.2417    2.0173 C   0  0  0  0  0  0  0  0  0  0  0  0
    1.7769    3.0002    1.2956 H   0  0  0  0  0  0  0  0  0  0  0  0
    2.5592    2.6510    3.2844 C   0  0  0  0  0  0  0  0  0  0  0  0
    2.5631    3.7211    3.5418 H   0  0  0  0  0  0  0  0  0  0  0  0
    2.9949    1.6983    4.2187 C   0  0  0  0  0  0  0  0  0  0  0  0
    3.3405    2.0217    5.2125 H   0  0  0  0  0  0  0  0  0  0  0  0
    2.9845    0.3339    3.8858 C   0  0  0  0  0  0  0  0  0  0  0  0
    3.3217   -0.4160    4.6172 H   0  0  0  0  0  0  0  0  0  0  0  0
    2.5379   -0.0859    2.6250 C   0  0  0  0  0  0  0  0  0  0  0  0
    2.5203   -1.1551    2.3505 H   0  0  0  0  0  0  0  0  0  0  0  0
  1 26  1  0  0  0  0
  1  3  1  1  0  0  0
  2 44  1  0  0  0  0
  3 12  1  0  0  0  0
  4  3  2  0  0  0  0
  4  6  1  0  0  0  0
  5  4  1  0  0  0  0
  6  8  2  0  0  0  0
  7  6  1  0  0  0  0
  8 10  1  0  0  0  0
  8  9  1  0  0  0  0
 10 11  1  0  0  0  0
 12 13  1  0  0  0  0
 12 10  2  0  0  0  0
 14 15  1  6  0  0  0
 14 16  1  0  0  0  0
 14  1  1  0  0  0  0
 16 25  2  0  0  0  0
 17 18  1  0  0  0  0
 17 16  1  0  0  0  0
 19 17  1  0  0  0  0
 20 17  1  0  0  0  0
 21 22  1  0  0  0  0
 21 23  1  0  0  0  0
 24 21  1  0  0  0  0
 25 21  1  0  0  0  0
 25 26  1  0  0  0  0
 26 27  1  1  0  0  0
 28 14  1  0  0  0  0
 28 31  1  0  0  0  0
 29 28  1  0  0  0  0
 30 28  1  0  0  0  0
 31 32  1  6  0  0  0
 31  2  1  0  0  0  0
 31 26  1  0  0  0  0
 33 34  1  0  0  0  0
 33  2  1  0  0  0  0
 34 35  1  0  0  0  0
 36 37  1  0  0  0  0
 36 34  2  0  0  0  0
 38 36  1  0  0  0  0
 39 38  1  0  0  0  0
 40 38  2  0  0  0  0
 40 42  1  0  0  0  0
 41 40  1  0  0  0  0
 42 33  2  0  0  0  0
 43 42  1  0  0  0  0
 44 45  2  0  0  0  0
 44 53  1  0  0  0  0
 45 47  1  0  0  0  0
 46 45  1  0  0  0  0
 47 48  1  0  0  0  0
 47 49  2  0  0  0  0
 49 50  1  0  0  0  0
 51 49  1  0  0  0  0
 51 52  1  0  0  0  0
 53 51  2  0  0  0  0
 54 53  1  0  0  0  0
M  END
