1
q = 0.0, confidence = 1.0

 46 45  0  0  0  0  0  0  0  0999 V2000
    0.0700    0.1520   -0.5291 P   0  0  0  0  0  0  0  0  0  0  0  0
    0.0844    0.5373   -2.2015 N   0  0  0  0  0  0  0  0  0  0  0  0
    0.6027    1.6729    0.1099 N   0  0  0  0  0  0  0  0  0  0  0  0
    0.3562    3.0038   -0.4971 C   0  0  0  0  0  0  0  0  0  0  0  0
    1.3959    3.3712   -1.5664 C   0  0  0  0  0  0  0  0  0  0  0  0
   -1.0801    3.2496   -0.9802 C   0  0  0  0  0  0  0  0  0  0  0  0
    0.7403    1.6588    1.5841 C   0  0  0  0  0  0  0  0  0  0  0  0
   -0.4970    2.1956    2.3199 C   0  0  0  0  0  0  0  0  0  0  0  0
    2.0261    2.3592    2.0408 C   0  0  0  0  0  0  0  0  0  0  0  0
    1.4122   -0.8700   -0.1526 N   0  0  0  0  0  0  0  0  0  0  0  0
    2.7407   -0.4531   -0.6395 C   0  0  0  0  0  0  0  0  0  0  0  0
    3.8727   -0.6332    0.3798 C   0  0  0  0  0  0  0  0  0  0  0  0
    3.1352   -1.0616   -2.0014 C   0  0  0  0  0  0  0  0  0  0  0  0
    1.1486   -2.1774    0.4787 C   0  0  0  0  0  0  0  0  0  0  0  0
    1.6158   -3.3866   -0.3413 C   0  0  0  0  0  0  0  0  0  0  0  0
    1.5904   -2.2802    1.9487 C   0  0  0  0  0  0  0  0  0  0  0  0
    0.9877    0.7630   -2.6309 H   0  0  0  0  0  0  0  0  0  0  0  0
   -0.4273   -0.1565   -2.7545 H   0  0  0  0  0  0  0  0  0  0  0  0
    0.5289    3.7131    0.3394 H   0  0  0  0  0  0  0  0  0  0  0  0
    2.4232    3.1684   -1.2036 H   0  0  0  0  0  0  0  0  0  0  0  0
    1.2331    2.8122   -2.5083 H   0  0  0  0  0  0  0  0  0  0  0  0
    1.3256    4.4504   -1.8145 H   0  0  0  0  0  0  0  0  0  0  0  0
   -1.8114    3.0745   -0.1691 H   0  0  0  0  0  0  0  0  0  0  0  0
   -1.1918    4.3004   -1.3175 H   0  0  0  0  0  0  0  0  0  0  0  0
   -1.3320    2.5850   -1.8275 H   0  0  0  0  0  0  0  0  0  0  0  0
    0.8466    0.5861    1.8522 H   0  0  0  0  0  0  0  0  0  0  0  0
   -1.4121    1.6904    1.9557 H   0  0  0  0  0  0  0  0  0  0  0  0
   -0.4121    2.0137    3.4102 H   0  0  0  0  0  0  0  0  0  0  0  0
   -0.6210    3.2885    2.1734 H   0  0  0  0  0  0  0  0  0  0  0  0
    2.9130    1.9390    1.5285 H   0  0  0  0  0  0  0  0  0  0  0  0
    1.9956    3.4488    1.8316 H   0  0  0  0  0  0  0  0  0  0  0  0
    2.1640    2.2410    3.1346 H   0  0  0  0  0  0  0  0  0  0  0  0
    2.6356    0.6453   -0.7869 H   0  0  0  0  0  0  0  0  0  0  0  0
    3.6139   -0.1890    1.3595 H   0  0  0  0  0  0  0  0  0  0  0  0
    4.1214   -1.7014    0.5379 H   0  0  0  0  0  0  0  0  0  0  0  0
    4.7907   -0.1354    0.0064 H   0  0  0  0  0  0  0  0  0  0  0  0
    2.2882   -1.0243   -2.7130 H   0  0  0  0  0  0  0  0  0  0  0  0
    3.9838   -0.4974   -2.4407 H   0  0  0  0  0  0  0  0  0  0  0  0
    3.4502   -2.1188   -1.9135 H   0  0  0  0  0  0  0  0  0  0  0  0
    0.0403   -2.2295    0.4981 H   0  0  0  0  0  0  0  0  0  0  0  0
    1.2405   -3.3320   -1.3819 H   0  0  0  0  0  0  0  0  0  0  0  0
    2.7204   -3.4793   -0.3707 H   0  0  0  0  0  0  0  0  0  0  0  0
    1.2226   -4.3184    0.1132 H   0  0  0  0  0  0  0  0  0  0  0  0
    1.2378   -1.4054    2.5302 H   0  0  0  0  0  0  0  0  0  0  0  0
    1.1425   -3.1845    2.4089 H   0  0  0  0  0  0  0  0  0  0  0  0
    2.6878   -2.3562    2.0695 H   0  0  0  0  0  0  0  0  0  0  0  0
  1 10  1  0  0  0  0
  1  3  1  0  0  0  0
  2  1  1  0  0  0  0
  3  7  1  0  0  0  0
  4  3  1  0  0  0  0
  4 19  1  0  0  0  0
  5 20  1  0  0  0  0
  5  4  1  0  0  0  0
  6  4  1  0  0  0  0
  6 23  1  0  0  0  0
  7 26  1  0  0  0  0
  7  9  1  0  0  0  0
  7  8  1  0  0  0  0
  8 28  1  0  0  0  0
  9 32  1  0  0  0  0
 10 14  1  0  0  0  0
 11 10  1  0  0  0  0
 11 12  1  0  0  0  0
 12 35  1  0  0  0  0
 12 34  1  0  0  0  0
 13 39  1  0  0  0  0
 13 11  1  0  0  0  0
 14 40  1  0  0  0  0
 14 16  1  0  0  0  0
 15 43  1  0  0  0  0
 15 14  1  0  0  0  0
 16 46  1  0  0  0  0
 16 45  1  0  0  0  0
 16 44  1  0  0  0  0
 17  2  1  0  0  0  0
 18  2  1  0  0  0  0
 21  5  1  0  0  0  0
 22  5  1  0  0  0  0
 24  6  1  0  0  0  0
 25  6  1  0  0  0  0
 27  8  1  0  0  0  0
 29  8  1  0  0  0  0
 30  9  1  0  0  0  0
 31  9  1  0  0  0  0
 33 11  1  0  0  0  0
 36 12  1  0  0  0  0
 37 13  1  0  0  0  0
 38 13  1  0  0  0  0
 41 15  1  0  0  0  0
 42 15  1  0  0  0  0
M  END
