2
q = 0.0, confidence = 0.986

 54 58  0  0  1  0  0  0  0  0999 V2000
    1.4146    0.1847    0.0863 As  0  0  0  0  0  0  0  0  0  0  0  0
   -1.6580    0.1369   -0.3880 P   0  0  1  0  0  0  0  0  0  0  0  0
   -4.4987    0.2906   -0.5270 C   0  0  0  0  0  0  0  0  0  0  0  0
   -5.7813   -0.0341   -0.0607 C   0  0  0  0  0  0  0  0  0  0  0  0
   -5.9348   -0.8717    1.0548 C   0  0  0  0  0  0  0  0  0  0  0  0
   -4.8034   -1.4012    1.6970 C   0  0  0  0  0  0  0  0  0  0  0  0
   -3.5201   -1.0930    1.2279 C   0  0  0  0  0  0  0  0  0  0  0  0
   -3.3633   -0.2276    0.1247 C   0  0  0  0  0  0  0  0  0  0  0  0
   -1.6204    1.4696   -1.7254 C   0  0  1  0  0  0  0  0  0  0  0  0
   -2.3546    2.6245   -1.0541 C   0  0  0  0  0  0  0  0  0  0  0  0
   -1.9953    2.7117    0.2589 C   0  0  0  0  0  0  0  0  0  0  0  0
   -1.0047    1.6166    0.6108 C   0  0  2  0  0  0  0  0  0  0  0  0
    0.3178    1.8207   -0.1927 C   0  0  2  0  0  0  0  0  0  0  0  0
   -0.1016    1.8348   -1.6995 C   0  0  0  0  0  0  0  0  0  0  0  0
   -3.2226    3.5461   -1.8490 C   0  0  0  0  0  0  0  0  0  0  0  0
   -2.4201    3.7125    1.2838 C   0  0  0  0  0  0  0  0  0  0  0  0
    2.1410    1.4679    2.6368 C   0  0  0  0  0  0  0  0  0  0  0  0
    2.6155    1.4596    3.9584 C   0  0  0  0  0  0  0  0  0  0  0  0
    3.0062    0.2514    4.5573 C   0  0  0  0  0  0  0  0  0  0  0  0
    2.9193   -0.9521    3.8378 C   0  0  0  0  0  0  0  0  0  0  0  0
    2.4422   -0.9565    2.5184 C   0  0  0  0  0  0  0  0  0  0  0  0
    2.0589    0.2597    1.9185 C   0  0  0  0  0  0  0  0  0  0  0  0
    3.7772    1.6138   -0.8461 C   0  0  0  0  0  0  0  0  0  0  0  0
    4.8797    1.8337   -1.6849 C   0  0  0  0  0  0  0  0  0  0  0  0
    5.1823    0.9135   -2.7030 C   0  0  0  0  0  0  0  0  0  0  0  0
    4.3878   -0.2302   -2.8785 C   0  0  0  0  0  0  0  0  0  0  0  0
    3.2812   -0.4599   -2.0447 C   0  0  0  0  0  0  0  0  0  0  0  0
    2.9770    0.4706   -1.0349 C   0  0  0  0  0  0  0  0  0  0  0  0
   -4.3873    0.9382   -1.4070 H   0  0  0  0  0  0  0  0  0  0  0  0
   -6.6663    0.3672   -0.5772 H   0  0  0  0  0  0  0  0  0  0  0  0
   -6.9425   -1.1259    1.4171 H   0  0  0  0  0  0  0  0  0  0  0  0
   -4.9206   -2.0762    2.5579 H   0  0  0  0  0  0  0  0  0  0  0  0
   -2.6332   -1.5431    1.6994 H   0  0  0  0  0  0  0  0  0  0  0  0
   -1.9910    1.1718   -2.7228 H   0  0  0  0  0  0  0  0  0  0  0  0
   -0.8527    1.4349    1.6911 H   0  0  0  0  0  0  0  0  0  0  0  0
    0.8522    2.7398    0.1150 H   0  0  0  0  0  0  0  0  0  0  0  0
    0.0411    2.8396   -2.1437 H   0  0  0  0  0  0  0  0  0  0  0  0
    0.4921    1.1217   -2.3083 H   0  0  0  0  0  0  0  0  0  0  0  0
   -4.0459    2.9953   -2.3536 H   0  0  0  0  0  0  0  0  0  0  0  0
   -2.6431    4.0423   -2.6583 H   0  0  0  0  0  0  0  0  0  0  0  0
   -3.6772    4.3379   -1.2238 H   0  0  0  0  0  0  0  0  0  0  0  0
   -1.5482    4.2647    1.6975 H   0  0  0  0  0  0  0  0  0  0  0  0
   -2.9079    3.2066    2.1451 H   0  0  0  0  0  0  0  0  0  0  0  0
   -3.1323    4.4559    0.8778 H   0  0  0  0  0  0  0  0  0  0  0  0
    1.8341    2.4198    2.1763 H   0  0  0  0  0  0  0  0  0  0  0  0
    2.6791    2.4028    4.5224 H   0  0  0  0  0  0  0  0  0  0  0  0
    3.3772    0.2479    5.5935 H   0  0  0  0  0  0  0  0  0  0  0  0
    3.2208   -1.9001    4.3086 H   0  0  0  0  0  0  0  0  0  0  0  0
    2.3586   -1.8949    1.9426 H   0  0  0  0  0  0  0  0  0  0  0  0
    3.5522    2.3297   -0.0396 H   0  0  0  0  0  0  0  0  0  0  0  0
    5.5084    2.7256   -1.5402 H   0  0  0  0  0  0  0  0  0  0  0  0
    6.0493    1.0874   -3.3585 H   0  0  0  0  0  0  0  0  0  0  0  0
    4.6326   -0.9579   -3.6669 H   0  0  0  0  0  0  0  0  0  0  0  0
    2.6715   -1.3726   -2.1431 H   0  0  0  0  0  0  0  0  0  0  0  0
  1 22  1  0  0  0  0
  2  8  1  1  0  0  0
  2 12  1  0  0  0  0
  3  4  2  0  0  0  0
  3  8  1  0  0  0  0
  4  5  1  0  0  0  0
  5 31  1  0  0  0  0
  5  6  2  0  0  0  0
  6 32  1  0  0  0  0
  7  6  1  0  0  0  0
  7 33  1  0  0  0  0
  8  7  2  0  0  0  0
  9 34  1  6  0  0  0
  9 14  1  0  0  0  0
  9 10  1  0  0  0  0
  9  2  1  0  0  0  0
 10 11  2  0  0  0  0
 11 12  1  0  0  0  0
 11 16  1  0  0  0  0
 12 35  1  1  0  0  0
 13  1  1  0  0  0  0
 13 36  1  1  0  0  0
 13 12  1  0  0  0  0
 14 13  1  0  0  0  0
 15 41  1  0  0  0  0
 15 10  1  0  0  0  0
 16 42  1  0  0  0  0
 16 43  1  0  0  0  0
 17 18  1  0  0  0  0
 18 46  1  0  0  0  0
 18 19  2  0  0  0  0
 19 47  1  0  0  0  0
 20 48  1  0  0  0  0
 20 19  1  0  0  0  0
 21 20  2  0  0  0  0
 22 21  1  0  0  0  0
 22 17  2  0  0  0  0
 23 50  1  0  0  0  0
 24 51  1  0  0  0  0
 24 23  2  0  0  0  0
 25 24  1  0  0  0  0
 26 25  2  0  0  0  0
 26 27  1  0  0  0  0
 27 28  2  0  0  0  0
 28 23  1  0  0  0  0
 28  1  1  0  0  0  0
 29  3  1  0  0  0  0
 30  4  1  0  0  0  0
 37 14  1  0  0  0  0
 38 14  1  0  0  0  0
 39 15  1  0  0  0  0
 40 15  1  0  0  0  0
 44 16  1  0  0  0  0
 45 17  1  0  0  0  0
 49 21  1  0  0  0  0
 52 25  1  0  0  0  0
 53 26  1  0  0  0  0
 54 27  1  0  0  0  0
M  END
