1
q = 0.0, confidence = 1.0

 33 34  0  0  1  0  0  0  0  0999 V2000
    1.7121    0.7522    0.4849 P   0  0  1  0  0  0  0  0  0  0  0  0
    1.7905    1.9784    1.8879 C   0  0  1  0  0  0  0  0  0  0  0  0
    1.5150    2.6202    0.5448 C   0  0  1  0  0  0  0  0  0  0  0  0
    0.7266    1.9792    2.9625 C   0  0  0  0  0  0  0  0  0  0  0  0
    2.5050    3.5866   -0.0626 C   0  0  0  0  0  0  0  0  0  0  0  0
    3.4597    0.4340    0.0156 C   0  0  0  0  0  0  0  0  0  0  0  0
    3.8653    0.6283   -1.3310 C   0  0  0  0  0  0  0  0  0  0  0  0
    5.1961    0.3383   -1.6867 C   0  0  0  0  0  0  0  0  0  0  0  0
    6.1211   -0.1730   -0.7626 C   0  0  0  0  0  0  0  0  0  0  0  0
    5.6781   -0.4066    0.5520 C   0  0  0  0  0  0  0  0  0  0  0  0
    4.3651   -0.1214    0.9632 C   0  0  0  0  0  0  0  0  0  0  0  0
    2.9074    1.0753   -2.4085 C   0  0  0  0  0  0  0  0  0  0  0  0
    7.5370   -0.4984   -1.1653 C   0  0  0  0  0  0  0  0  0  0  0  0
    3.9631   -0.4292    2.3856 C   0  0  0  0  0  0  0  0  0  0  0  0
    2.8200    2.1399    2.2547 H   0  0  0  0  0  0  0  0  0  0  0  0
    0.4584    2.9025    0.3984 H   0  0  0  0  0  0  0  0  0  0  0  0
    0.6650    2.9754    3.4506 H   0  0  0  0  0  0  0  0  0  0  0  0
   -0.2719    1.7547    2.5368 H   0  0  0  0  0  0  0  0  0  0  0  0
    0.9347    1.2230    3.7445 H   0  0  0  0  0  0  0  0  0  0  0  0
    2.4686    4.5548    0.4820 H   0  0  0  0  0  0  0  0  0  0  0  0
    3.5426    3.2022   -0.0052 H   0  0  0  0  0  0  0  0  0  0  0  0
    2.2713    3.7956   -1.1250 H   0  0  0  0  0  0  0  0  0  0  0  0
    5.5138    0.5061   -2.7290 H   0  0  0  0  0  0  0  0  0  0  0  0
    6.3780   -0.8380    1.2864 H   0  0  0  0  0  0  0  0  0  0  0  0
    3.4190    1.7020   -3.1654 H   0  0  0  0  0  0  0  0  0  0  0  0
    2.4862    0.1958   -2.9393 H   0  0  0  0  0  0  0  0  0  0  0  0
    2.0508    1.6448   -2.0036 H   0  0  0  0  0  0  0  0  0  0  0  0
    7.7593   -0.1572   -2.1948 H   0  0  0  0  0  0  0  0  0  0  0  0
    8.2715   -0.0267   -0.4804 H   0  0  0  0  0  0  0  0  0  0  0  0
    7.7205   -1.5930   -1.1261 H   0  0  0  0  0  0  0  0  0  0  0  0
    4.6287   -1.1996    2.8192 H   0  0  0  0  0  0  0  0  0  0  0  0
    4.0277    0.4678    3.0375 H   0  0  0  0  0  0  0  0  0  0  0  0
    2.9218   -0.7987    2.4550 H   0  0  0  0  0  0  0  0  0  0  0  0
  1  6  1  6  0  0  0
  1  3  1  0  0  0  0
  1  2  1  0  0  0  0
  2 15  1  1  0  0  0
  2  4  1  0  0  0  0
  3 16  1  6  0  0  0
  3  2  1  0  0  0  0
  4 17  1  0  0  0  0
  4 19  1  0  0  0  0
  5 21  1  0  0  0  0
  5 20  1  0  0  0  0
  5  3  1  0  0  0  0
  6 11  1  0  0  0  0
  7  6  2  0  0  0  0
  8  7  1  0  0  0  0
  8  9  2  0  0  0  0
  9 10  1  0  0  0  0
 10 11  2  0  0  0  0
 10 24  1  0  0  0  0
 11 14  1  0  0  0  0
 12 27  1  0  0  0  0
 12  7  1  0  0  0  0
 13 30  1  0  0  0  0
 13  9  1  0  0  0  0
 13 29  1  0  0  0  0
 14 33  1  0  0  0  0
 14 31  1  0  0  0  0
 14 32  1  0  0  0  0
 18  4  1  0  0  0  0
 22  5  1  0  0  0  0
 23  8  1  0  0  0  0
 25 12  1  0  0  0  0
 26 12  1  0  0  0  0
 28 13  1  0  0  0  0
M  END
