1
q = 0.0, confidence = 0.998

 38 40  0  0  0  0  0  0  0  0999 V2000
   -2.0815    0.0209    0.1889 P   0  0  0  0  0  0  0  0  0  0  0  0
   -1.3051   -1.9088    2.0378 N   0  0  0  0  0  0  0  0  0  0  0  0
   -1.7423   -2.8120    1.8603 H   0  0  0  0  0  0  0  0  0  0  0  0
    0.6661   -0.6729    2.2129 N   0  0  0  0  0  0  0  0  0  0  0  0
   -2.1214   -0.7354    1.9296 C   0  0  0  0  0  0  0  0  0  0  0  0
   -1.7502    0.0500    2.6176 H   0  0  0  0  0  0  0  0  0  0  0  0
   -3.1690   -0.9744    2.1971 H   0  0  0  0  0  0  0  0  0  0  0  0
    0.0649   -1.8833    2.1823 C   0  0  0  0  0  0  0  0  0  0  0  0
    1.9968   -0.6269    2.4263 C   0  0  0  0  0  0  0  0  0  0  0  0
    2.4403    0.3836    2.4526 H   0  0  0  0  0  0  0  0  0  0  0  0
    2.7997   -1.7583    2.5868 C   0  0  0  0  0  0  0  0  0  0  0  0
    3.8800   -1.6602    2.7594 H   0  0  0  0  0  0  0  0  0  0  0  0
    2.1729   -3.0196    2.5175 C   0  0  0  0  0  0  0  0  0  0  0  0
    2.7602   -3.9432    2.6348 H   0  0  0  0  0  0  0  0  0  0  0  0
    0.7978   -3.0957    2.3144 C   0  0  0  0  0  0  0  0  0  0  0  0
    0.2794   -4.0658    2.2792 H   0  0  0  0  0  0  0  0  0  0  0  0
   -2.7513   -1.3387   -0.8383 C   0  0  0  0  0  0  0  0  0  0  0  0
   -2.0197   -1.7625   -1.9665 C   0  0  0  0  0  0  0  0  0  0  0  0
   -1.0858   -1.2396   -2.2312 H   0  0  0  0  0  0  0  0  0  0  0  0
   -2.4788   -2.8352   -2.7470 C   0  0  0  0  0  0  0  0  0  0  0  0
   -1.9054   -3.1554   -3.6298 H   0  0  0  0  0  0  0  0  0  0  0  0
   -3.6692   -3.4938   -2.4028 C   0  0  0  0  0  0  0  0  0  0  0  0
   -4.0301   -4.3346   -3.0139 H   0  0  0  0  0  0  0  0  0  0  0  0
   -4.4043   -3.0776   -1.2794 C   0  0  0  0  0  0  0  0  0  0  0  0
   -5.3404   -3.5904   -1.0120 H   0  0  0  0  0  0  0  0  0  0  0  0
   -3.9504   -2.0044   -0.4993 C   0  0  0  0  0  0  0  0  0  0  0  0
   -4.5425   -1.6780    0.3701 H   0  0  0  0  0  0  0  0  0  0  0  0
   -3.3679    1.3196    0.2784 C   0  0  0  0  0  0  0  0  0  0  0  0
   -4.5111    1.3224   -0.5463 C   0  0  0  0  0  0  0  0  0  0  0  0
   -4.6698    0.5151   -1.2762 H   0  0  0  0  0  0  0  0  0  0  0  0
   -5.4476    2.3627   -0.4413 C   0  0  0  0  0  0  0  0  0  0  0  0
   -6.3357    2.3607   -1.0909 H   0  0  0  0  0  0  0  0  0  0  0  0
   -5.2557    3.3991    0.4849 C   0  0  0  0  0  0  0  0  0  0  0  0
   -5.9948    4.2100    0.5660 H   0  0  0  0  0  0  0  0  0  0  0  0
   -4.1138    3.4038    1.3034 C   0  0  0  0  0  0  0  0  0  0  0  0
   -3.9561    4.2176    2.0271 H   0  0  0  0  0  0  0  0  0  0  0  0
   -3.1674    2.3761    1.1952 C   0  0  0  0  0  0  0  0  0  0  0  0
   -2.2622    2.4008    1.8241 H   0  0  0  0  0  0  0  0  0  0  0  0
  1 28  1  0  0  0  0
  1  5  1  0  0  0  0
  2  8  1  0  0  0  0
  3  2  1  0  0  0  0
  4  9  1  0  0  0  0
  5  2  1  0  0  0  0
  5  7  1  0  0  0  0
  5  6  1  0  0  0  0
  8  4  2  0  0  0  0
  8 15  1  0  0  0  0
  9 10  1  0  0  0  0
  9 11  2  0  0  0  0
 11 12  1  0  0  0  0
 13 11  1  0  0  0  0
 13 14  1  0  0  0  0
 15 13  2  0  0  0  0
 16 15  1  0  0  0  0
 17 26  1  0  0  0  0
 17  1  1  0  0  0  0
 18 17  2  0  0  0  0
 19 18  1  0  0  0  0
 20 22  2  0  0  0  0
 20 18  1  0  0  0  0
 21 20  1  0  0  0  0
 22 24  1  0  0  0  0
 23 22  1  0  0  0  0
 24 25  1  0  0  0  0
 24 26  2  0  0  0  0
 26 27  1  0  0  0  0
 28 37  1  0  0  0  0
 29 31  1  0  0  0  0
 29 28  2  0  0  0  0
 30 29  1  0  0  0  0
 31 33  2  0  0  0  0
 32 31  1  0  0  0  0
 33 34  1  0  0  0  0
 33 35  1  0  0  0  0
 35 36  1  0  0  0  0
 37 35  2  0  0  0  0
 37 38  1  0  0  0  0
M  END
