1
 OpenBabel05122313063D

 25 24  0  0  0  0  0  0  0  0999 V2000
    1.5624    0.7176   -0.1723 P   0  0  0  0  0  0  0  0  0  0  0  0
    3.1449    0.3467   -0.0122 O   0  0  0  0  0  0  0  0  0  0  0  0
    3.5895   -0.5347    1.0507 C   0  0  0  0  0  0  0  0  0  0  0  0
    3.7785    0.0871    1.9536 H   0  0  0  0  0  0  0  0  0  0  0  0
    2.7860   -1.2660    1.2828 H   0  0  0  0  0  0  0  0  0  0  0  0
    4.8364   -1.2522    0.5816 C   0  0  0  0  0  0  0  0  0  0  0  0
    5.2271   -1.9015    1.3905 H   0  0  0  0  0  0  0  0  0  0  0  0
    5.6281   -0.5311    0.2964 H   0  0  0  0  0  0  0  0  0  0  0  0
    4.5885   -1.8850   -0.2922 H   0  0  0  0  0  0  0  0  0  0  0  0
    1.2829    1.8014    1.0127 O   0  0  0  0  0  0  0  0  0  0  0  0
    2.0749    3.0098    1.1193 C   0  0  0  0  0  0  0  0  0  0  0  0
    3.0502    2.8607    0.6096 H   0  0  0  0  0  0  0  0  0  0  0  0
    2.2746    3.1387    2.2030 H   0  0  0  0  0  0  0  0  0  0  0  0
    1.3233    4.1979    0.5476 C   0  0  0  0  0  0  0  0  0  0  0  0
    1.9227    5.1227    0.6709 H   0  0  0  0  0  0  0  0  0  0  0  0
    0.3557    4.3390    1.0684 H   0  0  0  0  0  0  0  0  0  0  0  0
    1.1261    4.0424   -0.5302 H   0  0  0  0  0  0  0  0  0  0  0  0
    1.6470    1.6452   -1.5084 O   0  0  0  0  0  0  0  0  0  0  0  0
    1.5382    0.9999   -2.8104 C   0  0  0  0  0  0  0  0  0  0  0  0
    2.2567    1.5387   -3.4598 H   0  0  0  0  0  0  0  0  0  0  0  0
    1.8689   -0.0583   -2.7299 H   0  0  0  0  0  0  0  0  0  0  0  0
    0.1190    1.0936   -3.3366 C   0  0  0  0  0  0  0  0  0  0  0  0
    0.0683    0.6820   -4.3648 H   0  0  0  0  0  0  0  0  0  0  0  0
   -0.2298    2.1453   -3.3567 H   0  0  0  0  0  0  0  0  0  0  0  0
   -0.5701    0.5082   -2.6955 H   0  0  0  0  0  0  0  0  0  0  0  0
  1  2  1  0  0  0  0
  1 10  1  0  0  0  0
  2  3  1  0  0  0  0
  3  5  1  0  0  0  0
  3  4  1  0  0  0  0
  6  3  1  0  0  0  0
  6  7  1  0  0  0  0
  8  6  1  0  0  0  0
  9  6  1  0  0  0  0
 10 11  1  0  0  0  0
 11 13  1  0  0  0  0
 12 11  1  0  0  0  0
 14 15  1  0  0  0  0
 14 16  1  0  0  0  0
 14 11  1  0  0  0  0
 17 14  1  0  0  0  0
 18  1  1  0  0  0  0
 19 21  1  0  0  0  0
 19 18  1  0  0  0  0
 20 19  1  0  0  0  0
 22 19  1  0  0  0  0
 22 25  1  0  0  0  0
 23 22  1  0  0  0  0
 24 22  1  0  0  0  0
M  END
