2
 OpenBabel05122313063D

 49 48  0  0  0  0  0  0  0  0999 V2000
   -2.6149   -0.0916    0.0739 P   0  0  0  0  0  4  0  0  0  0  0  0
    0.5078   -0.2074   -1.0186 P   0  0  0  0  0  0  0  0  0  0  0  0
   -2.2116   -1.3969    1.9188 Si  0  0  0  0  0  0  0  0  0  0  0  0
   -3.2632   -1.4424   -1.6672 Si  0  0  0  0  0  0  0  0  0  0  0  0
   -4.2700    2.4793    0.1403 N   0  3  0  0  0  0  0  0  0  0  0  0
   -2.8170   -0.5570   -3.2785 C   0  0  0  0  0  0  0  0  0  0  0  0
   -3.3694    0.3966   -3.3928 H   0  0  0  0  0  0  0  0  0  0  0  0
   -3.0718   -1.2028   -4.1447 H   0  0  0  0  0  0  0  0  0  0  0  0
   -1.7329   -0.3317   -3.3219 H   0  0  0  0  0  0  0  0  0  0  0  0
   -2.3900   -3.1199   -1.6040 C   0  0  0  0  0  0  0  0  0  0  0  0
   -1.2891   -3.0181   -1.6686 H   0  0  0  0  0  0  0  0  0  0  0  0
   -2.7278   -3.7325   -2.4663 H   0  0  0  0  0  0  0  0  0  0  0  0
   -2.6345   -3.6769   -0.6778 H   0  0  0  0  0  0  0  0  0  0  0  0
   -4.1852    2.5115   -1.3470 C   0  0  0  0  0  0  0  0  0  0  0  0
   -4.3299    3.5476   -1.7139 H   0  0  0  0  0  0  0  0  0  0  0  0
   -4.9693    1.8529   -1.7626 H   0  0  0  0  0  0  0  0  0  0  0  0
   -3.1877    2.1464   -1.6519 H   0  0  0  0  0  0  0  0  0  0  0  0
   -3.7726   -2.4280    2.2050 C   0  0  0  0  0  0  0  0  0  0  0  0
   -4.6652   -1.7748    2.2797 H   0  0  0  0  0  0  0  0  0  0  0  0
   -3.6836   -3.0017    3.1510 H   0  0  0  0  0  0  0  0  0  0  0  0
   -3.9420   -3.1541    1.3840 H   0  0  0  0  0  0  0  0  0  0  0  0
   -3.1707    3.3058    0.7241 C   0  0  0  0  0  0  0  0  0  0  0  0
   -2.1973    2.8631    0.4464 H   0  0  0  0  0  0  0  0  0  0  0  0
   -3.2708    3.2968    1.8237 H   0  0  0  0  0  0  0  0  0  0  0  0
   -3.2399    4.3451    0.3447 H   0  0  0  0  0  0  0  0  0  0  0  0
   -5.5813    3.0446    0.5686 C   0  0  0  0  0  0  0  0  0  0  0  0
   -5.6551    4.1056    0.2553 H   0  0  0  0  0  0  0  0  0  0  0  0
   -5.6593    2.9691    1.6678 H   0  0  0  0  0  0  0  0  0  0  0  0
   -6.3954    2.4558    0.1106 H   0  0  0  0  0  0  0  0  0  0  0  0
   -0.6961   -2.4998    1.6888 C   0  0  0  0  0  0  0  0  0  0  0  0
   -0.7735   -3.1870    0.8253 H   0  0  0  0  0  0  0  0  0  0  0  0
   -0.5746   -3.1165    2.6045 H   0  0  0  0  0  0  0  0  0  0  0  0
    0.2246   -1.8942    1.5752 H   0  0  0  0  0  0  0  0  0  0  0  0
   -0.9715    0.9212   -0.3642 B   0  0  0  0  0  0  0  0  0  0  0  0
   -5.1294   -1.7338   -1.5752 C   0  0  0  0  0  0  0  0  0  0  0  0
   -5.4246   -2.1501   -0.5915 H   0  0  0  0  0  0  0  0  0  0  0  0
   -5.4280   -2.4572   -2.3628 H   0  0  0  0  0  0  0  0  0  0  0  0
   -5.7020   -0.7983   -1.7290 H   0  0  0  0  0  0  0  0  0  0  0  0
   -1.8863   -0.2329    3.3665 C   0  0  0  0  0  0  0  0  0  0  0  0
   -0.9631    0.3552    3.1958 H   0  0  0  0  0  0  0  0  0  0  0  0
   -1.7352   -0.8389    4.2847 H   0  0  0  0  0  0  0  0  0  0  0  0
   -2.7314    0.4596    3.5419 H   0  0  0  0  0  0  0  0  0  0  0  0
   -4.2039    0.9514    0.6995 B   0  0  0  0  0  0  0  0  0  0  0  0
   -0.6044    1.4682    0.6705 H   0  0  0  0  0  0  0  0  0  0  0  0
    0.0927   -1.5744   -0.9246 H   0  0  0  0  0  0  0  0  0  0  0  0
   -4.1596    1.0390    1.9203 H   0  0  0  0  0  0  0  0  0  0  0  0
    0.4345   -0.1407   -2.4495 H   0  0  0  0  0  0  0  0  0  0  0  0
   -5.2197    0.3866    0.3156 H   0  0  0  0  0  0  0  0  0  0  0  0
   -1.2120    1.7390   -1.2506 H   0  0  0  0  0  0  0  0  0  0  0  0
  1 43  1  0  0  0  0
  1  3  1  0  0  0  0
  2 45  1  0  0  0  0
  2 34  1  0  0  0  0
  3 18  1  0  0  0  0
  3 39  1  0  0  0  0
  4 10  1  0  0  0  0
  4 35  1  0  0  0  0
  4  1  1  0  0  0  0
  5 26  1  0  0  0  0
  5 43  1  0  0  0  0
  5 22  1  0  0  0  0
  6  4  1  0  0  0  0
  7  6  1  0  0  0  0
  8  6  1  0  0  0  0
  9  6  1  0  0  0  0
 10 13  1  0  0  0  0
 11 10  1  0  0  0  0
 12 10  1  0  0  0  0
 14  5  1  0  0  0  0
 15 14  1  0  0  0  0
 16 14  1  0  0  0  0
 17 14  1  0  0  0  0
 18 19  1  0  0  0  0
 18 20  1  0  0  0  0
 21 18  1  0  0  0  0
 22 24  1  0  0  0  0
 23 22  1  0  0  0  0
 25 22  1  0  0  0  0
 26 28  1  0  0  0  0
 27 26  1  0  0  0  0
 29 26  1  0  0  0  0
 30  3  1  0  0  0  0
 30 32  1  0  0  0  0
 31 30  1  0  0  0  0
 33 30  1  0  0  0  0
 34  1  1  0  0  0  0
 34 44  1  0  0  0  0
 35 36  1  0  0  0  0
 37 35  1  0  0  0  0
 38 35  1  0  0  0  0
 39 42  1  0  0  0  0
 39 41  1  0  0  0  0
 40 39  1  0  0  0  0
 43 46  1  0  0  0  0
 47  2  1  0  0  0  0
 48 43  1  0  0  0  0
 49 34  1  0  0  0  0
M  CHG  1   5   1
M  END
