2
 OpenBabel05122313063D

 15 14  0  0  0  0  0  0  0  0999 V2000
   -4.3636    0.0062   -0.5433 S   0  0  0  0  0  3  0  0  0  0  0  0
   -1.2118    0.5697   -0.6926 P   0  0  0  0  0  0  0  0  0  0  0  0
   -1.5944    1.9320   -0.4438 H   0  0  0  0  0  0  0  0  0  0  0  0
   -1.4703    0.5816   -2.1037 H   0  0  0  0  0  0  0  0  0  0  0  0
   -2.6114   -0.5454    0.0895 B   0  0  0  0  0  0  0  0  0  0  0  0
   -5.4667   -1.1378    0.3399 C   0  0  0  0  0  0  0  0  0  0  0  0
   -5.2837   -2.1404   -0.0887 H   0  0  0  0  0  0  0  0  0  0  0  0
   -6.5181   -0.8391    0.1700 H   0  0  0  0  0  0  0  0  0  0  0  0
   -5.2131   -1.1401    1.4171 H   0  0  0  0  0  0  0  0  0  0  0  0
   -4.6970    1.5473    0.3597 C   0  0  0  0  0  0  0  0  0  0  0  0
   -4.4969    1.3973    1.4380 H   0  0  0  0  0  0  0  0  0  0  0  0
   -5.7426    1.8591    0.1795 H   0  0  0  0  0  0  0  0  0  0  0  0
   -4.0054    2.3090   -0.0455 H   0  0  0  0  0  0  0  0  0  0  0  0
   -2.4984   -1.6836   -0.3457 H   0  0  0  0  0  0  0  0  0  0  0  0
   -2.6170   -0.4515    1.3099 H   0  0  0  0  0  0  0  0  0  0  0  0
  1  5  1  0  0  0  0
  1  6  1  0  0  0  0
  1 10  1  0  0  0  0
  2  3  1  0  0  0  0
  2  5  1  0  0  0  0
  4  2  1  0  0  0  0
  5 15  1  0  0  0  0
  6  9  1  0  0  0  0
  7  6  1  0  0  0  0
  8  6  1  0  0  0  0
 10 11  1  0  0  0  0
 12 10  1  0  0  0  0
 13 10  1  0  0  0  0
 14  5  1  0  0  0  0
M  END
