1
 OpenBabel05122313063D

 31 32  0  0  1  0  0  0  0  0999 V2000
   -2.1845    0.6839   -0.2468 P   0  0  2  0  0  0  0  0  0  0  0  0
   -3.9413    2.6743   -0.8192 N   0  0  1  0  0  0  0  0  0  0  0  0
   -4.4371    1.4148    1.2384 N   0  0  0  0  0  0  0  0  0  0  0  0
   -4.6189    0.4429   -1.5994 N   0  0  0  0  0  0  0  0  0  0  0  0
   -3.1098    0.8392    1.3606 C   0  0  0  0  0  0  0  0  0  0  0  0
   -3.1928   -0.1590    1.8240 H   0  0  0  0  0  0  0  0  0  0  0  0
   -2.4524    1.4808    1.9919 H   0  0  0  0  0  0  0  0  0  0  0  0
   -2.5016    2.4340   -0.8290 C   0  0  0  0  0  0  0  0  0  0  0  0
   -1.9685    3.1245   -0.1436 H   0  0  0  0  0  0  0  0  0  0  0  0
   -2.0901    2.5786   -1.8492 H   0  0  0  0  0  0  0  0  0  0  0  0
   -4.6530    1.8953   -1.8167 C   0  0  0  0  0  0  0  0  0  0  0  0
   -4.1969    2.1231   -2.8056 H   0  0  0  0  0  0  0  0  0  0  0  0
   -5.7233    2.1728   -1.8362 H   0  0  0  0  0  0  0  0  0  0  0  0
   -3.3084   -0.1659   -1.4832 C   0  0  0  0  0  0  0  0  0  0  0  0
   -2.7490   -0.1274   -2.4465 H   0  0  0  0  0  0  0  0  0  0  0  0
   -3.3822   -1.2233   -1.1870 H   0  0  0  0  0  0  0  0  0  0  0  0
   -4.5186    2.6920    0.5146 C   0  0  0  0  0  0  0  0  0  0  0  0
   -5.5788    2.9893    0.4400 H   0  0  0  0  0  0  0  0  0  0  0  0
   -3.9734    3.4688    1.0969 H   0  0  0  0  0  0  0  0  0  0  0  0
   -6.8960    0.3720   -1.4496 O   0  0  0  0  0  0  0  0  0  0  0  0
   -5.7527   -1.7158   -1.1052 C   0  0  0  0  0  0  0  0  0  0  0  0
   -6.7829   -2.1068   -1.1632 H   0  0  0  0  0  0  0  0  0  0  0  0
   -5.3736   -1.8794   -0.0757 H   0  0  0  0  0  0  0  0  0  0  0  0
   -5.1052   -2.2769   -1.8069 H   0  0  0  0  0  0  0  0  0  0  0  0
   -5.5173    0.6660    1.6896 C   0  0  0  0  0  0  0  0  0  0  0  0
   -5.8188   -0.2298   -1.4033 C   0  0  0  0  0  0  0  0  0  0  0  0
   -6.8903    1.3127    1.6410 C   0  0  0  0  0  0  0  0  0  0  0  0
   -7.2686    1.3266    0.5982 H   0  0  0  0  0  0  0  0  0  0  0  0
   -6.8979    2.3437    2.0457 H   0  0  0  0  0  0  0  0  0  0  0  0
   -7.5653    0.6804    2.2435 H   0  0  0  0  0  0  0  0  0  0  0  0
   -5.3616   -0.4800    2.1207 O   0  0  0  0  0  0  0  0  0  0  0  0
  1 14  1  6  0  0  0
  1  5  1  0  0  0  0
  2 11  1  6  0  0  0
  2 17  1  0  0  0  0
  3  5  1  0  0  0  0
  3 25  1  0  0  0  0
  4 14  1  0  0  0  0
  4 26  1  0  0  0  0
  5  6  1  0  0  0  0
  5  7  1  0  0  0  0
  8  2  1  0  0  0  0
  8  1  1  0  0  0  0
  8  9  1  0  0  0  0
 10  8  1  0  0  0  0
 11  4  1  0  0  0  0
 12 11  1  0  0  0  0
 13 11  1  0  0  0  0
 14 16  1  0  0  0  0
 15 14  1  0  0  0  0
 17 19  1  0  0  0  0
 17  3  1  0  0  0  0
 18 17  1  0  0  0  0
 20 26  2  0  0  0  0
 21 23  1  0  0  0  0
 22 21  1  0  0  0  0
 24 21  1  0  0  0  0
 25 31  2  0  0  0  0
 26 21  1  0  0  0  0
 27 25  1  0  0  0  0
 27 29  1  0  0  0  0
 27 30  1  0  0  0  0
 28 27  1  0  0  0  0
M  END
