1
 OpenBabel05122313063D

 34 36  0  0  0  0  0  0  0  0999 V2000
   -2.6285    0.1999    0.0428 P   0  0  0  0  0  0  0  0  0  0  0  0
   -0.5624    5.3947   -2.0706 F   0  0  0  0  0  0  0  0  0  0  0  0
   -7.3255   -1.0623   -3.4110 F   0  0  0  0  0  0  0  0  0  0  0  0
   -4.8500    1.3660    5.4654 F   0  0  0  0  0  0  0  0  0  0  0  0
   -2.0652    1.8240   -0.6038 C   0  0  0  0  0  0  0  0  0  0  0  0
   -1.0577    2.5210    0.1018 C   0  0  0  0  0  0  0  0  0  0  0  0
   -0.6659    2.1132    1.0462 H   0  0  0  0  0  0  0  0  0  0  0  0
   -0.5523    3.7318   -0.3858 C   0  0  0  0  0  0  0  0  0  0  0  0
    0.2270    4.2895    0.1527 H   0  0  0  0  0  0  0  0  0  0  0  0
   -1.0486    4.2350   -1.5960 C   0  0  0  0  0  0  0  0  0  0  0  0
   -2.0365    3.5591   -2.3217 C   0  0  0  0  0  0  0  0  0  0  0  0
   -2.3987    3.9859   -3.2678 H   0  0  0  0  0  0  0  0  0  0  0  0
   -2.5425    2.3515   -1.8203 C   0  0  0  0  0  0  0  0  0  0  0  0
   -3.3212    1.8155   -2.3826 H   0  0  0  0  0  0  0  0  0  0  0  0
   -4.0986   -0.2055   -0.9732 C   0  0  0  0  0  0  0  0  0  0  0  0
   -3.9588   -1.1193   -2.0376 C   0  0  0  0  0  0  0  0  0  0  0  0
   -2.9916   -1.6195   -2.1972 H   0  0  0  0  0  0  0  0  0  0  0  0
   -5.0470   -1.4079   -2.8705 C   0  0  0  0  0  0  0  0  0  0  0  0
   -4.9626   -2.1220   -3.7018 H   0  0  0  0  0  0  0  0  0  0  0  0
   -6.2759   -0.7841   -2.6196 C   0  0  0  0  0  0  0  0  0  0  0  0
   -6.4434    0.1183   -1.5604 C   0  0  0  0  0  0  0  0  0  0  0  0
   -7.4283    0.5764   -1.3917 H   0  0  0  0  0  0  0  0  0  0  0  0
   -5.3470    0.4046   -0.7368 C   0  0  0  0  0  0  0  0  0  0  0  0
   -5.4700    1.1039    0.1040 H   0  0  0  0  0  0  0  0  0  0  0  0
   -3.2847    0.5957    1.7133 C   0  0  0  0  0  0  0  0  0  0  0  0
   -3.6718    1.9062    2.0679 C   0  0  0  0  0  0  0  0  0  0  0  0
   -3.5537    2.7321    1.3508 H   0  0  0  0  0  0  0  0  0  0  0  0
   -4.2033    2.1714    3.3375 C   0  0  0  0  0  0  0  0  0  0  0  0
   -4.5081    3.1849    3.6351 H   0  0  0  0  0  0  0  0  0  0  0  0
   -4.3443    1.1147    4.2460 C   0  0  0  0  0  0  0  0  0  0  0  0
   -3.9691   -0.1943    3.9162 C   0  0  0  0  0  0  0  0  0  0  0  0
   -4.0945   -0.9959    4.6581 H   0  0  0  0  0  0  0  0  0  0  0  0
   -3.4362   -0.4524    2.6475 C   0  0  0  0  0  0  0  0  0  0  0  0
   -3.1418   -1.4766    2.3604 H   0  0  0  0  0  0  0  0  0  0  0  0
  1 25  1  0  0  0  0
  2 10  1  0  0  0  0
  3 20  1  0  0  0  0
  5  1  1  0  0  0  0
  5  6  1  0  0  0  0
  6  7  1  0  0  0  0
  8  6  2  0  0  0  0
  8  9  1  0  0  0  0
 10  8  1  0  0  0  0
 11 13  1  0  0  0  0
 11 10  2  0  0  0  0
 12 11  1  0  0  0  0
 13  5  2  0  0  0  0
 14 13  1  0  0  0  0
 15 23  1  0  0  0  0
 15  1  1  0  0  0  0
 16 15  2  0  0  0  0
 17 16  1  0  0  0  0
 18 20  2  0  0  0  0
 18 16  1  0  0  0  0
 19 18  1  0  0  0  0
 20 21  1  0  0  0  0
 21 22  1  0  0  0  0
 21 23  2  0  0  0  0
 23 24  1  0  0  0  0
 25 26  2  0  0  0  0
 25 33  1  0  0  0  0
 26 28  1  0  0  0  0
 27 26  1  0  0  0  0
 28 29  1  0  0  0  0
 28 30  2  0  0  0  0
 30  4  1  0  0  0  0
 31 30  1  0  0  0  0
 31 32  1  0  0  0  0
 33 31  2  0  0  0  0
 34 33  1  0  0  0  0
M  END
