1
 OpenBabel05122313063D

 22 24  0  0  1  0  0  0  0  0999 V2000
    2.2252   -0.5535   -0.0934 P   0  0  1  0  0  0  0  0  0  0  0  0
    4.0221   -2.6123   -0.6344 N   0  0  1  0  0  0  0  0  0  0  0  0
    4.5509   -1.1632    1.2884 N   0  0  2  0  0  0  0  0  0  0  0  0
    4.8273   -0.3163   -1.0091 N   0  0  1  0  0  0  0  0  0  0  0  0
    2.5933   -2.3011   -0.6959 C   0  0  0  0  0  0  0  0  0  0  0  0
    2.0072   -2.9958   -0.0585 H   0  0  0  0  0  0  0  0  0  0  0  0
    2.2187   -2.4041   -1.7360 H   0  0  0  0  0  0  0  0  0  0  0  0
    3.1993   -0.6504    1.5111 C   0  0  0  0  0  0  0  0  0  0  0  0
    3.2308    0.3687    1.9470 H   0  0  0  0  0  0  0  0  0  0  0  0
    2.6413   -1.3078    2.2103 H   0  0  0  0  0  0  0  0  0  0  0  0
    3.5212    0.3314   -1.1354 C   0  0  0  0  0  0  0  0  0  0  0  0
    3.1833    0.3328   -2.1923 H   0  0  0  0  0  0  0  0  0  0  0  0
    3.5807    1.3865   -0.8033 H   0  0  0  0  0  0  0  0  0  0  0  0
    5.3150   -0.2998    0.3768 C   0  0  0  0  0  0  0  0  0  0  0  0
    6.3687   -0.6507    0.3741 H   0  0  0  0  0  0  0  0  0  0  0  0
    5.2931    0.7421    0.7576 H   0  0  0  0  0  0  0  0  0  0  0  0
    4.8077   -1.7063   -1.4824 C   0  0  0  0  0  0  0  0  0  0  0  0
    5.8547   -2.0763   -1.5049 H   0  0  0  0  0  0  0  0  0  0  0  0
    4.4057   -1.7334   -2.5163 H   0  0  0  0  0  0  0  0  0  0  0  0
    4.5347   -2.5275    0.7396 C   0  0  0  0  0  0  0  0  0  0  0  0
    3.9214   -3.1763    1.3978 H   0  0  0  0  0  0  0  0  0  0  0  0
    5.5773   -2.9103    0.7421 H   0  0  0  0  0  0  0  0  0  0  0  0
  1 11  1  6  0  0  0
  1  8  1  0  0  0  0
  2 17  1  6  0  0  0
  2 20  1  0  0  0  0
  3 14  1  6  0  0  0
  3  8  1  0  0  0  0
  4 17  1  1  0  0  0
  4 14  1  0  0  0  0
  5  2  1  0  0  0  0
  5  1  1  0  0  0  0
  5  6  1  0  0  0  0
  7  5  1  0  0  0  0
  8  9  1  0  0  0  0
  8 10  1  0  0  0  0
 11  4  1  0  0  0  0
 11 13  1  0  0  0  0
 12 11  1  0  0  0  0
 14 16  1  0  0  0  0
 15 14  1  0  0  0  0
 18 17  1  0  0  0  0
 19 17  1  0  0  0  0
 20 22  1  0  0  0  0
 20  3  1  0  0  0  0
 20 21  1  0  0  0  0
M  END
