1
 OpenBabel05122313063D

 29 28  0  0  0  0  0  0  0  0999 V2000
   -1.9485    1.2589   -0.0289 P   0  0  0  0  0  0  0  0  0  0  0  0
   -4.1901    1.3177    1.4718 F   0  0  0  0  0  0  0  0  0  0  0  0
   -5.1040   -1.0835    1.1982 F   0  0  0  0  0  0  0  0  0  0  0  0
   -4.4345   -2.3050   -1.1317 F   0  0  0  0  0  0  0  0  0  0  0  0
   -3.2289   -3.0118    0.5382 F   0  0  0  0  0  0  0  0  0  0  0  0
   -2.3541   -1.6724   -0.9506 F   0  0  0  0  0  0  0  0  0  0  0  0
   -1.7330    2.7485    1.0866 C   0  0  0  0  0  0  0  0  0  0  0  0
   -2.7388    3.2108    1.1664 H   0  0  0  0  0  0  0  0  0  0  0  0
   -1.2694    2.3144    2.4818 C   0  0  0  0  0  0  0  0  0  0  0  0
   -1.2301    3.2021    3.1462 H   0  0  0  0  0  0  0  0  0  0  0  0
   -1.9453    1.5674    2.9393 H   0  0  0  0  0  0  0  0  0  0  0  0
   -0.2581    1.8642    2.4393 H   0  0  0  0  0  0  0  0  0  0  0  0
   -0.7543    3.7393    0.4419 C   0  0  0  0  0  0  0  0  0  0  0  0
    0.2285    3.2686    0.2424 H   0  0  0  0  0  0  0  0  0  0  0  0
   -1.1301    4.1526   -0.5143 H   0  0  0  0  0  0  0  0  0  0  0  0
   -0.5949    4.5914    1.1340 H   0  0  0  0  0  0  0  0  0  0  0  0
   -2.5707    1.9355   -1.6616 C   0  0  0  0  0  0  0  0  0  0  0  0
   -1.6840    2.5073   -2.0112 H   0  0  0  0  0  0  0  0  0  0  0  0
   -3.7800    2.8594   -1.4909 C   0  0  0  0  0  0  0  0  0  0  0  0
   -4.6533    2.3186   -1.0715 H   0  0  0  0  0  0  0  0  0  0  0  0
   -3.5691    3.7277   -0.8368 H   0  0  0  0  0  0  0  0  0  0  0  0
   -4.0828    3.2574   -2.4815 H   0  0  0  0  0  0  0  0  0  0  0  0
   -2.8246    0.8145   -2.6723 C   0  0  0  0  0  0  0  0  0  0  0  0
   -3.0893    1.2622   -3.6522 H   0  0  0  0  0  0  0  0  0  0  0  0
   -1.9190    0.1950   -2.8119 H   0  0  0  0  0  0  0  0  0  0  0  0
   -3.6682    0.1628   -2.3677 H   0  0  0  0  0  0  0  0  0  0  0  0
   -3.4603    0.4806    0.6952 C   0  0  0  0  0  0  0  0  0  0  0  0
   -3.9633   -0.7707    0.5672 C   0  0  0  0  0  0  0  0  0  0  0  0
   -3.4705   -1.9463   -0.2453 C   0  0  0  0  0  0  0  0  0  0  0  0
  1 27  1  0  0  0  0
  1  7  1  0  0  0  0
  4 29  1  0  0  0  0
  6 29  1  0  0  0  0
  7  8  1  0  0  0  0
  7  9  1  0  0  0  0
  9 11  1  0  0  0  0
  9 10  1  0  0  0  0
 12  9  1  0  0  0  0
 13  7  1  0  0  0  0
 13 16  1  0  0  0  0
 14 13  1  0  0  0  0
 15 13  1  0  0  0  0
 17 19  1  0  0  0  0
 17  1  1  0  0  0  0
 18 17  1  0  0  0  0
 19 20  1  0  0  0  0
 19 21  1  0  0  0  0
 22 19  1  0  0  0  0
 23 26  1  0  0  0  0
 23 17  1  0  0  0  0
 24 23  1  0  0  0  0
 25 23  1  0  0  0  0
 27  2  1  0  0  0  0
 28 27  2  0  0  0  0
 28  3  1  0  0  0  0
 29  5  1  0  0  0  0
 29 28  1  0  0  0  0
M  END
