1
 OpenBabel05122313063D

 37 39  0  0  0  0  0  0  0  0999 V2000
   -2.2979   -0.4535   -0.1225 P   0  0  0  0  0  0  0  0  0  0  0  0
   -3.3227    1.0395    0.1731 C   0  0  0  0  0  0  0  0  0  0  0  0
   -2.9004    1.9455    1.1679 C   0  0  0  0  0  0  0  0  0  0  0  0
   -1.9461    1.7726    1.6901 H   0  0  0  0  0  0  0  0  0  0  0  0
   -3.6790    3.0655    1.4770 C   0  0  0  0  0  0  0  0  0  0  0  0
   -3.3367    3.7630    2.2580 H   0  0  0  0  0  0  0  0  0  0  0  0
   -4.8855    3.3275    0.7925 C   0  0  0  0  0  0  0  0  0  0  0  0
   -5.2894    2.4197   -0.2060 C   0  0  0  0  0  0  0  0  0  0  0  0
   -6.2247    2.6048   -0.7577 H   0  0  0  0  0  0  0  0  0  0  0  0
   -4.5233    1.2860   -0.5145 C   0  0  0  0  0  0  0  0  0  0  0  0
   -4.8607    0.5966   -1.3024 H   0  0  0  0  0  0  0  0  0  0  0  0
   -5.6934    4.5623    1.0998 C   0  0  0  0  0  0  0  0  0  0  0  0
   -6.7340    4.4736    0.7318 H   0  0  0  0  0  0  0  0  0  0  0  0
   -5.7257    4.7677    2.1886 H   0  0  0  0  0  0  0  0  0  0  0  0
   -5.2462    5.4574    0.6162 H   0  0  0  0  0  0  0  0  0  0  0  0
   -2.8286   -1.1315   -1.7510 C   0  0  0  0  0  0  0  0  0  0  0  0
   -2.0520   -0.8899   -2.9021 C   0  0  0  0  0  0  0  0  0  0  0  0
   -1.1324   -0.2909   -2.8170 H   0  0  0  0  0  0  0  0  0  0  0  0
   -2.4660   -1.3907   -4.1456 C   0  0  0  0  0  0  0  0  0  0  0  0
   -1.8524   -1.1973   -5.0386 H   0  0  0  0  0  0  0  0  0  0  0  0
   -3.6523   -2.1331   -4.2518 C   0  0  0  0  0  0  0  0  0  0  0  0
   -3.9725   -2.5266   -5.2288 H   0  0  0  0  0  0  0  0  0  0  0  0
   -4.4286   -2.3772   -3.1074 C   0  0  0  0  0  0  0  0  0  0  0  0
   -5.3586   -2.9610   -3.1832 H   0  0  0  0  0  0  0  0  0  0  0  0
   -4.0196   -1.8828   -1.8602 C   0  0  0  0  0  0  0  0  0  0  0  0
   -4.6230   -2.0893   -0.9638 H   0  0  0  0  0  0  0  0  0  0  0  0
   -2.9894   -1.6800    1.0624 C   0  0  0  0  0  0  0  0  0  0  0  0
   -2.6430   -3.0406    0.9095 C   0  0  0  0  0  0  0  0  0  0  0  0
   -1.9863   -3.3500    0.0837 H   0  0  0  0  0  0  0  0  0  0  0  0
   -3.1393   -3.9972    1.8040 C   0  0  0  0  0  0  0  0  0  0  0  0
   -2.8668   -5.0555    1.6741 H   0  0  0  0  0  0  0  0  0  0  0  0
   -3.9678   -3.6068    2.8693 C   0  0  0  0  0  0  0  0  0  0  0  0
   -4.3515   -4.3600    3.5743 H   0  0  0  0  0  0  0  0  0  0  0  0
   -4.3034   -2.2548    3.0324 C   0  0  0  0  0  0  0  0  0  0  0  0
   -4.9538   -1.9420    3.8633 H   0  0  0  0  0  0  0  0  0  0  0  0
   -3.8185   -1.2922    2.1322 C   0  0  0  0  0  0  0  0  0  0  0  0
   -4.0944   -0.2353    2.2595 H   0  0  0  0  0  0  0  0  0  0  0  0
  1  2  1  0  0  0  0
  1 27  1  0  0  0  0
  2  3  1  0  0  0  0
  3  5  2  0  0  0  0
  3  4  1  0  0  0  0
  5  6  1  0  0  0  0
  7 12  1  0  0  0  0
  7  5  1  0  0  0  0
  8  7  2  0  0  0  0
  9  8  1  0  0  0  0
 10  8  1  0  0  0  0
 10  2  2  0  0  0  0
 11 10  1  0  0  0  0
 12 14  1  0  0  0  0
 13 12  1  0  0  0  0
 15 12  1  0  0  0  0
 16  1  1  0  0  0  0
 17 18  1  0  0  0  0
 17 16  2  0  0  0  0
 19 17  1  0  0  0  0
 20 19  1  0  0  0  0
 21 19  2  0  0  0  0
 21 23  1  0  0  0  0
 22 21  1  0  0  0  0
 23 25  2  0  0  0  0
 24 23  1  0  0  0  0
 25 16  1  0  0  0  0
 25 26  1  0  0  0  0
 27 36  1  0  0  0  0
 28 27  2  0  0  0  0
 28 30  1  0  0  0  0
 29 28  1  0  0  0  0
 30 32  2  0  0  0  0
 31 30  1  0  0  0  0
 32 34  1  0  0  0  0
 32 33  1  0  0  0  0
 34 35  1  0  0  0  0
 36 37  1  0  0  0  0
 36 34  2  0  0  0  0
M  END
