1
 OpenBabel05122313063D

 19 18  0  0  0  0  0  0  0  0999 V2000
   -2.0742   -0.9284    0.0087 P   0  0  0  0  0  0  0  0  0  0  0  0
   -3.6455   -0.0168    0.3135 C   0  0  0  0  0  0  0  0  0  0  0  0
   -4.5387   -0.6374    0.1139 H   0  0  0  0  0  0  0  0  0  0  0  0
   -3.6389    0.8848   -0.3264 H   0  0  0  0  0  0  0  0  0  0  0  0
   -3.6279    0.3084    1.3705 H   0  0  0  0  0  0  0  0  0  0  0  0
   -2.4332   -1.7778   -1.6848 C   0  0  0  0  0  0  0  0  0  0  0  0
   -1.3802   -2.5821   -1.9976 F   0  0  0  0  0  0  0  0  0  0  0  0
   -3.5575   -2.5492   -1.6370 F   0  0  0  0  0  0  0  0  0  0  0  0
   -2.6245   -0.7867   -2.8709 C   0  0  0  0  0  0  0  0  0  0  0  0
   -3.7476   -0.0607   -2.6938 F   0  0  0  0  0  0  0  0  0  0  0  0
   -1.5831    0.0539   -2.9703 F   0  0  0  0  0  0  0  0  0  0  0  0
   -2.7374   -1.4718   -4.0187 F   0  0  0  0  0  0  0  0  0  0  0  0
   -2.4021   -2.5060    1.0757 C   0  0  0  0  0  0  0  0  0  0  0  0
   -1.6733   -3.5439    0.5748 F   0  0  0  0  0  0  0  0  0  0  0  0
   -3.7170   -2.8631    1.0744 F   0  0  0  0  0  0  0  0  0  0  0  0
   -1.9924   -2.3318    2.5672 C   0  0  0  0  0  0  0  0  0  0  0  0
   -0.6603   -2.2022    2.6918 F   0  0  0  0  0  0  0  0  0  0  0  0
   -2.3833   -3.3999    3.2792 F   0  0  0  0  0  0  0  0  0  0  0  0
   -2.5829   -1.2335    3.0823 F   0  0  0  0  0  0  0  0  0  0  0  0
  1  2  1  0  0  0  0
  1 13  1  0  0  0  0
  2  5  1  0  0  0  0
  3  2  1  0  0  0  0
  4  2  1  0  0  0  0
  6  8  1  0  0  0  0
  6  1  1  0  0  0  0
  7  6  1  0  0  0  0
  9 10  1  0  0  0  0
  9  6  1  0  0  0  0
 11  9  1  0  0  0  0
 12  9  1  0  0  0  0
 13 16  1  0  0  0  0
 14 13  1  0  0  0  0
 15 13  1  0  0  0  0
 16 17  1  0  0  0  0
 16 19  1  0  0  0  0
 16 18  1  0  0  0  0
M  END
