2
 OpenBabel05122313063D

 42 44  0  0  1  0  0  0  0  0999 V2000
   -0.7150    0.4722   -1.9132 Cl  0  0  0  0  0  0  0  0  0  0  0  0
   -0.1217   -0.1588   -0.0003 P   0  0  1  0  0  0  0  0  0  0  0  0
   -1.6963    1.7612    0.8346 O   0  0  0  0  0  0  0  0  0  0  0  0
   -0.3308    1.4745    0.9543 C   0  0  2  0  0  0  0  0  0  0  0  0
   -0.0430    1.1855    1.9974 H   0  0  0  0  0  0  0  0  0  0  0  0
   -2.5585    0.5865    1.0080 C   0  0  2  0  0  0  0  0  0  0  0  0
   -1.7402   -0.7481    0.7928 C   0  0  1  0  0  0  0  0  0  0  0  0
    0.5362    2.6132    0.5036 C   0  0  0  0  0  0  0  0  0  0  0  0
    1.7743    2.8414    1.1364 C   0  0  0  0  0  0  0  0  0  0  0  0
    2.0754    2.2128    1.9888 H   0  0  0  0  0  0  0  0  0  0  0  0
    2.6240    3.8601    0.6840 C   0  0  0  0  0  0  0  0  0  0  0  0
    3.5920    4.0248    1.1808 H   0  0  0  0  0  0  0  0  0  0  0  0
    2.2373    4.6700   -0.3948 C   0  0  0  0  0  0  0  0  0  0  0  0
    2.9033    5.4707   -0.7504 H   0  0  0  0  0  0  0  0  0  0  0  0
    0.9938    4.4609   -1.0131 C   0  0  0  0  0  0  0  0  0  0  0  0
    0.6824    5.1010   -1.8527 H   0  0  0  0  0  0  0  0  0  0  0  0
    0.1447    3.4385   -0.5687 C   0  0  0  0  0  0  0  0  0  0  0  0
   -0.8293    3.2673   -1.0464 H   0  0  0  0  0  0  0  0  0  0  0  0
   -3.5636    0.5713   -0.1300 C   0  0  0  0  0  0  0  0  0  0  0  0
   -3.5618   -0.6104   -0.7929 C   0  0  0  0  0  0  0  0  0  0  0  0
   -2.5806   -1.6068   -0.2062 C   0  0  2  0  0  0  0  0  0  0  0  0
   -1.9212   -1.9908   -1.0202 H   0  0  0  0  0  0  0  0  0  0  0  0
   -3.2142    0.7388    2.3838 C   0  0  0  0  0  0  0  0  0  0  0  0
   -2.4587    0.7747    3.1927 H   0  0  0  0  0  0  0  0  0  0  0  0
   -3.9182   -0.0912    2.5893 H   0  0  0  0  0  0  0  0  0  0  0  0
   -3.7807    1.6893    2.4117 H   0  0  0  0  0  0  0  0  0  0  0  0
   -4.3661    1.7993   -0.4183 C   0  0  0  0  0  0  0  0  0  0  0  0
   -4.9656    1.7017   -1.3426 H   0  0  0  0  0  0  0  0  0  0  0  0
   -3.6903    2.6731   -0.5274 H   0  0  0  0  0  0  0  0  0  0  0  0
   -5.0639    2.0403    0.4123 H   0  0  0  0  0  0  0  0  0  0  0  0
   -4.3658   -0.9796   -1.9985 C   0  0  0  0  0  0  0  0  0  0  0  0
   -5.0397   -0.1656   -2.3249 H   0  0  0  0  0  0  0  0  0  0  0  0
   -4.9880   -1.8821   -1.8192 H   0  0  0  0  0  0  0  0  0  0  0  0
   -3.6898   -1.2257   -2.8463 H   0  0  0  0  0  0  0  0  0  0  0  0
   -3.2752   -2.8303    0.4140 C   0  0  0  0  0  0  0  0  0  0  0  0
   -3.9574   -2.5410    1.2386 H   0  0  0  0  0  0  0  0  0  0  0  0
   -2.5438   -3.5653    0.8028 H   0  0  0  0  0  0  0  0  0  0  0  0
   -3.8824   -3.3505   -0.3529 H   0  0  0  0  0  0  0  0  0  0  0  0
   -1.3430   -1.4613    2.0921 C   0  0  0  0  0  0  0  0  0  0  0  0
   -2.2407   -1.6895    2.6966 H   0  0  0  0  0  0  0  0  0  0  0  0
   -0.6724   -0.8488    2.7268 H   0  0  0  0  0  0  0  0  0  0  0  0
   -0.8324   -2.4179    1.8933 H   0  0  0  0  0  0  0  0  0  0  0  0
  2  1  1  6  0  0  0
  2  7  1  0  0  0  0
  2  4  1  0  0  0  0
  3  4  1  0  0  0  0
  3  6  1  0  0  0  0
  4  5  1  1  0  0  0
  6 23  1  1  0  0  0
  7  6  1  0  0  0  0
  7 39  1  1  0  0  0
  8  4  1  0  0  0  0
  8  9  1  0  0  0  0
  9 10  1  0  0  0  0
 11  9  2  0  0  0  0
 11 12  1  0  0  0  0
 13 11  1  0  0  0  0
 14 13  1  0  0  0  0
 15 17  1  0  0  0  0
 15 13  2  0  0  0  0
 16 15  1  0  0  0  0
 17  8  2  0  0  0  0
 18 17  1  0  0  0  0
 19  6  1  0  0  0  0
 20 21  1  0  0  0  0
 20 19  2  0  0  0  0
 21 22  1  6  0  0  0
 21 35  1  0  0  0  0
 21  7  1  0  0  0  0
 23 26  1  0  0  0  0
 23 25  1  0  0  0  0
 23 24  1  0  0  0  0
 27 19  1  0  0  0  0
 27 30  1  0  0  0  0
 28 27  1  0  0  0  0
 29 27  1  0  0  0  0
 31 33  1  0  0  0  0
 31 20  1  0  0  0  0
 32 31  1  0  0  0  0
 34 31  1  0  0  0  0
 35 37  1  0  0  0  0
 35 36  1  0  0  0  0
 38 35  1  0  0  0  0
 39 40  1  0  0  0  0
 39 41  1  0  0  0  0
 42 39  1  0  0  0  0
M  END
