2
 OpenBabel05122313063D

 38 37  0  0  0  0  0  0  0  0999 V2000
   -4.9592   -0.9406   -0.1956 I   0  0  0  0  0  0  0  0  0  0  0  0
    0.6849   -0.4385   -0.5995 P   0  0  0  0  0  0  0  0  0  0  0  0
    0.7301   -0.6118   -2.0316 H   0  0  0  0  0  0  0  0  0  0  0  0
    1.6355   -2.3800    1.6928 Si  0  0  0  0  0  0  0  0  0  0  0  0
    2.6902   -2.6406   -1.4081 Si  0  0  0  0  0  0  0  0  0  0  0  0
   -0.6418   -1.4179   -0.2505 O   0  0  0  0  0  0  0  0  0  0  0  0
   -1.9446   -0.9954   -0.6671 C   0  0  0  0  0  0  0  0  0  0  0  0
   -1.9817    0.1085   -0.7998 H   0  0  0  0  0  0  0  0  0  0  0  0
   -2.1936   -1.4643   -1.6451 H   0  0  0  0  0  0  0  0  0  0  0  0
    0.5171   -1.3446    2.8114 C   0  0  0  0  0  0  0  0  0  0  0  0
   -0.4789   -1.1852    2.3584 H   0  0  0  0  0  0  0  0  0  0  0  0
    0.9563   -0.3580    3.0532 H   0  0  0  0  0  0  0  0  0  0  0  0
    0.3766   -1.8903    3.7680 H   0  0  0  0  0  0  0  0  0  0  0  0
   -2.9279   -1.4213    0.4087 C   0  0  0  0  0  0  0  0  0  0  0  0
   -2.7557   -0.8809    1.3570 H   0  0  0  0  0  0  0  0  0  0  0  0
   -2.9026   -2.5128    0.5817 H   0  0  0  0  0  0  0  0  0  0  0  0
    3.4972   -1.5149   -2.7002 C   0  0  0  0  0  0  0  0  0  0  0  0
    4.3268   -0.9287   -2.2534 H   0  0  0  0  0  0  0  0  0  0  0  0
    2.7824   -0.7935   -3.1451 H   0  0  0  0  0  0  0  0  0  0  0  0
    3.9190   -2.1200   -3.5293 H   0  0  0  0  0  0  0  0  0  0  0  0
    4.0122   -3.8330   -0.7676 C   0  0  0  0  0  0  0  0  0  0  0  0
    4.4172   -4.4211   -1.6172 H   0  0  0  0  0  0  0  0  0  0  0  0
    3.6150   -4.5495   -0.0217 H   0  0  0  0  0  0  0  0  0  0  0  0
    4.8589   -3.2863   -0.3050 H   0  0  0  0  0  0  0  0  0  0  0  0
    0.7993   -4.0519    1.4121 C   0  0  0  0  0  0  0  0  0  0  0  0
    0.5422   -4.5101    2.3893 H   0  0  0  0  0  0  0  0  0  0  0  0
    1.4413   -4.7686    0.8629 H   0  0  0  0  0  0  0  0  0  0  0  0
   -0.1376   -3.9098    0.8377 H   0  0  0  0  0  0  0  0  0  0  0  0
    1.2628   -3.6079   -2.1831 C   0  0  0  0  0  0  0  0  0  0  0  0
    0.4412   -2.9395   -2.5096 H   0  0  0  0  0  0  0  0  0  0  0  0
    0.8366   -4.3406   -1.4707 H   0  0  0  0  0  0  0  0  0  0  0  0
    1.6218   -4.1627   -3.0743 H   0  0  0  0  0  0  0  0  0  0  0  0
    2.0269   -1.5154    0.0047 C   0  0  0  0  0  0  0  0  0  0  0  0
    2.8501   -0.8086    0.2529 H   0  0  0  0  0  0  0  0  0  0  0  0
    3.2972   -2.5772    2.5756 C   0  0  0  0  0  0  0  0  0  0  0  0
    3.7465   -1.5803    2.7655 H   0  0  0  0  0  0  0  0  0  0  0  0
    4.0240   -3.1823    2.0003 H   0  0  0  0  0  0  0  0  0  0  0  0
    3.1461   -3.0692    3.5587 H   0  0  0  0  0  0  0  0  0  0  0  0
  1 14  1  0  0  0  0
  2  6  1  0  0  0  0
  2 33  1  0  0  0  0
  3  2  1  0  0  0  0
  4 35  1  0  0  0  0
  4 10  1  0  0  0  0
  5 21  1  0  0  0  0
  5 33  1  0  0  0  0
  7  6  1  0  0  0  0
  7 14  1  0  0  0  0
  8  7  1  0  0  0  0
  9  7  1  0  0  0  0
 10 12  1  0  0  0  0
 10 13  1  0  0  0  0
 11 10  1  0  0  0  0
 14 16  1  0  0  0  0
 14 15  1  0  0  0  0
 17 18  1  0  0  0  0
 17  5  1  0  0  0  0
 19 17  1  0  0  0  0
 20 17  1  0  0  0  0
 21 24  1  0  0  0  0
 21 23  1  0  0  0  0
 22 21  1  0  0  0  0
 25  4  1  0  0  0  0
 25 26  1  0  0  0  0
 27 25  1  0  0  0  0
 28 25  1  0  0  0  0
 29 31  1  0  0  0  0
 29  5  1  0  0  0  0
 30 29  1  0  0  0  0
 32 29  1  0  0  0  0
 33 34  1  0  0  0  0
 33  4  1  0  0  0  0
 35 36  1  0  0  0  0
 35 38  1  0  0  0  0
 37 35  1  0  0  0  0
M  END
