1
 OpenBabel05122313063D

 39 39  0  0  0  0  0  0  0  0999 V2000
    0.4625   -0.5803    0.4984 P   0  0  1  0  0  0  0  0  0  0  0  0
    2.5227    1.8209    0.6173 Si  0  0  0  0  0  0  0  0  0  0  0  0
    3.2361   -0.9238   -1.0274 Si  0  0  0  0  0  0  0  0  0  0  0  0
    0.6539   -2.2466    0.1895 O   0  0  0  0  0  0  0  0  0  0  0  0
    0.6251   -3.0710    1.3650 C   0  0  0  0  0  0  0  0  0  0  0  0
    1.6269   -3.5417    1.4896 H   0  0  0  0  0  0  0  0  0  0  0  0
   -0.1182   -3.8794    1.2065 H   0  0  0  0  0  0  0  0  0  0  0  0
    0.2723   -2.2016    2.5823 C   0  0  0  0  0  0  0  0  0  0  0  0
    0.6701   -2.6396    3.5197 H   0  0  0  0  0  0  0  0  0  0  0  0
   -0.8287   -2.1305    2.6937 H   0  0  0  0  0  0  0  0  0  0  0  0
    0.8530   -0.8113    2.3052 C   0  0  0  0  0  0  0  0  0  0  0  0
    1.9539   -0.7844    2.4398 H   0  0  0  0  0  0  0  0  0  0  0  0
    0.3925   -0.0211    2.9250 H   0  0  0  0  0  0  0  0  0  0  0  0
    1.8797    0.2501   -0.3138 C   0  0  0  0  0  0  0  0  0  0  0  0
    1.4213    0.6844   -1.2311 H   0  0  0  0  0  0  0  0  0  0  0  0
    1.2234    2.6062    1.7521 C   0  0  0  0  0  0  0  0  0  0  0  0
    0.2705    2.8136    1.2294 H   0  0  0  0  0  0  0  0  0  0  0  0
    1.6283    3.5789    2.1025 H   0  0  0  0  0  0  0  0  0  0  0  0
    0.9988    2.0032    2.6525 H   0  0  0  0  0  0  0  0  0  0  0  0
    2.9488    3.1082   -0.6989 C   0  0  0  0  0  0  0  0  0  0  0  0
    3.7114    2.7542   -1.4184 H   0  0  0  0  0  0  0  0  0  0  0  0
    3.3358    4.0278   -0.2133 H   0  0  0  0  0  0  0  0  0  0  0  0
    2.0349    3.3843   -1.2637 H   0  0  0  0  0  0  0  0  0  0  0  0
    4.0333    1.4298    1.6928 C   0  0  0  0  0  0  0  0  0  0  0  0
    3.7952    0.6913    2.4852 H   0  0  0  0  0  0  0  0  0  0  0  0
    4.3660    2.3603    2.1981 H   0  0  0  0  0  0  0  0  0  0  0  0
    4.8895    1.0404    1.1082 H   0  0  0  0  0  0  0  0  0  0  0  0
    4.5853    0.1288   -1.8473 C   0  0  0  0  0  0  0  0  0  0  0  0
    4.1668    0.7669   -2.6520 H   0  0  0  0  0  0  0  0  0  0  0  0
    5.3258   -0.5523   -2.3164 H   0  0  0  0  0  0  0  0  0  0  0  0
    5.1331    0.7810   -1.1391 H   0  0  0  0  0  0  0  0  0  0  0  0
    4.0379   -1.9913    0.3121 C   0  0  0  0  0  0  0  0  0  0  0  0
    4.4530   -1.3841    1.1403 H   0  0  0  0  0  0  0  0  0  0  0  0
    4.8737   -2.5708   -0.1319 H   0  0  0  0  0  0  0  0  0  0  0  0
    3.3179   -2.7173    0.7358 H   0  0  0  0  0  0  0  0  0  0  0  0
    2.4743   -1.9956   -2.3821 C   0  0  0  0  0  0  0  0  0  0  0  0
    1.7069   -2.6735   -1.9630 H   0  0  0  0  0  0  0  0  0  0  0  0
    3.2590   -2.6024   -2.8797 H   0  0  0  0  0  0  0  0  0  0  0  0
    1.9886   -1.3685   -3.1580 H   0  0  0  0  0  0  0  0  0  0  0  0
  1 14  1  6  0  0  0
  1 11  1  0  0  0  0
  2 24  1  0  0  0  0
  2 16  1  0  0  0  0
  3 14  1  0  0  0  0
  3 32  1  0  0  0  0
  4  1  1  0  0  0  0
  4  5  1  0  0  0  0
  5  6  1  0  0  0  0
  5  8  1  0  0  0  0
  7  5  1  0  0  0  0
  8 10  1  0  0  0  0
  8  9  1  0  0  0  0
 11 12  1  0  0  0  0
 11  8  1  0  0  0  0
 11 13  1  0  0  0  0
 14  2  1  0  0  0  0
 15 14  1  0  0  0  0
 16 18  1  0  0  0  0
 16 19  1  0  0  0  0
 17 16  1  0  0  0  0
 20 22  1  0  0  0  0
 20  2  1  0  0  0  0
 21 20  1  0  0  0  0
 23 20  1  0  0  0  0
 24 26  1  0  0  0  0
 24 25  1  0  0  0  0
 27 24  1  0  0  0  0
 28 31  1  0  0  0  0
 28  3  1  0  0  0  0
 29 28  1  0  0  0  0
 30 28  1  0  0  0  0
 32 35  1  0  0  0  0
 32 33  1  0  0  0  0
 34 32  1  0  0  0  0
 36 37  1  0  0  0  0
 36  3  1  0  0  0  0
 38 36  1  0  0  0  0
 39 36  1  0  0  0  0
M  END
