3
 OpenBabel05122313063D

 17 17  0  0  0  0  0  0  0  0999 V2000
   -1.0907   -2.1028    2.1650 H   0  0  0  0  0  0  0  0  0  0  0  0
   -1.9571   -0.1998    2.5208 H   0  0  0  0  0  0  0  0  0  0  0  0
   -1.3845   -0.9130    1.4138 P   0  0  0  0  0  0  0  0  0  0  0  0
   -2.9581   -1.4491    0.6094 C   0  0  0  0  0  0  0  0  0  0  0  0
   -2.9520   -1.8384   -0.7418 C   0  0  0  0  0  0  0  0  0  0  0  0
   -2.0077   -1.7859   -1.3064 H   0  0  0  0  0  0  0  0  0  0  0  0
   -4.1354   -2.2601   -1.3650 C   0  0  0  0  0  0  0  0  0  0  0  0
   -4.1102   -2.5639   -2.4236 H   0  0  0  0  0  0  0  0  0  0  0  0
   -5.3583   -2.2895   -0.6664 C   0  0  0  0  0  0  0  0  0  0  0  0
   -5.3556   -1.8905    0.6878 C   0  0  0  0  0  0  0  0  0  0  0  0
   -6.2992   -1.9021    1.2568 H   0  0  0  0  0  0  0  0  0  0  0  0
   -4.1756   -1.4793    1.3197 C   0  0  0  0  0  0  0  0  0  0  0  0
   -4.2031   -1.1749    2.3785 H   0  0  0  0  0  0  0  0  0  0  0  0
   -6.6393   -2.7042   -1.3442 C   0  0  0  0  0  0  0  0  0  0  0  0
   -7.2719   -1.8200   -1.5735 H   0  0  0  0  0  0  0  0  0  0  0  0
   -7.2438   -3.3721   -0.6978 H   0  0  0  0  0  0  0  0  0  0  0  0
   -6.4455   -3.2294   -2.2993 H   0  0  0  0  0  0  0  0  0  0  0  0
  3  1  1  0  0  0  0
  3  2  1  0  0  0  0
  4 12  1  0  0  0  0
  4  3  1  0  0  0  0
  5  4  2  0  0  0  0
  6  5  1  0  0  0  0
  7  5  1  0  0  0  0
  7  9  2  0  0  0  0
  8  7  1  0  0  0  0
  9 10  1  0  0  0  0
 10 11  1  0  0  0  0
 10 12  2  0  0  0  0
 12 13  1  0  0  0  0
 14 16  1  0  0  0  0
 14  9  1  0  0  0  0
 15 14  1  0  0  0  0
 17 14  1  0  0  0  0
M  END
