1
 OpenBabel05122313063D

 38 40  0  0  1  0  0  0  0  0999 V2000
    1.7513    0.0303    0.0697 P   0  0  2  0  0  0  0  0  0  0  0  0
    2.9670   -1.0706   -2.1671 C   0  0  0  0  0  0  0  0  0  0  0  0
    3.5662   -1.0502   -3.4345 C   0  0  0  0  0  0  0  0  0  0  0  0
    3.7476    0.1659   -4.1146 C   0  0  0  0  0  0  0  0  0  0  0  0
    3.3294    1.3681   -3.5231 C   0  0  0  0  0  0  0  0  0  0  0  0
    2.7426    1.3586   -2.2483 C   0  0  0  0  0  0  0  0  0  0  0  0
    2.5656    0.1407   -1.5624 C   0  0  0  0  0  0  0  0  0  0  0  0
    1.8372    1.7263    0.8998 C   0  0  2  0  0  0  0  0  0  0  0  0
    3.3374    1.9905    0.8821 C   0  0  0  0  0  0  0  0  0  0  0  0
    4.0238    0.8407    1.1438 C   0  0  0  0  0  0  0  0  0  0  0  0
    3.0604   -0.3115    1.3747 C   0  0  1  0  0  0  0  0  0  0  0  0
    2.2169   -0.0167    2.6480 C   0  0  0  0  0  0  0  0  0  0  0  0
    1.4569    1.3106    2.3645 C   0  0  2  0  0  0  0  0  0  0  0  0
    3.8680    3.3726    0.6726 C   0  0  0  0  0  0  0  0  0  0  0  0
    5.4996    0.6311    1.2350 C   0  0  0  0  0  0  0  0  0  0  0  0
   -0.0458    1.2137    2.6097 C   0  0  0  0  0  0  0  0  0  0  0  0
   -0.6084    0.3213    3.2182 O   0  0  0  0  0  0  0  0  0  0  0  0
   -0.6754    2.3001    2.1087 O   0  0  0  0  0  0  0  0  0  0  0  0
   -2.1013    2.3373    2.2664 C   0  0  0  0  0  0  0  0  0  0  0  0
    2.7905   -2.0211   -1.6349 H   0  0  0  0  0  0  0  0  0  0  0  0
    3.8858   -1.9954   -3.8992 H   0  0  0  0  0  0  0  0  0  0  0  0
    4.2107    0.1760   -5.1130 H   0  0  0  0  0  0  0  0  0  0  0  0
    3.4623    2.3223   -4.0554 H   0  0  0  0  0  0  0  0  0  0  0  0
    2.4211    2.3052   -1.7898 H   0  0  0  0  0  0  0  0  0  0  0  0
    1.1965    2.5328    0.5057 H   0  0  0  0  0  0  0  0  0  0  0  0
    3.4775   -1.3321    1.3395 H   0  0  0  0  0  0  0  0  0  0  0  0
    2.8787    0.0693    3.5316 H   0  0  0  0  0  0  0  0  0  0  0  0
    1.4946   -0.8345    2.8392 H   0  0  0  0  0  0  0  0  0  0  0  0
    1.8105    2.1275    3.0297 H   0  0  0  0  0  0  0  0  0  0  0  0
    4.9736    3.4061    0.7097 H   0  0  0  0  0  0  0  0  0  0  0  0
    3.4802    4.0735    1.4442 H   0  0  0  0  0  0  0  0  0  0  0  0
    3.5499    3.7849   -0.3097 H   0  0  0  0  0  0  0  0  0  0  0  0
    6.0731    1.5628    1.0676 H   0  0  0  0  0  0  0  0  0  0  0  0
    5.8300   -0.1164    0.4813 H   0  0  0  0  0  0  0  0  0  0  0  0
    5.7886    0.2216    2.2273 H   0  0  0  0  0  0  0  0  0  0  0  0
   -2.4152    3.3551    1.9761 H   0  0  0  0  0  0  0  0  0  0  0  0
   -2.3854    2.1176    3.3143 H   0  0  0  0  0  0  0  0  0  0  0  0
   -2.5751    1.5933    1.5968 H   0  0  0  0  0  0  0  0  0  0  0  0
  1  7  1  6  0  0  0
  1  8  1  0  0  0  0
  1 11  1  0  0  0  0
  2 20  1  0  0  0  0
  2  7  1  0  0  0  0
  3  2  2  0  0  0  0
  4  5  2  0  0  0  0
  4  3  1  0  0  0  0
  5  6  1  0  0  0  0
  6 24  1  0  0  0  0
  6  7  2  0  0  0  0
  8 25  1  6  0  0  0
  8 13  1  0  0  0  0
  9  8  1  0  0  0  0
  9 10  2  0  0  0  0
 10 15  1  0  0  0  0
 10 11  1  0  0  0  0
 11 26  1  6  0  0  0
 11 12  1  0  0  0  0
 12 28  1  0  0  0  0
 12 27  1  0  0  0  0
 13 16  1  0  0  0  0
 13 12  1  0  0  0  0
 13 29  1  1  0  0  0
 14 30  1  0  0  0  0
 14  9  1  0  0  0  0
 14 31  1  0  0  0  0
 15 35  1  0  0  0  0
 16 17  2  0  0  0  0
 18 19  1  0  0  0  0
 18 16  1  0  0  0  0
 19 37  1  0  0  0  0
 21  3  1  0  0  0  0
 22  4  1  0  0  0  0
 23  5  1  0  0  0  0
 32 14  1  0  0  0  0
 33 15  1  0  0  0  0
 34 15  1  0  0  0  0
 36 19  1  0  0  0  0
 38 19  1  0  0  0  0
M  END
