1
 OpenBabel05122313063D

 35 37  0  0  1  0  0  0  0  0999 V2000
   -2.2318    0.6822    0.1203 P   0  0  1  0  0  0  0  0  0  0  0  0
   -4.6941    0.7072    1.2485 O   0  0  0  0  0  0  0  0  0  0  0  0
   -3.5764   -1.0606   -1.3940 O   0  0  0  0  0  0  0  0  0  0  0  0
   -5.6398   -0.8520   -0.2573 O   0  0  0  0  0  0  0  0  0  0  0  0
   -2.4152    2.3160    0.3042 O   0  0  0  0  0  0  0  0  0  0  0  0
   -2.9796    0.1665    2.8012 C   0  0  0  0  0  0  0  0  0  0  0  0
   -3.7395   -0.2344    3.5027 H   0  0  0  0  0  0  0  0  0  0  0  0
   -2.0232   -0.3717    2.9470 H   0  0  0  0  0  0  0  0  0  0  0  0
   -2.8435    1.2429    3.0219 H   0  0  0  0  0  0  0  0  0  0  0  0
   -3.4697   -0.0303    1.3766 C   0  0  2  0  0  0  0  0  0  0  0  0
   -3.7079   -1.4978    1.0084 C   0  0  0  0  0  0  0  0  0  0  0  0
   -4.3654   -1.9465    1.7825 H   0  0  0  0  0  0  0  0  0  0  0  0
   -2.7485   -2.0507    0.9911 H   0  0  0  0  0  0  0  0  0  0  0  0
   -4.4180   -1.5819   -0.3481 C   0  0  2  0  0  0  0  0  0  0  0  0
   -4.7654   -2.9976   -0.7629 C   0  0  0  0  0  0  0  0  0  0  0  0
   -5.2837   -2.9697   -1.7397 H   0  0  0  0  0  0  0  0  0  0  0  0
   -3.8415   -3.5982   -0.8560 H   0  0  0  0  0  0  0  0  0  0  0  0
   -5.4314   -3.4590   -0.0104 H   0  0  0  0  0  0  0  0  0  0  0  0
   -6.7738    1.1700    0.2411 C   0  0  0  0  0  0  0  0  0  0  0  0
   -7.2704    0.6730    1.0955 H   0  0  0  0  0  0  0  0  0  0  0  0
   -6.6508    2.2456    0.4670 H   0  0  0  0  0  0  0  0  0  0  0  0
   -7.3993    1.0497   -0.6629 H   0  0  0  0  0  0  0  0  0  0  0  0
   -5.4170    0.5305    0.0227 C   0  0  1  0  0  0  0  0  0  0  0  0
   -4.6442    1.1245   -1.1651 C   0  0  0  0  0  0  0  0  0  0  0  0
   -5.2670    1.0179   -2.0773 H   0  0  0  0  0  0  0  0  0  0  0  0
   -4.4315    2.1966   -0.9948 H   0  0  0  0  0  0  0  0  0  0  0  0
   -3.3343    0.3552   -1.3818 C   0  0  1  0  0  0  0  0  0  0  0  0
   -2.6552    0.6986   -2.6941 C   0  0  0  0  0  0  0  0  0  0  0  0
   -3.3544    0.4803   -3.5268 H   0  0  0  0  0  0  0  0  0  0  0  0
   -2.3689    1.7666   -2.7160 H   0  0  0  0  0  0  0  0  0  0  0  0
   -1.7356    0.0975   -2.8222 H   0  0  0  0  0  0  0  0  0  0  0  0
   -1.5109    3.0767    1.1118 C   0  0  0  0  0  0  0  0  0  0  0  0
   -0.6315    2.4735    1.4219 H   0  0  0  0  0  0  0  0  0  0  0  0
   -1.1472    3.9354    0.5146 H   0  0  0  0  0  0  0  0  0  0  0  0
   -2.0467    3.4438    2.0119 H   0  0  0  0  0  0  0  0  0  0  0  0
  1  5  1  1  0  0  0
  1 10  1  0  0  0  0
  2 10  1  0  0  0  0
  3 27  1  0  0  0  0
  3 14  1  0  0  0  0
  4 23  1  0  0  0  0
  5 32  1  0  0  0  0
  6  8  1  0  0  0  0
  6  9  1  0  0  0  0
  6  7  1  0  0  0  0
 10  6  1  1  0  0  0
 11 10  1  0  0  0  0
 11 12  1  0  0  0  0
 13 11  1  0  0  0  0
 14 15  1  6  0  0  0
 14  4  1  0  0  0  0
 14 11  1  0  0  0  0
 15 18  1  0  0  0  0
 16 15  1  0  0  0  0
 17 15  1  0  0  0  0
 19 21  1  0  0  0  0
 19 20  1  0  0  0  0
 22 19  1  0  0  0  0
 23 19  1  1  0  0  0
 23  2  1  0  0  0  0
 24 26  1  0  0  0  0
 24 23  1  0  0  0  0
 25 24  1  0  0  0  0
 27 28  1  6  0  0  0
 27 24  1  0  0  0  0
 27  1  1  0  0  0  0
 29 28  1  0  0  0  0
 30 28  1  0  0  0  0
 31 28  1  0  0  0  0
 32 33  1  0  0  0  0
 32 35  1  0  0  0  0
 34 32  1  0  0  0  0
M  END
