1
 OpenBabel05122313063D

 35 37  0  0  1  0  0  0  0  0999 V2000
    2.2317   -0.6821   -0.1202 P   0  0  2  0  0  0  0  0  0  0  0  0
    4.6939   -0.7073   -1.2487 O   0  0  0  0  0  0  0  0  0  0  0  0
    3.5767    1.0604    1.3941 O   0  0  0  0  0  0  0  0  0  0  0  0
    5.6400    0.8516    0.2571 O   0  0  0  0  0  0  0  0  0  0  0  0
    2.4149   -2.3159   -0.3042 O   0  0  0  0  0  0  0  0  0  0  0  0
    2.9793   -0.1663   -2.8012 C   0  0  0  0  0  0  0  0  0  0  0  0
    3.7392    0.2345   -3.5027 H   0  0  0  0  0  0  0  0  0  0  0  0
    2.0230    0.3721   -2.9468 H   0  0  0  0  0  0  0  0  0  0  0  0
    2.8429   -1.2426   -3.0219 H   0  0  0  0  0  0  0  0  0  0  0  0
    3.4695    0.0303   -1.3767 C   0  0  1  0  0  0  0  0  0  0  0  0
    3.7079    1.4978   -1.0083 C   0  0  0  0  0  0  0  0  0  0  0  0
    4.3655    1.9465   -1.7825 H   0  0  0  0  0  0  0  0  0  0  0  0
    2.7486    2.0508   -0.9909 H   0  0  0  0  0  0  0  0  0  0  0  0
    4.4183    1.5818    0.3481 C   0  0  1  0  0  0  0  0  0  0  0  0
    4.7658    2.9973    0.7629 C   0  0  0  0  0  0  0  0  0  0  0  0
    5.2842    2.9693    1.7397 H   0  0  0  0  0  0  0  0  0  0  0  0
    3.8420    3.5980    0.8561 H   0  0  0  0  0  0  0  0  0  0  0  0
    5.4318    3.4587    0.0104 H   0  0  0  0  0  0  0  0  0  0  0  0
    6.7736   -1.1704   -0.2416 C   0  0  0  0  0  0  0  0  0  0  0  0
    7.2702   -0.6734   -1.0959 H   0  0  0  0  0  0  0  0  0  0  0  0
    6.6505   -2.2460   -0.4675 H   0  0  0  0  0  0  0  0  0  0  0  0
    7.3992   -1.0503    0.6623 H   0  0  0  0  0  0  0  0  0  0  0  0
    5.4169   -0.5307   -0.0230 C   0  0  2  0  0  0  0  0  0  0  0  0
    4.6442   -1.1248    1.1649 C   0  0  0  0  0  0  0  0  0  0  0  0
    5.2671   -1.0183    2.0770 H   0  0  0  0  0  0  0  0  0  0  0  0
    4.4314   -2.1968    0.9945 H   0  0  0  0  0  0  0  0  0  0  0  0
    3.3344   -0.3553    1.3818 C   0  0  2  0  0  0  0  0  0  0  0  0
    2.6554   -0.6988    2.6941 C   0  0  0  0  0  0  0  0  0  0  0  0
    3.3546   -0.4806    3.5267 H   0  0  0  0  0  0  0  0  0  0  0  0
    2.3690   -1.7667    2.7159 H   0  0  0  0  0  0  0  0  0  0  0  0
    1.7359   -0.0976    2.8223 H   0  0  0  0  0  0  0  0  0  0  0  0
    1.5105   -3.0765   -1.1118 C   0  0  0  0  0  0  0  0  0  0  0  0
    0.6308   -2.4735   -1.4213 H   0  0  0  0  0  0  0  0  0  0  0  0
    1.1473   -3.9355   -0.5147 H   0  0  0  0  0  0  0  0  0  0  0  0
    2.0460   -3.4432   -2.0123 H   0  0  0  0  0  0  0  0  0  0  0  0
  1  5  1  6  0  0  0
  1 27  1  0  0  0  0
  2 23  1  0  0  0  0
  4 14  1  0  0  0  0
  7  6  1  0  0  0  0
  8  6  1  0  0  0  0
  9  6  1  0  0  0  0
 10  6  1  6  0  0  0
 10  2  1  0  0  0  0
 10 11  1  0  0  0  0
 10  1  1  0  0  0  0
 11 13  1  0  0  0  0
 11 14  1  0  0  0  0
 12 11  1  0  0  0  0
 14 15  1  1  0  0  0
 14  3  1  0  0  0  0
 15 17  1  0  0  0  0
 15 16  1  0  0  0  0
 18 15  1  0  0  0  0
 19 22  1  0  0  0  0
 20 19  1  0  0  0  0
 21 19  1  0  0  0  0
 23 19  1  6  0  0  0
 23  4  1  0  0  0  0
 23 24  1  0  0  0  0
 24 27  1  0  0  0  0
 24 25  1  0  0  0  0
 26 24  1  0  0  0  0
 27  3  1  0  0  0  0
 27 28  1  1  0  0  0
 28 30  1  0  0  0  0
 28 31  1  0  0  0  0
 28 29  1  0  0  0  0
 32 34  1  0  0  0  0
 32  5  1  0  0  0  0
 33 32  1  0  0  0  0
 35 32  1  0  0  0  0
M  END
