2
 OpenBabel05122313063D

 34 35  0  0  0  0  0  0  0  0999 V2000
    0.4677   -1.4546   -2.9642 S   0  0  0  0  0  0  0  0  0  0  0  0
   -2.0466   -0.1535   -0.8461 P   0  0  0  0  0  0  0  0  0  0  0  0
   -3.0931    1.3489   -0.6341 C   0  0  0  0  0  0  0  0  0  0  0  0
   -2.6690    2.3644    0.2442 C   0  0  0  0  0  0  0  0  0  0  0  0
   -1.6887    2.2689    0.7345 H   0  0  0  0  0  0  0  0  0  0  0  0
   -3.4840    3.4831    0.4751 C   0  0  0  0  0  0  0  0  0  0  0  0
   -3.1405    4.2705    1.1632 H   0  0  0  0  0  0  0  0  0  0  0  0
   -4.7229    3.6019   -0.1735 C   0  0  0  0  0  0  0  0  0  0  0  0
   -5.3585    4.4829    0.0044 H   0  0  0  0  0  0  0  0  0  0  0  0
   -5.1512    2.5925   -1.0513 C   0  0  0  0  0  0  0  0  0  0  0  0
   -6.1239    2.6767   -1.5596 H   0  0  0  0  0  0  0  0  0  0  0  0
   -4.3425    1.4689   -1.2778 C   0  0  0  0  0  0  0  0  0  0  0  0
   -4.7028    0.6717   -1.9468 H   0  0  0  0  0  0  0  0  0  0  0  0
   -3.1277   -1.4792   -0.1655 C   0  0  0  0  0  0  0  0  0  0  0  0
   -4.1947   -1.1990    0.7102 C   0  0  0  0  0  0  0  0  0  0  0  0
   -4.4429   -0.1568    0.9579 H   0  0  0  0  0  0  0  0  0  0  0  0
   -4.9501   -2.2447    1.2641 C   0  0  0  0  0  0  0  0  0  0  0  0
   -5.7855   -2.0116    1.9419 H   0  0  0  0  0  0  0  0  0  0  0  0
   -4.6458   -3.5784    0.9529 C   0  0  0  0  0  0  0  0  0  0  0  0
   -5.2412   -4.3967    1.3855 H   0  0  0  0  0  0  0  0  0  0  0  0
   -3.5727   -3.8653    0.0934 C   0  0  0  0  0  0  0  0  0  0  0  0
   -3.3163   -4.9094   -0.1420 H   0  0  0  0  0  0  0  0  0  0  0  0
   -2.8106   -2.8249   -0.4533 C   0  0  0  0  0  0  0  0  0  0  0  0
   -1.9454   -3.0606   -1.0916 H   0  0  0  0  0  0  0  0  0  0  0  0
   -2.1193   -0.5256   -2.6888 C   0  0  0  0  0  0  0  0  0  0  0  0
   -2.9419    0.0846   -3.1142 H   0  0  0  0  0  0  0  0  0  0  0  0
   -2.4289   -1.5863   -2.7840 H   0  0  0  0  0  0  0  0  0  0  0  0
   -0.8322   -0.2649   -3.4631 C   0  0  0  0  0  0  0  0  0  0  0  0
   -1.0244   -0.3663   -4.5520 H   0  0  0  0  0  0  0  0  0  0  0  0
   -0.4561    0.7565   -3.2514 H   0  0  0  0  0  0  0  0  0  0  0  0
    1.9594   -0.4747   -3.3167 C   0  0  0  0  0  0  0  0  0  0  0  0
    2.0715   -0.2875   -4.4032 H   0  0  0  0  0  0  0  0  0  0  0  0
    2.8201   -1.0748   -2.9637 H   0  0  0  0  0  0  0  0  0  0  0  0
    1.9224    0.4816   -2.7561 H   0  0  0  0  0  0  0  0  0  0  0  0
  2  3  1  0  0  0  0
  2 14  1  0  0  0  0
  3  4  1  0  0  0  0
  4  6  2  0  0  0  0
  4  5  1  0  0  0  0
  6  7  1  0  0  0  0
  8  9  1  0  0  0  0
  8  6  1  0  0  0  0
 10  8  2  0  0  0  0
 11 10  1  0  0  0  0
 12 10  1  0  0  0  0
 12  3  2  0  0  0  0
 13 12  1  0  0  0  0
 14 15  1  0  0  0  0
 15 16  1  0  0  0  0
 15 17  2  0  0  0  0
 17 18  1  0  0  0  0
 19 17  1  0  0  0  0
 19 20  1  0  0  0  0
 21 19  2  0  0  0  0
 22 21  1  0  0  0  0
 23 14  2  0  0  0  0
 23 21  1  0  0  0  0
 24 23  1  0  0  0  0
 25  2  1  0  0  0  0
 26 25  1  0  0  0  0
 27 25  1  0  0  0  0
 28 30  1  0  0  0  0
 28  1  1  0  0  0  0
 28 25  1  0  0  0  0
 29 28  1  0  0  0  0
 31  1  1  0  0  0  0
 31 33  1  0  0  0  0
 31 34  1  0  0  0  0
 32 31  1  0  0  0  0
M  END
