1
 OpenBabel05122313063D

 18 18  0  0  0  0  0  0  0  0999 V2000
   -1.1008   -1.5860   -0.2324 P   0  0  0  0  0  0  0  0  0  0  0  0
   -0.4846   -3.3305   -1.3042 Cl  0  0  0  0  0  0  0  0  0  0  0  0
   -2.5130   -1.1540   -1.0861 N   0  0  0  0  0  0  0  0  0  0  0  0
   -1.9657   -2.1403    1.0922 N   0  0  0  0  0  0  0  0  0  0  0  0
   -3.6080   -2.0256   -0.6528 C   0  0  0  0  0  0  0  0  0  0  0  0
   -3.5820   -2.9947   -1.2086 H   0  0  0  0  0  0  0  0  0  0  0  0
   -4.5833   -1.5379   -0.8613 H   0  0  0  0  0  0  0  0  0  0  0  0
   -3.4011   -2.2610    0.8527 C   0  0  0  0  0  0  0  0  0  0  0  0
   -3.9477   -1.5033    1.4606 H   0  0  0  0  0  0  0  0  0  0  0  0
   -3.7714   -3.2669    1.1478 H   0  0  0  0  0  0  0  0  0  0  0  0
   -2.4086   -0.8917   -2.5114 C   0  0  0  0  0  0  0  0  0  0  0  0
   -3.3031   -0.3306   -2.8533 H   0  0  0  0  0  0  0  0  0  0  0  0
   -2.3215   -1.8274   -3.1117 H   0  0  0  0  0  0  0  0  0  0  0  0
   -1.5144   -0.2690   -2.7082 H   0  0  0  0  0  0  0  0  0  0  0  0
   -1.3527   -2.6791    2.2880 C   0  0  0  0  0  0  0  0  0  0  0  0
   -1.4390   -3.7880    2.3327 H   0  0  0  0  0  0  0  0  0  0  0  0
   -1.8263   -2.2516    3.1984 H   0  0  0  0  0  0  0  0  0  0  0  0
   -0.2753   -2.4169    2.2993 H   0  0  0  0  0  0  0  0  0  0  0  0
  1  4  1  0  0  0  0
  2  1  1  0  0  0  0
  3  5  1  0  0  0  0
  3  1  1  0  0  0  0
  4 15  1  0  0  0  0
  5  8  1  0  0  0  0
  6  5  1  0  0  0  0
  7  5  1  0  0  0  0
  8  4  1  0  0  0  0
  8 10  1  0  0  0  0
  8  9  1  0  0  0  0
 11  3  1  0  0  0  0
 12 11  1  0  0  0  0
 13 11  1  0  0  0  0
 14 11  1  0  0  0  0
 15 18  1  0  0  0  0
 15 16  1  0  0  0  0
 15 17  1  0  0  0  0
M  END
