1
 OpenBabel05122313063D

 31 32  0  0  0  0  0  0  0  0999 V2000
   -1.5679    0.4860   -0.8007 P   0  0  0  0  0  0  0  0  0  0  0  0
   -1.4259    2.1829   -0.5223 N   0  0  0  0  0  0  0  0  0  0  0  0
   -1.7331    0.7126   -2.4945 N   0  0  0  0  0  0  0  0  0  0  0  0
   -1.9412    2.9335   -1.6572 C   0  0  0  0  0  0  0  0  0  0  0  0
   -1.4862    3.9479   -1.6846 H   0  0  0  0  0  0  0  0  0  0  0  0
   -3.0526    3.0651   -1.6065 H   0  0  0  0  0  0  0  0  0  0  0  0
   -1.5486    2.1075   -2.8812 C   0  0  0  0  0  0  0  0  0  0  0  0
   -2.1861    2.3503   -3.7592 H   0  0  0  0  0  0  0  0  0  0  0  0
   -0.4881    2.3134   -3.1732 H   0  0  0  0  0  0  0  0  0  0  0  0
   -1.6843    2.7026    0.8026 C   0  0  0  0  0  0  0  0  0  0  0  0
   -1.1831    3.6861    0.9275 H   0  0  0  0  0  0  0  0  0  0  0  0
   -1.2609    2.0134    1.5589 H   0  0  0  0  0  0  0  0  0  0  0  0
   -2.7734    2.8275    1.0170 H   0  0  0  0  0  0  0  0  0  0  0  0
   -1.3259   -0.3027   -3.4515 C   0  0  0  0  0  0  0  0  0  0  0  0
   -1.9309   -0.2059   -4.3778 H   0  0  0  0  0  0  0  0  0  0  0  0
   -1.4900   -1.3078   -3.0171 H   0  0  0  0  0  0  0  0  0  0  0  0
   -0.2472   -0.2140   -3.7261 H   0  0  0  0  0  0  0  0  0  0  0  0
   -3.2374    0.0619   -0.1767 C   0  0  0  0  0  0  0  0  0  0  0  0
   -4.3863    0.3603   -0.9312 C   0  0  0  0  0  0  0  0  0  0  0  0
   -4.2717    0.7250   -1.9630 H   0  0  0  0  0  0  0  0  0  0  0  0
   -5.6600    0.1583   -0.3800 C   0  0  0  0  0  0  0  0  0  0  0  0
   -6.5542    0.3829   -0.9834 H   0  0  0  0  0  0  0  0  0  0  0  0
   -5.8191   -0.3390    0.9288 C   0  0  0  0  0  0  0  0  0  0  0  0
   -4.6559   -0.6334    1.6737 C   0  0  0  0  0  0  0  0  0  0  0  0
   -4.7552   -1.0353    2.6947 H   0  0  0  0  0  0  0  0  0  0  0  0
   -3.3811   -0.4436    1.1310 C   0  0  0  0  0  0  0  0  0  0  0  0
   -2.4817   -0.7093    1.7097 H   0  0  0  0  0  0  0  0  0  0  0  0
   -7.1867   -0.5844    1.5129 C   0  0  0  0  0  0  0  0  0  0  0  0
   -7.9845   -0.1252    0.8976 H   0  0  0  0  0  0  0  0  0  0  0  0
   -7.2674   -0.1797    2.5424 H   0  0  0  0  0  0  0  0  0  0  0  0
   -7.4001   -1.6726    1.5792 H   0  0  0  0  0  0  0  0  0  0  0  0
  1  2  1  0  0  0  0
  1 18  1  0  0  0  0
  2 10  1  0  0  0  0
  3  1  1  0  0  0  0
  4  6  1  0  0  0  0
  4  2  1  0  0  0  0
  5  4  1  0  0  0  0
  7  3  1  0  0  0  0
  7  4  1  0  0  0  0
  8  7  1  0  0  0  0
  9  7  1  0  0  0  0
 10 11  1  0  0  0  0
 10 13  1  0  0  0  0
 10 12  1  0  0  0  0
 14 16  1  0  0  0  0
 14  3  1  0  0  0  0
 15 14  1  0  0  0  0
 17 14  1  0  0  0  0
 18 26  1  0  0  0  0
 19 21  1  0  0  0  0
 19 18  2  0  0  0  0
 20 19  1  0  0  0  0
 21 23  2  0  0  0  0
 22 21  1  0  0  0  0
 23 28  1  0  0  0  0
 23 24  1  0  0  0  0
 24 25  1  0  0  0  0
 26 24  2  0  0  0  0
 26 27  1  0  0  0  0
 28 31  1  0  0  0  0
 28 30  1  0  0  0  0
 29 28  1  0  0  0  0
M  END
