1
 OpenBabel05122313063D

 44 45  0  0  0  0  0  0  0  0999 V2000
    0.6598   -0.3745   -0.5714 P   0  0  0  0  0  0  0  0  0  0  0  0
    0.6219   -0.5933   -1.9916 H   0  0  0  0  0  0  0  0  0  0  0  0
    2.3624   -1.8612    1.6222 Si  0  0  0  0  0  0  0  0  0  0  0  0
    3.2279   -1.7901   -1.5520 Si  0  0  0  0  0  0  0  0  0  0  0  0
   -0.2526   -1.7364   -0.1122 O   0  0  0  0  0  0  0  0  0  0  0  0
   -2.3365   -2.8047    0.5005 O   0  0  0  0  0  0  0  0  0  0  0  0
   -2.4347   -0.9574   -0.8953 O   0  0  0  0  0  0  0  0  0  0  0  0
   -3.6572   -2.5266    0.2021 C   0  0  0  0  0  0  0  0  0  0  0  0
   -3.7187   -1.4015   -0.6427 C   0  0  0  0  0  0  0  0  0  0  0  0
   -4.9245   -0.8801   -1.1009 C   0  0  0  0  0  0  0  0  0  0  0  0
   -4.9474    0.0036   -1.7535 H   0  0  0  0  0  0  0  0  0  0  0  0
   -6.0947   -1.5441   -0.6774 C   0  0  0  0  0  0  0  0  0  0  0  0
   -7.0733   -1.1695   -1.0117 H   0  0  0  0  0  0  0  0  0  0  0  0
   -6.0367   -2.6711    0.1634 C   0  0  0  0  0  0  0  0  0  0  0  0
   -6.9714   -3.1612    0.4735 H   0  0  0  0  0  0  0  0  0  0  0  0
   -4.8073   -3.1884    0.6233 C   0  0  0  0  0  0  0  0  0  0  0  0
   -4.7507   -4.0649    1.2833 H   0  0  0  0  0  0  0  0  0  0  0  0
    2.3230   -0.9384   -0.0837 C   0  0  0  0  0  0  0  0  0  0  0  0
    2.8774    0.0058    0.1158 H   0  0  0  0  0  0  0  0  0  0  0  0
    1.0220   -1.2748    2.8206 C   0  0  0  0  0  0  0  0  0  0  0  0
    1.0669   -0.1854    3.0095 H   0  0  0  0  0  0  0  0  0  0  0  0
    1.1855   -1.7863    3.7925 H   0  0  0  0  0  0  0  0  0  0  0  0
    0.0039   -1.5314    2.4723 H   0  0  0  0  0  0  0  0  0  0  0  0
    2.1599   -3.7250    1.3860 C   0  0  0  0  0  0  0  0  0  0  0  0
    1.1859   -3.9458    0.9055 H   0  0  0  0  0  0  0  0  0  0  0  0
    2.1739   -4.2250    2.3764 H   0  0  0  0  0  0  0  0  0  0  0  0
    2.9656   -4.1736    0.7720 H   0  0  0  0  0  0  0  0  0  0  0  0
    4.0396   -1.4415    2.3905 C   0  0  0  0  0  0  0  0  0  0  0  0
    4.8937   -1.7508    1.7575 H   0  0  0  0  0  0  0  0  0  0  0  0
    4.1425   -1.9473    3.3728 H   0  0  0  0  0  0  0  0  0  0  0  0
    4.1138   -0.3484    2.5668 H   0  0  0  0  0  0  0  0  0  0  0  0
    2.1772   -3.2086   -2.2279 C   0  0  0  0  0  0  0  0  0  0  0  0
    2.0623   -4.0220   -1.4856 H   0  0  0  0  0  0  0  0  0  0  0  0
    2.6578   -3.6339   -3.1331 H   0  0  0  0  0  0  0  0  0  0  0  0
    1.1617   -2.8698   -2.5160 H   0  0  0  0  0  0  0  0  0  0  0  0
    4.9278   -2.4270   -1.0207 C   0  0  0  0  0  0  0  0  0  0  0  0
    5.5581   -1.6072   -0.6203 H   0  0  0  0  0  0  0  0  0  0  0  0
    5.4519   -2.8541   -1.9007 H   0  0  0  0  0  0  0  0  0  0  0  0
    4.8628   -3.2200   -0.2499 H   0  0  0  0  0  0  0  0  0  0  0  0
    3.4830   -0.4778   -2.8943 C   0  0  0  0  0  0  0  0  0  0  0  0
    2.5262   -0.0711   -3.2802 H   0  0  0  0  0  0  0  0  0  0  0  0
    4.0314   -0.9096   -3.7570 H   0  0  0  0  0  0  0  0  0  0  0  0
    4.0761    0.3773   -2.5094 H   0  0  0  0  0  0  0  0  0  0  0  0
   -1.6094   -1.8218   -0.1720 B   0  0  0  0  0  0  0  0  0  0  0  0
  1  5  1  0  0  0  0
  1 18  1  0  0  0  0
  2  1  1  0  0  0  0
  3 28  1  0  0  0  0
  3 20  1  0  0  0  0
  4 36  1  0  0  0  0
  4 18  1  0  0  0  0
  7  9  1  0  0  0  0
  7 44  1  0  0  0  0
  8  6  1  0  0  0  0
  8 16  1  0  0  0  0
  9  8  2  0  0  0  0
 10 12  2  0  0  0  0
 10  9  1  0  0  0  0
 11 10  1  0  0  0  0
 12 14  1  0  0  0  0
 13 12  1  0  0  0  0
 14 15  1  0  0  0  0
 14 16  2  0  0  0  0
 16 17  1  0  0  0  0
 18 19  1  0  0  0  0
 18  3  1  0  0  0  0
 20 21  1  0  0  0  0
 20 22  1  0  0  0  0
 23 20  1  0  0  0  0
 24  3  1  0  0  0  0
 24 26  1  0  0  0  0
 25 24  1  0  0  0  0
 27 24  1  0  0  0  0
 28 31  1  0  0  0  0
 28 30  1  0  0  0  0
 29 28  1  0  0  0  0
 32  4  1  0  0  0  0
 32 33  1  0  0  0  0
 34 32  1  0  0  0  0
 35 32  1  0  0  0  0
 36 37  1  0  0  0  0
 36 39  1  0  0  0  0
 38 36  1  0  0  0  0
 40 43  1  0  0  0  0
 40  4  1  0  0  0  0
 41 40  1  0  0  0  0
 42 40  1  0  0  0  0
 44  5  1  0  0  0  0
 44  6  1  0  0  0  0
M  END
