1
 OpenBabel05122313063D

 30 31  0  0  0  0  0  0  0  0999 V2000
    1.2775    0.4494    0.8418 P   0  0  0  0  0  0  0  0  0  0  0  0
    0.1104   -1.5327    3.0694 O   0  0  0  0  0  0  0  0  0  0  0  0
    2.1785   -2.3643    3.4042 O   0  0  0  0  0  0  0  0  0  0  0  0
    0.1651    1.7899    1.4390 C   0  0  0  0  0  0  0  0  0  0  0  0
   -0.8054    1.4868    2.4176 C   0  0  0  0  0  0  0  0  0  0  0  0
   -1.6934    2.4797    2.8565 C   0  0  0  0  0  0  0  0  0  0  0  0
   -1.6187    3.7791    2.3307 C   0  0  0  0  0  0  0  0  0  0  0  0
   -0.6562    4.0815    1.3554 C   0  0  0  0  0  0  0  0  0  0  0  0
    0.2302    3.0927    0.9044 C   0  0  0  0  0  0  0  0  0  0  0  0
    2.6799    1.3545    0.0774 C   0  0  0  0  0  0  0  0  0  0  0  0
    3.0330    1.0912   -1.2599 C   0  0  0  0  0  0  0  0  0  0  0  0
    4.0963    1.7876   -1.8545 C   0  0  0  0  0  0  0  0  0  0  0  0
    4.8156    2.7405   -1.1172 C   0  0  0  0  0  0  0  0  0  0  0  0
    4.4716    3.0002    0.2202 C   0  0  0  0  0  0  0  0  0  0  0  0
    3.4062    2.3121    0.8171 C   0  0  0  0  0  0  0  0  0  0  0  0
    2.0501   -0.2182    2.4132 C   0  0  0  0  0  0  0  0  0  0  0  0
    1.3240   -1.4223    2.9738 C   0  0  0  0  0  0  0  0  0  0  0  0
   -0.8530    0.4714    2.8385 H   0  0  0  0  0  0  0  0  0  0  0  0
   -2.4478    2.2318    3.6185 H   0  0  0  0  0  0  0  0  0  0  0  0
   -2.3146    4.5574    2.6793 H   0  0  0  0  0  0  0  0  0  0  0  0
   -0.5979    5.0941    0.9293 H   0  0  0  0  0  0  0  0  0  0  0  0
    0.9695    3.3368    0.1292 H   0  0  0  0  0  0  0  0  0  0  0  0
    2.4821    0.3175   -1.8169 H   0  0  0  0  0  0  0  0  0  0  0  0
    4.3705    1.5730   -2.8983 H   0  0  0  0  0  0  0  0  0  0  0  0
    5.6530    3.2814   -1.5839 H   0  0  0  0  0  0  0  0  0  0  0  0
    5.0365    3.7440    0.8023 H   0  0  0  0  0  0  0  0  0  0  0  0
    3.1333    2.5326    1.8608 H   0  0  0  0  0  0  0  0  0  0  0  0
    3.0954   -0.4836    2.1746 H   0  0  0  0  0  0  0  0  0  0  0  0
    2.0375    0.5913    3.1729 H   0  0  0  0  0  0  0  0  0  0  0  0
    1.6239   -3.1146    3.7135 H   0  0  0  0  0  0  0  0  0  0  0  0
  1  4  1  0  0  0  0
  1 16  1  0  0  0  0
  3 30  1  0  0  0  0
  4  5  1  0  0  0  0
  5 18  1  0  0  0  0
  5  6  2  0  0  0  0
  6 19  1  0  0  0  0
  7 20  1  0  0  0  0
  7  6  1  0  0  0  0
  8  7  2  0  0  0  0
  9  8  1  0  0  0  0
  9  4  2  0  0  0  0
 10 15  1  0  0  0  0
 10  1  1  0  0  0  0
 11 10  2  0  0  0  0
 12 11  1  0  0  0  0
 12 13  2  0  0  0  0
 13 14  1  0  0  0  0
 14 26  1  0  0  0  0
 14 15  2  0  0  0  0
 15 27  1  0  0  0  0
 16 17  1  0  0  0  0
 16 29  1  0  0  0  0
 17  2  2  0  0  0  0
 17  3  1  0  0  0  0
 21  8  1  0  0  0  0
 22  9  1  0  0  0  0
 23 11  1  0  0  0  0
 24 12  1  0  0  0  0
 25 13  1  0  0  0  0
 28 16  1  0  0  0  0
M  END
