1
 OpenBabel05122313063D

 15 16  0  0  1  0  0  0  0  0999 V2000
   -1.2852   -1.7633   -0.4816 P   0  0  1  0  0  0  0  0  0  0  0  0
   -2.6989   -1.1448   -1.1744 O   0  0  0  0  0  0  0  0  0  0  0  0
   -2.1222   -2.3042    0.8958 O   0  0  0  0  0  0  0  0  0  0  0  0
   -1.3127   -3.2979   -1.1834 O   0  0  0  0  0  0  0  0  0  0  0  0
   -3.8036   -1.9289   -0.6990 C   0  0  0  0  0  0  0  0  0  0  0  0
   -2.4219   -4.0307   -0.6428 C   0  0  0  0  0  0  0  0  0  0  0  0
   -3.1969   -3.0162    0.2312 C   0  0  1  0  0  0  0  0  0  0  0  0
   -4.1572   -3.6108    1.2346 C   0  0  0  0  0  0  0  0  0  0  0  0
   -4.3484   -2.3760   -1.5569 H   0  0  0  0  0  0  0  0  0  0  0  0
   -4.5001   -1.2723   -0.1313 H   0  0  0  0  0  0  0  0  0  0  0  0
   -2.0441   -4.8738   -0.0233 H   0  0  0  0  0  0  0  0  0  0  0  0
   -3.0461   -4.4313   -1.4692 H   0  0  0  0  0  0  0  0  0  0  0  0
   -4.5853   -2.8126    1.8719 H   0  0  0  0  0  0  0  0  0  0  0  0
   -4.9867   -4.1329    0.7166 H   0  0  0  0  0  0  0  0  0  0  0  0
   -3.6349   -4.3376    1.8863 H   0  0  0  0  0  0  0  0  0  0  0  0
  1  4  1  6  0  0  0
  1  3  1  0  0  0  0
  2  5  1  0  0  0  0
  2  1  1  0  0  0  0
  4  6  1  0  0  0  0
  5 10  1  0  0  0  0
  5  7  1  0  0  0  0
  6 11  1  0  0  0  0
  6  7  1  0  0  0  0
  7  3  1  0  0  0  0
  7  8  1  1  0  0  0
  8 13  1  0  0  0  0
  8 15  1  0  0  0  0
  9  5  1  0  0  0  0
 12  6  1  0  0  0  0
 14  8  1  0  0  0  0
M  END
