2
 OpenBabel05122313063D

 36 37  0  0  0  0  0  0  0  0999 V2000
    6.4172   -1.2451   -1.1920 Br  0  0  0  0  0  0  0  0  0  0  0  0
    0.5361    0.6818    0.9603 P   0  0  2  0  0  0  0  0  0  0  0  0
    2.2192    0.2002    0.3962 C   0  0  0  0  0  0  0  0  0  0  0  0
    2.3196   -0.9192   -0.4547 C   0  0  0  0  0  0  0  0  0  0  0  0
    1.3987   -1.4583   -0.7309 H   0  0  0  0  0  0  0  0  0  0  0  0
    3.5627   -1.3550   -0.9339 C   0  0  0  0  0  0  0  0  0  0  0  0
    3.6297   -2.2297   -1.5956 H   0  0  0  0  0  0  0  0  0  0  0  0
    4.7231   -0.6654   -0.5519 C   0  0  0  0  0  0  0  0  0  0  0  0
    4.6529    0.4485    0.3014 C   0  0  0  0  0  0  0  0  0  0  0  0
    5.5702    0.9763    0.5977 H   0  0  0  0  0  0  0  0  0  0  0  0
    3.4028    0.8748    0.7694 C   0  0  0  0  0  0  0  0  0  0  0  0
    3.3634    1.7467    1.4377 H   0  0  0  0  0  0  0  0  0  0  0  0
    0.2841    2.3893    0.2968 C   0  0  0  0  0  0  0  0  0  0  0  0
    1.2886    3.1333   -0.3515 C   0  0  0  0  0  0  0  0  0  0  0  0
    2.2892    2.7028   -0.4976 H   0  0  0  0  0  0  0  0  0  0  0  0
    1.0141    4.4193   -0.8452 C   0  0  0  0  0  0  0  0  0  0  0  0
    1.8076    4.9831   -1.3590 H   0  0  0  0  0  0  0  0  0  0  0  0
   -0.2625    4.9790   -0.6938 C   0  0  0  0  0  0  0  0  0  0  0  0
   -0.4762    5.9852   -1.0851 H   0  0  0  0  0  0  0  0  0  0  0  0
   -1.2714    4.2412   -0.0529 C   0  0  0  0  0  0  0  0  0  0  0  0
   -2.2819    4.6631    0.0566 H   0  0  0  0  0  0  0  0  0  0  0  0
   -1.0023    2.9544    0.4291 C   0  0  0  0  0  0  0  0  0  0  0  0
   -1.8090    2.3667    0.8898 H   0  0  0  0  0  0  0  0  0  0  0  0
    0.6326    0.9755    2.8670 C   0  0  0  0  0  0  0  0  0  0  0  0
    1.5968   -0.0455    3.4938 C   0  0  0  0  0  0  0  0  0  0  0  0
    1.5411    0.0545    4.5987 H   0  0  0  0  0  0  0  0  0  0  0  0
    2.6473    0.1296    3.1930 H   0  0  0  0  0  0  0  0  0  0  0  0
    1.3128   -1.0807    3.2217 H   0  0  0  0  0  0  0  0  0  0  0  0
    1.0947    2.4073    3.1869 C   0  0  0  0  0  0  0  0  0  0  0  0
    1.1790    2.5085    4.2897 H   0  0  0  0  0  0  0  0  0  0  0  0
    0.3812    3.1733    2.8283 H   0  0  0  0  0  0  0  0  0  0  0  0
    2.0881    2.6463    2.7588 H   0  0  0  0  0  0  0  0  0  0  0  0
   -0.7869    0.7548    3.4213 C   0  0  0  0  0  0  0  0  0  0  0  0
   -0.7782    0.9437    4.5158 H   0  0  0  0  0  0  0  0  0  0  0  0
   -1.1170   -0.2876    3.2443 H   0  0  0  0  0  0  0  0  0  0  0  0
   -1.5259    1.4473    2.9706 H   0  0  0  0  0  0  0  0  0  0  0  0
  1  8  1  0  0  0  0
  2 24  1  1  0  0  0
  3 11  1  0  0  0  0
  3  2  1  0  0  0  0
  4  3  2  0  0  0  0
  5  4  1  0  0  0  0
  6  8  2  0  0  0  0
  6  4  1  0  0  0  0
  7  6  1  0  0  0  0
  8  9  1  0  0  0  0
  9 10  1  0  0  0  0
  9 11  2  0  0  0  0
 11 12  1  0  0  0  0
 13 22  1  0  0  0  0
 13  2  1  0  0  0  0
 14 13  2  0  0  0  0
 15 14  1  0  0  0  0
 16 18  2  0  0  0  0
 16 14  1  0  0  0  0
 17 16  1  0  0  0  0
 18 20  1  0  0  0  0
 19 18  1  0  0  0  0
 20 21  1  0  0  0  0
 20 22  2  0  0  0  0
 22 23  1  0  0  0  0
 24 29  1  0  0  0  0
 24 33  1  0  0  0  0
 24 25  1  0  0  0  0
 25 26  1  0  0  0  0
 27 25  1  0  0  0  0
 28 25  1  0  0  0  0
 29 30  1  0  0  0  0
 31 29  1  0  0  0  0
 32 29  1  0  0  0  0
 33 34  1  0  0  0  0
 35 33  1  0  0  0  0
 36 33  1  0  0  0  0
M  END
