26
 OpenBabel05122313063D

 50 53  0  0  0  0  0  0  0  0999 V2000
    1.6834    0.2326   -0.6705 P   0  0  0  0  0  0  0  0  0  0  0  0
    0.7976   -0.0047   -2.2506 C   0  0  0  0  0  0  0  0  0  0  0  0
    3.3618   -0.3817   -1.0540 C   0  0  0  0  0  0  0  0  0  0  0  0
    3.4744   -1.7298   -1.4632 C   0  0  0  0  0  0  0  0  0  0  0  0
    4.7384   -2.2744   -1.7293 C   0  0  0  0  0  0  0  0  0  0  0  0
    5.8942   -1.4916   -1.5714 C   0  0  0  0  0  0  0  0  0  0  0  0
    5.7839   -0.1597   -1.1416 C   0  0  0  0  0  0  0  0  0  0  0  0
    4.5229    0.3981   -0.8808 C   0  0  0  0  0  0  0  0  0  0  0  0
    1.8158    2.0527   -0.4798 C   0  0  0  0  0  0  0  0  0  0  0  0
    1.4345    2.6253    0.7503 C   0  0  0  0  0  0  0  0  0  0  0  0
    1.4800    4.0188    0.9134 C   0  0  0  0  0  0  0  0  0  0  0  0
    1.9049    4.8405   -0.1411 C   0  0  0  0  0  0  0  0  0  0  0  0
    2.2852    4.2714   -1.3688 C   0  0  0  0  0  0  0  0  0  0  0  0
    2.2386    2.8816   -1.5418 C   0  0  0  0  0  0  0  0  0  0  0  0
    1.3964   -0.2116   -3.1554 H   0  0  0  0  0  0  0  0  0  0  0  0
    2.5710   -2.3572   -1.5461 H   0  0  0  0  0  0  0  0  0  0  0  0
    4.8205   -3.3241   -2.0496 H   0  0  0  0  0  0  0  0  0  0  0  0
    6.8853   -1.9245   -1.7750 H   0  0  0  0  0  0  0  0  0  0  0  0
    6.6877    0.4542   -1.0084 H   0  0  0  0  0  0  0  0  0  0  0  0
    4.4401    1.4428   -0.5457 H   0  0  0  0  0  0  0  0  0  0  0  0
    1.0836    1.9834    1.5753 H   0  0  0  0  0  0  0  0  0  0  0  0
    1.1700    4.4613    1.8717 H   0  0  0  0  0  0  0  0  0  0  0  0
    1.9355    5.9330   -0.0099 H   0  0  0  0  0  0  0  0  0  0  0  0
    2.6167    4.9155   -2.1977 H   0  0  0  0  0  0  0  0  0  0  0  0
    2.5320    2.4355   -2.5045 H   0  0  0  0  0  0  0  0  0  0  0  0
   -1.5834    0.1788   -0.8182 P   0  0  0  0  0  0  0  0  0  0  0  0
   -0.5581   -0.0062   -2.3111 C   0  0  0  0  0  0  0  0  0  0  0  0
   -3.2290   -0.4071   -1.3573 C   0  0  0  0  0  0  0  0  0  0  0  0
   -1.7423    1.9699   -0.4864 C   0  0  0  0  0  0  0  0  0  0  0  0
   -1.0744   -0.2141   -3.2648 H   0  0  0  0  0  0  0  0  0  0  0  0
   -3.3610   -1.7909   -1.6101 C   0  0  0  0  0  0  0  0  0  0  0  0
   -4.3439    0.4441   -1.4886 C   0  0  0  0  0  0  0  0  0  0  0  0
   -2.1834    2.3522    0.7989 C   0  0  0  0  0  0  0  0  0  0  0  0
   -1.3954    2.9577   -1.4307 C   0  0  0  0  0  0  0  0  0  0  0  0
   -4.5987   -2.3076   -2.0188 C   0  0  0  0  0  0  0  0  0  0  0  0
   -2.4953   -2.4609   -1.4703 H   0  0  0  0  0  0  0  0  0  0  0  0
   -5.5805   -0.0857   -1.8873 C   0  0  0  0  0  0  0  0  0  0  0  0
   -4.2408    1.5199   -1.2807 H   0  0  0  0  0  0  0  0  0  0  0  0
   -2.3020    3.7116    1.1216 C   0  0  0  0  0  0  0  0  0  0  0  0
   -2.4013    1.5851    1.5585 H   0  0  0  0  0  0  0  0  0  0  0  0
   -1.5015    4.3143   -1.0945 C   0  0  0  0  0  0  0  0  0  0  0  0
   -1.0250    2.6613   -2.4233 H   0  0  0  0  0  0  0  0  0  0  0  0
   -5.7089   -1.4578   -2.1569 C   0  0  0  0  0  0  0  0  0  0  0  0
   -4.6988   -3.3855   -2.2171 H   0  0  0  0  0  0  0  0  0  0  0  0
   -6.4503    0.5808   -1.9909 H   0  0  0  0  0  0  0  0  0  0  0  0
   -1.9610    4.6930    0.1775 C   0  0  0  0  0  0  0  0  0  0  0  0
   -2.6438    4.0031    2.1262 H   0  0  0  0  0  0  0  0  0  0  0  0
   -1.2167    5.0812   -1.8303 H   0  0  0  0  0  0  0  0  0  0  0  0
   -6.6811   -1.8685   -2.4689 H   0  0  0  0  0  0  0  0  0  0  0  0
   -2.0407    5.7594    0.4380 H   0  0  0  0  0  0  0  0  0  0  0  0
  1  9  1  0  0  0  0
  2  1  1  0  0  0  0
  3  8  1  0  0  0  0
  3  1  1  0  0  0  0
  4  3  2  0  0  0  0
  5  6  2  0  0  0  0
  5  4  1  0  0  0  0
  6  7  1  0  0  0  0
  7 19  1  0  0  0  0
  7  8  2  0  0  0  0
  8 20  1  0  0  0  0
  9 10  1  0  0  0  0
 10 11  2  0  0  0  0
 10 21  1  0  0  0  0
 11 22  1  0  0  0  0
 12 23  1  0  0  0  0
 12 11  1  0  0  0  0
 13 12  2  0  0  0  0
 14 13  1  0  0  0  0
 14  9  2  0  0  0  0
 15  2  1  0  0  0  0
 16  4  1  0  0  0  0
 17  5  1  0  0  0  0
 18  6  1  0  0  0  0
 24 13  1  0  0  0  0
 25 14  1  0  0  0  0
 26 29  1  0  0  0  0
 27  2  2  0  0  0  0
 27 26  1  0  0  0  0
 28 26  1  0  0  0  0
 29 33  1  0  0  0  0
 30 27  1  0  0  0  0
 31 36  1  0  0  0  0
 31 28  2  0  0  0  0
 32 28  1  0  0  0  0
 32 38  1  0  0  0  0
 33 39  2  0  0  0  0
 33 40  1  0  0  0  0
 34 41  1  0  0  0  0
 34 29  2  0  0  0  0
 35 31  1  0  0  0  0
 37 32  2  0  0  0  0
 39 47  1  0  0  0  0
 41 46  2  0  0  0  0
 42 34  1  0  0  0  0
 43 35  2  0  0  0  0
 43 37  1  0  0  0  0
 44 35  1  0  0  0  0
 45 37  1  0  0  0  0
 46 50  1  0  0  0  0
 46 39  1  0  0  0  0
 48 41  1  0  0  0  0
 49 43  1  0  0  0  0
M  END
