1
 OpenBabel05122313063D

 42 44  0  0  1  0  0  0  0  0999 V2000
   -0.4880    0.0524   -0.0033 P   0  0  1  0  0  0  0  0  0  0  0  0
    2.8792   -0.3200   -2.6424 O   0  0  0  0  0  0  0  0  0  0  0  0
    4.1635   -1.3914   -1.1050 O   0  0  0  0  0  0  0  0  0  0  0  0
    2.9594   -0.4916    2.9186 O   0  0  0  0  0  0  0  0  0  0  0  0
    3.9674    0.3852    1.0799 O   0  0  0  0  0  0  0  0  0  0  0  0
    0.5002   -1.2175   -1.0463 C   0  0  2  0  0  0  0  0  0  0  0  0
   -0.0314   -2.4789   -0.3487 C   0  0  0  0  0  0  0  0  0  0  0  0
   -0.0143   -2.3060    1.0019 C   0  0  0  0  0  0  0  0  0  0  0  0
    0.4979   -0.9039    1.3430 C   0  0  1  0  0  0  0  0  0  0  0  0
   -0.4728   -3.6581   -1.1495 C   0  0  0  0  0  0  0  0  0  0  0  0
   -0.3857   -3.2562    2.0901 C   0  0  0  0  0  0  0  0  0  0  0  0
    1.9121   -0.9353   -0.5568 C   0  0  0  0  0  0  0  0  0  0  0  0
    1.9052   -0.7276    0.7958 C   0  0  0  0  0  0  0  0  0  0  0  0
    3.0167   -0.8306   -1.5393 C   0  0  0  0  0  0  0  0  0  0  0  0
    5.2865   -1.2446   -1.9821 C   0  0  0  0  0  0  0  0  0  0  0  0
    2.9854   -0.2981    1.7124 C   0  0  0  0  0  0  0  0  0  0  0  0
    5.0377    0.8293    1.9191 C   0  0  0  0  0  0  0  0  0  0  0  0
    0.3703    1.6697   -0.1505 C   0  0  0  0  0  0  0  0  0  0  0  0
    0.3250    2.5482    0.9524 C   0  0  0  0  0  0  0  0  0  0  0  0
    0.9263    3.8117    0.8688 C   0  0  0  0  0  0  0  0  0  0  0  0
    1.5634    4.2109   -0.3178 C   0  0  0  0  0  0  0  0  0  0  0  0
    1.6026    3.3406   -1.4178 C   0  0  0  0  0  0  0  0  0  0  0  0
    1.0088    2.0712   -1.3396 C   0  0  0  0  0  0  0  0  0  0  0  0
    0.3721   -1.1870   -2.1417 H   0  0  0  0  0  0  0  0  0  0  0  0
    0.3714   -0.5893    2.3926 H   0  0  0  0  0  0  0  0  0  0  0  0
   -1.2703   -3.3667   -1.8663 H   0  0  0  0  0  0  0  0  0  0  0  0
    0.3623   -4.0706   -1.7560 H   0  0  0  0  0  0  0  0  0  0  0  0
   -0.8699   -4.4680   -0.5090 H   0  0  0  0  0  0  0  0  0  0  0  0
   -1.1838   -2.8296    2.7340 H   0  0  0  0  0  0  0  0  0  0  0  0
   -0.7494   -4.2232    1.6952 H   0  0  0  0  0  0  0  0  0  0  0  0
    0.4866   -3.4497    2.7508 H   0  0  0  0  0  0  0  0  0  0  0  0
    6.1099   -1.8201   -1.5236 H   0  0  0  0  0  0  0  0  0  0  0  0
    5.0537   -1.6325   -2.9938 H   0  0  0  0  0  0  0  0  0  0  0  0
    5.5685   -0.1760   -2.0755 H   0  0  0  0  0  0  0  0  0  0  0  0
    5.7264    1.3917    1.2641 H   0  0  0  0  0  0  0  0  0  0  0  0
    4.6568    1.4804    2.7317 H   0  0  0  0  0  0  0  0  0  0  0  0
    5.5603   -0.0319    2.3828 H   0  0  0  0  0  0  0  0  0  0  0  0
   -0.1828    2.2477    1.8828 H   0  0  0  0  0  0  0  0  0  0  0  0
    0.8925    4.4901    1.7347 H   0  0  0  0  0  0  0  0  0  0  0  0
    2.0303    5.2053   -0.3841 H   0  0  0  0  0  0  0  0  0  0  0  0
    2.1060    3.6457   -2.3476 H   0  0  0  0  0  0  0  0  0  0  0  0
    1.0782    1.3878   -2.1989 H   0  0  0  0  0  0  0  0  0  0  0  0
  1 18  1  6  0  0  0
  1  9  1  0  0  0  0
  2 14  2  0  0  0  0
  5 16  1  0  0  0  0
  5 17  1  0  0  0  0
  6 24  1  6  0  0  0
  6 12  1  0  0  0  0
  6  7  1  0  0  0  0
  6  1  1  0  0  0  0
  7  8  2  0  0  0  0
  8  9  1  0  0  0  0
  8 11  1  0  0  0  0
  9 25  1  1  0  0  0
 10 28  1  0  0  0  0
 10  7  1  0  0  0  0
 11 29  1  0  0  0  0
 11 31  1  0  0  0  0
 12 13  2  0  0  0  0
 13  9  1  0  0  0  0
 13 16  1  0  0  0  0
 14  3  1  0  0  0  0
 14 12  1  0  0  0  0
 15 32  1  0  0  0  0
 15  3  1  0  0  0  0
 16  4  2  0  0  0  0
 17 37  1  0  0  0  0
 17 36  1  0  0  0  0
 18 19  1  0  0  0  0
 19 38  1  0  0  0  0
 20 19  2  0  0  0  0
 20 39  1  0  0  0  0
 21 20  1  0  0  0  0
 22 23  1  0  0  0  0
 22 21  2  0  0  0  0
 23 18  2  0  0  0  0
 26 10  1  0  0  0  0
 27 10  1  0  0  0  0
 30 11  1  0  0  0  0
 33 15  1  0  0  0  0
 34 15  1  0  0  0  0
 35 17  1  0  0  0  0
 40 21  1  0  0  0  0
 41 22  1  0  0  0  0
 42 23  1  0  0  0  0
M  END
