1
 OpenBabel05122313063D

 48 49  0  0  0  0  0  0  0  0999 V2000
   -1.4239   -0.9462   -0.0177 P   0  0  0  0  0  0  0  0  0  0  0  0
   -2.5762    0.3887    0.5213 C   0  0  0  0  0  0  0  0  0  0  0  0
   -3.8592    0.0063    0.9829 C   0  0  0  0  0  0  0  0  0  0  0  0
   -4.1474   -1.0517    0.9818 H   0  0  0  0  0  0  0  0  0  0  0  0
   -4.7820    0.9463    1.4551 C   0  0  0  0  0  0  0  0  0  0  0  0
   -5.7698    0.6140    1.8063 H   0  0  0  0  0  0  0  0  0  0  0  0
   -4.4348    2.3037    1.4786 C   0  0  0  0  0  0  0  0  0  0  0  0
   -5.1473    3.0564    1.8474 H   0  0  0  0  0  0  0  0  0  0  0  0
   -3.1699    2.7000    1.0296 C   0  0  0  0  0  0  0  0  0  0  0  0
   -2.8922    3.7645    1.0451 H   0  0  0  0  0  0  0  0  0  0  0  0
   -2.2240    1.7680    0.5457 C   0  0  0  0  0  0  0  0  0  0  0  0
   -0.9156    2.3517    0.1079 C   0  0  0  0  0  0  0  0  0  0  0  0
    0.0458    2.7272    1.0733 C   0  0  0  0  0  0  0  0  0  0  0  0
   -0.1389    2.4961    2.1333 H   0  0  0  0  0  0  0  0  0  0  0  0
    1.2148    3.4055    0.6927 C   0  0  0  0  0  0  0  0  0  0  0  0
    1.9427    3.7117    1.4597 H   0  0  0  0  0  0  0  0  0  0  0  0
    1.4409    3.7235   -0.6591 C   0  0  0  0  0  0  0  0  0  0  0  0
    2.3390    4.2894   -0.9516 H   0  0  0  0  0  0  0  0  0  0  0  0
    0.4864    3.3601   -1.6271 C   0  0  0  0  0  0  0  0  0  0  0  0
    0.6420    3.6265   -2.6835 H   0  0  0  0  0  0  0  0  0  0  0  0
   -0.6827    2.6817   -1.2469 C   0  0  0  0  0  0  0  0  0  0  0  0
   -1.4380    2.4208   -2.0026 H   0  0  0  0  0  0  0  0  0  0  0  0
   -1.1636   -2.1021    1.4854 C   0  0  0  0  0  0  0  0  0  0  0  0
   -0.9256   -1.1604    2.6821 C   0  0  0  0  0  0  0  0  0  0  0  0
   -0.1053   -0.4406    2.4780 H   0  0  0  0  0  0  0  0  0  0  0  0
   -0.6262   -1.7682    3.5606 H   0  0  0  0  0  0  0  0  0  0  0  0
   -1.8328   -0.5880    2.9548 H   0  0  0  0  0  0  0  0  0  0  0  0
    0.1105   -2.9358    1.2413 C   0  0  0  0  0  0  0  0  0  0  0  0
    0.0209   -3.6095    0.3692 H   0  0  0  0  0  0  0  0  0  0  0  0
    0.2936   -3.5683    2.1344 H   0  0  0  0  0  0  0  0  0  0  0  0
    1.0022   -2.2937    1.0916 H   0  0  0  0  0  0  0  0  0  0  0  0
   -2.3384   -3.0499    1.7726 C   0  0  0  0  0  0  0  0  0  0  0  0
   -3.2841   -2.5170    1.9829 H   0  0  0  0  0  0  0  0  0  0  0  0
   -2.0962   -3.6417    2.6797 H   0  0  0  0  0  0  0  0  0  0  0  0
   -2.5077   -3.7717    0.9507 H   0  0  0  0  0  0  0  0  0  0  0  0
   -2.1903   -1.7520   -1.5650 C   0  0  0  0  0  0  0  0  0  0  0  0
   -1.2999   -2.9380   -1.9753 C   0  0  0  0  0  0  0  0  0  0  0  0
   -0.2313   -2.6488   -2.0470 H   0  0  0  0  0  0  0  0  0  0  0  0
   -1.6214   -3.2995   -2.9737 H   0  0  0  0  0  0  0  0  0  0  0  0
   -1.3878   -3.7900   -1.2736 H   0  0  0  0  0  0  0  0  0  0  0  0
   -3.6457   -2.2157   -1.3918 C   0  0  0  0  0  0  0  0  0  0  0  0
   -3.7723   -2.9526   -0.5772 H   0  0  0  0  0  0  0  0  0  0  0  0
   -3.9651   -2.7092   -2.3330 H   0  0  0  0  0  0  0  0  0  0  0  0
   -4.3352   -1.3681   -1.2203 H   0  0  0  0  0  0  0  0  0  0  0  0
   -2.1417   -0.6575   -2.6498 C   0  0  0  0  0  0  0  0  0  0  0  0
   -2.7414    0.2303   -2.3642 H   0  0  0  0  0  0  0  0  0  0  0  0
   -2.5697   -1.0635   -3.5896 H   0  0  0  0  0  0  0  0  0  0  0  0
   -1.1034   -0.3290   -2.8600 H   0  0  0  0  0  0  0  0  0  0  0  0
  1  2  1  0  0  0  0
  1 23  1  0  0  0  0
  2 11  2  0  0  0  0
  2  3  1  0  0  0  0
  3  5  2  0  0  0  0
  4  3  1  0  0  0  0
  5  7  1  0  0  0  0
  5  6  1  0  0  0  0
  7  8  1  0  0  0  0
  9 10  1  0  0  0  0
  9  7  2  0  0  0  0
 11  9  1  0  0  0  0
 12 11  1  0  0  0  0
 12 13  1  0  0  0  0
 13 14  1  0  0  0  0
 15 13  2  0  0  0  0
 15 16  1  0  0  0  0
 17 15  1  0  0  0  0
 18 17  1  0  0  0  0
 19 21  1  0  0  0  0
 19 17  2  0  0  0  0
 20 19  1  0  0  0  0
 21 12  2  0  0  0  0
 22 21  1  0  0  0  0
 23 32  1  0  0  0  0
 23 24  1  0  0  0  0
 24 27  1  0  0  0  0
 24 26  1  0  0  0  0
 25 24  1  0  0  0  0
 28 23  1  0  0  0  0
 28 30  1  0  0  0  0
 29 28  1  0  0  0  0
 31 28  1  0  0  0  0
 32 33  1  0  0  0  0
 32 34  1  0  0  0  0
 35 32  1  0  0  0  0
 36 41  1  0  0  0  0
 36  1  1  0  0  0  0
 37 36  1  0  0  0  0
 37 40  1  0  0  0  0
 38 37  1  0  0  0  0
 39 37  1  0  0  0  0
 41 44  1  0  0  0  0
 41 42  1  0  0  0  0
 43 41  1  0  0  0  0
 45 46  1  0  0  0  0
 45 36  1  0  0  0  0
 47 45  1  0  0  0  0
 48 45  1  0  0  0  0
M  END
