1
q = 0.0, confidence = 0.994

 45 46  0  0  1  0  0  0  0  0999 V2000
   -0.5502    0.1987   -0.5859 P   0  0  1  0  0  0  0  0  0  0  0  0
   -3.6019   -0.5661   -1.2149 Si  0  0  0  0  0  0  0  0  0  0  0  0
   -2.6452    0.6995    1.6862 Si  0  0  0  0  0  0  0  0  0  0  0  0
   -0.6402    1.0201   -2.2359 C   0  0  0  0  0  0  0  0  0  0  0  0
   -1.5607    0.9693   -2.8360 H   0  0  0  0  0  0  0  0  0  0  0  0
    0.2745    0.8964   -2.8379 H   0  0  0  0  0  0  0  0  0  0  0  0
   -0.5970    2.0125   -1.0890 C   0  0  2  0  0  0  0  0  0  0  0  0
   -1.5802    2.4488   -0.8388 H   0  0  0  0  0  0  0  0  0  0  0  0
    0.5490    2.9134   -0.7984 C   0  0  0  0  0  0  0  0  0  0  0  0
    0.3948    3.9260    0.1757 C   0  0  0  0  0  0  0  0  0  0  0  0
   -0.5870    4.0679    0.6544 H   0  0  0  0  0  0  0  0  0  0  0  0
    1.4705    4.7456    0.5394 C   0  0  0  0  0  0  0  0  0  0  0  0
    1.3290    5.5234    1.3051 H   0  0  0  0  0  0  0  0  0  0  0  0
    2.7246    4.5760   -0.0695 C   0  0  0  0  0  0  0  0  0  0  0  0
    3.5728    5.2137    0.2207 H   0  0  0  0  0  0  0  0  0  0  0  0
    2.8836    3.5928   -1.0573 C   0  0  0  0  0  0  0  0  0  0  0  0
    3.8576    3.4579   -1.5517 H   0  0  0  0  0  0  0  0  0  0  0  0
    1.8067    2.7718   -1.4215 C   0  0  0  0  0  0  0  0  0  0  0  0
    1.9558    2.0145   -2.2028 H   0  0  0  0  0  0  0  0  0  0  0  0
   -2.2103   -0.2683    0.0705 C   0  0  0  0  0  0  0  0  0  0  0  0
   -2.0156   -1.3020    0.4407 H   0  0  0  0  0  0  0  0  0  0  0  0
   -2.9492   -1.7751   -2.5160 C   0  0  0  0  0  0  0  0  0  0  0  0
   -2.1099   -1.3526   -3.1032 H   0  0  0  0  0  0  0  0  0  0  0  0
   -3.7554   -2.0524   -3.2263 H   0  0  0  0  0  0  0  0  0  0  0  0
   -2.5801   -2.7065   -2.0395 H   0  0  0  0  0  0  0  0  0  0  0  0
   -4.2362    1.0180   -2.0432 C   0  0  0  0  0  0  0  0  0  0  0  0
   -4.9565    0.7376   -2.8400 H   0  0  0  0  0  0  0  0  0  0  0  0
   -3.4453    1.6324   -2.5160 H   0  0  0  0  0  0  0  0  0  0  0  0
   -4.7728    1.6629   -1.3207 H   0  0  0  0  0  0  0  0  0  0  0  0
   -5.0669   -1.3706   -0.3246 C   0  0  0  0  0  0  0  0  0  0  0  0
   -4.7604   -2.2859    0.2214 H   0  0  0  0  0  0  0  0  0  0  0  0
   -5.8403   -1.6620   -1.0652 H   0  0  0  0  0  0  0  0  0  0  0  0
   -5.5413   -0.6796    0.4009 H   0  0  0  0  0  0  0  0  0  0  0  0
   -3.4684   -0.5159    2.8782 C   0  0  0  0  0  0  0  0  0  0  0  0
   -2.7676   -1.3399    3.1241 H   0  0  0  0  0  0  0  0  0  0  0  0
   -4.3959   -0.9586    2.4657 H   0  0  0  0  0  0  0  0  0  0  0  0
   -3.7277   -0.0013    3.8266 H   0  0  0  0  0  0  0  0  0  0  0  0
   -3.8184    2.1454    1.3315 C   0  0  0  0  0  0  0  0  0  0  0  0
   -3.4079    2.8517    0.5815 H   0  0  0  0  0  0  0  0  0  0  0  0
   -3.9869    2.7150    2.2688 H   0  0  0  0  0  0  0  0  0  0  0  0
   -4.8074    1.7995    0.9694 H   0  0  0  0  0  0  0  0  0  0  0  0
   -1.0947    1.3844    2.5263 C   0  0  0  0  0  0  0  0  0  0  0  0
   -0.4452    0.5722    2.9052 H   0  0  0  0  0  0  0  0  0  0  0  0
   -1.4049    1.9969    3.3987 H   0  0  0  0  0  0  0  0  0  0  0  0
   -0.4805    2.0260    1.8650 H   0  0  0  0  0  0  0  0  0  0  0  0
  1 20  1  1  0  0  0
  2 30  1  0  0  0  0
  2 20  1  0  0  0  0
  3 42  1  0  0  0  0
  3 34  1  0  0  0  0
  4  7  1  0  0  0  0
  4  1  1  0  0  0  0
  5  4  1  0  0  0  0
  6  4  1  0  0  0  0
  7  8  1  1  0  0  0
  7  9  1  0  0  0  0
  7  1  1  0  0  0  0
  9 10  1  0  0  0  0
 10 12  2  0  0  0  0
 10 11  1  0  0  0  0
 12 13  1  0  0  0  0
 14 15  1  0  0  0  0
 14 12  1  0  0  0  0
 16 14  2  0  0  0  0
 17 16  1  0  0  0  0
 18 16  1  0  0  0  0
 18  9  2  0  0  0  0
 19 18  1  0  0  0  0
 20 21  1  0  0  0  0
 20  3  1  0  0  0  0
 22 25  1  0  0  0  0
 22  2  1  0  0  0  0
 23 22  1  0  0  0  0
 24 22  1  0  0  0  0
 26 29  1  0  0  0  0
 26  2  1  0  0  0  0
 27 26  1  0  0  0  0
 28 26  1  0  0  0  0
 30 31  1  0  0  0  0
 30 33  1  0  0  0  0
 32 30  1  0  0  0  0
 34 35  1  0  0  0  0
 34 37  1  0  0  0  0
 36 34  1  0  0  0  0
 38  3  1  0  0  0  0
 38 40  1  0  0  0  0
 39 38  1  0  0  0  0
 41 38  1  0  0  0  0
 42 43  1  0  0  0  0
 42 44  1  0  0  0  0
 45 42  1  0  0  0  0
M  END
