12
 OpenBabel05122313063D

 28 28  0  0  0  0  0  0  0  0999 V2000
    2.2880    1.6269    0.0064 P   0  0  0  0  0  0  0  0  0  0  0  0
    2.4962    2.7725    1.4394 C   0  0  0  0  0  0  0  0  0  0  0  0
    1.5878    3.4030    1.4955 H   0  0  0  0  0  0  0  0  0  0  0  0
    3.3911    3.4122    1.3102 H   0  0  0  0  0  0  0  0  0  0  0  0
    2.5770    2.1779    2.3675 H   0  0  0  0  0  0  0  0  0  0  0  0
    2.4962    2.7838   -1.4175 C   0  0  0  0  0  0  0  0  0  0  0  0
    1.5878    3.4147   -1.4686 H   0  0  0  0  0  0  0  0  0  0  0  0
    3.3911    3.4225   -1.2832 H   0  0  0  0  0  0  0  0  0  0  0  0
    2.5770    2.1966   -2.3502 H   0  0  0  0  0  0  0  0  0  0  0  0
    3.8964    0.7062    0.0028 C   0  0  0  0  0  0  0  0  0  0  0  0
    3.8964   -0.7063   -0.0028 C   0  0  0  0  0  0  0  0  0  0  0  0
    2.2880   -1.6269   -0.0064 P   0  0  0  0  0  0  0  0  0  0  0  0
    2.4961   -2.7725   -1.4394 C   0  0  0  0  0  0  0  0  0  0  0  0
    1.5877   -3.4030   -1.4955 H   0  0  0  0  0  0  0  0  0  0  0  0
    3.3910   -3.4122   -1.3103 H   0  0  0  0  0  0  0  0  0  0  0  0
    2.5769   -2.1779   -2.3675 H   0  0  0  0  0  0  0  0  0  0  0  0
    2.4961   -2.7838    1.4175 C   0  0  0  0  0  0  0  0  0  0  0  0
    1.5877   -3.4147    1.4686 H   0  0  0  0  0  0  0  0  0  0  0  0
    3.3910   -3.4225    1.2833 H   0  0  0  0  0  0  0  0  0  0  0  0
    2.5769   -2.1966    2.3502 H   0  0  0  0  0  0  0  0  0  0  0  0
    5.1264   -1.3979   -0.0055 C   0  0  0  0  0  0  0  0  0  0  0  0
    5.1382   -2.4989   -0.0099 H   0  0  0  0  0  0  0  0  0  0  0  0
    6.3416   -0.7023   -0.0028 C   0  0  0  0  0  0  0  0  0  0  0  0
    6.3416    0.7022    0.0028 C   0  0  0  0  0  0  0  0  0  0  0  0
    5.1264    1.3978    0.0055 C   0  0  0  0  0  0  0  0  0  0  0  0
    5.1383    2.4989    0.0099 H   0  0  0  0  0  0  0  0  0  0  0  0
    7.2924    1.2567    0.0050 H   0  0  0  0  0  0  0  0  0  0  0  0
    7.2924   -1.2568   -0.0050 H   0  0  0  0  0  0  0  0  0  0  0  0
  1  2  1  0  0  0  0
  2  3  1  0  0  0  0
  2  5  1  0  0  0  0
  4  2  1  0  0  0  0
  6  8  1  0  0  0  0
  6  1  1  0  0  0  0
  7  6  1  0  0  0  0
  9  6  1  0  0  0  0
 10 25  1  0  0  0  0
 10  1  1  0  0  0  0
 11 10  2  0  0  0  0
 12 11  1  0  0  0  0
 12 17  1  0  0  0  0
 13 15  1  0  0  0  0
 13 12  1  0  0  0  0
 14 13  1  0  0  0  0
 16 13  1  0  0  0  0
 17 18  1  0  0  0  0
 17 20  1  0  0  0  0
 19 17  1  0  0  0  0
 21 11  1  0  0  0  0
 21 23  2  0  0  0  0
 22 21  1  0  0  0  0
 23 24  1  0  0  0  0
 24 27  1  0  0  0  0
 24 25  2  0  0  0  0
 25 26  1  0  0  0  0
 28 23  1  0  0  0  0
M  END
