1
 OpenBabel05122313063D

 25 26  0  0  0  0  0  0  0  0999 V2000
   -0.9044   -0.0460    0.6864 P   0  0  0  0  0  0  0  0  0  0  0  0
   -0.9875   -0.0388    2.3609 O   0  0  0  0  0  0  0  0  0  0  0  0
   -1.9135   -0.1637    2.6564 H   0  0  0  0  0  0  0  0  0  0  0  0
   -2.0518   -1.4147    0.2364 C   0  0  0  0  0  0  0  0  0  0  0  0
   -1.5339   -2.6880   -0.0758 C   0  0  0  0  0  0  0  0  0  0  0  0
   -0.4456   -2.8412   -0.1072 H   0  0  0  0  0  0  0  0  0  0  0  0
   -2.4008   -3.7567   -0.3458 C   0  0  0  0  0  0  0  0  0  0  0  0
   -1.9863   -4.7457   -0.5923 H   0  0  0  0  0  0  0  0  0  0  0  0
   -3.7907   -3.5633   -0.3062 C   0  0  0  0  0  0  0  0  0  0  0  0
   -4.4698   -4.4018   -0.5231 H   0  0  0  0  0  0  0  0  0  0  0  0
   -4.3146   -2.2979    0.0053 C   0  0  0  0  0  0  0  0  0  0  0  0
   -5.4037   -2.1420    0.0320 H   0  0  0  0  0  0  0  0  0  0  0  0
   -3.4512   -1.2262    0.2739 C   0  0  0  0  0  0  0  0  0  0  0  0
   -3.8667   -0.2316    0.4996 H   0  0  0  0  0  0  0  0  0  0  0  0
   -1.8544    1.4516    0.2089 C   0  0  0  0  0  0  0  0  0  0  0  0
   -2.0617    2.4849    1.1421 C   0  0  0  0  0  0  0  0  0  0  0  0
   -1.7093    2.3584    2.1771 H   0  0  0  0  0  0  0  0  0  0  0  0
   -2.7010    3.6701    0.7442 C   0  0  0  0  0  0  0  0  0  0  0  0
   -2.8610    4.4758    1.4768 H   0  0  0  0  0  0  0  0  0  0  0  0
   -3.1273    3.8298   -0.5829 C   0  0  0  0  0  0  0  0  0  0  0  0
   -3.6243    4.7611   -0.8938 H   0  0  0  0  0  0  0  0  0  0  0  0
   -2.9119    2.8027   -1.5179 C   0  0  0  0  0  0  0  0  0  0  0  0
   -3.2392    2.9283   -2.5611 H   0  0  0  0  0  0  0  0  0  0  0  0
   -2.2751    1.6177   -1.1272 C   0  0  0  0  0  0  0  0  0  0  0  0
   -2.0993    0.8174   -1.8639 H   0  0  0  0  0  0  0  0  0  0  0  0
  1  2  1  0  0  0  0
  2  3  1  0  0  0  0
  4 13  1  0  0  0  0
  4  1  1  0  0  0  0
  5  4  2  0  0  0  0
  6  5  1  0  0  0  0
  7  9  2  0  0  0  0
  7  5  1  0  0  0  0
  8  7  1  0  0  0  0
  9 11  1  0  0  0  0
 10  9  1  0  0  0  0
 11 12  1  0  0  0  0
 11 13  2  0  0  0  0
 13 14  1  0  0  0  0
 15  1  1  0  0  0  0
 15 16  1  0  0  0  0
 16 17  1  0  0  0  0
 18 16  2  0  0  0  0
 18 19  1  0  0  0  0
 20 18  1  0  0  0  0
 21 20  1  0  0  0  0
 22 24  1  0  0  0  0
 22 20  2  0  0  0  0
 23 22  1  0  0  0  0
 24 15  2  0  0  0  0
 25 24  1  0  0  0  0
M  END
