1
 OpenBabel05122313063D

 72 72  0  0  0  0  0  0  0  0999 V2000
   -0.7659    0.0015    0.7058 P   0  0  2  0  0  0  0  0  0  0  0  0
    0.9432   -1.5706    0.5449 P   0  0  2  0  0  0  0  0  0  0  0  0
    1.9503   -0.0037   -0.7325 P   0  0  1  0  0  0  0  0  0  0  0  0
    0.9493    1.5672    0.5446 P   0  0  1  0  0  0  0  0  0  0  0  0
   -1.1268    0.0030    2.9782 Si  0  0  0  0  0  0  0  0  0  0  0  0
    0.5658    0.0015    3.8203 C   0  0  0  0  0  0  0  0  0  0  0  0
   -2.0860    1.5536    3.4655 C   0  0  0  0  0  0  0  0  0  0  0  0
   -2.0895   -1.5447    3.4675 C   0  0  0  0  0  0  0  0  0  0  0  0
    4.0427   -0.0078    0.1955 Si  0  0  0  0  0  0  0  0  0  0  0  0
    4.8873   -1.5724   -0.4528 C   0  0  0  0  0  0  0  0  0  0  0  0
    4.0176   -0.0084    2.0838 C   0  0  0  0  0  0  0  0  0  0  0  0
    4.8932    1.5540   -0.4518 C   0  0  0  0  0  0  0  0  0  0  0  0
    0.5970   -2.8348   -0.5494 N   0  0  0  0  0  0  0  0  0  0  0  0
    0.3799   -2.6700   -2.0002 C   0  0  0  0  0  0  0  0  0  0  0  0
    1.5890   -3.1522   -2.8131 C   0  0  0  0  0  0  0  0  0  0  0  0
   -0.9313   -3.3015   -2.4803 C   0  0  0  0  0  0  0  0  0  0  0  0
    0.6943   -4.2158   -0.0106 C   0  0  0  0  0  0  0  0  0  0  0  0
    2.1263   -4.5791    0.4080 C   0  0  0  0  0  0  0  0  0  0  0  0
   -0.3117   -4.4637    1.1186 C   0  0  0  0  0  0  0  0  0  0  0  0
    0.6081    2.8326   -0.5500 N   0  0  0  0  0  0  0  0  0  0  0  0
    0.7101    4.2132   -0.0110 C   0  0  0  0  0  0  0  0  0  0  0  0
    2.1432    4.5712    0.4085 C   0  0  0  0  0  0  0  0  0  0  0  0
   -0.2957    4.4649    1.1175 C   0  0  0  0  0  0  0  0  0  0  0  0
    0.3913    2.6687   -2.0009 C   0  0  0  0  0  0  0  0  0  0  0  0
    1.6029    3.1461   -2.8129 C   0  0  0  0  0  0  0  0  0  0  0  0
   -0.9171    3.3055   -2.4818 C   0  0  0  0  0  0  0  0  0  0  0  0
    1.1523    0.8988    3.5390 H   0  0  0  0  0  0  0  0  0  0  0  0
    1.1509   -0.8966    3.5388 H   0  0  0  0  0  0  0  0  0  0  0  0
    0.4320    0.0015    4.9226 H   0  0  0  0  0  0  0  0  0  0  0  0
   -3.1194    1.5384    3.0700 H   0  0  0  0  0  0  0  0  0  0  0  0
   -1.5937    2.4761    3.1009 H   0  0  0  0  0  0  0  0  0  0  0  0
   -2.1380    1.6045    4.5737 H   0  0  0  0  0  0  0  0  0  0  0  0
   -3.1230   -1.5276    3.0724 H   0  0  0  0  0  0  0  0  0  0  0  0
   -2.1412   -1.5942    4.5758 H   0  0  0  0  0  0  0  0  0  0  0  0
   -1.5994   -2.4688    3.1039 H   0  0  0  0  0  0  0  0  0  0  0  0
    4.3434   -2.4781   -0.1158 H   0  0  0  0  0  0  0  0  0  0  0  0
    5.9294   -1.6393   -0.0758 H   0  0  0  0  0  0  0  0  0  0  0  0
    4.9191   -1.5816   -1.5611 H   0  0  0  0  0  0  0  0  0  0  0  0
    3.4927   -0.9048    2.4702 H   0  0  0  0  0  0  0  0  0  0  0  0
    3.4945    0.8888    2.4707 H   0  0  0  0  0  0  0  0  0  0  0  0
    5.0534   -0.0096    2.4833 H   0  0  0  0  0  0  0  0  0  0  0  0
    4.9248    1.5639   -1.5601 H   0  0  0  0  0  0  0  0  0  0  0  0
    5.9356    1.6166   -0.0751 H   0  0  0  0  0  0  0  0  0  0  0  0
    4.3529    2.4615   -0.1140 H   0  0  0  0  0  0  0  0  0  0  0  0
    0.3024   -1.5768   -2.1590 H   0  0  0  0  0  0  0  0  0  0  0  0
    1.4393   -2.9359   -3.8902 H   0  0  0  0  0  0  0  0  0  0  0  0
    1.7480   -4.2459   -2.7110 H   0  0  0  0  0  0  0  0  0  0  0  0
    2.5113   -2.6334   -2.4819 H   0  0  0  0  0  0  0  0  0  0  0  0
   -1.1044   -3.0412   -3.5433 H   0  0  0  0  0  0  0  0  0  0  0  0
   -1.7868   -2.9221   -1.8911 H   0  0  0  0  0  0  0  0  0  0  0  0
   -0.9154   -4.4087   -2.4072 H   0  0  0  0  0  0  0  0  0  0  0  0
    0.4122   -4.8761   -0.8568 H   0  0  0  0  0  0  0  0  0  0  0  0
    2.8351   -4.4378   -0.4313 H   0  0  0  0  0  0  0  0  0  0  0  0
    2.1864   -5.6357    0.7397 H   0  0  0  0  0  0  0  0  0  0  0  0
    2.4578   -3.9382    1.2516 H   0  0  0  0  0  0  0  0  0  0  0  0
   -0.2862   -5.5242    1.4417 H   0  0  0  0  0  0  0  0  0  0  0  0
   -1.3416   -4.2138    0.8006 H   0  0  0  0  0  0  0  0  0  0  0  0
   -0.0635   -3.8390    2.0027 H   0  0  0  0  0  0  0  0  0  0  0  0
    0.4311    4.8746   -0.8574 H   0  0  0  0  0  0  0  0  0  0  0  0
    2.8521    4.4273   -0.4302 H   0  0  0  0  0  0  0  0  0  0  0  0
    2.4717    3.9292    1.2524 H   0  0  0  0  0  0  0  0  0  0  0  0
    2.2070    5.6276    0.7403 H   0  0  0  0  0  0  0  0  0  0  0  0
   -1.3263    4.2187    0.7988 H   0  0  0  0  0  0  0  0  0  0  0  0
   -0.2666    5.5253    1.4405 H   0  0  0  0  0  0  0  0  0  0  0  0
   -0.0504    3.8393    2.0017 H   0  0  0  0  0  0  0  0  0  0  0  0
    0.3095    1.5759   -2.1598 H   0  0  0  0  0  0  0  0  0  0  0  0
    1.4530    2.9305   -3.8901 H   0  0  0  0  0  0  0  0  0  0  0  0
    2.5228    2.6235   -2.4811 H   0  0  0  0  0  0  0  0  0  0  0  0
    1.7662    4.2391   -2.7105 H   0  0  0  0  0  0  0  0  0  0  0  0
   -1.0908    3.0454   -3.5447 H   0  0  0  0  0  0  0  0  0  0  0  0
   -0.8966    4.4126   -2.4092 H   0  0  0  0  0  0  0  0  0  0  0  0
   -1.7743    2.9300   -1.8928 H   0  0  0  0  0  0  0  0  0  0  0  0
  1  5  1  1  0  0  0
  2 13  1  6  0  0  0
  2  1  1  0  0  0  0
  3  9  1  1  0  0  0
  3  4  1  0  0  0  0
  3  2  1  0  0  0  0
  4 20  1  6  0  0  0
  4  1  1  0  0  0  0
  5  7  1  0  0  0  0
  5  8  1  0  0  0  0
  5  6  1  0  0  0  0
  6 29  1  0  0  0  0
  7 32  1  0  0  0  0
  8 34  1  0  0  0  0
  9 11  1  0  0  0  0
 10 36  1  0  0  0  0
 10 37  1  0  0  0  0
 10  9  1  0  0  0  0
 11 39  1  0  0  0  0
 11 40  1  0  0  0  0
 11 41  1  0  0  0  0
 12 44  1  0  0  0  0
 12 43  1  0  0  0  0
 12  9  1  0  0  0  0
 13 17  1  0  0  0  0
 14 13  1  0  0  0  0
 15 47  1  0  0  0  0
 15 48  1  0  0  0  0
 15 14  1  0  0  0  0
 16 51  1  0  0  0  0
 16 14  1  0  0  0  0
 16 50  1  0  0  0  0
 17 18  1  0  0  0  0
 17 19  1  0  0  0  0
 18 54  1  0  0  0  0
 18 55  1  0  0  0  0
 19 56  1  0  0  0  0
 19 58  1  0  0  0  0
 20 21  1  0  0  0  0
 21 22  1  0  0  0  0
 21 23  1  0  0  0  0
 22 62  1  0  0  0  0
 22 61  1  0  0  0  0
 23 64  1  0  0  0  0
 23 65  1  0  0  0  0
 24 20  1  0  0  0  0
 25 69  1  0  0  0  0
 25 68  1  0  0  0  0
 25 24  1  0  0  0  0
 26 71  1  0  0  0  0
 26 24  1  0  0  0  0
 26 72  1  0  0  0  0
 27  6  1  0  0  0  0
 28  6  1  0  0  0  0
 30  7  1  0  0  0  0
 31  7  1  0  0  0  0
 33  8  1  0  0  0  0
 35  8  1  0  0  0  0
 38 10  1  0  0  0  0
 42 12  1  0  0  0  0
 45 14  1  0  0  0  0
 46 15  1  0  0  0  0
 49 16  1  0  0  0  0
 52 17  1  0  0  0  0
 53 18  1  0  0  0  0
 57 19  1  0  0  0  0
 59 21  1  0  0  0  0
 60 22  1  0  0  0  0
 63 23  1  0  0  0  0
 66 24  1  0  0  0  0
 67 25  1  0  0  0  0
 70 26  1  0  0  0  0
M  END
