1
 OpenBabel05122313063D

 49 52  0  0  0  0  0  0  0  0999 V2000
   -0.6868    0.3893    0.4932 P   0  0  0  0  0  0  0  0  0  0  0  0
    1.9843   -0.8115   -0.4882 P   0  0  0  0  0  0  0  0  0  0  0  0
    0.8883   -0.4523    1.0022 C   0  0  0  0  0  0  0  0  0  0  0  0
   -1.4720    0.8338    2.1009 C   0  0  0  0  0  0  0  0  0  0  0  0
   -1.2584    0.0822    3.2724 C   0  0  0  0  0  0  0  0  0  0  0  0
   -1.9651    0.3879    4.4466 C   0  0  0  0  0  0  0  0  0  0  0  0
   -2.8903    1.4418    4.4603 C   0  0  0  0  0  0  0  0  0  0  0  0
   -3.1098    2.1919    3.2928 C   0  0  0  0  0  0  0  0  0  0  0  0
   -2.4076    1.8903    2.1187 C   0  0  0  0  0  0  0  0  0  0  0  0
   -0.1187    2.0395   -0.1088 C   0  0  0  0  0  0  0  0  0  0  0  0
   -0.4512    2.4913   -1.3981 C   0  0  0  0  0  0  0  0  0  0  0  0
   -0.0108    3.7476   -1.8451 C   0  0  0  0  0  0  0  0  0  0  0  0
    0.7704    4.5558   -1.0083 C   0  0  0  0  0  0  0  0  0  0  0  0
    1.1070    4.1101    0.2816 C   0  0  0  0  0  0  0  0  0  0  0  0
    0.6603    2.8626    0.7324 C   0  0  0  0  0  0  0  0  0  0  0  0
    2.9765    0.7521   -0.5397 C   0  0  0  0  0  0  0  0  0  0  0  0
    2.9490    1.4999   -1.7329 C   0  0  0  0  0  0  0  0  0  0  0  0
    3.6570    2.7087   -1.8310 C   0  0  0  0  0  0  0  0  0  0  0  0
    4.4060    3.1748   -0.7408 C   0  0  0  0  0  0  0  0  0  0  0  0
    4.4424    2.4334    0.4529 C   0  0  0  0  0  0  0  0  0  0  0  0
    3.7297    1.2312    0.5539 C   0  0  0  0  0  0  0  0  0  0  0  0
    3.1798   -2.0004    0.2817 C   0  0  0  0  0  0  0  0  0  0  0  0
    2.6947   -3.1560    0.9349 C   0  0  0  0  0  0  0  0  0  0  0  0
    3.5801   -4.1250    1.4282 C   0  0  0  0  0  0  0  0  0  0  0  0
    4.9655   -3.9701    1.2616 C   0  0  0  0  0  0  0  0  0  0  0  0
    5.4564   -2.8412    0.5885 C   0  0  0  0  0  0  0  0  0  0  0  0
    4.5737   -1.8655    0.1001 C   0  0  0  0  0  0  0  0  0  0  0  0
    1.4214    0.1247    1.7858 H   0  0  0  0  0  0  0  0  0  0  0  0
    0.5910   -1.4301    1.4302 H   0  0  0  0  0  0  0  0  0  0  0  0
   -0.5430   -0.7533    3.2777 H   0  0  0  0  0  0  0  0  0  0  0  0
   -1.7902   -0.2062    5.3563 H   0  0  0  0  0  0  0  0  0  0  0  0
   -3.4446    1.6781    5.3810 H   0  0  0  0  0  0  0  0  0  0  0  0
   -3.8362    3.0186    3.2954 H   0  0  0  0  0  0  0  0  0  0  0  0
   -2.5872    2.4792    1.2057 H   0  0  0  0  0  0  0  0  0  0  0  0
   -1.0581    1.8565   -2.0574 H   0  0  0  0  0  0  0  0  0  0  0  0
   -0.2805    4.0909   -2.8551 H   0  0  0  0  0  0  0  0  0  0  0  0
    1.1219    5.5378   -1.3596 H   0  0  0  0  0  0  0  0  0  0  0  0
    1.7256    4.7383    0.9396 H   0  0  0  0  0  0  0  0  0  0  0  0
    0.9181    2.5266    1.7485 H   0  0  0  0  0  0  0  0  0  0  0  0
    2.3544    1.1331   -2.5842 H   0  0  0  0  0  0  0  0  0  0  0  0
    3.6192    3.2897   -2.7649 H   0  0  0  0  0  0  0  0  0  0  0  0
    4.9636    4.1207   -0.8185 H   0  0  0  0  0  0  0  0  0  0  0  0
    5.0306    2.7959    1.3101 H   0  0  0  0  0  0  0  0  0  0  0  0
    3.7694    0.6501    1.4890 H   0  0  0  0  0  0  0  0  0  0  0  0
    1.6121   -3.3223    1.0423 H   0  0  0  0  0  0  0  0  0  0  0  0
    3.1801   -5.0139    1.9397 H   0  0  0  0  0  0  0  0  0  0  0  0
    5.6594   -4.7321    1.6475 H   0  0  0  0  0  0  0  0  0  0  0  0
    6.5400   -2.7134    0.4415 H   0  0  0  0  0  0  0  0  0  0  0  0
    4.9763   -0.9864   -0.4243 H   0  0  0  0  0  0  0  0  0  0  0  0
  1  3  1  0  0  0  0
  1  4  1  0  0  0  0
  2 22  1  0  0  0  0
  2  3  1  0  0  0  0
  3 29  1  0  0  0  0
  3 28  1  0  0  0  0
  4  9  2  0  0  0  0
  4  5  1  0  0  0  0
  5 30  1  0  0  0  0
  5  6  2  0  0  0  0
  6  7  1  0  0  0  0
  6 31  1  0  0  0  0
  7 32  1  0  0  0  0
  8 33  1  0  0  0  0
  8  7  2  0  0  0  0
  9  8  1  0  0  0  0
 10  1  1  0  0  0  0
 10 15  1  0  0  0  0
 11 10  2  0  0  0  0
 12 11  1  0  0  0  0
 12 13  2  0  0  0  0
 13 14  1  0  0  0  0
 14 15  2  0  0  0  0
 14 38  1  0  0  0  0
 15 39  1  0  0  0  0
 16  2  1  0  0  0  0
 16 21  1  0  0  0  0
 17 16  2  0  0  0  0
 18 17  1  0  0  0  0
 18 19  2  0  0  0  0
 19 20  1  0  0  0  0
 20 21  2  0  0  0  0
 20 43  1  0  0  0  0
 21 44  1  0  0  0  0
 22 23  1  0  0  0  0
 23 45  1  0  0  0  0
 23 24  2  0  0  0  0
 24 46  1  0  0  0  0
 25 24  1  0  0  0  0
 25 47  1  0  0  0  0
 26 25  2  0  0  0  0
 27 22  2  0  0  0  0
 27 26  1  0  0  0  0
 34  9  1  0  0  0  0
 35 11  1  0  0  0  0
 36 12  1  0  0  0  0
 37 13  1  0  0  0  0
 40 17  1  0  0  0  0
 41 18  1  0  0  0  0
 42 19  1  0  0  0  0
 48 26  1  0  0  0  0
 49 27  1  0  0  0  0
M  END
