1
 OpenBabel05122313063D

 13 13  0  0  0  0  0  0  0  0999 V2000
   -1.4091    0.0012    1.1901 P   0  0  0  0  0  2  0  0  0  0  0  0
   -3.2011    0.0026    0.9365 C   0  0  0  0  0  0  0  0  0  0  0  0
   -3.7556    0.0031   -0.3675 C   0  0  0  0  0  0  0  0  0  0  0  0
   -5.1465    0.0041   -0.5342 C   0  0  0  0  0  0  0  0  0  0  0  0
   -6.0021    0.0046    0.5814 C   0  0  0  0  0  0  0  0  0  0  0  0
   -5.4590    0.0041    1.8778 C   0  0  0  0  0  0  0  0  0  0  0  0
   -4.0697    0.0030    2.0554 C   0  0  0  0  0  0  0  0  0  0  0  0
   -1.4009    0.0012    2.6212 H   0  0  0  0  0  0  0  0  0  0  0  0
   -3.0758    0.0027   -1.2350 H   0  0  0  0  0  0  0  0  0  0  0  0
   -5.5681    0.0046   -1.5512 H   0  0  0  0  0  0  0  0  0  0  0  0
   -7.0941    0.0054    0.4418 H   0  0  0  0  0  0  0  0  0  0  0  0
   -6.1228    0.0044    2.7560 H   0  0  0  0  0  0  0  0  0  0  0  0
   -3.6479    0.0026    3.0736 H   0  0  0  0  0  0  0  0  0  0  0  0
  1  8  1  0  0  0  0
  2  1  1  0  0  0  0
  2  7  1  0  0  0  0
  3  2  2  0  0  0  0
  4  3  1  0  0  0  0
  4  5  2  0  0  0  0
  5  6  1  0  0  0  0
  6  7  2  0  0  0  0
  6 12  1  0  0  0  0
  7 13  1  0  0  0  0
  9  3  1  0  0  0  0
 10  4  1  0  0  0  0
 11  5  1  0  0  0  0
M  END
