1
 OpenBabel05122313063D

 18 17  0  0  0  0  0  0  0  0999 V2000
    0.4228   -2.5120   -0.5656 P   0  0  0  0  0  0  0  0  0  0  0  0
    1.4062   -3.6285    0.5421 C   0  0  0  0  0  0  0  0  0  0  0  0
    0.8850   -2.9857   -2.2937 C   0  0  0  0  0  0  0  0  0  0  0  0
   -2.3905   -3.4953   -0.2691 C   0  0  0  0  0  0  0  0  0  0  0  0
    2.9060   -3.3550    0.4310 C   0  0  0  0  0  0  0  0  0  0  0  0
    1.0285   -3.4212    1.5637 H   0  0  0  0  0  0  0  0  0  0  0  0
    1.1515   -4.6817    0.3038 H   0  0  0  0  0  0  0  0  0  0  0  0
    0.8040   -4.4730   -2.6196 C   0  0  0  0  0  0  0  0  0  0  0  0
    0.2060   -2.3673   -2.9168 H   0  0  0  0  0  0  0  0  0  0  0  0
    1.8987   -2.5579   -2.4386 H   0  0  0  0  0  0  0  0  0  0  0  0
   -1.2228   -3.1409   -0.3959 C   0  0  0  0  0  0  0  0  0  0  0  0
   -3.4252   -3.7892   -0.1552 H   0  0  0  0  0  0  0  0  0  0  0  0
    3.4644   -3.9119    1.2101 H   0  0  0  0  0  0  0  0  0  0  0  0
    3.3068   -3.6642   -0.5550 H   0  0  0  0  0  0  0  0  0  0  0  0
    3.1219   -2.2739    0.5488 H   0  0  0  0  0  0  0  0  0  0  0  0
    1.0295   -4.6414   -3.6923 H   0  0  0  0  0  0  0  0  0  0  0  0
    1.5301   -5.0733   -2.0343 H   0  0  0  0  0  0  0  0  0  0  0  0
   -0.2096   -4.8774   -2.4221 H   0  0  0  0  0  0  0  0  0  0  0  0
  1 11  1  0  0  0  0
  1  2  1  0  0  0  0
  2  6  1  0  0  0  0
  3  1  1  0  0  0  0
  4 12  1  0  0  0  0
  5  2  1  0  0  0  0
  5 15  1  0  0  0  0
  5 13  1  0  0  0  0
  7  2  1  0  0  0  0
  8 18  1  0  0  0  0
  8  3  1  0  0  0  0
  8 17  1  0  0  0  0
  9  3  1  0  0  0  0
 10  3  1  0  0  0  0
 11  4  3  0  0  0  0
 14  5  1  0  0  0  0
 16  8  1  0  0  0  0
M  END
