1
 OpenBabel05122313063D

 54 55  0  0  0  0  0  0  0  0999 V2000
   -0.2335    0.3397    0.0341 P   0  0  2  0  0  0  0  0  0  0  0  0
   -1.0331    2.8759    1.7466 Si  0  0  0  0  0  0  0  0  0  0  0  0
   -1.5114    2.7457   -1.5039 Si  0  0  0  0  0  0  0  0  0  0  0  0
   -1.6676   -0.3218   -0.6585 N   0  0  0  0  0  0  0  0  0  0  0  0
   -1.6733   -1.3180    1.4844 N   0  0  0  0  0  0  0  0  0  0  0  0
   -0.6511   -0.5397    1.6510 C   0  0  0  0  0  0  0  0  0  0  0  0
   -2.2252   -1.1552    0.1800 C   0  0  0  0  0  0  0  0  0  0  0  0
   -0.4797    2.1601    0.0400 C   0  0  0  0  0  0  0  0  0  0  0  0
    0.5423    2.5659   -0.1295 H   0  0  0  0  0  0  0  0  0  0  0  0
    0.4731    2.7655    2.8946 C   0  0  0  0  0  0  0  0  0  0  0  0
    1.1460    3.6294    2.7160 H   0  0  0  0  0  0  0  0  0  0  0  0
    1.0733    1.8504    2.7286 H   0  0  0  0  0  0  0  0  0  0  0  0
    0.1647    2.7836    3.9597 H   0  0  0  0  0  0  0  0  0  0  0  0
   -2.5287    1.9550    2.4512 C   0  0  0  0  0  0  0  0  0  0  0  0
   -3.0691    2.6422    3.1352 H   0  0  0  0  0  0  0  0  0  0  0  0
   -2.2451    1.0621    3.0408 H   0  0  0  0  0  0  0  0  0  0  0  0
   -3.2391    1.6450    1.6598 H   0  0  0  0  0  0  0  0  0  0  0  0
   -1.4721    4.7113    1.5951 C   0  0  0  0  0  0  0  0  0  0  0  0
   -1.6740    5.1003    2.6153 H   0  0  0  0  0  0  0  0  0  0  0  0
   -2.3772    4.8920    0.9826 H   0  0  0  0  0  0  0  0  0  0  0  0
   -0.6374    5.3038    1.1703 H   0  0  0  0  0  0  0  0  0  0  0  0
   -1.1827    1.7562   -3.0799 C   0  0  0  0  0  0  0  0  0  0  0  0
   -1.4324    0.6864   -2.9568 H   0  0  0  0  0  0  0  0  0  0  0  0
   -0.1342    1.8472   -3.4214 H   0  0  0  0  0  0  0  0  0  0  0  0
   -1.8290    2.1773   -3.8791 H   0  0  0  0  0  0  0  0  0  0  0  0
   -3.3581    2.6612   -1.1111 C   0  0  0  0  0  0  0  0  0  0  0  0
   -3.9383    3.0282   -1.9828 H   0  0  0  0  0  0  0  0  0  0  0  0
   -3.6434    3.2738   -0.2333 H   0  0  0  0  0  0  0  0  0  0  0  0
   -3.6592    1.6114   -0.9202 H   0  0  0  0  0  0  0  0  0  0  0  0
   -0.9525    4.5178   -1.8701 C   0  0  0  0  0  0  0  0  0  0  0  0
   -1.4656    4.8743   -2.7876 H   0  0  0  0  0  0  0  0  0  0  0  0
    0.1384    4.5362   -2.0736 H   0  0  0  0  0  0  0  0  0  0  0  0
   -1.1694    5.2364   -1.0583 H   0  0  0  0  0  0  0  0  0  0  0  0
   -3.4239   -1.9409   -0.1506 C   0  0  0  0  0  0  0  0  0  0  0  0
   -3.9996   -1.8430   -1.4381 C   0  0  0  0  0  0  0  0  0  0  0  0
   -3.5211   -1.1891   -2.1816 H   0  0  0  0  0  0  0  0  0  0  0  0
   -5.1500   -2.5743   -1.7475 C   0  0  0  0  0  0  0  0  0  0  0  0
   -5.5946   -2.4983   -2.7512 H   0  0  0  0  0  0  0  0  0  0  0  0
   -5.7368   -3.4100   -0.7790 C   0  0  0  0  0  0  0  0  0  0  0  0
   -6.6416   -3.9859   -1.0265 H   0  0  0  0  0  0  0  0  0  0  0  0
   -5.1669   -3.5136    0.5001 C   0  0  0  0  0  0  0  0  0  0  0  0
   -5.6242   -4.1694    1.2561 H   0  0  0  0  0  0  0  0  0  0  0  0
   -4.0129   -2.7852    0.8168 C   0  0  0  0  0  0  0  0  0  0  0  0
   -3.5472   -2.8528    1.8099 H   0  0  0  0  0  0  0  0  0  0  0  0
    0.0614   -0.5487    2.9713 C   0  0  0  0  0  0  0  0  0  0  0  0
    2.2047   -0.7320    4.0102 C   0  0  0  0  0  0  0  0  0  0  0  0
    1.7508   -0.0754    4.7789 H   0  0  0  0  0  0  0  0  0  0  0  0
    3.1809   -0.3157    3.6976 H   0  0  0  0  0  0  0  0  0  0  0  0
    2.3184   -2.1675    4.4910 C   0  0  0  0  0  0  0  0  0  0  0  0
    1.3357   -2.5490    4.8306 H   0  0  0  0  0  0  0  0  0  0  0  0
    3.0232   -2.2234    5.3446 H   0  0  0  0  0  0  0  0  0  0  0  0
    2.6943   -2.8252    3.6828 H   0  0  0  0  0  0  0  0  0  0  0  0
   -0.5161   -0.4440    4.0368 O   0  0  0  0  0  0  0  0  0  0  0  0
    1.3926   -0.6584    2.8077 O   0  0  0  0  0  0  0  0  0  0  0  0
  1  8  1  1  0  0  0
  1  6  1  0  0  0  0
  2 14  1  0  0  0  0
  2 10  1  0  0  0  0
  3 26  1  0  0  0  0
  3  8  1  0  0  0  0
  4  1  1  0  0  0  0
  4  7  2  0  0  0  0
  5  6  2  0  0  0  0
  6 45  1  0  0  0  0
  7  5  1  0  0  0  0
  8  2  1  0  0  0  0
  9  8  1  0  0  0  0
 10 13  1  0  0  0  0
 11 10  1  0  0  0  0
 12 10  1  0  0  0  0
 14 16  1  0  0  0  0
 14 15  1  0  0  0  0
 17 14  1  0  0  0  0
 18  2  1  0  0  0  0
 18 19  1  0  0  0  0
 20 18  1  0  0  0  0
 21 18  1  0  0  0  0
 22 23  1  0  0  0  0
 22  3  1  0  0  0  0
 24 22  1  0  0  0  0
 25 22  1  0  0  0  0
 26 29  1  0  0  0  0
 26 28  1  0  0  0  0
 27 26  1  0  0  0  0
 30  3  1  0  0  0  0
 30 33  1  0  0  0  0
 31 30  1  0  0  0  0
 32 30  1  0  0  0  0
 34  7  1  0  0  0  0
 34 43  1  0  0  0  0
 35 34  2  0  0  0  0
 36 35  1  0  0  0  0
 37 35  1  0  0  0  0
 37 39  2  0  0  0  0
 38 37  1  0  0  0  0
 39 41  1  0  0  0  0
 40 39  1  0  0  0  0
 41 43  2  0  0  0  0
 41 42  1  0  0  0  0
 43 44  1  0  0  0  0
 45 53  2  0  0  0  0
 46 49  1  0  0  0  0
 46 47  1  0  0  0  0
 48 46  1  0  0  0  0
 49 50  1  0  0  0  0
 49 51  1  0  0  0  0
 52 49  1  0  0  0  0
 54 45  1  0  0  0  0
 54 46  1  0  0  0  0
M  END
