1
 OpenBabel05122313063D

 31 33  0  0  0  0  0  0  0  0999 V2000
   -1.7875   -1.0197    0.0426 P   0  0  2  0  0  0  0  0  0  0  0  0
   -4.1545    1.0222    0.0019 Si  0  0  1  0  0  0  0  0  0  0  0  0
   -1.7233    0.3421   -1.2513 C   0  0  0  0  0  0  0  0  0  0  0  0
   -2.6089    1.5777   -0.9637 C   0  0  0  0  0  0  0  0  0  0  0  0
   -3.4964   -1.7107   -0.2980 C   0  0  0  0  0  0  0  0  0  0  0  0
   -4.5647   -0.6797   -0.7439 C   0  0  0  0  0  0  0  0  0  0  0  0
   -2.1180   -0.0454    1.6166 C   0  0  0  0  0  0  0  0  0  0  0  0
   -3.5159    0.6132    1.7442 C   0  0  0  0  0  0  0  0  0  0  0  0
   -5.5748    2.2562   -0.0462 C   0  0  0  0  0  0  0  0  0  0  0  0
   -6.0282    2.7780   -1.2803 C   0  0  0  0  0  0  0  0  0  0  0  0
   -7.0988    3.6825   -1.3361 C   0  0  0  0  0  0  0  0  0  0  0  0
   -7.7397    4.0849   -0.1527 C   0  0  0  0  0  0  0  0  0  0  0  0
   -7.3055    3.5789    1.0823 C   0  0  0  0  0  0  0  0  0  0  0  0
   -6.2334    2.6737    1.1324 C   0  0  0  0  0  0  0  0  0  0  0  0
   -2.0289   -0.1597   -2.1933 H   0  0  0  0  0  0  0  0  0  0  0  0
   -0.6572    0.6129   -1.3928 H   0  0  0  0  0  0  0  0  0  0  0  0
   -2.0584    2.3180   -0.3439 H   0  0  0  0  0  0  0  0  0  0  0  0
   -2.8706    2.1020   -1.9072 H   0  0  0  0  0  0  0  0  0  0  0  0
   -3.7973   -2.2122    0.6450 H   0  0  0  0  0  0  0  0  0  0  0  0
   -3.3679   -2.5245   -1.0391 H   0  0  0  0  0  0  0  0  0  0  0  0
   -4.5807   -0.5878   -1.8508 H   0  0  0  0  0  0  0  0  0  0  0  0
   -5.5798   -1.0195   -0.4496 H   0  0  0  0  0  0  0  0  0  0  0  0
   -1.3200    0.7239    1.6488 H   0  0  0  0  0  0  0  0  0  0  0  0
   -1.9042   -0.7404    2.4546 H   0  0  0  0  0  0  0  0  0  0  0  0
   -4.2312   -0.0848    2.2289 H   0  0  0  0  0  0  0  0  0  0  0  0
   -3.4614    1.5082    2.3995 H   0  0  0  0  0  0  0  0  0  0  0  0
   -5.5364    2.4739   -2.2193 H   0  0  0  0  0  0  0  0  0  0  0  0
   -7.4359    4.0773   -2.3071 H   0  0  0  0  0  0  0  0  0  0  0  0
   -8.5796    4.7954   -0.1942 H   0  0  0  0  0  0  0  0  0  0  0  0
   -7.8045    3.8919    2.0125 H   0  0  0  0  0  0  0  0  0  0  0  0
   -5.9045    2.2866    2.1104 H   0  0  0  0  0  0  0  0  0  0  0  0
  1  3  1  6  0  0  0
  1  7  1  0  0  0  0
  2  9  1  6  0  0  0
  2  8  1  0  0  0  0
  3  4  1  0  0  0  0
  4 17  1  0  0  0  0
  4  2  1  0  0  0  0
  5  1  1  0  0  0  0
  5 19  1  0  0  0  0
  6 22  1  0  0  0  0
  6  5  1  0  0  0  0
  6  2  1  0  0  0  0
  7 23  1  0  0  0  0
  7  8  1  0  0  0  0
  7 24  1  0  0  0  0
  8 25  1  0  0  0  0
  8 26  1  0  0  0  0
  9 14  1  0  0  0  0
 10  9  2  0  0  0  0
 11 10  1  0  0  0  0
 11 12  2  0  0  0  0
 12 13  1  0  0  0  0
 13 14  2  0  0  0  0
 13 30  1  0  0  0  0
 14 31  1  0  0  0  0
 15  3  1  0  0  0  0
 16  3  1  0  0  0  0
 18  4  1  0  0  0  0
 20  5  1  0  0  0  0
 21  6  1  0  0  0  0
 27 10  1  0  0  0  0
 28 11  1  0  0  0  0
 29 12  1  0  0  0  0
M  END
