1
 OpenBabel05122313063D

 56 59  0  0  0  0  0  0  0  0999 V2000
   -0.9248    0.0752    0.0246 P   0  0  0  0  0  0  0  0  0  0  0  0
   -2.0793    1.4538    0.5153 C   0  0  0  0  0  0  0  0  0  0  0  0
   -3.0824    1.0130    0.7079 H   0  0  0  0  0  0  0  0  0  0  0  0
   -1.0625   -1.1709    1.3826 C   0  0  0  0  0  0  0  0  0  0  0  0
    1.4223   -1.8322    1.2735 C   0  0  0  0  0  0  0  0  0  0  0  0
    0.0281   -1.9901    1.7859 C   0  0  0  0  0  0  0  0  0  0  0  0
   -2.3286   -1.3726    1.9806 C   0  0  0  0  0  0  0  0  0  0  0  0
   -3.1785   -0.7387    1.6907 H   0  0  0  0  0  0  0  0  0  0  0  0
   -2.5326   -2.3691    2.9429 C   0  0  0  0  0  0  0  0  0  0  0  0
   -3.5280   -2.4998    3.3931 H   0  0  0  0  0  0  0  0  0  0  0  0
    1.9387   -2.7064    0.2980 C   0  0  0  0  0  0  0  0  0  0  0  0
    1.2959   -3.5008   -0.1106 H   0  0  0  0  0  0  0  0  0  0  0  0
   -1.5738    2.1240    1.8071 C   0  0  0  0  0  0  0  0  0  0  0  0
   -1.5232    1.3813    2.6302 H   0  0  0  0  0  0  0  0  0  0  0  0
   -0.5314    2.4751    1.6352 H   0  0  0  0  0  0  0  0  0  0  0  0
   -2.4597    3.3117    2.2062 C   0  0  0  0  0  0  0  0  0  0  0  0
   -3.4730    2.9383    2.4786 H   0  0  0  0  0  0  0  0  0  0  0  0
   -2.0500    3.7938    3.1180 H   0  0  0  0  0  0  0  0  0  0  0  0
    3.2563   -2.5567   -0.1649 C   0  0  0  0  0  0  0  0  0  0  0  0
    3.6403   -3.2331   -0.9436 H   0  0  0  0  0  0  0  0  0  0  0  0
    4.0783   -1.5475    0.3578 C   0  0  0  0  0  0  0  0  0  0  0  0
    5.1000   -1.4020   -0.0214 H   0  0  0  0  0  0  0  0  0  0  0  0
    2.2611   -0.8273    1.8050 C   0  0  0  0  0  0  0  0  0  0  0  0
    1.8670   -0.1510    2.5787 H   0  0  0  0  0  0  0  0  0  0  0  0
   -0.2026   -2.9997    2.7466 C   0  0  0  0  0  0  0  0  0  0  0  0
    0.6467   -3.6301    3.0502 H   0  0  0  0  0  0  0  0  0  0  0  0
    3.5826   -0.6923    1.3546 C   0  0  0  0  0  0  0  0  0  0  0  0
    4.2241    0.1076    1.7518 H   0  0  0  0  0  0  0  0  0  0  0  0
   -1.4645   -3.1952    3.3206 C   0  0  0  0  0  0  0  0  0  0  0  0
   -1.6108   -3.9866    4.0712 H   0  0  0  0  0  0  0  0  0  0  0  0
   -2.2154    2.4753   -0.6297 C   0  0  0  0  0  0  0  0  0  0  0  0
   -1.1999    2.8395   -0.9047 H   0  0  0  0  0  0  0  0  0  0  0  0
   -2.6317    1.9913   -1.5377 H   0  0  0  0  0  0  0  0  0  0  0  0
   -3.1773   -1.1526   -1.3141 C   0  0  0  0  0  0  0  0  0  0  0  0
   -3.2767   -1.8936   -0.4912 H   0  0  0  0  0  0  0  0  0  0  0  0
   -3.7957   -0.2745   -1.0329 H   0  0  0  0  0  0  0  0  0  0  0  0
   -1.7000   -0.7587   -1.4604 C   0  0  0  0  0  0  0  0  0  0  0  0
   -1.6124    0.0261   -2.2463 H   0  0  0  0  0  0  0  0  0  0  0  0
   -0.8434   -1.9605   -1.8970 C   0  0  0  0  0  0  0  0  0  0  0  0
    0.2153   -1.6488   -2.0159 H   0  0  0  0  0  0  0  0  0  0  0  0
   -0.8598   -2.7229   -1.0866 H   0  0  0  0  0  0  0  0  0  0  0  0
   -3.7096   -1.7737   -2.6159 C   0  0  0  0  0  0  0  0  0  0  0  0
   -4.7698   -2.0742   -2.4822 H   0  0  0  0  0  0  0  0  0  0  0  0
   -3.7017   -1.0009   -3.4169 H   0  0  0  0  0  0  0  0  0  0  0  0
   -2.8596   -2.9709   -3.0583 C   0  0  0  0  0  0  0  0  0  0  0  0
   -2.9572   -3.7845   -2.3045 H   0  0  0  0  0  0  0  0  0  0  0  0
   -3.2419   -3.3838   -4.0150 H   0  0  0  0  0  0  0  0  0  0  0  0
   -1.3817   -2.5835   -3.1917 C   0  0  0  0  0  0  0  0  0  0  0  0
   -1.2653   -1.8521   -4.0224 H   0  0  0  0  0  0  0  0  0  0  0  0
   -0.7689   -3.4671   -3.4668 H   0  0  0  0  0  0  0  0  0  0  0  0
   -2.5837    4.3287    1.0655 C   0  0  0  0  0  0  0  0  0  0  0  0
   -1.5849    4.7776    0.8672 H   0  0  0  0  0  0  0  0  0  0  0  0
   -3.2508    5.1650    1.3612 H   0  0  0  0  0  0  0  0  0  0  0  0
   -3.0977    3.6617   -0.2158 C   0  0  0  0  0  0  0  0  0  0  0  0
   -3.1475    4.3960   -1.0464 H   0  0  0  0  0  0  0  0  0  0  0  0
   -4.1394    3.3039   -0.0515 H   0  0  0  0  0  0  0  0  0  0  0  0
  1  2  1  0  0  0  0
  1  4  1  0  0  0  0
  2  3  1  0  0  0  0
  2 13  1  0  0  0  0
  4  6  2  0  0  0  0
  4  7  1  0  0  0  0
  5  6  1  0  0  0  0
  5 23  1  0  0  0  0
  6 25  1  0  0  0  0
  7  9  2  0  0  0  0
  8  7  1  0  0  0  0
  9 29  1  0  0  0  0
  9 10  1  0  0  0  0
 11  5  2  0  0  0  0
 12 11  1  0  0  0  0
 13 16  1  0  0  0  0
 13 14  1  0  0  0  0
 15 13  1  0  0  0  0
 16 17  1  0  0  0  0
 16 18  1  0  0  0  0
 19 11  1  0  0  0  0
 19 21  2  0  0  0  0
 20 19  1  0  0  0  0
 21 27  1  0  0  0  0
 22 21  1  0  0  0  0
 23 24  1  0  0  0  0
 25 26  1  0  0  0  0
 25 29  2  0  0  0  0
 27 28  1  0  0  0  0
 27 23  2  0  0  0  0
 29 30  1  0  0  0  0
 31 54  1  0  0  0  0
 31  2  1  0  0  0  0
 32 31  1  0  0  0  0
 33 31  1  0  0  0  0
 34 36  1  0  0  0  0
 34 35  1  0  0  0  0
 37 34  1  0  0  0  0
 37  1  1  0  0  0  0
 38 37  1  0  0  0  0
 39 37  1  0  0  0  0
 39 41  1  0  0  0  0
 40 39  1  0  0  0  0
 42 43  1  0  0  0  0
 42 34  1  0  0  0  0
 44 42  1  0  0  0  0
 45 42  1  0  0  0  0
 45 46  1  0  0  0  0
 47 45  1  0  0  0  0
 48 45  1  0  0  0  0
 48 39  1  0  0  0  0
 49 48  1  0  0  0  0
 50 48  1  0  0  0  0
 51 53  1  0  0  0  0
 51 16  1  0  0  0  0
 52 51  1  0  0  0  0
 54 56  1  0  0  0  0
 54 51  1  0  0  0  0
 55 54  1  0  0  0  0
M  END
