1
 OpenBabel05122313063D

 34 36  0  0  0  0  0  0  0  0999 V2000
    1.8827    0.5772   -0.1062 P   0  0  1  0  0  0  0  0  0  0  0  0
    4.7414    0.3463   -1.1158 P   0  0  2  0  0  0  0  0  0  0  0  0
    3.0808   -2.1934   -0.5871 P   0  0  2  0  0  0  0  0  0  0  0  0
    4.0242   -0.4627    1.7944 P   0  0  2  0  0  0  0  0  0  0  0  0
    3.1851    1.1505   -1.0982 N   0  0  0  0  0  0  0  0  0  0  0  0
    4.2612   -1.2908   -1.4963 N   0  0  0  0  0  0  0  0  0  0  0  0
    1.7364   -1.0628   -0.6232 N   0  0  0  0  0  0  0  0  0  0  0  0
    2.5300    0.4192    1.4935 N   0  0  0  0  0  0  0  0  0  0  0  0
    5.0899    0.2552    0.6118 N   0  0  0  0  0  0  0  0  0  0  0  0
    3.6148   -1.9960    1.0615 N   0  0  0  0  0  0  0  0  0  0  0  0
    3.2848    2.6127   -1.2550 C   0  0  0  0  0  0  0  0  0  0  0  0
    3.6673    2.8659   -2.2652 H   0  0  0  0  0  0  0  0  0  0  0  0
    3.9512    3.0824   -0.4967 H   0  0  0  0  0  0  0  0  0  0  0  0
    2.2767    3.0630   -1.1279 H   0  0  0  0  0  0  0  0  0  0  0  0
    5.2565   -2.0810   -2.2277 C   0  0  0  0  0  0  0  0  0  0  0  0
    5.6663   -1.4881   -3.0711 H   0  0  0  0  0  0  0  0  0  0  0  0
    4.7701   -2.9855   -2.6488 H   0  0  0  0  0  0  0  0  0  0  0  0
    6.1114   -2.4210   -1.5985 H   0  0  0  0  0  0  0  0  0  0  0  0
    0.9055   -1.2042   -1.8285 C   0  0  0  0  0  0  0  0  0  0  0  0
   -0.0756   -0.7102   -1.6740 H   0  0  0  0  0  0  0  0  0  0  0  0
    0.7158   -2.2831   -2.0055 H   0  0  0  0  0  0  0  0  0  0  0  0
    1.3876   -0.7787   -2.7378 H   0  0  0  0  0  0  0  0  0  0  0  0
    2.3573    1.6116    2.3417 C   0  0  0  0  0  0  0  0  0  0  0  0
    3.2466    2.2804    2.3288 H   0  0  0  0  0  0  0  0  0  0  0  0
    2.1504    1.3146    3.3904 H   0  0  0  0  0  0  0  0  0  0  0  0
    1.5019    2.2159    1.9647 H   0  0  0  0  0  0  0  0  0  0  0  0
    6.5145    0.2094    0.9578 C   0  0  0  0  0  0  0  0  0  0  0  0
    7.0713    0.9448    0.3409 H   0  0  0  0  0  0  0  0  0  0  0  0
    6.9825   -0.7903    0.8028 H   0  0  0  0  0  0  0  0  0  0  0  0
    6.6514    0.4825    2.0252 H   0  0  0  0  0  0  0  0  0  0  0  0
    3.0044   -2.9487    1.9956 C   0  0  0  0  0  0  0  0  0  0  0  0
    1.9478   -2.7010    2.2486 H   0  0  0  0  0  0  0  0  0  0  0  0
    3.5879   -2.9714    2.9397 H   0  0  0  0  0  0  0  0  0  0  0  0
    3.0208   -3.9668    1.5534 H   0  0  0  0  0  0  0  0  0  0  0  0
  1  5  1  6  0  0  0
  1  8  1  0  0  0  0
  2  6  1  1  0  0  0
  2  5  1  0  0  0  0
  2  9  1  0  0  0  0
  3  6  1  6  0  0  0
  3 10  1  0  0  0  0
  4  9  1  6  0  0  0
  7  3  1  0  0  0  0
  7  1  1  0  0  0  0
  8  4  1  0  0  0  0
  8 23  1  0  0  0  0
  9 27  1  0  0  0  0
 10  4  1  0  0  0  0
 10 31  1  0  0  0  0
 11 14  1  0  0  0  0
 11  5  1  0  0  0  0
 11 13  1  0  0  0  0
 12 11  1  0  0  0  0
 15 18  1  0  0  0  0
 15  6  1  0  0  0  0
 16 15  1  0  0  0  0
 17 15  1  0  0  0  0
 19 20  1  0  0  0  0
 19  7  1  0  0  0  0
 21 19  1  0  0  0  0
 22 19  1  0  0  0  0
 23 25  1  0  0  0  0
 24 23  1  0  0  0  0
 26 23  1  0  0  0  0
 27 30  1  0  0  0  0
 28 27  1  0  0  0  0
 29 27  1  0  0  0  0
 31 32  1  0  0  0  0
 31 33  1  0  0  0  0
 34 31  1  0  0  0  0
M  END
