1
 OpenBabel05122313063D

 59 60  0  0  0  0  0  0  0  0999 V2000
   -0.2803    0.2805    0.3860 P   0  0  2  0  0  0  0  0  0  0  0  0
    0.4011    1.4563    3.2334 Si  0  0  0  0  0  0  0  0  0  0  0  0
   -0.5537    3.3655    0.7440 Si  0  0  0  0  0  0  0  0  0  0  0  0
    1.0723    0.8127   -0.5346 N   0  0  0  0  0  0  0  0  0  0  0  0
    3.4410    1.1464   -2.1775 N   0  0  0  0  0  0  0  0  0  0  0  0
   -0.5992    1.6223    1.5952 C   0  0  0  0  0  0  0  0  0  0  0  0
   -1.6650    1.4822    1.8842 H   0  0  0  0  0  0  0  0  0  0  0  0
    2.2690    1.4259    2.9502 C   0  0  0  0  0  0  0  0  0  0  0  0
    2.6406    2.3462    2.4618 H   0  0  0  0  0  0  0  0  0  0  0  0
    2.5736    0.5599    2.3316 H   0  0  0  0  0  0  0  0  0  0  0  0
    2.7759    1.3315    3.9334 H   0  0  0  0  0  0  0  0  0  0  0  0
   -0.0396    2.9080    4.3687 C   0  0  0  0  0  0  0  0  0  0  0  0
    0.4705    2.7717    5.3450 H   0  0  0  0  0  0  0  0  0  0  0  0
   -1.1303    2.9574    4.5637 H   0  0  0  0  0  0  0  0  0  0  0  0
    0.2814    3.8849    3.9562 H   0  0  0  0  0  0  0  0  0  0  0  0
   -0.1141   -0.1436    4.1203 C   0  0  0  0  0  0  0  0  0  0  0  0
    0.0042   -0.0155    5.2164 H   0  0  0  0  0  0  0  0  0  0  0  0
    0.5199   -1.0009    3.8192 H   0  0  0  0  0  0  0  0  0  0  0  0
   -1.1719   -0.4154    3.9256 H   0  0  0  0  0  0  0  0  0  0  0  0
    1.1761    4.1212    0.8553 C   0  0  0  0  0  0  0  0  0  0  0  0
    1.9112    3.4383    0.3835 H   0  0  0  0  0  0  0  0  0  0  0  0
    1.4994    4.3231    1.8954 H   0  0  0  0  0  0  0  0  0  0  0  0
    1.1927    5.0840    0.3038 H   0  0  0  0  0  0  0  0  0  0  0  0
   -1.8376    4.4288    1.6406 C   0  0  0  0  0  0  0  0  0  0  0  0
   -1.8573    5.4459    1.1970 H   0  0  0  0  0  0  0  0  0  0  0  0
   -1.6412    4.5329    2.7247 H   0  0  0  0  0  0  0  0  0  0  0  0
   -2.8475    3.9876    1.5097 H   0  0  0  0  0  0  0  0  0  0  0  0
   -1.0353    3.3305   -1.0834 C   0  0  0  0  0  0  0  0  0  0  0  0
   -0.9693    4.3683   -1.4730 H   0  0  0  0  0  0  0  0  0  0  0  0
   -2.0714    2.9796   -1.2474 H   0  0  0  0  0  0  0  0  0  0  0  0
   -0.3477    2.6945   -1.6707 H   0  0  0  0  0  0  0  0  0  0  0  0
    0.6191   -1.1395    1.0764 C   0  0  0  0  0  0  0  0  0  0  0  0
    0.2040   -1.9206    1.7241 H   0  0  0  0  0  0  0  0  0  0  0  0
    1.8145   -1.2482    0.4217 C   0  0  0  0  0  0  0  0  0  0  0  0
    2.0635   -0.0625   -0.4730 C   0  0  0  0  0  0  0  0  0  0  0  0
    2.6139   -2.5083    0.4982 C   0  0  0  0  0  0  0  0  0  0  0  0
    2.9887   -4.4550    1.8033 C   0  0  0  0  0  0  0  0  0  0  0  0
    4.0886   -4.3308    1.7106 H   0  0  0  0  0  0  0  0  0  0  0  0
    2.6694   -5.1002    0.9574 H   0  0  0  0  0  0  0  0  0  0  0  0
    2.5835   -5.0225    3.1475 C   0  0  0  0  0  0  0  0  0  0  0  0
    2.9107   -4.3610    3.9742 H   0  0  0  0  0  0  0  0  0  0  0  0
    3.0494   -6.0168    3.2945 H   0  0  0  0  0  0  0  0  0  0  0  0
    1.4840   -5.1432    3.2142 H   0  0  0  0  0  0  0  0  0  0  0  0
    3.3077    0.1828   -1.1662 C   0  0  0  0  0  0  0  0  0  0  0  0
    4.5992   -0.3181   -0.9002 C   0  0  0  0  0  0  0  0  0  0  0  0
    4.8413   -1.0870   -0.1639 H   0  0  0  0  0  0  0  0  0  0  0  0
    5.5033    0.3543   -1.7420 C   0  0  0  0  0  0  0  0  0  0  0  0
    6.5886    0.2145   -1.7945 H   0  0  0  0  0  0  0  0  0  0  0  0
    4.7659    1.2485   -2.5341 C   0  0  0  0  0  0  0  0  0  0  0  0
    2.3667    1.8884   -2.8206 C   0  0  0  0  0  0  0  0  0  0  0  0
    2.0322    2.7407   -2.1976 H   0  0  0  0  0  0  0  0  0  0  0  0
    1.4908    1.2377   -2.9886 H   0  0  0  0  0  0  0  0  0  0  0  0
    2.7266    2.2656   -3.7947 H   0  0  0  0  0  0  0  0  0  0  0  0
    5.2544    2.1635   -3.6078 C   0  0  0  0  0  0  0  0  0  0  0  0
    4.8495    1.8972   -4.6082 H   0  0  0  0  0  0  0  0  0  0  0  0
    6.3564    2.1019   -3.6706 H   0  0  0  0  0  0  0  0  0  0  0  0
    4.9846    3.2237   -3.4165 H   0  0  0  0  0  0  0  0  0  0  0  0
    3.3602   -2.9382   -0.3630 O   0  0  0  0  0  0  0  0  0  0  0  0
    2.3617   -3.1617    1.6625 O   0  0  0  0  0  0  0  0  0  0  0  0
  1 32  1  0  0  0  0
  1  6  1  1  0  0  0
  2 16  1  0  0  0  0
  2 12  1  0  0  0  0
  3 20  1  0  0  0  0
  3  6  1  0  0  0  0
  3 24  1  0  0  0  0
  4 35  2  0  0  0  0
  4  1  1  0  0  0  0
  5 44  1  0  0  0  0
  6  7  1  0  0  0  0
  6  2  1  0  0  0  0
  8  2  1  0  0  0  0
  8 11  1  0  0  0  0
  9  8  1  0  0  0  0
 10  8  1  0  0  0  0
 12 14  1  0  0  0  0
 12 13  1  0  0  0  0
 15 12  1  0  0  0  0
 16 17  1  0  0  0  0
 18 16  1  0  0  0  0
 19 16  1  0  0  0  0
 20 22  1  0  0  0  0
 21 20  1  0  0  0  0
 23 20  1  0  0  0  0
 24 26  1  0  0  0  0
 25 24  1  0  0  0  0
 27 24  1  0  0  0  0
 28  3  1  0  0  0  0
 29 28  1  0  0  0  0
 30 28  1  0  0  0  0
 31 28  1  0  0  0  0
 32 33  1  0  0  0  0
 34 36  1  0  0  0  0
 34 32  2  0  0  0  0
 35 34  1  0  0  0  0
 36 59  1  0  0  0  0
 37 40  1  0  0  0  0
 38 37  1  0  0  0  0
 39 37  1  0  0  0  0
 40 43  1  0  0  0  0
 40 42  1  0  0  0  0
 40 41  1  0  0  0  0
 44 45  2  0  0  0  0
 44 35  1  0  0  0  0
 45 46  1  0  0  0  0
 47 45  1  0  0  0  0
 48 47  1  0  0  0  0
 49  5  1  0  0  0  0
 49 47  2  0  0  0  0
 50 51  1  0  0  0  0
 50  5  1  0  0  0  0
 52 50  1  0  0  0  0
 53 50  1  0  0  0  0
 54 57  1  0  0  0  0
 54 49  1  0  0  0  0
 55 54  1  0  0  0  0
 56 54  1  0  0  0  0
 58 36  2  0  0  0  0
 59 37  1  0  0  0  0
M  END
