1
 OpenBabel05122313063D

 39 42  0  0  1  0  0  0  0  0999 V2000
   -0.6123   -0.6562   -0.1593 P   0  0  2  0  0  0  0  0  0  0  0  0
   -1.5709   -0.0137    1.2650 C   0  0  0  0  0  0  0  0  0  0  0  0
   -1.8351   -0.7997    2.3991 C   0  0  0  0  0  0  0  0  0  0  0  0
   -1.4899   -1.8439    2.4363 H   0  0  0  0  0  0  0  0  0  0  0  0
   -2.5309   -0.2637    3.4918 C   0  0  0  0  0  0  0  0  0  0  0  0
   -2.7365   -0.8888    4.3735 H   0  0  0  0  0  0  0  0  0  0  0  0
   -2.9687    1.0685    3.4455 C   0  0  0  0  0  0  0  0  0  0  0  0
   -3.5298    1.4962    4.2899 H   0  0  0  0  0  0  0  0  0  0  0  0
   -2.6978    1.8592    2.3218 C   0  0  0  0  0  0  0  0  0  0  0  0
   -3.0660    2.8949    2.2912 H   0  0  0  0  0  0  0  0  0  0  0  0
   -1.9826    1.3492    1.2148 C   0  0  0  0  0  0  0  0  0  0  0  0
   -1.6586    2.2177    0.0490 C   0  0  0  0  0  0  0  0  0  0  0  0
   -1.5076    3.6114    0.2224 C   0  0  0  0  0  0  0  0  0  0  0  0
   -1.5954    4.0392    1.2312 H   0  0  0  0  0  0  0  0  0  0  0  0
   -1.1981    4.4530   -0.8527 C   0  0  0  0  0  0  0  0  0  0  0  0
   -1.0751    5.5331   -0.6826 H   0  0  0  0  0  0  0  0  0  0  0  0
   -1.0250    3.9136   -2.1357 C   0  0  0  0  0  0  0  0  0  0  0  0
   -0.7723    4.5645   -2.9859 H   0  0  0  0  0  0  0  0  0  0  0  0
   -1.1547    2.5309   -2.3251 C   0  0  0  0  0  0  0  0  0  0  0  0
   -0.9974    2.0959   -3.3240 H   0  0  0  0  0  0  0  0  0  0  0  0
   -1.4618    1.6748   -1.2543 C   0  0  0  0  0  0  0  0  0  0  0  0
   -1.6008    0.1837   -1.4826 C   0  0  2  0  0  0  0  0  0  0  0  0
   -1.1307   -0.0916   -2.4489 H   0  0  0  0  0  0  0  0  0  0  0  0
   -3.0750   -0.2651   -1.4598 C   0  0  0  0  0  0  0  0  0  0  0  0
   -3.6028    0.2878   -0.6502 H   0  0  0  0  0  0  0  0  0  0  0  0
   -3.5450    0.1078   -2.3971 H   0  0  0  0  0  0  0  0  0  0  0  0
   -3.4094   -1.7358   -1.3046 C   0  0  0  0  0  0  0  0  0  0  0  0
   -4.8339   -2.0210   -1.7125 C   0  0  0  0  0  0  0  0  0  0  0  0
   -4.9703   -1.8612   -2.8045 H   0  0  0  0  0  0  0  0  0  0  0  0
   -5.5252   -1.3104   -1.2098 H   0  0  0  0  0  0  0  0  0  0  0  0
   -5.1758   -3.0430   -1.4733 H   0  0  0  0  0  0  0  0  0  0  0  0
   -2.5631   -2.6807   -0.8123 C   0  0  0  0  0  0  0  0  0  0  0  0
   -2.9143   -4.1398   -0.6506 C   0  0  0  0  0  0  0  0  0  0  0  0
   -2.9125   -4.4266    0.4242 H   0  0  0  0  0  0  0  0  0  0  0  0
   -2.1480   -4.7788   -1.1406 H   0  0  0  0  0  0  0  0  0  0  0  0
   -3.8970   -4.4145   -1.0725 H   0  0  0  0  0  0  0  0  0  0  0  0
   -1.1374   -2.4061   -0.3822 C   0  0  0  0  0  0  0  0  0  0  0  0
   -0.4197   -2.8405   -1.1142 H   0  0  0  0  0  0  0  0  0  0  0  0
   -0.9068   -2.9377    0.5674 H   0  0  0  0  0  0  0  0  0  0  0  0
  1  2  1  1  0  0  0
  2  3  1  0  0  0  0
  3  4  1  0  0  0  0
  3  5  2  0  0  0  0
  5  6  1  0  0  0  0
  7  5  1  0  0  0  0
  7  8  1  0  0  0  0
  9  7  2  0  0  0  0
 10  9  1  0  0  0  0
 11  2  2  0  0  0  0
 11  9  1  0  0  0  0
 12 13  1  0  0  0  0
 12 11  1  0  0  0  0
 13 14  1  0  0  0  0
 15 16  1  0  0  0  0
 15 13  2  0  0  0  0
 17 15  1  0  0  0  0
 18 17  1  0  0  0  0
 19 17  2  0  0  0  0
 19 21  1  0  0  0  0
 20 19  1  0  0  0  0
 21 12  2  0  0  0  0
 22 23  1  6  0  0  0
 22 24  1  0  0  0  0
 22 21  1  0  0  0  0
 22  1  1  0  0  0  0
 24 27  1  0  0  0  0
 24 25  1  0  0  0  0
 26 24  1  0  0  0  0
 27 32  2  0  0  0  0
 28 31  1  0  0  0  0
 28 27  1  0  0  0  0
 28 30  1  0  0  0  0
 29 28  1  0  0  0  0
 32 33  1  0  0  0  0
 32 37  1  0  0  0  0
 33 34  1  0  0  0  0
 35 33  1  0  0  0  0
 36 33  1  0  0  0  0
 37  1  1  0  0  0  0
 37 39  1  0  0  0  0
 38 37  1  0  0  0  0
M  END
