4
 OpenBabel05122313063D

 42 43  0  0  0  0  0  0  0  0999 V2000
    2.4056    1.0926    0.7594 N   0  0  0  0  0  0  0  0  0  0  0  0
    1.4404    1.3862    0.9693 H   0  0  0  0  0  0  0  0  0  0  0  0
    3.0873    1.8508    0.7844 H   0  0  0  0  0  0  0  0  0  0  0  0
   -0.1438   -0.5463   -0.0953 P   0  0  0  0  0  0  0  0  0  0  0  0
    1.5724   -0.7375   -0.5726 C   0  0  0  0  0  0  0  0  0  0  0  0
    1.7828   -1.5580   -1.2681 H   0  0  0  0  0  0  0  0  0  0  0  0
    2.5889    0.0955   -0.1601 C   0  0  0  0  0  0  0  0  0  0  0  0
    4.0372   -0.0649   -0.6614 C   0  0  0  0  0  0  0  0  0  0  0  0
    4.4687    1.2421   -1.3676 C   0  0  0  0  0  0  0  0  0  0  0  0
    5.5002    1.1376   -1.7602 H   0  0  0  0  0  0  0  0  0  0  0  0
    4.4711    2.1174   -0.6860 H   0  0  0  0  0  0  0  0  0  0  0  0
    3.7958    1.4752   -2.2167 H   0  0  0  0  0  0  0  0  0  0  0  0
    4.1802   -1.2232   -1.6606 C   0  0  0  0  0  0  0  0  0  0  0  0
    5.2350   -1.2973   -1.9922 H   0  0  0  0  0  0  0  0  0  0  0  0
    3.5533   -1.0689   -2.5609 H   0  0  0  0  0  0  0  0  0  0  0  0
    3.9041   -2.1945   -1.2044 H   0  0  0  0  0  0  0  0  0  0  0  0
    4.9583   -0.3389    0.5499 C   0  0  0  0  0  0  0  0  0  0  0  0
    4.6677   -1.2796    1.0596 H   0  0  0  0  0  0  0  0  0  0  0  0
    4.9144    0.4749    1.2998 H   0  0  0  0  0  0  0  0  0  0  0  0
    6.0107   -0.4387    0.2149 H   0  0  0  0  0  0  0  0  0  0  0  0
   -0.3876   -1.4574    1.4869 C   0  0  0  0  0  0  0  0  0  0  0  0
    0.6583   -2.1924    2.0738 C   0  0  0  0  0  0  0  0  0  0  0  0
    1.6428   -2.2149    1.5800 H   0  0  0  0  0  0  0  0  0  0  0  0
    0.4415   -2.8790    3.2796 C   0  0  0  0  0  0  0  0  0  0  0  0
    1.2627   -3.4504    3.7387 H   0  0  0  0  0  0  0  0  0  0  0  0
   -0.8170   -2.8346    3.8987 C   0  0  0  0  0  0  0  0  0  0  0  0
   -0.9849   -3.3716    4.8446 H   0  0  0  0  0  0  0  0  0  0  0  0
   -1.8614   -2.0956    3.3158 C   0  0  0  0  0  0  0  0  0  0  0  0
   -2.8464   -2.0515    3.8045 H   0  0  0  0  0  0  0  0  0  0  0  0
   -1.6481   -1.4030    2.1167 C   0  0  0  0  0  0  0  0  0  0  0  0
   -2.4587   -0.8076    1.6666 H   0  0  0  0  0  0  0  0  0  0  0  0
   -1.0596   -1.5436   -1.3342 C   0  0  0  0  0  0  0  0  0  0  0  0
   -1.7579   -0.8981   -2.3730 C   0  0  0  0  0  0  0  0  0  0  0  0
   -1.7850    0.2029   -2.4055 H   0  0  0  0  0  0  0  0  0  0  0  0
   -2.4208   -1.6579   -3.3486 C   0  0  0  0  0  0  0  0  0  0  0  0
   -2.9684   -1.1494   -4.1564 H   0  0  0  0  0  0  0  0  0  0  0  0
   -2.3921   -3.0602   -3.2889 C   0  0  0  0  0  0  0  0  0  0  0  0
   -2.9173   -3.6544   -4.0522 H   0  0  0  0  0  0  0  0  0  0  0  0
   -1.7014   -3.7057   -2.2499 C   0  0  0  0  0  0  0  0  0  0  0  0
   -1.6850   -4.8050   -2.1971 H   0  0  0  0  0  0  0  0  0  0  0  0
   -1.0370   -2.9518   -1.2716 C   0  0  0  0  0  0  0  0  0  0  0  0
   -0.5087   -3.4573   -0.4482 H   0  0  0  0  0  0  0  0  0  0  0  0
  1  3  1  0  0  0  0
  1  2  1  0  0  0  0
  4 21  1  0  0  0  0
  5  7  2  0  0  0  0
  5  4  1  0  0  0  0
  6  5  1  0  0  0  0
  7  1  1  0  0  0  0
  8  7  1  0  0  0  0
  8 17  1  0  0  0  0
  9 11  1  0  0  0  0
  9  8  1  0  0  0  0
 10  9  1  0  0  0  0
 12  9  1  0  0  0  0
 13 16  1  0  0  0  0
 13  8  1  0  0  0  0
 14 13  1  0  0  0  0
 15 13  1  0  0  0  0
 17 18  1  0  0  0  0
 17 19  1  0  0  0  0
 20 17  1  0  0  0  0
 21 22  2  0  0  0  0
 21 30  1  0  0  0  0
 22 24  1  0  0  0  0
 23 22  1  0  0  0  0
 24 25  1  0  0  0  0
 24 26  2  0  0  0  0
 26 27  1  0  0  0  0
 28 29  1  0  0  0  0
 28 26  1  0  0  0  0
 30 28  2  0  0  0  0
 31 30  1  0  0  0  0
 32 41  1  0  0  0  0
 32  4  1  0  0  0  0
 33 32  2  0  0  0  0
 34 33  1  0  0  0  0
 35 37  2  0  0  0  0
 35 33  1  0  0  0  0
 36 35  1  0  0  0  0
 37 39  1  0  0  0  0
 38 37  1  0  0  0  0
 39 40  1  0  0  0  0
 39 41  2  0  0  0  0
 41 42  1  0  0  0  0
M  END
