45
 OpenBabel05122313063D

 45 47  0  0  1  0  0  0  0  0999 V2000
    0.1691    1.2849   -1.9844 C   0  0  0  0  0  0  0  0  0  0  0  0
   -0.8660    1.6090   -2.1957 H   0  0  0  0  0  0  0  0  0  0  0  0
    0.3070    0.2787   -2.4240 H   0  0  0  0  0  0  0  0  0  0  0  0
    0.8985    1.9831   -2.4377 H   0  0  0  0  0  0  0  0  0  0  0  0
    2.2506    0.7037   -0.0049 C   0  0  1  0  0  0  0  0  0  0  0  0
    2.4124    0.7625    1.0907 H   0  0  0  0  0  0  0  0  0  0  0  0
    2.4494   -0.7576   -0.4052 C   0  0  0  0  0  0  0  0  0  0  0  0
    1.6955   -1.3715    0.1380 H   0  0  0  0  0  0  0  0  0  0  0  0
    2.2777   -0.9375   -1.4876 H   0  0  0  0  0  0  0  0  0  0  0  0
    3.8234   -1.2862   -0.0109 C   0  0  0  0  0  0  0  0  0  0  0  0
    4.1571   -2.7058   -0.3776 C   0  0  0  0  0  0  0  0  0  0  0  0
    3.2335   -3.5820   -0.9870 C   0  0  0  0  0  0  0  0  0  0  0  0
    2.2121   -3.2435   -1.2139 H   0  0  0  0  0  0  0  0  0  0  0  0
    3.6049   -4.8983   -1.2960 C   0  0  0  0  0  0  0  0  0  0  0  0
    2.8777   -5.5770   -1.7671 H   0  0  0  0  0  0  0  0  0  0  0  0
    4.9014   -5.3508   -1.0028 C   0  0  0  0  0  0  0  0  0  0  0  0
    5.1915   -6.3841   -1.2477 H   0  0  0  0  0  0  0  0  0  0  0  0
    5.8270   -4.4848   -0.3942 C   0  0  0  0  0  0  0  0  0  0  0  0
    6.8426   -4.8398   -0.1620 H   0  0  0  0  0  0  0  0  0  0  0  0
    5.4554   -3.1730   -0.0819 C   0  0  0  0  0  0  0  0  0  0  0  0
    6.1518   -2.4707    0.4001 H   0  0  0  0  0  0  0  0  0  0  0  0
    3.1186    1.7219   -0.7050 C   0  0  0  0  0  0  0  0  0  0  0  0
    3.5284    1.5681   -2.0462 C   0  0  0  0  0  0  0  0  0  0  0  0
    3.2616    0.6566   -2.6020 H   0  0  0  0  0  0  0  0  0  0  0  0
    4.2899    2.5581   -2.6863 C   0  0  0  0  0  0  0  0  0  0  0  0
    4.6055    2.4120   -3.7308 H   0  0  0  0  0  0  0  0  0  0  0  0
    4.6540    3.7250   -1.9975 C   0  0  0  0  0  0  0  0  0  0  0  0
    5.2527    4.5008   -2.4984 H   0  0  0  0  0  0  0  0  0  0  0  0
    4.2578    3.8884   -0.6603 C   0  0  0  0  0  0  0  0  0  0  0  0
    4.5454    4.7941   -0.1050 H   0  0  0  0  0  0  0  0  0  0  0  0
    3.5002    2.8972   -0.0230 C   0  0  0  0  0  0  0  0  0  0  0  0
    3.1980    3.0276    1.0270 H   0  0  0  0  0  0  0  0  0  0  0  0
    0.3061    2.8309    0.5112 C   0  0  0  0  0  0  0  0  0  0  0  0
    0.2703    3.9884   -0.2900 C   0  0  0  0  0  0  0  0  0  0  0  0
    0.2927    3.9099   -1.3865 H   0  0  0  0  0  0  0  0  0  0  0  0
    0.2205    5.2560    0.3112 C   0  0  0  0  0  0  0  0  0  0  0  0
    0.1920    6.1575   -0.3195 H   0  0  0  0  0  0  0  0  0  0  0  0
    0.2173    5.3734    1.7094 C   0  0  0  0  0  0  0  0  0  0  0  0
    0.1822    6.3689    2.1777 H   0  0  0  0  0  0  0  0  0  0  0  0
    0.2551    4.2194    2.5112 C   0  0  0  0  0  0  0  0  0  0  0  0
    0.2501    4.3084    3.6082 H   0  0  0  0  0  0  0  0  0  0  0  0
    0.2903    2.9499    1.9188 C   0  0  0  0  0  0  0  0  0  0  0  0
    0.3141    2.0356    2.5365 H   0  0  0  0  0  0  0  0  0  0  0  0
    4.6238   -0.5881    0.5998 O   0  0  0  0  0  0  0  0  0  0  0  0
    0.4192    1.1364   -0.1699 P   0  0  1  0  0  0  0  0  0  0  0  0
  2  1  1  0  0  0  0
  3  1  1  0  0  0  0
  4  1  1  0  0  0  0
  5  6  1  1  0  0  0
  7 10  1  0  0  0  0
  7  5  1  0  0  0  0
  7  8  1  0  0  0  0
  9  7  1  0  0  0  0
 10 44  2  0  0  0  0
 11 20  1  0  0  0  0
 11 10  1  0  0  0  0
 12 11  2  0  0  0  0
 13 12  1  0  0  0  0
 14 16  2  0  0  0  0
 14 12  1  0  0  0  0
 15 14  1  0  0  0  0
 16 18  1  0  0  0  0
 17 16  1  0  0  0  0
 18 19  1  0  0  0  0
 18 20  2  0  0  0  0
 20 21  1  0  0  0  0
 22 31  1  0  0  0  0
 22  5  1  0  0  0  0
 23 22  2  0  0  0  0
 24 23  1  0  0  0  0
 25 23  1  0  0  0  0
 25 27  2  0  0  0  0
 26 25  1  0  0  0  0
 27 29  1  0  0  0  0
 28 27  1  0  0  0  0
 29 30  1  0  0  0  0
 29 31  2  0  0  0  0
 31 32  1  0  0  0  0
 33 42  1  0  0  0  0
 34 36  1  0  0  0  0
 34 33  2  0  0  0  0
 35 34  1  0  0  0  0
 36 38  2  0  0  0  0
 37 36  1  0  0  0  0
 38 39  1  0  0  0  0
 38 40  1  0  0  0  0
 40 41  1  0  0  0  0
 42 40  2  0  0  0  0
 42 43  1  0  0  0  0
 45  1  1  6  0  0  0
 45  5  1  0  0  0  0
 45 33  1  0  0  0  0
M  END
