1
 OpenBabel05122313063D

 52 55  0  0  0  0  0  0  0  0999 V2000
    1.1991    0.1633    0.2381 P   0  0  0  0  0  0  0  0  0  0  0  0
   -2.8882   -0.4208   -1.7480 P   0  0  0  0  0  0  0  0  0  0  0  0
   -0.5804   -0.3010    0.0218 C   0  0  0  0  0  0  0  0  0  0  0  0
   -1.0311   -0.3694   -1.4344 C   0  0  0  0  0  0  0  0  0  0  0  0
    1.2532    1.9536   -0.1961 C   0  0  0  0  0  0  0  0  0  0  0  0
    0.0894    2.7509   -0.2367 C   0  0  0  0  0  0  0  0  0  0  0  0
    0.1798    4.1167   -0.5475 C   0  0  0  0  0  0  0  0  0  0  0  0
    1.4271    4.7007   -0.8125 C   0  0  0  0  0  0  0  0  0  0  0  0
    2.5882    3.9116   -0.7741 C   0  0  0  0  0  0  0  0  0  0  0  0
    2.5024    2.5449   -0.4767 C   0  0  0  0  0  0  0  0  0  0  0  0
    1.3483    0.1455    2.0760 C   0  0  0  0  0  0  0  0  0  0  0  0
    0.8686    1.2217    2.8509 C   0  0  0  0  0  0  0  0  0  0  0  0
    0.9193    1.1559    4.2509 C   0  0  0  0  0  0  0  0  0  0  0  0
    1.4459    0.0198    4.8863 C   0  0  0  0  0  0  0  0  0  0  0  0
    1.9259   -1.0517    4.1174 C   0  0  0  0  0  0  0  0  0  0  0  0
    1.8822   -0.9897    2.7169 C   0  0  0  0  0  0  0  0  0  0  0  0
   -3.4501   -1.7781   -0.6333 C   0  0  0  0  0  0  0  0  0  0  0  0
   -2.6423   -2.9093   -0.3810 C   0  0  0  0  0  0  0  0  0  0  0  0
   -3.1360   -3.9886    0.3681 C   0  0  0  0  0  0  0  0  0  0  0  0
   -4.4457   -3.9639    0.8706 C   0  0  0  0  0  0  0  0  0  0  0  0
   -5.2652   -2.8537    0.6084 C   0  0  0  0  0  0  0  0  0  0  0  0
   -4.7759   -1.7751   -0.1418 C   0  0  0  0  0  0  0  0  0  0  0  0
   -3.3477    1.1176   -0.8154 C   0  0  0  0  0  0  0  0  0  0  0  0
   -3.5695    1.1891    0.5778 C   0  0  0  0  0  0  0  0  0  0  0  0
   -3.7944    2.4269    1.2011 C   0  0  0  0  0  0  0  0  0  0  0  0
   -3.8033    3.6104    0.4443 C   0  0  0  0  0  0  0  0  0  0  0  0
   -3.5989    3.5498   -0.9438 C   0  0  0  0  0  0  0  0  0  0  0  0
   -3.3794    2.3120   -1.5680 C   0  0  0  0  0  0  0  0  0  0  0  0
   -1.1773    0.4257    0.6090 H   0  0  0  0  0  0  0  0  0  0  0  0
   -0.6980   -1.2768    0.5327 H   0  0  0  0  0  0  0  0  0  0  0  0
   -0.6901    0.5203   -2.0046 H   0  0  0  0  0  0  0  0  0  0  0  0
   -0.5772   -1.2403   -1.9503 H   0  0  0  0  0  0  0  0  0  0  0  0
   -0.9026    2.3232   -0.0346 H   0  0  0  0  0  0  0  0  0  0  0  0
   -0.7406    4.7189   -0.5835 H   0  0  0  0  0  0  0  0  0  0  0  0
    1.4952    5.7716   -1.0568 H   0  0  0  0  0  0  0  0  0  0  0  0
    3.5698    4.3607   -0.9876 H   0  0  0  0  0  0  0  0  0  0  0  0
    3.4116    1.9262   -0.4696 H   0  0  0  0  0  0  0  0  0  0  0  0
    0.4636    2.1192    2.3594 H   0  0  0  0  0  0  0  0  0  0  0  0
    0.5496    2.0024    4.8493 H   0  0  0  0  0  0  0  0  0  0  0  0
    1.4882   -0.0272    5.9851 H   0  0  0  0  0  0  0  0  0  0  0  0
    2.3462   -1.9417    4.6096 H   0  0  0  0  0  0  0  0  0  0  0  0
    2.2717   -1.8208    2.1098 H   0  0  0  0  0  0  0  0  0  0  0  0
   -1.6131   -2.9653   -0.7656 H   0  0  0  0  0  0  0  0  0  0  0  0
   -2.4827   -4.8534    0.5603 H   0  0  0  0  0  0  0  0  0  0  0  0
   -4.8299   -4.8096    1.4607 H   0  0  0  0  0  0  0  0  0  0  0  0
   -6.2980   -2.8273    0.9888 H   0  0  0  0  0  0  0  0  0  0  0  0
   -5.4332   -0.9152   -0.3464 H   0  0  0  0  0  0  0  0  0  0  0  0
   -3.5660    0.2678    1.1800 H   0  0  0  0  0  0  0  0  0  0  0  0
   -3.9602    2.4668    2.2887 H   0  0  0  0  0  0  0  0  0  0  0  0
   -3.9792    4.5792    0.9361 H   0  0  0  0  0  0  0  0  0  0  0  0
   -3.6183    4.4706   -1.5468 H   0  0  0  0  0  0  0  0  0  0  0  0
   -3.2233    2.2656   -2.6580 H   0  0  0  0  0  0  0  0  0  0  0  0
  1 11  1  0  0  0  0
  2  4  1  0  0  0  0
  2 23  1  0  0  0  0
  2 17  1  0  0  0  0
  3  1  1  0  0  0  0
  3 30  1  0  0  0  0
  3 29  1  0  0  0  0
  4  3  1  0  0  0  0
  5  1  1  0  0  0  0
  6  5  1  0  0  0  0
  6 33  1  0  0  0  0
  7  6  2  0  0  0  0
  8  9  2  0  0  0  0
  8  7  1  0  0  0  0
  9 10  1  0  0  0  0
 10 37  1  0  0  0  0
 10  5  2  0  0  0  0
 11 16  2  0  0  0  0
 11 12  1  0  0  0  0
 12 13  2  0  0  0  0
 13 39  1  0  0  0  0
 13 14  1  0  0  0  0
 14 40  1  0  0  0  0
 15 41  1  0  0  0  0
 15 14  2  0  0  0  0
 16 15  1  0  0  0  0
 17 18  2  0  0  0  0
 17 22  1  0  0  0  0
 18 19  1  0  0  0  0
 19 44  1  0  0  0  0
 19 20  2  0  0  0  0
 20 45  1  0  0  0  0
 21 20  1  0  0  0  0
 21 46  1  0  0  0  0
 22 21  2  0  0  0  0
 23 24  1  0  0  0  0
 24 48  1  0  0  0  0
 24 25  2  0  0  0  0
 25 49  1  0  0  0  0
 26 50  1  0  0  0  0
 26 25  1  0  0  0  0
 27 26  2  0  0  0  0
 28 27  1  0  0  0  0
 28 23  2  0  0  0  0
 31  4  1  0  0  0  0
 32  4  1  0  0  0  0
 34  7  1  0  0  0  0
 35  8  1  0  0  0  0
 36  9  1  0  0  0  0
 38 12  1  0  0  0  0
 42 16  1  0  0  0  0
 43 18  1  0  0  0  0
 47 22  1  0  0  0  0
 51 27  1  0  0  0  0
 52 28  1  0  0  0  0
M  END
