1
 OpenBabel05122313063D

 31 33  0  0  1  0  0  0  0  0999 V2000
   -1.7943    0.1142   -0.0215 P   0  0  1  0  0  0  0  0  0  0  0  0
   -2.9477    0.4764   -1.4892 C   0  0  0  0  0  0  0  0  0  0  0  0
   -2.9098    1.5841   -1.5547 H   0  0  0  0  0  0  0  0  0  0  0  0
   -2.4618    0.0741   -2.4023 H   0  0  0  0  0  0  0  0  0  0  0  0
   -2.8877    0.4009    1.5030 C   0  0  0  0  0  0  0  0  0  0  0  0
   -2.2059    0.2630    2.3709 H   0  0  0  0  0  0  0  0  0  0  0  0
   -3.1289    1.4827    1.4683 H   0  0  0  0  0  0  0  0  0  0  0  0
   -1.7037   -1.7891   -0.0737 C   0  0  0  0  0  0  0  0  0  0  0  0
   -0.9950   -2.0341   -0.8949 H   0  0  0  0  0  0  0  0  0  0  0  0
   -1.2238   -2.1304    0.8677 H   0  0  0  0  0  0  0  0  0  0  0  0
   -5.1398    0.6634   -0.3899 C   0  0  0  0  0  0  0  0  0  0  0  0
   -4.7280    1.6836   -0.2486 H   0  0  0  0  0  0  0  0  0  0  0  0
   -6.1679    0.8041   -0.7995 H   0  0  0  0  0  0  0  0  0  0  0  0
   -5.2880   -0.0185    0.9949 C   0  0  0  0  0  0  0  0  0  0  0  0
   -5.8641    0.6933    1.6386 H   0  0  0  0  0  0  0  0  0  0  0  0
   -5.9293   -0.9197    0.8968 H   0  0  0  0  0  0  0  0  0  0  0  0
   -3.8616   -1.8044    2.0035 C   0  0  0  0  0  0  0  0  0  0  0  0
   -4.6762   -2.1411    2.6870 H   0  0  0  0  0  0  0  0  0  0  0  0
   -2.9308   -1.8533    2.6072 H   0  0  0  0  0  0  0  0  0  0  0  0
   -3.7698   -2.8464    0.8541 C   0  0  0  0  0  0  0  0  0  0  0  0
   -3.4214   -3.8057    1.3162 H   0  0  0  0  0  0  0  0  0  0  0  0
   -4.7897   -3.0534    0.4691 H   0  0  0  0  0  0  0  0  0  0  0  0
   -3.5530   -2.4134   -1.5887 C   0  0  0  0  0  0  0  0  0  0  0  0
   -4.0085   -3.3979   -1.8487 H   0  0  0  0  0  0  0  0  0  0  0  0
   -2.7327   -2.2639   -2.3216 H   0  0  0  0  0  0  0  0  0  0  0  0
   -4.6367   -1.3265   -1.8145 C   0  0  0  0  0  0  0  0  0  0  0  0
   -5.5715   -1.6340   -1.3006 H   0  0  0  0  0  0  0  0  0  0  0  0
   -4.8777   -1.3404   -2.9087 H   0  0  0  0  0  0  0  0  0  0  0  0
   -4.2910   -0.0024   -1.3544 N   0  0  2  0  0  0  0  0  0  0  0  0
   -4.0493   -0.4256    1.6275 N   0  0  1  0  0  0  0  0  0  0  0  0
   -2.9506   -2.4684   -0.2769 N   0  0  1  0  0  0  0  0  0  0  0  0
  1  2  1  6  0  0  0
  1  5  1  0  0  0  0
  2 29  1  0  0  0  0
  3  2  1  0  0  0  0
  4  2  1  0  0  0  0
  5 30  1  0  0  0  0
  5  6  1  0  0  0  0
  7  5  1  0  0  0  0
  8  1  1  0  0  0  0
  8 10  1  0  0  0  0
  9  8  1  0  0  0  0
 11 12  1  0  0  0  0
 11 14  1  0  0  0  0
 13 11  1  0  0  0  0
 14 15  1  0  0  0  0
 16 14  1  0  0  0  0
 17 19  1  0  0  0  0
 17 18  1  0  0  0  0
 20 21  1  0  0  0  0
 20 17  1  0  0  0  0
 22 20  1  0  0  0  0
 24 23  1  0  0  0  0
 25 23  1  0  0  0  0
 26 23  1  0  0  0  0
 26 27  1  0  0  0  0
 28 26  1  0  0  0  0
 29 26  1  1  0  0  0
 29 11  1  0  0  0  0
 30 14  1  6  0  0  0
 30 17  1  0  0  0  0
 31 23  1  6  0  0  0
 31  8  1  0  0  0  0
 31 20  1  0  0  0  0
M  END
