1
 OpenBabel05122313063D

 34 35  0  0  1  0  0  0  0  0999 V2000
   -0.0319    1.4187   -0.2008 P   0  0  2  0  0  0  0  0  0  0  0  0
   -1.0784    1.6710   -1.5433 O   0  0  0  0  0  0  0  0  0  0  0  0
   -1.8347    1.6742   -0.3087 C   0  0  1  0  0  0  0  0  0  0  0  0
   -2.1950    2.6850   -0.0247 H   0  0  0  0  0  0  0  0  0  0  0  0
   -2.7759    0.5494   -0.0292 C   0  0  0  0  0  0  0  0  0  0  0  0
   -2.9975    0.2111    1.3343 C   0  0  0  0  0  0  0  0  0  0  0  0
   -3.8448   -0.8681    1.6397 C   0  0  0  0  0  0  0  0  0  0  0  0
   -4.0002   -1.1448    2.6938 H   0  0  0  0  0  0  0  0  0  0  0  0
   -4.4788   -1.5884    0.6199 C   0  0  0  0  0  0  0  0  0  0  0  0
   -5.1340   -2.4368    0.8687 H   0  0  0  0  0  0  0  0  0  0  0  0
   -4.2924   -1.2147   -0.7164 C   0  0  0  0  0  0  0  0  0  0  0  0
   -4.8157   -1.7607   -1.5168 H   0  0  0  0  0  0  0  0  0  0  0  0
   -3.4539   -0.1395   -1.0701 C   0  0  0  0  0  0  0  0  0  0  0  0
   -2.3343    0.9921    2.4398 C   0  0  0  0  0  0  0  0  0  0  0  0
   -1.2274    0.9807    2.3457 H   0  0  0  0  0  0  0  0  0  0  0  0
   -2.5912    0.5765    3.4321 H   0  0  0  0  0  0  0  0  0  0  0  0
   -2.6369    2.0609    2.4295 H   0  0  0  0  0  0  0  0  0  0  0  0
   -3.3322    0.2560   -2.5217 C   0  0  0  0  0  0  0  0  0  0  0  0
   -3.4194    1.3515   -2.6604 H   0  0  0  0  0  0  0  0  0  0  0  0
   -4.1238   -0.2341   -3.1204 H   0  0  0  0  0  0  0  0  0  0  0  0
   -2.3516   -0.0338   -2.9457 H   0  0  0  0  0  0  0  0  0  0  0  0
    0.7894    3.0964    0.1179 C   0  0  0  0  0  0  0  0  0  0  0  0
    2.1731    3.0597   -0.5559 C   0  0  0  0  0  0  0  0  0  0  0  0
    2.8078    2.2448   -0.1575 H   0  0  0  0  0  0  0  0  0  0  0  0
    2.6995    4.0185   -0.3656 H   0  0  0  0  0  0  0  0  0  0  0  0
    2.0934    2.9283   -1.6537 H   0  0  0  0  0  0  0  0  0  0  0  0
    0.9320    3.2306    1.6447 C   0  0  0  0  0  0  0  0  0  0  0  0
   -0.0561    3.2857    2.1441 H   0  0  0  0  0  0  0  0  0  0  0  0
    1.4854    4.1634    1.8837 H   0  0  0  0  0  0  0  0  0  0  0  0
    1.4998    2.3897    2.0896 H   0  0  0  0  0  0  0  0  0  0  0  0
   -0.0435    4.2476   -0.4613 C   0  0  0  0  0  0  0  0  0  0  0  0
   -0.2800    4.0824   -1.5298 H   0  0  0  0  0  0  0  0  0  0  0  0
    0.5320    5.1923   -0.3710 H   0  0  0  0  0  0  0  0  0  0  0  0
   -0.9943    4.3917    0.0882 H   0  0  0  0  0  0  0  0  0  0  0  0
  1 22  1  1  0  0  0
  2  3  1  0  0  0  0
  2  1  1  0  0  0  0
  3  1  1  0  0  0  0
  3  5  1  0  0  0  0
  3  4  1  1  0  0  0
  5  6  1  0  0  0  0
  6  7  2  0  0  0  0
  6 14  1  0  0  0  0
  7  8  1  0  0  0  0
  9 10  1  0  0  0  0
  9  7  1  0  0  0  0
 11  9  2  0  0  0  0
 12 11  1  0  0  0  0
 13 11  1  0  0  0  0
 13  5  2  0  0  0  0
 14 16  1  0  0  0  0
 15 14  1  0  0  0  0
 17 14  1  0  0  0  0
 18 13  1  0  0  0  0
 19 18  1  0  0  0  0
 20 18  1  0  0  0  0
 21 18  1  0  0  0  0
 22 27  1  0  0  0  0
 23 25  1  0  0  0  0
 23 24  1  0  0  0  0
 23 22  1  0  0  0  0
 26 23  1  0  0  0  0
 27 29  1  0  0  0  0
 27 30  1  0  0  0  0
 27 28  1  0  0  0  0
 31 33  1  0  0  0  0
 31 34  1  0  0  0  0
 31 22  1  0  0  0  0
 32 31  1  0  0  0  0
M  END
