1
 OpenBabel05122313063D

 62 61  0  0  1  0  0  0  0  0999 V2000
    0.1784    0.5547    0.5211 P   0  0  0  0  0  0  0  0  0  0  0  0
    0.2394    0.7108    1.9504 H   0  0  0  0  0  0  0  0  0  0  0  0
   -1.4623    0.2599    0.1566 N   0  0  0  0  0  2  0  0  0  0  0  0
   -2.1743   -0.7768    0.5389 C   0  0  1  0  0  3  0  0  0  0  0  0
   -1.9815   -1.5097    1.7090 N   0  0  0  0  0  0  0  0  0  0  0  0
   -1.5626   -0.8834    2.9474 C   0  0  0  0  0  0  0  0  0  0  0  0
   -0.4909   -1.0574    3.1901 H   0  0  0  0  0  0  0  0  0  0  0  0
   -2.1637   -1.2969    3.7871 H   0  0  0  0  0  0  0  0  0  0  0  0
   -1.7455    0.2053    2.9007 H   0  0  0  0  0  0  0  0  0  0  0  0
   -1.9337   -2.9655    1.6938 C   0  0  0  0  0  0  0  0  0  0  0  0
   -2.2289   -3.3327    0.6963 H   0  0  0  0  0  0  0  0  0  0  0  0
   -2.6101   -3.4099    2.4547 H   0  0  0  0  0  0  0  0  0  0  0  0
   -0.9019   -3.3159    1.9130 H   0  0  0  0  0  0  0  0  0  0  0  0
   -3.2452   -1.2068   -0.2348 N   0  0  0  0  0  0  0  0  0  0  0  0
   -3.1552   -1.0757   -1.7046 C   0  0  0  0  0  0  0  0  0  0  0  0
   -2.0730   -0.9709   -1.9072 H   0  0  0  0  0  0  0  0  0  0  0  0
   -3.8500    0.1698   -2.2659 C   0  0  0  0  0  0  0  0  0  0  0  0
   -3.4642    1.0828   -1.7779 H   0  0  0  0  0  0  0  0  0  0  0  0
   -4.9512    0.1320   -2.1337 H   0  0  0  0  0  0  0  0  0  0  0  0
   -3.6546    0.2541   -3.3535 H   0  0  0  0  0  0  0  0  0  0  0  0
   -3.6326   -2.3653   -2.3827 C   0  0  0  0  0  0  0  0  0  0  0  0
   -3.0583   -3.2379   -2.0159 H   0  0  0  0  0  0  0  0  0  0  0  0
   -3.4865   -2.2953   -3.4792 H   0  0  0  0  0  0  0  0  0  0  0  0
   -4.7125   -2.5530   -2.2061 H   0  0  0  0  0  0  0  0  0  0  0  0
   -4.6155   -1.2372    0.3447 C   0  0  0  0  0  0  0  0  0  0  0  0
   -5.2784   -1.1940   -0.5432 H   0  0  0  0  0  0  0  0  0  0  0  0
   -4.9966   -2.5163    1.0969 C   0  0  0  0  0  0  0  0  0  0  0  0
   -4.7187   -3.4212    0.5232 H   0  0  0  0  0  0  0  0  0  0  0  0
   -6.0933   -2.5368    1.2595 H   0  0  0  0  0  0  0  0  0  0  0  0
   -4.5153   -2.5682    2.0918 H   0  0  0  0  0  0  0  0  0  0  0  0
   -4.8971    0.0197    1.1778 C   0  0  0  0  0  0  0  0  0  0  0  0
   -4.6726    0.9386    0.6025 H   0  0  0  0  0  0  0  0  0  0  0  0
   -4.2781    0.0329    2.0976 H   0  0  0  0  0  0  0  0  0  0  0  0
   -5.9605    0.0512    1.4893 H   0  0  0  0  0  0  0  0  0  0  0  0
    0.4599    2.2985   -0.0194 C   0  0  0  0  0  0  0  0  0  0  0  0
    1.5379    2.3288   -0.2963 H   0  0  0  0  0  0  0  0  0  0  0  0
   -0.4667    2.8263   -1.6203 Si  0  0  0  0  0  0  0  0  0  0  0  0
   -0.5583    1.4443   -2.9093 C   0  0  0  0  0  0  0  0  0  0  0  0
   -0.8552    0.4799   -2.4584 H   0  0  0  0  0  0  0  0  0  0  0  0
    0.4178    1.3124   -3.4138 H   0  0  0  0  0  0  0  0  0  0  0  0
   -1.3082    1.7111   -3.6823 H   0  0  0  0  0  0  0  0  0  0  0  0
   -2.1990    3.4636   -1.1978 C   0  0  0  0  0  0  0  0  0  0  0  0
   -2.7321    2.7233   -0.5693 H   0  0  0  0  0  0  0  0  0  0  0  0
   -2.7866    3.6313   -2.1235 H   0  0  0  0  0  0  0  0  0  0  0  0
   -2.1579    4.4244   -0.6465 H   0  0  0  0  0  0  0  0  0  0  0  0
    0.5470    4.2148   -2.4213 C   0  0  0  0  0  0  0  0  0  0  0  0
    1.5705    3.8565   -2.6580 H   0  0  0  0  0  0  0  0  0  0  0  0
    0.6352    5.1187   -1.7892 H   0  0  0  0  0  0  0  0  0  0  0  0
    0.0720    4.5143   -3.3789 H   0  0  0  0  0  0  0  0  0  0  0  0
    0.2733    3.4839    1.4809 Si  0  0  0  0  0  0  0  0  0  0  0  0
    1.6130    3.0617    2.7548 C   0  0  0  0  0  0  0  0  0  0  0  0
    1.4901    2.0477    3.1861 H   0  0  0  0  0  0  0  0  0  0  0  0
    1.5782    3.7880    3.5933 H   0  0  0  0  0  0  0  0  0  0  0  0
    2.6249    3.1078    2.3031 H   0  0  0  0  0  0  0  0  0  0  0  0
   -1.4421    3.2859    2.2651 C   0  0  0  0  0  0  0  0  0  0  0  0
   -1.7657    2.2260    2.2808 H   0  0  0  0  0  0  0  0  0  0  0  0
   -2.2092    3.8520    1.7018 H   0  0  0  0  0  0  0  0  0  0  0  0
   -1.4349    3.6626    3.3084 H   0  0  0  0  0  0  0  0  0  0  0  0
    0.5236    5.2955    0.9877 C   0  0  0  0  0  0  0  0  0  0  0  0
   -0.2639    5.6593    0.2984 H   0  0  0  0  0  0  0  0  0  0  0  0
    1.5081    5.4542    0.5028 H   0  0  0  0  0  0  0  0  0  0  0  0
    0.4916    5.9282    1.8991 H   0  0  0  0  0  0  0  0  0  0  0  0
  1  2  1  0  0  0  0
  3  1  1  0  0  0  0
  4  3  1  1  0  0  0
  4  5  1  0  0  0  0
  5  6  1  0  0  0  0
  6  7  1  0  0  0  0
  6  8  1  0  0  0  0
  9  6  1  0  0  0  0
 10  5  1  0  0  0  0
 10 13  1  0  0  0  0
 10 12  1  0  0  0  0
 11 10  1  0  0  0  0
 14 25  1  0  0  0  0
 14  4  1  0  0  0  0
 15 14  1  0  0  0  0
 16 15  1  0  0  0  0
 17 19  1  0  0  0  0
 17 18  1  0  0  0  0
 17 15  1  0  0  0  0
 20 17  1  0  0  0  0
 21 24  1  0  0  0  0
 21 22  1  0  0  0  0
 21 15  1  0  0  0  0
 23 21  1  0  0  0  0
 25 27  1  0  0  0  0
 25 31  1  0  0  0  0
 26 25  1  0  0  0  0
 27 29  1  0  0  0  0
 27 30  1  0  0  0  0
 28 27  1  0  0  0  0
 31 34  1  0  0  0  0
 31 33  1  0  0  0  0
 32 31  1  0  0  0  0
 35  1  1  0  0  0  0
 35 50  1  0  0  0  0
 36 35  1  0  0  0  0
 37 42  1  0  0  0  0
 37 35  1  0  0  0  0
 38 39  1  0  0  0  0
 38 37  1  0  0  0  0
 40 38  1  0  0  0  0
 41 38  1  0  0  0  0
 42 45  1  0  0  0  0
 42 43  1  0  0  0  0
 44 42  1  0  0  0  0
 46 48  1  0  0  0  0
 46 37  1  0  0  0  0
 47 46  1  0  0  0  0
 49 46  1  0  0  0  0
 50 55  1  0  0  0  0
 50 51  1  0  0  0  0
 51 52  1  0  0  0  0
 51 53  1  0  0  0  0
 54 51  1  0  0  0  0
 55 56  1  0  0  0  0
 55 58  1  0  0  0  0
 57 55  1  0  0  0  0
 59 50  1  0  0  0  0
 59 62  1  0  0  0  0
 60 59  1  0  0  0  0
 61 59  1  0  0  0  0
M  END
