1
 OpenBabel05122313063D

 43 45  0  0  0  0  0  0  0  0999 V2000
    2.2764    0.1193   -0.3031 P   0  0  0  0  0  0  0  0  0  0  0  0
    2.7924   -0.7409    1.2333 C   0  0  0  0  0  0  0  0  0  0  0  0
    3.9543   -0.3649    1.9349 C   0  0  0  0  0  0  0  0  0  0  0  0
    4.5538    0.4879    1.5789 H   0  0  0  0  0  0  0  0  0  0  0  0
    4.3591   -1.0578    3.0927 C   0  0  0  0  0  0  0  0  0  0  0  0
    3.5711   -2.1441    3.5286 C   0  0  0  0  0  0  0  0  0  0  0  0
    3.8719   -2.6998    4.4310 H   0  0  0  0  0  0  0  0  0  0  0  0
    2.4101   -2.5200    2.8376 C   0  0  0  0  0  0  0  0  0  0  0  0
    1.8059   -3.3664    3.1987 H   0  0  0  0  0  0  0  0  0  0  0  0
    2.0094   -1.8194    1.6910 C   0  0  0  0  0  0  0  0  0  0  0  0
    1.0856   -2.0943    1.1580 H   0  0  0  0  0  0  0  0  0  0  0  0
    3.0894    1.7606   -0.2260 C   0  0  0  0  0  0  0  0  0  0  0  0
    4.3304    2.0103   -0.8401 C   0  0  0  0  0  0  0  0  0  0  0  0
    4.8309    1.2219   -1.4219 H   0  0  0  0  0  0  0  0  0  0  0  0
    4.9176    3.2788   -0.7060 C   0  0  0  0  0  0  0  0  0  0  0  0
    5.8871    3.4842   -1.1849 H   0  0  0  0  0  0  0  0  0  0  0  0
    4.2757    4.2833    0.0301 C   0  0  0  0  0  0  0  0  0  0  0  0
    4.7470    5.2746    0.1245 H   0  0  0  0  0  0  0  0  0  0  0  0
    3.0261    4.0518    0.6468 C   0  0  0  0  0  0  0  0  0  0  0  0
    2.4439    2.7795    0.5042 C   0  0  0  0  0  0  0  0  0  0  0  0
    1.4620    2.5753    0.9627 H   0  0  0  0  0  0  0  0  0  0  0  0
    3.1191   -0.7690   -1.6669 C   0  0  0  0  0  0  0  0  0  0  0  0
    4.2318   -1.6006   -1.4358 C   0  0  0  0  0  0  0  0  0  0  0  0
    4.5924   -1.7562   -0.4070 H   0  0  0  0  0  0  0  0  0  0  0  0
    4.8889   -2.2453   -2.5024 C   0  0  0  0  0  0  0  0  0  0  0  0
    4.4068   -2.0290   -3.8104 C   0  0  0  0  0  0  0  0  0  0  0  0
    4.9086   -2.5225   -4.6579 H   0  0  0  0  0  0  0  0  0  0  0  0
    3.2962   -1.2057   -4.0467 C   0  0  0  0  0  0  0  0  0  0  0  0
    2.9306   -1.0579   -5.0741 H   0  0  0  0  0  0  0  0  0  0  0  0
    2.6420   -0.5768   -2.9784 C   0  0  0  0  0  0  0  0  0  0  0  0
    1.7591    0.0571   -3.1560 H   0  0  0  0  0  0  0  0  0  0  0  0
    5.5865   -0.6361    3.8604 C   0  0  0  0  0  0  0  0  0  0  0  0
    6.2055   -1.5094    4.1491 H   0  0  0  0  0  0  0  0  0  0  0  0
    5.3062   -0.1153    4.8006 H   0  0  0  0  0  0  0  0  0  0  0  0
    6.2184    0.0574    3.2727 H   0  0  0  0  0  0  0  0  0  0  0  0
    2.3301    5.1469    1.4140 C   0  0  0  0  0  0  0  0  0  0  0  0
    1.4255    4.7732    1.9304 H   0  0  0  0  0  0  0  0  0  0  0  0
    2.0158    5.9684    0.7365 H   0  0  0  0  0  0  0  0  0  0  0  0
    3.0014    5.5963    2.1741 H   0  0  0  0  0  0  0  0  0  0  0  0
    6.0597   -3.1616   -2.2511 C   0  0  0  0  0  0  0  0  0  0  0  0
    5.7566   -4.2261   -2.3463 H   0  0  0  0  0  0  0  0  0  0  0  0
    6.4752   -3.0251   -1.2341 H   0  0  0  0  0  0  0  0  0  0  0  0
    6.8735   -2.9920   -2.9845 H   0  0  0  0  0  0  0  0  0  0  0  0
  1 12  1  0  0  0  0
  1  2  1  0  0  0  0
  2 10  2  0  0  0  0
  2  3  1  0  0  0  0
  3  5  2  0  0  0  0
  4  3  1  0  0  0  0
  5  6  1  0  0  0  0
  5 32  1  0  0  0  0
  6  7  1  0  0  0  0
  8  9  1  0  0  0  0
  8  6  2  0  0  0  0
 10  8  1  0  0  0  0
 11 10  1  0  0  0  0
 12 20  1  0  0  0  0
 13 15  1  0  0  0  0
 13 12  2  0  0  0  0
 14 13  1  0  0  0  0
 15 17  2  0  0  0  0
 16 15  1  0  0  0  0
 17 18  1  0  0  0  0
 17 19  1  0  0  0  0
 19 36  1  0  0  0  0
 20 19  2  0  0  0  0
 20 21  1  0  0  0  0
 22 23  1  0  0  0  0
 22  1  1  0  0  0  0
 23 24  1  0  0  0  0
 25 40  1  0  0  0  0
 25 23  2  0  0  0  0
 26 25  1  0  0  0  0
 27 26  1  0  0  0  0
 28 26  2  0  0  0  0
 28 30  1  0  0  0  0
 29 28  1  0  0  0  0
 30 22  2  0  0  0  0
 31 30  1  0  0  0  0
 32 33  1  0  0  0  0
 32 34  1  0  0  0  0
 35 32  1  0  0  0  0
 36 37  1  0  0  0  0
 36 39  1  0  0  0  0
 38 36  1  0  0  0  0
 40 42  1  0  0  0  0
 41 40  1  0  0  0  0
 43 40  1  0  0  0  0
M  END
