1
 OpenBabel05122313063D

 52 57  0  0  0  0  0  0  0  0999 V2000
    0.0049   -0.0001    1.2326 P   0  0  0  0  0  0  0  0  0  0  0  0
   -2.4620   -1.3453    1.4353 N   0  0  0  0  0  0  0  0  0  0  0  0
   -3.6240   -1.3572    2.1348 N   0  0  0  0  0  0  0  0  0  0  0  0
   -3.4953   -0.5287    3.1397 N   0  0  0  0  0  0  0  0  0  0  0  0
    2.4057   -1.4623    1.4181 N   0  0  0  0  0  0  0  0  0  0  0  0
    3.0021   -2.4637    2.1118 N   0  0  0  0  0  0  0  0  0  0  0  0
    2.2257   -2.7704    3.1198 N   0  0  0  0  0  0  0  0  0  0  0  0
    0.0726    2.8097    1.4242 N   0  0  0  0  0  0  0  0  0  0  0  0
    0.6463    3.8250    2.1168 N   0  0  0  0  0  0  0  0  0  0  0  0
    1.3052    3.3035    3.1201 N   0  0  0  0  0  0  0  0  0  0  0  0
   -1.5591   -0.4789    2.0113 C   0  0  0  0  0  0  0  0  0  0  0  0
   -2.2542    0.0322    3.1106 C   0  0  0  0  0  0  0  0  0  0  0  0
   -1.9239    0.7727    3.8483 H   0  0  0  0  0  0  0  0  0  0  0  0
   -2.2951   -2.1105    0.2414 C   0  0  0  0  0  0  0  0  0  0  0  0
   -1.2005   -2.9847    0.1239 C   0  0  0  0  0  0  0  0  0  0  0  0
   -0.5200   -3.1320    0.9749 H   0  0  0  0  0  0  0  0  0  0  0  0
   -0.9966   -3.6622   -1.0863 C   0  0  0  0  0  0  0  0  0  0  0  0
   -0.1352   -4.3379   -1.1908 H   0  0  0  0  0  0  0  0  0  0  0  0
   -1.8823   -3.4735   -2.1578 C   0  0  0  0  0  0  0  0  0  0  0  0
   -1.7077   -3.9909   -3.1123 H   0  0  0  0  0  0  0  0  0  0  0  0
   -2.9877   -2.6191   -2.0170 C   0  0  0  0  0  0  0  0  0  0  0  0
   -3.6788   -2.4685   -2.8589 H   0  0  0  0  0  0  0  0  0  0  0  0
   -3.2017   -1.9317   -0.8156 C   0  0  0  0  0  0  0  0  0  0  0  0
   -4.0456   -1.2395   -0.6899 H   0  0  0  0  0  0  0  0  0  0  0  0
    1.2064   -1.1169    2.0013 C   0  0  0  0  0  0  0  0  0  0  0  0
    1.1182   -1.9776    3.0986 C   0  0  0  0  0  0  0  0  0  0  0  0
    0.3157   -2.0649    3.8403 H   0  0  0  0  0  0  0  0  0  0  0  0
    2.9782   -0.9306    0.2230 C   0  0  0  0  0  0  0  0  0  0  0  0
    3.2734   -1.8017   -0.8378 C   0  0  0  0  0  0  0  0  0  0  0  0
    3.0987   -2.8793   -0.7139 H   0  0  0  0  0  0  0  0  0  0  0  0
    3.7549   -1.2683   -2.0400 C   0  0  0  0  0  0  0  0  0  0  0  0
    3.9675   -1.9394   -2.8847 H   0  0  0  0  0  0  0  0  0  0  0  0
    3.9386    0.1169   -2.1779 C   0  0  0  0  0  0  0  0  0  0  0  0
    4.2939    0.5302   -3.1329 H   0  0  0  0  0  0  0  0  0  0  0  0
    3.6624    0.9748   -1.1028 C   0  0  0  0  0  0  0  0  0  0  0  0
    3.8137    2.0593   -1.2052 H   0  0  0  0  0  0  0  0  0  0  0  0
    3.1844    0.4553    0.1083 C   0  0  0  0  0  0  0  0  0  0  0  0
    2.9737    1.1156    0.9619 H   0  0  0  0  0  0  0  0  0  0  0  0
    0.3758    1.5970    2.0029 C   0  0  0  0  0  0  0  0  0  0  0  0
    1.1711    1.9481    3.0970 C   0  0  0  0  0  0  0  0  0  0  0  0
    1.6513    1.2949    3.8349 H   0  0  0  0  0  0  0  0  0  0  0  0
   -0.6807    3.0426    0.2339 C   0  0  0  0  0  0  0  0  0  0  0  0
   -0.0802    3.7375   -0.8281 C   0  0  0  0  0  0  0  0  0  0  0  0
    0.9409    4.1249   -0.7088 H   0  0  0  0  0  0  0  0  0  0  0  0
   -0.7900    3.8920   -2.0256 C   0  0  0  0  0  0  0  0  0  0  0  0
   -0.3202    4.4148   -2.8712 H   0  0  0  0  0  0  0  0  0  0  0  0
   -2.0821    3.3586   -2.1578 C   0  0  0  0  0  0  0  0  0  0  0  0
   -2.6233    3.4629   -3.1093 H   0  0  0  0  0  0  0  0  0  0  0  0
   -2.6804    2.6862   -1.0816 C   0  0  0  0  0  0  0  0  0  0  0  0
   -3.6956    2.2749   -1.1796 H   0  0  0  0  0  0  0  0  0  0  0  0
   -1.9844    2.5282    0.1249 C   0  0  0  0  0  0  0  0  0  0  0  0
   -2.4459    2.0126    0.9795 H   0  0  0  0  0  0  0  0  0  0  0  0
  1 25  1  0  0  0  0
  1 39  1  0  0  0  0
  1 11  1  0  0  0  0
  2 11  1  0  0  0  0
  2  3  1  0  0  0  0
  3  4  2  0  0  0  0
  5 25  1  0  0  0  0
  5  6  1  0  0  0  0
  6  7  2  0  0  0  0
  8 39  1  0  0  0  0
  8  9  1  0  0  0  0
  9 10  2  0  0  0  0
 11 12  2  0  0  0  0
 12  4  1  0  0  0  0
 12 13  1  0  0  0  0
 14  2  1  0  0  0  0
 15 14  1  0  0  0  0
 15 16  1  0  0  0  0
 17 15  2  0  0  0  0
 18 17  1  0  0  0  0
 19 21  2  0  0  0  0
 19 17  1  0  0  0  0
 20 19  1  0  0  0  0
 21 23  1  0  0  0  0
 22 21  1  0  0  0  0
 23 24  1  0  0  0  0
 23 14  2  0  0  0  0
 25 26  2  0  0  0  0
 26  7  1  0  0  0  0
 26 27  1  0  0  0  0
 28  5  1  0  0  0  0
 29 30  1  0  0  0  0
 29 28  2  0  0  0  0
 31 29  1  0  0  0  0
 32 31  1  0  0  0  0
 33 31  2  0  0  0  0
 33 35  1  0  0  0  0
 34 33  1  0  0  0  0
 35 37  2  0  0  0  0
 36 35  1  0  0  0  0
 37 28  1  0  0  0  0
 37 38  1  0  0  0  0
 39 40  2  0  0  0  0
 40 10  1  0  0  0  0
 40 41  1  0  0  0  0
 42  8  1  0  0  0  0
 43 44  1  0  0  0  0
 43 42  2  0  0  0  0
 45 43  1  0  0  0  0
 46 45  1  0  0  0  0
 47 45  2  0  0  0  0
 47 49  1  0  0  0  0
 48 47  1  0  0  0  0
 49 51  2  0  0  0  0
 50 49  1  0  0  0  0
 51 42  1  0  0  0  0
 51 52  1  0  0  0  0
M  END
