1
 OpenBabel05122313063D

 46 50  0  0  0  0  0  0  0  0999 V2000
    0.1502    0.9710   -0.0087 P   0  0  0  0  0  0  0  0  0  0  0  0
    2.8278    0.8619   -1.0376 N   0  0  0  0  0  0  0  0  0  0  0  0
    3.7554    1.6581   -1.6382 N   0  0  0  0  0  0  0  0  0  0  0  0
    3.2220    2.8347   -1.8186 N   0  0  0  0  0  0  0  0  0  0  0  0
    0.2321   -0.6812    2.2879 N   0  0  0  0  0  0  0  0  0  0  0  0
    1.0339   -1.0467    3.3189 N   0  0  0  0  0  0  0  0  0  0  0  0
    2.1052   -0.2960    3.2780 N   0  0  0  0  0  0  0  0  0  0  0  0
    1.6664    1.5710   -0.8104 C   0  0  0  0  0  0  0  0  0  0  0  0
    1.9491    2.8350   -1.3319 C   0  0  0  0  0  0  0  0  0  0  0  0
    1.3046    3.7203   -1.3660 H   0  0  0  0  0  0  0  0  0  0  0  0
    3.1681   -0.4724   -0.6581 C   0  0  0  0  0  0  0  0  0  0  0  0
    2.2785   -1.5292   -0.9071 C   0  0  0  0  0  0  0  0  0  0  0  0
    1.3383   -1.3506   -1.4520 H   0  0  0  0  0  0  0  0  0  0  0  0
    2.6012   -2.8177   -0.4589 C   0  0  0  0  0  0  0  0  0  0  0  0
    1.8979   -3.6425   -0.6474 H   0  0  0  0  0  0  0  0  0  0  0  0
    3.8144   -3.0511    0.2073 C   0  0  0  0  0  0  0  0  0  0  0  0
    4.0638   -4.0625    0.5609 H   0  0  0  0  0  0  0  0  0  0  0  0
    4.7142   -1.9927    0.4157 C   0  0  0  0  0  0  0  0  0  0  0  0
    5.6691   -2.1729    0.9310 H   0  0  0  0  0  0  0  0  0  0  0  0
    4.3961   -0.6975   -0.0125 C   0  0  0  0  0  0  0  0  0  0  0  0
    5.0787    0.1471    0.1537 H   0  0  0  0  0  0  0  0  0  0  0  0
    0.8089    0.3346    1.5589 C   0  0  0  0  0  0  0  0  0  0  0  0
    2.0160    0.5625    2.2263 C   0  0  0  0  0  0  0  0  0  0  0  0
    2.8143    1.2720    1.9804 H   0  0  0  0  0  0  0  0  0  0  0  0
   -1.0143   -1.3329    2.0498 C   0  0  0  0  0  0  0  0  0  0  0  0
   -2.1915   -0.5686    1.9687 C   0  0  0  0  0  0  0  0  0  0  0  0
   -2.1532    0.5172    2.1412 H   0  0  0  0  0  0  0  0  0  0  0  0
   -3.4005   -1.2098    1.6653 C   0  0  0  0  0  0  0  0  0  0  0  0
   -4.3236   -0.6178    1.5834 H   0  0  0  0  0  0  0  0  0  0  0  0
   -3.4284   -2.5964    1.4527 C   0  0  0  0  0  0  0  0  0  0  0  0
   -4.3745   -3.0922    1.1918 H   0  0  0  0  0  0  0  0  0  0  0  0
   -2.2491   -3.3508    1.5607 C   0  0  0  0  0  0  0  0  0  0  0  0
   -2.2723   -4.4367    1.3882 H   0  0  0  0  0  0  0  0  0  0  0  0
   -1.0329   -2.7239    1.8609 C   0  0  0  0  0  0  0  0  0  0  0  0
   -0.0917   -3.2867    1.9284 H   0  0  0  0  0  0  0  0  0  0  0  0
   -0.7183    2.5321    0.4037 C   0  0  0  0  0  0  0  0  0  0  0  0
   -0.2045    3.4165    1.3741 C   0  0  0  0  0  0  0  0  0  0  0  0
    0.7242    3.1708    1.9112 H   0  0  0  0  0  0  0  0  0  0  0  0
   -0.8868    4.6070    1.6584 C   0  0  0  0  0  0  0  0  0  0  0  0
   -0.4877    5.2965    2.4174 H   0  0  0  0  0  0  0  0  0  0  0  0
   -2.0778    4.9170    0.9793 C   0  0  0  0  0  0  0  0  0  0  0  0
   -2.6111    5.8522    1.2071 H   0  0  0  0  0  0  0  0  0  0  0  0
   -2.5913    4.0343    0.0165 C   0  0  0  0  0  0  0  0  0  0  0  0
   -3.5259    4.2733   -0.5125 H   0  0  0  0  0  0  0  0  0  0  0  0
   -1.9158    2.8386   -0.2720 C   0  0  0  0  0  0  0  0  0  0  0  0
   -2.3156    2.1313   -1.0167 H   0  0  0  0  0  0  0  0  0  0  0  0
  1 36  1  0  0  0  0
  1 22  1  0  0  0  0
  2  8  1  0  0  0  0
  2 11  1  0  0  0  0
  3  2  1  0  0  0  0
  4  3  2  0  0  0  0
  4  9  1  0  0  0  0
  5  6  1  0  0  0  0
  7  6  2  0  0  0  0
  8  1  1  0  0  0  0
  9  8  2  0  0  0  0
 10  9  1  0  0  0  0
 11 20  1  0  0  0  0
 12 11  2  0  0  0  0
 12 14  1  0  0  0  0
 13 12  1  0  0  0  0
 14 16  2  0  0  0  0
 15 14  1  0  0  0  0
 16 18  1  0  0  0  0
 16 17  1  0  0  0  0
 18 19  1  0  0  0  0
 20 21  1  0  0  0  0
 20 18  2  0  0  0  0
 22 23  2  0  0  0  0
 22  5  1  0  0  0  0
 23  7  1  0  0  0  0
 24 23  1  0  0  0  0
 25  5  1  0  0  0  0
 26 25  1  0  0  0  0
 26 27  1  0  0  0  0
 28 26  2  0  0  0  0
 29 28  1  0  0  0  0
 30 32  2  0  0  0  0
 30 28  1  0  0  0  0
 31 30  1  0  0  0  0
 32 34  1  0  0  0  0
 33 32  1  0  0  0  0
 34 35  1  0  0  0  0
 34 25  2  0  0  0  0
 36 37  1  0  0  0  0
 37 39  2  0  0  0  0
 37 38  1  0  0  0  0
 39 40  1  0  0  0  0
 41 42  1  0  0  0  0
 41 39  1  0  0  0  0
 43 41  2  0  0  0  0
 44 43  1  0  0  0  0
 45 43  1  0  0  0  0
 45 36  2  0  0  0  0
 46 45  1  0  0  0  0
M  END
