1
 OpenBabel05122313063D

 52 55  0  0  0  0  0  0  0  0999 V2000
   -0.7521    0.3813    0.1035 P   0  0  0  0  0  0  0  0  0  0  0  0
    1.1962    1.3127    1.9986 N   0  0  0  0  0  0  0  0  0  0  0  0
    1.3125    2.1305    3.0786 N   0  0  0  0  0  0  0  0  0  0  0  0
    0.1188    2.5672    3.3811 N   0  0  0  0  0  0  0  0  0  0  0  0
   -0.1179    1.2274    1.5882 C   0  0  0  0  0  0  0  0  0  0  0  0
   -0.7843    2.0484    2.5050 C   0  0  0  0  0  0  0  0  0  0  0  0
   -1.8531    2.2819    2.5713 H   0  0  0  0  0  0  0  0  0  0  0  0
    2.3636    0.6876    1.4542 C   0  0  0  0  0  0  0  0  0  0  0  0
    2.5036   -0.7079    1.5209 C   0  0  0  0  0  0  0  0  0  0  0  0
    1.7301   -1.3117    2.0160 H   0  0  0  0  0  0  0  0  0  0  0  0
    3.6392   -1.3100    0.9592 C   0  0  0  0  0  0  0  0  0  0  0  0
    3.7315   -2.4051    0.9713 H   0  0  0  0  0  0  0  0  0  0  0  0
    4.6288   -0.5186    0.3577 C   0  0  0  0  0  0  0  0  0  0  0  0
    5.5135   -0.9956   -0.0894 H   0  0  0  0  0  0  0  0  0  0  0  0
    4.4931    0.8793    0.3235 C   0  0  0  0  0  0  0  0  0  0  0  0
    5.2748    1.5000   -0.1393 H   0  0  0  0  0  0  0  0  0  0  0  0
    3.3562    1.4901    0.8698 C   0  0  0  0  0  0  0  0  0  0  0  0
    3.2272    2.5815    0.8539 H   0  0  0  0  0  0  0  0  0  0  0  0
   -0.8359    1.7285   -1.1842 C   0  0  0  0  0  0  0  0  0  0  0  0
   -1.2580    1.1950   -2.0666 H   0  0  0  0  0  0  0  0  0  0  0  0
    0.5867    2.1953   -1.5445 C   0  0  0  0  0  0  0  0  0  0  0  0
    1.0556    2.6482   -0.6430 H   0  0  0  0  0  0  0  0  0  0  0  0
    1.2156    1.3232   -1.8216 H   0  0  0  0  0  0  0  0  0  0  0  0
    0.5571    3.2362   -2.6713 C   0  0  0  0  0  0  0  0  0  0  0  0
    1.5893    3.5803   -2.8896 H   0  0  0  0  0  0  0  0  0  0  0  0
    0.1846    2.7543   -3.6027 H   0  0  0  0  0  0  0  0  0  0  0  0
   -0.3459    4.4232   -2.3142 C   0  0  0  0  0  0  0  0  0  0  0  0
   -0.3816    5.1504   -3.1518 H   0  0  0  0  0  0  0  0  0  0  0  0
    0.0907    4.9665   -1.4461 H   0  0  0  0  0  0  0  0  0  0  0  0
   -1.7613    3.9557   -1.9540 C   0  0  0  0  0  0  0  0  0  0  0  0
   -2.3950    4.8173   -1.6575 H   0  0  0  0  0  0  0  0  0  0  0  0
   -2.2406    3.5092   -2.8538 H   0  0  0  0  0  0  0  0  0  0  0  0
   -1.7454    2.9125   -0.8250 C   0  0  0  0  0  0  0  0  0  0  0  0
   -2.7790    2.5658   -0.6161 H   0  0  0  0  0  0  0  0  0  0  0  0
   -1.3712    3.3864    0.1092 H   0  0  0  0  0  0  0  0  0  0  0  0
   -2.4992   -0.0304    0.5891 C   0  0  0  0  0  0  0  0  0  0  0  0
   -2.9685    0.9070    0.9631 H   0  0  0  0  0  0  0  0  0  0  0  0
   -3.2860   -0.5267   -0.6391 C   0  0  0  0  0  0  0  0  0  0  0  0
   -3.3237    0.2574   -1.4237 H   0  0  0  0  0  0  0  0  0  0  0  0
   -2.7418   -1.3913   -1.0820 H   0  0  0  0  0  0  0  0  0  0  0  0
   -4.7101   -0.9518   -0.2534 C   0  0  0  0  0  0  0  0  0  0  0  0
   -5.2794   -0.0562    0.0838 H   0  0  0  0  0  0  0  0  0  0  0  0
   -5.2378   -1.3375   -1.1501 H   0  0  0  0  0  0  0  0  0  0  0  0
   -4.7051   -2.0000    0.8653 C   0  0  0  0  0  0  0  0  0  0  0  0
   -5.7442   -2.2686    1.1477 H   0  0  0  0  0  0  0  0  0  0  0  0
   -4.2299   -2.9332    0.4890 H   0  0  0  0  0  0  0  0  0  0  0  0
   -3.9289   -1.4983    2.0887 C   0  0  0  0  0  0  0  0  0  0  0  0
   -3.8950   -2.2774    2.8780 H   0  0  0  0  0  0  0  0  0  0  0  0
   -4.4615   -0.6269    2.5323 H   0  0  0  0  0  0  0  0  0  0  0  0
   -2.5002   -1.0813    1.7159 C   0  0  0  0  0  0  0  0  0  0  0  0
   -1.9288   -1.9707    1.3663 H   0  0  0  0  0  0  0  0  0  0  0  0
   -1.9637   -0.6915    2.6054 H   0  0  0  0  0  0  0  0  0  0  0  0
  1 36  1  0  0  0  0
  1  5  1  0  0  0  0
  2  3  1  0  0  0  0
  3  4  2  0  0  0  0
  5  2  1  0  0  0  0
  5  6  2  0  0  0  0
  6  7  1  0  0  0  0
  6  4  1  0  0  0  0
  8  9  1  0  0  0  0
  8  2  1  0  0  0  0
  9 10  1  0  0  0  0
 11 12  1  0  0  0  0
 11  9  2  0  0  0  0
 13 11  1  0  0  0  0
 14 13  1  0  0  0  0
 15 13  2  0  0  0  0
 15 17  1  0  0  0  0
 16 15  1  0  0  0  0
 17  8  2  0  0  0  0
 18 17  1  0  0  0  0
 19 33  1  0  0  0  0
 19  1  1  0  0  0  0
 20 19  1  0  0  0  0
 21 19  1  0  0  0  0
 21 22  1  0  0  0  0
 23 21  1  0  0  0  0
 24 27  1  0  0  0  0
 24 21  1  0  0  0  0
 25 24  1  0  0  0  0
 26 24  1  0  0  0  0
 27 30  1  0  0  0  0
 27 29  1  0  0  0  0
 28 27  1  0  0  0  0
 30 31  1  0  0  0  0
 30 33  1  0  0  0  0
 32 30  1  0  0  0  0
 33 34  1  0  0  0  0
 33 35  1  0  0  0  0
 36 37  1  0  0  0  0
 36 50  1  0  0  0  0
 38 41  1  0  0  0  0
 38 36  1  0  0  0  0
 39 38  1  0  0  0  0
 40 38  1  0  0  0  0
 41 42  1  0  0  0  0
 41 44  1  0  0  0  0
 43 41  1  0  0  0  0
 44 45  1  0  0  0  0
 44 47  1  0  0  0  0
 46 44  1  0  0  0  0
 47 49  1  0  0  0  0
 47 48  1  0  0  0  0
 50 47  1  0  0  0  0
 50 52  1  0  0  0  0
 51 50  1  0  0  0  0
M  END
