1
 OpenBabel05122313063D

 65 67  0  0  0  0  0  0  0  0999 V2000
   -0.0207   -0.0270   -0.0014 P   0  0  0  0  0  2  0  0  0  0  0  0
    1.1453    0.1927   -1.2590 N   0  0  0  0  0  0  0  0  0  0  0  0
    0.5962    0.3804   -2.5242 C   0  0  0  0  0  0  0  0  0  0  0  0
    1.2488    0.5367   -3.3905 H   0  0  0  0  0  0  0  0  0  0  0  0
   -0.7698    0.3408   -2.4900 C   0  0  0  0  0  0  0  0  0  0  0  0
   -1.4711    0.4561   -3.3238 H   0  0  0  0  0  0  0  0  0  0  0  0
   -1.2553    0.1265   -1.1995 N   0  0  0  0  0  0  0  0  0  0  0  0
   -2.6551    0.1091   -0.8758 C   0  0  0  0  0  0  0  0  0  0  0  0
   -3.2886   -1.1404   -0.6492 C   0  0  0  0  0  0  0  0  0  0  0  0
   -4.6591   -1.1225   -0.3308 C   0  0  0  0  0  0  0  0  0  0  0  0
   -5.1827   -2.0708   -0.1455 H   0  0  0  0  0  0  0  0  0  0  0  0
   -5.3643    0.0842   -0.2421 C   0  0  0  0  0  0  0  0  0  0  0  0
   -6.4363    0.0739    0.0071 H   0  0  0  0  0  0  0  0  0  0  0  0
   -4.7115    1.3044   -0.4562 C   0  0  0  0  0  0  0  0  0  0  0  0
   -5.2755    2.2439   -0.3674 H   0  0  0  0  0  0  0  0  0  0  0  0
   -3.3400    1.3466   -0.7686 C   0  0  0  0  0  0  0  0  0  0  0  0
   -2.6003    2.6733   -0.9065 C   0  0  0  0  0  0  0  0  0  0  0  0
   -1.7328    2.5047   -1.5784 H   0  0  0  0  0  0  0  0  0  0  0  0
   -3.4505    3.7841   -1.5371 C   0  0  0  0  0  0  0  0  0  0  0  0
   -2.8273    4.6821   -1.7217 H   0  0  0  0  0  0  0  0  0  0  0  0
   -4.2795    4.1002   -0.8709 H   0  0  0  0  0  0  0  0  0  0  0  0
   -3.8925    3.4671   -2.5031 H   0  0  0  0  0  0  0  0  0  0  0  0
   -2.0390    3.1090    0.4616 C   0  0  0  0  0  0  0  0  0  0  0  0
   -1.4516    4.0453    0.3643 H   0  0  0  0  0  0  0  0  0  0  0  0
   -1.3798    2.3340    0.8984 H   0  0  0  0  0  0  0  0  0  0  0  0
   -2.8612    3.2912    1.1837 H   0  0  0  0  0  0  0  0  0  0  0  0
   -2.5163   -2.4484   -0.7768 C   0  0  0  0  0  0  0  0  0  0  0  0
   -1.4809   -2.2466   -0.4302 H   0  0  0  0  0  0  0  0  0  0  0  0
   -3.0652   -3.5728    0.1090 C   0  0  0  0  0  0  0  0  0  0  0  0
   -2.3814   -4.4442    0.0788 H   0  0  0  0  0  0  0  0  0  0  0  0
   -4.0599   -3.9261   -0.2339 H   0  0  0  0  0  0  0  0  0  0  0  0
   -3.1517   -3.2541    1.1658 H   0  0  0  0  0  0  0  0  0  0  0  0
   -2.4362   -2.8919   -2.2500 C   0  0  0  0  0  0  0  0  0  0  0  0
   -1.8352   -3.8195   -2.3452 H   0  0  0  0  0  0  0  0  0  0  0  0
   -1.9677   -2.1179   -2.8895 H   0  0  0  0  0  0  0  0  0  0  0  0
   -3.4495   -3.0978   -2.6532 H   0  0  0  0  0  0  0  0  0  0  0  0
    2.5473    0.2404   -0.9532 C   0  0  0  0  0  0  0  0  0  0  0  0
    3.0991    1.4644   -0.4982 C   0  0  0  0  0  0  0  0  0  0  0  0
    4.4540    1.4642   -0.1177 C   0  0  0  0  0  0  0  0  0  0  0  0
    4.9104    2.3950    0.2518 H   0  0  0  0  0  0  0  0  0  0  0  0
    5.2240    0.2982   -0.1934 C   0  0  0  0  0  0  0  0  0  0  0  0
    6.2792    0.3173    0.1187 H   0  0  0  0  0  0  0  0  0  0  0  0
    4.6579   -0.8948   -0.6611 C   0  0  0  0  0  0  0  0  0  0  0  0
    5.2748   -1.8039   -0.7135 H   0  0  0  0  0  0  0  0  0  0  0  0
    3.3077   -0.9526   -1.0502 C   0  0  0  0  0  0  0  0  0  0  0  0
    2.6755   -2.2645   -1.5008 C   0  0  0  0  0  0  0  0  0  0  0  0
    1.7434   -2.0130   -2.0481 H   0  0  0  0  0  0  0  0  0  0  0  0
    3.5717   -3.0548   -2.4658 C   0  0  0  0  0  0  0  0  0  0  0  0
    3.0296   -3.9414   -2.8521 H   0  0  0  0  0  0  0  0  0  0  0  0
    4.4887   -3.4290   -1.9660 H   0  0  0  0  0  0  0  0  0  0  0  0
    3.8860   -2.4382   -3.3319 H   0  0  0  0  0  0  0  0  0  0  0  0
    2.2722   -3.1167   -0.2823 C   0  0  0  0  0  0  0  0  0  0  0  0
    1.7963   -4.0644   -0.6087 H   0  0  0  0  0  0  0  0  0  0  0  0
    1.5556   -2.5768    0.3672 H   0  0  0  0  0  0  0  0  0  0  0  0
    3.1599   -3.3709    0.3329 H   0  0  0  0  0  0  0  0  0  0  0  0
    2.2697    2.7392   -0.3955 C   0  0  0  0  0  0  0  0  0  0  0  0
    1.2726    2.5270   -0.8336 H   0  0  0  0  0  0  0  0  0  0  0  0
    2.0436    3.1402    1.0726 C   0  0  0  0  0  0  0  0  0  0  0  0
    1.4173    4.0538    1.1341 H   0  0  0  0  0  0  0  0  0  0  0  0
    3.0042    3.3503    1.5865 H   0  0  0  0  0  0  0  0  0  0  0  0
    1.5253    2.3325    1.6249 H   0  0  0  0  0  0  0  0  0  0  0  0
    2.8897    3.8857   -1.2113 C   0  0  0  0  0  0  0  0  0  0  0  0
    2.2346    4.7801   -1.1808 H   0  0  0  0  0  0  0  0  0  0  0  0
    3.0326    3.5988   -2.2727 H   0  0  0  0  0  0  0  0  0  0  0  0
    3.8786    4.1867   -0.8081 H   0  0  0  0  0  0  0  0  0  0  0  0
  2 37  1  0  0  0  0
  2  1  1  0  0  0  0
  3  5  2  0  0  0  0
  3  2  1  0  0  0  0
  4  3  1  0  0  0  0
  5  7  1  0  0  0  0
  6  5  1  0  0  0  0
  7  8  1  0  0  0  0
  7  1  1  0  0  0  0
  8 16  2  0  0  0  0
  8  9  1  0  0  0  0
  9 10  2  0  0  0  0
 10 12  1  0  0  0  0
 10 11  1  0  0  0  0
 12 13  1  0  0  0  0
 14 15  1  0  0  0  0
 14 12  2  0  0  0  0
 16 14  1  0  0  0  0
 17 16  1  0  0  0  0
 17 23  1  0  0  0  0
 18 17  1  0  0  0  0
 19 17  1  0  0  0  0
 19 21  1  0  0  0  0
 20 19  1  0  0  0  0
 22 19  1  0  0  0  0
 23 25  1  0  0  0  0
 23 26  1  0  0  0  0
 24 23  1  0  0  0  0
 27  9  1  0  0  0  0
 27 28  1  0  0  0  0
 27 29  1  0  0  0  0
 29 32  1  0  0  0  0
 30 29  1  0  0  0  0
 31 29  1  0  0  0  0
 33 27  1  0  0  0  0
 34 33  1  0  0  0  0
 35 33  1  0  0  0  0
 36 33  1  0  0  0  0
 37 38  1  0  0  0  0
 38 56  1  0  0  0  0
 38 39  2  0  0  0  0
 39 40  1  0  0  0  0
 41 39  1  0  0  0  0
 41 42  1  0  0  0  0
 43 41  2  0  0  0  0
 44 43  1  0  0  0  0
 45 37  2  0  0  0  0
 45 43  1  0  0  0  0
 46 45  1  0  0  0  0
 46 52  1  0  0  0  0
 47 46  1  0  0  0  0
 48 50  1  0  0  0  0
 48 46  1  0  0  0  0
 49 48  1  0  0  0  0
 51 48  1  0  0  0  0
 52 55  1  0  0  0  0
 52 54  1  0  0  0  0
 53 52  1  0  0  0  0
 56 58  1  0  0  0  0
 57 56  1  0  0  0  0
 58 59  1  0  0  0  0
 58 60  1  0  0  0  0
 58 61  1  0  0  0  0
 62 63  1  0  0  0  0
 62 65  1  0  0  0  0
 62 56  1  0  0  0  0
 64 62  1  0  0  0  0
M  END
