1
 OpenBabel05122313063D

 76 78  0  0  0  0  0  0  0  0999 V2000
   -0.2202    0.0467   -1.0704 P   0  0  0  0  0  0  0  0  0  0  0  0
   -0.8599    0.0234    0.6820 C   0  0  0  0  0  0  0  0  0  0  0  0
    0.0917   -0.0148    1.7445 C   0  0  0  0  0  0  0  0  0  0  0  0
   -0.3552   -0.0009    3.0840 C   0  0  0  0  0  0  0  0  0  0  0  0
    0.4015   -0.0313    3.8820 H   0  0  0  0  0  0  0  0  0  0  0  0
   -1.7144    0.0484    3.3959 C   0  0  0  0  0  0  0  0  0  0  0  0
   -2.0476    0.0618    4.4446 H   0  0  0  0  0  0  0  0  0  0  0  0
   -2.6493    0.0683    2.3569 C   0  0  0  0  0  0  0  0  0  0  0  0
   -3.7255    0.0893    2.5829 H   0  0  0  0  0  0  0  0  0  0  0  0
   -2.2534    0.0521    1.0032 C   0  0  0  0  0  0  0  0  0  0  0  0
    1.5818   -0.0959    1.5855 C   0  0  0  0  0  0  0  0  0  0  0  0
    2.2019   -1.3709    1.4857 C   0  0  0  0  0  0  0  0  0  0  0  0
    3.6066   -1.4376    1.5018 C   0  0  0  0  0  0  0  0  0  0  0  0
    4.1040   -2.4148    1.4100 H   0  0  0  0  0  0  0  0  0  0  0  0
    4.3824   -0.2771    1.6035 C   0  0  0  0  0  0  0  0  0  0  0  0
    5.4799   -0.3465    1.5901 H   0  0  0  0  0  0  0  0  0  0  0  0
    3.7613    0.9735    1.6923 C   0  0  0  0  0  0  0  0  0  0  0  0
    4.3795    1.8826    1.7444 H   0  0  0  0  0  0  0  0  0  0  0  0
    2.3594    1.0885    1.6857 C   0  0  0  0  0  0  0  0  0  0  0  0
    1.3746   -2.6459    1.3542 C   0  0  0  0  0  0  0  0  0  0  0  0
    0.3198   -2.3397    1.1903 H   0  0  0  0  0  0  0  0  0  0  0  0
    1.4063   -3.4660    2.6548 C   0  0  0  0  0  0  0  0  0  0  0  0
    2.4409   -3.7867    2.8966 H   0  0  0  0  0  0  0  0  0  0  0  0
    0.7801   -4.3780    2.5660 H   0  0  0  0  0  0  0  0  0  0  0  0
    1.0303   -2.8722    3.5123 H   0  0  0  0  0  0  0  0  0  0  0  0
    1.7966   -3.4865    0.1383 C   0  0  0  0  0  0  0  0  0  0  0  0
    2.8157   -3.9065    0.2617 H   0  0  0  0  0  0  0  0  0  0  0  0
    1.8060   -2.8725   -0.7859 H   0  0  0  0  0  0  0  0  0  0  0  0
    1.1029   -4.3404   -0.0078 H   0  0  0  0  0  0  0  0  0  0  0  0
    1.7047    2.4652    1.7418 C   0  0  0  0  0  0  0  0  0  0  0  0
    0.6068    2.3128    1.6774 H   0  0  0  0  0  0  0  0  0  0  0  0
    1.9865    3.1729    3.0771 C   0  0  0  0  0  0  0  0  0  0  0  0
    1.6336    2.5669    3.9361 H   0  0  0  0  0  0  0  0  0  0  0  0
    1.4777    4.1581    3.1186 H   0  0  0  0  0  0  0  0  0  0  0  0
    3.0730    3.3498    3.2166 H   0  0  0  0  0  0  0  0  0  0  0  0
    2.1129    3.3329    0.5392 C   0  0  0  0  0  0  0  0  0  0  0  0
    3.1988    3.5589    0.5480 H   0  0  0  0  0  0  0  0  0  0  0  0
    1.5673    4.2993    0.5473 H   0  0  0  0  0  0  0  0  0  0  0  0
    1.8997    2.8110   -0.4168 H   0  0  0  0  0  0  0  0  0  0  0  0
   -3.3804    0.0345    0.0072 C   0  0  0  0  0  0  0  0  0  0  0  0
   -3.9191   -1.2160   -0.4123 C   0  0  0  0  0  0  0  0  0  0  0  0
   -5.0042   -1.2159   -1.3101 C   0  0  0  0  0  0  0  0  0  0  0  0
   -5.4231   -2.1728   -1.6537 H   0  0  0  0  0  0  0  0  0  0  0  0
   -5.5633   -0.0168   -1.7670 C   0  0  0  0  0  0  0  0  0  0  0  0
   -6.4073   -0.0365   -2.4732 H   0  0  0  0  0  0  0  0  0  0  0  0
   -5.0598    1.2069   -1.3115 C   0  0  0  0  0  0  0  0  0  0  0  0
   -5.5216    2.1435   -1.6567 H   0  0  0  0  0  0  0  0  0  0  0  0
   -3.9755    1.2577   -0.4137 C   0  0  0  0  0  0  0  0  0  0  0  0
   -3.3922   -2.5368    0.1500 C   0  0  0  0  0  0  0  0  0  0  0  0
   -2.3372   -2.3694    0.4546 H   0  0  0  0  0  0  0  0  0  0  0  0
   -4.1764   -2.9285    1.4180 C   0  0  0  0  0  0  0  0  0  0  0  0
   -4.1060   -2.1519    2.2025 H   0  0  0  0  0  0  0  0  0  0  0  0
   -3.7856   -3.8765    1.8414 H   0  0  0  0  0  0  0  0  0  0  0  0
   -5.2502   -3.0760    1.1804 H   0  0  0  0  0  0  0  0  0  0  0  0
   -3.4159   -3.6999   -0.8532 C   0  0  0  0  0  0  0  0  0  0  0  0
   -4.4518   -4.0284   -1.0762 H   0  0  0  0  0  0  0  0  0  0  0  0
   -2.8860   -4.5771   -0.4305 H   0  0  0  0  0  0  0  0  0  0  0  0
   -2.9316   -3.4397   -1.8144 H   0  0  0  0  0  0  0  0  0  0  0  0
   -3.5069    2.6029    0.1410 C   0  0  0  0  0  0  0  0  0  0  0  0
   -2.4557    2.4734    0.4758 H   0  0  0  0  0  0  0  0  0  0  0  0
   -4.3382    2.9904    1.3799 C   0  0  0  0  0  0  0  0  0  0  0  0
   -5.4094    3.0982    1.1110 H   0  0  0  0  0  0  0  0  0  0  0  0
   -3.9908    3.9579    1.7966 H   0  0  0  0  0  0  0  0  0  0  0  0
   -4.2654    2.2304    2.1803 H   0  0  0  0  0  0  0  0  0  0  0  0
   -3.5412    3.7476   -0.8834 C   0  0  0  0  0  0  0  0  0  0  0  0
   -3.0176    3.4889   -1.8242 H   0  0  0  0  0  0  0  0  0  0  0  0
   -3.0575    4.6512   -0.4609 H   0  0  0  0  0  0  0  0  0  0  0  0
   -4.5809    4.0332   -1.1443 H   0  0  0  0  0  0  0  0  0  0  0  0
   -0.9815    1.4980   -1.9031 C   0  0  0  0  0  0  0  0  0  0  0  0
   -0.5462    1.5454   -2.9200 H   0  0  0  0  0  0  0  0  0  0  0  0
   -0.6964    2.4199   -1.3620 H   0  0  0  0  0  0  0  0  0  0  0  0
   -2.0813    1.4119   -1.9653 H   0  0  0  0  0  0  0  0  0  0  0  0
   -0.9577   -1.3863   -1.9558 C   0  0  0  0  0  0  0  0  0  0  0  0
   -0.6540   -2.3242   -1.4542 H   0  0  0  0  0  0  0  0  0  0  0  0
   -0.5255   -1.3847   -2.9752 H   0  0  0  0  0  0  0  0  0  0  0  0
   -2.0592   -1.3175   -2.0110 H   0  0  0  0  0  0  0  0  0  0  0  0
  1  2  1  0  0  0  0
  2 10  2  0  0  0  0
  2  3  1  0  0  0  0
  3  4  2  0  0  0  0
  4  6  1  0  0  0  0
  4  5  1  0  0  0  0
  6  7  1  0  0  0  0
  8  9  1  0  0  0  0
  8  6  2  0  0  0  0
 10  8  1  0  0  0  0
 11 19  1  0  0  0  0
 11  3  1  0  0  0  0
 12 13  1  0  0  0  0
 12 11  2  0  0  0  0
 13 15  2  0  0  0  0
 14 13  1  0  0  0  0
 15 17  1  0  0  0  0
 16 15  1  0  0  0  0
 17 18  1  0  0  0  0
 19 17  2  0  0  0  0
 19 30  1  0  0  0  0
 20 12  1  0  0  0  0
 20 22  1  0  0  0  0
 21 20  1  0  0  0  0
 22 23  1  0  0  0  0
 22 25  1  0  0  0  0
 24 22  1  0  0  0  0
 26 27  1  0  0  0  0
 26 20  1  0  0  0  0
 28 26  1  0  0  0  0
 29 26  1  0  0  0  0
 30 32  1  0  0  0  0
 31 30  1  0  0  0  0
 32 34  1  0  0  0  0
 32 35  1  0  0  0  0
 32 33  1  0  0  0  0
 36 38  1  0  0  0  0
 36 37  1  0  0  0  0
 36 30  1  0  0  0  0
 39 36  1  0  0  0  0
 40 10  1  0  0  0  0
 41 40  1  0  0  0  0
 41 49  1  0  0  0  0
 42 41  2  0  0  0  0
 43 42  1  0  0  0  0
 44 46  2  0  0  0  0
 44 42  1  0  0  0  0
 45 44  1  0  0  0  0
 46 48  1  0  0  0  0
 47 46  1  0  0  0  0
 48 40  2  0  0  0  0
 48 59  1  0  0  0  0
 49 50  1  0  0  0  0
 49 51  1  0  0  0  0
 51 53  1  0  0  0  0
 51 52  1  0  0  0  0
 54 51  1  0  0  0  0
 55 57  1  0  0  0  0
 55 49  1  0  0  0  0
 56 55  1  0  0  0  0
 58 55  1  0  0  0  0
 59 60  1  0  0  0  0
 59 61  1  0  0  0  0
 61 63  1  0  0  0  0
 61 64  1  0  0  0  0
 62 61  1  0  0  0  0
 65 67  1  0  0  0  0
 65 59  1  0  0  0  0
 66 65  1  0  0  0  0
 68 65  1  0  0  0  0
 69 71  1  0  0  0  0
 69  1  1  0  0  0  0
 70 69  1  0  0  0  0
 72 69  1  0  0  0  0
 73 74  1  0  0  0  0
 73  1  1  0  0  0  0
 75 73  1  0  0  0  0
 76 73  1  0  0  0  0
M  END
