1
 OpenBabel05122313063D

 36 38  0  0  1  0  0  0  0  0999 V2000
   -0.0633    1.0553    0.0544 P   0  0  1  0  0  0  0  0  0  0  0  0
    1.6230    1.2514   -0.6249 C   0  0  0  0  0  0  0  0  0  0  0  0
    1.5945    1.2224    0.8017 C   0  0  2  0  0  3  0  0  0  0  0  0
    2.2864    1.0264    1.9471 C   0  0  0  0  0  3  0  0  0  0  0  0
    3.7707    0.8142    2.0355 C   0  0  0  0  0  0  0  0  0  0  0  0
    4.1191   -0.6880    1.8609 C   0  0  0  0  0  0  0  0  0  0  0  0
    3.9324   -1.1875    0.4200 C   0  0  0  0  0  0  0  0  0  0  0  0
    5.0188   -0.6789   -0.5583 C   0  0  0  0  0  0  0  0  0  0  0  0
    4.5402   -0.1418   -1.9167 C   0  0  0  0  0  0  0  0  0  0  0  0
    3.8499    1.2534   -1.8554 C   0  0  0  0  0  0  0  0  0  0  0  0
    2.3503    1.2096   -1.7617 C   0  0  0  0  0  0  0  0  0  0  0  0
   -0.8805    2.6980    0.0504 C   0  0  0  0  0  0  0  0  0  0  0  0
   -0.1496    3.8892    0.2399 C   0  0  0  0  0  0  0  0  0  0  0  0
   -0.8119    5.1232    0.2281 C   0  0  0  0  0  0  0  0  0  0  0  0
   -2.2032    5.1794    0.0307 C   0  0  0  0  0  0  0  0  0  0  0  0
   -2.9319    3.9956   -0.1542 C   0  0  0  0  0  0  0  0  0  0  0  0
   -2.2737    2.7552   -0.1440 C   0  0  0  0  0  0  0  0  0  0  0  0
    1.7021    0.8984    2.8750 H   0  0  0  0  0  0  0  0  0  0  0  0
    4.1404    1.1656    3.0206 H   0  0  0  0  0  0  0  0  0  0  0  0
    4.2977    1.4095    1.2610 H   0  0  0  0  0  0  0  0  0  0  0  0
    5.1711   -0.8514    2.1837 H   0  0  0  0  0  0  0  0  0  0  0  0
    3.4838   -1.2842    2.5488 H   0  0  0  0  0  0  0  0  0  0  0  0
    2.9218   -0.8985    0.0692 H   0  0  0  0  0  0  0  0  0  0  0  0
    3.9263   -2.2969    0.4210 H   0  0  0  0  0  0  0  0  0  0  0  0
    5.6148    0.1253   -0.0708 H   0  0  0  0  0  0  0  0  0  0  0  0
    5.7463   -1.4970   -0.7443 H   0  0  0  0  0  0  0  0  0  0  0  0
    3.8625   -0.8760   -2.4039 H   0  0  0  0  0  0  0  0  0  0  0  0
    5.4238   -0.0524   -2.5825 H   0  0  0  0  0  0  0  0  0  0  0  0
    4.2698    1.8294   -1.0042 H   0  0  0  0  0  0  0  0  0  0  0  0
    4.1141    1.8173   -2.7743 H   0  0  0  0  0  0  0  0  0  0  0  0
    1.7938    1.0991   -2.7092 H   0  0  0  0  0  0  0  0  0  0  0  0
    0.9384    3.8450    0.4006 H   0  0  0  0  0  0  0  0  0  0  0  0
   -0.2385    6.0508    0.3773 H   0  0  0  0  0  0  0  0  0  0  0  0
   -2.7193    6.1513    0.0243 H   0  0  0  0  0  0  0  0  0  0  0  0
   -4.0210    4.0325   -0.3065 H   0  0  0  0  0  0  0  0  0  0  0  0
   -2.8457    1.8261   -0.2869 H   0  0  0  0  0  0  0  0  0  0  0  0
  1 12  1  1  0  0  0
  1  3  1  0  0  0  0
  2  1  1  0  0  0  0
  3  2  1  6  0  0  0
  3  4  1  0  0  0  0
  4  5  1  0  0  0  0
  4 18  1  0  0  0  0
  5 19  1  0  0  0  0
  6  5  1  0  0  0  0
  6 21  1  0  0  0  0
  6 22  1  0  0  0  0
  7 24  1  0  0  0  0
  7  6  1  0  0  0  0
  8 25  1  0  0  0  0
  8  7  1  0  0  0  0
  9 10  1  0  0  0  0
  9  8  1  0  0  0  0
 10 11  1  0  0  0  0
 10 29  1  0  0  0  0
 11  2  2  0  0  0  0
 12 13  1  0  0  0  0
 13 32  1  0  0  0  0
 14 13  2  0  0  0  0
 14 33  1  0  0  0  0
 15 14  1  0  0  0  0
 16 17  1  0  0  0  0
 16 15  2  0  0  0  0
 17 12  2  0  0  0  0
 20  5  1  0  0  0  0
 23  7  1  0  0  0  0
 26  8  1  0  0  0  0
 27  9  1  0  0  0  0
 28  9  1  0  0  0  0
 30 10  1  0  0  0  0
 31 11  1  0  0  0  0
 34 15  1  0  0  0  0
 35 16  1  0  0  0  0
 36 17  1  0  0  0  0
M  END
