1
 OpenBabel05122313063D

 41 40  0  0  0  0  0  0  0  0999 V2000
   -1.6577   -1.5884    0.3638 P   0  0  0  0  0  0  0  0  0  0  0  0
   -4.8149    1.5205    1.0174 F   0  0  0  0  0  0  0  0  0  0  0  0
   -5.3214    0.9154   -1.0103 F   0  0  0  0  0  0  0  0  0  0  0  0
   -4.4765    2.8937   -0.6430 F   0  0  0  0  0  0  0  0  0  0  0  0
   -3.3735    0.9677   -2.8046 F   0  0  0  0  0  0  0  0  0  0  0  0
   -2.1065    2.5752   -2.0407 F   0  0  0  0  0  0  0  0  0  0  0  0
   -1.3550    0.5312   -2.1286 F   0  0  0  0  0  0  0  0  0  0  0  0
   -2.2376    1.7191    0.5253 O   0  0  0  0  0  0  0  0  0  0  0  0
   -2.9716    1.0232   -0.4107 C   0  0  0  0  0  0  0  0  0  0  0  0
   -4.4178    1.6048   -0.2725 C   0  0  0  0  0  0  0  0  0  0  0  0
   -2.4506    1.2950   -1.8642 C   0  0  0  0  0  0  0  0  0  0  0  0
   -2.1803   -3.2016   -0.5653 C   0  0  0  0  0  0  0  0  0  0  0  0
   -1.5463   -4.4433    0.0860 C   0  0  0  0  0  0  0  0  0  0  0  0
   -1.7129   -5.3149   -0.5817 H   0  0  0  0  0  0  0  0  0  0  0  0
   -2.0190   -4.6831    1.0579 H   0  0  0  0  0  0  0  0  0  0  0  0
   -0.4577   -4.3556    0.2383 H   0  0  0  0  0  0  0  0  0  0  0  0
   -3.7071   -3.4283   -0.6174 C   0  0  0  0  0  0  0  0  0  0  0  0
   -3.8890   -4.4193   -1.0837 H   0  0  0  0  0  0  0  0  0  0  0  0
   -4.2381   -2.6857   -1.2416 H   0  0  0  0  0  0  0  0  0  0  0  0
   -4.1801   -3.4425    0.3806 H   0  0  0  0  0  0  0  0  0  0  0  0
   -1.6677   -3.0360   -2.0102 C   0  0  0  0  0  0  0  0  0  0  0  0
   -2.0013   -3.9054   -2.6154 H   0  0  0  0  0  0  0  0  0  0  0  0
   -0.5646   -2.9809   -2.0566 H   0  0  0  0  0  0  0  0  0  0  0  0
   -2.0651   -2.1189   -2.4903 H   0  0  0  0  0  0  0  0  0  0  0  0
   -1.9405   -1.7741    2.2506 C   0  0  0  0  0  0  0  0  0  0  0  0
   -3.2698   -2.4448    2.6253 C   0  0  0  0  0  0  0  0  0  0  0  0
   -3.3817   -2.4172    3.7298 H   0  0  0  0  0  0  0  0  0  0  0  0
   -3.3146   -3.5071    2.3187 H   0  0  0  0  0  0  0  0  0  0  0  0
   -4.1498   -1.9173    2.2042 H   0  0  0  0  0  0  0  0  0  0  0  0
   -0.7558   -2.5663    2.8360 C   0  0  0  0  0  0  0  0  0  0  0  0
   -0.8407   -2.5757    3.9431 H   0  0  0  0  0  0  0  0  0  0  0  0
    0.2043   -2.0831    2.5597 H   0  0  0  0  0  0  0  0  0  0  0  0
   -0.7240   -3.6161    2.4906 H   0  0  0  0  0  0  0  0  0  0  0  0
   -1.9027   -0.3525    2.8402 C   0  0  0  0  0  0  0  0  0  0  0  0
   -2.0204   -0.4274    3.9420 H   0  0  0  0  0  0  0  0  0  0  0  0
   -2.6988    0.3086    2.4507 H   0  0  0  0  0  0  0  0  0  0  0  0
   -0.9348    0.1403    2.6394 H   0  0  0  0  0  0  0  0  0  0  0  0
   -3.0894   -0.5069   -0.1937 C   0  0  0  0  0  0  0  0  0  0  0  0
   -3.4668   -0.9482   -1.1328 H   0  0  0  0  0  0  0  0  0  0  0  0
   -3.8793   -0.6849    0.5616 H   0  0  0  0  0  0  0  0  0  0  0  0
   -1.2488    1.4879    0.4533 H   0  0  0  0  0  0  0  0  0  0  0  0
  1 25  1  0  0  0  0
  3 10  1  0  0  0  0
  4 10  1  0  0  0  0
  5 11  1  0  0  0  0
  6 11  1  0  0  0  0
  7 11  1  0  0  0  0
  9 10  1  0  0  0  0
  9 38  1  0  0  0  0
  9  8  1  0  0  0  0
 10  2  1  0  0  0  0
 11  9  1  0  0  0  0
 12 13  1  0  0  0  0
 12  1  1  0  0  0  0
 13 16  1  0  0  0  0
 13 15  1  0  0  0  0
 14 13  1  0  0  0  0
 17 12  1  0  0  0  0
 17 20  1  0  0  0  0
 18 17  1  0  0  0  0
 19 17  1  0  0  0  0
 21 12  1  0  0  0  0
 22 21  1  0  0  0  0
 23 21  1  0  0  0  0
 24 21  1  0  0  0  0
 25 26  1  0  0  0  0
 25 30  1  0  0  0  0
 25 34  1  0  0  0  0
 26 27  1  0  0  0  0
 28 26  1  0  0  0  0
 29 26  1  0  0  0  0
 30 31  1  0  0  0  0
 32 30  1  0  0  0  0
 33 30  1  0  0  0  0
 34 35  1  0  0  0  0
 36 34  1  0  0  0  0
 37 34  1  0  0  0  0
 38  1  1  0  0  0  0
 38 40  1  0  0  0  0
 39 38  1  0  0  0  0
 41  8  1  0  0  0  0
M  END
