1
 OpenBabel05122313063D

 53 54  0  0  0  0  0  0  0  0999 V2000
    0.4498   -0.0089   -0.5131 P   0  0  0  0  0  0  0  0  0  0  0  0
    0.6239   -0.0771   -1.9411 H   0  0  0  0  0  0  0  0  0  0  0  0
    1.7300   -2.8786   -0.9974 Si  0  0  0  0  0  0  0  0  0  0  0  0
    2.0743   -1.3669    1.9031 Si  0  0  0  0  0  0  0  0  0  0  0  0
    1.2202    1.5380   -0.1800 N   0  0  0  0  0  0  0  0  0  0  0  0
    1.7078   -1.2379    0.0106 C   0  0  0  0  0  0  0  0  0  0  0  0
    2.6623   -0.8015   -0.3672 H   0  0  0  0  0  0  0  0  0  0  0  0
    1.6762   -2.4881   -2.8531 C   0  0  0  0  0  0  0  0  0  0  0  0
    1.9264   -3.4104   -3.4184 H   0  0  0  0  0  0  0  0  0  0  0  0
    2.4190   -1.7148   -3.1386 H   0  0  0  0  0  0  0  0  0  0  0  0
    0.6753   -2.1580   -3.1937 H   0  0  0  0  0  0  0  0  0  0  0  0
    3.4145   -3.6764   -0.6478 C   0  0  0  0  0  0  0  0  0  0  0  0
    3.5410   -3.9697    0.4129 H   0  0  0  0  0  0  0  0  0  0  0  0
    4.2424   -2.9865   -0.9118 H   0  0  0  0  0  0  0  0  0  0  0  0
    3.5278   -4.5916   -1.2649 H   0  0  0  0  0  0  0  0  0  0  0  0
    0.3451   -4.0976   -0.6073 C   0  0  0  0  0  0  0  0  0  0  0  0
   -0.6436   -3.7064   -0.9151 H   0  0  0  0  0  0  0  0  0  0  0  0
    0.2921   -4.3589    0.4660 H   0  0  0  0  0  0  0  0  0  0  0  0
    0.5262   -5.0306   -1.1807 H   0  0  0  0  0  0  0  0  0  0  0  0
    3.9361   -1.0614    2.0643 C   0  0  0  0  0  0  0  0  0  0  0  0
    4.2515   -1.0981    3.1274 H   0  0  0  0  0  0  0  0  0  0  0  0
    4.2024   -0.0624    1.6605 H   0  0  0  0  0  0  0  0  0  0  0  0
    4.5230   -1.8212    1.5096 H   0  0  0  0  0  0  0  0  0  0  0  0
    1.6424   -3.0507    2.6498 C   0  0  0  0  0  0  0  0  0  0  0  0
    2.1545   -3.8926    2.1443 H   0  0  0  0  0  0  0  0  0  0  0  0
    0.5525   -3.2434    2.6289 H   0  0  0  0  0  0  0  0  0  0  0  0
    1.9657   -3.0541    3.7117 H   0  0  0  0  0  0  0  0  0  0  0  0
    1.1602   -0.0439    2.8956 C   0  0  0  0  0  0  0  0  0  0  0  0
    1.3793   -0.1817    3.9746 H   0  0  0  0  0  0  0  0  0  0  0  0
    0.0624   -0.1086    2.7626 H   0  0  0  0  0  0  0  0  0  0  0  0
    1.4918    0.9710    2.6030 H   0  0  0  0  0  0  0  0  0  0  0  0
    2.6032    1.7532   -0.4401 C   0  0  0  0  0  0  0  0  0  0  0  0
    3.3383    2.5858    0.4354 C   0  0  0  0  0  0  0  0  0  0  0  0
    2.8156    3.0668    1.2750 H   0  0  0  0  0  0  0  0  0  0  0  0
    4.7082    2.7915    0.2360 C   0  0  0  0  0  0  0  0  0  0  0  0
    5.2638    3.4394    0.9310 H   0  0  0  0  0  0  0  0  0  0  0  0
    5.3769    2.1672   -0.8319 C   0  0  0  0  0  0  0  0  0  0  0  0
    6.4560    2.3217   -0.9787 H   0  0  0  0  0  0  0  0  0  0  0  0
    4.6509    1.3525   -1.7127 C   0  0  0  0  0  0  0  0  0  0  0  0
    5.1558    0.8721   -2.5648 H   0  0  0  0  0  0  0  0  0  0  0  0
    3.2735    1.1536   -1.5291 C   0  0  0  0  0  0  0  0  0  0  0  0
    2.7108    0.5381   -2.2457 H   0  0  0  0  0  0  0  0  0  0  0  0
    0.4176    2.7151   -0.0129 C   0  0  0  0  0  0  0  0  0  0  0  0
    0.3733    3.6751   -1.0456 C   0  0  0  0  0  0  0  0  0  0  0  0
    0.9598    3.5038   -1.9604 H   0  0  0  0  0  0  0  0  0  0  0  0
   -0.4171    4.8224   -0.9061 C   0  0  0  0  0  0  0  0  0  0  0  0
   -0.4537    5.5607   -1.7213 H   0  0  0  0  0  0  0  0  0  0  0  0
   -1.1790    5.0197    0.2583 C   0  0  0  0  0  0  0  0  0  0  0  0
   -1.8118    5.9140    0.3591 H   0  0  0  0  0  0  0  0  0  0  0  0
   -1.1246    4.0740    1.2929 C   0  0  0  0  0  0  0  0  0  0  0  0
   -1.7098    4.2204    2.2131 H   0  0  0  0  0  0  0  0  0  0  0  0
   -0.3169    2.9336    1.1660 C   0  0  0  0  0  0  0  0  0  0  0  0
   -0.2408    2.2083    1.9840 H   0  0  0  0  0  0  0  0  0  0  0  0
  1  5  1  0  0  0  0
  1  6  1  0  0  0  0
  2  1  1  0  0  0  0
  3 12  1  0  0  0  0
  3 16  1  0  0  0  0
  3  6  1  0  0  0  0
  4 20  1  0  0  0  0
  4 24  1  0  0  0  0
  4 28  1  0  0  0  0
  5 43  1  0  0  0  0
  6  4  1  0  0  0  0
  7  6  1  0  0  0  0
  8  3  1  0  0  0  0
  9  8  1  0  0  0  0
 10  8  1  0  0  0  0
 11  8  1  0  0  0  0
 12 13  1  0  0  0  0
 14 12  1  0  0  0  0
 15 12  1  0  0  0  0
 16 18  1  0  0  0  0
 17 16  1  0  0  0  0
 19 16  1  0  0  0  0
 20 21  1  0  0  0  0
 22 20  1  0  0  0  0
 23 20  1  0  0  0  0
 24 27  1  0  0  0  0
 25 24  1  0  0  0  0
 26 24  1  0  0  0  0
 28 29  1  0  0  0  0
 30 28  1  0  0  0  0
 31 28  1  0  0  0  0
 32  5  1  0  0  0  0
 32 33  1  0  0  0  0
 33 34  1  0  0  0  0
 35 33  2  0  0  0  0
 35 36  1  0  0  0  0
 37 35  1  0  0  0  0
 38 37  1  0  0  0  0
 39 41  1  0  0  0  0
 39 37  2  0  0  0  0
 40 39  1  0  0  0  0
 41 32  2  0  0  0  0
 42 41  1  0  0  0  0
 43 52  1  0  0  0  0
 44 46  1  0  0  0  0
 44 43  2  0  0  0  0
 45 44  1  0  0  0  0
 46 48  2  0  0  0  0
 47 46  1  0  0  0  0
 48 49  1  0  0  0  0
 48 50  1  0  0  0  0
 50 51  1  0  0  0  0
 52 50  2  0  0  0  0
 52 53  1  0  0  0  0
M  END
