1
 OpenBabel05122313063D

 42 41  0  0  0  0  0  0  0  0999 V2000
   -0.5184    0.3838   -0.5695 P   0  0  0  0  0  0  0  0  0  0  0  0
   -0.6852    0.3354   -2.0069 H   0  0  0  0  0  0  0  0  0  0  0  0
   -3.2525   -0.8174   -1.4043 Si  0  0  0  0  0  0  0  0  0  0  0  0
   -2.5925   -0.1972    1.7563 Si  0  0  0  0  0  0  0  0  0  0  0  0
   -1.9449   -0.6384   -0.0092 C   0  0  0  0  0  0  0  0  0  0  0  0
   -1.5177   -1.6592    0.1128 H   0  0  0  0  0  0  0  0  0  0  0  0
   -2.4928   -1.8582   -2.7914 C   0  0  0  0  0  0  0  0  0  0  0  0
   -3.2093   -1.9700   -3.6313 H   0  0  0  0  0  0  0  0  0  0  0  0
   -2.2432   -2.8747   -2.4227 H   0  0  0  0  0  0  0  0  0  0  0  0
   -1.5620   -1.4143   -3.1981 H   0  0  0  0  0  0  0  0  0  0  0  0
   -4.8080   -1.7114   -0.8014 C   0  0  0  0  0  0  0  0  0  0  0  0
   -5.5116   -1.8333   -1.6510 H   0  0  0  0  0  0  0  0  0  0  0  0
   -5.3383   -1.1595   -0.0006 H   0  0  0  0  0  0  0  0  0  0  0  0
   -4.5661   -2.7239   -0.4195 H   0  0  0  0  0  0  0  0  0  0  0  0
   -3.7339    0.8918   -2.0719 C   0  0  0  0  0  0  0  0  0  0  0  0
   -2.8609    1.4390   -2.4834 H   0  0  0  0  0  0  0  0  0  0  0  0
   -4.2101    1.5211   -1.2928 H   0  0  0  0  0  0  0  0  0  0  0  0
   -4.4657    0.7773   -2.8981 H   0  0  0  0  0  0  0  0  0  0  0  0
   -1.2431    0.4155    2.9262 C   0  0  0  0  0  0  0  0  0  0  0  0
   -1.7023    0.6262    3.9149 H   0  0  0  0  0  0  0  0  0  0  0  0
   -0.7784    1.3469    2.5525 H   0  0  0  0  0  0  0  0  0  0  0  0
   -0.4479   -0.3385    3.0815 H   0  0  0  0  0  0  0  0  0  0  0  0
   -3.2914   -1.8005    2.4812 C   0  0  0  0  0  0  0  0  0  0  0  0
   -2.4899   -2.5656    2.5460 H   0  0  0  0  0  0  0  0  0  0  0  0
   -4.1260   -2.2214    1.8881 H   0  0  0  0  0  0  0  0  0  0  0  0
   -3.6629   -1.6180    3.5108 H   0  0  0  0  0  0  0  0  0  0  0  0
   -3.9442    1.1311    1.6794 C   0  0  0  0  0  0  0  0  0  0  0  0
   -4.3478    1.2988    2.6995 H   0  0  0  0  0  0  0  0  0  0  0  0
   -4.7945    0.8495    1.0272 H   0  0  0  0  0  0  0  0  0  0  0  0
   -3.5348    2.0985    1.3249 H   0  0  0  0  0  0  0  0  0  0  0  0
   -0.1260    3.1315   -0.3091 C   0  0  0  0  0  0  0  0  0  0  0  0
    0.8877    2.7985   -0.0001 H   0  0  0  0  0  0  0  0  0  0  0  0
   -0.0570    3.5944   -1.7702 C   0  0  0  0  0  0  0  0  0  0  0  0
    0.2900    2.7795   -2.4365 H   0  0  0  0  0  0  0  0  0  0  0  0
    0.6459    4.4432   -1.8905 H   0  0  0  0  0  0  0  0  0  0  0  0
   -1.0562    3.9280   -2.1238 H   0  0  0  0  0  0  0  0  0  0  0  0
   -0.5692    4.2511    0.6352 C   0  0  0  0  0  0  0  0  0  0  0  0
   -1.6022    4.5833    0.3956 H   0  0  0  0  0  0  0  0  0  0  0  0
    0.0951    5.1331    0.5431 H   0  0  0  0  0  0  0  0  0  0  0  0
   -0.5529    3.9061    1.6873 H   0  0  0  0  0  0  0  0  0  0  0  0
   -1.0078    1.9697   -0.1195 N   0  0  0  0  0  0  0  0  0  0  0  0
   -1.9761    2.1744   -0.3987 H   0  0  0  0  0  0  0  0  0  0  0  0
  1 41  1  0  0  0  0
  1  5  1  0  0  0  0
  2  1  1  0  0  0  0
  3 11  1  0  0  0  0
  3  5  1  0  0  0  0
  4 23  1  0  0  0  0
  4 19  1  0  0  0  0
  5  6  1  0  0  0  0
  5  4  1  0  0  0  0
  7  9  1  0  0  0  0
  7  3  1  0  0  0  0
  8  7  1  0  0  0  0
 10  7  1  0  0  0  0
 11 14  1  0  0  0  0
 11 13  1  0  0  0  0
 12 11  1  0  0  0  0
 15  3  1  0  0  0  0
 15 17  1  0  0  0  0
 16 15  1  0  0  0  0
 18 15  1  0  0  0  0
 19 22  1  0  0  0  0
 19 20  1  0  0  0  0
 21 19  1  0  0  0  0
 23 24  1  0  0  0  0
 23 26  1  0  0  0  0
 25 23  1  0  0  0  0
 27  4  1  0  0  0  0
 27 28  1  0  0  0  0
 29 27  1  0  0  0  0
 30 27  1  0  0  0  0
 31 41  1  0  0  0  0
 31 32  1  0  0  0  0
 31 37  1  0  0  0  0
 33 31  1  0  0  0  0
 34 33  1  0  0  0  0
 35 33  1  0  0  0  0
 36 33  1  0  0  0  0
 37 40  1  0  0  0  0
 38 37  1  0  0  0  0
 39 37  1  0  0  0  0
 42 41  1  0  0  0  0
M  END
