1
 OpenBabel05122313063D

 43 43  0  0  0  0  0  0  0  0999 V2000
   -0.4570   -0.2790   -0.5688 P   0  0  0  0  0  0  0  0  0  0  0  0
   -0.7157   -0.3349   -1.9771 H   0  0  0  0  0  0  0  0  0  0  0  0
   -1.8141    1.3921    1.8100 Si  0  0  0  0  0  0  0  0  0  0  0  0
   -1.3882    2.6962   -1.1685 Si  0  0  0  0  0  0  0  0  0  0  0  0
   -1.2517   -1.7376   -0.0896 N   0  0  0  0  0  0  0  0  0  0  0  0
   -0.7826   -2.2376    0.6682 H   0  0  0  0  0  0  0  0  0  0  0  0
   -1.5657    1.1064   -0.0771 C   0  0  0  0  0  0  0  0  0  0  0  0
   -2.5763    0.7405   -0.3785 H   0  0  0  0  0  0  0  0  0  0  0  0
   -0.2264    2.4133   -2.6379 C   0  0  0  0  0  0  0  0  0  0  0  0
   -0.5467    1.5823   -3.2978 H   0  0  0  0  0  0  0  0  0  0  0  0
    0.8136    2.2126   -2.3125 H   0  0  0  0  0  0  0  0  0  0  0  0
   -0.2067    3.3367   -3.2535 H   0  0  0  0  0  0  0  0  0  0  0  0
   -0.7486    4.2132   -0.2402 C   0  0  0  0  0  0  0  0  0  0  0  0
   -0.7608    5.0750   -0.9398 H   0  0  0  0  0  0  0  0  0  0  0  0
    0.2946    4.0745    0.1037 H   0  0  0  0  0  0  0  0  0  0  0  0
   -1.3738    4.4835    0.6330 H   0  0  0  0  0  0  0  0  0  0  0  0
   -3.1288    3.0508   -1.8259 C   0  0  0  0  0  0  0  0  0  0  0  0
   -3.1302    3.9519   -2.4732 H   0  0  0  0  0  0  0  0  0  0  0  0
   -3.8455    3.2243   -0.9978 H   0  0  0  0  0  0  0  0  0  0  0  0
   -3.5079    2.1996   -2.4290 H   0  0  0  0  0  0  0  0  0  0  0  0
   -0.3476    2.1969    2.6850 C   0  0  0  0  0  0  0  0  0  0  0  0
   -0.0639    3.1725    2.2492 H   0  0  0  0  0  0  0  0  0  0  0  0
    0.5451    1.5435    2.6745 H   0  0  0  0  0  0  0  0  0  0  0  0
   -0.6228    2.3628    3.7476 H   0  0  0  0  0  0  0  0  0  0  0  0
   -3.3472    2.4981    1.9637 C   0  0  0  0  0  0  0  0  0  0  0  0
   -3.5910    2.6529    3.0351 H   0  0  0  0  0  0  0  0  0  0  0  0
   -4.2275    2.0220    1.4846 H   0  0  0  0  0  0  0  0  0  0  0  0
   -3.2064    3.4968    1.5049 H   0  0  0  0  0  0  0  0  0  0  0  0
   -2.2074   -0.2369    2.6914 C   0  0  0  0  0  0  0  0  0  0  0  0
   -1.3180   -0.8909    2.7801 H   0  0  0  0  0  0  0  0  0  0  0  0
   -3.0152   -0.8017    2.1843 H   0  0  0  0  0  0  0  0  0  0  0  0
   -2.5474   -0.0078    3.7233 H   0  0  0  0  0  0  0  0  0  0  0  0
   -2.5797   -2.1110   -0.3237 C   0  0  0  0  0  0  0  0  0  0  0  0
   -3.3451   -1.5470   -1.3716 C   0  0  0  0  0  0  0  0  0  0  0  0
   -2.8961   -0.8038   -2.0461 H   0  0  0  0  0  0  0  0  0  0  0  0
   -4.6719   -1.9522   -1.5764 C   0  0  0  0  0  0  0  0  0  0  0  0
   -5.2473   -1.5001   -2.3987 H   0  0  0  0  0  0  0  0  0  0  0  0
   -5.2638   -2.9238   -0.7557 C   0  0  0  0  0  0  0  0  0  0  0  0
   -6.3050   -3.2361   -0.9214 H   0  0  0  0  0  0  0  0  0  0  0  0
   -4.5040   -3.4945    0.2792 C   0  0  0  0  0  0  0  0  0  0  0  0
   -4.9477   -4.2618    0.9319 H   0  0  0  0  0  0  0  0  0  0  0  0
   -3.1817   -3.0931    0.4989 C   0  0  0  0  0  0  0  0  0  0  0  0
   -2.5962   -3.5397    1.3180 H   0  0  0  0  0  0  0  0  0  0  0  0
  1  5  1  0  0  0  0
  1  7  1  0  0  0  0
  2  1  1  0  0  0  0
  3 25  1  0  0  0  0
  3 21  1  0  0  0  0
  3 29  1  0  0  0  0
  4 13  1  0  0  0  0
  4  7  1  0  0  0  0
  5  6  1  0  0  0  0
  7  3  1  0  0  0  0
  8  7  1  0  0  0  0
  9 11  1  0  0  0  0
  9  4  1  0  0  0  0
 10  9  1  0  0  0  0
 12  9  1  0  0  0  0
 13 15  1  0  0  0  0
 13 16  1  0  0  0  0
 14 13  1  0  0  0  0
 17  4  1  0  0  0  0
 17 19  1  0  0  0  0
 18 17  1  0  0  0  0
 20 17  1  0  0  0  0
 21 24  1  0  0  0  0
 22 21  1  0  0  0  0
 23 21  1  0  0  0  0
 25 26  1  0  0  0  0
 27 25  1  0  0  0  0
 28 25  1  0  0  0  0
 29 30  1  0  0  0  0
 29 32  1  0  0  0  0
 31 29  1  0  0  0  0
 33  5  1  0  0  0  0
 33 42  1  0  0  0  0
 34 33  2  0  0  0  0
 35 34  1  0  0  0  0
 36 34  1  0  0  0  0
 36 38  2  0  0  0  0
 37 36  1  0  0  0  0
 38 40  1  0  0  0  0
 39 38  1  0  0  0  0
 40 42  2  0  0  0  0
 40 41  1  0  0  0  0
 42 43  1  0  0  0  0
M  END
