1
 OpenBabel05122313063D

 24 25  0  0  0  0  0  0  0  0999 V2000
    1.6354    0.2293    0.4772 P   0  0  0  0  0  0  0  0  0  0  0  0
    2.0070    0.2601    2.6016 Cl  0  0  0  0  0  0  0  0  0  0  0  0
    1.8715    2.0280    0.1025 C   0  0  0  0  0  0  0  0  0  0  0  0
    2.5033    2.9290    0.9808 C   0  0  0  0  0  0  0  0  0  0  0  0
    2.7649    4.2430    0.5667 C   0  0  0  0  0  0  0  0  0  0  0  0
    2.4040    4.6635   -0.7226 C   0  0  0  0  0  0  0  0  0  0  0  0
    1.7715    3.7653   -1.5958 C   0  0  0  0  0  0  0  0  0  0  0  0
    1.5018    2.4504   -1.1911 C   0  0  0  0  0  0  0  0  0  0  0  0
    3.2733   -0.3735   -0.1459 C   0  0  0  0  0  0  0  0  0  0  0  0
    3.3032   -0.7471   -1.5057 C   0  0  0  0  0  0  0  0  0  0  0  0
    4.5064   -1.1806   -2.0830 C   0  0  0  0  0  0  0  0  0  0  0  0
    5.6774   -1.2523   -1.3111 C   0  0  0  0  0  0  0  0  0  0  0  0
    5.6461   -0.8727    0.0405 C   0  0  0  0  0  0  0  0  0  0  0  0
    4.4501   -0.4264    0.6228 C   0  0  0  0  0  0  0  0  0  0  0  0
    2.7852    2.6010    1.9911 H   0  0  0  0  0  0  0  0  0  0  0  0
    3.2559    4.9429    1.2603 H   0  0  0  0  0  0  0  0  0  0  0  0
    2.6094    5.6959   -1.0447 H   0  0  0  0  0  0  0  0  0  0  0  0
    1.4705    4.0908   -2.6029 H   0  0  0  0  0  0  0  0  0  0  0  0
    0.9938    1.7489   -1.8730 H   0  0  0  0  0  0  0  0  0  0  0  0
    2.3785   -0.6978   -2.1052 H   0  0  0  0  0  0  0  0  0  0  0  0
    4.5243   -1.4705   -3.1448 H   0  0  0  0  0  0  0  0  0  0  0  0
    6.6176   -1.6024   -1.7641 H   0  0  0  0  0  0  0  0  0  0  0  0
    6.5613   -0.9251    0.6501 H   0  0  0  0  0  0  0  0  0  0  0  0
    4.4217   -0.1322    1.6821 H   0  0  0  0  0  0  0  0  0  0  0  0
  1  2  1  0  0  0  0
  3  1  1  0  0  0  0
  3  4  1  0  0  0  0
  4 15  1  0  0  0  0
  5  4  2  0  0  0  0
  5 16  1  0  0  0  0
  6  5  1  0  0  0  0
  7  8  1  0  0  0  0
  7  6  2  0  0  0  0
  8  3  2  0  0  0  0
  9  1  1  0  0  0  0
  9 14  1  0  0  0  0
 10  9  2  0  0  0  0
 11 10  1  0  0  0  0
 11 12  2  0  0  0  0
 12 13  1  0  0  0  0
 13 14  2  0  0  0  0
 13 23  1  0  0  0  0
 14 24  1  0  0  0  0
 17  6  1  0  0  0  0
 18  7  1  0  0  0  0
 19  8  1  0  0  0  0
 20 10  1  0  0  0  0
 21 11  1  0  0  0  0
 22 12  1  0  0  0  0
M  END
