1
 OpenBabel05122313063D

 46 49  0  0  1  0  0  0  0  0999 V2000
   -1.2981   -0.7706    0.3961 P   0  0  1  0  0  0  0  0  0  0  0  0
   -2.5477   -0.9200   -1.0552 C   0  0  2  0  0  0  0  0  0  0  0  0
   -3.0230    0.4049   -1.3764 O   0  0  0  0  0  0  0  0  0  0  0  0
   -3.7465   -1.7590   -0.5958 C   0  0  0  0  0  0  0  0  0  0  0  0
   -4.4364   -1.8762   -1.4572 H   0  0  0  0  0  0  0  0  0  0  0  0
   -3.4395   -2.7720   -0.2749 H   0  0  0  0  0  0  0  0  0  0  0  0
   -3.6931   -0.8497    1.6900 O   0  0  0  0  0  0  0  0  0  0  0  0
   -4.5087   -1.0328    0.5267 C   0  0  1  0  0  0  0  0  0  0  0  0
   -4.9388    0.2188   -0.0028 O   0  0  0  0  0  0  0  0  0  0  0  0
   -2.5730    0.0467    1.5497 C   0  0  2  0  0  0  0  0  0  0  0  0
   -3.0203    1.3519    0.8769 C   0  0  0  0  0  0  0  0  0  0  0  0
   -3.6660    1.9121    1.5847 H   0  0  0  0  0  0  0  0  0  0  0  0
   -2.1399    1.9779    0.6284 H   0  0  0  0  0  0  0  0  0  0  0  0
   -3.8390    1.0462   -0.3843 C   0  0  1  0  0  0  0  0  0  0  0  0
   -1.8914   -1.4673   -2.3107 C   0  0  0  0  0  0  0  0  0  0  0  0
   -2.6322   -1.4759   -3.1362 H   0  0  0  0  0  0  0  0  0  0  0  0
   -1.5240   -2.4978   -2.1434 H   0  0  0  0  0  0  0  0  0  0  0  0
   -1.0294   -0.8437   -2.6104 H   0  0  0  0  0  0  0  0  0  0  0  0
   -5.7457   -1.7745    0.9939 C   0  0  0  0  0  0  0  0  0  0  0  0
   -5.4589   -2.7489    1.4320 H   0  0  0  0  0  0  0  0  0  0  0  0
   -6.4344   -1.9388    0.1445 H   0  0  0  0  0  0  0  0  0  0  0  0
   -6.2564   -1.1677    1.7648 H   0  0  0  0  0  0  0  0  0  0  0  0
   -2.0204    0.2938    2.9430 C   0  0  0  0  0  0  0  0  0  0  0  0
   -2.8024    0.7865    3.5561 H   0  0  0  0  0  0  0  0  0  0  0  0
   -1.1213    0.9363    2.8910 H   0  0  0  0  0  0  0  0  0  0  0  0
   -1.7294   -0.6482    3.4443 H   0  0  0  0  0  0  0  0  0  0  0  0
   -4.4403    2.2732   -1.0424 C   0  0  0  0  0  0  0  0  0  0  0  0
   -3.6530    3.0029   -1.3039 H   0  0  0  0  0  0  0  0  0  0  0  0
   -5.1585    2.7484   -0.3489 H   0  0  0  0  0  0  0  0  0  0  0  0
   -4.9729    1.9632   -1.9608 H   0  0  0  0  0  0  0  0  0  0  0  0
   -1.1050   -2.5008    1.1966 C   0  0  0  0  0  0  0  0  0  0  0  0
   -1.1682   -2.2831    2.2801 H   0  0  0  0  0  0  0  0  0  0  0  0
   -1.9815   -3.1236    0.9433 H   0  0  0  0  0  0  0  0  0  0  0  0
    0.1266   -3.1681    0.9293 N   0  0  0  0  0  0  0  0  0  0  0  0
    0.9288   -2.6791    1.3601 H   0  0  0  0  0  0  0  0  0  0  0  0
    0.4005   -3.9082   -0.2054 C   0  0  0  0  0  0  0  0  0  0  0  0
   -0.6072   -4.5208   -0.9941 C   0  0  0  0  0  0  0  0  0  0  0  0
   -1.6654   -4.4196   -0.7129 H   0  0  0  0  0  0  0  0  0  0  0  0
   -0.2668   -5.2862   -2.1192 C   0  0  0  0  0  0  0  0  0  0  0  0
   -1.0709   -5.7510   -2.7110 H   0  0  0  0  0  0  0  0  0  0  0  0
    1.0731   -5.4683   -2.4936 C   0  0  0  0  0  0  0  0  0  0  0  0
    1.3316   -6.0666   -3.3792 H   0  0  0  0  0  0  0  0  0  0  0  0
    2.0787   -4.8780   -1.7063 C   0  0  0  0  0  0  0  0  0  0  0  0
    3.1384   -5.0160   -1.9744 H   0  0  0  0  0  0  0  0  0  0  0  0
    1.7551   -4.1116   -0.5836 C   0  0  0  0  0  0  0  0  0  0  0  0
    2.5468   -3.6520    0.0277 H   0  0  0  0  0  0  0  0  0  0  0  0
  1 31  1  1  0  0  0
  1 10  1  0  0  0  0
  2 15  1  6  0  0  0
  2  4  1  0  0  0  0
  2  1  1  0  0  0  0
  3  2  1  0  0  0  0
  3 14  1  0  0  0  0
  4  6  1  0  0  0  0
  4  8  1  0  0  0  0
  5  4  1  0  0  0  0
  8 19  1  1  0  0  0
  8  7  1  0  0  0  0
  9  8  1  0  0  0  0
 10  7  1  0  0  0  0
 10 23  1  1  0  0  0
 11 10  1  0  0  0  0
 11 12  1  0  0  0  0
 13 11  1  0  0  0  0
 14 27  1  6  0  0  0
 14  9  1  0  0  0  0
 14 11  1  0  0  0  0
 15 17  1  0  0  0  0
 16 15  1  0  0  0  0
 18 15  1  0  0  0  0
 19 20  1  0  0  0  0
 19 22  1  0  0  0  0
 21 19  1  0  0  0  0
 23 26  1  0  0  0  0
 23 24  1  0  0  0  0
 25 23  1  0  0  0  0
 27 29  1  0  0  0  0
 28 27  1  0  0  0  0
 30 27  1  0  0  0  0
 31 32  1  0  0  0  0
 33 31  1  0  0  0  0
 34 31  1  0  0  0  0
 34 35  1  0  0  0  0
 36 34  1  0  0  0  0
 37 38  1  0  0  0  0
 37 36  2  0  0  0  0
 39 37  1  0  0  0  0
 40 39  1  0  0  0  0
 41 39  2  0  0  0  0
 41 43  1  0  0  0  0
 42 41  1  0  0  0  0
 43 45  2  0  0  0  0
 44 43  1  0  0  0  0
 45 36  1  0  0  0  0
 45 46  1  0  0  0  0
M  END
