1
 OpenBabel05122313063D

  4  3  0  0  0  0  0  0  0  0999 V2000
   -2.1146    0.0005   -0.0006 P   0  0  0  0  0  0  0  0  0  0  0  0
   -2.8155   -0.9743    0.7788 H   0  0  0  0  0  0  0  0  0  0  0  0
   -2.8149    1.1633    0.4539 H   0  0  0  0  0  0  0  0  0  0  0  0
   -2.8149   -0.1869   -1.2348 H   0  0  0  0  0  0  0  0  0  0  0  0
  1  3  1  0  0  0  0
  1  2  1  0  0  0  0
  4  1  1  0  0  0  0
M  END
