3
 OpenBabel05122313063D

 52 58  0  0  1  0  0  0  0  0999 V2000
   -5.4643    1.7385   -0.6975 S   0  0  0  0  0  0  0  0  0  0  0  0
   -5.4645   -1.7377   -0.6978 S   0  0  0  0  0  0  0  0  0  0  0  0
    0.8441   -0.0001    0.2588 P   0  0  2  0  0  0  0  0  0  0  0  0
   -0.4009    1.3227    0.2074 C   0  0  1  0  0  3  0  0  0  0  0  0
   -1.6493    0.7518    0.0003 C   0  0  0  0  0  0  0  0  0  0  0  0
   -1.6494   -0.7516    0.0004 C   0  0  0  0  0  0  0  0  0  0  0  0
   -0.4012   -1.3227    0.2076 C   0  0  2  0  0  3  0  0  0  0  0  0
   -4.4653    3.1610   -0.6423 C   0  0  0  0  0  0  0  0  0  0  0  0
   -4.9214    4.1463   -0.7953 H   0  0  0  0  0  0  0  0  0  0  0  0
   -3.1423    2.8660   -0.4015 C   0  0  0  0  0  0  0  0  0  0  0  0
   -2.3628    3.6341   -0.3470 H   0  0  0  0  0  0  0  0  0  0  0  0
   -2.9021    1.4577   -0.2413 C   0  0  0  0  0  0  0  0  0  0  0  0
   -4.0912    0.7155   -0.3965 C   0  0  0  0  0  0  0  0  0  0  0  0
   -4.0913   -0.7149   -0.3966 C   0  0  0  0  0  0  0  0  0  0  0  0
   -2.9023   -1.4573   -0.2413 C   0  0  0  0  0  0  0  0  0  0  0  0
   -3.1427   -2.8656   -0.4018 C   0  0  0  0  0  0  0  0  0  0  0  0
   -2.3633   -3.6338   -0.3473 H   0  0  0  0  0  0  0  0  0  0  0  0
   -4.4658   -3.1603   -0.6427 C   0  0  0  0  0  0  0  0  0  0  0  0
   -4.9219   -4.1456   -0.7959 H   0  0  0  0  0  0  0  0  0  0  0  0
   -0.0024    2.7117    0.4692 C   0  0  0  0  0  0  0  0  0  0  0  0
   -0.6214    3.4431    1.5136 C   0  0  0  0  0  0  0  0  0  0  0  0
   -1.4296    2.9697    2.0910 H   0  0  0  0  0  0  0  0  0  0  0  0
   -0.2027    4.7429    1.8219 C   0  0  0  0  0  0  0  0  0  0  0  0
   -0.6926    5.2926    2.6400 H   0  0  0  0  0  0  0  0  0  0  0  0
    0.8476    5.3381    1.1024 C   0  0  0  0  0  0  0  0  0  0  0  0
    1.1768    6.3592    1.3473 H   0  0  0  0  0  0  0  0  0  0  0  0
    1.4801    4.6190    0.0761 C   0  0  0  0  0  0  0  0  0  0  0  0
    2.3058    5.0744   -0.4913 H   0  0  0  0  0  0  0  0  0  0  0  0
    1.0644    3.3176   -0.2370 C   0  0  0  0  0  0  0  0  0  0  0  0
    1.5584    2.7594   -1.0479 H   0  0  0  0  0  0  0  0  0  0  0  0
   -0.0030   -2.7118    0.4696 C   0  0  0  0  0  0  0  0  0  0  0  0
    1.0640   -3.3180   -0.2361 C   0  0  0  0  0  0  0  0  0  0  0  0
    1.5584   -2.7599   -1.0469 H   0  0  0  0  0  0  0  0  0  0  0  0
    1.4793   -4.6194    0.0773 C   0  0  0  0  0  0  0  0  0  0  0  0
    2.3051   -5.0749   -0.4897 H   0  0  0  0  0  0  0  0  0  0  0  0
    0.8463   -5.3383    1.1034 C   0  0  0  0  0  0  0  0  0  0  0  0
    1.1752   -6.3594    1.3485 H   0  0  0  0  0  0  0  0  0  0  0  0
   -0.2042   -4.7428    1.8224 C   0  0  0  0  0  0  0  0  0  0  0  0
   -0.6945   -5.2924    2.6405 H   0  0  0  0  0  0  0  0  0  0  0  0
   -0.6225   -3.4430    1.5139 C   0  0  0  0  0  0  0  0  0  0  0  0
   -1.4309   -2.9694    2.0910 H   0  0  0  0  0  0  0  0  0  0  0  0
    1.5315    0.0001    1.9518 C   0  0  0  0  0  0  0  0  0  0  0  0
    2.9235    0.0003    2.1538 C   0  0  0  0  0  0  0  0  0  0  0  0
    3.5985    0.0002    1.2835 H   0  0  0  0  0  0  0  0  0  0  0  0
    3.4358    0.0005    3.4611 C   0  0  0  0  0  0  0  0  0  0  0  0
    4.5247    0.0007    3.6191 H   0  0  0  0  0  0  0  0  0  0  0  0
    2.5628    0.0006    4.5588 C   0  0  0  0  0  0  0  0  0  0  0  0
    2.9669    0.0008    5.5825 H   0  0  0  0  0  0  0  0  0  0  0  0
    1.1711    0.0004    4.3551 C   0  0  0  0  0  0  0  0  0  0  0  0
    0.4870    0.0005    5.2171 H   0  0  0  0  0  0  0  0  0  0  0  0
    0.6524    0.0002    3.0547 C   0  0  0  0  0  0  0  0  0  0  0  0
   -0.4363   -0.0000    2.8873 H   0  0  0  0  0  0  0  0  0  0  0  0
  1  8  1  0  0  0  0
  1 13  1  0  0  0  0
  2 18  1  0  0  0  0
  2 14  1  0  0  0  0
  3 42  1  1  0  0  0
  4  3  1  0  0  0  0
  4 20  1  1  0  0  0
  5  6  1  0  0  0  0
  5  4  1  0  0  0  0
  6  7  1  0  0  0  0
  7  3  1  0  0  0  0
  7 31  1  1  0  0  0
  8 10  2  0  0  0  0
  9  8  1  0  0  0  0
 10 11  1  0  0  0  0
 10 12  1  0  0  0  0
 12  5  2  0  0  0  0
 13 12  1  0  0  0  0
 14 13  2  0  0  0  0
 14 15  1  0  0  0  0
 15  6  2  0  0  0  0
 16 17  1  0  0  0  0
 16 15  1  0  0  0  0
 18 16  2  0  0  0  0
 19 18  1  0  0  0  0
 20 21  1  0  0  0  0
 21 23  2  0  0  0  0
 21 22  1  0  0  0  0
 23 24  1  0  0  0  0
 25 26  1  0  0  0  0
 25 23  1  0  0  0  0
 27 25  2  0  0  0  0
 28 27  1  0  0  0  0
 29 27  1  0  0  0  0
 29 20  2  0  0  0  0
 30 29  1  0  0  0  0
 31 40  1  0  0  0  0
 32 34  1  0  0  0  0
 32 31  2  0  0  0  0
 33 32  1  0  0  0  0
 34 36  2  0  0  0  0
 35 34  1  0  0  0  0
 36 37  1  0  0  0  0
 36 38  1  0  0  0  0
 38 39  1  0  0  0  0
 40 38  2  0  0  0  0
 40 41  1  0  0  0  0
 42 43  2  0  0  0  0
 42 51  1  0  0  0  0
 43 45  1  0  0  0  0
 44 43  1  0  0  0  0
 45 46  1  0  0  0  0
 45 47  2  0  0  0  0
 47 48  1  0  0  0  0
 49 47  1  0  0  0  0
 49 50  1  0  0  0  0
 51 49  2  0  0  0  0
 52 51  1  0  0  0  0
M  END
