1
 OpenBabel05122313063D

 36 36  0  0  1  0  0  0  0  0999 V2000
   -0.8730   -0.5877   -0.0615 P   0  0  2  0  0  0  0  0  0  0  0  0
   -2.9313    0.2501    1.4243 O   0  0  0  0  0  0  0  0  0  0  0  0
   -1.3125   -1.4099    1.4130 N   0  0  0  0  0  0  0  0  0  0  0  0
   -2.1488    0.8104    0.3461 C   0  0  2  0  0  0  0  0  0  0  0  0
   -1.4468    1.5389    0.8134 H   0  0  0  0  0  0  0  0  0  0  0  0
   -2.3358   -0.8531    1.9647 C   0  0  0  0  0  0  0  0  0  0  0  0
   -3.0542    1.6181   -0.6079 C   0  0  0  0  0  0  0  0  0  0  0  0
   -3.6635    2.7703    0.2247 C   0  0  0  0  0  0  0  0  0  0  0  0
   -4.2894    2.3791    1.0500 H   0  0  0  0  0  0  0  0  0  0  0  0
   -4.2970    3.4130   -0.4193 H   0  0  0  0  0  0  0  0  0  0  0  0
   -2.8702    3.4079    0.6659 H   0  0  0  0  0  0  0  0  0  0  0  0
   -4.2036    0.7826   -1.1932 C   0  0  0  0  0  0  0  0  0  0  0  0
   -3.8443    0.0300   -1.9192 H   0  0  0  0  0  0  0  0  0  0  0  0
   -4.9118    1.4450   -1.7300 H   0  0  0  0  0  0  0  0  0  0  0  0
   -4.7653    0.2605   -0.3937 H   0  0  0  0  0  0  0  0  0  0  0  0
   -2.1932    2.2189   -1.7319 C   0  0  0  0  0  0  0  0  0  0  0  0
   -1.4317    2.9167   -1.3351 H   0  0  0  0  0  0  0  0  0  0  0  0
   -2.8355    2.7891   -2.4328 H   0  0  0  0  0  0  0  0  0  0  0  0
   -1.6651    1.4396   -2.3156 H   0  0  0  0  0  0  0  0  0  0  0  0
   -2.9968   -1.3269    3.2178 C   0  0  0  0  0  0  0  0  0  0  0  0
   -2.8752   -0.5669    4.0163 H   0  0  0  0  0  0  0  0  0  0  0  0
   -2.5447   -2.2791    3.5423 H   0  0  0  0  0  0  0  0  0  0  0  0
   -4.0845   -1.4549    3.0494 H   0  0  0  0  0  0  0  0  0  0  0  0
   -1.4041   -1.9093   -1.3323 C   0  0  0  0  0  0  0  0  0  0  0  0
   -2.7770   -2.5026   -0.9820 C   0  0  0  0  0  0  0  0  0  0  0  0
   -2.7475   -3.0133   -0.0006 H   0  0  0  0  0  0  0  0  0  0  0  0
   -3.0531   -3.2565   -1.7492 H   0  0  0  0  0  0  0  0  0  0  0  0
   -3.5788   -1.7432   -0.9545 H   0  0  0  0  0  0  0  0  0  0  0  0
   -1.3804   -1.3156   -2.7480 C   0  0  0  0  0  0  0  0  0  0  0  0
   -2.2072   -0.6007   -2.9207 H   0  0  0  0  0  0  0  0  0  0  0  0
   -1.4895   -2.1341   -3.4902 H   0  0  0  0  0  0  0  0  0  0  0  0
   -0.4244   -0.7993   -2.9645 H   0  0  0  0  0  0  0  0  0  0  0  0
   -0.3408   -3.0201   -1.2155 C   0  0  0  0  0  0  0  0  0  0  0  0
    0.6606   -2.6745   -1.5342 H   0  0  0  0  0  0  0  0  0  0  0  0
   -0.6339   -3.8624   -1.8772 H   0  0  0  0  0  0  0  0  0  0  0  0
   -0.2669   -3.4063   -0.1802 H   0  0  0  0  0  0  0  0  0  0  0  0
  1 24  1  6  0  0  0
  1  4  1  0  0  0  0
  1  3  1  0  0  0  0
  2  6  1  0  0  0  0
  3  6  2  0  0  0  0
  4  5  1  1  0  0  0
  4  2  1  0  0  0  0
  6 20  1  0  0  0  0
  7  8  1  0  0  0  0
  7  4  1  0  0  0  0
  8 11  1  0  0  0  0
  8  9  1  0  0  0  0
 10  8  1  0  0  0  0
 12  7  1  0  0  0  0
 12 15  1  0  0  0  0
 13 12  1  0  0  0  0
 14 12  1  0  0  0  0
 16 17  1  0  0  0  0
 16  7  1  0  0  0  0
 18 16  1  0  0  0  0
 19 16  1  0  0  0  0
 20 22  1  0  0  0  0
 20 21  1  0  0  0  0
 23 20  1  0  0  0  0
 24 33  1  0  0  0  0
 24 25  1  0  0  0  0
 25 28  1  0  0  0  0
 25 26  1  0  0  0  0
 27 25  1  0  0  0  0
 29 24  1  0  0  0  0
 30 29  1  0  0  0  0
 31 29  1  0  0  0  0
 32 29  1  0  0  0  0
 33 36  1  0  0  0  0
 34 33  1  0  0  0  0
 35 33  1  0  0  0  0
M  END
