1
 OpenBabel05122313063D

 40 41  0  0  0  0  0  0  0  0999 V2000
   -0.4751   -0.0717   -0.1720 P   0  0  0  0  0  0  0  0  0  0  0  0
   -2.1146   -1.2058   -2.0857 F   0  0  0  0  0  0  0  0  0  0  0  0
   -0.0464   -0.8387   -2.7758 F   0  0  0  0  0  0  0  0  0  0  0  0
    0.8227   -2.8544   -1.0314 F   0  0  0  0  0  0  0  0  0  0  0  0
   -1.2602   -3.2725   -0.5239 F   0  0  0  0  0  0  0  0  0  0  0  0
   -0.5907   -3.4282   -2.5925 F   0  0  0  0  0  0  0  0  0  0  0  0
   -1.5111    1.2307   -0.6436 N   0  0  0  0  0  0  0  0  0  0  0  0
   -1.4186   -0.7733    1.0552 N   0  0  0  0  0  0  0  0  0  0  0  0
   -0.8024   -1.2359   -1.7042 C   0  0  0  0  0  0  0  0  0  0  0  0
   -0.4494   -2.7311   -1.4553 C   0  0  0  0  0  0  0  0  0  0  0  0
   -1.7015    2.2566    0.3940 C   0  0  0  0  0  0  0  0  0  0  0  0
   -0.8662    2.9996    0.3739 H   0  0  0  0  0  0  0  0  0  0  0  0
   -1.6758    1.7657    1.3864 H   0  0  0  0  0  0  0  0  0  0  0  0
   -3.0339    2.9798    0.1810 C   0  0  0  0  0  0  0  0  0  0  0  0
   -3.1494    3.7665    0.9555 H   0  0  0  0  0  0  0  0  0  0  0  0
   -3.8631    2.2534    0.3261 H   0  0  0  0  0  0  0  0  0  0  0  0
   -3.1077    3.5806   -1.2275 C   0  0  0  0  0  0  0  0  0  0  0  0
   -4.0992    4.0457   -1.4055 H   0  0  0  0  0  0  0  0  0  0  0  0
   -2.3560    4.3972   -1.3134 H   0  0  0  0  0  0  0  0  0  0  0  0
   -2.8101    2.5120   -2.2851 C   0  0  0  0  0  0  0  0  0  0  0  0
   -2.7690    2.9604   -3.2995 H   0  0  0  0  0  0  0  0  0  0  0  0
   -3.6202    1.7512   -2.2952 H   0  0  0  0  0  0  0  0  0  0  0  0
   -1.4828    1.8020   -1.9973 C   0  0  0  0  0  0  0  0  0  0  0  0
   -1.3116    1.0085   -2.7431 H   0  0  0  0  0  0  0  0  0  0  0  0
   -0.6428    2.5305   -2.1004 H   0  0  0  0  0  0  0  0  0  0  0  0
   -2.8682   -0.9730    0.9021 C   0  0  0  0  0  0  0  0  0  0  0  0
   -3.0688   -2.0475    0.6815 H   0  0  0  0  0  0  0  0  0  0  0  0
   -3.2083   -0.3822    0.0317 H   0  0  0  0  0  0  0  0  0  0  0  0
   -3.6153   -0.5587    2.1739 C   0  0  0  0  0  0  0  0  0  0  0  0
   -4.6957   -0.7784    2.0445 H   0  0  0  0  0  0  0  0  0  0  0  0
   -3.5249    0.5414    2.3074 H   0  0  0  0  0  0  0  0  0  0  0  0
   -3.0530   -1.2770    3.4057 C   0  0  0  0  0  0  0  0  0  0  0  0
   -3.2635   -2.3669    3.3191 H   0  0  0  0  0  0  0  0  0  0  0  0
   -3.5611   -0.9311    4.3294 H   0  0  0  0  0  0  0  0  0  0  0  0
   -1.5382   -1.0640    3.5055 C   0  0  0  0  0  0  0  0  0  0  0  0
   -1.3160    0.0055    3.7108 H   0  0  0  0  0  0  0  0  0  0  0  0
   -1.1094   -1.6495    4.3452 H   0  0  0  0  0  0  0  0  0  0  0  0
   -0.8401   -1.4713    2.2049 C   0  0  0  0  0  0  0  0  0  0  0  0
    0.2392   -1.2408    2.2521 H   0  0  0  0  0  0  0  0  0  0  0  0
   -0.9304   -2.5738    2.0550 H   0  0  0  0  0  0  0  0  0  0  0  0
  1  8  1  0  0  0  0
  2  9  1  0  0  0  0
  3  9  1  0  0  0  0
  6 10  1  0  0  0  0
  7  1  1  0  0  0  0
  7 11  1  0  0  0  0
  8 38  1  0  0  0  0
  9 10  1  0  0  0  0
  9  1  1  0  0  0  0
 10  4  1  0  0  0  0
 10  5  1  0  0  0  0
 11 13  1  0  0  0  0
 12 11  1  0  0  0  0
 14 16  1  0  0  0  0
 14 11  1  0  0  0  0
 14 15  1  0  0  0  0
 17 14  1  0  0  0  0
 18 17  1  0  0  0  0
 19 17  1  0  0  0  0
 20 23  1  0  0  0  0
 20 17  1  0  0  0  0
 21 20  1  0  0  0  0
 22 20  1  0  0  0  0
 23  7  1  0  0  0  0
 24 23  1  0  0  0  0
 25 23  1  0  0  0  0
 26  8  1  0  0  0  0
 26 29  1  0  0  0  0
 27 26  1  0  0  0  0
 28 26  1  0  0  0  0
 29 31  1  0  0  0  0
 29 32  1  0  0  0  0
 30 29  1  0  0  0  0
 32 35  1  0  0  0  0
 32 34  1  0  0  0  0
 33 32  1  0  0  0  0
 35 36  1  0  0  0  0
 35 37  1  0  0  0  0
 38 39  1  0  0  0  0
 38 35  1  0  0  0  0
 40 38  1  0  0  0  0
M  END
