1
q = 0.0, confidence = 0.986

 67 72  0  0  1  0  0  0  0  0999 V2000
    0.1853    0.0652   -0.0598 P   0  0  1  0  0  0  0  0  0  0  0  0
   -1.3593    2.2458    0.6989 N   0  0  0  0  0  0  0  0  0  0  0  0
   -1.1543    0.6802    2.2961 N   0  0  0  0  0  0  0  0  0  0  0  0
   -0.9810   -1.7903    1.6472 N   0  0  0  0  0  0  0  0  0  0  0  0
   -1.0310   -2.3905   -0.5161 N   0  0  0  0  0  0  0  0  0  0  0  0
   -1.2606   -0.6048   -2.3364 N   0  0  0  0  0  0  0  0  0  0  0  0
   -1.4151    1.5628   -1.7683 N   0  0  0  0  0  0  0  0  0  0  0  0
   -0.7961    1.0743    1.0571 C   0  0  1  0  0  3  0  0  0  0  0  0
   -2.0579    2.6741    1.8117 C   0  0  0  0  0  0  0  0  0  0  0  0
   -2.6026    3.6217    1.8209 H   0  0  0  0  0  0  0  0  0  0  0  0
   -1.9316    1.7062    2.7984 C   0  0  0  0  0  0  0  0  0  0  0  0
   -2.3484    1.6727    3.8085 H   0  0  0  0  0  0  0  0  0  0  0  0
   -0.6163   -1.4794    0.3870 C   0  0  1  0  0  3  0  0  0  0  0  0
   -1.5961   -3.0246    1.5587 C   0  0  0  0  0  0  0  0  0  0  0  0
   -1.9776   -3.5430    2.4423 H   0  0  0  0  0  0  0  0  0  0  0  0
   -1.6270   -3.3956    0.2216 C   0  0  0  0  0  0  0  0  0  0  0  0
   -2.0398   -4.2905   -0.2513 H   0  0  0  0  0  0  0  0  0  0  0  0
   -0.8535    0.3675   -1.4949 C   0  0  1  0  0  3  0  0  0  0  0  0
   -2.0719    0.0246   -3.2611 C   0  0  0  0  0  0  0  0  0  0  0  0
   -2.5324   -0.5201   -4.0896 H   0  0  0  0  0  0  0  0  0  0  0  0
   -2.1674    1.3638   -2.9101 C   0  0  0  0  0  0  0  0  0  0  0  0
   -2.7245    2.1770   -3.3827 H   0  0  0  0  0  0  0  0  0  0  0  0
    0.7337   -0.7882    3.3855 C   0  0  0  0  0  0  0  0  0  0  0  0
    1.3868   -0.4027    2.5656 H   0  0  0  0  0  0  0  0  0  0  0  0
    0.8458   -0.0439    4.2053 H   0  0  0  0  0  0  0  0  0  0  0  0
    1.2646   -2.1523    3.8362 C   0  0  0  0  0  0  0  0  0  0  0  0
    0.7014   -2.5448    4.7086 H   0  0  0  0  0  0  0  0  0  0  0  0
    2.3339   -2.1143    4.1283 H   0  0  0  0  0  0  0  0  0  0  0  0
    1.1772   -2.9085    3.0272 H   0  0  0  0  0  0  0  0  0  0  0  0
   -1.9022   -1.1616    4.0571 C   0  0  0  0  0  0  0  0  0  0  0  0
   -1.6219   -2.1557    4.4722 H   0  0  0  0  0  0  0  0  0  0  0  0
   -1.7338   -0.4682    4.9126 H   0  0  0  0  0  0  0  0  0  0  0  0
   -3.3932   -1.1682    3.6858 C   0  0  0  0  0  0  0  0  0  0  0  0
   -4.0400   -1.4402    4.5456 H   0  0  0  0  0  0  0  0  0  0  0  0
   -3.6197   -1.8876    2.8721 H   0  0  0  0  0  0  0  0  0  0  0  0
   -3.7406   -0.1794    3.3215 H   0  0  0  0  0  0  0  0  0  0  0  0
    0.5972   -2.4460   -2.5926 C   0  0  0  0  0  0  0  0  0  0  0  0
    0.6649   -2.2343   -3.6831 H   0  0  0  0  0  0  0  0  0  0  0  0
    1.2788   -1.6987   -2.1190 H   0  0  0  0  0  0  0  0  0  0  0  0
    1.1266   -3.8519   -2.2946 C   0  0  0  0  0  0  0  0  0  0  0  0
    1.0848   -4.0782   -1.2080 H   0  0  0  0  0  0  0  0  0  0  0  0
    2.1816   -3.9823   -2.6111 H   0  0  0  0  0  0  0  0  0  0  0  0
    0.5314   -4.6335   -2.8114 H   0  0  0  0  0  0  0  0  0  0  0  0
   -2.0607   -3.0813   -2.8642 C   0  0  0  0  0  0  0  0  0  0  0  0
   -1.9376   -2.9284   -3.9608 H   0  0  0  0  0  0  0  0  0  0  0  0
   -1.7868   -4.1506   -2.7205 H   0  0  0  0  0  0  0  0  0  0  0  0
   -3.5340   -2.8778   -2.4782 C   0  0  0  0  0  0  0  0  0  0  0  0
   -3.7165   -3.0741   -1.4016 H   0  0  0  0  0  0  0  0  0  0  0  0
   -4.2144   -3.5449   -3.0472 H   0  0  0  0  0  0  0  0  0  0  0  0
   -3.8766   -1.8381   -2.6589 H   0  0  0  0  0  0  0  0  0  0  0  0
    0.1734    3.5213   -1.0305 C   0  0  0  0  0  0  0  0  0  0  0  0
    0.9641    2.7364   -0.9522 H   0  0  0  0  0  0  0  0  0  0  0  0
    0.2325    3.8732   -2.0846 H   0  0  0  0  0  0  0  0  0  0  0  0
    0.5198    4.6654   -0.0729 C   0  0  0  0  0  0  0  0  0  0  0  0
    0.4803    4.3331    0.9863 H   0  0  0  0  0  0  0  0  0  0  0  0
   -0.1889    5.5138   -0.1729 H   0  0  0  0  0  0  0  0  0  0  0  0
    1.5382    5.0686   -0.2470 H   0  0  0  0  0  0  0  0  0  0  0  0
   -2.5527    3.8514   -1.0474 C   0  0  0  0  0  0  0  0  0  0  0  0
   -2.4175    4.7398   -0.3904 H   0  0  0  0  0  0  0  0  0  0  0  0
   -2.4485    4.2715   -2.0739 H   0  0  0  0  0  0  0  0  0  0  0  0
   -3.9723    3.2933   -0.8615 C   0  0  0  0  0  0  0  0  0  0  0  0
   -4.1423    2.9131    0.1668 H   0  0  0  0  0  0  0  0  0  0  0  0
   -4.1808    2.4394   -1.5385 H   0  0  0  0  0  0  0  0  0  0  0  0
   -4.7537    4.0570   -1.0559 H   0  0  0  0  0  0  0  0  0  0  0  0
   -0.8203   -0.7839    2.9123 B   0  0  0  0  0  0  0  0  0  0  0  0
   -0.9356   -2.1810   -2.1242 B   0  0  0  0  0  0  0  0  0  0  0  0
   -1.2938    2.8619   -0.8030 B   0  0  0  0  0  0  0  0  0  0  0  0
  1 13  1  0  0  0  0
  1  8  1  0  0  0  0
  2  8  1  0  0  0  0
  2  9  1  0  0  0  0
  3 11  1  0  0  0  0
  3 65  1  0  0  0  0
  4 65  1  0  0  0  0
  5 16  1  0  0  0  0
  5 13  1  0  0  0  0
  6 66  1  0  0  0  0
  6 18  1  0  0  0  0
  7 18  1  0  0  0  0
  7 67  1  0  0  0  0
  8  3  1  0  0  0  0
  9 10  1  0  0  0  0
  9 11  2  0  0  0  0
 11 12  1  0  0  0  0
 13  4  1  0  0  0  0
 14  4  1  0  0  0  0
 14 15  1  0  0  0  0
 16 14  2  0  0  0  0
 17 16  1  0  0  0  0
 18  1  1  0  0  0  0
 19 21  2  0  0  0  0
 19  6  1  0  0  0  0
 20 19  1  0  0  0  0
 21  7  1  0  0  0  0
 22 21  1  0  0  0  0
 23 26  1  0  0  0  0
 23 25  1  0  0  0  0
 24 23  1  0  0  0  0
 26 28  1  0  0  0  0
 26 27  1  0  0  0  0
 29 26  1  0  0  0  0
 30 31  1  0  0  0  0
 30 32  1  0  0  0  0
 33 30  1  0  0  0  0
 33 34  1  0  0  0  0
 35 33  1  0  0  0  0
 36 33  1  0  0  0  0
 37 40  1  0  0  0  0
 37 66  1  0  0  0  0
 37 39  1  0  0  0  0
 38 37  1  0  0  0  0
 40 41  1  0  0  0  0
 42 40  1  0  0  0  0
 43 40  1  0  0  0  0
 44 46  1  0  0  0  0
 44 47  1  0  0  0  0
 44 66  1  0  0  0  0
 45 44  1  0  0  0  0
 47 48  1  0  0  0  0
 49 47  1  0  0  0  0
 50 47  1  0  0  0  0
 51 52  1  0  0  0  0
 51 67  1  0  0  0  0
 51 54  1  0  0  0  0
 53 51  1  0  0  0  0
 54 55  1  0  0  0  0
 56 54  1  0  0  0  0
 57 54  1  0  0  0  0
 58 61  1  0  0  0  0
 58 67  1  0  0  0  0
 58 59  1  0  0  0  0
 60 58  1  0  0  0  0
 61 62  1  0  0  0  0
 63 61  1  0  0  0  0
 64 61  1  0  0  0  0
 65 23  1  0  0  0  0
 65 30  1  0  0  0  0
 66  5  1  0  0  0  0
 67  2  1  0  0  0  0
M  END
