53
 OpenBabel05122313063D

 56 58  0  0  1  0  0  0  0  0999 V2000
   -0.8918    0.1222    1.7896 C   0  0  1  0  0  0  0  0  0  0  0  0
   -1.0747    1.1191    2.2391 H   0  0  0  0  0  0  0  0  0  0  0  0
   -2.4523   -0.6556    0.2162 C   0  0  0  0  0  0  0  0  0  0  0  0
   -3.7486   -1.2995   -0.0613 C   0  0  0  0  0  0  0  0  0  0  0  0
   -4.6323   -1.6413    0.9845 C   0  0  0  0  0  0  0  0  0  0  0  0
   -4.3421   -1.4317    2.0233 H   0  0  0  0  0  0  0  0  0  0  0  0
   -5.8635   -2.2410    0.6889 C   0  0  0  0  0  0  0  0  0  0  0  0
   -6.5522   -2.5058    1.5052 H   0  0  0  0  0  0  0  0  0  0  0  0
   -6.2173   -2.5059   -0.6441 C   0  0  0  0  0  0  0  0  0  0  0  0
   -7.1847   -2.9787   -0.8724 H   0  0  0  0  0  0  0  0  0  0  0  0
   -5.3354   -2.1720   -1.6871 C   0  0  0  0  0  0  0  0  0  0  0  0
   -5.6098   -2.3852   -2.7310 H   0  0  0  0  0  0  0  0  0  0  0  0
   -4.1047   -1.5721   -1.4002 C   0  0  0  0  0  0  0  0  0  0  0  0
   -3.3931   -1.3114   -2.1971 H   0  0  0  0  0  0  0  0  0  0  0  0
   -0.0759   -0.7378    2.7099 C   0  0  0  0  0  0  0  0  0  0  0  0
    0.0066   -2.1299    2.5046 C   0  0  0  0  0  0  0  0  0  0  0  0
   -0.5715   -2.5986    1.6966 H   0  0  0  0  0  0  0  0  0  0  0  0
    0.8074   -2.9223    3.3369 C   0  0  0  0  0  0  0  0  0  0  0  0
    0.8674   -4.0067    3.1602 H   0  0  0  0  0  0  0  0  0  0  0  0
    1.5356   -2.3359    4.3847 C   0  0  0  0  0  0  0  0  0  0  0  0
    2.1739   -2.9578    5.0300 H   0  0  0  0  0  0  0  0  0  0  0  0
    1.4381   -0.9550    4.6117 C   0  0  0  0  0  0  0  0  0  0  0  0
    1.9908   -0.4905    5.4420 H   0  0  0  0  0  0  0  0  0  0  0  0
    0.6288   -0.1622    3.7847 C   0  0  0  0  0  0  0  0  0  0  0  0
    0.5401    0.9180    3.9779 H   0  0  0  0  0  0  0  0  0  0  0  0
   -0.2227    2.2200   -0.2772 C   0  0  0  0  0  0  0  0  0  0  0  0
    0.3503    2.3276   -1.2272 H   0  0  0  0  0  0  0  0  0  0  0  0
   -0.1831    3.9068    2.4056 C   0  0  0  0  0  0  0  0  0  0  0  0
    0.4787    4.4792    3.0883 H   0  0  0  0  0  0  0  0  0  0  0  0
   -0.6609    3.1058    3.0060 H   0  0  0  0  0  0  0  0  0  0  0  0
   -0.9829    4.5921    2.0627 H   0  0  0  0  0  0  0  0  0  0  0  0
    2.2713    2.2154    1.7208 C   0  0  0  0  0  0  0  0  0  0  0  0
    3.0610    2.0128    0.9734 H   0  0  0  0  0  0  0  0  0  0  0  0
    1.9627    1.2459    2.1535 H   0  0  0  0  0  0  0  0  0  0  0  0
    2.7291    2.8136    2.5369 H   0  0  0  0  0  0  0  0  0  0  0  0
    1.6587    4.6545    0.0222 C   0  0  0  0  0  0  0  0  0  0  0  0
    0.9236    5.3530   -0.4196 H   0  0  0  0  0  0  0  0  0  0  0  0
    2.2967    4.2528   -0.7915 H   0  0  0  0  0  0  0  0  0  0  0  0
    2.3135    5.2324    0.7069 H   0  0  0  0  0  0  0  0  0  0  0  0
   -3.2123    2.7024    0.6898 C   0  0  0  0  0  0  0  0  0  0  0  0
   -4.1813    3.1445    0.3776 H   0  0  0  0  0  0  0  0  0  0  0  0
   -2.9048    3.2056    1.6279 H   0  0  0  0  0  0  0  0  0  0  0  0
   -3.3970    1.6363    0.9197 H   0  0  0  0  0  0  0  0  0  0  0  0
   -1.7618    4.8559   -0.9339 C   0  0  0  0  0  0  0  0  0  0  0  0
   -1.0400    5.0913   -1.7421 H   0  0  0  0  0  0  0  0  0  0  0  0
   -1.4449    5.3943   -0.0193 H   0  0  0  0  0  0  0  0  0  0  0  0
   -2.7469    5.2669   -1.2391 H   0  0  0  0  0  0  0  0  0  0  0  0
   -2.5704    2.2930   -2.3376 C   0  0  0  0  0  0  0  0  0  0  0  0
   -3.4694    2.8537   -2.6680 H   0  0  0  0  0  0  0  0  0  0  0  0
   -2.8211    1.2189   -2.2577 H   0  0  0  0  0  0  0  0  0  0  0  0
   -1.7947    2.3970   -3.1242 H   0  0  0  0  0  0  0  0  0  0  0  0
   -1.6310   -0.2539   -0.6950 N   0  0  0  0  0  0  0  0  0  0  0  0
   -0.1761    0.3952    0.0000 P   0  0  2  0  0  0  0  0  0  0  0  0
   -1.9481    2.9825   -0.6926 Si  0  0  0  0  0  0  0  0  0  0  0  0
    0.8599    3.2289    0.9716 Si  0  0  0  0  0  0  0  0  0  0  0  0
   -2.1768   -0.4912    1.5460 O   0  0  0  0  0  0  0  0  0  0  0  0
  1  2  1  1  0  0  0
  1 15  1  0  0  0  0
  3 56  1  0  0  0  0
  4  3  1  0  0  0  0
  4  5  1  0  0  0  0
  5  6  1  0  0  0  0
  7  5  2  0  0  0  0
  7  8  1  0  0  0  0
  9  7  1  0  0  0  0
 10  9  1  0  0  0  0
 11 13  1  0  0  0  0
 11  9  2  0  0  0  0
 12 11  1  0  0  0  0
 13  4  2  0  0  0  0
 14 13  1  0  0  0  0
 15 24  1  0  0  0  0
 16 15  2  0  0  0  0
 16 18  1  0  0  0  0
 17 16  1  0  0  0  0
 18 20  2  0  0  0  0
 19 18  1  0  0  0  0
 20 22  1  0  0  0  0
 20 21  1  0  0  0  0
 22 23  1  0  0  0  0
 24 25  1  0  0  0  0
 24 22  2  0  0  0  0
 26 55  1  0  0  0  0
 27 26  1  0  0  0  0
 28 30  1  0  0  0  0
 28 29  1  0  0  0  0
 31 28  1  0  0  0  0
 32 34  1  0  0  0  0
 32 35  1  0  0  0  0
 33 32  1  0  0  0  0
 36 39  1  0  0  0  0
 36 55  1  0  0  0  0
 37 36  1  0  0  0  0
 38 36  1  0  0  0  0
 40 43  1  0  0  0  0
 40 42  1  0  0  0  0
 41 40  1  0  0  0  0
 44 54  1  0  0  0  0
 44 46  1  0  0  0  0
 45 44  1  0  0  0  0
 47 44  1  0  0  0  0
 48 50  1  0  0  0  0
 48 54  1  0  0  0  0
 49 48  1  0  0  0  0
 51 48  1  0  0  0  0
 52 53  1  0  0  0  0
 52  3  2  0  0  0  0
 53 26  1  6  0  0  0
 53  1  1  0  0  0  0
 54 26  1  0  0  0  0
 54 40  1  0  0  0  0
 55 32  1  0  0  0  0
 55 28  1  0  0  0  0
 56  1  1  0  0  0  0
M  END
