1
 OpenBabel05122313063D

 56 59  0  0  0  0  0  0  0  0999 V2000
   -0.2085   -0.4904    0.2744 P   0  0  0  0  0  0  0  0  0  0  0  0
   -1.8027    1.6195   -0.8593 N   0  0  0  0  0  0  0  0  0  0  0  0
    0.2242    2.2667    0.1069 N   0  0  0  0  0  0  0  0  0  0  0  0
   -0.6539    1.3052   -0.2172 C   0  0  0  0  0  3  0  0  0  0  0  0
   -2.3342    0.8560   -2.0087 C   0  0  0  0  0  0  0  0  0  0  0  0
   -1.7325   -0.0579   -2.1419 H   0  0  0  0  0  0  0  0  0  0  0  0
   -2.1480    1.4930   -2.9049 H   0  0  0  0  0  0  0  0  0  0  0  0
   -3.8250    0.5526   -1.8851 C   0  0  0  0  0  0  0  0  0  0  0  0
   -3.9701   -0.2046   -1.0879 H   0  0  0  0  0  0  0  0  0  0  0  0
   -4.1655    0.0881   -2.8322 H   0  0  0  0  0  0  0  0  0  0  0  0
   -4.6283    1.8168   -1.5663 C   0  0  0  0  0  0  0  0  0  0  0  0
   -4.6093    2.5075   -2.4381 H   0  0  0  0  0  0  0  0  0  0  0  0
   -5.6931    1.5664   -1.3898 H   0  0  0  0  0  0  0  0  0  0  0  0
   -4.0351    2.5258   -0.3459 C   0  0  0  0  0  0  0  0  0  0  0  0
   -4.1371    1.8853    0.5573 H   0  0  0  0  0  0  0  0  0  0  0  0
   -4.5699    3.4732   -0.1299 H   0  0  0  0  0  0  0  0  0  0  0  0
   -2.5546    2.8595   -0.5601 C   0  0  0  0  0  0  0  0  0  0  0  0
   -2.4539    3.5813   -1.4006 H   0  0  0  0  0  0  0  0  0  0  0  0
   -2.1179    3.3243    0.3429 H   0  0  0  0  0  0  0  0  0  0  0  0
    0.3197    3.5316   -0.6635 C   0  0  0  0  0  0  0  0  0  0  0  0
    0.0219    4.3759   -0.0044 H   0  0  0  0  0  0  0  0  0  0  0  0
   -0.3881    3.4851   -1.5066 H   0  0  0  0  0  0  0  0  0  0  0  0
    1.7458    3.7355   -1.1896 C   0  0  0  0  0  0  0  0  0  0  0  0
    1.9740    2.9326   -1.9231 H   0  0  0  0  0  0  0  0  0  0  0  0
    1.7585    4.6947   -1.7465 H   0  0  0  0  0  0  0  0  0  0  0  0
    2.7764    3.7230   -0.0622 C   0  0  0  0  0  0  0  0  0  0  0  0
    2.6036    4.5892    0.6145 H   0  0  0  0  0  0  0  0  0  0  0  0
    3.7995    3.8392   -0.4708 H   0  0  0  0  0  0  0  0  0  0  0  0
    2.6580    2.4136    0.7164 C   0  0  0  0  0  0  0  0  0  0  0  0
    3.3154    2.4070    1.6089 H   0  0  0  0  0  0  0  0  0  0  0  0
    2.9791    1.5584    0.0828 H   0  0  0  0  0  0  0  0  0  0  0  0
    1.2259    2.1684    1.1948 C   0  0  0  0  0  0  0  0  0  0  0  0
    1.1328    1.1886    1.6905 H   0  0  0  0  0  0  0  0  0  0  0  0
    0.9308    2.9338    1.9479 H   0  0  0  0  0  0  0  0  0  0  0  0
   -0.4641   -0.4194    2.0891 C   0  0  0  0  0  0  0  0  0  0  0  0
    0.3480   -1.2432    2.8955 C   0  0  0  0  0  0  0  0  0  0  0  0
    1.1339   -1.8617    2.4336 H   0  0  0  0  0  0  0  0  0  0  0  0
    0.1549   -1.2604    4.2848 C   0  0  0  0  0  0  0  0  0  0  0  0
    0.7877   -1.9048    4.9128 H   0  0  0  0  0  0  0  0  0  0  0  0
   -0.8348   -0.4551    4.8708 C   0  0  0  0  0  0  0  0  0  0  0  0
   -0.9780   -0.4671    5.9614 H   0  0  0  0  0  0  0  0  0  0  0  0
   -1.6400    0.3702    4.0682 C   0  0  0  0  0  0  0  0  0  0  0  0
   -2.4139    1.0024    4.5284 H   0  0  0  0  0  0  0  0  0  0  0  0
   -1.4607    0.3892    2.6774 C   0  0  0  0  0  0  0  0  0  0  0  0
   -2.0995    1.0356    2.0555 H   0  0  0  0  0  0  0  0  0  0  0  0
   -1.4991   -1.6510   -0.3032 C   0  0  0  0  0  0  0  0  0  0  0  0
   -1.2171   -2.4339   -1.4461 C   0  0  0  0  0  0  0  0  0  0  0  0
   -0.2639   -2.2980   -1.9829 H   0  0  0  0  0  0  0  0  0  0  0  0
   -2.1402   -3.3940   -1.8805 C   0  0  0  0  0  0  0  0  0  0  0  0
   -1.9151   -4.0025   -2.7688 H   0  0  0  0  0  0  0  0  0  0  0  0
   -3.3346   -3.5954   -1.1682 C   0  0  0  0  0  0  0  0  0  0  0  0
   -4.0507   -4.3609   -1.5024 H   0  0  0  0  0  0  0  0  0  0  0  0
   -3.6046   -2.8380   -0.0173 C   0  0  0  0  0  0  0  0  0  0  0  0
   -4.5292   -3.0105    0.5532 H   0  0  0  0  0  0  0  0  0  0  0  0
   -2.6921   -1.8657    0.4190 C   0  0  0  0  0  0  0  0  0  0  0  0
   -2.9012   -1.2947    1.3348 H   0  0  0  0  0  0  0  0  0  0  0  0
  1 35  1  0  0  0  0
  2 17  1  0  0  0  0
  2  4  1  0  0  0  0
  3 32  1  0  0  0  0
  4  3  1  0  0  0  0
  4  1  1  0  0  0  0
  5  8  1  0  0  0  0
  5  2  1  0  0  0  0
  6  5  1  0  0  0  0
  7  5  1  0  0  0  0
  8 11  1  0  0  0  0
  8  9  1  0  0  0  0
 10  8  1  0  0  0  0
 11 13  1  0  0  0  0
 11 14  1  0  0  0  0
 12 11  1  0  0  0  0
 14 16  1  0  0  0  0
 14 15  1  0  0  0  0
 17 14  1  0  0  0  0
 17 19  1  0  0  0  0
 18 17  1  0  0  0  0
 20 21  1  0  0  0  0
 20  3  1  0  0  0  0
 22 20  1  0  0  0  0
 23 20  1  0  0  0  0
 23 26  1  0  0  0  0
 24 23  1  0  0  0  0
 25 23  1  0  0  0  0
 26 27  1  0  0  0  0
 26 29  1  0  0  0  0
 28 26  1  0  0  0  0
 29 32  1  0  0  0  0
 29 30  1  0  0  0  0
 31 29  1  0  0  0  0
 32 33  1  0  0  0  0
 32 34  1  0  0  0  0
 35 44  2  0  0  0  0
 35 36  1  0  0  0  0
 36 38  2  0  0  0  0
 37 36  1  0  0  0  0
 38 40  1  0  0  0  0
 38 39  1  0  0  0  0
 40 41  1  0  0  0  0
 42 43  1  0  0  0  0
 42 40  2  0  0  0  0
 44 42  1  0  0  0  0
 45 44  1  0  0  0  0
 46  1  1  0  0  0  0
 46 55  1  0  0  0  0
 47 46  2  0  0  0  0
 48 47  1  0  0  0  0
 49 47  1  0  0  0  0
 49 51  2  0  0  0  0
 50 49  1  0  0  0  0
 51 53  1  0  0  0  0
 52 51  1  0  0  0  0
 53 55  2  0  0  0  0
 53 54  1  0  0  0  0
 55 56  1  0  0  0  0
M  END
