1
 OpenBabel05122313063D

 24 23  0  0  0  0  0  0  0  0999 V2000
   -2.2953    0.0479   -0.0722 P   0  0  0  0  0  0  0  0  0  0  0  0
   -3.0320    2.5241    0.6889 F   0  0  0  0  0  0  0  0  0  0  0  0
   -2.9783    2.2575   -1.4900 F   0  0  0  0  0  0  0  0  0  0  0  0
   -4.6309    1.4493   -0.3096 F   0  0  0  0  0  0  0  0  0  0  0  0
   -2.9823   -0.7431    1.2269 N   0  0  0  0  0  0  0  0  0  0  0  0
   -3.2927    1.6803   -0.3190 C   0  0  0  0  0  0  0  0  0  0  0  0
   -2.8605   -0.8894   -1.6650 C   0  0  0  0  0  0  0  0  0  0  0  0
   -4.3835   -1.1962    1.2464 C   0  0  0  0  0  0  0  0  0  0  0  0
   -4.8816   -0.8363    0.3264 H   0  0  0  0  0  0  0  0  0  0  0  0
   -4.9097   -0.6920    2.0881 H   0  0  0  0  0  0  0  0  0  0  0  0
   -2.0265   -0.5766   -2.6735 F   0  0  0  0  0  0  0  0  0  0  0  0
   -4.5172   -2.7144    1.3521 C   0  0  0  0  0  0  0  0  0  0  0  0
   -4.0187   -3.2084    0.4968 H   0  0  0  0  0  0  0  0  0  0  0  0
   -5.5878   -3.0022    1.3557 H   0  0  0  0  0  0  0  0  0  0  0  0
   -4.0635   -3.1051    2.2848 H   0  0  0  0  0  0  0  0  0  0  0  0
   -4.1154   -0.5557   -2.0495 F   0  0  0  0  0  0  0  0  0  0  0  0
   -2.2108   -0.8121    2.4872 C   0  0  0  0  0  0  0  0  0  0  0  0
   -1.1891   -1.1769    2.2534 H   0  0  0  0  0  0  0  0  0  0  0  0
   -2.6877   -1.6015    3.1025 H   0  0  0  0  0  0  0  0  0  0  0  0
   -2.8309   -2.2155   -1.4702 F   0  0  0  0  0  0  0  0  0  0  0  0
   -2.1553    0.5142    3.2395 C   0  0  0  0  0  0  0  0  0  0  0  0
   -1.6067    1.2769    2.6492 H   0  0  0  0  0  0  0  0  0  0  0  0
   -1.6236    0.3890    4.2043 H   0  0  0  0  0  0  0  0  0  0  0  0
   -3.1702    0.9074    3.4532 H   0  0  0  0  0  0  0  0  0  0  0  0
  1  5  1  0  0  0  0
  3  6  1  0  0  0  0
  5  8  1  0  0  0  0
  5 17  1  0  0  0  0
  6  4  1  0  0  0  0
  6  1  1  0  0  0  0
  6  2  1  0  0  0  0
  7 20  1  0  0  0  0
  7  1  1  0  0  0  0
  8 12  1  0  0  0  0
  8 10  1  0  0  0  0
  9  8  1  0  0  0  0
 11  7  1  0  0  0  0
 12 14  1  0  0  0  0
 12 15  1  0  0  0  0
 13 12  1  0  0  0  0
 16  7  1  0  0  0  0
 17 19  1  0  0  0  0
 17 21  1  0  0  0  0
 18 17  1  0  0  0  0
 21 24  1  0  0  0  0
 21 23  1  0  0  0  0
 22 21  1  0  0  0  0
M  END
