1
 OpenBabel05122313063D

 51 56  0  0  1  0  0  0  0  0999 V2000
    0.0023    0.0980   -0.0307 P   0  0  1  0  0  0  0  0  0  0  0  0
    0.9729    1.5823    0.0946 N   0  0  0  0  0  0  0  0  0  0  0  0
    2.1919    1.5421   -0.4825 N   0  0  0  0  0  0  0  0  0  0  0  0
    2.4992    0.3672   -0.9828 C   0  0  0  0  0  0  0  0  0  0  0  0
    1.5187   -0.7328   -0.7461 C   0  0  1  0  0  0  0  0  0  0  0  0
    1.2076   -1.1144    0.7148 C   0  0  0  0  0  0  0  0  0  0  0  0
    0.4743    2.8000    0.6037 C   0  0  0  0  0  0  0  0  0  0  0  0
    0.9623    4.0324    0.1199 C   0  0  0  0  0  0  0  0  0  0  0  0
    1.7520    4.0261   -0.6427 H   0  0  0  0  0  0  0  0  0  0  0  0
    0.4320    5.2286    0.6154 C   0  0  0  0  0  0  0  0  0  0  0  0
    0.8152    6.1860    0.2305 H   0  0  0  0  0  0  0  0  0  0  0  0
   -0.5899    5.2185    1.5809 C   0  0  0  0  0  0  0  0  0  0  0  0
   -1.0088    6.1638    1.9559 H   0  0  0  0  0  0  0  0  0  0  0  0
   -1.0654    3.9917    2.0668 C   0  0  0  0  0  0  0  0  0  0  0  0
   -1.8560    3.9658    2.8317 H   0  0  0  0  0  0  0  0  0  0  0  0
   -0.5282    2.7863    1.5962 C   0  0  0  0  0  0  0  0  0  0  0  0
   -0.8887    1.8303    2.0016 H   0  0  0  0  0  0  0  0  0  0  0  0
    3.7464    0.1767   -1.7320 C   0  0  0  0  0  0  0  0  0  0  0  0
    4.1653   -1.1134   -2.1337 C   0  0  0  0  0  0  0  0  0  0  0  0
    3.5527   -1.9922   -1.8832 H   0  0  0  0  0  0  0  0  0  0  0  0
    5.3632   -1.2911   -2.8404 C   0  0  0  0  0  0  0  0  0  0  0  0
    5.6702   -2.3030   -3.1450 H   0  0  0  0  0  0  0  0  0  0  0  0
    6.1696   -0.1865   -3.1517 C   0  0  0  0  0  0  0  0  0  0  0  0
    7.1107   -0.3258   -3.7047 H   0  0  0  0  0  0  0  0  0  0  0  0
    5.7671    1.1009   -2.7503 C   0  0  0  0  0  0  0  0  0  0  0  0
    6.3951    1.9724   -2.9903 H   0  0  0  0  0  0  0  0  0  0  0  0
    4.5704    1.2836   -2.0527 C   0  0  0  0  0  0  0  0  0  0  0  0
    4.2474    2.2859   -1.7380 H   0  0  0  0  0  0  0  0  0  0  0  0
    0.6137   -2.4824    0.9488 C   0  0  0  0  0  0  0  0  0  0  0  0
   -0.2987   -2.6690    2.0099 C   0  0  0  0  0  0  0  0  0  0  0  0
   -0.5954   -1.8064    2.6248 H   0  0  0  0  0  0  0  0  0  0  0  0
   -0.8358   -3.9339    2.2762 C   0  0  0  0  0  0  0  0  0  0  0  0
   -1.5537   -4.0582    3.1008 H   0  0  0  0  0  0  0  0  0  0  0  0
   -0.4711   -5.0359    1.4852 C   0  0  0  0  0  0  0  0  0  0  0  0
   -0.9006   -6.0284    1.6874 H   0  0  0  0  0  0  0  0  0  0  0  0
    0.4377   -4.8627    0.4313 C   0  0  0  0  0  0  0  0  0  0  0  0
    0.7301   -5.7206   -0.1928 H   0  0  0  0  0  0  0  0  0  0  0  0
    0.9752   -3.5944    0.1645 C   0  0  0  0  0  0  0  0  0  0  0  0
    1.6918   -3.4737   -0.6619 H   0  0  0  0  0  0  0  0  0  0  0  0
    2.1453   -0.6392    1.7964 C   0  0  0  0  0  0  0  0  0  0  0  0
    1.6827    0.0787    2.9146 C   0  0  0  0  0  0  0  0  0  0  0  0
    0.6182    0.3481    2.9837 H   0  0  0  0  0  0  0  0  0  0  0  0
    2.5684    0.4675    3.9300 C   0  0  0  0  0  0  0  0  0  0  0  0
    2.1916    1.0344    4.7946 H   0  0  0  0  0  0  0  0  0  0  0  0
    3.9307    0.1444    3.8357 C   0  0  0  0  0  0  0  0  0  0  0  0
    4.6280    0.4545    4.6285 H   0  0  0  0  0  0  0  0  0  0  0  0
    4.4017   -0.5693    2.7220 C   0  0  0  0  0  0  0  0  0  0  0  0
    5.4695   -0.8222    2.6383 H   0  0  0  0  0  0  0  0  0  0  0  0
    3.5152   -0.9581    1.7083 C   0  0  0  0  0  0  0  0  0  0  0  0
    3.8889   -1.5124    0.8342 H   0  0  0  0  0  0  0  0  0  0  0  0
    1.4120   -1.5145   -1.5130 H   0  0  0  0  0  0  0  0  0  0  0  0
  1  2  1  1  0  0  0
  1  6  1  0  0  0  0
  2  7  1  0  0  0  0
  3  2  1  0  0  0  0
  4  5  1  0  0  0  0
  4  3  2  0  0  0  0
  5 51  1  6  0  0  0
  5  1  1  0  0  0  0
  5  6  1  0  0  0  0
  6 29  1  0  0  0  0
  6 40  1  0  0  0  0
  7 16  1  0  0  0  0
  8  7  2  0  0  0  0
  8 10  1  0  0  0  0
  9  8  1  0  0  0  0
 10 12  2  0  0  0  0
 11 10  1  0  0  0  0
 12 13  1  0  0  0  0
 12 14  1  0  0  0  0
 14 15  1  0  0  0  0
 16 17  1  0  0  0  0
 16 14  2  0  0  0  0
 18  4  1  0  0  0  0
 19 20  1  0  0  0  0
 19 18  2  0  0  0  0
 21 19  1  0  0  0  0
 22 21  1  0  0  0  0
 23 21  2  0  0  0  0
 23 25  1  0  0  0  0
 24 23  1  0  0  0  0
 25 27  2  0  0  0  0
 26 25  1  0  0  0  0
 27 28  1  0  0  0  0
 27 18  1  0  0  0  0
 29 30  1  0  0  0  0
 30 32  2  0  0  0  0
 30 31  1  0  0  0  0
 32 33  1  0  0  0  0
 34 35  1  0  0  0  0
 34 32  1  0  0  0  0
 36 34  2  0  0  0  0
 37 36  1  0  0  0  0
 38 36  1  0  0  0  0
 38 29  2  0  0  0  0
 39 38  1  0  0  0  0
 40 41  1  0  0  0  0
 41 42  1  0  0  0  0
 41 43  2  0  0  0  0
 43 44  1  0  0  0  0
 45 43  1  0  0  0  0
 45 46  1  0  0  0  0
 47 45  2  0  0  0  0
 48 47  1  0  0  0  0
 49 40  2  0  0  0  0
 49 47  1  0  0  0  0
 50 49  1  0  0  0  0
M  END
