1
 OpenBabel05122313063D

 28 28  0  0  0  0  0  0  0  0999 V2000
   -2.1719    0.2586   -0.6456 P   0  0  0  0  0  0  0  0  0  0  0  0
   -5.3861    3.4747    1.9344 N   0  0  0  0  0  0  0  0  0  0  0  0
   -2.0334    4.1253   -1.7871 N   0  0  0  0  0  0  0  0  0  0  0  0
   -2.9197    1.6001    0.3838 C   0  0  0  0  0  0  0  0  0  0  0  0
   -2.8720    1.2123    1.4206 H   0  0  0  0  0  0  0  0  0  0  0  0
   -2.2645    2.4902    0.3382 H   0  0  0  0  0  0  0  0  0  0  0  0
   -4.3698    1.9755    0.0239 C   0  0  0  0  0  0  0  0  0  0  0  0
   -4.4037    2.5329   -0.9353 H   0  0  0  0  0  0  0  0  0  0  0  0
   -4.9993    1.0669   -0.0935 H   0  0  0  0  0  0  0  0  0  0  0  0
   -4.9559    2.8162    1.0673 C   0  0  0  0  0  0  0  0  0  0  0  0
   -2.4706    0.6794   -2.4258 C   0  0  0  0  0  0  0  0  0  0  0  0
   -2.2426   -0.2439   -2.9949 H   0  0  0  0  0  0  0  0  0  0  0  0
   -3.5505    0.8902   -2.5684 H   0  0  0  0  0  0  0  0  0  0  0  0
   -1.5993    1.8228   -2.9830 C   0  0  0  0  0  0  0  0  0  0  0  0
   -0.5256    1.5774   -2.8442 H   0  0  0  0  0  0  0  0  0  0  0  0
   -1.7859    1.9273   -4.0726 H   0  0  0  0  0  0  0  0  0  0  0  0
   -1.8440    3.1133   -2.3455 C   0  0  0  0  0  0  0  0  0  0  0  0
   -3.2444   -1.1768   -0.2963 C   0  0  0  0  0  0  0  0  0  0  0  0
   -3.9893   -1.8538   -1.2842 C   0  0  0  0  0  0  0  0  0  0  0  0
   -3.9631   -1.5316   -2.3348 H   0  0  0  0  0  0  0  0  0  0  0  0
   -4.7880   -2.9530   -0.9309 C   0  0  0  0  0  0  0  0  0  0  0  0
   -5.3745   -3.4695   -1.7051 H   0  0  0  0  0  0  0  0  0  0  0  0
   -4.8469   -3.3847    0.4035 C   0  0  0  0  0  0  0  0  0  0  0  0
   -5.4802   -4.2417    0.6771 H   0  0  0  0  0  0  0  0  0  0  0  0
   -4.0944   -2.7224    1.3888 C   0  0  0  0  0  0  0  0  0  0  0  0
   -4.1304   -3.0635    2.4341 H   0  0  0  0  0  0  0  0  0  0  0  0
   -3.2894   -1.6288    1.0435 C   0  0  0  0  0  0  0  0  0  0  0  0
   -2.6732   -1.1369    1.8114 H   0  0  0  0  0  0  0  0  0  0  0  0
  1 18  1  0  0  0  0
  1  4  1  0  0  0  0
  4  5  1  0  0  0  0
  6  4  1  0  0  0  0
  7  4  1  0  0  0  0
  7 10  1  0  0  0  0
  8  7  1  0  0  0  0
  9  7  1  0  0  0  0
 10  2  3  0  0  0  0
 11  1  1  0  0  0  0
 12 11  1  0  0  0  0
 13 11  1  0  0  0  0
 14 15  1  0  0  0  0
 14 11  1  0  0  0  0
 14 17  1  0  0  0  0
 16 14  1  0  0  0  0
 17  3  3  0  0  0  0
 18 27  1  0  0  0  0
 19 21  1  0  0  0  0
 19 18  2  0  0  0  0
 20 19  1  0  0  0  0
 21 23  2  0  0  0  0
 22 21  1  0  0  0  0
 23 24  1  0  0  0  0
 23 25  1  0  0  0  0
 25 26  1  0  0  0  0
 27 25  2  0  0  0  0
 27 28  1  0  0  0  0
M  END
