1
 OpenBabel05122313063D

 23 23  0  0  1  0  0  0  0  0999 V2000
    1.1876    2.0581   -0.1340 P   0  0  2  0  0  0  0  0  0  0  0  0
    0.0777    3.1794   -0.5658 O   0  0  0  0  0  0  0  0  0  0  0  0
    1.7087    2.6059    1.3407 O   0  0  0  0  0  0  0  0  0  0  0  0
    2.4576    2.5198   -1.1378 O   0  0  0  0  0  0  0  0  0  0  0  0
    4.0724    0.7479    0.5958 F   0  0  0  0  0  0  0  0  0  0  0  0
    5.0669    2.5108   -0.2143 F   0  0  0  0  0  0  0  0  0  0  0  0
    5.4663    0.5423   -1.0797 F   0  0  0  0  0  0  0  0  0  0  0  0
    0.1873    4.5964   -0.2597 C   0  0  2  0  0  0  0  0  0  0  0  0
    0.9562    5.0236   -0.9438 H   0  0  0  0  0  0  0  0  0  0  0  0
    0.6400    4.7926    1.1904 C   0  0  0  0  0  0  0  0  0  0  0  0
   -0.1693    4.4509    1.8716 H   0  0  0  0  0  0  0  0  0  0  0  0
    0.7979    5.8751    1.3779 H   0  0  0  0  0  0  0  0  0  0  0  0
    1.9185    4.0226    1.5073 C   0  0  0  0  0  0  0  0  0  0  0  0
    2.7604    4.3442    0.8543 H   0  0  0  0  0  0  0  0  0  0  0  0
    2.2268    4.1638    2.5617 H   0  0  0  0  0  0  0  0  0  0  0  0
   -1.1773    5.1930   -0.5559 C   0  0  0  0  0  0  0  0  0  0  0  0
   -1.4467    5.0285   -1.6167 H   0  0  0  0  0  0  0  0  0  0  0  0
   -1.9473    4.7017    0.0731 H   0  0  0  0  0  0  0  0  0  0  0  0
   -1.1804    6.2823   -0.3518 H   0  0  0  0  0  0  0  0  0  0  0  0
    3.3637    1.5156   -1.5549 C   0  0  0  0  0  0  0  0  0  0  0  0
    3.8088    1.8327   -2.5187 H   0  0  0  0  0  0  0  0  0  0  0  0
    2.8694    0.5268   -1.6942 H   0  0  0  0  0  0  0  0  0  0  0  0
    4.4982    1.3331   -0.5504 C   0  0  0  0  0  0  0  0  0  0  0  0
  1  4  1  6  0  0  0
  1  3  1  0  0  0  0
  2  8  1  0  0  0  0
  2  1  1  0  0  0  0
  3 13  1  0  0  0  0
  7 23  1  0  0  0  0
  8  9  1  6  0  0  0
  8 10  1  0  0  0  0
 10 12  1  0  0  0  0
 10 13  1  0  0  0  0
 10 11  1  0  0  0  0
 13 15  1  0  0  0  0
 14 13  1  0  0  0  0
 16 19  1  0  0  0  0
 16  8  1  0  0  0  0
 16 18  1  0  0  0  0
 17 16  1  0  0  0  0
 20  4  1  0  0  0  0
 20 23  1  0  0  0  0
 21 20  1  0  0  0  0
 22 20  1  0  0  0  0
 23  6  1  0  0  0  0
 23  5  1  0  0  0  0
M  END
