1
 OpenBabel05122313063D

 36 38  0  0  0  0  0  0  0  0999 V2000
    1.5463    0.9342    0.1758 P   0  0  0  0  0  0  0  0  0  0  0  0
   -1.9299    2.0906   -3.4744 O   0  0  0  0  0  0  0  0  0  0  0  0
   -2.4762    4.5135   -2.5082 O   0  0  0  0  0  0  0  0  0  0  0  0
    1.6642    1.2570    1.9811 C   0  0  0  0  0  0  0  0  0  0  0  0
    2.1328    2.4882    2.4874 C   0  0  0  0  0  0  0  0  0  0  0  0
    2.2204    2.6908    3.8720 C   0  0  0  0  0  0  0  0  0  0  0  0
    1.8714    1.6594    4.7602 C   0  0  0  0  0  0  0  0  0  0  0  0
    1.4493    0.4178    4.2604 C   0  0  0  0  0  0  0  0  0  0  0  0
    1.3469    0.2164    2.8757 C   0  0  0  0  0  0  0  0  0  0  0  0
    3.1876    1.5124   -0.4237 C   0  0  0  0  0  0  0  0  0  0  0  0
    3.3016    2.2540   -1.6142 C   0  0  0  0  0  0  0  0  0  0  0  0
    4.5649    2.6658   -2.0666 C   0  0  0  0  0  0  0  0  0  0  0  0
    5.7163    2.3434   -1.3333 C   0  0  0  0  0  0  0  0  0  0  0  0
    5.6044    1.6012   -0.1459 C   0  0  0  0  0  0  0  0  0  0  0  0
    4.3480    1.1787    0.3058 C   0  0  0  0  0  0  0  0  0  0  0  0
    0.3988    2.1532   -0.5893 C   0  0  0  0  0  0  0  0  0  0  0  0
   -0.2169    1.7365   -1.7866 C   0  0  0  0  0  0  0  0  0  0  0  0
   -1.1793    2.5247   -2.4292 C   0  0  0  0  0  0  0  0  0  0  0  0
   -1.4591    3.8138   -1.9084 C   0  0  0  0  0  0  0  0  0  0  0  0
   -0.7984    4.2558   -0.7540 C   0  0  0  0  0  0  0  0  0  0  0  0
    0.1087    3.4273   -0.0753 C   0  0  0  0  0  0  0  0  0  0  0  0
   -1.8060    1.1223   -3.5678 H   0  0  0  0  0  0  0  0  0  0  0  0
   -2.5261    5.3938   -2.0883 H   0  0  0  0  0  0  0  0  0  0  0  0
    2.4594    3.2807    1.7977 H   0  0  0  0  0  0  0  0  0  0  0  0
    2.5782    3.6564    4.2606 H   0  0  0  0  0  0  0  0  0  0  0  0
    1.9487    1.8197    5.8464 H   0  0  0  0  0  0  0  0  0  0  0  0
    1.2005   -0.4035    4.9493 H   0  0  0  0  0  0  0  0  0  0  0  0
    1.0276   -0.7570    2.4687 H   0  0  0  0  0  0  0  0  0  0  0  0
    2.4023    2.5139   -2.1912 H   0  0  0  0  0  0  0  0  0  0  0  0
    4.6461    3.2457   -2.9985 H   0  0  0  0  0  0  0  0  0  0  0  0
    6.7058    2.6690   -1.6885 H   0  0  0  0  0  0  0  0  0  0  0  0
    6.5052    1.3373    0.4284 H   0  0  0  0  0  0  0  0  0  0  0  0
    4.2661    0.5827    1.2259 H   0  0  0  0  0  0  0  0  0  0  0  0
    0.0047    0.7322   -2.1803 H   0  0  0  0  0  0  0  0  0  0  0  0
   -1.0656    5.2375   -0.3295 H   0  0  0  0  0  0  0  0  0  0  0  0
    0.5477    3.7732    0.8688 H   0  0  0  0  0  0  0  0  0  0  0  0
  1  4  1  0  0  0  0
  2 18  1  0  0  0  0
  3 23  1  0  0  0  0
  3 19  1  0  0  0  0
  4  5  2  0  0  0  0
  4  9  1  0  0  0  0
  5  6  1  0  0  0  0
  6 25  1  0  0  0  0
  6  7  2  0  0  0  0
  7 26  1  0  0  0  0
  8  7  1  0  0  0  0
  8 27  1  0  0  0  0
  9  8  2  0  0  0  0
 10  1  1  0  0  0  0
 10 15  1  0  0  0  0
 11 10  2  0  0  0  0
 12 11  1  0  0  0  0
 12 13  2  0  0  0  0
 13 14  1  0  0  0  0
 14 15  2  0  0  0  0
 14 32  1  0  0  0  0
 15 33  1  0  0  0  0
 16 21  1  0  0  0  0
 16  1  1  0  0  0  0
 17 16  2  0  0  0  0
 18 19  2  0  0  0  0
 18 17  1  0  0  0  0
 19 20  1  0  0  0  0
 20 35  1  0  0  0  0
 20 21  2  0  0  0  0
 21 36  1  0  0  0  0
 22  2  1  0  0  0  0
 24  5  1  0  0  0  0
 28  9  1  0  0  0  0
 29 11  1  0  0  0  0
 30 12  1  0  0  0  0
 31 13  1  0  0  0  0
 34 17  1  0  0  0  0
M  END
