1
 OpenBabel05122313063D

 36 38  0  0  0  0  0  0  0  0999 V2000
   -0.7076    0.0968    0.0638 P   0  0  0  0  0  0  0  0  0  0  0  0
   -0.0514   -2.6406    0.2023 O   0  0  0  0  0  0  0  0  0  0  0  0
   -1.5170   -0.6766   -1.4126 C   0  0  0  0  0  0  0  0  0  0  0  0
   -1.3478   -2.0583   -1.7209 C   0  0  0  0  0  0  0  0  0  0  0  0
   -1.9260   -2.5952   -2.8889 C   0  0  0  0  0  0  0  0  0  0  0  0
   -2.6740   -1.7931   -3.7580 C   0  0  0  0  0  0  0  0  0  0  0  0
   -2.8396   -0.4329   -3.4583 C   0  0  0  0  0  0  0  0  0  0  0  0
   -2.2644    0.1188   -2.3009 C   0  0  0  0  0  0  0  0  0  0  0  0
   -0.5642   -2.9678   -0.8583 C   0  0  0  0  0  0  0  0  0  0  0  0
   -1.3089    1.8397   -0.0025 C   0  0  0  0  0  0  0  0  0  0  0  0
   -0.5061    2.7955   -0.6599 C   0  0  0  0  0  0  0  0  0  0  0  0
   -0.9327    4.1278   -0.7588 C   0  0  0  0  0  0  0  0  0  0  0  0
   -2.1560    4.5189   -0.1911 C   0  0  0  0  0  0  0  0  0  0  0  0
   -2.9520    3.5742    0.4765 C   0  0  0  0  0  0  0  0  0  0  0  0
   -2.5334    2.2384    0.5716 C   0  0  0  0  0  0  0  0  0  0  0  0
   -1.5594   -0.6045    1.5258 C   0  0  0  0  0  0  0  0  0  0  0  0
   -0.8871   -0.5901    2.7628 C   0  0  0  0  0  0  0  0  0  0  0  0
   -1.5282   -1.0747    3.9115 C   0  0  0  0  0  0  0  0  0  0  0  0
   -2.8360   -1.5800    3.8306 C   0  0  0  0  0  0  0  0  0  0  0  0
   -3.5042   -1.6020    2.5960 C   0  0  0  0  0  0  0  0  0  0  0  0
   -2.8699   -1.1148    1.4430 C   0  0  0  0  0  0  0  0  0  0  0  0
   -1.7753   -3.6650   -3.1066 H   0  0  0  0  0  0  0  0  0  0  0  0
   -3.1225   -2.2229   -4.6658 H   0  0  0  0  0  0  0  0  0  0  0  0
   -3.4221    0.2143   -4.1314 H   0  0  0  0  0  0  0  0  0  0  0  0
   -2.4012    1.1886   -2.0887 H   0  0  0  0  0  0  0  0  0  0  0  0
   -0.4573   -4.0186   -1.2558 H   0  0  0  0  0  0  0  0  0  0  0  0
    0.4640    2.4881   -1.0834 H   0  0  0  0  0  0  0  0  0  0  0  0
   -0.2985    4.8663   -1.2719 H   0  0  0  0  0  0  0  0  0  0  0  0
   -2.4857    5.5667   -0.2601 H   0  0  0  0  0  0  0  0  0  0  0  0
   -3.9057    3.8797    0.9332 H   0  0  0  0  0  0  0  0  0  0  0  0
   -3.1578    1.5050    1.1032 H   0  0  0  0  0  0  0  0  0  0  0  0
    0.1463   -0.2127    2.8153 H   0  0  0  0  0  0  0  0  0  0  0  0
   -0.9974   -1.0664    4.8753 H   0  0  0  0  0  0  0  0  0  0  0  0
   -3.3344   -1.9654    4.7329 H   0  0  0  0  0  0  0  0  0  0  0  0
   -4.5266   -2.0039    2.5279 H   0  0  0  0  0  0  0  0  0  0  0  0
   -3.3934   -1.1400    0.4747 H   0  0  0  0  0  0  0  0  0  0  0  0
  1 16  1  0  0  0  0
  3  1  1  0  0  0  0
  4  3  1  0  0  0  0
  4  9  1  0  0  0  0
  5  4  2  0  0  0  0
  6  7  2  0  0  0  0
  6  5  1  0  0  0  0
  7  8  1  0  0  0  0
  8 25  1  0  0  0  0
  8  3  2  0  0  0  0
  9  2  2  0  0  0  0
 10  1  1  0  0  0  0
 10 15  1  0  0  0  0
 11 10  2  0  0  0  0
 12 11  1  0  0  0  0
 12 13  2  0  0  0  0
 13 14  1  0  0  0  0
 14 15  2  0  0  0  0
 14 30  1  0  0  0  0
 15 31  1  0  0  0  0
 16 17  1  0  0  0  0
 17 32  1  0  0  0  0
 17 18  2  0  0  0  0
 18 33  1  0  0  0  0
 19 18  1  0  0  0  0
 19 34  1  0  0  0  0
 20 19  2  0  0  0  0
 21 16  2  0  0  0  0
 21 20  1  0  0  0  0
 22  5  1  0  0  0  0
 23  6  1  0  0  0  0
 24  7  1  0  0  0  0
 26  9  1  0  0  0  0
 27 11  1  0  0  0  0
 28 12  1  0  0  0  0
 29 13  1  0  0  0  0
 35 20  1  0  0  0  0
 36 21  1  0  0  0  0
M  END
