21
 OpenBabel05122313063D

 21 20  0  0  0  0  0  0  0  0999 V2000
    0.8907   -3.0818    1.1577 C   0  0  0  0  0  0  0  0  0  0  0  0
    1.7380   -3.7965    1.1020 H   0  0  0  0  0  0  0  0  0  0  0  0
   -0.4242   -3.8008    0.8082 C   0  0  0  0  0  0  0  0  0  0  0  0
   -0.6062   -4.6087    1.5455 H   0  0  0  0  0  0  0  0  0  0  0  0
   -0.4206   -4.2652   -0.1955 H   0  0  0  0  0  0  0  0  0  0  0  0
   -1.2820   -3.0977    0.8572 H   0  0  0  0  0  0  0  0  0  0  0  0
    0.8044   -2.4917    2.5679 C   0  0  0  0  0  0  0  0  0  0  0  0
    0.0615   -1.6689    2.6085 H   0  0  0  0  0  0  0  0  0  0  0  0
    1.7720   -2.1078    2.9330 H   0  0  0  0  0  0  0  0  0  0  0  0
    0.4706   -3.2828    3.2697 H   0  0  0  0  0  0  0  0  0  0  0  0
    1.4707   -2.7325   -1.7860 C   0  0  0  0  0  0  0  0  0  0  0  0
    2.2367   -2.0996   -2.2795 H   0  0  0  0  0  0  0  0  0  0  0  0
    0.2124   -2.7078   -2.6654 C   0  0  0  0  0  0  0  0  0  0  0  0
    0.4302   -3.1768   -3.6465 H   0  0  0  0  0  0  0  0  0  0  0  0
   -0.1308   -1.6698   -2.8495 H   0  0  0  0  0  0  0  0  0  0  0  0
   -0.6306   -3.2649   -2.2091 H   0  0  0  0  0  0  0  0  0  0  0  0
    2.0486   -4.1421   -1.6181 C   0  0  0  0  0  0  0  0  0  0  0  0
    1.3095   -4.8524   -1.1994 H   0  0  0  0  0  0  0  0  0  0  0  0
    2.9486   -4.1586   -0.9749 H   0  0  0  0  0  0  0  0  0  0  0  0
    2.3474   -4.5337   -2.6118 H   0  0  0  0  0  0  0  0  0  0  0  0
    1.1535   -1.7915   -0.1792 P   0  0  0  0  0  2  0  0  0  0  0  0
  1  7  1  0  0  0  0
  2  1  1  0  0  0  0
  3  6  1  0  0  0  0
  3  1  1  0  0  0  0
  3  4  1  0  0  0  0
  5  3  1  0  0  0  0
  7  8  1  0  0  0  0
  7  9  1  0  0  0  0
  7 10  1  0  0  0  0
 11 17  1  0  0  0  0
 11 21  1  0  0  0  0
 12 11  1  0  0  0  0
 13 16  1  0  0  0  0
 13 11  1  0  0  0  0
 14 13  1  0  0  0  0
 15 13  1  0  0  0  0
 17 18  1  0  0  0  0
 17 19  1  0  0  0  0
 20 17  1  0  0  0  0
 21  1  1  0  0  0  0
M  END
