1
 OpenBabel05122313063D

 25 24  0  0  0  0  0  0  0  0999 V2000
    1.3420    0.1369   -0.1718 P   0  0  0  0  0  0  0  0  0  0  0  0
    2.6389   -1.7215    0.0055 Si  0  0  0  0  0  0  0  0  0  0  0  0
    2.3560    2.7614    0.0646 N   0  0  0  0  0  0  0  0  0  0  0  0
    1.8100   -3.0518   -1.0476 C   0  0  0  0  0  0  0  0  0  0  0  0
    2.4158   -3.9816   -1.0240 H   0  0  0  0  0  0  0  0  0  0  0  0
    1.7029   -2.7301   -2.1025 H   0  0  0  0  0  0  0  0  0  0  0  0
    0.8013   -3.2977   -0.6612 H   0  0  0  0  0  0  0  0  0  0  0  0
    2.7308   -2.2728    1.8119 C   0  0  0  0  0  0  0  0  0  0  0  0
    3.3706   -3.1757    1.9065 H   0  0  0  0  0  0  0  0  0  0  0  0
    1.7246   -2.5239    2.2009 H   0  0  0  0  0  0  0  0  0  0  0  0
    3.1593   -1.4737    2.4495 H   0  0  0  0  0  0  0  0  0  0  0  0
    4.3825   -1.3596   -0.6462 C   0  0  0  0  0  0  0  0  0  0  0  0
    4.9403   -0.6584    0.0077 H   0  0  0  0  0  0  0  0  0  0  0  0
    4.3573   -0.9428   -1.6729 H   0  0  0  0  0  0  0  0  0  0  0  0
    4.9602   -2.3072   -0.6750 H   0  0  0  0  0  0  0  0  0  0  0  0
    2.4964    1.4190   -0.0422 C   0  0  0  0  0  0  0  0  0  0  0  0
    3.5539    1.1087   -0.0989 H   0  0  0  0  0  0  0  0  0  0  0  0
    3.4980    3.6409   -0.1183 C   0  0  0  0  0  0  0  0  0  0  0  0
    3.5283    4.4081    0.6841 H   0  0  0  0  0  0  0  0  0  0  0  0
    3.4493    4.1709   -1.0967 H   0  0  0  0  0  0  0  0  0  0  0  0
    4.4361    3.0563   -0.0852 H   0  0  0  0  0  0  0  0  0  0  0  0
    1.0598    3.4081    0.1380 C   0  0  0  0  0  0  0  0  0  0  0  0
    0.6744    3.6810   -0.8696 H   0  0  0  0  0  0  0  0  0  0  0  0
    1.1390    4.3300    0.7475 H   0  0  0  0  0  0  0  0  0  0  0  0
    0.3310    2.7269    0.6114 H   0  0  0  0  0  0  0  0  0  0  0  0
  1 16  2  0  0  0  0
  1  2  1  0  0  0  0
  2  8  1  0  0  0  0
  3 22  1  0  0  0  0
  4  5  1  0  0  0  0
  4  7  1  0  0  0  0
  4  2  1  0  0  0  0
  6  4  1  0  0  0  0
  8  9  1  0  0  0  0
  8 10  1  0  0  0  0
  8 11  1  0  0  0  0
 12  2  1  0  0  0  0
 12 13  1  0  0  0  0
 14 12  1  0  0  0  0
 15 12  1  0  0  0  0
 16  3  1  0  0  0  0
 17 16  1  0  0  0  0
 18 21  1  0  0  0  0
 18  3  1  0  0  0  0
 18 19  1  0  0  0  0
 20 18  1  0  0  0  0
 22 25  1  0  0  0  0
 22 24  1  0  0  0  0
 23 22  1  0  0  0  0
M  END
