1
 OpenBabel05122313063D

 52 54  0  0  0  0  0  0  0  0999 V2000
   -1.1197    0.3280   -0.5946 P   0  0  0  0  0  0  0  0  0  0  0  0
   -2.4057   -0.4495   -1.7380 C   0  0  0  0  0  0  0  0  0  0  0  0
   -3.0808    0.3822   -2.0366 H   0  0  0  0  0  0  0  0  0  0  0  0
   -1.8667   -0.7874   -2.6654 H   0  0  0  0  0  0  0  0  0  0  0  0
   -3.2065   -1.4807   -1.1237 N   0  0  0  0  0  0  0  0  0  0  0  0
   -4.4170   -1.8015   -1.8748 C   0  0  0  0  0  0  0  0  0  0  0  0
   -4.1740   -2.2444   -2.8782 H   0  0  0  0  0  0  0  0  0  0  0  0
   -4.9981   -0.8707   -2.0536 H   0  0  0  0  0  0  0  0  0  0  0  0
   -5.2669   -2.7953   -1.0795 C   0  0  0  0  0  0  0  0  0  0  0  0
   -5.6291   -2.2923   -0.1466 H   0  0  0  0  0  0  0  0  0  0  0  0
   -6.1516   -3.1046   -1.6724 H   0  0  0  0  0  0  0  0  0  0  0  0
   -4.5484   -3.9699   -0.7602 O   0  0  0  0  0  0  0  0  0  0  0  0
   -3.3731   -3.6536   -0.0222 C   0  0  0  0  0  0  0  0  0  0  0  0
   -2.8461   -4.6069    0.1771 H   0  0  0  0  0  0  0  0  0  0  0  0
   -3.6375   -3.1910    0.9602 H   0  0  0  0  0  0  0  0  0  0  0  0
   -2.4712   -2.6982   -0.7915 C   0  0  0  0  0  0  0  0  0  0  0  0
   -1.5880   -2.4426   -0.1680 H   0  0  0  0  0  0  0  0  0  0  0  0
   -2.1065   -3.2085   -1.7231 H   0  0  0  0  0  0  0  0  0  0  0  0
   -2.2353    0.7812    0.8531 C   0  0  0  0  0  0  0  0  0  0  0  0
   -2.5648   -0.1996    1.2559 H   0  0  0  0  0  0  0  0  0  0  0  0
   -1.5852    1.2230    1.6348 H   0  0  0  0  0  0  0  0  0  0  0  0
   -3.3480    1.6414    0.5127 N   0  0  0  0  0  0  0  0  0  0  0  0
   -3.2852    2.9888    1.0638 C   0  0  0  0  0  0  0  0  0  0  0  0
   -2.2881    3.4304    0.8519 H   0  0  0  0  0  0  0  0  0  0  0  0
   -3.4181    2.9865    2.1787 H   0  0  0  0  0  0  0  0  0  0  0  0
   -4.3771    3.8505    0.4294 C   0  0  0  0  0  0  0  0  0  0  0  0
   -4.4054    4.8543    0.8995 H   0  0  0  0  0  0  0  0  0  0  0  0
   -4.1494    3.9777   -0.6602 H   0  0  0  0  0  0  0  0  0  0  0  0
   -5.6629    3.2811    0.6002 O   0  0  0  0  0  0  0  0  0  0  0  0
   -5.7181    1.9691    0.0590 C   0  0  0  0  0  0  0  0  0  0  0  0
   -5.5515    2.0000   -1.0481 H   0  0  0  0  0  0  0  0  0  0  0  0
   -6.7414    1.5880    0.2499 H   0  0  0  0  0  0  0  0  0  0  0  0
   -4.6731    1.0568    0.6930 C   0  0  0  0  0  0  0  0  0  0  0  0
   -4.9182    0.9237    1.7800 H   0  0  0  0  0  0  0  0  0  0  0  0
   -4.6826    0.0538    0.2210 H   0  0  0  0  0  0  0  0  0  0  0  0
   -1.0134    1.9432   -1.5368 C   0  0  0  0  0  0  0  0  0  0  0  0
   -1.0124    1.7040   -2.6341 H   0  0  0  0  0  0  0  0  0  0  0  0
   -1.9728    2.4630   -1.3230 H   0  0  0  0  0  0  0  0  0  0  0  0
    0.1115    2.7736   -1.1500 N   0  0  0  0  0  0  0  0  0  0  0  0
    1.3612    2.3168   -1.7606 C   0  0  0  0  0  0  0  0  0  0  0  0
    1.2856    2.3509   -2.8815 H   0  0  0  0  0  0  0  0  0  0  0  0
    1.5300    1.2604   -1.4639 H   0  0  0  0  0  0  0  0  0  0  0  0
    2.5291    3.1896   -1.3157 C   0  0  0  0  0  0  0  0  0  0  0  0
    2.7031    3.0523   -0.2217 H   0  0  0  0  0  0  0  0  0  0  0  0
    3.4538    2.8968   -1.8517 H   0  0  0  0  0  0  0  0  0  0  0  0
    2.2977    4.5617   -1.6036 O   0  0  0  0  0  0  0  0  0  0  0  0
    1.1083    5.0024   -0.9742 C   0  0  0  0  0  0  0  0  0  0  0  0
    0.9791    6.0719   -1.2356 H   0  0  0  0  0  0  0  0  0  0  0  0
    1.2002    4.9191    0.1385 H   0  0  0  0  0  0  0  0  0  0  0  0
   -0.1035    4.1920   -1.4323 C   0  0  0  0  0  0  0  0  0  0  0  0
   -1.0135    4.5387   -0.8974 H   0  0  0  0  0  0  0  0  0  0  0  0
   -0.2677    4.3737   -2.5282 H   0  0  0  0  0  0  0  0  0  0  0  0
  1 19  1  0  0  0  0
  2  5  1  0  0  0  0
  2  1  1  0  0  0  0
  3  2  1  0  0  0  0
  4  2  1  0  0  0  0
  5 16  1  0  0  0  0
  6  5  1  0  0  0  0
  6  9  1  0  0  0  0
  7  6  1  0  0  0  0
  8  6  1  0  0  0  0
  9 12  1  0  0  0  0
  9 10  1  0  0  0  0
 11  9  1  0  0  0  0
 12 13  1  0  0  0  0
 13 14  1  0  0  0  0
 13 15  1  0  0  0  0
 16 17  1  0  0  0  0
 16 13  1  0  0  0  0
 18 16  1  0  0  0  0
 19 20  1  0  0  0  0
 19 21  1  0  0  0  0
 22 33  1  0  0  0  0
 22 19  1  0  0  0  0
 22 23  1  0  0  0  0
 23 25  1  0  0  0  0
 24 23  1  0  0  0  0
 26 29  1  0  0  0  0
 26 27  1  0  0  0  0
 26 23  1  0  0  0  0
 28 26  1  0  0  0  0
 30 32  1  0  0  0  0
 30 29  1  0  0  0  0
 30 33  1  0  0  0  0
 31 30  1  0  0  0  0
 33 34  1  0  0  0  0
 35 33  1  0  0  0  0
 36 38  1  0  0  0  0
 36 39  1  0  0  0  0
 36  1  1  0  0  0  0
 37 36  1  0  0  0  0
 40 42  1  0  0  0  0
 40 43  1  0  0  0  0
 40 39  1  0  0  0  0
 41 40  1  0  0  0  0
 43 44  1  0  0  0  0
 45 43  1  0  0  0  0
 46 43  1  0  0  0  0
 46 47  1  0  0  0  0
 47 49  1  0  0  0  0
 48 47  1  0  0  0  0
 50 39  1  0  0  0  0
 50 47  1  0  0  0  0
 50 51  1  0  0  0  0
 52 50  1  0  0  0  0
M  END
