1
 OpenBabel05122313063D

 38 39  0  0  0  0  0  0  0  0999 V2000
    1.2727   -0.9132    0.5734 P   0  0  1  0  0  0  0  0  0  0  0  0
    5.4017    0.1733    0.1490 O   0  0  0  0  0  0  0  0  0  0  0  0
    1.7777    0.4369    1.3818 O   0  0  0  0  0  0  0  0  0  0  0  0
    1.1597    1.2039    1.1790 H   0  0  0  0  0  0  0  0  0  0  0  0
    3.1405    0.1904   -1.3527 N   0  0  0  0  0  0  0  0  0  0  0  0
    2.2043   -1.7687   -1.9129 N   0  0  0  0  0  0  0  0  0  0  0  0
    3.6666   -0.1788   -2.5773 C   0  0  0  0  0  0  0  0  0  0  0  0
    4.4067    0.4511   -3.0815 H   0  0  0  0  0  0  0  0  0  0  0  0
    2.2515   -0.8232   -0.9799 C   0  0  0  0  0  0  0  0  0  0  0  0
    3.4069   -1.6580    2.2110 C   0  0  0  0  0  0  0  0  0  0  0  0
    3.9118   -2.4470    2.8073 H   0  0  0  0  0  0  0  0  0  0  0  0
    3.2081   -0.7916    2.8683 H   0  0  0  0  0  0  0  0  0  0  0  0
    4.0992   -1.3365    1.4091 H   0  0  0  0  0  0  0  0  0  0  0  0
    3.5425    1.3757   -0.6578 C   0  0  0  0  0  0  0  0  0  0  0  0
    4.7210    1.3466    0.1312 C   0  0  0  0  0  0  0  0  0  0  0  0
    3.0723   -1.3906   -2.9004 C   0  0  0  0  0  0  0  0  0  0  0  0
    3.2315   -2.0032   -3.7972 H   0  0  0  0  0  0  0  0  0  0  0  0
    3.1838    3.7106   -0.0831 C   0  0  0  0  0  0  0  0  0  0  0  0
    2.5872    4.6303   -0.1689 H   0  0  0  0  0  0  0  0  0  0  0  0
    5.1008    2.5092    0.8291 C   0  0  0  0  0  0  0  0  0  0  0  0
    5.9986    2.5077    1.4609 H   0  0  0  0  0  0  0  0  0  0  0  0
    2.4588   -3.4943    0.7855 C   0  0  0  0  0  0  0  0  0  0  0  0
    2.8861   -4.2601    1.4671 H   0  0  0  0  0  0  0  0  0  0  0  0
    3.2082   -3.2671    0.0042 H   0  0  0  0  0  0  0  0  0  0  0  0
    1.5626   -3.9161    0.2931 H   0  0  0  0  0  0  0  0  0  0  0  0
    4.3283    3.6772    0.7246 C   0  0  0  0  0  0  0  0  0  0  0  0
    4.6368    4.5738    1.2832 H   0  0  0  0  0  0  0  0  0  0  0  0
    6.5735    0.0816    0.9429 C   0  0  0  0  0  0  0  0  0  0  0  0
    6.9579   -0.9458    0.8081 H   0  0  0  0  0  0  0  0  0  0  0  0
    6.3520    0.2487    2.0199 H   0  0  0  0  0  0  0  0  0  0  0  0
    7.3486    0.8080    0.6132 H   0  0  0  0  0  0  0  0  0  0  0  0
    2.8018    2.5550   -0.7814 C   0  0  0  0  0  0  0  0  0  0  0  0
    1.9047    2.5414   -1.4155 H   0  0  0  0  0  0  0  0  0  0  0  0
    2.1155   -2.2558    1.6263 C   0  0  0  0  0  0  0  0  0  0  0  0
    1.1259   -2.6214    2.7454 C   0  0  0  0  0  0  0  0  0  0  0  0
    1.6029   -3.3621    3.4210 H   0  0  0  0  0  0  0  0  0  0  0  0
    0.2016   -3.0708    2.3309 H   0  0  0  0  0  0  0  0  0  0  0  0
    0.8512   -1.7374    3.3543 H   0  0  0  0  0  0  0  0  0  0  0  0
  1  3  1  1  0  0  0
  1 34  1  0  0  0  0
  2 28  1  0  0  0  0
  4  3  1  0  0  0  0
  5  9  1  0  0  0  0
  5 14  1  0  0  0  0
  6  9  2  0  0  0  0
  7  5  1  0  0  0  0
  8  7  1  0  0  0  0
  9  1  1  0  0  0  0
 10 11  1  0  0  0  0
 10 12  1  0  0  0  0
 13 10  1  0  0  0  0
 14 15  1  0  0  0  0
 15  2  1  0  0  0  0
 15 20  2  0  0  0  0
 16  7  2  0  0  0  0
 16  6  1  0  0  0  0
 17 16  1  0  0  0  0
 18 26  2  0  0  0  0
 19 18  1  0  0  0  0
 20 21  1  0  0  0  0
 22 23  1  0  0  0  0
 22 34  1  0  0  0  0
 24 22  1  0  0  0  0
 25 22  1  0  0  0  0
 26 20  1  0  0  0  0
 26 27  1  0  0  0  0
 28 30  1  0  0  0  0
 29 28  1  0  0  0  0
 31 28  1  0  0  0  0
 32 14  2  0  0  0  0
 32 18  1  0  0  0  0
 33 32  1  0  0  0  0
 34 10  1  0  0  0  0
 34 35  1  0  0  0  0
 35 38  1  0  0  0  0
 35 36  1  0  0  0  0
 37 35  1  0  0  0  0
M  END
