1
 OpenBabel05122313063D

 66 72  0  0  0  0  0  0  0  0999 V2000
    0.9165    0.2819    0.9710 P   0  0  0  0  0  0  0  0  0  0  0  0
   -0.8286   -0.1625    1.3958 C   0  0  0  0  0  0  0  0  0  0  0  0
   -1.1493   -0.4582    2.7552 C   0  0  0  0  0  0  0  0  0  0  0  0
   -0.3381   -0.5609    3.4904 H   0  0  0  0  0  0  0  0  0  0  0  0
   -2.4640   -0.6195    3.1543 C   0  0  0  0  0  0  0  0  0  0  0  0
   -2.6996   -0.8560    4.2036 H   0  0  0  0  0  0  0  0  0  0  0  0
   -3.5305   -0.4675    2.2238 C   0  0  0  0  0  0  0  0  0  0  0  0
   -4.8963   -0.5931    2.6132 C   0  0  0  0  0  0  0  0  0  0  0  0
   -5.1253   -0.8168    3.6667 H   0  0  0  0  0  0  0  0  0  0  0  0
   -5.9166   -0.4356    1.6879 C   0  0  0  0  0  0  0  0  0  0  0  0
   -6.9668   -0.5337    2.0015 H   0  0  0  0  0  0  0  0  0  0  0  0
   -5.6096   -0.1443    0.3313 C   0  0  0  0  0  0  0  0  0  0  0  0
   -6.4245   -0.0142   -0.3967 H   0  0  0  0  0  0  0  0  0  0  0  0
   -4.2910   -0.0229   -0.0806 C   0  0  0  0  0  0  0  0  0  0  0  0
   -4.0524    0.1998   -1.1307 H   0  0  0  0  0  0  0  0  0  0  0  0
   -3.2163   -0.1829    0.8461 C   0  0  0  0  0  0  0  0  0  0  0  0
   -1.8435   -0.0734    0.4314 C   0  0  0  0  0  0  0  0  0  0  0  0
   -1.5255    0.1634   -1.0120 C   0  0  0  0  0  0  0  0  0  0  0  0
   -1.4667    1.5204   -1.4826 C   0  0  0  0  0  0  0  0  0  0  0  0
   -1.7994    2.6291   -0.6463 C   0  0  0  0  0  0  0  0  0  0  0  0
   -2.1405    2.4389    0.3809 H   0  0  0  0  0  0  0  0  0  0  0  0
   -1.6901    3.9314   -1.1085 C   0  0  0  0  0  0  0  0  0  0  0  0
   -1.9434    4.7693   -0.4419 H   0  0  0  0  0  0  0  0  0  0  0  0
   -1.2443    4.1903   -2.4320 C   0  0  0  0  0  0  0  0  0  0  0  0
   -1.1539    5.2283   -2.7866 H   0  0  0  0  0  0  0  0  0  0  0  0
   -0.9302    3.1358   -3.2759 C   0  0  0  0  0  0  0  0  0  0  0  0
   -0.5913    3.3242   -4.3065 H   0  0  0  0  0  0  0  0  0  0  0  0
   -1.0370    1.7851   -2.8329 C   0  0  0  0  0  0  0  0  0  0  0  0
   -0.7280    0.6841   -3.6798 C   0  0  0  0  0  0  0  0  0  0  0  0
   -0.3945    0.8800   -4.7101 H   0  0  0  0  0  0  0  0  0  0  0  0
   -0.8275   -0.6139   -3.2180 C   0  0  0  0  0  0  0  0  0  0  0  0
   -0.5769   -1.4522   -3.8829 H   0  0  0  0  0  0  0  0  0  0  0  0
   -1.2200   -0.9075   -1.8748 C   0  0  0  0  0  0  0  0  0  0  0  0
   -1.1952   -2.3308   -1.4286 C   0  0  0  0  0  0  0  0  0  0  0  0
   -0.0750   -3.1355   -1.7483 C   0  0  0  0  0  0  0  0  0  0  0  0
    0.7620   -2.7047   -2.3203 H   0  0  0  0  0  0  0  0  0  0  0  0
   -0.0018   -4.4678   -1.3163 C   0  0  0  0  0  0  0  0  0  0  0  0
    0.8880   -5.0663   -1.5646 H   0  0  0  0  0  0  0  0  0  0  0  0
   -1.0506   -5.0320   -0.5733 C   0  0  0  0  0  0  0  0  0  0  0  0
   -0.9922   -6.0777   -0.2344 H   0  0  0  0  0  0  0  0  0  0  0  0
   -2.1818   -4.2547   -0.2794 C   0  0  0  0  0  0  0  0  0  0  0  0
   -3.0231   -4.6910    0.2808 H   0  0  0  0  0  0  0  0  0  0  0  0
   -2.2543   -2.9201   -0.7026 C   0  0  0  0  0  0  0  0  0  0  0  0
   -3.1591   -2.3381   -0.4869 H   0  0  0  0  0  0  0  0  0  0  0  0
    1.8824   -0.3755    2.3888 C   0  0  0  0  0  0  0  0  0  0  0  0
    2.0648   -1.7747    2.4455 C   0  0  0  0  0  0  0  0  0  0  0  0
    1.6342   -2.4152    1.6587 H   0  0  0  0  0  0  0  0  0  0  0  0
    2.7974   -2.3434    3.4949 C   0  0  0  0  0  0  0  0  0  0  0  0
    2.9338   -3.4346    3.5355 H   0  0  0  0  0  0  0  0  0  0  0  0
    3.3676   -1.5225    4.4834 C   0  0  0  0  0  0  0  0  0  0  0  0
    3.9508   -1.9706    5.3021 H   0  0  0  0  0  0  0  0  0  0  0  0
    3.2015   -0.1312    4.4190 C   0  0  0  0  0  0  0  0  0  0  0  0
    3.6551    0.5156    5.1853 H   0  0  0  0  0  0  0  0  0  0  0  0
    2.4582    0.4456    3.3757 C   0  0  0  0  0  0  0  0  0  0  0  0
    2.3316    1.5372    3.3275 H   0  0  0  0  0  0  0  0  0  0  0  0
    0.9151    2.1110    1.1502 C   0  0  0  0  0  0  0  0  0  0  0  0
    0.1925    2.7467    2.1820 C   0  0  0  0  0  0  0  0  0  0  0  0
   -0.3810    2.1473    2.9055 H   0  0  0  0  0  0  0  0  0  0  0  0
    0.1866    4.1455    2.2737 C   0  0  0  0  0  0  0  0  0  0  0  0
   -0.3798    4.6372    3.0791 H   0  0  0  0  0  0  0  0  0  0  0  0
    0.8908    4.9167    1.3336 C   0  0  0  0  0  0  0  0  0  0  0  0
    0.8751    6.0152    1.4016 H   0  0  0  0  0  0  0  0  0  0  0  0
    1.6053    4.2869    0.3033 C   0  0  0  0  0  0  0  0  0  0  0  0
    2.1468    4.8867   -0.4432 H   0  0  0  0  0  0  0  0  0  0  0  0
    1.6197    2.8876    0.2104 C   0  0  0  0  0  0  0  0  0  0  0  0
    2.1574    2.3845   -0.6093 H   0  0  0  0  0  0  0  0  0  0  0  0
  1 56  1  0  0  0  0
  1  2  1  0  0  0  0
  1 45  1  0  0  0  0
  2  3  1  0  0  0  0
  3  5  2  0  0  0  0
  3  4  1  0  0  0  0
  5  6  1  0  0  0  0
  7  8  1  0  0  0  0
  7  5  1  0  0  0  0
  8  9  1  0  0  0  0
 10 11  1  0  0  0  0
 10  8  2  0  0  0  0
 12 10  1  0  0  0  0
 13 12  1  0  0  0  0
 14 12  2  0  0  0  0
 14 16  1  0  0  0  0
 15 14  1  0  0  0  0
 16  7  2  0  0  0  0
 17 16  1  0  0  0  0
 17  2  2  0  0  0  0
 18 17  1  0  0  0  0
 19 18  1  0  0  0  0
 19 20  1  0  0  0  0
 20 21  1  0  0  0  0
 22 20  2  0  0  0  0
 22 23  1  0  0  0  0
 24 22  1  0  0  0  0
 25 24  1  0  0  0  0
 26 28  1  0  0  0  0
 26 24  2  0  0  0  0
 27 26  1  0  0  0  0
 28 19  2  0  0  0  0
 29 31  2  0  0  0  0
 29 28  1  0  0  0  0
 30 29  1  0  0  0  0
 31 33  1  0  0  0  0
 32 31  1  0  0  0  0
 33 34  1  0  0  0  0
 33 18  2  0  0  0  0
 34 43  1  0  0  0  0
 35 34  2  0  0  0  0
 35 37  1  0  0  0  0
 36 35  1  0  0  0  0
 37 39  2  0  0  0  0
 38 37  1  0  0  0  0
 39 41  1  0  0  0  0
 39 40  1  0  0  0  0
 41 42  1  0  0  0  0
 43 44  1  0  0  0  0
 43 41  2  0  0  0  0
 45 46  2  0  0  0  0
 45 54  1  0  0  0  0
 46 48  1  0  0  0  0
 47 46  1  0  0  0  0
 48 49  1  0  0  0  0
 48 50  2  0  0  0  0
 50 51  1  0  0  0  0
 52 50  1  0  0  0  0
 52 53  1  0  0  0  0
 54 52  2  0  0  0  0
 55 54  1  0  0  0  0
 56 57  1  0  0  0  0
 57 59  2  0  0  0  0
 57 58  1  0  0  0  0
 59 60  1  0  0  0  0
 61 62  1  0  0  0  0
 61 59  1  0  0  0  0
 63 61  2  0  0  0  0
 64 63  1  0  0  0  0
 65 63  1  0  0  0  0
 65 56  2  0  0  0  0
 66 65  1  0  0  0  0
M  END
