1
 OpenBabel05122313063D

 52 54  0  0  1  0  0  0  0  0999 V2000
    0.5435    1.4999    0.3493 P   0  0  0  0  0  0  0  0  0  0  0  0
    2.1008    0.4565   -0.1824 C   0  0  2  0  0  0  0  0  0  0  0  0
    3.3537    1.2753   -0.5808 C   0  0  0  0  0  0  0  0  0  0  0  0
    3.1280    1.9697   -1.4118 H   0  0  0  0  0  0  0  0  0  0  0  0
    3.7017    1.8898    0.2744 H   0  0  0  0  0  0  0  0  0  0  0  0
    4.4934    0.3331   -1.0343 C   0  0  2  0  0  0  0  0  0  0  0  0
    5.3653    0.9592   -1.3210 H   0  0  0  0  0  0  0  0  0  0  0  0
    4.0272   -0.4952   -2.2459 C   0  0  0  0  0  0  0  0  0  0  0  0
    4.8536   -1.1476   -2.6007 H   0  0  0  0  0  0  0  0  0  0  0  0
    3.7621    0.1774   -3.0907 H   0  0  0  0  0  0  0  0  0  0  0  0
    2.8104   -1.3473   -1.8420 C   0  0  2  0  0  0  0  0  0  0  0  0
    2.4555   -1.9392   -2.7122 H   0  0  0  0  0  0  0  0  0  0  0  0
    1.6630   -0.4228   -1.3901 C   0  0  0  0  0  0  0  0  0  0  0  0
    0.7841   -1.0332   -1.0984 H   0  0  0  0  0  0  0  0  0  0  0  0
    1.3422    0.2051   -2.2413 H   0  0  0  0  0  0  0  0  0  0  0  0
    2.5137   -0.5106    0.9611 C   0  0  0  0  0  0  0  0  0  0  0  0
    2.8646    0.0604    1.8416 H   0  0  0  0  0  0  0  0  0  0  0  0
    1.6502   -1.1227    1.2755 H   0  0  0  0  0  0  0  0  0  0  0  0
    3.6546   -1.4471    0.5092 C   0  0  2  0  0  0  0  0  0  0  0  0
    3.9070   -2.1132    1.3612 H   0  0  0  0  0  0  0  0  0  0  0  0
    4.8826   -0.6097    0.1164 C   0  0  0  0  0  0  0  0  0  0  0  0
    5.7198   -1.2702   -0.1958 H   0  0  0  0  0  0  0  0  0  0  0  0
    5.2423   -0.0215    0.9886 H   0  0  0  0  0  0  0  0  0  0  0  0
    3.1917   -2.2913   -0.6897 C   0  0  0  0  0  0  0  0  0  0  0  0
    4.0018   -2.9818   -1.0088 H   0  0  0  0  0  0  0  0  0  0  0  0
    2.3209   -2.9168   -0.4043 H   0  0  0  0  0  0  0  0  0  0  0  0
    0.7367    2.0753    2.1902 C   0  0  0  0  0  0  0  0  0  0  0  0
   -0.3005    3.1746    2.4888 C   0  0  0  0  0  0  0  0  0  0  0  0
   -0.3222    3.3402    3.5865 H   0  0  0  0  0  0  0  0  0  0  0  0
   -1.3203    2.8760    2.1768 H   0  0  0  0  0  0  0  0  0  0  0  0
   -0.0522    4.1431    2.0172 H   0  0  0  0  0  0  0  0  0  0  0  0
    2.1387    2.6019    2.5480 C   0  0  0  0  0  0  0  0  0  0  0  0
    2.1278    2.9329    3.6084 H   0  0  0  0  0  0  0  0  0  0  0  0
    2.4409    3.4699    1.9359 H   0  0  0  0  0  0  0  0  0  0  0  0
    2.9223    1.8276    2.4600 H   0  0  0  0  0  0  0  0  0  0  0  0
    0.3782    0.8789    3.0983 C   0  0  0  0  0  0  0  0  0  0  0  0
    0.4624    1.2062    4.1564 H   0  0  0  0  0  0  0  0  0  0  0  0
    1.0317    0.0017    2.9612 H   0  0  0  0  0  0  0  0  0  0  0  0
   -0.6653    0.5452    2.9250 H   0  0  0  0  0  0  0  0  0  0  0  0
    0.4563    3.0757   -0.7899 C   0  0  0  0  0  0  0  0  0  0  0  0
    1.5577    4.1023   -0.4533 C   0  0  0  0  0  0  0  0  0  0  0  0
    1.5460    4.8887   -1.2375 H   0  0  0  0  0  0  0  0  0  0  0  0
    2.5760    3.6789   -0.4253 H   0  0  0  0  0  0  0  0  0  0  0  0
    1.3647    4.6105    0.5102 H   0  0  0  0  0  0  0  0  0  0  0  0
   -0.9027    3.8026   -0.6876 C   0  0  0  0  0  0  0  0  0  0  0  0
   -0.8133    4.7460   -1.2673 H   0  0  0  0  0  0  0  0  0  0  0  0
   -1.1927    4.0740    0.3395 H   0  0  0  0  0  0  0  0  0  0  0  0
   -1.7217    3.2154   -1.1311 H   0  0  0  0  0  0  0  0  0  0  0  0
    0.5855    2.6285   -2.2598 C   0  0  0  0  0  0  0  0  0  0  0  0
    0.3788    3.5069   -2.9066 H   0  0  0  0  0  0  0  0  0  0  0  0
   -0.1605    1.8512   -2.5120 H   0  0  0  0  0  0  0  0  0  0  0  0
    1.5921    2.2576   -2.5232 H   0  0  0  0  0  0  0  0  0  0  0  0
  1 27  1  0  0  0  0
  2  1  1  1  0  0  0
  2 16  1  0  0  0  0
  3  2  1  0  0  0  0
  3  5  1  0  0  0  0
  4  3  1  0  0  0  0
  6  7  1  6  0  0  0
  6  3  1  0  0  0  0
  6 21  1  0  0  0  0
  8 11  1  0  0  0  0
  8  6  1  0  0  0  0
  9  8  1  0  0  0  0
 10  8  1  0  0  0  0
 11 12  1  6  0  0  0
 11 13  1  0  0  0  0
 11 24  1  0  0  0  0
 13 14  1  0  0  0  0
 13  2  1  0  0  0  0
 15 13  1  0  0  0  0
 16 18  1  0  0  0  0
 16 17  1  0  0  0  0
 19 16  1  0  0  0  0
 19 20  1  1  0  0  0
 21 19  1  0  0  0  0
 21 23  1  0  0  0  0
 22 21  1  0  0  0  0
 24 26  1  0  0  0  0
 24 19  1  0  0  0  0
 25 24  1  0  0  0  0
 27 28  1  0  0  0  0
 27 32  1  0  0  0  0
 27 36  1  0  0  0  0
 28 29  1  0  0  0  0
 30 28  1  0  0  0  0
 31 28  1  0  0  0  0
 32 33  1  0  0  0  0
 34 32  1  0  0  0  0
 35 32  1  0  0  0  0
 36 37  1  0  0  0  0
 38 36  1  0  0  0  0
 39 36  1  0  0  0  0
 40 45  1  0  0  0  0
 40 41  1  0  0  0  0
 40  1  1  0  0  0  0
 41 43  1  0  0  0  0
 41 44  1  0  0  0  0
 42 41  1  0  0  0  0
 45 47  1  0  0  0  0
 46 45  1  0  0  0  0
 48 45  1  0  0  0  0
 49 40  1  0  0  0  0
 50 49  1  0  0  0  0
 51 49  1  0  0  0  0
 52 49  1  0  0  0  0
M  END
