17
 OpenBabel05122313063D

 39 41  0  0  0  0  0  0  0  0999 V2000
   -0.3471    1.1507    2.7972 O   0  0  0  0  0  0  0  0  0  0  0  0
   -0.2188    0.2548    2.3153 H   0  0  0  0  0  0  0  0  0  0  0  0
   -1.3824    1.9095    2.3458 C   0  0  0  0  0  0  0  0  0  0  0  0
   -1.2093    3.3044    2.5666 C   0  0  0  0  0  0  0  0  0  0  0  0
   -0.0480    3.7167    3.1490 O   0  0  0  0  0  0  0  0  0  0  0  0
    0.4213    2.8807    3.3739 H   0  0  0  0  0  0  0  0  0  0  0  0
   -2.1938    4.2205    2.1827 C   0  0  0  0  0  0  0  0  0  0  0  0
   -2.0206    5.2913    2.3630 H   0  0  0  0  0  0  0  0  0  0  0  0
   -3.3791    3.7498    1.5922 C   0  0  0  0  0  0  0  0  0  0  0  0
   -4.1639    4.4622    1.2981 H   0  0  0  0  0  0  0  0  0  0  0  0
   -3.5672    2.3786    1.3866 C   0  0  0  0  0  0  0  0  0  0  0  0
   -4.5001    2.0122    0.9330 H   0  0  0  0  0  0  0  0  0  0  0  0
   -2.5769    1.4373    1.7565 C   0  0  0  0  0  0  0  0  0  0  0  0
   -2.7952   -0.0298    1.5068 C   0  0  0  0  0  0  0  0  0  0  0  0
   -3.8717   -0.2810    1.5812 H   0  0  0  0  0  0  0  0  0  0  0  0
   -2.2305   -0.6618    2.2218 H   0  0  0  0  0  0  0  0  0  0  0  0
   -2.2044   -0.5648   -0.1922 P   0  0  0  0  0  0  0  0  0  0  0  0
   -2.5267   -2.3717   -0.2398 C   0  0  0  0  0  0  0  0  0  0  0  0
   -3.4652   -3.0163    0.5934 C   0  0  0  0  0  0  0  0  0  0  0  0
   -4.0845   -2.4355    1.2924 H   0  0  0  0  0  0  0  0  0  0  0  0
   -3.6097   -4.4117    0.5438 C   0  0  0  0  0  0  0  0  0  0  0  0
   -4.3348   -4.9079    1.2063 H   0  0  0  0  0  0  0  0  0  0  0  0
   -2.8276   -5.1713   -0.3390 C   0  0  0  0  0  0  0  0  0  0  0  0
   -2.9367   -6.2660   -0.3670 H   0  0  0  0  0  0  0  0  0  0  0  0
   -1.8956   -4.5358   -1.1749 C   0  0  0  0  0  0  0  0  0  0  0  0
   -1.2711   -5.1299   -1.8587 H   0  0  0  0  0  0  0  0  0  0  0  0
   -1.7398   -3.1450   -1.1215 C   0  0  0  0  0  0  0  0  0  0  0  0
   -0.9833   -2.6386   -1.7428 H   0  0  0  0  0  0  0  0  0  0  0  0
   -3.4169    0.1923   -1.3376 C   0  0  0  0  0  0  0  0  0  0  0  0
   -3.2173    1.5352   -1.7218 C   0  0  0  0  0  0  0  0  0  0  0  0
   -2.3328    2.0807   -1.3601 H   0  0  0  0  0  0  0  0  0  0  0  0
   -4.1469    2.1711   -2.5566 C   0  0  0  0  0  0  0  0  0  0  0  0
   -3.9863    3.2197   -2.8487 H   0  0  0  0  0  0  0  0  0  0  0  0
   -5.2716    1.4712   -3.0220 C   0  0  0  0  0  0  0  0  0  0  0  0
   -5.9954    1.9697   -3.6845 H   0  0  0  0  0  0  0  0  0  0  0  0
   -5.4681    0.1317   -2.6488 C   0  0  0  0  0  0  0  0  0  0  0  0
   -6.3446   -0.4220   -3.0185 H   0  0  0  0  0  0  0  0  0  0  0  0
   -4.5465   -0.5083   -1.8064 C   0  0  0  0  0  0  0  0  0  0  0  0
   -4.7012   -1.5590   -1.5177 H   0  0  0  0  0  0  0  0  0  0  0  0
  2  1  1  0  0  0  0
  3  4  1  0  0  0  0
  3  1  1  0  0  0  0
  4  5  1  0  0  0  0
  5  6  1  0  0  0  0
  7  8  1  0  0  0  0
  7  4  2  0  0  0  0
  9  7  1  0  0  0  0
 10  9  1  0  0  0  0
 11  9  2  0  0  0  0
 11 13  1  0  0  0  0
 12 11  1  0  0  0  0
 13  3  2  0  0  0  0
 14 15  1  0  0  0  0
 14 13  1  0  0  0  0
 14 16  1  0  0  0  0
 17 14  1  0  0  0  0
 18 17  1  0  0  0  0
 18 19  1  0  0  0  0
 19 20  1  0  0  0  0
 21 19  2  0  0  0  0
 21 22  1  0  0  0  0
 23 21  1  0  0  0  0
 24 23  1  0  0  0  0
 25 27  1  0  0  0  0
 25 23  2  0  0  0  0
 26 25  1  0  0  0  0
 27 18  2  0  0  0  0
 28 27  1  0  0  0  0
 29 17  1  0  0  0  0
 30 31  1  0  0  0  0
 30 29  1  0  0  0  0
 32 30  2  0  0  0  0
 33 32  1  0  0  0  0
 34 36  2  0  0  0  0
 34 32  1  0  0  0  0
 35 34  1  0  0  0  0
 36 38  1  0  0  0  0
 37 36  1  0  0  0  0
 38 39  1  0  0  0  0
 38 29  2  0  0  0  0
M  END
