3
 OpenBabel05122313063D

 43 45  0  0  1  0  0  0  0  0999 V2000
    1.2553    2.1395    0.1513 S   0  0  0  0  0  0  0  0  0  0  0  0
    0.8907    0.4016    2.6074 S   0  0  0  0  0  0  0  0  0  0  0  0
   -1.0346    0.2483    0.1730 P   0  0  0  0  0  0  0  0  0  0  0  0
    5.0385   -0.9452    1.4584 C   0  0  0  0  0  0  0  0  0  0  0  0
    5.4820   -1.5045    2.2960 H   0  0  0  0  0  0  0  0  0  0  0  0
   -4.7810   -0.4699    2.8473 C   0  0  0  0  0  0  0  0  0  0  0  0
   -5.6790   -0.6730    3.4501 H   0  0  0  0  0  0  0  0  0  0  0  0
   -1.5135    1.7165   -2.2353 C   0  0  0  0  0  0  0  0  0  0  0  0
   -1.1948    0.8187   -2.7798 H   0  0  0  0  0  0  0  0  0  0  0  0
    3.6190    3.4771    0.4288 C   0  0  0  0  0  0  0  0  0  0  0  0
    4.6110    3.5732    0.9134 H   0  0  0  0  0  0  0  0  0  0  0  0
    3.0228    4.3819    0.6621 H   0  0  0  0  0  0  0  0  0  0  0  0
    3.7854    3.4374   -0.6664 H   0  0  0  0  0  0  0  0  0  0  0  0
    4.2905    0.2139    1.7148 C   0  0  0  0  0  0  0  0  0  0  0  0
    4.1449    0.5609    2.7491 H   0  0  0  0  0  0  0  0  0  0  0  0
    4.6183   -0.6896   -0.9187 C   0  0  0  0  0  0  0  0  0  0  0  0
    4.7305   -1.0460   -1.9538 H   0  0  0  0  0  0  0  0  0  0  0  0
    3.7059    0.9366    0.6570 C   0  0  0  0  0  0  0  0  0  0  0  0
   -3.7615    0.3443    0.7939 C   0  0  0  0  0  0  0  0  0  0  0  0
   -3.8725    0.7750   -0.2119 H   0  0  0  0  0  0  0  0  0  0  0  0
   -4.9042    0.0811    1.5623 C   0  0  0  0  0  0  0  0  0  0  0  0
   -5.8984    0.3109    1.1500 H   0  0  0  0  0  0  0  0  0  0  0  0
   -2.4770    0.0559    1.3070 C   0  0  0  0  0  0  0  0  0  0  0  0
    5.2027   -1.4007    0.1424 C   0  0  0  0  0  0  0  0  0  0  0  0
    5.7770   -2.3179   -0.0575 H   0  0  0  0  0  0  0  0  0  0  0  0
    3.8779    0.4719   -0.6632 C   0  0  0  0  0  0  0  0  0  0  0  0
    3.4032    1.0089   -1.4986 H   0  0  0  0  0  0  0  0  0  0  0  0
   -1.8857    2.8660   -2.9503 C   0  0  0  0  0  0  0  0  0  0  0  0
   -1.8578    2.8536   -4.0502 H   0  0  0  0  0  0  0  0  0  0  0  0
   -1.5450    1.7168   -0.8292 C   0  0  0  0  0  0  0  0  0  0  0  0
   -1.9558    2.8846   -0.1454 C   0  0  0  0  0  0  0  0  0  0  0  0
   -1.9872    2.8915    0.9551 H   0  0  0  0  0  0  0  0  0  0  0  0
   -2.2900    4.0216   -2.2670 C   0  0  0  0  0  0  0  0  0  0  0  0
   -2.5809    4.9217   -2.8297 H   0  0  0  0  0  0  0  0  0  0  0  0
   -2.3250    4.0289   -0.8617 C   0  0  0  0  0  0  0  0  0  0  0  0
   -2.6421    4.9332   -0.3206 H   0  0  0  0  0  0  0  0  0  0  0  0
    2.9332    2.2072    0.9419 C   0  0  2  0  0  0  0  0  0  0  0  0
    2.7333    2.2810    2.0310 H   0  0  0  0  0  0  0  0  0  0  0  0
    0.4003    0.9727    1.1424 C   0  0  0  0  0  0  0  0  0  0  0  0
   -3.5078   -0.7724    3.3527 C   0  0  0  0  0  0  0  0  0  0  0  0
   -3.4016   -1.2170    4.3538 H   0  0  0  0  0  0  0  0  0  0  0  0
   -2.3598   -0.5277    2.5849 C   0  0  0  0  0  0  0  0  0  0  0  0
   -1.3661   -0.7819    2.9788 H   0  0  0  0  0  0  0  0  0  0  0  0
  1 37  1  0  0  0  0
  1 39  1  0  0  0  0
  3 39  1  0  0  0  0
  3 23  1  0  0  0  0
  4 14  1  0  0  0  0
  4  5  1  0  0  0  0
  6 40  1  0  0  0  0
  6  7  1  0  0  0  0
  8 30  1  0  0  0  0
  9  8  1  0  0  0  0
 10 12  1  0  0  0  0
 10 11  1  0  0  0  0
 10 37  1  0  0  0  0
 13 10  1  0  0  0  0
 14 15  1  0  0  0  0
 16 26  2  0  0  0  0
 16 24  1  0  0  0  0
 17 16  1  0  0  0  0
 18 37  1  0  0  0  0
 18 14  2  0  0  0  0
 19 23  2  0  0  0  0
 19 21  1  0  0  0  0
 20 19  1  0  0  0  0
 21  6  2  0  0  0  0
 22 21  1  0  0  0  0
 23 42  1  0  0  0  0
 24  4  2  0  0  0  0
 25 24  1  0  0  0  0
 26 18  1  0  0  0  0
 27 26  1  0  0  0  0
 28 33  1  0  0  0  0
 28  8  2  0  0  0  0
 29 28  1  0  0  0  0
 30 31  2  0  0  0  0
 30  3  1  0  0  0  0
 31 32  1  0  0  0  0
 33 35  2  0  0  0  0
 34 33  1  0  0  0  0
 35 36  1  0  0  0  0
 35 31  1  0  0  0  0
 37 38  1  1  0  0  0
 39  2  2  0  0  0  0
 40 41  1  0  0  0  0
 42 43  1  0  0  0  0
 42 40  2  0  0  0  0
M  END
