1
 OpenBabel05122313063D

 48 54  0  0  0  0  0  0  0  0999 V2000
    0.1126   -0.1909    0.5142 P   0  0  0  0  0  0  0  0  0  0  0  0
    1.7161   -0.5439    1.2927 C   0  0  0  0  0  0  0  0  0  0  0  0
    0.3051    1.5065   -0.0674 C   0  0  0  0  0  0  0  0  0  0  0  0
   -1.2253    0.0599    1.7428 C   0  0  0  0  0  0  0  0  0  0  0  0
    1.8227   -1.6687    2.1151 C   0  0  0  0  0  0  0  0  0  0  0  0
   -1.3311   -0.6355    2.9440 C   0  0  0  0  0  0  0  0  0  0  0  0
    3.0750   -2.1013    2.6053 C   0  0  0  0  0  0  0  0  0  0  0  0
    4.2271   -1.4638    2.1753 C   0  0  0  0  0  0  0  0  0  0  0  0
    4.1650   -0.3760    1.2594 C   0  0  0  0  0  0  0  0  0  0  0  0
    5.3562    0.1536    0.6891 C   0  0  0  0  0  0  0  0  0  0  0  0
    5.2791    1.0911   -0.3190 C   0  0  0  0  0  0  0  0  0  0  0  0
    4.0388    1.6612   -0.7292 C   0  0  0  0  0  0  0  0  0  0  0  0
    2.8489    1.2892   -0.0632 C   0  0  0  0  0  0  0  0  0  0  0  0
    2.8883    0.1558    0.8419 C   0  0  0  0  0  0  0  0  0  0  0  0
    4.1016    2.5954   -1.9173 C   0  0  0  0  0  0  0  0  0  0  0  0
    1.5945    2.0694   -0.2403 C   0  0  0  0  0  0  0  0  0  0  0  0
    1.6539    3.4620   -0.4880 C   0  0  0  0  0  0  0  0  0  0  0  0
    0.4909    4.2244   -0.6325 C   0  0  0  0  0  0  0  0  0  0  0  0
   -0.7699    3.6296   -0.5208 C   0  0  0  0  0  0  0  0  0  0  0  0
   -0.8905    2.2533   -0.2274 C   0  0  0  0  0  0  0  0  0  0  0  0
   -2.5637   -0.6832    3.6429 C   0  0  0  0  0  0  0  0  0  0  0  0
   -3.6969   -0.1118    3.0855 C   0  0  0  0  0  0  0  0  0  0  0  0
   -3.6210    0.6179    1.8639 C   0  0  0  0  0  0  0  0  0  0  0  0
   -4.7779    1.1556    1.2320 C   0  0  0  0  0  0  0  0  0  0  0  0
   -4.6672    1.8117    0.0203 C   0  0  0  0  0  0  0  0  0  0  0  0
   -3.4018    2.1076   -0.5664 C   0  0  0  0  0  0  0  0  0  0  0  0
   -2.2288    1.6813    0.0877 C   0  0  0  0  0  0  0  0  0  0  0  0
   -2.3443    0.7963    1.2249 C   0  0  0  0  0  0  0  0  0  0  0  0
   -3.4023    2.8478   -1.8824 C   0  0  0  0  0  0  0  0  0  0  0  0
    0.9268   -2.2638    2.3437 H   0  0  0  0  0  0  0  0  0  0  0  0
   -0.4661   -1.1788    3.3478 H   0  0  0  0  0  0  0  0  0  0  0  0
    3.1301   -2.9693    3.2784 H   0  0  0  0  0  0  0  0  0  0  0  0
    5.2181   -1.8218    2.4941 H   0  0  0  0  0  0  0  0  0  0  0  0
    6.3279   -0.2471    1.0158 H   0  0  0  0  0  0  0  0  0  0  0  0
    6.1972    1.4219   -0.8294 H   0  0  0  0  0  0  0  0  0  0  0  0
    4.4441    3.6158   -1.6420 H   0  0  0  0  0  0  0  0  0  0  0  0
    3.1305    2.6950   -2.4352 H   0  0  0  0  0  0  0  0  0  0  0  0
    4.8413    2.2040   -2.6445 H   0  0  0  0  0  0  0  0  0  0  0  0
    2.6262    3.9672   -0.5148 H   0  0  0  0  0  0  0  0  0  0  0  0
    0.5694    5.3082   -0.8049 H   0  0  0  0  0  0  0  0  0  0  0  0
   -1.6706    4.2534   -0.5861 H   0  0  0  0  0  0  0  0  0  0  0  0
   -2.6242   -1.2247    4.5985 H   0  0  0  0  0  0  0  0  0  0  0  0
   -4.6776   -0.2198    3.5740 H   0  0  0  0  0  0  0  0  0  0  0  0
   -5.7617    1.0047    1.7023 H   0  0  0  0  0  0  0  0  0  0  0  0
   -5.5755    2.1537   -0.5002 H   0  0  0  0  0  0  0  0  0  0  0  0
   -4.1932    2.4300   -2.5379 H   0  0  0  0  0  0  0  0  0  0  0  0
   -2.4375    2.7662   -2.4150 H   0  0  0  0  0  0  0  0  0  0  0  0
   -3.6349    3.9271   -1.7583 H   0  0  0  0  0  0  0  0  0  0  0  0
  1  2  1  0  0  0  0
  1  4  1  0  0  0  0
  2  5  1  0  0  0  0
  3  1  1  0  0  0  0
  4  6  1  0  0  0  0
  5 30  1  0  0  0  0
  5  7  2  0  0  0  0
  6 31  1  0  0  0  0
  6 21  2  0  0  0  0
  7 32  1  0  0  0  0
  8 33  1  0  0  0  0
  8  7  1  0  0  0  0
  9  8  2  0  0  0  0
 10 34  1  0  0  0  0
 10  9  1  0  0  0  0
 11 10  2  0  0  0  0
 12 11  1  0  0  0  0
 12 13  2  0  0  0  0
 13 14  1  0  0  0  0
 14  9  1  0  0  0  0
 14  2  2  0  0  0  0
 15 36  1  0  0  0  0
 15 12  1  0  0  0  0
 16  3  2  0  0  0  0
 16 13  1  0  0  0  0
 17 16  1  0  0  0  0
 18 19  1  0  0  0  0
 18 17  2  0  0  0  0
 19 20  2  0  0  0  0
 20  3  1  0  0  0  0
 20 27  1  0  0  0  0
 21 42  1  0  0  0  0
 22 43  1  0  0  0  0
 22 21  1  0  0  0  0
 23 22  2  0  0  0  0
 24 44  1  0  0  0  0
 24 23  1  0  0  0  0
 25 24  2  0  0  0  0
 26 25  1  0  0  0  0
 26 27  2  0  0  0  0
 27 28  1  0  0  0  0
 28  4  2  0  0  0  0
 28 23  1  0  0  0  0
 29 48  1  0  0  0  0
 29 26  1  0  0  0  0
 35 11  1  0  0  0  0
 37 15  1  0  0  0  0
 38 15  1  0  0  0  0
 39 17  1  0  0  0  0
 40 18  1  0  0  0  0
 41 19  1  0  0  0  0
 45 25  1  0  0  0  0
 46 29  1  0  0  0  0
 47 29  1  0  0  0  0
M  END
