1
 OpenBabel05122313063D

 45 48  0  0  1  0  0  0  0  0999 V2000
   -0.5349   -0.7163   -0.1357 P   0  0  2  0  0  0  0  0  0  0  0  0
   -2.0386    0.8946    1.4004 C   0  0  0  0  0  0  0  0  0  0  0  0
   -1.8494   -0.6100    1.2504 C   0  0  1  0  0  0  0  0  0  0  0  0
   -3.0650   -1.2621    0.5879 C   0  0  0  0  0  0  0  0  0  0  0  0
   -3.1111   -1.0360   -0.7443 C   0  0  0  0  0  0  0  0  0  0  0  0
   -3.9438   -1.3506   -1.3918 H   0  0  0  0  0  0  0  0  0  0  0  0
   -1.9652   -0.1955   -1.2817 C   0  0  1  0  0  0  0  0  0  0  0  0
   -1.7195   -0.3812   -2.3461 H   0  0  0  0  0  0  0  0  0  0  0  0
   -2.2318    1.2823   -1.0336 C   0  0  0  0  0  0  0  0  0  0  0  0
   -2.3115    1.7332    0.2604 C   0  0  0  0  0  0  0  0  0  0  0  0
   -2.5021    2.7993    0.4505 H   0  0  0  0  0  0  0  0  0  0  0  0
   -1.7256    1.2395    2.7094 C   0  0  0  0  0  0  0  0  0  0  0  0
   -1.3190    0.0306    3.4161 C   0  0  0  0  0  0  0  0  0  0  0  0
   -0.9897    0.0191    4.4655 H   0  0  0  0  0  0  0  0  0  0  0  0
   -1.3821   -1.0604    2.5888 C   0  0  0  0  0  0  0  0  0  0  0  0
   -1.1625   -2.1030    2.8495 H   0  0  0  0  0  0  0  0  0  0  0  0
   -4.0730   -1.9830    1.4223 C   0  0  0  0  0  0  0  0  0  0  0  0
   -3.6382   -2.9034    1.8664 H   0  0  0  0  0  0  0  0  0  0  0  0
   -4.9601   -2.2717    0.8262 H   0  0  0  0  0  0  0  0  0  0  0  0
   -4.4043   -1.3509    2.2734 H   0  0  0  0  0  0  0  0  0  0  0  0
   -2.4212    2.1610   -2.2537 C   0  0  0  0  0  0  0  0  0  0  0  0
   -1.5673    1.9310   -2.9324 H   0  0  0  0  0  0  0  0  0  0  0  0
   -3.7133    1.7810   -3.0059 C   0  0  0  0  0  0  0  0  0  0  0  0
   -4.6035    1.9900   -2.3773 H   0  0  0  0  0  0  0  0  0  0  0  0
   -3.7372    0.7057   -3.2754 H   0  0  0  0  0  0  0  0  0  0  0  0
   -3.8080    2.3633   -3.9451 H   0  0  0  0  0  0  0  0  0  0  0  0
   -2.3808    3.6617   -1.9538 C   0  0  0  0  0  0  0  0  0  0  0  0
   -3.2441    3.9755   -1.3307 H   0  0  0  0  0  0  0  0  0  0  0  0
   -2.4267    4.2443   -2.8953 H   0  0  0  0  0  0  0  0  0  0  0  0
   -1.4524    3.9448   -1.4193 H   0  0  0  0  0  0  0  0  0  0  0  0
   -1.7161    2.6070    3.3153 C   0  0  0  0  0  0  0  0  0  0  0  0
   -2.2694    2.6200    4.2777 H   0  0  0  0  0  0  0  0  0  0  0  0
   -2.1674    3.3633    2.6465 H   0  0  0  0  0  0  0  0  0  0  0  0
   -0.6793    2.9390    3.5361 H   0  0  0  0  0  0  0  0  0  0  0  0
   -0.3333   -2.5254   -0.4011 C   0  0  0  0  0  0  0  0  0  0  0  0
   -0.8669   -3.1999   -1.5172 C   0  0  0  0  0  0  0  0  0  0  0  0
   -1.4745   -2.6578   -2.2555 H   0  0  0  0  0  0  0  0  0  0  0  0
   -0.6249   -4.5705   -1.6972 C   0  0  0  0  0  0  0  0  0  0  0  0
   -1.0411   -5.0850   -2.5766 H   0  0  0  0  0  0  0  0  0  0  0  0
    0.1401   -5.2829   -0.7614 C   0  0  0  0  0  0  0  0  0  0  0  0
    0.3265   -6.3580   -0.9045 H   0  0  0  0  0  0  0  0  0  0  0  0
    0.6744   -4.6174    0.3537 C   0  0  0  0  0  0  0  0  0  0  0  0
    1.2824   -5.1671    1.0879 H   0  0  0  0  0  0  0  0  0  0  0  0
    0.4474   -3.2455    0.5289 C   0  0  0  0  0  0  0  0  0  0  0  0
    0.8940   -2.7228    1.3887 H   0  0  0  0  0  0  0  0  0  0  0  0
  1 35  1  6  0  0  0
  1  3  1  0  0  0  0
  2 12  2  0  0  0  0
  3  4  1  6  0  0  0
  3  2  1  0  0  0  0
  3 15  1  0  0  0  0
  4 17  1  0  0  0  0
  5  4  2  0  0  0  0
  6  5  1  0  0  0  0
  7  8  1  6  0  0  0
  7  9  1  0  0  0  0
  7  5  1  0  0  0  0
  7  1  1  0  0  0  0
  9 10  2  0  0  0  0
 10 11  1  0  0  0  0
 10  2  1  0  0  0  0
 12 31  1  0  0  0  0
 12 13  1  0  0  0  0
 13 14  1  0  0  0  0
 15 16  1  0  0  0  0
 15 13  2  0  0  0  0
 17 18  1  0  0  0  0
 17 20  1  0  0  0  0
 19 17  1  0  0  0  0
 21 27  1  0  0  0  0
 21  9  1  0  0  0  0
 22 21  1  0  0  0  0
 23 24  1  0  0  0  0
 23 21  1  0  0  0  0
 25 23  1  0  0  0  0
 26 23  1  0  0  0  0
 27 30  1  0  0  0  0
 27 28  1  0  0  0  0
 29 27  1  0  0  0  0
 31 34  1  0  0  0  0
 31 32  1  0  0  0  0
 33 31  1  0  0  0  0
 35 44  1  0  0  0  0
 36 35  2  0  0  0  0
 37 36  1  0  0  0  0
 38 36  1  0  0  0  0
 38 40  2  0  0  0  0
 39 38  1  0  0  0  0
 40 42  1  0  0  0  0
 41 40  1  0  0  0  0
 42 44  2  0  0  0  0
 42 43  1  0  0  0  0
 44 45  1  0  0  0  0
M  END
